# Generated by pormake.
# Topology ptr, (4,4)-cn, num edge types: 1
# Building blocks:
#     Node 0, Type 0, BuildingBlock: CEKHIL_clean_sbu_0, # of connection points: 4
#     Node 1, Type 0, BuildingBlock: CEKHIL_clean_sbu_0, # of connection points: 4
#     Node 2, Type 0, BuildingBlock: CEKHIL_clean_sbu_0, # of connection points: 4
#     Node 3, Type 0, BuildingBlock: CEKHIL_clean_sbu_0, # of connection points: 4
#     Node 4, Type 0, BuildingBlock: CEKHIL_clean_sbu_0, # of connection points: 4
#     Node 5, Type 0, BuildingBlock: CEKHIL_clean_sbu_0, # of connection points: 4
#     Node 6, Type 0, BuildingBlock: CEKHIL_clean_sbu_0, # of connection points: 4
#     Node 7, Type 0, BuildingBlock: CEKHIL_clean_sbu_0, # of connection points: 4
#     Node 8, Type 0, BuildingBlock: CEKHIL_clean_sbu_0, # of connection points: 4
#     Node 9, Type 0, BuildingBlock: CEKHIL_clean_sbu_0, # of connection points: 4
#     Node 10, Type 0, BuildingBlock: CEKHIL_clean_sbu_0, # of connection points: 4
#     Node 11, Type 0, BuildingBlock: CEKHIL_clean_sbu_0, # of connection points: 4
#     Node 12, Type 0, BuildingBlock: CEKHIL_clean_sbu_0, # of connection points: 4
#     Node 13, Type 0, BuildingBlock: CEKHIL_clean_sbu_0, # of connection points: 4
#     Node 14, Type 0, BuildingBlock: CEKHIL_clean_sbu_0, # of connection points: 4
#     Node 15, Type 0, BuildingBlock: CEKHIL_clean_sbu_0, # of connection points: 4
#     Node 16, Type 0, BuildingBlock: CEKHIL_clean_sbu_0, # of connection points: 4
#     Node 17, Type 0, BuildingBlock: CEKHIL_clean_sbu_0, # of connection points: 4
#     Node 18, Type 1, BuildingBlock: GIZVER_clean_linker_0, # of connection points: 4
#     Node 19, Type 1, BuildingBlock: GIZVER_clean_linker_0, # of connection points: 4
#     Node 20, Type 1, BuildingBlock: GIZVER_clean_linker_0, # of connection points: 4
#     Node 21, Type 1, BuildingBlock: GIZVER_clean_linker_0, # of connection points: 4
#     Node 22, Type 1, BuildingBlock: GIZVER_clean_linker_0, # of connection points: 4
#     Node 23, Type 1, BuildingBlock: GIZVER_clean_linker_0, # of connection points: 4
#     Node 24, Type 1, BuildingBlock: GIZVER_clean_linker_0, # of connection points: 4
#     Node 25, Type 1, BuildingBlock: GIZVER_clean_linker_0, # of connection points: 4
#     Node 26, Type 1, BuildingBlock: GIZVER_clean_linker_0, # of connection points: 4
#     Node 27, Type 1, BuildingBlock: GIZVER_clean_linker_0, # of connection points: 4
#     Node 28, Type 1, BuildingBlock: GIZVER_clean_linker_0, # of connection points: 4
#     Node 29, Type 1, BuildingBlock: GIZVER_clean_linker_0, # of connection points: 4
#     Node 30, Type 1, BuildingBlock: GIZVER_clean_linker_0, # of connection points: 4
#     Node 31, Type 1, BuildingBlock: GIZVER_clean_linker_0, # of connection points: 4
#     Node 32, Type 1, BuildingBlock: GIZVER_clean_linker_0, # of connection points: 4
#     Node 33, Type 1, BuildingBlock: GIZVER_clean_linker_0, # of connection points: 4
#     Node 34, Type 1, BuildingBlock: GIZVER_clean_linker_0, # of connection points: 4
#     Node 35, Type 1, BuildingBlock: GIZVER_clean_linker_0, # of connection points: 4
#     Edge 36, Type (0, 1), BuildingBlock: XUDNAN_clean_linker_2, # of connection points: 2
#     Edge 37, Type (0, 1), BuildingBlock: XUDNAN_clean_linker_2, # of connection points: 2
#     Edge 38, Type (0, 1), BuildingBlock: XUDNAN_clean_linker_2, # of connection points: 2
#     Edge 39, Type (0, 1), BuildingBlock: XUDNAN_clean_linker_2, # of connection points: 2
#     Edge 40, Type (0, 1), BuildingBlock: XUDNAN_clean_linker_2, # of connection points: 2
#     Edge 41, Type (0, 1), BuildingBlock: XUDNAN_clean_linker_2, # of connection points: 2
#     Edge 42, Type (0, 1), BuildingBlock: XUDNAN_clean_linker_2, # of connection points: 2
#     Edge 43, Type (0, 1), BuildingBlock: XUDNAN_clean_linker_2, # of connection points: 2
#     Edge 44, Type (0, 1), BuildingBlock: XUDNAN_clean_linker_2, # of connection points: 2
#     Edge 45, Type (0, 1), BuildingBlock: XUDNAN_clean_linker_2, # of connection points: 2
#     Edge 46, Type (0, 1), BuildingBlock: XUDNAN_clean_linker_2, # of connection points: 2
#     Edge 47, Type (0, 1), BuildingBlock: XUDNAN_clean_linker_2, # of connection points: 2
#     Edge 48, Type (0, 1), BuildingBlock: XUDNAN_clean_linker_2, # of connection points: 2
#     Edge 49, Type (0, 1), BuildingBlock: XUDNAN_clean_linker_2, # of connection points: 2
#     Edge 50, Type (0, 1), BuildingBlock: XUDNAN_clean_linker_2, # of connection points: 2
#     Edge 51, Type (0, 1), BuildingBlock: XUDNAN_clean_linker_2, # of connection points: 2
#     Edge 52, Type (0, 1), BuildingBlock: XUDNAN_clean_linker_2, # of connection points: 2
#     Edge 53, Type (0, 1), BuildingBlock: XUDNAN_clean_linker_2, # of connection points: 2
#     Edge 54, Type (0, 1), BuildingBlock: XUDNAN_clean_linker_2, # of connection points: 2
#     Edge 55, Type (0, 1), BuildingBlock: XUDNAN_clean_linker_2, # of connection points: 2
#     Edge 56, Type (0, 1), BuildingBlock: XUDNAN_clean_linker_2, # of connection points: 2
#     Edge 57, Type (0, 1), BuildingBlock: XUDNAN_clean_linker_2, # of connection points: 2
#     Edge 58, Type (0, 1), BuildingBlock: XUDNAN_clean_linker_2, # of connection points: 2
#     Edge 59, Type (0, 1), BuildingBlock: XUDNAN_clean_linker_2, # of connection points: 2
#     Edge 60, Type (0, 1), BuildingBlock: XUDNAN_clean_linker_2, # of connection points: 2
#     Edge 61, Type (0, 1), BuildingBlock: XUDNAN_clean_linker_2, # of connection points: 2
#     Edge 62, Type (0, 1), BuildingBlock: XUDNAN_clean_linker_2, # of connection points: 2
#     Edge 63, Type (0, 1), BuildingBlock: XUDNAN_clean_linker_2, # of connection points: 2
#     Edge 64, Type (0, 1), BuildingBlock: XUDNAN_clean_linker_2, # of connection points: 2
#     Edge 65, Type (0, 1), BuildingBlock: XUDNAN_clean_linker_2, # of connection points: 2
#     Edge 66, Type (0, 1), BuildingBlock: XUDNAN_clean_linker_2, # of connection points: 2
#     Edge 67, Type (0, 1), BuildingBlock: XUDNAN_clean_linker_2, # of connection points: 2
#     Edge 68, Type (0, 1), BuildingBlock: XUDNAN_clean_linker_2, # of connection points: 2
#     Edge 69, Type (0, 1), BuildingBlock: XUDNAN_clean_linker_2, # of connection points: 2
#     Edge 70, Type (0, 1), BuildingBlock: XUDNAN_clean_linker_2, # of connection points: 2
#     Edge 71, Type (0, 1), BuildingBlock: XUDNAN_clean_linker_2, # of connection points: 2
#     Edge 72, Type (0, 1), BuildingBlock: XUDNAN_clean_linker_2, # of connection points: 2
#     Edge 73, Type (0, 1), BuildingBlock: XUDNAN_clean_linker_2, # of connection points: 2
#     Edge 74, Type (0, 1), BuildingBlock: XUDNAN_clean_linker_2, # of connection points: 2
#     Edge 75, Type (0, 1), BuildingBlock: XUDNAN_clean_linker_2, # of connection points: 2
#     Edge 76, Type (0, 1), BuildingBlock: XUDNAN_clean_linker_2, # of connection points: 2
#     Edge 77, Type (0, 1), BuildingBlock: XUDNAN_clean_linker_2, # of connection points: 2
#     Edge 78, Type (0, 1), BuildingBlock: XUDNAN_clean_linker_2, # of connection points: 2
#     Edge 79, Type (0, 1), BuildingBlock: XUDNAN_clean_linker_2, # of connection points: 2
#     Edge 80, Type (0, 1), BuildingBlock: XUDNAN_clean_linker_2, # of connection points: 2
#     Edge 81, Type (0, 1), BuildingBlock: XUDNAN_clean_linker_2, # of connection points: 2
#     Edge 82, Type (0, 1), BuildingBlock: XUDNAN_clean_linker_2, # of connection points: 2
#     Edge 83, Type (0, 1), BuildingBlock: XUDNAN_clean_linker_2, # of connection points: 2
#     Edge 84, Type (0, 1), BuildingBlock: XUDNAN_clean_linker_2, # of connection points: 2
#     Edge 85, Type (0, 1), BuildingBlock: XUDNAN_clean_linker_2, # of connection points: 2
#     Edge 86, Type (0, 1), BuildingBlock: XUDNAN_clean_linker_2, # of connection points: 2
#     Edge 87, Type (0, 1), BuildingBlock: XUDNAN_clean_linker_2, # of connection points: 2
#     Edge 88, Type (0, 1), BuildingBlock: XUDNAN_clean_linker_2, # of connection points: 2
#     Edge 89, Type (0, 1), BuildingBlock: XUDNAN_clean_linker_2, # of connection points: 2
#     Edge 90, Type (0, 1), BuildingBlock: XUDNAN_clean_linker_2, # of connection points: 2
#     Edge 91, Type (0, 1), BuildingBlock: XUDNAN_clean_linker_2, # of connection points: 2
#     Edge 92, Type (0, 1), BuildingBlock: XUDNAN_clean_linker_2, # of connection points: 2
#     Edge 93, Type (0, 1), BuildingBlock: XUDNAN_clean_linker_2, # of connection points: 2
#     Edge 94, Type (0, 1), BuildingBlock: XUDNAN_clean_linker_2, # of connection points: 2
#     Edge 95, Type (0, 1), BuildingBlock: XUDNAN_clean_linker_2, # of connection points: 2
#     Edge 96, Type (0, 1), BuildingBlock: XUDNAN_clean_linker_2, # of connection points: 2
#     Edge 97, Type (0, 1), BuildingBlock: XUDNAN_clean_linker_2, # of connection points: 2
#     Edge 98, Type (0, 1), BuildingBlock: XUDNAN_clean_linker_2, # of connection points: 2
#     Edge 99, Type (0, 1), BuildingBlock: XUDNAN_clean_linker_2, # of connection points: 2
#     Edge 100, Type (0, 1), BuildingBlock: XUDNAN_clean_linker_2, # of connection points: 2
#     Edge 101, Type (0, 1), BuildingBlock: XUDNAN_clean_linker_2, # of connection points: 2
#     Edge 102, Type (0, 1), BuildingBlock: XUDNAN_clean_linker_2, # of connection points: 2
#     Edge 103, Type (0, 1), BuildingBlock: XUDNAN_clean_linker_2, # of connection points: 2
#     Edge 104, Type (0, 1), BuildingBlock: XUDNAN_clean_linker_2, # of connection points: 2
#     Edge 105, Type (0, 1), BuildingBlock: XUDNAN_clean_linker_2, # of connection points: 2
#     Edge 106, Type (0, 1), BuildingBlock: XUDNAN_clean_linker_2, # of connection points: 2
#     Edge 107, Type (0, 1), BuildingBlock: XUDNAN_clean_linker_2, # of connection points: 2
# Relax obj value: 0.048
# Max RMSD: 0.106
# Mean RMSD: 0.077
data_MOF--net-ptr--node1-CEKHIL_clean_sbu_0--node2-GIZVER_clean_linker_0--edge1-XUDNAN_clean_linker_2
_symmetry_space_group_name_H-M    P1
_symmetry_Int_Tables_number       1
_symmetry_cell_setting            triclinic
loop_
_symmetry_equiv_pos_as_xyz
'x, y, z'
_cell_length_a     80.075412
_cell_length_b     79.159475
_cell_length_c     49.389931
_cell_angle_alpha  91.203837
_cell_angle_beta   89.809381
_cell_angle_gamma 120.91632
loop_
_atom_site_label
_atom_site_type_symbol
_atom_site_fract_x
_atom_site_fract_y
_atom_site_fract_z
_atom_type_partial_charge
Co0 Co 0.00893 0.35956 0.00911 0.0
O1 O 0.02302 0.35062 0.0301 0.0
O2 O 0.0363 0.37409 -0.00032 0.0
C3 C 0.98412 0.32913 -0.00264 0.0
O4 O 0.99906 0.37242 0.98331 0.0
Co5 Co 0.96731 0.34933 0.02604 0.0
O6 O 0.96791 0.36285 0.99243 0.0
C7 C 1.00178 0.38187 0.05417 0.0
C8 C 0.0384 0.36328 0.01722 0.0
C9 C 0.98334 0.37264 0.97862 0.0
O10 O 0.01325 0.37986 0.03788 0.0
O11 O 0.98329 0.37015 0.05412 0.0
O12 O 1.0003 0.33719 0.98394 0.0
O13 O 0.98403 0.33893 0.01852 0.0
Co14 Co 0.6503 0.6488 0.00861 0.0
O15 O 0.67409 0.66076 0.9883 0.0
O16 O 0.66489 0.63606 0.01642 0.0
C17 C 0.65317 0.67748 0.02233 0.0
O18 O 0.62728 0.63304 0.03366 0.0
Co19 Co 0.61628 0.65514 0.99374 0.0
O20 O 0.60358 0.63972 0.02636 0.0
C21 C 0.62192 0.62613 0.96247 0.0
C22 C 0.6778 0.64846 -0.00019 0.0
C23 C 0.61047 0.63073 0.03896 0.0
O24 O 0.63592 0.62907 0.97834 0.0
O25 O 0.61346 0.63613 0.96412 0.0
O26 O 0.66227 0.67045 0.03531 0.0
O27 O 0.64391 0.66793 0.00069 0.0
Co28 Co 0.36293 0.00893 0.01323 0.0
O29 O 0.35481 0.02577 -0.00198 0.0
O30 O 0.37998 0.03599 0.02581 0.0
C31 C 0.33283 0.98472 0.02498 0.0
O32 O 0.37523 0.99578 0.03373 0.0
Co33 Co 0.34859 0.96745 0.98779 0.0
O34 O 0.36136 0.96412 0.0198 0.0
C35 C 0.38165 0.00239 0.96319 0.0
C36 C 0.36919 0.04025 0.0112 0.0
C37 C 0.37306 0.97851 0.03518 0.0
O38 O 0.38079 0.01359 0.98171 0.0
O39 O 0.36947 0.98384 0.96126 0.0
O40 O 0.34266 1.00018 0.04064 0.0
O41 O 0.34063 0.98517 0.00191 0.0
Co42 Co 1.00065 0.64951 0.00708 0.0
O43 O 0.98898 0.65902 0.98228 0.0
O44 O 0.97292 0.63673 0.01348 0.0
C45 C 0.02598 0.67952 0.01901 0.0
O46 O 0.0073 0.63609 0.03637 0.0
Co47 Co 0.04207 0.65638 -0.00125 0.0
O48 O 0.03845 0.64382 0.0343 0.0
C49 C 0.0087 0.62498 0.96703 0.0
C50 C 0.97258 0.64734 0.994 0.0
C51 C 0.02177 0.63496 0.04534 0.0
O52 O 0.99668 0.62823 0.98017 0.0
O53 O 0.0272 0.63551 0.97022 0.0
O54 O 0.00925 0.67262 0.03077 0.0
O55 O 0.02665 0.66879 -0.0005 0.0
Co56 Co 0.35894 0.36478 -0.00106 0.0
O57 O 0.33624 0.35128 0.02135 0.0
O58 O 0.34367 0.37725 0.99652 0.0
C59 C 0.35555 0.33678 0.98037 0.0
O60 O 0.38018 0.38239 0.97278 0.0
Co61 Co 0.39446 0.35949 0.00402 0.0
O62 O 0.40541 0.37752 0.97312 0.0
C63 C 0.38883 0.38447 0.04387 0.0
C64 C 0.33165 0.36378 0.01279 0.0
C65 C 0.39702 0.38636 0.96443 0.0
O66 O 0.37471 0.38309 0.02973 0.0
O67 O 0.39715 0.37466 0.03851 0.0
O68 O 0.34573 0.34432 0.97094 0.0
O69 O 0.36635 0.34572 0.00132 0.0
Co70 Co 0.64558 0.00712 0.00549 0.0
O71 O 0.65541 0.99478 0.02868 0.0
O72 O 0.62848 0.97872 0.00406 0.0
C73 C 0.67461 0.0275 0.98603 0.0
O74 O 0.63086 0.01433 0.9787 0.0
Co75 Co 0.66119 0.05216 0.01002 0.0
O76 O 0.6425 0.04698 0.98039 0.0
C77 C 0.63265 0.02511 0.04982 0.0
C78 C 0.64073 0.97801 0.02053 0.0
C79 C 0.63061 0.0297 0.9712 0.0
O80 O 0.63046 0.00991 0.03645 0.0
O81 O 0.64536 0.04282 0.04378 0.0
O82 O 0.66392 0.0094 0.97737 0.0
O83 O 0.66823 0.0323 0.007 0.0
Co84 Co 0.66981 0.69571 0.34282 0.0
O85 O 0.68084 0.6862 0.36901 0.0
O86 O 0.69792 0.71132 0.34217 0.0
C87 C 0.64798 0.66516 0.32643 0.0
O88 O 0.6648 0.70995 0.31285 0.0
Co89 Co 0.62639 0.68376 0.33943 0.0
O90 O 0.63316 0.69882 0.30558 0.0
C91 C 0.65285 0.71292 0.38134 0.0
C92 C 0.6978 0.69967 0.3604 0.0
C93 C 0.65101 0.71016 0.29982 0.0
O94 O 0.66804 0.71369 0.37094 0.0
O95 O 0.63547 0.70088 0.37294 0.0
O96 O 0.66575 0.67433 0.31755 0.0
O97 O 0.64416 0.67446 0.34473 0.0
Co98 Co 0.32717 0.9832 0.35354 0.0
O99 O 0.34815 0.99305 0.3277 0.0
O100 O 0.33986 0.96814 0.35496 0.0
C101 C 0.33476 0.013 0.37055 0.0
O102 O 0.30729 0.96869 0.38285 0.0
Co103 Co 0.29435 0.99294 0.35227 0.0
O104 O 0.28444 0.97701 0.38532 0.0
C105 C 0.29282 0.96265 0.31449 0.0
C106 C 0.35142 0.97961 0.33641 0.0
C107 C 0.29178 0.967 0.39328 0.0
O108 O 0.30805 0.96425 0.32576 0.0
O109 O 0.2861 0.97382 0.32064 0.0
O110 O 0.34394 0.00448 0.37886 0.0
O111 O 0.32226 0.00402 0.35119 0.0
Co112 Co 0.02678 0.34098 0.33814 0.0
O113 O 0.01739 0.35368 0.31464 0.0
O114 O 0.04434 0.36912 0.33944 0.0
C115 C 0.99787 0.32072 0.35819 0.0
O116 O 0.04115 0.33414 0.36544 0.0
Co117 Co 0.01118 0.29588 0.33699 0.0
O118 O 0.0288 0.3016 0.36849 0.0
C119 C 0.04141 0.32209 0.29789 0.0
C120 C 0.03239 0.37025 0.3229 0.0
C121 C 0.04099 0.31931 0.37581 0.0
O122 O 0.04222 0.33767 0.30798 0.0
O123 O 0.02904 0.30461 0.3053 0.0
O124 O 0.00862 0.33893 0.36644 0.0
O125 O 1.00411 0.31578 0.33722 0.0
Co126 Co 0.66908 0.98052 0.34355 0.0
O127 O 0.65546 0.99075 0.32413 0.0
O128 O 0.64197 0.96699 0.354 0.0
C129 C 0.69552 0.01019 0.35447 0.0
O130 O 0.67824 0.96626 0.36797 0.0
Co131 Co 0.70938 0.98806 0.32379 0.0
O132 O 0.70729 0.97124 0.35422 0.0
C133 C 0.67317 0.95686 0.29732 0.0
C134 C 0.63996 0.97811 0.3369 0.0
C135 C 0.69257 0.96327 0.3697 0.0
O136 O 0.6627 0.95999 0.31415 0.0
O137 O 0.69177 0.9674 0.29671 0.0
O138 O 0.67981 0.00317 0.36891 0.0
O139 O 0.69418 0.99994 0.3331 0.0
Co140 Co 0.02669 0.70008 0.34636 0.0
O141 O 1.00433 0.68632 0.36944 0.0
O142 O 0.00877 0.70909 0.34009 0.0
C143 C 0.02725 0.67277 0.33323 0.0
O144 O 0.0468 0.717 0.31836 0.0
Co145 Co 0.06543 0.70055 0.35429 0.0
O146 O 0.07339 0.7144 0.31948 0.0
C147 C 0.05736 0.72744 0.38732 0.0
C148 C 0.99779 0.69642 0.35797 0.0
C149 C 0.06356 0.72124 0.30926 0.0
O150 O 0.04113 0.72154 0.37479 0.0
O151 O 0.06805 0.71996 0.38311 0.0
O152 O 0.01549 0.67715 0.32147 0.0
O153 O 0.03739 0.68427 0.35311 0.0
Co154 Co 0.31956 0.33991 0.34674 0.0
O155 O 0.33192 0.33261 0.37363 0.0
O156 O 0.30684 0.31136 0.3483 0.0
C157 C 0.34834 0.3626 0.32835 0.0
O158 O 0.30343 0.34161 0.31592 0.0
Co159 Co 0.327 0.38203 0.34293 0.0
O160 O 0.3134 0.37316 0.30758 0.0
C161 C 0.29753 0.3542 0.38146 0.0
C162 C 0.32013 0.31446 0.36608 0.0
C163 C 0.30281 0.35485 0.30191 0.0
O164 O 0.30095 0.34052 0.37415 0.0
O165 O 0.30694 0.37168 0.37227 0.0
O166 O 0.34007 0.34409 0.32156 0.0
O167 O 0.33957 0.36692 0.34681 0.0
Co168 Co 0.32935 0.03021 0.69008 0.0
O169 O 0.33923 0.01695 0.71117 0.0
O170 O 0.35758 0.04358 0.6874 0.0
C171 C 0.30485 1.00193 0.67115 0.0
O172 O 0.32451 0.04741 0.66456 0.0
Co173 Co 0.28681 0.02149 0.69654 0.0
O174 O 0.29311 0.03924 0.66571 0.0
C175 C 0.31718 0.04613 0.73752 0.0
C176 C 0.35639 0.02976 0.70253 0.0
C177 C 0.31031 0.04941 0.65654 0.0
O178 O 0.33091 0.04721 0.72247 0.0
O179 O 0.29907 0.03505 0.73171 0.0
O180 O 0.32224 0.01019 0.66102 0.0
O181 O 0.30317 0.0104 0.69259 0.0
Co182 Co 0.97952 0.31146 0.67211 0.0
O183 O 1.0005 0.31989 0.64652 0.0
O184 O 0.98776 0.29237 0.66948 0.0
C185 C 0.99228 0.34116 0.69351 0.0
O186 O 0.95858 0.29787 0.70082 0.0
Co187 Co 0.95368 0.33045 0.67573 0.0
O188 O 0.94046 0.312 0.70555 0.0
C189 C 0.94647 0.30092 0.63238 0.0
C190 C 1.0009 0.30423 0.65266 0.0
C191 C 0.94451 0.29895 0.71171 0.0
O192 O 0.95909 0.29731 0.64266 0.0
O193 O 0.94386 0.31472 0.64119 0.0
O194 O 0.99832 0.32929 0.69962 0.0
O195 O 0.97983 0.33532 0.67394 0.0
Co196 Co 0.68938 0.66873 0.67301 0.0
O197 O 0.68347 0.68486 0.65126 0.0
O198 O 0.70439 0.69608 0.68563 0.0
C199 C 0.65813 0.64421 0.67908 0.0
O200 O 0.69911 0.65619 0.69985 0.0
Co201 Co 0.67776 0.6267 0.65113 0.0
O202 O 0.68691 0.62444 0.68727 0.0
C203 C 0.713 0.6617 0.6304 0.0
C204 C 0.69589 0.69973 0.66611 0.0
C205 C 0.69691 0.63904 0.7034 0.0
O206 O 0.71079 0.67303 0.64724 0.0
O207 O 0.70069 0.64322 0.62761 0.0
O208 O 0.6657 0.66001 0.69443 0.0
O209 O 0.66893 0.64468 0.65939 0.0
Co210 Co 0.32476 0.3059 0.68451 0.0
O211 O 0.31259 0.31739 0.66457 0.0
O212 O 0.29676 0.28999 0.68786 0.0
C213 C 0.34779 0.33399 0.70481 0.0
O214 O 0.33216 0.28989 0.70817 0.0
Co215 Co 0.36772 0.31781 0.67452 0.0
O216 O 0.36449 0.30238 0.70728 0.0
C217 C 0.33666 0.28882 0.63764 0.0
C218 C 0.29607 0.30284 0.67262 0.0
C219 C 0.34764 0.29032 0.71637 0.0
O220 O 0.32368 0.28979 0.65184 0.0
O221 O 0.35496 0.29957 0.64248 0.0
O222 O 0.33033 0.32429 0.71466 0.0
O223 O 0.35033 0.32751 0.68191 0.0
Co224 Co 0.68588 0.02122 0.67391 0.0
O225 O 0.66383 0.01102 0.6977 0.0
O226 O 0.67649 0.03936 0.67664 0.0
C227 C 0.67513 0.99256 0.65034 0.0
O228 O 0.7079 0.03656 0.64741 0.0
Co229 Co 0.71296 0.00366 0.66978 0.0
O230 O 0.7253 0.02199 0.63941 0.0
C231 C 0.71875 0.03256 0.7139 0.0
C232 C 0.66296 0.02652 0.69218 0.0
C233 C 0.72162 0.03559 0.63522 0.0
O234 O 0.70499 0.03493 0.70489 0.0
O235 O 0.72243 0.01971 0.70411 0.0
O236 O 0.66897 0.0043 0.6441 0.0
O237 O 0.68653 0.9979 0.67107 0.0
Co238 Co 0.97748 0.65903 0.67174 0.0
O239 O 0.98737 0.64828 0.69761 0.0
O240 O 0.96327 0.63054 0.66867 0.0
C241 C 0.0071 0.68244 0.65696 0.0
O242 O 0.96343 0.66427 0.6417 0.0
Co243 Co 0.98654 0.70203 0.67566 0.0
O244 O 0.97294 0.69631 0.64018 0.0
C245 C 0.95603 0.67182 0.71034 0.0
C246 C 0.97477 0.63103 0.68759 0.0
C247 C 0.96286 0.67868 0.63105 0.0
O248 O 0.95812 0.65834 0.69861 0.0
O249 O 0.96696 0.6902 0.70558 0.0
O250 O 0.99892 0.66445 0.64761 0.0
O251 O 0.99786 0.68552 0.67609 0.0
H252 H 0.15471 0.33238 0.16916 0.0
H253 H 0.15484 0.34367 0.08448 0.0
H254 H 0.1191 0.35403 0.1393 0.0
H255 H 0.15929 0.31227 0.13338 0.0
H256 H 0.16299 0.31984 0.09926 0.0
H257 H 0.18545 0.33111 0.16873 0.0
H258 H 0.24293 0.35636 0.13607 0.0
H259 H 0.19481 0.34274 0.0835 0.0
C260 C 0.15018 0.33806 0.15278 0.0
C261 C 0.13679 0.34422 0.15771 0.0
C262 C 0.15645 0.33744 0.12638 0.0
C263 C 0.15023 0.3444 0.10489 0.0
C264 C 0.13708 0.351 0.10945 0.0
C265 C 0.13053 0.35076 0.13595 0.0
C266 C 0.16605 0.32554 0.12056 0.0
C267 C 0.18778 0.33673 0.12577 0.0
C268 C 0.19528 0.33732 0.15183 0.0
C269 C 0.21532 0.34489 0.15574 0.0
C270 C 0.22775 0.35187 0.13341 0.0
C271 C 0.22053 0.35099 0.10728 0.0
C272 C 0.20058 0.34389 0.10372 0.0
H273 H 0.67162 0.82756 0.16759 0.0
H274 H 0.6624 0.81454 0.08183 0.0
H275 H 0.65121 0.76899 0.13754 0.0
H276 H 0.68797 0.85387 0.13261 0.0
H277 H 0.68179 0.84808 0.09767 0.0
H278 H 0.65909 0.84847 0.16485 0.0
H279 H 0.63316 0.87968 0.13279 0.0
H280 H 0.66319 0.86083 0.07968 0.0
C281 C 0.66639 0.81701 0.15082 0.0
C282 C 0.66005 0.79718 0.1557 0.0
C283 C 0.6667 0.82332 0.12417 0.0
C284 C 0.66129 0.80964 0.10243 0.0
C285 C 0.65569 0.78996 0.10708 0.0
C286 C 0.65464 0.78388 0.13378 0.0
C287 C 0.67558 0.84501 0.1184 0.0
C288 C 0.66136 0.85217 0.12151 0.0
C289 C 0.65489 0.85362 0.1475 0.0
C290 C 0.64452 0.86334 0.15166 0.0
C291 C 0.64018 0.87119 0.1295 0.0
C292 C 0.64692 0.87043 0.10363 0.0
C293 C 0.65727 0.86066 0.0995 0.0
H294 H 0.16632 0.81975 0.17606 0.0
H295 H 0.15807 0.80313 0.09162 0.0
H296 H 0.10922 0.79126 0.14156 0.0
H297 H 0.191 0.81504 0.14392 0.0
H298 H 0.19 0.81944 0.10897 0.0
H299 H 0.1977 0.84156 0.17919 0.0
H300 H 0.23245 0.90067 0.15243 0.0
H301 H 0.20745 0.85265 0.09405 0.0
C302 C 0.15711 0.81442 0.15825 0.0
C303 C 0.13698 0.80586 0.16148 0.0
C304 C 0.16505 0.81487 0.13257 0.0
C305 C 0.15222 0.80478 0.11062 0.0
C306 C 0.13188 0.79536 0.11397 0.0
C307 C 0.12475 0.79777 0.13885 0.0
C308 C 0.18673 0.82285 0.12958 0.0
C309 C 0.19922 0.84481 0.13568 0.0
C310 C 0.20317 0.8518 0.16273 0.0
C311 C 0.21502 0.87195 0.16877 0.0
C312 C 0.22328 0.88511 0.14757 0.0
C313 C 0.22186 0.87838 0.12067 0.0
C314 C 0.20897 0.8582 0.11467 0.0
H315 H 0.37764 0.20532 0.85097 0.0
H316 H 0.37334 0.21609 0.93612 0.0
H317 H 0.34251 0.22894 0.87676 0.0
H318 H 0.40118 0.20629 0.88496 0.0
H319 H 0.39793 0.20884 0.92033 0.0
H320 H 0.36945 0.17332 0.8616 0.0
H321 H 0.35758 0.12268 0.9061 0.0
H322 H 0.38973 0.18005 0.94445 0.0
C323 C 0.37128 0.20946 0.86729 0.0
C324 C 0.35874 0.21632 0.86108 0.0
C325 C 0.37596 0.20842 0.89452 0.0
C326 C 0.36893 0.21567 0.91527 0.0
C327 C 0.35677 0.22303 0.90891 0.0
C328 C 0.35136 0.22269 0.88192 0.0
C329 C 0.39004 0.2016 0.90111 0.0
C330 C 0.3801 0.17938 0.90316 0.0
C331 C 0.37043 0.16712 0.88041 0.0
C332 C 0.362 0.14669 0.88186 0.0
C333 C 0.36362 0.13848 0.90569 0.0
C334 C 0.37353 0.15025 0.92841 0.0
C335 C 0.38183 0.1708 0.92708 0.0
H336 H 0.85768 0.1749 0.84145 0.0
H337 H 0.86877 0.18581 0.92752 0.0
H338 H 0.89805 0.23299 0.87168 0.0
H339 H 0.8545 0.14846 0.87659 0.0
H340 H 0.85182 0.15286 0.91124 0.0
H341 H 0.82977 0.14575 0.84202 0.0
H342 H 0.77175 0.11196 0.87253 0.0
H343 H 0.81993 0.14139 0.9279 0.0
C344 C 0.86445 0.18488 0.85856 0.0
C345 C 0.87791 0.20478 0.85377 0.0
C346 C 0.86079 0.17783 0.88527 0.0
C347 C 0.87084 0.19111 0.90701 0.0
C348 C 0.88464 0.21093 0.90211 0.0
C349 C 0.88771 0.2176 0.87555 0.0
C350 C 0.84909 0.1559 0.89032 0.0
C351 C 0.82737 0.14645 0.88547 0.0
C352 C 0.81987 0.14149 0.85889 0.0
C353 C 0.79981 0.12903 0.85399 0.0
C354 C 0.78708 0.12256 0.87599 0.0
C355 C 0.79421 0.12683 0.90263 0.0
C356 C 0.81434 0.13897 0.90734 0.0
H357 H 0.83188 0.63978 0.83607 0.0
H358 H 0.84115 0.63453 0.92031 0.0
H359 H 0.88995 0.66601 0.86744 0.0
H360 H 0.80693 0.6122 0.86795 0.0
H361 H 0.80924 0.61748 0.90326 0.0
H362 H 0.79892 0.63124 0.83616 0.0
H363 H 0.76272 0.65088 0.87207 0.0
H364 H 0.79785 0.63791 0.92289 0.0
C365 C 0.84169 0.64382 0.85322 0.0
C366 C 0.86185 0.65368 0.8488 0.0
C367 C 0.83413 0.63782 0.87937 0.0
C368 C 0.84706 0.6409 0.90087 0.0
C369 C 0.8673 0.65047 0.89662 0.0
C370 C 0.87443 0.65816 0.87095 0.0
C371 C 0.81238 0.62451 0.88314 0.0
C372 C 0.80084 0.6347 0.87978 0.0
C373 C 0.79434 0.63608 0.85386 0.0
C374 C 0.78079 0.64222 0.85083 0.0
C375 C 0.77398 0.64721 0.874 0.0
C376 C 0.77997 0.64558 0.89991 0.0
C377 C 0.79379 0.63985 0.90279 0.0
H378 H 0.82252 0.67139 0.50327 0.0
H379 H 0.81206 0.67344 0.41807 0.0
H380 H 0.79156 0.69906 0.47697 0.0
H381 H 0.8203 0.64594 0.46676 0.0
H382 H 0.8242 0.65317 0.43241 0.0
H383 H 0.84709 0.66328 0.50149 0.0
H384 H 0.90449 0.68732 0.46917 0.0
H385 H 0.85671 0.67368 0.41596 0.0
C386 C 0.81763 0.67673 0.48691 0.0
C387 C 0.80783 0.68676 0.49307 0.0
C388 C 0.8199 0.67242 0.45978 0.0
C389 C 0.81162 0.67781 0.43888 0.0
C390 C 0.80125 0.68729 0.44516 0.0
C391 C 0.80009 0.6923 0.4721 0.0
C392 C 0.82781 0.659 0.45362 0.0
C393 C 0.84955 0.66876 0.45846 0.0
C394 C 0.85693 0.66924 0.48457 0.0
C395 C 0.87686 0.67633 0.4886 0.0
C396 C 0.88937 0.68304 0.46639 0.0
C397 C 0.88223 0.68189 0.44016 0.0
C398 C 0.86236 0.67508 0.43631 0.0
H399 H 0.34628 0.16351 0.51281 0.0
H400 H 0.35341 0.15482 0.42794 0.0
H401 H 0.3345 0.10715 0.48277 0.0
H402 H 0.36854 0.19182 0.481 0.0
H403 H 0.36608 0.18743 0.44538 0.0
H404 H 0.33781 0.18621 0.50751 0.0
H405 H 0.31259 0.21546 0.46809 0.0
H406 H 0.34774 0.1986 0.42261 0.0
C407 C 0.34469 0.15392 0.49584 0.0
C408 C 0.33934 0.13434 0.50078 0.0
C409 C 0.3493 0.16142 0.4694 0.0
C410 C 0.34887 0.14906 0.44807 0.0
C411 C 0.34351 0.12951 0.45297 0.0
C412 C 0.33841 0.12222 0.4791 0.0
C413 C 0.35778 0.18323 0.46463 0.0
C414 C 0.34282 0.18959 0.46441 0.0
C415 C 0.33441 0.19079 0.48888 0.0
C416 C 0.32325 0.19981 0.4901 0.0
C417 C 0.32002 0.20724 0.46653 0.0
C418 C 0.32906 0.20726 0.44218 0.0
C419 C 0.34014 0.19802 0.44108 0.0
H420 H 0.83793 0.14214 0.51146 0.0
H421 H 0.82962 0.13883 0.42483 0.0
H422 H 0.78146 0.1036 0.47732 0.0
H423 H 0.86547 0.15158 0.48015 0.0
H424 H 0.86173 0.15025 0.44436 0.0
H425 H 0.85502 0.1774 0.5043 0.0
H426 H 0.89391 0.23396 0.47139 0.0
H427 H 0.88337 0.18189 0.42816 0.0
C428 C 0.82841 0.13678 0.49384 0.0
C429 C 0.80859 0.12297 0.49709 0.0
C430 C 0.83615 0.14265 0.46771 0.0
C431 C 0.82364 0.13468 0.44495 0.0
C432 C 0.80373 0.12058 0.44809 0.0
C433 C 0.79649 0.11505 0.47434 0.0
C434 C 0.858 0.15479 0.46385 0.0
C435 C 0.86614 0.17681 0.46441 0.0
C436 C 0.86357 0.18606 0.48743 0.0
C437 C 0.87331 0.20665 0.48963 0.0
C438 C 0.88545 0.21804 0.46878 0.0
C439 C 0.88945 0.20927 0.44692 0.0
C440 C 0.87958 0.18864 0.44447 0.0
H441 H 0.03852 0.54098 0.17659 0.0
H442 H 0.0425 0.55087 0.26311 0.0
H443 H 0.01567 0.57426 0.21279 0.0
H444 H 0.06523 0.54154 0.20656 0.0
H445 H 0.06224 0.54005 0.24226 0.0
H446 H 0.04115 0.5129 0.17617 0.0
H447 H 0.02337 0.45701 0.21036 0.0
H448 H 0.04542 0.50833 0.26246 0.0
C449 C 0.03494 0.54634 0.19473 0.0
C450 C 0.02509 0.55664 0.19237 0.0
C451 C 0.04095 0.54381 0.22039 0.0
C452 C 0.03733 0.55221 0.2435 0.0
C453 C 0.02831 0.56343 0.24112 0.0
C454 C 0.02185 0.56502 0.21546 0.0
C455 C 0.05406 0.53531 0.22271 0.0
C456 C 0.04335 0.51306 0.21986 0.0
C457 C 0.03828 0.50404 0.19391 0.0
C458 C 0.03058 0.48372 0.19064 0.0
C459 C 0.028 0.47242 0.21338 0.0
C460 C 0.03337 0.481 0.23937 0.0
C461 C 0.0408 0.5014 0.24258 0.0
H462 H 0.52712 0.50718 0.17156 0.0
H463 H 0.54036 0.51761 0.25718 0.0
H464 H 0.56989 0.56473 0.20124 0.0
H465 H 0.52114 0.47971 0.2039 0.0
H466 H 0.52313 0.48442 0.23946 0.0
H467 H 0.49482 0.48239 0.17726 0.0
H468 H 0.44053 0.45316 0.21884 0.0
H469 H 0.49383 0.47399 0.26332 0.0
C470 C 0.53483 0.51707 0.18849 0.0
C471 C 0.54883 0.53679 0.18353 0.0
C472 C 0.53155 0.50996 0.21515 0.0
C473 C 0.54242 0.52299 0.23671 0.0
C474 C 0.55666 0.54268 0.2317 0.0
C475 C 0.55945 0.54938 0.20517 0.0
C476 C 0.51871 0.48813 0.22019 0.0
C477 C 0.49714 0.48099 0.22071 0.0
C478 C 0.48703 0.4784 0.19622 0.0
C479 C 0.46665 0.46846 0.19571 0.0
C480 C 0.45632 0.46183 0.21981 0.0
C481 C 0.4659 0.46355 0.24426 0.0
C482 C 0.48639 0.47339 0.24472 0.0
H483 H 0.50784 0.97456 0.17238 0.0
H484 H 0.50581 0.95846 0.25572 0.0
H485 H 0.56082 0.99311 0.21585 0.0
H486 H 0.4792 0.94231 0.19391 0.0
H487 H 0.4767 0.94252 0.22963 0.0
H488 H 0.47167 0.9622 0.16524 0.0
H489 H 0.43504 0.98115 0.20132 0.0
H490 H 0.46841 0.96551 0.25192 0.0
C491 C 0.51518 0.97543 0.19121 0.0
C492 C 0.53554 0.98569 0.19227 0.0
C493 C 0.50431 0.96569 0.21418 0.0
C494 C 0.51415 0.9663 0.2382 0.0
C495 C 0.53465 0.97625 0.23924 0.0
C496 C 0.54509 0.98602 0.21608 0.0
C497 C 0.48249 0.95228 0.21187 0.0
C498 C 0.47172 0.96325 0.20893 0.0
C499 C 0.46645 0.96622 0.18307 0.0
C500 C 0.45348 0.97309 0.18018 0.0
C501 C 0.44618 0.97737 0.20352 0.0
C502 C 0.45138 0.97472 0.22955 0.0
C503 C 0.46456 0.96806 0.23204 0.0
H504 H 0.49009 0.01443 0.83398 0.0
H505 H 0.47819 0.01042 0.74839 0.0
H506 H 0.45756 0.03883 0.8024 0.0
H507 H 0.48601 0.98589 0.79988 0.0
H508 H 0.49162 0.99242 0.76556 0.0
H509 H 0.51171 0.00345 0.83673 0.0
H510 H 0.56908 0.02079 0.80925 0.0
H511 H 0.52507 0.01121 0.75135 0.0
C512 C 0.48501 0.01866 0.8166 0.0
C513 C 0.47474 0.02847 0.82082 0.0
C514 C 0.48706 0.01271 0.79034 0.0
C515 C 0.47806 0.01627 0.76838 0.0
C516 C 0.46742 0.0258 0.77252 0.0
C517 C 0.46666 0.03258 0.79866 0.0
C518 C 0.49458 0.99867 0.78658 0.0
C519 C 0.51601 0.00737 0.79335 0.0
C520 C 0.52207 0.00783 0.82038 0.0
C521 C 0.5412 0.01257 0.82612 0.0
C522 C 0.55429 0.0171 0.80488 0.0
C523 C 0.54863 0.01658 0.77803 0.0
C524 C 0.52961 0.01216 0.77225 0.0
H525 H 0.00963 0.49051 0.84461 0.0
H526 H 0.02088 0.48483 0.76018 0.0
H527 H 1.00415 0.43686 0.81371 0.0
H528 H 0.0336 0.52029 0.81336 0.0
H529 H 0.02999 0.51646 0.77781 0.0
H530 H 0.00669 0.51759 0.84326 0.0
H531 H 0.97443 0.5405 0.80598 0.0
H532 H 0.00649 0.522 0.75645 0.0
C533 C 0.00969 0.48177 0.82754 0.0
C534 C 0.00587 0.46263 0.83195 0.0
C535 C 0.01491 0.48997 0.8015 0.0
C536 C 0.01614 0.47858 0.78003 0.0
C537 C 0.01229 0.45948 0.7846 0.0
C538 C 0.00694 0.4516 0.81032 0.0
C539 C 0.02237 0.51165 0.79752 0.0
C540 C 0.00682 0.51713 0.79945 0.0
C541 C 1.00086 0.52013 0.82508 0.0
C542 C 0.98888 0.5282 0.8275 0.0
C543 C 0.98262 0.53307 0.80412 0.0
C544 C 0.98912 0.53116 0.77857 0.0
C545 C 1.00083 0.52274 0.77612 0.0
H546 H 0.50272 0.48923 0.83104 0.0
H547 H 0.48275 0.45312 0.75829 0.0
H548 H 0.44189 0.45351 0.81409 0.0
H549 H 0.52047 0.47179 0.79628 0.0
H550 H 0.51672 0.47622 0.76248 0.0
H551 H 0.53526 0.49931 0.83109 0.0
H552 H 0.57177 0.55684 0.80007 0.0
H553 H 0.53133 0.5098 0.74658 0.0
C554 C 0.49124 0.48021 0.8167 0.0
C555 C 0.47192 0.47266 0.82482 0.0
C556 C 0.49543 0.4745 0.79146 0.0
C557 C 0.47981 0.45968 0.77577 0.0
C558 C 0.46052 0.45171 0.78445 0.0
C559 C 0.45681 0.45997 0.80726 0.0
C560 C 0.51615 0.48052 0.78391 0.0
C561 C 0.53099 0.50221 0.78848 0.0
C562 C 0.53952 0.50924 0.81428 0.0
C563 C 0.55353 0.52914 0.81843 0.0
C564 C 0.55999 0.5418 0.79658 0.0
C565 C 0.5524 0.5351 0.7704 0.0
C566 C 0.53747 0.51526 0.76661 0.0
H567 H 0.70403 0.86932 0.50715 0.0
H568 H 0.70216 0.8791 0.5923 0.0
H569 H 0.666 0.88829 0.53856 0.0
H570 H 0.72696 0.86812 0.54 0.0
H571 H 0.72294 0.86805 0.57562 0.0
H572 H 0.69528 0.83704 0.51318 0.0
H573 H 0.68294 0.78321 0.54858 0.0
H574 H 0.71608 0.8377 0.59405 0.0
C575 C 0.6969 0.87195 0.52396 0.0
C576 C 0.6846 0.87947 0.51921 0.0
C577 C 0.70151 0.86954 0.55069 0.0
C578 C 0.69588 0.87742 0.5723 0.0
C579 C 0.68394 0.88522 0.56741 0.0
C580 C 0.67591 0.88299 0.54161 0.0
C581 C 0.71546 0.86226 0.55572 0.0
C582 C 0.70554 0.83995 0.55463 0.0
C583 C 0.69605 0.82946 0.53065 0.0
C584 C 0.68796 0.8091 0.52877 0.0
C585 C 0.6895 0.79906 0.55051 0.0
C586 C 0.70015 0.80916 0.57389 0.0
C587 C 0.70775 0.82966 0.57618 0.0
H588 H 0.18899 0.84272 0.51523 0.0
H589 H 0.19268 0.85731 0.60061 0.0
H590 H 0.22465 0.90265 0.54318 0.0
H591 H 0.17868 0.81714 0.54948 0.0
H592 H 0.18078 0.82348 0.58474 0.0
H593 H 0.15352 0.828 0.52491 0.0
H594 H 0.09779 0.78917 0.55985 0.0
H595 H 0.1498 0.80318 0.603 0.0
C596 C 0.19405 0.8536 0.53162 0.0
C597 C 0.20685 0.87354 0.52603 0.0
C598 C 0.18826 0.84765 0.5585 0.0
C599 C 0.19615 0.86185 0.57979 0.0
C600 C 0.20967 0.88162 0.57425 0.0
C601 C 0.21421 0.88734 0.54739 0.0
C602 C 0.17605 0.82598 0.56483 0.0
C603 C 0.15434 0.81819 0.56511 0.0
C604 C 0.14497 0.81984 0.5421 0.0
C605 C 0.12453 0.80951 0.5401 0.0
C606 C 0.1135 0.79816 0.5619 0.0
C607 C 0.12245 0.79567 0.58451 0.0
C608 C 0.14288 0.80581 0.58611 0.0
H609 H 0.16832 0.30272 0.50097 0.0
H610 H 0.16643 0.2913 0.58624 0.0
H611 H 0.22062 0.31664 0.54342 0.0
H612 H 0.13788 0.27573 0.52412 0.0
H613 H 0.13701 0.27477 0.56001 0.0
H614 H 0.13986 0.30528 0.50079 0.0
H615 H 0.10266 0.32258 0.5384 0.0
H616 H 0.1231 0.29091 0.58404 0.0
C617 C 0.17571 0.3038 0.51982 0.0
C618 C 0.19585 0.31107 0.51969 0.0
C619 C 0.16491 0.29658 0.54382 0.0
C620 C 0.17468 0.2972 0.56787 0.0
C621 C 0.19483 0.3045 0.56799 0.0
C622 C 0.20519 0.31146 0.54381 0.0
C623 C 0.14283 0.28511 0.54287 0.0
C624 C 0.13379 0.29789 0.54305 0.0
C625 C 0.13302 0.30667 0.51896 0.0
C626 C 0.12219 0.31601 0.5177 0.0
C627 C 0.11207 0.31657 0.54048 0.0
C628 C 0.11197 0.30738 0.5645 0.0
C629 C 0.12329 0.2984 0.56583 0.0
H630 H 0.98385 0.38854 0.09682 0.0
H631 H 0.03788 0.41549 0.05179 0.0
H632 H 0.04965 0.4464 0.07845 0.0
H633 H 0.97908 0.43107 0.10259 0.0
H634 H 0.96981 0.42594 0.1366 0.0
H635 H 0.96546 0.406 0.11377 0.0
H636 H 0.98121 0.39376 0.14806 0.0
H637 H 0.98508 0.41331 0.17123 0.0
H638 H 0.00531 0.41074 0.16108 0.0
H639 H 0.0555 0.47438 0.11044 0.0
H640 H 0.05678 0.49521 0.14941 0.0
H641 H 0.99872 0.44985 0.1724 0.0
C642 C 0.9982 0.40089 0.09254 0.0
C643 C 0.0099 0.39959 0.07211 0.0
C644 C 0.02866 0.41609 0.06741 0.0
C645 C 0.0354 0.43377 0.08225 0.0
C646 C 0.02322 0.43469 0.10171 0.0
C647 C 0.00515 0.41856 0.10715 0.0
C648 C 0.99522 0.42295 0.12997 0.0
C649 C 0.97627 0.4214 0.12013 0.0
C650 C 0.9915 0.4094 0.154 0.0
C651 C 0.0106 0.44405 0.13674 0.0
C652 C 0.02656 0.45069 0.12002 0.0
C653 C 0.04302 0.4694 0.1235 0.0
C654 C 0.04355 0.48123 0.14546 0.0
C655 C 0.02777 0.47416 0.16364 0.0
C656 C 0.01085 0.45567 0.15853 0.0
H657 H 0.62066 0.61234 0.07668 0.0
H658 H 0.5712 0.6145 0.0453 0.0
H659 H 0.54934 0.58746 0.07502 0.0
H660 H 0.59617 0.55949 0.08435 0.0
H661 H 0.60842 0.56116 0.11572 0.0
H662 H 0.6203 0.58013 0.09102 0.0
H663 H 0.62522 0.60675 0.12689 0.0
H664 H 0.61377 0.58792 0.15177 0.0
H665 H 0.60449 0.60394 0.1453 0.0
H666 H 0.53271 0.56037 0.10875 0.0
H667 H 0.52362 0.53885 0.14856 0.0
H668 H 0.58374 0.5547 0.15821 0.0
C669 C 0.60524 0.60713 0.07603 0.0
C670 C 0.5977 0.61556 0.05853 0.0
C671 C 0.57741 0.60839 0.05856 0.0
C672 C 0.5648 0.59287 0.07519 0.0
C673 C 0.57266 0.58468 0.09183 0.0
C674 C 0.59244 0.59176 0.0927 0.0
C675 C 0.59732 0.58126 0.11369 0.0
C676 C 0.60607 0.56983 0.10039 0.0
C677 C 0.611 0.59583 0.13571 0.0
C678 C 0.57724 0.56738 0.12471 0.0
C679 C 0.56313 0.5693 0.11153 0.0
C680 C 0.5436 0.55861 0.1191 0.0
C681 C 0.53851 0.5463 0.1415 0.0
C682 C 0.55296 0.54503 0.15609 0.0
C683 C 0.57241 0.55522 0.14702 0.0
H684 H 0.39594 0.00238 0.07789 0.0
H685 H 0.37863 0.94727 0.03485 0.0
H686 H 0.40003 0.9419 0.06436 0.0
H687 H 0.44653 0.01676 0.0902 0.0
H688 H 0.44734 0.02655 0.12377 0.0
H689 H 0.43145 0.02693 0.09833 0.0
H690 H 0.40186 0.00794 0.12986 0.0
H691 H 0.41767 0.0077 0.15548 0.0
H692 H 0.39688 0.9849 0.14362 0.0
H693 H 0.4223 0.94163 0.09903 0.0
H694 H 0.44162 0.94503 0.13968 0.0
H695 H 0.44503 1.00027 0.16065 0.0
C696 C 0.39673 0.98923 0.0746 0.0
C697 C 0.38557 0.97529 0.05394 0.0
C698 C 0.38691 0.95818 0.05054 0.0
C699 C 0.39917 0.95503 0.06708 0.0
C700 C 0.41002 0.96906 0.08708 0.0
C701 C 0.40882 0.98574 0.09115 0.0
C702 C 0.42124 0.99787 0.1152 0.0
C703 C 0.43761 0.01824 0.10634 0.0
C704 C 0.40866 0.9997 0.13735 0.0
C705 C 0.42931 0.98522 0.12417 0.0
C706 C 0.42286 0.96882 0.10741 0.0
C707 C 0.42763 0.95451 0.11219 0.0
C708 C 0.4388 0.95668 0.13523 0.0
C709 C 0.445 0.97298 0.15333 0.0
C710 C 0.44055 0.98766 0.14721 0.0
H711 H 0.39507 0.98268 0.93281 0.0
H712 H 0.4063 0.04146 0.9516 0.0
H713 H 0.43483 0.0554 0.92132 0.0
H714 H 0.44586 0.99597 0.92971 0.0
H715 H 0.44143 0.97878 0.90222 0.0
H716 H 0.4225 0.9736 0.92629 0.0
H717 H 0.39909 0.96987 0.88734 0.0
H718 H 0.41779 0.97461 0.86323 0.0
H719 H 0.40675 0.98953 0.86371 0.0
H720 H 0.46025 0.0624 0.88558 0.0
H721 H 0.47947 0.0616 0.84665 0.0
H722 H 0.45273 0.99853 0.85412 0.0
C723 C 0.40347 0.9985 0.93059 0.0
C724 C 0.39834 0.01097 0.94442 0.0
C725 C 0.40992 0.03161 0.94115 0.0
C726 C 0.42621 0.03966 0.92412 0.0
C727 C 0.43091 0.0269 0.91095 0.0
C728 C 0.41987 0.00676 0.9141 0.0
C729 C 0.42745 0.9961 0.89701 0.0
C730 C 0.43475 0.98549 0.91488 0.0
C731 C 0.41185 0.98169 0.87661 0.0
C732 C 0.44416 0.01332 0.88302 0.0
C733 C 0.44606 0.03101 0.89144 0.0
C734 C 0.45922 0.04871 0.87931 0.0
C735 C 0.47016 0.04817 0.85738 0.0
C736 C 0.46796 0.0301 0.84806 0.0
C737 C 0.45526 0.01262 0.86163 0.0
H738 H 0.01189 0.39429 0.94143 0.0
H739 H 0.95548 0.38227 0.96985 0.0
H740 H 0.95694 0.40698 0.93894 0.0
H741 H 0.03336 0.44671 0.93304 0.0
H742 H 0.04601 0.44729 0.90249 0.0
H743 H 0.04105 0.42913 0.9276 0.0
H744 H 0.02321 0.40109 0.89158 0.0
H745 H 0.02849 0.41918 0.86631 0.0
H746 H 1.0037 0.39987 0.87187 0.0
H747 H 0.96428 0.43292 0.90444 0.0
H748 H 0.97522 0.45474 0.86478 0.0
H749 H 0.02636 0.44949 0.85879 0.0
C750 C 0.99982 0.3968 0.94115 0.0
C751 C 0.98361 0.38629 0.9582 0.0
C752 C 0.96807 0.39003 0.957 0.0
C753 C 0.96881 0.40419 0.93965 0.0
C754 C 0.98514 0.41452 0.92351 0.0
C755 C 1.00024 0.41081 0.92382 0.0
C756 C 0.01564 0.42318 0.90338 0.0
C757 C 0.03517 0.43742 0.91748 0.0
C758 C 0.01788 0.41005 0.88202 0.0
C759 C 0.00669 0.43418 0.89128 0.0
C760 C 0.98925 0.42925 0.90344 0.0
C761 C 0.97798 0.437 0.89487 0.0
C762 C 0.98434 0.44949 0.87254 0.0
C763 C 1.00165 0.45384 0.85905 0.0
C764 C 0.01318 0.44653 0.86907 0.0
H765 H 0.59143 0.61456 0.92745 0.0
H766 H 0.63401 0.59956 0.95295 0.0
H767 H 0.61861 0.57028 0.92216 0.0
H768 H 0.55051 0.56499 0.9221 0.0
H769 H 0.54055 0.56998 0.89275 0.0
H770 H 0.55464 0.58936 0.91729 0.0
H771 H 0.57817 0.61109 0.87967 0.0
H772 H 0.56389 0.59198 0.85502 0.0
H773 H 0.5896 0.60127 0.85827 0.0
H774 H 0.5987 0.54298 0.88706 0.0
H775 H 0.57831 0.52248 0.84805 0.0
H776 H 0.54909 0.5557 0.84735 0.0
C777 C 0.59764 0.60521 0.92666 0.0
C778 C 0.61396 0.60941 0.94269 0.0
C779 C 0.62153 0.59669 0.94085 0.0
C780 C 0.61279 0.57994 0.92358 0.0
C781 C 0.59646 0.57609 0.90847 0.0
C782 C 0.58911 0.58851 0.90977 0.0
C783 C 0.57195 0.58174 0.89086 0.0
C784 C 0.55331 0.57619 0.9067 0.0
C785 C 0.57617 0.59745 0.8697 0.0
C786 C 0.571 0.56377 0.87814 0.0
C787 C 0.58503 0.56049 0.88875 0.0
C788 C 0.58751 0.54527 0.87888 0.0
C789 C 0.57581 0.5336 0.85696 0.0
C790 C 0.56202 0.53742 0.84529 0.0
C791 C 0.55927 0.5523 0.85648 0.0
H792 H 0.02958 0.61172 0.93957 0.0
H793 H 0.97048 0.59881 0.95228 0.0
H794 H 0.9582 0.56941 0.92205 0.0
H795 H 0.02426 0.59886 0.87024 0.0
H796 H 0.03991 0.58875 0.87156 0.0
H797 H 0.04342 0.60784 0.89533 0.0
H798 H 0.04021 0.58531 0.93491 0.0
H799 H 0.03628 0.56599 0.91115 0.0
H800 H 0.01868 0.56123 0.93723 0.0
H801 H 0.95285 0.54283 0.88752 0.0
H802 H 0.9552 0.5228 0.85012 0.0
H803 H 0.01766 0.55285 0.86217 0.0
C804 C 0.01402 0.60274 0.93619 0.0
C805 C 1.00101 0.60764 0.94835 0.0
C806 C 0.98076 0.5954 0.94321 0.0
C807 C 0.97364 0.5786 0.9262 0.0
C808 C 0.98694 0.57417 0.91475 0.0
C809 C 0.0067 0.58596 0.91952 0.0
C810 C 0.01814 0.57875 0.90378 0.0
C811 C 0.03225 0.59448 0.88406 0.0
C812 C 0.02896 0.57245 0.92292 0.0
C813 C 1.00177 0.56122 0.88889 0.0
C814 C 0.98383 0.55867 0.89558 0.0
C815 C 0.96677 0.54446 0.88251 0.0
C816 C 0.9682 0.5331 0.86144 0.0
C817 C 0.98655 0.53601 0.85379 0.0
C818 C 1.00339 0.54982 0.8683 0.0
H819 H 0.43194 0.39829 0.93927 0.0
H820 H 0.38683 0.41291 0.94855 0.0
H821 H 0.40591 0.4423 0.92093 0.0
H822 H 0.47383 0.44889 0.93991 0.0
H823 H 0.48646 0.44338 0.91419 0.0
H824 H 0.47026 0.4245 0.93697 0.0
H825 H 0.45035 0.40165 0.89631 0.0
H826 H 0.46694 0.42016 0.87364 0.0
H827 H 0.44121 0.41091 0.87084 0.0
H828 H 0.42821 0.46817 0.88873 0.0
H829 H 0.44913 0.48484 0.84953 0.0
H830 H 0.48044 0.45458 0.86285 0.0
C831 C 0.42611 0.40773 0.93571 0.0
C832 C 0.40788 0.40325 0.94622 0.0
C833 C 0.40072 0.41593 0.94071 0.0
C834 C 0.41158 0.43284 0.92531 0.0
C835 C 0.42964 0.43699 0.91564 0.0
C836 C 0.43673 0.42465 0.92036 0.0
C837 C 0.45555 0.43125 0.90542 0.0
C838 C 0.47253 0.43737 0.92532 0.0
C839 C 0.45337 0.41504 0.88536 0.0
C840 C 0.45767 0.44891 0.89089 0.0
C841 C 0.44277 0.45222 0.89743 0.0
C842 C 0.44022 0.46606 0.88393 0.0
C843 C 0.45234 0.47571 0.86193 0.0
C844 C 0.4667 0.47137 0.85372 0.0
C845 C 0.47016 0.4588 0.8695 0.0
H846 H 0.61307 0.00419 0.92738 0.0
H847 H 0.61183 0.0499 0.97575 0.0
H848 H 0.58485 0.04652 0.94771 0.0
H849 H 0.60625 0.02069 0.86476 0.0
H850 H 0.5915 0.99646 0.84967 0.0
H851 H 0.60898 1.00064 0.87566 0.0
H852 H 0.58159 0.97283 0.90371 0.0
H853 H 0.56397 0.96879 0.87788 0.0
H854 H 0.56033 0.97404 0.91236 0.0
H855 H 0.5594 0.03985 0.91303 0.0
H856 H 0.5405 0.03338 0.87052 0.0
H857 H 0.5588 0.99299 0.84348 0.0
C858 C 0.6069 0.01325 0.9322 0.0
C859 C 0.61449 0.02726 0.95376 0.0
C860 C 0.60631 0.03915 0.9592 0.0
C861 C 0.59083 0.03721 0.94357 0.0
C862 C 0.58372 0.02339 0.92235 0.0
C863 C 0.59163 0.01179 0.91637 0.0
C864 C 0.58267 0.99964 0.89065 0.0
C865 C 0.59828 0.00467 0.86891 0.0
C866 C 0.57147 0.97751 0.89652 0.0
C867 C 0.56889 0.00659 0.8829 0.0
C868 C 0.56937 0.01995 0.90178 0.0
C869 C 0.55872 0.02924 0.89821 0.0
C870 C 0.54791 0.0254 0.87415 0.0
C871 C 0.54814 0.01264 0.85393 0.0
C872 C 0.55824 0.00266 0.85883 0.0
H873 H 0.60104 0.99051 0.06815 0.0
H874 H 0.63332 0.05399 0.08189 0.0
H875 H 0.60968 0.05069 0.11618 0.0
H876 H 0.55286 0.98334 0.07671 0.0
H877 H 0.54347 0.96058 0.09447 0.0
H878 H 0.5626 0.96758 0.07007 0.0
H879 H 0.58435 0.96479 0.10629 0.0
H880 H 0.56516 0.95741 0.13059 0.0
H881 H 0.58904 0.97823 0.13801 0.0
H882 H 0.58345 0.04104 0.14964 0.0
H883 H 0.55755 0.02477 0.18373 0.0
H884 H 0.54175 0.96772 0.14902 0.0
C885 C 0.60318 0.00371 0.07842 0.0
C886 C 0.61907 0.02251 0.07207 0.0
C887 C 0.6213 0.03939 0.08615 0.0
C888 C 0.60786 0.03772 0.10563 0.0
C889 C 0.59221 0.01909 0.11097 0.0
C890 C 0.58987 0.00233 0.09809 0.0
C891 C 0.57216 0.98402 0.10868 0.0
C892 C 0.55687 0.97325 0.08613 0.0
C893 C 0.57803 0.97031 0.12167 0.0
C894 C 0.56513 0.99316 0.12972 0.0
C895 C 0.57682 0.01345 0.13042 0.0
C896 C 0.574 0.02518 0.14909 0.0
C897 C 0.55923 0.01589 0.16821 0.0
C898 C 0.54747 0.99515 0.16834 0.0
C899 C 0.55019 0.98365 0.14858 0.0
H900 H 0.04876 0.62942 0.07178 0.0
H901 H 0.98695 0.60879 0.06861 0.0
H902 H 0.98078 0.58349 0.10192 0.0
H903 H 0.04411 0.58185 0.07855 0.0
H904 H 0.06427 0.5907 0.10195 0.0
H905 H 0.06399 0.60699 0.07724 0.0
H906 H 0.06791 0.63188 0.11531 0.0
H907 H 0.06869 0.61589 0.13999 0.0
H908 H 0.05106 0.62351 0.14311 0.0
H909 H 0.98129 0.56093 0.13626 0.0
H910 H 0.98905 0.54547 0.17332 0.0
H911 H 0.05029 0.58031 0.15397 0.0
C912 C 0.03392 0.61963 0.07811 0.0
C913 C 0.01835 0.62113 0.06743 0.0
C914 C 0.99916 0.60805 0.07647 0.0
C915 C 0.99547 0.59348 0.09522 0.0
C916 C 0.01108 0.59214 0.1048 0.0
C917 C 0.02996 0.60503 0.09686 0.0
C918 C 0.04425 0.60108 0.11128 0.0
C919 C 0.05477 0.59478 0.09104 0.0
C920 C 0.05883 0.61916 0.12844 0.0
C921 C 0.03049 0.58411 0.12888 0.0
C922 C 0.01138 0.57902 0.12454 0.0
C923 C 0.99614 0.5646 0.13959 0.0
C924 C 1.00064 0.55577 0.16039 0.0
C925 C 0.02017 0.56137 0.16589 0.0
C926 C 0.03519 0.57529 0.14944 0.0
H927 H 0.40221 0.38089 0.09257 0.0
H928 H 0.39533 0.42187 0.0439 0.0
H929 H 0.41486 0.44865 0.07746 0.0
H930 H 0.39914 0.40215 0.15864 0.0
H931 H 0.4164 0.39708 0.17414 0.0
H932 H 0.40078 0.38129 0.1471 0.0
H933 H 0.43119 0.3871 0.12046 0.0
H934 H 0.44692 0.40324 0.14709 0.0
H935 H 0.45 0.41191 0.11293 0.0
H936 H 0.43822 0.47162 0.11469 0.0
H937 H 0.45941 0.48746 0.15535 0.0
H938 H 0.44931 0.43067 0.1793 0.0
C939 C 0.4045 0.39542 0.0893 0.0
C940 C 0.39732 0.39941 0.06583 0.0
C941 C 0.40056 0.41855 0.06205 0.0
C942 C 0.41175 0.43384 0.08085 0.0
C943 C 0.41916 0.42956 0.10349 0.0
C944 C 0.41523 0.41067 0.10806 0.0
C945 C 0.42478 0.40976 0.13384 0.0
C946 C 0.40936 0.3968 0.15466 0.0
C947 C 0.43907 0.40259 0.12822 0.0
C948 C 0.43532 0.43119 0.14257 0.0
C949 C 0.43198 0.44249 0.12494 0.0
C950 C 0.44073 0.46286 0.1288 0.0
C951 C 0.45281 0.47176 0.15169 0.0
C952 C 0.45582 0.46017 0.17015 0.0
C953 C 0.44713 0.43975 0.16533 0.0
H954 H 0.68665 0.74455 0.4033 0.0
H955 H 0.62354 0.7132 0.40924 0.0
H956 H 0.62594 0.73711 0.44354 0.0
H957 H 0.69599 0.75575 0.47404 0.0
H958 H 0.71716 0.7798 0.46941 0.0
H959 H 0.7105 0.76073 0.44398 0.0
H960 H 0.70983 0.78372 0.40792 0.0
H961 H 0.7161 0.80272 0.43343 0.0
H962 H 0.69448 0.79399 0.41298 0.0
H963 H 0.63456 0.76312 0.47847 0.0
H964 H 0.64967 0.78833 0.51528 0.0
H965 H 0.7069 0.80329 0.48745 0.0
C966 C 0.67336 0.74273 0.4118 0.0
C967 C 0.65493 0.727 0.40327 0.0
C968 C 0.63788 0.72514 0.41511 0.0
C969 C 0.63903 0.73874 0.4346 0.0
C970 C 0.65731 0.75421 0.44218 0.0
C971 C 0.6742 0.75623 0.43145 0.0
C972 C 0.692 0.77369 0.44442 0.0
C973 C 0.70465 0.76709 0.45882 0.0
C974 C 0.7038 0.78946 0.42343 0.0
C975 C 0.6824 0.78076 0.46449 0.0
C976 C 0.66235 0.76947 0.46251 0.0
C977 C 0.65024 0.77232 0.47997 0.0
C978 C 0.65887 0.7867 0.50063 0.0
C979 C 0.67931 0.79795 0.50345 0.0
C980 C 0.69122 0.79524 0.48491 0.0
H981 H 0.26095 0.96079 0.42523 0.0
H982 H 0.29675 0.93601 0.4037 0.0
H983 H 0.27542 0.90663 0.43021 0.0
H984 H 0.25258 0.94415 0.49377 0.0
H985 H 0.2281 0.93962 0.49421 0.0
H986 H 0.24599 0.9582 0.4727 0.0
H987 H 0.22297 0.94097 0.43143 0.0
H988 H 0.2053 0.92197 0.45279 0.0
H989 H 0.2146 0.91547 0.42363 0.0
H990 H 0.25025 0.87989 0.45936 0.0
H991 H 0.22686 0.86094 0.49538 0.0
H992 H 0.20761 0.90304 0.4978 0.0
C993 C 0.26439 0.94925 0.42618 0.0
C994 C 0.28053 0.95075 0.41227 0.0
C995 C 0.28455 0.93532 0.41425 0.0
C996 C 0.27237 0.91842 0.42901 0.0
C997 C 0.25626 0.91717 0.44179 0.0
C998 C 0.25248 0.93234 0.44099 0.0
C999 C 0.23499 0.92792 0.45798 0.0
C1000 C 0.24077 0.94338 0.48103 0.0
C1001 C 0.21849 0.9265 0.4404 0.0
C1002 C 0.22965 0.90799 0.46871 0.0
C1003 C 0.24186 0.90185 0.45876 0.0
C1004 C 0.24047 0.88444 0.4671 0.0
C1005 C 0.22698 0.87361 0.48728 0.0
C1006 C 0.21529 0.88041 0.49897 0.0
C1007 C 0.2161 0.89733 0.4887 0.0
H1008 H 0.04937 0.2927 0.39733 0.0
H1009 H 0.06755 0.35473 0.39963 0.0
H1010 H 0.09396 0.36147 0.43157 0.0
H1011 H 0.05708 0.28919 0.46671 0.0
H1012 H 0.06563 0.2723 0.46139 0.0
H1013 H 0.0491 0.27287 0.43741 0.0
H1014 H 0.07363 0.27898 0.39898 0.0
H1015 H 0.09043 0.27885 0.42307 0.0
H1016 H 0.09815 0.29974 0.40169 0.0
H1017 H 0.11656 0.36106 0.46614 0.0
H1018 H 0.13209 0.35292 0.50283 0.0
H1019 H 0.10038 0.2917 0.47653 0.0
C1020 C 0.05892 0.30773 0.40446 0.0
C1021 C 0.05634 0.32317 0.3959 0.0
C1022 C 0.0692 0.34262 0.4058 0.0
C1023 C 0.08436 0.34664 0.42384 0.0
C1024 C 0.08661 0.33111 0.43159 0.0
C1025 C 0.07421 0.31203 0.4223 0.0
C1026 C 0.07907 0.29782 0.43495 0.0
C1027 C 0.06169 0.28213 0.45108 0.0
C1028 C 0.08572 0.28829 0.41338 0.0
C1029 C 0.09579 0.31178 0.45343 0.0
C1030 C 0.10008 0.33098 0.45096 0.0
C1031 C 0.11368 0.34619 0.46783 0.0
C1032 C 0.12254 0.3415 0.48843 0.0
C1033 C 0.11785 0.32185 0.49175 0.0
C1034 C 0.10479 0.30696 0.47354 0.0
H1035 H 0.06545 0.35267 0.26355 0.0
H1036 H 0.05267 0.29542 0.29106 0.0
H1037 H 0.07851 0.29731 0.26252 0.0
H1038 H 0.0739 0.34452 0.19486 0.0
H1039 H 0.09348 0.36939 0.18959 0.0
H1040 H 0.07497 0.36467 0.2141 0.0
H1041 H 0.10159 0.38256 0.25116 0.0
H1042 H 0.12018 0.38716 0.22676 0.0
H1043 H 0.11856 0.37451 0.25748 0.0
H1044 H 0.10375 0.30359 0.22976 0.0
H1045 H 0.1255 0.31289 0.19083 0.0
H1046 H 0.12374 0.36663 0.18372 0.0
C1047 C 0.06822 0.34064 0.26362 0.0
C1048 C 0.05687 0.32387 0.2795 0.0
C1049 C 0.06089 0.30835 0.27888 0.0
C1050 C 0.07573 0.30933 0.26293 0.0
C1051 C 0.08657 0.32591 0.24751 0.0
C1052 C 0.08299 0.34124 0.24739 0.0
C1053 C 0.09604 0.35659 0.22715 0.0
C1054 C 0.08387 0.35892 0.20512 0.0
C1055 C 0.10992 0.37638 0.2415 0.0
C1056 C 0.10705 0.34714 0.21569 0.0
C1057 C 0.1015 0.32961 0.22813 0.0
C1058 C 0.10852 0.31747 0.22007 0.0
C1059 C 0.12111 0.32303 0.19801 0.0
C1060 C 0.12662 0.34063 0.18418 0.0
C1061 C 0.11987 0.35309 0.19379 0.0
H1062 H 0.62712 0.71237 0.26191 0.0
H1063 H 0.68662 0.74345 0.29231 0.0
H1064 H 0.69451 0.77101 0.26216 0.0
H1065 H 0.63942 0.72681 0.19265 0.0
H1066 H 0.61824 0.72871 0.18695 0.0
H1067 H 0.61748 0.71184 0.21146 0.0
H1068 H 0.60688 0.72838 0.24805 0.0
H1069 H 0.60809 0.74562 0.22374 0.0
H1070 H 0.62193 0.75449 0.25486 0.0
H1071 H 0.69585 0.7955 0.22859 0.0
H1072 H 0.69163 0.81235 0.18977 0.0
H1073 H 0.63152 0.76514 0.18137 0.0
C1074 C 0.64183 0.72493 0.2622 0.0
C1075 C 0.65621 0.72571 0.2796 0.0
C1076 C 0.67534 0.7424 0.27911 0.0
C1077 C 0.67993 0.75825 0.26223 0.0
C1078 C 0.66529 0.75719 0.24579 0.0
C1079 C 0.64673 0.74079 0.24531 0.0
C1080 C 0.63389 0.74284 0.22482 0.0
C1081 C 0.62685 0.72659 0.20266 0.0
C1082 C 0.61668 0.74283 0.23871 0.0
C1083 C 0.64815 0.76289 0.21375 0.0
C1084 C 0.66613 0.7711 0.22633 0.0
C1085 C 0.6818 0.78926 0.2187 0.0
C1086 C 0.67923 0.79885 0.19686 0.0
C1087 C 0.66121 0.79013 0.18283 0.0
C1088 C 0.64537 0.77225 0.19202 0.0
H1089 H 0.26606 0.95899 0.27672 0.0
H1090 H 0.29383 0.92871 0.30879 0.0
H1091 H 0.27305 0.8999 0.27911 0.0
H1092 H 0.21739 0.91635 0.26868 0.0
H1093 H 0.21282 0.92444 0.23719 0.0
H1094 H 0.22897 0.94229 0.26215 0.0
H1095 H 0.25662 0.95788 0.22678 0.0
H1096 H 0.2404 0.94039 0.20165 0.0
H1097 H 0.26345 0.9424 0.20854 0.0
H1098 H 0.24994 0.87479 0.24519 0.0
H1099 H 0.22999 0.85742 0.20469 0.0
H1100 H 0.21741 0.90407 0.1946 0.0
C1101 C 0.26773 0.94628 0.27759 0.0
C1102 C 0.28151 0.94607 0.29516 0.0
C1103 C 0.28343 0.92925 0.2954 0.0
C1104 C 0.27155 0.91273 0.27885 0.0
C1105 C 0.25788 0.91329 0.26211 0.0
C1106 C 0.25614 0.92975 0.26103 0.0
C1107 C 0.24141 0.92721 0.23978 0.0
C1108 C 0.22412 0.92759 0.25274 0.0
C1109 C 0.25105 0.94289 0.2179 0.0
C1110 C 0.23537 0.90686 0.22873 0.0
C1111 C 0.24475 0.89892 0.24224 0.0
C1112 C 0.24235 0.88075 0.23462 0.0
C1113 C 0.23082 0.87088 0.21177 0.0
C1114 C 0.22205 0.87934 0.19669 0.0
C1115 C 0.22379 0.89719 0.20596 0.0
H1116 H 0.69017 0.93882 0.27185 0.0
H1117 H 0.63459 0.93532 0.28153 0.0
H1118 H 0.61932 0.90628 0.25023 0.0
H1119 H 0.6864 0.92837 0.20323 0.0
H1120 H 0.69829 0.91429 0.20458 0.0
H1121 H 0.70375 0.93311 0.22982 0.0
H1122 H 0.69447 0.90736 0.26738 0.0
H1123 H 0.68862 0.88835 0.24205 0.0
H1124 H 0.67072 0.88533 0.26676 0.0
H1125 H 0.61141 0.8804 0.21347 0.0
H1126 H 0.61197 0.86127 0.17353 0.0
H1127 H 0.6725 0.88127 0.19021 0.0
C1128 C 0.67474 0.93192 0.26758 0.0
C1129 C 0.66359 0.93943 0.27892 0.0
C1130 C 0.64341 0.92982 0.27299 0.0
C1131 C 0.63461 0.91326 0.25541 0.0
C1132 C 0.64613 0.90632 0.24447 0.0
C1133 C 0.66575 0.91535 0.25049 0.0
C1134 C 0.67536 0.9061 0.23479 0.0
C1135 C 0.69191 0.92137 0.21705 0.0
C1136 C 0.68272 0.89619 0.25389 0.0
C1137 C 0.65829 0.891 0.21791 0.0
C1138 C 0.64144 0.89107 0.22404 0.0
C1139 C 0.62437 0.87988 0.20894 0.0
C1140 C 0.62479 0.86904 0.18637 0.0
C1141 C 0.64218 0.86954 0.17917 0.0
C1142 C 0.65883 0.88003 0.19582 0.0
H1143 H 0.09819 0.73341 0.28319 0.0
H1144 H 0.0496 0.74322 0.28726 0.0
H1145 H 0.0659 0.7699 0.25447 0.0
H1146 H 0.13644 0.78465 0.27662 0.0
H1147 H 0.15019 0.77899 0.253 0.0
H1148 H 0.13529 0.76133 0.27798 0.0
H1149 H 0.11672 0.73484 0.24023 0.0
H1150 H 0.13192 0.75226 0.21532 0.0
H1151 H 0.10581 0.74041 0.21257 0.0
H1152 H 0.08677 0.7945 0.21969 0.0
H1153 H 0.10859 0.81207 0.18158 0.0
H1154 H 0.14354 0.78645 0.20072 0.0
C1155 C 0.09095 0.74116 0.27727 0.0
C1156 C 0.07261 0.73619 0.28793 0.0
C1157 C 0.06363 0.74667 0.2794 0.0
C1158 C 0.07286 0.762 0.26097 0.0
C1159 C 0.09109 0.76675 0.25128 0.0
C1160 C 0.09993 0.75648 0.2589 0.0
C1161 C 0.11893 0.76358 0.24419 0.0
C1162 C 0.13623 0.77268 0.26415 0.0
C1163 C 0.11829 0.74678 0.22706 0.0
C1164 C 0.1192 0.77915 0.22661 0.0
C1165 C 0.10317 0.78099 0.23132 0.0
C1166 C 0.0995 0.79339 0.21607 0.0
C1167 C 0.11202 0.8034 0.19461 0.0
C1168 C 0.1279 0.80086 0.18856 0.0
C1169 C 0.13191 0.78918 0.20546 0.0
H1170 H 0.3008 0.37798 0.26308 0.0
H1171 H 0.27036 0.31821 0.29244 0.0
H1172 H 0.2433 0.30958 0.26039 0.0
H1173 H 0.25944 0.38282 0.25482 0.0
H1174 H 0.26802 0.39674 0.22425 0.0
H1175 H 0.28521 0.3981 0.24893 0.0
H1176 H 0.30144 0.38734 0.2124 0.0
H1177 H 0.28459 0.38639 0.1875 0.0
H1178 H 0.28662 0.36505 0.19271 0.0
H1179 H 0.21888 0.30799 0.22568 0.0
H1180 H 0.20153 0.31247 0.18762 0.0
H1181 H 0.2482 0.37329 0.18182 0.0
C1182 C 0.28854 0.363 0.26268 0.0
C1183 C 0.28774 0.34879 0.28038 0.0
C1184 C 0.27141 0.32935 0.27901 0.0
C1185 C 0.25587 0.32435 0.26102 0.0
C1186 C 0.25692 0.33892 0.24444 0.0
C1187 C 0.27301 0.35776 0.24485 0.0
C1188 C 0.27087 0.37067 0.22468 0.0
C1189 C 0.27088 0.38811 0.23904 0.0
C1190 C 0.28682 0.37777 0.20304 0.0
C1191 C 0.25103 0.35619 0.21281 0.0
C1192 C 0.24309 0.33798 0.22457 0.0
C1193 C 0.22497 0.3222 0.21639 0.0
C1194 C 0.21511 0.32493 0.19497 0.0
C1195 C 0.22346 0.34326 0.18191 0.0
C1196 C 0.24142 0.35915 0.19153 0.0
H1197 H 0.28088 0.32533 0.42015 0.0
H1198 H 0.27645 0.37231 0.38363 0.0
H1199 H 0.2483 0.36454 0.41228 0.0
H1200 H 0.22902 0.2911 0.42858 0.0
H1201 H 0.23185 0.28301 0.46117 0.0
H1202 H 0.2511 0.29137 0.43669 0.0
H1203 H 0.27545 0.31716 0.47153 0.0
H1204 H 0.25634 0.30876 0.49617 0.0
H1205 H 0.2699 0.33439 0.48747 0.0
H1206 H 0.22062 0.35197 0.44509 0.0
H1207 H 0.19772 0.33763 0.48333 0.0
H1208 H 0.22065 0.29974 0.49979 0.0
C1209 C 0.27391 0.33389 0.41812 0.0
C1210 C 0.28091 0.34942 0.3996 0.0
C1211 C 0.27149 0.36043 0.39779 0.0
C1212 C 0.25536 0.35604 0.41383 0.0
C1213 C 0.2488 0.34068 0.43187 0.0
C1214 C 0.2579 0.32992 0.43438 0.0
C1215 C 0.24864 0.31499 0.4566 0.0
C1216 C 0.23962 0.29387 0.44506 0.0
C1217 C 0.26346 0.31908 0.47928 0.0
C1218 C 0.23305 0.31915 0.46617 0.0
C1219 C 0.23319 0.33382 0.45138 0.0
C1220 C 0.22033 0.34042 0.45681 0.0
C1221 C 0.2073 0.33214 0.47841 0.0
C1222 C 0.20745 0.31765 0.49448 0.0
C1223 C 0.22027 0.31086 0.48785 0.0
H1224 H 0.68464 0.95999 0.42412 0.0
H1225 H 0.69713 0.93258 0.35646 0.0
H1226 H 0.69418 0.90648 0.38633 0.0
H1227 H 0.71342 0.9522 0.47195 0.0
H1228 H 0.69732 0.94811 0.49989 0.0
H1229 H 0.69877 0.96349 0.47258 0.0
H1230 H 0.66144 0.94166 0.4652 0.0
H1231 H 0.65996 0.9261 0.49233 0.0
H1232 H 0.65064 0.91554 0.45916 0.0
H1233 H 0.68953 0.88304 0.42412 0.0
H1234 H 0.68714 0.86659 0.46727 0.0
H1235 H 0.68201 0.91229 0.5101 0.0
C1236 C 0.68659 0.94838 0.41567 0.0
C1237 C 0.69098 0.94812 0.3881 0.0
C1238 C 0.6938 0.93296 0.37767 0.0
C1239 C 0.69203 0.91803 0.3944 0.0
C1240 C 0.68777 0.91868 0.42162 0.0
C1241 C 0.68542 0.93366 0.43227 0.0
C1242 C 0.6825 0.93187 0.46254 0.0
C1243 C 0.69899 0.94999 0.47762 0.0
C1244 C 0.66244 0.9286 0.47025 0.0
C1245 C 0.68356 0.9136 0.46719 0.0
C1246 C 0.68623 0.90593 0.44339 0.0
C1247 C 0.68751 0.88897 0.44296 0.0
C1248 C 0.68623 0.87977 0.46762 0.0
C1249 C 0.68403 0.88774 0.49243 0.0
C1250 C 0.68282 0.905 0.49181 0.0
H1251 H 0.09477 0.75063 0.40431 0.0
H1252 H 0.03713 0.74211 0.41476 0.0
H1253 H 0.05034 0.76863 0.45016 0.0
H1254 H 0.1069 0.75526 0.47078 0.0
H1255 H 0.13228 0.77343 0.46646 0.0
H1256 H 0.11878 0.75667 0.43911 0.0
H1257 H 0.12848 0.78632 0.40801 0.0
H1258 H 0.1418 0.8032 0.43562 0.0
H1259 H 0.12301 0.80495 0.41821 0.0
H1260 H 0.06904 0.79225 0.48917 0.0
H1261 H 0.09032 0.80853 0.5291 0.0
H1262 H 0.13534 0.80119 0.4919 0.0
C1263 C 0.0849 0.7545 0.41367 0.0
C1264 C 0.06488 0.74421 0.40693 0.0
C1265 C 0.05254 0.74983 0.4196 0.0
C1266 C 0.05995 0.76495 0.43959 0.0
C1267 C 0.07976 0.7745 0.44615 0.0
C1268 C 0.09204 0.7695 0.43334 0.0
C1269 C 0.11219 0.78018 0.44582 0.0
C1270 C 0.11784 0.76551 0.45616 0.0
C1271 C 0.12726 0.79452 0.42571 0.0
C1272 C 0.10915 0.79115 0.46881 0.0
C1273 C 0.09052 0.78815 0.46835 0.0
C1274 C 0.08375 0.79503 0.48938 0.0
C1275 C 0.09594 0.80427 0.51198 0.0
C1276 C 0.11456 0.80627 0.51352 0.0
C1277 C 0.12149 0.80048 0.49102 0.0
H1278 H 0.35162 0.08077 0.75122 0.0
H1279 H 0.29276 0.04085 0.77894 0.0
H1280 H 0.2973 0.06413 0.81564 0.0
H1281 H 0.37278 0.09701 0.81928 0.0
H1282 H 0.38939 0.12198 0.80939 0.0
H1283 H 0.38164 0.10203 0.78504 0.0
H1284 H 0.36983 0.11949 0.75323 0.0
H1285 H 0.37708 0.13923 0.77783 0.0
H1286 H 0.35235 0.1257 0.76537 0.0
H1287 H 0.30694 0.09144 0.84804 0.0
H1288 H 0.32372 0.11967 0.8801 0.0
H1289 H 0.37675 0.14234 0.8337 0.0
C1290 C 0.33984 0.07683 0.76528 0.0
C1291 C 0.32175 0.05904 0.76189 0.0
C1292 C 0.30667 0.05446 0.78077 0.0
C1293 C 0.30904 0.06763 0.8017 0.0
C1294 C 0.32664 0.08533 0.80379 0.0
C1295 C 0.34198 0.08985 0.78662 0.0
C1296 C 0.35956 0.10975 0.79435 0.0
C1297 C 0.37686 0.10756 0.80251 0.0
C1298 C 0.36502 0.1244 0.77131 0.0
C1299 C 0.35161 0.11551 0.81852 0.0
C1300 C 0.33246 0.10126 0.8232 0.0
C1301 C 0.32192 0.10276 0.84462 0.0
C1302 C 0.33147 0.11888 0.86255 0.0
C1303 C 0.35131 0.1332 0.85897 0.0
C1304 C 0.36141 0.13179 0.83634 0.0
H1305 H 0.95294 0.27803 0.74746 0.0
H1306 H 0.90565 0.28419 0.7169 0.0
H1307 H 0.88245 0.25686 0.74533 0.0
H1308 H 0.92559 0.22446 0.75472 0.0
H1309 H 0.93741 0.22541 0.78619 0.0
H1310 H 0.95021 0.24415 0.76145 0.0
H1311 H 0.95664 0.27133 0.79724 0.0
H1312 H 0.94422 0.2527 0.82212 0.0
H1313 H 0.93641 0.26989 0.81546 0.0
H1314 H 0.86444 0.22966 0.77812 0.0
H1315 H 0.85402 0.20829 0.81816 0.0
H1316 H 0.91299 0.22081 0.82904 0.0
C1317 C 0.93768 0.27349 0.74665 0.0
C1318 C 0.93108 0.28317 0.72994 0.0
C1319 C 0.91105 0.27705 0.72971 0.0
C1320 C 0.89771 0.26139 0.74554 0.0
C1321 C 0.90463 0.25208 0.76173 0.0
C1322 C 0.92419 0.25811 0.76279 0.0
C1323 C 0.92808 0.24692 0.78392 0.0
C1324 C 0.93578 0.2345 0.77078 0.0
C1325 C 0.94216 0.26105 0.80599 0.0
C1326 C 0.90774 0.23397 0.79486 0.0
C1327 C 0.89433 0.2368 0.78133 0.0
C1328 C 0.87475 0.22716 0.78872 0.0
C1329 C 0.86891 0.21494 0.81128 0.0
C1330 C 0.88267 0.21279 0.82625 0.0
C1331 C 0.90216 0.22196 0.81746 0.0
H1332 H 0.72054 0.66546 0.74401 0.0
H1333 H 0.69919 0.6063 0.71144 0.0
H1334 H 0.72046 0.60229 0.7428 0.0
H1335 H 0.77015 0.6784 0.75511 0.0
H1336 H 0.77303 0.69129 0.78688 0.0
H1337 H 0.75626 0.69014 0.76164 0.0
H1338 H 0.72815 0.675 0.79623 0.0
H1339 H 0.74492 0.67647 0.8217 0.0
H1340 H 0.72317 0.65322 0.81393 0.0
H1341 H 0.74448 0.60451 0.77618 0.0
H1342 H 0.7663 0.61107 0.81513 0.0
H1343 H 0.77191 0.66819 0.82795 0.0
C1344 C 0.72021 0.65161 0.74364 0.0
C1345 C 0.70817 0.63628 0.72499 0.0
C1346 C 0.7082 0.61836 0.72536 0.0
C1347 C 0.72037 0.61592 0.74302 0.0
C1348 C 0.73238 0.63142 0.76054 0.0
C1349 C 0.73217 0.64878 0.76149 0.0
C1350 C 0.746 0.66269 0.78332 0.0
C1351 C 0.76233 0.68176 0.77099 0.0
C1352 C 0.73489 0.6671 0.80508 0.0
C1353 C 0.75387 0.65034 0.79439 0.0
C1354 C 0.74602 0.6325 0.78059 0.0
C1355 C 0.75078 0.61844 0.78718 0.0
C1356 C 0.76338 0.6224 0.80915 0.0
C1357 C 0.77094 0.64018 0.82447 0.0
C1358 C 0.76641 0.65449 0.81653 0.0
H1359 H 0.72624 0.64134 0.60114 0.0
H1360 H 0.74063 0.70077 0.62307 0.0
H1361 H 0.77052 0.71406 0.59563 0.0
H1362 H 0.77632 0.65103 0.60045 0.0
H1363 H 0.77139 0.6346 0.57179 0.0
H1364 H 0.75227 0.62987 0.59529 0.0
H1365 H 0.73065 0.62945 0.55595 0.0
H1366 H 0.74951 0.63376 0.53241 0.0
H1367 H 0.74018 0.65019 0.53386 0.0
H1368 H 0.79651 0.72062 0.56137 0.0
H1369 H 0.81522 0.71974 0.52189 0.0
H1370 H 0.78458 0.65613 0.52458 0.0
C1371 C 0.73571 0.65717 0.60044 0.0
C1372 C 0.73104 0.67001 0.61424 0.0
C1373 C 0.74391 0.69063 0.61272 0.0
C1374 C 0.76098 0.69831 0.59731 0.0
C1375 C 0.76509 0.68517 0.58395 0.0
C1376 C 0.75279 0.66503 0.58545 0.0
C1377 C 0.75961 0.65398 0.56772 0.0
C1378 C 0.76524 0.64164 0.58484 0.0
C1379 C 0.74407 0.64111 0.54621 0.0
C1380 C 0.77733 0.67105 0.55512 0.0
C1381 C 0.78043 0.68895 0.56498 0.0
C1382 C 0.79457 0.70673 0.55404 0.0
C1383 C 0.80521 0.70613 0.53179 0.0
C1384 C 0.80168 0.6879 0.52089 0.0
C1385 C 0.7881 0.67025 0.53335 0.0
H1386 H 0.33743 0.06408 0.61558 0.0
H1387 H 0.29128 0.06952 0.65309 0.0
H1388 H 0.29627 0.09469 0.62025 0.0
H1389 H 0.36869 0.1161 0.59715 0.0
H1390 H 0.37532 0.11004 0.56505 0.0
H1391 H 0.36968 0.09393 0.59326 0.0
H1392 H 0.34332 0.06467 0.56435 0.0
H1393 H 0.34897 0.08064 0.53606 0.0
H1394 H 0.32437 0.0669 0.54831 0.0
H1395 H 0.30504 0.11815 0.58206 0.0
H1396 H 0.31502 0.13577 0.53868 0.0
H1397 H 0.35459 0.11441 0.525 0.0
C1398 C 0.32861 0.07081 0.61709 0.0
C1399 C 0.31403 0.0649 0.63697 0.0
C1400 C 0.3025 0.07376 0.63797 0.0
C1401 C 0.30531 0.08819 0.61953 0.0
C1402 C 0.31965 0.09358 0.60001 0.0
C1403 C 0.33101 0.08507 0.59849 0.0
C1404 C 0.34424 0.0923 0.57411 0.0
C1405 C 0.36576 0.10378 0.58293 0.0
C1406 C 0.33996 0.07511 0.55456 0.0
C1407 C 0.33823 0.10583 0.56195 0.0
C1408 C 0.32429 0.10668 0.57746 0.0
C1409 C 0.31605 0.11771 0.56981 0.0
C1410 C 0.32183 0.12774 0.54524 0.0
C1411 C 0.33547 0.12637 0.52852 0.0
C1412 C 0.34405 0.11563 0.53738 0.0
H1413 H 0.9407 0.26516 0.61321 0.0
H1414 H 0.92104 0.30664 0.60299 0.0
H1415 H 0.89592 0.28367 0.57084 0.0
H1416 H 0.93504 0.24971 0.54381 0.0
H1417 H 0.92708 0.22447 0.55116 0.0
H1418 H 0.94275 0.24385 0.57469 0.0
H1419 H 0.91751 0.22597 0.61256 0.0
H1420 H 0.9015 0.20686 0.58881 0.0
H1421 H 0.89284 0.2204 0.60802 0.0
H1422 H 0.87429 0.25761 0.53788 0.0
H1423 H 0.86056 0.23177 0.5018 0.0
H1424 H 0.89303 0.20651 0.53363 0.0
C1425 C 0.93115 0.26944 0.60417 0.0
C1426 C 0.93285 0.28771 0.61088 0.0
C1427 C 0.92005 0.29271 0.59843 0.0
C1428 C 0.90557 0.27968 0.58025 0.0
C1429 C 0.90394 0.26162 0.57465 0.0
C1430 C 0.91653 0.25656 0.58589 0.0
C1431 C 0.91243 0.23678 0.57485 0.0
C1432 C 0.93039 0.23883 0.56025 0.0
C1433 C 0.90567 0.22161 0.59741 0.0
C1434 C 0.89596 0.23184 0.55515 0.0
C1435 C 0.89107 0.24624 0.55573 0.0
C1436 C 0.87763 0.24599 0.53758 0.0
C1437 C 0.86973 0.23118 0.51737 0.0
C1438 C 0.87527 0.21689 0.51567 0.0
C1439 C 0.88793 0.21678 0.5354 0.0
H1440 H 0.35849 0.27611 0.61149 0.0
H1441 H 0.29991 0.26617 0.61564 0.0
H1442 H 0.28883 0.23885 0.58198 0.0
H1443 H 0.35865 0.26741 0.54099 0.0
H1444 H 0.37265 0.25556 0.54408 0.0
H1445 H 0.37533 0.27367 0.56903 0.0
H1446 H 0.36707 0.2482 0.60666 0.0
H1447 H 0.36389 0.22985 0.58165 0.0
H1448 H 0.3445 0.22487 0.60478 0.0
H1449 H 0.28479 0.21404 0.5456 0.0
H1450 H 0.28873 0.19534 0.50776 0.0
H1451 H 0.34946 0.22074 0.52974 0.0
C1452 C 0.34332 0.26829 0.60532 0.0
C1453 C 0.33009 0.27336 0.61615 0.0
C1454 C 0.31034 0.26258 0.6076 0.0
C1455 C 0.30388 0.24696 0.58863 0.0
C1456 C 0.31729 0.24217 0.57872 0.0
C1457 C 0.3366 0.25258 0.58673 0.0
C1458 C 0.3483 0.24507 0.5724 0.0
C1459 C 0.36469 0.26139 0.55563 0.0
C1460 C 0.35641 0.23649 0.59258 0.0
C1461 C 0.33266 0.22909 0.5545 0.0
C1462 C 0.31481 0.22749 0.55855 0.0
C1463 C 0.29859 0.21489 0.5426 0.0
C1464 C 0.3009 0.20426 0.52131 0.0
C1465 C 0.31926 0.20628 0.51635 0.0
C1466 C 0.33511 0.21836 0.53374 0.0
H1467 H 0.74231 0.03394 0.59197 0.0
H1468 H 0.73064 0.07387 0.63831 0.0
H1469 H 0.75457 0.10163 0.61092 0.0
H1470 H 0.79354 0.06673 0.58231 0.0
H1471 H 0.79332 0.05855 0.5479 0.0
H1472 H 0.77578 0.04189 0.57171 0.0
H1473 H 0.74747 0.03574 0.53975 0.0
H1474 H 0.76493 0.05203 0.51562 0.0
H1475 H 0.74625 0.05647 0.52785 0.0
H1476 H 0.78002 0.12516 0.57822 0.0
H1477 H 0.80131 0.14141 0.53885 0.0
H1478 H 0.79543 0.08589 0.51358 0.0
C1479 C 0.74482 0.04854 0.59636 0.0
C1480 C 0.73471 0.05179 0.61733 0.0
C1481 C 0.73816 0.07104 0.62222 0.0
C1482 C 0.75186 0.08693 0.60695 0.0
C1483 C 0.76183 0.08328 0.58668 0.0
C1484 C 0.75819 0.06449 0.58105 0.0
C1485 C 0.76987 0.06425 0.55706 0.0
C1486 C 0.78396 0.05745 0.56525 0.0
C1487 C 0.75632 0.05137 0.53369 0.0
C1488 C 0.78072 0.08584 0.55016 0.0
C1489 C 0.7761 0.09667 0.56764 0.0
C1490 C 0.78384 0.11685 0.56452 0.0
C1491 C 0.79604 0.12601 0.54235 0.0
C1492 C 0.80017 0.1149 0.52369 0.0
C1493 C 0.79277 0.09472 0.52803 0.0
H1494 H 0.9617 0.70435 0.59551 0.0
H1495 H 0.93017 0.64313 0.61901 0.0
H1496 H 0.90327 0.63662 0.58805 0.0
H1497 H 0.9209 0.71068 0.58958 0.0
H1498 H 0.92976 0.72574 0.56004 0.0
H1499 H 0.94672 0.72575 0.58393 0.0
H1500 H 0.96257 0.7159 0.54569 0.0
H1501 H 0.94597 0.71633 0.5216 0.0
H1502 H 0.94744 0.69448 0.52461 0.0
H1503 H 0.87918 0.63706 0.55559 0.0
H1504 H 0.86225 0.64317 0.5187 0.0
H1505 H 0.90974 0.70383 0.51585 0.0
C1506 C 0.94922 0.68953 0.59399 0.0
C1507 C 0.94806 0.67427 0.60976 0.0
C1508 C 0.93149 0.65505 0.60702 0.0
C1509 C 0.91603 0.65124 0.58969 0.0
C1510 C 0.9174 0.66675 0.57502 0.0
C1511 C 0.93375 0.68541 0.57656 0.0
C1512 C 0.93196 0.6993 0.5578 0.0
C1513 C 0.93235 0.71637 0.5738 0.0
C1514 C 0.94793 0.70694 0.53614 0.0
C1515 C 0.91203 0.68555 0.54552 0.0
C1516 C 0.90374 0.6669 0.55597 0.0
C1517 C 0.88552 0.65161 0.54728 0.0
C1518 C 0.87589 0.65527 0.52656 0.0
C1519 C 0.88461 0.674 0.51462 0.0
C1520 C 0.90266 0.68942 0.52481 0.0
H1521 H 0.95148 0.69415 0.74972 0.0
H1522 H 0.92224 0.63598 0.71142 0.0
H1523 H 0.89289 0.62685 0.73841 0.0
H1524 H 0.93247 0.67766 0.8158 0.0
H1525 H 0.93058 0.6989 0.82403 0.0
H1526 H 0.94866 0.70095 0.80043 0.0
H1527 H 0.93495 0.71442 0.76482 0.0
H1528 H 0.9165 0.71191 0.78817 0.0
H1529 H 0.90961 0.70004 0.75519 0.0
H1530 H 0.86693 0.62383 0.77002 0.0
H1531 H 0.84844 0.62512 0.80919 0.0
H1532 H 0.89451 0.68515 0.82728 0.0
C1533 C 0.93889 0.6795 0.74697 0.0
C1534 C 0.93914 0.66581 0.72835 0.0
C1535 C 0.92245 0.64669 0.72564 0.0
C1536 C 0.90562 0.64144 0.74065 0.0
C1537 C 0.90574 0.65542 0.75842 0.0
C1538 C 0.92206 0.67393 0.76202 0.0
C1539 C 0.91891 0.68567 0.78393 0.0
C1540 C 0.93351 0.6911 0.80744 0.0
C1541 C 0.92006 0.7041 0.77232 0.0
C1542 C 0.89835 0.67078 0.79235 0.0
C1543 C 0.89088 0.65356 0.77702 0.0
C1544 C 0.87255 0.63729 0.78201 0.0
C1545 C 0.86202 0.63826 0.80413 0.0
C1546 C 0.86994 0.65529 0.82119 0.0
C1547 C 0.88799 0.67201 0.81443 0.0
H1548 H 0.37664 0.29039 0.74595 0.0
H1549 H 0.31436 0.25628 0.73036 0.0
H1550 H 0.31152 0.23054 0.76069 0.0
H1551 H 0.38455 0.24902 0.75082 0.0
H1552 H 0.40198 0.26039 0.77815 0.0
H1553 H 0.39949 0.27547 0.75354 0.0
H1554 H 0.39288 0.2942 0.7918 0.0
H1555 H 0.39583 0.27951 0.81644 0.0
H1556 H 0.3738 0.28042 0.81572 0.0
H1557 H 0.31506 0.20958 0.79479 0.0
H1558 H 0.32416 0.19711 0.83419 0.0
H1559 H 0.384 0.24452 0.82734 0.0
C1560 C 0.36241 0.27743 0.74871 0.0
C1561 C 0.34574 0.27533 0.73562 0.0
C1562 C 0.32735 0.25828 0.74018 0.0
C1563 C 0.32561 0.24347 0.75716 0.0
C1564 C 0.34239 0.24591 0.76945 0.0
C1565 C 0.3604 0.26258 0.76569 0.0
C1566 C 0.37588 0.26241 0.783 0.0
C1567 C 0.39139 0.26178 0.76531 0.0
C1568 C 0.38513 0.28018 0.80292 0.0
C1569 C 0.3637 0.24322 0.79757 0.0
C1570 C 0.34446 0.23376 0.7891 0.0
C1571 C 0.33013 0.21664 0.80122 0.0
C1572 C 0.33542 0.20954 0.82337 0.0
C1573 C 0.35485 0.21954 0.83309 0.0
C1574 C 0.36924 0.23618 0.81948 0.0
H1575 H 0.71619 0.05992 0.74752 0.0
H1576 H 0.75433 0.03792 0.72513 0.0
H1577 H 0.78012 0.06328 0.75381 0.0
H1578 H 0.75373 0.11197 0.75229 0.0
H1579 H 0.74375 0.11702 0.78201 0.0
H1580 H 0.7279 0.09779 0.75829 0.0
H1581 H 0.71473 0.07244 0.79673 0.0
H1582 H 0.73024 0.09167 0.8206 0.0
H1583 H 0.73165 0.0697 0.81749 0.0
H1584 H 0.80192 0.09017 0.78421 0.0
H1585 H 0.8169 0.11395 0.82189 0.0
H1586 H 0.76558 0.11923 0.82716 0.0
C1587 C 0.72994 0.06044 0.74875 0.0
C1588 C 0.7331 0.04686 0.73386 0.0
C1589 C 0.75133 0.04799 0.73627 0.0
C1590 C 0.76627 0.06253 0.75232 0.0
C1591 C 0.76288 0.07586 0.76622 0.0
C1592 C 0.74512 0.0748 0.76522 0.0
C1593 C 0.74515 0.09019 0.78413 0.0
C1594 C 0.74247 0.10513 0.76822 0.0
C1595 C 0.72952 0.08041 0.80604 0.0
C1596 C 0.76557 0.09968 0.79609 0.0
C1597 C 0.7756 0.09142 0.78485 0.0
C1598 C 0.79435 0.09695 0.79309 0.0
C1599 C 0.80285 0.11071 0.81436 0.0
C1600 C 0.79256 0.11871 0.82736 0.0
C1601 C 0.77387 0.11352 0.81747 0.0
H1602 H 0.0655 0.38389 0.05654 0.0
H1603 H 0.05183 0.34317 0.98884 0.0
H1604 H 0.07974 0.33941 0.00102 0.0
H1605 H 0.12024 0.40691 0.0538 0.0
H1606 H 0.12228 0.40879 0.09021 0.0
H1607 H 0.10339 0.41074 0.07342 0.0
H1608 H 0.0774 0.38241 0.10234 0.0
H1609 H 0.09612 0.38031 0.11907 0.0
H1610 H 0.07631 0.35909 0.10215 0.0
H1611 H 0.10515 0.33567 0.0254 0.0
H1612 H 0.12624 0.33285 0.05893 0.0
H1613 H 0.12559 0.37833 0.10884 0.0
C1614 C 0.06895 0.37483 0.04375 0.0
C1615 C 0.05698 0.36415 0.02143 0.0
C1616 C 0.06126 0.35179 0.00562 0.0
C1617 C 0.07703 0.34957 0.01243 0.0
C1618 C 0.08845 0.36001 0.03494 0.0
C1619 C 0.08478 0.37264 0.05014 0.0
C1620 C 0.09807 0.38074 0.07473 0.0
C1621 C 0.11181 0.40313 0.07292 0.0
C1622 C 0.08627 0.3753 0.10111 0.0
C1623 C 0.10913 0.37001 0.07172 0.0
C1624 C 0.10352 0.35825 0.04855 0.0
C1625 C 0.11009 0.34526 0.0432 0.0
C1626 C 0.12224 0.34387 0.06236 0.0
C1627 C 0.12777 0.35542 0.08664 0.0
C1628 C 0.12167 0.36921 0.09061 0.0
H1629 H 0.6304 0.68417 0.05668 0.0
H1630 H 0.68021 0.71307 0.00387 0.0
H1631 H 0.68329 0.7453 0.01466 0.0
H1632 H 0.61007 0.7154 0.04178 0.0
H1633 H 0.60261 0.71549 0.07623 0.0
H1634 H 0.60346 0.69458 0.06285 0.0
H1635 H 0.62649 0.69791 0.10209 0.0
H1636 H 0.6254 0.71854 0.11578 0.0
H1637 H 0.64864 0.72118 0.10815 0.0
H1638 H 0.68246 0.77439 0.03404 0.0
H1639 H 0.67958 0.79838 0.06332 0.0
H1640 H 0.6291 0.75043 0.10171 0.0
C1641 C 0.64186 0.69735 0.04739 0.0
C1642 C 0.65516 0.69644 0.02962 0.0
C1643 C 0.67 0.71374 0.01766 0.0
C1644 C 0.67173 0.73199 0.0235 0.0
C1645 C 0.65834 0.73252 0.04108 0.0
C1646 C 0.64373 0.71566 0.05293 0.0
C1647 C 0.63201 0.72042 0.07241 0.0
C1648 C 0.61078 0.71091 0.06273 0.0
C1649 C 0.63322 0.71415 0.10131 0.0
C1650 C 0.64266 0.74261 0.07028 0.0
C1651 C 0.65764 0.7493 0.05183 0.0
C1652 C 0.67056 0.76934 0.04818 0.0
C1653 C 0.66868 0.78289 0.06473 0.0
C1654 C 0.65405 0.77631 0.08473 0.0
C1655 C 0.64037 0.75592 0.08652 0.0
H1656 H 0.32225 0.97144 0.07619 0.0
H1657 H 0.3021 0.95884 0.99282 0.0
H1658 H 0.2709 0.93006 0.00746 0.0
H1659 H 0.30211 0.92066 0.09365 0.0
H1660 H 0.29644 0.92446 0.12776 0.0
H1661 H 0.31652 0.94434 0.11044 0.0
H1662 H 0.30154 0.96624 0.11903 0.0
H1663 H 0.28135 0.94638 0.13621 0.0
H1664 H 0.27697 0.9576 0.10787 0.0
H1665 H 0.24089 0.90319 0.03268 0.0
H1666 H 0.21677 0.87972 0.06507 0.0
H1667 H 0.25947 0.90835 0.12993 0.0
C1668 C 0.31121 0.96267 0.06105 0.0
C1669 C 0.31438 0.96741 0.03348 0.0
C1670 C 0.29983 0.9554 0.01412 0.0
C1671 C 0.28208 0.9391 0.02225 0.0
C1672 C 0.27936 0.93481 0.04973 0.0
C1673 C 0.29372 0.94611 0.06871 0.0
C1674 C 0.2878 0.93796 0.09674 0.0
C1675 C 0.30153 0.93146 0.10779 0.0
C1676 C 0.28685 0.95294 0.11609 0.0
C1677 C 0.26774 0.92049 0.09073 0.0
C1678 C 0.26289 0.91892 0.06365 0.0
C1679 C 0.24465 0.9042 0.05392 0.0
C1680 C 0.23105 0.89086 0.07245 0.0
C1681 C 0.23587 0.89222 0.10034 0.0
C1682 C 0.25472 0.90709 0.10911 0.0
H1683 H 0.34344 0.05112 0.99664 0.0
H1684 H 0.40398 0.07512 0.01861 0.0
H1685 H 0.411 0.10857 0.00746 0.0
H1686 H 0.35088 0.07825 0.94066 0.0
H1687 H 0.33041 0.08157 0.94541 0.0
H1688 H 0.32994 0.06057 0.95932 0.0
H1689 H 0.32356 0.07032 0.00702 0.0
H1690 H 0.32414 0.09151 0.99318 0.0
H1691 H 0.34008 0.09457 0.02096 0.0
H1692 H 0.41214 0.13814 0.98571 0.0
H1693 H 0.40717 0.16016 0.95621 0.0
H1694 H 0.34542 0.11716 0.95242 0.0
C1695 C 0.35809 0.06349 -0.00022 0.0
C1696 C 0.37318 0.06059 0.0085 0.0
C1697 C 0.39218 0.07709 0.01219 0.0
C1698 C 0.39627 0.09612 0.00592 0.0
C1699 C 0.38109 0.09842 0.99667 0.0
C1700 C 0.3623 0.08251 0.99408 0.0
C1701 C 0.34882 0.08835 0.98163 0.0
C1702 C 0.33949 0.07649 0.9552 0.0
C1703 C 0.33323 0.08605 0.00191 0.0
C1704 C 0.3631 0.10981 0.97622 0.0
C1705 C 0.38163 0.11552 0.98527 0.0
C1706 C 0.3976 0.13399 0.97925 0.0
C1707 C 0.39465 0.1465 0.96264 0.0
C1708 C 0.3759 0.14041 0.95219 0.0
C1709 C 0.35989 0.12229 0.96037 0.0
H1710 H 0.9814 0.30516 0.95487 0.0
H1711 H 0.94821 0.30998 0.02106 0.0
H1712 H 0.91957 0.27806 0.00681 0.0
H1713 H 0.94359 0.28533 0.90636 0.0
H1714 H 0.95062 0.26918 0.89063 0.0
H1715 H 0.96866 0.29163 0.90735 0.0
H1716 H 0.9785 0.27165 0.93752 0.0
H1717 H 0.96032 0.2491 0.92102 0.0
H1718 H 0.96022 0.25186 0.95732 0.0
H1719 H 0.89381 0.24637 0.98321 0.0
H1720 H 0.87321 0.21889 0.95098 0.0
H1721 H 0.92391 0.23486 0.90173 0.0
C1722 C 0.96815 0.29945 0.96651 0.0
C1723 C 0.96701 0.31002 0.98906 0.0
C1724 C 0.9494 0.30209 0.00369 0.0
C1725 C 0.93308 0.28394 0.99584 0.0
C1726 C 0.93469 0.27386 0.97345 0.0
C1727 C 0.95182 0.28137 0.95903 0.0
C1728 C 0.9496 0.26822 0.935 0.0
C1729 C 0.95333 0.27925 0.90827 0.0
C1730 C 0.96295 0.2597 0.93791 0.0
C1731 C 0.92843 0.2524 0.93772 0.0
C1732 C 0.92005 0.2557 0.96015 0.0
C1733 C 0.90028 0.24351 0.96576 0.0
C1734 C 0.88871 0.22791 0.9475 0.0
C1735 C 0.897 0.22486 0.92394 0.0
C1736 C 0.9172 0.23692 0.91959 0.0
H1737 H 0.6816 0.62161 0.96966 0.0
H1738 H 0.71446 0.67679 0.01445 0.0
H1739 H 0.74532 0.67971 -0.00104 0.0
H1740 H 0.71644 0.60385 0.97672 0.0
H1741 H 0.71213 0.59435 0.94235 0.0
H1742 H 0.69298 0.59484 0.96098 0.0
H1743 H 0.68939 0.61486 0.92292 0.0
H1744 H 0.70845 0.61441 0.90423 0.0
H1745 H 0.71043 0.63762 0.91274 0.0
H1746 H 0.77241 0.67834 0.97434 0.0
H1747 H 0.79293 0.67383 0.94049 0.0
H1748 H 0.74209 0.6204 0.91052 0.0
C1749 C 0.69535 0.63389 0.97692 0.0
C1750 C 0.69588 0.64871 0.99378 0.0
C1751 C 0.71396 0.66512 0.00197 0.0
C1752 C 0.7315 0.66686 0.9933 0.0
C1753 C 0.73059 0.65215 0.9762 0.0
C1754 C 0.71294 0.63601 0.96802 0.0
C1755 C 0.71577 0.62362 0.94687 0.0
C1756 C 0.70893 0.60294 0.95737 0.0
C1757 C 0.7054 0.62258 0.92012 0.0
C1758 C 0.73768 0.63548 0.944 0.0
C1759 C 0.74607 0.65171 0.96139 0.0
C1760 C 0.76603 0.66551 0.96095 0.0
C1761 C 0.77759 0.66285 0.94181 0.0
C1762 C 0.76903 0.64669 0.92332 0.0
C1763 C 0.74896 0.63269 0.92486 0.0
H1764 H 0.96166 0.64858 0.94258 0.0
H1765 H 0.94291 0.64391 0.02585 0.0
H1766 H 0.91374 0.64473 0.01081 0.0
H1767 H 0.94626 0.68051 0.91937 0.0
H1768 H 0.93795 0.66823 0.88683 0.0
H1769 H 0.95728 0.66764 0.90443 0.0
H1770 H 0.93776 0.62944 0.90199 0.0
H1771 H 0.91851 0.62995 0.88403 0.0
H1772 H 0.91326 0.61625 0.91473 0.0
H1773 H 0.88761 0.64861 0.98563 0.0
H1774 H 0.86546 0.65092 0.95305 0.0
H1775 H 0.89995 0.64809 0.88684 0.0
C1776 C 0.95137 0.64768 0.95762 0.0
C1777 C 0.9545 0.64636 0.98532 0.0
C1778 C 0.94065 0.6449 0.00447 0.0
C1779 C 0.92414 0.64546 0.99612 0.0
C1780 C 0.92156 0.647 0.96853 0.0
C1781 C 0.93463 0.64763 0.94958 0.0
C1782 C 0.92825 0.6483 0.9211 0.0
C1783 C 0.94333 0.6673 0.90712 0.0
C1784 C 0.9242 0.62989 0.9045 0.0
C1785 C 0.90972 0.64831 0.92689 0.0
C1786 C 0.90613 0.64786 0.95427 0.0
C1787 C 0.89018 0.64869 0.9641 0.0
C1788 C 0.8776 0.64991 0.94538 0.0
C1789 C 0.88086 0.64999 0.91709 0.0
C1790 C 0.8971 0.64886 0.90811 0.0
H1791 H 0.38126 0.32369 0.97878 0.0
H1792 H 0.32125 0.30586 0.9618 0.0
H1793 H 0.31394 0.27222 0.94994 0.0
H1794 H 0.3855 0.2977 0.92221 0.0
H1795 H 0.40151 0.29155 0.93921 0.0
H1796 H 0.40117 0.31332 0.94938 0.0
H1797 H 0.39385 0.30079 -0.00139 0.0
H1798 H 0.39366 0.27871 0.9883 0.0
H1799 H 0.37284 0.27698 0.00513 0.0
H1800 H 0.31327 0.24101 0.93884 0.0
H1801 H 0.32061 0.21655 0.91959 0.0
H1802 H 0.38152 0.25496 0.94054 0.0
C1803 C 0.36657 0.31261 0.97273 0.0
C1804 C 0.35175 0.31722 0.97136 0.0
C1805 C 0.33279 0.30257 0.96287 0.0
C1806 C 0.32846 0.28338 0.95646 0.0
C1807 C 0.34332 0.27918 0.95832 0.0
C1808 C 0.36211 0.29348 0.96559 0.0
C1809 C 0.37588 0.28574 0.96274 0.0
C1810 C 0.39196 0.29778 0.94216 0.0
C1811 C 0.38457 0.28555 0.99034 0.0
C1812 C 0.36197 0.26497 0.9522 0.0
C1813 C 0.34316 0.26133 0.95062 0.0
C1814 C 0.3279 0.24363 0.94013 0.0
C1815 C 0.33217 0.22975 0.92946 0.0
C1816 C 0.35158 0.23381 0.92885 0.0
C1817 C 0.3665 0.25126 0.94146 0.0
H1818 H 0.68873 0.064 0.96512 0.0
H1819 H 0.70459 0.02091 0.98447 0.0
H1820 H 0.73871 0.04439 0.97159 0.0
H1821 H 0.71794 0.0803 0.90513 0.0
H1822 H 0.72397 0.10549 0.9094 0.0
H1823 H 0.70146 0.08589 0.92254 0.0
H1824 H 0.71103 0.10287 0.97009 0.0
H1825 H 0.7338 0.12227 0.95713 0.0
H1826 H 0.73367 0.10824 0.9855 0.0
H1827 H 0.77098 0.0726 0.95702 0.0
H1828 H 0.79748 0.10035 0.93244 0.0
H1829 H 0.76007 0.12398 0.91859 0.0
C1830 C 0.69947 0.05962 0.96659 0.0
C1831 C 0.69427 0.04082 0.97582 0.0
C1832 C 0.70845 0.0353 0.97727 0.0
C1833 C 0.72784 0.0486 0.97032 0.0
C1834 C 0.73265 0.06719 0.96156 0.0
C1835 C 0.71877 0.07251 0.95895 0.0
C1836 C 0.72731 0.09254 0.94629 0.0
C1837 C 0.71707 0.09095 0.91923 0.0
C1838 C 0.72639 0.10736 0.96593 0.0
C1839 C 0.74813 0.09761 0.94205 0.0
C1840 C 0.75103 0.08304 0.95172 0.0
C1841 C 0.76892 0.08415 0.94948 0.0
C1842 C 0.78396 0.10008 0.9358 0.0
C1843 C 0.78087 0.11442 0.92411 0.0
C1844 C 0.7629 0.11344 0.92794 0.0
H1845 H 0.6633 0.97273 0.05688 0.0
H1846 H 0.61424 0.94062 0.00177 0.0
H1847 H 0.61246 0.90947 0.01348 0.0
H1848 H 0.68593 0.9439 0.04396 0.0
H1849 H 0.69317 0.94502 0.07878 0.0
H1850 H 0.691 0.96479 0.0653 0.0
H1851 H 0.66686 0.96065 0.10333 0.0
H1852 H 0.66923 0.94113 0.11713 0.0
H1853 H 0.64549 0.9368 0.10834 0.0
H1854 H 0.61557 0.88145 0.03271 0.0
H1855 H 0.6217 0.8593 0.06045 0.0
H1856 H 0.66868 0.91006 0.10221 0.0
C1857 C 0.65218 0.95916 0.04721 0.0
C1858 C 0.63891 0.95913 0.02837 0.0
C1859 C 0.62453 0.94102 0.01631 0.0
C1860 C 0.62349 0.92326 0.02271 0.0
C1861 C 0.63694 0.92385 0.04119 0.0
C1862 C 0.65092 0.94136 0.0534 0.0
C1863 C 0.66313 0.93804 0.07348 0.0
C1864 C 0.68458 0.94856 0.06485 0.0
C1865 C 0.66104 0.94453 0.10226 0.0
C1866 C 0.65374 0.9159 0.07095 0.0
C1867 C 0.63877 0.90792 0.05204 0.0
C1868 C 0.6274 0.88758 0.04732 0.0
C1869 C 0.63105 0.87511 0.06292 0.0
C1870 C 0.6459 0.88308 0.08289 0.0
C1871 C 0.65757 0.9037 0.0865 0.0
H1872 H 0.03524 0.69561 0.06999 0.0
H1873 H 0.05585 0.70538 0.98731 0.0
H1874 H 0.08487 0.73713 0.00162 0.0
H1875 H 0.05189 0.74585 0.08974 0.0
H1876 H 0.05929 0.74351 0.12319 0.0
H1877 H 0.03967 0.72234 0.10598 0.0
H1878 H 0.05769 0.7032 0.11184 0.0
H1879 H 0.07724 0.72425 0.12929 0.0
H1880 H 0.0823 0.71377 0.0999 0.0
H1881 H 0.11148 0.76864 0.0257 0.0
H1882 H 0.13444 0.79485 0.05769 0.0
H1883 H 0.09757 0.76117 0.12445 0.0
C1884 C 0.0458 0.70454 0.0549 0.0
C1885 C 0.0433 0.69829 0.02756 0.0
C1886 C 0.05758 0.71006 0.0084 0.0
C1887 C 0.07402 0.72811 0.01631 0.0
C1888 C 0.0761 0.73392 0.04353 0.0
C1889 C 0.0625 0.72227 0.06256 0.0
C1890 C 0.06869 0.73103 0.09077 0.0
C1891 C 0.05401 0.73598 0.10313 0.0
C1892 C 0.07167 0.71724 0.10901 0.0
C1893 C 0.08779 0.74949 0.08466 0.0
C1894 C 0.09178 0.75117 0.05735 0.0
C1895 C 0.10854 0.76738 0.0472 0.0
C1896 C 0.12157 0.78216 0.06555 0.0
C1897 C 0.11788 0.78048 0.09377 0.0
C1898 C 0.10076 0.76366 0.10311 0.0
H1899 H 0.32455 0.38718 0.04632 0.0
H1900 H 0.29651 0.33475 0.99489 0.0
H1901 H 0.2642 0.32928 0.00765 0.0
H1902 H 0.29222 0.36666 0.0996 0.0
H1903 H 0.29244 0.3888 0.10963 0.0
H1904 H 0.31315 0.39046 0.09278 0.0
H1905 H 0.31065 0.41197 0.05596 0.0
H1906 H 0.28975 0.41018 0.07265 0.0
H1907 H 0.28812 0.40282 0.03751 0.0
H1908 H 0.2353 0.32756 0.02936 0.0
H1909 H 0.21196 0.32738 0.06214 0.0
H1910 H 0.25847 0.3806 0.10063 0.0
C1911 C 0.31154 0.37489 0.03731 0.0
C1912 C 0.31277 0.36153 0.01933 0.0
C1913 C 0.29564 0.34519 0.00848 0.0
C1914 C 0.27731 0.34207 0.01547 0.0
C1915 C 0.27644 0.35539 0.03349 0.0
C1916 C 0.29309 0.37138 0.04448 0.0
C1917 C 0.28809 0.38194 0.06602 0.0
C1918 C 0.297 0.38195 0.09363 0.0
C1919 C 0.29454 0.40298 0.05751 0.0
C1920 C 0.2661 0.36902 0.06605 0.0
C1921 C 0.25966 0.35408 0.04667 0.0
C1922 C 0.24011 0.33939 0.04428 0.0
C1923 C 0.2269 0.3395 0.06288 0.0
C1924 C 0.23336 0.35408 0.0838 0.0
C1925 C 0.2531 0.3694 0.08468 0.0
H1926 H 0.70188 0.67725 0.39848 0.0
H1927 H 0.73482 0.72402 0.34189 0.0
H1928 H 0.76475 0.72413 0.35441 0.0
H1929 H 0.73862 0.69517 0.45021 0.0
H1930 H 0.73294 0.67094 0.45972 0.0
H1931 H 0.71427 0.67441 0.44556 0.0
H1932 H 0.70758 0.64806 0.40828 0.0
H1933 H 0.72649 0.64477 0.42212 0.0
H1934 H 0.72726 0.65105 0.38708 0.0
H1935 H 0.79145 0.71924 0.37383 0.0
H1936 H 0.81262 0.71169 0.40153 0.0
H1937 H 0.76198 0.66837 0.44488 0.0
C1938 C 0.71538 0.68756 0.38875 0.0
C1939 C 0.71598 0.70064 0.36921 0.0
C1940 C 0.73399 0.7139 0.35699 0.0
C1941 C 0.75106 0.71399 0.36384 0.0
C1942 C 0.74991 0.70072 0.38295 0.0
C1943 C 0.73254 0.68787 0.39538 0.0
C1944 C 0.73525 0.67554 0.41592 0.0
C1945 C 0.72996 0.67925 0.44454 0.0
C1946 C 0.72344 0.65355 0.40786 0.0
C1947 C 0.75689 0.68362 0.41339 0.0
C1948 C 0.76513 0.69797 0.39406 0.0
C1949 C 0.78512 0.70793 0.3889 0.0
C1950 C 0.79702 0.70349 0.4045 0.0
C1951 C 0.78883 0.68936 0.425 0.0
C1952 C 0.7685 0.67907 0.42902 0.0
H1953 H 0.3099 0.02596 0.38289 0.0
H1954 H 0.37102 0.04435 0.38024 0.0
H1955 H 0.37989 0.0782 0.39432 0.0
H1956 H 0.31376 0.0717 0.36153 0.0
H1957 H 0.29597 0.07013 0.38542 0.0
H1958 H 0.29439 0.04797 0.37213 0.0
H1959 H 0.29486 0.03661 0.42087 0.0
H1960 H 0.29601 0.05851 0.43421 0.0
H1961 H 0.3143 0.05288 0.44377 0.0
H1962 H 0.38202 0.10977 0.40932 0.0
H1963 H 0.37734 0.13497 0.43274 0.0
H1964 H 0.31488 0.09528 0.42958 0.0
C1965 C 0.32513 0.03722 0.38506 0.0
C1966 C 0.33984 0.03278 0.38025 0.0
C1967 C 0.3596 0.04761 0.38387 0.0
C1968 C 0.36475 0.06687 0.39156 0.0
C1969 C 0.34991 0.07089 0.39598 0.0
C1970 C 0.33049 0.05637 0.39351 0.0
C1971 C 0.31738 0.06394 0.40257 0.0
C1972 C 0.30462 0.0634 0.379 0.0
C1973 C 0.30491 0.0523 0.4268 0.0
C1974 C 0.33245 0.08492 0.41078 0.0
C1975 C 0.35112 0.0888 0.40609 0.0
C1976 C 0.36748 0.10697 0.4129 0.0
C1977 C 0.36471 0.12125 0.42592 0.0
C1978 C 0.34577 0.1171 0.43237 0.0
C1979 C 0.32946 0.0989 0.42415 0.0
H1980 H 0.95854 0.29748 0.35003 0.0
H1981 H 0.00534 0.30897 0.40524 0.0
H1982 H 0.98293 0.27903 0.43039 0.0
H1983 H 0.92148 0.28099 0.40331 0.0
H1984 H 0.90236 0.26307 0.38133 0.0
H1985 H 0.92234 0.28506 0.36742 0.0
H1986 H 0.92911 0.26342 0.33441 0.0
H1987 H 0.90948 0.24136 0.34879 0.0
H1988 H 0.93366 0.24513 0.3478 0.0
H1989 H 0.95636 0.24695 0.44732 0.0
H1990 H 0.92525 0.21881 0.46262 0.0
H1991 H 0.89433 0.2297 0.40009 0.0
C1992 C 0.96387 0.29379 0.36772 0.0
C1993 C 0.98358 0.30535 0.37583 0.0
C1994 C 0.99024 0.30023 0.39891 0.0
C1995 C 0.97768 0.28319 0.41311 0.0
C1996 C 0.95842 0.27174 0.40424 0.0
C1997 C 0.95133 0.27715 0.38271 0.0
C1998 C 0.92963 0.26296 0.37873 0.0
C1999 C 0.91828 0.27366 0.38296 0.0
C2000 C 0.92522 0.25261 0.35076 0.0
C2001 C 0.9257 0.24863 0.40121 0.0
C2002 C 0.94267 0.25376 0.41517 0.0
C2003 C 0.94297 0.24282 0.43665 0.0
C2004 C 0.92531 0.22674 0.44496 0.0
C2005 C 0.90759 0.22195 0.43215 0.0
C2006 C 0.90779 0.2328 0.40969 0.0
H2007 H 0.00752 0.3773 0.29369 0.0
H2008 H 0.06353 0.40689 0.33502 0.0
H2009 H 0.0679 0.43913 0.32346 0.0
H2010 H 0.02129 0.40982 0.23896 0.0
H2011 H 0.9983 0.40875 0.2368 0.0
H2012 H 0.99929 0.38823 0.24981 0.0
H2013 H 0.98252 0.39017 0.2938 0.0
H2014 H 0.98178 0.41094 0.28103 0.0
H2015 H 0.99324 0.41294 0.31325 0.0
H2016 H 0.06723 0.46816 0.30437 0.0
H2017 H 0.06252 0.49107 0.27675 0.0
H2018 H 0.00602 0.44272 0.2506 0.0
C2019 C 0.02068 0.39055 0.30039 0.0
C2020 C 0.0352 0.38956 0.31523 0.0
C2021 C 0.0522 0.40727 0.32361 0.0
C2022 C 0.05477 0.42567 0.31729 0.0
C2023 C 0.04011 0.42615 0.30281 0.0
C2024 C 0.02341 0.40904 0.29443 0.0
C2025 C 0.01029 0.41356 0.27802 0.0
C2026 C 0.00712 0.40456 0.2492 0.0
C2027 C 0.9908 0.40648 0.2924 0.0
C2028 C 0.02244 0.43585 0.27785 0.0
C2029 C 0.03952 0.44288 0.29246 0.0
C2030 C 0.05376 0.46286 0.29325 0.0
C2031 C 0.05086 0.47584 0.27771 0.0
C2032 C 0.03387 0.46876 0.26155 0.0
C2033 C 0.01915 0.44863 0.26279 0.0
H2034 H 0.64906 0.64232 0.28399 0.0
H2035 H 0.61256 0.64248 0.34909 0.0
H2036 H 0.58678 0.60905 0.33549 0.0
H2037 H 0.6113 0.61841 0.23553 0.0
H2038 H 0.62056 0.60409 0.21995 0.0
H2039 H 0.63703 0.62732 0.23645 0.0
H2040 H 0.64988 0.61001 0.26677 0.0
H2041 H 0.63325 0.58667 0.25049 0.0
H2042 H 0.633 0.58946 0.28678 0.0
H2043 H 0.56386 0.57671 0.31318 0.0
H2044 H 0.54472 0.54883 0.2811 0.0
H2045 H 0.59586 0.56896 0.23101 0.0
C2046 C 0.63572 0.6352 0.29551 0.0
C2047 C 0.63286 0.64502 0.31761 0.0
C2048 C 0.61511 0.6353 0.33203 0.0
C2049 C 0.60039 0.61622 0.32461 0.0
C2050 C 0.60357 0.60693 0.30274 0.0
C2051 C 0.62074 0.61609 0.28827 0.0
C2052 C 0.61977 0.60333 0.26433 0.0
C2053 C 0.62231 0.61392 0.23749 0.0
C2054 C 0.63488 0.59699 0.26728 0.0
C2055 C 0.59923 0.58596 0.26722 0.0
C2056 C 0.59023 0.58816 0.28976 0.0
C2057 C 0.5708 0.57464 0.29564 0.0
C2058 C 0.56006 0.55879 0.27744 0.0
C2059 C 0.56878 0.55677 0.25361 0.0
C2060 C 0.5888 0.57017 0.24907 0.0
H2061 H 0.37855 1.00208 0.29842 0.0
H2062 H 0.36103 0.95255 0.35103 0.0
H2063 H 0.3878 0.94871 0.33346 0.0
H2064 H 0.38977 0.98225 0.24197 0.0
H2065 H 0.41046 0.00525 0.23174 0.0
H2066 H 0.39105 0.00519 0.25026 0.0
H2067 H 0.41587 0.02873 0.28659 0.0
H2068 H 0.43537 0.02873 0.26824 0.0
H2069 H 0.43142 0.02185 0.30327 0.0
H2070 H 0.41434 0.94824 0.30725 0.0
H2071 H 0.43766 0.95023 0.27304 0.0
H2072 H 0.43942 1.00131 0.23915 0.0
C2073 C 0.38047 0.99056 0.30645 0.0
C2074 C 0.3677 0.97762 0.32611 0.0
C2075 C 0.37063 0.96265 0.33598 0.0
C2076 C 0.38587 0.96042 0.32623 0.0
C2077 C 0.39816 0.97337 0.3068 0.0
C2078 C 0.39566 0.98817 0.29702 0.0
C2079 C 0.41019 0.99937 0.27499 0.0
C2080 C 0.39974 0.99792 0.24816 0.0
C2081 C 0.42403 0.02095 0.28381 0.0
C2082 C 0.42079 0.98811 0.27328 0.0
C2083 C 0.41379 0.97333 0.29202 0.0
C2084 C 0.42022 0.96 0.29283 0.0
C2085 C 0.43366 0.96138 0.2734 0.0
C2086 C 0.44055 0.976 0.25336 0.0
C2087 C 0.43447 0.98993 0.2541 0.0
H2088 H 0.63302 0.00462 0.31277 0.0
H2089 H 0.60378 0.94621 0.34643 0.0
H2090 H 0.57208 0.94095 0.33075 0.0
H2091 H 0.59347 0.01541 0.328 0.0
H2092 H 0.59776 0.0286 0.29699 0.0
H2093 H 0.61762 0.02861 0.31407 0.0
H2094 H 0.62523 0.01539 0.27016 0.0
H2095 H 0.60544 0.01532 0.25302 0.0
H2096 H 0.60626 0.99301 0.25419 0.0
H2097 H 0.54455 0.94022 0.30458 0.0
H2098 H 0.52383 0.94444 0.27191 0.0
H2099 H 0.5705 0.0046 0.25937 0.0
C2100 C 0.61989 0.99089 0.31739 0.0
C2101 C 0.62082 0.97581 0.33081 0.0
C2102 C 0.60336 0.95801 0.33636 0.0
C2103 C 0.5853 0.95491 0.32754 0.0
C2104 C 0.58493 0.96993 0.31377 0.0
C2105 C 0.60177 0.98771 0.30917 0.0
C2106 C 0.5977 1.00101 0.29242 0.0
C2107 C 0.60188 0.0195 0.30886 0.0
C2108 C 0.60934 0.00649 0.26589 0.0
C2109 C 0.57611 0.98759 0.28713 0.0
C2110 C 0.56892 0.96978 0.29975 0.0
C2111 C 0.54989 0.9543 0.29521 0.0
C2112 C 0.53813 0.9569 0.27669 0.0
C2113 C 0.54543 0.97488 0.26292 0.0
C2114 C 0.56442 0.99061 0.26929 0.0
H2115 H 1.00276 0.6411 0.30023 0.0
H2116 H 0.05635 0.66632 0.34712 0.0
H2117 H 0.06015 0.63838 0.33345 0.0
H2118 H 0.98608 0.58931 0.31525 0.0
H2119 H 0.97593 0.58054 0.28182 0.0
H2120 H 0.97669 0.60198 0.29647 0.0
H2121 H 0.9956 0.62236 0.25489 0.0
H2122 H 0.99468 0.60095 0.24004 0.0
H2123 H 0.0178 0.62338 0.24505 0.0
H2124 H 0.06001 0.60973 0.31107 0.0
H2125 H 0.05629 0.58298 0.28071 0.0
H2126 H 1.00089 0.57388 0.25224 0.0
C2127 C 0.01523 0.64067 0.30769 0.0
C2128 C 0.0293 0.65593 0.32462 0.0
C2129 C 0.04538 0.65481 0.3341 0.0
C2130 C 0.04763 0.63894 0.32657 0.0
C2131 C 0.03349 0.62408 0.30994 0.0
C2132 C 0.01753 0.62471 0.30073 0.0
C2133 C 0.00485 0.60717 0.28226 0.0
C2134 C 0.98469 0.59397 0.2947 0.0
C2135 C 1.00315 0.61387 0.25389 0.0
C2136 C 0.01659 0.59704 0.28174 0.0
C2137 C 0.03297 0.60695 0.29799 0.0
C2138 C 0.047 0.60154 0.29871 0.0
C2139 C 0.04464 0.58611 0.28152 0.0
C2140 C 0.02828 0.57615 0.2639 0.0
C2141 C 0.01368 0.5812 0.26517 0.0
H2142 H 0.36353 0.4012 0.31445 0.0
H2143 H 0.37819 0.35595 0.32307 0.0
H2144 H 0.41216 0.37961 0.3103 0.0
H2145 H 0.39075 0.42016 0.25454 0.0
H2146 H 0.39793 0.44538 0.26216 0.0
H2147 H 0.37566 0.42567 0.27565 0.0
H2148 H 0.38761 0.44016 0.3241 0.0
H2149 H 0.41012 0.4597 0.31068 0.0
H2150 H 0.41054 0.44403 0.3363 0.0
H2151 H 0.44406 0.40755 0.29474 0.0
H2152 H 0.46961 0.43536 0.26921 0.0
H2153 H 0.43402 0.46203 0.26753 0.0
C2154 C 0.37402 0.39645 0.31397 0.0
C2155 C 0.3684 0.37688 0.31998 0.0
C2156 C 0.38229 0.37092 0.31851 0.0
C2157 C 0.40165 0.38431 0.31158 0.0
C2158 C 0.40683 0.40355 0.30579 0.0
C2159 C 0.39333 0.40951 0.30633 0.0
C2160 C 0.40208 0.43022 0.29582 0.0
C2161 C 0.39095 0.43035 0.27054 0.0
C2162 C 0.40262 0.44436 0.31806 0.0
C2163 C 0.42244 0.4348 0.28886 0.0
C2164 C 0.42505 0.41944 0.29551 0.0
C2165 C 0.44227 0.41977 0.28969 0.0
C2166 C 0.45683 0.43575 0.27546 0.0
C2167 C 0.45391 0.45098 0.26676 0.0
C2168 C 0.43678 0.45079 0.27446 0.0
H2169 H 0.29424 0.27555 0.37878 0.0
H2170 H 0.35562 0.31867 0.37009 0.0
H2171 H 0.36387 0.29354 0.38088 0.0
H2172 H 0.30097 0.25405 0.43701 0.0
H2173 H 0.28178 0.22931 0.42857 0.0
H2174 H 0.28054 0.24994 0.41659 0.0
H2175 H 0.27708 0.23646 0.36733 0.0
H2176 H 0.27867 0.21595 0.37923 0.0
H2177 H 0.29534 0.2318 0.35394 0.0
H2178 H 0.36586 0.26456 0.3945 0.0
H2179 H 0.36195 0.23561 0.41802 0.0
H2180 H 0.29954 0.21119 0.42073 0.0
C2181 C 0.30935 0.27953 0.37887 0.0
C2182 C 0.3243 0.29898 0.37345 0.0
C2183 C 0.34396 0.30385 0.3743 0.0
C2184 C 0.34879 0.28962 0.3801 0.0
C2185 C 0.3338 0.27057 0.38538 0.0
C2186 C 0.3145 0.26556 0.38539 0.0
C2187 C 0.3015 0.24468 0.39504 0.0
C2188 C 0.29056 0.24449 0.42083 0.0
C2189 C 0.28731 0.23144 0.37254 0.0
C2190 C 0.31655 0.23895 0.4009 0.0
C2191 C 0.33502 0.25394 0.39446 0.0
C2192 C 0.35144 0.25261 0.39938 0.0
C2193 C 0.34906 0.23597 0.41248 0.0
C2194 C 0.33043 0.221 0.42095 0.0
C2195 C 0.31392 0.22225 0.41411 0.0
H2196 H 0.70102 0.03853 0.39242 0.0
H2197 H 0.73143 0.02324 0.33304 0.0
H2198 H 0.76235 0.0533 0.34576 0.0
H2199 H 0.73073 0.09265 0.38275 0.0
H2200 H 0.73012 0.09808 0.41825 0.0
H2201 H 0.71 0.07627 0.40282 0.0
H2202 H 0.71346 0.05464 0.43847 0.0
H2203 H 0.73337 0.07636 0.4541 0.0
H2204 H 0.73667 0.05644 0.44295 0.0
H2205 H 0.79042 0.08243 0.36899 0.0
H2206 H 0.81323 0.10782 0.40149 0.0
H2207 H 0.76456 0.10668 0.44235 0.0
C2208 C 0.71416 0.04164 0.38192 0.0
C2209 C 0.71385 0.02852 0.36184 0.0
C2210 C 0.73133 0.03308 0.34852 0.0
C2211 C 0.74896 0.05018 0.35548 0.0
C2212 C 0.74883 0.0628 0.37543 0.0
C2213 C 0.73186 0.05884 0.38832 0.0
C2214 C 0.73589 0.07427 0.41007 0.0
C2215 C 0.7261 0.08601 0.40304 0.0
C2216 C 0.72947 0.06486 0.43804 0.0
C2217 C 0.75785 0.08695 0.40825 0.0
C2218 C 0.76503 0.08022 0.38798 0.0
C2219 C 0.78498 0.08817 0.38451 0.0
C2220 C 0.79788 0.10278 0.40299 0.0
C2221 C 0.79079 0.10932 0.42463 0.0
C2222 C 0.77053 0.10195 0.42621 0.0
H2223 H 0.98771 0.7206 0.38402 0.0
H2224 H 0.96389 0.66325 0.34487 0.0
H2225 H 0.93046 0.65598 0.35447 0.0
H2226 H 0.95532 0.70377 0.43826 0.0
H2227 H 0.95352 0.7255 0.44156 0.0
H2228 H 0.9751 0.72725 0.4276 0.0
H2229 H 0.97079 0.74294 0.38457 0.0
H2230 H 0.94894 0.74088 0.39831 0.0
H2231 H 0.94828 0.73002 0.36559 0.0
H2232 H 0.90001 0.65398 0.3712 0.0
H2233 H 0.87528 0.65499 0.40005 0.0
H2234 H 0.91882 0.7129 0.43061 0.0
C2235 C 0.97536 0.70671 0.37706 0.0
C2236 C 0.97811 0.69253 0.3634 0.0
C2237 C 0.96186 0.67427 0.3552 0.0
C2238 C 0.94289 0.67012 0.36035 0.0
C2239 C 0.94053 0.68436 0.37396 0.0
C2240 C 0.95633 0.70218 0.38259 0.0
C2241 C 0.94992 0.7138 0.39994 0.0
C2242 C 0.95899 0.7178 0.42852 0.0
C2243 C 0.95478 0.73305 0.38628 0.0
C2244 C 0.92814 0.69951 0.40041 0.0
C2245 C 0.92295 0.68288 0.38462 0.0
C2246 C 0.90383 0.66704 0.38331 0.0
C2247 C 0.88983 0.66782 0.39955 0.0
C2248 C 0.89512 0.68414 0.41721 0.0
C2249 C 0.91435 0.70045 0.41684 0.0
H2250 H 0.39382 0.05714 0.71942 0.0
H2251 H 0.35611 0.99571 0.69625 0.0
H2252 H 0.38299 0.98962 0.70422 0.0
H2253 H 0.44037 0.06336 0.69402 0.0
H2254 H 0.45413 0.07823 0.72295 0.0
H2255 H 0.43303 0.07871 0.71148 0.0
H2256 H 0.41792 0.06917 0.75927 0.0
H2257 H 0.43905 0.06892 0.77088 0.0
H2258 H 0.4152 0.04742 0.77458 0.0
H2259 H 0.41292 0.98947 0.71743 0.0
H2260 H 0.44188 0.99396 0.74152 0.0
H2261 H 0.46019 0.05506 0.75877 0.0
C2262 C 0.39145 0.04254 0.71554 0.0
C2263 C 0.37303 0.02692 0.70689 0.0
C2264 C 0.37018 0.00786 0.70279 0.0
C2265 C 0.38539 0.0043 0.70703 0.0
C2266 C 0.40338 0.01992 0.71576 0.0
C2267 C 0.40642 0.03861 0.72041 0.0
C2268 C 0.42635 0.0521 0.73308 0.0
C2269 C 0.43923 0.06911 0.71425 0.0
C2270 C 0.42451 0.05985 0.76111 0.0
C2271 C 0.43379 0.03797 0.73535 0.0
C2272 C 0.4205 0.01963 0.72457 0.0
C2273 C 0.42356 0.00384 0.72565 0.0
C2274 C 0.44021 0.00659 0.73915 0.0
C2275 C 0.45347 0.02492 0.7518 0.0
C2276 C 0.45047 0.04095 0.74899 0.0
H2277 H 0.97307 0.36104 0.69963 0.0
H2278 H 0.02794 0.36492 0.71741 0.0
H2279 H 0.04087 0.39865 0.73651 0.0
H2280 H 0.99178 0.41188 0.68243 0.0
H2281 H 0.97244 0.41317 0.69923 0.0
H2282 H 0.96804 0.39004 0.68509 0.0
H2283 H 0.9563 0.37362 0.73172 0.0
H2284 H 0.96019 0.39653 0.74572 0.0
H2285 H 0.97181 0.38469 0.76107 0.0
H2286 H 0.0474 0.43158 0.7544 0.0
H2287 H 0.04521 0.45859 0.77695 0.0
H2288 H 0.98559 0.4324 0.74922 0.0
C2289 C 0.98785 0.36904 0.70741 0.0
C2290 C 0.99962 0.36054 0.70688 0.0
C2291 C 0.01872 0.37124 0.71772 0.0
C2292 C 0.02623 0.39044 0.7283 0.0
C2293 C 0.01433 0.39855 0.72809 0.0
C2294 C 0.9954 0.388 0.71845 0.0
C2295 C 0.98495 0.39922 0.72289 0.0
C2296 C 0.97895 0.40385 0.69579 0.0
C2297 C 0.96728 0.38785 0.74146 0.0
C2298 C 1.0009 0.41774 0.73675 0.0
C2299 C 0.01788 0.41725 0.73904 0.0
C2300 C 0.03429 0.43223 0.75242 0.0
C2301 C 0.03302 0.44761 0.76487 0.0
C2302 C 0.01544 0.44776 0.76397 0.0
C2303 C 0.99938 0.43294 0.74918 0.0
H2304 H 0.63213 0.63905 0.7192 0.0
H2305 H 0.6418 0.60859 0.65252 0.0
H2306 H 0.61183 0.57778 0.66417 0.0
H2307 H 0.61639 0.60184 0.76533 0.0
H2308 H 0.59811 0.60564 0.78074 0.0
H2309 H 0.61883 0.62578 0.76494 0.0
H2310 H 0.59579 0.63114 0.73431 0.0
H2311 H 0.57495 0.61086 0.74997 0.0
H2312 H 0.57769 0.61095 0.71372 0.0
H2313 H 0.58387 0.54939 0.68716 0.0
H2314 H 0.56076 0.526 0.72004 0.0
H2315 H 0.56688 0.57503 0.76917 0.0
C2316 C 0.62771 0.62598 0.70674 0.0
C2317 C 0.63932 0.62623 0.68498 0.0
C2318 C 0.63316 0.60878 0.6693 0.0
C2319 C 0.61607 0.5912 0.67565 0.0
C2320 C 0.60508 0.59135 0.69748 0.0
C2321 C 0.61055 0.60834 0.71263 0.0
C2322 C 0.597 0.60419 0.73631 0.0
C2323 C 0.60826 0.60968 0.76341 0.0
C2324 C 0.58568 0.61492 0.73339 0.0
C2325 C 0.58367 0.5821 0.73282 0.0
C2326 C 0.58841 0.57498 0.71014 0.0
C2327 C 0.57966 0.55481 0.7046 0.0
C2328 C 0.56638 0.54158 0.72334 0.0
C2329 C 0.56196 0.54858 0.74734 0.0
C2330 C 0.57 0.56913 0.75117 0.0
H2331 H 0.70314 0.71534 0.61652 0.0
H2332 H 0.69878 0.72896 0.70063 0.0
H2333 H 0.70253 0.7609 0.68733 0.0
H2334 H 0.73991 0.76628 0.59791 0.0
H2335 H 0.72943 0.76297 0.56457 0.0
H2336 H 0.72789 0.74229 0.58153 0.0
H2337 H 0.69034 0.72309 0.57556 0.0
H2338 H 0.69176 0.74371 0.55877 0.0
H2339 H 0.67669 0.7339 0.58821 0.0
H2340 H 0.70218 0.78948 0.6626 0.0
H2341 H 0.70011 0.81193 0.63013 0.0
H2342 H 0.70878 0.78053 0.56379 0.0
C2343 C 0.70335 0.72524 0.63218 0.0
C2344 C 0.70066 0.71982 0.65952 0.0
C2345 C 0.70099 0.73303 0.67956 0.0
C2346 C 0.70306 0.75113 0.67215 0.0
C2347 C 0.70532 0.75591 0.64475 0.0
C2348 C 0.70591 0.74343 0.62523 0.0
C2349 C 0.70803 0.75143 0.59716 0.0
C2350 C 0.72747 0.75602 0.58456 0.0
C2351 C 0.69067 0.73719 0.57887 0.0
C2352 C 0.70784 0.77006 0.60363 0.0
C2353 C 0.7062 0.77253 0.63108 0.0
C2354 C 0.70388 0.78786 0.64113 0.0
C2355 C 0.70279 0.80061 0.62257 0.0
C2356 C 0.70405 0.79792 0.59433 0.0
C2357 C 0.70739 0.78287 0.58516 0.0
H2358 H 0.30441 0.97727 0.63059 0.0
H2359 H 0.26725 0.98477 0.68768 0.0
H2360 H 0.23916 0.95315 0.67205 0.0
H2361 H 0.26944 0.95591 0.57664 0.0
H2362 H 0.27696 0.93894 0.56587 0.0
H2363 H 0.29419 0.96199 0.58214 0.0
H2364 H 0.30142 0.94309 0.61805 0.0
H2365 H 0.28395 0.91996 0.60208 0.0
H2366 H 0.28169 0.92441 0.63746 0.0
H2367 H 0.21468 0.92097 0.64928 0.0
H2368 H 0.19565 0.892 0.61848 0.0
H2369 H 0.24891 0.9051 0.57775 0.0
C2370 C 0.29035 0.97228 0.6397 0.0
C2371 C 0.28802 0.9835 0.6603 0.0
C2372 C 0.26939 0.97643 0.67182 0.0
C2373 C 0.25334 0.95842 0.6632 0.0
C2374 C 0.25613 0.94755 0.64313 0.0
C2375 C 0.27414 0.95424 0.63143 0.0
C2376 C 0.27309 0.93996 0.60972 0.0
C2377 C 0.27875 0.94979 0.58195 0.0
C2378 C 0.28579 0.93135 0.61729 0.0
C2379 C 0.25165 0.92447 0.61072 0.0
C2380 C 0.2421 0.92896 0.63028 0.0
C2381 C 0.22202 0.91719 0.63401 0.0
C2382 C 0.21134 0.90073 0.61664 0.0
C2383 C 0.22084 0.89644 0.59584 0.0
C2384 C 0.2413 0.90813 0.59352 0.0
H2385 H 0.03458 0.33062 0.62736 0.0
H2386 H 1.00292 0.27074 0.6561 0.0
H2387 H 0.02983 0.26602 0.64117 0.0
H2388 H 0.05417 0.32124 0.56834 0.0
H2389 H 0.07722 0.34402 0.57109 0.0
H2390 H 0.05568 0.34253 0.58479 0.0
H2391 H 0.07285 0.35444 0.6316 0.0
H2392 H 0.09436 0.35566 0.61808 0.0
H2393 H 0.08273 0.34108 0.64737 0.0
H2394 H 0.05961 0.2674 0.62033 0.0
H2395 H 0.08848 0.2742 0.5937 0.0
H2396 H 0.10174 0.33404 0.5821 0.0
C2397 C 0.03326 0.31648 0.63048 0.0
C2398 C 0.01657 0.30099 0.64274 0.0
C2399 C 0.01553 0.2828 0.64667 0.0
C2400 C 0.0308 0.28002 0.63838 0.0
C2401 C 0.04714 0.29568 0.62657 0.0
C2402 C 0.04845 0.31356 0.62268 0.0
C2403 C 0.06732 0.32792 0.60899 0.0
C2404 C 0.06335 0.33429 0.58169 0.0
C2405 C 0.08007 0.34583 0.62763 0.0
C2406 C 0.07624 0.31518 0.60511 0.0
C2407 C 0.06447 0.29667 0.6155 0.0
C2408 C 0.06907 0.28196 0.61249 0.0
C2409 C 0.08568 0.28603 0.59754 0.0
C2410 C 0.09753 0.30469 0.58577 0.0
C2411 C 0.09303 0.3196 0.59071 0.0
H2412 H 0.29116 0.3294 0.64477 0.0
H2413 H 0.25899 0.27175 0.68057 0.0
H2414 H 0.22823 0.26779 0.66295 0.0
H2415 H 0.25391 0.34333 0.65586 0.0
H2416 H 0.2591 0.35567 0.62398 0.0
H2417 H 0.27813 0.35485 0.64219 0.0
H2418 H 0.2848 0.33926 0.59995 0.0
H2419 H 0.26591 0.34012 0.58164 0.0
H2420 H 0.26506 0.31705 0.58472 0.0
H2421 H 0.20163 0.26856 0.63642 0.0
H2422 H 0.18195 0.27367 0.60281 0.0
H2423 H 0.23142 0.3316 0.5867 0.0
C2424 C 0.27762 0.31608 0.64935 0.0
C2425 C 0.27745 0.30089 0.66407 0.0
C2426 C 0.25944 0.28362 0.66943 0.0
C2427 C 0.2419 0.28127 0.65958 0.0
C2428 C 0.24263 0.29645 0.64476 0.0
C2429 C 0.26005 0.31358 0.63986 0.0
C2430 C 0.25717 0.32708 0.62176 0.0
C2431 C 0.26238 0.34637 0.63686 0.0
C2432 C 0.26893 0.33109 0.59547 0.0
C2433 C 0.23551 0.31457 0.61634 0.0
C2434 C 0.22729 0.29705 0.63 0.0
C2435 C 0.20782 0.28241 0.62609 0.0
C2436 C 0.19669 0.2855 0.60707 0.0
C2437 C 0.20509 0.30306 0.59213 0.0
C2438 C 0.22455 0.31801 0.59775 0.0
H2439 H 0.65485 0.95253 0.65459 0.0
H2440 H 0.69564 1.00021 0.60424 0.0
H2441 H 0.70409 0.97773 0.5809 0.0
H2442 H 0.6797 0.92811 0.66294 0.0
H2443 H 0.65942 0.90329 0.65862 0.0
H2444 H 0.65539 0.9225 0.67083 0.0
H2445 H 0.63088 0.91514 0.63182 0.0
H2446 H 0.63421 0.89535 0.62014 0.0
H2447 H 0.63802 0.91448 0.59733 0.0
H2448 H 0.7123 0.95226 0.56957 0.0
H2449 H 0.7121 0.92182 0.55767 0.0
H2450 H 0.66193 0.88839 0.6088 0.0
C2451 C 0.66496 0.95794 0.6379 0.0
C2452 C 0.67475 0.97803 0.63115 0.0
C2453 C 0.68809 0.98484 0.60958 0.0
C2454 C 0.69306 0.97223 0.59642 0.0
C2455 C 0.68397 0.95274 0.60451 0.0
C2456 C 0.66945 0.94528 0.62366 0.0
C2457 C 0.66136 0.92341 0.62737 0.0
C2458 C 0.66414 0.91909 0.65669 0.0
C2459 C 0.63984 0.91138 0.61863 0.0
C2460 C 0.67416 0.91998 0.60805 0.0
C2461 C 0.68743 0.93733 0.59576 0.0
C2462 C 0.70171 0.93849 0.57854 0.0
C2463 C 0.70169 0.92121 0.57231 0.0
C2464 C 0.68712 0.9029 0.58253 0.0
C2465 C 0.67338 0.90227 0.60109 0.0
H2466 H 0.0214 0.72203 0.65277 0.0
H2467 H 0.03687 0.67731 0.64176 0.0
H2468 H 0.07016 0.70287 0.62873 0.0
H2469 H 0.04619 0.74842 0.59435 0.0
H2470 H 0.05347 0.77231 0.60895 0.0
H2471 H 0.03178 0.75084 0.62057 0.0
H2472 H 0.04532 0.7594 0.66975 0.0
H2473 H 0.06722 0.78075 0.65813 0.0
H2474 H 0.06874 0.76242 0.67721 0.0
H2475 H 0.10139 0.73304 0.61571 0.0
H2476 H 0.12632 0.7644 0.5959 0.0
H2477 H 0.08999 0.78927 0.61209 0.0
C2478 C 0.03192 0.71773 0.64792 0.0
C2479 C 0.02673 0.69779 0.64852 0.0
C2480 C 0.04063 0.69254 0.64142 0.0
C2481 C 0.05961 0.70698 0.63426 0.0
C2482 C 0.06435 0.72655 0.63394 0.0
C2483 C 0.05079 0.73191 0.64005 0.0
C2484 C 0.05895 0.7536 0.63513 0.0
C2485 C 0.04689 0.75645 0.61346 0.0
C2486 C 0.06012 0.76469 0.66164 0.0
C2487 C 0.07908 0.75953 0.62494 0.0
C2488 C 0.08208 0.74383 0.62511 0.0
C2489 C 0.09928 0.74549 0.61568 0.0
C2490 C 0.11345 0.76341 0.60471 0.0
C2491 C 0.11017 0.7793 0.60283 0.0
C2492 C 0.09298 0.77745 0.61375 0.0
H2493 H 0.99933 0.62869 0.72361 0.0
H2494 H 0.9496 0.5927 0.67102 0.0
H2495 H 0.94987 0.56293 0.68478 0.0
H2496 H 0.02399 0.60152 0.71175 0.0
H2497 H 0.03237 0.60449 0.74632 0.0
H2498 H 0.02865 0.62294 0.73153 0.0
H2499 H 0.0052 0.61925 0.77035 0.0
H2500 H 0.00911 0.60107 0.78545 0.0
H2501 H 0.98473 0.5952 0.77746 0.0
H2502 H 0.95462 0.53671 0.7068 0.0
H2503 H 0.96257 0.51681 0.73662 0.0
H2504 H 0.00969 0.57039 0.77289 0.0
C2505 C 0.98849 0.61457 0.71491 0.0
C2506 C 0.97441 0.61303 0.69627 0.0
C2507 C 0.96051 0.59424 0.68538 0.0
C2508 C 0.96062 0.57726 0.69297 0.0
C2509 C 0.97482 0.57934 0.71128 0.0
C2510 C 0.98847 0.59756 0.72212 0.0
C2511 C 1.00176 0.59587 0.74215 0.0
C2512 C 0.02295 0.60685 0.73234 0.0
C2513 C 1.00009 0.60328 0.77052 0.0
C2514 C 0.99327 0.57382 0.74133 0.0
C2515 C 0.97782 0.56446 0.72329 0.0
C2516 C 0.96691 0.54392 0.72061 0.0
C2517 C 0.97157 0.53272 0.73739 0.0
C2518 C 0.98702 0.54217 0.75637 0.0
C2519 C 0.9982 0.56292 0.75786 0.0
H2520 H 0.3793 0.36766 0.68598 0.0
H2521 H 0.35298 0.33537 0.75908 0.0
H2522 H 0.38075 0.3609 0.78609 0.0
H2523 H 0.43016 0.38729 0.70457 0.0
H2524 H 0.43852 0.41112 0.69044 0.0
H2525 H 0.41744 0.3896 0.67616 0.0
H2526 H 0.39697 0.40615 0.6833 0.0
H2527 H 0.418 0.42775 0.69739 0.0
H2528 H 0.39583 0.41531 0.71657 0.0
H2529 H 0.41085 0.38881 0.80486 0.0
H2530 H 0.43977 0.42072 0.81653 0.0
H2531 H 0.44601 0.43761 0.73233 0.0
C2532 C 0.37956 0.366 0.70765 0.0
C2533 C 0.3642 0.34957 0.72059 0.0
C2534 C 0.36466 0.3479 0.74895 0.0
C2535 C 0.38041 0.36222 0.76436 0.0
C2536 C 0.39536 0.37824 0.75109 0.0
C2537 C 0.39497 0.38049 0.7235 0.0
C2538 C 0.41221 0.40005 0.71486 0.0
C2539 C 0.42536 0.39681 0.69534 0.0
C2540 C 0.40534 0.41308 0.7023 0.0
C2541 C 0.42227 0.40843 0.74198 0.0
C2542 C 0.41239 0.3953 0.76238 0.0
C2543 C 0.4186 0.39932 0.78917 0.0
C2544 C 0.435 0.41753 0.79556 0.0
C2545 C 0.44482 0.43181 0.77541 0.0
C2546 C 0.4387 0.42701 0.74809 0.0
H2547 H 0.63267 1.00128 0.72392 0.0
H2548 H 0.65552 0.05591 0.68075 0.0
H2549 H 0.62657 0.05769 0.69387 0.0
H2550 H 0.58207 0.98136 0.70699 0.0
H2551 H 0.5736 0.97069 0.73973 0.0
H2552 H 0.59584 0.97352 0.72635 0.0
H2553 H 0.61474 0.9936 0.76934 0.0
H2554 H 0.59251 0.99048 0.78302 0.0
H2555 H 0.61343 0.01486 0.77972 0.0
H2556 H 0.59509 0.05374 0.71337 0.0
H2557 H 0.56588 0.04582 0.74064 0.0
H2558 H 0.56401 0.99362 0.76947 0.0
C2559 C 0.63165 0.01366 0.71722 0.0
C2560 C 0.64638 0.02847 0.70132 0.0
C2561 C 0.64444 0.04442 0.69302 0.0
C2562 C 0.62798 0.04548 0.70022 0.0
C2563 C 0.61357 0.03044 0.7156 0.0
C2564 C 0.61538 0.01491 0.72414 0.0
C2565 C 0.59834 1.00099 0.74135 0.0
C2566 C 0.58678 0.98043 0.72778 0.0
C2567 C 0.60517 0.99994 0.77005 0.0
C2568 C 0.58676 0.01121 0.74155 0.0
C2569 C 0.59559 0.02808 0.72641 0.0
C2570 C 0.58795 0.04044 0.72501 0.0
C2571 C 0.57129 0.03578 0.7403 0.0
C2572 C 0.56266 0.019 0.75672 0.0
C2573 C 0.57019 0.00634 0.75663 0.0
loop_
_geom_bond_atom_site_label_1
_geom_bond_atom_site_label_2
_geom_bond_distance
_geom_bond_site_symmetry_2
_ccdc_geom_bond_type
Co0 O1 2.216 . S
Co0 O2 2.091 . S
Co0 O4 2.004 1_554 S
Co0 O10 2.021 . S
Co0 O12 2.137 1_454 S
Co0 O13 2.244 1_455 S
O1 Co0 2.216 . S
O1 C8 1.247 . S
O2 Co0 2.091 . S
O2 C8 1.261 . S
C3 O12 1.247 . S
C3 O13 1.272 1_556 S
O4 Co0 2.004 1_556 S
O4 C9 1.259 1_455 S
Co5 O6 2.061 1_554 S
Co5 O11 2.052 . S
Co5 O13 2.135 . S
O6 Co5 2.061 1_556 S
O6 C9 1.235 . S
C7 O10 1.238 1_655 S
C7 O11 1.241 . S
C8 O1 1.247 . S
C8 O2 1.261 . S
C9 O4 1.259 1_655 S
C9 O6 1.235 . S
O10 Co0 2.021 . S
O10 C7 1.238 1_455 S
O11 Co5 2.052 . S
O11 C7 1.241 . S
O12 Co0 2.137 1_656 S
O12 C3 1.247 . S
O13 Co0 2.244 1_655 S
O13 C3 1.272 1_554 S
O13 Co5 2.135 . S
Co14 O15 2.216 1_554 S
Co14 O16 2.091 . S
Co14 O18 2.004 . S
Co14 O24 2.021 1_554 S
Co14 O26 2.137 . S
Co14 O27 2.244 . S
O15 Co14 2.216 1_556 S
O15 C22 1.247 . S
O16 Co14 2.091 . S
O16 C22 1.261 1_554 S
C17 O26 1.247 . S
C17 O27 1.272 . S
O18 Co14 2.004 . S
O18 C23 1.259 . S
Co19 O20 2.061 . S
Co19 O25 2.052 1_554 S
Co19 O27 2.135 . S
O20 Co19 2.061 . S
O20 C23 1.235 . S
C21 O24 1.238 . S
C21 O25 1.241 . S
C22 O15 1.247 . S
C22 O16 1.261 1_556 S
C23 O18 1.259 . S
C23 O20 1.235 . S
O24 Co14 2.021 1_556 S
O24 C21 1.238 . S
O25 Co19 2.052 1_556 S
O25 C21 1.241 . S
O26 Co14 2.137 . S
O26 C17 1.247 . S
O27 Co14 2.244 . S
O27 C17 1.272 . S
O27 Co19 2.135 . S
Co28 O29 2.216 1_554 S
Co28 O30 2.091 . S
Co28 O32 2.004 . S
Co28 O38 2.021 1_554 S
Co28 O40 2.137 1_545 S
Co28 O41 2.244 1_545 S
O29 Co28 2.216 1_556 S
O29 C36 1.247 . S
O30 Co28 2.091 . S
O30 C36 1.261 1_554 S
C31 O40 1.247 . S
C31 O41 1.272 . S
O32 Co28 2.004 . S
O32 C37 1.259 . S
Co33 O34 2.061 . S
Co33 O39 2.052 1_554 S
Co33 O41 2.135 . S
O34 Co33 2.061 . S
O34 C37 1.235 1_565 S
C35 O38 1.238 1_565 S
C35 O39 1.241 . S
C36 O29 1.247 . S
C36 O30 1.261 1_556 S
C37 O32 1.259 . S
C37 O34 1.235 1_545 S
O38 Co28 2.021 1_556 S
O38 C35 1.238 1_545 S
O39 Co33 2.052 1_556 S
O39 C35 1.241 . S
O40 Co28 2.137 1_565 S
O40 C31 1.247 . S
O41 Co28 2.244 1_565 S
O41 C31 1.272 . S
O41 Co33 2.135 . S
Co42 O43 2.216 1_554 S
Co42 O44 2.091 . S
Co42 O46 2.004 . S
Co42 O52 2.021 1_554 S
Co42 O54 2.137 1_655 S
Co42 O55 2.244 1_655 S
O43 Co42 2.216 1_556 S
O43 C50 1.247 . S
O44 Co42 2.091 . S
O44 C50 1.261 1_554 S
C45 O54 1.247 . S
C45 O55 1.272 . S
O46 Co42 2.004 . S
O46 C51 1.259 1_655 S
Co47 O48 2.061 . S
Co47 O53 2.052 1_554 S
Co47 O55 2.135 . S
O48 Co47 2.061 . S
O48 C51 1.235 . S
C49 O52 1.238 1_455 S
C49 O53 1.241 . S
C50 O43 1.247 . S
C50 O44 1.261 1_556 S
C51 O46 1.259 1_455 S
C51 O48 1.235 . S
O52 Co42 2.021 1_556 S
O52 C49 1.238 1_655 S
O53 Co47 2.052 1_556 S
O53 C49 1.241 . S
O54 Co42 2.137 1_455 S
O54 C45 1.247 . S
O55 Co42 2.244 1_455 S
O55 C45 1.272 . S
O55 Co47 2.135 . S
Co56 O57 2.216 . S
Co56 O58 2.091 . S
Co56 O60 2.004 1_554 S
Co56 O66 2.021 . S
Co56 O68 2.137 1_554 S
Co56 O69 2.244 . S
O57 Co56 2.216 . S
O57 C64 1.247 . S
O58 Co56 2.091 . S
O58 C64 1.261 . S
C59 O68 1.247 . S
C59 O69 1.272 1_556 S
O60 Co56 2.004 1_556 S
O60 C65 1.259 . S
Co61 O62 2.061 1_554 S
Co61 O67 2.052 . S
Co61 O69 2.135 . S
O62 Co61 2.061 1_556 S
O62 C65 1.235 . S
C63 O66 1.238 . S
C63 O67 1.241 . S
C64 O57 1.247 . S
C64 O58 1.261 . S
C65 O60 1.259 . S
C65 O62 1.235 . S
O66 Co56 2.021 . S
O66 C63 1.238 . S
O67 Co61 2.052 . S
O67 C63 1.241 . S
O68 Co56 2.137 1_556 S
O68 C59 1.247 . S
O69 Co56 2.244 . S
O69 C59 1.272 1_554 S
O69 Co61 2.135 . S
Co70 O71 2.216 . S
Co70 O72 2.091 . S
Co70 O74 2.004 1_554 S
Co70 O80 2.021 . S
Co70 O82 2.137 1_564 S
Co70 O83 2.244 1_565 S
O71 Co70 2.216 . S
O71 C78 1.247 . S
O72 Co70 2.091 . S
O72 C78 1.261 . S
C73 O82 1.247 . S
C73 O83 1.272 1_556 S
O74 Co70 2.004 1_556 S
O74 C79 1.259 1_565 S
Co75 O76 2.061 1_554 S
Co75 O81 2.052 . S
Co75 O83 2.135 . S
O76 Co75 2.061 1_556 S
O76 C79 1.235 . S
C77 O80 1.238 1_545 S
C77 O81 1.241 . S
C78 O71 1.247 . S
C78 O72 1.261 . S
C79 O74 1.259 1_545 S
C79 O76 1.235 . S
O80 Co70 2.021 . S
O80 C77 1.238 1_565 S
O81 Co75 2.052 . S
O81 C77 1.241 . S
O82 Co70 2.137 1_546 S
O82 C73 1.247 . S
O83 Co70 2.244 1_545 S
O83 C73 1.272 1_554 S
O83 Co75 2.135 . S
Co84 O85 2.216 . S
Co84 O86 2.091 . S
Co84 O88 2.004 . S
Co84 O94 2.021 . S
Co84 O96 2.137 . S
Co84 O97 2.244 . S
O85 Co84 2.216 . S
O85 C92 1.247 . S
O86 Co84 2.091 . S
O86 C92 1.261 . S
C87 O96 1.247 . S
C87 O97 1.272 . S
O88 Co84 2.004 . S
O88 C93 1.259 . S
Co89 O90 2.061 . S
Co89 O95 2.052 . S
Co89 O97 2.135 . S
O90 Co89 2.061 . S
O90 C93 1.235 . S
C91 O94 1.238 . S
C91 O95 1.241 . S
C92 O85 1.247 . S
C92 O86 1.261 . S
C93 O88 1.259 . S
C93 O90 1.235 . S
O94 Co84 2.021 . S
O94 C91 1.238 . S
O95 Co89 2.052 . S
O95 C91 1.241 . S
O96 Co84 2.137 . S
O96 C87 1.247 . S
O97 Co84 2.244 . S
O97 C87 1.272 . S
O97 Co89 2.135 . S
Co98 O99 2.218 . S
Co98 O100 2.091 . S
Co98 O102 2.004 . S
Co98 O108 2.021 . S
Co98 O110 2.137 1_565 S
Co98 O111 2.244 1_565 S
O99 Co98 2.218 . S
O99 C106 1.257 . S
O100 Co98 2.091 . S
O100 C106 1.261 . S
C101 O110 1.247 . S
C101 O111 1.272 . S
O102 Co98 2.004 . S
O102 C107 1.259 . S
Co103 O104 2.061 . S
Co103 O109 2.052 . S
Co103 O111 2.135 1_565 S
O104 Co103 2.061 . S
O104 C107 1.235 . S
C105 O108 1.238 . S
C105 O109 1.241 . S
C106 O99 1.257 . S
C106 O100 1.261 . S
C107 O102 1.259 . S
C107 O104 1.235 . S
O108 Co98 2.021 . S
O108 C105 1.238 . S
O109 Co103 2.052 . S
O109 C105 1.241 . S
O110 Co98 2.137 1_545 S
O110 C101 1.247 . S
O111 Co98 2.244 1_545 S
O111 C101 1.272 . S
O111 Co103 2.135 1_545 S
Co112 O113 2.216 . S
Co112 O114 2.091 . S
Co112 O116 2.004 . S
Co112 O122 2.021 . S
Co112 O124 2.137 1_455 S
Co112 O125 2.242 1_455 S
O113 Co112 2.216 . S
O113 C120 1.247 . S
O114 Co112 2.091 . S
O114 C120 1.261 . S
C115 O124 1.247 . S
C115 O125 1.287 . S
O116 Co112 2.004 . S
O116 C121 1.259 . S
Co117 O118 2.061 . S
Co117 O123 2.052 . S
Co117 O125 2.117 1_455 S
O118 Co117 2.061 . S
O118 C121 1.235 . S
C119 O122 1.238 . S
C119 O123 1.241 . S
C120 O113 1.247 . S
C120 O114 1.261 . S
C121 O116 1.259 . S
C121 O118 1.235 . S
O122 Co112 2.021 . S
O122 C119 1.238 . S
O123 Co117 2.052 . S
O123 C119 1.241 . S
O124 Co112 2.137 1_655 S
O124 C115 1.247 . S
O125 Co112 2.242 1_655 S
O125 C115 1.287 . S
O125 Co117 2.117 1_655 S
Co126 O127 2.216 . S
Co126 O128 2.091 . S
Co126 O130 2.004 . S
Co126 O136 2.021 . S
Co126 O138 2.137 1_565 S
Co126 O139 2.244 1_565 S
O127 Co126 2.216 . S
O127 C134 1.247 . S
O128 Co126 2.091 . S
O128 C134 1.261 . S
C129 O138 1.247 . S
C129 O139 1.272 . S
O130 Co126 2.004 . S
O130 C135 1.259 . S
Co131 O132 2.061 . S
Co131 O137 2.052 . S
Co131 O139 2.135 1_565 S
O132 Co131 2.061 . S
O132 C135 1.235 . S
C133 O136 1.238 . S
C133 O137 1.241 . S
C134 O127 1.247 . S
C134 O128 1.261 . S
C135 O130 1.259 . S
C135 O132 1.235 . S
O136 Co126 2.021 . S
O136 C133 1.238 . S
O137 Co131 2.052 . S
O137 C133 1.241 . S
O138 Co126 2.137 1_545 S
O138 C129 1.247 . S
O139 Co126 2.244 1_545 S
O139 C129 1.272 . S
O139 Co131 2.135 1_545 S
Co140 O141 2.216 1_455 S
Co140 O142 2.091 1_455 S
Co140 O144 2.004 . S
Co140 O150 2.021 . S
Co140 O152 2.137 1_455 S
Co140 O153 2.244 . S
O141 Co140 2.216 1_655 S
O141 C148 1.247 . S
O142 Co140 2.091 1_655 S
O142 C148 1.261 . S
C143 O152 1.247 1_455 S
C143 O153 1.272 . S
O144 Co140 2.004 . S
O144 C149 1.259 . S
Co145 O146 2.061 . S
Co145 O151 2.052 . S
Co145 O153 2.135 . S
O146 Co145 2.061 . S
O146 C149 1.235 . S
C147 O150 1.238 . S
C147 O151 1.241 . S
C148 O141 1.247 . S
C148 O142 1.261 . S
C149 O144 1.259 . S
C149 O146 1.235 . S
O150 Co140 2.021 . S
O150 C147 1.238 . S
O151 Co145 2.052 . S
O151 C147 1.241 . S
O152 Co140 2.137 1_655 S
O152 C143 1.247 1_655 S
O153 Co140 2.244 . S
O153 C143 1.272 . S
O153 Co145 2.135 . S
Co154 O155 2.216 . S
Co154 O156 2.091 . S
Co154 O158 2.004 . S
Co154 O164 2.021 . S
Co154 O166 2.137 . S
Co154 O167 2.244 . S
O155 Co154 2.216 . S
O155 C162 1.247 . S
O156 Co154 2.091 . S
O156 C162 1.261 . S
C157 O166 1.247 . S
C157 O167 1.272 . S
O158 Co154 2.004 . S
O158 C163 1.259 . S
Co159 O160 2.061 . S
Co159 O165 2.052 . S
Co159 O167 2.135 . S
O160 Co159 2.061 . S
O160 C163 1.235 . S
C161 O164 1.238 . S
C161 O165 1.241 . S
C162 O155 1.247 . S
C162 O156 1.261 . S
C163 O158 1.259 . S
C163 O160 1.235 . S
O164 Co154 2.021 . S
O164 C161 1.238 . S
O165 Co159 2.052 . S
O165 C161 1.241 . S
O166 Co154 2.137 . S
O166 C157 1.247 . S
O167 Co154 2.244 . S
O167 C157 1.272 . S
O167 Co159 2.135 . S
Co168 O169 2.216 . S
Co168 O170 2.091 . S
Co168 O172 2.004 . S
Co168 O178 2.021 . S
Co168 O180 2.137 1_545 S
Co168 O181 2.244 1_545 S
O169 Co168 2.216 . S
O169 C176 1.247 . S
O170 Co168 2.091 . S
O170 C176 1.261 . S
C171 O180 1.247 . S
C171 O181 1.272 . S
O172 Co168 2.004 . S
O172 C177 1.259 . S
Co173 O174 2.061 . S
Co173 O179 2.052 . S
Co173 O181 2.135 1_545 S
O174 Co173 2.061 . S
O174 C177 1.235 . S
C175 O178 1.238 . S
C175 O179 1.241 . S
C176 O169 1.247 . S
C176 O170 1.261 . S
C177 O172 1.259 . S
C177 O174 1.235 . S
O178 Co168 2.021 . S
O178 C175 1.238 . S
O179 Co173 2.052 . S
O179 C175 1.241 . S
O180 Co168 2.137 1_565 S
O180 C171 1.247 . S
O181 Co168 2.244 1_565 S
O181 C171 1.272 . S
O181 Co173 2.135 1_565 S
Co182 O183 2.216 1_655 S
Co182 O184 2.091 1_655 S
Co182 O186 2.004 . S
Co182 O192 2.021 . S
Co182 O194 2.137 1_655 S
Co182 O195 2.244 . S
O183 Co182 2.216 1_455 S
O183 C190 1.247 . S
O184 Co182 2.091 1_455 S
O184 C190 1.261 . S
C185 O194 1.247 1_655 S
C185 O195 1.272 . S
O186 Co182 2.004 . S
O186 C191 1.259 . S
Co187 O188 2.061 . S
Co187 O193 2.052 . S
Co187 O195 2.135 . S
O188 Co187 2.061 . S
O188 C191 1.235 . S
C189 O192 1.238 . S
C189 O193 1.241 . S
C190 O183 1.247 . S
C190 O184 1.261 . S
C191 O186 1.259 . S
C191 O188 1.235 . S
O192 Co182 2.021 . S
O192 C189 1.238 . S
O193 Co187 2.052 . S
O193 C189 1.241 . S
O194 Co182 2.137 1_455 S
O194 C185 1.247 1_455 S
O195 Co182 2.244 . S
O195 C185 1.272 . S
O195 Co187 2.135 . S
Co196 O197 2.216 . S
Co196 O198 2.091 . S
Co196 O200 2.004 . S
Co196 O206 2.021 . S
Co196 O208 2.137 . S
Co196 O209 2.244 . S
O197 Co196 2.216 . S
O197 C204 1.247 . S
O198 Co196 2.091 . S
O198 C204 1.261 . S
C199 O208 1.247 . S
C199 O209 1.272 . S
O200 Co196 2.004 . S
O200 C205 1.259 . S
Co201 O202 2.061 . S
Co201 O207 2.052 . S
Co201 O209 2.135 . S
O202 Co201 2.061 . S
O202 C205 1.235 . S
C203 O206 1.238 . S
C203 O207 1.241 . S
C204 O197 1.247 . S
C204 O198 1.261 . S
C205 O200 1.259 . S
C205 O202 1.235 . S
O206 Co196 2.021 . S
O206 C203 1.238 . S
O207 Co201 2.052 . S
O207 C203 1.241 . S
O208 Co196 2.137 . S
O208 C199 1.247 . S
O209 Co196 2.244 . S
O209 C199 1.272 . S
O209 Co201 2.135 . S
Co210 O211 2.216 . S
Co210 O212 2.091 . S
Co210 O214 2.004 . S
Co210 O220 2.021 . S
Co210 O222 2.137 . S
Co210 O223 2.244 . S
O211 Co210 2.216 . S
O211 C218 1.247 . S
O212 Co210 2.091 . S
O212 C218 1.261 . S
C213 O222 1.247 . S
C213 O223 1.272 . S
O214 Co210 2.004 . S
O214 C219 1.259 . S
Co215 O216 2.061 . S
Co215 O221 2.052 . S
Co215 O223 2.135 . S
O216 Co215 2.061 . S
O216 C219 1.235 . S
C217 O220 1.238 . S
C217 O221 1.241 . S
C218 O211 1.247 . S
C218 O212 1.261 . S
C219 O214 1.259 . S
C219 O216 1.235 . S
O220 Co210 2.021 . S
O220 C217 1.238 . S
O221 Co215 2.052 . S
O221 C217 1.241 . S
O222 Co210 2.137 . S
O222 C213 1.247 . S
O223 Co210 2.244 . S
O223 C213 1.272 . S
O223 Co215 2.135 . S
Co224 O225 2.216 . S
Co224 O226 2.091 . S
Co224 O228 2.004 . S
Co224 O234 2.021 . S
Co224 O236 2.137 1_545 S
Co224 O237 2.244 1_545 S
O225 Co224 2.216 . S
O225 C232 1.247 . S
O226 Co224 2.091 . S
O226 C232 1.261 . S
C227 O236 1.247 . S
C227 O237 1.272 . S
O228 Co224 2.004 . S
O228 C233 1.259 . S
Co229 O230 2.061 . S
Co229 O235 2.052 . S
Co229 O237 2.135 1_545 S
O230 Co229 2.061 . S
O230 C233 1.235 . S
C231 O234 1.238 . S
C231 O235 1.241 . S
C232 O225 1.247 . S
C232 O226 1.261 . S
C233 O228 1.259 . S
C233 O230 1.235 . S
O234 Co224 2.021 . S
O234 C231 1.238 . S
O235 Co229 2.052 . S
O235 C231 1.241 . S
O236 Co224 2.137 1_565 S
O236 C227 1.247 . S
O237 Co224 2.244 1_565 S
O237 C227 1.272 . S
O237 Co229 2.135 1_565 S
Co238 O239 2.216 . S
Co238 O240 2.091 . S
Co238 O242 2.004 . S
Co238 O248 2.021 . S
Co238 O250 2.137 1_655 S
Co238 O251 2.245 1_655 S
O239 Co238 2.216 . S
O239 C246 1.247 . S
O240 Co238 2.091 . S
O240 C246 1.261 . S
C241 O250 1.247 . S
C241 O251 1.266 . S
O242 Co238 2.004 . S
O242 C247 1.259 . S
Co243 O244 2.061 . S
Co243 O249 2.052 . S
Co243 O251 2.141 1_655 S
O244 Co243 2.061 . S
O244 C247 1.235 . S
C245 O248 1.238 . S
C245 O249 1.241 . S
C246 O239 1.247 . S
C246 O240 1.261 . S
C247 O242 1.259 . S
C247 O244 1.235 . S
O248 Co238 2.021 . S
O248 C245 1.238 . S
O249 Co243 2.052 . S
O249 C245 1.241 . S
O250 Co238 2.137 1_455 S
O250 C241 1.247 . S
O251 Co238 2.245 1_455 S
O251 C241 1.266 . S
O251 Co243 2.141 1_455 S
H252 C260 0.930 . S
H253 C263 0.930 . S
H254 C265 0.930 . S
H255 C266 0.970 . S
H256 C266 0.970 . S
H257 C268 0.930 . S
H258 C270 0.930 . S
H259 C272 0.930 . S
C260 H252 0.930 . S
C260 C261 1.382 . S
C260 C262 1.426 . S
C261 C260 1.382 . S
C261 C265 1.389 . S
C262 C260 1.426 . S
C262 C263 1.375 . S
C262 C266 1.532 . S
C263 H253 0.930 . S
C263 C262 1.375 . S
C263 C264 1.416 . S
C264 C263 1.416 . S
C264 C265 1.371 . S
C265 H254 0.930 . S
C265 C261 1.389 . S
C265 C264 1.371 . S
C266 H255 0.970 . S
C266 H256 0.970 . S
C266 C262 1.532 . S
C266 C267 1.499 . S
C267 C266 1.499 . S
C267 C268 1.370 . S
C267 C272 1.415 . S
C268 H257 0.930 . S
C268 C267 1.370 . S
C268 C269 1.407 . S
C269 C268 1.407 . S
C269 C270 1.365 . S
C270 H258 0.930 . S
C270 C269 1.365 . S
C270 C271 1.393 . S
C271 C270 1.393 . S
C271 C272 1.387 . S
C272 H259 0.930 . S
C272 C267 1.415 . S
C272 C271 1.387 . S
H273 C281 0.930 . S
H274 C284 0.930 . S
H275 C286 0.930 . S
H276 C287 0.970 . S
H277 C287 0.970 . S
H278 C289 0.930 . S
H279 C291 0.930 . S
H280 C293 0.930 . S
C281 H273 0.930 . S
C281 C282 1.382 . S
C281 C283 1.426 . S
C282 C281 1.382 . S
C282 C286 1.389 . S
C283 C281 1.426 . S
C283 C284 1.375 . S
C283 C287 1.532 . S
C284 H274 0.930 . S
C284 C283 1.375 . S
C284 C285 1.416 . S
C285 C284 1.416 . S
C285 C286 1.371 . S
C286 H275 0.930 . S
C286 C282 1.389 . S
C286 C285 1.371 . S
C287 H276 0.970 . S
C287 H277 0.970 . S
C287 C283 1.532 . S
C287 C288 1.499 . S
C288 C287 1.499 . S
C288 C289 1.370 . S
C288 C293 1.415 . S
C289 H278 0.930 . S
C289 C288 1.370 . S
C289 C290 1.407 . S
C290 C289 1.407 . S
C290 C291 1.365 . S
C291 H279 0.930 . S
C291 C290 1.365 . S
C291 C292 1.393 . S
C292 C291 1.393 . S
C292 C293 1.387 . S
C293 H280 0.930 . S
C293 C288 1.415 . S
C293 C292 1.387 . S
H294 C302 0.930 . S
H295 C305 0.930 . S
H296 C307 0.930 . S
H297 C308 0.970 . S
H298 C308 0.970 . S
H299 C310 0.930 . S
H300 C312 0.930 . S
H301 C314 0.930 . S
C302 H294 0.930 . S
C302 C303 1.382 . S
C302 C304 1.426 . S
C303 C302 1.382 . S
C303 C307 1.389 . S
C304 C302 1.426 . S
C304 C305 1.375 . S
C304 C308 1.532 . S
C305 H295 0.930 . S
C305 C304 1.375 . S
C305 C306 1.416 . S
C306 C305 1.416 . S
C306 C307 1.371 . S
C307 H296 0.930 . S
C307 C303 1.389 . S
C307 C306 1.371 . S
C308 H297 0.970 . S
C308 H298 0.970 . S
C308 C304 1.532 . S
C308 C309 1.499 . S
C309 C308 1.499 . S
C309 C310 1.370 . S
C309 C314 1.415 . S
C310 H299 0.930 . S
C310 C309 1.370 . S
C310 C311 1.407 . S
C311 C310 1.407 . S
C311 C312 1.365 . S
C312 H300 0.930 . S
C312 C311 1.365 . S
C312 C313 1.393 . S
C313 C312 1.393 . S
C313 C314 1.387 . S
C314 H301 0.930 . S
C314 C309 1.415 . S
C314 C313 1.387 . S
H315 C323 0.930 . S
H316 C326 0.930 . S
H317 C328 0.930 . S
H318 C329 0.970 . S
H319 C329 0.970 . S
H320 C331 0.930 . S
H321 C333 0.930 . S
H322 C335 0.930 . S
C323 H315 0.930 . S
C323 C324 1.382 . S
C323 C325 1.426 . S
C324 C323 1.382 . S
C324 C328 1.389 . S
C325 C323 1.426 . S
C325 C326 1.375 . S
C325 C329 1.532 . S
C326 H316 0.930 . S
C326 C325 1.375 . S
C326 C327 1.416 . S
C327 C326 1.416 . S
C327 C328 1.371 . S
C328 H317 0.930 . S
C328 C324 1.389 . S
C328 C327 1.371 . S
C329 H318 0.970 . S
C329 H319 0.970 . S
C329 C325 1.532 . S
C329 C330 1.499 . S
C330 C329 1.499 . S
C330 C331 1.370 . S
C330 C335 1.415 . S
C331 H320 0.930 . S
C331 C330 1.370 . S
C331 C332 1.407 . S
C332 C331 1.407 . S
C332 C333 1.365 . S
C333 H321 0.930 . S
C333 C332 1.365 . S
C333 C334 1.393 . S
C334 C333 1.393 . S
C334 C335 1.387 . S
C335 H322 0.930 . S
C335 C330 1.415 . S
C335 C334 1.387 . S
H336 C344 0.930 . S
H337 C347 0.930 . S
H338 C349 0.930 . S
H339 C350 0.970 . S
H340 C350 0.970 . S
H341 C352 0.930 . S
H342 C354 0.930 . S
H343 C356 0.930 . S
C344 H336 0.930 . S
C344 C345 1.382 . S
C344 C346 1.426 . S
C345 C344 1.382 . S
C345 C349 1.389 . S
C346 C344 1.426 . S
C346 C347 1.375 . S
C346 C350 1.532 . S
C347 H337 0.930 . S
C347 C346 1.375 . S
C347 C348 1.416 . S
C348 C347 1.416 . S
C348 C349 1.371 . S
C349 H338 0.930 . S
C349 C345 1.389 . S
C349 C348 1.371 . S
C350 H339 0.970 . S
C350 H340 0.970 . S
C350 C346 1.532 . S
C350 C351 1.499 . S
C351 C350 1.499 . S
C351 C352 1.370 . S
C351 C356 1.415 . S
C352 H341 0.930 . S
C352 C351 1.370 . S
C352 C353 1.407 . S
C353 C352 1.407 . S
C353 C354 1.365 . S
C354 H342 0.930 . S
C354 C353 1.365 . S
C354 C355 1.393 . S
C355 C354 1.393 . S
C355 C356 1.387 . S
C356 H343 0.930 . S
C356 C351 1.415 . S
C356 C355 1.387 . S
H357 C365 0.930 . S
H358 C368 0.930 . S
H359 C370 0.930 . S
H360 C371 0.970 . S
H361 C371 0.970 . S
H362 C373 0.930 . S
H363 C375 0.930 . S
H364 C377 0.930 . S
C365 H357 0.930 . S
C365 C366 1.382 . S
C365 C367 1.426 . S
C366 C365 1.382 . S
C366 C370 1.389 . S
C367 C365 1.426 . S
C367 C368 1.375 . S
C367 C371 1.532 . S
C368 H358 0.930 . S
C368 C367 1.375 . S
C368 C369 1.416 . S
C369 C368 1.416 . S
C369 C370 1.371 . S
C370 H359 0.930 . S
C370 C366 1.389 . S
C370 C369 1.371 . S
C371 H360 0.970 . S
C371 H361 0.970 . S
C371 C367 1.532 . S
C371 C372 1.499 . S
C372 C371 1.499 . S
C372 C373 1.370 . S
C372 C377 1.415 . S
C373 H362 0.930 . S
C373 C372 1.370 . S
C373 C374 1.407 . S
C374 C373 1.407 . S
C374 C375 1.365 . S
C375 H363 0.930 . S
C375 C374 1.365 . S
C375 C376 1.393 . S
C376 C375 1.393 . S
C376 C377 1.387 . S
C377 H364 0.930 . S
C377 C372 1.415 . S
C377 C376 1.387 . S
H378 C386 0.930 . S
H379 C389 0.930 . S
H380 C391 0.930 . S
H381 C392 0.970 . S
H382 C392 0.970 . S
H383 C394 0.930 . S
H384 C396 0.930 . S
H385 C398 0.930 . S
C386 H378 0.930 . S
C386 C387 1.382 . S
C386 C388 1.426 . S
C387 C386 1.382 . S
C387 C391 1.389 . S
C388 C386 1.426 . S
C388 C389 1.375 . S
C388 C392 1.532 . S
C389 H379 0.930 . S
C389 C388 1.375 . S
C389 C390 1.416 . S
C390 C389 1.416 . S
C390 C391 1.371 . S
C391 H380 0.930 . S
C391 C387 1.389 . S
C391 C390 1.371 . S
C392 H381 0.970 . S
C392 H382 0.970 . S
C392 C388 1.532 . S
C392 C393 1.499 . S
C393 C392 1.499 . S
C393 C394 1.370 . S
C393 C398 1.415 . S
C394 H383 0.930 . S
C394 C393 1.370 . S
C394 C395 1.407 . S
C395 C394 1.407 . S
C395 C396 1.365 . S
C396 H384 0.930 . S
C396 C395 1.365 . S
C396 C397 1.393 . S
C397 C396 1.393 . S
C397 C398 1.387 . S
C398 H385 0.930 . S
C398 C393 1.415 . S
C398 C397 1.387 . S
H399 C407 0.930 . S
H400 C410 0.930 . S
H401 C412 0.930 . S
H402 C413 0.970 . S
H403 C413 0.970 . S
H404 C415 0.930 . S
H405 C417 0.930 . S
H406 C419 0.930 . S
C407 H399 0.930 . S
C407 C408 1.382 . S
C407 C409 1.426 . S
C408 C407 1.382 . S
C408 C412 1.389 . S
C409 C407 1.426 . S
C409 C410 1.375 . S
C409 C413 1.532 . S
C410 H400 0.930 . S
C410 C409 1.375 . S
C410 C411 1.416 . S
C411 C410 1.416 . S
C411 C412 1.371 . S
C412 H401 0.930 . S
C412 C408 1.389 . S
C412 C411 1.371 . S
C413 H402 0.970 . S
C413 H403 0.970 . S
C413 C409 1.532 . S
C413 C414 1.499 . S
C414 C413 1.499 . S
C414 C415 1.370 . S
C414 C419 1.415 . S
C415 H404 0.930 . S
C415 C414 1.370 . S
C415 C416 1.407 . S
C416 C415 1.407 . S
C416 C417 1.365 . S
C417 H405 0.930 . S
C417 C416 1.365 . S
C417 C418 1.393 . S
C418 C417 1.393 . S
C418 C419 1.387 . S
C419 H406 0.930 . S
C419 C414 1.415 . S
C419 C418 1.387 . S
H420 C428 0.930 . S
H421 C431 0.930 . S
H422 C433 0.930 . S
H423 C434 0.970 . S
H424 C434 0.970 . S
H425 C436 0.930 . S
H426 C438 0.930 . S
H427 C440 0.930 . S
C428 H420 0.930 . S
C428 C429 1.382 . S
C428 C430 1.426 . S
C429 C428 1.382 . S
C429 C433 1.389 . S
C430 C428 1.426 . S
C430 C431 1.375 . S
C430 C434 1.532 . S
C431 H421 0.930 . S
C431 C430 1.375 . S
C431 C432 1.416 . S
C432 C431 1.416 . S
C432 C433 1.371 . S
C433 H422 0.930 . S
C433 C429 1.389 . S
C433 C432 1.371 . S
C434 H423 0.970 . S
C434 H424 0.970 . S
C434 C430 1.532 . S
C434 C435 1.499 . S
C435 C434 1.499 . S
C435 C436 1.370 . S
C435 C440 1.415 . S
C436 H425 0.930 . S
C436 C435 1.370 . S
C436 C437 1.407 . S
C437 C436 1.407 . S
C437 C438 1.365 . S
C438 H426 0.930 . S
C438 C437 1.365 . S
C438 C439 1.393 . S
C439 C438 1.393 . S
C439 C440 1.387 . S
C440 H427 0.930 . S
C440 C435 1.415 . S
C440 C439 1.387 . S
H441 C449 0.930 . S
H442 C452 0.930 . S
H443 C454 0.930 . S
H444 C455 0.970 . S
H445 C455 0.970 . S
H446 C457 0.930 . S
H447 C459 0.930 . S
H448 C461 0.930 . S
C449 H441 0.930 . S
C449 C450 1.382 . S
C449 C451 1.426 . S
C450 C449 1.382 . S
C450 C454 1.389 1_455 S
C451 C449 1.426 . S
C451 C452 1.375 . S
C451 C455 1.532 . S
C452 H442 0.930 . S
C452 C451 1.375 . S
C452 C453 1.416 . S
C453 C452 1.416 . S
C453 C454 1.371 1_455 S
C454 H443 0.930 . S
C454 C450 1.389 1_655 S
C454 C453 1.371 1_655 S
C455 H444 0.970 . S
C455 H445 0.970 . S
C455 C451 1.532 . S
C455 C456 1.499 . S
C456 C455 1.499 . S
C456 C457 1.370 . S
C456 C461 1.415 . S
C457 H446 0.930 . S
C457 C456 1.370 . S
C457 C458 1.411 . S
C458 C457 1.411 . S
C458 C459 1.372 1_455 S
C459 H447 0.930 . S
C459 C458 1.372 1_655 S
C459 C460 1.393 1_655 S
C460 C459 1.393 1_455 S
C460 C461 1.387 . S
C461 H448 0.930 . S
C461 C456 1.415 . S
C461 C460 1.387 . S
H462 C470 0.930 . S
H463 C473 0.930 . S
H464 C475 0.930 . S
H465 C476 0.970 . S
H466 C476 0.970 . S
H467 C478 0.930 . S
H468 C480 0.930 . S
H469 C482 0.930 . S
C470 H462 0.930 . S
C470 C471 1.382 . S
C470 C472 1.426 . S
C471 C470 1.382 . S
C471 C475 1.389 . S
C472 C470 1.426 . S
C472 C473 1.375 . S
C472 C476 1.532 . S
C473 H463 0.930 . S
C473 C472 1.375 . S
C473 C474 1.416 . S
C474 C473 1.416 . S
C474 C475 1.371 . S
C475 H464 0.930 . S
C475 C471 1.389 . S
C475 C474 1.371 . S
C476 H465 0.970 . S
C476 H466 0.970 . S
C476 C472 1.532 . S
C476 C477 1.499 . S
C477 C476 1.499 . S
C477 C478 1.370 . S
C477 C482 1.415 . S
C478 H467 0.930 . S
C478 C477 1.370 . S
C478 C479 1.407 . S
C479 C478 1.407 . S
C479 C480 1.365 . S
C480 H468 0.930 . S
C480 C479 1.365 . S
C480 C481 1.393 . S
C481 C480 1.393 . S
C481 C482 1.387 . S
C482 H469 0.930 . S
C482 C477 1.415 . S
C482 C481 1.387 . S
H483 C491 0.930 . S
H484 C494 0.930 . S
H485 C496 0.930 . S
H486 C497 0.970 . S
H487 C497 0.970 . S
H488 C499 0.930 . S
H489 C501 0.930 . S
H490 C503 0.930 . S
C491 H483 0.930 . S
C491 C492 1.382 . S
C491 C493 1.426 . S
C492 C491 1.382 . S
C492 C496 1.389 1_565 S
C493 C491 1.426 . S
C493 C494 1.375 . S
C493 C497 1.532 . S
C494 H484 0.930 . S
C494 C493 1.375 . S
C494 C495 1.416 . S
C495 C494 1.416 . S
C495 C496 1.371 1_565 S
C496 H485 0.930 . S
C496 C492 1.389 1_545 S
C496 C495 1.371 1_545 S
C497 H486 0.970 . S
C497 H487 0.970 . S
C497 C493 1.532 . S
C497 C498 1.499 . S
C498 C497 1.499 . S
C498 C499 1.370 . S
C498 C503 1.415 . S
C499 H488 0.930 . S
C499 C498 1.370 . S
C499 C500 1.435 . S
C500 C499 1.435 . S
C500 C501 1.354 1_565 S
C501 H489 0.930 . S
C501 C500 1.354 1_545 S
C501 C502 1.393 1_545 S
C502 C501 1.393 1_565 S
C502 C503 1.387 . S
C503 H490 0.930 . S
C503 C498 1.415 . S
C503 C502 1.387 . S
H504 C512 0.930 . S
H505 C515 0.930 . S
H506 C517 0.930 . S
H507 C518 0.970 . S
H508 C518 0.970 . S
H509 C520 0.930 . S
H510 C522 0.930 . S
H511 C524 0.930 . S
C512 H504 0.930 . S
C512 C513 1.382 . S
C512 C514 1.426 . S
C513 C512 1.382 . S
C513 C517 1.389 1_565 S
C514 C512 1.426 . S
C514 C515 1.375 . S
C514 C518 1.532 . S
C515 H505 0.930 . S
C515 C514 1.375 . S
C515 C516 1.416 . S
C516 C515 1.416 . S
C516 C517 1.371 1_565 S
C517 H506 0.930 . S
C517 C513 1.389 1_545 S
C517 C516 1.371 1_545 S
C518 H507 0.970 . S
C518 H508 0.970 . S
C518 C514 1.532 . S
C518 C519 1.499 . S
C519 C518 1.499 . S
C519 C520 1.370 . S
C519 C524 1.415 . S
C520 H509 0.930 . S
C520 C519 1.370 . S
C520 C521 1.407 . S
C521 C520 1.407 . S
C521 C522 1.365 1_565 S
C522 H510 0.930 . S
C522 C521 1.365 1_545 S
C522 C523 1.393 1_545 S
C523 C522 1.393 1_565 S
C523 C524 1.387 . S
C524 H511 0.930 . S
C524 C519 1.415 . S
C524 C523 1.387 . S
H525 C533 0.930 . S
H526 C536 0.930 . S
H527 C538 0.930 . S
H528 C539 0.970 . S
H529 C539 0.970 . S
H530 C541 0.930 . S
H531 C543 0.930 . S
H532 C545 0.930 . S
C533 H525 0.930 . S
C533 C534 1.382 . S
C533 C535 1.426 . S
C534 C533 1.382 . S
C534 C538 1.389 1_455 S
C535 C533 1.426 . S
C535 C536 1.375 . S
C535 C539 1.532 . S
C536 H526 0.930 . S
C536 C535 1.375 . S
C536 C537 1.416 . S
C537 C536 1.416 . S
C537 C538 1.371 1_455 S
C538 H527 0.930 . S
C538 C534 1.389 1_655 S
C538 C537 1.371 1_655 S
C539 H528 0.970 . S
C539 H529 0.970 . S
C539 C535 1.532 . S
C539 C540 1.499 . S
C540 C539 1.499 . S
C540 C541 1.370 . S
C540 C545 1.415 . S
C541 H530 0.930 . S
C541 C540 1.370 . S
C541 C542 1.407 . S
C542 C541 1.407 . S
C542 C543 1.365 1_455 S
C543 H531 0.930 . S
C543 C542 1.365 1_655 S
C543 C544 1.393 1_655 S
C544 C543 1.393 1_455 S
C544 C545 1.387 . S
C545 H532 0.930 . S
C545 C540 1.415 . S
C545 C544 1.387 . S
H546 C554 0.930 . S
H547 C557 0.930 . S
H548 C559 0.930 . S
H549 C560 0.970 . S
H550 C560 0.970 . S
H551 C562 0.930 . S
H552 C564 0.930 . S
H553 C566 0.930 . S
C554 H546 0.930 . S
C554 C555 1.382 . S
C554 C556 1.426 . S
C555 C554 1.382 . S
C555 C559 1.389 . S
C556 C554 1.426 . S
C556 C557 1.375 . S
C556 C560 1.532 . S
C557 H547 0.930 . S
C557 C556 1.375 . S
C557 C558 1.416 . S
C558 C557 1.416 . S
C558 C559 1.371 . S
C559 H548 0.930 . S
C559 C555 1.389 . S
C559 C558 1.371 . S
C560 H549 0.970 . S
C560 H550 0.970 . S
C560 C556 1.532 . S
C560 C561 1.499 . S
C561 C560 1.499 . S
C561 C562 1.370 . S
C561 C566 1.415 . S
C562 H551 0.930 . S
C562 C561 1.370 . S
C562 C563 1.407 . S
C563 C562 1.407 . S
C563 C564 1.365 . S
C564 H552 0.930 . S
C564 C563 1.365 . S
C564 C565 1.393 . S
C565 C564 1.393 . S
C565 C566 1.387 . S
C566 H553 0.930 . S
C566 C561 1.415 . S
C566 C565 1.387 . S
H567 C575 0.930 . S
H568 C578 0.930 . S
H569 C580 0.930 . S
H570 C581 0.970 . S
H571 C581 0.970 . S
H572 C583 0.930 . S
H573 C585 0.930 . S
H574 C587 0.930 . S
C575 H567 0.930 . S
C575 C576 1.382 . S
C575 C577 1.426 . S
C576 C575 1.382 . S
C576 C580 1.389 . S
C577 C575 1.426 . S
C577 C578 1.375 . S
C577 C581 1.532 . S
C578 H568 0.930 . S
C578 C577 1.375 . S
C578 C579 1.416 . S
C579 C578 1.416 . S
C579 C580 1.371 . S
C580 H569 0.930 . S
C580 C576 1.389 . S
C580 C579 1.371 . S
C581 H570 0.970 . S
C581 H571 0.970 . S
C581 C577 1.532 . S
C581 C582 1.499 . S
C582 C581 1.499 . S
C582 C583 1.370 . S
C582 C587 1.415 . S
C583 H572 0.930 . S
C583 C582 1.370 . S
C583 C584 1.407 . S
C584 C583 1.407 . S
C584 C585 1.365 . S
C585 H573 0.930 . S
C585 C584 1.365 . S
C585 C586 1.393 . S
C586 C585 1.393 . S
C586 C587 1.387 . S
C587 H574 0.930 . S
C587 C582 1.415 . S
C587 C586 1.387 . S
H588 C596 0.930 . S
H589 C599 0.930 . S
H590 C601 0.930 . S
H591 C602 0.970 . S
H592 C602 0.970 . S
H593 C604 0.930 . S
H594 C606 0.930 . S
H595 C608 0.930 . S
C596 H588 0.930 . S
C596 C597 1.382 . S
C596 C598 1.426 . S
C597 C596 1.382 . S
C597 C601 1.389 . S
C598 C596 1.426 . S
C598 C599 1.375 . S
C598 C602 1.532 . S
C599 H589 0.930 . S
C599 C598 1.375 . S
C599 C600 1.416 . S
C600 C599 1.416 . S
C600 C601 1.371 . S
C601 H590 0.930 . S
C601 C597 1.389 . S
C601 C600 1.371 . S
C602 H591 0.970 . S
C602 H592 0.970 . S
C602 C598 1.532 . S
C602 C603 1.499 . S
C603 C602 1.499 . S
C603 C604 1.370 . S
C603 C608 1.415 . S
C604 H593 0.930 . S
C604 C603 1.370 . S
C604 C605 1.407 . S
C605 C604 1.407 . S
C605 C606 1.365 . S
C606 H594 0.930 . S
C606 C605 1.365 . S
C606 C607 1.393 . S
C607 C606 1.393 . S
C607 C608 1.387 . S
C608 H595 0.930 . S
C608 C603 1.415 . S
C608 C607 1.387 . S
H609 C617 0.930 . S
H610 C620 0.930 . S
H611 C622 0.930 . S
H612 C623 0.970 . S
H613 C623 0.970 . S
H614 C625 0.930 . S
H615 C627 0.930 . S
H616 C629 0.930 . S
C617 H609 0.930 . S
C617 C618 1.382 . S
C617 C619 1.426 . S
C618 C617 1.382 . S
C618 C622 1.389 . S
C619 C617 1.426 . S
C619 C620 1.375 . S
C619 C623 1.532 . S
C620 H610 0.930 . S
C620 C619 1.375 . S
C620 C621 1.416 . S
C621 C620 1.416 . S
C621 C622 1.371 . S
C622 H611 0.930 . S
C622 C618 1.389 . S
C622 C621 1.371 . S
C623 H612 0.970 . S
C623 H613 0.970 . S
C623 C619 1.532 . S
C623 C624 1.499 . S
C624 C623 1.499 . S
C624 C625 1.370 . S
C624 C629 1.415 . S
C625 H614 0.930 . S
C625 C624 1.370 . S
C625 C626 1.407 . S
C626 C625 1.407 . S
C626 C627 1.365 . S
C627 H615 0.930 . S
C627 C626 1.365 . S
C627 C628 1.393 . S
C628 C627 1.393 . S
C628 C629 1.387 . S
C629 H616 0.930 . S
C629 C624 1.415 . S
C629 C628 1.387 . S
H630 C642 0.930 . S
H631 C644 0.930 . S
H632 C645 0.930 . S
H633 C649 0.959 . S
H634 C649 0.959 . S
H635 C649 0.961 . S
H636 C650 0.960 . S
H637 C650 0.961 . S
H638 C650 0.959 1_455 S
H639 C653 0.929 . S
H640 C654 0.931 . S
H641 C656 0.930 . S
C642 H630 0.930 . S
C642 C643 1.399 1_655 S
C642 C647 1.399 . S
C643 C642 1.399 1_455 S
C643 C644 1.377 . S
C644 H631 0.930 . S
C644 C643 1.377 . S
C644 C645 1.388 . S
C645 H632 0.930 . S
C645 C644 1.388 . S
C645 C646 1.390 . S
C646 C645 1.390 . S
C646 C647 1.394 1_455 S
C646 C652 1.465 . S
C647 C642 1.399 . S
C647 C646 1.394 1_655 S
C647 C648 1.516 . S
C648 C647 1.516 . S
C648 C649 1.502 . S
C648 C650 1.561 . S
C648 C651 1.526 . S
C649 H633 0.959 . S
C649 H634 0.959 . S
C649 H635 0.961 . S
C649 C648 1.502 . S
C650 H636 0.960 . S
C650 H637 0.961 . S
C650 H638 0.959 1_655 S
C650 C648 1.561 . S
C651 C648 1.526 . S
C651 C652 1.396 1_655 S
C651 C656 1.390 . S
C652 C646 1.465 . S
C652 C651 1.396 1_455 S
C652 C653 1.399 . S
C653 H639 0.929 . S
C653 C652 1.399 . S
C653 C654 1.385 . S
C654 H640 0.931 . S
C654 C653 1.385 . S
C654 C655 1.389 1_455 S
C655 C654 1.389 1_655 S
C655 C656 1.387 . S
C656 H641 0.930 . S
C656 C651 1.390 . S
C656 C655 1.387 . S
H657 C669 0.930 . S
H658 C671 0.930 . S
H659 C672 0.930 . S
H660 C676 0.959 . S
H661 C676 0.959 . S
H662 C676 0.961 . S
H663 C677 0.960 . S
H664 C677 0.961 . S
H665 C677 0.959 . S
H666 C680 0.929 . S
H667 C681 0.931 . S
H668 C683 0.930 . S
C669 H657 0.930 . S
C669 C670 1.399 . S
C669 C674 1.399 . S
C670 C669 1.399 . S
C670 C671 1.376 . S
C671 H658 0.930 . S
C671 C670 1.376 . S
C671 C672 1.388 . S
C672 H659 0.930 . S
C672 C671 1.388 . S
C672 C673 1.390 . S
C673 C672 1.390 . S
C673 C674 1.394 . S
C673 C679 1.465 . S
C674 C669 1.399 . S
C674 C673 1.394 . S
C674 C675 1.516 . S
C675 C674 1.516 . S
C675 C676 1.502 . S
C675 C677 1.561 . S
C675 C678 1.526 . S
C676 H660 0.959 . S
C676 H661 0.959 . S
C676 H662 0.961 . S
C676 C675 1.502 . S
C677 H663 0.960 . S
C677 H664 0.961 . S
C677 H665 0.959 . S
C677 C675 1.561 . S
C678 C675 1.526 . S
C678 C679 1.396 . S
C678 C683 1.390 . S
C679 C673 1.465 . S
C679 C678 1.396 . S
C679 C680 1.399 . S
C680 H666 0.929 . S
C680 C679 1.399 . S
C680 C681 1.385 . S
C681 H667 0.931 . S
C681 C680 1.385 . S
C681 C682 1.389 . S
C682 C681 1.389 . S
C682 C683 1.387 . S
C683 H668 0.930 . S
C683 C678 1.390 . S
C683 C682 1.387 . S
H684 C696 0.930 . S
H685 C698 0.930 . S
H686 C699 0.930 . S
H687 C703 0.959 . S
H688 C703 0.959 . S
H689 C703 0.961 . S
H690 C704 0.960 . S
H691 C704 0.961 . S
H692 C704 0.959 . S
H693 C707 0.929 . S
H694 C708 0.931 . S
H695 C710 0.930 . S
C696 H684 0.930 . S
C696 C697 1.399 . S
C696 C701 1.399 . S
C697 C696 1.399 . S
C697 C698 1.376 1_545 S
C698 H685 0.930 . S
C698 C697 1.376 1_565 S
C698 C699 1.388 . S
C699 H686 0.930 . S
C699 C698 1.388 . S
C699 C700 1.390 . S
C700 C699 1.390 . S
C700 C701 1.394 1_565 S
C700 C706 1.465 . S
C701 C696 1.399 . S
C701 C700 1.394 1_545 S
C701 C702 1.516 . S
C702 C701 1.516 . S
C702 C703 1.502 . S
C702 C704 1.561 . S
C702 C705 1.526 . S
C703 H687 0.959 . S
C703 H688 0.959 . S
C703 H689 0.961 . S
C703 C702 1.502 . S
C704 H690 0.960 . S
C704 H691 0.961 . S
C704 H692 0.959 . S
C704 C702 1.561 . S
C705 C702 1.526 . S
C705 C706 1.396 1_545 S
C705 C710 1.390 . S
C706 C700 1.465 . S
C706 C705 1.396 1_565 S
C706 C707 1.399 . S
C707 H693 0.929 . S
C707 C706 1.399 . S
C707 C708 1.385 . S
C708 H694 0.931 . S
C708 C707 1.385 . S
C708 C709 1.389 1_565 S
C709 C708 1.389 1_545 S
C709 C710 1.387 . S
C710 H695 0.930 . S
C710 C705 1.390 . S
C710 C709 1.387 . S
H711 C723 0.930 . S
H712 C725 0.930 . S
H713 C726 0.930 . S
H714 C730 0.959 1_545 S
H715 C730 0.959 . S
H716 C730 0.961 . S
H717 C731 0.960 . S
H718 C731 0.961 . S
H719 C731 0.959 . S
H720 C734 0.929 . S
H721 C735 0.931 . S
H722 C737 0.930 . S
C723 H711 0.930 . S
C723 C724 1.379 1_565 S
C723 C728 1.399 . S
C724 C723 1.379 1_545 S
C724 C725 1.390 . S
C725 H712 0.930 . S
C725 C724 1.390 . S
C725 C726 1.388 . S
C726 H713 0.930 . S
C726 C725 1.388 . S
C726 C727 1.390 . S
C727 C726 1.390 . S
C727 C728 1.394 1_545 S
C727 C733 1.465 . S
C728 C723 1.399 . S
C728 C727 1.394 1_565 S
C728 C729 1.516 . S
C729 C728 1.516 . S
C729 C730 1.502 . S
C729 C731 1.561 . S
C729 C732 1.526 . S
C730 H714 0.959 1_565 S
C730 H715 0.959 . S
C730 H716 0.961 . S
C730 C729 1.502 . S
C731 H717 0.960 . S
C731 H718 0.961 . S
C731 H719 0.959 . S
C731 C729 1.561 . S
C732 C729 1.526 . S
C732 C733 1.396 1_565 S
C732 C737 1.390 . S
C733 C727 1.465 . S
C733 C732 1.396 1_545 S
C733 C734 1.399 . S
C734 H720 0.929 . S
C734 C733 1.399 . S
C734 C735 1.385 . S
C735 H721 0.931 . S
C735 C734 1.385 . S
C735 C736 1.389 1_545 S
C736 C735 1.389 1_565 S
C736 C737 1.387 . S
C737 H722 0.930 . S
C737 C732 1.390 . S
C737 C736 1.387 . S
H738 C750 0.930 . S
H739 C752 0.930 . S
H740 C753 0.930 . S
H741 C757 0.959 . S
H742 C757 0.959 . S
H743 C757 0.961 . S
H744 C758 0.960 . S
H745 C758 0.961 . S
H746 C758 0.959 . S
H747 C761 0.929 . S
H748 C762 0.931 . S
H749 C764 0.930 . S
C750 H738 0.930 . S
C750 C751 1.407 . S
C750 C755 1.399 . S
C751 C750 1.407 . S
C751 C752 1.343 1_455 S
C752 H739 0.930 . S
C752 C751 1.343 1_655 S
C752 C753 1.388 . S
C753 H740 0.930 . S
C753 C752 1.388 . S
C753 C754 1.390 . S
C754 C753 1.390 . S
C754 C755 1.394 1_655 S
C754 C760 1.465 . S
C755 C750 1.399 . S
C755 C754 1.394 1_455 S
C755 C756 1.516 . S
C756 C755 1.516 . S
C756 C757 1.502 . S
C756 C758 1.561 . S
C756 C759 1.526 . S
C757 H741 0.959 . S
C757 H742 0.959 . S
C757 H743 0.961 . S
C757 C756 1.502 . S
C758 H744 0.960 . S
C758 H745 0.961 . S
C758 H746 0.959 . S
C758 C756 1.561 . S
C759 C756 1.526 . S
C759 C760 1.396 1_455 S
C759 C764 1.390 . S
C760 C754 1.465 . S
C760 C759 1.396 1_655 S
C760 C761 1.399 . S
C761 H747 0.929 . S
C761 C760 1.399 . S
C761 C762 1.385 . S
C762 H748 0.931 . S
C762 C761 1.385 . S
C762 C763 1.389 1_655 S
C763 C762 1.389 1_455 S
C763 C764 1.387 . S
C764 H749 0.930 . S
C764 C759 1.390 . S
C764 C763 1.387 . S
H765 C777 0.930 . S
H766 C779 0.930 . S
H767 C780 0.930 . S
H768 C784 0.959 . S
H769 C784 0.959 . S
H770 C784 0.961 . S
H771 C785 0.960 . S
H772 C785 0.961 . S
H773 C785 0.959 . S
H774 C788 0.929 . S
H775 C789 0.931 . S
H776 C791 0.930 . S
C777 H765 0.930 . S
C777 C778 1.399 . S
C777 C782 1.399 . S
C778 C777 1.399 . S
C778 C779 1.376 . S
C779 H766 0.930 . S
C779 C778 1.376 . S
C779 C780 1.388 . S
C780 H767 0.930 . S
C780 C779 1.388 . S
C780 C781 1.390 . S
C781 C780 1.390 . S
C781 C782 1.394 . S
C781 C787 1.465 . S
C782 C777 1.399 . S
C782 C781 1.394 . S
C782 C783 1.516 . S
C783 C782 1.516 . S
C783 C784 1.502 . S
C783 C785 1.561 . S
C783 C786 1.526 . S
C784 H768 0.959 . S
C784 H769 0.959 . S
C784 H770 0.961 . S
C784 C783 1.502 . S
C785 H771 0.960 . S
C785 H772 0.961 . S
C785 H773 0.959 . S
C785 C783 1.561 . S
C786 C783 1.526 . S
C786 C787 1.396 . S
C786 C791 1.390 . S
C787 C781 1.465 . S
C787 C786 1.396 . S
C787 C788 1.399 . S
C788 H774 0.929 . S
C788 C787 1.399 . S
C788 C789 1.385 . S
C789 H775 0.931 . S
C789 C788 1.385 . S
C789 C790 1.389 . S
C790 C789 1.389 . S
C790 C791 1.387 . S
C791 H776 0.930 . S
C791 C786 1.390 . S
C791 C790 1.387 . S
H792 C804 0.930 . S
H793 C806 0.930 . S
H794 C807 0.930 . S
H795 C811 0.959 1_655 S
H796 C811 0.959 . S
H797 C811 0.961 . S
H798 C812 0.960 . S
H799 C812 0.961 . S
H800 C812 0.959 . S
H801 C815 0.929 . S
H802 C816 0.931 . S
H803 C818 0.930 . S
C804 H792 0.930 . S
C804 C805 1.399 . S
C804 C809 1.399 . S
C805 C804 1.399 . S
C805 C806 1.376 1_455 S
C806 H793 0.930 . S
C806 C805 1.376 1_655 S
C806 C807 1.388 . S
C807 H794 0.930 . S
C807 C806 1.388 . S
C807 C808 1.390 . S
C808 C807 1.390 . S
C808 C809 1.394 1_655 S
C808 C814 1.465 . S
C809 C804 1.399 . S
C809 C808 1.394 1_455 S
C809 C810 1.516 . S
C810 C809 1.516 . S
C810 C811 1.502 . S
C810 C812 1.561 . S
C810 C813 1.526 . S
C811 H795 0.959 1_455 S
C811 H796 0.959 . S
C811 H797 0.961 . S
C811 C810 1.502 . S
C812 H798 0.960 . S
C812 H799 0.961 . S
C812 H800 0.959 . S
C812 C810 1.561 . S
C813 C810 1.526 . S
C813 C814 1.396 1_455 S
C813 C818 1.390 . S
C814 C808 1.465 . S
C814 C813 1.396 1_655 S
C814 C815 1.399 . S
C815 H801 0.929 . S
C815 C814 1.399 . S
C815 C816 1.385 . S
C816 H802 0.931 . S
C816 C815 1.385 . S
C816 C817 1.398 . S
C817 C816 1.398 . S
C817 C818 1.389 1_655 S
C818 H803 0.930 . S
C818 C813 1.390 . S
C818 C817 1.389 1_455 S
H819 C831 0.930 . S
H820 C833 0.930 . S
H821 C834 0.930 . S
H822 C838 0.959 . S
H823 C838 0.959 . S
H824 C838 0.961 . S
H825 C839 0.960 . S
H826 C839 0.961 . S
H827 C839 0.959 . S
H828 C842 0.929 . S
H829 C843 0.931 . S
H830 C845 0.930 . S
C831 H819 0.930 . S
C831 C832 1.399 . S
C831 C836 1.399 . S
C832 C831 1.399 . S
C832 C833 1.376 . S
C833 H820 0.930 . S
C833 C832 1.376 . S
C833 C834 1.388 . S
C834 H821 0.930 . S
C834 C833 1.388 . S
C834 C835 1.390 . S
C835 C834 1.390 . S
C835 C836 1.394 . S
C835 C841 1.465 . S
C836 C831 1.399 . S
C836 C835 1.394 . S
C836 C837 1.516 . S
C837 C836 1.516 . S
C837 C838 1.502 . S
C837 C839 1.561 . S
C837 C840 1.526 . S
C838 H822 0.959 . S
C838 H823 0.959 . S
C838 H824 0.961 . S
C838 C837 1.502 . S
C839 H825 0.960 . S
C839 H826 0.961 . S
C839 H827 0.959 . S
C839 C837 1.561 . S
C840 C837 1.526 . S
C840 C841 1.396 . S
C840 C845 1.390 . S
C841 C835 1.465 . S
C841 C840 1.396 . S
C841 C842 1.399 . S
C842 H828 0.929 . S
C842 C841 1.399 . S
C842 C843 1.385 . S
C843 H829 0.931 . S
C843 C842 1.385 . S
C843 C844 1.389 . S
C844 C843 1.389 . S
C844 C845 1.387 . S
C845 H830 0.930 . S
C845 C840 1.390 . S
C845 C844 1.387 . S
H846 C858 0.930 . S
H847 C860 0.930 . S
H848 C861 0.930 . S
H849 C865 0.959 . S
H850 C865 0.959 . S
H851 C865 0.961 . S
H852 C866 0.960 . S
H853 C866 0.961 . S
H854 C866 0.959 . S
H855 C869 0.929 . S
H856 C870 0.931 . S
H857 C872 0.930 . S
C858 H846 0.930 . S
C858 C859 1.408 . S
C858 C863 1.399 . S
C859 C858 1.408 . S
C859 C860 1.354 1_565 S
C860 H847 0.930 . S
C860 C859 1.354 1_545 S
C860 C861 1.388 . S
C861 H848 0.930 . S
C861 C860 1.388 . S
C861 C862 1.390 . S
C862 C861 1.390 . S
C862 C863 1.394 1_545 S
C862 C868 1.465 . S
C863 C858 1.399 . S
C863 C862 1.394 1_565 S
C863 C864 1.516 . S
C864 C863 1.516 . S
C864 C865 1.502 . S
C864 C866 1.561 . S
C864 C867 1.526 . S
C865 H849 0.959 . S
C865 H850 0.959 . S
C865 H851 0.961 . S
C865 C864 1.502 . S
C866 H852 0.960 . S
C866 H853 0.961 . S
C866 H854 0.959 . S
C866 C864 1.561 . S
C867 C864 1.526 . S
C867 C868 1.396 1_565 S
C867 C872 1.390 . S
C868 C862 1.465 . S
C868 C867 1.396 1_545 S
C868 C869 1.399 . S
C869 H855 0.929 . S
C869 C868 1.399 . S
C869 C870 1.385 . S
C870 H856 0.931 . S
C870 C869 1.385 . S
C870 C871 1.435 . S
C871 C870 1.435 . S
C871 C872 1.324 1_545 S
C872 H857 0.930 . S
C872 C867 1.390 . S
C872 C871 1.324 1_565 S
H873 C885 0.930 . S
H874 C887 0.930 . S
H875 C888 0.930 . S
H876 C892 0.959 . S
H877 C892 0.959 . S
H878 C892 0.961 . S
H879 C893 0.960 . S
H880 C893 0.961 . S
H881 C893 0.959 . S
H882 C896 0.929 . S
H883 C897 0.931 . S
H884 C899 0.930 . S
C885 H873 0.930 . S
C885 C886 1.399 1_565 S
C885 C890 1.399 . S
C886 C885 1.399 1_545 S
C886 C887 1.376 . S
C887 H874 0.930 . S
C887 C886 1.376 . S
C887 C888 1.388 . S
C888 H875 0.930 . S
C888 C887 1.388 . S
C888 C889 1.390 . S
C889 C888 1.390 . S
C889 C890 1.394 1_545 S
C889 C895 1.465 . S
C890 C885 1.399 . S
C890 C889 1.394 1_565 S
C890 C891 1.516 . S
C891 C890 1.516 . S
C891 C892 1.502 . S
C891 C893 1.561 . S
C891 C894 1.526 . S
C892 H876 0.959 . S
C892 H877 0.959 . S
C892 H878 0.961 . S
C892 C891 1.502 . S
C893 H879 0.960 . S
C893 H880 0.961 . S
C893 H881 0.959 . S
C893 C891 1.561 . S
C894 C891 1.526 . S
C894 C895 1.396 1_565 S
C894 C899 1.390 . S
C895 C889 1.465 . S
C895 C894 1.396 1_545 S
C895 C896 1.399 . S
C896 H882 0.929 . S
C896 C895 1.399 . S
C896 C897 1.385 . S
C897 H883 0.931 . S
C897 C896 1.385 . S
C897 C898 1.389 . S
C898 C897 1.389 . S
C898 C899 1.387 1_545 S
C899 H884 0.930 . S
C899 C894 1.390 . S
C899 C898 1.387 1_565 S
H900 C912 0.930 . S
H901 C914 0.930 . S
H902 C915 0.930 . S
H903 C919 0.959 . S
H904 C919 0.959 . S
H905 C919 0.961 . S
H906 C920 0.960 . S
H907 C920 0.961 . S
H908 C920 0.959 . S
H909 C923 0.929 . S
H910 C924 0.931 . S
H911 C926 0.930 . S
C912 H900 0.930 . S
C912 C913 1.399 1_455 S
C912 C917 1.399 . S
C913 C912 1.399 1_655 S
C913 C914 1.376 . S
C914 H901 0.930 . S
C914 C913 1.376 . S
C914 C915 1.388 . S
C915 H902 0.930 . S
C915 C914 1.388 . S
C915 C916 1.390 . S
C916 C915 1.390 . S
C916 C917 1.394 1_655 S
C916 C922 1.465 . S
C917 C912 1.399 . S
C917 C916 1.394 1_455 S
C917 C918 1.516 . S
C918 C917 1.516 . S
C918 C919 1.502 . S
C918 C920 1.561 . S
C918 C921 1.526 . S
C919 H903 0.959 . S
C919 H904 0.959 . S
C919 H905 0.961 . S
C919 C918 1.502 . S
C920 H906 0.960 . S
C920 H907 0.961 . S
C920 H908 0.959 . S
C920 C918 1.561 . S
C921 C918 1.526 . S
C921 C922 1.396 1_455 S
C921 C926 1.390 . S
C922 C916 1.465 . S
C922 C921 1.396 1_655 S
C922 C923 1.399 . S
C923 H909 0.929 . S
C923 C922 1.399 . S
C923 C924 1.385 . S
C924 H910 0.931 . S
C924 C923 1.385 . S
C924 C925 1.389 . S
C925 C924 1.389 . S
C925 C926 1.387 1_655 S
C926 H911 0.930 . S
C926 C921 1.390 . S
C926 C925 1.387 1_455 S
H927 C939 0.930 . S
H928 C941 0.930 . S
H929 C942 0.930 . S
H930 C946 0.959 . S
H931 C946 0.959 . S
H932 C946 0.961 . S
H933 C947 0.960 . S
H934 C947 0.961 . S
H935 C947 0.959 . S
H936 C950 0.929 . S
H937 C951 0.931 . S
H938 C953 0.930 . S
C939 H927 0.930 . S
C939 C940 1.399 . S
C939 C944 1.399 . S
C940 C939 1.399 . S
C940 C941 1.376 . S
C941 H928 0.930 . S
C941 C940 1.376 . S
C941 C942 1.388 . S
C942 H929 0.930 . S
C942 C941 1.388 . S
C942 C943 1.390 . S
C943 C942 1.390 . S
C943 C944 1.394 . S
C943 C949 1.465 . S
C944 C939 1.399 . S
C944 C943 1.394 . S
C944 C945 1.516 . S
C945 C944 1.516 . S
C945 C946 1.502 . S
C945 C947 1.561 . S
C945 C948 1.526 . S
C946 H930 0.959 . S
C946 H931 0.959 . S
C946 H932 0.961 . S
C946 C945 1.502 . S
C947 H933 0.960 . S
C947 H934 0.961 . S
C947 H935 0.959 . S
C947 C945 1.561 . S
C948 C945 1.526 . S
C948 C949 1.396 . S
C948 C953 1.390 . S
C949 C943 1.465 . S
C949 C948 1.396 . S
C949 C950 1.399 . S
C950 H936 0.929 . S
C950 C949 1.399 . S
C950 C951 1.385 . S
C951 H937 0.931 . S
C951 C950 1.385 . S
C951 C952 1.389 . S
C952 C951 1.389 . S
C952 C953 1.387 . S
C953 H938 0.930 . S
C953 C948 1.390 . S
C953 C952 1.387 . S
H954 C966 0.930 . S
H955 C968 0.930 . S
H956 C969 0.930 . S
H957 C973 0.959 . S
H958 C973 0.959 . S
H959 C973 0.961 . S
H960 C974 0.960 . S
H961 C974 0.961 . S
H962 C974 0.959 . S
H963 C977 0.929 . S
H964 C978 0.931 . S
H965 C980 0.930 . S
C966 H954 0.930 . S
C966 C967 1.399 . S
C966 C971 1.399 . S
C967 C966 1.399 . S
C967 C968 1.376 . S
C968 H955 0.930 . S
C968 C967 1.376 . S
C968 C969 1.388 . S
C969 H956 0.930 . S
C969 C968 1.388 . S
C969 C970 1.390 . S
C970 C969 1.390 . S
C970 C971 1.394 . S
C970 C976 1.465 . S
C971 C966 1.399 . S
C971 C970 1.394 . S
C971 C972 1.516 . S
C972 C971 1.516 . S
C972 C973 1.502 . S
C972 C974 1.561 . S
C972 C975 1.526 . S
C973 H957 0.959 . S
C973 H958 0.959 . S
C973 H959 0.961 . S
C973 C972 1.502 . S
C974 H960 0.960 . S
C974 H961 0.961 . S
C974 H962 0.959 . S
C974 C972 1.561 . S
C975 C972 1.526 . S
C975 C976 1.396 . S
C975 C980 1.390 . S
C976 C970 1.465 . S
C976 C975 1.396 . S
C976 C977 1.399 . S
C977 H963 0.929 . S
C977 C976 1.399 . S
C977 C978 1.385 . S
C978 H964 0.931 . S
C978 C977 1.385 . S
C978 C979 1.389 . S
C979 C978 1.389 . S
C979 C980 1.387 . S
C980 H965 0.930 . S
C980 C975 1.390 . S
C980 C979 1.387 . S
H981 C993 0.930 . S
H982 C995 0.930 . S
H983 C996 0.930 . S
H984 C1000 0.959 . S
H985 C1000 0.959 . S
H986 C1000 0.961 . S
H987 C1001 0.960 . S
H988 C1001 0.961 . S
H989 C1001 0.959 . S
H990 C1004 0.929 . S
H991 C1005 0.931 . S
H992 C1007 0.930 . S
C993 H981 0.930 . S
C993 C994 1.399 . S
C993 C998 1.399 . S
C994 C993 1.399 . S
C994 C995 1.376 . S
C995 H982 0.930 . S
C995 C994 1.376 . S
C995 C996 1.388 . S
C996 H983 0.930 . S
C996 C995 1.388 . S
C996 C997 1.390 . S
C997 C996 1.390 . S
C997 C998 1.394 . S
C997 C1003 1.465 . S
C998 C993 1.399 . S
C998 C997 1.394 . S
C998 C999 1.516 . S
C999 C998 1.516 . S
C999 C1000 1.502 . S
C999 C1001 1.561 . S
C999 C1002 1.526 . S
C1000 H984 0.959 . S
C1000 H985 0.959 . S
C1000 H986 0.961 . S
C1000 C999 1.502 . S
C1001 H987 0.960 . S
C1001 H988 0.961 . S
C1001 H989 0.959 . S
C1001 C999 1.561 . S
C1002 C999 1.526 . S
C1002 C1003 1.396 . S
C1002 C1007 1.390 . S
C1003 C997 1.465 . S
C1003 C1002 1.396 . S
C1003 C1004 1.399 . S
C1004 H990 0.929 . S
C1004 C1003 1.399 . S
C1004 C1005 1.385 . S
C1005 H991 0.931 . S
C1005 C1004 1.385 . S
C1005 C1006 1.389 . S
C1006 C1005 1.389 . S
C1006 C1007 1.387 . S
C1007 H992 0.930 . S
C1007 C1002 1.390 . S
C1007 C1006 1.387 . S
H1008 C1020 0.930 . S
H1009 C1022 0.930 . S
H1010 C1023 0.930 . S
H1011 C1027 0.959 . S
H1012 C1027 0.959 . S
H1013 C1027 0.961 . S
H1014 C1028 0.960 . S
H1015 C1028 0.961 . S
H1016 C1028 0.959 . S
H1017 C1031 0.929 . S
H1018 C1032 0.931 . S
H1019 C1034 0.930 . S
C1020 H1008 0.930 . S
C1020 C1021 1.399 . S
C1020 C1025 1.399 . S
C1021 C1020 1.399 . S
C1021 C1022 1.376 . S
C1022 H1009 0.930 . S
C1022 C1021 1.376 . S
C1022 C1023 1.388 . S
C1023 H1010 0.930 . S
C1023 C1022 1.388 . S
C1023 C1024 1.390 . S
C1024 C1023 1.390 . S
C1024 C1025 1.394 . S
C1024 C1030 1.465 . S
C1025 C1020 1.399 . S
C1025 C1024 1.394 . S
C1025 C1026 1.516 . S
C1026 C1025 1.516 . S
C1026 C1027 1.502 . S
C1026 C1028 1.561 . S
C1026 C1029 1.526 . S
C1027 H1011 0.959 . S
C1027 H1012 0.959 . S
C1027 H1013 0.961 . S
C1027 C1026 1.502 . S
C1028 H1014 0.960 . S
C1028 H1015 0.961 . S
C1028 H1016 0.959 . S
C1028 C1026 1.561 . S
C1029 C1026 1.526 . S
C1029 C1030 1.396 . S
C1029 C1034 1.390 . S
C1030 C1024 1.465 . S
C1030 C1029 1.396 . S
C1030 C1031 1.399 . S
C1031 H1017 0.929 . S
C1031 C1030 1.399 . S
C1031 C1032 1.385 . S
C1032 H1018 0.931 . S
C1032 C1031 1.385 . S
C1032 C1033 1.389 . S
C1033 C1032 1.389 . S
C1033 C1034 1.387 . S
C1034 H1019 0.930 . S
C1034 C1029 1.390 . S
C1034 C1033 1.387 . S
H1035 C1047 0.930 . S
H1036 C1049 0.930 . S
H1037 C1050 0.930 . S
H1038 C1054 0.959 . S
H1039 C1054 0.959 . S
H1040 C1054 0.961 . S
H1041 C1055 0.960 . S
H1042 C1055 0.961 . S
H1043 C1055 0.959 . S
H1044 C1058 0.929 . S
H1045 C1059 0.931 . S
H1046 C1061 0.930 . S
C1047 H1035 0.930 . S
C1047 C1048 1.399 . S
C1047 C1052 1.399 . S
C1048 C1047 1.399 . S
C1048 C1049 1.376 . S
C1049 H1036 0.930 . S
C1049 C1048 1.376 . S
C1049 C1050 1.388 . S
C1050 H1037 0.930 . S
C1050 C1049 1.388 . S
C1050 C1051 1.390 . S
C1051 C1050 1.390 . S
C1051 C1052 1.394 . S
C1051 C1057 1.465 . S
C1052 C1047 1.399 . S
C1052 C1051 1.394 . S
C1052 C1053 1.516 . S
C1053 C1052 1.516 . S
C1053 C1054 1.502 . S
C1053 C1055 1.561 . S
C1053 C1056 1.526 . S
C1054 H1038 0.959 . S
C1054 H1039 0.959 . S
C1054 H1040 0.961 . S
C1054 C1053 1.502 . S
C1055 H1041 0.960 . S
C1055 H1042 0.961 . S
C1055 H1043 0.959 . S
C1055 C1053 1.561 . S
C1056 C1053 1.526 . S
C1056 C1057 1.396 . S
C1056 C1061 1.390 . S
C1057 C1051 1.465 . S
C1057 C1056 1.396 . S
C1057 C1058 1.399 . S
C1058 H1044 0.929 . S
C1058 C1057 1.399 . S
C1058 C1059 1.385 . S
C1059 H1045 0.931 . S
C1059 C1058 1.385 . S
C1059 C1060 1.389 . S
C1060 C1059 1.389 . S
C1060 C1061 1.387 . S
C1061 H1046 0.930 . S
C1061 C1056 1.390 . S
C1061 C1060 1.387 . S
H1062 C1074 0.930 . S
H1063 C1076 0.930 . S
H1064 C1077 0.930 . S
H1065 C1081 0.959 . S
H1066 C1081 0.959 . S
H1067 C1081 0.961 . S
H1068 C1082 0.960 . S
H1069 C1082 0.961 . S
H1070 C1082 0.959 . S
H1071 C1085 0.929 . S
H1072 C1086 0.931 . S
H1073 C1088 0.930 . S
C1074 H1062 0.930 . S
C1074 C1075 1.399 . S
C1074 C1079 1.399 . S
C1075 C1074 1.399 . S
C1075 C1076 1.376 . S
C1076 H1063 0.930 . S
C1076 C1075 1.376 . S
C1076 C1077 1.388 . S
C1077 H1064 0.930 . S
C1077 C1076 1.388 . S
C1077 C1078 1.390 . S
C1078 C1077 1.390 . S
C1078 C1079 1.394 . S
C1078 C1084 1.465 . S
C1079 C1074 1.399 . S
C1079 C1078 1.394 . S
C1079 C1080 1.516 . S
C1080 C1079 1.516 . S
C1080 C1081 1.502 . S
C1080 C1082 1.561 . S
C1080 C1083 1.526 . S
C1081 H1065 0.959 . S
C1081 H1066 0.959 . S
C1081 H1067 0.961 . S
C1081 C1080 1.502 . S
C1082 H1068 0.960 . S
C1082 H1069 0.961 . S
C1082 H1070 0.959 . S
C1082 C1080 1.561 . S
C1083 C1080 1.526 . S
C1083 C1084 1.396 . S
C1083 C1088 1.390 . S
C1084 C1078 1.465 . S
C1084 C1083 1.396 . S
C1084 C1085 1.399 . S
C1085 H1071 0.929 . S
C1085 C1084 1.399 . S
C1085 C1086 1.385 . S
C1086 H1072 0.931 . S
C1086 C1085 1.385 . S
C1086 C1087 1.389 . S
C1087 C1086 1.389 . S
C1087 C1088 1.387 . S
C1088 H1073 0.930 . S
C1088 C1083 1.390 . S
C1088 C1087 1.387 . S
H1089 C1101 0.930 . S
H1090 C1103 0.930 . S
H1091 C1104 0.930 . S
H1092 C1108 0.959 . S
H1093 C1108 0.959 . S
H1094 C1108 0.961 . S
H1095 C1109 0.960 . S
H1096 C1109 0.961 . S
H1097 C1109 0.959 . S
H1098 C1112 0.929 . S
H1099 C1113 0.931 . S
H1100 C1115 0.930 . S
C1101 H1089 0.930 . S
C1101 C1102 1.399 . S
C1101 C1106 1.399 . S
C1102 C1101 1.399 . S
C1102 C1103 1.376 . S
C1103 H1090 0.930 . S
C1103 C1102 1.376 . S
C1103 C1104 1.388 . S
C1104 H1091 0.930 . S
C1104 C1103 1.388 . S
C1104 C1105 1.390 . S
C1105 C1104 1.390 . S
C1105 C1106 1.394 . S
C1105 C1111 1.465 . S
C1106 C1101 1.399 . S
C1106 C1105 1.394 . S
C1106 C1107 1.516 . S
C1107 C1106 1.516 . S
C1107 C1108 1.502 . S
C1107 C1109 1.561 . S
C1107 C1110 1.526 . S
C1108 H1092 0.959 . S
C1108 H1093 0.959 . S
C1108 H1094 0.961 . S
C1108 C1107 1.502 . S
C1109 H1095 0.960 . S
C1109 H1096 0.961 . S
C1109 H1097 0.959 . S
C1109 C1107 1.561 . S
C1110 C1107 1.526 . S
C1110 C1111 1.396 . S
C1110 C1115 1.390 . S
C1111 C1105 1.465 . S
C1111 C1110 1.396 . S
C1111 C1112 1.399 . S
C1112 H1098 0.929 . S
C1112 C1111 1.399 . S
C1112 C1113 1.385 . S
C1113 H1099 0.931 . S
C1113 C1112 1.385 . S
C1113 C1114 1.389 . S
C1114 C1113 1.389 . S
C1114 C1115 1.387 . S
C1115 H1100 0.930 . S
C1115 C1110 1.390 . S
C1115 C1114 1.387 . S
H1116 C1128 0.930 . S
H1117 C1130 0.930 . S
H1118 C1131 0.930 . S
H1119 C1135 0.959 . S
H1120 C1135 0.959 . S
H1121 C1135 0.961 . S
H1122 C1136 0.960 . S
H1123 C1136 0.961 . S
H1124 C1136 0.959 . S
H1125 C1139 0.929 . S
H1126 C1140 0.931 . S
H1127 C1142 0.930 . S
C1128 H1116 0.930 . S
C1128 C1129 1.399 . S
C1128 C1133 1.399 . S
C1129 C1128 1.399 . S
C1129 C1130 1.376 . S
C1130 H1117 0.930 . S
C1130 C1129 1.376 . S
C1130 C1131 1.388 . S
C1131 H1118 0.930 . S
C1131 C1130 1.388 . S
C1131 C1132 1.390 . S
C1132 C1131 1.390 . S
C1132 C1133 1.394 . S
C1132 C1138 1.465 . S
C1133 C1128 1.399 . S
C1133 C1132 1.394 . S
C1133 C1134 1.516 . S
C1134 C1133 1.516 . S
C1134 C1135 1.502 . S
C1134 C1136 1.561 . S
C1134 C1137 1.526 . S
C1135 H1119 0.959 . S
C1135 H1120 0.959 . S
C1135 H1121 0.961 . S
C1135 C1134 1.502 . S
C1136 H1122 0.960 . S
C1136 H1123 0.961 . S
C1136 H1124 0.959 . S
C1136 C1134 1.561 . S
C1137 C1134 1.526 . S
C1137 C1138 1.396 . S
C1137 C1142 1.390 . S
C1138 C1132 1.465 . S
C1138 C1137 1.396 . S
C1138 C1139 1.399 . S
C1139 H1125 0.929 . S
C1139 C1138 1.399 . S
C1139 C1140 1.385 . S
C1140 H1126 0.931 . S
C1140 C1139 1.385 . S
C1140 C1141 1.389 . S
C1141 C1140 1.389 . S
C1141 C1142 1.387 . S
C1142 H1127 0.930 . S
C1142 C1137 1.390 . S
C1142 C1141 1.387 . S
H1143 C1155 0.930 . S
H1144 C1157 0.930 . S
H1145 C1158 0.930 . S
H1146 C1162 0.959 . S
H1147 C1162 0.959 . S
H1148 C1162 0.961 . S
H1149 C1163 0.960 . S
H1150 C1163 0.961 . S
H1151 C1163 0.959 . S
H1152 C1166 0.929 . S
H1153 C1167 0.931 . S
H1154 C1169 0.930 . S
C1155 H1143 0.930 . S
C1155 C1156 1.399 . S
C1155 C1160 1.399 . S
C1156 C1155 1.399 . S
C1156 C1157 1.376 . S
C1157 H1144 0.930 . S
C1157 C1156 1.376 . S
C1157 C1158 1.388 . S
C1158 H1145 0.930 . S
C1158 C1157 1.388 . S
C1158 C1159 1.390 . S
C1159 C1158 1.390 . S
C1159 C1160 1.394 . S
C1159 C1165 1.465 . S
C1160 C1155 1.399 . S
C1160 C1159 1.394 . S
C1160 C1161 1.516 . S
C1161 C1160 1.516 . S
C1161 C1162 1.502 . S
C1161 C1163 1.561 . S
C1161 C1164 1.526 . S
C1162 H1146 0.959 . S
C1162 H1147 0.959 . S
C1162 H1148 0.961 . S
C1162 C1161 1.502 . S
C1163 H1149 0.960 . S
C1163 H1150 0.961 . S
C1163 H1151 0.959 . S
C1163 C1161 1.561 . S
C1164 C1161 1.526 . S
C1164 C1165 1.396 . S
C1164 C1169 1.390 . S
C1165 C1159 1.465 . S
C1165 C1164 1.396 . S
C1165 C1166 1.399 . S
C1166 H1152 0.929 . S
C1166 C1165 1.399 . S
C1166 C1167 1.385 . S
C1167 H1153 0.931 . S
C1167 C1166 1.385 . S
C1167 C1168 1.389 . S
C1168 C1167 1.389 . S
C1168 C1169 1.387 . S
C1169 H1154 0.930 . S
C1169 C1164 1.390 . S
C1169 C1168 1.387 . S
H1170 C1182 0.930 . S
H1171 C1184 0.930 . S
H1172 C1185 0.930 . S
H1173 C1189 0.959 . S
H1174 C1189 0.959 . S
H1175 C1189 0.961 . S
H1176 C1190 0.960 . S
H1177 C1190 0.961 . S
H1178 C1190 0.959 . S
H1179 C1193 0.929 . S
H1180 C1194 0.931 . S
H1181 C1196 0.930 . S
C1182 H1170 0.930 . S
C1182 C1183 1.399 . S
C1182 C1187 1.399 . S
C1183 C1182 1.399 . S
C1183 C1184 1.376 . S
C1184 H1171 0.930 . S
C1184 C1183 1.376 . S
C1184 C1185 1.388 . S
C1185 H1172 0.930 . S
C1185 C1184 1.388 . S
C1185 C1186 1.390 . S
C1186 C1185 1.390 . S
C1186 C1187 1.394 . S
C1186 C1192 1.465 . S
C1187 C1182 1.399 . S
C1187 C1186 1.394 . S
C1187 C1188 1.516 . S
C1188 C1187 1.516 . S
C1188 C1189 1.502 . S
C1188 C1190 1.561 . S
C1188 C1191 1.526 . S
C1189 H1173 0.959 . S
C1189 H1174 0.959 . S
C1189 H1175 0.961 . S
C1189 C1188 1.502 . S
C1190 H1176 0.960 . S
C1190 H1177 0.961 . S
C1190 H1178 0.959 . S
C1190 C1188 1.561 . S
C1191 C1188 1.526 . S
C1191 C1192 1.396 . S
C1191 C1196 1.390 . S
C1192 C1186 1.465 . S
C1192 C1191 1.396 . S
C1192 C1193 1.399 . S
C1193 H1179 0.929 . S
C1193 C1192 1.399 . S
C1193 C1194 1.385 . S
C1194 H1180 0.931 . S
C1194 C1193 1.385 . S
C1194 C1195 1.389 . S
C1195 C1194 1.389 . S
C1195 C1196 1.387 . S
C1196 H1181 0.930 . S
C1196 C1191 1.390 . S
C1196 C1195 1.387 . S
H1197 C1209 0.930 . S
H1198 C1211 0.930 . S
H1199 C1212 0.930 . S
H1200 C1216 0.959 . S
H1201 C1216 0.959 . S
H1202 C1216 0.961 . S
H1203 C1217 0.960 . S
H1204 C1217 0.961 . S
H1205 C1217 0.959 . S
H1206 C1220 0.929 . S
H1207 C1221 0.931 . S
H1208 C1223 0.930 . S
C1209 H1197 0.930 . S
C1209 C1210 1.399 . S
C1209 C1214 1.399 . S
C1210 C1209 1.399 . S
C1210 C1211 1.376 . S
C1211 H1198 0.930 . S
C1211 C1210 1.376 . S
C1211 C1212 1.388 . S
C1212 H1199 0.930 . S
C1212 C1211 1.388 . S
C1212 C1213 1.390 . S
C1213 C1212 1.390 . S
C1213 C1214 1.394 . S
C1213 C1219 1.465 . S
C1214 C1209 1.399 . S
C1214 C1213 1.394 . S
C1214 C1215 1.516 . S
C1215 C1214 1.516 . S
C1215 C1216 1.502 . S
C1215 C1217 1.561 . S
C1215 C1218 1.526 . S
C1216 H1200 0.959 . S
C1216 H1201 0.959 . S
C1216 H1202 0.961 . S
C1216 C1215 1.502 . S
C1217 H1203 0.960 . S
C1217 H1204 0.961 . S
C1217 H1205 0.959 . S
C1217 C1215 1.561 . S
C1218 C1215 1.526 . S
C1218 C1219 1.396 . S
C1218 C1223 1.390 . S
C1219 C1213 1.465 . S
C1219 C1218 1.396 . S
C1219 C1220 1.399 . S
C1220 H1206 0.929 . S
C1220 C1219 1.399 . S
C1220 C1221 1.385 . S
C1221 H1207 0.931 . S
C1221 C1220 1.385 . S
C1221 C1222 1.389 . S
C1222 C1221 1.389 . S
C1222 C1223 1.387 . S
C1223 H1208 0.930 . S
C1223 C1218 1.390 . S
C1223 C1222 1.387 . S
H1224 C1236 0.930 . S
H1225 C1238 0.930 . S
H1226 C1239 0.930 . S
H1227 C1243 0.959 . S
H1228 C1243 0.959 . S
H1229 C1243 0.961 . S
H1230 C1244 0.960 . S
H1231 C1244 0.961 . S
H1232 C1244 0.959 . S
H1233 C1247 0.929 . S
H1234 C1248 0.931 . S
H1235 C1250 0.930 . S
C1236 H1224 0.930 . S
C1236 C1237 1.399 . S
C1236 C1241 1.399 . S
C1237 C1236 1.399 . S
C1237 C1238 1.376 . S
C1238 H1225 0.930 . S
C1238 C1237 1.376 . S
C1238 C1239 1.388 . S
C1239 H1226 0.930 . S
C1239 C1238 1.388 . S
C1239 C1240 1.390 . S
C1240 C1239 1.390 . S
C1240 C1241 1.394 . S
C1240 C1246 1.465 . S
C1241 C1236 1.399 . S
C1241 C1240 1.394 . S
C1241 C1242 1.516 . S
C1242 C1241 1.516 . S
C1242 C1243 1.502 . S
C1242 C1244 1.561 . S
C1242 C1245 1.526 . S
C1243 H1227 0.959 . S
C1243 H1228 0.959 . S
C1243 H1229 0.961 . S
C1243 C1242 1.502 . S
C1244 H1230 0.960 . S
C1244 H1231 0.961 . S
C1244 H1232 0.959 . S
C1244 C1242 1.561 . S
C1245 C1242 1.526 . S
C1245 C1246 1.396 . S
C1245 C1250 1.390 . S
C1246 C1240 1.465 . S
C1246 C1245 1.396 . S
C1246 C1247 1.399 . S
C1247 H1233 0.929 . S
C1247 C1246 1.399 . S
C1247 C1248 1.385 . S
C1248 H1234 0.931 . S
C1248 C1247 1.385 . S
C1248 C1249 1.389 . S
C1249 C1248 1.389 . S
C1249 C1250 1.387 . S
C1250 H1235 0.930 . S
C1250 C1245 1.390 . S
C1250 C1249 1.387 . S
H1251 C1263 0.930 . S
H1252 C1265 0.930 . S
H1253 C1266 0.930 . S
H1254 C1270 0.959 . S
H1255 C1270 0.959 . S
H1256 C1270 0.961 . S
H1257 C1271 0.960 . S
H1258 C1271 0.961 . S
H1259 C1271 0.959 . S
H1260 C1274 0.929 . S
H1261 C1275 0.931 . S
H1262 C1277 0.930 . S
C1263 H1251 0.930 . S
C1263 C1264 1.399 . S
C1263 C1268 1.399 . S
C1264 C1263 1.399 . S
C1264 C1265 1.376 . S
C1265 H1252 0.930 . S
C1265 C1264 1.376 . S
C1265 C1266 1.388 . S
C1266 H1253 0.930 . S
C1266 C1265 1.388 . S
C1266 C1267 1.390 . S
C1267 C1266 1.390 . S
C1267 C1268 1.394 . S
C1267 C1273 1.465 . S
C1268 C1263 1.399 . S
C1268 C1267 1.394 . S
C1268 C1269 1.516 . S
C1269 C1268 1.516 . S
C1269 C1270 1.502 . S
C1269 C1271 1.561 . S
C1269 C1272 1.526 . S
C1270 H1254 0.959 . S
C1270 H1255 0.959 . S
C1270 H1256 0.961 . S
C1270 C1269 1.502 . S
C1271 H1257 0.960 . S
C1271 H1258 0.961 . S
C1271 H1259 0.959 . S
C1271 C1269 1.561 . S
C1272 C1269 1.526 . S
C1272 C1273 1.396 . S
C1272 C1277 1.390 . S
C1273 C1267 1.465 . S
C1273 C1272 1.396 . S
C1273 C1274 1.399 . S
C1274 H1260 0.929 . S
C1274 C1273 1.399 . S
C1274 C1275 1.385 . S
C1275 H1261 0.931 . S
C1275 C1274 1.385 . S
C1275 C1276 1.389 . S
C1276 C1275 1.389 . S
C1276 C1277 1.387 . S
C1277 H1262 0.930 . S
C1277 C1272 1.390 . S
C1277 C1276 1.387 . S
H1278 C1290 0.930 . S
H1279 C1292 0.930 . S
H1280 C1293 0.930 . S
H1281 C1297 0.959 . S
H1282 C1297 0.959 . S
H1283 C1297 0.961 . S
H1284 C1298 0.960 . S
H1285 C1298 0.961 . S
H1286 C1298 0.959 . S
H1287 C1301 0.929 . S
H1288 C1302 0.931 . S
H1289 C1304 0.930 . S
C1290 H1278 0.930 . S
C1290 C1291 1.399 . S
C1290 C1295 1.399 . S
C1291 C1290 1.399 . S
C1291 C1292 1.376 . S
C1292 H1279 0.930 . S
C1292 C1291 1.376 . S
C1292 C1293 1.388 . S
C1293 H1280 0.930 . S
C1293 C1292 1.388 . S
C1293 C1294 1.390 . S
C1294 C1293 1.390 . S
C1294 C1295 1.394 . S
C1294 C1300 1.465 . S
C1295 C1290 1.399 . S
C1295 C1294 1.394 . S
C1295 C1296 1.516 . S
C1296 C1295 1.516 . S
C1296 C1297 1.502 . S
C1296 C1298 1.561 . S
C1296 C1299 1.526 . S
C1297 H1281 0.959 . S
C1297 H1282 0.959 . S
C1297 H1283 0.961 . S
C1297 C1296 1.502 . S
C1298 H1284 0.960 . S
C1298 H1285 0.961 . S
C1298 H1286 0.959 . S
C1298 C1296 1.561 . S
C1299 C1296 1.526 . S
C1299 C1300 1.396 . S
C1299 C1304 1.390 . S
C1300 C1294 1.465 . S
C1300 C1299 1.396 . S
C1300 C1301 1.399 . S
C1301 H1287 0.929 . S
C1301 C1300 1.399 . S
C1301 C1302 1.385 . S
C1302 H1288 0.931 . S
C1302 C1301 1.385 . S
C1302 C1303 1.389 . S
C1303 C1302 1.389 . S
C1303 C1304 1.387 . S
C1304 H1289 0.930 . S
C1304 C1299 1.390 . S
C1304 C1303 1.387 . S
H1305 C1317 0.930 . S
H1306 C1319 0.930 . S
H1307 C1320 0.930 . S
H1308 C1324 0.959 . S
H1309 C1324 0.959 . S
H1310 C1324 0.961 . S
H1311 C1325 0.960 . S
H1312 C1325 0.961 . S
H1313 C1325 0.959 . S
H1314 C1328 0.929 . S
H1315 C1329 0.931 . S
H1316 C1331 0.930 . S
C1317 H1305 0.930 . S
C1317 C1318 1.399 . S
C1317 C1322 1.399 . S
C1318 C1317 1.399 . S
C1318 C1319 1.376 . S
C1319 H1306 0.930 . S
C1319 C1318 1.376 . S
C1319 C1320 1.388 . S
C1320 H1307 0.930 . S
C1320 C1319 1.388 . S
C1320 C1321 1.390 . S
C1321 C1320 1.390 . S
C1321 C1322 1.394 . S
C1321 C1327 1.465 . S
C1322 C1317 1.399 . S
C1322 C1321 1.394 . S
C1322 C1323 1.516 . S
C1323 C1322 1.516 . S
C1323 C1324 1.502 . S
C1323 C1325 1.561 . S
C1323 C1326 1.526 . S
C1324 H1308 0.959 . S
C1324 H1309 0.959 . S
C1324 H1310 0.961 . S
C1324 C1323 1.502 . S
C1325 H1311 0.960 . S
C1325 H1312 0.961 . S
C1325 H1313 0.959 . S
C1325 C1323 1.561 . S
C1326 C1323 1.526 . S
C1326 C1327 1.396 . S
C1326 C1331 1.390 . S
C1327 C1321 1.465 . S
C1327 C1326 1.396 . S
C1327 C1328 1.399 . S
C1328 H1314 0.929 . S
C1328 C1327 1.399 . S
C1328 C1329 1.385 . S
C1329 H1315 0.931 . S
C1329 C1328 1.385 . S
C1329 C1330 1.389 . S
C1330 C1329 1.389 . S
C1330 C1331 1.387 . S
C1331 H1316 0.930 . S
C1331 C1326 1.390 . S
C1331 C1330 1.387 . S
H1332 C1344 0.930 . S
H1333 C1346 0.930 . S
H1334 C1347 0.930 . S
H1335 C1351 0.959 . S
H1336 C1351 0.959 . S
H1337 C1351 0.961 . S
H1338 C1352 0.960 . S
H1339 C1352 0.961 . S
H1340 C1352 0.959 . S
H1341 C1355 0.929 . S
H1342 C1356 0.931 . S
H1343 C1358 0.930 . S
C1344 H1332 0.930 . S
C1344 C1345 1.399 . S
C1344 C1349 1.399 . S
C1345 C1344 1.399 . S
C1345 C1346 1.376 . S
C1346 H1333 0.930 . S
C1346 C1345 1.376 . S
C1346 C1347 1.388 . S
C1347 H1334 0.930 . S
C1347 C1346 1.388 . S
C1347 C1348 1.390 . S
C1348 C1347 1.390 . S
C1348 C1349 1.394 . S
C1348 C1354 1.465 . S
C1349 C1344 1.399 . S
C1349 C1348 1.394 . S
C1349 C1350 1.516 . S
C1350 C1349 1.516 . S
C1350 C1351 1.502 . S
C1350 C1352 1.561 . S
C1350 C1353 1.526 . S
C1351 H1335 0.959 . S
C1351 H1336 0.959 . S
C1351 H1337 0.961 . S
C1351 C1350 1.502 . S
C1352 H1338 0.960 . S
C1352 H1339 0.961 . S
C1352 H1340 0.959 . S
C1352 C1350 1.561 . S
C1353 C1350 1.526 . S
C1353 C1354 1.396 . S
C1353 C1358 1.390 . S
C1354 C1348 1.465 . S
C1354 C1353 1.396 . S
C1354 C1355 1.399 . S
C1355 H1341 0.929 . S
C1355 C1354 1.399 . S
C1355 C1356 1.385 . S
C1356 H1342 0.931 . S
C1356 C1355 1.385 . S
C1356 C1357 1.389 . S
C1357 C1356 1.389 . S
C1357 C1358 1.387 . S
C1358 H1343 0.930 . S
C1358 C1353 1.390 . S
C1358 C1357 1.387 . S
H1359 C1371 0.930 . S
H1360 C1373 0.930 . S
H1361 C1374 0.930 . S
H1362 C1378 0.959 . S
H1363 C1378 0.959 . S
H1364 C1378 0.961 . S
H1365 C1379 0.960 . S
H1366 C1379 0.961 . S
H1367 C1379 0.959 . S
H1368 C1382 0.929 . S
H1369 C1383 0.931 . S
H1370 C1385 0.930 . S
C1371 H1359 0.930 . S
C1371 C1372 1.399 . S
C1371 C1376 1.399 . S
C1372 C1371 1.399 . S
C1372 C1373 1.376 . S
C1373 H1360 0.930 . S
C1373 C1372 1.376 . S
C1373 C1374 1.388 . S
C1374 H1361 0.930 . S
C1374 C1373 1.388 . S
C1374 C1375 1.390 . S
C1375 C1374 1.390 . S
C1375 C1376 1.394 . S
C1375 C1381 1.465 . S
C1376 C1371 1.399 . S
C1376 C1375 1.394 . S
C1376 C1377 1.516 . S
C1377 C1376 1.516 . S
C1377 C1378 1.502 . S
C1377 C1379 1.561 . S
C1377 C1380 1.526 . S
C1378 H1362 0.959 . S
C1378 H1363 0.959 . S
C1378 H1364 0.961 . S
C1378 C1377 1.502 . S
C1379 H1365 0.960 . S
C1379 H1366 0.961 . S
C1379 H1367 0.959 . S
C1379 C1377 1.561 . S
C1380 C1377 1.526 . S
C1380 C1381 1.396 . S
C1380 C1385 1.390 . S
C1381 C1375 1.465 . S
C1381 C1380 1.396 . S
C1381 C1382 1.399 . S
C1382 H1368 0.929 . S
C1382 C1381 1.399 . S
C1382 C1383 1.385 . S
C1383 H1369 0.931 . S
C1383 C1382 1.385 . S
C1383 C1384 1.389 . S
C1384 C1383 1.389 . S
C1384 C1385 1.387 . S
C1385 H1370 0.930 . S
C1385 C1380 1.390 . S
C1385 C1384 1.387 . S
H1386 C1398 0.930 . S
H1387 C1400 0.930 . S
H1388 C1401 0.930 . S
H1389 C1405 0.959 . S
H1390 C1405 0.959 . S
H1391 C1405 0.961 . S
H1392 C1406 0.960 . S
H1393 C1406 0.961 . S
H1394 C1406 0.959 . S
H1395 C1409 0.929 . S
H1396 C1410 0.931 . S
H1397 C1412 0.930 . S
C1398 H1386 0.930 . S
C1398 C1399 1.399 . S
C1398 C1403 1.399 . S
C1399 C1398 1.399 . S
C1399 C1400 1.376 . S
C1400 H1387 0.930 . S
C1400 C1399 1.376 . S
C1400 C1401 1.388 . S
C1401 H1388 0.930 . S
C1401 C1400 1.388 . S
C1401 C1402 1.390 . S
C1402 C1401 1.390 . S
C1402 C1403 1.394 . S
C1402 C1408 1.465 . S
C1403 C1398 1.399 . S
C1403 C1402 1.394 . S
C1403 C1404 1.516 . S
C1404 C1403 1.516 . S
C1404 C1405 1.502 . S
C1404 C1406 1.561 . S
C1404 C1407 1.526 . S
C1405 H1389 0.959 . S
C1405 H1390 0.959 . S
C1405 H1391 0.961 . S
C1405 C1404 1.502 . S
C1406 H1392 0.960 . S
C1406 H1393 0.961 . S
C1406 H1394 0.959 . S
C1406 C1404 1.561 . S
C1407 C1404 1.526 . S
C1407 C1408 1.396 . S
C1407 C1412 1.390 . S
C1408 C1402 1.465 . S
C1408 C1407 1.396 . S
C1408 C1409 1.399 . S
C1409 H1395 0.929 . S
C1409 C1408 1.399 . S
C1409 C1410 1.385 . S
C1410 H1396 0.931 . S
C1410 C1409 1.385 . S
C1410 C1411 1.389 . S
C1411 C1410 1.389 . S
C1411 C1412 1.387 . S
C1412 H1397 0.930 . S
C1412 C1407 1.390 . S
C1412 C1411 1.387 . S
H1413 C1425 0.930 . S
H1414 C1427 0.930 . S
H1415 C1428 0.930 . S
H1416 C1432 0.959 . S
H1417 C1432 0.959 . S
H1418 C1432 0.961 . S
H1419 C1433 0.960 . S
H1420 C1433 0.961 . S
H1421 C1433 0.959 . S
H1422 C1436 0.929 . S
H1423 C1437 0.931 . S
H1424 C1439 0.930 . S
C1425 H1413 0.930 . S
C1425 C1426 1.399 . S
C1425 C1430 1.399 . S
C1426 C1425 1.399 . S
C1426 C1427 1.376 . S
C1427 H1414 0.930 . S
C1427 C1426 1.376 . S
C1427 C1428 1.388 . S
C1428 H1415 0.930 . S
C1428 C1427 1.388 . S
C1428 C1429 1.390 . S
C1429 C1428 1.390 . S
C1429 C1430 1.394 . S
C1429 C1435 1.465 . S
C1430 C1425 1.399 . S
C1430 C1429 1.394 . S
C1430 C1431 1.516 . S
C1431 C1430 1.516 . S
C1431 C1432 1.502 . S
C1431 C1433 1.561 . S
C1431 C1434 1.526 . S
C1432 H1416 0.959 . S
C1432 H1417 0.959 . S
C1432 H1418 0.961 . S
C1432 C1431 1.502 . S
C1433 H1419 0.960 . S
C1433 H1420 0.961 . S
C1433 H1421 0.959 . S
C1433 C1431 1.561 . S
C1434 C1431 1.526 . S
C1434 C1435 1.396 . S
C1434 C1439 1.390 . S
C1435 C1429 1.465 . S
C1435 C1434 1.396 . S
C1435 C1436 1.399 . S
C1436 H1422 0.929 . S
C1436 C1435 1.399 . S
C1436 C1437 1.385 . S
C1437 H1423 0.931 . S
C1437 C1436 1.385 . S
C1437 C1438 1.389 . S
C1438 C1437 1.389 . S
C1438 C1439 1.387 . S
C1439 H1424 0.930 . S
C1439 C1434 1.390 . S
C1439 C1438 1.387 . S
H1440 C1452 0.930 . S
H1441 C1454 0.930 . S
H1442 C1455 0.930 . S
H1443 C1459 0.959 . S
H1444 C1459 0.959 . S
H1445 C1459 0.961 . S
H1446 C1460 0.960 . S
H1447 C1460 0.961 . S
H1448 C1460 0.959 . S
H1449 C1463 0.929 . S
H1450 C1464 0.931 . S
H1451 C1466 0.930 . S
C1452 H1440 0.930 . S
C1452 C1453 1.399 . S
C1452 C1457 1.399 . S
C1453 C1452 1.399 . S
C1453 C1454 1.376 . S
C1454 H1441 0.930 . S
C1454 C1453 1.376 . S
C1454 C1455 1.388 . S
C1455 H1442 0.930 . S
C1455 C1454 1.388 . S
C1455 C1456 1.390 . S
C1456 C1455 1.390 . S
C1456 C1457 1.394 . S
C1456 C1462 1.465 . S
C1457 C1452 1.399 . S
C1457 C1456 1.394 . S
C1457 C1458 1.516 . S
C1458 C1457 1.516 . S
C1458 C1459 1.502 . S
C1458 C1460 1.561 . S
C1458 C1461 1.526 . S
C1459 H1443 0.959 . S
C1459 H1444 0.959 . S
C1459 H1445 0.961 . S
C1459 C1458 1.502 . S
C1460 H1446 0.960 . S
C1460 H1447 0.961 . S
C1460 H1448 0.959 . S
C1460 C1458 1.561 . S
C1461 C1458 1.526 . S
C1461 C1462 1.396 . S
C1461 C1466 1.390 . S
C1462 C1456 1.465 . S
C1462 C1461 1.396 . S
C1462 C1463 1.399 . S
C1463 H1449 0.929 . S
C1463 C1462 1.399 . S
C1463 C1464 1.385 . S
C1464 H1450 0.931 . S
C1464 C1463 1.385 . S
C1464 C1465 1.389 . S
C1465 C1464 1.389 . S
C1465 C1466 1.387 . S
C1466 H1451 0.930 . S
C1466 C1461 1.390 . S
C1466 C1465 1.387 . S
H1467 C1479 0.930 . S
H1468 C1481 0.930 . S
H1469 C1482 0.930 . S
H1470 C1486 0.959 . S
H1471 C1486 0.959 . S
H1472 C1486 0.961 . S
H1473 C1487 0.960 . S
H1474 C1487 0.961 . S
H1475 C1487 0.959 . S
H1476 C1490 0.929 . S
H1477 C1491 0.931 . S
H1478 C1493 0.930 . S
C1479 H1467 0.930 . S
C1479 C1480 1.399 . S
C1479 C1484 1.399 . S
C1480 C1479 1.399 . S
C1480 C1481 1.376 . S
C1481 H1468 0.930 . S
C1481 C1480 1.376 . S
C1481 C1482 1.388 . S
C1482 H1469 0.930 . S
C1482 C1481 1.388 . S
C1482 C1483 1.390 . S
C1483 C1482 1.390 . S
C1483 C1484 1.394 . S
C1483 C1489 1.465 . S
C1484 C1479 1.399 . S
C1484 C1483 1.394 . S
C1484 C1485 1.516 . S
C1485 C1484 1.516 . S
C1485 C1486 1.502 . S
C1485 C1487 1.561 . S
C1485 C1488 1.526 . S
C1486 H1470 0.959 . S
C1486 H1471 0.959 . S
C1486 H1472 0.961 . S
C1486 C1485 1.502 . S
C1487 H1473 0.960 . S
C1487 H1474 0.961 . S
C1487 H1475 0.959 . S
C1487 C1485 1.561 . S
C1488 C1485 1.526 . S
C1488 C1489 1.396 . S
C1488 C1493 1.390 . S
C1489 C1483 1.465 . S
C1489 C1488 1.396 . S
C1489 C1490 1.399 . S
C1490 H1476 0.929 . S
C1490 C1489 1.399 . S
C1490 C1491 1.385 . S
C1491 H1477 0.931 . S
C1491 C1490 1.385 . S
C1491 C1492 1.389 . S
C1492 C1491 1.389 . S
C1492 C1493 1.387 . S
C1493 H1478 0.930 . S
C1493 C1488 1.390 . S
C1493 C1492 1.387 . S
H1494 C1506 0.930 . S
H1495 C1508 0.930 . S
H1496 C1509 0.930 . S
H1497 C1513 0.959 . S
H1498 C1513 0.959 . S
H1499 C1513 0.961 . S
H1500 C1514 0.960 . S
H1501 C1514 0.961 . S
H1502 C1514 0.959 . S
H1503 C1517 0.929 . S
H1504 C1518 0.931 . S
H1505 C1520 0.930 . S
C1506 H1494 0.930 . S
C1506 C1507 1.399 . S
C1506 C1511 1.399 . S
C1507 C1506 1.399 . S
C1507 C1508 1.376 . S
C1508 H1495 0.930 . S
C1508 C1507 1.376 . S
C1508 C1509 1.388 . S
C1509 H1496 0.930 . S
C1509 C1508 1.388 . S
C1509 C1510 1.390 . S
C1510 C1509 1.390 . S
C1510 C1511 1.394 . S
C1510 C1516 1.465 . S
C1511 C1506 1.399 . S
C1511 C1510 1.394 . S
C1511 C1512 1.516 . S
C1512 C1511 1.516 . S
C1512 C1513 1.502 . S
C1512 C1514 1.561 . S
C1512 C1515 1.526 . S
C1513 H1497 0.959 . S
C1513 H1498 0.959 . S
C1513 H1499 0.961 . S
C1513 C1512 1.502 . S
C1514 H1500 0.960 . S
C1514 H1501 0.961 . S
C1514 H1502 0.959 . S
C1514 C1512 1.561 . S
C1515 C1512 1.526 . S
C1515 C1516 1.396 . S
C1515 C1520 1.390 . S
C1516 C1510 1.465 . S
C1516 C1515 1.396 . S
C1516 C1517 1.399 . S
C1517 H1503 0.929 . S
C1517 C1516 1.399 . S
C1517 C1518 1.385 . S
C1518 H1504 0.931 . S
C1518 C1517 1.385 . S
C1518 C1519 1.389 . S
C1519 C1518 1.389 . S
C1519 C1520 1.387 . S
C1520 H1505 0.930 . S
C1520 C1515 1.390 . S
C1520 C1519 1.387 . S
H1521 C1533 0.930 . S
H1522 C1535 0.930 . S
H1523 C1536 0.930 . S
H1524 C1540 0.959 . S
H1525 C1540 0.959 . S
H1526 C1540 0.961 . S
H1527 C1541 0.960 . S
H1528 C1541 0.961 . S
H1529 C1541 0.959 . S
H1530 C1544 0.929 . S
H1531 C1545 0.931 . S
H1532 C1547 0.930 . S
C1533 H1521 0.930 . S
C1533 C1534 1.399 . S
C1533 C1538 1.399 . S
C1534 C1533 1.399 . S
C1534 C1535 1.376 . S
C1535 H1522 0.930 . S
C1535 C1534 1.376 . S
C1535 C1536 1.388 . S
C1536 H1523 0.930 . S
C1536 C1535 1.388 . S
C1536 C1537 1.390 . S
C1537 C1536 1.390 . S
C1537 C1538 1.394 . S
C1537 C1543 1.465 . S
C1538 C1533 1.399 . S
C1538 C1537 1.394 . S
C1538 C1539 1.516 . S
C1539 C1538 1.516 . S
C1539 C1540 1.502 . S
C1539 C1541 1.561 . S
C1539 C1542 1.526 . S
C1540 H1524 0.959 . S
C1540 H1525 0.959 . S
C1540 H1526 0.961 . S
C1540 C1539 1.502 . S
C1541 H1527 0.960 . S
C1541 H1528 0.961 . S
C1541 H1529 0.959 . S
C1541 C1539 1.561 . S
C1542 C1539 1.526 . S
C1542 C1543 1.396 . S
C1542 C1547 1.390 . S
C1543 C1537 1.465 . S
C1543 C1542 1.396 . S
C1543 C1544 1.399 . S
C1544 H1530 0.929 . S
C1544 C1543 1.399 . S
C1544 C1545 1.385 . S
C1545 H1531 0.931 . S
C1545 C1544 1.385 . S
C1545 C1546 1.389 . S
C1546 C1545 1.389 . S
C1546 C1547 1.387 . S
C1547 H1532 0.930 . S
C1547 C1542 1.390 . S
C1547 C1546 1.387 . S
H1548 C1560 0.930 . S
H1549 C1562 0.930 . S
H1550 C1563 0.930 . S
H1551 C1567 0.959 . S
H1552 C1567 0.959 . S
H1553 C1567 0.961 . S
H1554 C1568 0.960 . S
H1555 C1568 0.961 . S
H1556 C1568 0.959 . S
H1557 C1571 0.929 . S
H1558 C1572 0.931 . S
H1559 C1574 0.930 . S
C1560 H1548 0.930 . S
C1560 C1561 1.399 . S
C1560 C1565 1.399 . S
C1561 C1560 1.399 . S
C1561 C1562 1.376 . S
C1562 H1549 0.930 . S
C1562 C1561 1.376 . S
C1562 C1563 1.388 . S
C1563 H1550 0.930 . S
C1563 C1562 1.388 . S
C1563 C1564 1.390 . S
C1564 C1563 1.390 . S
C1564 C1565 1.394 . S
C1564 C1570 1.465 . S
C1565 C1560 1.399 . S
C1565 C1564 1.394 . S
C1565 C1566 1.516 . S
C1566 C1565 1.516 . S
C1566 C1567 1.502 . S
C1566 C1568 1.561 . S
C1566 C1569 1.526 . S
C1567 H1551 0.959 . S
C1567 H1552 0.959 . S
C1567 H1553 0.961 . S
C1567 C1566 1.502 . S
C1568 H1554 0.960 . S
C1568 H1555 0.961 . S
C1568 H1556 0.959 . S
C1568 C1566 1.561 . S
C1569 C1566 1.526 . S
C1569 C1570 1.396 . S
C1569 C1574 1.390 . S
C1570 C1564 1.465 . S
C1570 C1569 1.396 . S
C1570 C1571 1.399 . S
C1571 H1557 0.929 . S
C1571 C1570 1.399 . S
C1571 C1572 1.385 . S
C1572 H1558 0.931 . S
C1572 C1571 1.385 . S
C1572 C1573 1.389 . S
C1573 C1572 1.389 . S
C1573 C1574 1.387 . S
C1574 H1559 0.930 . S
C1574 C1569 1.390 . S
C1574 C1573 1.387 . S
H1575 C1587 0.930 . S
H1576 C1589 0.930 . S
H1577 C1590 0.930 . S
H1578 C1594 0.959 . S
H1579 C1594 0.959 . S
H1580 C1594 0.961 . S
H1581 C1595 0.960 . S
H1582 C1595 0.961 . S
H1583 C1595 0.959 . S
H1584 C1598 0.929 . S
H1585 C1599 0.931 . S
H1586 C1601 0.930 . S
C1587 H1575 0.930 . S
C1587 C1588 1.399 . S
C1587 C1592 1.399 . S
C1588 C1587 1.399 . S
C1588 C1589 1.376 . S
C1589 H1576 0.930 . S
C1589 C1588 1.376 . S
C1589 C1590 1.388 . S
C1590 H1577 0.930 . S
C1590 C1589 1.388 . S
C1590 C1591 1.390 . S
C1591 C1590 1.390 . S
C1591 C1592 1.394 . S
C1591 C1597 1.465 . S
C1592 C1587 1.399 . S
C1592 C1591 1.394 . S
C1592 C1593 1.516 . S
C1593 C1592 1.516 . S
C1593 C1594 1.502 . S
C1593 C1595 1.561 . S
C1593 C1596 1.526 . S
C1594 H1578 0.959 . S
C1594 H1579 0.959 . S
C1594 H1580 0.961 . S
C1594 C1593 1.502 . S
C1595 H1581 0.960 . S
C1595 H1582 0.961 . S
C1595 H1583 0.959 . S
C1595 C1593 1.561 . S
C1596 C1593 1.526 . S
C1596 C1597 1.396 . S
C1596 C1601 1.390 . S
C1597 C1591 1.465 . S
C1597 C1596 1.396 . S
C1597 C1598 1.399 . S
C1598 H1584 0.929 . S
C1598 C1597 1.399 . S
C1598 C1599 1.385 . S
C1599 H1585 0.931 . S
C1599 C1598 1.385 . S
C1599 C1600 1.389 . S
C1600 C1599 1.389 . S
C1600 C1601 1.387 . S
C1601 H1586 0.930 . S
C1601 C1596 1.390 . S
C1601 C1600 1.387 . S
H1602 C1614 0.930 . S
H1603 C1616 0.930 . S
H1604 C1617 0.930 . S
H1605 C1621 0.959 . S
H1606 C1621 0.959 . S
H1607 C1621 0.961 . S
H1608 C1622 0.960 . S
H1609 C1622 0.961 . S
H1610 C1622 0.959 . S
H1611 C1625 0.929 . S
H1612 C1626 0.931 . S
H1613 C1628 0.930 . S
C1614 H1602 0.930 . S
C1614 C1615 1.399 . S
C1614 C1619 1.399 . S
C1615 C1614 1.399 . S
C1615 C1616 1.376 . S
C1616 H1603 0.930 . S
C1616 C1615 1.376 . S
C1616 C1617 1.388 . S
C1617 H1604 0.930 . S
C1617 C1616 1.388 . S
C1617 C1618 1.390 . S
C1618 C1617 1.390 . S
C1618 C1619 1.394 . S
C1618 C1624 1.465 . S
C1619 C1614 1.399 . S
C1619 C1618 1.394 . S
C1619 C1620 1.516 . S
C1620 C1619 1.516 . S
C1620 C1621 1.502 . S
C1620 C1622 1.561 . S
C1620 C1623 1.526 . S
C1621 H1605 0.959 . S
C1621 H1606 0.959 . S
C1621 H1607 0.961 . S
C1621 C1620 1.502 . S
C1622 H1608 0.960 . S
C1622 H1609 0.961 . S
C1622 H1610 0.959 . S
C1622 C1620 1.561 . S
C1623 C1620 1.526 . S
C1623 C1624 1.396 . S
C1623 C1628 1.390 . S
C1624 C1618 1.465 . S
C1624 C1623 1.396 . S
C1624 C1625 1.399 . S
C1625 H1611 0.929 . S
C1625 C1624 1.399 . S
C1625 C1626 1.385 . S
C1626 H1612 0.931 . S
C1626 C1625 1.385 . S
C1626 C1627 1.389 . S
C1627 C1626 1.389 . S
C1627 C1628 1.387 . S
C1628 H1613 0.930 . S
C1628 C1623 1.390 . S
C1628 C1627 1.387 . S
H1629 C1641 0.930 . S
H1630 C1643 0.930 . S
H1631 C1644 0.930 . S
H1632 C1648 0.959 . S
H1633 C1648 0.959 . S
H1634 C1648 0.961 . S
H1635 C1649 0.960 . S
H1636 C1649 0.961 . S
H1637 C1649 0.959 . S
H1638 C1652 0.929 . S
H1639 C1653 0.931 . S
H1640 C1655 0.930 . S
C1641 H1629 0.930 . S
C1641 C1642 1.399 . S
C1641 C1646 1.399 . S
C1642 C1641 1.399 . S
C1642 C1643 1.376 . S
C1643 H1630 0.930 . S
C1643 C1642 1.376 . S
C1643 C1644 1.388 . S
C1644 H1631 0.930 . S
C1644 C1643 1.388 . S
C1644 C1645 1.390 . S
C1645 C1644 1.390 . S
C1645 C1646 1.394 . S
C1645 C1651 1.465 . S
C1646 C1641 1.399 . S
C1646 C1645 1.394 . S
C1646 C1647 1.516 . S
C1647 C1646 1.516 . S
C1647 C1648 1.502 . S
C1647 C1649 1.561 . S
C1647 C1650 1.526 . S
C1648 H1632 0.959 . S
C1648 H1633 0.959 . S
C1648 H1634 0.961 . S
C1648 C1647 1.502 . S
C1649 H1635 0.960 . S
C1649 H1636 0.961 . S
C1649 H1637 0.959 . S
C1649 C1647 1.561 . S
C1650 C1647 1.526 . S
C1650 C1651 1.396 . S
C1650 C1655 1.390 . S
C1651 C1645 1.465 . S
C1651 C1650 1.396 . S
C1651 C1652 1.399 . S
C1652 H1638 0.929 . S
C1652 C1651 1.399 . S
C1652 C1653 1.385 . S
C1653 H1639 0.931 . S
C1653 C1652 1.385 . S
C1653 C1654 1.389 . S
C1654 C1653 1.389 . S
C1654 C1655 1.387 . S
C1655 H1640 0.930 . S
C1655 C1650 1.390 . S
C1655 C1654 1.387 . S
H1656 C1668 0.930 . S
H1657 C1670 0.930 . S
H1658 C1671 0.930 . S
H1659 C1675 0.959 . S
H1660 C1675 0.959 . S
H1661 C1675 0.961 . S
H1662 C1676 0.960 . S
H1663 C1676 0.961 . S
H1664 C1676 0.959 . S
H1665 C1679 0.929 . S
H1666 C1680 0.931 . S
H1667 C1682 0.930 . S
C1668 H1656 0.930 . S
C1668 C1669 1.399 . S
C1668 C1673 1.399 . S
C1669 C1668 1.399 . S
C1669 C1670 1.376 . S
C1670 H1657 0.930 . S
C1670 C1669 1.376 . S
C1670 C1671 1.388 . S
C1671 H1658 0.930 . S
C1671 C1670 1.388 . S
C1671 C1672 1.390 . S
C1672 C1671 1.390 . S
C1672 C1673 1.394 . S
C1672 C1678 1.465 . S
C1673 C1668 1.399 . S
C1673 C1672 1.394 . S
C1673 C1674 1.516 . S
C1674 C1673 1.516 . S
C1674 C1675 1.502 . S
C1674 C1676 1.561 . S
C1674 C1677 1.526 . S
C1675 H1659 0.959 . S
C1675 H1660 0.959 . S
C1675 H1661 0.961 . S
C1675 C1674 1.502 . S
C1676 H1662 0.960 . S
C1676 H1663 0.961 . S
C1676 H1664 0.959 . S
C1676 C1674 1.561 . S
C1677 C1674 1.526 . S
C1677 C1678 1.396 . S
C1677 C1682 1.390 . S
C1678 C1672 1.465 . S
C1678 C1677 1.396 . S
C1678 C1679 1.399 . S
C1679 H1665 0.929 . S
C1679 C1678 1.399 . S
C1679 C1680 1.385 . S
C1680 H1666 0.931 . S
C1680 C1679 1.385 . S
C1680 C1681 1.389 . S
C1681 C1680 1.389 . S
C1681 C1682 1.387 . S
C1682 H1667 0.930 . S
C1682 C1677 1.390 . S
C1682 C1681 1.387 . S
H1683 C1695 0.930 1_554 S
H1684 C1697 0.930 . S
H1685 C1698 0.930 . S
H1686 C1702 0.965 . S
H1687 C1702 0.957 1_554 S
H1688 C1702 0.952 1_554 S
H1689 C1703 0.960 1_554 S
H1690 C1703 0.961 1_554 S
H1691 C1703 0.959 . S
H1692 C1706 0.929 . S
H1693 C1707 0.931 . S
H1694 C1709 0.930 . S
C1695 H1683 0.930 1_556 S
C1695 C1696 1.399 . S
C1695 C1700 1.399 . S
C1696 C1695 1.399 . S
C1696 C1697 1.376 . S
C1697 H1684 0.930 . S
C1697 C1696 1.376 . S
C1697 C1698 1.388 . S
C1698 H1685 0.930 . S
C1698 C1697 1.388 . S
C1698 C1699 1.390 . S
C1699 C1698 1.390 . S
C1699 C1700 1.394 . S
C1699 C1705 1.465 . S
C1700 C1695 1.399 . S
C1700 C1699 1.394 . S
C1700 C1701 1.516 . S
C1701 C1700 1.516 . S
C1701 C1702 1.508 . S
C1701 C1703 1.561 . S
C1701 C1704 1.526 . S
C1702 H1686 0.965 . S
C1702 H1687 0.957 1_556 S
C1702 H1688 0.952 1_556 S
C1702 C1701 1.508 . S
C1703 H1689 0.960 1_556 S
C1703 H1690 0.961 1_556 S
C1703 H1691 0.959 . S
C1703 C1701 1.561 . S
C1704 C1701 1.526 . S
C1704 C1705 1.396 . S
C1704 C1709 1.390 . S
C1705 C1699 1.465 . S
C1705 C1704 1.396 . S
C1705 C1706 1.399 . S
C1706 H1692 0.929 . S
C1706 C1705 1.399 . S
C1706 C1707 1.385 . S
C1707 H1693 0.931 . S
C1707 C1706 1.385 . S
C1707 C1708 1.389 . S
C1708 C1707 1.389 . S
C1708 C1709 1.387 . S
C1709 H1694 0.930 . S
C1709 C1704 1.390 . S
C1709 C1708 1.387 . S
H1710 C1722 0.928 1_554 S
H1711 C1724 0.930 . S
H1712 C1725 0.930 . S
H1713 C1729 0.959 . S
H1714 C1729 0.959 . S
H1715 C1729 0.961 . S
H1716 C1730 0.960 . S
H1717 C1730 0.961 . S
H1718 C1730 0.959 . S
H1719 C1733 0.929 . S
H1720 C1734 0.931 . S
H1721 C1736 0.930 . S
C1722 H1710 0.928 1_556 S
C1722 C1723 1.399 . S
C1722 C1727 1.399 . S
C1723 C1722 1.399 . S
C1723 C1724 1.376 . S
C1724 H1711 0.930 . S
C1724 C1723 1.376 . S
C1724 C1725 1.388 . S
C1725 H1712 0.930 . S
C1725 C1724 1.388 . S
C1725 C1726 1.390 . S
C1726 C1725 1.390 . S
C1726 C1727 1.394 . S
C1726 C1732 1.465 . S
C1727 C1722 1.399 . S
C1727 C1726 1.394 . S
C1727 C1728 1.516 . S
C1728 C1727 1.516 . S
C1728 C1729 1.502 . S
C1728 C1730 1.561 1_556 S
C1728 C1731 1.526 . S
C1729 H1713 0.959 . S
C1729 H1714 0.959 . S
C1729 H1715 0.961 . S
C1729 C1728 1.502 . S
C1730 H1716 0.960 . S
C1730 H1717 0.961 . S
C1730 H1718 0.959 . S
C1730 C1728 1.561 1_554 S
C1731 C1728 1.526 . S
C1731 C1732 1.396 . S
C1731 C1736 1.390 . S
C1732 C1726 1.465 . S
C1732 C1731 1.396 . S
C1732 C1733 1.399 . S
C1733 H1719 0.929 . S
C1733 C1732 1.399 . S
C1733 C1734 1.385 . S
C1734 H1720 0.931 . S
C1734 C1733 1.385 . S
C1734 C1735 1.389 . S
C1735 C1734 1.389 . S
C1735 C1736 1.387 . S
C1736 H1721 0.930 . S
C1736 C1731 1.390 . S
C1736 C1735 1.387 . S
H1737 C1749 0.930 . S
H1738 C1751 0.930 1_554 S
H1739 C1752 0.930 . S
H1740 C1756 0.959 . S
H1741 C1756 0.959 . S
H1742 C1756 0.961 . S
H1743 C1757 0.960 . S
H1744 C1757 0.961 . S
H1745 C1757 0.959 . S
H1746 C1760 0.929 . S
H1747 C1761 0.931 . S
H1748 C1763 0.930 . S
C1749 H1737 0.930 . S
C1749 C1750 1.399 . S
C1749 C1754 1.399 . S
C1750 C1749 1.399 . S
C1750 C1751 1.376 . S
C1751 H1738 0.930 1_556 S
C1751 C1750 1.376 . S
C1751 C1752 1.388 . S
C1752 H1739 0.930 . S
C1752 C1751 1.388 . S
C1752 C1753 1.390 . S
C1753 C1752 1.390 . S
C1753 C1754 1.394 . S
C1753 C1759 1.465 . S
C1754 C1749 1.399 . S
C1754 C1753 1.394 . S
C1754 C1755 1.516 . S
C1755 C1754 1.516 . S
C1755 C1756 1.502 . S
C1755 C1757 1.561 . S
C1755 C1758 1.526 . S
C1756 H1740 0.959 . S
C1756 H1741 0.959 . S
C1756 H1742 0.961 . S
C1756 C1755 1.502 . S
C1757 H1743 0.960 . S
C1757 H1744 0.961 . S
C1757 H1745 0.959 . S
C1757 C1755 1.561 . S
C1758 C1755 1.526 . S
C1758 C1759 1.396 . S
C1758 C1763 1.390 . S
C1759 C1753 1.465 . S
C1759 C1758 1.396 . S
C1759 C1760 1.399 . S
C1760 H1746 0.929 . S
C1760 C1759 1.399 . S
C1760 C1761 1.385 . S
C1761 H1747 0.931 . S
C1761 C1760 1.385 . S
C1761 C1762 1.389 . S
C1762 C1761 1.389 . S
C1762 C1763 1.387 . S
C1763 H1748 0.930 . S
C1763 C1758 1.390 . S
C1763 C1762 1.387 . S
H1764 C1776 0.930 . S
H1765 C1778 0.912 1_554 S
H1766 C1779 0.930 1_554 S
H1767 C1783 0.959 . S
H1768 C1783 0.959 . S
H1769 C1783 0.961 . S
H1770 C1784 0.960 . S
H1771 C1784 0.961 . S
H1772 C1784 0.959 . S
H1773 C1787 0.929 . S
H1774 C1788 0.931 . S
H1775 C1790 0.930 . S
C1776 H1764 0.930 . S
C1776 C1777 1.399 . S
C1776 C1781 1.399 . S
C1777 C1776 1.399 . S
C1777 C1778 1.391 . S
C1778 H1765 0.912 1_556 S
C1778 C1777 1.391 . S
C1778 C1779 1.392 . S
C1779 H1766 0.930 1_556 S
C1779 C1778 1.392 . S
C1779 C1780 1.390 . S
C1780 C1779 1.390 . S
C1780 C1781 1.394 . S
C1780 C1786 1.465 . S
C1781 C1776 1.399 . S
C1781 C1780 1.394 . S
C1781 C1782 1.516 . S
C1782 C1781 1.516 . S
C1782 C1783 1.502 . S
C1782 C1784 1.561 . S
C1782 C1785 1.526 . S
C1783 H1767 0.959 . S
C1783 H1768 0.959 . S
C1783 H1769 0.961 . S
C1783 C1782 1.502 . S
C1784 H1770 0.960 . S
C1784 H1771 0.961 . S
C1784 H1772 0.959 . S
C1784 C1782 1.561 . S
C1785 C1782 1.526 . S
C1785 C1786 1.396 . S
C1785 C1790 1.390 . S
C1786 C1780 1.465 . S
C1786 C1785 1.396 . S
C1786 C1787 1.399 . S
C1787 H1773 0.929 . S
C1787 C1786 1.399 . S
C1787 C1788 1.385 . S
C1788 H1774 0.931 . S
C1788 C1787 1.385 . S
C1788 C1789 1.389 . S
C1789 C1788 1.389 . S
C1789 C1790 1.387 . S
C1790 H1775 0.930 . S
C1790 C1785 1.390 . S
C1790 C1789 1.387 . S
H1791 C1803 0.930 1_554 S
H1792 C1805 0.930 . S
H1793 C1806 0.930 . S
H1794 C1810 0.959 . S
H1795 C1810 0.959 . S
H1796 C1810 0.961 1_554 S
H1797 C1811 0.960 . S
H1798 C1811 0.961 . S
H1799 C1811 0.959 1_556 S
H1800 C1814 0.929 . S
H1801 C1815 0.931 . S
H1802 C1817 0.930 . S
C1803 H1791 0.930 1_556 S
C1803 C1804 1.399 . S
C1803 C1808 1.399 . S
C1804 C1803 1.399 . S
C1804 C1805 1.376 . S
C1805 H1792 0.930 . S
C1805 C1804 1.376 . S
C1805 C1806 1.388 . S
C1806 H1793 0.930 . S
C1806 C1805 1.388 . S
C1806 C1807 1.390 . S
C1807 C1806 1.390 . S
C1807 C1808 1.394 . S
C1807 C1813 1.465 . S
C1808 C1803 1.399 . S
C1808 C1807 1.394 . S
C1808 C1809 1.516 . S
C1809 C1808 1.516 . S
C1809 C1810 1.502 . S
C1809 C1811 1.561 1_556 S
C1809 C1812 1.526 . S
C1810 H1794 0.959 . S
C1810 H1795 0.959 . S
C1810 H1796 0.961 1_556 S
C1810 C1809 1.502 . S
C1811 H1797 0.960 . S
C1811 H1798 0.961 . S
C1811 H1799 0.959 1_554 S
C1811 C1809 1.561 1_554 S
C1812 C1809 1.526 . S
C1812 C1813 1.396 . S
C1812 C1817 1.390 . S
C1813 C1807 1.465 . S
C1813 C1812 1.396 . S
C1813 C1814 1.399 . S
C1814 H1800 0.929 . S
C1814 C1813 1.399 . S
C1814 C1815 1.385 . S
C1815 H1801 0.931 . S
C1815 C1814 1.385 . S
C1815 C1816 1.389 . S
C1816 C1815 1.389 . S
C1816 C1817 1.387 . S
C1817 H1802 0.930 . S
C1817 C1812 1.390 . S
C1817 C1816 1.387 . S
H1818 C1830 0.930 . S
H1819 C1832 0.930 . S
H1820 C1833 0.930 . S
H1821 C1837 0.959 . S
H1822 C1837 0.959 . S
H1823 C1837 0.961 . S
H1824 C1838 0.960 . S
H1825 C1838 0.961 . S
H1826 C1838 0.959 . S
H1827 C1841 0.929 . S
H1828 C1842 0.931 . S
H1829 C1844 0.930 . S
C1830 H1818 0.930 . S
C1830 C1831 1.399 . S
C1830 C1835 1.399 . S
C1831 C1830 1.399 . S
C1831 C1832 1.376 . S
C1832 H1819 0.930 . S
C1832 C1831 1.376 . S
C1832 C1833 1.388 . S
C1833 H1820 0.930 . S
C1833 C1832 1.388 . S
C1833 C1834 1.390 . S
C1834 C1833 1.390 . S
C1834 C1835 1.394 . S
C1834 C1840 1.465 . S
C1835 C1830 1.399 . S
C1835 C1834 1.394 . S
C1835 C1836 1.516 . S
C1836 C1835 1.516 . S
C1836 C1837 1.502 . S
C1836 C1838 1.561 . S
C1836 C1839 1.526 . S
C1837 H1821 0.959 . S
C1837 H1822 0.959 . S
C1837 H1823 0.961 . S
C1837 C1836 1.502 . S
C1838 H1824 0.960 . S
C1838 H1825 0.961 . S
C1838 H1826 0.959 . S
C1838 C1836 1.561 . S
C1839 C1836 1.526 . S
C1839 C1840 1.396 . S
C1839 C1844 1.390 . S
C1840 C1834 1.465 . S
C1840 C1839 1.396 . S
C1840 C1841 1.399 . S
C1841 H1827 0.929 . S
C1841 C1840 1.399 . S
C1841 C1842 1.385 . S
C1842 H1828 0.931 . S
C1842 C1841 1.385 . S
C1842 C1843 1.389 . S
C1843 C1842 1.389 . S
C1843 C1844 1.387 . S
C1844 H1829 0.930 . S
C1844 C1839 1.390 . S
C1844 C1843 1.387 . S
H1845 C1857 0.930 . S
H1846 C1859 0.956 . S
H1847 C1860 0.930 . S
H1848 C1864 0.959 . S
H1849 C1864 0.959 . S
H1850 C1864 0.961 . S
H1851 C1865 0.960 . S
H1852 C1865 0.961 . S
H1853 C1865 0.959 . S
H1854 C1868 0.929 . S
H1855 C1869 0.931 . S
H1856 C1871 0.930 . S
C1857 H1845 0.930 . S
C1857 C1858 1.399 . S
C1857 C1862 1.399 . S
C1858 C1857 1.399 . S
C1858 C1859 1.376 . S
C1859 H1846 0.956 . S
C1859 C1858 1.376 . S
C1859 C1860 1.388 . S
C1860 H1847 0.930 . S
C1860 C1859 1.388 . S
C1860 C1861 1.390 . S
C1861 C1860 1.390 . S
C1861 C1862 1.394 . S
C1861 C1867 1.465 . S
C1862 C1857 1.399 . S
C1862 C1861 1.394 . S
C1862 C1863 1.516 . S
C1863 C1862 1.516 . S
C1863 C1864 1.502 . S
C1863 C1865 1.561 . S
C1863 C1866 1.526 . S
C1864 H1848 0.959 . S
C1864 H1849 0.959 . S
C1864 H1850 0.961 . S
C1864 C1863 1.502 . S
C1865 H1851 0.960 . S
C1865 H1852 0.961 . S
C1865 H1853 0.959 . S
C1865 C1863 1.561 . S
C1866 C1863 1.526 . S
C1866 C1867 1.396 . S
C1866 C1871 1.390 . S
C1867 C1861 1.465 . S
C1867 C1866 1.396 . S
C1867 C1868 1.399 . S
C1868 H1854 0.929 . S
C1868 C1867 1.399 . S
C1868 C1869 1.385 . S
C1869 H1855 0.931 . S
C1869 C1868 1.385 . S
C1869 C1870 1.389 . S
C1870 C1869 1.389 . S
C1870 C1871 1.387 . S
C1871 H1856 0.930 . S
C1871 C1866 1.390 . S
C1871 C1870 1.387 . S
H1872 C1884 0.930 . S
H1873 C1886 0.930 1_556 S
H1874 C1887 0.930 . S
H1875 C1891 0.959 . S
H1876 C1891 0.959 . S
H1877 C1891 0.961 . S
H1878 C1892 0.960 . S
H1879 C1892 0.961 . S
H1880 C1892 0.959 . S
H1881 C1895 0.929 . S
H1882 C1896 0.931 . S
H1883 C1898 0.930 . S
C1884 H1872 0.930 . S
C1884 C1885 1.399 . S
C1884 C1889 1.399 . S
C1885 C1884 1.399 . S
C1885 C1886 1.376 . S
C1886 H1873 0.930 1_554 S
C1886 C1885 1.376 . S
C1886 C1887 1.388 . S
C1887 H1874 0.930 . S
C1887 C1886 1.388 . S
C1887 C1888 1.390 . S
C1888 C1887 1.390 . S
C1888 C1889 1.394 . S
C1888 C1894 1.465 . S
C1889 C1884 1.399 . S
C1889 C1888 1.394 . S
C1889 C1890 1.516 . S
C1890 C1889 1.516 . S
C1890 C1891 1.502 . S
C1890 C1892 1.561 . S
C1890 C1893 1.526 . S
C1891 H1875 0.959 . S
C1891 H1876 0.959 . S
C1891 H1877 0.961 . S
C1891 C1890 1.502 . S
C1892 H1878 0.960 . S
C1892 H1879 0.961 . S
C1892 H1880 0.959 . S
C1892 C1890 1.561 . S
C1893 C1890 1.526 . S
C1893 C1894 1.396 . S
C1893 C1898 1.390 . S
C1894 C1888 1.465 . S
C1894 C1893 1.396 . S
C1894 C1895 1.399 . S
C1895 H1881 0.929 . S
C1895 C1894 1.399 . S
C1895 C1896 1.385 . S
C1896 H1882 0.931 . S
C1896 C1895 1.385 . S
C1896 C1897 1.389 . S
C1897 C1896 1.389 . S
C1897 C1898 1.387 . S
C1898 H1883 0.930 . S
C1898 C1893 1.390 . S
C1898 C1897 1.387 . S
H1899 C1911 0.930 . S
H1900 C1913 0.930 . S
H1901 C1914 0.930 . S
H1902 C1918 0.959 . S
H1903 C1918 0.959 . S
H1904 C1918 0.961 . S
H1905 C1919 0.960 . S
H1906 C1919 0.961 . S
H1907 C1919 0.959 . S
H1908 C1922 0.929 . S
H1909 C1923 0.931 . S
H1910 C1925 0.930 . S
C1911 H1899 0.930 . S
C1911 C1912 1.399 . S
C1911 C1916 1.399 . S
C1912 C1911 1.399 . S
C1912 C1913 1.376 . S
C1913 H1900 0.930 . S
C1913 C1912 1.376 . S
C1913 C1914 1.388 . S
C1914 H1901 0.930 . S
C1914 C1913 1.388 . S
C1914 C1915 1.390 . S
C1915 C1914 1.390 . S
C1915 C1916 1.394 . S
C1915 C1921 1.465 . S
C1916 C1911 1.399 . S
C1916 C1915 1.394 . S
C1916 C1917 1.516 . S
C1917 C1916 1.516 . S
C1917 C1918 1.502 . S
C1917 C1919 1.561 . S
C1917 C1920 1.526 . S
C1918 H1902 0.959 . S
C1918 H1903 0.959 . S
C1918 H1904 0.961 . S
C1918 C1917 1.502 . S
C1919 H1905 0.960 . S
C1919 H1906 0.961 . S
C1919 H1907 0.959 . S
C1919 C1917 1.561 . S
C1920 C1917 1.526 . S
C1920 C1921 1.396 . S
C1920 C1925 1.390 . S
C1921 C1915 1.465 . S
C1921 C1920 1.396 . S
C1921 C1922 1.399 . S
C1922 H1908 0.929 . S
C1922 C1921 1.399 . S
C1922 C1923 1.385 . S
C1923 H1909 0.931 . S
C1923 C1922 1.385 . S
C1923 C1924 1.389 . S
C1924 C1923 1.389 . S
C1924 C1925 1.387 . S
C1925 H1910 0.930 . S
C1925 C1920 1.390 . S
C1925 C1924 1.387 . S
H1926 C1938 0.930 . S
H1927 C1940 0.930 . S
H1928 C1941 0.930 . S
H1929 C1945 0.959 . S
H1930 C1945 0.959 . S
H1931 C1945 0.961 . S
H1932 C1946 0.960 . S
H1933 C1946 0.961 . S
H1934 C1946 0.959 . S
H1935 C1949 0.929 . S
H1936 C1950 0.931 . S
H1937 C1952 0.930 . S
C1938 H1926 0.930 . S
C1938 C1939 1.399 . S
C1938 C1943 1.399 . S
C1939 C1938 1.399 . S
C1939 C1940 1.376 . S
C1940 H1927 0.930 . S
C1940 C1939 1.376 . S
C1940 C1941 1.388 . S
C1941 H1928 0.930 . S
C1941 C1940 1.388 . S
C1941 C1942 1.390 . S
C1942 C1941 1.390 . S
C1942 C1943 1.394 . S
C1942 C1948 1.465 . S
C1943 C1938 1.399 . S
C1943 C1942 1.394 . S
C1943 C1944 1.516 . S
C1944 C1943 1.516 . S
C1944 C1945 1.502 . S
C1944 C1946 1.561 . S
C1944 C1947 1.526 . S
C1945 H1929 0.959 . S
C1945 H1930 0.959 . S
C1945 H1931 0.961 . S
C1945 C1944 1.502 . S
C1946 H1932 0.960 . S
C1946 H1933 0.961 . S
C1946 H1934 0.959 . S
C1946 C1944 1.561 . S
C1947 C1944 1.526 . S
C1947 C1948 1.396 . S
C1947 C1952 1.390 . S
C1948 C1942 1.465 . S
C1948 C1947 1.396 . S
C1948 C1949 1.399 . S
C1949 H1935 0.929 . S
C1949 C1948 1.399 . S
C1949 C1950 1.385 . S
C1950 H1936 0.931 . S
C1950 C1949 1.385 . S
C1950 C1951 1.389 . S
C1951 C1950 1.389 . S
C1951 C1952 1.387 . S
C1952 H1937 0.930 . S
C1952 C1947 1.390 . S
C1952 C1951 1.387 . S
H1953 C1965 0.930 . S
H1954 C1967 0.930 . S
H1955 C1968 0.930 . S
H1956 C1972 0.959 . S
H1957 C1972 0.959 . S
H1958 C1972 0.961 . S
H1959 C1973 0.960 . S
H1960 C1973 0.961 . S
H1961 C1973 0.959 . S
H1962 C1976 0.929 . S
H1963 C1977 0.931 . S
H1964 C1979 0.930 . S
C1965 H1953 0.930 . S
C1965 C1966 1.399 . S
C1965 C1970 1.399 . S
C1966 C1965 1.399 . S
C1966 C1967 1.376 . S
C1967 H1954 0.930 . S
C1967 C1966 1.376 . S
C1967 C1968 1.388 . S
C1968 H1955 0.930 . S
C1968 C1967 1.388 . S
C1968 C1969 1.390 . S
C1969 C1968 1.390 . S
C1969 C1970 1.394 . S
C1969 C1975 1.465 . S
C1970 C1965 1.399 . S
C1970 C1969 1.394 . S
C1970 C1971 1.516 . S
C1971 C1970 1.516 . S
C1971 C1972 1.502 . S
C1971 C1973 1.561 . S
C1971 C1974 1.526 . S
C1972 H1956 0.959 . S
C1972 H1957 0.959 . S
C1972 H1958 0.961 . S
C1972 C1971 1.502 . S
C1973 H1959 0.960 . S
C1973 H1960 0.961 . S
C1973 H1961 0.959 . S
C1973 C1971 1.561 . S
C1974 C1971 1.526 . S
C1974 C1975 1.396 . S
C1974 C1979 1.390 . S
C1975 C1969 1.465 . S
C1975 C1974 1.396 . S
C1975 C1976 1.399 . S
C1976 H1962 0.929 . S
C1976 C1975 1.399 . S
C1976 C1977 1.385 . S
C1977 H1963 0.931 . S
C1977 C1976 1.385 . S
C1977 C1978 1.389 . S
C1978 C1977 1.389 . S
C1978 C1979 1.387 . S
C1979 H1964 0.930 . S
C1979 C1974 1.390 . S
C1979 C1978 1.387 . S
H1980 C1992 0.930 . S
H1981 C1994 0.930 . S
H1982 C1995 0.930 . S
H1983 C1999 0.959 . S
H1984 C1999 0.959 . S
H1985 C1999 0.961 . S
H1986 C2000 0.960 . S
H1987 C2000 0.961 . S
H1988 C2000 0.959 . S
H1989 C2003 0.929 . S
H1990 C2004 0.931 . S
H1991 C2006 0.930 . S
C1992 H1980 0.930 . S
C1992 C1993 1.399 . S
C1992 C1997 1.399 . S
C1993 C1992 1.399 . S
C1993 C1994 1.376 . S
C1994 H1981 0.930 . S
C1994 C1993 1.376 . S
C1994 C1995 1.388 . S
C1995 H1982 0.930 . S
C1995 C1994 1.388 . S
C1995 C1996 1.390 . S
C1996 C1995 1.390 . S
C1996 C1997 1.394 . S
C1996 C2002 1.465 . S
C1997 C1992 1.399 . S
C1997 C1996 1.394 . S
C1997 C1998 1.516 . S
C1998 C1997 1.516 . S
C1998 C1999 1.502 . S
C1998 C2000 1.561 . S
C1998 C2001 1.526 . S
C1999 H1983 0.959 . S
C1999 H1984 0.959 . S
C1999 H1985 0.961 . S
C1999 C1998 1.502 . S
C2000 H1986 0.960 . S
C2000 H1987 0.961 . S
C2000 H1988 0.959 . S
C2000 C1998 1.561 . S
C2001 C1998 1.526 . S
C2001 C2002 1.396 . S
C2001 C2006 1.390 . S
C2002 C1996 1.465 . S
C2002 C2001 1.396 . S
C2002 C2003 1.399 . S
C2003 H1989 0.929 . S
C2003 C2002 1.399 . S
C2003 C2004 1.385 . S
C2004 H1990 0.931 . S
C2004 C2003 1.385 . S
C2004 C2005 1.389 . S
C2005 C2004 1.389 . S
C2005 C2006 1.387 . S
C2006 H1991 0.930 . S
C2006 C2001 1.390 . S
C2006 C2005 1.387 . S
H2007 C2019 0.930 . S
H2008 C2021 0.930 . S
H2009 C2022 0.930 . S
H2010 C2026 0.947 1_655 S
H2011 C2026 0.953 . S
H2012 C2026 0.968 . S
H2013 C2027 0.960 . S
H2014 C2027 0.961 . S
H2015 C2027 0.959 . S
H2016 C2030 0.929 . S
H2017 C2031 0.932 . S
H2018 C2033 0.930 . S
C2019 H2007 0.930 . S
C2019 C2020 1.399 . S
C2019 C2024 1.399 . S
C2020 C2019 1.399 . S
C2020 C2021 1.376 . S
C2021 H2008 0.930 . S
C2021 C2020 1.376 . S
C2021 C2022 1.388 . S
C2022 H2009 0.930 . S
C2022 C2021 1.388 . S
C2022 C2023 1.390 . S
C2023 C2022 1.390 . S
C2023 C2024 1.394 . S
C2023 C2029 1.465 . S
C2024 C2019 1.399 . S
C2024 C2023 1.394 . S
C2024 C2025 1.516 . S
C2025 C2024 1.516 . S
C2025 C2026 1.514 . S
C2025 C2027 1.561 . S
C2025 C2028 1.526 . S
C2026 H2010 0.947 1_455 S
C2026 H2011 0.953 . S
C2026 H2012 0.968 . S
C2026 C2025 1.514 . S
C2027 H2013 0.960 . S
C2027 H2014 0.961 . S
C2027 H2015 0.959 . S
C2027 C2025 1.561 . S
C2028 C2025 1.526 . S
C2028 C2029 1.396 . S
C2028 C2033 1.390 . S
C2029 C2023 1.465 . S
C2029 C2028 1.396 . S
C2029 C2030 1.399 . S
C2030 H2016 0.929 . S
C2030 C2029 1.399 . S
C2030 C2031 1.385 . S
C2031 H2017 0.932 . S
C2031 C2030 1.385 . S
C2031 C2032 1.389 . S
C2032 C2031 1.389 . S
C2032 C2033 1.387 . S
C2033 H2018 0.930 . S
C2033 C2028 1.390 . S
C2033 C2032 1.387 . S
H2034 C2046 0.930 . S
H2035 C2048 0.930 . S
H2036 C2049 0.930 . S
H2037 C2053 0.959 . S
H2038 C2053 0.959 . S
H2039 C2053 0.961 . S
H2040 C2054 0.960 . S
H2041 C2054 0.961 . S
H2042 C2054 0.959 . S
H2043 C2057 0.929 . S
H2044 C2058 0.931 . S
H2045 C2060 0.930 . S
C2046 H2034 0.930 . S
C2046 C2047 1.399 . S
C2046 C2051 1.399 . S
C2047 C2046 1.399 . S
C2047 C2048 1.376 . S
C2048 H2035 0.930 . S
C2048 C2047 1.376 . S
C2048 C2049 1.388 . S
C2049 H2036 0.930 . S
C2049 C2048 1.388 . S
C2049 C2050 1.390 . S
C2050 C2049 1.390 . S
C2050 C2051 1.394 . S
C2050 C2056 1.465 . S
C2051 C2046 1.399 . S
C2051 C2050 1.394 . S
C2051 C2052 1.516 . S
C2052 C2051 1.516 . S
C2052 C2053 1.502 . S
C2052 C2054 1.561 . S
C2052 C2055 1.526 . S
C2053 H2037 0.959 . S
C2053 H2038 0.959 . S
C2053 H2039 0.961 . S
C2053 C2052 1.502 . S
C2054 H2040 0.960 . S
C2054 H2041 0.961 . S
C2054 H2042 0.959 . S
C2054 C2052 1.561 . S
C2055 C2052 1.526 . S
C2055 C2056 1.396 . S
C2055 C2060 1.390 . S
C2056 C2050 1.465 . S
C2056 C2055 1.396 . S
C2056 C2057 1.399 . S
C2057 H2043 0.929 . S
C2057 C2056 1.399 . S
C2057 C2058 1.385 . S
C2058 H2044 0.931 . S
C2058 C2057 1.385 . S
C2058 C2059 1.389 . S
C2059 C2058 1.389 . S
C2059 C2060 1.387 . S
C2060 H2045 0.930 . S
C2060 C2055 1.390 . S
C2060 C2059 1.387 . S
H2061 C2073 0.930 . S
H2062 C2075 0.930 . S
H2063 C2076 0.930 . S
H2064 C2080 0.959 . S
H2065 C2080 0.959 . S
H2066 C2080 0.961 . S
H2067 C2081 0.960 . S
H2068 C2081 0.961 . S
H2069 C2081 0.959 . S
H2070 C2084 0.929 . S
H2071 C2085 0.931 . S
H2072 C2087 0.930 . S
C2073 H2061 0.930 . S
C2073 C2074 1.399 1_545 S
C2073 C2078 1.399 . S
C2074 C2073 1.399 1_565 S
C2074 C2075 1.376 . S
C2075 H2062 0.930 . S
C2075 C2074 1.376 . S
C2075 C2076 1.388 . S
C2076 H2063 0.930 . S
C2076 C2075 1.388 . S
C2076 C2077 1.390 . S
C2077 C2076 1.390 . S
C2077 C2078 1.394 1_565 S
C2077 C2083 1.465 . S
C2078 C2073 1.399 . S
C2078 C2077 1.394 1_545 S
C2078 C2079 1.516 . S
C2079 C2078 1.516 . S
C2079 C2080 1.502 . S
C2079 C2081 1.561 . S
C2079 C2082 1.526 . S
C2080 H2064 0.959 . S
C2080 H2065 0.959 . S
C2080 H2066 0.961 . S
C2080 C2079 1.502 . S
C2081 H2067 0.960 . S
C2081 H2068 0.961 . S
C2081 H2069 0.959 . S
C2081 C2079 1.561 . S
C2082 C2079 1.526 . S
C2082 C2083 1.396 1_545 S
C2082 C2087 1.390 . S
C2083 C2077 1.465 . S
C2083 C2082 1.396 1_565 S
C2083 C2084 1.399 . S
C2084 H2070 0.929 . S
C2084 C2083 1.399 . S
C2084 C2085 1.385 . S
C2085 H2071 0.931 . S
C2085 C2084 1.385 . S
C2085 C2086 1.389 . S
C2086 C2085 1.389 . S
C2086 C2087 1.387 1_565 S
C2087 H2072 0.930 . S
C2087 C2082 1.390 . S
C2087 C2086 1.387 1_545 S
H2088 C2100 0.930 . S
H2089 C2102 0.930 . S
H2090 C2103 0.930 . S
H2091 C2107 0.959 . S
H2092 C2107 0.959 . S
H2093 C2107 0.961 . S
H2094 C2108 0.960 . S
H2095 C2108 0.961 . S
H2096 C2108 0.959 . S
H2097 C2111 0.929 . S
H2098 C2112 0.931 . S
H2099 C2114 0.930 . S
C2100 H2088 0.930 . S
C2100 C2101 1.399 1_545 S
C2100 C2105 1.399 . S
C2101 C2100 1.399 1_565 S
C2101 C2102 1.376 . S
C2102 H2089 0.930 . S
C2102 C2101 1.376 . S
C2102 C2103 1.388 . S
C2103 H2090 0.930 . S
C2103 C2102 1.388 . S
C2103 C2104 1.390 . S
C2104 C2103 1.390 . S
C2104 C2105 1.394 1_565 S
C2104 C2110 1.465 . S
C2105 C2100 1.399 . S
C2105 C2104 1.394 1_545 S
C2105 C2106 1.516 . S
C2106 C2105 1.516 . S
C2106 C2107 1.502 . S
C2106 C2108 1.561 . S
C2106 C2109 1.526 . S
C2107 H2091 0.959 . S
C2107 H2092 0.959 . S
C2107 H2093 0.961 . S
C2107 C2106 1.502 . S
C2108 H2094 0.960 . S
C2108 H2095 0.961 . S
C2108 H2096 0.959 . S
C2108 C2106 1.561 . S
C2109 C2106 1.526 . S
C2109 C2110 1.396 1_545 S
C2109 C2114 1.390 . S
C2110 C2104 1.465 . S
C2110 C2109 1.396 1_565 S
C2110 C2111 1.399 . S
C2111 H2097 0.929 . S
C2111 C2110 1.399 . S
C2111 C2112 1.385 . S
C2112 H2098 0.931 . S
C2112 C2111 1.385 . S
C2112 C2113 1.389 . S
C2113 C2112 1.389 . S
C2113 C2114 1.387 1_565 S
C2114 H2099 0.930 . S
C2114 C2109 1.390 . S
C2114 C2113 1.387 1_545 S
H2115 C2127 0.930 . S
H2116 C2129 0.930 . S
H2117 C2130 0.930 . S
H2118 C2134 0.959 . S
H2119 C2134 0.959 . S
H2120 C2134 0.961 . S
H2121 C2135 0.960 . S
H2122 C2135 0.961 . S
H2123 C2135 0.959 . S
H2124 C2138 0.929 . S
H2125 C2139 0.931 . S
H2126 C2141 0.930 . S
C2127 H2115 0.930 . S
C2127 C2128 1.399 1_655 S
C2127 C2132 1.399 . S
C2128 C2127 1.399 1_455 S
C2128 C2129 1.376 . S
C2129 H2116 0.930 . S
C2129 C2128 1.376 . S
C2129 C2130 1.388 . S
C2130 H2117 0.930 . S
C2130 C2129 1.388 . S
C2130 C2131 1.390 . S
C2131 C2130 1.390 . S
C2131 C2132 1.394 1_455 S
C2131 C2137 1.465 . S
C2132 C2127 1.399 . S
C2132 C2131 1.394 1_655 S
C2132 C2133 1.516 . S
C2133 C2132 1.516 . S
C2133 C2134 1.502 . S
C2133 C2135 1.561 . S
C2133 C2136 1.526 . S
C2134 H2118 0.959 . S
C2134 H2119 0.959 . S
C2134 H2120 0.961 . S
C2134 C2133 1.502 . S
C2135 H2121 0.960 . S
C2135 H2122 0.961 . S
C2135 H2123 0.959 . S
C2135 C2133 1.561 . S
C2136 C2133 1.526 . S
C2136 C2137 1.396 1_655 S
C2136 C2141 1.390 . S
C2137 C2131 1.465 . S
C2137 C2136 1.396 1_455 S
C2137 C2138 1.399 . S
C2138 H2124 0.929 . S
C2138 C2137 1.399 . S
C2138 C2139 1.385 . S
C2139 H2125 0.931 . S
C2139 C2138 1.385 . S
C2139 C2140 1.389 . S
C2140 C2139 1.389 . S
C2140 C2141 1.387 1_455 S
C2141 H2126 0.930 . S
C2141 C2136 1.390 . S
C2141 C2140 1.387 1_655 S
H2142 C2154 0.930 . S
H2143 C2156 0.930 . S
H2144 C2157 0.930 . S
H2145 C2161 0.959 . S
H2146 C2161 0.959 . S
H2147 C2161 0.961 . S
H2148 C2162 0.960 . S
H2149 C2162 0.961 . S
H2150 C2162 0.959 . S
H2151 C2165 0.929 . S
H2152 C2166 0.931 . S
H2153 C2168 0.930 . S
C2154 H2142 0.930 . S
C2154 C2155 1.399 . S
C2154 C2159 1.399 . S
C2155 C2154 1.399 . S
C2155 C2156 1.376 . S
C2156 H2143 0.930 . S
C2156 C2155 1.376 . S
C2156 C2157 1.388 . S
C2157 H2144 0.930 . S
C2157 C2156 1.388 . S
C2157 C2158 1.390 . S
C2158 C2157 1.390 . S
C2158 C2159 1.394 . S
C2158 C2164 1.465 . S
C2159 C2154 1.399 . S
C2159 C2158 1.394 . S
C2159 C2160 1.516 . S
C2160 C2159 1.516 . S
C2160 C2161 1.502 . S
C2160 C2162 1.561 . S
C2160 C2163 1.526 . S
C2161 H2145 0.959 . S
C2161 H2146 0.959 . S
C2161 H2147 0.961 . S
C2161 C2160 1.502 . S
C2162 H2148 0.960 . S
C2162 H2149 0.961 . S
C2162 H2150 0.959 . S
C2162 C2160 1.561 . S
C2163 C2160 1.526 . S
C2163 C2164 1.396 . S
C2163 C2168 1.390 . S
C2164 C2158 1.465 . S
C2164 C2163 1.396 . S
C2164 C2165 1.399 . S
C2165 H2151 0.929 . S
C2165 C2164 1.399 . S
C2165 C2166 1.385 . S
C2166 H2152 0.931 . S
C2166 C2165 1.385 . S
C2166 C2167 1.389 . S
C2167 C2166 1.389 . S
C2167 C2168 1.387 . S
C2168 H2153 0.930 . S
C2168 C2163 1.390 . S
C2168 C2167 1.387 . S
H2169 C2181 0.930 . S
H2170 C2183 0.930 . S
H2171 C2184 0.930 . S
H2172 C2188 0.959 . S
H2173 C2188 0.959 . S
H2174 C2188 0.961 . S
H2175 C2189 0.960 . S
H2176 C2189 0.961 . S
H2177 C2189 0.959 . S
H2178 C2192 0.929 . S
H2179 C2193 0.931 . S
H2180 C2195 0.930 . S
C2181 H2169 0.930 . S
C2181 C2182 1.399 . S
C2181 C2186 1.399 . S
C2182 C2181 1.399 . S
C2182 C2183 1.376 . S
C2183 H2170 0.930 . S
C2183 C2182 1.376 . S
C2183 C2184 1.388 . S
C2184 H2171 0.930 . S
C2184 C2183 1.388 . S
C2184 C2185 1.390 . S
C2185 C2184 1.390 . S
C2185 C2186 1.394 . S
C2185 C2191 1.465 . S
C2186 C2181 1.399 . S
C2186 C2185 1.394 . S
C2186 C2187 1.516 . S
C2187 C2186 1.516 . S
C2187 C2188 1.502 . S
C2187 C2189 1.561 . S
C2187 C2190 1.526 . S
C2188 H2172 0.959 . S
C2188 H2173 0.959 . S
C2188 H2174 0.961 . S
C2188 C2187 1.502 . S
C2189 H2175 0.960 . S
C2189 H2176 0.961 . S
C2189 H2177 0.959 . S
C2189 C2187 1.561 . S
C2190 C2187 1.526 . S
C2190 C2191 1.396 . S
C2190 C2195 1.390 . S
C2191 C2185 1.465 . S
C2191 C2190 1.396 . S
C2191 C2192 1.399 . S
C2192 H2178 0.929 . S
C2192 C2191 1.399 . S
C2192 C2193 1.385 . S
C2193 H2179 0.931 . S
C2193 C2192 1.385 . S
C2193 C2194 1.389 . S
C2194 C2193 1.389 . S
C2194 C2195 1.387 . S
C2195 H2180 0.930 . S
C2195 C2190 1.390 . S
C2195 C2194 1.387 . S
H2196 C2208 0.930 . S
H2197 C2210 0.930 . S
H2198 C2211 0.930 . S
H2199 C2215 0.959 . S
H2200 C2215 0.959 . S
H2201 C2215 0.961 . S
H2202 C2216 0.960 . S
H2203 C2216 0.961 . S
H2204 C2216 0.959 . S
H2205 C2219 0.929 . S
H2206 C2220 0.931 . S
H2207 C2222 0.930 . S
C2208 H2196 0.930 . S
C2208 C2209 1.399 . S
C2208 C2213 1.399 . S
C2209 C2208 1.399 . S
C2209 C2210 1.376 . S
C2210 H2197 0.930 . S
C2210 C2209 1.376 . S
C2210 C2211 1.388 . S
C2211 H2198 0.930 . S
C2211 C2210 1.388 . S
C2211 C2212 1.390 . S
C2212 C2211 1.390 . S
C2212 C2213 1.394 . S
C2212 C2218 1.465 . S
C2213 C2208 1.399 . S
C2213 C2212 1.394 . S
C2213 C2214 1.516 . S
C2214 C2213 1.516 . S
C2214 C2215 1.502 . S
C2214 C2216 1.561 . S
C2214 C2217 1.526 . S
C2215 H2199 0.959 . S
C2215 H2200 0.959 . S
C2215 H2201 0.961 . S
C2215 C2214 1.502 . S
C2216 H2202 0.960 . S
C2216 H2203 0.961 . S
C2216 H2204 0.959 . S
C2216 C2214 1.561 . S
C2217 C2214 1.526 . S
C2217 C2218 1.396 . S
C2217 C2222 1.390 . S
C2218 C2212 1.465 . S
C2218 C2217 1.396 . S
C2218 C2219 1.399 . S
C2219 H2205 0.929 . S
C2219 C2218 1.399 . S
C2219 C2220 1.385 . S
C2220 H2206 0.931 . S
C2220 C2219 1.385 . S
C2220 C2221 1.389 . S
C2221 C2220 1.389 . S
C2221 C2222 1.387 . S
C2222 H2207 0.930 . S
C2222 C2217 1.390 . S
C2222 C2221 1.387 . S
H2223 C2235 0.930 . S
H2224 C2237 0.930 . S
H2225 C2238 0.930 . S
H2226 C2242 0.959 . S
H2227 C2242 0.959 . S
H2228 C2242 0.961 . S
H2229 C2243 0.960 . S
H2230 C2243 0.961 . S
H2231 C2243 0.959 . S
H2232 C2246 0.929 . S
H2233 C2247 0.931 . S
H2234 C2249 0.930 . S
C2235 H2223 0.930 . S
C2235 C2236 1.399 . S
C2235 C2240 1.399 . S
C2236 C2235 1.399 . S
C2236 C2237 1.376 . S
C2237 H2224 0.930 . S
C2237 C2236 1.376 . S
C2237 C2238 1.388 . S
C2238 H2225 0.930 . S
C2238 C2237 1.388 . S
C2238 C2239 1.390 . S
C2239 C2238 1.390 . S
C2239 C2240 1.394 . S
C2239 C2245 1.465 . S
C2240 C2235 1.399 . S
C2240 C2239 1.394 . S
C2240 C2241 1.516 . S
C2241 C2240 1.516 . S
C2241 C2242 1.502 . S
C2241 C2243 1.561 . S
C2241 C2244 1.526 . S
C2242 H2226 0.959 . S
C2242 H2227 0.959 . S
C2242 H2228 0.961 . S
C2242 C2241 1.502 . S
C2243 H2229 0.960 . S
C2243 H2230 0.961 . S
C2243 H2231 0.959 . S
C2243 C2241 1.561 . S
C2244 C2241 1.526 . S
C2244 C2245 1.396 . S
C2244 C2249 1.390 . S
C2245 C2239 1.465 . S
C2245 C2244 1.396 . S
C2245 C2246 1.399 . S
C2246 H2232 0.929 . S
C2246 C2245 1.399 . S
C2246 C2247 1.385 . S
C2247 H2233 0.931 . S
C2247 C2246 1.385 . S
C2247 C2248 1.389 . S
C2248 C2247 1.389 . S
C2248 C2249 1.387 . S
C2249 H2234 0.930 . S
C2249 C2244 1.390 . S
C2249 C2248 1.387 . S
H2250 C2262 0.930 . S
H2251 C2264 0.930 . S
H2252 C2265 0.930 . S
H2253 C2269 0.959 . S
H2254 C2269 0.959 . S
H2255 C2269 0.961 . S
H2256 C2270 0.960 . S
H2257 C2270 0.961 . S
H2258 C2270 0.959 . S
H2259 C2273 0.929 . S
H2260 C2274 0.931 . S
H2261 C2276 0.930 . S
C2262 H2250 0.930 . S
C2262 C2263 1.399 . S
C2262 C2267 1.399 . S
C2263 C2262 1.399 . S
C2263 C2264 1.376 1_545 S
C2264 H2251 0.930 . S
C2264 C2263 1.376 1_565 S
C2264 C2265 1.388 . S
C2265 H2252 0.930 . S
C2265 C2264 1.388 . S
C2265 C2266 1.390 . S
C2266 C2265 1.390 . S
C2266 C2267 1.394 1_565 S
C2266 C2272 1.465 . S
C2267 C2262 1.399 . S
C2267 C2266 1.394 1_545 S
C2267 C2268 1.516 . S
C2268 C2267 1.516 . S
C2268 C2269 1.502 . S
C2268 C2270 1.561 . S
C2268 C2271 1.526 . S
C2269 H2253 0.959 . S
C2269 H2254 0.959 . S
C2269 H2255 0.961 . S
C2269 C2268 1.502 . S
C2270 H2256 0.960 . S
C2270 H2257 0.961 . S
C2270 H2258 0.959 . S
C2270 C2268 1.561 . S
C2271 C2268 1.526 . S
C2271 C2272 1.396 1_545 S
C2271 C2276 1.390 . S
C2272 C2266 1.465 . S
C2272 C2271 1.396 1_565 S
C2272 C2273 1.399 . S
C2273 H2259 0.929 . S
C2273 C2272 1.399 . S
C2273 C2274 1.385 . S
C2274 H2260 0.931 . S
C2274 C2273 1.385 . S
C2274 C2275 1.389 1_565 S
C2275 C2274 1.389 1_545 S
C2275 C2276 1.387 . S
C2276 H2261 0.930 . S
C2276 C2271 1.390 . S
C2276 C2275 1.387 . S
H2277 C2289 0.930 . S
H2278 C2291 0.930 . S
H2279 C2292 0.930 . S
H2280 C2296 0.959 . S
H2281 C2296 0.959 . S
H2282 C2296 0.961 . S
H2283 C2297 0.960 . S
H2284 C2297 0.961 . S
H2285 C2297 0.959 1_455 S
H2286 C2300 0.929 . S
H2287 C2301 0.931 . S
H2288 C2303 0.930 . S
C2289 H2277 0.930 . S
C2289 C2290 1.399 . S
C2289 C2294 1.399 . S
C2290 C2289 1.399 . S
C2290 C2291 1.376 1_655 S
C2291 H2278 0.930 . S
C2291 C2290 1.376 1_455 S
C2291 C2292 1.388 . S
C2292 H2279 0.930 . S
C2292 C2291 1.388 . S
C2292 C2293 1.390 . S
C2293 C2292 1.390 . S
C2293 C2294 1.394 1_455 S
C2293 C2299 1.465 . S
C2294 C2289 1.399 . S
C2294 C2293 1.394 1_655 S
C2294 C2295 1.516 . S
C2295 C2294 1.516 . S
C2295 C2296 1.502 . S
C2295 C2297 1.561 . S
C2295 C2298 1.526 . S
C2296 H2280 0.959 . S
C2296 H2281 0.959 . S
C2296 H2282 0.961 . S
C2296 C2295 1.502 . S
C2297 H2283 0.960 . S
C2297 H2284 0.961 . S
C2297 H2285 0.959 1_655 S
C2297 C2295 1.561 . S
C2298 C2295 1.526 . S
C2298 C2299 1.396 1_655 S
C2298 C2303 1.390 . S
C2299 C2293 1.465 . S
C2299 C2298 1.396 1_455 S
C2299 C2300 1.399 . S
C2300 H2286 0.929 . S
C2300 C2299 1.399 . S
C2300 C2301 1.385 . S
C2301 H2287 0.931 . S
C2301 C2300 1.385 . S
C2301 C2302 1.389 1_455 S
C2302 C2301 1.389 1_655 S
C2302 C2303 1.387 . S
C2303 H2288 0.930 . S
C2303 C2298 1.390 . S
C2303 C2302 1.387 . S
H2304 C2316 0.930 . S
H2305 C2318 0.930 . S
H2306 C2319 0.930 . S
H2307 C2323 0.959 . S
H2308 C2323 0.959 . S
H2309 C2323 0.961 . S
H2310 C2324 0.960 . S
H2311 C2324 0.961 . S
H2312 C2324 0.959 . S
H2313 C2327 0.929 . S
H2314 C2328 0.931 . S
H2315 C2330 0.930 . S
C2316 H2304 0.930 . S
C2316 C2317 1.399 . S
C2316 C2321 1.399 . S
C2317 C2316 1.399 . S
C2317 C2318 1.376 . S
C2318 H2305 0.930 . S
C2318 C2317 1.376 . S
C2318 C2319 1.388 . S
C2319 H2306 0.930 . S
C2319 C2318 1.388 . S
C2319 C2320 1.390 . S
C2320 C2319 1.390 . S
C2320 C2321 1.394 . S
C2320 C2326 1.465 . S
C2321 C2316 1.399 . S
C2321 C2320 1.394 . S
C2321 C2322 1.516 . S
C2322 C2321 1.516 . S
C2322 C2323 1.502 . S
C2322 C2324 1.561 . S
C2322 C2325 1.526 . S
C2323 H2307 0.959 . S
C2323 H2308 0.959 . S
C2323 H2309 0.961 . S
C2323 C2322 1.502 . S
C2324 H2310 0.960 . S
C2324 H2311 0.961 . S
C2324 H2312 0.959 . S
C2324 C2322 1.561 . S
C2325 C2322 1.526 . S
C2325 C2326 1.396 . S
C2325 C2330 1.390 . S
C2326 C2320 1.465 . S
C2326 C2325 1.396 . S
C2326 C2327 1.399 . S
C2327 H2313 0.929 . S
C2327 C2326 1.399 . S
C2327 C2328 1.385 . S
C2328 H2314 0.931 . S
C2328 C2327 1.385 . S
C2328 C2329 1.389 . S
C2329 C2328 1.389 . S
C2329 C2330 1.387 . S
C2330 H2315 0.930 . S
C2330 C2325 1.390 . S
C2330 C2329 1.387 . S
H2331 C2343 0.930 . S
H2332 C2345 0.930 . S
H2333 C2346 0.930 . S
H2334 C2350 0.959 . S
H2335 C2350 0.959 . S
H2336 C2350 0.961 . S
H2337 C2351 0.960 . S
H2338 C2351 0.961 . S
H2339 C2351 0.959 . S
H2340 C2354 0.929 . S
H2341 C2355 0.931 . S
H2342 C2357 0.930 . S
C2343 H2331 0.930 . S
C2343 C2344 1.399 . S
C2343 C2348 1.399 . S
C2344 C2343 1.399 . S
C2344 C2345 1.376 . S
C2345 H2332 0.930 . S
C2345 C2344 1.376 . S
C2345 C2346 1.388 . S
C2346 H2333 0.930 . S
C2346 C2345 1.388 . S
C2346 C2347 1.390 . S
C2347 C2346 1.390 . S
C2347 C2348 1.394 . S
C2347 C2353 1.465 . S
C2348 C2343 1.399 . S
C2348 C2347 1.394 . S
C2348 C2349 1.516 . S
C2349 C2348 1.516 . S
C2349 C2350 1.502 . S
C2349 C2351 1.561 . S
C2349 C2352 1.526 . S
C2350 H2334 0.959 . S
C2350 H2335 0.959 . S
C2350 H2336 0.961 . S
C2350 C2349 1.502 . S
C2351 H2337 0.960 . S
C2351 H2338 0.961 . S
C2351 H2339 0.959 . S
C2351 C2349 1.561 . S
C2352 C2349 1.526 . S
C2352 C2353 1.396 . S
C2352 C2357 1.390 . S
C2353 C2347 1.465 . S
C2353 C2352 1.396 . S
C2353 C2354 1.399 . S
C2354 H2340 0.929 . S
C2354 C2353 1.399 . S
C2354 C2355 1.385 . S
C2355 H2341 0.931 . S
C2355 C2354 1.385 . S
C2355 C2356 1.389 . S
C2356 C2355 1.389 . S
C2356 C2357 1.387 . S
C2357 H2342 0.930 . S
C2357 C2352 1.390 . S
C2357 C2356 1.387 . S
H2358 C2370 0.930 . S
H2359 C2372 0.930 . S
H2360 C2373 0.930 . S
H2361 C2377 0.959 . S
H2362 C2377 0.959 . S
H2363 C2377 0.961 . S
H2364 C2378 0.960 . S
H2365 C2378 0.961 . S
H2366 C2378 0.959 . S
H2367 C2381 0.929 . S
H2368 C2382 0.931 . S
H2369 C2384 0.930 . S
C2370 H2358 0.930 . S
C2370 C2371 1.399 . S
C2370 C2375 1.399 . S
C2371 C2370 1.399 . S
C2371 C2372 1.376 . S
C2372 H2359 0.930 . S
C2372 C2371 1.376 . S
C2372 C2373 1.388 . S
C2373 H2360 0.930 . S
C2373 C2372 1.388 . S
C2373 C2374 1.390 . S
C2374 C2373 1.390 . S
C2374 C2375 1.394 . S
C2374 C2380 1.465 . S
C2375 C2370 1.399 . S
C2375 C2374 1.394 . S
C2375 C2376 1.516 . S
C2376 C2375 1.516 . S
C2376 C2377 1.502 . S
C2376 C2378 1.561 . S
C2376 C2379 1.526 . S
C2377 H2361 0.959 . S
C2377 H2362 0.959 . S
C2377 H2363 0.961 . S
C2377 C2376 1.502 . S
C2378 H2364 0.960 . S
C2378 H2365 0.961 . S
C2378 H2366 0.959 . S
C2378 C2376 1.561 . S
C2379 C2376 1.526 . S
C2379 C2380 1.396 . S
C2379 C2384 1.390 . S
C2380 C2374 1.465 . S
C2380 C2379 1.396 . S
C2380 C2381 1.399 . S
C2381 H2367 0.929 . S
C2381 C2380 1.399 . S
C2381 C2382 1.385 . S
C2382 H2368 0.931 . S
C2382 C2381 1.385 . S
C2382 C2383 1.389 . S
C2383 C2382 1.389 . S
C2383 C2384 1.387 . S
C2384 H2369 0.930 . S
C2384 C2379 1.390 . S
C2384 C2383 1.387 . S
H2385 C2397 0.930 . S
H2386 C2399 0.930 . S
H2387 C2400 0.930 . S
H2388 C2404 0.959 . S
H2389 C2404 0.959 . S
H2390 C2404 0.961 . S
H2391 C2405 0.960 . S
H2392 C2405 0.961 . S
H2393 C2405 0.959 . S
H2394 C2408 0.929 . S
H2395 C2409 0.931 . S
H2396 C2411 0.930 . S
C2397 H2385 0.930 . S
C2397 C2398 1.399 . S
C2397 C2402 1.399 . S
C2398 C2397 1.399 . S
C2398 C2399 1.376 . S
C2399 H2386 0.930 . S
C2399 C2398 1.376 . S
C2399 C2400 1.388 . S
C2400 H2387 0.930 . S
C2400 C2399 1.388 . S
C2400 C2401 1.390 . S
C2401 C2400 1.390 . S
C2401 C2402 1.394 . S
C2401 C2407 1.465 . S
C2402 C2397 1.399 . S
C2402 C2401 1.394 . S
C2402 C2403 1.516 . S
C2403 C2402 1.516 . S
C2403 C2404 1.502 . S
C2403 C2405 1.561 . S
C2403 C2406 1.526 . S
C2404 H2388 0.959 . S
C2404 H2389 0.959 . S
C2404 H2390 0.961 . S
C2404 C2403 1.502 . S
C2405 H2391 0.960 . S
C2405 H2392 0.961 . S
C2405 H2393 0.959 . S
C2405 C2403 1.561 . S
C2406 C2403 1.526 . S
C2406 C2407 1.396 . S
C2406 C2411 1.390 . S
C2407 C2401 1.465 . S
C2407 C2406 1.396 . S
C2407 C2408 1.399 . S
C2408 H2394 0.929 . S
C2408 C2407 1.399 . S
C2408 C2409 1.385 . S
C2409 H2395 0.931 . S
C2409 C2408 1.385 . S
C2409 C2410 1.389 . S
C2410 C2409 1.389 . S
C2410 C2411 1.387 . S
C2411 H2396 0.930 . S
C2411 C2406 1.390 . S
C2411 C2410 1.387 . S
H2412 C2424 0.930 . S
H2413 C2426 0.930 . S
H2414 C2427 0.930 . S
H2415 C2431 0.959 . S
H2416 C2431 0.959 . S
H2417 C2431 0.961 . S
H2418 C2432 0.960 . S
H2419 C2432 0.961 . S
H2420 C2432 0.959 . S
H2421 C2435 0.929 . S
H2422 C2436 0.931 . S
H2423 C2438 0.930 . S
C2424 H2412 0.930 . S
C2424 C2425 1.399 . S
C2424 C2429 1.399 . S
C2425 C2424 1.399 . S
C2425 C2426 1.376 . S
C2426 H2413 0.930 . S
C2426 C2425 1.376 . S
C2426 C2427 1.388 . S
C2427 H2414 0.930 . S
C2427 C2426 1.388 . S
C2427 C2428 1.390 . S
C2428 C2427 1.390 . S
C2428 C2429 1.394 . S
C2428 C2434 1.465 . S
C2429 C2424 1.399 . S
C2429 C2428 1.394 . S
C2429 C2430 1.516 . S
C2430 C2429 1.516 . S
C2430 C2431 1.502 . S
C2430 C2432 1.561 . S
C2430 C2433 1.526 . S
C2431 H2415 0.959 . S
C2431 H2416 0.959 . S
C2431 H2417 0.961 . S
C2431 C2430 1.502 . S
C2432 H2418 0.960 . S
C2432 H2419 0.961 . S
C2432 H2420 0.959 . S
C2432 C2430 1.561 . S
C2433 C2430 1.526 . S
C2433 C2434 1.396 . S
C2433 C2438 1.390 . S
C2434 C2428 1.465 . S
C2434 C2433 1.396 . S
C2434 C2435 1.399 . S
C2435 H2421 0.929 . S
C2435 C2434 1.399 . S
C2435 C2436 1.385 . S
C2436 H2422 0.931 . S
C2436 C2435 1.385 . S
C2436 C2437 1.389 . S
C2437 C2436 1.389 . S
C2437 C2438 1.387 . S
C2438 H2423 0.930 . S
C2438 C2433 1.390 . S
C2438 C2437 1.387 . S
H2439 C2451 0.930 . S
H2440 C2453 0.930 . S
H2441 C2454 0.930 . S
H2442 C2458 0.959 . S
H2443 C2458 0.959 . S
H2444 C2458 0.961 . S
H2445 C2459 0.960 . S
H2446 C2459 0.961 . S
H2447 C2459 0.959 . S
H2448 C2462 0.929 . S
H2449 C2463 0.931 . S
H2450 C2465 0.930 . S
C2451 H2439 0.930 . S
C2451 C2452 1.399 . S
C2451 C2456 1.399 . S
C2452 C2451 1.399 . S
C2452 C2453 1.376 . S
C2453 H2440 0.930 . S
C2453 C2452 1.376 . S
C2453 C2454 1.388 . S
C2454 H2441 0.930 . S
C2454 C2453 1.388 . S
C2454 C2455 1.390 . S
C2455 C2454 1.390 . S
C2455 C2456 1.394 . S
C2455 C2461 1.465 . S
C2456 C2451 1.399 . S
C2456 C2455 1.394 . S
C2456 C2457 1.516 . S
C2457 C2456 1.516 . S
C2457 C2458 1.502 . S
C2457 C2459 1.561 . S
C2457 C2460 1.526 . S
C2458 H2442 0.959 . S
C2458 H2443 0.959 . S
C2458 H2444 0.961 . S
C2458 C2457 1.502 . S
C2459 H2445 0.960 . S
C2459 H2446 0.961 . S
C2459 H2447 0.959 . S
C2459 C2457 1.561 . S
C2460 C2457 1.526 . S
C2460 C2461 1.396 . S
C2460 C2465 1.390 . S
C2461 C2455 1.465 . S
C2461 C2460 1.396 . S
C2461 C2462 1.399 . S
C2462 H2448 0.929 . S
C2462 C2461 1.399 . S
C2462 C2463 1.385 . S
C2463 H2449 0.931 . S
C2463 C2462 1.385 . S
C2463 C2464 1.389 . S
C2464 C2463 1.389 . S
C2464 C2465 1.387 . S
C2465 H2450 0.930 . S
C2465 C2460 1.390 . S
C2465 C2464 1.387 . S
H2466 C2478 0.930 . S
H2467 C2480 0.930 . S
H2468 C2481 0.930 . S
H2469 C2485 0.959 . S
H2470 C2485 0.959 . S
H2471 C2485 0.961 . S
H2472 C2486 0.960 . S
H2473 C2486 0.961 . S
H2474 C2486 0.959 . S
H2475 C2489 0.929 . S
H2476 C2490 0.931 . S
H2477 C2492 0.930 . S
C2478 H2466 0.930 . S
C2478 C2479 1.399 . S
C2478 C2483 1.399 . S
C2479 C2478 1.399 . S
C2479 C2480 1.376 . S
C2480 H2467 0.930 . S
C2480 C2479 1.376 . S
C2480 C2481 1.388 . S
C2481 H2468 0.930 . S
C2481 C2480 1.388 . S
C2481 C2482 1.390 . S
C2482 C2481 1.390 . S
C2482 C2483 1.394 . S
C2482 C2488 1.465 . S
C2483 C2478 1.399 . S
C2483 C2482 1.394 . S
C2483 C2484 1.516 . S
C2484 C2483 1.516 . S
C2484 C2485 1.502 . S
C2484 C2486 1.561 . S
C2484 C2487 1.526 . S
C2485 H2469 0.959 . S
C2485 H2470 0.959 . S
C2485 H2471 0.961 . S
C2485 C2484 1.502 . S
C2486 H2472 0.960 . S
C2486 H2473 0.961 . S
C2486 H2474 0.959 . S
C2486 C2484 1.561 . S
C2487 C2484 1.526 . S
C2487 C2488 1.396 . S
C2487 C2492 1.390 . S
C2488 C2482 1.465 . S
C2488 C2487 1.396 . S
C2488 C2489 1.399 . S
C2489 H2475 0.929 . S
C2489 C2488 1.399 . S
C2489 C2490 1.385 . S
C2490 H2476 0.931 . S
C2490 C2489 1.385 . S
C2490 C2491 1.389 . S
C2491 C2490 1.389 . S
C2491 C2492 1.387 . S
C2492 H2477 0.930 . S
C2492 C2487 1.390 . S
C2492 C2491 1.387 . S
H2493 C2505 0.930 . S
H2494 C2507 0.930 . S
H2495 C2508 0.930 . S
H2496 C2512 0.959 . S
H2497 C2512 0.959 . S
H2498 C2512 0.961 . S
H2499 C2513 0.960 . S
H2500 C2513 0.961 . S
H2501 C2513 0.959 . S
H2502 C2516 0.929 . S
H2503 C2517 0.931 . S
H2504 C2519 0.930 . S
C2505 H2493 0.930 . S
C2505 C2506 1.399 1_455 S
C2505 C2510 1.399 . S
C2506 C2505 1.399 1_655 S
C2506 C2507 1.376 . S
C2507 H2494 0.930 . S
C2507 C2506 1.376 . S
C2507 C2508 1.388 . S
C2508 H2495 0.930 . S
C2508 C2507 1.388 . S
C2508 C2509 1.390 . S
C2509 C2508 1.390 . S
C2509 C2510 1.394 1_655 S
C2509 C2515 1.465 . S
C2510 C2505 1.399 . S
C2510 C2509 1.394 1_455 S
C2510 C2511 1.516 . S
C2511 C2510 1.516 . S
C2511 C2512 1.502 . S
C2511 C2513 1.561 . S
C2511 C2514 1.526 . S
C2512 H2496 0.959 . S
C2512 H2497 0.959 . S
C2512 H2498 0.961 . S
C2512 C2511 1.502 . S
C2513 H2499 0.960 . S
C2513 H2500 0.961 . S
C2513 H2501 0.959 . S
C2513 C2511 1.561 . S
C2514 C2511 1.526 . S
C2514 C2515 1.396 1_455 S
C2514 C2519 1.390 . S
C2515 C2509 1.465 . S
C2515 C2514 1.396 1_655 S
C2515 C2516 1.399 . S
C2516 H2502 0.929 . S
C2516 C2515 1.399 . S
C2516 C2517 1.385 . S
C2517 H2503 0.931 . S
C2517 C2516 1.385 . S
C2517 C2518 1.389 . S
C2518 C2517 1.389 . S
C2518 C2519 1.387 1_655 S
C2519 H2504 0.930 . S
C2519 C2514 1.390 . S
C2519 C2518 1.387 1_455 S
H2520 C2532 0.930 . S
H2521 C2534 0.930 . S
H2522 C2535 0.930 . S
H2523 C2539 0.959 . S
H2524 C2539 0.959 . S
H2525 C2539 0.961 . S
H2526 C2540 0.960 . S
H2527 C2540 0.961 . S
H2528 C2540 0.959 . S
H2529 C2543 0.929 . S
H2530 C2544 0.931 . S
H2531 C2546 0.930 . S
C2532 H2520 0.930 . S
C2532 C2533 1.399 . S
C2532 C2537 1.399 . S
C2533 C2532 1.399 . S
C2533 C2534 1.376 . S
C2534 H2521 0.930 . S
C2534 C2533 1.376 . S
C2534 C2535 1.388 . S
C2535 H2522 0.930 . S
C2535 C2534 1.388 . S
C2535 C2536 1.390 . S
C2536 C2535 1.390 . S
C2536 C2537 1.394 . S
C2536 C2542 1.465 . S
C2537 C2532 1.399 . S
C2537 C2536 1.394 . S
C2537 C2538 1.516 . S
C2538 C2537 1.516 . S
C2538 C2539 1.502 . S
C2538 C2540 1.561 . S
C2538 C2541 1.526 . S
C2539 H2523 0.959 . S
C2539 H2524 0.959 . S
C2539 H2525 0.961 . S
C2539 C2538 1.502 . S
C2540 H2526 0.960 . S
C2540 H2527 0.961 . S
C2540 H2528 0.959 . S
C2540 C2538 1.561 . S
C2541 C2538 1.526 . S
C2541 C2542 1.396 . S
C2541 C2546 1.390 . S
C2542 C2536 1.465 . S
C2542 C2541 1.396 . S
C2542 C2543 1.399 . S
C2543 H2529 0.929 . S
C2543 C2542 1.399 . S
C2543 C2544 1.385 . S
C2544 H2530 0.931 . S
C2544 C2543 1.385 . S
C2544 C2545 1.389 . S
C2545 C2544 1.389 . S
C2545 C2546 1.387 . S
C2546 H2531 0.930 . S
C2546 C2541 1.390 . S
C2546 C2545 1.387 . S
H2547 C2559 0.930 . S
H2548 C2561 0.930 . S
H2549 C2562 0.930 . S
H2550 C2566 0.959 . S
H2551 C2566 0.959 . S
H2552 C2566 0.961 . S
H2553 C2567 0.960 . S
H2554 C2567 0.961 . S
H2555 C2567 0.959 . S
H2556 C2570 0.929 . S
H2557 C2571 0.931 . S
H2558 C2573 0.930 . S
C2559 H2547 0.930 . S
C2559 C2560 1.399 1_565 S
C2559 C2564 1.399 . S
C2560 C2559 1.399 1_545 S
C2560 C2561 1.376 . S
C2561 H2548 0.930 . S
C2561 C2560 1.376 . S
C2561 C2562 1.388 . S
C2562 H2549 0.930 . S
C2562 C2561 1.388 . S
C2562 C2563 1.390 . S
C2563 C2562 1.390 . S
C2563 C2564 1.394 1_545 S
C2563 C2569 1.465 . S
C2564 C2559 1.399 . S
C2564 C2563 1.394 1_565 S
C2564 C2565 1.516 . S
C2565 C2564 1.516 . S
C2565 C2566 1.502 . S
C2565 C2567 1.561 . S
C2565 C2568 1.526 . S
C2566 H2550 0.959 . S
C2566 H2551 0.959 . S
C2566 H2552 0.961 . S
C2566 C2565 1.502 . S
C2567 H2553 0.960 . S
C2567 H2554 0.961 . S
C2567 H2555 0.959 . S
C2567 C2565 1.561 . S
C2568 C2565 1.526 . S
C2568 C2569 1.396 1_565 S
C2568 C2573 1.390 . S
C2569 C2563 1.465 . S
C2569 C2568 1.396 1_545 S
C2569 C2570 1.399 . S
C2570 H2556 0.929 . S
C2570 C2569 1.399 . S
C2570 C2571 1.385 . S
C2571 H2557 0.931 . S
C2571 C2570 1.385 . S
C2571 C2572 1.389 . S
C2572 C2571 1.389 . S
C2572 C2573 1.387 1_545 S
C2573 H2558 0.930 . S
C2573 C2568 1.390 . S
C2573 C2572 1.387 1_565 S
C643 C7 1.519 1_455 S
C655 C458 1.496 1_655 S
C670 C23 1.581 . S
C682 C471 1.523 . S
C709 C500 1.431 1_545 S
C697 C37 1.517 . S
C724 C35 1.536 1_545 S
C736 C513 1.476 . S
C751 C9 1.559 1_455 S
C763 C534 1.507 . S
C778 C21 1.556 . S
C790 C563 1.468 . S
C805 C49 1.482 . S
C817 C542 1.512 1_655 S
C844 C555 1.537 . S
C832 C65 1.552 . S
C871 C521 1.545 1_545 S
C859 C79 1.508 1_565 S
C886 C77 1.510 . S
C898 C492 1.468 1_545 S
C925 C450 1.519 1_655 S
C913 C51 1.558 1_655 S
C940 C63 1.489 . S
C952 C479 1.541 . S
C967 C91 1.559 . S
C979 C584 1.560 . S
C994 C107 1.586 . S
C1006 C597 1.609 . S
C1033 C626 1.568 . S
C1021 C121 1.607 . S
C1048 C119 1.524 . S
C1060 C261 1.582 . S
C1075 C93 1.628 . S
C1087 C282 1.580 . S
C1102 C105 1.583 . S
C1114 C311 1.496 . S
C1129 C133 1.560 . S
C1141 C290 1.514 . S
C1156 C149 1.573 . S
C1168 C303 1.484 . S
C1195 C269 1.521 . S
C1183 C163 1.599 . S
C1222 C618 1.583 . S
C1210 C161 1.549 . S
C1249 C576 1.555 . S
C1237 C135 1.582 . S
C1276 C605 1.537 . S
C1264 C147 1.589 . S
C1291 C175 1.517 . S
C1303 C332 1.532 . S
C1318 C191 1.587 . S
C1330 C345 1.558 . S
C1345 C205 1.613 . S
C1357 C374 1.475 . S
C1372 C203 1.622 . S
C1384 C387 1.613 . S
C1411 C408 1.572 . S
C1399 C177 1.624 . S
C1438 C437 1.547 . S
C1426 C189 1.563 . S
C1465 C416 1.578 . S
C1453 C217 1.588 . S
C1492 C429 1.546 . S
C1480 C233 1.574 . S
C1507 C247 1.605 . S
C1519 C395 1.531 . S
C1546 C366 1.502 . S
C1534 C245 1.525 . S
C1561 C219 1.597 . S
C1573 C324 1.570 . S
C1600 C353 1.523 . S
C1588 C231 1.555 . S
C1627 C264 1.371 . S
C1615 C8 1.530 . S
C1642 C17 1.466 . S
C1654 C285 1.359 . S
C1681 C313 1.461 . S
C1669 C31 1.518 . S
C1708 C334 1.357 . S
C1696 C36 1.523 . S
C1735 C348 1.392 . S
C1723 C3 1.506 . S
C1762 C376 1.410 . S
C1750 C22 1.473 . S
C1777 C50 1.540 . S
C1789 C369 1.446 . S
C1804 C59 1.478 . S
C1816 C327 1.296 . S
C1831 C73 1.517 . S
C1843 C355 1.441 . S
C1858 C78 1.549 . S
C1870 C292 1.516 . S
C1897 C306 1.414 . S
C1885 C45 1.524 . S
C1912 C64 1.494 . S
C1924 C271 1.393 . S
C1951 C390 1.420 . S
C1939 C92 1.520 . S
C1966 C101 1.547 . S
C1978 C411 1.452 . S
C1993 C115 1.561 . S
C2005 C439 1.391 . S
C2032 C460 1.327 . S
C2020 C120 1.467 . S
C2047 C87 1.512 . S
C2059 C474 1.377 . S
C2074 C106 1.434 . S
C2086 C502 1.376 . S
C2101 C134 1.465 . S
C2113 C495 1.332 . S
C2128 C143 1.461 . S
C2140 C453 1.300 . S
C2167 C481 1.417 . S
C2155 C157 1.529 . S
C2182 C162 1.535 . S
C2194 C418 1.401 . S
C2209 C129 1.578 . S
C2221 C432 1.422 . S
C2248 C397 1.428 . S
C2236 C148 1.564 . S
C2275 C516 1.315 1_545 S
C2263 C176 1.483 . S
C2290 C185 1.465 . S
C2302 C537 1.345 1_655 S
C2317 C199 1.522 . S
C2329 C565 1.451 . S
C2356 C586 1.448 . S
C2344 C204 1.501 . S
C2383 C600 1.409 . S
C2371 C171 1.557 . S
C2398 C190 1.532 . S
C2410 C628 1.428 . S
C2425 C218 1.550 . S
C2437 C621 1.319 . S
C2452 C227 1.555 . S
C2464 C579 1.351 . S
C2491 C607 1.457 . S
C2479 C241 1.565 . S
C2518 C544 1.404 1_655 S
C2506 C246 1.458 . S
C2545 C558 1.323 . S
C2533 C213 1.521 . S
C2560 C232 1.453 . S
C2572 C523 1.370 1_545 S
