# Generated by pormake.
# Topology pto, (3,4)-cn, num edge types: 1
# Building blocks:
#     Node 0, Type 0, BuildingBlock: WUSLED_clean_sbu_0, # of connection points: 3
#     Node 1, Type 0, BuildingBlock: WUSLED_clean_sbu_0, # of connection points: 3
#     Node 2, Type 0, BuildingBlock: WUSLED_clean_sbu_0, # of connection points: 3
#     Node 3, Type 0, BuildingBlock: WUSLED_clean_sbu_0, # of connection points: 3
#     Node 4, Type 0, BuildingBlock: WUSLED_clean_sbu_0, # of connection points: 3
#     Node 5, Type 0, BuildingBlock: WUSLED_clean_sbu_0, # of connection points: 3
#     Node 6, Type 0, BuildingBlock: WUSLED_clean_sbu_0, # of connection points: 3
#     Node 7, Type 0, BuildingBlock: WUSLED_clean_sbu_0, # of connection points: 3
#     Node 8, Type 1, BuildingBlock: NAHDIM_clean_linker_0, # of connection points: 4
#     Node 9, Type 1, BuildingBlock: NAHDIM_clean_linker_0, # of connection points: 4
#     Node 10, Type 1, BuildingBlock: NAHDIM_clean_linker_0, # of connection points: 4
#     Node 11, Type 1, BuildingBlock: NAHDIM_clean_linker_0, # of connection points: 4
#     Node 12, Type 1, BuildingBlock: NAHDIM_clean_linker_0, # of connection points: 4
#     Node 13, Type 1, BuildingBlock: NAHDIM_clean_linker_0, # of connection points: 4
#     Edge 14, Type (0, 1), BuildingBlock: KIFKEQ_clean_linker_1, # of connection points: 2
#     Edge 15, Type (0, 1), BuildingBlock: KIFKEQ_clean_linker_1, # of connection points: 2
#     Edge 16, Type (0, 1), BuildingBlock: KIFKEQ_clean_linker_1, # of connection points: 2
#     Edge 17, Type (0, 1), BuildingBlock: KIFKEQ_clean_linker_1, # of connection points: 2
#     Edge 18, Type (0, 1), BuildingBlock: KIFKEQ_clean_linker_1, # of connection points: 2
#     Edge 19, Type (0, 1), BuildingBlock: KIFKEQ_clean_linker_1, # of connection points: 2
#     Edge 20, Type (0, 1), BuildingBlock: KIFKEQ_clean_linker_1, # of connection points: 2
#     Edge 21, Type (0, 1), BuildingBlock: KIFKEQ_clean_linker_1, # of connection points: 2
#     Edge 22, Type (0, 1), BuildingBlock: KIFKEQ_clean_linker_1, # of connection points: 2
#     Edge 23, Type (0, 1), BuildingBlock: KIFKEQ_clean_linker_1, # of connection points: 2
#     Edge 24, Type (0, 1), BuildingBlock: KIFKEQ_clean_linker_1, # of connection points: 2
#     Edge 25, Type (0, 1), BuildingBlock: KIFKEQ_clean_linker_1, # of connection points: 2
#     Edge 26, Type (0, 1), BuildingBlock: KIFKEQ_clean_linker_1, # of connection points: 2
#     Edge 27, Type (0, 1), BuildingBlock: KIFKEQ_clean_linker_1, # of connection points: 2
#     Edge 28, Type (0, 1), BuildingBlock: KIFKEQ_clean_linker_1, # of connection points: 2
#     Edge 29, Type (0, 1), BuildingBlock: KIFKEQ_clean_linker_1, # of connection points: 2
#     Edge 30, Type (0, 1), BuildingBlock: KIFKEQ_clean_linker_1, # of connection points: 2
#     Edge 31, Type (0, 1), BuildingBlock: KIFKEQ_clean_linker_1, # of connection points: 2
#     Edge 32, Type (0, 1), BuildingBlock: KIFKEQ_clean_linker_1, # of connection points: 2
#     Edge 33, Type (0, 1), BuildingBlock: KIFKEQ_clean_linker_1, # of connection points: 2
#     Edge 34, Type (0, 1), BuildingBlock: KIFKEQ_clean_linker_1, # of connection points: 2
#     Edge 35, Type (0, 1), BuildingBlock: KIFKEQ_clean_linker_1, # of connection points: 2
#     Edge 36, Type (0, 1), BuildingBlock: KIFKEQ_clean_linker_1, # of connection points: 2
#     Edge 37, Type (0, 1), BuildingBlock: KIFKEQ_clean_linker_1, # of connection points: 2
# Relax obj value: 0.001
# Max RMSD: 0.071
# Mean RMSD: 0.020
data_MOF--net-pto--node1-WUSLED_clean_sbu_0--node2-NAHDIM_clean_linker_0--edge1-KIFKEQ_clean_linker_1
_symmetry_space_group_name_H-M    P1
_symmetry_Int_Tables_number       1
_symmetry_cell_setting            triclinic
loop_
_symmetry_equiv_pos_as_xyz
'x, y, z'
_cell_length_a     75.552465
_cell_length_b     71.872539
_cell_length_c     67.957291
_cell_angle_alpha  89.09354
_cell_angle_beta   90.841163
_cell_angle_gamma 90.52488
loop_
_atom_site_label
_atom_site_type_symbol
_atom_site_fract_x
_atom_site_fract_y
_atom_site_fract_z
_atom_type_partial_charge
C0 C 0.2552 0.2515 0.30073 0.0
C1 C 0.26435 0.23594 0.29411 0.0
C2 C 0.26046 0.22031 0.3259 0.0
C3 C 0.26688 0.22045 0.30654 0.0
C4 C 0.25145 0.23607 0.33246 0.0
C5 C 0.24882 0.25146 0.31997 0.0
U6 U 0.26923 0.2845 0.25901 0.0
O7 O 0.2534 0.2977 0.23535 0.0
O8 O 0.26751 0.31502 0.25686 0.0
C9 C 0.25595 0.31451 0.24224 0.0
C10 C 0.25228 0.26794 0.28792 0.0
C11 C 0.23978 0.32531 0.24507 0.0
C12 C 0.21121 0.32911 0.26037 0.0
C13 C 0.22675 0.31899 0.25813 0.0
C14 C 0.22171 0.35217 0.23679 0.0
C15 C 0.20845 0.34577 0.24964 0.0
C16 C 0.23723 0.34199 0.23452 0.0
C17 C 0.31286 0.27549 0.23247 0.0
C18 C 0.3213 0.28648 0.19986 0.0
C19 C 0.34373 0.27558 0.223 0.0
C20 C 0.33068 0.27195 0.23693 0.0
C21 C 0.33922 0.28274 0.2042 0.0
C22 C 0.30824 0.28294 0.21389 0.0
C23 C 0.29941 0.27098 0.24734 0.0
O24 O 0.26341 0.28186 0.2906 0.0
O25 O 0.24898 0.2646 0.26924 0.0
O26 O 0.28392 0.26525 0.24064 0.0
O27 O 0.29826 0.28277 0.26185 0.0
H28 H 0.26948 0.23572 0.27931 0.0
H29 H 0.2737 0.20853 0.30089 0.0
H30 H 0.24663 0.23666 0.34737 0.0
H31 H 0.24185 0.26341 0.32539 0.0
H32 H 0.20137 0.32393 0.27057 0.0
H33 H 0.22857 0.30616 0.26649 0.0
H34 H 0.21992 0.36482 0.22815 0.0
H35 H 0.24717 0.34706 0.22437 0.0
H36 H 0.31729 0.29184 0.18552 0.0
H37 H 0.3574 0.27291 0.22706 0.0
H38 H 0.33452 0.2663 0.25123 0.0
H39 H 0.29455 0.28587 0.21015 0.0
C40 C 0.25657 0.77269 0.7052 0.0
C41 C 0.2701 0.78526 0.7104 0.0
C42 C 0.26289 0.80479 0.68177 0.0
C43 C 0.27322 0.80118 0.69881 0.0
C44 C 0.24958 0.7919 0.67647 0.0
C45 C 0.24644 0.77601 0.6881 0.0
U46 U 0.26877 0.74038 0.74796 0.0
O47 O 0.25236 0.72812 0.77132 0.0
O48 O 0.26632 0.70992 0.75118 0.0
C49 C 0.25475 0.71102 0.76536 0.0
C50 C 0.25272 0.75632 0.71771 0.0
C51 C 0.23866 0.69953 0.76299 0.0
C52 C 0.20778 0.69576 0.75312 0.0
C53 C 0.22299 0.70692 0.75488 0.0
C54 C 0.22385 0.66963 0.76719 0.0
C55 C 0.208 0.67696 0.7593 0.0
C56 C 0.23899 0.68082 0.76905 0.0
C57 C 0.31166 0.74977 0.7769 0.0
C58 C 0.31852 0.73625 0.80909 0.0
C59 C 0.34121 0.75301 0.79104 0.0
C60 C 0.32913 0.75634 0.77564 0.0
C61 C 0.33601 0.7431 0.80804 0.0
C62 C 0.30647 0.7395 0.79361 0.0
C63 C 0.29901 0.7541 0.76086 0.0
O64 O 0.26363 0.74231 0.71601 0.0
O65 O 0.24903 0.75998 0.73608 0.0
O66 O 0.28353 0.76023 0.76634 0.0
O67 O 0.29788 0.74181 0.74678 0.0
H68 H 0.27807 0.78289 0.72357 0.0
H69 H 0.28342 0.81089 0.70349 0.0
H70 H 0.24156 0.79407 0.6633 0.0
H71 H 0.23601 0.76638 0.68383 0.0
H72 H 0.19579 0.70194 0.74715 0.0
H73 H 0.22248 0.72134 0.75003 0.0
H74 H 0.22467 0.65515 0.77172 0.0
H75 H 0.251 0.67484 0.77522 0.0
H76 H 0.31417 0.72837 0.82187 0.0
H77 H 0.35451 0.75864 0.78986 0.0
H78 H 0.33336 0.76429 0.76284 0.0
H79 H 0.29305 0.73418 0.79477 0.0
C80 C 0.7214 0.76248 0.22408 0.0
C81 C 0.72516 0.74857 0.21056 0.0
C82 C 0.69632 0.75291 0.19466 0.0
C83 C 0.71275 0.74385 0.19597 0.0
C84 C 0.6927 0.76695 0.20821 0.0
C85 C 0.70514 0.77167 0.2228 0.0
U86 U 0.76451 0.7529 0.25156 0.0
O87 O 0.78498 0.77181 0.26329 0.0
O88 O 0.77076 0.75282 0.28332 0.0
C89 C 0.78203 0.76678 0.28166 0.0
C90 C 0.73423 0.76718 0.23975 0.0
C91 C 0.77994 0.78187 0.29586 0.0
C92 C 0.77176 0.81347 0.30401 0.0
C93 C 0.77324 0.79935 0.29017 0.0
C94 C 0.78336 0.79271 0.3294 0.0
C95 C 0.77678 0.81028 0.32379 0.0
C96 C 0.78496 0.77869 0.31556 0.0
C97 C 0.79265 0.71199 0.23545 0.0
C98 C 0.82311 0.70674 0.24604 0.0
C99 C 0.80623 0.68194 0.23068 0.0
C100 C 0.79166 0.69369 0.22874 0.0
C101 C 0.82219 0.68831 0.23931 0.0
C102 C 0.80845 0.71846 0.2442 0.0
C103 C 0.77702 0.72397 0.2334 0.0
O104 O 0.73558 0.75474 0.25407 0.0
O105 O 0.74966 0.77344 0.23371 0.0
O106 O 0.78004 0.74125 0.22766 0.0
O107 O 0.76562 0.72257 0.24777 0.0
H108 H 0.73767 0.74133 0.21135 0.0
H109 H 0.7161 0.73318 0.18562 0.0
H110 H 0.68011 0.77405 0.20779 0.0
H111 H 0.70201 0.78239 0.2332 0.0
H112 H 0.76647 0.8268 0.2993 0.0
H113 H 0.76915 0.8021 0.27507 0.0
H114 H 0.78752 0.78989 0.34447 0.0
H115 H 0.79019 0.76532 0.32024 0.0
H116 H 0.83519 0.7122 0.25257 0.0
H117 H 0.80487 0.66776 0.2257 0.0
H118 H 0.77952 0.68842 0.2221 0.0
H119 H 0.80945 0.73254 0.24957 0.0
C120 C 0.74284 0.23634 0.71976 0.0
C121 C 0.75149 0.23952 0.70184 0.0
C122 C 0.74965 0.20645 0.6946 0.0
C123 C 0.75476 0.2247 0.68929 0.0
C124 C 0.74089 0.2034 0.71249 0.0
C125 C 0.73749 0.21822 0.72491 0.0
U126 U 0.75624 0.28202 0.74447 0.0
O127 O 0.73992 0.30539 0.75387 0.0
O128 O 0.75539 0.28937 0.77574 0.0
C129 C 0.74348 0.30233 0.77265 0.0
C130 C 0.7397 0.25149 0.73362 0.0
C131 C 0.7283 0.3016 0.786 0.0
C132 C 0.69799 0.2927 0.79369 0.0
C133 C 0.71198 0.29362 0.78038 0.0
C134 C 0.71653 0.3076 0.81832 0.0
C135 C 0.70019 0.29953 0.81288 0.0
C136 C 0.73041 0.30865 0.805 0.0
C137 C 0.79939 0.30678 0.73131 0.0
C138 C 0.80726 0.33748 0.74336 0.0
C139 C 0.82987 0.31777 0.73008 0.0
C140 C 0.81711 0.30399 0.72639 0.0
C141 C 0.82511 0.33463 0.73871 0.0
C142 C 0.79452 0.32363 0.73979 0.0
C143 C 0.78639 0.29167 0.72835 0.0
O144 O 0.7507 0.25213 0.74875 0.0
O145 O 0.7363 0.26798 0.72585 0.0
O146 O 0.77088 0.29661 0.72102 0.0
O147 O 0.7852 0.27966 0.74305 0.0
H148 H 0.75589 0.2534 0.69765 0.0
H149 H 0.76169 0.22742 0.67569 0.0
H150 H 0.73664 0.18953 0.71688 0.0
H151 H 0.7308 0.21548 0.73867 0.0
H152 H 0.68561 0.28625 0.78915 0.0
H153 H 0.71012 0.28795 0.76581 0.0
H154 H 0.71857 0.31317 0.83291 0.0
H155 H 0.7429 0.31485 0.8096 0.0
H156 H 0.80322 0.35022 0.75025 0.0
H157 H 0.84348 0.31522 0.72619 0.0
H158 H 0.82112 0.29104 0.7199 0.0
H159 H 0.78093 0.32596 0.74391 0.0
C160 C 0.79625 0.7098 0.77177 0.0
C161 C 0.79909 0.70233 0.75308 0.0
C162 C 0.82441 0.68497 0.76591 0.0
C163 C 0.81298 0.68997 0.75022 0.0
C164 C 0.82179 0.69279 0.78446 0.0
C165 C 0.80779 0.70501 0.78737 0.0
U166 U 0.76824 0.75272 0.75945 0.0
O167 O 0.73937 0.75609 0.75852 0.0
O168 O 0.75553 0.77254 0.77909 0.0
C169 C 0.73949 0.76771 0.77327 0.0
C170 C 0.78116 0.72217 0.77543 0.0
C171 C 0.72687 0.76342 0.78904 0.0
C172 C 0.71258 0.74144 0.81138 0.0
C173 C 0.72508 0.74532 0.79685 0.0
C174 C 0.70381 0.77378 0.81073 0.0
C175 C 0.70171 0.75562 0.81845 0.0
C176 C 0.71624 0.77761 0.79614 0.0
C177 C 0.78094 0.78458 0.7164 0.0
C178 C 0.76336 0.81148 0.70693 0.0
C179 C 0.78902 0.80347 0.68794 0.0
C180 C 0.79219 0.7883 0.70061 0.0
C181 C 0.77448 0.81518 0.69086 0.0
C182 C 0.76655 0.7963 0.71959 0.0
C183 C 0.78413 0.76822 0.72916 0.0
O184 O 0.78523 0.73888 0.7818 0.0
O185 O 0.76833 0.72223 0.76213 0.0
O186 O 0.77239 0.75472 0.72752 0.0
O187 O 0.78849 0.7718 0.74752 0.0
H188 H 0.79052 0.70588 0.7407 0.0
H189 H 0.81481 0.68433 0.73571 0.0
H190 H 0.83029 0.68908 0.79686 0.0
H191 H 0.80585 0.71057 0.8019 0.0
H192 H 0.71122 0.72726 0.81681 0.0
H193 H 0.73321 0.73416 0.79155 0.0
H194 H 0.69593 0.78511 0.81604 0.0
H195 H 0.71752 0.79169 0.79034 0.0
H196 H 0.75218 0.82033 0.70975 0.0
H197 H 0.7977 0.80573 0.67558 0.0
H198 H 0.80333 0.77934 0.69792 0.0
H199 H 0.75775 0.79362 0.73178 0.0
C200 C 0.7295 0.25506 0.21865 0.0
C201 C 0.73104 0.27056 0.20594 0.0
C202 C 0.70108 0.26508 0.19343 0.0
C203 C 0.71695 0.27551 0.19337 0.0
C204 C 0.69979 0.24941 0.20601 0.0
C205 C 0.71387 0.24446 0.21851 0.0
U206 U 0.77481 0.26409 0.24237 0.0
O207 O 0.78331 0.26138 0.27333 0.0
O208 O 0.79577 0.24435 0.25095 0.0
C209 C 0.79417 0.24768 0.2698 0.0
C210 C 0.74384 0.25 0.23247 0.0
C211 C 0.79233 0.23118 0.28268 0.0
C212 C 0.77436 0.20684 0.2979 0.0
C213 C 0.77591 0.22218 0.28505 0.0
C214 C 0.80568 0.2092 0.30579 0.0
C215 C 0.78924 0.20021 0.30847 0.0
C216 C 0.80719 0.22454 0.29303 0.0
C217 C 0.80248 0.30622 0.22718 0.0
C218 C 0.83047 0.31322 0.2436 0.0
C219 C 0.82037 0.3325 0.21616 0.0
C220 C 0.80513 0.32143 0.2144 0.0
C221 C 0.83324 0.32854 0.23079 0.0
C222 C 0.81524 0.30215 0.24178 0.0
C223 C 0.78641 0.29471 0.22519 0.0
O224 O 0.75872 0.24492 0.22444 0.0
O225 O 0.7462 0.26136 0.24727 0.0
O226 O 0.77593 0.29464 0.24046 0.0
O227 O 0.7888 0.27806 0.21802 0.0
H228 H 0.74305 0.27892 0.20593 0.0
H229 H 0.7183 0.28773 0.18397 0.0
H230 H 0.68786 0.24093 0.2062 0.0
H231 H 0.7125 0.23243 0.22819 0.0
H232 H 0.76156 0.20013 0.29951 0.0
H233 H 0.7643 0.2271 0.27708 0.0
H234 H 0.81734 0.20463 0.31391 0.0
H235 H 0.81995 0.23136 0.2914 0.0
H236 H 0.83997 0.30991 0.25518 0.0
H237 H 0.82218 0.34401 0.20589 0.0
H238 H 0.79542 0.32471 0.203 0.0
H239 H 0.81337 0.29044 0.25181 0.0
C240 C 0.2423 0.23632 0.7199 0.0
C241 C 0.25685 0.22454 0.72281 0.0
C242 C 0.24624 0.2048 0.6962 0.0
C243 C 0.25883 0.2089 0.71103 0.0
C244 C 0.23185 0.21687 0.69323 0.0
C245 C 0.2299 0.23246 0.70499 0.0
U246 U 0.2571 0.26843 0.76138 0.0
O247 O 0.25545 0.29887 0.76347 0.0
O248 O 0.24145 0.28098 0.7847 0.0
C249 C 0.2441 0.298 0.77795 0.0
C250 C 0.23968 0.25252 0.7324 0.0
C251 C 0.22805 0.30921 0.77519 0.0
C252 C 0.202 0.31806 0.75599 0.0
C253 C 0.2173 0.30737 0.75832 0.0
C254 C 0.20797 0.33238 0.78747 0.0
C255 C 0.19715 0.33067 0.77056 0.0
C256 C 0.2233 0.32175 0.78973 0.0
C257 C 0.30042 0.25976 0.78932 0.0
C258 C 0.31409 0.28253 0.81093 0.0
C259 C 0.32461 0.25078 0.81127 0.0
C260 C 0.31201 0.24622 0.79681 0.0
C261 C 0.32588 0.26902 0.81845 0.0
C262 C 0.30143 0.27792 0.79656 0.0
C263 C 0.28735 0.25475 0.77401 0.0
O264 O 0.23674 0.2487 0.75105 0.0
O265 O 0.25088 0.26641 0.72976 0.0
O266 O 0.286 0.26652 0.75907 0.0
O267 O 0.27195 0.24886 0.78049 0.0
H268 H 0.26656 0.22736 0.7343 0.0
H269 H 0.26999 0.19983 0.71379 0.0
H270 H 0.2221 0.21434 0.68172 0.0
H271 H 0.21864 0.24147 0.7025 0.0
H272 H 0.19382 0.31625 0.74292 0.0
H273 H 0.2207 0.29762 0.747 0.0
H274 H 0.20469 0.34208 0.79886 0.0
H275 H 0.23146 0.32333 0.80286 0.0
H276 H 0.3148 0.29676 0.81591 0.0
H277 H 0.33323 0.23994 0.81694 0.0
H278 H 0.31132 0.2321 0.79148 0.0
H279 H 0.29251 0.28856 0.791 0.0
C280 C 0.21938 0.73419 0.26201 0.0
C281 C 0.21828 0.72463 0.2442 0.0
C282 C 0.19412 0.7054 0.25692 0.0
C283 C 0.20572 0.71042 0.24164 0.0
C284 C 0.19538 0.71503 0.27478 0.0
C285 C 0.20788 0.7293 0.27727 0.0
U286 U 0.26264 0.75858 0.24852 0.0
O287 O 0.26948 0.78835 0.24685 0.0
O288 O 0.28369 0.76999 0.26765 0.0
C289 C 0.28094 0.78718 0.26155 0.0
C290 C 0.23264 0.74901 0.26503 0.0
C291 C 0.27882 0.80083 0.27718 0.0
C292 C 0.26091 0.81547 0.30186 0.0
C293 C 0.26269 0.80246 0.28694 0.0
C294 C 0.2914 0.82524 0.29748 0.0
C295 C 0.27526 0.82702 0.30735 0.0
C296 C 0.29313 0.81227 0.28253 0.0
C297 C 0.29068 0.74037 0.20717 0.0
C298 C 0.31883 0.755 0.19921 0.0
C299 C 0.30902 0.72753 0.18178 0.0
C300 C 0.29354 0.727 0.19282 0.0
C301 C 0.32193 0.74146 0.18493 0.0
C302 C 0.30335 0.75445 0.21024 0.0
C303 C 0.2747 0.73927 0.2192 0.0
O304 O 0.24814 0.74337 0.27168 0.0
O305 O 0.23381 0.76155 0.25079 0.0
O306 O 0.26359 0.75312 0.21678 0.0
O307 O 0.27748 0.73471 0.23778 0.0
H308 H 0.22712 0.72816 0.23227 0.0
H309 H 0.20499 0.70351 0.22761 0.0
H310 H 0.1869 0.71137 0.28697 0.0
H311 H 0.20865 0.73646 0.29118 0.0
H312 H 0.24823 0.81661 0.30894 0.0
H313 H 0.25149 0.79369 0.28299 0.0
H314 H 0.3028 0.83367 0.30151 0.0
H315 H 0.30571 0.81112 0.2752 0.0
H316 H 0.32836 0.76607 0.20184 0.0
H317 H 0.31106 0.71676 0.1711 0.0
H318 H 0.2839 0.716 0.19033 0.0
H319 H 0.30132 0.76491 0.22127 0.0
C320 C 0.95931 0.39496 0.22778 0.0
C321 C 0.94633 0.40502 0.24098 0.0
C322 C 0.95712 0.43677 0.23798 0.0
C323 C 0.9637 0.44032 0.25696 0.0
C324 C 0.97737 0.45338 0.25993 0.0
C325 C 0.9847 0.46292 0.24353 0.0
C326 C 0.97766 0.45975 0.22442 0.0
C327 C 0.9637 0.44692 0.22196 0.0
C328 C 0.98424 0.4567 0.28055 0.0
C329 C 0.98527 0.46942 0.20654 0.0
C330 C 0.08183 0.40279 0.27571 0.0
C331 C 0.09142 0.41273 0.25879 0.0
C332 C 0.07914 0.44357 0.25921 0.0
C333 C 0.0721 0.44644 0.24024 0.0
C334 C 0.05735 0.4579 0.23709 0.0
C335 C 0.04937 0.46643 0.25334 0.0
C336 C 0.05677 0.46387 0.27247 0.0
C337 C 0.07182 0.45272 0.27508 0.0
C338 C 0.05007 0.46057 0.21646 0.0
C339 C 0.04845 0.47237 0.29023 0.0
C340 C 0.07659 0.58972 0.24903 0.0
C341 C 0.07087 0.58066 0.23183 0.0
C342 C 0.05528 0.56989 0.2316 0.0
C343 C 0.04545 0.56762 0.24906 0.0
C344 C 0.05108 0.57681 0.26636 0.0
C345 C 0.06646 0.58794 0.26601 0.0
C346 C 0.04936 0.56089 0.21265 0.0
C347 C 0.04097 0.57472 0.28526 0.0
C348 C 0.90838 0.5735 0.2576 0.0
C349 C 0.91842 0.59204 0.25945 0.0
C350 C 0.94768 0.58348 0.247 0.0
C351 C 0.95787 0.58293 0.23002 0.0
C352 C 0.97387 0.57314 0.22975 0.0
C353 C 0.98006 0.56405 0.24711 0.0
C354 C 0.97006 0.56495 0.26453 0.0
C355 C 0.95387 0.57439 0.26422 0.0
C356 C 0.98409 0.57244 0.21087 0.0
C357 C 0.97648 0.55596 0.28353 0.0
C358 C 1.00053 0.4751 0.2462 0.0
C359 C 0.01695 0.46647 0.2484 0.0
C360 C 0.03257 0.47685 0.25053 0.0
C361 C 0.0319 0.49651 0.25019 0.0
C362 C 0.04738 0.50743 0.25166 0.0
C363 C 0.04657 0.52677 0.25147 0.0
C364 C 0.03025 0.53595 0.24965 0.0
C365 C 0.02931 0.55562 0.24916 0.0
C366 C 0.01281 0.56427 0.24817 0.0
C367 C 0.99711 0.55384 0.24721 0.0
C368 C 0.99782 0.53417 0.24682 0.0
C369 C 0.98236 0.52324 0.24502 0.0
C370 C 0.98319 0.5039 0.24489 0.0
C371 C 0.99952 0.49474 0.24644 0.0
C372 C 0.01529 0.50548 0.2483 0.0
C373 C 0.01445 0.52522 0.24826 0.0
C374 C 0.11624 0.58204 0.23972 0.0
C375 C 0.10571 0.60006 0.23697 0.0
O376 O 0.94466 0.4234 0.23473 0.0
O377 O 0.9321 0.5929 0.24604 0.0
O378 O 0.0917 0.6002 0.24996 0.0
O379 O 0.09268 0.43162 0.26252 0.0
H380 H 0.9516 0.40442 0.25635 0.0
H381 H 0.97261 0.40162 0.22882 0.0
H382 H 0.95471 0.39557 0.21217 0.0
H383 H 0.9606 0.38016 0.23251 0.0
H384 H 0.95817 0.43289 0.26945 0.0
H385 H 0.95837 0.44416 0.20739 0.0
H386 H 0.99768 0.45072 0.28225 0.0
H387 H 0.97558 0.45023 0.29187 0.0
H388 H 0.98535 0.47187 0.28327 0.0
H389 H 0.97914 0.46443 0.19261 0.0
H390 H 0.99978 0.46716 0.20605 0.0
H391 H 0.98312 0.48463 0.20746 0.0
H392 H 0.08358 0.41047 0.245 0.0
H393 H 0.08084 0.3876 0.27298 0.0
H394 H 0.06819 0.40826 0.27694 0.0
H395 H 0.08899 0.40503 0.28989 0.0
H396 H 0.0781 0.43959 0.22795 0.0
H397 H 0.07747 0.45043 0.28966 0.0
H398 H 0.04747 0.47553 0.21339 0.0
H399 H 0.03728 0.45294 0.21501 0.0
H400 H 0.05923 0.45534 0.2052 0.0
H401 H 0.05489 0.46768 0.30423 0.0
H402 H 0.03416 0.46869 0.29071 0.0
H403 H 0.04953 0.48776 0.28917 0.0
H404 H 0.1006 0.60108 0.22158 0.0
H405 H 0.07835 0.58194 0.21845 0.0
H406 H 0.07088 0.59502 0.27918 0.0
H407 H 0.05156 0.54567 0.21377 0.0
H408 H 0.05675 0.56641 0.19977 0.0
H409 H 0.035 0.56312 0.20997 0.0
H410 H 0.04807 0.58117 0.2979 0.0
H411 H 0.0386 0.55976 0.28873 0.0
H412 H 0.02785 0.58143 0.28347 0.0
H413 H 0.92386 0.59333 0.27466 0.0
H414 H 0.89738 0.57273 0.26826 0.0
H415 H 0.91737 0.56168 0.26081 0.0
H416 H 0.90286 0.57199 0.24245 0.0
H417 H 0.95306 0.58999 0.21681 0.0
H418 H 0.94631 0.57466 0.27758 0.0
H419 H 0.98763 0.55785 0.20763 0.0
H420 H 0.99662 0.58049 0.21255 0.0
H421 H 0.97651 0.57833 0.19814 0.0
H422 H 0.96863 0.56029 0.29635 0.0
H423 H 0.99061 0.55955 0.28635 0.0
H424 H 0.97544 0.54061 0.28238 0.0
H425 H 0.01759 0.45138 0.24846 0.0
H426 H 0.06031 0.50112 0.25298 0.0
H427 H 0.05892 0.53443 0.25279 0.0
H428 H 0.01218 0.57934 0.24811 0.0
H429 H 0.96942 0.52953 0.24366 0.0
H430 H 0.97085 0.4962 0.24357 0.0
H431 H 0.12139 0.58075 0.25508 0.0
H432 H 0.12754 0.58187 0.22944 0.0
H433 H 0.10768 0.56977 0.23659 0.0
C434 C 0.06788 0.38771 0.76151 0.0
C435 C 0.08205 0.40121 0.75369 0.0
C436 C 0.06825 0.43064 0.76194 0.0
C437 C 0.06027 0.4352 0.74371 0.0
C438 C 0.04618 0.44778 0.74249 0.0
C439 C 0.03981 0.45584 0.75985 0.0
C440 C 0.04813 0.45164 0.77818 0.0
C441 C 0.06246 0.43932 0.7789 0.0
C442 C 0.03792 0.45227 0.72264 0.0
C443 C 0.04159 0.4598 0.79703 0.0
C444 C 0.90784 0.40105 0.75981 0.0
C445 C 0.923 0.41308 0.76606 0.0
C446 C 0.94426 0.43564 0.75284 0.0
C447 C 0.95157 0.44048 0.77125 0.0
C448 C 0.9667 0.45192 0.77255 0.0
C449 C 0.97474 0.45862 0.75513 0.0
C450 C 0.96717 0.45417 0.7366 0.0
C451 C 0.95193 0.44284 0.73572 0.0
C452 C 0.9743 0.45658 0.79255 0.0
C453 C 0.97543 0.46104 0.71772 0.0
C454 C 0.94978 0.58314 0.74896 0.0
C455 C 0.95411 0.57498 0.76719 0.0
C456 C 0.96907 0.5636 0.76935 0.0
C457 C 0.97956 0.56001 0.75272 0.0
C458 C 0.9751 0.5683 0.73427 0.0
C459 C 0.96039 0.58003 0.73272 0.0
C460 C 0.97373 0.55555 0.78938 0.0
C461 C 0.98586 0.56477 0.71619 0.0
C462 C 0.116 0.56616 0.74292 0.0
C463 C 0.10663 0.58498 0.74144 0.0
C464 C 0.07749 0.57645 0.7549 0.0
C465 C 0.06776 0.57551 0.77222 0.0
C466 C 0.05159 0.56574 0.7731 0.0
C467 C 0.0448 0.55701 0.75603 0.0
C468 C 0.0543 0.55836 0.73825 0.0
C469 C 0.07063 0.56783 0.73793 0.0
C470 C 0.04184 0.56462 0.7923 0.0
C471 C 0.04721 0.54978 0.71955 0.0
C472 C 0.02387 0.46783 0.75888 0.0
C473 C 0.00733 0.45901 0.75782 0.0
C474 C 0.99171 0.46922 0.7563 0.0
C475 C 0.9925 0.4889 0.75595 0.0
C476 C 0.97706 0.49963 0.75439 0.0
C477 C 0.978 0.519 0.75387 0.0
C478 C 0.99439 0.52838 0.75512 0.0
C479 C 0.99549 0.54807 0.75467 0.0
C480 C 0.01206 0.55688 0.75543 0.0
C481 C 0.02769 0.54664 0.75663 0.0
C482 C 0.02684 0.52696 0.7575 0.0
C483 C 0.04228 0.5162 0.75907 0.0
C484 C 0.04135 0.49685 0.75943 0.0
C485 C 0.02495 0.4875 0.75852 0.0
C486 C 0.00919 0.49806 0.7571 0.0
C487 C 0.01014 0.51782 0.75665 0.0
C488 C 0.91444 0.5802 0.72518 0.0
C489 C 0.91831 0.5876 0.74585 0.0
O490 O 0.0814 0.41788 0.7637 0.0
O491 O 0.09332 0.58571 0.75528 0.0
O492 O 0.93553 0.59433 0.74697 0.0
O493 O 0.93008 0.42394 0.751 0.0
H494 H 0.07953 0.40368 0.73772 0.0
H495 H 0.0545 0.39363 0.75898 0.0
H496 H 0.06985 0.38515 0.77757 0.0
H497 H 0.06845 0.37424 0.75376 0.0
H498 H 0.06505 0.42915 0.73036 0.0
H499 H 0.06882 0.43586 0.79287 0.0
H500 H 0.02438 0.44616 0.72188 0.0
H501 H 0.04571 0.44669 0.71034 0.0
H502 H 0.03671 0.46757 0.72059 0.0
H503 H 0.04883 0.4543 0.81019 0.0
H504 H 0.02725 0.45671 0.79867 0.0
H505 H 0.04321 0.47516 0.79648 0.0
H506 H 0.93334 0.40579 0.77512 0.0
H507 H 0.88656 0.41154 0.77538 0.0
H508 H 0.91266 0.38637 0.76191 0.0
H509 H 0.90803 0.40069 0.74324 0.0
H510 H 0.94561 0.4353 0.78467 0.0
H511 H 0.94617 0.43917 0.7216 0.0
H512 H 0.97619 0.47186 0.79373 0.0
H513 H 0.9875 0.45006 0.79442 0.0
H514 H 0.96569 0.45161 0.80471 0.0
H515 H 0.96799 0.45629 0.70448 0.0
H516 H 0.98926 0.45602 0.71695 0.0
H517 H 0.97596 0.47648 0.71748 0.0
H518 H 0.91661 0.57597 0.75673 0.0
H519 H 0.94589 0.57773 0.77972 0.0
H520 H 0.95691 0.58658 0.71873 0.0
H521 H 0.97174 0.54024 0.78931 0.0
H522 H 0.96547 0.56139 0.80115 0.0
H523 H 0.98789 0.55831 0.79297 0.0
H524 H 0.97936 0.57027 0.70256 0.0
H525 H 0.98803 0.54961 0.71456 0.0
H526 H 0.99904 0.57158 0.7178 0.0
H527 H 0.10087 0.58689 0.72641 0.0
H528 H 0.12673 0.56552 0.73196 0.0
H529 H 0.10652 0.55463 0.7399 0.0
H530 H 0.12178 0.56399 0.75791 0.0
H531 H 0.07306 0.58224 0.78523 0.0
H532 H 0.07781 0.56845 0.7243 0.0
H533 H 0.03858 0.5499 0.79602 0.0
H534 H 0.02917 0.57226 0.79078 0.0
H535 H 0.04965 0.57068 0.80466 0.0
H536 H 0.05489 0.55424 0.70645 0.0
H537 H 0.03313 0.55359 0.71709 0.0
H538 H 0.04782 0.53439 0.7209 0.0
H539 H 0.00662 0.44391 0.75805 0.0
H540 H 0.96408 0.49317 0.75348 0.0
H541 H 0.96569 0.52652 0.75249 0.0
H542 H 0.01282 0.57196 0.75474 0.0
H543 H 0.05527 0.52263 0.75996 0.0
H544 H 0.05368 0.48931 0.76047 0.0
H545 H 0.91657 0.59133 0.7139 0.0
H546 H 0.90056 0.57505 0.72399 0.0
H547 H 0.92332 0.56841 0.72208 0.0
C548 C 0.23605 0.10781 0.5842 0.0
C549 C 0.24621 0.09826 0.60125 0.0
C550 C 0.26479 0.07592 0.58404 0.0
C551 C 0.282 0.07193 0.57821 0.0
C552 C 0.28554 0.05629 0.5668 0.0
C553 C 0.27145 0.04441 0.56096 0.0
C554 C 0.25401 0.04827 0.56686 0.0
C555 C 0.25087 0.06387 0.57842 0.0
C556 C 0.3043 0.05252 0.56083 0.0
C557 C 0.23865 0.03592 0.56089 0.0
C558 C 0.29653 0.93943 0.62838 0.0
C559 C 0.28221 0.93037 0.61545 0.0
C560 C 0.28531 0.94493 0.58337 0.0
C561 C 0.26839 0.95194 0.57925 0.0
C562 C 0.26615 0.96767 0.56701 0.0
C563 C 0.28119 0.97667 0.55891 0.0
C564 C 0.29824 0.96923 0.56256 0.0
C565 C 0.30004 0.95322 0.57454 0.0
C566 C 0.24773 0.97492 0.56313 0.0
C567 C 0.31458 0.97847 0.55427 0.0
C568 C 0.27422 0.94837 0.42913 0.0
C569 C 0.25924 0.95402 0.43949 0.0
C570 C 0.25963 0.97031 0.4506 0.0
C571 C 0.27546 0.98094 0.45193 0.0
C572 C 0.29053 0.97537 0.44146 0.0
C573 C 0.28961 0.95928 0.43001 0.0
C574 C 0.24305 0.97614 0.46094 0.0
C575 C 0.30765 0.98631 0.44252 0.0
C576 C 0.28051 0.12537 0.44551 0.0
C577 C 0.28267 0.11607 0.42555 0.0
C578 C 0.27255 0.08423 0.43372 0.0
C579 C 0.25752 0.07277 0.43443 0.0
C580 C 0.25772 0.05567 0.44473 0.0
C581 C 0.27355 0.04966 0.45413 0.0
C582 C 0.28901 0.06088 0.4529 0.0
C583 C 0.28829 0.07815 0.44298 0.0
C584 C 0.24095 0.04414 0.44575 0.0
C585 C 0.30633 0.05469 0.46212 0.0
C586 C 0.27481 0.02793 0.54867 0.0
C587 C 0.27724 0.01075 0.55821 0.0
C588 C 0.27914 0.99441 0.54757 0.0
C589 C 0.27862 0.99515 0.52675 0.0
C590 C 0.28004 0.97895 0.51555 0.0
C591 C 0.27938 0.97983 0.49507 0.0
C592 C 0.27719 0.99691 0.48498 0.0
C593 C 0.27612 0.9979 0.46418 0.0
C594 C 0.27484 0.01523 0.45463 0.0
C595 C 0.27402 0.03168 0.46528 0.0
C596 C 0.27405 0.03086 0.48611 0.0
C597 C 0.27212 0.04699 0.4973 0.0
C598 C 0.27233 0.04607 0.51778 0.0
C599 C 0.2746 0.029 0.52786 0.0
C600 C 0.27648 0.01254 0.51688 0.0
C601 C 0.27595 0.01344 0.49597 0.0
C602 C 0.26505 0.90641 0.43771 0.0
C603 C 0.26237 0.91796 0.41876 0.0
O604 O 0.26223 0.09151 0.59481 0.0
O605 O 0.27122 0.10092 0.42404 0.0
O606 O 0.27444 0.93263 0.4182 0.0
O607 O 0.28769 0.93038 0.59606 0.0
H608 H 0.23803 0.08655 0.60713 0.0
H609 H 0.23276 0.09776 0.57246 0.0
H610 H 0.2441 0.11925 0.5776 0.0
H611 H 0.22345 0.11361 0.58954 0.0
H612 H 0.29269 0.0812 0.5826 0.0
H613 H 0.23745 0.0665 0.58281 0.0
H614 H 0.30814 0.03828 0.56573 0.0
H615 H 0.31389 0.06269 0.56713 0.0
H616 H 0.30519 0.05311 0.54453 0.0
H617 H 0.22573 0.04138 0.56571 0.0
H618 H 0.24047 0.02183 0.56745 0.0
H619 H 0.23823 0.03447 0.54464 0.0
H620 H 0.26993 0.9387 0.61675 0.0
H621 H 0.29236 0.93945 0.644 0.0
H622 H 0.29874 0.95408 0.62351 0.0
H623 H 0.30922 0.93183 0.62734 0.0
H624 H 0.25696 0.94512 0.58569 0.0
H625 H 0.31303 0.94754 0.57769 0.0
H626 H 0.24594 0.98787 0.5715 0.0
H627 H 0.23736 0.96473 0.5677 0.0
H628 H 0.24579 0.97836 0.54725 0.0
H629 H 0.32693 0.97145 0.55926 0.0
H630 H 0.31521 0.99325 0.55877 0.0
H631 H 0.3139 0.97831 0.53795 0.0
H632 H 0.24866 0.92342 0.41816 0.0
H633 H 0.24713 0.94593 0.43898 0.0
H634 H 0.30108 0.95492 0.42193 0.0
H635 H 0.24474 0.97372 0.47702 0.0
H636 H 0.23119 0.9682 0.45588 0.0
H637 H 0.24062 0.99121 0.45845 0.0
H638 H 0.31867 0.97906 0.43531 0.0
H639 H 0.31141 0.98886 0.45811 0.0
H640 H 0.30582 1.00007 0.43515 0.0
H641 H 0.29657 0.11142 0.42405 0.0
H642 H 0.28958 0.13756 0.4468 0.0
H643 H 0.28377 0.11544 0.45768 0.0
H644 H 0.26665 0.13007 0.44727 0.0
H645 H 0.24546 0.07748 0.42719 0.0
H646 H 0.30014 0.08665 0.44251 0.0
H647 H 0.23824 0.04003 0.46124 0.0
H648 H 0.24263 0.03119 0.43731 0.0
H649 H 0.22931 0.0517 0.43959 0.0
H650 H 0.31766 0.06342 0.45713 0.0
H651 H 0.30898 0.03996 0.45852 0.0
H652 H 0.30556 0.05562 0.47836 0.0
H653 H 0.27735 0.01005 0.57417 0.0
H654 H 0.28164 0.96541 0.52251 0.0
H655 H 0.28061 0.96692 0.48724 0.0
H656 H 0.27437 0.01591 0.43866 0.0
H657 H 0.27033 0.06051 0.49036 0.0
H658 H 0.27075 0.05894 0.5256 0.0
H659 H 0.2555 0.89458 0.4382 0.0
H660 H 0.26285 0.9151 0.4508 0.0
H661 H 0.27874 0.90089 0.43859 0.0
C662 C 0.45033 0.72381 0.12897 0.0
C663 C 0.43955 0.73699 0.11562 0.0
C664 C 0.45254 0.73193 0.08383 0.0
C665 C 0.46016 0.7493 0.07933 0.0
C666 C 0.47496 0.75071 0.06712 0.0
C667 C 0.48232 0.73437 0.05939 0.0
C668 C 0.47426 0.71687 0.06341 0.0
C669 C 0.45925 0.71593 0.07535 0.0
C670 C 0.48295 0.76963 0.06282 0.0
C671 C 0.4818 0.69914 0.05557 0.0
C672 C 0.61415 0.73141 0.12375 0.0
C673 C 0.59926 0.72608 0.1103 0.0
C674 C 0.57681 0.7399 0.08845 0.0
C675 C 0.57071 0.72285 0.08087 0.0
C676 C 0.5561 0.72215 0.06789 0.0
C677 C 0.54745 0.73881 0.06223 0.0
C678 C 0.55379 0.75602 0.06944 0.0
C679 C 0.56842 0.75633 0.08245 0.0
C680 C 0.54971 0.70356 0.06042 0.0
C681 C 0.54493 0.77405 0.06362 0.0
C682 C 0.58219 0.73889 0.93436 0.0
C683 C 0.57638 0.72228 0.94354 0.0
C684 C 0.56035 0.72154 0.95374 0.0
C685 C 0.55008 0.73782 0.95522 0.0
C686 C 0.55585 0.75453 0.94596 0.0
C687 C 0.57174 0.75477 0.9355 0.0
C688 C 0.55438 0.70332 0.96294 0.0
C689 C 0.54526 0.77216 0.94721 0.0
C690 C 0.4134 0.72159 0.93935 0.0
C691 C 0.42192 0.73425 0.92376 0.0
C692 C 0.45347 0.72954 0.9296 0.0
C693 C 0.46408 0.71404 0.93338 0.0
C694 C 0.47958 0.71548 0.94492 0.0
C695 C 0.4848 0.73301 0.95238 0.0
C696 C 0.4745 0.74891 0.94787 0.0
C697 C 0.45887 0.74699 0.93661 0.0
C698 C 0.49028 0.69824 0.94931 0.0
C699 C 0.48001 0.76792 0.95495 0.0
C700 C 0.49905 0.73552 0.04819 0.0
C701 C 0.51491 0.73675 0.05896 0.0
C702 C 0.53123 0.73809 0.0496 0.0
C703 C 0.53184 0.73826 0.0288 0.0
C704 C 0.54799 0.73982 0.01887 0.0
C705 C 0.54847 0.73972 0.99839 0.0
C706 C 0.53284 0.73789 0.98706 0.0
C707 C 0.53323 0.7373 0.96626 0.0
C708 C 0.51739 0.73577 0.95547 0.0
C709 C 0.50106 0.7347 0.96485 0.0
C710 C 0.50041 0.73504 0.98565 0.0
C711 C 0.48423 0.73379 0.9956 0.0
C712 C 0.48373 0.73417 0.01605 0.0
C713 C 0.4994 0.73549 0.02738 0.0
C714 C 0.51587 0.73681 0.01766 0.0
C715 C 0.51637 0.73662 0.99677 0.0
C716 C 0.62166 0.72794 0.94376 0.0
C717 C 0.61133 0.72753 0.92417 0.0
O718 O 0.43896 0.73024 0.0966 0.0
O719 O 0.43832 0.72728 0.91886 0.0
O720 O 0.59766 0.74029 0.92434 0.0
O721 O 0.59053 0.74107 0.10161 0.0
H722 H 0.44615 0.7509 0.1158 0.0
H723 H 0.46414 0.72304 0.12369 0.0
H724 H 0.44444 0.70958 0.12892 0.0
H725 H 0.45074 0.72896 0.1443 0.0
H726 H 0.45457 0.76176 0.08537 0.0
H727 H 0.45311 0.70261 0.0788 0.0
H728 H 0.49599 0.77078 0.07045 0.0
H729 H 0.47441 0.78109 0.06781 0.0
H730 H 0.48521 0.77141 0.04678 0.0
H731 H 0.47454 0.68658 0.06092 0.0
H732 H 0.49595 0.69794 0.06004 0.0
H733 H 0.48118 0.69948 0.03924 0.0
H734 H 0.59001 0.71538 0.1165 0.0
H735 H 0.61 0.7264 0.13879 0.0
H736 H 0.61243 0.74661 0.12704 0.0
H737 H 0.63644 0.72122 0.10978 0.0
H738 H 0.57719 0.71001 0.08512 0.0
H739 H 0.57324 0.76943 0.08823 0.0
H740 H 0.53579 0.70111 0.06489 0.0
H741 H 0.55791 0.69185 0.06611 0.0
H742 H 0.54994 0.70361 0.04409 0.0
H743 H 0.55211 0.78638 0.06951 0.0
H744 H 0.53121 0.77402 0.06923 0.0
H745 H 0.54409 0.77538 0.04733 0.0
H746 H 0.60584 0.71332 0.92184 0.0
H747 H 0.58417 0.70978 0.94281 0.0
H748 H 0.57625 0.7675 0.92834 0.0
H749 H 0.55516 0.7043 0.97921 0.0
H750 H 0.56266 0.69147 0.95841 0.0
H751 H 0.54038 0.70032 0.95881 0.0
H752 H 0.55234 0.78438 0.94077 0.0
H753 H 0.54224 0.77506 0.9628 0.0
H754 H 0.53246 0.77037 0.9392 0.0
H755 H 0.4234 0.74839 0.93 0.0
H756 H 0.40019 0.72695 0.94333 0.0
H757 H 0.42184 0.72118 0.95286 0.0
H758 H 0.41184 0.70719 0.93381 0.0
H759 H 0.45992 0.70069 0.92764 0.0
H760 H 0.45111 0.75919 0.933 0.0
H761 H 0.49239 0.69657 0.96545 0.0
H762 H 0.50351 0.69972 0.94252 0.0
H763 H 0.48376 0.68546 0.94361 0.0
H764 H 0.4715 0.77912 0.94867 0.0
H765 H 0.49397 0.77088 0.95095 0.0
H766 H 0.47924 0.76825 0.97124 0.0
H767 H 0.51456 0.7366 0.07493 0.0
H768 H 0.56045 0.74113 0.02683 0.0
H769 H 0.56129 0.741 0.99156 0.0
H770 H 0.51778 0.73531 0.93953 0.0
H771 H 0.47175 0.73253 0.98768 0.0
H772 H 0.47089 0.73326 0.0229 0.0
H773 H 0.62719 0.74209 0.94636 0.0
H774 H 0.63269 0.71782 0.94366 0.0
H775 H 0.61289 0.72411 0.95616 0.0
C776 C 0.77135 0.07674 0.62972 0.0
C777 C 0.77716 0.09242 0.61557 0.0
C778 C 0.77026 0.07655 0.58481 0.0
C779 C 0.78662 0.0679 0.58203 0.0
C780 C 0.78796 0.05242 0.56982 0.0
C781 C 0.77259 0.04527 0.56037 0.0
C782 C 0.75619 0.05432 0.56262 0.0
C783 C 0.75532 0.07006 0.57457 0.0
C784 C 0.80575 0.04342 0.56741 0.0
C785 C 0.73948 0.04699 0.55295 0.0
C786 C 0.76116 0.90623 0.62374 0.0
C787 C 0.75742 0.92246 0.61046 0.0
C788 C 0.77256 0.94587 0.59017 0.0
C789 C 0.75699 0.95279 0.58119 0.0
C790 C 0.75757 0.96814 0.56819 0.0
C791 C 0.77402 0.97675 0.56397 0.0
C792 C 0.78974 0.96961 0.57264 0.0
C793 C 0.78879 0.95423 0.58562 0.0
C794 C 0.74056 0.97536 0.55913 0.0
C795 C 0.80751 0.97841 0.56839 0.0
C796 C 0.77799 0.93953 0.43628 0.0
C797 C 0.76227 0.94604 0.4445 0.0
C798 C 0.76205 0.96288 0.45468 0.0
C799 C 0.77793 0.97324 0.45714 0.0
C800 C 0.79374 0.9668 0.44874 0.0
C801 C 0.79347 0.95017 0.43816 0.0
C802 C 0.74475 0.96967 0.46267 0.0
C803 C 0.81094 0.97745 0.45101 0.0
C804 C 0.7834 0.11705 0.43796 0.0
C805 C 0.78909 0.10578 0.42023 0.0
C806 C 0.77854 0.07449 0.42966 0.0
C807 C 0.76284 0.06427 0.43169 0.0
C808 C 0.7621 0.0482 0.4437 0.0
C809 C 0.77765 0.04193 0.45349 0.0
C810 C 0.79375 0.05181 0.45096 0.0
C811 C 0.79401 0.06808 0.43926 0.0
C812 C 0.7447 0.03801 0.44605 0.0
C813 C 0.81074 0.04512 0.46056 0.0
C814 C 0.77353 0.02759 0.54936 0.0
C815 C 0.7735 0.01096 0.56032 0.0
C816 C 0.77463 0.99373 0.55121 0.0
C817 C 0.7758 0.99293 0.53049 0.0
C818 C 0.77712 0.97585 0.52084 0.0
C819 C 0.778 0.97519 0.50041 0.0
C820 C 0.77746 0.99158 0.48883 0.0
C821 C 0.77787 0.99103 0.46803 0.0
C822 C 0.77778 0.00764 0.45704 0.0
C823 C 0.77716 0.0249 0.46619 0.0
C824 C 0.77636 0.02572 0.48695 0.0
C825 C 0.77539 0.04283 0.49665 0.0
C826 C 0.77466 0.0435 0.51708 0.0
C827 C 0.7746 0.02708 0.5286 0.0
C828 C 0.77565 0.00967 0.51915 0.0
C829 C 0.77651 0.00899 0.4983 0.0
C830 C 0.77567 0.89753 0.44859 0.0
C831 C 0.76878 0.90732 0.42985 0.0
O832 O 0.76831 0.09076 0.5976 0.0
O833 O 0.77821 0.09024 0.41822 0.0
O834 O 0.77872 0.92332 0.42622 0.0
O835 O 0.77244 0.93135 0.6033 0.0
H836 H 0.79167 0.09151 0.61339 0.0
H837 H 0.77483 0.06298 0.62372 0.0
H838 H 0.7568 0.07711 0.63186 0.0
H839 H 0.77816 0.07813 0.64423 0.0
H840 H 0.79843 0.07311 0.58932 0.0
H841 H 0.74278 0.07691 0.57666 0.0
H842 H 0.80585 0.0298 0.57532 0.0
H843 H 0.81676 0.05213 0.57334 0.0
H844 H 0.80818 0.04078 0.55162 0.0
H845 H 0.72762 0.055 0.55706 0.0
H846 H 0.73739 0.03215 0.55718 0.0
H847 H 0.7408 0.0477 0.53672 0.0
H848 H 0.74748 0.93237 0.61611 0.0
H849 H 0.75598 0.91029 0.6385 0.0
H850 H 0.77552 0.9074 0.62831 0.0
H851 H 0.75094 0.88363 0.60809 0.0
H852 H 0.74432 0.94636 0.58434 0.0
H853 H 0.80074 0.94878 0.59248 0.0
H854 H 0.73864 0.99005 0.56338 0.0
H855 H 0.72883 0.96705 0.56378 0.0
H856 H 0.74135 0.97509 0.54283 0.0
H857 H 0.8186 0.97063 0.57545 0.0
H858 H 0.80779 0.9929 0.57382 0.0
H859 H 0.80959 0.9791 0.55225 0.0
H860 H 0.75467 0.91085 0.43184 0.0
H861 H 0.75002 0.93836 0.44268 0.0
H862 H 0.8055 0.94516 0.43162 0.0
H863 H 0.7451 0.96863 0.47897 0.0
H864 H 0.73323 0.96143 0.45719 0.0
H865 H 0.74274 0.98452 0.45853 0.0
H866 H 0.82241 0.96952 0.44564 0.0
H867 H 0.81333 0.98091 0.4667 0.0
H868 H 0.8101 0.99075 0.44254 0.0
H869 H 0.80304 0.10151 0.42256 0.0
H870 H 0.79188 0.12968 0.43951 0.0
H871 H 0.78479 0.10853 0.45167 0.0
H872 H 0.76936 0.12134 0.43627 0.0
H873 H 0.751 0.06918 0.42412 0.0
H874 H 0.80644 0.07539 0.4375 0.0
H875 H 0.74175 0.03605 0.46191 0.0
H876 H 0.74562 0.02398 0.43954 0.0
H877 H 0.73353 0.04552 0.43878 0.0
H878 H 0.82246 0.05325 0.45554 0.0
H879 H 0.81281 0.03022 0.45728 0.0
H880 H 0.80984 0.04634 0.47677 0.0
H881 H 0.77256 0.01144 0.57623 0.0
H882 H 0.77746 0.96279 0.52899 0.0
H883 H 0.77903 0.96165 0.4938 0.0
H884 H 0.7782 0.00713 0.4411 0.0
H885 H 0.77519 0.05591 0.48854 0.0
H886 H 0.77401 0.05706 0.52374 0.0
H887 H 0.78985 0.8939 0.4471 0.0
H888 H 0.76789 0.88462 0.45158 0.0
H889 H 0.77435 0.90681 0.4614 0.0
C890 C 0.45767 0.31242 0.12928 0.0
C891 C 0.44221 0.3117 0.11439 0.0
C892 C 0.45837 0.29972 0.08615 0.0
C893 C 0.46643 0.31661 0.08035 0.0
C894 C 0.48026 0.31694 0.06677 0.0
C895 C 0.48633 0.30005 0.05897 0.0
C896 C 0.47797 0.28307 0.06441 0.0
C897 C 0.46392 0.28318 0.07772 0.0
C898 C 0.48868 0.33535 0.06108 0.0
C899 C 0.48422 0.26476 0.05661 0.0
C900 C 0.58582 0.32009 0.125 0.0
C901 C 0.59225 0.30283 0.11438 0.0
C902 C 0.58118 0.30534 0.08109 0.0
C903 C 0.57331 0.288 0.07742 0.0
C904 C 0.5585 0.28653 0.06481 0.0
C905 C 0.55137 0.3028 0.0559 0.0
C906 C 0.55971 0.32025 0.05908 0.0
C907 C 0.57474 0.32124 0.07145 0.0
C908 C 0.55016 0.26766 0.0615 0.0
C909 C 0.55235 0.33792 0.05005 0.0
C910 C 0.57679 0.29988 0.92551 0.0
C911 C 0.57103 0.28341 0.93494 0.0
C912 C 0.55574 0.28315 0.94643 0.0
C913 C 0.54616 0.29978 0.94885 0.0
C914 C 0.55173 0.31631 0.93907 0.0
C915 C 0.56685 0.31605 0.92729 0.0
C916 C 0.54978 0.26508 0.95595 0.0
C917 C 0.54182 0.33427 0.94122 0.0
C918 C 0.4088 0.30469 0.94138 0.0
C919 C 0.41815 0.30435 0.92152 0.0
C920 C 0.448 0.29419 0.93191 0.0
C921 C 0.45862 0.27852 0.93456 0.0
C922 C 0.47491 0.27956 0.9447 0.0
C923 C 0.4809 0.29687 0.95199 0.0
C924 C 0.47048 0.31295 0.94886 0.0
C925 C 0.45404 0.31141 0.93908 0.0
C926 C 0.48564 0.26211 0.94776 0.0
C927 C 0.47669 0.33176 0.95591 0.0
C928 C 0.50217 0.30012 0.04624 0.0
C929 C 0.51877 0.30114 0.05553 0.0
C930 C 0.53436 0.30173 0.0447 0.0
C931 C 0.53347 0.30128 0.02391 0.0
C932 C 0.54886 0.30188 0.01254 0.0
C933 C 0.54783 0.3016 0.99208 0.0
C934 C 0.53137 0.3004 0.9822 0.0
C935 C 0.5302 0.29978 0.9614 0.0
C936 C 0.5136 0.29874 0.9521 0.0
C937 C 0.49803 0.29814 0.96295 0.0
C938 C 0.49893 0.29859 0.98376 0.0
C939 C 0.48354 0.29786 0.99516 0.0
C940 C 0.48455 0.29854 0.01561 0.0
C941 C 0.501 0.2996 0.02546 0.0
C942 C 0.51671 0.30021 0.01427 0.0
C943 C 0.51567 0.29975 0.99339 0.0
C944 C 0.61681 0.30016 0.93637 0.0
C945 C 0.60735 0.29133 0.91868 0.0
O946 O 0.44552 0.29869 0.10002 0.0
O947 O 0.43213 0.29196 0.92243 0.0
O948 O 0.5917 0.30068 0.91451 0.0
O949 O 0.59446 0.30702 0.09458 0.0
H950 H 0.44044 0.32565 0.10739 0.0
H951 H 0.47006 0.31687 0.12193 0.0
H952 H 0.4598 0.29849 0.1362 0.0
H953 H 0.45495 0.32259 0.14098 0.0
H954 H 0.46215 0.3296 0.08641 0.0
H955 H 0.45757 0.27023 0.08216 0.0
H956 H 0.50228 0.3361 0.06744 0.0
H957 H 0.48107 0.34737 0.06643 0.0
H958 H 0.48976 0.33656 0.04483 0.0
H959 H 0.47688 0.2527 0.063 0.0
H960 H 0.49856 0.26305 0.05994 0.0
H961 H 0.48249 0.26464 0.04037 0.0
H962 H 0.58189 0.29181 0.11621 0.0
H963 H 0.58423 0.31699 0.14095 0.0
H964 H 0.57278 0.32443 0.11882 0.0
H965 H 0.59534 0.33185 0.12316 0.0
H966 H 0.57861 0.2757 0.08471 0.0
H967 H 0.58102 0.33454 0.07438 0.0
H968 H 0.54771 0.26553 0.04554 0.0
H969 H 0.53717 0.26693 0.06892 0.0
H970 H 0.55856 0.25619 0.06737 0.0
H971 H 0.56004 0.35044 0.05453 0.0
H972 H 0.53837 0.33961 0.05448 0.0
H973 H 0.55246 0.33706 0.03376 0.0
H974 H 0.60452 0.27649 0.92229 0.0
H975 H 0.57816 0.2706 0.93312 0.0
H976 H 0.57126 0.32864 0.91979 0.0
H977 H 0.55152 0.26594 0.97215 0.0
H978 H 0.55741 0.253 0.95078 0.0
H979 H 0.5355 0.26256 0.95281 0.0
H980 H 0.54872 0.34625 0.93408 0.0
H981 H 0.54009 0.3373 0.95705 0.0
H982 H 0.52842 0.33285 0.93445 0.0
H983 H 0.42315 0.31854 0.91774 0.0
H984 H 0.39751 0.31449 0.94071 0.0
H985 H 0.41809 0.30938 0.95313 0.0
H986 H 0.40378 0.29057 0.94541 0.0
H987 H 0.45392 0.26531 0.92892 0.0
H988 H 0.44612 0.32376 0.9371 0.0
H989 H 0.4892 0.26029 0.96359 0.0
H990 H 0.49816 0.26341 0.93948 0.0
H991 H 0.47842 0.24948 0.94273 0.0
H992 H 0.46822 0.34322 0.95011 0.0
H993 H 0.49055 0.33446 0.95137 0.0
H994 H 0.47644 0.33195 0.97223 0.0
H995 H 0.51957 0.30156 0.07148 0.0
H996 H 0.56189 0.30266 0.01935 0.0
H997 H 0.56012 0.30227 0.9841 0.0
H998 H 0.5128 0.29825 0.93615 0.0
H999 H 0.47051 0.29683 0.98841 0.0
H1000 H 0.47226 0.2981 0.0236 0.0
H1001 H 0.61966 0.31512 0.93333 0.0
H1002 H 0.62944 0.2929 0.93972 0.0
H1003 H 0.60836 0.29901 0.94958 0.0
H1004 H 0.17483 0.33153 0.25113 0.0
H1005 H 0.20398 0.38351 0.25207 0.0
H1006 H 0.14714 0.34844 0.25334 0.0
H1007 H 0.17615 0.40049 0.25377 0.0
H1008 H 0.12263 0.42109 0.27875 0.0
H1009 H 0.15115 0.40539 0.27665 0.0
H1010 H 0.12925 0.36922 0.23217 0.0
H1011 H 0.10082 0.38484 0.23436 0.0
C1012 C 0.17534 0.34657 0.25191 0.0
C1013 C 0.19162 0.35616 0.25141 0.0
C1014 C 0.15945 0.35627 0.25295 0.0
C1015 C 0.15944 0.37582 0.25358 0.0
C1016 C 0.17573 0.38543 0.25339 0.0
C1017 C 0.19164 0.37571 0.25223 0.0
C1018 C 0.12405 0.41 0.26829 0.0
C1019 C 0.10961 0.40443 0.2564 0.0
C1020 C 0.14035 0.401 0.2671 0.0
C1021 C 0.14245 0.38604 0.25426 0.0
C1022 C 0.12802 0.38057 0.24234 0.0
C1023 C 0.1118 0.38962 0.24344 0.0
H1024 H 0.18319 0.6767 0.72933 0.0
H1025 H 0.19619 0.64993 0.78501 0.0
H1026 H 0.15742 0.65641 0.72585 0.0
H1027 H 0.17112 0.62886 0.78091 0.0
H1028 H 0.11697 0.60205 0.77621 0.0
H1029 H 0.13996 0.6257 0.78087 0.0
H1030 H 0.1508 0.62504 0.71859 0.0
H1031 H 0.12729 0.60207 0.71392 0.0
C1032 C 0.18054 0.66655 0.74089 0.0
C1033 C 0.19189 0.66493 0.75741 0.0
C1034 C 0.16586 0.65472 0.73876 0.0
C1035 C 0.1622 0.64084 0.75301 0.0
C1036 C 0.17336 0.63947 0.76971 0.0
C1037 C 0.18795 0.65139 0.77191 0.0
C1038 C 0.12403 0.60726 0.76348 0.0
C1039 C 0.12002 0.60053 0.7446 0.0
C1040 C 0.13737 0.62067 0.76617 0.0
C1041 C 0.14726 0.62739 0.75011 0.0
C1042 C 0.14323 0.62057 0.73126 0.0
C1043 C 0.1298 0.60734 0.72856 0.0
H1044 H 0.84594 0.68568 0.27019 0.0
H1045 H 0.8335 0.66213 0.21347 0.0
H1046 H 0.87049 0.66424 0.27428 0.0
H1047 H 0.85729 0.63989 0.21813 0.0
H1048 H 0.90994 0.61084 0.22457 0.0
H1049 H 0.88823 0.63544 0.21941 0.0
H1050 H 0.8752 0.63234 0.28112 0.0
H1051 H 0.89747 0.60844 0.28634 0.0
C1052 C 0.84847 0.676 0.25853 0.0
C1053 C 0.83762 0.67562 0.24154 0.0
C1054 C 0.86243 0.6635 0.261 0.0
C1055 C 0.86584 0.65016 0.24663 0.0
C1056 C 0.85522 0.65004 0.22946 0.0
C1057 C 0.84136 0.66264 0.22691 0.0
C1058 C 0.90268 0.6157 0.23709 0.0
C1059 C 0.90573 0.60803 0.25599 0.0
C1060 C 0.89007 0.62966 0.2341 0.0
C1061 C 0.87995 0.636 0.24986 0.0
C1062 C 0.88298 0.62819 0.26871 0.0
C1063 C 0.89569 0.61441 0.27171 0.0
H1064 H 0.8235 0.37238 0.73265 0.0
H1065 H 0.85765 0.32914 0.75574 0.0
H1066 H 0.84548 0.39586 0.74216 0.0
H1067 H 0.87973 0.35255 0.76486 0.0
H1068 H 0.91283 0.39942 0.80639 0.0
H1069 H 0.88686 0.37293 0.79221 0.0
H1070 H 0.8715 0.41458 0.73458 0.0
H1071 H 0.89692 0.44236 0.74756 0.0
C1072 C 0.83574 0.3679 0.73967 0.0
C1073 C 0.83881 0.34891 0.7435 0.0
C1074 C 0.84842 0.38133 0.74491 0.0
C1075 C 0.86431 0.37604 0.7543 0.0
C1076 C 0.8675 0.35707 0.75787 0.0
C1077 C 0.85493 0.34364 0.75246 0.0
C1078 C 0.90461 0.40259 0.79363 0.0
C1079 C 0.90984 0.42223 0.77648 0.0
C1080 C 0.88911 0.38575 0.78404 0.0
C1081 C 0.87717 0.39019 0.76119 0.0
C1082 C 0.87931 0.41208 0.74779 0.0
C1083 C 0.89453 0.42984 0.75619 0.0
H1084 H 0.28968 0.19796 0.32911 0.0
H1085 H 0.23763 0.20545 0.35314 0.0
H1086 H 0.29447 0.17163 0.35139 0.0
H1087 H 0.24289 0.17995 0.37633 0.0
H1088 H 0.25114 0.12361 0.4055 0.0
H1089 H 0.24569 0.14743 0.38023 0.0
H1090 H 0.30032 0.16544 0.385 0.0
H1091 H 0.30587 0.14103 0.40951 0.0
C1092 C 0.27921 0.19398 0.33908 0.0
C1093 C 0.26328 0.20394 0.33931 0.0
C1094 C 0.28206 0.179 0.35209 0.0
C1095 C 0.26913 0.17367 0.36583 0.0
C1096 C 0.2531 0.18347 0.36586 0.0
C1097 C 0.25019 0.19834 0.35273 0.0
C1098 C 0.26205 0.13243 0.40085 0.0
C1099 C 0.27907 0.13013 0.40913 0.0
C1100 C 0.25888 0.14625 0.38652 0.0
C1101 C 0.27257 0.15838 0.38044 0.0
C1102 C 0.28954 0.15613 0.3889 0.0
C1103 C 0.29273 0.1422 0.40303 0.0
H1104 H 0.32951 0.74702 0.8472 0.0
H1105 H 0.37102 0.73356 0.80692 0.0
H1106 H 0.35042 0.74427 0.87475 0.0
H1107 H 0.39207 0.73124 0.83449 0.0
H1108 H 0.41932 0.7103 0.89232 0.0
H1109 H 0.39862 0.71171 0.86431 0.0
H1110 H 0.37626 0.76192 0.88717 0.0
H1111 H 0.39689 0.76045 0.91513 0.0
C1112 C 0.34307 0.74333 0.84424 0.0
C1113 C 0.34861 0.74054 0.82486 0.0
C1114 C 0.3551 0.74196 0.86 0.0
C1115 C 0.37293 0.73767 0.85679 0.0
C1116 C 0.3784 0.73447 0.83746 0.0
C1117 C 0.36639 0.73596 0.82166 0.0
C1118 C 0.41014 0.72177 0.89118 0.0
C1119 C 0.40998 0.73551 0.90568 0.0
C1120 C 0.39829 0.72257 0.87517 0.0
C1121 C 0.38581 0.73693 0.87352 0.0
C1122 C 0.3856 0.75059 0.8881 0.0
C1123 C 0.39751 0.74986 0.904 0.0
H1124 H 0.78621 0.84708 0.32016 0.0
H1125 H 0.76379 0.80701 0.36096 0.0
H1126 H 0.78407 0.87128 0.34496 0.0
H1127 H 0.76192 0.83104 0.38577 0.0
H1128 H 0.7435 0.88268 0.41745 0.0
H1129 H 0.74505 0.8599 0.39127 0.0
H1130 H 0.79801 0.87881 0.37795 0.0
H1131 H 0.79647 0.90162 0.40424 0.0
C1132 C 0.78075 0.84347 0.33437 0.0
C1133 C 0.77518 0.82514 0.33862 0.0
C1134 C 0.77968 0.85727 0.34862 0.0
C1135 C 0.77282 0.85306 0.3673 0.0
C1136 C 0.76711 0.83477 0.37145 0.0
C1137 C 0.76832 0.82096 0.3573 0.0
C1138 C 0.75538 0.88212 0.40875 0.0
C1139 C 0.76969 0.89421 0.41263 0.0
C1140 C 0.75633 0.869 0.39388 0.0
C1141 C 0.77164 0.86759 0.38253 0.0
C1142 C 0.78594 0.87975 0.38628 0.0
C1143 C 0.78506 0.8928 0.40131 0.0
H1144 H 0.66494 0.30736 0.80753 0.0
H1145 H 0.70287 0.28789 0.85114 0.0
H1146 H 0.64144 0.30499 0.83198 0.0
H1147 H 0.67956 0.28575 0.8755 0.0
H1148 H 0.63101 0.26509 0.90794 0.0
H1149 H 0.65255 0.26655 0.88154 0.0
H1150 H 0.63328 0.32077 0.86393 0.0
H1151 H 0.61169 0.31932 0.89047 0.0
C1152 C 0.66823 0.30251 0.82229 0.0
C1153 C 0.68575 0.29785 0.82744 0.0
C1154 C 0.65482 0.3013 0.8363 0.0
C1155 C 0.65866 0.29515 0.85563 0.0
C1156 C 0.67615 0.29035 0.86067 0.0
C1157 C 0.68954 0.29174 0.84677 0.0
C1158 C 0.63119 0.27719 0.89823 0.0
C1159 C 0.61942 0.29191 0.90105 0.0
C1160 C 0.6436 0.2781 0.88322 0.0
C1161 C 0.6446 0.29378 0.87067 0.0
C1162 C 0.63266 0.30841 0.87322 0.0
C1163 C 0.62031 0.30758 0.8884 0.0
H1164 H 0.29429 0.82203 0.67227 0.0
H1165 H 0.23765 0.82712 0.66465 0.0
H1166 H 0.29852 0.85162 0.65487 0.0
H1167 H 0.24193 0.85621 0.64646 0.0
H1168 H 0.25549 0.9184 0.63931 0.0
H1169 H 0.25076 0.88759 0.65385 0.0
H1170 H 0.29622 0.86728 0.62313 0.0
H1171 H 0.30115 0.89838 0.60896 0.0
C1172 C 0.28274 0.82939 0.6668 0.0
C1173 C 0.26562 0.82221 0.66999 0.0
C1174 C 0.28518 0.84626 0.65658 0.0
C1175 C 0.27056 0.85635 0.64929 0.0
C1176 C 0.25347 0.84894 0.65209 0.0
C1177 C 0.25103 0.83211 0.66232 0.0
C1178 C 0.2643 0.90727 0.63544 0.0
C1179 C 0.27848 0.91071 0.62272 0.0
C1180 C 0.26158 0.88959 0.64372 0.0
C1181 C 0.27305 0.8749 0.63959 0.0
C1182 C 0.2872 0.87831 0.62674 0.0
C1183 C 0.28993 0.89604 0.61846 0.0
H1184 H 0.67453 0.77572 0.17254 0.0
H1185 H 0.68779 0.71791 0.18216 0.0
H1186 H 0.65273 0.76672 0.14751 0.0
H1187 H 0.66674 0.70905 0.15659 0.0
H1188 H 0.61349 0.68768 0.11752 0.0
H1189 H 0.6386 0.69908 0.14735 0.0
H1190 H 0.64772 0.76091 0.11323 0.0
H1191 H 0.62261 0.75096 0.08247 0.0
C1192 C 0.67278 0.76109 0.16936 0.0
C1193 C 0.68297 0.74754 0.17937 0.0
C1194 C 0.66042 0.75595 0.15483 0.0
C1195 C 0.65793 0.73716 0.15004 0.0
C1196 C 0.66802 0.72363 0.16011 0.0
C1197 C 0.68036 0.72874 0.1746 0.0
C1198 C 0.62047 0.70084 0.11621 0.0
C1199 C 0.61303 0.71945 0.09876 0.0
C1200 C 0.63554 0.70849 0.13524 0.0
C1201 C 0.64517 0.73167 0.13439 0.0
C1202 C 0.64104 0.74755 0.11387 0.0
C1203 C 0.62612 0.74116 0.0941 0.0
H1204 H 0.74501 0.20365 0.65463 0.0
H1205 H 0.76387 0.17323 0.70596 0.0
H1206 H 0.75187 0.177 0.63401 0.0
H1207 H 0.77061 0.14673 0.68547 0.0
H1208 H 0.79866 0.11175 0.64054 0.0
H1209 H 0.79231 0.13995 0.65859 0.0
H1210 H 0.74084 0.1429 0.63036 0.0
H1211 H 0.74712 0.11445 0.6124 0.0
C1212 C 0.75067 0.19131 0.66147 0.0
C1213 C 0.75387 0.19049 0.68191 0.0
C1214 C 0.75447 0.17605 0.64971 0.0
C1215 C 0.76182 0.15983 0.65814 0.0
C1216 C 0.76511 0.15911 0.67854 0.0
C1217 C 0.76112 0.17422 0.69029 0.0
C1218 C 0.78611 0.1186 0.63794 0.0
C1219 C 0.77355 0.11107 0.62477 0.0
C1220 C 0.78242 0.13464 0.64838 0.0
C1221 C 0.76609 0.1436 0.64588 0.0
C1222 C 0.75362 0.13638 0.63239 0.0
C1223 C 0.75723 0.12013 0.6221 0.0
H1224 H 0.34161 0.31164 0.17735 0.0
H1225 H 0.36857 0.26183 0.19715 0.0
H1226 H 0.36487 0.31772 0.15365 0.0
H1227 H 0.39238 0.26857 0.17444 0.0
H1228 H 0.42705 0.27696 0.1217 0.0
H1229 H 0.40108 0.26959 0.14133 0.0
H1230 H 0.39456 0.32809 0.15293 0.0
H1231 H 0.41997 0.33541 0.1325 0.0
C1232 C 0.35245 0.30193 0.17663 0.0
C1233 C 0.35321 0.28629 0.1893 0.0
C1234 C 0.36595 0.30556 0.16318 0.0
C1235 C 0.38064 0.29373 0.16215 0.0
C1236 C 0.38122 0.27791 0.17459 0.0
C1237 C 0.36766 0.2742 0.1879 0.0
C1238 C 0.41981 0.28825 0.12807 0.0
C1239 C 0.4253 0.30683 0.12515 0.0
C1240 C 0.40503 0.28402 0.13956 0.0
C1241 C 0.39563 0.29823 0.14876 0.0
C1242 C 0.40115 0.31679 0.14576 0.0
C1243 C 0.41578 0.32101 0.13411 0.0
H1244 H 0.85901 0.68702 0.77837 0.0
H1245 H 0.82191 0.65176 0.74714 0.0
H1246 H 0.88219 0.66382 0.7743 0.0
H1247 H 0.84504 0.6287 0.743 0.0
H1248 H 0.88507 0.58335 0.76042 0.0
H1249 H 0.86267 0.60707 0.7655 0.0
H1250 H 0.89934 0.64964 0.7459 0.0
H1251 H 0.92166 0.62589 0.74052 0.0
C1252 C 0.85582 0.67431 0.77066 0.0
C1253 C 0.83865 0.6712 0.76307 0.0
C1254 C 0.86909 0.66112 0.76822 0.0
C1255 C 0.86538 0.64443 0.75841 0.0
C1256 C 0.84823 0.64135 0.7508 0.0
C1257 C 0.83504 0.65462 0.75301 0.0
C1258 C 0.8884 0.59781 0.75744 0.0
C1259 C 0.90524 0.60276 0.75048 0.0
C1260 C 0.87555 0.61135 0.76019 0.0
C1261 C 0.87928 0.63019 0.75612 0.0
C1262 C 0.89618 0.63524 0.74938 0.0
C1263 C 0.90897 0.62164 0.74634 0.0
H1264 H 0.83623 0.36652 0.22707 0.0
H1265 H 0.86716 0.31715 0.23859 0.0
H1266 H 0.86299 0.38564 0.22986 0.0
H1267 H 0.89381 0.33629 0.24163 0.0
H1268 H 0.93437 0.37765 0.26588 0.0
H1269 H 0.90684 0.35968 0.26387 0.0
H1270 H 0.89117 0.39129 0.212 0.0
H1271 H 0.91875 0.40931 0.21409 0.0
C1272 C 0.84873 0.35972 0.23006 0.0
C1273 C 0.84951 0.34027 0.23262 0.0
C1274 C 0.86406 0.37069 0.2317 0.0
C1275 C 0.8805 0.36249 0.23603 0.0
C1276 C 0.88129 0.34307 0.2386 0.0
C1277 C 0.866 0.33209 0.23689 0.0
C1278 C 0.92491 0.38093 0.25423 0.0
C1279 C 0.92853 0.39516 0.24042 0.0
C1280 C 0.90923 0.37054 0.25296 0.0
C1281 C 0.89682 0.37407 0.23778 0.0
C1282 C 0.90036 0.38841 0.22403 0.0
C1283 C 0.91612 0.39874 0.22523 0.0
H1284 H 0.18516 0.34914 0.73755 0.0
H1285 H 0.17222 0.33765 0.79824 0.0
H1286 H 0.15826 0.36737 0.73356 0.0
H1287 H 0.14514 0.35558 0.79422 0.0
H1288 H 0.10521 0.40202 0.78571 0.0
H1289 H 0.13353 0.38616 0.78966 0.0
H1290 H 0.12699 0.36322 0.73156 0.0
H1291 H 0.09909 0.37965 0.72742 0.0
C1292 C 0.17649 0.3504 0.75 0.0
C1293 C 0.18081 0.34192 0.76819 0.0
C1294 C 0.16104 0.36084 0.74772 0.0
C1295 C 0.14946 0.36295 0.76355 0.0
C1296 C 0.15387 0.35454 0.78179 0.0
C1297 C 0.16937 0.34421 0.78409 0.0
C1298 C 0.11003 0.39387 0.77366 0.0
C1299 C 0.10016 0.39247 0.75603 0.0
C1300 C 0.12615 0.38459 0.776 0.0
C1301 C 0.13263 0.37344 0.7609 0.0
C1302 C 0.12266 0.37199 0.74334 0.0
C1303 C 0.10664 0.38136 0.74097 0.0
H1304 H 0.19822 0.67245 0.23777 0.0
H1305 H 0.15995 0.70361 0.27019 0.0
H1306 H 0.17646 0.64763 0.2331 0.0
H1307 H 0.13835 0.67849 0.26588 0.0
H1308 H 0.11301 0.61907 0.2715 0.0
H1309 H 0.13403 0.64474 0.27641 0.0
H1310 H 0.14767 0.64324 0.21498 0.0
H1311 H 0.12659 0.61772 0.21004 0.0
C1312 C 0.18515 0.67411 0.24378 0.0
C1313 C 0.18086 0.69012 0.25429 0.0
C1314 C 0.17269 0.65983 0.24115 0.0
C1315 C 0.15569 0.66114 0.24909 0.0
C1316 C 0.15142 0.67701 0.25977 0.0
C1317 C 0.16383 0.69138 0.26227 0.0
C1318 C 0.12028 0.62443 0.25899 0.0
C1319 C 0.11784 0.61667 0.24025 0.0
C1320 C 0.13233 0.6391 0.26181 0.0
C1321 C 0.14246 0.64601 0.24607 0.0
C1322 C 0.14012 0.63814 0.22741 0.0
C1323 C 0.12796 0.62365 0.22455 0.0
H1324 H 0.79799 0.83946 0.6734 0.0
H1325 H 0.74222 0.82603 0.67621 0.0
H1326 H 0.79161 0.86393 0.64907 0.0
H1327 H 0.73589 0.85033 0.65196 0.0
H1328 H 0.71996 0.90865 0.61404 0.0
H1329 H 0.72827 0.88091 0.64374 0.0
H1330 H 0.78788 0.87028 0.61429 0.0
H1331 H 0.781 0.89796 0.58377 0.0
C1332 C 0.78438 0.84169 0.6688 0.0
C1333 C 0.77062 0.83075 0.67677 0.0
C1334 C 0.78073 0.85571 0.65484 0.0
C1335 C 0.76325 0.85913 0.64858 0.0
C1336 C 0.74948 0.8484 0.65674 0.0
C1337 C 0.75312 0.83439 0.67067 0.0
C1338 C 0.73215 0.90091 0.61352 0.0
C1339 C 0.75091 0.9086 0.59788 0.0
C1340 C 0.73786 0.88423 0.63254 0.0
C1341 C 0.75939 0.87334 0.63316 0.0
C1342 C 0.77552 0.87775 0.61413 0.0
C1343 C 0.77104 0.89425 0.59446 0.0
H1344 H 0.66639 0.26605 0.20373 0.0
H1345 H 0.70101 0.27707 0.15482 0.0
H1346 H 0.64096 0.27456 0.18332 0.0
H1347 H 0.67541 0.28553 0.13421 0.0
H1348 H 0.62568 0.31844 0.11192 0.0
H1349 H 0.65249 0.30926 0.13015 0.0
H1350 H 0.624 0.26274 0.15593 0.0
H1351 H 0.59726 0.27223 0.13819 0.0
C1352 C 0.66855 0.2701 0.18853 0.0
C1353 C 0.68571 0.27071 0.18086 0.0
C1354 C 0.65395 0.27496 0.1768 0.0
C1355 C 0.6561 0.28051 0.15704 0.0
C1356 C 0.6733 0.28142 0.1494 0.0
C1357 C 0.68796 0.27658 0.1612 0.0
C1358 C 0.62529 0.30613 0.12131 0.0
C1359 C 0.60941 0.29602 0.12361 0.0
C1360 C 0.64062 0.30084 0.13171 0.0
C1361 C 0.64035 0.28537 0.14466 0.0
C1362 C 0.62459 0.27494 0.14638 0.0
C1363 C 0.6093 0.28025 0.13607 0.0
H1364 H 0.27621 0.19026 0.68009 0.0
H1365 H 0.21984 0.18098 0.68477 0.0
H1366 H 0.27832 0.16295 0.65926 0.0
H1367 H 0.2218 0.15439 0.66338 0.0
H1368 H 0.2303 0.09909 0.63723 0.0
H1369 H 0.23218 0.12328 0.66188 0.0
H1370 H 0.27012 0.15341 0.6263 0.0
H1371 H 0.2687 0.12872 0.60197 0.0
C1372 C 0.26429 0.18235 0.67677 0.0
C1373 C 0.24783 0.18788 0.68401 0.0
C1374 C 0.26548 0.16681 0.66467 0.0
C1375 C 0.25024 0.15643 0.65962 0.0
C1376 C 0.23386 0.16184 0.66716 0.0
C1377 C 0.23269 0.1773 0.67922 0.0
C1378 C 0.23931 0.1107 0.63487 0.0
C1379 C 0.24934 0.11202 0.61765 0.0
C1380 C 0.24026 0.12467 0.6489 0.0
C1381 C 0.25109 0.14046 0.64596 0.0
C1382 C 0.26173 0.1414 0.62914 0.0
C1383 C 0.26088 0.12731 0.61515 0.0
H1384 H 0.3266 0.73422 0.14579 0.0
H1385 H 0.35538 0.7488 0.19885 0.0
H1386 H 0.35436 0.73382 0.12782 0.0
H1387 H 0.383 0.74854 0.18088 0.0
H1388 H 0.42719 0.76416 0.13935 0.0
H1389 H 0.39843 0.76603 0.15503 0.0
H1390 H 0.38185 0.71527 0.12668 0.0
H1391 H 0.41065 0.71353 0.11083 0.0
C1392 C 0.33884 0.73726 0.15364 0.0
C1393 C 0.33874 0.74159 0.17377 0.0
C1394 C 0.35473 0.73705 0.14333 0.0
C1395 C 0.37088 0.74122 0.15289 0.0
C1396 C 0.37076 0.7456 0.17298 0.0
C1397 C 0.35491 0.74576 0.18329 0.0
C1398 C 0.41728 0.75358 0.13622 0.0
C1399 C 0.42105 0.7389 0.12358 0.0
C1400 C 0.40087 0.75455 0.14533 0.0
C1401 C 0.38787 0.74078 0.14214 0.0
C1402 C 0.39151 0.72622 0.12924 0.0
C1403 C 0.40798 0.72522 0.12017 0.0
H1404 H 0.81185 0.17102 0.31381 0.0
H1405 H 0.76314 0.19356 0.33534 0.0
H1406 H 0.81088 0.14667 0.33913 0.0
H1407 H 0.76221 0.16923 0.3608 0.0
H1408 H 0.76001 0.11492 0.39686 0.0
H1409 H 0.75899 0.13599 0.36816 0.0
H1410 H 0.81528 0.14583 0.37442 0.0
H1411 H 0.81629 0.1246 0.40265 0.0
C1412 C 0.80092 0.17076 0.32395 0.0
C1413 C 0.78768 0.18436 0.32269 0.0
C1414 C 0.80037 0.15681 0.33847 0.0
C1415 C 0.78658 0.15611 0.35215 0.0
C1416 C 0.77294 0.16925 0.3504 0.0
C1417 C 0.77348 0.18321 0.33582 0.0
C1418 C 0.77217 0.12138 0.39184 0.0
C1419 C 0.7883 0.11781 0.40172 0.0
C1420 C 0.77158 0.13356 0.37553 0.0
C1421 C 0.78708 0.14249 0.36888 0.0
C1422 C 0.80316 0.13888 0.37883 0.0
C1423 C 0.80375 0.12676 0.39506 0.0
H1424 H 0.36016 0.2569 0.82157 0.0
H1425 H 0.32252 0.29234 0.84975 0.0
H1426 H 0.38245 0.26503 0.84639 0.0
H1427 H 0.34499 0.30077 0.87423 0.0
H1428 H 0.3961 0.32692 0.9 0.0
H1429 H 0.37385 0.31833 0.8752 0.0
H1430 H 0.38774 0.26051 0.88298 0.0
H1431 H 0.40987 0.26908 0.9079 0.0
C1432 C 0.35657 0.26629 0.83312 0.0
C1433 C 0.3395 0.27395 0.83362 0.0
C1434 C 0.36937 0.27098 0.84731 0.0
C1435 C 0.36547 0.28356 0.86221 0.0
C1436 C 0.34845 0.29123 0.86274 0.0
C1437 C 0.33559 0.28643 0.84867 0.0
C1438 C 0.39449 0.3124 0.89626 0.0
C1439 C 0.40504 0.29876 0.90554 0.0
C1440 C 0.38168 0.30747 0.8822 0.0
C1441 C 0.37913 0.28876 0.87709 0.0
C1442 C 0.38961 0.27507 0.88642 0.0
C1443 C 0.40229 0.27998 0.90065 0.0
H1444 H 0.25754 0.82267 0.34205 0.0
H1445 H 0.28896 0.86249 0.30905 0.0
H1446 H 0.25452 0.84514 0.36824 0.0
H1447 H 0.28618 0.88482 0.33551 0.0
H1448 H 0.29278 0.91005 0.39811 0.0
H1449 H 0.29588 0.88848 0.3709 0.0
H1450 H 0.24001 0.8756 0.37327 0.0
H1451 H 0.23691 0.89717 0.40038 0.0
C1452 C 0.26368 0.83626 0.34028 0.0
C1453 C 0.27346 0.84076 0.32338 0.0
C1454 C 0.26198 0.84911 0.35533 0.0
C1455 C 0.27009 0.86675 0.35392 0.0
C1456 C 0.27996 0.87125 0.33711 0.0
C1457 C 0.28157 0.85843 0.32198 0.0
C1458 C 0.28112 0.90284 0.39259 0.0
C1459 C 0.26449 0.90562 0.40108 0.0
C1460 C 0.2829 0.89048 0.37704 0.0
C1461 C 0.26818 0.88038 0.36993 0.0
C1462 C 0.25161 0.88309 0.3785 0.0
C1463 C 0.2498 0.89555 0.39389 0.0
H1464 H 0.70447 0.73214 0.8506 0.0
H1465 H 0.66819 0.76973 0.8209 0.0
H1466 H 0.68225 0.72538 0.87543 0.0
H1467 H 0.64615 0.76321 0.84601 0.0
H1468 H 0.62038 0.76185 0.90779 0.0
H1469 H 0.64189 0.76853 0.88203 0.0
H1470 H 0.65275 0.70984 0.87793 0.0
H1471 H 0.6312 0.70318 0.90362 0.0
C1472 C 0.69173 0.73886 0.84925 0.0
C1473 C 0.68817 0.7515 0.8337 0.0
C1474 C 0.67901 0.73501 0.86353 0.0
C1475 C 0.66245 0.74377 0.86268 0.0
C1476 C 0.65887 0.75643 0.8472 0.0
C1477 C 0.67155 0.76019 0.83284 0.0
C1478 C 0.62714 0.75036 0.90115 0.0
C1479 C 0.62378 0.73192 0.90739 0.0
C1480 C 0.63947 0.75419 0.88643 0.0
C1481 C 0.64898 0.7397 0.87792 0.0
C1482 C 0.64572 0.72131 0.88428 0.0
C1483 C 0.63328 0.71748 0.89884 0.0
loop_
_geom_bond_atom_site_label_1
_geom_bond_atom_site_label_2
_geom_bond_distance
_geom_bond_site_symmetry_2
_ccdc_geom_bond_type
C0 C1 1.264 . S
C0 C5 1.479 . S
C0 C10 1.465 . S
C1 C0 1.264 . S
C1 C3 1.339 . S
C1 H28 0.931 . S
C2 C3 1.395 . S
C2 C4 1.320 . S
C3 C1 1.339 . S
C3 C2 1.395 . S
C3 H29 0.929 . S
C4 C2 1.320 . S
C4 C5 1.405 . S
C4 H30 0.930 . S
C5 C0 1.479 . S
C5 C4 1.405 . S
C5 H31 0.931 . S
U6 O7 2.454 . S
U6 O8 2.458 . S
U6 C9 2.984 . S
U6 C10 2.847 . S
U6 C23 2.882 . S
U6 O24 2.441 . S
U6 O25 2.420 . S
U6 O26 2.455 . S
U6 O27 2.449 . S
O7 U6 2.454 . S
O7 C9 1.353 . S
O8 U6 2.458 . S
O8 C9 1.286 . S
C9 U6 2.984 . S
C9 O7 1.353 . S
C9 O8 1.286 . S
C9 C11 1.363 . S
C10 C0 1.465 . S
C10 U6 2.847 . S
C10 O24 1.249 . S
C10 O25 1.202 . S
C11 C9 1.363 . S
C11 C13 1.408 . S
C11 C16 1.342 . S
C12 C13 1.310 . S
C12 C15 1.461 . S
C12 H32 0.932 . S
C13 C11 1.408 . S
C13 C12 1.310 . S
C13 H33 0.930 . S
C14 C15 1.474 . S
C14 C16 1.285 . S
C14 H34 0.929 . S
C15 C12 1.461 . S
C15 C14 1.474 . S
C16 C11 1.342 . S
C16 C14 1.285 . S
C16 H35 0.930 . S
C17 C20 1.424 . S
C17 C22 1.245 . S
C17 C23 1.428 . S
C18 C21 1.260 . S
C18 C22 1.477 . S
C18 H36 0.932 . S
C19 C20 1.384 . S
C19 C21 1.479 . S
C19 H37 0.929 . S
C20 C17 1.424 . S
C20 C19 1.384 . S
C20 H38 0.928 . S
C21 C18 1.260 . S
C21 C19 1.479 . S
C22 C17 1.245 . S
C22 C18 1.477 . S
C22 H39 0.932 . S
C23 U6 2.882 . S
C23 C17 1.428 . S
C23 O26 1.301 . S
C23 O27 1.282 . S
O24 U6 2.441 . S
O24 C10 1.249 . S
O25 U6 2.420 . S
O25 C10 1.202 . S
O26 U6 2.455 . S
O26 C23 1.301 . S
O27 U6 2.449 . S
O27 C23 1.282 . S
H28 C1 0.931 . S
H29 C3 0.929 . S
H30 C4 0.930 . S
H31 C5 0.931 . S
H32 C12 0.932 . S
H33 C13 0.930 . S
H34 C14 0.929 . S
H35 C16 0.930 . S
H36 C18 0.932 . S
H37 C19 0.929 . S
H38 C20 0.928 . S
H39 C22 0.932 . S
C40 C41 1.264 . S
C40 C45 1.479 . S
C40 C50 1.465 . S
C41 C40 1.264 . S
C41 C43 1.339 . S
C41 H68 0.931 . S
C42 C43 1.395 . S
C42 C44 1.320 . S
C43 C41 1.339 . S
C43 C42 1.395 . S
C43 H69 0.929 . S
C44 C42 1.320 . S
C44 C45 1.405 . S
C44 H70 0.930 . S
C45 C40 1.479 . S
C45 C44 1.405 . S
C45 H71 0.931 . S
U46 O47 2.454 . S
U46 O48 2.458 . S
U46 C49 2.984 . S
U46 C50 2.847 . S
U46 C63 2.882 . S
U46 O64 2.441 . S
U46 O65 2.420 . S
U46 O66 2.455 . S
U46 O67 2.449 . S
O47 U46 2.454 . S
O47 C49 1.353 . S
O48 U46 2.458 . S
O48 C49 1.286 . S
C49 U46 2.984 . S
C49 O47 1.353 . S
C49 O48 1.286 . S
C49 C51 1.363 . S
C50 C40 1.465 . S
C50 U46 2.847 . S
C50 O64 1.249 . S
C50 O65 1.202 . S
C51 C49 1.363 . S
C51 C53 1.408 . S
C51 C56 1.342 . S
C52 C53 1.310 . S
C52 C55 1.461 . S
C52 H72 0.932 . S
C53 C51 1.408 . S
C53 C52 1.310 . S
C53 H73 0.930 . S
C54 C55 1.474 . S
C54 C56 1.285 . S
C54 H74 0.929 . S
C55 C52 1.461 . S
C55 C54 1.474 . S
C56 C51 1.342 . S
C56 C54 1.285 . S
C56 H75 0.930 . S
C57 C60 1.424 . S
C57 C62 1.245 . S
C57 C63 1.428 . S
C58 C61 1.260 . S
C58 C62 1.477 . S
C58 H76 0.932 . S
C59 C60 1.384 . S
C59 C61 1.479 . S
C59 H77 0.929 . S
C60 C57 1.424 . S
C60 C59 1.384 . S
C60 H78 0.928 . S
C61 C58 1.260 . S
C61 C59 1.479 . S
C62 C57 1.245 . S
C62 C58 1.477 . S
C62 H79 0.932 . S
C63 U46 2.882 . S
C63 C57 1.428 . S
C63 O66 1.301 . S
C63 O67 1.282 . S
O64 U46 2.441 . S
O64 C50 1.249 . S
O65 U46 2.420 . S
O65 C50 1.202 . S
O66 U46 2.455 . S
O66 C63 1.301 . S
O67 U46 2.449 . S
O67 C63 1.282 . S
H68 C41 0.931 . S
H69 C43 0.929 . S
H70 C44 0.930 . S
H71 C45 0.931 . S
H72 C52 0.932 . S
H73 C53 0.930 . S
H74 C54 0.929 . S
H75 C56 0.930 . S
H76 C58 0.932 . S
H77 C59 0.929 . S
H78 C60 0.928 . S
H79 C62 0.932 . S
C80 C81 1.264 . S
C80 C85 1.479 . S
C80 C90 1.465 . S
C81 C80 1.264 . S
C81 C83 1.339 . S
C81 H108 0.931 . S
C82 C83 1.395 . S
C82 C84 1.320 . S
C83 C81 1.339 . S
C83 C82 1.395 . S
C83 H109 0.929 . S
C84 C82 1.320 . S
C84 C85 1.405 . S
C84 H110 0.930 . S
C85 C80 1.479 . S
C85 C84 1.405 . S
C85 H111 0.931 . S
U86 O87 2.454 . S
U86 O88 2.458 . S
U86 C89 2.984 . S
U86 C90 2.847 . S
U86 C103 2.882 . S
U86 O104 2.441 . S
U86 O105 2.420 . S
U86 O106 2.455 . S
U86 O107 2.449 . S
O87 U86 2.454 . S
O87 C89 1.353 . S
O88 U86 2.458 . S
O88 C89 1.286 . S
C89 U86 2.984 . S
C89 O87 1.353 . S
C89 O88 1.286 . S
C89 C91 1.363 . S
C90 C80 1.465 . S
C90 U86 2.847 . S
C90 O104 1.249 . S
C90 O105 1.202 . S
C91 C89 1.363 . S
C91 C93 1.408 . S
C91 C96 1.342 . S
C92 C93 1.310 . S
C92 C95 1.461 . S
C92 H112 0.932 . S
C93 C91 1.408 . S
C93 C92 1.310 . S
C93 H113 0.930 . S
C94 C95 1.474 . S
C94 C96 1.285 . S
C94 H114 0.929 . S
C95 C92 1.461 . S
C95 C94 1.474 . S
C96 C91 1.342 . S
C96 C94 1.285 . S
C96 H115 0.930 . S
C97 C100 1.424 . S
C97 C102 1.245 . S
C97 C103 1.428 . S
C98 C101 1.260 . S
C98 C102 1.477 . S
C98 H116 0.932 . S
C99 C100 1.384 . S
C99 C101 1.479 . S
C99 H117 0.929 . S
C100 C97 1.424 . S
C100 C99 1.384 . S
C100 H118 0.928 . S
C101 C98 1.260 . S
C101 C99 1.479 . S
C102 C97 1.245 . S
C102 C98 1.477 . S
C102 H119 0.932 . S
C103 U86 2.882 . S
C103 C97 1.428 . S
C103 O106 1.301 . S
C103 O107 1.282 . S
O104 U86 2.441 . S
O104 C90 1.249 . S
O105 U86 2.420 . S
O105 C90 1.202 . S
O106 U86 2.455 . S
O106 C103 1.301 . S
O107 U86 2.449 . S
O107 C103 1.282 . S
H108 C81 0.931 . S
H109 C83 0.929 . S
H110 C84 0.930 . S
H111 C85 0.931 . S
H112 C92 0.932 . S
H113 C93 0.930 . S
H114 C94 0.929 . S
H115 C96 0.930 . S
H116 C98 0.932 . S
H117 C99 0.929 . S
H118 C100 0.928 . S
H119 C102 0.932 . S
C120 C121 1.264 . S
C120 C125 1.479 . S
C120 C130 1.465 . S
C121 C120 1.264 . S
C121 C123 1.339 . S
C121 H148 0.931 . S
C122 C123 1.395 . S
C122 C124 1.320 . S
C123 C121 1.339 . S
C123 C122 1.395 . S
C123 H149 0.929 . S
C124 C122 1.320 . S
C124 C125 1.405 . S
C124 H150 0.930 . S
C125 C120 1.479 . S
C125 C124 1.405 . S
C125 H151 0.931 . S
U126 O127 2.454 . S
U126 O128 2.458 . S
U126 C129 2.984 . S
U126 C130 2.847 . S
U126 C143 2.882 . S
U126 O144 2.441 . S
U126 O145 2.420 . S
U126 O146 2.455 . S
U126 O147 2.449 . S
O127 U126 2.454 . S
O127 C129 1.353 . S
O128 U126 2.458 . S
O128 C129 1.286 . S
C129 U126 2.984 . S
C129 O127 1.353 . S
C129 O128 1.286 . S
C129 C131 1.363 . S
C130 C120 1.465 . S
C130 U126 2.847 . S
C130 O144 1.249 . S
C130 O145 1.202 . S
C131 C129 1.363 . S
C131 C133 1.408 . S
C131 C136 1.342 . S
C132 C133 1.310 . S
C132 C135 1.461 . S
C132 H152 0.932 . S
C133 C131 1.408 . S
C133 C132 1.310 . S
C133 H153 0.930 . S
C134 C135 1.474 . S
C134 C136 1.285 . S
C134 H154 0.929 . S
C135 C132 1.461 . S
C135 C134 1.474 . S
C136 C131 1.342 . S
C136 C134 1.285 . S
C136 H155 0.930 . S
C137 C140 1.424 . S
C137 C142 1.245 . S
C137 C143 1.428 . S
C138 C141 1.260 . S
C138 C142 1.477 . S
C138 H156 0.932 . S
C139 C140 1.384 . S
C139 C141 1.479 . S
C139 H157 0.929 . S
C140 C137 1.424 . S
C140 C139 1.384 . S
C140 H158 0.928 . S
C141 C138 1.260 . S
C141 C139 1.479 . S
C142 C137 1.245 . S
C142 C138 1.477 . S
C142 H159 0.932 . S
C143 U126 2.882 . S
C143 C137 1.428 . S
C143 O146 1.301 . S
C143 O147 1.282 . S
O144 U126 2.441 . S
O144 C130 1.249 . S
O145 U126 2.420 . S
O145 C130 1.202 . S
O146 U126 2.455 . S
O146 C143 1.301 . S
O147 U126 2.449 . S
O147 C143 1.282 . S
H148 C121 0.931 . S
H149 C123 0.929 . S
H150 C124 0.930 . S
H151 C125 0.931 . S
H152 C132 0.932 . S
H153 C133 0.930 . S
H154 C134 0.929 . S
H155 C136 0.930 . S
H156 C138 0.932 . S
H157 C139 0.929 . S
H158 C140 0.928 . S
H159 C142 0.932 . S
C160 C161 1.264 . S
C160 C165 1.479 . S
C160 C170 1.465 . S
C161 C160 1.264 . S
C161 C163 1.339 . S
C161 H188 0.931 . S
C162 C163 1.395 . S
C162 C164 1.320 . S
C163 C161 1.339 . S
C163 C162 1.395 . S
C163 H189 0.929 . S
C164 C162 1.320 . S
C164 C165 1.405 . S
C164 H190 0.930 . S
C165 C160 1.479 . S
C165 C164 1.405 . S
C165 H191 0.931 . S
U166 O167 2.454 . S
U166 O168 2.458 . S
U166 C169 2.984 . S
U166 C170 2.847 . S
U166 C183 2.882 . S
U166 O184 2.441 . S
U166 O185 2.420 . S
U166 O186 2.455 . S
U166 O187 2.449 . S
O167 U166 2.454 . S
O167 C169 1.353 . S
O168 U166 2.458 . S
O168 C169 1.286 . S
C169 U166 2.984 . S
C169 O167 1.353 . S
C169 O168 1.286 . S
C169 C171 1.363 . S
C170 C160 1.465 . S
C170 U166 2.847 . S
C170 O184 1.249 . S
C170 O185 1.202 . S
C171 C169 1.363 . S
C171 C173 1.408 . S
C171 C176 1.342 . S
C172 C173 1.310 . S
C172 C175 1.461 . S
C172 H192 0.932 . S
C173 C171 1.408 . S
C173 C172 1.310 . S
C173 H193 0.930 . S
C174 C175 1.474 . S
C174 C176 1.285 . S
C174 H194 0.929 . S
C175 C172 1.461 . S
C175 C174 1.474 . S
C176 C171 1.342 . S
C176 C174 1.285 . S
C176 H195 0.930 . S
C177 C180 1.424 . S
C177 C182 1.245 . S
C177 C183 1.428 . S
C178 C181 1.260 . S
C178 C182 1.477 . S
C178 H196 0.932 . S
C179 C180 1.384 . S
C179 C181 1.479 . S
C179 H197 0.929 . S
C180 C177 1.424 . S
C180 C179 1.384 . S
C180 H198 0.928 . S
C181 C178 1.260 . S
C181 C179 1.479 . S
C182 C177 1.245 . S
C182 C178 1.477 . S
C182 H199 0.932 . S
C183 U166 2.882 . S
C183 C177 1.428 . S
C183 O186 1.301 . S
C183 O187 1.282 . S
O184 U166 2.441 . S
O184 C170 1.249 . S
O185 U166 2.420 . S
O185 C170 1.202 . S
O186 U166 2.455 . S
O186 C183 1.301 . S
O187 U166 2.449 . S
O187 C183 1.282 . S
H188 C161 0.931 . S
H189 C163 0.929 . S
H190 C164 0.930 . S
H191 C165 0.931 . S
H192 C172 0.932 . S
H193 C173 0.930 . S
H194 C174 0.929 . S
H195 C176 0.930 . S
H196 C178 0.932 . S
H197 C179 0.929 . S
H198 C180 0.928 . S
H199 C182 0.932 . S
C200 C201 1.264 . S
C200 C205 1.479 . S
C200 C210 1.465 . S
C201 C200 1.264 . S
C201 C203 1.339 . S
C201 H228 0.931 . S
C202 C203 1.395 . S
C202 C204 1.320 . S
C203 C201 1.339 . S
C203 C202 1.395 . S
C203 H229 0.929 . S
C204 C202 1.320 . S
C204 C205 1.405 . S
C204 H230 0.930 . S
C205 C200 1.479 . S
C205 C204 1.405 . S
C205 H231 0.931 . S
U206 O207 2.454 . S
U206 O208 2.458 . S
U206 C209 2.984 . S
U206 C210 2.847 . S
U206 C223 2.882 . S
U206 O224 2.441 . S
U206 O225 2.420 . S
U206 O226 2.455 . S
U206 O227 2.449 . S
O207 U206 2.454 . S
O207 C209 1.353 . S
O208 U206 2.458 . S
O208 C209 1.286 . S
C209 U206 2.984 . S
C209 O207 1.353 . S
C209 O208 1.286 . S
C209 C211 1.363 . S
C210 C200 1.465 . S
C210 U206 2.847 . S
C210 O224 1.249 . S
C210 O225 1.202 . S
C211 C209 1.363 . S
C211 C213 1.408 . S
C211 C216 1.342 . S
C212 C213 1.310 . S
C212 C215 1.461 . S
C212 H232 0.932 . S
C213 C211 1.408 . S
C213 C212 1.310 . S
C213 H233 0.930 . S
C214 C215 1.474 . S
C214 C216 1.285 . S
C214 H234 0.929 . S
C215 C212 1.461 . S
C215 C214 1.474 . S
C216 C211 1.342 . S
C216 C214 1.285 . S
C216 H235 0.930 . S
C217 C220 1.424 . S
C217 C222 1.245 . S
C217 C223 1.428 . S
C218 C221 1.260 . S
C218 C222 1.477 . S
C218 H236 0.932 . S
C219 C220 1.384 . S
C219 C221 1.479 . S
C219 H237 0.929 . S
C220 C217 1.424 . S
C220 C219 1.384 . S
C220 H238 0.928 . S
C221 C218 1.260 . S
C221 C219 1.479 . S
C222 C217 1.245 . S
C222 C218 1.477 . S
C222 H239 0.932 . S
C223 U206 2.882 . S
C223 C217 1.428 . S
C223 O226 1.301 . S
C223 O227 1.282 . S
O224 U206 2.441 . S
O224 C210 1.249 . S
O225 U206 2.420 . S
O225 C210 1.202 . S
O226 U206 2.455 . S
O226 C223 1.301 . S
O227 U206 2.449 . S
O227 C223 1.282 . S
H228 C201 0.931 . S
H229 C203 0.929 . S
H230 C204 0.930 . S
H231 C205 0.931 . S
H232 C212 0.932 . S
H233 C213 0.930 . S
H234 C214 0.929 . S
H235 C216 0.930 . S
H236 C218 0.932 . S
H237 C219 0.929 . S
H238 C220 0.928 . S
H239 C222 0.932 . S
C240 C241 1.264 . S
C240 C245 1.479 . S
C240 C250 1.465 . S
C241 C240 1.264 . S
C241 C243 1.339 . S
C241 H268 0.931 . S
C242 C243 1.395 . S
C242 C244 1.320 . S
C243 C241 1.339 . S
C243 C242 1.395 . S
C243 H269 0.929 . S
C244 C242 1.320 . S
C244 C245 1.405 . S
C244 H270 0.930 . S
C245 C240 1.479 . S
C245 C244 1.405 . S
C245 H271 0.931 . S
U246 O247 2.454 . S
U246 O248 2.458 . S
U246 C249 2.984 . S
U246 C250 2.847 . S
U246 C263 2.882 . S
U246 O264 2.441 . S
U246 O265 2.420 . S
U246 O266 2.455 . S
U246 O267 2.449 . S
O247 U246 2.454 . S
O247 C249 1.353 . S
O248 U246 2.458 . S
O248 C249 1.286 . S
C249 U246 2.984 . S
C249 O247 1.353 . S
C249 O248 1.286 . S
C249 C251 1.363 . S
C250 C240 1.465 . S
C250 U246 2.847 . S
C250 O264 1.249 . S
C250 O265 1.202 . S
C251 C249 1.363 . S
C251 C253 1.408 . S
C251 C256 1.342 . S
C252 C253 1.310 . S
C252 C255 1.461 . S
C252 H272 0.932 . S
C253 C251 1.408 . S
C253 C252 1.310 . S
C253 H273 0.930 . S
C254 C255 1.474 . S
C254 C256 1.285 . S
C254 H274 0.929 . S
C255 C252 1.461 . S
C255 C254 1.474 . S
C256 C251 1.342 . S
C256 C254 1.285 . S
C256 H275 0.930 . S
C257 C260 1.424 . S
C257 C262 1.245 . S
C257 C263 1.428 . S
C258 C261 1.260 . S
C258 C262 1.477 . S
C258 H276 0.932 . S
C259 C260 1.384 . S
C259 C261 1.479 . S
C259 H277 0.929 . S
C260 C257 1.424 . S
C260 C259 1.384 . S
C260 H278 0.928 . S
C261 C258 1.260 . S
C261 C259 1.479 . S
C262 C257 1.245 . S
C262 C258 1.477 . S
C262 H279 0.932 . S
C263 U246 2.882 . S
C263 C257 1.428 . S
C263 O266 1.301 . S
C263 O267 1.282 . S
O264 U246 2.441 . S
O264 C250 1.249 . S
O265 U246 2.420 . S
O265 C250 1.202 . S
O266 U246 2.455 . S
O266 C263 1.301 . S
O267 U246 2.449 . S
O267 C263 1.282 . S
H268 C241 0.931 . S
H269 C243 0.929 . S
H270 C244 0.930 . S
H271 C245 0.931 . S
H272 C252 0.932 . S
H273 C253 0.930 . S
H274 C254 0.929 . S
H275 C256 0.930 . S
H276 C258 0.932 . S
H277 C259 0.929 . S
H278 C260 0.928 . S
H279 C262 0.932 . S
C280 C281 1.264 . S
C280 C285 1.479 . S
C280 C290 1.465 . S
C281 C280 1.264 . S
C281 C283 1.339 . S
C281 H308 0.931 . S
C282 C283 1.395 . S
C282 C284 1.320 . S
C283 C281 1.339 . S
C283 C282 1.395 . S
C283 H309 0.929 . S
C284 C282 1.320 . S
C284 C285 1.405 . S
C284 H310 0.930 . S
C285 C280 1.479 . S
C285 C284 1.405 . S
C285 H311 0.931 . S
U286 O287 2.454 . S
U286 O288 2.458 . S
U286 C289 2.984 . S
U286 C290 2.847 . S
U286 C303 2.882 . S
U286 O304 2.441 . S
U286 O305 2.420 . S
U286 O306 2.455 . S
U286 O307 2.449 . S
O287 U286 2.454 . S
O287 C289 1.353 . S
O288 U286 2.458 . S
O288 C289 1.286 . S
C289 U286 2.984 . S
C289 O287 1.353 . S
C289 O288 1.286 . S
C289 C291 1.363 . S
C290 C280 1.465 . S
C290 U286 2.847 . S
C290 O304 1.249 . S
C290 O305 1.202 . S
C291 C289 1.363 . S
C291 C293 1.408 . S
C291 C296 1.342 . S
C292 C293 1.310 . S
C292 C295 1.461 . S
C292 H312 0.932 . S
C293 C291 1.408 . S
C293 C292 1.310 . S
C293 H313 0.930 . S
C294 C295 1.474 . S
C294 C296 1.285 . S
C294 H314 0.929 . S
C295 C292 1.461 . S
C295 C294 1.474 . S
C296 C291 1.342 . S
C296 C294 1.285 . S
C296 H315 0.930 . S
C297 C300 1.424 . S
C297 C302 1.245 . S
C297 C303 1.428 . S
C298 C301 1.260 . S
C298 C302 1.477 . S
C298 H316 0.932 . S
C299 C300 1.384 . S
C299 C301 1.479 . S
C299 H317 0.929 . S
C300 C297 1.424 . S
C300 C299 1.384 . S
C300 H318 0.928 . S
C301 C298 1.260 . S
C301 C299 1.479 . S
C302 C297 1.245 . S
C302 C298 1.477 . S
C302 H319 0.932 . S
C303 U286 2.882 . S
C303 C297 1.428 . S
C303 O306 1.301 . S
C303 O307 1.282 . S
O304 U286 2.441 . S
O304 C290 1.249 . S
O305 U286 2.420 . S
O305 C290 1.202 . S
O306 U286 2.455 . S
O306 C303 1.301 . S
O307 U286 2.449 . S
O307 C303 1.282 . S
H308 C281 0.931 . S
H309 C283 0.929 . S
H310 C284 0.930 . S
H311 C285 0.931 . S
H312 C292 0.932 . S
H313 C293 0.930 . S
H314 C294 0.929 . S
H315 C296 0.930 . S
H316 C298 0.932 . S
H317 C299 0.929 . S
H318 C300 0.928 . S
H319 C302 0.932 . S
C320 C321 1.560 . S
C320 H381 0.959 . S
C320 H382 0.959 . S
C320 H383 0.960 . S
C321 C320 1.560 . S
C321 O376 1.426 . S
C321 H380 0.980 . S
C322 C323 1.407 . S
C322 C327 1.418 . S
C322 O376 1.334 . S
C323 C322 1.407 . S
C323 C324 1.360 . S
C323 H384 0.929 . S
C324 C323 1.360 . S
C324 C325 1.401 . S
C324 C328 1.527 . S
C325 C324 1.401 . S
C325 C326 1.405 . S
C325 C358 1.587 . S
C326 C325 1.405 . S
C326 C327 1.332 . S
C326 C329 1.496 . S
C327 C322 1.418 . S
C327 C326 1.332 . S
C327 H385 0.929 . S
C328 C324 1.527 . S
C328 H386 0.959 . S
C328 H387 0.961 . S
C328 H388 0.961 . S
C329 C326 1.496 . S
C329 H389 0.960 . S
C329 H390 0.960 1_655 S
C329 H391 0.961 . S
C330 C331 1.517 . S
C330 H393 0.961 . S
C330 H394 0.960 . S
C330 H395 0.959 . S
C331 C330 1.517 . S
C331 O379 1.468 . S
C331 H392 0.980 . S
C332 C333 1.349 . S
C332 C337 1.367 . S
C332 O379 1.408 . S
C333 C332 1.349 . S
C333 C334 1.407 . S
C333 H396 0.930 . S
C334 C333 1.407 . S
C334 C335 1.449 . S
C334 C338 1.535 . S
C335 C334 1.449 . S
C335 C336 1.384 . S
C335 C360 1.553 . S
C336 C335 1.384 . S
C336 C337 1.364 . S
C336 C339 1.450 . S
C337 C332 1.367 . S
C337 C336 1.364 . S
C337 H397 0.931 . S
C338 C334 1.535 . S
C338 H398 0.959 . S
C338 H399 0.961 . S
C338 H400 0.959 . S
C339 C336 1.450 . S
C339 H401 0.960 . S
C339 H402 0.960 . S
C339 H403 0.960 . S
C340 C341 1.309 . S
C340 C345 1.304 . S
C340 O378 1.435 . S
C341 C340 1.309 . S
C341 C342 1.476 . S
C341 H405 0.930 . S
C342 C341 1.476 . S
C342 C343 1.400 . S
C342 C346 1.567 . S
C343 C342 1.400 . S
C343 C344 1.373 . S
C343 C365 1.432 . S
C344 C343 1.373 . S
C344 C345 1.339 . S
C344 C347 1.530 . S
C345 C340 1.304 . S
C345 C344 1.339 . S
C345 H406 0.930 . S
C346 C342 1.567 . S
C346 H407 0.961 . S
C346 H408 0.960 . S
C346 H409 0.958 . S
C347 C344 1.530 . S
C347 H410 0.961 . S
C347 H411 0.960 . S
C347 H412 0.960 . S
C348 C349 1.530 . S
C348 H414 0.961 . S
C348 H415 0.961 . S
C348 H416 0.959 . S
C349 C348 1.530 . S
C349 O377 1.412 . S
C349 H413 0.980 . S
C350 C351 1.288 . S
C350 C355 1.377 . S
C350 O377 1.393 . S
C351 C350 1.288 . S
C351 C352 1.369 . S
C351 H417 0.932 . S
C352 C351 1.369 . S
C352 C353 1.398 . S
C352 C356 1.527 . S
C353 C352 1.398 . S
C353 C354 1.380 . S
C353 C367 1.497 . S
C354 C353 1.380 . S
C354 C355 1.383 . S
C354 C357 1.603 . S
C355 C350 1.377 . S
C355 C354 1.383 . S
C355 H418 0.929 . S
C356 C352 1.527 . S
C356 H419 0.961 . S
C356 H420 0.993 . S
C356 H421 0.959 . S
C357 C354 1.603 . S
C357 H422 0.960 . S
C357 H423 0.962 . S
C357 H424 0.961 . S
C358 C325 1.587 . S
C358 C359 1.360 1_655 S
C358 C371 1.412 . S
C359 C358 1.360 1_455 S
C359 C360 1.365 . S
C359 H425 0.929 . S
C360 C335 1.553 . S
C360 C359 1.365 . S
C360 C361 1.404 . S
C361 C360 1.404 . S
C361 C362 1.395 . S
C361 C372 1.451 . S
C362 C361 1.395 . S
C362 C363 1.322 . S
C362 H426 0.930 . S
C363 C362 1.322 . S
C363 C364 1.459 . S
C363 H427 0.929 . S
C364 C363 1.459 . S
C364 C365 1.445 . S
C364 C373 1.395 . S
C365 C343 1.432 . S
C365 C364 1.445 . S
C365 C366 1.370 . S
C366 C365 1.370 . S
C366 C367 1.438 1_455 S
C366 H428 0.930 . S
C367 C353 1.497 . S
C367 C366 1.438 1_655 S
C367 C368 1.360 . S
C368 C367 1.360 . S
C368 C369 1.401 . S
C368 C373 1.446 1_655 S
C369 C368 1.401 . S
C369 C370 1.347 . S
C369 H429 0.929 . S
C370 C369 1.347 . S
C370 C371 1.455 . S
C370 H430 0.930 . S
C371 C358 1.412 . S
C371 C370 1.455 . S
C371 C372 1.331 1_655 S
C372 C361 1.451 . S
C372 C371 1.331 1_455 S
C372 C373 1.497 . S
C373 C364 1.395 . S
C373 C368 1.446 1_455 S
C373 C372 1.497 . S
C374 C375 1.582 . S
C374 H431 0.962 . S
C374 H432 0.959 . S
C374 H433 0.958 . S
C375 C374 1.582 . S
C375 O378 1.458 . S
C375 H404 0.980 . S
O376 C321 1.426 . S
O376 C322 1.334 . S
O377 C349 1.412 . S
O377 C350 1.393 . S
O378 C340 1.435 . S
O378 C375 1.458 . S
O379 C331 1.468 . S
O379 C332 1.408 . S
H380 C321 0.980 . S
H381 C320 0.959 . S
H382 C320 0.959 . S
H383 C320 0.960 . S
H384 C323 0.929 . S
H385 C327 0.929 . S
H386 C328 0.959 . S
H387 C328 0.961 . S
H388 C328 0.961 . S
H389 C329 0.960 . S
H390 C329 0.960 1_455 S
H391 C329 0.961 . S
H392 C331 0.980 . S
H393 C330 0.961 . S
H394 C330 0.960 . S
H395 C330 0.959 . S
H396 C333 0.930 . S
H397 C337 0.931 . S
H398 C338 0.959 . S
H399 C338 0.961 . S
H400 C338 0.959 . S
H401 C339 0.960 . S
H402 C339 0.960 . S
H403 C339 0.960 . S
H404 C375 0.980 . S
H405 C341 0.930 . S
H406 C345 0.930 . S
H407 C346 0.961 . S
H408 C346 0.960 . S
H409 C346 0.958 . S
H410 C347 0.961 . S
H411 C347 0.960 . S
H412 C347 0.960 . S
H413 C349 0.980 . S
H414 C348 0.961 . S
H415 C348 0.961 . S
H416 C348 0.959 . S
H417 C351 0.932 . S
H418 C355 0.929 . S
H419 C356 0.961 . S
H420 C356 0.993 . S
H421 C356 0.959 . S
H422 C357 0.960 . S
H423 C357 0.962 . S
H424 C357 0.961 . S
H425 C359 0.929 . S
H426 C362 0.930 . S
H427 C363 0.929 . S
H428 C366 0.930 . S
H429 C369 0.929 . S
H430 C370 0.930 . S
H431 C374 0.962 . S
H432 C374 0.959 . S
H433 C374 0.958 . S
C434 C435 1.560 . S
C434 H495 0.959 . S
C434 H496 0.959 . S
C434 H497 0.960 . S
C435 C434 1.560 . S
C435 O490 1.426 . S
C435 H494 0.980 . S
C436 C437 1.407 . S
C436 C441 1.418 . S
C436 O490 1.334 . S
C437 C436 1.407 . S
C437 C438 1.360 . S
C437 H498 0.929 . S
C438 C437 1.360 . S
C438 C439 1.401 . S
C438 C442 1.527 . S
C439 C438 1.401 . S
C439 C440 1.405 . S
C439 C472 1.587 . S
C440 C439 1.405 . S
C440 C441 1.332 . S
C440 C443 1.496 . S
C441 C436 1.418 . S
C441 C440 1.332 . S
C441 H499 0.929 . S
C442 C438 1.527 . S
C442 H500 0.959 . S
C442 H501 0.961 . S
C442 H502 0.961 . S
C443 C440 1.496 . S
C443 H503 0.960 . S
C443 H504 0.960 . S
C443 H505 0.961 . S
C444 C445 1.517 . S
C444 H507 0.961 . S
C444 H508 0.960 . S
C444 H509 0.959 . S
C445 C444 1.517 . S
C445 O493 1.468 . S
C445 H506 0.980 . S
C446 C447 1.349 . S
C446 C451 1.367 . S
C446 O493 1.408 . S
C447 C446 1.349 . S
C447 C448 1.407 . S
C447 H510 0.930 . S
C448 C447 1.407 . S
C448 C449 1.449 . S
C448 C452 1.535 . S
C449 C448 1.449 . S
C449 C450 1.384 . S
C449 C474 1.553 . S
C450 C449 1.384 . S
C450 C451 1.364 . S
C450 C453 1.450 . S
C451 C446 1.367 . S
C451 C450 1.364 . S
C451 H511 0.931 . S
C452 C448 1.535 . S
C452 H512 0.959 . S
C452 H513 0.961 . S
C452 H514 0.959 . S
C453 C450 1.450 . S
C453 H515 0.960 . S
C453 H516 0.960 . S
C453 H517 0.960 . S
C454 C455 1.309 . S
C454 C459 1.304 . S
C454 O492 1.435 . S
C455 C454 1.309 . S
C455 C456 1.476 . S
C455 H519 0.930 . S
C456 C455 1.476 . S
C456 C457 1.400 . S
C456 C460 1.567 . S
C457 C456 1.400 . S
C457 C458 1.373 . S
C457 C479 1.432 . S
C458 C457 1.373 . S
C458 C459 1.339 . S
C458 C461 1.530 . S
C459 C454 1.304 . S
C459 C458 1.339 . S
C459 H520 0.930 . S
C460 C456 1.567 . S
C460 H521 0.961 . S
C460 H522 0.960 . S
C460 H523 0.958 . S
C461 C458 1.530 . S
C461 H524 0.961 . S
C461 H525 0.960 . S
C461 H526 0.960 . S
C462 C463 1.530 . S
C462 H528 0.961 . S
C462 H529 0.961 . S
C462 H530 0.959 . S
C463 C462 1.530 . S
C463 O491 1.412 . S
C463 H527 0.980 . S
C464 C465 1.288 . S
C464 C469 1.377 . S
C464 O491 1.393 . S
C465 C464 1.288 . S
C465 C466 1.369 . S
C465 H531 0.932 . S
C466 C465 1.369 . S
C466 C467 1.398 . S
C466 C470 1.527 . S
C467 C466 1.398 . S
C467 C468 1.380 . S
C467 C481 1.497 . S
C468 C467 1.380 . S
C468 C469 1.383 . S
C468 C471 1.603 . S
C469 C464 1.377 . S
C469 C468 1.383 . S
C469 H532 0.929 . S
C470 C466 1.527 . S
C470 H533 0.961 . S
C470 H534 0.959 . S
C470 H535 0.959 . S
C471 C468 1.603 . S
C471 H536 0.960 . S
C471 H537 0.962 . S
C471 H538 0.961 . S
C472 C439 1.587 . S
C472 C473 1.360 . S
C472 C485 1.412 . S
C473 C472 1.360 . S
C473 C474 1.365 1_455 S
C473 H539 0.929 . S
C474 C449 1.553 . S
C474 C473 1.365 1_655 S
C474 C475 1.404 . S
C475 C474 1.404 . S
C475 C476 1.395 . S
C475 C486 1.451 1_655 S
C476 C475 1.395 . S
C476 C477 1.322 . S
C476 H540 0.930 . S
C477 C476 1.322 . S
C477 C478 1.459 . S
C477 H541 0.929 . S
C478 C477 1.459 . S
C478 C479 1.445 . S
C478 C487 1.395 1_655 S
C479 C457 1.432 . S
C479 C478 1.445 . S
C479 C480 1.370 1_655 S
C480 C479 1.370 1_455 S
C480 C481 1.438 . S
C480 H542 0.930 . S
C481 C467 1.497 . S
C481 C480 1.438 . S
C481 C482 1.360 . S
C482 C481 1.360 . S
C482 C483 1.401 . S
C482 C487 1.446 . S
C483 C482 1.401 . S
C483 C484 1.347 . S
C483 H543 0.929 . S
C484 C483 1.347 . S
C484 C485 1.455 . S
C484 H544 0.930 . S
C485 C472 1.412 . S
C485 C484 1.455 . S
C485 C486 1.331 . S
C486 C475 1.451 1_455 S
C486 C485 1.331 . S
C486 C487 1.497 . S
C487 C478 1.395 1_455 S
C487 C482 1.446 . S
C487 C486 1.497 . S
C488 C489 1.582 . S
C488 H545 0.962 . S
C488 H546 0.959 . S
C488 H547 0.958 . S
C489 C488 1.582 . S
C489 O492 1.458 . S
C489 H518 0.980 . S
O490 C435 1.426 . S
O490 C436 1.334 . S
O491 C463 1.412 . S
O491 C464 1.393 . S
O492 C454 1.435 . S
O492 C489 1.458 . S
O493 C445 1.468 . S
O493 C446 1.408 . S
H494 C435 0.980 . S
H495 C434 0.959 . S
H496 C434 0.959 . S
H497 C434 0.960 . S
H498 C437 0.929 . S
H499 C441 0.929 . S
H500 C442 0.959 . S
H501 C442 0.961 . S
H502 C442 0.961 . S
H503 C443 0.960 . S
H504 C443 0.960 . S
H505 C443 0.961 . S
H506 C445 0.980 . S
H507 C444 0.961 . S
H508 C444 0.960 . S
H509 C444 0.959 . S
H510 C447 0.930 . S
H511 C451 0.931 . S
H512 C452 0.959 . S
H513 C452 0.961 . S
H514 C452 0.959 . S
H515 C453 0.960 . S
H516 C453 0.960 . S
H517 C453 0.960 . S
H518 C489 0.980 . S
H519 C455 0.930 . S
H520 C459 0.930 . S
H521 C460 0.961 . S
H522 C460 0.960 . S
H523 C460 0.958 . S
H524 C461 0.961 . S
H525 C461 0.960 . S
H526 C461 0.960 . S
H527 C463 0.980 . S
H528 C462 0.961 . S
H529 C462 0.961 . S
H530 C462 0.959 . S
H531 C465 0.932 . S
H532 C469 0.929 . S
H533 C470 0.961 . S
H534 C470 0.959 . S
H535 C470 0.959 . S
H536 C471 0.960 . S
H537 C471 0.962 . S
H538 C471 0.961 . S
H539 C473 0.929 . S
H540 C476 0.930 . S
H541 C477 0.929 . S
H542 C480 0.930 . S
H543 C483 0.929 . S
H544 C484 0.930 . S
H545 C488 0.962 . S
H546 C488 0.959 . S
H547 C488 0.958 . S
C548 C549 1.560 . S
C548 H609 0.959 . S
C548 H610 0.959 . S
C548 H611 0.960 . S
C549 C548 1.560 . S
C549 O604 1.426 . S
C549 H608 0.980 . S
C550 C551 1.407 . S
C550 C555 1.418 . S
C550 O604 1.334 . S
C551 C550 1.407 . S
C551 C552 1.360 . S
C551 H612 0.929 . S
C552 C551 1.360 . S
C552 C553 1.401 . S
C552 C556 1.527 . S
C553 C552 1.401 . S
C553 C554 1.405 . S
C553 C586 1.587 . S
C554 C553 1.405 . S
C554 C555 1.332 . S
C554 C557 1.496 . S
C555 C550 1.418 . S
C555 C554 1.332 . S
C555 H613 0.929 . S
C556 C552 1.527 . S
C556 H614 0.959 . S
C556 H615 0.961 . S
C556 H616 0.961 . S
C557 C554 1.496 . S
C557 H617 0.960 . S
C557 H618 0.960 . S
C557 H619 0.961 . S
C558 C559 1.517 . S
C558 H621 0.961 . S
C558 H622 0.960 . S
C558 H623 0.959 . S
C559 C558 1.517 . S
C559 O607 1.468 . S
C559 H620 0.980 . S
C560 C561 1.349 . S
C560 C565 1.367 . S
C560 O607 1.408 . S
C561 C560 1.349 . S
C561 C562 1.407 . S
C561 H624 0.930 . S
C562 C561 1.407 . S
C562 C563 1.449 . S
C562 C566 1.535 . S
C563 C562 1.449 . S
C563 C564 1.384 . S
C563 C588 1.553 . S
C564 C563 1.384 . S
C564 C565 1.364 . S
C564 C567 1.450 . S
C565 C560 1.367 . S
C565 C564 1.364 . S
C565 H625 0.931 . S
C566 C562 1.535 . S
C566 H626 0.959 . S
C566 H627 0.961 . S
C566 H628 0.959 . S
C567 C564 1.450 . S
C567 H629 0.960 . S
C567 H630 0.960 . S
C567 H631 0.960 . S
C568 C569 1.309 . S
C568 C573 1.304 . S
C568 O606 1.435 . S
C569 C568 1.309 . S
C569 C570 1.476 . S
C569 H633 0.930 . S
C570 C569 1.476 . S
C570 C571 1.400 . S
C570 C574 1.567 . S
C571 C570 1.400 . S
C571 C572 1.373 . S
C571 C593 1.432 . S
C572 C571 1.373 . S
C572 C573 1.339 . S
C572 C575 1.530 . S
C573 C568 1.304 . S
C573 C572 1.339 . S
C573 H634 0.930 . S
C574 C570 1.567 . S
C574 H635 0.961 . S
C574 H636 0.960 . S
C574 H637 0.958 . S
C575 C572 1.530 . S
C575 H638 0.961 . S
C575 H639 0.960 . S
C575 H640 0.960 . S
C576 C577 1.530 . S
C576 H642 0.961 . S
C576 H643 0.961 . S
C576 H644 0.959 . S
C577 C576 1.530 . S
C577 O605 1.412 . S
C577 H641 0.980 . S
C578 C579 1.288 . S
C578 C583 1.377 . S
C578 O605 1.393 . S
C579 C578 1.288 . S
C579 C580 1.369 . S
C579 H645 0.932 . S
C580 C579 1.369 . S
C580 C581 1.398 . S
C580 C584 1.527 . S
C581 C580 1.398 . S
C581 C582 1.380 . S
C581 C595 1.497 . S
C582 C581 1.380 . S
C582 C583 1.383 . S
C582 C585 1.603 . S
C583 C578 1.377 . S
C583 C582 1.383 . S
C583 H646 0.929 . S
C584 C580 1.527 . S
C584 H647 0.961 . S
C584 H648 0.959 . S
C584 H649 0.959 . S
C585 C582 1.603 . S
C585 H650 0.960 . S
C585 H651 0.962 . S
C585 H652 0.961 . S
C586 C553 1.587 . S
C586 C587 1.360 . S
C586 C599 1.412 . S
C587 C586 1.360 . S
C587 C588 1.365 1_545 S
C587 H653 0.929 . S
C588 C563 1.553 . S
C588 C587 1.365 1_565 S
C588 C589 1.404 . S
C589 C588 1.404 . S
C589 C590 1.395 . S
C589 C600 1.451 1_565 S
C590 C589 1.395 . S
C590 C591 1.322 . S
C590 H654 0.930 . S
C591 C590 1.322 . S
C591 C592 1.459 . S
C591 H655 0.929 . S
C592 C591 1.459 . S
C592 C593 1.445 . S
C592 C601 1.395 1_565 S
C593 C571 1.432 . S
C593 C592 1.445 . S
C593 C594 1.370 1_565 S
C594 C593 1.370 1_545 S
C594 C595 1.438 . S
C594 H656 0.930 . S
C595 C581 1.497 . S
C595 C594 1.438 . S
C595 C596 1.360 . S
C596 C595 1.360 . S
C596 C597 1.401 . S
C596 C601 1.446 . S
C597 C596 1.401 . S
C597 C598 1.347 . S
C597 H657 0.929 . S
C598 C597 1.347 . S
C598 C599 1.455 . S
C598 H658 0.930 . S
C599 C586 1.412 . S
C599 C598 1.455 . S
C599 C600 1.331 . S
C600 C589 1.451 1_545 S
C600 C599 1.331 . S
C600 C601 1.497 . S
C601 C592 1.395 1_545 S
C601 C596 1.446 . S
C601 C600 1.497 . S
C602 C603 1.582 . S
C602 H659 0.962 . S
C602 H660 0.959 . S
C602 H661 0.958 . S
C603 C602 1.582 . S
C603 O606 1.458 . S
C603 H632 0.980 . S
O604 C549 1.426 . S
O604 C550 1.334 . S
O605 C577 1.412 . S
O605 C578 1.393 . S
O606 C568 1.435 . S
O606 C603 1.458 . S
O607 C559 1.468 . S
O607 C560 1.408 . S
H608 C549 0.980 . S
H609 C548 0.959 . S
H610 C548 0.959 . S
H611 C548 0.960 . S
H612 C551 0.929 . S
H613 C555 0.929 . S
H614 C556 0.959 . S
H615 C556 0.961 . S
H616 C556 0.961 . S
H617 C557 0.960 . S
H618 C557 0.960 . S
H619 C557 0.961 . S
H620 C559 0.980 . S
H621 C558 0.961 . S
H622 C558 0.960 . S
H623 C558 0.959 . S
H624 C561 0.930 . S
H625 C565 0.931 . S
H626 C566 0.959 . S
H627 C566 0.961 . S
H628 C566 0.959 . S
H629 C567 0.960 . S
H630 C567 0.960 . S
H631 C567 0.960 . S
H632 C603 0.980 . S
H633 C569 0.930 . S
H634 C573 0.930 . S
H635 C574 0.961 . S
H636 C574 0.960 . S
H637 C574 0.958 . S
H638 C575 0.961 . S
H639 C575 0.960 . S
H640 C575 0.960 . S
H641 C577 0.980 . S
H642 C576 0.961 . S
H643 C576 0.961 . S
H644 C576 0.959 . S
H645 C579 0.932 . S
H646 C583 0.929 . S
H647 C584 0.961 . S
H648 C584 0.959 . S
H649 C584 0.959 . S
H650 C585 0.960 . S
H651 C585 0.962 . S
H652 C585 0.961 . S
H653 C587 0.929 . S
H654 C590 0.930 . S
H655 C591 0.929 . S
H656 C594 0.930 . S
H657 C597 0.929 . S
H658 C598 0.930 . S
H659 C602 0.962 . S
H660 C602 0.959 . S
H661 C602 0.958 . S
C662 C663 1.560 . S
C662 H723 0.959 . S
C662 H724 0.959 . S
C662 H725 0.960 . S
C663 C662 1.560 . S
C663 O718 1.426 . S
C663 H722 0.980 . S
C664 C665 1.407 . S
C664 C669 1.418 . S
C664 O718 1.334 . S
C665 C664 1.407 . S
C665 C666 1.360 . S
C665 H726 0.929 . S
C666 C665 1.360 . S
C666 C667 1.401 . S
C666 C670 1.527 . S
C667 C666 1.401 . S
C667 C668 1.405 . S
C667 C700 1.587 . S
C668 C667 1.405 . S
C668 C669 1.332 . S
C668 C671 1.496 . S
C669 C664 1.418 . S
C669 C668 1.332 . S
C669 H727 0.929 . S
C670 C666 1.527 . S
C670 H728 0.959 . S
C670 H729 0.961 . S
C670 H730 0.961 . S
C671 C668 1.496 . S
C671 H731 0.960 . S
C671 H732 0.960 . S
C671 H733 0.961 . S
C672 C673 1.517 . S
C672 H735 0.961 . S
C672 H736 0.960 . S
C672 H737 0.959 . S
C673 C672 1.517 . S
C673 O721 1.468 . S
C673 H734 0.980 . S
C674 C675 1.349 . S
C674 C679 1.367 . S
C674 O721 1.408 . S
C675 C674 1.349 . S
C675 C676 1.407 . S
C675 H738 0.930 . S
C676 C675 1.407 . S
C676 C677 1.449 . S
C676 C680 1.535 . S
C677 C676 1.449 . S
C677 C678 1.384 . S
C677 C702 1.553 . S
C678 C677 1.384 . S
C678 C679 1.364 . S
C678 C681 1.450 . S
C679 C674 1.367 . S
C679 C678 1.364 . S
C679 H739 0.931 . S
C680 C676 1.535 . S
C680 H740 0.959 . S
C680 H741 0.961 . S
C680 H742 0.959 . S
C681 C678 1.450 . S
C681 H743 0.960 . S
C681 H744 0.960 . S
C681 H745 0.960 . S
C682 C683 1.309 . S
C682 C687 1.304 . S
C682 O720 1.435 . S
C683 C682 1.309 . S
C683 C684 1.476 . S
C683 H747 0.930 . S
C684 C683 1.476 . S
C684 C685 1.400 . S
C684 C688 1.567 . S
C685 C684 1.400 . S
C685 C686 1.373 . S
C685 C707 1.432 . S
C686 C685 1.373 . S
C686 C687 1.339 . S
C686 C689 1.530 . S
C687 C682 1.304 . S
C687 C686 1.339 . S
C687 H748 0.930 . S
C688 C684 1.567 . S
C688 H749 0.961 . S
C688 H750 0.960 . S
C688 H751 0.958 . S
C689 C686 1.530 . S
C689 H752 0.961 . S
C689 H753 0.960 . S
C689 H754 0.960 . S
C690 C691 1.530 . S
C690 H756 0.961 . S
C690 H757 0.961 . S
C690 H758 0.959 . S
C691 C690 1.530 . S
C691 O719 1.412 . S
C691 H755 0.980 . S
C692 C693 1.288 . S
C692 C697 1.377 . S
C692 O719 1.393 . S
C693 C692 1.288 . S
C693 C694 1.369 . S
C693 H759 0.932 . S
C694 C693 1.369 . S
C694 C695 1.398 . S
C694 C698 1.527 . S
C695 C694 1.398 . S
C695 C696 1.380 . S
C695 C709 1.497 . S
C696 C695 1.380 . S
C696 C697 1.383 . S
C696 C699 1.603 . S
C697 C692 1.377 . S
C697 C696 1.383 . S
C697 H760 0.929 . S
C698 C694 1.527 . S
C698 H761 0.961 . S
C698 H762 0.959 . S
C698 H763 0.959 . S
C699 C696 1.603 . S
C699 H764 0.960 . S
C699 H765 0.962 . S
C699 H766 0.961 . S
C700 C667 1.587 . S
C700 C701 1.360 . S
C700 C713 1.412 . S
C701 C700 1.360 . S
C701 C702 1.365 . S
C701 H767 0.929 . S
C702 C677 1.553 . S
C702 C701 1.365 . S
C702 C703 1.404 . S
C703 C702 1.404 . S
C703 C704 1.395 . S
C703 C714 1.451 . S
C704 C703 1.395 . S
C704 C705 1.321 . S
C704 H768 0.930 . S
C705 C704 1.321 . S
C705 C706 1.459 1_554 S
C705 H769 0.930 1_554 S
C706 C705 1.459 1_556 S
C706 C707 1.445 . S
C706 C715 1.395 . S
C707 C685 1.432 . S
C707 C706 1.445 . S
C707 C708 1.370 . S
C708 C707 1.370 . S
C708 C709 1.438 . S
C708 H770 0.930 . S
C709 C695 1.497 . S
C709 C708 1.438 . S
C709 C710 1.360 . S
C710 C709 1.360 . S
C710 C711 1.401 . S
C710 C715 1.446 . S
C711 C710 1.401 . S
C711 C712 1.347 1_556 S
C711 H771 0.929 . S
C712 C711 1.347 1_554 S
C712 C713 1.455 . S
C712 H772 0.930 . S
C713 C700 1.412 . S
C713 C712 1.455 . S
C713 C714 1.331 . S
C714 C703 1.451 . S
C714 C713 1.331 . S
C714 C715 1.497 1_554 S
C715 C706 1.395 . S
C715 C710 1.446 . S
C715 C714 1.497 1_556 S
C716 C717 1.582 . S
C716 H773 0.962 . S
C716 H774 0.959 . S
C716 H775 0.958 . S
C717 C716 1.582 . S
C717 O720 1.458 . S
C717 H746 0.980 . S
O718 C663 1.426 . S
O718 C664 1.334 . S
O719 C691 1.412 . S
O719 C692 1.393 . S
O720 C682 1.435 . S
O720 C717 1.458 . S
O721 C673 1.468 . S
O721 C674 1.408 . S
H722 C663 0.980 . S
H723 C662 0.959 . S
H724 C662 0.959 . S
H725 C662 0.960 . S
H726 C665 0.929 . S
H727 C669 0.929 . S
H728 C670 0.959 . S
H729 C670 0.961 . S
H730 C670 0.961 . S
H731 C671 0.960 . S
H732 C671 0.960 . S
H733 C671 0.961 . S
H734 C673 0.980 . S
H735 C672 0.961 . S
H736 C672 0.960 . S
H737 C672 0.959 . S
H738 C675 0.930 . S
H739 C679 0.931 . S
H740 C680 0.959 . S
H741 C680 0.961 . S
H742 C680 0.959 . S
H743 C681 0.960 . S
H744 C681 0.960 . S
H745 C681 0.960 . S
H746 C717 0.980 . S
H747 C683 0.930 . S
H748 C687 0.930 . S
H749 C688 0.961 . S
H750 C688 0.960 . S
H751 C688 0.958 . S
H752 C689 0.961 . S
H753 C689 0.960 . S
H754 C689 0.960 . S
H755 C691 0.980 . S
H756 C690 0.961 . S
H757 C690 0.961 . S
H758 C690 0.959 . S
H759 C693 0.932 . S
H760 C697 0.929 . S
H761 C698 0.961 . S
H762 C698 0.959 . S
H763 C698 0.959 . S
H764 C699 0.960 . S
H765 C699 0.962 . S
H766 C699 0.961 . S
H767 C701 0.929 . S
H768 C704 0.930 . S
H769 C705 0.930 1_556 S
H770 C708 0.930 . S
H771 C711 0.929 . S
H772 C712 0.930 . S
H773 C716 0.962 . S
H774 C716 0.959 . S
H775 C716 0.958 . S
C776 C777 1.560 . S
C776 H837 0.959 . S
C776 H838 0.959 . S
C776 H839 0.960 . S
C777 C776 1.560 . S
C777 O832 1.426 . S
C777 H836 0.980 . S
C778 C779 1.407 . S
C778 C783 1.418 . S
C778 O832 1.334 . S
C779 C778 1.407 . S
C779 C780 1.360 . S
C779 H840 0.929 . S
C780 C779 1.360 . S
C780 C781 1.401 . S
C780 C784 1.527 . S
C781 C780 1.401 . S
C781 C782 1.405 . S
C781 C814 1.587 . S
C782 C781 1.405 . S
C782 C783 1.332 . S
C782 C785 1.496 . S
C783 C778 1.418 . S
C783 C782 1.332 . S
C783 H841 0.929 . S
C784 C780 1.527 . S
C784 H842 0.959 . S
C784 H843 0.961 . S
C784 H844 0.961 . S
C785 C782 1.496 . S
C785 H845 0.960 . S
C785 H846 0.960 . S
C785 H847 0.961 . S
C786 C787 1.517 . S
C786 H849 0.961 . S
C786 H850 0.960 . S
C786 H851 0.959 . S
C787 C786 1.517 . S
C787 O835 1.468 . S
C787 H848 0.980 . S
C788 C789 1.349 . S
C788 C793 1.367 . S
C788 O835 1.408 . S
C789 C788 1.349 . S
C789 C790 1.407 . S
C789 H852 0.930 . S
C790 C789 1.407 . S
C790 C791 1.449 . S
C790 C794 1.535 . S
C791 C790 1.449 . S
C791 C792 1.384 . S
C791 C816 1.553 . S
C792 C791 1.384 . S
C792 C793 1.364 . S
C792 C795 1.450 . S
C793 C788 1.367 . S
C793 C792 1.364 . S
C793 H853 0.931 . S
C794 C790 1.535 . S
C794 H854 0.959 . S
C794 H855 0.961 . S
C794 H856 0.959 . S
C795 C792 1.450 . S
C795 H857 0.960 . S
C795 H858 0.960 . S
C795 H859 0.960 . S
C796 C797 1.309 . S
C796 C801 1.304 . S
C796 O834 1.435 . S
C797 C796 1.309 . S
C797 C798 1.476 . S
C797 H861 0.930 . S
C798 C797 1.476 . S
C798 C799 1.400 . S
C798 C802 1.567 . S
C799 C798 1.400 . S
C799 C800 1.373 . S
C799 C821 1.432 . S
C800 C799 1.373 . S
C800 C801 1.339 . S
C800 C803 1.530 . S
C801 C796 1.304 . S
C801 C800 1.339 . S
C801 H862 0.930 . S
C802 C798 1.567 . S
C802 H863 0.961 . S
C802 H864 0.960 . S
C802 H865 0.958 . S
C803 C800 1.530 . S
C803 H866 0.961 . S
C803 H867 0.960 . S
C803 H868 0.960 . S
C804 C805 1.530 . S
C804 H870 0.961 . S
C804 H871 0.961 . S
C804 H872 0.959 . S
C805 C804 1.530 . S
C805 O833 1.412 . S
C805 H869 0.980 . S
C806 C807 1.288 . S
C806 C811 1.377 . S
C806 O833 1.393 . S
C807 C806 1.288 . S
C807 C808 1.369 . S
C807 H873 0.932 . S
C808 C807 1.369 . S
C808 C809 1.398 . S
C808 C812 1.527 . S
C809 C808 1.398 . S
C809 C810 1.380 . S
C809 C823 1.497 . S
C810 C809 1.380 . S
C810 C811 1.383 . S
C810 C813 1.603 . S
C811 C806 1.377 . S
C811 C810 1.383 . S
C811 H874 0.929 . S
C812 C808 1.527 . S
C812 H875 0.961 . S
C812 H876 0.959 . S
C812 H877 0.959 . S
C813 C810 1.603 . S
C813 H878 0.960 . S
C813 H879 0.962 . S
C813 H880 0.961 . S
C814 C781 1.587 . S
C814 C815 1.360 . S
C814 C827 1.412 . S
C815 C814 1.360 . S
C815 C816 1.365 1_545 S
C815 H881 0.929 . S
C816 C791 1.553 . S
C816 C815 1.365 1_565 S
C816 C817 1.404 . S
C817 C816 1.404 . S
C817 C818 1.395 . S
C817 C828 1.451 1_565 S
C818 C817 1.395 . S
C818 C819 1.322 . S
C818 H882 0.930 . S
C819 C818 1.322 . S
C819 C820 1.459 . S
C819 H883 0.929 . S
C820 C819 1.459 . S
C820 C821 1.445 . S
C820 C829 1.395 1_565 S
C821 C799 1.432 . S
C821 C820 1.445 . S
C821 C822 1.370 1_565 S
C822 C821 1.370 1_545 S
C822 C823 1.438 . S
C822 H884 0.930 . S
C823 C809 1.497 . S
C823 C822 1.438 . S
C823 C824 1.360 . S
C824 C823 1.360 . S
C824 C825 1.401 . S
C824 C829 1.446 . S
C825 C824 1.401 . S
C825 C826 1.347 . S
C825 H885 0.929 . S
C826 C825 1.347 . S
C826 C827 1.455 . S
C826 H886 0.930 . S
C827 C814 1.412 . S
C827 C826 1.455 . S
C827 C828 1.331 . S
C828 C817 1.451 1_545 S
C828 C827 1.331 . S
C828 C829 1.497 . S
C829 C820 1.395 1_545 S
C829 C824 1.446 . S
C829 C828 1.497 . S
C830 C831 1.582 . S
C830 H887 0.962 . S
C830 H888 0.959 . S
C830 H889 0.958 . S
C831 C830 1.582 . S
C831 O834 1.458 . S
C831 H860 0.980 . S
O832 C777 1.426 . S
O832 C778 1.334 . S
O833 C805 1.412 . S
O833 C806 1.393 . S
O834 C796 1.435 . S
O834 C831 1.458 . S
O835 C787 1.468 . S
O835 C788 1.408 . S
H836 C777 0.980 . S
H837 C776 0.959 . S
H838 C776 0.959 . S
H839 C776 0.960 . S
H840 C779 0.929 . S
H841 C783 0.929 . S
H842 C784 0.959 . S
H843 C784 0.961 . S
H844 C784 0.961 . S
H845 C785 0.960 . S
H846 C785 0.960 . S
H847 C785 0.961 . S
H848 C787 0.980 . S
H849 C786 0.961 . S
H850 C786 0.960 . S
H851 C786 0.959 . S
H852 C789 0.930 . S
H853 C793 0.931 . S
H854 C794 0.959 . S
H855 C794 0.961 . S
H856 C794 0.959 . S
H857 C795 0.960 . S
H858 C795 0.960 . S
H859 C795 0.960 . S
H860 C831 0.980 . S
H861 C797 0.930 . S
H862 C801 0.930 . S
H863 C802 0.961 . S
H864 C802 0.960 . S
H865 C802 0.958 . S
H866 C803 0.961 . S
H867 C803 0.960 . S
H868 C803 0.960 . S
H869 C805 0.980 . S
H870 C804 0.961 . S
H871 C804 0.961 . S
H872 C804 0.959 . S
H873 C807 0.932 . S
H874 C811 0.929 . S
H875 C812 0.961 . S
H876 C812 0.959 . S
H877 C812 0.959 . S
H878 C813 0.960 . S
H879 C813 0.962 . S
H880 C813 0.961 . S
H881 C815 0.929 . S
H882 C818 0.930 . S
H883 C819 0.929 . S
H884 C822 0.930 . S
H885 C825 0.929 . S
H886 C826 0.930 . S
H887 C830 0.962 . S
H888 C830 0.959 . S
H889 C830 0.958 . S
C890 C891 1.560 . S
C890 H951 0.959 . S
C890 H952 0.959 . S
C890 H953 0.960 . S
C891 C890 1.560 . S
C891 O946 1.426 . S
C891 H950 0.980 . S
C892 C893 1.407 . S
C892 C897 1.418 . S
C892 O946 1.334 . S
C893 C892 1.407 . S
C893 C894 1.360 . S
C893 H954 0.929 . S
C894 C893 1.360 . S
C894 C895 1.401 . S
C894 C898 1.527 . S
C895 C894 1.401 . S
C895 C896 1.405 . S
C895 C928 1.587 . S
C896 C895 1.405 . S
C896 C897 1.332 . S
C896 C899 1.496 . S
C897 C892 1.418 . S
C897 C896 1.332 . S
C897 H955 0.929 . S
C898 C894 1.527 . S
C898 H956 0.959 . S
C898 H957 0.961 . S
C898 H958 0.961 . S
C899 C896 1.496 . S
C899 H959 0.960 . S
C899 H960 0.960 . S
C899 H961 0.961 . S
C900 C901 1.517 . S
C900 H963 0.961 . S
C900 H964 0.960 . S
C900 H965 0.959 . S
C901 C900 1.517 . S
C901 O949 1.468 . S
C901 H962 0.980 . S
C902 C903 1.349 . S
C902 C907 1.367 . S
C902 O949 1.408 . S
C903 C902 1.349 . S
C903 C904 1.407 . S
C903 H966 0.930 . S
C904 C903 1.407 . S
C904 C905 1.449 . S
C904 C908 1.535 . S
C905 C904 1.449 . S
C905 C906 1.384 . S
C905 C930 1.553 . S
C906 C905 1.384 . S
C906 C907 1.364 . S
C906 C909 1.450 . S
C907 C902 1.367 . S
C907 C906 1.364 . S
C907 H967 0.931 . S
C908 C904 1.535 . S
C908 H968 0.959 . S
C908 H969 0.961 . S
C908 H970 0.959 . S
C909 C906 1.450 . S
C909 H971 0.960 . S
C909 H972 0.960 . S
C909 H973 0.960 . S
C910 C911 1.309 . S
C910 C915 1.304 . S
C910 O948 1.435 . S
C911 C910 1.309 . S
C911 C912 1.476 . S
C911 H975 0.930 . S
C912 C911 1.476 . S
C912 C913 1.400 . S
C912 C916 1.567 . S
C913 C912 1.400 . S
C913 C914 1.373 . S
C913 C935 1.432 . S
C914 C913 1.373 . S
C914 C915 1.339 . S
C914 C917 1.530 . S
C915 C910 1.304 . S
C915 C914 1.339 . S
C915 H976 0.930 . S
C916 C912 1.567 . S
C916 H977 0.961 . S
C916 H978 0.960 . S
C916 H979 0.958 . S
C917 C914 1.530 . S
C917 H980 0.961 . S
C917 H981 0.960 . S
C917 H982 0.960 . S
C918 C919 1.530 . S
C918 H984 0.961 . S
C918 H985 0.961 . S
C918 H986 0.959 . S
C919 C918 1.530 . S
C919 O947 1.412 . S
C919 H983 0.980 . S
C920 C921 1.288 . S
C920 C925 1.377 . S
C920 O947 1.393 . S
C921 C920 1.288 . S
C921 C922 1.369 . S
C921 H987 0.932 . S
C922 C921 1.369 . S
C922 C923 1.398 . S
C922 C926 1.527 . S
C923 C922 1.398 . S
C923 C924 1.380 . S
C923 C937 1.497 . S
C924 C923 1.380 . S
C924 C925 1.383 . S
C924 C927 1.603 . S
C925 C920 1.377 . S
C925 C924 1.383 . S
C925 H988 0.929 . S
C926 C922 1.527 . S
C926 H989 0.961 . S
C926 H990 0.959 . S
C926 H991 0.959 . S
C927 C924 1.603 . S
C927 H992 0.960 . S
C927 H993 0.962 . S
C927 H994 0.961 . S
C928 C895 1.587 . S
C928 C929 1.360 . S
C928 C941 1.412 . S
C929 C928 1.360 . S
C929 C930 1.365 . S
C929 H995 0.929 . S
C930 C905 1.553 . S
C930 C929 1.365 . S
C930 C931 1.404 . S
C931 C930 1.404 . S
C931 C932 1.395 . S
C931 C942 1.451 . S
C932 C931 1.395 . S
C932 C933 1.322 1_554 S
C932 H996 0.930 . S
C933 C932 1.322 1_556 S
C933 C934 1.459 . S
C933 H997 0.929 . S
C934 C933 1.459 . S
C934 C935 1.445 . S
C934 C943 1.395 . S
C935 C913 1.432 . S
C935 C934 1.445 . S
C935 C936 1.370 . S
C936 C935 1.370 . S
C936 C937 1.438 . S
C936 H998 0.930 . S
C937 C923 1.497 . S
C937 C936 1.438 . S
C937 C938 1.360 . S
C938 C937 1.360 . S
C938 C939 1.400 1_556 S
C938 C943 1.446 . S
C939 C938 1.400 1_554 S
C939 C940 1.348 . S
C939 H999 0.929 1_554 S
C940 C939 1.348 . S
C940 C941 1.455 . S
C940 H1000 0.930 . S
C941 C928 1.412 . S
C941 C940 1.455 . S
C941 C942 1.331 . S
C942 C931 1.451 . S
C942 C941 1.331 . S
C942 C943 1.497 1_554 S
C943 C934 1.395 . S
C943 C938 1.446 . S
C943 C942 1.497 1_556 S
C944 C945 1.582 . S
C944 H1001 0.962 . S
C944 H1002 0.959 . S
C944 H1003 0.958 . S
C945 C944 1.582 . S
C945 O948 1.458 . S
C945 H974 0.980 . S
O946 C891 1.426 . S
O946 C892 1.334 . S
O947 C919 1.412 . S
O947 C920 1.393 . S
O948 C910 1.435 . S
O948 C945 1.458 . S
O949 C901 1.468 . S
O949 C902 1.408 . S
H950 C891 0.980 . S
H951 C890 0.959 . S
H952 C890 0.959 . S
H953 C890 0.960 . S
H954 C893 0.929 . S
H955 C897 0.929 . S
H956 C898 0.959 . S
H957 C898 0.961 . S
H958 C898 0.961 . S
H959 C899 0.960 . S
H960 C899 0.960 . S
H961 C899 0.961 . S
H962 C901 0.980 . S
H963 C900 0.961 . S
H964 C900 0.960 . S
H965 C900 0.959 . S
H966 C903 0.930 . S
H967 C907 0.931 . S
H968 C908 0.959 . S
H969 C908 0.961 . S
H970 C908 0.959 . S
H971 C909 0.960 . S
H972 C909 0.960 . S
H973 C909 0.960 . S
H974 C945 0.980 . S
H975 C911 0.930 . S
H976 C915 0.930 . S
H977 C916 0.961 . S
H978 C916 0.960 . S
H979 C916 0.958 . S
H980 C917 0.961 . S
H981 C917 0.960 . S
H982 C917 0.960 . S
H983 C919 0.980 . S
H984 C918 0.961 . S
H985 C918 0.961 . S
H986 C918 0.959 . S
H987 C921 0.932 . S
H988 C925 0.929 . S
H989 C926 0.961 . S
H990 C926 0.959 . S
H991 C926 0.959 . S
H992 C927 0.960 . S
H993 C927 0.962 . S
H994 C927 0.961 . S
H995 C929 0.929 . S
H996 C932 0.930 . S
H997 C933 0.929 . S
H998 C936 0.930 . S
H999 C939 0.929 1_556 S
H1000 C940 0.930 . S
H1001 C944 0.962 . S
H1002 C944 0.959 . S
H1003 C944 0.958 . S
H1004 C1012 0.950 . S
H1005 C1017 0.950 . S
H1006 C1014 0.950 . S
H1007 C1016 0.950 . S
H1008 C1018 0.950 . S
H1009 C1020 0.950 . S
H1010 C1022 0.950 . S
H1011 C1023 0.950 . S
C1012 H1004 0.950 . S
C1012 C1013 1.386 . S
C1012 C1014 1.391 . S
C1013 C1012 1.386 . S
C1013 C1017 1.393 . S
C1014 H1006 0.950 . S
C1014 C1012 1.391 . S
C1014 C1015 1.400 . S
C1015 C1014 1.400 . S
C1015 C1016 1.398 . S
C1015 C1021 1.491 . S
C1016 H1007 0.950 . S
C1016 C1015 1.398 . S
C1016 C1017 1.391 . S
C1017 H1005 0.950 . S
C1017 C1013 1.393 . S
C1017 C1016 1.391 . S
C1018 H1008 0.950 . S
C1018 C1019 1.386 . S
C1018 C1020 1.391 . S
C1019 C1018 1.386 . S
C1019 C1023 1.393 . S
C1020 H1009 0.950 . S
C1020 C1018 1.391 . S
C1020 C1021 1.400 . S
C1021 C1015 1.491 . S
C1021 C1020 1.400 . S
C1021 C1022 1.398 . S
C1022 H1010 0.950 . S
C1022 C1021 1.398 . S
C1022 C1023 1.391 . S
C1023 H1011 0.950 . S
C1023 C1019 1.393 . S
C1023 C1022 1.391 . S
H1024 C1032 0.950 . S
H1025 C1037 0.950 . S
H1026 C1034 0.950 . S
H1027 C1036 0.950 . S
H1028 C1038 0.950 . S
H1029 C1040 0.950 . S
H1030 C1042 0.950 . S
H1031 C1043 0.950 . S
C1032 H1024 0.950 . S
C1032 C1033 1.386 . S
C1032 C1034 1.391 . S
C1033 C1032 1.386 . S
C1033 C1037 1.393 . S
C1034 H1026 0.950 . S
C1034 C1032 1.391 . S
C1034 C1035 1.400 . S
C1035 C1034 1.400 . S
C1035 C1036 1.398 . S
C1035 C1041 1.491 . S
C1036 H1027 0.950 . S
C1036 C1035 1.398 . S
C1036 C1037 1.391 . S
C1037 H1025 0.950 . S
C1037 C1033 1.393 . S
C1037 C1036 1.391 . S
C1038 H1028 0.950 . S
C1038 C1039 1.386 . S
C1038 C1040 1.391 . S
C1039 C1038 1.386 . S
C1039 C1043 1.393 . S
C1040 H1029 0.950 . S
C1040 C1038 1.391 . S
C1040 C1041 1.400 . S
C1041 C1035 1.491 . S
C1041 C1040 1.400 . S
C1041 C1042 1.398 . S
C1042 H1030 0.950 . S
C1042 C1041 1.398 . S
C1042 C1043 1.391 . S
C1043 H1031 0.950 . S
C1043 C1039 1.393 . S
C1043 C1042 1.391 . S
H1044 C1052 0.950 . S
H1045 C1057 0.950 . S
H1046 C1054 0.950 . S
H1047 C1056 0.950 . S
H1048 C1058 0.950 . S
H1049 C1060 0.950 . S
H1050 C1062 0.950 . S
H1051 C1063 0.950 . S
C1052 H1044 0.950 . S
C1052 C1053 1.386 . S
C1052 C1054 1.391 . S
C1053 C1052 1.386 . S
C1053 C1057 1.393 . S
C1054 H1046 0.950 . S
C1054 C1052 1.391 . S
C1054 C1055 1.400 . S
C1055 C1054 1.400 . S
C1055 C1056 1.398 . S
C1055 C1061 1.491 . S
C1056 H1047 0.950 . S
C1056 C1055 1.398 . S
C1056 C1057 1.391 . S
C1057 H1045 0.950 . S
C1057 C1053 1.393 . S
C1057 C1056 1.391 . S
C1058 H1048 0.950 . S
C1058 C1059 1.386 . S
C1058 C1060 1.391 . S
C1059 C1058 1.386 . S
C1059 C1063 1.393 . S
C1060 H1049 0.950 . S
C1060 C1058 1.391 . S
C1060 C1061 1.400 . S
C1061 C1055 1.491 . S
C1061 C1060 1.400 . S
C1061 C1062 1.398 . S
C1062 H1050 0.950 . S
C1062 C1061 1.398 . S
C1062 C1063 1.391 . S
C1063 H1051 0.950 . S
C1063 C1059 1.393 . S
C1063 C1062 1.391 . S
H1064 C1072 0.950 . S
H1065 C1077 0.950 . S
H1066 C1074 0.950 . S
H1067 C1076 0.950 . S
H1068 C1078 0.950 . S
H1069 C1080 0.950 . S
H1070 C1082 0.950 . S
H1071 C1083 0.950 . S
C1072 H1064 0.950 . S
C1072 C1073 1.386 . S
C1072 C1074 1.391 . S
C1073 C1072 1.386 . S
C1073 C1077 1.393 . S
C1074 H1066 0.950 . S
C1074 C1072 1.391 . S
C1074 C1075 1.400 . S
C1075 C1074 1.400 . S
C1075 C1076 1.398 . S
C1075 C1081 1.491 . S
C1076 H1067 0.950 . S
C1076 C1075 1.398 . S
C1076 C1077 1.391 . S
C1077 H1065 0.950 . S
C1077 C1073 1.393 . S
C1077 C1076 1.391 . S
C1078 H1068 0.950 . S
C1078 C1079 1.386 . S
C1078 C1080 1.391 . S
C1079 C1078 1.386 . S
C1079 C1083 1.393 . S
C1080 H1069 0.950 . S
C1080 C1078 1.391 . S
C1080 C1081 1.400 . S
C1081 C1075 1.491 . S
C1081 C1080 1.400 . S
C1081 C1082 1.398 . S
C1082 H1070 0.950 . S
C1082 C1081 1.398 . S
C1082 C1083 1.391 . S
C1083 H1071 0.950 . S
C1083 C1079 1.393 . S
C1083 C1082 1.391 . S
H1084 C1092 0.950 . S
H1085 C1097 0.950 . S
H1086 C1094 0.950 . S
H1087 C1096 0.950 . S
H1088 C1098 0.950 . S
H1089 C1100 0.950 . S
H1090 C1102 0.950 . S
H1091 C1103 0.950 . S
C1092 H1084 0.950 . S
C1092 C1093 1.386 . S
C1092 C1094 1.391 . S
C1093 C1092 1.386 . S
C1093 C1097 1.393 . S
C1094 H1086 0.950 . S
C1094 C1092 1.391 . S
C1094 C1095 1.400 . S
C1095 C1094 1.400 . S
C1095 C1096 1.398 . S
C1095 C1101 1.491 . S
C1096 H1087 0.950 . S
C1096 C1095 1.398 . S
C1096 C1097 1.391 . S
C1097 H1085 0.950 . S
C1097 C1093 1.393 . S
C1097 C1096 1.391 . S
C1098 H1088 0.950 . S
C1098 C1099 1.386 . S
C1098 C1100 1.391 . S
C1099 C1098 1.386 . S
C1099 C1103 1.393 . S
C1100 H1089 0.950 . S
C1100 C1098 1.391 . S
C1100 C1101 1.400 . S
C1101 C1095 1.491 . S
C1101 C1100 1.400 . S
C1101 C1102 1.398 . S
C1102 H1090 0.950 . S
C1102 C1101 1.398 . S
C1102 C1103 1.391 . S
C1103 H1091 0.950 . S
C1103 C1099 1.393 . S
C1103 C1102 1.391 . S
H1104 C1112 0.950 . S
H1105 C1117 0.950 . S
H1106 C1114 0.950 . S
H1107 C1116 0.950 . S
H1108 C1118 0.950 . S
H1109 C1120 0.950 . S
H1110 C1122 0.950 . S
H1111 C1123 0.950 . S
C1112 H1104 0.950 . S
C1112 C1113 1.386 . S
C1112 C1114 1.391 . S
C1113 C1112 1.386 . S
C1113 C1117 1.393 . S
C1114 H1106 0.950 . S
C1114 C1112 1.391 . S
C1114 C1115 1.400 . S
C1115 C1114 1.400 . S
C1115 C1116 1.398 . S
C1115 C1121 1.491 . S
C1116 H1107 0.950 . S
C1116 C1115 1.398 . S
C1116 C1117 1.391 . S
C1117 H1105 0.950 . S
C1117 C1113 1.393 . S
C1117 C1116 1.391 . S
C1118 H1108 0.950 . S
C1118 C1119 1.386 . S
C1118 C1120 1.391 . S
C1119 C1118 1.386 . S
C1119 C1123 1.393 . S
C1120 H1109 0.950 . S
C1120 C1118 1.391 . S
C1120 C1121 1.400 . S
C1121 C1115 1.491 . S
C1121 C1120 1.400 . S
C1121 C1122 1.398 . S
C1122 H1110 0.950 . S
C1122 C1121 1.398 . S
C1122 C1123 1.391 . S
C1123 H1111 0.950 . S
C1123 C1119 1.393 . S
C1123 C1122 1.391 . S
H1124 C1132 0.950 . S
H1125 C1137 0.950 . S
H1126 C1134 0.950 . S
H1127 C1136 0.950 . S
H1128 C1138 0.950 . S
H1129 C1140 0.950 . S
H1130 C1142 0.950 . S
H1131 C1143 0.950 . S
C1132 H1124 0.950 . S
C1132 C1133 1.386 . S
C1132 C1134 1.391 . S
C1133 C1132 1.386 . S
C1133 C1137 1.393 . S
C1134 H1126 0.950 . S
C1134 C1132 1.391 . S
C1134 C1135 1.400 . S
C1135 C1134 1.400 . S
C1135 C1136 1.398 . S
C1135 C1141 1.491 . S
C1136 H1127 0.950 . S
C1136 C1135 1.398 . S
C1136 C1137 1.391 . S
C1137 H1125 0.950 . S
C1137 C1133 1.393 . S
C1137 C1136 1.391 . S
C1138 H1128 0.950 . S
C1138 C1139 1.386 . S
C1138 C1140 1.391 . S
C1139 C1138 1.386 . S
C1139 C1143 1.393 . S
C1140 H1129 0.950 . S
C1140 C1138 1.391 . S
C1140 C1141 1.400 . S
C1141 C1135 1.491 . S
C1141 C1140 1.400 . S
C1141 C1142 1.398 . S
C1142 H1130 0.950 . S
C1142 C1141 1.398 . S
C1142 C1143 1.391 . S
C1143 H1131 0.950 . S
C1143 C1139 1.393 . S
C1143 C1142 1.391 . S
H1144 C1152 0.950 . S
H1145 C1157 0.950 . S
H1146 C1154 0.950 . S
H1147 C1156 0.950 . S
H1148 C1158 0.950 . S
H1149 C1160 0.950 . S
H1150 C1162 0.950 . S
H1151 C1163 0.950 . S
C1152 H1144 0.950 . S
C1152 C1153 1.386 . S
C1152 C1154 1.391 . S
C1153 C1152 1.386 . S
C1153 C1157 1.393 . S
C1154 H1146 0.950 . S
C1154 C1152 1.391 . S
C1154 C1155 1.400 . S
C1155 C1154 1.400 . S
C1155 C1156 1.398 . S
C1155 C1161 1.491 . S
C1156 H1147 0.950 . S
C1156 C1155 1.398 . S
C1156 C1157 1.391 . S
C1157 H1145 0.950 . S
C1157 C1153 1.393 . S
C1157 C1156 1.391 . S
C1158 H1148 0.950 . S
C1158 C1159 1.386 . S
C1158 C1160 1.391 . S
C1159 C1158 1.386 . S
C1159 C1163 1.393 . S
C1160 H1149 0.950 . S
C1160 C1158 1.391 . S
C1160 C1161 1.400 . S
C1161 C1155 1.491 . S
C1161 C1160 1.400 . S
C1161 C1162 1.398 . S
C1162 H1150 0.950 . S
C1162 C1161 1.398 . S
C1162 C1163 1.391 . S
C1163 H1151 0.950 . S
C1163 C1159 1.393 . S
C1163 C1162 1.391 . S
H1164 C1172 0.950 . S
H1165 C1177 0.950 . S
H1166 C1174 0.950 . S
H1167 C1176 0.950 . S
H1168 C1178 0.950 . S
H1169 C1180 0.950 . S
H1170 C1182 0.950 . S
H1171 C1183 0.950 . S
C1172 H1164 0.950 . S
C1172 C1173 1.386 . S
C1172 C1174 1.391 . S
C1173 C1172 1.386 . S
C1173 C1177 1.393 . S
C1174 H1166 0.950 . S
C1174 C1172 1.391 . S
C1174 C1175 1.400 . S
C1175 C1174 1.400 . S
C1175 C1176 1.398 . S
C1175 C1181 1.491 . S
C1176 H1167 0.950 . S
C1176 C1175 1.398 . S
C1176 C1177 1.391 . S
C1177 H1165 0.950 . S
C1177 C1173 1.393 . S
C1177 C1176 1.391 . S
C1178 H1168 0.950 . S
C1178 C1179 1.386 . S
C1178 C1180 1.391 . S
C1179 C1178 1.386 . S
C1179 C1183 1.393 . S
C1180 H1169 0.950 . S
C1180 C1178 1.391 . S
C1180 C1181 1.400 . S
C1181 C1175 1.491 . S
C1181 C1180 1.400 . S
C1181 C1182 1.398 . S
C1182 H1170 0.950 . S
C1182 C1181 1.398 . S
C1182 C1183 1.391 . S
C1183 H1171 0.950 . S
C1183 C1179 1.393 . S
C1183 C1182 1.391 . S
H1184 C1192 0.950 . S
H1185 C1197 0.950 . S
H1186 C1194 0.950 . S
H1187 C1196 0.950 . S
H1188 C1198 0.950 . S
H1189 C1200 0.950 . S
H1190 C1202 0.950 . S
H1191 C1203 0.950 . S
C1192 H1184 0.950 . S
C1192 C1193 1.386 . S
C1192 C1194 1.391 . S
C1193 C1192 1.386 . S
C1193 C1197 1.393 . S
C1194 H1186 0.950 . S
C1194 C1192 1.391 . S
C1194 C1195 1.400 . S
C1195 C1194 1.400 . S
C1195 C1196 1.398 . S
C1195 C1201 1.491 . S
C1196 H1187 0.950 . S
C1196 C1195 1.398 . S
C1196 C1197 1.391 . S
C1197 H1185 0.950 . S
C1197 C1193 1.393 . S
C1197 C1196 1.391 . S
C1198 H1188 0.950 . S
C1198 C1199 1.386 . S
C1198 C1200 1.391 . S
C1199 C1198 1.386 . S
C1199 C1203 1.393 . S
C1200 H1189 0.950 . S
C1200 C1198 1.391 . S
C1200 C1201 1.400 . S
C1201 C1195 1.491 . S
C1201 C1200 1.400 . S
C1201 C1202 1.398 . S
C1202 H1190 0.950 . S
C1202 C1201 1.398 . S
C1202 C1203 1.391 . S
C1203 H1191 0.950 . S
C1203 C1199 1.393 . S
C1203 C1202 1.391 . S
H1204 C1212 0.950 . S
H1205 C1217 0.950 . S
H1206 C1214 0.950 . S
H1207 C1216 0.950 . S
H1208 C1218 0.950 . S
H1209 C1220 0.950 . S
H1210 C1222 0.950 . S
H1211 C1223 0.950 . S
C1212 H1204 0.950 . S
C1212 C1213 1.386 . S
C1212 C1214 1.391 . S
C1213 C1212 1.386 . S
C1213 C1217 1.393 . S
C1214 H1206 0.950 . S
C1214 C1212 1.391 . S
C1214 C1215 1.400 . S
C1215 C1214 1.400 . S
C1215 C1216 1.398 . S
C1215 C1221 1.491 . S
C1216 H1207 0.950 . S
C1216 C1215 1.398 . S
C1216 C1217 1.391 . S
C1217 H1205 0.950 . S
C1217 C1213 1.393 . S
C1217 C1216 1.391 . S
C1218 H1208 0.950 . S
C1218 C1219 1.386 . S
C1218 C1220 1.391 . S
C1219 C1218 1.386 . S
C1219 C1223 1.393 . S
C1220 H1209 0.950 . S
C1220 C1218 1.391 . S
C1220 C1221 1.400 . S
C1221 C1215 1.491 . S
C1221 C1220 1.400 . S
C1221 C1222 1.398 . S
C1222 H1210 0.950 . S
C1222 C1221 1.398 . S
C1222 C1223 1.391 . S
C1223 H1211 0.950 . S
C1223 C1219 1.393 . S
C1223 C1222 1.391 . S
H1224 C1232 0.950 . S
H1225 C1237 0.950 . S
H1226 C1234 0.950 . S
H1227 C1236 0.950 . S
H1228 C1238 0.950 . S
H1229 C1240 0.950 . S
H1230 C1242 0.950 . S
H1231 C1243 0.950 . S
C1232 H1224 0.950 . S
C1232 C1233 1.386 . S
C1232 C1234 1.391 . S
C1233 C1232 1.386 . S
C1233 C1237 1.393 . S
C1234 H1226 0.950 . S
C1234 C1232 1.391 . S
C1234 C1235 1.400 . S
C1235 C1234 1.400 . S
C1235 C1236 1.398 . S
C1235 C1241 1.491 . S
C1236 H1227 0.950 . S
C1236 C1235 1.398 . S
C1236 C1237 1.391 . S
C1237 H1225 0.950 . S
C1237 C1233 1.393 . S
C1237 C1236 1.391 . S
C1238 H1228 0.950 . S
C1238 C1239 1.386 . S
C1238 C1240 1.391 . S
C1239 C1238 1.386 . S
C1239 C1243 1.393 . S
C1240 H1229 0.950 . S
C1240 C1238 1.391 . S
C1240 C1241 1.400 . S
C1241 C1235 1.491 . S
C1241 C1240 1.400 . S
C1241 C1242 1.398 . S
C1242 H1230 0.950 . S
C1242 C1241 1.398 . S
C1242 C1243 1.391 . S
C1243 H1231 0.950 . S
C1243 C1239 1.393 . S
C1243 C1242 1.391 . S
H1244 C1252 0.950 . S
H1245 C1257 0.950 . S
H1246 C1254 0.950 . S
H1247 C1256 0.950 . S
H1248 C1258 0.950 . S
H1249 C1260 0.950 . S
H1250 C1262 0.950 . S
H1251 C1263 0.950 . S
C1252 H1244 0.950 . S
C1252 C1253 1.386 . S
C1252 C1254 1.391 . S
C1253 C1252 1.386 . S
C1253 C1257 1.393 . S
C1254 H1246 0.950 . S
C1254 C1252 1.391 . S
C1254 C1255 1.400 . S
C1255 C1254 1.400 . S
C1255 C1256 1.398 . S
C1255 C1261 1.491 . S
C1256 H1247 0.950 . S
C1256 C1255 1.398 . S
C1256 C1257 1.391 . S
C1257 H1245 0.950 . S
C1257 C1253 1.393 . S
C1257 C1256 1.391 . S
C1258 H1248 0.950 . S
C1258 C1259 1.386 . S
C1258 C1260 1.391 . S
C1259 C1258 1.386 . S
C1259 C1263 1.393 . S
C1260 H1249 0.950 . S
C1260 C1258 1.391 . S
C1260 C1261 1.400 . S
C1261 C1255 1.491 . S
C1261 C1260 1.400 . S
C1261 C1262 1.398 . S
C1262 H1250 0.950 . S
C1262 C1261 1.398 . S
C1262 C1263 1.391 . S
C1263 H1251 0.950 . S
C1263 C1259 1.393 . S
C1263 C1262 1.391 . S
H1264 C1272 0.950 . S
H1265 C1277 0.950 . S
H1266 C1274 0.950 . S
H1267 C1276 0.950 . S
H1268 C1278 0.950 . S
H1269 C1280 0.950 . S
H1270 C1282 0.950 . S
H1271 C1283 0.950 . S
C1272 H1264 0.950 . S
C1272 C1273 1.386 . S
C1272 C1274 1.391 . S
C1273 C1272 1.386 . S
C1273 C1277 1.393 . S
C1274 H1266 0.950 . S
C1274 C1272 1.391 . S
C1274 C1275 1.400 . S
C1275 C1274 1.400 . S
C1275 C1276 1.398 . S
C1275 C1281 1.491 . S
C1276 H1267 0.950 . S
C1276 C1275 1.398 . S
C1276 C1277 1.391 . S
C1277 H1265 0.950 . S
C1277 C1273 1.393 . S
C1277 C1276 1.391 . S
C1278 H1268 0.950 . S
C1278 C1279 1.386 . S
C1278 C1280 1.391 . S
C1279 C1278 1.386 . S
C1279 C1283 1.393 . S
C1280 H1269 0.950 . S
C1280 C1278 1.391 . S
C1280 C1281 1.400 . S
C1281 C1275 1.491 . S
C1281 C1280 1.400 . S
C1281 C1282 1.398 . S
C1282 H1270 0.950 . S
C1282 C1281 1.398 . S
C1282 C1283 1.391 . S
C1283 H1271 0.950 . S
C1283 C1279 1.393 . S
C1283 C1282 1.391 . S
H1284 C1292 0.950 . S
H1285 C1297 0.950 . S
H1286 C1294 0.950 . S
H1287 C1296 0.950 . S
H1288 C1298 0.950 . S
H1289 C1300 0.950 . S
H1290 C1302 0.950 . S
H1291 C1303 0.950 . S
C1292 H1284 0.950 . S
C1292 C1293 1.386 . S
C1292 C1294 1.391 . S
C1293 C1292 1.386 . S
C1293 C1297 1.393 . S
C1294 H1286 0.950 . S
C1294 C1292 1.391 . S
C1294 C1295 1.400 . S
C1295 C1294 1.400 . S
C1295 C1296 1.398 . S
C1295 C1301 1.491 . S
C1296 H1287 0.950 . S
C1296 C1295 1.398 . S
C1296 C1297 1.391 . S
C1297 H1285 0.950 . S
C1297 C1293 1.393 . S
C1297 C1296 1.391 . S
C1298 H1288 0.950 . S
C1298 C1299 1.386 . S
C1298 C1300 1.391 . S
C1299 C1298 1.386 . S
C1299 C1303 1.393 . S
C1300 H1289 0.950 . S
C1300 C1298 1.391 . S
C1300 C1301 1.400 . S
C1301 C1295 1.491 . S
C1301 C1300 1.400 . S
C1301 C1302 1.398 . S
C1302 H1290 0.950 . S
C1302 C1301 1.398 . S
C1302 C1303 1.391 . S
C1303 H1291 0.950 . S
C1303 C1299 1.393 . S
C1303 C1302 1.391 . S
H1304 C1312 0.950 . S
H1305 C1317 0.950 . S
H1306 C1314 0.950 . S
H1307 C1316 0.950 . S
H1308 C1318 0.950 . S
H1309 C1320 0.950 . S
H1310 C1322 0.950 . S
H1311 C1323 0.950 . S
C1312 H1304 0.950 . S
C1312 C1313 1.386 . S
C1312 C1314 1.391 . S
C1313 C1312 1.386 . S
C1313 C1317 1.393 . S
C1314 H1306 0.950 . S
C1314 C1312 1.391 . S
C1314 C1315 1.400 . S
C1315 C1314 1.400 . S
C1315 C1316 1.398 . S
C1315 C1321 1.491 . S
C1316 H1307 0.950 . S
C1316 C1315 1.398 . S
C1316 C1317 1.391 . S
C1317 H1305 0.950 . S
C1317 C1313 1.393 . S
C1317 C1316 1.391 . S
C1318 H1308 0.950 . S
C1318 C1319 1.386 . S
C1318 C1320 1.391 . S
C1319 C1318 1.386 . S
C1319 C1323 1.393 . S
C1320 H1309 0.950 . S
C1320 C1318 1.391 . S
C1320 C1321 1.400 . S
C1321 C1315 1.491 . S
C1321 C1320 1.400 . S
C1321 C1322 1.398 . S
C1322 H1310 0.950 . S
C1322 C1321 1.398 . S
C1322 C1323 1.391 . S
C1323 H1311 0.950 . S
C1323 C1319 1.393 . S
C1323 C1322 1.391 . S
H1324 C1332 0.950 . S
H1325 C1337 0.950 . S
H1326 C1334 0.950 . S
H1327 C1336 0.950 . S
H1328 C1338 0.950 . S
H1329 C1340 0.950 . S
H1330 C1342 0.950 . S
H1331 C1343 0.950 . S
C1332 H1324 0.950 . S
C1332 C1333 1.386 . S
C1332 C1334 1.391 . S
C1333 C1332 1.386 . S
C1333 C1337 1.393 . S
C1334 H1326 0.950 . S
C1334 C1332 1.391 . S
C1334 C1335 1.400 . S
C1335 C1334 1.400 . S
C1335 C1336 1.398 . S
C1335 C1341 1.491 . S
C1336 H1327 0.950 . S
C1336 C1335 1.398 . S
C1336 C1337 1.391 . S
C1337 H1325 0.950 . S
C1337 C1333 1.393 . S
C1337 C1336 1.391 . S
C1338 H1328 0.950 . S
C1338 C1339 1.386 . S
C1338 C1340 1.391 . S
C1339 C1338 1.386 . S
C1339 C1343 1.393 . S
C1340 H1329 0.950 . S
C1340 C1338 1.391 . S
C1340 C1341 1.400 . S
C1341 C1335 1.491 . S
C1341 C1340 1.400 . S
C1341 C1342 1.398 . S
C1342 H1330 0.950 . S
C1342 C1341 1.398 . S
C1342 C1343 1.391 . S
C1343 H1331 0.950 . S
C1343 C1339 1.393 . S
C1343 C1342 1.391 . S
H1344 C1352 0.950 . S
H1345 C1357 0.950 . S
H1346 C1354 0.950 . S
H1347 C1356 0.950 . S
H1348 C1358 0.950 . S
H1349 C1360 0.950 . S
H1350 C1362 0.950 . S
H1351 C1363 0.950 . S
C1352 H1344 0.950 . S
C1352 C1353 1.386 . S
C1352 C1354 1.391 . S
C1353 C1352 1.386 . S
C1353 C1357 1.393 . S
C1354 H1346 0.950 . S
C1354 C1352 1.391 . S
C1354 C1355 1.400 . S
C1355 C1354 1.400 . S
C1355 C1356 1.398 . S
C1355 C1361 1.491 . S
C1356 H1347 0.950 . S
C1356 C1355 1.398 . S
C1356 C1357 1.391 . S
C1357 H1345 0.950 . S
C1357 C1353 1.393 . S
C1357 C1356 1.391 . S
C1358 H1348 0.950 . S
C1358 C1359 1.386 . S
C1358 C1360 1.391 . S
C1359 C1358 1.386 . S
C1359 C1363 1.393 . S
C1360 H1349 0.950 . S
C1360 C1358 1.391 . S
C1360 C1361 1.400 . S
C1361 C1355 1.491 . S
C1361 C1360 1.400 . S
C1361 C1362 1.398 . S
C1362 H1350 0.950 . S
C1362 C1361 1.398 . S
C1362 C1363 1.391 . S
C1363 H1351 0.950 . S
C1363 C1359 1.393 . S
C1363 C1362 1.391 . S
H1364 C1372 0.950 . S
H1365 C1377 0.950 . S
H1366 C1374 0.950 . S
H1367 C1376 0.950 . S
H1368 C1378 0.950 . S
H1369 C1380 0.950 . S
H1370 C1382 0.950 . S
H1371 C1383 0.950 . S
C1372 H1364 0.950 . S
C1372 C1373 1.386 . S
C1372 C1374 1.391 . S
C1373 C1372 1.386 . S
C1373 C1377 1.393 . S
C1374 H1366 0.950 . S
C1374 C1372 1.391 . S
C1374 C1375 1.400 . S
C1375 C1374 1.400 . S
C1375 C1376 1.398 . S
C1375 C1381 1.491 . S
C1376 H1367 0.950 . S
C1376 C1375 1.398 . S
C1376 C1377 1.391 . S
C1377 H1365 0.950 . S
C1377 C1373 1.393 . S
C1377 C1376 1.391 . S
C1378 H1368 0.950 . S
C1378 C1379 1.386 . S
C1378 C1380 1.391 . S
C1379 C1378 1.386 . S
C1379 C1383 1.393 . S
C1380 H1369 0.950 . S
C1380 C1378 1.391 . S
C1380 C1381 1.400 . S
C1381 C1375 1.491 . S
C1381 C1380 1.400 . S
C1381 C1382 1.398 . S
C1382 H1370 0.950 . S
C1382 C1381 1.398 . S
C1382 C1383 1.391 . S
C1383 H1371 0.950 . S
C1383 C1379 1.393 . S
C1383 C1382 1.391 . S
H1384 C1392 0.950 . S
H1385 C1397 0.950 . S
H1386 C1394 0.950 . S
H1387 C1396 0.950 . S
H1388 C1398 0.950 . S
H1389 C1400 0.950 . S
H1390 C1402 0.950 . S
H1391 C1403 0.950 . S
C1392 H1384 0.950 . S
C1392 C1393 1.386 . S
C1392 C1394 1.391 . S
C1393 C1392 1.386 . S
C1393 C1397 1.393 . S
C1394 H1386 0.950 . S
C1394 C1392 1.391 . S
C1394 C1395 1.400 . S
C1395 C1394 1.400 . S
C1395 C1396 1.398 . S
C1395 C1401 1.491 . S
C1396 H1387 0.950 . S
C1396 C1395 1.398 . S
C1396 C1397 1.391 . S
C1397 H1385 0.950 . S
C1397 C1393 1.393 . S
C1397 C1396 1.391 . S
C1398 H1388 0.950 . S
C1398 C1399 1.386 . S
C1398 C1400 1.391 . S
C1399 C1398 1.386 . S
C1399 C1403 1.393 . S
C1400 H1389 0.950 . S
C1400 C1398 1.391 . S
C1400 C1401 1.400 . S
C1401 C1395 1.491 . S
C1401 C1400 1.400 . S
C1401 C1402 1.398 . S
C1402 H1390 0.950 . S
C1402 C1401 1.398 . S
C1402 C1403 1.391 . S
C1403 H1391 0.950 . S
C1403 C1399 1.393 . S
C1403 C1402 1.391 . S
H1404 C1412 0.950 . S
H1405 C1417 0.950 . S
H1406 C1414 0.950 . S
H1407 C1416 0.950 . S
H1408 C1418 0.950 . S
H1409 C1420 0.950 . S
H1410 C1422 0.950 . S
H1411 C1423 0.950 . S
C1412 H1404 0.950 . S
C1412 C1413 1.386 . S
C1412 C1414 1.391 . S
C1413 C1412 1.386 . S
C1413 C1417 1.393 . S
C1414 H1406 0.950 . S
C1414 C1412 1.391 . S
C1414 C1415 1.400 . S
C1415 C1414 1.400 . S
C1415 C1416 1.398 . S
C1415 C1421 1.491 . S
C1416 H1407 0.950 . S
C1416 C1415 1.398 . S
C1416 C1417 1.391 . S
C1417 H1405 0.950 . S
C1417 C1413 1.393 . S
C1417 C1416 1.391 . S
C1418 H1408 0.950 . S
C1418 C1419 1.386 . S
C1418 C1420 1.391 . S
C1419 C1418 1.386 . S
C1419 C1423 1.393 . S
C1420 H1409 0.950 . S
C1420 C1418 1.391 . S
C1420 C1421 1.400 . S
C1421 C1415 1.491 . S
C1421 C1420 1.400 . S
C1421 C1422 1.398 . S
C1422 H1410 0.950 . S
C1422 C1421 1.398 . S
C1422 C1423 1.391 . S
C1423 H1411 0.950 . S
C1423 C1419 1.393 . S
C1423 C1422 1.391 . S
H1424 C1432 0.950 . S
H1425 C1437 0.950 . S
H1426 C1434 0.950 . S
H1427 C1436 0.950 . S
H1428 C1438 0.950 . S
H1429 C1440 0.950 . S
H1430 C1442 0.950 . S
H1431 C1443 0.950 . S
C1432 H1424 0.950 . S
C1432 C1433 1.386 . S
C1432 C1434 1.391 . S
C1433 C1432 1.386 . S
C1433 C1437 1.393 . S
C1434 H1426 0.950 . S
C1434 C1432 1.391 . S
C1434 C1435 1.400 . S
C1435 C1434 1.400 . S
C1435 C1436 1.398 . S
C1435 C1441 1.491 . S
C1436 H1427 0.950 . S
C1436 C1435 1.398 . S
C1436 C1437 1.391 . S
C1437 H1425 0.950 . S
C1437 C1433 1.393 . S
C1437 C1436 1.391 . S
C1438 H1428 0.950 . S
C1438 C1439 1.386 . S
C1438 C1440 1.391 . S
C1439 C1438 1.386 . S
C1439 C1443 1.393 . S
C1440 H1429 0.950 . S
C1440 C1438 1.391 . S
C1440 C1441 1.400 . S
C1441 C1435 1.491 . S
C1441 C1440 1.400 . S
C1441 C1442 1.398 . S
C1442 H1430 0.950 . S
C1442 C1441 1.398 . S
C1442 C1443 1.391 . S
C1443 H1431 0.950 . S
C1443 C1439 1.393 . S
C1443 C1442 1.391 . S
H1444 C1452 0.950 . S
H1445 C1457 0.950 . S
H1446 C1454 0.950 . S
H1447 C1456 0.950 . S
H1448 C1458 0.950 . S
H1449 C1460 0.950 . S
H1450 C1462 0.950 . S
H1451 C1463 0.950 . S
C1452 H1444 0.950 . S
C1452 C1453 1.386 . S
C1452 C1454 1.391 . S
C1453 C1452 1.386 . S
C1453 C1457 1.393 . S
C1454 H1446 0.950 . S
C1454 C1452 1.391 . S
C1454 C1455 1.400 . S
C1455 C1454 1.400 . S
C1455 C1456 1.398 . S
C1455 C1461 1.491 . S
C1456 H1447 0.950 . S
C1456 C1455 1.398 . S
C1456 C1457 1.391 . S
C1457 H1445 0.950 . S
C1457 C1453 1.393 . S
C1457 C1456 1.391 . S
C1458 H1448 0.950 . S
C1458 C1459 1.386 . S
C1458 C1460 1.391 . S
C1459 C1458 1.386 . S
C1459 C1463 1.393 . S
C1460 H1449 0.950 . S
C1460 C1458 1.391 . S
C1460 C1461 1.400 . S
C1461 C1455 1.491 . S
C1461 C1460 1.400 . S
C1461 C1462 1.398 . S
C1462 H1450 0.950 . S
C1462 C1461 1.398 . S
C1462 C1463 1.391 . S
C1463 H1451 0.950 . S
C1463 C1459 1.393 . S
C1463 C1462 1.391 . S
H1464 C1472 0.950 . S
H1465 C1477 0.950 . S
H1466 C1474 0.950 . S
H1467 C1476 0.950 . S
H1468 C1478 0.950 . S
H1469 C1480 0.950 . S
H1470 C1482 0.950 . S
H1471 C1483 0.950 . S
C1472 H1464 0.950 . S
C1472 C1473 1.386 . S
C1472 C1474 1.391 . S
C1473 C1472 1.386 . S
C1473 C1477 1.393 . S
C1474 H1466 0.950 . S
C1474 C1472 1.391 . S
C1474 C1475 1.400 . S
C1475 C1474 1.400 . S
C1475 C1476 1.398 . S
C1475 C1481 1.491 . S
C1476 H1467 0.950 . S
C1476 C1475 1.398 . S
C1476 C1477 1.391 . S
C1477 H1465 0.950 . S
C1477 C1473 1.393 . S
C1477 C1476 1.391 . S
C1478 H1468 0.950 . S
C1478 C1479 1.386 . S
C1478 C1480 1.391 . S
C1479 C1478 1.386 . S
C1479 C1483 1.393 . S
C1480 H1469 0.950 . S
C1480 C1478 1.391 . S
C1480 C1481 1.400 . S
C1481 C1475 1.491 . S
C1481 C1480 1.400 . S
C1481 C1482 1.398 . S
C1482 H1470 0.950 . S
C1482 C1481 1.398 . S
C1482 C1483 1.391 . S
C1483 H1471 0.950 . S
C1483 C1479 1.393 . S
C1483 C1482 1.391 . S
C1019 C331 0.959 . S
C1013 C15 1.600 . S
C1039 C463 1.267 . S
C1033 C55 1.516 . S
C1059 C349 1.323 . S
C1053 C101 1.534 . S
C1079 C445 0.925 . S
C1073 C141 1.568 . S
C1099 C577 1.253 . S
C1093 C2 1.510 . S
C1119 C691 1.323 . S
C1113 C61 1.544 . S
C1133 C95 1.612 . S
C1139 C831 1.220 . S
C1159 C945 1.131 . S
C1153 C135 1.535 . S
C1179 C559 0.862 . S
C1173 C42 1.448 . S
C1193 C82 1.613 . S
C1199 C673 0.938 . S
C1219 C777 1.201 . S
C1213 C122 1.570 . S
C1239 C891 1.120 . S
C1233 C21 1.403 . S
C1253 C162 1.506 . S
C1259 C489 1.122 . S
C1279 C321 1.087 . S
C1273 C221 1.421 . S
C1293 C255 1.380 . S
C1299 C435 1.090 . S
C1313 C282 1.538 . S
C1319 C375 1.164 . S
C1339 C787 0.968 . S
C1333 C181 1.582 . S
C1359 C901 1.138 . S
C1353 C202 1.562 . S
C1379 C549 1.012 . S
C1373 C242 1.315 . S
C1393 C301 1.535 . S
C1399 C663 1.236 . S
C1419 C805 1.237 . S
C1413 C215 1.467 . S
C1439 C919 1.119 . S
C1433 C261 1.496 . S
C1459 C603 1.200 . S
C1453 C295 1.554 . S
C1473 C175 1.646 . S
C1479 C717 1.173 . S
