# Generated by pormake.
# Topology ptr, (4,4)-cn, num edge types: 1
# Building blocks:
#     Node 0, Type 0, BuildingBlock: QUQFOY_clean_sbu_3, # of connection points: 4
#     Node 1, Type 0, BuildingBlock: QUQFOY_clean_sbu_3, # of connection points: 4
#     Node 2, Type 0, BuildingBlock: QUQFOY_clean_sbu_3, # of connection points: 4
#     Node 3, Type 0, BuildingBlock: QUQFOY_clean_sbu_3, # of connection points: 4
#     Node 4, Type 0, BuildingBlock: QUQFOY_clean_sbu_3, # of connection points: 4
#     Node 5, Type 0, BuildingBlock: QUQFOY_clean_sbu_3, # of connection points: 4
#     Node 6, Type 0, BuildingBlock: QUQFOY_clean_sbu_3, # of connection points: 4
#     Node 7, Type 0, BuildingBlock: QUQFOY_clean_sbu_3, # of connection points: 4
#     Node 8, Type 0, BuildingBlock: QUQFOY_clean_sbu_3, # of connection points: 4
#     Node 9, Type 0, BuildingBlock: QUQFOY_clean_sbu_3, # of connection points: 4
#     Node 10, Type 0, BuildingBlock: QUQFOY_clean_sbu_3, # of connection points: 4
#     Node 11, Type 0, BuildingBlock: QUQFOY_clean_sbu_3, # of connection points: 4
#     Node 12, Type 0, BuildingBlock: QUQFOY_clean_sbu_3, # of connection points: 4
#     Node 13, Type 0, BuildingBlock: QUQFOY_clean_sbu_3, # of connection points: 4
#     Node 14, Type 0, BuildingBlock: QUQFOY_clean_sbu_3, # of connection points: 4
#     Node 15, Type 0, BuildingBlock: QUQFOY_clean_sbu_3, # of connection points: 4
#     Node 16, Type 0, BuildingBlock: QUQFOY_clean_sbu_3, # of connection points: 4
#     Node 17, Type 0, BuildingBlock: QUQFOY_clean_sbu_3, # of connection points: 4
#     Node 18, Type 1, BuildingBlock: KUFVIS_clean_linker_0, # of connection points: 4
#     Node 19, Type 1, BuildingBlock: KUFVIS_clean_linker_0, # of connection points: 4
#     Node 20, Type 1, BuildingBlock: KUFVIS_clean_linker_0, # of connection points: 4
#     Node 21, Type 1, BuildingBlock: KUFVIS_clean_linker_0, # of connection points: 4
#     Node 22, Type 1, BuildingBlock: KUFVIS_clean_linker_0, # of connection points: 4
#     Node 23, Type 1, BuildingBlock: KUFVIS_clean_linker_0, # of connection points: 4
#     Node 24, Type 1, BuildingBlock: KUFVIS_clean_linker_0, # of connection points: 4
#     Node 25, Type 1, BuildingBlock: KUFVIS_clean_linker_0, # of connection points: 4
#     Node 26, Type 1, BuildingBlock: KUFVIS_clean_linker_0, # of connection points: 4
#     Node 27, Type 1, BuildingBlock: KUFVIS_clean_linker_0, # of connection points: 4
#     Node 28, Type 1, BuildingBlock: KUFVIS_clean_linker_0, # of connection points: 4
#     Node 29, Type 1, BuildingBlock: KUFVIS_clean_linker_0, # of connection points: 4
#     Node 30, Type 1, BuildingBlock: KUFVIS_clean_linker_0, # of connection points: 4
#     Node 31, Type 1, BuildingBlock: KUFVIS_clean_linker_0, # of connection points: 4
#     Node 32, Type 1, BuildingBlock: KUFVIS_clean_linker_0, # of connection points: 4
#     Node 33, Type 1, BuildingBlock: KUFVIS_clean_linker_0, # of connection points: 4
#     Node 34, Type 1, BuildingBlock: KUFVIS_clean_linker_0, # of connection points: 4
#     Node 35, Type 1, BuildingBlock: KUFVIS_clean_linker_0, # of connection points: 4
#     Edge 36, Type (0, 1), BuildingBlock: CIFDUS_clean_linker_0, # of connection points: 2
#     Edge 37, Type (0, 1), BuildingBlock: CIFDUS_clean_linker_0, # of connection points: 2
#     Edge 38, Type (0, 1), BuildingBlock: CIFDUS_clean_linker_0, # of connection points: 2
#     Edge 39, Type (0, 1), BuildingBlock: CIFDUS_clean_linker_0, # of connection points: 2
#     Edge 40, Type (0, 1), BuildingBlock: CIFDUS_clean_linker_0, # of connection points: 2
#     Edge 41, Type (0, 1), BuildingBlock: CIFDUS_clean_linker_0, # of connection points: 2
#     Edge 42, Type (0, 1), BuildingBlock: CIFDUS_clean_linker_0, # of connection points: 2
#     Edge 43, Type (0, 1), BuildingBlock: CIFDUS_clean_linker_0, # of connection points: 2
#     Edge 44, Type (0, 1), BuildingBlock: CIFDUS_clean_linker_0, # of connection points: 2
#     Edge 45, Type (0, 1), BuildingBlock: CIFDUS_clean_linker_0, # of connection points: 2
#     Edge 46, Type (0, 1), BuildingBlock: CIFDUS_clean_linker_0, # of connection points: 2
#     Edge 47, Type (0, 1), BuildingBlock: CIFDUS_clean_linker_0, # of connection points: 2
#     Edge 48, Type (0, 1), BuildingBlock: CIFDUS_clean_linker_0, # of connection points: 2
#     Edge 49, Type (0, 1), BuildingBlock: CIFDUS_clean_linker_0, # of connection points: 2
#     Edge 50, Type (0, 1), BuildingBlock: CIFDUS_clean_linker_0, # of connection points: 2
#     Edge 51, Type (0, 1), BuildingBlock: CIFDUS_clean_linker_0, # of connection points: 2
#     Edge 52, Type (0, 1), BuildingBlock: CIFDUS_clean_linker_0, # of connection points: 2
#     Edge 53, Type (0, 1), BuildingBlock: CIFDUS_clean_linker_0, # of connection points: 2
#     Edge 54, Type (0, 1), BuildingBlock: CIFDUS_clean_linker_0, # of connection points: 2
#     Edge 55, Type (0, 1), BuildingBlock: CIFDUS_clean_linker_0, # of connection points: 2
#     Edge 56, Type (0, 1), BuildingBlock: CIFDUS_clean_linker_0, # of connection points: 2
#     Edge 57, Type (0, 1), BuildingBlock: CIFDUS_clean_linker_0, # of connection points: 2
#     Edge 58, Type (0, 1), BuildingBlock: CIFDUS_clean_linker_0, # of connection points: 2
#     Edge 59, Type (0, 1), BuildingBlock: CIFDUS_clean_linker_0, # of connection points: 2
#     Edge 60, Type (0, 1), BuildingBlock: CIFDUS_clean_linker_0, # of connection points: 2
#     Edge 61, Type (0, 1), BuildingBlock: CIFDUS_clean_linker_0, # of connection points: 2
#     Edge 62, Type (0, 1), BuildingBlock: CIFDUS_clean_linker_0, # of connection points: 2
#     Edge 63, Type (0, 1), BuildingBlock: CIFDUS_clean_linker_0, # of connection points: 2
#     Edge 64, Type (0, 1), BuildingBlock: CIFDUS_clean_linker_0, # of connection points: 2
#     Edge 65, Type (0, 1), BuildingBlock: CIFDUS_clean_linker_0, # of connection points: 2
#     Edge 66, Type (0, 1), BuildingBlock: CIFDUS_clean_linker_0, # of connection points: 2
#     Edge 67, Type (0, 1), BuildingBlock: CIFDUS_clean_linker_0, # of connection points: 2
#     Edge 68, Type (0, 1), BuildingBlock: CIFDUS_clean_linker_0, # of connection points: 2
#     Edge 69, Type (0, 1), BuildingBlock: CIFDUS_clean_linker_0, # of connection points: 2
#     Edge 70, Type (0, 1), BuildingBlock: CIFDUS_clean_linker_0, # of connection points: 2
#     Edge 71, Type (0, 1), BuildingBlock: CIFDUS_clean_linker_0, # of connection points: 2
#     Edge 72, Type (0, 1), BuildingBlock: CIFDUS_clean_linker_0, # of connection points: 2
#     Edge 73, Type (0, 1), BuildingBlock: CIFDUS_clean_linker_0, # of connection points: 2
#     Edge 74, Type (0, 1), BuildingBlock: CIFDUS_clean_linker_0, # of connection points: 2
#     Edge 75, Type (0, 1), BuildingBlock: CIFDUS_clean_linker_0, # of connection points: 2
#     Edge 76, Type (0, 1), BuildingBlock: CIFDUS_clean_linker_0, # of connection points: 2
#     Edge 77, Type (0, 1), BuildingBlock: CIFDUS_clean_linker_0, # of connection points: 2
#     Edge 78, Type (0, 1), BuildingBlock: CIFDUS_clean_linker_0, # of connection points: 2
#     Edge 79, Type (0, 1), BuildingBlock: CIFDUS_clean_linker_0, # of connection points: 2
#     Edge 80, Type (0, 1), BuildingBlock: CIFDUS_clean_linker_0, # of connection points: 2
#     Edge 81, Type (0, 1), BuildingBlock: CIFDUS_clean_linker_0, # of connection points: 2
#     Edge 82, Type (0, 1), BuildingBlock: CIFDUS_clean_linker_0, # of connection points: 2
#     Edge 83, Type (0, 1), BuildingBlock: CIFDUS_clean_linker_0, # of connection points: 2
#     Edge 84, Type (0, 1), BuildingBlock: CIFDUS_clean_linker_0, # of connection points: 2
#     Edge 85, Type (0, 1), BuildingBlock: CIFDUS_clean_linker_0, # of connection points: 2
#     Edge 86, Type (0, 1), BuildingBlock: CIFDUS_clean_linker_0, # of connection points: 2
#     Edge 87, Type (0, 1), BuildingBlock: CIFDUS_clean_linker_0, # of connection points: 2
#     Edge 88, Type (0, 1), BuildingBlock: CIFDUS_clean_linker_0, # of connection points: 2
#     Edge 89, Type (0, 1), BuildingBlock: CIFDUS_clean_linker_0, # of connection points: 2
#     Edge 90, Type (0, 1), BuildingBlock: CIFDUS_clean_linker_0, # of connection points: 2
#     Edge 91, Type (0, 1), BuildingBlock: CIFDUS_clean_linker_0, # of connection points: 2
#     Edge 92, Type (0, 1), BuildingBlock: CIFDUS_clean_linker_0, # of connection points: 2
#     Edge 93, Type (0, 1), BuildingBlock: CIFDUS_clean_linker_0, # of connection points: 2
#     Edge 94, Type (0, 1), BuildingBlock: CIFDUS_clean_linker_0, # of connection points: 2
#     Edge 95, Type (0, 1), BuildingBlock: CIFDUS_clean_linker_0, # of connection points: 2
#     Edge 96, Type (0, 1), BuildingBlock: CIFDUS_clean_linker_0, # of connection points: 2
#     Edge 97, Type (0, 1), BuildingBlock: CIFDUS_clean_linker_0, # of connection points: 2
#     Edge 98, Type (0, 1), BuildingBlock: CIFDUS_clean_linker_0, # of connection points: 2
#     Edge 99, Type (0, 1), BuildingBlock: CIFDUS_clean_linker_0, # of connection points: 2
#     Edge 100, Type (0, 1), BuildingBlock: CIFDUS_clean_linker_0, # of connection points: 2
#     Edge 101, Type (0, 1), BuildingBlock: CIFDUS_clean_linker_0, # of connection points: 2
#     Edge 102, Type (0, 1), BuildingBlock: CIFDUS_clean_linker_0, # of connection points: 2
#     Edge 103, Type (0, 1), BuildingBlock: CIFDUS_clean_linker_0, # of connection points: 2
#     Edge 104, Type (0, 1), BuildingBlock: CIFDUS_clean_linker_0, # of connection points: 2
#     Edge 105, Type (0, 1), BuildingBlock: CIFDUS_clean_linker_0, # of connection points: 2
#     Edge 106, Type (0, 1), BuildingBlock: CIFDUS_clean_linker_0, # of connection points: 2
#     Edge 107, Type (0, 1), BuildingBlock: CIFDUS_clean_linker_0, # of connection points: 2
# Relax obj value: 0.042
# Max RMSD: 0.107
# Mean RMSD: 0.079
data_MOF--net-ptr--node1-QUQFOY_clean_sbu_3--node2-KUFVIS_clean_linker_0--edge1-CIFDUS_clean_linker_0
_symmetry_space_group_name_H-M    P1
_symmetry_Int_Tables_number       1
_symmetry_cell_setting            triclinic
loop_
_symmetry_equiv_pos_as_xyz
'x, y, z'
_cell_length_a     69.669068
_cell_length_b     70.087098
_cell_length_c     44.340139
_cell_angle_alpha  90.402711
_cell_angle_beta   89.806322
_cell_angle_gamma 120.40532
loop_
_atom_site_label
_atom_site_type_symbol
_atom_site_fract_x
_atom_site_fract_y
_atom_site_fract_z
_atom_type_partial_charge
C0 C 0.98399 0.33901 -0.00543 0.0
O1 O 0.97437 0.348 0.00787 0.0
Cd2 Cd 0.99329 0.38556 0.02591 0.0
O3 O 1.00509 0.3497 0.99093 0.0
Cd4 Cd 0.0385 0.38655 0.00334 0.0
C5 C 0.01912 0.41283 0.9599 0.0
O6 O 0.0252 0.39097 0.05253 0.0
O7 O 0.05531 0.41927 0.03647 0.0
O8 O 0.05704 0.36543 0.01318 0.0
C9 C 0.04084 0.41064 0.05706 0.0
O10 O 1.00488 0.40834 0.98081 0.0
C11 C 0.07579 0.37967 0.00241 0.0
O12 O 0.03278 0.40578 0.96101 0.0
O13 O 0.07699 0.3967 0.99059 0.0
C14 C 0.63874 0.70492 -0.00366 0.0
O15 O 0.61895 0.69659 0.98665 0.0
Cd16 Cd 0.59828 0.65981 0.96568 0.0
O17 O 0.64891 0.69411 -0.00584 0.0
Cd18 Cd 0.64328 0.65839 0.97395 0.0
C19 C 0.60159 0.62905 0.02352 0.0
O20 O 0.62089 0.65479 0.9293 0.0
O21 O 0.62125 0.62549 0.94293 0.0
O22 O 0.68109 0.67786 0.95374 0.0
C23 C 0.6148 0.63466 0.92424 0.0
O24 O 0.5896 0.63406 0.00757 0.0
C25 C 0.68762 0.66591 0.96631 0.0
O26 O 0.62215 0.63698 0.01755 0.0
O27 O 0.67349 0.65026 0.98272 0.0
C28 C 0.32481 0.94691 -0.00043 0.0
O29 O 0.33575 0.93855 0.98843 0.0
Cd30 Cd 0.3746 0.96031 0.97602 0.0
O31 O 0.33408 0.96774 0.00392 0.0
Cd32 Cd 0.36944 1.00323 -0.00303 0.0
C33 C 0.39564 0.98621 0.04497 0.0
O34 O 0.37946 0.99222 0.95048 0.0
O35 O 0.40468 0.02308 0.9698 0.0
O36 O 0.34433 0.01587 0.98209 0.0
C37 C 0.39905 0.0087 0.94906 0.0
O38 O 0.39367 0.97244 0.02454 0.0
C39 C 0.35471 0.03471 -0.0052 0.0
O40 O 0.38725 0.9986 0.04167 0.0
O41 O 0.37218 0.03917 0.00941 0.0
C42 C 0.94722 0.62436 0.01127 0.0
O43 O 0.93728 0.60397 0.01798 0.0
Cd44 Cd 0.95603 0.58402 0.0299 0.0
O45 O 0.96844 0.63563 0.01032 0.0
Cd46 Cd 1.00053 0.62982 0.01822 0.0
C47 C 0.98349 0.58988 0.96382 0.0
O48 O 0.98602 0.6069 0.06376 0.0
O49 O 0.01561 0.60956 0.04426 0.0
O50 O 0.02297 0.66894 0.03418 0.0
C51 C 1.00145 0.60237 0.06539 0.0
O52 O 0.9688 0.5764 0.98207 0.0
C53 C 0.03999 0.67286 0.01875 0.0
O54 O 0.99567 0.61023 0.97081 0.0
O55 O 0.03846 0.65701 0.0029 0.0
C56 C 0.33751 0.3735 0.00637 0.0
O57 O 0.34932 0.39163 -0.00742 0.0
Cd58 Cd 0.38598 0.40639 0.97316 0.0
O59 O 0.34503 0.36055 0.01174 0.0
Cd60 Cd 0.3799 0.3589 0.00125 0.0
C61 C 0.41434 0.40743 0.03812 0.0
O62 O 0.38431 0.37472 0.95234 0.0
O63 O 0.41082 0.36921 0.96448 0.0
O64 O 0.35517 0.31916 -0.00596 0.0
C65 C 0.40276 0.37659 0.94541 0.0
O66 O 0.41067 0.41709 0.01654 0.0
C67 C 0.36785 0.31343 0.00651 0.0
O68 O 0.40422 0.38633 0.03954 0.0
O69 O 0.38568 0.3288 0.01821 0.0
C70 C 0.7073 0.07279 0.01665 0.0
O71 O 0.69869 0.08433 0.02422 0.0
Cd72 Cd 0.66031 0.06801 0.03933 0.0
O73 O 0.6957 0.05173 0.01734 0.0
Cd74 Cd 0.6575 0.02215 0.03146 0.0
C75 C 0.63306 0.03667 0.97742 0.0
O76 O 0.65338 0.04038 0.07656 0.0
O77 O 0.62359 0.01143 0.06082 0.0
O78 O 0.67526 1.00148 0.04831 0.0
C79 C 0.63295 0.02644 0.08069 0.0
O80 O 0.63666 0.05302 -0.00588 0.0
C81 C 0.66111 0.98325 0.03615 0.0
O82 O 0.64046 0.02407 0.98481 0.0
O83 O 0.64521 0.98304 0.02196 0.0
C84 C 0.63816 0.66186 0.32117 0.0
O85 O 0.63039 0.67323 0.33253 0.0
Cd86 Cd 0.6528 0.70996 0.35146 0.0
O87 O 0.65918 0.66988 0.31933 0.0
Cd88 Cd 0.69468 0.70447 0.33384 0.0
C89 C 0.68429 0.73659 0.28838 0.0
O90 O 0.67997 0.70817 0.38148 0.0
O91 O 0.71122 0.73657 0.36953 0.0
O92 O 0.70647 0.67797 0.34432 0.0
C93 C 0.69576 0.72712 0.38875 0.0
O94 O 0.66976 0.73403 0.30796 0.0
C95 C 0.72655 0.69002 0.33611 0.0
O96 O 0.69496 0.7263 0.29065 0.0
O97 O 0.73206 0.70902 0.32595 0.0
C98 C 0.29554 0.03061 0.32358 0.0
O99 O 0.27595 0.01905 0.31313 0.0
Cd100 Cd 0.25923 0.98102 0.29808 0.0
O101 O 0.308 0.02225 0.32654 0.0
Cd102 Cd 0.30574 0.98593 0.31749 0.0
C103 C 0.26272 0.96084 0.36638 0.0
O104 O 0.28641 0.97782 0.26914 0.0
O105 O 0.28643 0.95024 0.29003 0.0
O106 O 0.34586 0.00658 0.3059 0.0
C107 C 0.28148 0.95781 0.26737 0.0
O108 O 0.25003 0.9601 0.34524 0.0
C109 C 0.35044 0.99367 0.32002 0.0
O110 O 0.28378 0.97103 0.3633 0.0
O111 O 0.33439 0.97743 0.33337 0.0
C112 C 0.98469 0.27109 0.32391 0.0
O113 O 0.99549 0.262 0.3149 0.0
Cd114 Cd 0.03421 0.2836 0.30125 0.0
O115 O 0.99423 0.29207 0.32623 0.0
Cd116 Cd 0.03039 0.3261 0.31824 0.0
C117 C 0.05563 0.3099 0.36869 0.0
O118 O 0.03785 0.31343 0.27099 0.0
O119 O 0.06557 0.34304 0.2895 0.0
O120 O 1.00676 0.34053 0.30305 0.0
C121 C 0.0577 0.32913 0.268 0.0
O122 O 0.0554 0.29688 0.34835 0.0
C123 C 0.01776 0.35924 0.31593 0.0
O124 O 0.04597 0.32104 0.36487 0.0
O125 O 0.03499 0.36285 0.33048 0.0
C126 C 0.59403 0.9533 0.35556 0.0
O127 O 0.58568 0.93375 0.36553 0.0
Cd128 Cd 0.60721 0.91768 0.38167 0.0
O129 O 0.61512 0.96593 0.35392 0.0
Cd130 Cd 0.64969 0.96487 0.36579 0.0
C131 C 0.63614 0.92258 0.31648 0.0
O132 O 0.6371 0.94387 0.41289 0.0
O133 O 0.66692 0.94719 0.39304 0.0
O134 O 0.66668 1.00309 0.38375 0.0
C135 C 0.65321 0.94033 0.41472 0.0
O136 O 0.62159 0.91005 0.33563 0.0
C137 C 0.6847 0.01053 0.369 0.0
O138 O 0.64763 0.94344 0.32079 0.0
O139 O 0.68647 0.99682 0.35203 0.0
C140 C 0.9975 0.69834 0.33884 0.0
O141 O 0.00831 0.71635 0.3245 0.0
Cd142 Cd 0.04574 0.73226 0.30814 0.0
O143 O 1.00666 0.6871 0.34587 0.0
Cd144 Cd 0.04374 0.68943 0.33801 0.0
C145 C 0.07228 0.73766 0.37626 0.0
O146 O 0.04677 0.70174 0.28679 0.0
O147 O 0.07684 0.70472 0.30417 0.0
O148 O 0.02144 0.64919 0.33411 0.0
C149 C 0.06657 0.70654 0.2819 0.0
O150 O 0.06893 0.74638 0.35326 0.0
C151 C 0.03607 0.64544 0.34478 0.0
O152 O 0.06363 0.71673 0.37801 0.0
O153 O 0.054 0.66211 0.35397 0.0
C154 C 0.38098 0.40859 0.3361 0.0
O155 O 0.37158 0.41941 0.34357 0.0
Cd156 Cd 0.3334 0.40077 0.36053 0.0
O157 O 0.37046 0.38758 0.33804 0.0
Cd158 Cd 0.33437 0.35611 0.3541 0.0
C159 C 0.30637 0.36634 0.30038 0.0
O160 O 0.32839 0.37393 0.39799 0.0
O161 O 0.30033 0.34287 0.38335 0.0
O162 O 0.35593 0.34119 0.37599 0.0
C163 C 0.30847 0.3586 0.40238 0.0
O164 O 0.30977 0.38296 0.31634 0.0
C165 C 0.34519 0.32221 0.36373 0.0
O166 O 0.3148 0.35461 0.30784 0.0
O167 O 0.32908 0.31873 0.3467 0.0
C168 C 0.30251 0.99583 0.6567 0.0
O169 O 0.29274 0.00569 0.66684 0.0
Cd170 Cd 0.31258 0.04364 0.68326 0.0
O171 O 0.32371 0.00558 0.65639 0.0
Cd172 Cd 0.35703 0.04082 0.67283 0.0
C173 C 0.3464 0.0691 0.62117 0.0
O174 O 0.34016 0.04683 0.71772 0.0
O175 O 0.37202 0.07414 0.70454 0.0
O176 O 0.36964 0.01602 0.68884 0.0
C177 C 0.35589 0.06636 0.72293 0.0
O178 O 0.33048 0.06613 0.6385 0.0
C179 C 0.38956 0.02776 0.67978 0.0
O180 O 0.35812 0.06032 0.62698 0.0
O181 O 0.39472 0.046 0.66727 0.0
C182 C 0.95994 0.35265 0.65525 0.0
O183 O 0.93982 0.33854 0.64913 0.0
Cd184 Cd 0.92723 0.3006 0.6359 0.0
O185 O 0.97488 0.34726 0.65388 0.0
Cd186 Cd 0.97883 0.31475 0.64129 0.0
C187 C 0.9451 0.28535 0.69884 0.0
O188 O 0.95203 0.29975 0.59929 0.0
O189 O 0.96391 0.27882 0.61607 0.0
O190 O 0.01435 0.34009 0.61731 0.0
C191 C 0.95197 0.28165 0.59722 0.0
O192 O 0.9291 0.28317 0.68246 0.0
C193 C 0.02563 0.33327 0.63125 0.0
O194 O 0.96522 0.29743 0.69038 0.0
O195 O 0.01515 0.31779 0.65007 0.0
C196 C 0.64945 0.6098 0.66213 0.0
O197 O 0.65818 0.59831 0.65483 0.0
Cd198 Cd 0.69666 0.61443 0.64102 0.0
O199 O 0.6612 0.63086 0.66294 0.0
Cd200 Cd 0.70004 0.66049 0.65344 0.0
C201 C 0.72221 0.64198 0.70578 0.0
O202 O 0.70385 0.6439 0.60685 0.0
O203 O 0.73385 0.67205 0.62374 0.0
O204 O 0.68419 0.68352 0.63962 0.0
C205 C 0.72425 0.65789 0.60293 0.0
O206 O 0.71899 0.6265 0.68757 0.0
C207 C 0.69892 0.70081 0.6531 0.0
O208 O 0.71533 0.65518 0.69946 0.0
O209 O 0.71398 0.69926 0.66695 0.0
C210 C 0.27297 0.28986 0.67877 0.0
O211 O 0.26657 0.27015 0.68681 0.0
Cd212 Cd 0.29039 0.2559 0.7006 0.0
O213 O 0.29369 0.30428 0.67744 0.0
Cd214 Cd 0.33005 0.30618 0.68605 0.0
C215 C 0.31818 0.26521 0.63395 0.0
O216 O 0.31912 0.28348 0.73194 0.0
O217 O 0.35239 0.29507 0.7155 0.0
O218 O 0.34644 0.34551 0.69972 0.0
C219 C 0.3376 0.28427 0.73503 0.0
O220 O 0.30472 0.25098 0.65265 0.0
C221 C 0.36381 0.35202 0.68367 0.0
O222 O 0.32818 0.2858 0.64023 0.0
O223 O 0.36503 0.33737 0.66818 0.0
C224 C 0.6672 0.03095 0.69136 0.0
O225 O 0.67661 0.04982 0.67896 0.0
Cd226 Cd 0.71424 0.06793 0.66244 0.0
O227 O 0.67749 0.02032 0.69439 0.0
Cd228 Cd 0.71349 0.02289 0.68048 0.0
C229 C 0.74049 0.06617 0.72799 0.0
O230 O 0.71542 0.04007 0.6331 0.0
O231 O 0.74549 0.04043 0.64486 0.0
O232 O 0.68851 0.984 0.67042 0.0
C233 C 0.73484 0.04478 0.62566 0.0
O234 O 0.73662 0.07713 0.70857 0.0
C235 C 0.70182 0.9775 0.6778 0.0
O236 O 0.73306 0.04555 0.72429 0.0
O237 O 0.72082 0.99215 0.68755 0.0
C238 C 0.02927 0.73033 0.68232 0.0
O239 O 0.01745 0.73867 0.68989 0.0
Cd240 Cd 0.97833 0.71604 0.7019 0.0
O241 O 0.02079 0.70942 0.68147 0.0
Cd242 Cd 0.9855 0.67469 0.69051 0.0
C243 C 0.9612 0.68763 0.63491 0.0
O244 O 0.97277 0.68663 0.7345 0.0
O245 O 0.94847 0.6561 0.71314 0.0
O246 O 0.00814 0.66096 0.71233 0.0
C247 C 0.95318 0.66999 0.73437 0.0
O248 O 0.95966 0.7006 0.65374 0.0
C249 C 0.99924 0.64274 0.69792 0.0
O250 O 0.97163 0.6776 0.64128 0.0
O251 O 0.98374 0.63919 0.67964 0.0
H252 H 0.25693 0.34671 0.13342 0.0
H253 H 0.20441 0.33968 0.07611 0.0
H254 H 0.2074 0.359 0.16992 0.0
H255 H 0.17155 0.34119 0.16688 0.0
H256 H 0.125 0.34877 0.11356 0.0
H257 H 0.18294 0.35455 0.07101 0.0
C258 C 0.24149 0.34678 0.13072 0.0
C259 C 0.2326 0.35227 0.15526 0.0
C260 C 0.23165 0.34271 0.10224 0.0
C261 C 0.21203 0.34345 0.09821 0.0
C262 C 0.20238 0.34868 0.12274 0.0
C263 C 0.21349 0.35383 0.15096 0.0
C264 C 0.18076 0.34851 0.11953 0.0
C265 C 0.16719 0.3449 0.1452 0.0
C266 C 0.14738 0.34538 0.1433 0.0
C267 C 0.14034 0.34839 0.11526 0.0
C268 C 0.15279 0.35109 0.08924 0.0
C269 C 0.17321 0.35164 0.0913 0.0
H270 H 0.67596 0.91686 0.13948 0.0
H271 H 0.68261 0.86965 0.08532 0.0
H272 H 0.6675 0.85823 0.18082 0.0
H273 H 0.68816 0.84279 0.17729 0.0
H274 H 0.67478 0.78373 0.13066 0.0
H275 H 0.66521 0.83192 0.0848 0.0
C276 C 0.67592 0.90138 0.13774 0.0
C277 C 0.6722 0.88866 0.16346 0.0
C278 C 0.67914 0.89435 0.10964 0.0
C279 C 0.67928 0.87442 0.1071 0.0
C280 C 0.67555 0.86114 0.13289 0.0
C281 C 0.67129 0.86827 0.16082 0.0
C282 C 0.6764 0.84016 0.13129 0.0
C283 C 0.68267 0.83278 0.157 0.0
C284 C 0.68169 0.8123 0.15718 0.0
C285 C 0.67615 0.79984 0.13055 0.0
C286 C 0.67084 0.80711 0.10419 0.0
C287 C 0.67043 0.827 0.1048 0.0
H288 H 0.24008 0.89095 0.11627 0.0
H289 H 0.19722 0.83072 0.0688 0.0
H290 H 0.18375 0.83924 0.16191 0.0
H291 H 0.17076 0.80314 0.16298 0.0
H292 H 0.11689 0.74897 0.11637 0.0
H293 H 0.15894 0.80865 0.06828 0.0
C294 C 0.22505 0.87481 0.1158 0.0
C295 C 0.21261 0.86647 0.14217 0.0
C296 C 0.2193 0.86225 0.08922 0.0
C297 C 0.20093 0.84064 0.08912 0.0
C298 C 0.18772 0.83186 0.11527 0.0
C299 C 0.19372 0.84519 0.14166 0.0
C300 C 0.1681 0.80877 0.11533 0.0
C301 C 0.16159 0.79629 0.14226 0.0
C302 C 0.14262 0.77512 0.14297 0.0
C303 C 0.13127 0.76559 0.11615 0.0
C304 C 0.137 0.77754 0.08939 0.0
C305 C 0.15523 0.79924 0.0889 0.0
H306 H 0.3369 0.09859 0.89029 0.0
H307 H 0.34761 0.15575 0.93974 0.0
H308 H 0.33062 0.14806 0.84423 0.0
H309 H 0.34136 0.1818 0.84353 0.0
H310 H 0.33776 0.23231 0.89236 0.0
H311 H 0.33694 0.17969 0.94159 0.0
C312 C 0.33707 0.11417 0.89101 0.0
C313 C 0.33394 0.12267 0.86449 0.0
C314 C 0.34157 0.12588 0.91815 0.0
C315 C 0.34312 0.1467 0.91867 0.0
C316 C 0.33889 0.15539 0.89221 0.0
C317 C 0.33427 0.14281 0.86515 0.0
C318 C 0.3392 0.17719 0.89257 0.0
C319 C 0.33991 0.18801 0.86522 0.0
C320 C 0.33902 0.20754 0.86519 0.0
C321 C 0.33839 0.21714 0.89244 0.0
C322 C 0.33795 0.20722 0.91981 0.0
C323 C 0.33815 0.18726 0.92001 0.0
H324 H 0.78559 0.12038 0.89501 0.0
H325 H 0.84242 0.17315 0.93982 0.0
H326 H 0.83613 0.17164 0.84242 0.0
H327 H 0.87089 0.18905 0.84095 0.0
H328 H 0.91969 0.25261 0.87338 0.0
H329 H 0.86913 0.20771 0.93384 0.0
C330 C 0.80183 0.13528 0.8939 0.0
C331 C 0.81051 0.14439 0.86583 0.0
C332 C 0.81294 0.14595 0.92056 0.0
C333 C 0.83388 0.16553 0.91898 0.0
C334 C 0.8434 0.17489 0.89066 0.0
C335 C 0.83069 0.16443 0.86444 0.0
C336 C 0.86597 0.19563 0.8876 0.0
C337 C 0.87688 0.20084 0.85933 0.0
C338 C 0.89527 0.22171 0.8535 0.0
C339 C 0.90546 0.23634 0.87756 0.0
C340 C 0.8968 0.2308 0.90686 0.0
C341 C 0.87648 0.21091 0.91161 0.0
H342 H 0.75919 0.64444 0.87688 0.0
H343 H 0.81427 0.65964 0.93494 0.0
H344 H 0.81569 0.64351 0.84067 0.0
H345 H 0.85159 0.66939 0.84661 0.0
H346 H 0.90156 0.66653 0.89835 0.0
H347 H 0.83697 0.64335 0.9374 0.0
C348 C 0.77551 0.64633 0.88007 0.0
C349 C 0.78663 0.64396 0.8554 0.0
C350 C 0.78526 0.65184 0.90865 0.0
C351 C 0.80649 0.65455 0.91297 0.0
C352 C 0.81794 0.65173 0.88844 0.0
C353 C 0.80745 0.64589 0.85984 0.0
C354 C 0.84125 0.65615 0.89187 0.0
C355 C 0.85643 0.66519 0.86759 0.0
C356 C 0.87809 0.66894 0.87004 0.0
C357 C 0.88501 0.66435 0.8971 0.0
C358 C 0.87043 0.65528 0.92157 0.0
C359 C 0.84845 0.65102 0.91884 0.0
H360 H 0.91104 0.65819 0.46452 0.0
H361 H 0.86395 0.66042 0.40506 0.0
H362 H 0.86732 0.67954 0.49845 0.0
H363 H 0.83088 0.66029 0.49564 0.0
H364 H 0.78694 0.67335 0.44488 0.0
H365 H 0.84428 0.67813 0.40128 0.0
C366 C 0.89757 0.66144 0.46121 0.0
C367 C 0.88981 0.66854 0.48549 0.0
C368 C 0.88914 0.65969 0.43205 0.0
C369 C 0.87087 0.6627 0.4275 0.0
C370 C 0.86168 0.66841 0.45196 0.0
C371 C 0.87238 0.67267 0.48029 0.0
C372 C 0.8408 0.66952 0.44895 0.0
C373 C 0.82704 0.66526 0.47451 0.0
C374 C 0.80801 0.66712 0.47338 0.0
C375 C 0.80163 0.67175 0.44591 0.0
C376 C 0.8143 0.67515 0.41982 0.0
C377 C 0.83419 0.67459 0.42136 0.0
H378 H 0.32813 0.23525 0.45822 0.0
H379 H 0.34798 0.19621 0.40634 0.0
H380 H 0.32634 0.1794 0.49904 0.0
H381 H 0.35205 0.17041 0.49939 0.0
H382 H 0.34927 0.11475 0.45508 0.0
H383 H 0.3359 0.15866 0.40447 0.0
C384 C 0.33076 0.22128 0.4567 0.0
C385 C 0.32725 0.20824 0.48205 0.0
C386 C 0.33783 0.21679 0.42938 0.0
C387 C 0.34163 0.19894 0.42724 0.0
C388 C 0.33798 0.18533 0.45258 0.0
C389 C 0.32995 0.18983 0.4795 0.0
C390 C 0.34304 0.16692 0.452 0.0
C391 C 0.34906 0.16071 0.47902 0.0
C392 C 0.35039 0.14148 0.48069 0.0
C393 C 0.34865 0.12988 0.4541 0.0
C394 C 0.34428 0.1365 0.42642 0.0
C395 C 0.34078 0.1546 0.42553 0.0
H396 H 0.89904 0.22417 0.44083 0.0
H397 H 0.85601 0.1607 0.40025 0.0
H398 H 0.84478 0.17477 0.4919 0.0
H399 H 0.83266 0.13872 0.49649 0.0
H400 H 0.77541 0.08322 0.4575 0.0
H401 H 0.81727 0.13874 0.40175 0.0
C402 C 0.88431 0.20782 0.44189 0.0
C403 C 0.87257 0.20091 0.46889 0.0
C404 C 0.87832 0.19352 0.417 0.0
C405 C 0.86006 0.1719 0.41924 0.0
C406 C 0.84743 0.16472 0.4461 0.0
C407 C 0.85398 0.17958 0.47091 0.0
C408 C 0.82788 0.14171 0.44864 0.0
C409 C 0.82241 0.13089 0.47684 0.0
C410 C 0.80316 0.11018 0.48024 0.0
C411 C 0.79011 0.09948 0.45501 0.0
C412 C 0.79511 0.10957 0.4268 0.0
C413 C 0.81398 0.13072 0.42348 0.0
H414 H 0.02254 0.44117 0.22247 0.0
H415 H 0.00782 0.48183 0.27923 0.0
H416 H 0.01737 0.49344 0.18263 0.0
H417 H 0.99616 0.50687 0.18703 0.0
H418 H 0.9925 0.55616 0.2392 0.0
H419 H 0.01521 0.51648 0.2816 0.0
C420 C 0.02001 0.45517 0.22512 0.0
C421 C 0.0198 0.46655 0.19972 0.0
C422 C 0.01612 0.46093 0.25374 0.0
C423 C 0.01184 0.47842 0.25701 0.0
C424 C 0.01192 0.49059 0.23145 0.0
C425 C 0.01648 0.48453 0.20286 0.0
C426 C 1.0064 0.50878 0.23405 0.0
C427 C 0.99881 0.51518 0.20852 0.0
C428 C 0.99427 0.53248 0.21016 0.0
C429 C 0.99579 0.5426 0.2379 0.0
C430 C 1.00284 0.53651 0.26369 0.0
C431 C 0.00874 0.5201 0.26168 0.0
H432 H 0.46217 0.44615 0.21025 0.0
H433 H 0.51085 0.50795 0.24946 0.0
H434 H 0.5195 0.49008 0.15872 0.0
H435 H 0.53682 0.52628 0.15242 0.0
H436 H 0.59668 0.57833 0.19144 0.0
H437 H 0.54824 0.52784 0.24872 0.0
C438 C 0.47818 0.46131 0.20882 0.0
C439 C 0.48992 0.46668 0.1817 0.0
C440 C 0.48583 0.47595 0.23339 0.0
C441 C 0.50568 0.4964 0.23074 0.0
C442 C 0.51842 0.5019 0.20391 0.0
C443 C 0.51025 0.48664 0.17958 0.0
C444 C 0.53988 0.52349 0.20085 0.0
C445 C 0.54716 0.53338 0.17219 0.0
C446 C 0.56789 0.55269 0.16869 0.0
C447 C 0.58111 0.56282 0.194 0.0
C448 C 0.57377 0.55427 0.22281 0.0
C449 C 0.55334 0.5345 0.22628 0.0
H450 H 0.43802 0.01686 0.22367 0.0
H451 H 0.48935 0.01877 0.27878 0.0
H452 H 0.48788 0.00743 0.18208 0.0
H453 H 0.52359 0.02443 0.18576 0.0
H454 H 0.56967 0.01328 0.23455 0.0
H455 H 0.51077 1.0034 0.27916 0.0
C456 C 0.45313 0.01604 0.22559 0.0
C457 C 0.46262 0.01295 0.19974 0.0
C458 C 0.46232 0.01752 0.25401 0.0
C459 C 0.482 0.01666 0.25667 0.0
C460 C 0.49216 0.01362 0.23063 0.0
C461 C 0.48152 0.01089 0.20239 0.0
C462 C 0.5139 0.01382 0.23227 0.0
C463 C 0.52782 0.01941 0.2065 0.0
C464 C 0.54765 0.01882 0.20698 0.0
C465 C 0.55451 0.01407 0.234 0.0
C466 C 0.54155 0.00906 0.26007 0.0
C467 C 0.52101 0.00835 0.25911 0.0
H468 H 0.58985 0.02625 0.80815 0.0
H469 H 0.53489 0.01219 0.75068 0.0
H470 H 0.53333 0.02645 0.84565 0.0
H471 H 0.49758 1.00223 0.83999 0.0
H472 H 0.44663 1.00175 0.78643 0.0
H473 H 0.51134 0.02579 0.7478 0.0
C474 C 0.5733 0.02385 0.80537 0.0
C475 C 0.56229 0.02602 0.83036 0.0
C476 C 0.56363 0.0192 0.7767 0.0
C477 C 0.54245 0.01654 0.77284 0.0
C478 C 0.53091 0.0187 0.79766 0.0
C479 C 0.54142 0.02411 0.82628 0.0
C480 C 0.50761 0.01423 0.79414 0.0
C481 C 0.49258 0.00565 0.81857 0.0
C482 C 0.47076 1.00133 0.81575 0.0
C483 C 0.46341 0.00455 0.78815 0.0
C484 C 0.47784 0.0131 0.76349 0.0
C485 C 0.50008 0.01836 0.76663 0.0
H486 H 0.98893 0.55687 0.79012 0.0
H487 H 0.00886 0.51964 0.73441 0.0
H488 H 0.99299 0.5033 0.82876 0.0
H489 H 0.02102 0.49681 0.82436 0.0
H490 H 0.02098 0.44363 0.7764 0.0
H491 H 0.99614 0.48133 0.73291 0.0
C492 C 0.99235 0.54345 0.78769 0.0
C493 C 0.99091 0.53094 0.81286 0.0
C494 C 0.9986 0.53937 0.75949 0.0
C495 C 1.00323 0.52214 0.75609 0.0
C496 C 1.00152 0.50895 0.78114 0.0
C497 C 0.99472 0.51325 0.80926 0.0
C498 C 0.00784 0.49148 0.77883 0.0
C499 C 0.01728 0.48698 0.80397 0.0
C500 C 0.0216 0.46949 0.80354 0.0
C501 C 0.01818 0.45751 0.7768 0.0
C502 C 0.00945 0.46199 0.75116 0.0
C503 C 1.00387 0.47869 0.75234 0.0
H504 H 0.5616 0.56915 0.77578 0.0
H505 H 0.51338 0.5092 0.7319 0.0
H506 H 0.50325 0.52318 0.82399 0.0
H507 H 0.48811 0.48661 0.82746 0.0
H508 H 0.42851 0.43537 0.7871 0.0
H509 H 0.47483 0.48971 0.73252 0.0
C510 C 0.54547 0.55408 0.77604 0.0
C511 C 0.53325 0.54767 0.80279 0.0
C512 C 0.53823 0.54053 0.75032 0.0
C513 C 0.51833 0.52003 0.75143 0.0
C514 C 0.5053 0.51336 0.77795 0.0
C515 C 0.51292 0.52761 0.80341 0.0
C516 C 0.48434 0.49132 0.77973 0.0
C517 C 0.47778 0.48002 0.80756 0.0
C518 C 0.45757 0.46016 0.81012 0.0
C519 C 0.44415 0.45087 0.78487 0.0
C520 C 0.45042 0.46124 0.75689 0.0
C521 C 0.47047 0.48152 0.75416 0.0
H522 H 0.69833 0.77544 0.55199 0.0
H523 H 0.68545 0.8194 0.60388 0.0
H524 H 0.7017 0.83147 0.50873 0.0
H525 H 0.67931 0.84549 0.51227 0.0
H526 H 0.68375 0.89991 0.56264 0.0
H527 H 0.70265 0.85712 0.60478 0.0
C528 C 0.69725 0.79035 0.55322 0.0
C529 C 0.69981 0.80236 0.52705 0.0
C530 C 0.69232 0.79656 0.58077 0.0
C531 C 0.69029 0.81543 0.58259 0.0
C532 C 0.69388 0.82859 0.55673 0.0
C533 C 0.69897 0.82193 0.52901 0.0
C534 C 0.69128 0.84852 0.55833 0.0
C535 C 0.68363 0.85499 0.53302 0.0
C536 C 0.68102 0.87358 0.53436 0.0
C537 C 0.68534 0.8853 0.56149 0.0
C538 C 0.69271 0.87917 0.58692 0.0
C539 C 0.69618 0.86116 0.5852 0.0
H540 H 0.10845 0.77712 0.55601 0.0
H541 H 0.1526 0.84054 0.59558 0.0
H542 H 0.16372 0.82519 0.50471 0.0
H543 H 0.17585 0.86105 0.49892 0.0
H544 H 0.2358 0.91493 0.53586 0.0
H545 H 0.19017 0.86326 0.594 0.0
C546 C 0.12346 0.79321 0.55455 0.0
C547 C 0.13517 0.79975 0.52737 0.0
C548 C 0.12994 0.80769 0.57931 0.0
C549 C 0.14836 0.8292 0.57673 0.0
C550 C 0.16095 0.83595 0.54981 0.0
C551 C 0.15424 0.82079 0.52546 0.0
C552 C 0.18093 0.85864 0.54657 0.0
C553 C 0.18688 0.86873 0.51792 0.0
C554 C 0.20678 0.88889 0.51356 0.0
C555 C 0.22031 0.89946 0.53865 0.0
C556 C 0.21393 0.89076 0.5677 0.0
C557 C 0.19442 0.87021 0.57159 0.0
H558 H 0.10739 0.33634 0.53422 0.0
H559 H 0.15939 0.34393 0.59296 0.0
H560 H 0.15667 0.32226 0.50069 0.0
H561 H 0.19319 0.34556 0.50307 0.0
H562 H 0.2424 0.34179 0.55575 0.0
H563 H 0.18118 0.32811 0.59761 0.0
C564 C 0.12215 0.3352 0.53763 0.0
C565 C 0.13087 0.32884 0.51368 0.0
C566 C 0.13178 0.33974 0.56637 0.0
C567 C 0.15161 0.33951 0.57095 0.0
C568 C 0.16159 0.33438 0.54679 0.0
C569 C 0.15034 0.32801 0.51873 0.0
C570 C 0.18403 0.33646 0.54995 0.0
C571 C 0.19817 0.34218 0.52454 0.0
C572 C 0.21901 0.34379 0.52635 0.0
C573 C 0.22643 0.34093 0.55423 0.0
C574 C 0.21307 0.33569 0.57996 0.0
C575 C 0.19168 0.333 0.57779 0.0
H576 H 1.00504 0.40822 0.08467 0.0
H577 H 0.07673 0.44299 0.08684 0.0
H578 H 0.07687 0.46482 0.13032 0.0
H579 H 0.05626 0.4727 0.16929 0.0
H580 H 0.98475 0.43941 0.165 0.0
H581 H 0.98473 0.41853 0.12045 0.0
C582 C 0.02065 0.42055 0.09477 0.0
C583 C 0.04083 0.4238 0.08307 0.0
C584 C 0.02059 0.43344 0.11909 0.0
C585 C 0.06101 0.44015 0.09575 0.0
C586 C 0.06109 0.45264 0.12052 0.0
C587 C 0.0408 0.46123 0.15804 0.0
C588 C 0.02056 0.45763 0.16989 0.0
C589 C 0.04097 0.44934 0.13249 0.0
C590 C 1.0005 0.44256 0.15572 0.0
C591 C 1.00049 0.43051 0.13052 0.0
H592 H 0.62023 0.61031 0.057 0.0
H593 H 0.55969 0.61237 0.0468 0.0
H594 H 0.54298 0.58696 0.08899 0.0
H595 H 0.54636 0.56579 0.13077 0.0
H596 H 0.6072 0.56457 0.14135 0.0
H597 H 0.62289 0.58773 0.09674 0.0
C598 C 0.60338 0.60522 0.06395 0.0
C599 C 0.59135 0.61344 0.0489 0.0
C600 C 0.59386 0.59061 0.0882 0.0
C601 C 0.56941 0.60642 0.05806 0.0
C602 C 0.5598 0.59184 0.08217 0.0
C603 C 0.56285 0.57024 0.12282 0.0
C604 C 0.57564 0.56352 0.1391 0.0
C605 C 0.57194 0.58399 0.09758 0.0
C606 C 0.59712 0.56962 0.12903 0.0
C607 C 0.60611 0.58293 0.10368 0.0
H608 H 0.41166 0.01919 0.08687 0.0
H609 H 0.40896 0.95782 0.06453 0.0
H610 H 0.43079 0.96135 0.10934 0.0
H611 H 0.44976 0.98137 0.15597 0.0
H612 H 0.4524 0.0427 0.17781 0.0
H613 H 0.43173 0.03981 0.132 0.0
C614 C 0.41577 0.00654 0.09183 0.0
C615 C 0.40853 0.98821 0.07248 0.0
C616 C 0.42847 0.00874 0.11749 0.0
C617 C 0.41426 0.97211 0.07909 0.0
C618 C 0.42679 0.97411 0.1047 0.0
C619 C 0.44607 0.99422 0.15035 0.0
C620 C 0.45247 0.01215 0.17016 0.0
C621 C 0.43395 0.99233 0.12412 0.0
C622 C 0.44745 0.02865 0.1629 0.0
C623 C 0.43562 0.027 0.13679 0.0
H624 H 0.39269 0.97835 0.90589 0.0
H625 H 0.44262 0.04078 0.94407 0.0
H626 H 0.47019 0.04221 0.9087 0.0
H627 H 0.47948 0.02701 0.86477 0.0
H628 H 0.42926 0.96588 0.8245 0.0
H629 H 0.40248 0.96228 0.86329 0.0
C630 C 0.4096 0.99225 0.90647 0.0
C631 C 0.41555 0.00951 0.92738 0.0
C632 C 0.42536 0.99303 0.88595 0.0
C633 C 0.43757 0.02735 0.92803 0.0
C634 C 0.45338 0.02815 0.90791 0.0
C635 C 0.46284 0.01262 0.8651 0.0
C636 C 0.45629 0.99656 0.84229 0.0
C637 C 0.44741 0.0112 0.88662 0.0
C638 C 0.43458 0.97825 0.84222 0.0
C639 C 0.41928 0.97634 0.86415 0.0
H640 H 0.04422 0.42338 0.90831 0.0
H641 H 0.994 0.43218 0.95304 0.0
H642 H 0.99199 0.45216 0.90977 0.0
H643 H 1.00232 0.46486 0.85807 0.0
H644 H 0.05199 0.45602 0.81221 0.0
H645 H 0.0564 0.43842 0.85709 0.0
C646 C 0.03295 0.4298 0.90867 0.0
C647 C 0.01916 0.42605 0.93389 0.0
C648 C 0.03171 0.44125 0.88348 0.0
C649 C 1.00471 0.43459 0.93393 0.0
C650 C 1.00354 0.44609 0.90917 0.0
C651 C 0.01452 0.45959 0.85808 0.0
C652 C 0.02683 0.46179 0.83185 0.0
C653 C 0.01671 0.44925 0.8837 0.0
C654 C 0.04221 0.45439 0.83209 0.0
C655 C 0.04471 0.44431 0.85772 0.0
H656 H 0.58772 0.59015 0.9215 0.0
H657 H 0.60525 0.65017 0.87357 0.0
H658 H 0.57942 0.62853 0.83301 0.0
H659 H 0.55378 0.5924 0.80975 0.0
H660 H 0.53635 0.5325 0.85791 0.0
H661 H 0.55963 0.55427 0.90031 0.0
C662 C 0.58587 0.59849 0.90218 0.0
C663 C 0.59863 0.62169 0.90025 0.0
C664 C 0.57081 0.58598 0.8792 0.0
C665 C 0.59573 0.63231 0.87542 0.0
C666 C 0.58095 0.61995 0.85228 0.0
C667 C 0.55487 0.58415 0.82973 0.0
C668 C 0.54346 0.56087 0.83062 0.0
C669 C 0.56864 0.59677 0.85375 0.0
C670 C 0.54478 0.55038 0.85677 0.0
C671 C 0.55832 0.56282 0.88086 0.0
H672 H 0.96382 0.54723 0.94284 0.0
H673 H 0.01135 0.61473 0.91865 0.0
H674 H 0.01803 0.60218 0.8706 0.0
H675 H 0.01069 0.57241 0.83549 0.0
H676 H 0.96304 0.50482 0.85813 0.0
H677 H 0.95646 0.51702 0.9071 0.0
C678 C 0.97558 0.5592 0.92702 0.0
C679 C 0.987 0.58192 0.93441 0.0
C680 C 0.97946 0.55187 0.89927 0.0
C681 C 1.00229 0.59716 0.91366 0.0
C682 C 1.00617 0.59002 0.88613 0.0
C683 C 0.99866 0.56033 0.85099 0.0
C684 C 0.98715 0.53778 0.84305 0.0
C685 C 0.99485 0.56747 0.87873 0.0
C686 C 0.97213 0.52228 0.86375 0.0
C687 C 0.96829 0.52927 0.89163 0.0
H688 H 0.39777 0.40834 0.91919 0.0
H689 H 0.43867 0.37836 0.91723 0.0
H690 H 0.46117 0.40339 0.87658 0.0
H691 H 0.46771 0.43267 0.83976 0.0
H692 H 0.42712 0.46285 0.844 0.0
H693 H 0.40628 0.43929 0.88644 0.0
C694 C 0.41164 0.40729 0.91001 0.0
C695 C 0.41642 0.39139 0.92089 0.0
C696 C 0.42472 0.422 0.88743 0.0
C697 C 0.43461 0.3904 0.90897 0.0
C698 C 0.4475 0.40474 0.88587 0.0
C699 C 0.45469 0.43437 0.85067 0.0
C700 C 0.44896 0.44948 0.83933 0.0
C701 C 0.4426 0.42053 0.87478 0.0
C702 C 0.43185 0.45146 0.85291 0.0
C703 C 0.41984 0.43787 0.87685 0.0
H704 H 0.61066 0.05678 0.95679 0.0
H705 H 0.62539 0.00533 0.93499 0.0
H706 H 0.6037 0.99682 0.88888 0.0
H707 H 0.58131 0.00428 0.85415 0.0
H708 H 0.56673 0.0559 0.87428 0.0
H709 H 0.58713 0.06367 0.92204 0.0
C710 C 0.60915 0.04373 0.94193 0.0
C711 C 0.61981 0.03183 0.94936 0.0
C712 C 0.59654 0.03882 0.91529 0.0
C713 C 0.61748 0.01484 0.92991 0.0
C714 C 0.60503 0.0099 0.9035 0.0
C715 C 0.58265 0.0173 0.86896 0.0
C716 C 0.57276 0.02967 0.86058 0.0
C717 C 0.59462 0.02185 0.89592 0.0
C718 C 0.57415 0.04611 0.8803 0.0
C719 C 0.58595 0.05065 0.90746 0.0
H720 H 0.58805 0.00735 0.08549 0.0
H721 H 0.64936 0.05099 0.13209 0.0
H722 H 0.62839 0.05406 0.17432 0.0
H723 H 0.59259 0.04289 0.19901 0.0
H724 H 0.53132 0.9994 0.15228 0.0
H725 H 0.55231 0.99824 0.10873 0.0
C726 C 0.59682 0.01754 0.10489 0.0
C727 C 0.62022 0.02872 0.10583 0.0
C728 C 0.58467 0.01944 0.12891 0.0
C729 C 0.63135 0.04214 0.13089 0.0
C730 C 0.61938 0.04392 0.15502 0.0
C731 C 0.58386 0.03331 0.17917 0.0
C732 C 0.56043 0.02117 0.17895 0.0
C733 C 0.59603 0.03246 0.1544 0.0
C734 C 0.54933 0.00907 0.15293 0.0
C735 C 0.56132 0.0082 0.12815 0.0
H736 H 0.97236 0.5832 0.11193 0.0
H737 H 0.03183 0.58915 0.07233 0.0
H738 H 0.03338 0.56597 0.11191 0.0
H739 H 0.01913 0.54575 0.15942 0.0
H740 H 0.96057 0.54085 0.20018 0.0
H741 H 0.95715 0.56156 0.15834 0.0
C742 C 0.98561 0.57937 0.11192 0.0
C743 C 1.00202 0.58802 0.0893 0.0
C744 C 0.9865 0.5661 0.13488 0.0
C745 C 0.01904 0.58282 0.08955 0.0
C746 C 0.01993 0.56951 0.11214 0.0
C747 C 1.00536 0.54881 0.15873 0.0
C748 C 0.99005 0.54171 0.18266 0.0
C749 C 1.00387 0.56122 0.13506 0.0
C750 C 0.97251 0.54615 0.1819 0.0
C751 C 0.97063 0.55807 0.1581 0.0
H752 H 0.42731 0.39389 0.08798 0.0
H753 H 0.43895 0.45244 0.04049 0.0
H754 H 0.46551 0.47577 0.07878 0.0
H755 H 0.4835 0.47983 0.12757 0.0
H756 H 0.47123 0.42181 0.1765 0.0
H757 H 0.44724 0.39806 0.13568 0.0
C758 C 0.43571 0.41174 0.08595 0.0
C759 C 0.43088 0.42129 0.06146 0.0
C760 C 0.45101 0.42522 0.10825 0.0
C761 C 0.4421 0.44451 0.05916 0.0
C762 C 0.45741 0.45795 0.08103 0.0
C763 C 0.47603 0.46201 0.1289 0.0
C764 C 0.47918 0.45256 0.15484 0.0
C765 C 0.46179 0.44851 0.10584 0.0
C766 C 0.46904 0.42942 0.15663 0.0
C767 C 0.45523 0.41586 0.13341 0.0
H768 H 0.72182 0.77089 0.40422 0.0
H769 H 0.66546 0.70922 0.43363 0.0
H770 H 0.66102 0.72762 0.47751 0.0
H771 H 0.67315 0.7607 0.50792 0.0
H772 H 0.72973 0.82267 0.48069 0.0
H773 H 0.73372 0.80486 0.435 0.0
C774 C 0.70865 0.76152 0.42034 0.0
C775 C 0.69406 0.73868 0.41573 0.0
C776 C 0.70608 0.77227 0.44564 0.0
C777 C 0.67695 0.72677 0.43664 0.0
C778 C 0.67434 0.73728 0.46172 0.0
C779 C 0.68642 0.77032 0.49201 0.0
C780 C 0.70133 0.79285 0.49777 0.0
C781 C 0.6888 0.75994 0.46644 0.0
C782 C 0.71807 0.80528 0.47666 0.0
C783 C 0.72043 0.79505 0.45074 0.0
H784 H 0.23449 0.91748 0.37753 0.0
H785 H 0.26941 0.98175 0.41989 0.0
H786 H 0.25328 0.96533 0.46879 0.0
H787 H 0.22982 0.93287 0.49916 0.0
H788 H 0.19936 0.86774 0.45849 0.0
H789 H 0.21237 0.88436 0.40905 0.0
C790 C 0.23844 0.92776 0.39757 0.0
C791 C 0.25294 0.95069 0.39545 0.0
C792 C 0.22974 0.9181 0.42572 0.0
C793 C 0.25827 0.96402 0.42131 0.0
C794 C 0.24903 0.95466 0.44913 0.0
C795 C 0.22632 0.92213 0.47974 0.0
C796 C 0.21369 0.89897 0.48296 0.0
C797 C 0.2349 0.9317 0.45162 0.0
C798 C 0.20871 0.8856 0.45696 0.0
C799 C 0.21638 0.89508 0.4286 0.0
H800 H 0.09849 0.32118 0.37815 0.0
H801 H 0.03659 0.30159 0.42377 0.0
H802 H 0.05383 0.30291 0.47236 0.0
H803 H 0.08636 0.31009 0.50149 0.0
H804 H 0.15009 0.33603 0.4572 0.0
H805 H 0.13208 0.33067 0.40831 0.0
C806 C 0.0889 0.31723 0.39883 0.0
C807 C 0.06639 0.31128 0.39768 0.0
C808 C 0.09916 0.31886 0.42674 0.0
C809 C 0.05399 0.30633 0.42438 0.0
C810 C 0.06381 0.30699 0.45204 0.0
C811 C 0.09658 0.31511 0.48136 0.0
C812 C 0.11975 0.32379 0.48347 0.0
C813 C 0.08642 0.31341 0.45348 0.0
C814 C 0.13224 0.32907 0.45662 0.0
C815 C 0.12198 0.32628 0.42854 0.0
H816 H 0.10285 0.35289 0.26354 0.0
H817 H 0.04358 0.30591 0.21551 0.0
H818 H 0.06624 0.30594 0.17339 0.0
H819 H 0.1027 0.31966 0.14986 0.0
H820 H 0.16214 0.36645 0.19759 0.0
H821 H 0.13963 0.36573 0.24058 0.0
C822 C 0.09494 0.34274 0.24385 0.0
C823 C 0.0716 0.32955 0.24255 0.0
C824 C 0.10806 0.3426 0.21982 0.0
C825 C 0.06154 0.31625 0.217 0.0
C826 C 0.07445 0.31621 0.19292 0.0
C827 C 0.11071 0.32968 0.1697 0.0
C828 C 0.134 0.34318 0.17052 0.0
C829 C 0.0977 0.32935 0.19408 0.0
C830 C 0.14422 0.3558 0.19655 0.0
C831 C 0.13137 0.35554 0.221 0.0
H832 H 0.67053 0.76628 0.28247 0.0
H833 H 0.70734 0.74051 0.23627 0.0
H834 H 0.71171 0.76341 0.19247 0.0
H835 H 0.7029 0.78891 0.16617 0.0
H836 H 0.66504 0.8135 0.21243 0.0
H837 H 0.66383 0.79335 0.2576 0.0
C838 C 0.67958 0.76568 0.26288 0.0
C839 C 0.68834 0.75146 0.26253 0.0
C840 C 0.68198 0.77881 0.23783 0.0
C841 C 0.70032 0.75121 0.23711 0.0
C842 C 0.70281 0.76429 0.21204 0.0
C843 C 0.69449 0.78995 0.1862 0.0
C844 C 0.68399 0.80264 0.18578 0.0
C845 C 0.69338 0.77787 0.21197 0.0
C846 C 0.6735 0.8041 0.21213 0.0
C847 C 0.67257 0.79237 0.23792 0.0
H848 H 0.25996 0.91274 0.26417 0.0
H849 H 0.27161 0.97042 0.21453 0.0
H850 H 0.24907 0.94695 0.17284 0.0
H851 H 0.22769 0.91032 0.1494 0.0
H852 H 0.21659 0.85253 0.19805 0.0
H853 H 0.23655 0.87567 0.24165 0.0
C854 C 0.25756 0.92016 0.24422 0.0
C855 C 0.26766 0.94333 0.24233 0.0
C856 C 0.24444 0.90653 0.22033 0.0
C857 C 0.26415 0.95266 0.2165 0.0
C858 C 0.2512 0.93925 0.19267 0.0
C859 C 0.22949 0.90277 0.16966 0.0
C860 C 0.22083 0.87977 0.1704 0.0
C861 C 0.24147 0.91621 0.19422 0.0
C862 C 0.22294 0.87017 0.19697 0.0
C863 C 0.2346 0.88343 0.22176 0.0
H864 H 0.67041 0.94237 0.27674 0.0
H865 H 0.61082 0.88016 0.2954 0.0
H866 H 0.61738 0.86364 0.25078 0.0
H867 H 0.63946 0.86724 0.20526 0.0
H868 H 0.69903 0.9295 0.18722 0.0
H869 H 0.69314 0.94553 0.23285 0.0
C870 C 0.65881 0.92521 0.27105 0.0
C871 C 0.64007 0.91261 0.2893 0.0
C872 C 0.66272 0.91577 0.24548 0.0
C873 C 0.62536 0.8903 0.28172 0.0
C874 C 0.6291 0.8808 0.2562 0.0
C875 C 0.65127 0.8842 0.21164 0.0
C876 C 0.66955 0.89722 0.19288 0.0
C877 C 0.64768 0.8934 0.23782 0.0
C878 C 0.68469 0.91924 0.2012 0.0
C879 C 0.68134 0.92842 0.22725 0.0
H880 H 0.11104 0.72641 0.26872 0.0
H881 H 0.04772 0.71246 0.23235 0.0
H882 H 0.06602 0.73313 0.18713 0.0
H883 H 0.09956 0.75563 0.15846 0.0
H884 H 0.16329 0.7693 0.19225 0.0
H885 H 0.14533 0.7488 0.23854 0.0
C886 C 0.10128 0.72779 0.25077 0.0
C887 C 0.07804 0.71791 0.25391 0.0
C888 C 0.11196 0.73984 0.22465 0.0
C889 C 0.06561 0.7199 0.23055 0.0
C890 C 0.07605 0.73177 0.20469 0.0
C891 C 0.10956 0.75388 0.17571 0.0
C892 C 0.13265 0.76362 0.17174 0.0
C893 C 0.09915 0.74185 0.20162 0.0
C894 C 0.14546 0.76189 0.1948 0.0
C895 C 0.13517 0.75007 0.22111 0.0
H896 H 0.28592 0.38757 0.27745 0.0
H897 H 0.29451 0.33138 0.26216 0.0
H898 H 0.27118 0.32137 0.21733 0.0
H899 H 0.24914 0.32894 0.18182 0.0
H900 H 0.24157 0.3858 0.19543 0.0
H901 H 0.26317 0.39478 0.24211 0.0
C902 C 0.2827 0.37312 0.26435 0.0
C903 C 0.29212 0.36034 0.27315 0.0
C904 C 0.26928 0.36745 0.23845 0.0
C905 C 0.28763 0.34162 0.2559 0.0
C906 C 0.27423 0.33582 0.23027 0.0
C907 C 0.25228 0.34336 0.19494 0.0
C908 C 0.2439 0.35677 0.18502 0.0
C909 C 0.26512 0.3487 0.22124 0.0
C910 C 0.24767 0.37509 0.20265 0.0
C911 C 0.2602 0.38035 0.22919 0.0
H912 H 0.26352 0.33544 0.40702 0.0
H913 H 0.32279 0.38465 0.45284 0.0
H914 H 0.30016 0.38564 0.49446 0.0
H915 H 0.26361 0.37122 0.51878 0.0
H916 H 0.20444 0.3222 0.47259 0.0
H917 H 0.22691 0.32285 0.42977 0.0
C918 C 0.27148 0.3464 0.42611 0.0
C919 C 0.2948 0.35976 0.42706 0.0
C920 C 0.25838 0.34705 0.44973 0.0
C921 C 0.30487 0.37413 0.45168 0.0
C922 C 0.29194 0.37471 0.47546 0.0
C923 C 0.25566 0.3608 0.49923 0.0
C924 C 0.23242 0.34661 0.4989 0.0
C925 C 0.2687 0.36107 0.47485 0.0
C926 C 0.22228 0.33342 0.47327 0.0
C927 C 0.23513 0.33362 0.44891 0.0
H928 H 0.67816 0.92059 0.41541 0.0
H929 H 0.63086 0.92911 0.46825 0.0
H930 H 0.63369 0.90728 0.50893 0.0
H931 H 0.65105 0.88743 0.53043 0.0
H932 H 0.69848 0.87908 0.47775 0.0
H933 H 0.69363 0.8986 0.43562 0.0
C934 C 0.66846 0.91766 0.43583 0.0
C935 C 0.65453 0.92668 0.43899 0.0
C936 C 0.67002 0.90494 0.45897 0.0
C937 C 0.6418 0.92245 0.46536 0.0
C938 C 0.64339 0.90995 0.48859 0.0
C939 C 0.66019 0.88975 0.50961 0.0
C940 C 0.67523 0.88198 0.50727 0.0
C941 C 0.65762 0.90133 0.48576 0.0
C942 C 0.68668 0.88476 0.48003 0.0
C943 C 0.6841 0.89613 0.45607 0.0
H944 H 0.08306 0.72563 0.42928 0.0
H945 H 0.09324 0.78268 0.37919 0.0
H946 H 0.11528 0.80692 0.42039 0.0
H947 H 0.12979 0.81191 0.47178 0.0
H948 H 0.11925 0.75521 0.5227 0.0
H949 H 0.0994 0.73089 0.47998 0.0
C950 C 0.09017 0.74336 0.42731 0.0
C951 C 0.08629 0.75223 0.40119 0.0
C952 C 0.10281 0.75731 0.45123 0.0
C953 C 0.09577 0.7753 0.39904 0.0
C954 C 0.10845 0.78924 0.4226 0.0
C955 C 0.12357 0.79429 0.47329 0.0
C956 C 0.126 0.78537 0.5003 0.0
C957 C 0.11187 0.78042 0.4489 0.0
C958 C 0.11748 0.76244 0.50214 0.0
C959 C 0.1061 0.74855 0.47777 0.0
H960 H 0.3219 0.05489 0.76256 0.0
H961 H 0.38604 0.10939 0.73658 0.0
H962 H 0.38343 0.13261 0.77577 0.0
H963 H 0.36395 0.13678 0.8195 0.0
H964 H 0.30094 0.08183 0.84725 0.0
H965 H 0.30175 0.05954 0.80494 0.0
C966 C 0.33529 0.07186 0.76544 0.0
C967 C 0.35421 0.08033 0.7468 0.0
C968 C 0.33374 0.0851 0.78814 0.0
C969 C 0.37136 0.10239 0.75073 0.0
C970 C 0.36985 0.11573 0.77308 0.0
C971 C 0.35018 0.12012 0.81569 0.0
C972 C 0.33224 0.11097 0.83594 0.0
C973 C 0.35122 0.10721 0.79207 0.0
C974 C 0.31472 0.08919 0.83151 0.0
C975 C 0.31531 0.07644 0.80756 0.0
H976 H 0.9047 0.25406 0.71946 0.0
H977 H 0.97419 0.29054 0.74407 0.0
H978 H 0.96523 0.27262 0.79337 0.0
H979 H 0.93729 0.24798 0.83043 0.0
H980 H 0.86777 0.21287 0.80542 0.0
H981 H 0.87729 0.22841 0.75513 0.0
C982 C 0.91795 0.2581 0.73553 0.0
C983 C 0.94004 0.27381 0.72817 0.0
C984 C 0.9127 0.24782 0.76375 0.0
C985 C 0.957 0.27858 0.74918 0.0
C986 C 0.9519 0.26834 0.7774 0.0
C987 C 0.92424 0.24368 0.81395 0.0
C988 C 0.90185 0.22923 0.82186 0.0
C989 C 0.92975 0.25315 0.78508 0.0
C990 C 0.88519 0.22361 0.79998 0.0
C991 C 0.89057 0.23271 0.77122 0.0
H992 H 0.74198 0.61915 0.72612 0.0
H993 H 0.73002 0.67217 0.74994 0.0
H994 H 0.74988 0.67796 0.79712 0.0
H995 H 0.76998 0.66786 0.83206 0.0
H996 H 0.78183 0.61464 0.81027 0.0
H997 H 0.76313 0.60939 0.76145 0.0
C998 C 0.7437 0.63195 0.74165 0.0
C999 C 0.73437 0.64511 0.73445 0.0
C1000 C 0.75524 0.63527 0.76898 0.0
C1001 C 0.73692 0.66172 0.7548 0.0
C1002 C 0.74832 0.6651 0.78184 0.0
C1003 C 0.76837 0.65499 0.81671 0.0
C1004 C 0.77694 0.64143 0.82488 0.0
C1005 C 0.75742 0.65193 0.78919 0.0
C1006 C 0.77531 0.62527 0.80443 0.0
C1007 C 0.76452 0.6222 0.77667 0.0
H1008 H 0.76901 0.67764 0.59667 0.0
H1009 H 0.70716 0.63486 0.55063 0.0
H1010 H 0.72762 0.63301 0.50688 0.0
H1011 H 0.76312 0.6444 0.48125 0.0
H1012 H 0.82489 0.68683 0.52763 0.0
H1013 H 0.80441 0.68758 0.57202 0.0
C1014 C 0.76002 0.66792 0.57705 0.0
C1015 C 0.73664 0.65656 0.57673 0.0
C1016 C 0.77186 0.66673 0.55218 0.0
C1017 C 0.72518 0.6438 0.55134 0.0
C1018 C 0.73685 0.64273 0.52634 0.0
C1019 C 0.77206 0.65375 0.50113 0.0
C1020 C 0.79545 0.6656 0.50117 0.0
C1021 C 0.76019 0.65424 0.52646 0.0
C1022 C 0.80687 0.6774 0.52719 0.0
C1023 C 0.79518 0.678 0.55246 0.0
H1024 H 0.32983 0.09559 0.60756 0.0
H1025 H 0.37407 0.07409 0.57391 0.0
H1026 H 0.38078 0.09614 0.52841 0.0
H1027 H 0.37264 0.12018 0.49719 0.0
H1028 H 0.32733 0.14034 0.53102 0.0
H1029 H 0.32307 0.12068 0.57774 0.0
C1030 C 0.34097 0.0957 0.59032 0.0
C1031 C 0.35122 0.083 0.59403 0.0
C1032 C 0.34476 0.10838 0.56432 0.0
C1033 C 0.36585 0.08363 0.57159 0.0
C1034 C 0.36971 0.09624 0.54556 0.0
C1035 C 0.36191 0.12033 0.51483 0.0
C1036 C 0.35038 0.1318 0.51047 0.0
C1037 C 0.35904 0.10848 0.54153 0.0
C1038 C 0.33676 0.13205 0.53381 0.0
C1039 C 0.33406 0.12056 0.56048 0.0
H1040 H 0.92138 0.28126 0.55847 0.0
H1041 H 0.94857 0.24148 0.58922 0.0
H1042 H 0.92407 0.21172 0.55492 0.0
H1043 H 0.89652 0.19777 0.51386 0.0
H1044 H 0.87061 0.23795 0.48112 0.0
H1045 H 0.89254 0.26656 0.51886 0.0
C1046 C 0.92191 0.26606 0.5577 0.0
C1047 C 0.93692 0.2637 0.57626 0.0
C1048 C 0.90777 0.24897 0.53779 0.0
C1049 C 0.93728 0.24383 0.57509 0.0
C1050 C 0.92321 0.22673 0.55553 0.0
C1051 C 0.89528 0.21255 0.51568 0.0
C1052 C 0.88171 0.21568 0.4954 0.0
C1053 C 0.90853 0.22918 0.53661 0.0
C1054 C 0.88065 0.23512 0.49708 0.0
C1055 C 0.89336 0.25153 0.51837 0.0
H1056 H 0.29798 0.22319 0.61111 0.0
H1057 H 0.34778 0.29068 0.59052 0.0
H1058 H 0.35476 0.27884 0.54201 0.0
H1059 H 0.34712 0.24954 0.50569 0.0
H1060 H 0.29696 0.18208 0.52507 0.0
H1061 H 0.28996 0.1937 0.5741 0.0
C1062 C 0.31037 0.23532 0.59604 0.0
C1063 C 0.32232 0.25781 0.60453 0.0
C1064 C 0.31429 0.22842 0.56803 0.0
C1065 C 0.33829 0.27328 0.58464 0.0
C1066 C 0.34232 0.26654 0.55685 0.0
C1067 C 0.33441 0.23739 0.52043 0.0
C1068 C 0.32245 0.215 0.51163 0.0
C1069 C 0.33041 0.24419 0.54833 0.0
C1070 C 0.30647 0.1994 0.53137 0.0
C1071 C 0.30241 0.20605 0.55933 0.0
H1072 H 0.77814 0.06303 0.60716 0.0
H1073 H 0.71441 0.05437 0.58152 0.0
H1074 H 0.73049 0.07496 0.53545 0.0
H1075 H 0.76208 0.09479 0.50207 0.0
H1076 H 0.82602 0.10351 0.52557 0.0
H1077 H 0.8106 0.084 0.57335 0.0
C1078 C 0.76782 0.06564 0.59143 0.0
C1079 C 0.74509 0.05709 0.59771 0.0
C1080 C 0.77722 0.07763 0.56481 0.0
C1081 C 0.73193 0.06072 0.57724 0.0
C1082 C 0.74109 0.07253 0.55089 0.0
C1083 C 0.77264 0.09234 0.51761 0.0
C1084 C 0.79502 0.10022 0.51026 0.0
C1085 C 0.76363 0.08095 0.54444 0.0
C1086 C 0.80871 0.09751 0.53085 0.0
C1087 C 0.79985 0.08625 0.55798 0.0
H1088 H 0.91929 0.67784 0.62254 0.0
H1089 H 0.98058 0.69064 0.58074 0.0
H1090 H 0.96435 0.68736 0.53068 0.0
H1091 H 0.93317 0.68168 0.49938 0.0
H1092 H 0.86984 0.66296 0.54106 0.0
H1093 H 0.88673 0.6686 0.59069 0.0
C1094 C 0.92898 0.67984 0.60237 0.0
C1095 C 0.95104 0.68459 0.60501 0.0
C1096 C 0.91931 0.67718 0.5738 0.0
C1097 C 0.96351 0.6869 0.57899 0.0
C1098 C 0.95427 0.68512 0.55049 0.0
C1099 C 0.92274 0.67823 0.51911 0.0
C1100 C 0.90013 0.6719 0.51603 0.0
C1101 C 0.93218 0.68026 0.54766 0.0
C1102 C 0.88738 0.66835 0.54235 0.0
C1103 C 0.89695 0.67131 0.57089 0.0
H1104 H 0.95805 0.69792 0.78056 0.0
H1105 H 0.90952 0.63751 0.73637 0.0
H1106 H 0.88111 0.63356 0.77222 0.0
H1107 H 0.87064 0.64585 0.81831 0.0
H1108 H 0.91951 0.70497 0.86418 0.0
H1109 H 0.94708 0.71117 0.82522 0.0
C1110 C 0.94124 0.68394 0.77871 0.0
C1111 C 0.93599 0.66795 0.75596 0.0
C1112 C 0.92499 0.68167 0.79957 0.0
C1113 C 0.91408 0.64998 0.7538 0.0
C1114 C 0.89778 0.64774 0.77423 0.0
C1115 C 0.88717 0.66038 0.81922 0.0
C1116 C 0.89307 0.67512 0.84368 0.0
C1117 C 0.90309 0.66333 0.7974 0.0
C1118 C 0.91465 0.6936 0.84524 0.0
C1119 C 0.93042 0.69701 0.82316 0.0
H1120 H 0.30984 0.24248 0.75423 0.0
H1121 H 0.37463 0.29968 0.76944 0.0
H1122 H 0.38154 0.28054 0.81028 0.0
H1123 H 0.36837 0.24793 0.84302 0.0
H1124 H 0.30489 0.18969 0.82528 0.0
H1125 H 0.2983 0.20853 0.78365 0.0
C1126 C 0.32542 0.25068 0.76661 0.0
C1127 C 0.34157 0.27251 0.7594 0.0
C1128 C 0.32956 0.23928 0.78928 0.0
C1129 C 0.36193 0.2829 0.77492 0.0
C1130 C 0.36588 0.27196 0.79816 0.0
C1131 C 0.35332 0.23931 0.82957 0.0
C1132 C 0.33715 0.21752 0.83691 0.0
C1133 C 0.34977 0.2502 0.80564 0.0
C1134 C 0.31764 0.20641 0.81963 0.0
C1135 C 0.31379 0.21724 0.79609 0.0
H1136 H 0.76018 0.10999 0.74163 0.0
H1137 H 0.75001 0.04804 0.77607 0.0
H1138 H 0.7708 0.06684 0.8216 0.0
H1139 H 0.79173 0.10083 0.85175 0.0
H1140 H 0.80162 0.16261 0.81737 0.0
H1141 H 0.78121 0.14389 0.77151 0.0
C1142 C 0.76249 0.10055 0.75904 0.0
C1143 C 0.75348 0.0776 0.75539 0.0
C1144 C 0.77446 0.11144 0.78515 0.0
C1145 C 0.75675 0.06571 0.77823 0.0
C1146 C 0.76862 0.07644 0.80431 0.0
C1147 C 0.78928 0.11015 0.83427 0.0
C1148 C 0.79817 0.13306 0.83792 0.0
C1149 C 0.77748 0.09927 0.80804 0.0
C1150 C 0.79515 0.14501 0.81494 0.0
C1151 C 0.78339 0.1343 0.78881 0.0
H1152 H 0.07803 0.34226 0.00748 0.0
H1153 H 0.11836 0.4134 0.01015 0.0
H1154 H 0.14916 0.41088 0.03203 0.0
H1155 H 0.1613 0.38836 0.05993 0.0
H1156 H 0.12093 0.31735 0.05687 0.0
H1157 H 0.09381 0.31978 0.02478 0.0
C1158 C 0.0938 0.35718 0.01206 0.0
C1159 C 0.09581 0.37796 0.00777 0.0
C1160 C 0.11144 0.3556 0.02463 0.0
C1161 C 0.11638 0.39719 0.01339 0.0
C1162 C 0.13398 0.39577 0.02608 0.0
C1163 C 0.14715 0.37348 0.05086 0.0
C1164 C 0.14309 0.35271 0.0605 0.0
C1165 C 0.13131 0.37507 0.03309 0.0
C1166 C 0.12448 0.33348 0.04928 0.0
C1167 C 0.1088 0.33489 0.03136 0.0
H1168 H 0.62144 0.73162 0.00794 0.0
H1169 H 0.68062 0.7273 0.02012 0.0
H1170 H 0.69705 0.76071 0.05107 0.0
H1171 H 0.69303 0.78864 0.07924 0.0
H1172 H 0.63354 0.79243 0.06927 0.0
H1173 H 0.61908 0.76217 0.03221 0.0
C1174 C 0.63804 0.73812 0.01704 0.0
C1175 C 0.6496 0.72669 0.01203 0.0
C1176 C 0.64736 0.75729 0.0352 0.0
C1177 C 0.6712 0.73554 0.02382 0.0
C1178 C 0.68065 0.75468 0.04155 0.0
C1179 C 0.67705 0.78306 0.06853 0.0
C1180 C 0.66426 0.79256 0.07713 0.0
C1181 C 0.66864 0.76531 0.04805 0.0
C1182 C 0.64373 0.78543 0.0629 0.0
C1183 C 0.63537 0.76797 0.04198 0.0
H1184 H 0.30221 0.90192 0.00506 0.0
H1185 H 0.29499 0.95925 0.01643 0.0
H1186 H 0.25878 0.93644 0.03992 0.0
H1187 H 0.2321 0.9017 0.06401 0.0
H1188 H 0.24027 0.84491 0.05647 0.0
H1189 H 0.2727 0.86572 0.02372 0.0
C1190 C 0.29255 0.90936 0.01219 0.0
C1191 C 0.30153 0.93236 0.00951 0.0
C1192 C 0.27187 0.8962 0.02633 0.0
C1193 C 0.28869 0.94168 0.01868 0.0
C1194 C 0.26794 0.92864 0.03207 0.0
C1195 C 0.24068 0.89375 0.05449 0.0
C1196 C 0.23407 0.87197 0.06278 0.0
C1197 C 0.25978 0.9061 0.03699 0.0
C1198 C 0.24507 0.86166 0.05025 0.0
C1199 C 0.26377 0.87367 0.0319 0.0
H1200 H 0.38027 0.07984 -0.00491 0.0
H1201 H 0.31286 0.02596 0.98362 0.0
H1202 H 0.30154 0.05156 0.96555 0.0
H1203 H 0.31225 0.08753 0.94392 0.0
H1204 H 0.38011 0.14092 0.9501 0.0
H1205 H 0.38975 0.11768 0.98017 0.0
C1206 C 0.363 0.07387 0.98941 0.0
C1207 C 0.34746 0.05101 0.99029 0.0
C1208 C 0.35675 0.08865 0.97794 0.0
C1209 C 0.32516 0.04343 0.98275 0.0
C1210 C 0.31868 0.05806 0.97241 0.0
C1211 C 0.32893 0.09429 0.95295 0.0
C1212 C 0.34546 0.1158 0.94492 0.0
C1213 C 0.33452 0.08048 0.96862 0.0
C1214 C 0.36709 0.12446 0.95634 0.0
C1215 C 0.37265 0.11103 0.97309 0.0
H1216 H 0.93868 0.31234 -0.00466 0.0
H1217 H 0.99875 0.3147 0.96455 0.0
H1218 H 0.97661 0.27949 0.93837 0.0
H1219 H 0.94051 0.25021 0.91971 0.0
H1220 H 0.88034 0.24829 0.94809 0.0
H1221 H 0.90215 0.28079 0.98046 0.0
C1222 C 0.94696 0.30505 0.9832 0.0
C1223 C 0.97042 0.3164 0.98161 0.0
C1224 C 0.93409 0.28484 0.96781 0.0
C1225 C 0.98078 0.30654 0.96596 0.0
C1226 C 0.96812 0.28636 0.95096 0.0
C1227 C 0.93216 0.25672 0.93341 0.0
C1228 C 0.9089 0.24705 0.93136 0.0
C1229 C 0.94482 0.2757 0.95109 0.0
C1230 C 0.89821 0.2554 0.94941 0.0
C1231 C 0.91071 0.27412 0.96763 0.0
H1232 H 0.70436 0.63959 0.98283 0.0
H1233 H 0.72165 0.70022 0.93658 0.0
H1234 H 0.7568 0.70385 0.9205 0.0
H1235 H 0.77959 0.68677 0.91261 0.0
H1236 H 0.76148 0.62494 0.95519 0.0
H1237 H 0.7302 0.6251 0.98057 0.0
C1238 C 0.716 0.65379 0.96969 0.0
C1239 C 0.71016 0.66941 0.96049 0.0
C1240 C 0.73614 0.65559 0.95999 0.0
C1241 C 0.72552 0.68778 0.94361 0.0
C1242 C 0.74569 0.68991 0.93444 0.0
C1243 C 0.76933 0.67387 0.92853 0.0
C1244 C 0.77288 0.65601 0.93241 0.0
C1245 C 0.7508 0.67354 0.9416 0.0
C1246 C 0.75926 0.63904 0.95241 0.0
C1247 C 0.74116 0.63897 0.96644 0.0
H1248 H 0.9024 0.60402 0.00147 0.0
H1249 H 0.96253 0.66805 0.00041 0.0
H1250 H 0.9422 0.68434 0.97817 0.0
H1251 H 0.90903 0.67931 0.95213 0.0
H1252 H 0.84975 0.61491 0.94911 0.0
H1253 H 0.86773 0.60005 0.98094 0.0
C1254 C 0.911 0.62162 -0.00314 0.0
C1255 C 0.93409 0.6347 0.00212 0.0
C1256 C 0.8993 0.63082 0.9834 0.0
C1257 C 0.94487 0.6575 -0.0038 0.0
C1258 C 0.93325 0.66686 0.98351 0.0
C1259 C 0.89988 0.66214 0.95911 0.0
C1260 C 0.87822 0.64815 0.948 0.0
C1261 C 0.9107 0.65353 0.97601 0.0
C1262 C 0.8664 0.62603 0.95745 0.0
C1263 C 0.87681 0.61747 0.97527 0.0
H1264 H 0.32859 0.27612 -0.00577 0.0
H1265 H 0.39815 0.29979 0.00994 0.0
H1266 H 0.39369 0.26519 0.99004 0.0
H1267 H 0.37182 0.23206 0.95805 0.0
H1268 H 0.30266 0.20917 0.94123 0.0
H1269 H 0.30488 0.23913 0.97239 0.0
C1270 C 0.34261 0.27343 -0.0059 0.0
C1271 C 0.36375 0.29065 0.0029 0.0
C1272 C 0.33998 0.2536 0.98224 0.0
C1273 C 0.38172 0.28685 0.00307 0.0
C1274 C 0.37922 0.2671 -0.00851 0.0
C1275 C 0.35703 0.23307 0.96253 0.0
C1276 C 0.3371 0.21853 0.94755 0.0
C1277 C 0.35869 0.25085 0.9796 0.0
C1278 C 0.31808 0.22012 0.95289 0.0
C1279 C 0.31945 0.23743 0.97032 0.0
H1280 H 0.73771 0.11708 0.01483 0.0
H1281 H 0.72902 0.05316 -0.00805 0.0
H1282 H 0.76454 0.07098 0.96548 0.0
H1283 H 0.79467 0.10425 0.94179 0.0
H1284 H 0.80251 0.168 0.96213 0.0
H1285 H 0.77134 0.15086 -0.00241 0.0
C1286 C 0.74373 0.10703 0.00446 0.0
C1287 C 0.73041 0.08378 0.00482 0.0
C1288 C 0.76413 0.1174 0.98891 0.0
C1289 C 0.73871 0.07107 -0.0083 0.0
C1290 C 0.75907 0.08124 0.97653 0.0
C1291 C 0.79 0.11443 0.95485 0.0
C1292 C 0.80067 0.13728 0.94925 0.0
C1293 C 0.77147 0.10434 0.97404 0.0
C1294 C 0.79462 0.15039 0.96624 0.0
C1295 C 0.77654 0.14053 0.98612 0.0
H1296 H 0.69759 0.98038 0.04951 0.0
H1297 H 0.62723 0.94051 0.03154 0.0
H1298 H 0.62777 0.90724 0.04618 0.0
H1299 H 0.64694 0.89088 0.07285 0.0
H1300 H 0.71695 0.93089 0.09188 0.0
H1301 H 0.71816 0.96252 0.06701 0.0
C1302 C 0.68247 0.96435 0.04831 0.0
C1303 C 0.66231 0.96294 0.04015 0.0
C1304 C 0.68292 0.94528 0.05673 0.0
C1305 C 0.64292 0.94204 0.03808 0.0
C1306 C 0.64321 0.923 0.04647 0.0
C1307 C 0.66264 0.90622 0.07006 0.0
C1308 C 0.68188 0.90861 0.08379 0.0
C1309 C 0.66294 0.92455 0.05691 0.0
C1310 C 0.70207 0.92866 0.0809 0.0
C1311 C 0.70265 0.94684 0.06722 0.0
H1312 H 0.04623 0.71328 0.03467 0.0
H1313 H 0.08158 0.67998 0.00868 0.0
H1314 H 0.11694 0.71286 0.02169 0.0
H1315 H 0.13669 0.74819 0.04952 0.0
H1316 H 0.10158 0.78158 0.07537 0.0
H1317 H 0.06746 0.75209 0.05232 0.0
C1318 C 0.06173 0.71342 0.0313 0.0
C1319 C 0.06127 0.69409 0.02139 0.0
C1320 C 0.08208 0.73249 0.03863 0.0
C1321 C 0.08148 0.69459 0.01656 0.0
C1322 C 0.10173 0.71339 0.02403 0.0
C1323 C 0.12186 0.74954 0.04855 0.0
C1324 C 0.12159 0.76702 0.06383 0.0
C1325 C 0.10214 0.73211 0.0362 0.0
C1326 C 0.10221 0.76844 0.06319 0.0
C1327 C 0.08258 0.75133 0.05058 0.0
H1328 H 0.30608 0.33597 0.03495 0.0
H1329 H 0.31814 0.39873 0.00099 0.0
H1330 H 0.28315 0.39212 0.02235 0.0
H1331 H 0.25197 0.37127 0.057 0.0
H1332 H 0.24062 0.3096 0.09327 0.0
H1333 H 0.27185 0.31258 0.06394 0.0
C1334 C 0.30093 0.34808 0.03193 0.0
C1335 C 0.31504 0.36802 0.0169 0.0
C1336 C 0.28072 0.34428 0.04451 0.0
C1337 C 0.30788 0.38336 0.01283 0.0
C1338 C 0.28777 0.3796 0.02497 0.0
C1339 C 0.25579 0.35806 0.05737 0.0
C1340 C 0.24402 0.34019 0.07693 0.0
C1341 C 0.27439 0.36045 0.04161 0.0
C1342 C 0.24936 0.32336 0.07795 0.0
C1343 C 0.26742 0.32526 0.06158 0.0
H1344 H 0.77176 0.71579 0.34076 0.0
H1345 H 0.71789 0.64802 0.34373 0.0
H1346 H 0.74305 0.63644 0.36322 0.0
H1347 H 0.77798 0.64662 0.38888 0.0
H1348 H 0.83099 0.71453 0.39071 0.0
H1349 H 0.80902 0.72501 0.35906 0.0
C1350 C 0.76571 0.69843 0.34489 0.0
C1351 C 0.74292 0.68284 0.3413 0.0
C1352 C 0.78018 0.69195 0.35709 0.0
C1353 C 0.73529 0.66039 0.34674 0.0
C1354 C 0.74967 0.65374 0.3579 0.0
C1355 C 0.78504 0.66352 0.38112 0.0
C1356 C 0.806 0.67979 0.39184 0.0
C1357 C 0.77184 0.6695 0.36449 0.0
C1358 C 0.81499 0.70173 0.38227 0.0
C1359 C 0.80225 0.70774 0.36464 0.0
H1360 H 0.3371 0.06154 0.34249 0.0
H1361 H 0.27073 0.05055 0.3309 0.0
H1362 H 0.28126 0.08501 0.35758 0.0
H1363 H 0.30767 0.11526 0.39083 0.0
H1364 H 0.37352 0.12548 0.40356 0.0
H1365 H 0.36504 0.0947 0.36936 0.0
C1366 C 0.32502 0.06684 0.34537 0.0
C1367 C 0.30305 0.05322 0.33519 0.0
C1368 C 0.3311 0.08658 0.36105 0.0
C1369 C 0.28772 0.06055 0.33875 0.0
C1370 C 0.2937 0.08027 0.35408 0.0
C1371 C 0.32035 0.11119 0.38522 0.0
C1372 C 0.34112 0.12247 0.39968 0.0
C1373 C 0.31512 0.09303 0.36624 0.0
C1374 C 0.35739 0.11692 0.39263 0.0
C1375 C 0.35249 0.09923 0.3733 0.0
H1376 H 0.96135 0.2266 0.33429 0.0
H1377 H 0.95531 0.28498 0.33564 0.0
H1378 H 0.91886 0.26414 0.3592 0.0
H1379 H 0.89166 0.23125 0.38643 0.0
H1380 H 0.89862 0.17361 0.38889 0.0
H1381 H 0.93123 0.19187 0.35585 0.0
C1382 C 0.95188 0.23465 0.33924 0.0
C1383 C 0.96126 0.25743 0.33376 0.0
C1384 C 0.93105 0.22266 0.35345 0.0
C1385 C 0.94869 0.26757 0.3401 0.0
C1386 C 0.92779 0.25566 0.35353 0.0
C1387 C 0.90001 0.22251 0.37901 0.0
C1388 C 0.89301 0.20129 0.39024 0.0
C1389 C 0.91923 0.23347 0.36132 0.0
C1390 C 0.90371 0.18995 0.38039 0.0
C1391 C 0.92253 0.20052 0.36187 0.0
H1392 H 0.04282 0.4037 0.32752 0.0
H1393 H 0.97842 0.35311 0.29511 0.0
H1394 H 0.96992 0.38127 0.27954 0.0
H1395 H 0.98347 0.41991 0.26652 0.0
H1396 H 0.04873 0.47063 0.29483 0.0
H1397 H 0.054 0.44307 0.3215 0.0
C1398 C 0.02674 0.39886 0.31769 0.0
C1399 C 0.01146 0.37635 0.31194 0.0
C1400 C 0.02213 0.41524 0.30805 0.0
C1401 C 0.99065 0.37033 0.29931 0.0
C1402 C 0.98573 0.38643 0.29042 0.0
C1403 C 0.99839 0.42498 0.27976 0.0
C1404 C 0.01561 0.44716 0.27909 0.0
C1405 C 1.00169 0.4089 0.29352 0.0
C1406 C 0.03513 0.45365 0.29559 0.0
C1407 C 0.03827 0.43782 0.31035 0.0
H1408 H 0.64812 0.6319 0.29707 0.0
H1409 H 0.5928 0.641 0.31899 0.0
H1410 H 0.5671 0.60559 0.29553 0.0
H1411 H 0.56087 0.57453 0.26282 0.0
H1412 H 0.61617 0.56639 0.23835 0.0
H1413 H 0.64119 0.59843 0.26948 0.0
C1414 C 0.63043 0.62605 0.297 0.0
C1415 C 0.62253 0.63935 0.30933 0.0
C1416 C 0.61566 0.60568 0.28318 0.0
C1417 C 0.59947 0.63131 0.30935 0.0
C1418 C 0.58468 0.61099 0.29598 0.0
C1419 C 0.57823 0.57931 0.26536 0.0
C1420 C 0.58672 0.56812 0.2487 0.0
C1421 C 0.59264 0.59832 0.28212 0.0
C1422 C 0.60932 0.57468 0.2514 0.0
C1423 C 0.62364 0.59316 0.26882 0.0
H1424 H 0.39006 0.03132 0.31003 0.0
H1425 H 0.36105 0.96149 0.32639 0.0
H1426 H 0.39644 0.96389 0.31432 0.0
H1427 H 0.43316 0.98447 0.28965 0.0
H1428 H 0.46194 0.05408 0.27291 0.0
H1429 H 0.42963 0.05344 0.29574 0.0
C1430 C 0.39165 0.01675 0.31156 0.0
C1431 C 0.37285 0.99618 0.31844 0.0
C1432 C 0.41212 0.01827 0.3047 0.0
C1433 C 0.37522 0.97749 0.32088 0.0
C1434 C 0.39547 0.97883 0.31393 0.0
C1435 C 0.43285 0.9997 0.2926 0.0
C1436 C 0.4499 0.01932 0.27987 0.0
C1437 C 0.41377 0.99896 0.30464 0.0
C1438 C 0.44915 0.03889 0.28306 0.0
C1439 C 0.43045 0.03841 0.29553 0.0
H1440 H 0.60394 0.99565 0.34583 0.0
H1441 H 0.55049 0.92785 0.3388 0.0
H1442 H 0.52739 0.9397 0.31311 0.0
H1443 H 0.52448 0.96887 0.28618 0.0
H1444 H 0.57817 0.03639 0.29256 0.0
H1445 H 0.59879 0.02529 0.3256 0.0
C1446 C 0.58713 0.9835 0.33902 0.0
C1447 C 0.57914 0.96088 0.34375 0.0
C1448 C 0.5739 0.99042 0.32423 0.0
C1449 C 0.55716 0.94537 0.33525 0.0
C1450 C 0.54391 0.95212 0.3205 0.0
C1451 C 0.54027 0.98118 0.29587 0.0
C1452 C 0.5498 1.00339 0.28724 0.0
C1453 C 0.55234 0.97454 0.31407 0.0
C1454 C 0.57049 0.01923 0.29929 0.0
C1455 C 0.58239 0.01284 0.31782 0.0
H1456 H 0.99776 0.60583 0.34289 0.0
H1457 H 0.06908 0.63562 0.33881 0.0
H1458 H 0.06501 0.60115 0.31888 0.0
H1459 H 0.04104 0.56574 0.29221 0.0
H1460 H 0.96985 0.53659 0.29567 0.0
H1461 H 0.97387 0.56717 0.32707 0.0
C1462 C 0.01239 0.60453 0.33851 0.0
C1463 C 0.03365 0.62331 0.34168 0.0
C1464 C 0.00991 0.58475 0.32675 0.0
C1465 C 0.05251 0.62139 0.33637 0.0
C1466 C 0.05019 0.60172 0.32475 0.0
C1467 C 0.02646 0.56562 0.30114 0.0
C1468 C 1.0052 0.54911 0.29164 0.0
C1469 C 0.02897 0.58368 0.31838 0.0
C1470 C 0.98635 0.54917 0.30289 0.0
C1471 C 0.98867 0.56679 0.32048 0.0
H1472 H 0.40666 0.45228 0.32109 0.0
H1473 H 0.40668 0.39065 0.32252 0.0
H1474 H 0.44183 0.40773 0.29535 0.0
H1475 H 0.46969 0.43839 0.26524 0.0
H1476 H 0.46913 0.49948 0.26096 0.0
H1477 H 0.43756 0.48471 0.29599 0.0
C1478 C 0.41453 0.44268 0.31587 0.0
C1479 C 0.40378 0.42008 0.32336 0.0
C1480 C 0.4347 0.45254 0.29976 0.0
C1481 C 0.41434 0.40796 0.31664 0.0
C1482 C 0.4345 0.41772 0.30113 0.0
C1483 C 0.46296 0.44863 0.27264 0.0
C1484 C 0.4715 0.46986 0.26048 0.0
C1485 C 0.44441 0.43974 0.29173 0.0
C1486 C 0.46286 0.48311 0.27023 0.0
C1487 C 0.44464 0.47455 0.28991 0.0
H1488 H 0.32168 0.27837 0.3481 0.0
H1489 H 0.3807 0.32684 0.39529 0.0
H1490 H 0.38671 0.29772 0.41406 0.0
H1491 H 0.3716 0.25841 0.42438 0.0
H1492 H 0.31135 0.20961 0.38067 0.0
H1493 H 0.30977 0.23873 0.35236 0.0
C1494 C 0.33608 0.28257 0.36201 0.0
C1495 C 0.35046 0.30472 0.37078 0.0
C1496 C 0.33925 0.26562 0.37326 0.0
C1497 C 0.36915 0.30991 0.3886 0.0
C1498 C 0.37266 0.29326 0.39932 0.0
C1499 C 0.35874 0.25417 0.40758 0.0
C1500 C 0.34174 0.23203 0.40428 0.0
C1501 C 0.35735 0.27104 0.39276 0.0
C1502 C 0.3248 0.22657 0.38308 0.0
C1503 C 0.32371 0.24326 0.36735 0.0
H1504 H 0.72821 0.02859 0.35161 0.0
H1505 H 0.68296 0.04423 0.39708 0.0
H1506 H 0.71405 0.07993 0.41277 0.0
H1507 H 0.7541 0.10342 0.42138 0.0
H1508 H 0.79971 0.08679 0.38001 0.0
H1509 H 0.76872 0.05529 0.354 0.0
C1510 C 0.72514 0.04002 0.36437 0.0
C1511 C 0.70329 0.03356 0.37359 0.0
C1512 C 0.74324 0.06043 0.37401 0.0
C1513 C 0.6996 0.04862 0.39005 0.0
C1514 C 0.71739 0.06908 0.39902 0.0
C1515 C 0.75727 0.09346 0.40553 0.0
C1516 C 0.77907 0.09745 0.40228 0.0
C1517 C 0.73929 0.07476 0.39217 0.0
C1518 C 0.78308 0.08422 0.38235 0.0
C1519 C 0.7653 0.06598 0.36796 0.0
H1520 H 0.96735 0.65945 0.36581 0.0
H1521 H 0.9754 0.72093 0.33277 0.0
H1522 H 0.93926 0.71155 0.35315 0.0
H1523 H 0.90831 0.68888 0.38717 0.0
H1524 H 0.90066 0.62826 0.42217 0.0
H1525 H 0.93313 0.63385 0.39339 0.0
C1526 C 0.96109 0.67066 0.36275 0.0
C1527 C 0.97437 0.69108 0.34836 0.0
C1528 C 0.94021 0.66525 0.37473 0.0
C1529 C 0.96576 0.70523 0.34414 0.0
C1530 C 0.94501 0.69988 0.35573 0.0
C1531 C 0.9132 0.67644 0.38741 0.0
C1532 C 0.90224 0.65826 0.40674 0.0
C1533 C 0.93243 0.6803 0.37192 0.0
C1534 C 0.90889 0.64237 0.4073 0.0
C1535 C 0.92763 0.64574 0.39121 0.0
H1536 H 0.43455 0.05407 0.68579 0.0
H1537 H 0.38133 0.98598 0.68722 0.0
H1538 H 0.40678 0.97461 0.70625 0.0
H1539 H 0.44177 0.9848 0.73147 0.0
H1540 H 0.4939 0.05308 0.73591 0.0
H1541 H 0.47183 0.06358 0.70455 0.0
C1542 C 0.42873 0.03671 0.68958 0.0
C1543 C 0.40605 0.02091 0.68561 0.0
C1544 C 0.44332 0.03036 0.70163 0.0
C1545 C 0.39865 0.99846 0.69059 0.0
C1546 C 0.41319 0.99194 0.70143 0.0
C1547 C 0.44857 1.00186 0.72457 0.0
C1548 C 0.46924 0.01819 0.73609 0.0
C1549 C 0.43525 0.00785 0.70832 0.0
C1550 C 0.47804 0.04024 0.72714 0.0
C1551 C 0.46525 0.04626 0.70965 0.0
H1552 H 1.00134 0.38822 0.66399 0.0
H1553 H 0.93164 0.36711 0.67247 0.0
H1554 H 0.94116 0.40152 0.69872 0.0
H1555 H 0.96909 0.43507 0.72579 0.0
H1556 H 0.03849 0.45519 0.71878 0.0
H1557 H 0.02938 0.42404 0.68496 0.0
C1558 C 0.98822 0.39126 0.67117 0.0
C1559 C 0.96581 0.3749 0.66672 0.0
C1560 C 0.99379 0.41097 0.68659 0.0
C1561 C 0.94905 0.3793 0.6758 0.0
C1562 C 0.95447 0.39899 0.69091 0.0
C1563 C 0.9822 0.433 0.71595 0.0
C1564 C 1.00439 0.4473 0.72463 0.0
C1565 C 0.97675 0.41461 0.69731 0.0
C1566 C 0.0213 0.44434 0.71224 0.0
C1567 C 0.01607 0.42644 0.69315 0.0
H1568 H 0.62077 0.56561 0.66987 0.0
H1569 H 0.62491 0.62916 0.67537 0.0
H1570 H 0.58787 0.61186 0.69756 0.0
H1571 H 0.55709 0.57994 0.72234 0.0
H1572 H 0.55399 0.51696 0.72066 0.0
H1573 H 0.58733 0.53252 0.68894 0.0
C1574 C 0.61345 0.57563 0.67548 0.0
C1575 C 0.62583 0.59873 0.67153 0.0
C1576 C 0.59225 0.56563 0.68881 0.0
C1577 C 0.61594 0.61141 0.67863 0.0
C1578 C 0.59472 0.60153 0.69127 0.0
C1579 C 0.56342 0.56951 0.71429 0.0
C1580 C 0.55336 0.54747 0.72401 0.0
C1581 C 0.58311 0.57883 0.69745 0.0
C1582 C 0.56146 0.53397 0.71333 0.0
C1583 C 0.5807 0.54296 0.69559 0.0
H1584 H 0.66483 0.70761 0.6396 0.0
H1585 H 0.73497 0.74203 0.66027 0.0
H1586 H 0.73818 0.77712 0.64603 0.0
H1587 H 0.72242 0.79642 0.61843 0.0
H1588 H 0.65257 0.762 0.59709 0.0
H1589 H 0.64759 0.72869 0.62181 0.0
C1590 C 0.6807 0.72287 0.64157 0.0
C1591 C 0.69973 0.7222 0.65027 0.0
C1592 C 0.68242 0.743 0.63333 0.0
C1593 C 0.72012 0.7421 0.65331 0.0
C1594 C 0.72198 0.76218 0.64512 0.0
C1595 C 0.70595 0.78195 0.62067 0.0
C1596 C 0.68784 0.78156 0.6063 0.0
C1597 C 0.70344 0.76267 0.63391 0.0
C1598 C 0.66662 0.76267 0.60854 0.0
C1599 C 0.66387 0.74352 0.62216 0.0
H1600 H 0.2579 0.96715 0.66234 0.0
H1601 H 0.31733 0.97388 0.62137 0.0
H1602 H 0.29504 0.93922 0.59395 0.0
H1603 H 0.25841 0.90989 0.57635 0.0
H1604 H 0.19892 0.90349 0.61609 0.0
H1605 H 0.22146 0.93465 0.65 0.0
C1606 C 0.266 0.9609 0.64769 0.0
C1607 C 0.28922 0.97336 0.64346 0.0
C1608 C 0.25306 0.94095 0.63186 0.0
C1609 C 0.29948 0.96479 0.62484 0.0
C1610 C 0.28674 0.94495 0.6091 0.0
C1611 C 0.25045 0.915 0.59302 0.0
C1612 C 0.22711 0.90463 0.5936 0.0
C1613 C 0.26349 0.93329 0.61171 0.0
C1614 C 0.21688 0.91119 0.61538 0.0
C1615 C 0.22977 0.92919 0.63446 0.0
H1616 H 0.05193 0.31698 0.64953 0.0
H1617 H 0.05276 0.36895 0.5968 0.0
H1618 H 0.08971 0.37955 0.57785 0.0
H1619 H 0.1183 0.36967 0.5691 0.0
H1620 H 0.11608 0.31567 0.61783 0.0
H1621 H 0.08385 0.31089 0.64656 0.0
C1622 C 0.06039 0.33091 0.63437 0.0
C1623 C 0.0494 0.34186 0.6241 0.0
C1624 C 0.08149 0.3366 0.62292 0.0
C1625 C 0.06067 0.35999 0.60465 0.0
C1626 C 0.08184 0.36611 0.59384 0.0
C1627 C 0.11122 0.35742 0.58685 0.0
C1628 C 0.11932 0.34289 0.59119 0.0
C1629 C 0.09196 0.35394 0.60183 0.0
C1630 C 0.11016 0.3271 0.61421 0.0
C1631 C 0.09148 0.32412 0.63023 0.0
H1632 H 0.27891 0.33084 0.66874 0.0
H1633 H 0.22949 0.26137 0.66389 0.0
H1634 H 0.20414 0.26996 0.63753 0.0
H1635 H 0.19857 0.29673 0.60853 0.0
H1636 H 0.24842 0.36589 0.61226 0.0
H1637 H 0.27072 0.35805 0.64697 0.0
C1638 C 0.26245 0.3176 0.66238 0.0
C1639 C 0.25633 0.29547 0.66777 0.0
C1640 C 0.24797 0.32263 0.647 0.0
C1641 C 0.23477 0.27855 0.65981 0.0
C1642 C 0.22023 0.28344 0.64463 0.0
C1643 C 0.21386 0.31011 0.61802 0.0
C1644 C 0.22187 0.33184 0.6081 0.0
C1645 C 0.22696 0.30535 0.63714 0.0
C1646 C 0.24191 0.34907 0.61994 0.0
C1647 C 0.25478 0.34455 0.63944 0.0
H1648 H 0.73021 0.96181 0.66988 0.0
H1649 H 0.66054 0.94171 0.67095 0.0
H1650 H 0.65106 0.90618 0.64844 0.0
H1651 H 0.66317 0.88439 0.61937 0.0
H1652 H 0.73278 0.90527 0.61431 0.0
H1653 H 0.74175 0.93658 0.64809 0.0
C1654 C 0.71292 0.94937 0.666 0.0
C1655 C 0.69612 0.95449 0.67155 0.0
C1656 C 0.70763 0.92919 0.65206 0.0
C1657 C 0.67379 0.93826 0.66644 0.0
C1658 C 0.66835 0.91795 0.65352 0.0
C1659 C 0.6802 0.89538 0.62667 0.0
C1660 C 0.69733 0.89275 0.61447 0.0
C1661 C 0.68521 0.91373 0.64488 0.0
C1662 C 0.71936 0.907 0.62371 0.0
C1663 C 0.72448 0.92503 0.64267 0.0
H1664 H 0.05019 0.77439 0.66874 0.0
H1665 H 0.0601 0.71834 0.67034 0.0
H1666 H 0.09488 0.73934 0.64283 0.0
H1667 H 0.11913 0.77122 0.61149 0.0
H1668 H 0.10874 0.82671 0.60734 0.0
H1669 H 0.07789 0.80866 0.64331 0.0
C1670 C 0.06019 0.76693 0.66365 0.0
C1671 C 0.05227 0.74465 0.67109 0.0
C1672 C 0.08006 0.77899 0.64722 0.0
C1673 C 0.06556 0.73532 0.66448 0.0
C1674 C 0.08548 0.74732 0.64872 0.0
C1675 C 0.11045 0.77957 0.61916 0.0
C1676 C 0.11595 0.80009 0.60674 0.0
C1677 C 0.0924 0.7688 0.63894 0.0
C1678 C 0.10478 0.81092 0.61679 0.0
C1679 C 0.08701 0.80048 0.63705 0.0
H1680 H 0.97744 0.59908 0.6813 0.0
H1681 H 0.03578 0.64891 0.72824 0.0
H1682 H 0.04383 0.62078 0.74554 0.0
H1683 H 0.03071 0.58171 0.75473 0.0
H1684 H 0.9709 0.53139 0.71182 0.0
H1685 H 0.96734 0.55984 0.68466 0.0
C1686 C 0.99215 0.60381 0.69479 0.0
C1687 C 1.00576 0.62602 0.70392 0.0
C1688 C 0.99642 0.58739 0.70532 0.0
C1689 C 0.02483 0.6319 0.7213 0.0
C1690 C 0.02948 0.61583 0.73117 0.0
C1691 C 0.01748 0.57703 0.73838 0.0
C1692 C 1.0012 0.55462 0.73496 0.0
C1693 C 0.01494 0.59347 0.72431 0.0
C1694 C 0.98381 0.54857 0.71432 0.0
C1695 C 0.98159 0.56487 0.69925 0.0
H1696 H 0.36333 0.38899 0.70178 0.0
H1697 H 0.40716 0.36641 0.67032 0.0
H1698 H 0.43952 0.40199 0.68378 0.0
H1699 H 0.45482 0.43631 0.71397 0.0
H1700 H 0.41105 0.45862 0.74589 0.0
H1701 H 0.37933 0.42692 0.7218 0.0
C1702 C 0.37997 0.39207 0.69724 0.0
C1703 C 0.38285 0.37495 0.68574 0.0
C1704 C 0.39855 0.41262 0.70505 0.0
C1705 C 0.40448 0.37926 0.67945 0.0
C1706 C 0.42303 0.39961 0.68721 0.0
C1707 C 0.43853 0.4348 0.71417 0.0
C1708 C 0.43518 0.4497 0.73149 0.0
C1709 C 0.42026 0.41604 0.70125 0.0
C1710 C 0.41397 0.44744 0.73226 0.0
C1711 C 0.39578 0.42908 0.71899 0.0
H1712 H 0.63815 0.04536 0.68126 0.0
H1713 H 0.64535 0.99612 0.72979 0.0
H1714 H 0.61071 0.98501 0.75671 0.0
H1715 H 0.58185 0.99333 0.77199 0.0
H1716 H 0.5754 0.04348 0.72525 0.0
H1717 H 0.60588 0.04976 0.69134 0.0
C1718 C 0.632 0.032 0.69744 0.0
C1719 C 0.6446 0.02194 0.70403 0.0
C1720 C 0.61219 0.02585 0.71308 0.0
C1721 C 0.63615 0.00433 0.72456 0.0
C1722 C 0.61634 0.99797 0.74 0.0
C1723 C 0.58677 0.00518 0.75379 0.0
C1724 C 0.57672 0.01814 0.75117 0.0
C1725 C 0.60471 0.00918 0.73522 0.0
C1726 C 0.58295 0.03332 0.72751 0.0
C1727 C 0.60053 0.03708 0.70844 0.0
loop_
_geom_bond_atom_site_label_1
_geom_bond_atom_site_label_2
_geom_bond_distance
_geom_bond_site_symmetry_2
_ccdc_geom_bond_type
C0 O1 1.306 1_556 S
C0 O3 1.160 . S
O1 C0 1.306 1_554 S
O1 Cd2 2.228 . S
Cd2 O1 2.228 . S
Cd2 O6 2.273 . S
Cd2 O10 2.277 1_554 S
O3 C0 1.160 . S
O3 Cd4 2.203 1_656 S
Cd4 O3 2.203 1_454 S
Cd4 O6 2.411 1_455 S
Cd4 O7 2.333 . S
Cd4 O8 2.352 . S
Cd4 O12 2.277 1_554 S
Cd4 O13 2.356 . S
C5 O10 1.209 1_455 S
C5 O12 1.226 . S
O6 Cd2 2.273 . S
O6 Cd4 2.411 1_655 S
O6 C9 1.306 1_655 S
O7 Cd4 2.333 . S
O7 C9 1.247 . S
O8 Cd4 2.352 . S
O8 C11 1.258 . S
C9 O6 1.306 1_455 S
C9 O7 1.247 . S
O10 Cd2 2.277 1_556 S
O10 C5 1.209 1_655 S
C11 O8 1.258 . S
C11 O13 1.282 . S
O12 Cd4 2.277 1_556 S
O12 C5 1.226 . S
O13 Cd4 2.356 . S
O13 C11 1.282 . S
C14 O15 1.306 . S
C14 O17 1.160 . S
O15 C14 1.306 . S
O15 Cd16 2.228 . S
Cd16 O15 2.228 . S
Cd16 O20 2.273 1_554 S
Cd16 O24 2.277 . S
O17 C14 1.160 . S
O17 Cd18 2.203 . S
Cd18 O17 2.203 . S
Cd18 O20 2.411 1_554 S
Cd18 O21 2.333 1_554 S
Cd18 O22 2.352 1_554 S
Cd18 O26 2.277 . S
Cd18 O27 2.356 . S
C19 O24 1.209 . S
C19 O26 1.226 . S
O20 Cd16 2.273 1_556 S
O20 Cd18 2.411 1_556 S
O20 C23 1.320 . S
O21 Cd18 2.333 1_556 S
O21 C23 1.214 . S
O22 Cd18 2.352 1_556 S
O22 C25 1.258 . S
C23 O20 1.320 . S
C23 O21 1.214 . S
O24 Cd16 2.277 . S
O24 C19 1.209 . S
C25 O22 1.258 . S
C25 O27 1.282 1_556 S
O26 Cd18 2.277 . S
O26 C19 1.226 . S
O27 Cd18 2.356 . S
O27 C25 1.282 1_554 S
C28 O29 1.306 . S
C28 O31 1.160 . S
O29 C28 1.306 . S
O29 Cd30 2.228 . S
Cd30 O29 2.228 . S
Cd30 O34 2.273 1_554 S
Cd30 O38 2.277 . S
O31 C28 1.160 . S
O31 Cd32 2.203 1_565 S
Cd32 O31 2.203 1_545 S
Cd32 O34 2.411 1_544 S
Cd32 O35 2.333 1_554 S
Cd32 O36 2.352 1_554 S
Cd32 O40 2.277 . S
Cd32 O41 2.356 . S
C33 O38 1.209 1_545 S
C33 O40 1.226 . S
O34 Cd30 2.273 1_556 S
O34 Cd32 2.411 1_566 S
O34 C37 1.320 1_565 S
O35 Cd32 2.333 1_556 S
O35 C37 1.214 . S
O36 Cd32 2.352 1_556 S
O36 C39 1.258 . S
C37 O34 1.320 1_545 S
C37 O35 1.214 . S
O38 Cd30 2.277 . S
O38 C33 1.209 1_565 S
C39 O36 1.258 . S
C39 O41 1.282 1_556 S
O40 Cd32 2.277 . S
O40 C33 1.226 . S
O41 Cd32 2.356 . S
O41 C39 1.282 1_554 S
C42 O43 1.303 1_556 S
C42 O45 1.160 . S
O43 C42 1.303 1_554 S
O43 Cd44 2.230 . S
Cd44 O43 2.230 . S
Cd44 O48 2.273 . S
Cd44 O52 2.277 1_554 S
O45 C42 1.160 . S
O45 Cd46 2.203 1_656 S
Cd46 O45 2.203 1_454 S
Cd46 O48 2.411 1_455 S
Cd46 O49 2.333 . S
Cd46 O50 2.352 . S
Cd46 O54 2.277 1_554 S
Cd46 O55 2.356 . S
C47 O52 1.209 1_455 S
C47 O54 1.226 . S
O48 Cd44 2.273 . S
O48 Cd46 2.411 1_655 S
O48 C51 1.295 1_655 S
O49 Cd46 2.333 . S
O49 C51 1.234 . S
O50 Cd46 2.352 . S
O50 C53 1.258 . S
C51 O48 1.295 1_455 S
C51 O49 1.234 . S
O52 Cd44 2.277 1_556 S
O52 C47 1.209 1_655 S
C53 O50 1.258 . S
C53 O55 1.282 . S
O54 Cd46 2.277 1_556 S
O54 C47 1.226 . S
O55 Cd46 2.356 . S
O55 C53 1.282 . S
C56 O57 1.306 . S
C56 O59 1.160 . S
O57 C56 1.306 . S
O57 Cd58 2.228 . S
Cd58 O57 2.228 . S
Cd58 O62 2.273 1_554 S
Cd58 O66 2.277 . S
O59 C56 1.160 . S
O59 Cd60 2.203 . S
Cd60 O59 2.203 . S
Cd60 O62 2.411 1_554 S
Cd60 O63 2.333 1_554 S
Cd60 O64 2.352 1_554 S
Cd60 O68 2.277 . S
Cd60 O69 2.356 . S
C61 O66 1.209 . S
C61 O68 1.226 . S
O62 Cd58 2.273 1_556 S
O62 Cd60 2.411 1_556 S
O62 C65 1.320 . S
O63 Cd60 2.333 1_556 S
O63 C65 1.214 . S
O64 Cd60 2.352 1_556 S
O64 C67 1.258 . S
C65 O62 1.320 . S
C65 O63 1.214 . S
O66 Cd58 2.277 . S
O66 C61 1.209 . S
C67 O64 1.258 . S
C67 O69 1.282 1_556 S
O68 Cd60 2.277 . S
O68 C61 1.226 . S
O69 Cd60 2.356 . S
O69 C67 1.282 1_554 S
C70 O71 1.306 1_556 S
C70 O73 1.160 . S
O71 C70 1.306 1_554 S
O71 Cd72 2.228 . S
Cd72 O71 2.228 . S
Cd72 O76 2.273 . S
Cd72 O80 2.277 1_554 S
O73 C70 1.160 . S
O73 Cd74 2.203 1_546 S
Cd74 O73 2.203 1_564 S
Cd74 O76 2.411 1_565 S
Cd74 O77 2.333 . S
Cd74 O78 2.352 . S
Cd74 O82 2.277 1_554 S
Cd74 O83 2.356 . S
C75 O80 1.174 1_565 S
C75 O82 1.276 . S
O76 Cd72 2.273 . S
O76 Cd74 2.411 1_545 S
O76 C79 1.342 . S
O77 Cd74 2.333 . S
O77 C79 1.168 1_565 S
O78 Cd74 2.352 . S
O78 C81 1.258 . S
C79 O76 1.342 . S
C79 O77 1.168 1_545 S
O80 Cd72 2.277 1_556 S
O80 C75 1.174 1_545 S
C81 O78 1.258 . S
C81 O83 1.282 . S
O82 Cd74 2.277 1_556 S
O82 C75 1.276 . S
O83 Cd74 2.356 . S
O83 C81 1.282 . S
C84 O85 1.306 . S
C84 O87 1.160 . S
O85 C84 1.306 . S
O85 Cd86 2.228 . S
Cd86 O85 2.228 . S
Cd86 O90 2.273 . S
Cd86 O94 2.277 . S
O87 C84 1.160 . S
O87 Cd88 2.203 . S
Cd88 O87 2.203 . S
Cd88 O90 2.411 . S
Cd88 O91 2.333 . S
Cd88 O92 2.352 . S
Cd88 O96 2.277 . S
Cd88 O97 2.356 . S
C89 O94 1.209 . S
C89 O96 1.226 . S
O90 Cd86 2.273 . S
O90 Cd88 2.411 . S
O90 C93 1.320 . S
O91 Cd88 2.333 . S
O91 C93 1.214 . S
O92 Cd88 2.352 . S
O92 C95 1.258 . S
C93 O90 1.320 . S
C93 O91 1.214 . S
O94 Cd86 2.277 . S
O94 C89 1.209 . S
C95 O92 1.258 . S
C95 O97 1.282 . S
O96 Cd88 2.277 . S
O96 C89 1.226 . S
O97 Cd88 2.356 . S
O97 C95 1.282 . S
C98 O99 1.306 . S
C98 O101 1.160 . S
O99 C98 1.306 . S
O99 Cd100 2.228 1_545 S
Cd100 O99 2.228 1_565 S
Cd100 O104 2.273 . S
Cd100 O108 2.277 . S
O101 C98 1.160 . S
O101 Cd102 2.203 1_545 S
Cd102 O101 2.203 1_565 S
Cd102 O104 2.411 . S
Cd102 O105 2.333 . S
Cd102 O106 2.352 1_565 S
Cd102 O110 2.277 . S
Cd102 O111 2.356 . S
C103 O108 1.209 . S
C103 O110 1.226 . S
O104 Cd100 2.273 . S
O104 Cd102 2.411 . S
O104 C107 1.320 . S
O105 Cd102 2.333 . S
O105 C107 1.214 . S
O106 Cd102 2.352 1_545 S
O106 C109 1.258 1_545 S
C107 O104 1.320 . S
C107 O105 1.214 . S
O108 Cd100 2.277 . S
O108 C103 1.209 . S
C109 O106 1.258 1_565 S
C109 O111 1.282 . S
O110 Cd102 2.277 . S
O110 C103 1.226 . S
O111 Cd102 2.356 . S
O111 C109 1.282 . S
C112 O113 1.306 . S
C112 O115 1.160 . S
O113 C112 1.306 . S
O113 Cd114 2.228 1_655 S
Cd114 O113 2.228 1_455 S
Cd114 O118 2.273 . S
Cd114 O122 2.277 . S
O115 C112 1.160 . S
O115 Cd116 2.203 1_655 S
Cd116 O115 2.203 1_455 S
Cd116 O118 2.411 . S
Cd116 O119 2.333 . S
Cd116 O120 2.352 . S
Cd116 O124 2.277 . S
Cd116 O125 2.356 . S
C117 O122 1.209 . S
C117 O124 1.226 . S
O118 Cd114 2.273 . S
O118 Cd116 2.411 . S
O118 C121 1.320 . S
O119 Cd116 2.333 . S
O119 C121 1.214 . S
O120 Cd116 2.352 . S
O120 C123 1.258 . S
C121 O118 1.320 . S
C121 O119 1.214 . S
O122 Cd114 2.277 . S
O122 C117 1.209 . S
C123 O120 1.258 . S
C123 O125 1.282 . S
O124 Cd116 2.277 . S
O124 C117 1.226 . S
O125 Cd116 2.356 . S
O125 C123 1.282 . S
C126 O127 1.306 . S
C126 O129 1.160 . S
O127 C126 1.306 . S
O127 Cd128 2.228 . S
Cd128 O127 2.228 . S
Cd128 O132 2.273 . S
Cd128 O136 2.277 . S
O129 C126 1.160 . S
O129 Cd130 2.203 . S
Cd130 O129 2.203 . S
Cd130 O132 2.411 . S
Cd130 O133 2.333 . S
Cd130 O134 2.352 1_565 S
Cd130 O138 2.277 . S
Cd130 O139 2.356 1_565 S
C131 O136 1.209 . S
C131 O138 1.226 . S
O132 Cd128 2.273 . S
O132 Cd130 2.411 . S
O132 C135 1.320 . S
O133 Cd130 2.333 . S
O133 C135 1.214 . S
O134 Cd130 2.352 1_545 S
O134 C137 1.258 . S
C135 O132 1.320 . S
C135 O133 1.214 . S
O136 Cd128 2.277 . S
O136 C131 1.209 . S
C137 O134 1.258 . S
C137 O139 1.282 . S
O138 Cd130 2.277 . S
O138 C131 1.226 . S
O139 Cd130 2.356 1_545 S
O139 C137 1.282 . S
C140 O141 1.306 . S
C140 O143 1.160 . S
O141 C140 1.306 . S
O141 Cd142 2.228 1_655 S
Cd142 O141 2.228 1_455 S
Cd142 O146 2.273 . S
Cd142 O150 2.277 . S
O143 C140 1.160 . S
O143 Cd144 2.203 1_655 S
Cd144 O143 2.203 1_455 S
Cd144 O146 2.411 . S
Cd144 O147 2.333 . S
Cd144 O148 2.352 . S
Cd144 O152 2.277 . S
Cd144 O153 2.356 . S
C145 O150 1.209 . S
C145 O152 1.226 . S
O146 Cd142 2.273 . S
O146 Cd144 2.411 . S
O146 C149 1.320 . S
O147 Cd144 2.333 . S
O147 C149 1.214 . S
O148 Cd144 2.352 . S
O148 C151 1.258 . S
C149 O146 1.320 . S
C149 O147 1.214 . S
O150 Cd142 2.277 . S
O150 C145 1.209 . S
C151 O148 1.258 . S
C151 O153 1.282 . S
O152 Cd144 2.277 . S
O152 C145 1.226 . S
O153 Cd144 2.356 . S
O153 C151 1.282 . S
C154 O155 1.306 . S
C154 O157 1.160 . S
O155 C154 1.306 . S
O155 Cd156 2.228 . S
Cd156 O155 2.228 . S
Cd156 O160 2.273 . S
Cd156 O164 2.277 . S
O157 C154 1.160 . S
O157 Cd158 2.203 . S
Cd158 O157 2.203 . S
Cd158 O160 2.411 . S
Cd158 O161 2.333 . S
Cd158 O162 2.352 . S
Cd158 O166 2.277 . S
Cd158 O167 2.356 . S
C159 O164 1.209 . S
C159 O166 1.226 . S
O160 Cd156 2.273 . S
O160 Cd158 2.411 . S
O160 C163 1.320 . S
O161 Cd158 2.333 . S
O161 C163 1.214 . S
O162 Cd158 2.352 . S
O162 C165 1.258 . S
C163 O160 1.320 . S
C163 O161 1.214 . S
O164 Cd156 2.277 . S
O164 C159 1.209 . S
C165 O162 1.258 . S
C165 O167 1.282 . S
O166 Cd158 2.277 . S
O166 C159 1.226 . S
O167 Cd158 2.356 . S
O167 C165 1.282 . S
C168 O169 1.306 . S
C168 O171 1.160 . S
O169 C168 1.306 . S
O169 Cd170 2.228 1_565 S
Cd170 O169 2.228 1_545 S
Cd170 O174 2.273 . S
Cd170 O178 2.277 . S
O171 C168 1.160 . S
O171 Cd172 2.203 1_565 S
Cd172 O171 2.203 1_545 S
Cd172 O174 2.411 . S
Cd172 O175 2.333 . S
Cd172 O176 2.352 . S
Cd172 O180 2.277 . S
Cd172 O181 2.356 . S
C173 O178 1.209 . S
C173 O180 1.226 . S
O174 Cd170 2.273 . S
O174 Cd172 2.411 . S
O174 C177 1.320 . S
O175 Cd172 2.333 . S
O175 C177 1.214 . S
O176 Cd172 2.352 . S
O176 C179 1.258 . S
C177 O174 1.320 . S
C177 O175 1.214 . S
O178 Cd170 2.277 . S
O178 C173 1.209 . S
C179 O176 1.258 . S
C179 O181 1.282 . S
O180 Cd172 2.277 . S
O180 C173 1.226 . S
O181 Cd172 2.356 . S
O181 C179 1.282 . S
C182 O183 1.306 . S
C182 O185 1.136 1_655 S
O183 C182 1.306 . S
O183 Cd184 2.228 . S
Cd184 O183 2.228 . S
Cd184 O188 2.273 . S
Cd184 O192 2.277 . S
O185 C182 1.136 1_455 S
O185 Cd186 2.208 1_455 S
Cd186 O185 2.208 1_655 S
Cd186 O188 2.411 . S
Cd186 O189 2.333 . S
Cd186 O190 2.352 1_655 S
Cd186 O194 2.277 . S
Cd186 O195 2.356 1_655 S
C187 O192 1.209 . S
C187 O194 1.226 . S
O188 Cd184 2.273 . S
O188 Cd186 2.411 . S
O188 C191 1.320 . S
O189 Cd186 2.333 . S
O189 C191 1.214 . S
O190 Cd186 2.352 1_455 S
O190 C193 1.258 . S
C191 O188 1.320 . S
C191 O189 1.214 . S
O192 Cd184 2.277 . S
O192 C187 1.209 . S
C193 O190 1.258 . S
C193 O195 1.282 . S
O194 Cd186 2.277 . S
O194 C187 1.226 . S
O195 Cd186 2.356 1_455 S
O195 C193 1.282 . S
C196 O197 1.306 . S
C196 O199 1.160 . S
O197 C196 1.306 . S
O197 Cd198 2.228 . S
Cd198 O197 2.228 . S
Cd198 O202 2.273 . S
Cd198 O206 2.277 . S
O199 C196 1.160 . S
O199 Cd200 2.203 . S
Cd200 O199 2.203 . S
Cd200 O202 2.411 . S
Cd200 O203 2.333 . S
Cd200 O204 2.352 . S
Cd200 O208 2.277 . S
Cd200 O209 2.356 . S
C201 O206 1.209 . S
C201 O208 1.226 . S
O202 Cd198 2.273 . S
O202 Cd200 2.411 . S
O202 C205 1.320 . S
O203 Cd200 2.333 . S
O203 C205 1.214 . S
O204 Cd200 2.352 . S
O204 C207 1.258 . S
C205 O202 1.320 . S
C205 O203 1.214 . S
O206 Cd198 2.277 . S
O206 C201 1.209 . S
C207 O204 1.258 . S
C207 O209 1.282 . S
O208 Cd200 2.277 . S
O208 C201 1.226 . S
O209 Cd200 2.356 . S
O209 C207 1.282 . S
C210 O211 1.306 . S
C210 O213 1.160 . S
O211 C210 1.306 . S
O211 Cd212 2.228 . S
Cd212 O211 2.228 . S
Cd212 O216 2.273 . S
Cd212 O220 2.277 . S
O213 C210 1.160 . S
O213 Cd214 2.203 . S
Cd214 O213 2.203 . S
Cd214 O216 2.411 . S
Cd214 O217 2.333 . S
Cd214 O218 2.352 . S
Cd214 O222 2.277 . S
Cd214 O223 2.356 . S
C215 O220 1.209 . S
C215 O222 1.226 . S
O216 Cd212 2.273 . S
O216 Cd214 2.411 . S
O216 C219 1.320 . S
O217 Cd214 2.333 . S
O217 C219 1.214 . S
O218 Cd214 2.352 . S
O218 C221 1.258 . S
C219 O216 1.320 . S
C219 O217 1.214 . S
O220 Cd212 2.277 . S
O220 C215 1.209 . S
C221 O218 1.258 . S
C221 O223 1.282 . S
O222 Cd214 2.277 . S
O222 C215 1.226 . S
O223 Cd214 2.356 . S
O223 C221 1.282 . S
C224 O225 1.306 . S
C224 O227 1.160 . S
O225 C224 1.306 . S
O225 Cd226 2.228 . S
Cd226 O225 2.228 . S
Cd226 O230 2.273 . S
Cd226 O234 2.277 . S
O227 C224 1.160 . S
O227 Cd228 2.203 . S
Cd228 O227 2.203 . S
Cd228 O230 2.411 . S
Cd228 O231 2.333 . S
Cd228 O232 2.352 1_545 S
Cd228 O236 2.277 . S
Cd228 O237 2.356 1_545 S
C229 O234 1.209 . S
C229 O236 1.226 . S
O230 Cd226 2.273 . S
O230 Cd228 2.411 . S
O230 C233 1.320 . S
O231 Cd228 2.333 . S
O231 C233 1.214 . S
O232 Cd228 2.352 1_565 S
O232 C235 1.258 . S
C233 O230 1.320 . S
C233 O231 1.214 . S
O234 Cd226 2.277 . S
O234 C229 1.209 . S
C235 O232 1.258 . S
C235 O237 1.282 . S
O236 Cd228 2.277 . S
O236 C229 1.226 . S
O237 Cd228 2.356 1_565 S
O237 C235 1.282 . S
C238 O239 1.306 . S
C238 O241 1.160 . S
O239 C238 1.306 . S
O239 Cd240 2.228 1_455 S
Cd240 O239 2.228 1_655 S
Cd240 O244 2.273 . S
Cd240 O248 2.277 . S
O241 C238 1.160 . S
O241 Cd242 2.203 1_455 S
Cd242 O241 2.203 1_655 S
Cd242 O244 2.411 . S
Cd242 O245 2.333 . S
Cd242 O246 2.352 1_655 S
Cd242 O250 2.277 . S
Cd242 O251 2.356 . S
C243 O248 1.209 . S
C243 O250 1.226 . S
O244 Cd240 2.273 . S
O244 Cd242 2.411 . S
O244 C247 1.320 . S
O245 Cd242 2.333 . S
O245 C247 1.214 . S
O246 Cd242 2.352 1_455 S
O246 C249 1.258 1_455 S
C247 O244 1.320 . S
C247 O245 1.214 . S
O248 Cd240 2.277 . S
O248 C243 1.209 . S
C249 O246 1.258 1_655 S
C249 O251 1.282 . S
O250 Cd242 2.277 . S
O250 C243 1.226 . S
O251 Cd242 2.356 . S
O251 C249 1.282 . S
H252 C258 0.930 . S
H253 C261 0.931 . S
H254 C263 0.931 . S
H255 C265 0.930 . S
H256 C267 0.930 . S
H257 C269 0.931 . S
C258 H252 0.930 . S
C258 C259 1.380 . S
C258 C260 1.394 . S
C259 C258 1.380 . S
C259 C263 1.382 . S
C260 C258 1.394 . S
C260 C261 1.400 . S
C261 H253 0.931 . S
C261 C260 1.400 . S
C261 C262 1.375 . S
C262 C261 1.375 . S
C262 C263 1.415 . S
C262 C264 1.501 . S
C263 H254 0.931 . S
C263 C259 1.382 . S
C263 C262 1.415 . S
C264 C262 1.501 . S
C264 C265 1.384 . S
C264 C269 1.408 . S
C265 H255 0.930 . S
C265 C264 1.384 . S
C265 C266 1.389 . S
C266 C265 1.389 . S
C266 C267 1.405 . S
C267 H256 0.930 . S
C267 C266 1.405 . S
C267 C268 1.364 . S
C268 C267 1.364 . S
C268 C269 1.400 . S
C269 H257 0.931 . S
C269 C264 1.408 . S
C269 C268 1.400 . S
H270 C276 0.930 . S
H271 C279 0.931 . S
H272 C281 0.931 . S
H273 C283 0.930 . S
H274 C285 0.930 . S
H275 C287 0.931 . S
C276 H270 0.930 . S
C276 C277 1.380 . S
C276 C278 1.394 . S
C277 C276 1.380 . S
C277 C281 1.382 . S
C278 C276 1.394 . S
C278 C279 1.400 . S
C279 H271 0.931 . S
C279 C278 1.400 . S
C279 C280 1.375 . S
C280 C279 1.375 . S
C280 C281 1.415 . S
C280 C282 1.501 . S
C281 H272 0.931 . S
C281 C277 1.382 . S
C281 C280 1.415 . S
C282 C280 1.501 . S
C282 C283 1.384 . S
C282 C287 1.408 . S
C283 H273 0.930 . S
C283 C282 1.384 . S
C283 C284 1.389 . S
C284 C283 1.389 . S
C284 C285 1.405 . S
C285 H274 0.930 . S
C285 C284 1.405 . S
C285 C286 1.364 . S
C286 C285 1.364 . S
C286 C287 1.400 . S
C287 H275 0.931 . S
C287 C282 1.408 . S
C287 C286 1.400 . S
H288 C294 0.930 . S
H289 C297 0.931 . S
H290 C299 0.931 . S
H291 C301 0.930 . S
H292 C303 0.930 . S
H293 C305 0.931 . S
C294 H288 0.930 . S
C294 C295 1.380 . S
C294 C296 1.394 . S
C295 C294 1.380 . S
C295 C299 1.382 . S
C296 C294 1.394 . S
C296 C297 1.400 . S
C297 H289 0.931 . S
C297 C296 1.400 . S
C297 C298 1.375 . S
C298 C297 1.375 . S
C298 C299 1.415 . S
C298 C300 1.501 . S
C299 H290 0.931 . S
C299 C295 1.382 . S
C299 C298 1.415 . S
C300 C298 1.501 . S
C300 C301 1.384 . S
C300 C305 1.408 . S
C301 H291 0.930 . S
C301 C300 1.384 . S
C301 C302 1.389 . S
C302 C301 1.389 . S
C302 C303 1.405 . S
C303 H292 0.930 . S
C303 C302 1.405 . S
C303 C304 1.364 . S
C304 C303 1.364 . S
C304 C305 1.400 . S
C305 H293 0.931 . S
C305 C300 1.408 . S
C305 C304 1.400 . S
H306 C312 0.930 . S
H307 C315 0.931 . S
H308 C317 0.931 . S
H309 C319 0.930 . S
H310 C321 0.930 . S
H311 C323 0.931 . S
C312 H306 0.930 . S
C312 C313 1.380 . S
C312 C314 1.394 . S
C313 C312 1.380 . S
C313 C317 1.382 . S
C314 C312 1.394 . S
C314 C315 1.400 . S
C315 H307 0.931 . S
C315 C314 1.400 . S
C315 C316 1.375 . S
C316 C315 1.375 . S
C316 C317 1.415 . S
C316 C318 1.501 . S
C317 H308 0.931 . S
C317 C313 1.382 . S
C317 C316 1.415 . S
C318 C316 1.501 . S
C318 C319 1.384 . S
C318 C323 1.408 . S
C319 H309 0.930 . S
C319 C318 1.384 . S
C319 C320 1.389 . S
C320 C319 1.389 . S
C320 C321 1.405 . S
C321 H310 0.930 . S
C321 C320 1.405 . S
C321 C322 1.364 . S
C322 C321 1.364 . S
C322 C323 1.400 . S
C323 H311 0.931 . S
C323 C318 1.408 . S
C323 C322 1.400 . S
H324 C330 0.930 . S
H325 C333 0.931 . S
H326 C335 0.931 . S
H327 C337 0.930 . S
H328 C339 0.930 . S
H329 C341 0.931 . S
C330 H324 0.930 . S
C330 C331 1.380 . S
C330 C332 1.394 . S
C331 C330 1.380 . S
C331 C335 1.382 . S
C332 C330 1.394 . S
C332 C333 1.400 . S
C333 H325 0.931 . S
C333 C332 1.400 . S
C333 C334 1.375 . S
C334 C333 1.375 . S
C334 C335 1.415 . S
C334 C336 1.501 . S
C335 H326 0.931 . S
C335 C331 1.382 . S
C335 C334 1.415 . S
C336 C334 1.501 . S
C336 C337 1.384 . S
C336 C341 1.408 . S
C337 H327 0.930 . S
C337 C336 1.384 . S
C337 C338 1.389 . S
C338 C337 1.389 . S
C338 C339 1.405 . S
C339 H328 0.930 . S
C339 C338 1.405 . S
C339 C340 1.364 . S
C340 C339 1.364 . S
C340 C341 1.400 . S
C341 H329 0.931 . S
C341 C336 1.408 . S
C341 C340 1.400 . S
H342 C348 0.930 . S
H343 C351 0.931 . S
H344 C353 0.931 . S
H345 C355 0.930 . S
H346 C357 0.930 . S
H347 C359 0.931 . S
C348 H342 0.930 . S
C348 C349 1.380 . S
C348 C350 1.394 . S
C349 C348 1.380 . S
C349 C353 1.382 . S
C350 C348 1.394 . S
C350 C351 1.400 . S
C351 H343 0.931 . S
C351 C350 1.400 . S
C351 C352 1.375 . S
C352 C351 1.375 . S
C352 C353 1.415 . S
C352 C354 1.501 . S
C353 H344 0.931 . S
C353 C349 1.382 . S
C353 C352 1.415 . S
C354 C352 1.501 . S
C354 C355 1.384 . S
C354 C359 1.408 . S
C355 H345 0.930 . S
C355 C354 1.384 . S
C355 C356 1.389 . S
C356 C355 1.389 . S
C356 C357 1.405 . S
C357 H346 0.930 . S
C357 C356 1.405 . S
C357 C358 1.364 . S
C358 C357 1.364 . S
C358 C359 1.400 . S
C359 H347 0.931 . S
C359 C354 1.408 . S
C359 C358 1.400 . S
H360 C366 0.930 . S
H361 C369 0.931 . S
H362 C371 0.931 . S
H363 C373 0.930 . S
H364 C375 0.930 . S
H365 C377 0.931 . S
C366 H360 0.930 . S
C366 C367 1.380 . S
C366 C368 1.394 . S
C367 C366 1.380 . S
C367 C371 1.382 . S
C368 C366 1.394 . S
C368 C369 1.400 . S
C369 H361 0.931 . S
C369 C368 1.400 . S
C369 C370 1.375 . S
C370 C369 1.375 . S
C370 C371 1.415 . S
C370 C372 1.501 . S
C371 H362 0.931 . S
C371 C367 1.382 . S
C371 C370 1.415 . S
C372 C370 1.501 . S
C372 C373 1.384 . S
C372 C377 1.408 . S
C373 H363 0.930 . S
C373 C372 1.384 . S
C373 C374 1.389 . S
C374 C373 1.389 . S
C374 C375 1.405 . S
C375 H364 0.930 . S
C375 C374 1.405 . S
C375 C376 1.364 . S
C376 C375 1.364 . S
C376 C377 1.400 . S
C377 H365 0.931 . S
C377 C372 1.408 . S
C377 C376 1.400 . S
H378 C384 0.930 . S
H379 C387 0.931 . S
H380 C389 0.931 . S
H381 C391 0.930 . S
H382 C393 0.930 . S
H383 C395 0.931 . S
C384 H378 0.930 . S
C384 C385 1.380 . S
C384 C386 1.394 . S
C385 C384 1.380 . S
C385 C389 1.382 . S
C386 C384 1.394 . S
C386 C387 1.400 . S
C387 H379 0.931 . S
C387 C386 1.400 . S
C387 C388 1.375 . S
C388 C387 1.375 . S
C388 C389 1.415 . S
C388 C390 1.501 . S
C389 H380 0.931 . S
C389 C385 1.382 . S
C389 C388 1.415 . S
C390 C388 1.501 . S
C390 C391 1.384 . S
C390 C395 1.408 . S
C391 H381 0.930 . S
C391 C390 1.384 . S
C391 C392 1.389 . S
C392 C391 1.389 . S
C392 C393 1.405 . S
C393 H382 0.930 . S
C393 C392 1.405 . S
C393 C394 1.364 . S
C394 C393 1.364 . S
C394 C395 1.400 . S
C395 H383 0.931 . S
C395 C390 1.408 . S
C395 C394 1.400 . S
H396 C402 0.930 . S
H397 C405 0.931 . S
H398 C407 0.931 . S
H399 C409 0.930 . S
H400 C411 0.930 . S
H401 C413 0.931 . S
C402 H396 0.930 . S
C402 C403 1.380 . S
C402 C404 1.394 . S
C403 C402 1.380 . S
C403 C407 1.382 . S
C404 C402 1.394 . S
C404 C405 1.400 . S
C405 H397 0.931 . S
C405 C404 1.400 . S
C405 C406 1.375 . S
C406 C405 1.375 . S
C406 C407 1.415 . S
C406 C408 1.501 . S
C407 H398 0.931 . S
C407 C403 1.382 . S
C407 C406 1.415 . S
C408 C406 1.501 . S
C408 C409 1.384 . S
C408 C413 1.408 . S
C409 H399 0.930 . S
C409 C408 1.384 . S
C409 C410 1.389 . S
C410 C409 1.389 . S
C410 C411 1.405 . S
C411 H400 0.930 . S
C411 C410 1.405 . S
C411 C412 1.364 . S
C412 C411 1.364 . S
C412 C413 1.400 . S
C413 H401 0.931 . S
C413 C408 1.408 . S
C413 C412 1.400 . S
H414 C420 0.924 . S
H415 C423 0.931 . S
H416 C425 0.931 . S
H417 C427 0.930 . S
H418 C429 0.930 . S
H419 C431 0.939 1_655 S
C420 H414 0.924 . S
C420 C421 1.385 . S
C420 C422 1.395 1_655 S
C421 C420 1.385 . S
C421 C425 1.382 . S
C422 C420 1.395 1_455 S
C422 C423 1.400 . S
C423 H415 0.931 . S
C423 C422 1.400 . S
C423 C424 1.375 . S
C424 C423 1.375 . S
C424 C425 1.415 1_455 S
C424 C426 1.501 . S
C425 H416 0.931 . S
C425 C421 1.382 . S
C425 C424 1.415 1_655 S
C426 C424 1.501 . S
C426 C427 1.384 . S
C426 C431 1.420 . S
C427 H417 0.930 . S
C427 C426 1.384 . S
C427 C428 1.389 . S
C428 C427 1.389 . S
C428 C429 1.405 . S
C429 H418 0.930 . S
C429 C428 1.405 . S
C429 C430 1.360 . S
C430 C429 1.360 . S
C430 C431 1.391 . S
C431 H419 0.939 1_455 S
C431 C426 1.420 . S
C431 C430 1.391 . S
H432 C438 0.930 . S
H433 C441 0.931 . S
H434 C443 0.931 . S
H435 C445 0.930 . S
H436 C447 0.930 . S
H437 C449 0.931 . S
C438 H432 0.930 . S
C438 C439 1.380 . S
C438 C440 1.394 . S
C439 C438 1.380 . S
C439 C443 1.382 . S
C440 C438 1.394 . S
C440 C441 1.400 . S
C441 H433 0.931 . S
C441 C440 1.400 . S
C441 C442 1.375 . S
C442 C441 1.375 . S
C442 C443 1.415 . S
C442 C444 1.501 . S
C443 H434 0.931 . S
C443 C439 1.382 . S
C443 C442 1.415 . S
C444 C442 1.501 . S
C444 C445 1.384 . S
C444 C449 1.408 . S
C445 H435 0.930 . S
C445 C444 1.384 . S
C445 C446 1.389 . S
C446 C445 1.389 . S
C446 C447 1.405 . S
C447 H436 0.930 . S
C447 C446 1.405 . S
C447 C448 1.364 . S
C448 C447 1.364 . S
C448 C449 1.400 . S
C449 H437 0.931 . S
C449 C444 1.408 . S
C449 C448 1.400 . S
H450 C456 0.961 . S
H451 C459 0.931 . S
H452 C461 0.931 . S
H453 C463 0.930 . S
H454 C465 0.930 . S
H455 C467 0.916 . S
C456 H450 0.961 . S
C456 C457 1.373 . S
C456 C458 1.372 1_545 S
C457 C456 1.373 . S
C457 C461 1.382 . S
C458 C456 1.372 1_565 S
C458 C459 1.400 . S
C459 H451 0.931 . S
C459 C458 1.400 . S
C459 C460 1.375 . S
C460 C459 1.375 . S
C460 C461 1.415 1_565 S
C460 C462 1.501 . S
C461 H452 0.931 . S
C461 C457 1.382 . S
C461 C460 1.415 1_545 S
C462 C460 1.501 . S
C462 C463 1.384 . S
C462 C467 1.397 . S
C463 H453 0.930 . S
C463 C462 1.384 . S
C463 C464 1.389 . S
C464 C463 1.389 . S
C464 C465 1.405 . S
C465 H454 0.930 . S
C465 C464 1.405 . S
C465 C466 1.380 . S
C466 C465 1.380 . S
C466 C467 1.402 . S
C467 H455 0.916 . S
C467 C462 1.397 . S
C467 C466 1.402 . S
H468 C474 0.917 . S
H469 C477 0.931 . S
H470 C479 0.927 1_545 S
H471 C481 0.930 . S
H472 C483 0.930 . S
H473 C485 0.931 . S
C474 H468 0.917 . S
C474 C475 1.382 . S
C474 C476 1.400 1_545 S
C475 C474 1.382 . S
C475 C479 1.401 1_545 S
C476 C474 1.400 1_565 S
C476 C477 1.400 . S
C477 H469 0.931 . S
C477 C476 1.400 . S
C477 C478 1.375 . S
C478 C477 1.375 . S
C478 C479 1.412 . S
C478 C480 1.501 . S
C479 H470 0.927 1_565 S
C479 C475 1.401 1_565 S
C479 C478 1.412 . S
C480 C478 1.501 . S
C480 C481 1.384 . S
C480 C485 1.408 1_565 S
C481 H471 0.930 . S
C481 C480 1.384 . S
C481 C482 1.389 . S
C482 C481 1.389 . S
C482 C483 1.405 . S
C483 H472 0.930 . S
C483 C482 1.405 . S
C483 C484 1.364 1_565 S
C484 C483 1.364 1_545 S
C484 C485 1.400 . S
C485 H473 0.931 . S
C485 C480 1.408 1_545 S
C485 C484 1.400 . S
H486 C492 0.957 . S
H487 C495 0.931 . S
H488 C497 0.935 1_655 S
H489 C499 0.930 . S
H490 C501 0.930 . S
H491 C503 0.931 . S
C492 H486 0.957 . S
C492 C493 1.379 . S
C492 C494 1.365 1_655 S
C493 C492 1.379 . S
C493 C497 1.359 1_655 S
C494 C492 1.365 1_455 S
C494 C495 1.435 . S
C495 H487 0.931 . S
C495 C494 1.435 . S
C495 C496 1.375 . S
C496 C495 1.375 . S
C496 C497 1.416 . S
C496 C498 1.501 . S
C497 H488 0.935 1_455 S
C497 C493 1.359 1_455 S
C497 C496 1.416 . S
C498 C496 1.501 . S
C498 C499 1.384 . S
C498 C503 1.408 1_455 S
C499 H489 0.930 . S
C499 C498 1.384 . S
C499 C500 1.389 . S
C500 C499 1.389 . S
C500 C501 1.405 . S
C501 H490 0.930 . S
C501 C500 1.405 . S
C501 C502 1.364 1_455 S
C502 C501 1.364 1_655 S
C502 C503 1.400 . S
C503 H491 0.931 . S
C503 C498 1.408 1_655 S
C503 C502 1.400 . S
H504 C510 0.930 . S
H505 C513 0.931 . S
H506 C515 0.931 . S
H507 C517 0.930 . S
H508 C519 0.930 . S
H509 C521 0.931 . S
C510 H504 0.930 . S
C510 C511 1.380 . S
C510 C512 1.394 . S
C511 C510 1.380 . S
C511 C515 1.382 . S
C512 C510 1.394 . S
C512 C513 1.400 . S
C513 H505 0.931 . S
C513 C512 1.400 . S
C513 C514 1.375 . S
C514 C513 1.375 . S
C514 C515 1.415 . S
C514 C516 1.501 . S
C515 H506 0.931 . S
C515 C511 1.382 . S
C515 C514 1.415 . S
C516 C514 1.501 . S
C516 C517 1.384 . S
C516 C521 1.408 . S
C517 H507 0.930 . S
C517 C516 1.384 . S
C517 C518 1.389 . S
C518 C517 1.389 . S
C518 C519 1.405 . S
C519 H508 0.930 . S
C519 C518 1.405 . S
C519 C520 1.364 . S
C520 C519 1.364 . S
C520 C521 1.400 . S
C521 H509 0.931 . S
C521 C516 1.408 . S
C521 C520 1.400 . S
H522 C528 0.930 . S
H523 C531 0.931 . S
H524 C533 0.931 . S
H525 C535 0.930 . S
H526 C537 0.930 . S
H527 C539 0.931 . S
C528 H522 0.930 . S
C528 C529 1.380 . S
C528 C530 1.394 . S
C529 C528 1.380 . S
C529 C533 1.382 . S
C530 C528 1.394 . S
C530 C531 1.400 . S
C531 H523 0.931 . S
C531 C530 1.400 . S
C531 C532 1.375 . S
C532 C531 1.375 . S
C532 C533 1.415 . S
C532 C534 1.501 . S
C533 H524 0.931 . S
C533 C529 1.382 . S
C533 C532 1.415 . S
C534 C532 1.501 . S
C534 C535 1.384 . S
C534 C539 1.408 . S
C535 H525 0.930 . S
C535 C534 1.384 . S
C535 C536 1.389 . S
C536 C535 1.389 . S
C536 C537 1.405 . S
C537 H526 0.930 . S
C537 C536 1.405 . S
C537 C538 1.364 . S
C538 C537 1.364 . S
C538 C539 1.400 . S
C539 H527 0.931 . S
C539 C534 1.408 . S
C539 C538 1.400 . S
H540 C546 0.930 . S
H541 C549 0.931 . S
H542 C551 0.931 . S
H543 C553 0.930 . S
H544 C555 0.930 . S
H545 C557 0.931 . S
C546 H540 0.930 . S
C546 C547 1.380 . S
C546 C548 1.394 . S
C547 C546 1.380 . S
C547 C551 1.382 . S
C548 C546 1.394 . S
C548 C549 1.400 . S
C549 H541 0.931 . S
C549 C548 1.400 . S
C549 C550 1.375 . S
C550 C549 1.375 . S
C550 C551 1.415 . S
C550 C552 1.501 . S
C551 H542 0.931 . S
C551 C547 1.382 . S
C551 C550 1.415 . S
C552 C550 1.501 . S
C552 C553 1.384 . S
C552 C557 1.408 . S
C553 H543 0.930 . S
C553 C552 1.384 . S
C553 C554 1.389 . S
C554 C553 1.389 . S
C554 C555 1.405 . S
C555 H544 0.930 . S
C555 C554 1.405 . S
C555 C556 1.364 . S
C556 C555 1.364 . S
C556 C557 1.400 . S
C557 H545 0.931 . S
C557 C552 1.408 . S
C557 C556 1.400 . S
H558 C564 0.930 . S
H559 C567 0.931 . S
H560 C569 0.931 . S
H561 C571 0.930 . S
H562 C573 0.930 . S
H563 C575 0.931 . S
C564 H558 0.930 . S
C564 C565 1.380 . S
C564 C566 1.394 . S
C565 C564 1.380 . S
C565 C569 1.382 . S
C566 C564 1.394 . S
C566 C567 1.400 . S
C567 H559 0.931 . S
C567 C566 1.400 . S
C567 C568 1.375 . S
C568 C567 1.375 . S
C568 C569 1.415 . S
C568 C570 1.501 . S
C569 H560 0.931 . S
C569 C565 1.382 . S
C569 C568 1.415 . S
C570 C568 1.501 . S
C570 C571 1.384 . S
C570 C575 1.408 . S
C571 H561 0.930 . S
C571 C570 1.384 . S
C571 C572 1.389 . S
C572 C571 1.389 . S
C572 C573 1.405 . S
C573 H562 0.930 . S
C573 C572 1.405 . S
C573 C574 1.364 . S
C574 C573 1.364 . S
C574 C575 1.400 . S
C575 H563 0.931 . S
C575 C570 1.408 . S
C575 C574 1.400 . S
H576 C582 0.930 . S
H577 C585 0.930 . S
H578 C586 0.930 . S
H579 C587 0.930 . S
H580 C590 0.930 . S
H581 C591 0.930 . S
C582 H576 0.930 . S
C582 C583 1.393 . S
C582 C584 1.415 . S
C583 C582 1.393 . S
C583 C585 1.396 1_655 S
C584 C582 1.415 . S
C584 C589 1.425 1_655 S
C584 C591 1.409 . S
C585 H577 0.930 . S
C585 C583 1.396 1_455 S
C585 C586 1.362 . S
C586 H578 0.930 . S
C586 C585 1.362 . S
C586 C589 1.409 . S
C587 H579 0.930 . S
C587 C588 1.355 1_455 S
C587 C589 1.415 . S
C588 C587 1.355 1_655 S
C588 C590 1.419 . S
C589 C584 1.425 1_455 S
C589 C586 1.409 . S
C589 C587 1.415 . S
C590 H580 0.930 . S
C590 C588 1.419 . S
C590 C591 1.362 . S
C591 H581 0.930 . S
C591 C584 1.409 . S
C591 C590 1.362 . S
H592 C598 0.930 . S
H593 C601 0.930 . S
H594 C602 0.930 . S
H595 C603 0.930 . S
H596 C606 0.930 . S
H597 C607 0.930 . S
C598 H592 0.930 . S
C598 C599 1.355 . S
C598 C600 1.415 . S
C599 C598 1.355 . S
C599 C601 1.419 . S
C600 C598 1.415 . S
C600 C605 1.425 . S
C600 C607 1.409 . S
C601 H593 0.930 . S
C601 C599 1.419 . S
C601 C602 1.362 . S
C602 H594 0.930 . S
C602 C601 1.362 . S
C602 C605 1.409 . S
C603 H595 0.930 . S
C603 C604 1.355 . S
C603 C605 1.415 . S
C604 C603 1.355 . S
C604 C606 1.419 . S
C605 C600 1.425 . S
C605 C602 1.409 . S
C605 C603 1.415 . S
C606 H596 0.930 . S
C606 C604 1.419 . S
C606 C607 1.362 . S
C607 H597 0.930 . S
C607 C600 1.409 . S
C607 C606 1.362 . S
H608 C614 0.930 . S
H609 C617 0.930 . S
H610 C618 0.930 . S
H611 C619 0.930 . S
H612 C622 0.930 . S
H613 C623 0.930 . S
C614 H608 0.930 . S
C614 C615 1.355 . S
C614 C616 1.415 . S
C615 C614 1.355 . S
C615 C617 1.419 1_545 S
C616 C614 1.415 . S
C616 C621 1.425 1_545 S
C616 C623 1.409 . S
C617 H609 0.930 . S
C617 C615 1.419 1_565 S
C617 C618 1.362 . S
C618 H610 0.930 . S
C618 C617 1.362 . S
C618 C621 1.409 . S
C619 H611 0.930 . S
C619 C620 1.355 1_565 S
C619 C621 1.415 . S
C620 C619 1.355 1_545 S
C620 C622 1.419 . S
C621 C616 1.425 1_565 S
C621 C618 1.409 . S
C621 C619 1.415 . S
C622 H612 0.930 . S
C622 C620 1.419 . S
C622 C623 1.362 . S
C623 H613 0.930 . S
C623 C616 1.409 . S
C623 C622 1.362 . S
H624 C630 0.930 . S
H625 C633 0.930 . S
H626 C634 0.930 . S
H627 C635 0.930 . S
H628 C638 0.930 . S
H629 C639 0.930 . S
C630 H624 0.930 . S
C630 C631 1.333 1_565 S
C630 C632 1.415 . S
C631 C630 1.333 1_545 S
C631 C633 1.434 . S
C632 C630 1.415 . S
C632 C637 1.425 1_565 S
C632 C639 1.409 . S
C633 H625 0.930 . S
C633 C631 1.434 . S
C633 C634 1.362 . S
C634 H626 0.930 . S
C634 C633 1.362 . S
C634 C637 1.409 . S
C635 H627 0.930 . S
C635 C636 1.355 1_545 S
C635 C637 1.415 . S
C636 C635 1.355 1_565 S
C636 C638 1.419 . S
C637 C632 1.425 1_545 S
C637 C634 1.409 . S
C637 C635 1.415 . S
C638 H628 0.930 . S
C638 C636 1.419 . S
C638 C639 1.362 . S
C639 H629 0.930 . S
C639 C632 1.409 . S
C639 C638 1.362 . S
H640 C646 0.930 . S
H641 C649 0.930 . S
H642 C650 0.930 . S
H643 C651 0.930 . S
H644 C654 0.930 . S
H645 C655 0.930 . S
C646 H640 0.930 . S
C646 C647 1.355 . S
C646 C648 1.415 . S
C647 C646 1.355 . S
C647 C649 1.419 1_455 S
C648 C646 1.415 . S
C648 C653 1.425 1_455 S
C648 C655 1.409 . S
C649 H641 0.930 . S
C649 C647 1.419 1_655 S
C649 C650 1.362 . S
C650 H642 0.930 . S
C650 C649 1.362 . S
C650 C653 1.409 . S
C651 H643 0.930 . S
C651 C652 1.355 1_655 S
C651 C653 1.415 . S
C652 C651 1.355 1_455 S
C652 C654 1.419 . S
C653 C648 1.425 1_655 S
C653 C650 1.409 . S
C653 C651 1.415 . S
C654 H644 0.930 . S
C654 C652 1.419 . S
C654 C655 1.362 . S
C655 H645 0.930 . S
C655 C648 1.409 . S
C655 C654 1.362 . S
H656 C662 0.930 . S
H657 C665 0.930 . S
H658 C666 0.930 . S
H659 C667 0.930 . S
H660 C670 0.930 . S
H661 C671 0.930 . S
C662 H656 0.930 . S
C662 C663 1.355 . S
C662 C664 1.415 . S
C663 C662 1.355 . S
C663 C665 1.419 . S
C664 C662 1.415 . S
C664 C669 1.425 . S
C664 C671 1.409 . S
C665 H657 0.930 . S
C665 C663 1.419 . S
C665 C666 1.362 . S
C666 H658 0.930 . S
C666 C665 1.362 . S
C666 C669 1.409 . S
C667 H659 0.930 . S
C667 C668 1.355 . S
C667 C669 1.415 . S
C668 C667 1.355 . S
C668 C670 1.419 . S
C669 C664 1.425 . S
C669 C666 1.409 . S
C669 C667 1.415 . S
C670 H660 0.930 . S
C670 C668 1.419 . S
C670 C671 1.362 . S
C671 H661 0.930 . S
C671 C664 1.409 . S
C671 C670 1.362 . S
H672 C678 0.930 . S
H673 C681 0.930 . S
H674 C682 0.930 . S
H675 C683 0.930 . S
H676 C686 0.930 . S
H677 C687 0.930 . S
C678 H672 0.930 . S
C678 C679 1.355 1_655 S
C678 C680 1.415 . S
C679 C678 1.355 1_455 S
C679 C681 1.419 . S
C680 C678 1.415 . S
C680 C685 1.425 1_655 S
C680 C687 1.409 . S
C681 H673 0.930 . S
C681 C679 1.419 . S
C681 C682 1.362 . S
C682 H674 0.930 . S
C682 C681 1.362 . S
C682 C685 1.409 . S
C683 H675 0.930 . S
C683 C684 1.355 1_455 S
C683 C685 1.415 . S
C684 C683 1.355 1_655 S
C684 C686 1.419 . S
C685 C680 1.425 1_455 S
C685 C682 1.409 . S
C685 C683 1.415 . S
C686 H676 0.930 . S
C686 C684 1.419 . S
C686 C687 1.362 . S
C687 H677 0.930 . S
C687 C680 1.409 . S
C687 C686 1.362 . S
H688 C694 0.930 . S
H689 C697 0.930 . S
H690 C698 0.930 . S
H691 C699 0.930 . S
H692 C702 0.930 . S
H693 C703 0.930 . S
C694 H688 0.930 . S
C694 C695 1.355 . S
C694 C696 1.415 . S
C695 C694 1.355 . S
C695 C697 1.419 . S
C696 C694 1.415 . S
C696 C701 1.425 . S
C696 C703 1.409 . S
C697 H689 0.930 . S
C697 C695 1.419 . S
C697 C698 1.362 . S
C698 H690 0.930 . S
C698 C697 1.362 . S
C698 C701 1.409 . S
C699 H691 0.930 . S
C699 C700 1.355 . S
C699 C701 1.415 . S
C700 C699 1.355 . S
C700 C702 1.419 . S
C701 C696 1.425 . S
C701 C698 1.409 . S
C701 C699 1.415 . S
C702 H692 0.930 . S
C702 C700 1.419 . S
C702 C703 1.362 . S
C703 H693 0.930 . S
C703 C696 1.409 . S
C703 C702 1.362 . S
H704 C710 0.930 . S
H705 C713 0.930 . S
H706 C714 0.930 . S
H707 C715 0.930 . S
H708 C718 0.930 . S
H709 C719 0.930 . S
C710 H704 0.930 . S
C710 C711 1.355 1_545 S
C710 C712 1.415 . S
C711 C710 1.355 1_565 S
C711 C713 1.419 . S
C712 C710 1.415 . S
C712 C717 1.425 1_545 S
C712 C719 1.409 . S
C713 H705 0.930 . S
C713 C711 1.419 . S
C713 C714 1.362 . S
C714 H706 0.930 . S
C714 C713 1.362 . S
C714 C717 1.409 . S
C715 H707 0.930 . S
C715 C716 1.355 1_565 S
C715 C717 1.415 . S
C716 C715 1.355 1_545 S
C716 C718 1.419 . S
C717 C712 1.425 1_565 S
C717 C714 1.409 . S
C717 C715 1.415 . S
C718 H708 0.930 . S
C718 C716 1.419 . S
C718 C719 1.362 . S
C719 H709 0.930 . S
C719 C712 1.409 . S
C719 C718 1.362 . S
H720 C726 0.930 . S
H721 C729 0.930 . S
H722 C730 0.930 . S
H723 C731 0.930 . S
H724 C734 0.930 . S
H725 C735 0.930 . S
C726 H720 0.930 . S
C726 C727 1.355 1_565 S
C726 C728 1.415 . S
C727 C726 1.355 1_545 S
C727 C729 1.419 . S
C728 C726 1.415 . S
C728 C733 1.425 1_565 S
C728 C735 1.409 . S
C729 H721 0.930 . S
C729 C727 1.419 . S
C729 C730 1.362 . S
C730 H722 0.930 . S
C730 C729 1.362 . S
C730 C733 1.409 . S
C731 H723 0.930 . S
C731 C732 1.349 1_545 S
C731 C733 1.415 . S
C732 C731 1.349 1_565 S
C732 C734 1.436 . S
C733 C728 1.425 1_545 S
C733 C730 1.409 . S
C733 C731 1.415 . S
C734 H724 0.930 . S
C734 C732 1.436 . S
C734 C735 1.362 . S
C735 H725 0.930 . S
C735 C728 1.409 . S
C735 C734 1.362 . S
H736 C742 0.930 . S
H737 C745 0.930 . S
H738 C746 0.930 . S
H739 C747 0.930 . S
H740 C750 0.930 . S
H741 C751 0.930 . S
C742 H736 0.930 . S
C742 C743 1.359 . S
C742 C744 1.415 . S
C743 C742 1.359 . S
C743 C745 1.392 1_655 S
C744 C742 1.415 . S
C744 C749 1.425 1_655 S
C744 C751 1.409 . S
C745 H737 0.930 . S
C745 C743 1.392 1_455 S
C745 C746 1.362 . S
C746 H738 0.930 . S
C746 C745 1.362 . S
C746 C749 1.409 . S
C747 H739 0.930 . S
C747 C748 1.351 1_455 S
C747 C749 1.415 . S
C748 C747 1.351 1_655 S
C748 C750 1.454 . S
C749 C744 1.425 1_455 S
C749 C746 1.409 . S
C749 C747 1.415 . S
C750 H740 0.930 . S
C750 C748 1.454 . S
C750 C751 1.362 . S
C751 H741 0.930 . S
C751 C744 1.409 . S
C751 C750 1.362 . S
H752 C758 0.930 . S
H753 C761 0.930 . S
H754 C762 0.930 . S
H755 C763 0.930 . S
H756 C766 0.930 . S
H757 C767 0.930 . S
C758 H752 0.930 . S
C758 C759 1.355 . S
C758 C760 1.415 . S
C759 C758 1.355 . S
C759 C761 1.419 . S
C760 C758 1.415 . S
C760 C765 1.425 . S
C760 C767 1.409 . S
C761 H753 0.930 . S
C761 C759 1.419 . S
C761 C762 1.362 . S
C762 H754 0.930 . S
C762 C761 1.362 . S
C762 C765 1.409 . S
C763 H755 0.930 . S
C763 C764 1.355 . S
C763 C765 1.415 . S
C764 C763 1.355 . S
C764 C766 1.419 . S
C765 C760 1.425 . S
C765 C762 1.409 . S
C765 C763 1.415 . S
C766 H756 0.930 . S
C766 C764 1.419 . S
C766 C767 1.362 . S
C767 H757 0.930 . S
C767 C760 1.409 . S
C767 C766 1.362 . S
H768 C774 0.930 . S
H769 C777 0.930 . S
H770 C778 0.930 . S
H771 C779 0.930 . S
H772 C782 0.930 . S
H773 C783 0.930 . S
C774 H768 0.930 . S
C774 C775 1.355 . S
C774 C776 1.415 . S
C775 C774 1.355 . S
C775 C777 1.419 . S
C776 C774 1.415 . S
C776 C781 1.425 . S
C776 C783 1.409 . S
C777 H769 0.930 . S
C777 C775 1.419 . S
C777 C778 1.362 . S
C778 H770 0.930 . S
C778 C777 1.362 . S
C778 C781 1.409 . S
C779 H771 0.930 . S
C779 C780 1.355 . S
C779 C781 1.415 . S
C780 C779 1.355 . S
C780 C782 1.419 . S
C781 C776 1.425 . S
C781 C778 1.409 . S
C781 C779 1.415 . S
C782 H772 0.930 . S
C782 C780 1.419 . S
C782 C783 1.362 . S
C783 H773 0.930 . S
C783 C776 1.409 . S
C783 C782 1.362 . S
H784 C790 0.930 . S
H785 C793 0.930 . S
H786 C794 0.930 . S
H787 C795 0.930 . S
H788 C798 0.930 . S
H789 C799 0.930 . S
C790 H784 0.930 . S
C790 C791 1.355 . S
C790 C792 1.415 . S
C791 C790 1.355 . S
C791 C793 1.419 . S
C792 C790 1.415 . S
C792 C797 1.425 . S
C792 C799 1.409 . S
C793 H785 0.930 . S
C793 C791 1.419 . S
C793 C794 1.362 . S
C794 H786 0.930 . S
C794 C793 1.362 . S
C794 C797 1.409 . S
C795 H787 0.930 . S
C795 C796 1.355 . S
C795 C797 1.415 . S
C796 C795 1.355 . S
C796 C798 1.419 . S
C797 C792 1.425 . S
C797 C794 1.409 . S
C797 C795 1.415 . S
C798 H788 0.930 . S
C798 C796 1.419 . S
C798 C799 1.362 . S
C799 H789 0.930 . S
C799 C792 1.409 . S
C799 C798 1.362 . S
H800 C806 0.930 . S
H801 C809 0.930 . S
H802 C810 0.930 . S
H803 C811 0.930 . S
H804 C814 0.930 . S
H805 C815 0.930 . S
C806 H800 0.930 . S
C806 C807 1.355 . S
C806 C808 1.415 . S
C807 C806 1.355 . S
C807 C809 1.419 . S
C808 C806 1.415 . S
C808 C813 1.425 . S
C808 C815 1.409 . S
C809 H801 0.930 . S
C809 C807 1.419 . S
C809 C810 1.362 . S
C810 H802 0.930 . S
C810 C809 1.362 . S
C810 C813 1.409 . S
C811 H803 0.930 . S
C811 C812 1.355 . S
C811 C813 1.415 . S
C812 C811 1.355 . S
C812 C814 1.419 . S
C813 C808 1.425 . S
C813 C810 1.409 . S
C813 C811 1.415 . S
C814 H804 0.930 . S
C814 C812 1.419 . S
C814 C815 1.362 . S
C815 H805 0.930 . S
C815 C808 1.409 . S
C815 C814 1.362 . S
H816 C822 0.930 . S
H817 C825 0.930 . S
H818 C826 0.930 . S
H819 C827 0.930 . S
H820 C830 0.930 . S
H821 C831 0.930 . S
C822 H816 0.930 . S
C822 C823 1.355 . S
C822 C824 1.415 . S
C823 C822 1.355 . S
C823 C825 1.419 . S
C824 C822 1.415 . S
C824 C829 1.425 . S
C824 C831 1.409 . S
C825 H817 0.930 . S
C825 C823 1.419 . S
C825 C826 1.362 . S
C826 H818 0.930 . S
C826 C825 1.362 . S
C826 C829 1.409 . S
C827 H819 0.930 . S
C827 C828 1.355 . S
C827 C829 1.415 . S
C828 C827 1.355 . S
C828 C830 1.419 . S
C829 C824 1.425 . S
C829 C826 1.409 . S
C829 C827 1.415 . S
C830 H820 0.930 . S
C830 C828 1.419 . S
C830 C831 1.362 . S
C831 H821 0.930 . S
C831 C824 1.409 . S
C831 C830 1.362 . S
H832 C838 0.930 . S
H833 C841 0.930 . S
H834 C842 0.930 . S
H835 C843 0.930 . S
H836 C846 0.930 . S
H837 C847 0.930 . S
C838 H832 0.930 . S
C838 C839 1.355 . S
C838 C840 1.415 . S
C839 C838 1.355 . S
C839 C841 1.419 . S
C840 C838 1.415 . S
C840 C845 1.425 . S
C840 C847 1.409 . S
C841 H833 0.930 . S
C841 C839 1.419 . S
C841 C842 1.362 . S
C842 H834 0.930 . S
C842 C841 1.362 . S
C842 C845 1.409 . S
C843 H835 0.930 . S
C843 C844 1.355 . S
C843 C845 1.415 . S
C844 C843 1.355 . S
C844 C846 1.419 . S
C845 C840 1.425 . S
C845 C842 1.409 . S
C845 C843 1.415 . S
C846 H836 0.930 . S
C846 C844 1.419 . S
C846 C847 1.362 . S
C847 H837 0.930 . S
C847 C840 1.409 . S
C847 C846 1.362 . S
H848 C854 0.930 . S
H849 C857 0.930 . S
H850 C858 0.930 . S
H851 C859 0.930 . S
H852 C862 0.930 . S
H853 C863 0.930 . S
C854 H848 0.930 . S
C854 C855 1.355 . S
C854 C856 1.415 . S
C855 C854 1.355 . S
C855 C857 1.419 . S
C856 C854 1.415 . S
C856 C861 1.425 . S
C856 C863 1.409 . S
C857 H849 0.930 . S
C857 C855 1.419 . S
C857 C858 1.362 . S
C858 H850 0.930 . S
C858 C857 1.362 . S
C858 C861 1.409 . S
C859 H851 0.930 . S
C859 C860 1.355 . S
C859 C861 1.415 . S
C860 C859 1.355 . S
C860 C862 1.419 . S
C861 C856 1.425 . S
C861 C858 1.409 . S
C861 C859 1.415 . S
C862 H852 0.930 . S
C862 C860 1.419 . S
C862 C863 1.362 . S
C863 H853 0.930 . S
C863 C856 1.409 . S
C863 C862 1.362 . S
H864 C870 0.930 . S
H865 C873 0.930 . S
H866 C874 0.930 . S
H867 C875 0.930 . S
H868 C878 0.930 . S
H869 C879 0.930 . S
C870 H864 0.930 . S
C870 C871 1.355 . S
C870 C872 1.415 . S
C871 C870 1.355 . S
C871 C873 1.419 . S
C872 C870 1.415 . S
C872 C877 1.425 . S
C872 C879 1.409 . S
C873 H865 0.930 . S
C873 C871 1.419 . S
C873 C874 1.362 . S
C874 H866 0.930 . S
C874 C873 1.362 . S
C874 C877 1.409 . S
C875 H867 0.930 . S
C875 C876 1.355 . S
C875 C877 1.415 . S
C876 C875 1.355 . S
C876 C878 1.419 . S
C877 C872 1.425 . S
C877 C874 1.409 . S
C877 C875 1.415 . S
C878 H868 0.930 . S
C878 C876 1.419 . S
C878 C879 1.362 . S
C879 H869 0.930 . S
C879 C872 1.409 . S
C879 C878 1.362 . S
H880 C886 0.930 . S
H881 C889 0.930 . S
H882 C890 0.930 . S
H883 C891 0.930 . S
H884 C894 0.930 . S
H885 C895 0.930 . S
C886 H880 0.930 . S
C886 C887 1.355 . S
C886 C888 1.415 . S
C887 C886 1.355 . S
C887 C889 1.419 . S
C888 C886 1.415 . S
C888 C893 1.425 . S
C888 C895 1.409 . S
C889 H881 0.930 . S
C889 C887 1.419 . S
C889 C890 1.362 . S
C890 H882 0.930 . S
C890 C889 1.362 . S
C890 C893 1.409 . S
C891 H883 0.930 . S
C891 C892 1.355 . S
C891 C893 1.415 . S
C892 C891 1.355 . S
C892 C894 1.419 . S
C893 C888 1.425 . S
C893 C890 1.409 . S
C893 C891 1.415 . S
C894 H884 0.930 . S
C894 C892 1.419 . S
C894 C895 1.362 . S
C895 H885 0.930 . S
C895 C888 1.409 . S
C895 C894 1.362 . S
H896 C902 0.930 . S
H897 C905 0.930 . S
H898 C906 0.930 . S
H899 C907 0.930 . S
H900 C910 0.930 . S
H901 C911 0.930 . S
C902 H896 0.930 . S
C902 C903 1.355 . S
C902 C904 1.415 . S
C903 C902 1.355 . S
C903 C905 1.419 . S
C904 C902 1.415 . S
C904 C909 1.425 . S
C904 C911 1.409 . S
C905 H897 0.930 . S
C905 C903 1.419 . S
C905 C906 1.362 . S
C906 H898 0.930 . S
C906 C905 1.362 . S
C906 C909 1.409 . S
C907 H899 0.930 . S
C907 C908 1.355 . S
C907 C909 1.415 . S
C908 C907 1.355 . S
C908 C910 1.419 . S
C909 C904 1.425 . S
C909 C906 1.409 . S
C909 C907 1.415 . S
C910 H900 0.930 . S
C910 C908 1.419 . S
C910 C911 1.362 . S
C911 H901 0.930 . S
C911 C904 1.409 . S
C911 C910 1.362 . S
H912 C918 0.930 . S
H913 C921 0.930 . S
H914 C922 0.930 . S
H915 C923 0.930 . S
H916 C926 0.930 . S
H917 C927 0.930 . S
C918 H912 0.930 . S
C918 C919 1.355 . S
C918 C920 1.415 . S
C919 C918 1.355 . S
C919 C921 1.419 . S
C920 C918 1.415 . S
C920 C925 1.425 . S
C920 C927 1.409 . S
C921 H913 0.930 . S
C921 C919 1.419 . S
C921 C922 1.362 . S
C922 H914 0.930 . S
C922 C921 1.362 . S
C922 C925 1.409 . S
C923 H915 0.930 . S
C923 C924 1.355 . S
C923 C925 1.415 . S
C924 C923 1.355 . S
C924 C926 1.419 . S
C925 C920 1.425 . S
C925 C922 1.409 . S
C925 C923 1.415 . S
C926 H916 0.930 . S
C926 C924 1.419 . S
C926 C927 1.362 . S
C927 H917 0.930 . S
C927 C920 1.409 . S
C927 C926 1.362 . S
H928 C934 0.930 . S
H929 C937 0.930 . S
H930 C938 0.930 . S
H931 C939 0.930 . S
H932 C942 0.930 . S
H933 C943 0.930 . S
C934 H928 0.930 . S
C934 C935 1.355 . S
C934 C936 1.415 . S
C935 C934 1.355 . S
C935 C937 1.419 . S
C936 C934 1.415 . S
C936 C941 1.425 . S
C936 C943 1.409 . S
C937 H929 0.930 . S
C937 C935 1.419 . S
C937 C938 1.362 . S
C938 H930 0.930 . S
C938 C937 1.362 . S
C938 C941 1.409 . S
C939 H931 0.930 . S
C939 C940 1.355 . S
C939 C941 1.415 . S
C940 C939 1.355 . S
C940 C942 1.419 . S
C941 C936 1.425 . S
C941 C938 1.409 . S
C941 C939 1.415 . S
C942 H932 0.930 . S
C942 C940 1.419 . S
C942 C943 1.362 . S
C943 H933 0.930 . S
C943 C936 1.409 . S
C943 C942 1.362 . S
H944 C950 0.930 . S
H945 C953 0.930 . S
H946 C954 0.930 . S
H947 C955 0.930 . S
H948 C958 0.930 . S
H949 C959 0.930 . S
C950 H944 0.930 . S
C950 C951 1.355 . S
C950 C952 1.415 . S
C951 C950 1.355 . S
C951 C953 1.419 . S
C952 C950 1.415 . S
C952 C957 1.425 . S
C952 C959 1.409 . S
C953 H945 0.930 . S
C953 C951 1.419 . S
C953 C954 1.362 . S
C954 H946 0.930 . S
C954 C953 1.362 . S
C954 C957 1.409 . S
C955 H947 0.930 . S
C955 C956 1.355 . S
C955 C957 1.415 . S
C956 C955 1.355 . S
C956 C958 1.419 . S
C957 C952 1.425 . S
C957 C954 1.409 . S
C957 C955 1.415 . S
C958 H948 0.930 . S
C958 C956 1.419 . S
C958 C959 1.362 . S
C959 H949 0.930 . S
C959 C952 1.409 . S
C959 C958 1.362 . S
H960 C966 0.930 . S
H961 C969 0.930 . S
H962 C970 0.930 . S
H963 C971 0.930 . S
H964 C974 0.930 . S
H965 C975 0.930 . S
C966 H960 0.930 . S
C966 C967 1.355 . S
C966 C968 1.415 . S
C967 C966 1.355 . S
C967 C969 1.419 . S
C968 C966 1.415 . S
C968 C973 1.425 . S
C968 C975 1.409 . S
C969 H961 0.930 . S
C969 C967 1.419 . S
C969 C970 1.362 . S
C970 H962 0.930 . S
C970 C969 1.362 . S
C970 C973 1.409 . S
C971 H963 0.930 . S
C971 C972 1.355 . S
C971 C973 1.415 . S
C972 C971 1.355 . S
C972 C974 1.419 . S
C973 C968 1.425 . S
C973 C970 1.409 . S
C973 C971 1.415 . S
C974 H964 0.930 . S
C974 C972 1.419 . S
C974 C975 1.362 . S
C975 H965 0.930 . S
C975 C968 1.409 . S
C975 C974 1.362 . S
H976 C982 0.930 . S
H977 C985 0.930 . S
H978 C986 0.930 . S
H979 C987 0.930 . S
H980 C990 0.930 . S
H981 C991 0.930 . S
C982 H976 0.930 . S
C982 C983 1.355 . S
C982 C984 1.415 . S
C983 C982 1.355 . S
C983 C985 1.419 . S
C984 C982 1.415 . S
C984 C989 1.425 . S
C984 C991 1.409 . S
C985 H977 0.930 . S
C985 C983 1.419 . S
C985 C986 1.362 . S
C986 H978 0.930 . S
C986 C985 1.362 . S
C986 C989 1.409 . S
C987 H979 0.930 . S
C987 C988 1.355 . S
C987 C989 1.415 . S
C988 C987 1.355 . S
C988 C990 1.419 . S
C989 C984 1.425 . S
C989 C986 1.409 . S
C989 C987 1.415 . S
C990 H980 0.930 . S
C990 C988 1.419 . S
C990 C991 1.362 . S
C991 H981 0.930 . S
C991 C984 1.409 . S
C991 C990 1.362 . S
H992 C998 0.930 . S
H993 C1001 0.930 . S
H994 C1002 0.930 . S
H995 C1003 0.930 . S
H996 C1006 0.930 . S
H997 C1007 0.930 . S
C998 H992 0.930 . S
C998 C999 1.355 . S
C998 C1000 1.415 . S
C999 C998 1.355 . S
C999 C1001 1.419 . S
C1000 C998 1.415 . S
C1000 C1005 1.425 . S
C1000 C1007 1.409 . S
C1001 H993 0.930 . S
C1001 C999 1.419 . S
C1001 C1002 1.362 . S
C1002 H994 0.930 . S
C1002 C1001 1.362 . S
C1002 C1005 1.409 . S
C1003 H995 0.930 . S
C1003 C1004 1.355 . S
C1003 C1005 1.415 . S
C1004 C1003 1.355 . S
C1004 C1006 1.419 . S
C1005 C1000 1.425 . S
C1005 C1002 1.409 . S
C1005 C1003 1.415 . S
C1006 H996 0.930 . S
C1006 C1004 1.419 . S
C1006 C1007 1.362 . S
C1007 H997 0.930 . S
C1007 C1000 1.409 . S
C1007 C1006 1.362 . S
H1008 C1014 0.930 . S
H1009 C1017 0.930 . S
H1010 C1018 0.930 . S
H1011 C1019 0.930 . S
H1012 C1022 0.930 . S
H1013 C1023 0.930 . S
C1014 H1008 0.930 . S
C1014 C1015 1.355 . S
C1014 C1016 1.415 . S
C1015 C1014 1.355 . S
C1015 C1017 1.419 . S
C1016 C1014 1.415 . S
C1016 C1021 1.425 . S
C1016 C1023 1.409 . S
C1017 H1009 0.930 . S
C1017 C1015 1.419 . S
C1017 C1018 1.362 . S
C1018 H1010 0.930 . S
C1018 C1017 1.362 . S
C1018 C1021 1.409 . S
C1019 H1011 0.930 . S
C1019 C1020 1.355 . S
C1019 C1021 1.415 . S
C1020 C1019 1.355 . S
C1020 C1022 1.419 . S
C1021 C1016 1.425 . S
C1021 C1018 1.409 . S
C1021 C1019 1.415 . S
C1022 H1012 0.930 . S
C1022 C1020 1.419 . S
C1022 C1023 1.362 . S
C1023 H1013 0.930 . S
C1023 C1016 1.409 . S
C1023 C1022 1.362 . S
H1024 C1030 0.930 . S
H1025 C1033 0.930 . S
H1026 C1034 0.930 . S
H1027 C1035 0.930 . S
H1028 C1038 0.930 . S
H1029 C1039 0.930 . S
C1030 H1024 0.930 . S
C1030 C1031 1.355 . S
C1030 C1032 1.415 . S
C1031 C1030 1.355 . S
C1031 C1033 1.419 . S
C1032 C1030 1.415 . S
C1032 C1037 1.425 . S
C1032 C1039 1.409 . S
C1033 H1025 0.930 . S
C1033 C1031 1.419 . S
C1033 C1034 1.362 . S
C1034 H1026 0.930 . S
C1034 C1033 1.362 . S
C1034 C1037 1.409 . S
C1035 H1027 0.930 . S
C1035 C1036 1.355 . S
C1035 C1037 1.415 . S
C1036 C1035 1.355 . S
C1036 C1038 1.419 . S
C1037 C1032 1.425 . S
C1037 C1034 1.409 . S
C1037 C1035 1.415 . S
C1038 H1028 0.930 . S
C1038 C1036 1.419 . S
C1038 C1039 1.362 . S
C1039 H1029 0.930 . S
C1039 C1032 1.409 . S
C1039 C1038 1.362 . S
H1040 C1046 0.930 . S
H1041 C1049 0.930 . S
H1042 C1050 0.930 . S
H1043 C1051 0.930 . S
H1044 C1054 0.930 . S
H1045 C1055 0.930 . S
C1046 H1040 0.930 . S
C1046 C1047 1.355 . S
C1046 C1048 1.415 . S
C1047 C1046 1.355 . S
C1047 C1049 1.419 . S
C1048 C1046 1.415 . S
C1048 C1053 1.425 . S
C1048 C1055 1.409 . S
C1049 H1041 0.930 . S
C1049 C1047 1.419 . S
C1049 C1050 1.362 . S
C1050 H1042 0.930 . S
C1050 C1049 1.362 . S
C1050 C1053 1.409 . S
C1051 H1043 0.930 . S
C1051 C1052 1.355 . S
C1051 C1053 1.415 . S
C1052 C1051 1.355 . S
C1052 C1054 1.419 . S
C1053 C1048 1.425 . S
C1053 C1050 1.409 . S
C1053 C1051 1.415 . S
C1054 H1044 0.930 . S
C1054 C1052 1.419 . S
C1054 C1055 1.362 . S
C1055 H1045 0.930 . S
C1055 C1048 1.409 . S
C1055 C1054 1.362 . S
H1056 C1062 0.930 . S
H1057 C1065 0.930 . S
H1058 C1066 0.930 . S
H1059 C1067 0.930 . S
H1060 C1070 0.930 . S
H1061 C1071 0.930 . S
C1062 H1056 0.930 . S
C1062 C1063 1.355 . S
C1062 C1064 1.415 . S
C1063 C1062 1.355 . S
C1063 C1065 1.419 . S
C1064 C1062 1.415 . S
C1064 C1069 1.425 . S
C1064 C1071 1.409 . S
C1065 H1057 0.930 . S
C1065 C1063 1.419 . S
C1065 C1066 1.362 . S
C1066 H1058 0.930 . S
C1066 C1065 1.362 . S
C1066 C1069 1.409 . S
C1067 H1059 0.930 . S
C1067 C1068 1.355 . S
C1067 C1069 1.415 . S
C1068 C1067 1.355 . S
C1068 C1070 1.419 . S
C1069 C1064 1.425 . S
C1069 C1066 1.409 . S
C1069 C1067 1.415 . S
C1070 H1060 0.930 . S
C1070 C1068 1.419 . S
C1070 C1071 1.362 . S
C1071 H1061 0.930 . S
C1071 C1064 1.409 . S
C1071 C1070 1.362 . S
H1072 C1078 0.930 . S
H1073 C1081 0.930 . S
H1074 C1082 0.930 . S
H1075 C1083 0.930 . S
H1076 C1086 0.930 . S
H1077 C1087 0.930 . S
C1078 H1072 0.930 . S
C1078 C1079 1.355 . S
C1078 C1080 1.415 . S
C1079 C1078 1.355 . S
C1079 C1081 1.419 . S
C1080 C1078 1.415 . S
C1080 C1085 1.425 . S
C1080 C1087 1.409 . S
C1081 H1073 0.930 . S
C1081 C1079 1.419 . S
C1081 C1082 1.362 . S
C1082 H1074 0.930 . S
C1082 C1081 1.362 . S
C1082 C1085 1.409 . S
C1083 H1075 0.930 . S
C1083 C1084 1.355 . S
C1083 C1085 1.415 . S
C1084 C1083 1.355 . S
C1084 C1086 1.419 . S
C1085 C1080 1.425 . S
C1085 C1082 1.409 . S
C1085 C1083 1.415 . S
C1086 H1076 0.930 . S
C1086 C1084 1.419 . S
C1086 C1087 1.362 . S
C1087 H1077 0.930 . S
C1087 C1080 1.409 . S
C1087 C1086 1.362 . S
H1088 C1094 0.930 . S
H1089 C1097 0.930 . S
H1090 C1098 0.930 . S
H1091 C1099 0.930 . S
H1092 C1102 0.930 . S
H1093 C1103 0.930 . S
C1094 H1088 0.930 . S
C1094 C1095 1.355 . S
C1094 C1096 1.415 . S
C1095 C1094 1.355 . S
C1095 C1097 1.419 . S
C1096 C1094 1.415 . S
C1096 C1101 1.425 . S
C1096 C1103 1.409 . S
C1097 H1089 0.930 . S
C1097 C1095 1.419 . S
C1097 C1098 1.362 . S
C1098 H1090 0.930 . S
C1098 C1097 1.362 . S
C1098 C1101 1.409 . S
C1099 H1091 0.930 . S
C1099 C1100 1.355 . S
C1099 C1101 1.415 . S
C1100 C1099 1.355 . S
C1100 C1102 1.419 . S
C1101 C1096 1.425 . S
C1101 C1098 1.409 . S
C1101 C1099 1.415 . S
C1102 H1092 0.930 . S
C1102 C1100 1.419 . S
C1102 C1103 1.362 . S
C1103 H1093 0.930 . S
C1103 C1096 1.409 . S
C1103 C1102 1.362 . S
H1104 C1110 0.930 . S
H1105 C1113 0.930 . S
H1106 C1114 0.930 . S
H1107 C1115 0.930 . S
H1108 C1118 0.930 . S
H1109 C1119 0.930 . S
C1110 H1104 0.930 . S
C1110 C1111 1.355 . S
C1110 C1112 1.415 . S
C1111 C1110 1.355 . S
C1111 C1113 1.419 . S
C1112 C1110 1.415 . S
C1112 C1117 1.425 . S
C1112 C1119 1.409 . S
C1113 H1105 0.930 . S
C1113 C1111 1.419 . S
C1113 C1114 1.362 . S
C1114 H1106 0.930 . S
C1114 C1113 1.362 . S
C1114 C1117 1.409 . S
C1115 H1107 0.930 . S
C1115 C1116 1.355 . S
C1115 C1117 1.415 . S
C1116 C1115 1.355 . S
C1116 C1118 1.419 . S
C1117 C1112 1.425 . S
C1117 C1114 1.409 . S
C1117 C1115 1.415 . S
C1118 H1108 0.930 . S
C1118 C1116 1.419 . S
C1118 C1119 1.362 . S
C1119 H1109 0.930 . S
C1119 C1112 1.409 . S
C1119 C1118 1.362 . S
H1120 C1126 0.930 . S
H1121 C1129 0.930 . S
H1122 C1130 0.930 . S
H1123 C1131 0.930 . S
H1124 C1134 0.930 . S
H1125 C1135 0.930 . S
C1126 H1120 0.930 . S
C1126 C1127 1.355 . S
C1126 C1128 1.415 . S
C1127 C1126 1.355 . S
C1127 C1129 1.419 . S
C1128 C1126 1.415 . S
C1128 C1133 1.425 . S
C1128 C1135 1.409 . S
C1129 H1121 0.930 . S
C1129 C1127 1.419 . S
C1129 C1130 1.362 . S
C1130 H1122 0.930 . S
C1130 C1129 1.362 . S
C1130 C1133 1.409 . S
C1131 H1123 0.930 . S
C1131 C1132 1.355 . S
C1131 C1133 1.415 . S
C1132 C1131 1.355 . S
C1132 C1134 1.419 . S
C1133 C1128 1.425 . S
C1133 C1130 1.409 . S
C1133 C1131 1.415 . S
C1134 H1124 0.930 . S
C1134 C1132 1.419 . S
C1134 C1135 1.362 . S
C1135 H1125 0.930 . S
C1135 C1128 1.409 . S
C1135 C1134 1.362 . S
H1136 C1142 0.930 . S
H1137 C1145 0.930 . S
H1138 C1146 0.930 . S
H1139 C1147 0.930 . S
H1140 C1150 0.930 . S
H1141 C1151 0.930 . S
C1142 H1136 0.930 . S
C1142 C1143 1.355 . S
C1142 C1144 1.415 . S
C1143 C1142 1.355 . S
C1143 C1145 1.419 . S
C1144 C1142 1.415 . S
C1144 C1149 1.425 . S
C1144 C1151 1.409 . S
C1145 H1137 0.930 . S
C1145 C1143 1.419 . S
C1145 C1146 1.362 . S
C1146 H1138 0.930 . S
C1146 C1145 1.362 . S
C1146 C1149 1.409 . S
C1147 H1139 0.930 . S
C1147 C1148 1.355 . S
C1147 C1149 1.415 . S
C1148 C1147 1.355 . S
C1148 C1150 1.419 . S
C1149 C1144 1.425 . S
C1149 C1146 1.409 . S
C1149 C1147 1.415 . S
C1150 H1140 0.930 . S
C1150 C1148 1.419 . S
C1150 C1151 1.362 . S
C1151 H1141 0.930 . S
C1151 C1144 1.409 . S
C1151 C1150 1.362 . S
H1152 C1158 0.930 . S
H1153 C1161 0.930 . S
H1154 C1162 0.930 . S
H1155 C1163 0.930 . S
H1156 C1166 0.930 . S
H1157 C1167 0.930 . S
C1158 H1152 0.930 . S
C1158 C1159 1.355 . S
C1158 C1160 1.415 . S
C1159 C1158 1.355 . S
C1159 C1161 1.419 . S
C1160 C1158 1.415 . S
C1160 C1165 1.425 . S
C1160 C1167 1.409 . S
C1161 H1153 0.930 . S
C1161 C1159 1.419 . S
C1161 C1162 1.362 . S
C1162 H1154 0.930 . S
C1162 C1161 1.362 . S
C1162 C1165 1.409 . S
C1163 H1155 0.930 . S
C1163 C1164 1.355 . S
C1163 C1165 1.415 . S
C1164 C1163 1.355 . S
C1164 C1166 1.419 . S
C1165 C1160 1.425 . S
C1165 C1162 1.409 . S
C1165 C1163 1.415 . S
C1166 H1156 0.930 . S
C1166 C1164 1.419 . S
C1166 C1167 1.362 . S
C1167 H1157 0.930 . S
C1167 C1160 1.409 . S
C1167 C1166 1.362 . S
H1168 C1174 0.930 . S
H1169 C1177 0.930 . S
H1170 C1178 0.930 . S
H1171 C1179 0.930 . S
H1172 C1182 0.930 . S
H1173 C1183 0.930 . S
C1174 H1168 0.930 . S
C1174 C1175 1.355 . S
C1174 C1176 1.415 . S
C1175 C1174 1.355 . S
C1175 C1177 1.419 . S
C1176 C1174 1.415 . S
C1176 C1181 1.425 . S
C1176 C1183 1.409 . S
C1177 H1169 0.930 . S
C1177 C1175 1.419 . S
C1177 C1178 1.362 . S
C1178 H1170 0.930 . S
C1178 C1177 1.362 . S
C1178 C1181 1.409 . S
C1179 H1171 0.930 . S
C1179 C1180 1.355 . S
C1179 C1181 1.415 . S
C1180 C1179 1.355 . S
C1180 C1182 1.419 . S
C1181 C1176 1.425 . S
C1181 C1178 1.409 . S
C1181 C1179 1.415 . S
C1182 H1172 0.930 . S
C1182 C1180 1.419 . S
C1182 C1183 1.362 . S
C1183 H1173 0.930 . S
C1183 C1176 1.409 . S
C1183 C1182 1.362 . S
H1184 C1190 0.930 . S
H1185 C1193 0.930 . S
H1186 C1194 0.930 . S
H1187 C1195 0.930 . S
H1188 C1198 0.930 . S
H1189 C1199 0.930 . S
C1190 H1184 0.930 . S
C1190 C1191 1.355 . S
C1190 C1192 1.415 . S
C1191 C1190 1.355 . S
C1191 C1193 1.419 . S
C1192 C1190 1.415 . S
C1192 C1197 1.425 . S
C1192 C1199 1.409 . S
C1193 H1185 0.930 . S
C1193 C1191 1.419 . S
C1193 C1194 1.362 . S
C1194 H1186 0.930 . S
C1194 C1193 1.362 . S
C1194 C1197 1.409 . S
C1195 H1187 0.930 . S
C1195 C1196 1.355 . S
C1195 C1197 1.415 . S
C1196 C1195 1.355 . S
C1196 C1198 1.419 . S
C1197 C1192 1.425 . S
C1197 C1194 1.409 . S
C1197 C1195 1.415 . S
C1198 H1188 0.930 . S
C1198 C1196 1.419 . S
C1198 C1199 1.362 . S
C1199 H1189 0.930 . S
C1199 C1192 1.409 . S
C1199 C1198 1.362 . S
H1200 C1206 0.930 . S
H1201 C1209 0.930 . S
H1202 C1210 0.930 . S
H1203 C1211 0.930 . S
H1204 C1214 0.930 . S
H1205 C1215 0.930 . S
C1206 H1200 0.930 . S
C1206 C1207 1.355 . S
C1206 C1208 1.415 . S
C1207 C1206 1.355 . S
C1207 C1209 1.419 . S
C1208 C1206 1.415 . S
C1208 C1213 1.425 . S
C1208 C1215 1.409 . S
C1209 H1201 0.930 . S
C1209 C1207 1.419 . S
C1209 C1210 1.362 . S
C1210 H1202 0.930 . S
C1210 C1209 1.362 . S
C1210 C1213 1.409 . S
C1211 H1203 0.930 . S
C1211 C1212 1.355 . S
C1211 C1213 1.415 . S
C1212 C1211 1.355 . S
C1212 C1214 1.419 . S
C1213 C1208 1.425 . S
C1213 C1210 1.409 . S
C1213 C1211 1.415 . S
C1214 H1204 0.930 . S
C1214 C1212 1.419 . S
C1214 C1215 1.362 . S
C1215 H1205 0.930 . S
C1215 C1208 1.409 . S
C1215 C1214 1.362 . S
H1216 C1222 0.930 . S
H1217 C1225 0.930 . S
H1218 C1226 0.930 . S
H1219 C1227 0.930 . S
H1220 C1230 0.930 . S
H1221 C1231 0.930 . S
C1222 H1216 0.930 . S
C1222 C1223 1.355 . S
C1222 C1224 1.415 . S
C1223 C1222 1.355 . S
C1223 C1225 1.419 . S
C1224 C1222 1.415 . S
C1224 C1229 1.425 . S
C1224 C1231 1.409 . S
C1225 H1217 0.930 . S
C1225 C1223 1.419 . S
C1225 C1226 1.362 . S
C1226 H1218 0.930 . S
C1226 C1225 1.362 . S
C1226 C1229 1.409 . S
C1227 H1219 0.930 . S
C1227 C1228 1.355 . S
C1227 C1229 1.415 . S
C1228 C1227 1.355 . S
C1228 C1230 1.419 . S
C1229 C1224 1.425 . S
C1229 C1226 1.409 . S
C1229 C1227 1.415 . S
C1230 H1220 0.930 . S
C1230 C1228 1.419 . S
C1230 C1231 1.362 . S
C1231 H1221 0.930 . S
C1231 C1224 1.409 . S
C1231 C1230 1.362 . S
H1232 C1238 0.930 . S
H1233 C1241 0.930 1_554 S
H1234 C1242 0.930 1_554 S
H1235 C1243 0.930 . S
H1236 C1246 0.930 . S
H1237 C1247 0.930 . S
C1238 H1232 0.930 . S
C1238 C1239 1.355 . S
C1238 C1240 1.415 . S
C1239 C1238 1.355 . S
C1239 C1241 1.419 . S
C1240 C1238 1.415 . S
C1240 C1245 1.425 . S
C1240 C1247 1.409 . S
C1241 H1233 0.930 1_556 S
C1241 C1239 1.419 . S
C1241 C1242 1.362 . S
C1242 H1234 0.930 1_556 S
C1242 C1241 1.362 . S
C1242 C1245 1.409 . S
C1243 H1235 0.930 . S
C1243 C1244 1.355 . S
C1243 C1245 1.415 . S
C1244 C1243 1.355 . S
C1244 C1246 1.419 . S
C1245 C1240 1.425 . S
C1245 C1242 1.409 . S
C1245 C1243 1.415 . S
C1246 H1236 0.930 . S
C1246 C1244 1.419 . S
C1246 C1247 1.362 . S
C1247 H1237 0.930 . S
C1247 C1240 1.409 . S
C1247 C1246 1.362 . S
H1248 C1254 0.930 . S
H1249 C1257 0.930 . S
H1250 C1258 0.930 . S
H1251 C1259 0.930 . S
H1252 C1262 0.930 . S
H1253 C1263 0.930 . S
C1254 H1248 0.930 . S
C1254 C1255 1.355 . S
C1254 C1256 1.415 . S
C1255 C1254 1.355 . S
C1255 C1257 1.419 . S
C1256 C1254 1.415 . S
C1256 C1261 1.425 . S
C1256 C1263 1.409 . S
C1257 H1249 0.930 . S
C1257 C1255 1.419 . S
C1257 C1258 1.362 . S
C1258 H1250 0.930 . S
C1258 C1257 1.362 . S
C1258 C1261 1.409 . S
C1259 H1251 0.930 . S
C1259 C1260 1.355 . S
C1259 C1261 1.415 . S
C1260 C1259 1.355 . S
C1260 C1262 1.419 . S
C1261 C1256 1.425 . S
C1261 C1258 1.409 . S
C1261 C1259 1.415 . S
C1262 H1252 0.930 . S
C1262 C1260 1.419 . S
C1262 C1263 1.362 . S
C1263 H1253 0.930 . S
C1263 C1256 1.409 . S
C1263 C1262 1.362 . S
H1264 C1270 0.930 . S
H1265 C1273 0.930 . S
H1266 C1274 0.930 . S
H1267 C1275 0.930 . S
H1268 C1278 0.930 . S
H1269 C1279 0.930 . S
C1270 H1264 0.930 . S
C1270 C1271 1.355 . S
C1270 C1272 1.415 . S
C1271 C1270 1.355 . S
C1271 C1273 1.419 . S
C1272 C1270 1.415 . S
C1272 C1277 1.425 . S
C1272 C1279 1.409 . S
C1273 H1265 0.930 . S
C1273 C1271 1.419 . S
C1273 C1274 1.362 . S
C1274 H1266 0.930 . S
C1274 C1273 1.362 . S
C1274 C1277 1.409 . S
C1275 H1267 0.930 . S
C1275 C1276 1.355 . S
C1275 C1277 1.415 . S
C1276 C1275 1.355 . S
C1276 C1278 1.419 . S
C1277 C1272 1.425 . S
C1277 C1274 1.409 . S
C1277 C1275 1.415 . S
C1278 H1268 0.930 . S
C1278 C1276 1.419 . S
C1278 C1279 1.362 . S
C1279 H1269 0.930 . S
C1279 C1272 1.409 . S
C1279 C1278 1.362 . S
H1280 C1286 0.930 . S
H1281 C1289 0.930 . S
H1282 C1290 0.930 . S
H1283 C1291 0.930 . S
H1284 C1294 0.930 . S
H1285 C1295 0.930 . S
C1286 H1280 0.930 . S
C1286 C1287 1.355 . S
C1286 C1288 1.415 . S
C1287 C1286 1.355 . S
C1287 C1289 1.419 . S
C1288 C1286 1.415 . S
C1288 C1293 1.425 . S
C1288 C1295 1.409 . S
C1289 H1281 0.930 . S
C1289 C1287 1.419 . S
C1289 C1290 1.362 . S
C1290 H1282 0.930 . S
C1290 C1289 1.362 . S
C1290 C1293 1.409 . S
C1291 H1283 0.930 . S
C1291 C1292 1.355 . S
C1291 C1293 1.415 . S
C1292 C1291 1.355 . S
C1292 C1294 1.419 . S
C1293 C1288 1.425 . S
C1293 C1290 1.409 . S
C1293 C1291 1.415 . S
C1294 H1284 0.930 . S
C1294 C1292 1.419 . S
C1294 C1295 1.362 . S
C1295 H1285 0.930 . S
C1295 C1288 1.409 . S
C1295 C1294 1.362 . S
H1296 C1302 0.930 . S
H1297 C1305 0.930 . S
H1298 C1306 0.930 . S
H1299 C1307 0.930 . S
H1300 C1310 0.930 . S
H1301 C1311 0.930 . S
C1302 H1296 0.930 . S
C1302 C1303 1.355 . S
C1302 C1304 1.415 . S
C1303 C1302 1.355 . S
C1303 C1305 1.419 . S
C1304 C1302 1.415 . S
C1304 C1309 1.425 . S
C1304 C1311 1.409 . S
C1305 H1297 0.930 . S
C1305 C1303 1.419 . S
C1305 C1306 1.362 . S
C1306 H1298 0.930 . S
C1306 C1305 1.362 . S
C1306 C1309 1.409 . S
C1307 H1299 0.930 . S
C1307 C1308 1.355 . S
C1307 C1309 1.415 . S
C1308 C1307 1.355 . S
C1308 C1310 1.419 . S
C1309 C1304 1.425 . S
C1309 C1306 1.409 . S
C1309 C1307 1.415 . S
C1310 H1300 0.930 . S
C1310 C1308 1.419 . S
C1310 C1311 1.362 . S
C1311 H1301 0.930 . S
C1311 C1304 1.409 . S
C1311 C1310 1.362 . S
H1312 C1318 0.930 . S
H1313 C1321 0.930 . S
H1314 C1322 0.930 . S
H1315 C1323 0.930 . S
H1316 C1326 0.930 . S
H1317 C1327 0.930 . S
C1318 H1312 0.930 . S
C1318 C1319 1.355 . S
C1318 C1320 1.415 . S
C1319 C1318 1.355 . S
C1319 C1321 1.419 . S
C1320 C1318 1.415 . S
C1320 C1325 1.425 . S
C1320 C1327 1.409 . S
C1321 H1313 0.930 . S
C1321 C1319 1.419 . S
C1321 C1322 1.362 . S
C1322 H1314 0.930 . S
C1322 C1321 1.362 . S
C1322 C1325 1.409 . S
C1323 H1315 0.930 . S
C1323 C1324 1.355 . S
C1323 C1325 1.415 . S
C1324 C1323 1.355 . S
C1324 C1326 1.419 . S
C1325 C1320 1.425 . S
C1325 C1322 1.409 . S
C1325 C1323 1.415 . S
C1326 H1316 0.930 . S
C1326 C1324 1.419 . S
C1326 C1327 1.362 . S
C1327 H1317 0.930 . S
C1327 C1320 1.409 . S
C1327 C1326 1.362 . S
H1328 C1334 0.930 . S
H1329 C1337 0.930 . S
H1330 C1338 0.930 . S
H1331 C1339 0.930 . S
H1332 C1342 0.930 . S
H1333 C1343 0.930 . S
C1334 H1328 0.930 . S
C1334 C1335 1.355 . S
C1334 C1336 1.415 . S
C1335 C1334 1.355 . S
C1335 C1337 1.419 . S
C1336 C1334 1.415 . S
C1336 C1341 1.425 . S
C1336 C1343 1.409 . S
C1337 H1329 0.930 . S
C1337 C1335 1.419 . S
C1337 C1338 1.362 . S
C1338 H1330 0.930 . S
C1338 C1337 1.362 . S
C1338 C1341 1.409 . S
C1339 H1331 0.930 . S
C1339 C1340 1.355 . S
C1339 C1341 1.415 . S
C1340 C1339 1.355 . S
C1340 C1342 1.419 . S
C1341 C1336 1.425 . S
C1341 C1338 1.409 . S
C1341 C1339 1.415 . S
C1342 H1332 0.930 . S
C1342 C1340 1.419 . S
C1342 C1343 1.362 . S
C1343 H1333 0.930 . S
C1343 C1336 1.409 . S
C1343 C1342 1.362 . S
H1344 C1350 0.930 . S
H1345 C1353 0.930 . S
H1346 C1354 0.930 . S
H1347 C1355 0.930 . S
H1348 C1358 0.930 . S
H1349 C1359 0.930 . S
C1350 H1344 0.930 . S
C1350 C1351 1.355 . S
C1350 C1352 1.415 . S
C1351 C1350 1.355 . S
C1351 C1353 1.419 . S
C1352 C1350 1.415 . S
C1352 C1357 1.425 . S
C1352 C1359 1.409 . S
C1353 H1345 0.930 . S
C1353 C1351 1.419 . S
C1353 C1354 1.362 . S
C1354 H1346 0.930 . S
C1354 C1353 1.362 . S
C1354 C1357 1.409 . S
C1355 H1347 0.930 . S
C1355 C1356 1.355 . S
C1355 C1357 1.415 . S
C1356 C1355 1.355 . S
C1356 C1358 1.419 . S
C1357 C1352 1.425 . S
C1357 C1354 1.409 . S
C1357 C1355 1.415 . S
C1358 H1348 0.930 . S
C1358 C1356 1.419 . S
C1358 C1359 1.362 . S
C1359 H1349 0.930 . S
C1359 C1352 1.409 . S
C1359 C1358 1.362 . S
H1360 C1366 0.930 . S
H1361 C1369 0.930 . S
H1362 C1370 0.930 . S
H1363 C1371 0.930 . S
H1364 C1374 0.930 . S
H1365 C1375 0.930 . S
C1366 H1360 0.930 . S
C1366 C1367 1.355 . S
C1366 C1368 1.415 . S
C1367 C1366 1.355 . S
C1367 C1369 1.419 . S
C1368 C1366 1.415 . S
C1368 C1373 1.425 . S
C1368 C1375 1.409 . S
C1369 H1361 0.930 . S
C1369 C1367 1.419 . S
C1369 C1370 1.362 . S
C1370 H1362 0.930 . S
C1370 C1369 1.362 . S
C1370 C1373 1.409 . S
C1371 H1363 0.930 . S
C1371 C1372 1.355 . S
C1371 C1373 1.415 . S
C1372 C1371 1.355 . S
C1372 C1374 1.419 . S
C1373 C1368 1.425 . S
C1373 C1370 1.409 . S
C1373 C1371 1.415 . S
C1374 H1364 0.930 . S
C1374 C1372 1.419 . S
C1374 C1375 1.362 . S
C1375 H1365 0.930 . S
C1375 C1368 1.409 . S
C1375 C1374 1.362 . S
H1376 C1382 0.930 . S
H1377 C1385 0.930 . S
H1378 C1386 0.930 . S
H1379 C1387 0.930 . S
H1380 C1390 0.930 . S
H1381 C1391 0.930 . S
C1382 H1376 0.930 . S
C1382 C1383 1.355 . S
C1382 C1384 1.415 . S
C1383 C1382 1.355 . S
C1383 C1385 1.419 . S
C1384 C1382 1.415 . S
C1384 C1389 1.425 . S
C1384 C1391 1.409 . S
C1385 H1377 0.930 . S
C1385 C1383 1.419 . S
C1385 C1386 1.362 . S
C1386 H1378 0.930 . S
C1386 C1385 1.362 . S
C1386 C1389 1.409 . S
C1387 H1379 0.930 . S
C1387 C1388 1.355 . S
C1387 C1389 1.415 . S
C1388 C1387 1.355 . S
C1388 C1390 1.419 . S
C1389 C1384 1.425 . S
C1389 C1386 1.409 . S
C1389 C1387 1.415 . S
C1390 H1380 0.930 . S
C1390 C1388 1.419 . S
C1390 C1391 1.362 . S
C1391 H1381 0.930 . S
C1391 C1384 1.409 . S
C1391 C1390 1.362 . S
H1392 C1398 0.930 . S
H1393 C1401 0.930 . S
H1394 C1402 0.930 . S
H1395 C1403 0.930 . S
H1396 C1406 0.930 . S
H1397 C1407 0.930 . S
C1398 H1392 0.930 . S
C1398 C1399 1.355 . S
C1398 C1400 1.415 . S
C1399 C1398 1.355 . S
C1399 C1401 1.419 1_455 S
C1400 C1398 1.415 . S
C1400 C1405 1.425 . S
C1400 C1407 1.409 . S
C1401 H1393 0.930 . S
C1401 C1399 1.419 1_655 S
C1401 C1402 1.362 . S
C1402 H1394 0.930 . S
C1402 C1401 1.362 . S
C1402 C1405 1.409 1_655 S
C1403 H1395 0.930 . S
C1403 C1404 1.355 1_655 S
C1403 C1405 1.415 1_655 S
C1404 C1403 1.355 1_455 S
C1404 C1406 1.419 . S
C1405 C1400 1.425 . S
C1405 C1402 1.409 1_455 S
C1405 C1403 1.415 1_455 S
C1406 H1396 0.930 . S
C1406 C1404 1.419 . S
C1406 C1407 1.362 . S
C1407 H1397 0.930 . S
C1407 C1400 1.409 . S
C1407 C1406 1.362 . S
H1408 C1414 0.930 . S
H1409 C1417 0.930 . S
H1410 C1418 0.930 . S
H1411 C1419 0.930 . S
H1412 C1422 0.930 . S
H1413 C1423 0.930 . S
C1414 H1408 0.930 . S
C1414 C1415 1.355 . S
C1414 C1416 1.415 . S
C1415 C1414 1.355 . S
C1415 C1417 1.419 . S
C1416 C1414 1.415 . S
C1416 C1421 1.425 . S
C1416 C1423 1.409 . S
C1417 H1409 0.930 . S
C1417 C1415 1.419 . S
C1417 C1418 1.362 . S
C1418 H1410 0.930 . S
C1418 C1417 1.362 . S
C1418 C1421 1.409 . S
C1419 H1411 0.930 . S
C1419 C1420 1.355 . S
C1419 C1421 1.415 . S
C1420 C1419 1.355 . S
C1420 C1422 1.419 . S
C1421 C1416 1.425 . S
C1421 C1418 1.409 . S
C1421 C1419 1.415 . S
C1422 H1412 0.930 . S
C1422 C1420 1.419 . S
C1422 C1423 1.362 . S
C1423 H1413 0.930 . S
C1423 C1416 1.409 . S
C1423 C1422 1.362 . S
H1424 C1430 0.930 . S
H1425 C1433 0.930 . S
H1426 C1434 0.930 . S
H1427 C1435 0.930 . S
H1428 C1438 0.930 . S
H1429 C1439 0.930 . S
C1430 H1424 0.930 . S
C1430 C1431 1.355 1_545 S
C1430 C1432 1.415 . S
C1431 C1430 1.355 1_565 S
C1431 C1433 1.419 . S
C1432 C1430 1.415 . S
C1432 C1437 1.425 1_545 S
C1432 C1439 1.409 . S
C1433 H1425 0.930 . S
C1433 C1431 1.419 . S
C1433 C1434 1.362 . S
C1434 H1426 0.930 . S
C1434 C1433 1.362 . S
C1434 C1437 1.409 . S
C1435 H1427 0.930 . S
C1435 C1436 1.355 . S
C1435 C1437 1.415 . S
C1436 C1435 1.355 . S
C1436 C1438 1.419 1_565 S
C1437 C1432 1.425 1_565 S
C1437 C1434 1.409 . S
C1437 C1435 1.415 . S
C1438 H1428 0.930 . S
C1438 C1436 1.419 1_545 S
C1438 C1439 1.362 . S
C1439 H1429 0.930 . S
C1439 C1432 1.409 . S
C1439 C1438 1.362 . S
H1440 C1446 0.946 . S
H1441 C1449 0.930 . S
H1442 C1450 0.930 . S
H1443 C1451 0.930 . S
H1444 C1454 0.930 . S
H1445 C1455 0.930 . S
C1446 H1440 0.946 . S
C1446 C1447 1.321 1_545 S
C1446 C1448 1.434 . S
C1447 C1446 1.321 1_565 S
C1447 C1449 1.419 . S
C1448 C1446 1.434 . S
C1448 C1453 1.425 1_545 S
C1448 C1455 1.409 . S
C1449 H1441 0.930 . S
C1449 C1447 1.419 . S
C1449 C1450 1.362 . S
C1450 H1442 0.930 . S
C1450 C1449 1.362 . S
C1450 C1453 1.409 . S
C1451 H1443 0.930 . S
C1451 C1452 1.306 1_565 S
C1451 C1453 1.415 . S
C1452 C1451 1.306 1_545 S
C1452 C1454 1.444 . S
C1453 C1448 1.425 1_565 S
C1453 C1450 1.409 . S
C1453 C1451 1.415 . S
C1454 H1444 0.930 . S
C1454 C1452 1.444 . S
C1454 C1455 1.362 . S
C1455 H1445 0.930 . S
C1455 C1448 1.409 . S
C1455 C1454 1.362 . S
H1456 C1462 0.930 . S
H1457 C1465 0.930 . S
H1458 C1466 0.930 . S
H1459 C1467 0.930 . S
H1460 C1470 0.930 . S
H1461 C1471 0.930 . S
C1462 H1456 0.930 . S
C1462 C1463 1.355 1_655 S
C1462 C1464 1.415 . S
C1463 C1462 1.355 1_455 S
C1463 C1465 1.419 . S
C1464 C1462 1.415 . S
C1464 C1469 1.425 1_655 S
C1464 C1471 1.409 . S
C1465 H1457 0.930 . S
C1465 C1463 1.419 . S
C1465 C1466 1.362 . S
C1466 H1458 0.930 . S
C1466 C1465 1.362 . S
C1466 C1469 1.409 . S
C1467 H1459 0.930 . S
C1467 C1468 1.355 1_455 S
C1467 C1469 1.415 . S
C1468 C1467 1.355 1_655 S
C1468 C1470 1.419 . S
C1469 C1464 1.425 1_455 S
C1469 C1466 1.409 . S
C1469 C1467 1.415 . S
C1470 H1460 0.930 . S
C1470 C1468 1.419 . S
C1470 C1471 1.362 . S
C1471 H1461 0.930 . S
C1471 C1464 1.409 . S
C1471 C1470 1.362 . S
H1472 C1478 0.930 . S
H1473 C1481 0.930 . S
H1474 C1482 0.930 . S
H1475 C1483 0.930 . S
H1476 C1486 0.930 . S
H1477 C1487 0.930 . S
C1478 H1472 0.930 . S
C1478 C1479 1.355 . S
C1478 C1480 1.415 . S
C1479 C1478 1.355 . S
C1479 C1481 1.419 . S
C1480 C1478 1.415 . S
C1480 C1485 1.425 . S
C1480 C1487 1.409 . S
C1481 H1473 0.930 . S
C1481 C1479 1.419 . S
C1481 C1482 1.362 . S
C1482 H1474 0.930 . S
C1482 C1481 1.362 . S
C1482 C1485 1.409 . S
C1483 H1475 0.930 . S
C1483 C1484 1.355 . S
C1483 C1485 1.415 . S
C1484 C1483 1.355 . S
C1484 C1486 1.419 . S
C1485 C1480 1.425 . S
C1485 C1482 1.409 . S
C1485 C1483 1.415 . S
C1486 H1476 0.930 . S
C1486 C1484 1.419 . S
C1486 C1487 1.362 . S
C1487 H1477 0.930 . S
C1487 C1480 1.409 . S
C1487 C1486 1.362 . S
H1488 C1494 0.930 . S
H1489 C1497 0.930 . S
H1490 C1498 0.930 . S
H1491 C1499 0.930 . S
H1492 C1502 0.930 . S
H1493 C1503 0.930 . S
C1494 H1488 0.930 . S
C1494 C1495 1.355 . S
C1494 C1496 1.415 . S
C1495 C1494 1.355 . S
C1495 C1497 1.419 . S
C1496 C1494 1.415 . S
C1496 C1501 1.425 . S
C1496 C1503 1.409 . S
C1497 H1489 0.930 . S
C1497 C1495 1.419 . S
C1497 C1498 1.362 . S
C1498 H1490 0.930 . S
C1498 C1497 1.362 . S
C1498 C1501 1.409 . S
C1499 H1491 0.930 . S
C1499 C1500 1.355 . S
C1499 C1501 1.415 . S
C1500 C1499 1.355 . S
C1500 C1502 1.419 . S
C1501 C1496 1.425 . S
C1501 C1498 1.409 . S
C1501 C1499 1.415 . S
C1502 H1492 0.930 . S
C1502 C1500 1.419 . S
C1502 C1503 1.362 . S
C1503 H1493 0.930 . S
C1503 C1496 1.409 . S
C1503 C1502 1.362 . S
H1504 C1510 0.930 . S
H1505 C1513 0.930 . S
H1506 C1514 0.930 . S
H1507 C1515 0.930 . S
H1508 C1518 0.930 . S
H1509 C1519 0.930 . S
C1510 H1504 0.930 . S
C1510 C1511 1.355 . S
C1510 C1512 1.415 . S
C1511 C1510 1.355 . S
C1511 C1513 1.419 . S
C1512 C1510 1.415 . S
C1512 C1517 1.425 . S
C1512 C1519 1.409 . S
C1513 H1505 0.930 . S
C1513 C1511 1.419 . S
C1513 C1514 1.362 . S
C1514 H1506 0.930 . S
C1514 C1513 1.362 . S
C1514 C1517 1.409 . S
C1515 H1507 0.930 . S
C1515 C1516 1.355 . S
C1515 C1517 1.415 . S
C1516 C1515 1.355 . S
C1516 C1518 1.419 . S
C1517 C1512 1.425 . S
C1517 C1514 1.409 . S
C1517 C1515 1.415 . S
C1518 H1508 0.930 . S
C1518 C1516 1.419 . S
C1518 C1519 1.362 . S
C1519 H1509 0.930 . S
C1519 C1512 1.409 . S
C1519 C1518 1.362 . S
H1520 C1526 0.930 . S
H1521 C1529 0.930 . S
H1522 C1530 0.930 . S
H1523 C1531 0.930 . S
H1524 C1534 0.930 . S
H1525 C1535 0.930 . S
C1526 H1520 0.930 . S
C1526 C1527 1.355 . S
C1526 C1528 1.415 . S
C1527 C1526 1.355 . S
C1527 C1529 1.419 . S
C1528 C1526 1.415 . S
C1528 C1533 1.425 . S
C1528 C1535 1.409 . S
C1529 H1521 0.930 . S
C1529 C1527 1.419 . S
C1529 C1530 1.362 . S
C1530 H1522 0.930 . S
C1530 C1529 1.362 . S
C1530 C1533 1.409 . S
C1531 H1523 0.930 . S
C1531 C1532 1.355 . S
C1531 C1533 1.415 . S
C1532 C1531 1.355 . S
C1532 C1534 1.419 . S
C1533 C1528 1.425 . S
C1533 C1530 1.409 . S
C1533 C1531 1.415 . S
C1534 H1524 0.930 . S
C1534 C1532 1.419 . S
C1534 C1535 1.362 . S
C1535 H1525 0.930 . S
C1535 C1528 1.409 . S
C1535 C1534 1.362 . S
H1536 C1542 0.930 . S
H1537 C1545 0.930 . S
H1538 C1546 0.930 . S
H1539 C1547 0.930 . S
H1540 C1550 0.930 . S
H1541 C1551 0.930 . S
C1542 H1536 0.930 . S
C1542 C1543 1.355 . S
C1542 C1544 1.415 . S
C1543 C1542 1.355 . S
C1543 C1545 1.419 1_545 S
C1544 C1542 1.415 . S
C1544 C1549 1.425 1_545 S
C1544 C1551 1.409 . S
C1545 H1537 0.930 . S
C1545 C1543 1.419 1_565 S
C1545 C1546 1.362 . S
C1546 H1538 0.930 . S
C1546 C1545 1.362 . S
C1546 C1549 1.409 . S
C1547 H1539 0.930 . S
C1547 C1548 1.355 1_565 S
C1547 C1549 1.415 . S
C1548 C1547 1.355 1_545 S
C1548 C1550 1.419 . S
C1549 C1544 1.425 1_565 S
C1549 C1546 1.409 . S
C1549 C1547 1.415 . S
C1550 H1540 0.930 . S
C1550 C1548 1.419 . S
C1550 C1551 1.362 . S
C1551 H1541 0.930 . S
C1551 C1544 1.409 . S
C1551 C1550 1.362 . S
H1552 C1558 0.930 . S
H1553 C1561 0.925 1_455 S
H1554 C1562 0.923 1_455 S
H1555 C1563 0.930 . S
H1556 C1566 0.930 . S
H1557 C1567 0.930 . S
C1558 H1552 0.930 . S
C1558 C1559 1.355 . S
C1558 C1560 1.415 . S
C1559 C1558 1.355 . S
C1559 C1561 1.419 . S
C1560 C1558 1.415 . S
C1560 C1565 1.425 . S
C1560 C1567 1.409 . S
C1561 H1553 0.925 1_655 S
C1561 C1559 1.419 . S
C1561 C1562 1.346 . S
C1562 H1554 0.923 1_655 S
C1562 C1561 1.346 . S
C1562 C1565 1.435 . S
C1563 H1555 0.930 . S
C1563 C1564 1.355 . S
C1563 C1565 1.415 . S
C1564 C1563 1.355 . S
C1564 C1566 1.419 . S
C1565 C1560 1.425 . S
C1565 C1562 1.435 . S
C1565 C1563 1.415 . S
C1566 H1556 0.930 . S
C1566 C1564 1.419 . S
C1566 C1567 1.362 . S
C1567 H1557 0.930 . S
C1567 C1560 1.409 . S
C1567 C1566 1.362 . S
H1568 C1574 0.930 . S
H1569 C1577 0.930 . S
H1570 C1578 0.930 . S
H1571 C1579 0.930 . S
H1572 C1582 0.930 . S
H1573 C1583 0.930 . S
C1574 H1568 0.930 . S
C1574 C1575 1.355 . S
C1574 C1576 1.415 . S
C1575 C1574 1.355 . S
C1575 C1577 1.419 . S
C1576 C1574 1.415 . S
C1576 C1581 1.425 . S
C1576 C1583 1.409 . S
C1577 H1569 0.930 . S
C1577 C1575 1.419 . S
C1577 C1578 1.362 . S
C1578 H1570 0.930 . S
C1578 C1577 1.362 . S
C1578 C1581 1.409 . S
C1579 H1571 0.930 . S
C1579 C1580 1.355 . S
C1579 C1581 1.415 . S
C1580 C1579 1.355 . S
C1580 C1582 1.419 . S
C1581 C1576 1.425 . S
C1581 C1578 1.409 . S
C1581 C1579 1.415 . S
C1582 H1572 0.930 . S
C1582 C1580 1.419 . S
C1582 C1583 1.362 . S
C1583 H1573 0.930 . S
C1583 C1576 1.409 . S
C1583 C1582 1.362 . S
H1584 C1590 0.930 . S
H1585 C1593 0.930 . S
H1586 C1594 0.930 . S
H1587 C1595 0.930 . S
H1588 C1598 0.930 . S
H1589 C1599 0.930 . S
C1590 H1584 0.930 . S
C1590 C1591 1.355 . S
C1590 C1592 1.415 . S
C1591 C1590 1.355 . S
C1591 C1593 1.419 . S
C1592 C1590 1.415 . S
C1592 C1597 1.425 . S
C1592 C1599 1.409 . S
C1593 H1585 0.930 . S
C1593 C1591 1.419 . S
C1593 C1594 1.362 . S
C1594 H1586 0.930 . S
C1594 C1593 1.362 . S
C1594 C1597 1.409 . S
C1595 H1587 0.930 . S
C1595 C1596 1.355 . S
C1595 C1597 1.415 . S
C1596 C1595 1.355 . S
C1596 C1598 1.419 . S
C1597 C1592 1.425 . S
C1597 C1594 1.409 . S
C1597 C1595 1.415 . S
C1598 H1588 0.930 . S
C1598 C1596 1.419 . S
C1598 C1599 1.362 . S
C1599 H1589 0.930 . S
C1599 C1592 1.409 . S
C1599 C1598 1.362 . S
H1600 C1606 0.930 . S
H1601 C1609 0.930 . S
H1602 C1610 0.930 . S
H1603 C1611 0.930 . S
H1604 C1614 0.930 . S
H1605 C1615 0.930 . S
C1606 H1600 0.930 . S
C1606 C1607 1.355 . S
C1606 C1608 1.415 . S
C1607 C1606 1.355 . S
C1607 C1609 1.419 . S
C1608 C1606 1.415 . S
C1608 C1613 1.425 . S
C1608 C1615 1.409 . S
C1609 H1601 0.930 . S
C1609 C1607 1.419 . S
C1609 C1610 1.362 . S
C1610 H1602 0.930 . S
C1610 C1609 1.362 . S
C1610 C1613 1.409 . S
C1611 H1603 0.930 . S
C1611 C1612 1.355 . S
C1611 C1613 1.415 . S
C1612 C1611 1.355 . S
C1612 C1614 1.419 . S
C1613 C1608 1.425 . S
C1613 C1610 1.409 . S
C1613 C1611 1.415 . S
C1614 H1604 0.930 . S
C1614 C1612 1.419 . S
C1614 C1615 1.362 . S
C1615 H1605 0.930 . S
C1615 C1608 1.409 . S
C1615 C1614 1.362 . S
H1616 C1622 0.930 . S
H1617 C1625 0.930 . S
H1618 C1626 0.930 . S
H1619 C1627 0.930 . S
H1620 C1630 0.930 . S
H1621 C1631 0.930 . S
C1622 H1616 0.930 . S
C1622 C1623 1.355 . S
C1622 C1624 1.415 . S
C1623 C1622 1.355 . S
C1623 C1625 1.419 . S
C1624 C1622 1.415 . S
C1624 C1629 1.425 . S
C1624 C1631 1.409 . S
C1625 H1617 0.930 . S
C1625 C1623 1.419 . S
C1625 C1626 1.362 . S
C1626 H1618 0.930 . S
C1626 C1625 1.362 . S
C1626 C1629 1.409 . S
C1627 H1619 0.930 . S
C1627 C1628 1.355 . S
C1627 C1629 1.415 . S
C1628 C1627 1.355 . S
C1628 C1630 1.419 . S
C1629 C1624 1.425 . S
C1629 C1626 1.409 . S
C1629 C1627 1.415 . S
C1630 H1620 0.930 . S
C1630 C1628 1.419 . S
C1630 C1631 1.362 . S
C1631 H1621 0.930 . S
C1631 C1624 1.409 . S
C1631 C1630 1.362 . S
H1632 C1638 0.930 . S
H1633 C1641 0.930 . S
H1634 C1642 0.930 . S
H1635 C1643 0.930 . S
H1636 C1646 0.930 . S
H1637 C1647 0.930 . S
C1638 H1632 0.930 . S
C1638 C1639 1.355 . S
C1638 C1640 1.415 . S
C1639 C1638 1.355 . S
C1639 C1641 1.419 . S
C1640 C1638 1.415 . S
C1640 C1645 1.425 . S
C1640 C1647 1.409 . S
C1641 H1633 0.930 . S
C1641 C1639 1.419 . S
C1641 C1642 1.362 . S
C1642 H1634 0.930 . S
C1642 C1641 1.362 . S
C1642 C1645 1.409 . S
C1643 H1635 0.930 . S
C1643 C1644 1.355 . S
C1643 C1645 1.415 . S
C1644 C1643 1.355 . S
C1644 C1646 1.419 . S
C1645 C1640 1.425 . S
C1645 C1642 1.409 . S
C1645 C1643 1.415 . S
C1646 H1636 0.930 . S
C1646 C1644 1.419 . S
C1646 C1647 1.362 . S
C1647 H1637 0.930 . S
C1647 C1640 1.409 . S
C1647 C1646 1.362 . S
H1648 C1654 0.930 . S
H1649 C1657 0.930 . S
H1650 C1658 0.930 . S
H1651 C1659 0.930 . S
H1652 C1662 0.930 . S
H1653 C1663 0.930 . S
C1654 H1648 0.930 . S
C1654 C1655 1.355 . S
C1654 C1656 1.415 . S
C1655 C1654 1.355 . S
C1655 C1657 1.419 . S
C1656 C1654 1.415 . S
C1656 C1661 1.425 . S
C1656 C1663 1.409 . S
C1657 H1649 0.930 . S
C1657 C1655 1.419 . S
C1657 C1658 1.362 . S
C1658 H1650 0.930 . S
C1658 C1657 1.362 . S
C1658 C1661 1.409 . S
C1659 H1651 0.930 . S
C1659 C1660 1.355 . S
C1659 C1661 1.415 . S
C1660 C1659 1.355 . S
C1660 C1662 1.419 . S
C1661 C1656 1.425 . S
C1661 C1658 1.409 . S
C1661 C1659 1.415 . S
C1662 H1652 0.930 . S
C1662 C1660 1.419 . S
C1662 C1663 1.362 . S
C1663 H1653 0.930 . S
C1663 C1656 1.409 . S
C1663 C1662 1.362 . S
H1664 C1670 0.930 . S
H1665 C1673 0.930 . S
H1666 C1674 0.930 . S
H1667 C1675 0.930 . S
H1668 C1678 0.930 . S
H1669 C1679 0.930 . S
C1670 H1664 0.930 . S
C1670 C1671 1.355 . S
C1670 C1672 1.415 . S
C1671 C1670 1.355 . S
C1671 C1673 1.419 . S
C1672 C1670 1.415 . S
C1672 C1677 1.425 . S
C1672 C1679 1.409 . S
C1673 H1665 0.930 . S
C1673 C1671 1.419 . S
C1673 C1674 1.362 . S
C1674 H1666 0.930 . S
C1674 C1673 1.362 . S
C1674 C1677 1.409 . S
C1675 H1667 0.930 . S
C1675 C1676 1.355 . S
C1675 C1677 1.415 . S
C1676 C1675 1.355 . S
C1676 C1678 1.419 . S
C1677 C1672 1.425 . S
C1677 C1674 1.409 . S
C1677 C1675 1.415 . S
C1678 H1668 0.930 . S
C1678 C1676 1.419 . S
C1678 C1679 1.362 . S
C1679 H1669 0.930 . S
C1679 C1672 1.409 . S
C1679 C1678 1.362 . S
H1680 C1686 0.930 . S
H1681 C1689 0.930 . S
H1682 C1690 0.930 . S
H1683 C1691 0.930 . S
H1684 C1694 0.930 . S
H1685 C1695 0.930 . S
C1686 H1680 0.930 . S
C1686 C1687 1.355 . S
C1686 C1688 1.415 . S
C1687 C1686 1.355 . S
C1687 C1689 1.419 1_655 S
C1688 C1686 1.415 . S
C1688 C1693 1.425 1_655 S
C1688 C1695 1.409 . S
C1689 H1681 0.930 . S
C1689 C1687 1.419 1_455 S
C1689 C1690 1.362 . S
C1690 H1682 0.930 . S
C1690 C1689 1.362 . S
C1690 C1693 1.409 . S
C1691 H1683 0.930 . S
C1691 C1692 1.355 1_455 S
C1691 C1693 1.415 . S
C1692 C1691 1.355 1_655 S
C1692 C1694 1.419 . S
C1693 C1688 1.425 1_455 S
C1693 C1690 1.409 . S
C1693 C1691 1.415 . S
C1694 H1684 0.930 . S
C1694 C1692 1.419 . S
C1694 C1695 1.362 . S
C1695 H1685 0.930 . S
C1695 C1688 1.409 . S
C1695 C1694 1.362 . S
H1696 C1702 0.930 . S
H1697 C1705 0.930 . S
H1698 C1706 0.930 . S
H1699 C1707 0.930 . S
H1700 C1710 0.930 . S
H1701 C1711 0.930 . S
C1702 H1696 0.930 . S
C1702 C1703 1.355 . S
C1702 C1704 1.415 . S
C1703 C1702 1.355 . S
C1703 C1705 1.419 . S
C1704 C1702 1.415 . S
C1704 C1709 1.425 . S
C1704 C1711 1.409 . S
C1705 H1697 0.930 . S
C1705 C1703 1.419 . S
C1705 C1706 1.362 . S
C1706 H1698 0.930 . S
C1706 C1705 1.362 . S
C1706 C1709 1.409 . S
C1707 H1699 0.930 . S
C1707 C1708 1.355 . S
C1707 C1709 1.415 . S
C1708 C1707 1.355 . S
C1708 C1710 1.419 . S
C1709 C1704 1.425 . S
C1709 C1706 1.409 . S
C1709 C1707 1.415 . S
C1710 H1700 0.930 . S
C1710 C1708 1.419 . S
C1710 C1711 1.362 . S
C1711 H1701 0.930 . S
C1711 C1704 1.409 . S
C1711 C1710 1.362 . S
H1712 C1718 0.930 . S
H1713 C1721 0.930 . S
H1714 C1722 0.930 1_565 S
H1715 C1723 0.935 1_565 S
H1716 C1726 0.930 . S
H1717 C1727 0.930 . S
C1718 H1712 0.930 . S
C1718 C1719 1.355 . S
C1718 C1720 1.415 . S
C1719 C1718 1.355 . S
C1719 C1721 1.419 . S
C1720 C1718 1.415 . S
C1720 C1725 1.425 . S
C1720 C1727 1.409 . S
C1721 H1713 0.930 . S
C1721 C1719 1.419 . S
C1721 C1722 1.362 . S
C1722 H1714 0.930 1_545 S
C1722 C1721 1.362 . S
C1722 C1725 1.409 . S
C1723 H1715 0.935 1_545 S
C1723 C1724 1.360 . S
C1723 C1725 1.405 . S
C1724 C1723 1.360 . S
C1724 C1726 1.419 . S
C1725 C1720 1.425 . S
C1725 C1722 1.409 . S
C1725 C1723 1.405 . S
C1726 H1716 0.930 . S
C1726 C1724 1.419 . S
C1726 C1727 1.362 . S
C1727 H1717 0.930 . S
C1727 C1720 1.409 . S
C1727 C1726 1.362 . S
C583 C9 1.506 1_655 S
C588 C421 1.540 . S
C599 C19 1.559 . S
C604 C446 1.542 . S
C620 C457 1.533 . S
C615 C33 1.553 . S
C631 C37 1.544 . S
C636 C482 1.523 . S
C647 C5 1.514 . S
C652 C500 1.499 . S
C663 C23 1.590 . S
C668 C511 1.518 . S
C679 C47 1.528 . S
C684 C493 1.511 . S
C700 C518 1.536 . S
C695 C65 1.556 . S
C716 C475 1.519 . S
C711 C75 1.526 . S
C727 C79 1.511 . S
C732 C464 1.447 . S
C748 C428 1.489 1_655 S
C743 C51 1.560 1_655 S
C759 C61 1.535 . S
C764 C439 1.508 . S
C775 C93 1.646 . S
C780 C529 1.613 . S
C791 C103 1.604 . S
C796 C554 1.593 . S
C812 C565 1.612 . S
C807 C117 1.635 . S
C823 C121 1.604 . S
C828 C266 1.599 . S
C839 C89 1.589 . S
C844 C284 1.545 . S
C855 C107 1.618 . S
C860 C295 1.544 . S
C871 C131 1.550 . S
C876 C277 1.529 . S
C887 C149 1.591 . S
C892 C302 1.542 . S
C908 C259 1.513 . S
C903 C159 1.547 . S
C924 C572 1.560 . S
C919 C163 1.581 . S
C940 C536 1.547 . S
C935 C135 1.596 . S
C956 C547 1.579 . S
C951 C145 1.587 . S
C967 C177 1.597 . S
C972 C313 1.573 . S
C983 C187 1.584 . S
C988 C338 1.568 . S
C999 C201 1.636 . S
C1004 C349 1.608 . S
C1015 C205 1.642 . S
C1020 C374 1.633 . S
C1036 C392 1.589 . S
C1031 C173 1.609 . S
C1052 C403 1.583 . S
C1047 C191 1.625 . S
C1068 C385 1.587 . S
C1063 C215 1.603 . S
C1084 C410 1.560 . S
C1079 C233 1.609 . S
C1095 C243 1.569 . S
C1100 C367 1.559 . S
C1116 C356 1.533 . S
C1111 C247 1.536 . S
C1127 C219 1.598 . S
C1132 C320 1.598 . S
C1148 C331 1.527 . S
C1143 C229 1.557 . S
C1164 C268 1.388 . S
C1159 C11 1.483 . S
C1175 C14 1.472 . S
C1180 C286 1.386 . S
C1196 C296 1.454 . S
C1191 C28 1.540 . S
C1212 C314 1.452 . S
C1207 C39 1.531 . S
C1228 C340 1.416 . S
C1223 C0 1.508 . S
C1244 C350 1.320 . S
C1239 C25 1.428 . S
C1255 C42 1.574 . S
C1260 C358 1.495 . S
C1271 C67 1.502 . S
C1276 C322 1.447 . S
C1287 C70 1.492 . S
C1292 C332 1.440 . S
C1303 C81 1.506 . S
C1308 C278 1.393 . S
C1324 C304 1.441 . S
C1319 C53 1.544 . S
C1335 C56 1.520 . S
C1340 C260 1.400 . S
C1356 C376 1.442 . S
C1351 C95 1.491 . S
C1367 C98 1.508 . S
C1372 C394 1.483 . S
C1383 C112 1.572 . S
C1388 C404 1.460 . S
C1404 C422 1.370 . S
C1399 C123 1.463 . S
C1415 C84 1.479 . S
C1420 C448 1.400 . S
C1431 C109 1.415 . S
C1436 C458 1.404 . S
C1447 C126 1.480 . S
C1452 C466 1.493 1_545 S
C1463 C151 1.444 . S
C1468 C430 1.406 1_655 S
C1484 C440 1.385 . S
C1479 C154 1.506 . S
C1495 C165 1.501 . S
C1500 C386 1.430 . S
C1511 C137 1.578 . S
C1516 C412 1.497 . S
C1532 C368 1.518 . S
C1527 C140 1.565 . S
C1548 C484 1.351 . S
C1543 C179 1.447 . S
C1559 C182 1.451 . S
C1564 C502 1.429 . S
C1575 C196 1.539 . S
C1580 C512 1.450 . S
C1596 C530 1.447 . S
C1591 C207 1.506 . S
C1612 C556 1.450 . S
C1607 C168 1.540 . S
C1623 C193 1.507 . S
C1628 C566 1.460 . S
C1639 C210 1.564 . S
C1644 C574 1.514 . S
C1655 C235 1.561 . S
C1660 C538 1.421 . S
C1676 C548 1.409 . S
C1671 C238 1.536 . S
C1692 C494 1.320 1_655 S
C1687 C249 1.435 . S
C1708 C520 1.398 . S
C1703 C221 1.533 . S
C1719 C224 1.484 . S
C1724 C476 1.376 1_545 S
