# Generated by pormake.
# Topology nom, (4,4)-cn, num edge types: 1
# Building blocks:
#     Node 0, Type 0, BuildingBlock: MUDLON_clean_linker_0, # of connection points: 4
#     Node 1, Type 0, BuildingBlock: MUDLON_clean_linker_0, # of connection points: 4
#     Node 2, Type 0, BuildingBlock: MUDLON_clean_linker_0, # of connection points: 4
#     Node 3, Type 0, BuildingBlock: MUDLON_clean_linker_0, # of connection points: 4
#     Node 4, Type 0, BuildingBlock: MUDLON_clean_linker_0, # of connection points: 4
#     Node 5, Type 0, BuildingBlock: MUDLON_clean_linker_0, # of connection points: 4
#     Node 6, Type 1, BuildingBlock: AZAVOO_clean_sbu_0, # of connection points: 4
#     Node 7, Type 1, BuildingBlock: AZAVOO_clean_sbu_0, # of connection points: 4
#     Node 8, Type 1, BuildingBlock: AZAVOO_clean_sbu_0, # of connection points: 4
#     Node 9, Type 1, BuildingBlock: AZAVOO_clean_sbu_0, # of connection points: 4
#     Node 10, Type 1, BuildingBlock: AZAVOO_clean_sbu_0, # of connection points: 4
#     Node 11, Type 1, BuildingBlock: AZAVOO_clean_sbu_0, # of connection points: 4
#     Edge 12, Type (0, 1), BuildingBlock: XUDNAN_clean_linker_2, # of connection points: 2
#     Edge 13, Type (0, 1), BuildingBlock: XUDNAN_clean_linker_2, # of connection points: 2
#     Edge 14, Type (0, 1), BuildingBlock: XUDNAN_clean_linker_2, # of connection points: 2
#     Edge 15, Type (0, 1), BuildingBlock: XUDNAN_clean_linker_2, # of connection points: 2
#     Edge 16, Type (0, 1), BuildingBlock: XUDNAN_clean_linker_2, # of connection points: 2
#     Edge 17, Type (0, 1), BuildingBlock: XUDNAN_clean_linker_2, # of connection points: 2
#     Edge 18, Type (0, 1), BuildingBlock: XUDNAN_clean_linker_2, # of connection points: 2
#     Edge 19, Type (0, 1), BuildingBlock: XUDNAN_clean_linker_2, # of connection points: 2
#     Edge 20, Type (0, 1), BuildingBlock: XUDNAN_clean_linker_2, # of connection points: 2
#     Edge 21, Type (0, 1), BuildingBlock: XUDNAN_clean_linker_2, # of connection points: 2
#     Edge 22, Type (0, 1), BuildingBlock: XUDNAN_clean_linker_2, # of connection points: 2
#     Edge 23, Type (0, 1), BuildingBlock: XUDNAN_clean_linker_2, # of connection points: 2
#     Edge 24, Type (0, 1), BuildingBlock: XUDNAN_clean_linker_2, # of connection points: 2
#     Edge 25, Type (0, 1), BuildingBlock: XUDNAN_clean_linker_2, # of connection points: 2
#     Edge 26, Type (0, 1), BuildingBlock: XUDNAN_clean_linker_2, # of connection points: 2
#     Edge 27, Type (0, 1), BuildingBlock: XUDNAN_clean_linker_2, # of connection points: 2
#     Edge 28, Type (0, 1), BuildingBlock: XUDNAN_clean_linker_2, # of connection points: 2
#     Edge 29, Type (0, 1), BuildingBlock: XUDNAN_clean_linker_2, # of connection points: 2
#     Edge 30, Type (0, 1), BuildingBlock: XUDNAN_clean_linker_2, # of connection points: 2
#     Edge 31, Type (0, 1), BuildingBlock: XUDNAN_clean_linker_2, # of connection points: 2
#     Edge 32, Type (0, 1), BuildingBlock: XUDNAN_clean_linker_2, # of connection points: 2
#     Edge 33, Type (0, 1), BuildingBlock: XUDNAN_clean_linker_2, # of connection points: 2
#     Edge 34, Type (0, 1), BuildingBlock: XUDNAN_clean_linker_2, # of connection points: 2
#     Edge 35, Type (0, 1), BuildingBlock: XUDNAN_clean_linker_2, # of connection points: 2
# Relax obj value: 0.035
# Max RMSD: 0.157
# Mean RMSD: 0.120
data_MOF--net-nom--node1-AZAVOO_clean_sbu_0--node2-MUDLON_clean_linker_0--edge1-XUDNAN_clean_linker_2
_symmetry_space_group_name_H-M    P1
_symmetry_Int_Tables_number       1
_symmetry_cell_setting            triclinic
loop_
_symmetry_equiv_pos_as_xyz
'x, y, z'
_cell_length_a     60.353173
_cell_length_b     61.432373
_cell_length_c     58.605318
_cell_angle_alpha  91.266794
_cell_angle_beta   90.713558
_cell_angle_gamma 120.3201
loop_
_atom_site_label
_atom_site_type_symbol
_atom_site_fract_x
_atom_site_fract_y
_atom_site_fract_z
_atom_type_partial_charge
H0 H 0.11596 0.54308 0.29896 0.0
N1 N 0.10256 0.55214 0.33941 0.0
H2 H 0.14231 0.57386 0.27075 0.0
H3 H 0.12105 0.60304 0.34243 0.0
H4 H 0.14803 0.63407 0.31451 0.0
H5 H 0.14135 0.54774 0.35563 0.0
H6 H 0.16059 0.55835 0.39435 0.0
H7 H 0.08777 0.57122 0.37535 0.0
H8 H 0.10644 0.58119 0.41397 0.0
H9 H 0.07324 0.50288 0.33109 0.0
H10 H 0.07023 0.57124 0.33873 0.0
H11 H 0.02686 0.47896 0.3224 0.0
H12 H 0.02363 0.54724 0.33095 0.0
H13 H 0.89167 0.40349 0.28709 0.0
H14 H 0.87307 0.38981 0.24851 0.0
H15 H 0.8962 0.46683 0.23334 0.0
H16 H 0.91473 0.4803 0.27217 0.0
H17 H 0.91325 0.49409 0.31222 0.0
H18 H 0.87955 0.49936 0.32886 0.0
H19 H 0.83554 0.41887 0.33947 0.0
H20 H 0.87092 0.41477 0.32556 0.0
H21 H 0.95263 0.45611 0.27941 0.0
H22 H 0.99833 0.48191 0.28808 0.0
H23 H 0.9826 0.50714 0.35175 0.0
N24 N 0.91299 0.44951 0.30607 0.0
H25 H 0.93674 0.48064 0.34387 0.0
C26 C 0.11686 0.57077 0.32282 0.0
C27 C 0.12267 0.56289 0.30229 0.0
C28 C 0.13758 0.58044 0.28622 0.0
C29 C 0.14721 0.60631 0.29051 0.0
C30 C 0.14095 0.61423 0.31089 0.0
C31 C 0.12559 0.59655 0.32682 0.0
C32 C 0.11282 0.55814 0.36257 0.0
C33 C 0.13365 0.55502 0.36832 0.0
C34 C 0.14473 0.56127 0.39033 0.0
C35 C 0.13493 0.57051 0.40713 0.0
C36 C 0.11419 0.57387 0.40137 0.0
C37 C 0.10341 0.56803 0.37924 0.0
C38 C 0.07507 0.53865 0.33591 0.0
C39 C 0.06246 0.51261 0.33122 0.0
C40 C 0.0361 0.49906 0.32616 0.0
C41 C 0.02178 0.51131 0.32605 0.0
C42 C 0.03428 0.53738 0.33111 0.0
C43 C 0.06082 0.55104 0.33567 0.0
C44 C 0.90459 0.44279 0.28245 0.0
C45 C 0.893 0.41741 0.27531 0.0
C46 C 0.88242 0.40969 0.25327 0.0
C47 C 0.88314 0.42724 0.23785 0.0
C48 C 0.89509 0.45283 0.24491 0.0
C49 C 0.90582 0.46058 0.26701 0.0
C50 C 0.89486 0.45404 0.31814 0.0
C51 C 0.89669 0.47779 0.31891 0.0
C52 C 0.87697 0.48061 0.32808 0.0
C53 C 0.85419 0.45952 0.33541 0.0
C54 C 0.85271 0.43585 0.33472 0.0
C55 C 0.87293 0.43331 0.32655 0.0
C56 C 0.94037 0.46736 0.31007 0.0
C57 C 0.95861 0.46765 0.29499 0.0
C58 C 0.98493 0.48223 0.30002 0.0
C59 C 0.99391 0.49683 0.32036 0.0
C60 C 0.9761 0.49652 0.33566 0.0
C61 C 0.94971 0.48148 0.3309 0.0
H62 H 0.49042 0.90061 0.45253 0.0
N63 N 0.47785 0.93603 0.45118 0.0
H64 H 0.46834 0.86092 0.47208 0.0
H65 H 0.44257 0.92495 0.48505 0.0
H66 H 0.42137 0.88603 0.50571 0.0
H67 H 0.4265 0.91244 0.44041 0.0
H68 H 0.40644 0.89072 0.40422 0.0
H69 H 0.50135 0.94172 0.4119 0.0
H70 H 0.48149 0.92135 0.37501 0.0
H71 H 0.5251 0.97335 0.46062 0.0
H72 H 0.44629 0.95535 0.45894 0.0
H73 H 0.53894 0.01681 0.47226 0.0
H74 H 0.45952 0.99816 0.47234 0.0
H75 H 0.58163 0.1321 0.51772 0.0
H76 H 0.5992 0.14739 0.55624 0.0
H77 H 0.52426 0.13003 0.57854 0.0
H78 H 0.50659 0.11438 0.53973 0.0
H79 H 0.5173 0.14601 0.49153 0.0
H80 H 0.53799 0.18057 0.46513 0.0
H81 H 0.59459 0.15896 0.45117 0.0
H82 H 0.57305 0.12385 0.47697 0.0
H83 H 0.55582 0.08642 0.51324 0.0
H84 H 0.54164 0.04332 0.50164 0.0
H85 H 0.4786 0.03989 0.46255 0.0
N86 N 0.53172 0.11342 0.50308 0.0
H87 H 0.49196 0.08282 0.47585 0.0
C88 C 0.46838 0.91591 0.46721 0.0
C89 C 0.47578 0.89777 0.46457 0.0
C90 C 0.46307 0.87502 0.47584 0.0
C91 C 0.44276 0.86997 0.4904 0.0
C92 C 0.43646 0.88891 0.49422 0.0
C93 C 0.44894 0.91153 0.4826 0.0
C94 C 0.46551 0.92833 0.42891 0.0
C95 C 0.43861 0.91486 0.42611 0.0
C96 C 0.42714 0.90249 0.40528 0.0
C97 C 0.44233 0.90376 0.38674 0.0
C98 C 0.46919 0.91926 0.38909 0.0
C99 C 0.48061 0.93124 0.41003 0.0
C100 C 0.48475 0.96103 0.45933 0.0
C101 C 0.51076 0.97874 0.46326 0.0
C102 C 0.51857 0.00357 0.47009 0.0
C103 C 0.50041 0.01123 0.47354 0.0
C104 C 0.4742 0.99326 0.46962 0.0
C105 C 0.46648 0.96853 0.46229 0.0
C106 C 0.5426 0.12179 0.52587 0.0
C107 C 0.56886 0.13137 0.53083 0.0
C108 C 0.57891 0.14007 0.55291 0.0
C109 C 0.56307 0.13984 0.57037 0.0
C110 C 0.53691 0.13053 0.56536 0.0
C111 C 0.52678 0.12146 0.54331 0.0
C112 C 0.5436 0.13245 0.48623 0.0
C113 C 0.53402 0.14865 0.48255 0.0
C114 C 0.54606 0.16854 0.46766 0.0
C115 C 0.56818 0.17278 0.45619 0.0
C116 C 0.57751 0.15616 0.45957 0.0
C117 C 0.56531 0.13615 0.47441 0.0
C118 C 0.52469 0.08803 0.49574 0.0
C119 C 0.53881 0.07657 0.5024 0.0
C120 C 0.53076 0.0517 0.49543 0.0
C121 C 0.50884 0.03779 0.48109 0.0
C122 C 0.49518 0.04958 0.47401 0.0
C123 C 0.50294 0.07427 0.4814 0.0
H124 H 0.48921 0.6247 0.64806 0.0
N125 N 0.49868 0.58783 0.65617 0.0
H126 H 0.45391 0.62239 0.62559 0.0
H127 H 0.46483 0.54776 0.62777 0.0
H128 H 0.43088 0.54591 0.6038 0.0
H129 H 0.45317 0.55419 0.67508 0.0
H130 H 0.43998 0.55642 0.71378 0.0
H131 H 0.52742 0.61964 0.69001 0.0
H132 H 0.51467 0.62166 0.7292 0.0
H133 H 0.5422 0.60441 0.63418 0.0
H134 H 0.48233 0.53838 0.66553 0.0
H135 H 0.56419 0.58128 0.62445 0.0
H136 H 0.50445 0.5154 0.65651 0.0
H137 H 0.62063 0.51691 0.58067 0.0
H138 H 0.6196 0.49758 0.54339 0.0
H139 H 0.5495 0.43034 0.56097 0.0
H140 H 0.55111 0.4494 0.59819 0.0
H141 H 0.55419 0.45548 0.63979 0.0
H142 H 0.56148 0.42506 0.65973 0.0
H143 H 0.64263 0.47004 0.64734 0.0
H144 H 0.63504 0.50009 0.62695 0.0
H145 H 0.61021 0.54157 0.63203 0.0
H146 H 0.5878 0.564 0.64278 0.0
H147 H 0.51525 0.49741 0.6243 0.0
N148 N 0.5901 0.49488 0.61531 0.0
H149 H 0.53771 0.47508 0.6142 0.0
C150 C 0.4799 0.58658 0.63977 0.0
C151 C 0.47669 0.60756 0.63818 0.0
C152 C 0.45652 0.60621 0.6251 0.0
C153 C 0.43923 0.58388 0.61278 0.0
C154 C 0.44333 0.56326 0.61341 0.0
C155 C 0.46313 0.56441 0.627 0.0
C156 C 0.4913 0.58695 0.67962 0.0
C157 C 0.46682 0.56879 0.68685 0.0
C158 C 0.45936 0.57001 0.70909 0.0
C159 C 0.47623 0.5893 0.72462 0.0
C160 C 0.50107 0.60679 0.71758 0.0
C161 C 0.50847 0.6056 0.69529 0.0
C162 C 0.5108 0.57333 0.65068 0.0
C163 C 0.5339 0.58497 0.63905 0.0
C164 C 0.54649 0.57176 0.63367 0.0
C165 C 0.53617 0.54651 0.63984 0.0
C166 C 0.51283 0.53475 0.65135 0.0
C167 C 0.50025 0.54799 0.65671 0.0
C168 C 0.58601 0.48479 0.59221 0.0
C169 C 0.60474 0.49825 0.57618 0.0
C170 C 0.60408 0.48716 0.55491 0.0
C171 C 0.5846 0.4623 0.54932 0.0
C172 C 0.565 0.44936 0.56491 0.0
C173 C 0.56572 0.46044 0.58617 0.0
C174 C 0.59416 0.48004 0.63171 0.0
C175 C 0.57362 0.45916 0.64182 0.0
C176 C 0.57782 0.44175 0.65327 0.0
C177 C 0.60257 0.44493 0.65473 0.0
C178 C 0.62327 0.46682 0.64609 0.0
C179 C 0.61905 0.48414 0.63469 0.0
C180 C 0.57581 0.50677 0.62224 0.0
C181 C 0.58946 0.53184 0.63046 0.0
C182 C 0.57663 0.54464 0.63641 0.0
C183 C 0.54972 0.53257 0.63423 0.0
C184 C 0.53596 0.50721 0.62637 0.0
C185 C 0.54886 0.49441 0.62045 0.0
H186 H 0.12125 0.60218 0.80465 0.0
N187 N 0.0893 0.55447 0.78691 0.0
H188 H 0.15649 0.6145 0.83198 0.0
H189 H 0.09766 0.5239 0.81229 0.0
H190 H 0.13189 0.53585 0.84109 0.0
H191 H 0.10382 0.53428 0.7543 0.0
H192 H 0.12556 0.5537 0.71926 0.0
H193 H 0.09741 0.59939 0.77119 0.0
H194 H 0.12081 0.61996 0.7369 0.0
H195 H 0.07233 0.58114 0.81177 0.0
H196 H 0.0479 0.51298 0.77142 0.0
H197 H 0.02765 0.56656 0.8213 0.0
H198 H 0.00318 0.49878 0.77971 0.0
H199 H 0.87288 0.49696 0.85326 0.0
H200 H 0.86129 0.48756 0.89307 0.0
H201 H 0.9249 0.47492 0.90344 0.0
H202 H 0.93549 0.48294 0.86377 0.0
H203 H 0.89151 0.44249 0.84005 0.0
H204 H 0.85785 0.40519 0.81982 0.0
H205 H 0.84687 0.45249 0.77298 0.0
H206 H 0.88074 0.49012 0.79368 0.0
H207 H 0.94135 0.53944 0.82079 0.0
H208 H 0.98559 0.5568 0.80812 0.0
H209 H 0.97698 0.48269 0.81159 0.0
N210 N 0.90792 0.49182 0.83062 0.0
H211 H 0.9332 0.46563 0.82331 0.0
C212 C 0.10725 0.56207 0.80596 0.0
C213 C 0.12334 0.58757 0.81256 0.0
C214 C 0.14339 0.59458 0.82853 0.0
C215 C 0.14745 0.57622 0.83857 0.0
C216 C 0.12988 0.55059 0.83326 0.0
C217 C 0.11015 0.54366 0.81698 0.0
C218 C 0.09958 0.5656 0.76544 0.0
C219 C 0.10716 0.55282 0.75033 0.0
C220 C 0.1198 0.5641 0.73047 0.0
C221 C 0.12559 0.58872 0.72551 0.0
C222 C 0.11672 0.60102 0.74015 0.0
C223 C 0.1036 0.58943 0.75989 0.0
C224 C 0.0633 0.54777 0.79128 0.0
C225 C 0.05729 0.56316 0.80478 0.0
C226 C 0.03171 0.55488 0.81002 0.0
C227 C 0.0118 0.53127 0.80157 0.0
C228 C 0.01801 0.51669 0.78706 0.0
C229 C 0.04349 0.52482 0.78213 0.0
C230 C 0.90489 0.49061 0.85515 0.0
C231 C 0.88458 0.49261 0.86426 0.0
C232 C 0.87807 0.48732 0.88709 0.0
C233 C 0.89199 0.48018 0.90147 0.0
C234 C 0.91338 0.47978 0.89274 0.0
C235 C 0.91963 0.48467 0.86985 0.0
C236 C 0.88868 0.46926 0.81838 0.0
C237 C 0.88208 0.44497 0.82535 0.0
C238 C 0.86289 0.42357 0.81363 0.0
C239 C 0.84976 0.42586 0.7947 0.0
C240 C 0.85653 0.45012 0.78758 0.0
C241 C 0.87588 0.47159 0.7993 0.0
C242 C 0.93376 0.50127 0.82286 0.0
C243 C 0.94907 0.52701 0.81859 0.0
C244 C 0.97436 0.53689 0.81152 0.0
C245 C 0.98484 0.52113 0.80867 0.0
C246 C 0.96943 0.49533 0.81302 0.0
C247 C 0.94421 0.48548 0.81986 0.0
H248 H 0.50185 0.12614 0.01717 0.0
N249 N 0.51005 0.10876 0.97799 0.0
H250 H 0.5327 0.16316 0.0404 0.0
H251 H 0.56158 0.13911 0.97037 0.0
H252 H 0.59187 0.17639 0.99253 0.0
H253 H 0.53588 0.09961 0.9443 0.0
H254 H 0.53942 0.11208 0.90481 0.0
H255 H 0.48667 0.13026 0.95754 0.0
H256 H 0.49076 0.14355 0.91795 0.0
H257 H 0.4662 0.06496 0.97573 0.0
H258 H 0.54733 0.09727 0.98986 0.0
H259 H 0.45992 0.02268 0.9797 0.0
H260 H 0.54107 0.05554 0.99504 0.0
H261 H 0.4427 0.90625 0.01652 0.0
H262 H 0.43289 0.88928 0.05437 0.0
H263 H 0.51283 0.93627 0.07508 0.0
H264 H 0.52272 0.95203 0.03635 0.0
H265 H 0.51055 0.9115 0.98567 0.0
H266 H 0.49094 0.87496 0.95906 0.0
H267 H 0.42534 0.88471 0.94984 0.0
H268 H 0.44537 0.9215 0.976 0.0
H269 H 0.45476 0.95237 0.01058 0.0
H270 H 0.45949 0.9938 0.00586 0.0
H271 H 0.53237 0.01895 0.9739 0.0
N272 N 0.49057 0.93879 0.00051 0.0
H273 H 0.52801 0.97773 0.9799 0.0
C274 C 0.52914 0.12988 0.99191 0.0
C275 C 0.52158 0.13694 0.01193 0.0
C276 C 0.53921 0.1582 0.02507 0.0
C277 C 0.56483 0.1729 0.01836 0.0
C278 C 0.57247 0.1654 0.99852 0.0
C279 C 0.55495 0.14411 0.98556 0.0
C280 C 0.51085 0.11395 0.95398 0.0
C281 C 0.52553 0.10874 0.93868 0.0
C282 C 0.52772 0.11607 0.91608 0.0
C283 C 0.51548 0.12893 0.90825 0.0
C284 C 0.50017 0.1334 0.92334 0.0
C285 C 0.49792 0.12597 0.94598 0.0
C286 C 0.50705 0.08441 0.9827 0.0
C287 C 0.48255 0.06295 0.98013 0.0
C288 C 0.47902 0.03881 0.98247 0.0
C289 C 0.50001 0.0356 0.98762 0.0
C290 C 0.52452 0.05719 0.99064 0.0
C291 C 0.52808 0.08127 0.98801 0.0
C292 C 0.48369 0.93 0.0234 0.0
C293 C 0.45819 0.91287 0.02908 0.0
C294 C 0.45252 0.90343 0.05099 0.0
C295 C 0.47208 0.91125 0.06787 0.0
C296 C 0.49735 0.92939 0.06242 0.0
C297 C 0.50306 0.93854 0.04036 0.0
C298 C 0.47958 0.91928 0.98278 0.0
C299 C 0.49214 0.90595 0.97756 0.0
C300 C 0.48077 0.88494 0.96257 0.0
C301 C 0.45644 0.87674 0.95249 0.0
C302 C 0.4442 0.89064 0.95713 0.0
C303 C 0.45564 0.91172 0.97213 0.0
C304 C 0.49134 0.96211 0.99588 0.0
C305 C 0.47176 0.96678 0.00258 0.0
C306 C 0.47442 0.99051 -0.0003 0.0
C307 C 0.49649 0.00993 0.98975 0.0
C308 C 0.51544 0.00473 0.98219 0.0
C309 C 0.5129 0.98112 0.98534 0.0
H310 H 0.51592 0.41198 0.13588 0.0
N311 N 0.51489 0.45085 0.15511 0.0
H312 H 0.55342 0.41086 0.12218 0.0
H313 H 0.56238 0.4923 0.14834 0.0
H314 H 0.59997 0.49143 0.13455 0.0
H315 H 0.55345 0.47385 0.18766 0.0
H316 H 0.55366 0.45834 0.22507 0.0
H317 H 0.47423 0.41613 0.17668 0.0
H318 H 0.47318 0.40187 0.21544 0.0
H319 H 0.4758 0.4394 0.12693 0.0
H320 H 0.53332 0.49975 0.16995 0.0
H321 H 0.45631 0.46478 0.11853 0.0
H322 H 0.51491 0.52614 0.1607 0.0
H323 H 0.38144 0.53134 0.09888 0.0
H324 H 0.37981 0.55066 0.06325 0.0
H325 H 0.46196 0.60091 0.06854 0.0
H326 H 0.46334 0.58144 0.1042 0.0
H327 H 0.45195 0.59335 0.13976 0.0
H328 H 0.44046 0.61559 0.16747 0.0
H329 H 0.37349 0.54492 0.18448 0.0
H330 H 0.38415 0.52326 0.15491 0.0
H331 H 0.43244 0.5174 0.0948 0.0
H332 H 0.45928 0.49882 0.09963 0.0
H333 H 0.47879 0.52993 0.16867 0.0
N334 N 0.42224 0.54381 0.12566 0.0
H335 H 0.45354 0.55004 0.16333 0.0
C336 C 0.53622 0.4521 0.14312 0.0
C337 C 0.53408 0.42947 0.13504 0.0
C338 C 0.55555 0.4289 0.12724 0.0
C339 C 0.57975 0.45104 0.12746 0.0
C340 C 0.58165 0.474 0.13446 0.0
C341 C 0.56007 0.47456 0.14215 0.0
C342 C 0.51402 0.44549 0.17901 0.0
C343 C 0.53584 0.45813 0.19352 0.0
C344 C 0.53574 0.44937 0.21531 0.0
C345 C 0.51351 0.42835 0.22346 0.0
C346 C 0.49097 0.41744 0.20961 0.0
C347 C 0.49137 0.42574 0.18752 0.0
C348 C 0.50603 0.46772 0.14879 0.0
C349 C 0.48458 0.45846 0.13407 0.0
C350 C 0.4736 0.47315 0.1292 0.0
C351 C 0.48408 0.49772 0.13879 0.0
C352 C 0.50613 0.50726 0.15317 0.0
C353 C 0.51692 0.49232 0.15826 0.0
C354 C 0.42239 0.55492 0.10414 0.0
C355 C 0.39907 0.5464 0.09221 0.0
C356 C 0.39822 0.5574 0.07187 0.0
C357 C 0.42077 0.57733 0.0631 0.0
C358 C 0.44424 0.58579 0.07501 0.0
C359 C 0.44507 0.57464 0.09532 0.0
C360 C 0.41839 0.5567 0.14476 0.0
C361 C 0.43477 0.58265 0.14939 0.0
C362 C 0.4283 0.59532 0.16566 0.0
C363 C 0.40571 0.58224 0.17821 0.0
C364 C 0.39056 0.55587 0.17475 0.0
C365 C 0.39673 0.54334 0.15803 0.0
C366 C 0.44096 0.53571 0.12837 0.0
C367 C 0.44309 0.52096 0.11078 0.0
C368 C 0.45821 0.50994 0.11371 0.0
C369 C 0.47103 0.51251 0.13467 0.0
C370 C 0.46953 0.52775 0.15216 0.0
C371 C 0.45477 0.53925 0.14908 0.0
Mg372 Mg 0.62327 0.37305 0.36068 0.0
O373 O 0.61567 0.38922 0.39333 0.0
O374 O 0.62102 0.42702 0.38557 0.0
Mg375 Mg 0.63076 0.43453 0.34795 0.0
C376 C 0.61582 0.4094 0.39941 0.0
C377 C 0.6295 0.32708 0.36992 0.0
O378 O 0.63494 0.33061 0.34819 0.0
O379 O 0.66652 0.40045 0.36514 0.0
O380 O 0.6693 0.43642 0.35442 0.0
O381 O 0.582 0.355 0.34973 0.0
O382 O 0.61161 0.3936 0.34104 0.0
C383 C 0.67979 0.42384 0.36068 0.0
C384 C 0.58783 0.37601 0.34028 0.0
O385 O 0.62491 0.34246 0.38076 0.0
Mg386 Mg 0.28809 0.65823 0.57901 0.0
O387 O 0.25555 0.63504 0.55195 0.0
O388 O 0.22815 0.59942 0.5691 0.0
Mg389 Mg 0.24329 0.59819 0.60454 0.0
C390 C 0.2346 0.61375 0.55202 0.0
C391 C 0.31288 0.70604 0.54835 0.0
O392 O 0.29376 0.70832 0.556 0.0
O393 O 0.30604 0.63366 0.57258 0.0
O394 O 0.27819 0.5981 0.5894 0.0
O395 O 0.26451 0.67381 0.59412 0.0
O396 O 0.26372 0.63937 0.60521 0.0
C397 C 0.29885 0.61123 0.57859 0.0
C398 C 0.25485 0.65441 0.60697 0.0
O399 O 0.31423 0.68668 0.5533 0.0
Mg400 Mg 0.621 0.2691 0.75286 0.0
O401 O 0.6163 0.24033 0.7246 0.0
O402 O 0.62738 0.21405 0.73994 0.0
Mg403 Mg 0.63784 0.22511 0.77769 0.0
C404 C 0.61971 0.22144 0.72297 0.0
C405 C 0.608 0.30698 0.7316 0.0
O406 O 0.59662 0.30318 0.75128 0.0
O407 O 0.66453 0.28903 0.75102 0.0
O408 O 0.67377 0.26199 0.76756 0.0
O409 O 0.58054 0.24384 0.76315 0.0
O410 O 0.61409 0.24302 0.77759 0.0
C411 C 0.68071 0.28295 0.7581 0.0
C412 C 0.5896 0.23367 0.77674 0.0
O413 O 0.61942 0.29497 0.7266 0.0
Mg414 Mg 0.38241 0.65781 0.87135 0.0
O415 O 0.39058 0.644 0.90489 0.0
O416 O 0.37223 0.60208 0.90082 0.0
Mg417 Mg 0.35479 0.58944 0.8647 0.0
C418 C 0.38493 0.62258 0.91271 0.0
C419 C 0.38605 0.70923 0.87707 0.0
O420 O 0.3729 0.70006 0.85775 0.0
O421 O 0.3404 0.64137 0.88043 0.0
O422 O 0.32425 0.60024 0.87265 0.0
O423 O 0.41875 0.66328 0.85632 0.0
O424 O 0.38153 0.62768 0.85354 0.0
C425 C 0.3214 0.61885 0.87845 0.0
C426 C 0.40567 0.63986 0.84943 0.0
O427 O 0.39305 0.69592 0.88792 0.0
Mg428 Mg 0.74834 0.3971 0.05997 0.0
O429 O 0.77365 0.39502 0.08908 0.0
O430 O 0.78809 0.37071 0.07433 0.0
Mg431 Mg 0.77458 0.35902 0.03726 0.0
C432 C 0.78669 0.38389 0.09083 0.0
C433 C 0.70699 0.40718 0.07559 0.0
O434 O 0.69854 0.39437 0.05607 0.0
O435 O 0.71688 0.35631 0.06515 0.0
O436 O 0.73291 0.33438 0.04849 0.0
O437 O 0.78197 0.43167 0.04634 0.0
O438 O 0.77082 0.39262 0.03602 0.0
C439 C 0.71473 0.33539 0.05848 0.0
C440 C 0.78666 0.41642 0.03458 0.0
O441 O 0.72865 0.41174 0.08362 0.0
Mg442 Mg 0.35831 0.75225 0.20797 0.0
O443 O 0.37261 0.7761 0.24122 0.0
O444 O 0.415 0.79205 0.24426 0.0
Mg445 Mg 0.42801 0.78002 0.21231 0.0
C446 C 0.39409 0.78939 0.25192 0.0
C447 C 0.29851 0.7215 0.20665 0.0
O448 O 0.30296 0.722 0.18472 0.0
O449 O 0.36407 0.7212 0.22233 0.0
O450 O 0.40662 0.73827 0.22172 0.0
O451 O 0.36436 0.78616 0.18937 0.0
O452 O 0.39373 0.77509 0.19349 0.0
C453 C 0.38421 0.71959 0.22502 0.0
C454 C 0.38763 0.79104 0.18621 0.0
O455 O 0.31741 0.7329 0.2207 0.0
H456 H 0.19428 0.64769 0.30009 0.0
H457 H 0.14045 0.60592 0.24427 0.0
H458 H 0.17213 0.63405 0.21667 0.0
H459 H 0.22461 0.71097 0.27447 0.0
H460 H 0.25604 0.71939 0.28554 0.0
H461 H 0.22787 0.6983 0.30093 0.0
H462 H 0.24208 0.66491 0.30032 0.0
H463 H 0.27015 0.68579 0.28484 0.0
H464 H 0.24822 0.65451 0.27335 0.0
H465 H 0.21094 0.66402 0.19514 0.0
H466 H 0.25425 0.69289 0.18113 0.0
H467 H 0.28311 0.7146 0.25108 0.0
C468 C 0.18893 0.64499 0.2821 0.0
C469 C 0.16488 0.62488 0.27425 0.0
C470 C 0.15879 0.62133 0.25055 0.0
C471 C 0.1766 0.63725 0.23481 0.0
C472 C 0.2004 0.6566 0.24306 0.0
C473 C 0.20658 0.66056 0.26616 0.0
C474 C 0.23425 0.68114 0.27045 0.0
C475 C 0.23577 0.70379 0.28362 0.0
C476 C 0.24957 0.67097 0.28297 0.0
C477 C 0.24286 0.68767 0.24615 0.0
C478 C 0.22296 0.67357 0.23061 0.0
C479 C 0.2266 0.67539 0.20714 0.0
C480 C 0.2513 0.69182 0.19935 0.0
C481 C 0.2721 0.70605 0.21499 0.0
C482 C 0.26761 0.70414 0.23867 0.0
H483 H 0.57594 0.22064 0.46268 0.0
H484 H 0.59022 0.17427 0.415 0.0
H485 H 0.61095 0.21008 0.38926 0.0
H486 H 0.55863 0.25049 0.421 0.0
H487 H 0.57333 0.28059 0.43619 0.0
H488 H 0.56178 0.25206 0.45171 0.0
H489 H 0.60685 0.26979 0.47082 0.0
H490 H 0.61857 0.29837 0.45526 0.0
H491 H 0.63448 0.28026 0.4532 0.0
H492 H 0.62764 0.25011 0.36759 0.0
H493 H 0.63802 0.29078 0.35126 0.0
H494 H 0.6119 0.3106 0.41279 0.0
C495 C 0.58339 0.21794 0.44683 0.0
C496 C 0.58145 0.19456 0.44093 0.0
C497 C 0.59179 0.19205 0.42011 0.0
C498 C 0.60353 0.21227 0.40532 0.0
C499 C 0.60485 0.23493 0.4116 0.0
C500 C 0.59505 0.23786 0.43186 0.0
C501 C 0.59775 0.26371 0.43411 0.0
C502 C 0.5713 0.26157 0.43584 0.0
C503 C 0.61547 0.27893 0.45456 0.0
C504 C 0.61013 0.27471 0.41171 0.0
C505 C 0.61431 0.25791 0.39907 0.0
C506 C 0.62464 0.26349 0.37741 0.0
C507 C 0.63047 0.28666 0.36828 0.0
C508 C 0.62584 0.30394 0.38074 0.0
C509 C 0.6159 0.29794 0.40289 0.0
H510 H 0.43373 0.621 0.59192 0.0
H511 H 0.39117 0.54159 0.60804 0.0
H512 H 0.3516 0.5387 0.5932 0.0
H513 H 0.38929 0.63439 0.61326 0.0
H514 H 0.39332 0.65721 0.59246 0.0
H515 H 0.41935 0.65193 0.59902 0.0
H516 H 0.42178 0.64197 0.55623 0.0
H517 H 0.39561 0.64718 0.54954 0.0
H518 H 0.39345 0.61774 0.54119 0.0
H519 H 0.31571 0.54544 0.58291 0.0
H520 H 0.28611 0.56186 0.5797 0.0
H521 H 0.3509 0.63741 0.57218 0.0
C522 C 0.41622 0.60286 0.59205 0.0
C523 C 0.41593 0.58149 0.60104 0.0
C524 C 0.39239 0.55817 0.60072 0.0
C525 C 0.36962 0.55631 0.59238 0.0
C526 C 0.37051 0.57791 0.5844 0.0
C527 C 0.3932 0.60077 0.58415 0.0
C528 C 0.38839 0.62184 0.57772 0.0
C529 C 0.39815 0.64254 0.59675 0.0
C530 C 0.40053 0.63283 0.5548 0.0
C531 C 0.35932 0.60745 0.57555 0.0
C532 C 0.34948 0.58202 0.5789 0.0
C533 C 0.32317 0.56522 0.57983 0.0
C534 C 0.3065 0.57476 0.57806 0.0
C535 C 0.31617 0.60091 0.57558 0.0
C536 C 0.3429 0.61727 0.57355 0.0
H537 H 0.80276 0.41819 0.78065 0.0
H538 H 0.84797 0.38138 0.78371 0.0
H539 H 0.81034 0.34145 0.76968 0.0
H540 H 0.74749 0.36978 0.80136 0.0
H541 H 0.72546 0.37368 0.78326 0.0
H542 H 0.75677 0.40021 0.79008 0.0
H543 H 0.76599 0.4074 0.74701 0.0
H544 H 0.73455 0.3809 0.74001 0.0
H545 H 0.76268 0.38186 0.72876 0.0
H546 H 0.76669 0.30452 0.76107 0.0
H547 H 0.72031 0.27344 0.75731 0.0
H548 H 0.70368 0.33439 0.75814 0.0
C549 C 0.80499 0.40196 0.77762 0.0
C550 C 0.8283 0.4029 0.78327 0.0
C551 C 0.83023 0.38104 0.77968 0.0
C552 C 0.80902 0.35832 0.77155 0.0
C553 C 0.78611 0.35784 0.76679 0.0
C554 C 0.78402 0.37915 0.76943 0.0
C555 C 0.75666 0.37307 0.76502 0.0
C556 C 0.74598 0.37956 0.78619 0.0
C557 C 0.75487 0.38661 0.74394 0.0
C558 C 0.7435 0.34484 0.76045 0.0
C559 C 0.76088 0.33647 0.7613 0.0
C560 C 0.75297 0.31088 0.75983 0.0
C561 C 0.7266 0.29337 0.75779 0.0
C562 C 0.70845 0.30153 0.75716 0.0
C563 C 0.71714 0.32763 0.75799 0.0
H564 H 0.45529 0.83212 0.95939 0.0
H565 H 0.42825 0.86812 0.91268 0.0
H566 H 0.40634 0.8288 0.88888 0.0
H567 H 0.46829 0.79753 0.91662 0.0
H568 H 0.45792 0.77022 0.9338 0.0
H569 H 0.47094 0.80102 0.94732 0.0
H570 H 0.4297 0.78494 0.97074 0.0
H571 H 0.4165 0.75411 0.95722 0.0
H572 H 0.39887 0.77059 0.95605 0.0
H573 H 0.38783 0.7857 0.86999 0.0
H574 H 0.37451 0.74223 0.85702 0.0
H575 H 0.41432 0.73467 0.91585 0.0
C576 C 0.44499 0.83187 0.94404 0.0
C577 C 0.44354 0.85327 0.93789 0.0
C578 C 0.42942 0.85191 0.91787 0.0
C579 C 0.41701 0.8297 0.9042 0.0
C580 C 0.41886 0.809 0.91079 0.0
C581 C 0.43253 0.80991 0.93021 0.0
C582 C 0.43171 0.78511 0.93343 0.0
C583 C 0.45882 0.78869 0.93274 0.0
C584 C 0.41839 0.77297 0.95568 0.0
C585 C 0.41556 0.77013 0.91268 0.0
C586 C 0.40827 0.78422 0.89988 0.0
C587 C 0.39341 0.77448 0.87988 0.0
C588 C 0.38593 0.74974 0.87267 0.0
C589 C 0.39337 0.735 0.8854 0.0
C590 C 0.40828 0.7454 0.90574 0.0
H591 H 0.58553 0.42384 0.09258 0.0
H592 H 0.62636 0.47465 0.15033 0.0
H593 H 0.66381 0.46955 0.14328 0.0
H594 H 0.60721 0.38081 0.10224 0.0
H595 H 0.6099 0.37501 0.0724 0.0
H596 H 0.58695 0.38383 0.0812 0.0
H597 H 0.60686 0.42157 0.05419 0.0
H598 H 0.62974 0.41274 0.04516 0.0
H599 H 0.64077 0.44415 0.05657 0.0
H600 H 0.69599 0.45679 0.13108 0.0
H601 H 0.72106 0.43945 0.11324 0.0
H602 H 0.65873 0.39708 0.06375 0.0
C603 C 0.60239 0.434 0.10369 0.0
C604 C 0.60303 0.44971 0.12196 0.0
C605 C 0.62556 0.46282 0.136 0.0
C606 C 0.64685 0.45989 0.13224 0.0
C607 C 0.64538 0.44388 0.11431 0.0
C608 C 0.62379 0.43135 0.10015 0.0
C609 C 0.62687 0.415 0.08227 0.0
C610 C 0.60653 0.38701 0.08468 0.0
C611 C 0.62602 0.42391 0.05812 0.0
C612 C 0.65345 0.42005 0.08872 0.0
C613 C 0.66385 0.43673 0.10725 0.0
C614 C 0.68809 0.44384 0.11647 0.0
C615 C 0.70214 0.43383 0.10628 0.0
C616 C 0.69191 0.41696 0.08708 0.0
C617 C 0.66718 0.41 0.07835 0.0
H618 H 0.3907 0.8438 0.49812 0.0
H619 H 0.45936 0.83806 0.50494 0.0
H620 H 0.43302 0.79457 0.51783 0.0
H621 H 0.36158 0.81015 0.54935 0.0
H622 H 0.32944 0.7954 0.53725 0.0
H623 H 0.35369 0.82577 0.52775 0.0
H624 H 0.3449 0.80802 0.48603 0.0
H625 H 0.32089 0.77748 0.49544 0.0
H626 H 0.34733 0.78059 0.479 0.0
H627 H 0.39909 0.75122 0.52893 0.0
H628 H 0.36089 0.71305 0.54214 0.0
H629 H 0.31487 0.74815 0.53089 0.0
C630 C 0.40041 0.83369 0.50267 0.0
C631 C 0.42723 0.8445 0.50021 0.0
C632 C 0.43884 0.83017 0.5061 0.0
C633 C 0.42404 0.80543 0.51355 0.0
C634 C 0.39767 0.7953 0.51534 0.0
C635 C 0.38601 0.80911 0.51046 0.0
C636 C 0.35745 0.79413 0.51467 0.0
C637 C 0.35011 0.80714 0.53337 0.0
C638 C 0.34172 0.7898 0.49246 0.0
C639 C 0.35488 0.76972 0.52272 0.0
C640 C 0.37825 0.77067 0.52265 0.0
C641 C 0.38071 0.75031 0.52917 0.0
C642 C 0.35884 0.72864 0.53653 0.0
C643 C 0.33487 0.7276 0.53762 0.0
C644 C 0.3329 0.74835 0.53029 0.0
H645 H 0.58228 0.4164 0.69274 0.0
H646 H 0.63135 0.42696 0.63551 0.0
H647 H 0.63727 0.39229 0.64848 0.0
H648 H 0.61779 0.40234 0.73372 0.0
H649 H 0.58962 0.37891 0.74769 0.0
H650 H 0.58912 0.40454 0.73385 0.0
H651 H 0.54933 0.37246 0.70937 0.0
H652 H 0.54979 0.34673 0.72308 0.0
H653 H 0.55087 0.34843 0.69242 0.0
H654 H 0.63758 0.35631 0.66722 0.0
H655 H 0.63385 0.32251 0.6917 0.0
H656 H 0.5847 0.33524 0.73689 0.0
C657 C 0.59421 0.41136 0.68293 0.0
C658 C 0.60652 0.42452 0.66322 0.0
C659 C 0.62211 0.41746 0.6509 0.0
C660 C 0.62542 0.39765 0.65801 0.0
C661 C 0.61302 0.38505 0.67747 0.0
C662 C 0.59783 0.39166 0.68985 0.0
C663 C 0.58699 0.37525 0.71035 0.0
C664 C 0.59646 0.39122 0.73272 0.0
C665 C 0.5575 0.3598 0.70869 0.0
C666 C 0.59854 0.35847 0.70757 0.0
C667 C 0.61335 0.36435 0.68841 0.0
C668 C 0.62604 0.35152 0.68229 0.0
C669 C 0.62377 0.33232 0.69628 0.0
C670 C 0.60902 0.32623 0.71623 0.0
C671 C 0.59612 0.33943 0.72177 0.0
H672 H 0.17612 0.55306 0.83912 0.0
H673 H 0.17362 0.61721 0.86866 0.0
H674 H 0.21666 0.63303 0.88626 0.0
H675 H 0.21181 0.54559 0.8884 0.0
H676 H 0.22923 0.53655 0.86937 0.0
H677 H 0.19693 0.52876 0.86187 0.0
H678 H 0.21282 0.55137 0.82363 0.0
H679 H 0.2451 0.55945 0.83105 0.0
H680 H 0.23825 0.58392 0.82407 0.0
H681 H 0.26265 0.645 0.89547 0.0
H682 H 0.30631 0.65079 0.89696 0.0
H683 H 0.27684 0.57722 0.86352 0.0
C684 C 0.184 0.56989 0.85003 0.0
C685 C 0.1713 0.58383 0.85242 0.0
C686 C 0.183 0.60629 0.86626 0.0
C687 C 0.20738 0.61533 0.87653 0.0
C688 C 0.21963 0.60146 0.87319 0.0
C689 C 0.20808 0.57897 0.86059 0.0
C690 C 0.22589 0.56851 0.85803 0.0
C691 C 0.21533 0.54336 0.87015 0.0
C692 C 0.2308 0.56567 0.8327 0.0
C693 C 0.2497 0.58918 0.87027 0.0
C694 C 0.24574 0.60796 0.8791 0.0
C695 C 0.26579 0.63013 0.88912 0.0
C696 C 0.29055 0.63329 0.88982 0.0
C697 C 0.29498 0.61435 0.88058 0.0
C698 C 0.27407 0.59183 0.8712 0.0
H699 H 0.61653 0.19202 0.02636 0.0
H700 H 0.55534 0.20808 0.03872 0.0
H701 H 0.58692 0.24955 0.05598 0.0
H702 H 0.6579 0.22713 0.07704 0.0
H703 H 0.68682 0.23826 0.06111 0.0
H704 H 0.65893 0.20814 0.05364 0.0
H705 H 0.66 0.22229 0.01212 0.0
H706 H 0.68781 0.25235 0.01944 0.0
H707 H 0.65956 0.25093 0.00716 0.0
H708 H 0.62582 0.29141 0.0674 0.0
H709 H 0.66843 0.33013 0.07063 0.0
H710 H 0.70407 0.28708 0.04924 0.0
C711 C 0.60964 0.20407 0.03293 0.0
C712 C 0.58333 0.19662 0.0312 0.0
C713 C 0.57525 0.21303 0.0402 0.0
C714 C 0.5931 0.23672 0.04999 0.0
C715 C 0.61896 0.24373 0.05076 0.0
C716 C 0.62718 0.22781 0.04252 0.0
C717 C 0.65619 0.2407 0.04313 0.0
C718 C 0.66551 0.22779 0.05973 0.0
C719 C 0.66648 0.24162 0.01903 0.0
C720 C 0.66306 0.2667 0.05213 0.0
C721 C 0.64137 0.26797 0.0569 0.0
C722 C 0.64295 0.29053 0.06404 0.0
C723 C 0.66728 0.31245 0.06584 0.0
C724 C 0.68967 0.31171 0.06021 0.0
C725 C 0.68741 0.28833 0.05382 0.0
H726 H 0.43525 0.62685 0.20324 0.0
H727 H 0.35601 0.5705 0.18601 0.0
H728 H 0.34161 0.5968 0.20531 0.0
H729 H 0.42338 0.65281 0.25792 0.0
H730 H 0.44705 0.6846 0.25102 0.0
H731 H 0.45101 0.65858 0.24186 0.0
H732 H 0.45467 0.67253 0.19998 0.0
H733 H 0.45083 0.69851 0.20902 0.0
H734 H 0.42938 0.6762 0.1874 0.0
H735 H 0.33587 0.63194 0.21962 0.0
H736 H 0.33965 0.67358 0.22489 0.0
H737 H 0.42258 0.70851 0.23053 0.0
C738 C 0.41482 0.61971 0.20384 0.0
C739 C 0.39689 0.59633 0.1931 0.0
C740 C 0.3703 0.5879 0.19453 0.0
C741 C 0.36184 0.60282 0.20545 0.0
C742 C 0.3801 0.62622 0.21492 0.0
C743 C 0.40608 0.63462 0.21424 0.0
C744 C 0.42193 0.66203 0.22219 0.0
C745 C 0.43671 0.66465 0.24458 0.0
C746 C 0.44025 0.67826 0.20353 0.0
C747 C 0.40087 0.66816 0.22604 0.0
C748 C 0.37685 0.64703 0.22252 0.0
C749 C 0.35455 0.64852 0.22287 0.0
C750 C 0.3569 0.67232 0.22588 0.0
C751 C 0.38143 0.69441 0.22808 0.0
C752 C 0.40354 0.69202 0.22914 0.0
H753 H 0.81401 0.42881 0.36356 0.0
H754 H 0.84131 0.49457 0.32136 0.0
H755 H 0.8025 0.49609 0.32927 0.0
H756 H 0.75209 0.3993 0.34001 0.0
H757 H 0.73621 0.38473 0.36589 0.0
H758 H 0.76861 0.39184 0.36154 0.0
H759 H 0.78322 0.41805 0.39964 0.0
H760 H 0.75079 0.41103 0.4041 0.0
H761 H 0.77666 0.44335 0.40421 0.0
H762 H 0.75923 0.48852 0.3381 0.0
H763 H 0.71301 0.46998 0.34392 0.0
H764 H 0.71092 0.40594 0.37612 0.0
C765 C 0.81215 0.44369 0.35594 0.0
C766 C 0.83145 0.46177 0.342 0.0
C767 C 0.82772 0.48092 0.33278 0.0
C768 C 0.80545 0.4819 0.33703 0.0
C769 C 0.7867 0.46339 0.35023 0.0
C770 C 0.78964 0.44447 0.35936 0.0
C771 C 0.7651 0.42488 0.37022 0.0
C772 C 0.75491 0.39865 0.35872 0.0
C773 C 0.76919 0.42431 0.39608 0.0
C774 C 0.74769 0.43538 0.36505 0.0
C775 C 0.76082 0.458 0.35411 0.0
C776 C 0.74877 0.47092 0.3468 0.0
C777 C 0.72242 0.46017 0.35021 0.0
C778 C 0.7082 0.4364 0.36043 0.0
C779 C 0.72121 0.42415 0.36834 0.0
H780 H 0.18561 0.59848 0.42149 0.0
H781 H 0.10826 0.55392 0.44616 0.0
H782 H 0.12557 0.56085 0.48575 0.0
H783 H 0.21633 0.57768 0.46081 0.0
H784 H 0.24503 0.6081 0.46474 0.0
H785 H 0.22669 0.60002 0.43829 0.0
H786 H 0.22267 0.6399 0.44304 0.0
H787 H 0.24105 0.64814 0.4695 0.0
H788 H 0.20965 0.64489 0.46884 0.0
H789 H 0.15096 0.57029 0.52199 0.0
H790 H 0.18283 0.5843 0.55367 0.0
H791 H 0.24421 0.625 0.50642 0.0
C792 C 0.17239 0.59025 0.43528 0.0
C793 C 0.14559 0.57564 0.43084 0.0
C794 C 0.12881 0.56532 0.44926 0.0
C795 C 0.13847 0.56907 0.47176 0.0
C796 C 0.16495 0.58345 0.47556 0.0
C797 C 0.1817 0.59415 0.45793 0.0
C798 C 0.20932 0.60903 0.46688 0.0
C799 C 0.22528 0.59804 0.4571 0.0
C800 C 0.22138 0.63716 0.46176 0.0
C801 C 0.20544 0.6047 0.49227 0.0
C802 C 0.17967 0.58974 0.49678 0.0
C803 C 0.17118 0.5822 0.51872 0.0
C804 C 0.18947 0.59017 0.53658 0.0
C805 C 0.216 0.60579 0.53253 0.0
C806 C 0.22405 0.61329 0.51005 0.0
H807 H 0.5568 0.17299 0.5978 0.0
H808 H 0.59401 0.1283 0.59539 0.0
H809 H 0.61277 0.14454 0.63408 0.0
H810 H 0.60885 0.22727 0.62698 0.0
H811 H 0.5882 0.23415 0.64381 0.0
H812 H 0.57728 0.21864 0.61613 0.0
H813 H 0.53725 0.18187 0.63417 0.0
H814 H 0.548 0.1973 0.6619 0.0
H815 H 0.54145 0.16544 0.65742 0.0
H816 H 0.62667 0.16488 0.67316 0.0
H817 H 0.63609 0.18906 0.70967 0.0
H818 H 0.59104 0.22177 0.68622 0.0
C819 C 0.56874 0.1665 0.60553 0.0
C820 C 0.57393 0.14934 0.5937 0.0
C821 C 0.58995 0.14155 0.60416 0.0
C822 C 0.6006 0.15061 0.62612 0.0
C823 C 0.59521 0.16759 0.63729 0.0
C824 C 0.57977 0.17557 0.62734 0.0
C825 C 0.57742 0.19432 0.64287 0.0
C826 C 0.58861 0.22012 0.63178 0.0
C827 C 0.54936 0.18412 0.64948 0.0
C828 C 0.59383 0.19551 0.66316 0.0
C829 C 0.6038 0.17985 0.65962 0.0
C830 C 0.61907 0.1773 0.6761 0.0
C831 C 0.62427 0.19109 0.69681 0.0
C832 C 0.6144 0.2074 0.7008 0.0
C833 C 0.59908 0.20966 0.68363 0.0
H834 H 0.48599 0.6331 0.74692 0.0
H835 H 0.4455 0.55184 0.75363 0.0
H836 H 0.42651 0.55641 0.7892 0.0
H837 H 0.49865 0.64957 0.80928 0.0
H838 H 0.49393 0.67613 0.80654 0.0
H839 H 0.50666 0.66663 0.78318 0.0
H840 H 0.47024 0.6627 0.75639 0.0
H841 H 0.45734 0.67204 0.77962 0.0
H842 H 0.43727 0.64265 0.76406 0.0
H843 H 0.40768 0.56936 0.82097 0.0
H844 H 0.39151 0.58987 0.84718 0.0
H845 H 0.44587 0.66281 0.82094 0.0
C846 C 0.47381 0.6163 0.75623 0.0
C847 C 0.46728 0.5921 0.74745 0.0
C848 C 0.45061 0.57057 0.75987 0.0
C849 C 0.43989 0.57299 0.7802 0.0
C850 C 0.44629 0.59709 0.78806 0.0
C851 C 0.4631 0.6184 0.7766 0.0
C852 C 0.46539 0.64197 0.78771 0.0
C853 C 0.49279 0.65962 0.79725 0.0
C854 C 0.45705 0.65562 0.77095 0.0
C855 C 0.44655 0.63052 0.80674 0.0
C856 C 0.43587 0.60461 0.80676 0.0
C857 C 0.41627 0.58967 0.82141 0.0
C858 C 0.40709 0.60146 0.83616 0.0
C859 C 0.41758 0.62792 0.83619 0.0
C860 C 0.43794 0.64261 0.82165 0.0
H861 H 0.87011 0.49762 0.93267 0.0
H862 H 0.89188 0.44072 0.92241 0.0
H863 H 0.87269 0.42216 0.95883 0.0
H864 H 0.87732 0.50289 0.99626 0.0
H865 H 0.84937 0.50603 0.99932 0.0
H866 H 0.8687 0.51768 0.9744 0.0
H867 H 0.82845 0.49042 0.94839 0.0
H868 H 0.80906 0.47871 0.97315 0.0
H869 H 0.80963 0.4569 0.95241 0.0
H870 H 0.84607 0.40597 0.99303 0.0
H871 H 0.8138 0.39346 0.02285 0.0
H872 H 0.8084 0.46011 0.01125 0.0
C873 C 0.87122 0.48151 0.93825 0.0
C874 C 0.88284 0.47088 0.92469 0.0
C875 C 0.88376 0.44971 0.93266 0.0
C876 C 0.87278 0.4389 0.95333 0.0
C877 C 0.861 0.44949 0.96598 0.0
C878 C 0.86025 0.4704 0.95884 0.0
C879 C 0.84424 0.47657 0.97452 0.0
C880 C 0.86091 0.50232 0.98686 0.0
C881 C 0.8215 0.47558 0.96133 0.0
C882 C 0.83526 0.45523 0.991 0.0
C883 C 0.84546 0.44005 0.98593 0.0
C884 C 0.83829 0.41794 0.99743 0.0
C885 C 0.81979 0.41087 0.01423 0.0
C886 C 0.80868 0.42584 0.01936 0.0
C887 C 0.81703 0.44862 0.00799 0.0
H888 H 0.42849 0.89513 0.09313 0.0
H889 H 0.50219 0.89856 0.09314 0.0
H890 H 0.49065 0.87354 0.12766 0.0
H891 H 0.42067 0.8938 0.1565 0.0
H892 H 0.38676 0.87136 0.15366 0.0
H893 H 0.40266 0.89389 0.13176 0.0
H894 H 0.38617 0.85736 0.10141 0.0
H895 H 0.37035 0.83478 0.12314 0.0
H896 H 0.39319 0.8324 0.10528 0.0
H897 H 0.46907 0.84283 0.15778 0.0
H898 H 0.43896 0.80863 0.18168 0.0
H899 H 0.37846 0.82368 0.16221 0.0
C900 C 0.44241 0.891 0.10058 0.0
C901 C 0.46637 0.89907 0.09039 0.0
C902 C 0.48398 0.89322 0.1008 0.0
C903 C 0.47756 0.87887 0.12042 0.0
C904 C 0.45349 0.87054 0.12952 0.0
C905 C 0.43621 0.87648 0.12005 0.0
C906 C 0.41055 0.8628 0.13159 0.0
C907 C 0.40483 0.88159 0.14413 0.0
C908 C 0.3888 0.84583 0.11433 0.0
C909 C 0.41577 0.84735 0.1483 0.0
C910 C 0.44081 0.85249 0.14708 0.0
C911 C 0.44959 0.83904 0.1593 0.0
C912 C 0.43225 0.81955 0.17286 0.0
C913 C 0.40638 0.81362 0.17411 0.0
C914 C 0.39824 0.82809 0.16198 0.0
H915 H 0.54458 0.45115 0.26198 0.0
H916 H 0.4863 0.37793 0.23365 0.0
H917 H 0.49351 0.35745 0.26595 0.0
H918 H 0.58763 0.43254 0.27298 0.0
H919 H 0.60152 0.45155 0.29876 0.0
H920 H 0.58692 0.46131 0.27752 0.0
H921 H 0.55675 0.4629 0.30776 0.0
H922 H 0.57137 0.45317 0.3292 0.0
H923 H 0.5371 0.43542 0.32409 0.0
H924 H 0.51168 0.34401 0.29741 0.0
H925 H 0.54114 0.33898 0.32347 0.0
H926 H 0.59054 0.42028 0.3286 0.0
C927 C 0.53296 0.43084 0.26261 0.0
C928 C 0.51473 0.41638 0.24504 0.0
C929 C 0.4999 0.38978 0.24698 0.0
C930 C 0.50395 0.37783 0.26533 0.0
C931 C 0.52298 0.39259 0.28162 0.0
C932 C 0.53728 0.41855 0.28042 0.0
C933 C 0.55938 0.42975 0.29776 0.0
C934 C 0.58538 0.44464 0.28605 0.0
C935 C 0.55593 0.44629 0.31577 0.0
C936 C 0.55609 0.40593 0.308 0.0
C937 C 0.53447 0.38475 0.29906 0.0
C938 C 0.52843 0.36049 0.3048 0.0
C939 C 0.54529 0.35781 0.31961 0.0
C940 C 0.5682 0.37924 0.32801 0.0
C941 C 0.57323 0.40355 0.32253 0.0
H942 H 0.46172 0.87956 0.36113 0.0
H943 H 0.39582 0.88997 0.36531 0.0
H944 H 0.37516 0.85992 0.33258 0.0
H945 H 0.4626 0.87729 0.29961 0.0
H946 H 0.47268 0.85423 0.29883 0.0
H947 H 0.48169 0.87603 0.32289 0.0
H948 H 0.46126 0.83845 0.35006 0.0
H949 H 0.45187 0.81651 0.32605 0.0
H950 H 0.42807 0.8143 0.34562 0.0
H951 H 0.36144 0.82792 0.29965 0.0
H952 H 0.3575 0.79981 0.26711 0.0
H953 H 0.43355 0.81254 0.28369 0.0
C954 C 0.44316 0.876 0.355 0.0
C955 C 0.43046 0.88725 0.36593 0.0
C956 C 0.40586 0.8814 0.35751 0.0
C957 C 0.39398 0.8644 0.33887 0.0
C958 C 0.40701 0.85351 0.32872 0.0
C959 C 0.43119 0.85935 0.33634 0.0
C960 C 0.44144 0.84563 0.3222 0.0
C961 C 0.46605 0.86441 0.31017 0.0
C962 C 0.44591 0.82766 0.33686 0.0
C963 C 0.41927 0.83117 0.30533 0.0
C964 C 0.39945 0.83572 0.30951 0.0
C965 C 0.37689 0.8243 0.29618 0.0
C966 C 0.37478 0.80825 0.27781 0.0
C967 C 0.39524 0.804 0.27279 0.0
C968 C 0.41759 0.81543 0.287 0.0
H969 H 0.59776 0.4813 0.50633 0.0
H970 H 0.57507 0.41389 0.54473 0.0
H971 H 0.57958 0.39268 0.51039 0.0
H972 H 0.56625 0.44934 0.45259 0.0
H973 H 0.59171 0.47219 0.43557 0.0
H974 H 0.58543 0.48162 0.46292 0.0
H975 H 0.63278 0.49876 0.47581 0.0
H976 H 0.63918 0.48928 0.44855 0.0
H977 H 0.6459 0.47813 0.47444 0.0
H978 H 0.58854 0.37945 0.47245 0.0
H979 H 0.59987 0.37465 0.43309 0.0
H980 H 0.61708 0.45083 0.41956 0.0
C981 C 0.59366 0.46205 0.5075 0.0
C982 C 0.58587 0.44921 0.5282 0.0
C983 C 0.58058 0.42397 0.52897 0.0
C984 C 0.58327 0.41181 0.5096 0.0
C985 C 0.59124 0.4251 0.48956 0.0
C986 C 0.59623 0.44961 0.48833 0.0
C987 C 0.60498 0.45981 0.46482 0.0
C988 C 0.58595 0.4661 0.4533 0.0
C989 C 0.63234 0.48285 0.46599 0.0
C990 C 0.60436 0.43728 0.45312 0.0
C991 C 0.59638 0.41746 0.46768 0.0
C992 C 0.5947 0.3948 0.46084 0.0
C993 C 0.60124 0.39229 0.43845 0.0
C994 C 0.60934 0.41233 0.42316 0.0
C995 C 0.61089 0.43509 0.43073 0.0
H996 H 0.16696 0.58587 0.71118 0.0
H997 H 0.12254 0.6218 0.69602 0.0
H998 H 0.15137 0.64382 0.66425 0.0
H999 H 0.22848 0.63728 0.69897 0.0
H1000 H 0.23949 0.61751 0.68637 0.0
H1001 H 0.21574 0.60539 0.7081 0.0
H1002 H 0.18497 0.56802 0.68085 0.0
H1003 H 0.20865 0.57997 0.65906 0.0
H1004 H 0.1768 0.57439 0.65306 0.0
H1005 H 0.1861 0.66211 0.63382 0.0
H1006 H 0.22183 0.67321 0.60729 0.0
H1007 H 0.24067 0.62297 0.64238 0.0
C1008 C 0.16289 0.59802 0.70104 0.0
C1009 C 0.1423 0.6019 0.70607 0.0
C1010 C 0.13831 0.61863 0.69265 0.0
C1011 C 0.15451 0.63114 0.67451 0.0
C1012 C 0.17453 0.62665 0.66999 0.0
C1013 C 0.17859 0.61035 0.68288 0.0
C1014 C 0.20101 0.60823 0.67458 0.0
C1015 C 0.22244 0.61768 0.69311 0.0
C1016 C 0.19233 0.58104 0.6664 0.0
C1017 C 0.20901 0.62583 0.6549 0.0
C1018 C 0.19375 0.63652 0.6525 0.0
C1019 C 0.19806 0.65373 0.63552 0.0
C1020 C 0.21838 0.65997 0.62059 0.0
C1021 C 0.23381 0.64876 0.62268 0.0
C1022 C 0.229 0.63161 0.64013 0.0
H1023 H 0.56125 0.15241 0.88668 0.0
H1024 H 0.48091 0.12984 0.87773 0.0
H1025 H 0.49033 0.15074 0.8406 0.0
H1026 H 0.58638 0.21212 0.86573 0.0
H1027 H 0.61301 0.21249 0.85178 0.0
H1028 H 0.59932 0.19329 0.87613 0.0
H1029 H 0.59146 0.15374 0.85248 0.0
H1030 H 0.60522 0.17288 0.82799 0.0
H1031 H 0.57336 0.14563 0.82585 0.0
H1032 H 0.50955 0.17765 0.8062 0.0
H1033 H 0.53695 0.20866 0.77801 0.0
H1034 H 0.60424 0.21254 0.80977 0.0
C1035 C 0.54545 0.15116 0.87664 0.0
C1036 C 0.5203 0.13932 0.88503 0.0
C1037 C 0.50035 0.1389 0.87166 0.0
C1038 C 0.50548 0.15055 0.85049 0.0
C1039 C 0.53061 0.16237 0.8429 0.0
C1040 C 0.55022 0.16262 0.85555 0.0
C1041 C 0.57589 0.17818 0.84456 0.0
C1042 C 0.59474 0.20033 0.8605 0.0
C1043 C 0.58714 0.16161 0.83729 0.0
C1044 C 0.56782 0.18728 0.82406 0.0
C1045 C 0.54161 0.17776 0.82319 0.0
C1046 C 0.53004 0.18491 0.80653 0.0
C1047 C 0.54575 0.20254 0.7906 0.0
C1048 C 0.57271 0.21287 0.79157 0.0
C1049 C 0.58368 0.20471 0.8083 0.0
H1050 H 0.39371 0.5539 0.02349 0.0
H1051 H 0.44508 0.62785 0.05449 0.0
H1052 H 0.44187 0.64776 0.01932 0.0
H1053 H 0.41762 0.56852 0.96648 0.0
H1054 H 0.38636 0.54942 0.95299 0.0
H1055 H 0.39319 0.54121 0.98044 0.0
H1056 H 0.35413 0.54224 0.99712 0.0
H1057 H 0.34721 0.55051 0.96973 0.0
H1058 H 0.35192 0.57029 0.99463 0.0
H1059 H 0.43172 0.65948 0.98096 0.0
H1060 H 0.41696 0.66203 0.9421 0.0
H1061 H 0.37245 0.58018 0.93662 0.0
C1062 C 0.40423 0.57429 0.02292 0.0
C1063 C 0.41962 0.58933 0.04173 0.0
C1064 C 0.43338 0.61595 0.04018 0.0
C1065 C 0.43155 0.62742 0.02034 0.0
C1066 C 0.41601 0.612 0.00218 0.0
C1067 C 0.40271 0.58601 0.00327 0.0
C1068 C 0.38735 0.57365 0.98144 0.0
C1069 C 0.3967 0.55724 0.96964 0.0
C1070 C 0.35845 0.55827 0.98601 0.0
C1071 C 0.39392 0.59675 0.96792 0.0
C1072 C 0.41042 0.61871 0.98015 0.0
C1073 C 0.41888 0.6424 0.9712 0.0
C1074 C 0.41033 0.64364 0.94912 0.0
C1075 C 0.39357 0.62132 0.93621 0.0
C1076 C 0.38532 0.59763 0.9459 0.0
H1077 H 0.85286 0.44142 0.21415 0.0
H1078 H 0.88631 0.3934 0.20904 0.0
H1079 H 0.86463 0.37689 0.17149 0.0
H1080 H 0.79182 0.39749 0.18817 0.0
H1081 H 0.78842 0.42087 0.17298 0.0
H1082 H 0.80689 0.42951 0.1994 0.0
H1083 H 0.84628 0.46466 0.17924 0.0
H1084 H 0.82786 0.45627 0.1528 0.0
H1085 H 0.85796 0.45675 0.15407 0.0
H1086 H 0.83913 0.36499 0.13519 0.0
H1087 H 0.81237 0.35924 0.10116 0.0
H1088 H 0.79521 0.41518 0.12885 0.0
C1089 C 0.85587 0.42767 0.20499 0.0
C1090 C 0.87121 0.41861 0.21461 0.0
C1091 C 0.87439 0.40036 0.20219 0.0
C1092 C 0.86223 0.39094 0.1808 0.0
C1093 C 0.84697 0.39996 0.17198 0.0
C1094 C 0.84381 0.41799 0.18355 0.0
C1095 C 0.82618 0.42427 0.17014 0.0
C1096 C 0.80189 0.41763 0.18347 0.0
C1097 C 0.84042 0.45214 0.16368 0.0
C1098 C 0.81993 0.4069 0.14925 0.0
C1099 C 0.83215 0.39307 0.15078 0.0
C1100 C 0.8295 0.37575 0.13374 0.0
C1101 C 0.81419 0.37264 0.11444 0.0
C1102 C 0.80161 0.38677 0.11219 0.0
C1103 C 0.80444 0.40402 0.13001 0.0
loop_
_geom_bond_atom_site_label_1
_geom_bond_atom_site_label_2
_geom_bond_distance
_geom_bond_site_symmetry_2
_ccdc_geom_bond_type
H0 C27 0.929 . S
N1 C26 1.433 . S
N1 C32 1.435 . S
N1 C38 1.423 . S
H2 C28 0.930 . S
H3 C31 0.931 . S
H4 C30 0.929 . S
H5 C33 0.930 . S
H6 C34 0.932 . S
H7 C37 0.929 . S
H8 C36 0.931 . S
H9 C39 0.929 . S
H10 C43 0.932 . S
H11 C40 0.931 . S
H12 C42 0.929 . S
H13 C45 0.929 . S
H14 C46 0.930 . S
H15 C48 0.929 . S
H16 C49 0.931 . S
H17 C51 0.930 . S
H18 C52 0.932 . S
H19 C54 0.931 . S
H20 C55 0.929 . S
H21 C57 0.929 . S
H22 C58 0.931 . S
H23 C60 0.929 . S
N24 C44 1.433 . S
N24 C50 1.435 . S
N24 C56 1.423 . S
H25 C61 0.932 . S
C26 N1 1.433 . S
C26 C27 1.363 . S
C26 C31 1.370 . S
C27 H0 0.929 . S
C27 C26 1.363 . S
C27 C28 1.385 . S
C28 H2 0.930 . S
C28 C27 1.385 . S
C28 C29 1.357 . S
C29 C28 1.357 . S
C29 C30 1.406 . S
C30 H4 0.929 . S
C30 C29 1.406 . S
C30 C31 1.391 . S
C31 H3 0.931 . S
C31 C26 1.370 . S
C31 C30 1.391 . S
C32 N1 1.435 . S
C32 C33 1.358 . S
C32 C37 1.371 . S
C33 H5 0.930 . S
C33 C32 1.358 . S
C33 C34 1.405 . S
C34 H6 0.932 . S
C34 C33 1.405 . S
C34 C35 1.383 . S
C35 C34 1.383 . S
C35 C36 1.393 . S
C36 H8 0.931 . S
C36 C35 1.393 . S
C36 C37 1.382 . S
C37 H7 0.929 . S
C37 C32 1.371 . S
C37 C36 1.382 . S
C38 N1 1.423 . S
C38 C39 1.362 . S
C38 C43 1.388 . S
C39 H9 0.929 . S
C39 C38 1.362 . S
C39 C40 1.376 . S
C40 H11 0.931 . S
C40 C39 1.376 . S
C40 C41 1.396 . S
C41 C40 1.396 . S
C41 C42 1.348 . S
C41 C59 1.472 1_455 S
C42 H12 0.929 . S
C42 C41 1.348 . S
C42 C43 1.443 . S
C43 H10 0.932 . S
C43 C38 1.388 . S
C43 C42 1.443 . S
C44 N24 1.433 . S
C44 C45 1.363 . S
C44 C49 1.370 . S
C45 H13 0.929 . S
C45 C44 1.363 . S
C45 C46 1.385 . S
C46 H14 0.930 . S
C46 C45 1.385 . S
C46 C47 1.357 . S
C47 C46 1.357 . S
C47 C48 1.406 . S
C48 H15 0.929 . S
C48 C47 1.406 . S
C48 C49 1.391 . S
C49 H16 0.931 . S
C49 C44 1.370 . S
C49 C48 1.391 . S
C50 N24 1.435 . S
C50 C51 1.358 . S
C50 C55 1.371 . S
C51 H17 0.930 . S
C51 C50 1.358 . S
C51 C52 1.405 . S
C52 H18 0.932 . S
C52 C51 1.405 . S
C52 C53 1.383 . S
C53 C52 1.383 . S
C53 C54 1.393 . S
C54 H19 0.931 . S
C54 C53 1.393 . S
C54 C55 1.382 . S
C55 H20 0.929 . S
C55 C50 1.371 . S
C55 C54 1.382 . S
C56 N24 1.423 . S
C56 C57 1.362 . S
C56 C61 1.388 . S
C57 H21 0.929 . S
C57 C56 1.362 . S
C57 C58 1.376 . S
C58 H22 0.931 . S
C58 C57 1.376 . S
C58 C59 1.396 . S
C59 C41 1.472 1_655 S
C59 C58 1.396 . S
C59 C60 1.348 . S
C60 H23 0.929 . S
C60 C59 1.348 . S
C60 C61 1.443 . S
C61 H25 0.932 . S
C61 C56 1.388 . S
C61 C60 1.443 . S
H62 C89 0.929 . S
N63 C88 1.433 . S
N63 C94 1.435 . S
N63 C100 1.423 . S
H64 C90 0.930 . S
H65 C93 0.931 . S
H66 C92 0.929 . S
H67 C95 0.930 . S
H68 C96 0.932 . S
H69 C99 0.929 . S
H70 C98 0.931 . S
H71 C101 0.929 . S
H72 C105 0.932 . S
H73 C102 0.931 . S
H74 C104 0.929 1_545 S
H75 C107 0.929 . S
H76 C108 0.930 . S
H77 C110 0.929 . S
H78 C111 0.931 . S
H79 C113 0.930 . S
H80 C114 0.932 . S
H81 C116 0.931 . S
H82 C117 0.929 . S
H83 C119 0.929 . S
H84 C120 0.931 . S
H85 C122 0.929 . S
N86 C106 1.433 . S
N86 C112 1.435 . S
N86 C118 1.423 . S
H87 C123 0.932 . S
C88 N63 1.433 . S
C88 C89 1.363 . S
C88 C93 1.370 . S
C89 H62 0.929 . S
C89 C88 1.363 . S
C89 C90 1.385 . S
C90 H64 0.930 . S
C90 C89 1.385 . S
C90 C91 1.357 . S
C91 C90 1.357 . S
C91 C92 1.406 . S
C92 H66 0.929 . S
C92 C91 1.406 . S
C92 C93 1.391 . S
C93 H65 0.931 . S
C93 C88 1.370 . S
C93 C92 1.391 . S
C94 N63 1.435 . S
C94 C95 1.358 . S
C94 C99 1.371 . S
C95 H67 0.930 . S
C95 C94 1.358 . S
C95 C96 1.405 . S
C96 H68 0.932 . S
C96 C95 1.405 . S
C96 C97 1.383 . S
C97 C96 1.383 . S
C97 C98 1.393 . S
C98 H70 0.931 . S
C98 C97 1.393 . S
C98 C99 1.382 . S
C99 H69 0.929 . S
C99 C94 1.371 . S
C99 C98 1.382 . S
C100 N63 1.423 . S
C100 C101 1.362 . S
C100 C105 1.388 . S
C101 H71 0.929 . S
C101 C100 1.362 . S
C101 C102 1.376 . S
C102 H73 0.931 . S
C102 C101 1.376 . S
C102 C103 1.396 1_565 S
C103 C102 1.396 1_545 S
C103 C104 1.348 1_545 S
C103 C121 1.472 . S
C104 H74 0.929 1_565 S
C104 C103 1.348 1_565 S
C104 C105 1.443 . S
C105 H72 0.932 . S
C105 C100 1.388 . S
C105 C104 1.443 . S
C106 N86 1.433 . S
C106 C107 1.363 . S
C106 C111 1.370 . S
C107 H75 0.929 . S
C107 C106 1.363 . S
C107 C108 1.385 . S
C108 H76 0.930 . S
C108 C107 1.385 . S
C108 C109 1.357 . S
C109 C108 1.357 . S
C109 C110 1.406 . S
C110 H77 0.929 . S
C110 C109 1.406 . S
C110 C111 1.391 . S
C111 H78 0.931 . S
C111 C106 1.370 . S
C111 C110 1.391 . S
C112 N86 1.435 . S
C112 C113 1.358 . S
C112 C117 1.371 . S
C113 H79 0.930 . S
C113 C112 1.358 . S
C113 C114 1.405 . S
C114 H80 0.932 . S
C114 C113 1.405 . S
C114 C115 1.383 . S
C115 C114 1.383 . S
C115 C116 1.393 . S
C116 H81 0.931 . S
C116 C115 1.393 . S
C116 C117 1.382 . S
C117 H82 0.929 . S
C117 C112 1.371 . S
C117 C116 1.382 . S
C118 N86 1.423 . S
C118 C119 1.362 . S
C118 C123 1.388 . S
C119 H83 0.929 . S
C119 C118 1.362 . S
C119 C120 1.376 . S
C120 H84 0.931 . S
C120 C119 1.376 . S
C120 C121 1.396 . S
C121 C103 1.472 . S
C121 C120 1.396 . S
C121 C122 1.348 . S
C122 H85 0.929 . S
C122 C121 1.348 . S
C122 C123 1.443 . S
C123 H87 0.932 . S
C123 C118 1.388 . S
C123 C122 1.443 . S
H124 C151 0.929 . S
N125 C150 1.433 . S
N125 C156 1.435 . S
N125 C162 1.423 . S
H126 C152 0.930 . S
H127 C155 0.931 . S
H128 C154 0.929 . S
H129 C157 0.930 . S
H130 C158 0.932 . S
H131 C161 0.929 . S
H132 C160 0.931 . S
H133 C163 0.929 . S
H134 C167 0.932 . S
H135 C164 0.931 . S
H136 C166 0.929 . S
H137 C169 0.929 . S
H138 C170 0.930 . S
H139 C172 0.929 . S
H140 C173 0.931 . S
H141 C175 0.930 . S
H142 C176 0.932 . S
H143 C178 0.931 . S
H144 C179 0.929 . S
H145 C181 0.929 . S
H146 C182 0.931 . S
H147 C184 0.929 . S
N148 C168 1.433 . S
N148 C174 1.435 . S
N148 C180 1.423 . S
H149 C185 0.932 . S
C150 N125 1.433 . S
C150 C151 1.363 . S
C150 C155 1.370 . S
C151 H124 0.929 . S
C151 C150 1.363 . S
C151 C152 1.385 . S
C152 H126 0.930 . S
C152 C151 1.385 . S
C152 C153 1.357 . S
C153 C152 1.357 . S
C153 C154 1.406 . S
C154 H128 0.929 . S
C154 C153 1.406 . S
C154 C155 1.391 . S
C155 H127 0.931 . S
C155 C150 1.370 . S
C155 C154 1.391 . S
C156 N125 1.435 . S
C156 C157 1.358 . S
C156 C161 1.371 . S
C157 H129 0.930 . S
C157 C156 1.358 . S
C157 C158 1.405 . S
C158 H130 0.932 . S
C158 C157 1.405 . S
C158 C159 1.383 . S
C159 C158 1.383 . S
C159 C160 1.393 . S
C160 H132 0.931 . S
C160 C159 1.393 . S
C160 C161 1.382 . S
C161 H131 0.929 . S
C161 C156 1.371 . S
C161 C160 1.382 . S
C162 N125 1.423 . S
C162 C163 1.362 . S
C162 C167 1.388 . S
C163 H133 0.929 . S
C163 C162 1.362 . S
C163 C164 1.376 . S
C164 H135 0.931 . S
C164 C163 1.376 . S
C164 C165 1.396 . S
C165 C164 1.396 . S
C165 C166 1.348 . S
C165 C183 1.472 . S
C166 H136 0.929 . S
C166 C165 1.348 . S
C166 C167 1.443 . S
C167 H134 0.932 . S
C167 C162 1.388 . S
C167 C166 1.443 . S
C168 N148 1.433 . S
C168 C169 1.363 . S
C168 C173 1.370 . S
C169 H137 0.929 . S
C169 C168 1.363 . S
C169 C170 1.385 . S
C170 H138 0.930 . S
C170 C169 1.385 . S
C170 C171 1.357 . S
C171 C170 1.357 . S
C171 C172 1.406 . S
C172 H139 0.929 . S
C172 C171 1.406 . S
C172 C173 1.391 . S
C173 H140 0.931 . S
C173 C168 1.370 . S
C173 C172 1.391 . S
C174 N148 1.435 . S
C174 C175 1.358 . S
C174 C179 1.371 . S
C175 H141 0.930 . S
C175 C174 1.358 . S
C175 C176 1.405 . S
C176 H142 0.932 . S
C176 C175 1.405 . S
C176 C177 1.383 . S
C177 C176 1.383 . S
C177 C178 1.393 . S
C178 H143 0.931 . S
C178 C177 1.393 . S
C178 C179 1.382 . S
C179 H144 0.929 . S
C179 C174 1.371 . S
C179 C178 1.382 . S
C180 N148 1.423 . S
C180 C181 1.362 . S
C180 C185 1.388 . S
C181 H145 0.929 . S
C181 C180 1.362 . S
C181 C182 1.376 . S
C182 H146 0.931 . S
C182 C181 1.376 . S
C182 C183 1.396 . S
C183 C165 1.472 . S
C183 C182 1.396 . S
C183 C184 1.348 . S
C184 H147 0.929 . S
C184 C183 1.348 . S
C184 C185 1.443 . S
C185 H149 0.932 . S
C185 C180 1.388 . S
C185 C184 1.443 . S
H186 C213 0.929 . S
N187 C212 1.433 . S
N187 C218 1.435 . S
N187 C224 1.423 . S
H188 C214 0.930 . S
H189 C217 0.931 . S
H190 C216 0.929 . S
H191 C219 0.930 . S
H192 C220 0.932 . S
H193 C223 0.929 . S
H194 C222 0.931 . S
H195 C225 0.929 . S
H196 C229 0.932 . S
H197 C226 0.931 . S
H198 C228 0.929 . S
H199 C231 0.929 . S
H200 C232 0.930 . S
H201 C234 0.929 . S
H202 C235 0.931 . S
H203 C237 0.930 . S
H204 C238 0.932 . S
H205 C240 0.931 . S
H206 C241 0.929 . S
H207 C243 0.929 . S
H208 C244 0.931 . S
H209 C246 0.929 . S
N210 C230 1.433 . S
N210 C236 1.435 . S
N210 C242 1.423 . S
H211 C247 0.932 . S
C212 N187 1.433 . S
C212 C213 1.363 . S
C212 C217 1.370 . S
C213 H186 0.929 . S
C213 C212 1.363 . S
C213 C214 1.385 . S
C214 H188 0.930 . S
C214 C213 1.385 . S
C214 C215 1.357 . S
C215 C214 1.357 . S
C215 C216 1.406 . S
C216 H190 0.929 . S
C216 C215 1.406 . S
C216 C217 1.391 . S
C217 H189 0.931 . S
C217 C212 1.370 . S
C217 C216 1.391 . S
C218 N187 1.435 . S
C218 C219 1.358 . S
C218 C223 1.371 . S
C219 H191 0.930 . S
C219 C218 1.358 . S
C219 C220 1.405 . S
C220 H192 0.932 . S
C220 C219 1.405 . S
C220 C221 1.383 . S
C221 C220 1.383 . S
C221 C222 1.393 . S
C222 H194 0.931 . S
C222 C221 1.393 . S
C222 C223 1.382 . S
C223 H193 0.929 . S
C223 C218 1.371 . S
C223 C222 1.382 . S
C224 N187 1.423 . S
C224 C225 1.362 . S
C224 C229 1.388 . S
C225 H195 0.929 . S
C225 C224 1.362 . S
C225 C226 1.376 . S
C226 H197 0.931 . S
C226 C225 1.376 . S
C226 C227 1.396 . S
C227 C226 1.396 . S
C227 C228 1.348 . S
C227 C245 1.472 1_455 S
C228 H198 0.929 . S
C228 C227 1.348 . S
C228 C229 1.443 . S
C229 H196 0.932 . S
C229 C224 1.388 . S
C229 C228 1.443 . S
C230 N210 1.433 . S
C230 C231 1.363 . S
C230 C235 1.370 . S
C231 H199 0.929 . S
C231 C230 1.363 . S
C231 C232 1.385 . S
C232 H200 0.930 . S
C232 C231 1.385 . S
C232 C233 1.357 . S
C233 C232 1.357 . S
C233 C234 1.406 . S
C234 H201 0.929 . S
C234 C233 1.406 . S
C234 C235 1.391 . S
C235 H202 0.931 . S
C235 C230 1.370 . S
C235 C234 1.391 . S
C236 N210 1.435 . S
C236 C237 1.358 . S
C236 C241 1.371 . S
C237 H203 0.930 . S
C237 C236 1.358 . S
C237 C238 1.405 . S
C238 H204 0.932 . S
C238 C237 1.405 . S
C238 C239 1.383 . S
C239 C238 1.383 . S
C239 C240 1.393 . S
C240 H205 0.931 . S
C240 C239 1.393 . S
C240 C241 1.382 . S
C241 H206 0.929 . S
C241 C236 1.371 . S
C241 C240 1.382 . S
C242 N210 1.423 . S
C242 C243 1.362 . S
C242 C247 1.388 . S
C243 H207 0.929 . S
C243 C242 1.362 . S
C243 C244 1.376 . S
C244 H208 0.931 . S
C244 C243 1.376 . S
C244 C245 1.396 . S
C245 C227 1.472 1_655 S
C245 C244 1.396 . S
C245 C246 1.348 . S
C246 H209 0.929 . S
C246 C245 1.348 . S
C246 C247 1.443 . S
C247 H211 0.932 . S
C247 C242 1.388 . S
C247 C246 1.443 . S
H248 C275 0.929 . S
N249 C274 1.433 . S
N249 C280 1.435 . S
N249 C286 1.423 . S
H250 C276 0.930 . S
H251 C279 0.931 . S
H252 C278 0.929 . S
H253 C281 0.930 . S
H254 C282 0.932 . S
H255 C285 0.929 . S
H256 C284 0.931 . S
H257 C287 0.929 . S
H258 C291 0.932 . S
H259 C288 0.931 . S
H260 C290 0.929 . S
H261 C293 0.929 . S
H262 C294 0.930 . S
H263 C296 0.929 . S
H264 C297 0.931 . S
H265 C299 0.930 1_554 S
H266 C300 0.932 . S
H267 C302 0.931 . S
H268 C303 0.929 . S
H269 C305 0.929 . S
H270 C306 0.931 1_544 S
H271 C308 0.929 . S
N272 C292 1.433 . S
N272 C298 1.435 1_554 S
N272 C304 1.423 1_554 S
H273 C309 0.932 . S
C274 N249 1.433 . S
C274 C275 1.363 . S
C274 C279 1.370 . S
C275 H248 0.929 . S
C275 C274 1.363 . S
C275 C276 1.385 . S
C276 H250 0.930 . S
C276 C275 1.385 . S
C276 C277 1.357 1_556 S
C277 C276 1.357 1_554 S
C277 C278 1.406 . S
C278 H252 0.929 . S
C278 C277 1.406 . S
C278 C279 1.391 1_554 S
C279 H251 0.931 . S
C279 C274 1.370 . S
C279 C278 1.391 1_556 S
C280 N249 1.435 . S
C280 C281 1.358 . S
C280 C285 1.371 . S
C281 H253 0.930 . S
C281 C280 1.358 . S
C281 C282 1.405 . S
C282 H254 0.932 . S
C282 C281 1.405 . S
C282 C283 1.383 . S
C283 C282 1.383 . S
C283 C284 1.393 . S
C284 H256 0.931 . S
C284 C283 1.393 . S
C284 C285 1.382 . S
C285 H255 0.929 . S
C285 C280 1.371 . S
C285 C284 1.382 . S
C286 N249 1.423 . S
C286 C287 1.362 . S
C286 C291 1.388 . S
C287 H257 0.929 . S
C287 C286 1.362 . S
C287 C288 1.376 . S
C288 H259 0.931 . S
C288 C287 1.376 . S
C288 C289 1.396 . S
C289 C288 1.396 . S
C289 C290 1.348 . S
C289 C307 1.518 . S
C290 H260 0.929 . S
C290 C289 1.348 . S
C290 C291 1.443 . S
C291 H258 0.932 . S
C291 C286 1.388 . S
C291 C290 1.443 . S
C292 N272 1.433 . S
C292 C293 1.363 . S
C292 C297 1.370 . S
C293 H261 0.929 . S
C293 C292 1.363 . S
C293 C294 1.385 . S
C294 H262 0.930 . S
C294 C293 1.385 . S
C294 C295 1.357 . S
C295 C294 1.357 . S
C295 C296 1.406 . S
C296 H263 0.929 . S
C296 C295 1.406 . S
C296 C297 1.391 . S
C297 H264 0.931 . S
C297 C292 1.370 . S
C297 C296 1.391 . S
C298 N272 1.435 1_556 S
C298 C299 1.358 . S
C298 C303 1.371 . S
C299 H265 0.930 1_556 S
C299 C298 1.358 . S
C299 C300 1.405 . S
C300 H266 0.932 . S
C300 C299 1.405 . S
C300 C301 1.383 . S
C301 C300 1.383 . S
C301 C302 1.393 . S
C302 H267 0.931 . S
C302 C301 1.393 . S
C302 C303 1.382 . S
C303 H268 0.929 . S
C303 C298 1.371 . S
C303 C302 1.382 . S
C304 N272 1.423 1_556 S
C304 C305 1.362 1_556 S
C304 C309 1.388 . S
C305 H269 0.929 . S
C305 C304 1.362 1_554 S
C305 C306 1.376 1_554 S
C306 H270 0.931 1_566 S
C306 C305 1.376 1_556 S
C306 C307 1.397 1_565 S
C307 C289 1.518 . S
C307 C306 1.397 1_545 S
C307 C308 1.300 1_545 S
C308 H271 0.929 . S
C308 C307 1.300 1_565 S
C308 C309 1.443 . S
C309 H273 0.932 . S
C309 C304 1.388 . S
C309 C308 1.443 . S
H310 C337 0.929 . S
N311 C336 1.433 . S
N311 C342 1.435 . S
N311 C348 1.423 . S
H312 C338 0.930 . S
H313 C341 0.931 . S
H314 C340 0.929 . S
H315 C343 0.930 . S
H316 C344 0.932 . S
H317 C347 0.929 . S
H318 C346 0.931 . S
H319 C349 0.929 . S
H320 C353 0.932 . S
H321 C350 0.931 . S
H322 C352 0.929 . S
H323 C355 0.929 . S
H324 C356 0.930 . S
H325 C358 0.929 . S
H326 C359 0.931 . S
H327 C361 0.930 . S
H328 C362 0.932 . S
H329 C364 0.931 . S
H330 C365 0.929 . S
H331 C367 0.929 . S
H332 C368 0.931 . S
H333 C370 0.929 . S
N334 C354 1.433 . S
N334 C360 1.435 . S
N334 C366 1.423 . S
H335 C371 0.932 . S
C336 N311 1.433 . S
C336 C337 1.363 . S
C336 C341 1.370 . S
C337 H310 0.929 . S
C337 C336 1.363 . S
C337 C338 1.385 . S
C338 H312 0.930 . S
C338 C337 1.385 . S
C338 C339 1.357 . S
C339 C338 1.357 . S
C339 C340 1.406 . S
C340 H314 0.929 . S
C340 C339 1.406 . S
C340 C341 1.391 . S
C341 H313 0.931 . S
C341 C336 1.370 . S
C341 C340 1.391 . S
C342 N311 1.435 . S
C342 C343 1.358 . S
C342 C347 1.371 . S
C343 H315 0.930 . S
C343 C342 1.358 . S
C343 C344 1.405 . S
C344 H316 0.932 . S
C344 C343 1.405 . S
C344 C345 1.383 . S
C345 C344 1.383 . S
C345 C346 1.393 . S
C346 H318 0.931 . S
C346 C345 1.393 . S
C346 C347 1.382 . S
C347 H317 0.929 . S
C347 C342 1.371 . S
C347 C346 1.382 . S
C348 N311 1.423 . S
C348 C349 1.362 . S
C348 C353 1.388 . S
C349 H319 0.929 . S
C349 C348 1.362 . S
C349 C350 1.376 . S
C350 H321 0.931 . S
C350 C349 1.376 . S
C350 C351 1.396 . S
C351 C350 1.396 . S
C351 C352 1.348 . S
C351 C369 1.472 . S
C352 H322 0.929 . S
C352 C351 1.348 . S
C352 C353 1.443 . S
C353 H320 0.932 . S
C353 C348 1.388 . S
C353 C352 1.443 . S
C354 N334 1.433 . S
C354 C355 1.363 . S
C354 C359 1.370 . S
C355 H323 0.929 . S
C355 C354 1.363 . S
C355 C356 1.385 . S
C356 H324 0.930 . S
C356 C355 1.385 . S
C356 C357 1.357 . S
C357 C356 1.357 . S
C357 C358 1.406 . S
C358 H325 0.929 . S
C358 C357 1.406 . S
C358 C359 1.391 . S
C359 H326 0.931 . S
C359 C354 1.370 . S
C359 C358 1.391 . S
C360 N334 1.435 . S
C360 C361 1.358 . S
C360 C365 1.371 . S
C361 H327 0.930 . S
C361 C360 1.358 . S
C361 C362 1.405 . S
C362 H328 0.932 . S
C362 C361 1.405 . S
C362 C363 1.383 . S
C363 C362 1.383 . S
C363 C364 1.393 . S
C364 H329 0.931 . S
C364 C363 1.393 . S
C364 C365 1.382 . S
C365 H330 0.929 . S
C365 C360 1.371 . S
C365 C364 1.382 . S
C366 N334 1.423 . S
C366 C367 1.362 . S
C366 C371 1.388 . S
C367 H331 0.929 . S
C367 C366 1.362 . S
C367 C368 1.376 . S
C368 H332 0.931 . S
C368 C367 1.376 . S
C368 C369 1.396 . S
C369 C351 1.472 . S
C369 C368 1.396 . S
C369 C370 1.348 . S
C370 H333 0.929 . S
C370 C369 1.348 . S
C370 C371 1.443 . S
C371 H335 0.932 . S
C371 C366 1.388 . S
C371 C370 1.443 . S
Mg372 O373 2.028 . S
Mg372 O379 1.986 . S
Mg372 O381 2.114 . S
Mg372 O382 2.251 . S
Mg372 O385 2.010 . S
O373 Mg372 2.028 . S
O373 C376 1.250 . S
O374 Mg375 2.028 . S
O374 C376 1.248 . S
Mg375 O374 2.028 . S
Mg375 O380 2.032 . S
Mg375 O382 2.079 . S
C376 O373 1.250 . S
C376 O374 1.248 . S
C377 O378 1.264 . S
C377 O385 1.249 . S
O378 C377 1.264 . S
O379 Mg372 1.986 . S
O379 C383 1.246 . S
O380 Mg375 2.032 . S
O380 C383 1.259 . S
O381 Mg372 2.114 . S
O381 C384 1.252 . S
O382 Mg372 2.251 . S
O382 Mg375 2.079 . S
O382 C384 1.273 . S
C383 O379 1.246 . S
C383 O380 1.259 . S
C384 O381 1.252 . S
C384 O382 1.273 . S
O385 Mg372 2.010 . S
O385 C377 1.249 . S
Mg386 O387 2.028 . S
Mg386 O393 1.986 . S
Mg386 O395 2.114 . S
Mg386 O396 2.251 . S
Mg386 O399 2.010 . S
O387 Mg386 2.028 . S
O387 C390 1.250 . S
O388 Mg389 2.028 . S
O388 C390 1.248 . S
Mg389 O388 2.028 . S
Mg389 O394 2.032 . S
Mg389 O396 2.079 . S
C390 O387 1.250 . S
C390 O388 1.248 . S
C391 O392 1.264 . S
C391 O399 1.249 . S
O392 C391 1.264 . S
O393 Mg386 1.986 . S
O393 C397 1.246 . S
O394 Mg389 2.032 . S
O394 C397 1.259 . S
O395 Mg386 2.114 . S
O395 C398 1.252 . S
O396 Mg386 2.251 . S
O396 Mg389 2.079 . S
O396 C398 1.273 . S
C397 O393 1.246 . S
C397 O394 1.259 . S
C398 O395 1.252 . S
C398 O396 1.273 . S
O399 Mg386 2.010 . S
O399 C391 1.249 . S
Mg400 O401 2.028 . S
Mg400 O407 1.986 . S
Mg400 O409 2.114 . S
Mg400 O410 2.251 . S
Mg400 O413 2.010 . S
O401 Mg400 2.028 . S
O401 C404 1.250 . S
O402 Mg403 2.028 . S
O402 C404 1.248 . S
Mg403 O402 2.028 . S
Mg403 O408 2.032 . S
Mg403 O410 2.079 . S
C404 O401 1.250 . S
C404 O402 1.248 . S
C405 O406 1.264 . S
C405 O413 1.249 . S
O406 C405 1.264 . S
O407 Mg400 1.986 . S
O407 C411 1.246 . S
O408 Mg403 2.032 . S
O408 C411 1.259 . S
O409 Mg400 2.114 . S
O409 C412 1.252 . S
O410 Mg400 2.251 . S
O410 Mg403 2.079 . S
O410 C412 1.273 . S
C411 O407 1.246 . S
C411 O408 1.259 . S
C412 O409 1.252 . S
C412 O410 1.273 . S
O413 Mg400 2.010 . S
O413 C405 1.249 . S
Mg414 O415 2.028 . S
Mg414 O421 1.986 . S
Mg414 O423 2.114 . S
Mg414 O424 2.251 . S
Mg414 O427 2.010 . S
O415 Mg414 2.028 . S
O415 C418 1.250 . S
O416 Mg417 2.028 . S
O416 C418 1.248 . S
Mg417 O416 2.028 . S
Mg417 O422 2.032 . S
Mg417 O424 2.079 . S
C418 O415 1.250 . S
C418 O416 1.248 . S
C419 O420 1.264 . S
C419 O427 1.249 . S
O420 C419 1.264 . S
O421 Mg414 1.986 . S
O421 C425 1.246 . S
O422 Mg417 2.032 . S
O422 C425 1.259 . S
O423 Mg414 2.114 . S
O423 C426 1.252 . S
O424 Mg414 2.251 . S
O424 Mg417 2.079 . S
O424 C426 1.273 . S
C425 O421 1.246 . S
C425 O422 1.259 . S
C426 O423 1.252 . S
C426 O424 1.273 . S
O427 Mg414 2.010 . S
O427 C419 1.249 . S
Mg428 O429 2.028 . S
Mg428 O435 1.986 . S
Mg428 O437 2.114 . S
Mg428 O438 2.251 . S
Mg428 O441 2.010 . S
O429 Mg428 2.028 . S
O429 C432 1.250 . S
O430 Mg431 2.028 . S
O430 C432 1.248 . S
Mg431 O430 2.028 . S
Mg431 O436 2.032 . S
Mg431 O438 2.079 . S
C432 O429 1.250 . S
C432 O430 1.248 . S
C433 O434 1.264 . S
C433 O441 1.249 . S
O434 C433 1.264 . S
O435 Mg428 1.986 . S
O435 C439 1.246 . S
O436 Mg431 2.032 . S
O436 C439 1.259 . S
O437 Mg428 2.114 . S
O437 C440 1.252 . S
O438 Mg428 2.251 . S
O438 Mg431 2.079 . S
O438 C440 1.273 . S
C439 O435 1.246 . S
C439 O436 1.259 . S
C440 O437 1.252 . S
C440 O438 1.273 . S
O441 Mg428 2.010 . S
O441 C433 1.249 . S
Mg442 O443 2.028 . S
Mg442 O449 1.986 . S
Mg442 O451 2.114 . S
Mg442 O452 2.251 . S
Mg442 O455 2.010 . S
O443 Mg442 2.028 . S
O443 C446 1.250 . S
O444 Mg445 2.028 . S
O444 C446 1.248 . S
Mg445 O444 2.028 . S
Mg445 O450 2.032 . S
Mg445 O452 2.079 . S
C446 O443 1.250 . S
C446 O444 1.248 . S
C447 O448 1.264 . S
C447 O455 1.249 . S
O448 C447 1.264 . S
O449 Mg442 1.986 . S
O449 C453 1.246 . S
O450 Mg445 2.032 . S
O450 C453 1.259 . S
O451 Mg442 2.114 . S
O451 C454 1.252 . S
O452 Mg442 2.251 . S
O452 Mg445 2.079 . S
O452 C454 1.273 . S
C453 O449 1.246 . S
C453 O450 1.259 . S
C454 O451 1.252 . S
C454 O452 1.273 . S
O455 Mg442 2.010 . S
O455 C447 1.249 . S
H456 C468 0.930 . S
H457 C470 0.930 . S
H458 C471 0.930 . S
H459 C475 0.959 . S
H460 C475 0.959 . S
H461 C475 0.961 . S
H462 C476 0.960 . S
H463 C476 0.961 . S
H464 C476 0.959 . S
H465 C479 0.929 . S
H466 C480 0.931 . S
H467 C482 0.930 . S
C468 H456 0.930 . S
C468 C469 1.399 . S
C468 C473 1.399 . S
C469 C468 1.399 . S
C469 C470 1.376 . S
C470 H457 0.930 . S
C470 C469 1.376 . S
C470 C471 1.388 . S
C471 H458 0.930 . S
C471 C470 1.388 . S
C471 C472 1.390 . S
C472 C471 1.390 . S
C472 C473 1.394 . S
C472 C478 1.465 . S
C473 C468 1.399 . S
C473 C472 1.394 . S
C473 C474 1.516 . S
C474 C473 1.516 . S
C474 C475 1.502 . S
C474 C476 1.561 . S
C474 C477 1.526 . S
C475 H459 0.959 . S
C475 H460 0.959 . S
C475 H461 0.961 . S
C475 C474 1.502 . S
C476 H462 0.960 . S
C476 H463 0.961 . S
C476 H464 0.959 . S
C476 C474 1.561 . S
C477 C474 1.526 . S
C477 C478 1.396 . S
C477 C482 1.390 . S
C478 C472 1.465 . S
C478 C477 1.396 . S
C478 C479 1.399 . S
C479 H465 0.929 . S
C479 C478 1.399 . S
C479 C480 1.385 . S
C480 H466 0.931 . S
C480 C479 1.385 . S
C480 C481 1.389 . S
C481 C480 1.389 . S
C481 C482 1.387 . S
C482 H467 0.930 . S
C482 C477 1.390 . S
C482 C481 1.387 . S
H483 C495 0.930 . S
H484 C497 0.930 . S
H485 C498 0.930 . S
H486 C502 0.959 . S
H487 C502 0.959 . S
H488 C502 0.961 . S
H489 C503 0.960 . S
H490 C503 0.961 . S
H491 C503 0.959 . S
H492 C506 0.929 . S
H493 C507 0.931 . S
H494 C509 0.930 . S
C495 H483 0.930 . S
C495 C496 1.399 . S
C495 C500 1.399 . S
C496 C495 1.399 . S
C496 C497 1.376 . S
C497 H484 0.930 . S
C497 C496 1.376 . S
C497 C498 1.388 . S
C498 H485 0.930 . S
C498 C497 1.388 . S
C498 C499 1.390 . S
C499 C498 1.390 . S
C499 C500 1.394 . S
C499 C505 1.465 . S
C500 C495 1.399 . S
C500 C499 1.394 . S
C500 C501 1.516 . S
C501 C500 1.516 . S
C501 C502 1.502 . S
C501 C503 1.561 . S
C501 C504 1.526 . S
C502 H486 0.959 . S
C502 H487 0.959 . S
C502 H488 0.961 . S
C502 C501 1.502 . S
C503 H489 0.960 . S
C503 H490 0.961 . S
C503 H491 0.959 . S
C503 C501 1.561 . S
C504 C501 1.526 . S
C504 C505 1.396 . S
C504 C509 1.390 . S
C505 C499 1.465 . S
C505 C504 1.396 . S
C505 C506 1.399 . S
C506 H492 0.929 . S
C506 C505 1.399 . S
C506 C507 1.385 . S
C507 H493 0.931 . S
C507 C506 1.385 . S
C507 C508 1.389 . S
C508 C507 1.389 . S
C508 C509 1.387 . S
C509 H494 0.930 . S
C509 C504 1.390 . S
C509 C508 1.387 . S
H510 C522 0.930 . S
H511 C524 0.930 . S
H512 C525 0.930 . S
H513 C529 0.959 . S
H514 C529 0.959 . S
H515 C529 0.961 . S
H516 C530 0.960 . S
H517 C530 0.961 . S
H518 C530 0.959 . S
H519 C533 0.929 . S
H520 C534 0.931 . S
H521 C536 0.930 . S
C522 H510 0.930 . S
C522 C523 1.399 . S
C522 C527 1.399 . S
C523 C522 1.399 . S
C523 C524 1.376 . S
C524 H511 0.930 . S
C524 C523 1.376 . S
C524 C525 1.388 . S
C525 H512 0.930 . S
C525 C524 1.388 . S
C525 C526 1.390 . S
C526 C525 1.390 . S
C526 C527 1.394 . S
C526 C532 1.465 . S
C527 C522 1.399 . S
C527 C526 1.394 . S
C527 C528 1.516 . S
C528 C527 1.516 . S
C528 C529 1.502 . S
C528 C530 1.561 . S
C528 C531 1.526 . S
C529 H513 0.959 . S
C529 H514 0.959 . S
C529 H515 0.961 . S
C529 C528 1.502 . S
C530 H516 0.960 . S
C530 H517 0.961 . S
C530 H518 0.959 . S
C530 C528 1.561 . S
C531 C528 1.526 . S
C531 C532 1.396 . S
C531 C536 1.390 . S
C532 C526 1.465 . S
C532 C531 1.396 . S
C532 C533 1.399 . S
C533 H519 0.929 . S
C533 C532 1.399 . S
C533 C534 1.385 . S
C534 H520 0.931 . S
C534 C533 1.385 . S
C534 C535 1.389 . S
C535 C534 1.389 . S
C535 C536 1.387 . S
C536 H521 0.930 . S
C536 C531 1.390 . S
C536 C535 1.387 . S
H537 C549 0.930 . S
H538 C551 0.930 . S
H539 C552 0.930 . S
H540 C556 0.959 . S
H541 C556 0.959 . S
H542 C556 0.961 . S
H543 C557 0.960 . S
H544 C557 0.961 . S
H545 C557 0.959 . S
H546 C560 0.929 . S
H547 C561 0.931 . S
H548 C563 0.930 . S
C549 H537 0.930 . S
C549 C550 1.399 . S
C549 C554 1.399 . S
C550 C549 1.399 . S
C550 C551 1.376 . S
C551 H538 0.930 . S
C551 C550 1.376 . S
C551 C552 1.388 . S
C552 H539 0.930 . S
C552 C551 1.388 . S
C552 C553 1.390 . S
C553 C552 1.390 . S
C553 C554 1.394 . S
C553 C559 1.465 . S
C554 C549 1.399 . S
C554 C553 1.394 . S
C554 C555 1.516 . S
C555 C554 1.516 . S
C555 C556 1.502 . S
C555 C557 1.561 . S
C555 C558 1.526 . S
C556 H540 0.959 . S
C556 H541 0.959 . S
C556 H542 0.961 . S
C556 C555 1.502 . S
C557 H543 0.960 . S
C557 H544 0.961 . S
C557 H545 0.959 . S
C557 C555 1.561 . S
C558 C555 1.526 . S
C558 C559 1.396 . S
C558 C563 1.390 . S
C559 C553 1.465 . S
C559 C558 1.396 . S
C559 C560 1.399 . S
C560 H546 0.929 . S
C560 C559 1.399 . S
C560 C561 1.385 . S
C561 H547 0.931 . S
C561 C560 1.385 . S
C561 C562 1.389 . S
C562 C561 1.389 . S
C562 C563 1.387 . S
C563 H548 0.930 . S
C563 C558 1.390 . S
C563 C562 1.387 . S
H564 C576 0.930 . S
H565 C578 0.930 . S
H566 C579 0.930 . S
H567 C583 0.959 . S
H568 C583 0.959 . S
H569 C583 0.961 . S
H570 C584 0.960 . S
H571 C584 0.961 . S
H572 C584 0.959 . S
H573 C587 0.929 . S
H574 C588 0.931 . S
H575 C590 0.930 . S
C576 H564 0.930 . S
C576 C577 1.399 . S
C576 C581 1.399 . S
C577 C576 1.399 . S
C577 C578 1.376 . S
C578 H565 0.930 . S
C578 C577 1.376 . S
C578 C579 1.388 . S
C579 H566 0.930 . S
C579 C578 1.388 . S
C579 C580 1.390 . S
C580 C579 1.390 . S
C580 C581 1.394 . S
C580 C586 1.465 . S
C581 C576 1.399 . S
C581 C580 1.394 . S
C581 C582 1.516 . S
C582 C581 1.516 . S
C582 C583 1.502 . S
C582 C584 1.561 . S
C582 C585 1.526 . S
C583 H567 0.959 . S
C583 H568 0.959 . S
C583 H569 0.961 . S
C583 C582 1.502 . S
C584 H570 0.960 . S
C584 H571 0.961 . S
C584 H572 0.959 . S
C584 C582 1.561 . S
C585 C582 1.526 . S
C585 C586 1.396 . S
C585 C590 1.390 . S
C586 C580 1.465 . S
C586 C585 1.396 . S
C586 C587 1.399 . S
C587 H573 0.929 . S
C587 C586 1.399 . S
C587 C588 1.385 . S
C588 H574 0.931 . S
C588 C587 1.385 . S
C588 C589 1.389 . S
C589 C588 1.389 . S
C589 C590 1.387 . S
C590 H575 0.930 . S
C590 C585 1.390 . S
C590 C589 1.387 . S
H591 C603 0.930 . S
H592 C605 0.930 . S
H593 C606 0.930 . S
H594 C610 0.959 . S
H595 C610 0.959 . S
H596 C610 0.961 . S
H597 C611 0.960 . S
H598 C611 0.961 . S
H599 C611 0.959 . S
H600 C614 0.929 . S
H601 C615 0.931 . S
H602 C617 0.930 . S
C603 H591 0.930 . S
C603 C604 1.399 . S
C603 C608 1.399 . S
C604 C603 1.399 . S
C604 C605 1.376 . S
C605 H592 0.930 . S
C605 C604 1.376 . S
C605 C606 1.388 . S
C606 H593 0.930 . S
C606 C605 1.388 . S
C606 C607 1.390 . S
C607 C606 1.390 . S
C607 C608 1.394 . S
C607 C613 1.465 . S
C608 C603 1.399 . S
C608 C607 1.394 . S
C608 C609 1.516 . S
C609 C608 1.516 . S
C609 C610 1.502 . S
C609 C611 1.561 . S
C609 C612 1.526 . S
C610 H594 0.959 . S
C610 H595 0.959 . S
C610 H596 0.961 . S
C610 C609 1.502 . S
C611 H597 0.960 . S
C611 H598 0.961 . S
C611 H599 0.959 . S
C611 C609 1.561 . S
C612 C609 1.526 . S
C612 C613 1.396 . S
C612 C617 1.390 . S
C613 C607 1.465 . S
C613 C612 1.396 . S
C613 C614 1.399 . S
C614 H600 0.929 . S
C614 C613 1.399 . S
C614 C615 1.385 . S
C615 H601 0.931 . S
C615 C614 1.385 . S
C615 C616 1.389 . S
C616 C615 1.389 . S
C616 C617 1.387 . S
C617 H602 0.930 . S
C617 C612 1.390 . S
C617 C616 1.387 . S
H618 C630 0.930 . S
H619 C632 0.930 . S
H620 C633 0.930 . S
H621 C637 0.959 . S
H622 C637 0.959 . S
H623 C637 0.961 . S
H624 C638 0.960 . S
H625 C638 0.961 . S
H626 C638 0.959 . S
H627 C641 0.929 . S
H628 C642 0.931 . S
H629 C644 0.930 . S
C630 H618 0.930 . S
C630 C631 1.399 . S
C630 C635 1.399 . S
C631 C630 1.399 . S
C631 C632 1.376 . S
C632 H619 0.930 . S
C632 C631 1.376 . S
C632 C633 1.388 . S
C633 H620 0.930 . S
C633 C632 1.388 . S
C633 C634 1.390 . S
C634 C633 1.390 . S
C634 C635 1.394 . S
C634 C640 1.465 . S
C635 C630 1.399 . S
C635 C634 1.394 . S
C635 C636 1.516 . S
C636 C635 1.516 . S
C636 C637 1.502 . S
C636 C638 1.561 . S
C636 C639 1.526 . S
C637 H621 0.959 . S
C637 H622 0.959 . S
C637 H623 0.961 . S
C637 C636 1.502 . S
C638 H624 0.960 . S
C638 H625 0.961 . S
C638 H626 0.959 . S
C638 C636 1.561 . S
C639 C636 1.526 . S
C639 C640 1.396 . S
C639 C644 1.390 . S
C640 C634 1.465 . S
C640 C639 1.396 . S
C640 C641 1.399 . S
C641 H627 0.929 . S
C641 C640 1.399 . S
C641 C642 1.385 . S
C642 H628 0.931 . S
C642 C641 1.385 . S
C642 C643 1.389 . S
C643 C642 1.389 . S
C643 C644 1.387 . S
C644 H629 0.930 . S
C644 C639 1.390 . S
C644 C643 1.387 . S
H645 C657 0.930 . S
H646 C659 0.930 . S
H647 C660 0.930 . S
H648 C664 0.959 . S
H649 C664 0.959 . S
H650 C664 0.961 . S
H651 C665 0.960 . S
H652 C665 0.961 . S
H653 C665 0.959 . S
H654 C668 0.929 . S
H655 C669 0.931 . S
H656 C671 0.930 . S
C657 H645 0.930 . S
C657 C658 1.399 . S
C657 C662 1.399 . S
C658 C657 1.399 . S
C658 C659 1.376 . S
C659 H646 0.930 . S
C659 C658 1.376 . S
C659 C660 1.388 . S
C660 H647 0.930 . S
C660 C659 1.388 . S
C660 C661 1.390 . S
C661 C660 1.390 . S
C661 C662 1.394 . S
C661 C667 1.465 . S
C662 C657 1.399 . S
C662 C661 1.394 . S
C662 C663 1.516 . S
C663 C662 1.516 . S
C663 C664 1.502 . S
C663 C665 1.561 . S
C663 C666 1.526 . S
C664 H648 0.959 . S
C664 H649 0.959 . S
C664 H650 0.961 . S
C664 C663 1.502 . S
C665 H651 0.960 . S
C665 H652 0.961 . S
C665 H653 0.959 . S
C665 C663 1.561 . S
C666 C663 1.526 . S
C666 C667 1.396 . S
C666 C671 1.390 . S
C667 C661 1.465 . S
C667 C666 1.396 . S
C667 C668 1.399 . S
C668 H654 0.929 . S
C668 C667 1.399 . S
C668 C669 1.385 . S
C669 H655 0.931 . S
C669 C668 1.385 . S
C669 C670 1.389 . S
C670 C669 1.389 . S
C670 C671 1.387 . S
C671 H656 0.930 . S
C671 C666 1.390 . S
C671 C670 1.387 . S
H672 C684 0.930 . S
H673 C686 0.930 . S
H674 C687 0.930 . S
H675 C691 0.959 . S
H676 C691 0.959 . S
H677 C691 0.961 . S
H678 C692 0.960 . S
H679 C692 0.961 . S
H680 C692 0.959 . S
H681 C695 0.929 . S
H682 C696 0.931 . S
H683 C698 0.930 . S
C684 H672 0.930 . S
C684 C685 1.399 . S
C684 C689 1.399 . S
C685 C684 1.399 . S
C685 C686 1.376 . S
C686 H673 0.930 . S
C686 C685 1.376 . S
C686 C687 1.388 . S
C687 H674 0.930 . S
C687 C686 1.388 . S
C687 C688 1.390 . S
C688 C687 1.390 . S
C688 C689 1.394 . S
C688 C694 1.465 . S
C689 C684 1.399 . S
C689 C688 1.394 . S
C689 C690 1.516 . S
C690 C689 1.516 . S
C690 C691 1.502 . S
C690 C692 1.561 . S
C690 C693 1.526 . S
C691 H675 0.959 . S
C691 H676 0.959 . S
C691 H677 0.961 . S
C691 C690 1.502 . S
C692 H678 0.960 . S
C692 H679 0.961 . S
C692 H680 0.959 . S
C692 C690 1.561 . S
C693 C690 1.526 . S
C693 C694 1.396 . S
C693 C698 1.390 . S
C694 C688 1.465 . S
C694 C693 1.396 . S
C694 C695 1.399 . S
C695 H681 0.929 . S
C695 C694 1.399 . S
C695 C696 1.385 . S
C696 H682 0.931 . S
C696 C695 1.385 . S
C696 C697 1.389 . S
C697 C696 1.389 . S
C697 C698 1.387 . S
C698 H683 0.930 . S
C698 C693 1.390 . S
C698 C697 1.387 . S
H699 C711 0.930 . S
H700 C713 0.930 1_556 S
H701 C714 0.930 1_556 S
H702 C718 0.959 . S
H703 C718 0.959 . S
H704 C718 0.961 . S
H705 C719 0.960 . S
H706 C719 0.961 . S
H707 C719 0.959 . S
H708 C722 0.929 . S
H709 C723 0.931 . S
H710 C725 0.930 . S
C711 H699 0.930 . S
C711 C712 1.399 . S
C711 C716 1.399 . S
C712 C711 1.399 . S
C712 C713 1.376 . S
C713 H700 0.930 1_554 S
C713 C712 1.376 . S
C713 C714 1.388 . S
C714 H701 0.930 1_554 S
C714 C713 1.388 . S
C714 C715 1.390 . S
C715 C714 1.390 . S
C715 C716 1.394 . S
C715 C721 1.465 . S
C716 C711 1.399 . S
C716 C715 1.394 . S
C716 C717 1.516 . S
C717 C716 1.516 . S
C717 C718 1.502 . S
C717 C719 1.561 . S
C717 C720 1.526 . S
C718 H702 0.959 . S
C718 H703 0.959 . S
C718 H704 0.961 . S
C718 C717 1.502 . S
C719 H705 0.960 . S
C719 H706 0.961 . S
C719 H707 0.959 . S
C719 C717 1.561 . S
C720 C717 1.526 . S
C720 C721 1.396 . S
C720 C725 1.390 . S
C721 C715 1.465 . S
C721 C720 1.396 . S
C721 C722 1.399 . S
C722 H708 0.929 . S
C722 C721 1.399 . S
C722 C723 1.385 . S
C723 H709 0.931 . S
C723 C722 1.385 . S
C723 C724 1.389 . S
C724 C723 1.389 . S
C724 C725 1.387 . S
C725 H710 0.930 . S
C725 C720 1.390 . S
C725 C724 1.387 . S
H726 C738 0.930 . S
H727 C740 0.930 . S
H728 C741 0.930 . S
H729 C745 0.959 . S
H730 C745 0.959 . S
H731 C745 0.961 . S
H732 C746 0.960 . S
H733 C746 0.961 . S
H734 C746 0.959 . S
H735 C749 0.929 . S
H736 C750 0.931 . S
H737 C752 0.930 . S
C738 H726 0.930 . S
C738 C739 1.399 . S
C738 C743 1.399 . S
C739 C738 1.399 . S
C739 C740 1.376 . S
C740 H727 0.930 . S
C740 C739 1.376 . S
C740 C741 1.388 . S
C741 H728 0.930 . S
C741 C740 1.388 . S
C741 C742 1.390 . S
C742 C741 1.390 . S
C742 C743 1.394 . S
C742 C748 1.465 . S
C743 C738 1.399 . S
C743 C742 1.394 . S
C743 C744 1.516 . S
C744 C743 1.516 . S
C744 C745 1.502 . S
C744 C746 1.561 . S
C744 C747 1.526 . S
C745 H729 0.959 . S
C745 H730 0.959 . S
C745 H731 0.961 . S
C745 C744 1.502 . S
C746 H732 0.960 . S
C746 H733 0.961 . S
C746 H734 0.959 . S
C746 C744 1.561 . S
C747 C744 1.526 . S
C747 C748 1.396 . S
C747 C752 1.390 . S
C748 C742 1.465 . S
C748 C747 1.396 . S
C748 C749 1.399 . S
C749 H735 0.929 . S
C749 C748 1.399 . S
C749 C750 1.385 . S
C750 H736 0.931 . S
C750 C749 1.385 . S
C750 C751 1.389 . S
C751 C750 1.389 . S
C751 C752 1.387 . S
C752 H737 0.930 . S
C752 C747 1.390 . S
C752 C751 1.387 . S
H753 C765 0.930 . S
H754 C767 0.930 . S
H755 C768 0.930 . S
H756 C772 0.959 . S
H757 C772 0.959 . S
H758 C772 0.961 . S
H759 C773 0.960 . S
H760 C773 0.961 . S
H761 C773 0.959 . S
H762 C776 0.929 . S
H763 C777 0.931 . S
H764 C779 0.930 . S
C765 H753 0.930 . S
C765 C766 1.399 . S
C765 C770 1.399 . S
C766 C765 1.399 . S
C766 C767 1.376 . S
C767 H754 0.930 . S
C767 C766 1.376 . S
C767 C768 1.388 . S
C768 H755 0.930 . S
C768 C767 1.388 . S
C768 C769 1.390 . S
C769 C768 1.390 . S
C769 C770 1.394 . S
C769 C775 1.465 . S
C770 C765 1.399 . S
C770 C769 1.394 . S
C770 C771 1.516 . S
C771 C770 1.516 . S
C771 C772 1.502 . S
C771 C773 1.561 . S
C771 C774 1.526 . S
C772 H756 0.959 . S
C772 H757 0.959 . S
C772 H758 0.961 . S
C772 C771 1.502 . S
C773 H759 0.960 . S
C773 H760 0.961 . S
C773 H761 0.959 . S
C773 C771 1.561 . S
C774 C771 1.526 . S
C774 C775 1.396 . S
C774 C779 1.390 . S
C775 C769 1.465 . S
C775 C774 1.396 . S
C775 C776 1.399 . S
C776 H762 0.929 . S
C776 C775 1.399 . S
C776 C777 1.385 . S
C777 H763 0.931 . S
C777 C776 1.385 . S
C777 C778 1.389 . S
C778 C777 1.389 . S
C778 C779 1.387 . S
C779 H764 0.930 . S
C779 C774 1.390 . S
C779 C778 1.387 . S
H780 C792 0.930 . S
H781 C794 0.930 . S
H782 C795 0.930 . S
H783 C799 0.959 . S
H784 C799 0.959 . S
H785 C799 0.961 . S
H786 C800 0.960 . S
H787 C800 0.961 . S
H788 C800 0.959 . S
H789 C803 0.929 . S
H790 C804 0.931 . S
H791 C806 0.930 . S
C792 H780 0.930 . S
C792 C793 1.399 . S
C792 C797 1.399 . S
C793 C792 1.399 . S
C793 C794 1.376 . S
C794 H781 0.930 . S
C794 C793 1.376 . S
C794 C795 1.388 . S
C795 H782 0.930 . S
C795 C794 1.388 . S
C795 C796 1.390 . S
C796 C795 1.390 . S
C796 C797 1.394 . S
C796 C802 1.465 . S
C797 C792 1.399 . S
C797 C796 1.394 . S
C797 C798 1.516 . S
C798 C797 1.516 . S
C798 C799 1.502 . S
C798 C800 1.561 . S
C798 C801 1.526 . S
C799 H783 0.959 . S
C799 H784 0.959 . S
C799 H785 0.961 . S
C799 C798 1.502 . S
C800 H786 0.960 . S
C800 H787 0.961 . S
C800 H788 0.959 . S
C800 C798 1.561 . S
C801 C798 1.526 . S
C801 C802 1.396 . S
C801 C806 1.390 . S
C802 C796 1.465 . S
C802 C801 1.396 . S
C802 C803 1.399 . S
C803 H789 0.929 . S
C803 C802 1.399 . S
C803 C804 1.385 . S
C804 H790 0.931 . S
C804 C803 1.385 . S
C804 C805 1.389 . S
C805 C804 1.389 . S
C805 C806 1.387 . S
C806 H791 0.930 . S
C806 C801 1.390 . S
C806 C805 1.387 . S
H807 C819 0.930 . S
H808 C821 0.930 . S
H809 C822 0.930 . S
H810 C826 0.959 . S
H811 C826 0.959 . S
H812 C826 0.961 . S
H813 C827 0.960 . S
H814 C827 0.961 . S
H815 C827 0.959 . S
H816 C830 0.929 . S
H817 C831 0.931 . S
H818 C833 0.930 . S
C819 H807 0.930 . S
C819 C820 1.399 . S
C819 C824 1.399 . S
C820 C819 1.399 . S
C820 C821 1.376 . S
C821 H808 0.930 . S
C821 C820 1.376 . S
C821 C822 1.388 . S
C822 H809 0.930 . S
C822 C821 1.388 . S
C822 C823 1.390 . S
C823 C822 1.390 . S
C823 C824 1.394 . S
C823 C829 1.465 . S
C824 C819 1.399 . S
C824 C823 1.394 . S
C824 C825 1.516 . S
C825 C824 1.516 . S
C825 C826 1.502 . S
C825 C827 1.561 . S
C825 C828 1.526 . S
C826 H810 0.959 . S
C826 H811 0.959 . S
C826 H812 0.961 . S
C826 C825 1.502 . S
C827 H813 0.960 . S
C827 H814 0.961 . S
C827 H815 0.959 . S
C827 C825 1.561 . S
C828 C825 1.526 . S
C828 C829 1.396 . S
C828 C833 1.390 . S
C829 C823 1.465 . S
C829 C828 1.396 . S
C829 C830 1.399 . S
C830 H816 0.929 . S
C830 C829 1.399 . S
C830 C831 1.385 . S
C831 H817 0.931 . S
C831 C830 1.385 . S
C831 C832 1.389 . S
C832 C831 1.389 . S
C832 C833 1.387 . S
C833 H818 0.930 . S
C833 C828 1.390 . S
C833 C832 1.387 . S
H834 C846 0.930 . S
H835 C848 0.930 . S
H836 C849 0.930 . S
H837 C853 0.959 . S
H838 C853 0.959 . S
H839 C853 0.961 . S
H840 C854 0.960 . S
H841 C854 0.961 . S
H842 C854 0.959 . S
H843 C857 0.929 . S
H844 C858 0.931 . S
H845 C860 0.930 . S
C846 H834 0.930 . S
C846 C847 1.399 . S
C846 C851 1.399 . S
C847 C846 1.399 . S
C847 C848 1.376 . S
C848 H835 0.930 . S
C848 C847 1.376 . S
C848 C849 1.388 . S
C849 H836 0.930 . S
C849 C848 1.388 . S
C849 C850 1.390 . S
C850 C849 1.390 . S
C850 C851 1.394 . S
C850 C856 1.465 . S
C851 C846 1.399 . S
C851 C850 1.394 . S
C851 C852 1.516 . S
C852 C851 1.516 . S
C852 C853 1.502 . S
C852 C854 1.561 . S
C852 C855 1.526 . S
C853 H837 0.959 . S
C853 H838 0.959 . S
C853 H839 0.961 . S
C853 C852 1.502 . S
C854 H840 0.960 . S
C854 H841 0.961 . S
C854 H842 0.959 . S
C854 C852 1.561 . S
C855 C852 1.526 . S
C855 C856 1.396 . S
C855 C860 1.390 . S
C856 C850 1.465 . S
C856 C855 1.396 . S
C856 C857 1.399 . S
C857 H843 0.929 . S
C857 C856 1.399 . S
C857 C858 1.385 . S
C858 H844 0.931 . S
C858 C857 1.385 . S
C858 C859 1.389 . S
C859 C858 1.389 . S
C859 C860 1.387 . S
C860 H845 0.930 . S
C860 C855 1.390 . S
C860 C859 1.387 . S
H861 C873 0.930 . S
H862 C875 0.930 . S
H863 C876 0.930 . S
H864 C880 0.965 . S
H865 C880 0.959 . S
H866 C880 0.963 . S
H867 C881 0.960 . S
H868 C881 0.961 1_554 S
H869 C881 0.959 . S
H870 C884 0.929 . S
H871 C885 0.931 . S
H872 C887 0.930 . S
C873 H861 0.930 . S
C873 C874 1.399 . S
C873 C878 1.399 . S
C874 C873 1.399 . S
C874 C875 1.376 . S
C875 H862 0.930 . S
C875 C874 1.376 . S
C875 C876 1.388 . S
C876 H863 0.930 . S
C876 C875 1.388 . S
C876 C877 1.390 . S
C877 C876 1.390 . S
C877 C878 1.394 . S
C877 C883 1.465 . S
C878 C873 1.399 . S
C878 C877 1.394 . S
C878 C879 1.516 . S
C879 C878 1.516 . S
C879 C880 1.502 1_556 S
C879 C881 1.561 . S
C879 C882 1.526 . S
C880 H864 0.965 . S
C880 H865 0.959 . S
C880 H866 0.963 . S
C880 C879 1.502 1_554 S
C881 H867 0.960 . S
C881 H868 0.961 1_556 S
C881 H869 0.959 . S
C881 C879 1.561 . S
C882 C879 1.526 . S
C882 C883 1.396 . S
C882 C887 1.390 1_556 S
C883 C877 1.465 . S
C883 C882 1.396 . S
C883 C884 1.399 . S
C884 H870 0.929 . S
C884 C883 1.399 . S
C884 C885 1.385 . S
C885 H871 0.931 . S
C885 C884 1.385 . S
C885 C886 1.389 1_556 S
C886 C885 1.389 1_554 S
C886 C887 1.387 . S
C887 H872 0.930 . S
C887 C882 1.390 1_554 S
C887 C886 1.387 . S
H888 C900 0.930 . S
H889 C902 0.930 . S
H890 C903 0.930 . S
H891 C907 0.959 . S
H892 C907 0.959 . S
H893 C907 0.961 . S
H894 C908 0.960 . S
H895 C908 0.961 . S
H896 C908 0.959 . S
H897 C911 0.929 . S
H898 C912 0.931 . S
H899 C914 0.930 . S
C900 H888 0.930 . S
C900 C901 1.399 . S
C900 C905 1.399 . S
C901 C900 1.399 . S
C901 C902 1.376 . S
C902 H889 0.930 . S
C902 C901 1.376 . S
C902 C903 1.388 . S
C903 H890 0.930 . S
C903 C902 1.388 . S
C903 C904 1.390 . S
C904 C903 1.390 . S
C904 C905 1.394 . S
C904 C910 1.465 . S
C905 C900 1.399 . S
C905 C904 1.394 . S
C905 C906 1.516 . S
C906 C905 1.516 . S
C906 C907 1.502 . S
C906 C908 1.561 . S
C906 C909 1.526 . S
C907 H891 0.959 . S
C907 H892 0.959 . S
C907 H893 0.961 . S
C907 C906 1.502 . S
C908 H894 0.960 . S
C908 H895 0.961 . S
C908 H896 0.959 . S
C908 C906 1.561 . S
C909 C906 1.526 . S
C909 C910 1.396 . S
C909 C914 1.390 . S
C910 C904 1.465 . S
C910 C909 1.396 . S
C910 C911 1.399 . S
C911 H897 0.929 . S
C911 C910 1.399 . S
C911 C912 1.385 . S
C912 H898 0.931 . S
C912 C911 1.385 . S
C912 C913 1.389 . S
C913 C912 1.389 . S
C913 C914 1.387 . S
C914 H899 0.930 . S
C914 C909 1.390 . S
C914 C913 1.387 . S
H915 C927 0.930 . S
H916 C929 0.930 . S
H917 C930 0.930 . S
H918 C934 0.959 . S
H919 C934 0.959 . S
H920 C934 0.961 . S
H921 C935 0.960 . S
H922 C935 0.961 . S
H923 C935 0.959 . S
H924 C938 0.929 . S
H925 C939 0.931 . S
H926 C941 0.930 . S
C927 H915 0.930 . S
C927 C928 1.399 . S
C927 C932 1.399 . S
C928 C927 1.399 . S
C928 C929 1.376 . S
C929 H916 0.930 . S
C929 C928 1.376 . S
C929 C930 1.388 . S
C930 H917 0.930 . S
C930 C929 1.388 . S
C930 C931 1.390 . S
C931 C930 1.390 . S
C931 C932 1.394 . S
C931 C937 1.465 . S
C932 C927 1.399 . S
C932 C931 1.394 . S
C932 C933 1.516 . S
C933 C932 1.516 . S
C933 C934 1.502 . S
C933 C935 1.561 . S
C933 C936 1.526 . S
C934 H918 0.959 . S
C934 H919 0.959 . S
C934 H920 0.961 . S
C934 C933 1.502 . S
C935 H921 0.960 . S
C935 H922 0.961 . S
C935 H923 0.959 . S
C935 C933 1.561 . S
C936 C933 1.526 . S
C936 C937 1.396 . S
C936 C941 1.390 . S
C937 C931 1.465 . S
C937 C936 1.396 . S
C937 C938 1.399 . S
C938 H924 0.929 . S
C938 C937 1.399 . S
C938 C939 1.385 . S
C939 H925 0.931 . S
C939 C938 1.385 . S
C939 C940 1.389 . S
C940 C939 1.389 . S
C940 C941 1.387 . S
C941 H926 0.930 . S
C941 C936 1.390 . S
C941 C940 1.387 . S
H942 C954 0.930 . S
H943 C956 0.930 . S
H944 C957 0.930 . S
H945 C961 0.959 . S
H946 C961 0.959 . S
H947 C961 0.961 . S
H948 C962 0.960 . S
H949 C962 0.961 . S
H950 C962 0.959 . S
H951 C965 0.929 . S
H952 C966 0.931 . S
H953 C968 0.930 . S
C954 H942 0.930 . S
C954 C955 1.399 . S
C954 C959 1.399 . S
C955 C954 1.399 . S
C955 C956 1.376 . S
C956 H943 0.930 . S
C956 C955 1.376 . S
C956 C957 1.388 . S
C957 H944 0.930 . S
C957 C956 1.388 . S
C957 C958 1.390 . S
C958 C957 1.390 . S
C958 C959 1.394 . S
C958 C964 1.465 . S
C959 C954 1.399 . S
C959 C958 1.394 . S
C959 C960 1.516 . S
C960 C959 1.516 . S
C960 C961 1.502 . S
C960 C962 1.561 . S
C960 C963 1.526 . S
C961 H945 0.959 . S
C961 H946 0.959 . S
C961 H947 0.961 . S
C961 C960 1.502 . S
C962 H948 0.960 . S
C962 H949 0.961 . S
C962 H950 0.959 . S
C962 C960 1.561 . S
C963 C960 1.526 . S
C963 C964 1.396 . S
C963 C968 1.390 . S
C964 C958 1.465 . S
C964 C963 1.396 . S
C964 C965 1.399 . S
C965 H951 0.929 . S
C965 C964 1.399 . S
C965 C966 1.385 . S
C966 H952 0.931 . S
C966 C965 1.385 . S
C966 C967 1.389 . S
C967 C966 1.389 . S
C967 C968 1.387 . S
C968 H953 0.930 . S
C968 C963 1.390 . S
C968 C967 1.387 . S
H969 C981 0.930 . S
H970 C983 0.930 . S
H971 C984 0.930 . S
H972 C988 0.959 . S
H973 C988 0.959 . S
H974 C988 0.961 . S
H975 C989 0.960 . S
H976 C989 0.961 . S
H977 C989 0.959 . S
H978 C992 0.929 . S
H979 C993 0.931 . S
H980 C995 0.930 . S
C981 H969 0.930 . S
C981 C982 1.399 . S
C981 C986 1.399 . S
C982 C981 1.399 . S
C982 C983 1.376 . S
C983 H970 0.930 . S
C983 C982 1.376 . S
C983 C984 1.388 . S
C984 H971 0.930 . S
C984 C983 1.388 . S
C984 C985 1.390 . S
C985 C984 1.390 . S
C985 C986 1.394 . S
C985 C991 1.465 . S
C986 C981 1.399 . S
C986 C985 1.394 . S
C986 C987 1.516 . S
C987 C986 1.516 . S
C987 C988 1.502 . S
C987 C989 1.561 . S
C987 C990 1.526 . S
C988 H972 0.959 . S
C988 H973 0.959 . S
C988 H974 0.961 . S
C988 C987 1.502 . S
C989 H975 0.960 . S
C989 H976 0.961 . S
C989 H977 0.959 . S
C989 C987 1.561 . S
C990 C987 1.526 . S
C990 C991 1.396 . S
C990 C995 1.390 . S
C991 C985 1.465 . S
C991 C990 1.396 . S
C991 C992 1.399 . S
C992 H978 0.929 . S
C992 C991 1.399 . S
C992 C993 1.385 . S
C993 H979 0.931 . S
C993 C992 1.385 . S
C993 C994 1.389 . S
C994 C993 1.389 . S
C994 C995 1.387 . S
C995 H980 0.930 . S
C995 C990 1.390 . S
C995 C994 1.387 . S
H996 C1008 0.930 . S
H997 C1010 0.930 . S
H998 C1011 0.930 . S
H999 C1015 0.959 . S
H1000 C1015 0.959 . S
H1001 C1015 0.961 . S
H1002 C1016 0.960 . S
H1003 C1016 0.961 . S
H1004 C1016 0.959 . S
H1005 C1019 0.929 . S
H1006 C1020 0.931 . S
H1007 C1022 0.930 . S
C1008 H996 0.930 . S
C1008 C1009 1.399 . S
C1008 C1013 1.399 . S
C1009 C1008 1.399 . S
C1009 C1010 1.376 . S
C1010 H997 0.930 . S
C1010 C1009 1.376 . S
C1010 C1011 1.388 . S
C1011 H998 0.930 . S
C1011 C1010 1.388 . S
C1011 C1012 1.390 . S
C1012 C1011 1.390 . S
C1012 C1013 1.394 . S
C1012 C1018 1.465 . S
C1013 C1008 1.399 . S
C1013 C1012 1.394 . S
C1013 C1014 1.516 . S
C1014 C1013 1.516 . S
C1014 C1015 1.502 . S
C1014 C1016 1.561 . S
C1014 C1017 1.526 . S
C1015 H999 0.959 . S
C1015 H1000 0.959 . S
C1015 H1001 0.961 . S
C1015 C1014 1.502 . S
C1016 H1002 0.960 . S
C1016 H1003 0.961 . S
C1016 H1004 0.959 . S
C1016 C1014 1.561 . S
C1017 C1014 1.526 . S
C1017 C1018 1.396 . S
C1017 C1022 1.390 . S
C1018 C1012 1.465 . S
C1018 C1017 1.396 . S
C1018 C1019 1.399 . S
C1019 H1005 0.929 . S
C1019 C1018 1.399 . S
C1019 C1020 1.385 . S
C1020 H1006 0.931 . S
C1020 C1019 1.385 . S
C1020 C1021 1.389 . S
C1021 C1020 1.389 . S
C1021 C1022 1.387 . S
C1022 H1007 0.930 . S
C1022 C1017 1.390 . S
C1022 C1021 1.387 . S
H1023 C1035 0.930 . S
H1024 C1037 0.930 . S
H1025 C1038 0.930 . S
H1026 C1042 0.959 . S
H1027 C1042 0.959 . S
H1028 C1042 0.961 . S
H1029 C1043 0.960 . S
H1030 C1043 0.961 . S
H1031 C1043 0.959 . S
H1032 C1046 0.929 . S
H1033 C1047 0.931 . S
H1034 C1049 0.930 . S
C1035 H1023 0.930 . S
C1035 C1036 1.399 . S
C1035 C1040 1.399 . S
C1036 C1035 1.399 . S
C1036 C1037 1.376 . S
C1037 H1024 0.930 . S
C1037 C1036 1.376 . S
C1037 C1038 1.388 . S
C1038 H1025 0.930 . S
C1038 C1037 1.388 . S
C1038 C1039 1.390 . S
C1039 C1038 1.390 . S
C1039 C1040 1.394 . S
C1039 C1045 1.465 . S
C1040 C1035 1.399 . S
C1040 C1039 1.394 . S
C1040 C1041 1.516 . S
C1041 C1040 1.516 . S
C1041 C1042 1.502 . S
C1041 C1043 1.561 . S
C1041 C1044 1.526 . S
C1042 H1026 0.959 . S
C1042 H1027 0.959 . S
C1042 H1028 0.961 . S
C1042 C1041 1.502 . S
C1043 H1029 0.960 . S
C1043 H1030 0.961 . S
C1043 H1031 0.959 . S
C1043 C1041 1.561 . S
C1044 C1041 1.526 . S
C1044 C1045 1.396 . S
C1044 C1049 1.390 . S
C1045 C1039 1.465 . S
C1045 C1044 1.396 . S
C1045 C1046 1.399 . S
C1046 H1032 0.929 . S
C1046 C1045 1.399 . S
C1046 C1047 1.385 . S
C1047 H1033 0.931 . S
C1047 C1046 1.385 . S
C1047 C1048 1.389 . S
C1048 C1047 1.389 . S
C1048 C1049 1.387 . S
C1049 H1034 0.930 . S
C1049 C1044 1.390 . S
C1049 C1048 1.387 . S
H1050 C1062 0.930 . S
H1051 C1064 0.930 . S
H1052 C1065 0.930 . S
H1053 C1069 0.959 . S
H1054 C1069 0.959 . S
H1055 C1069 0.961 . S
H1056 C1070 0.960 . S
H1057 C1070 0.961 . S
H1058 C1070 0.959 . S
H1059 C1073 0.929 1_554 S
H1060 C1074 0.931 . S
H1061 C1076 0.930 . S
C1062 H1050 0.930 . S
C1062 C1063 1.399 . S
C1062 C1067 1.399 1_554 S
C1063 C1062 1.399 . S
C1063 C1064 1.376 . S
C1064 H1051 0.930 . S
C1064 C1063 1.376 . S
C1064 C1065 1.388 . S
C1065 H1052 0.930 . S
C1065 C1064 1.388 . S
C1065 C1066 1.390 . S
C1066 C1065 1.390 . S
C1066 C1067 1.394 1_554 S
C1066 C1072 1.465 1_554 S
C1067 C1062 1.399 1_556 S
C1067 C1066 1.394 1_556 S
C1067 C1068 1.516 . S
C1068 C1067 1.516 . S
C1068 C1069 1.502 . S
C1068 C1070 1.561 . S
C1068 C1071 1.526 . S
C1069 H1053 0.959 . S
C1069 H1054 0.959 . S
C1069 H1055 0.961 . S
C1069 C1068 1.502 . S
C1070 H1056 0.960 . S
C1070 H1057 0.961 . S
C1070 H1058 0.959 . S
C1070 C1068 1.561 . S
C1071 C1068 1.526 . S
C1071 C1072 1.396 . S
C1071 C1076 1.390 . S
C1072 C1066 1.465 1_556 S
C1072 C1071 1.396 . S
C1072 C1073 1.399 . S
C1073 H1059 0.929 1_556 S
C1073 C1072 1.399 . S
C1073 C1074 1.385 . S
C1074 H1060 0.931 . S
C1074 C1073 1.385 . S
C1074 C1075 1.389 . S
C1075 C1074 1.389 . S
C1075 C1076 1.387 . S
C1076 H1061 0.930 . S
C1076 C1071 1.390 . S
C1076 C1075 1.387 . S
H1077 C1089 0.930 . S
H1078 C1091 0.930 . S
H1079 C1092 0.930 . S
H1080 C1096 0.959 . S
H1081 C1096 0.959 . S
H1082 C1096 0.961 . S
H1083 C1097 0.960 . S
H1084 C1097 0.961 . S
H1085 C1097 0.959 . S
H1086 C1100 0.929 . S
H1087 C1101 0.931 . S
H1088 C1103 0.930 . S
C1089 H1077 0.930 . S
C1089 C1090 1.399 . S
C1089 C1094 1.399 . S
C1090 C1089 1.399 . S
C1090 C1091 1.376 . S
C1091 H1078 0.930 . S
C1091 C1090 1.376 . S
C1091 C1092 1.388 . S
C1092 H1079 0.930 . S
C1092 C1091 1.388 . S
C1092 C1093 1.390 . S
C1093 C1092 1.390 . S
C1093 C1094 1.394 . S
C1093 C1099 1.465 . S
C1094 C1089 1.399 . S
C1094 C1093 1.394 . S
C1094 C1095 1.516 . S
C1095 C1094 1.516 . S
C1095 C1096 1.502 . S
C1095 C1097 1.561 . S
C1095 C1098 1.526 . S
C1096 H1080 0.959 . S
C1096 H1081 0.959 . S
C1096 H1082 0.961 . S
C1096 C1095 1.502 . S
C1097 H1083 0.960 . S
C1097 H1084 0.961 . S
C1097 H1085 0.959 . S
C1097 C1095 1.561 . S
C1098 C1095 1.526 . S
C1098 C1099 1.396 . S
C1098 C1103 1.390 . S
C1099 C1093 1.465 . S
C1099 C1098 1.396 . S
C1099 C1100 1.399 . S
C1100 H1086 0.929 . S
C1100 C1099 1.399 . S
C1100 C1101 1.385 . S
C1101 H1087 0.931 . S
C1101 C1100 1.385 . S
C1101 C1102 1.389 . S
C1102 C1101 1.389 . S
C1102 C1103 1.387 . S
C1103 H1088 0.930 . S
C1103 C1098 1.390 . S
C1103 C1102 1.387 . S
C481 C447 1.258 . S
C469 C29 1.535 . S
C496 C115 1.545 . S
C508 C377 1.221 . S
C523 C153 1.463 . S
C535 C397 1.556 . S
C550 C239 1.373 . S
C562 C411 1.393 . S
C589 C419 1.185 . S
C577 C301 1.518 . S
C604 C339 1.707 . S
C616 C433 1.593 . S
C631 C91 1.489 . S
C643 C391 1.356 . S
C658 C177 1.450 . S
C670 C405 1.224 . S
C685 C215 1.365 . S
C697 C425 1.490 . S
C724 C439 1.815 . S
C712 C277 1.667 . S
C751 C453 1.503 . S
C739 C363 1.479 . S
C778 C383 1.439 . S
C766 C53 1.414 . S
C793 C35 1.508 . S
C805 C390 1.477 . S
C820 C109 1.340 . S
C832 C404 1.435 . S
C859 C426 1.398 . S
C847 C159 1.393 . S
C874 C233 1.508 . S
C886 C440 1.711 . S
C913 C454 1.474 . S
C901 C295 1.388 . S
C940 C384 1.300 . S
C928 C345 1.247 . S
C967 C446 1.368 . S
C955 C97 1.408 . S
C982 C171 1.273 . S
C994 C376 1.456 . S
C1021 C398 1.511 . S
C1009 C221 1.516 . S
C1036 C283 1.352 . S
C1048 C412 1.339 . S
C1063 C357 1.357 . S
C1075 C418 1.546 . S
C1090 C47 1.620 . S
C1102 C432 1.660 . S
