# Generated by pormake.
# Topology sit, (3,6)-cn, num edge types: 1
# Building blocks:
#     Node 0, Type 0, BuildingBlock: QEWDON_clean_linker_0, # of connection points: 3
#     Node 1, Type 0, BuildingBlock: QEWDON_clean_linker_0, # of connection points: 3
#     Node 2, Type 0, BuildingBlock: QEWDON_clean_linker_0, # of connection points: 3
#     Node 3, Type 0, BuildingBlock: QEWDON_clean_linker_0, # of connection points: 3
#     Node 4, Type 1, BuildingBlock: MIDCAF_clean_sbu_0, # of connection points: 6
#     Node 5, Type 1, BuildingBlock: MIDCAF_clean_sbu_0, # of connection points: 6
#     Edge 6, Type (0, 1), BuildingBlock: CIFDUS_clean_linker_0, # of connection points: 2
#     Edge 7, Type (0, 1), BuildingBlock: CIFDUS_clean_linker_0, # of connection points: 2
#     Edge 8, Type (0, 1), BuildingBlock: CIFDUS_clean_linker_0, # of connection points: 2
#     Edge 9, Type (0, 1), BuildingBlock: CIFDUS_clean_linker_0, # of connection points: 2
#     Edge 10, Type (0, 1), BuildingBlock: CIFDUS_clean_linker_0, # of connection points: 2
#     Edge 11, Type (0, 1), BuildingBlock: CIFDUS_clean_linker_0, # of connection points: 2
#     Edge 12, Type (0, 1), BuildingBlock: CIFDUS_clean_linker_0, # of connection points: 2
#     Edge 13, Type (0, 1), BuildingBlock: CIFDUS_clean_linker_0, # of connection points: 2
#     Edge 14, Type (0, 1), BuildingBlock: CIFDUS_clean_linker_0, # of connection points: 2
#     Edge 15, Type (0, 1), BuildingBlock: CIFDUS_clean_linker_0, # of connection points: 2
#     Edge 16, Type (0, 1), BuildingBlock: CIFDUS_clean_linker_0, # of connection points: 2
#     Edge 17, Type (0, 1), BuildingBlock: CIFDUS_clean_linker_0, # of connection points: 2
# Relax obj value: 0.077
# Max RMSD: 0.185
# Mean RMSD: 0.148
data_MOF--net-sit--node1-MIDCAF_clean_sbu_0--node2-QEWDON_clean_linker_0--edge1-CIFDUS_clean_linker_0
_symmetry_space_group_name_H-M    P1
_symmetry_Int_Tables_number       1
_symmetry_cell_setting            triclinic
loop_
_symmetry_equiv_pos_as_xyz
'x, y, z'
_cell_length_a     19.313455
_cell_length_b     29.447187
_cell_length_c     34.83391
_cell_angle_alpha  90.026077
_cell_angle_beta   84.119518
_cell_angle_gamma 81.608017
loop_
_atom_site_label
_atom_site_type_symbol
_atom_site_fract_x
_atom_site_fract_y
_atom_site_fract_z
_atom_type_partial_charge
H0 H 0.12711 0.32508 0.04605 0.0
C1 C 0.08704 0.34405 0.03035 0.0
C2 C 0.09668 0.38686 0.01401 0.0
C3 C 0.02697 0.32412 0.0247 0.0
H4 H 0.05045 0.44116 0.97841 0.0
C5 C 0.04304 0.40993 0.99358 0.0
C6 C -0.01907 0.39184 0.98995 0.0
C7 C -0.02636 0.34854 0.00528 0.0
C8 C 0.02184 0.27629 0.03625 0.0
H9 H 0.92651 0.33351 1.00207 0.0
C10 C 0.02258 0.26332 0.07499 0.0
C11 C 0.01502 0.21802 0.08585 0.0
C12 C 0.01489 0.24348 0.00817 0.0
H13 H 0.01431 0.2528 0.97811 0.0
C14 C 0.00915 0.19833 0.01861 0.0
H15 H 0.02788 0.28868 0.09665 0.0
C16 C 0.00905 0.18559 0.0572 0.0
H17 H 0.00252 0.15068 0.06472 0.0
H18 H 0.00391 0.17325 0.99677 0.0
H19 H 0.05181 0.72563 0.09802 0.0
C20 C 0.00912 0.71468 0.08423 0.0
C21 C 0.02471 0.68525 0.05165 0.0
C22 C 0.93856 0.73135 0.09786 0.0
H23 H -0.01918 0.64809 0.00882 0.0
C24 C -0.03052 0.67054 0.03409 0.0
C25 C 0.89968 0.68729 0.04686 0.0
C26 C 0.88433 0.71787 0.07829 0.0
C27 C 0.9203 0.7644 0.13112 0.0
H28 H 0.82995 0.73242 0.08645 0.0
C29 C -0.03813 0.79888 0.13737 0.0
C30 C 0.94157 0.83117 0.16781 0.0
C31 C 0.85905 0.76235 0.15638 0.0
H32 H 0.82685 0.73566 0.15329 0.0
C33 C 0.83853 0.79453 0.18621 0.0
H34 H 0.00919 0.80127 0.11837 0.0
C35 C 0.87919 0.8288 0.19185 0.0
H36 H 0.86302 0.85258 0.21594 0.0
H37 H 0.79127 0.79255 0.20534 0.0
H38 H 0.68826 0.83243 0.53578 0.0
C39 C 0.63813 0.85441 0.53577 0.0
C40 C 0.63532 0.90163 0.5282 0.0
C41 C 0.57631 0.83445 0.54067 0.0
H42 H 0.56577 0.96525 0.52263 0.0
C43 C 0.5692 0.92866 0.52729 0.0
C44 C 0.5074 0.9086 0.53001 0.0
C45 C 0.51136 0.8614 0.53728 0.0
C46 C 0.57987 0.78457 0.54612 0.0
H47 H 0.46447 0.84499 0.53856 0.0
C48 C 0.58716 0.76586 0.58273 0.0
C49 C 0.58834 0.71838 0.5885 0.0
C50 C 0.574 0.75577 0.51494 0.0
H51 H 0.56805 0.76981 0.48652 0.0
C52 C 0.57583 0.70863 0.5203 0.0
H53 H 0.58992 0.78859 0.60684 0.0
C54 C 0.58283 0.68995 0.55682 0.0
H55 H 0.58439 0.65327 0.5602 0.0
H56 H 0.57158 0.6865 0.49609 0.0
H57 H 0.57499 0.23393 0.59662 0.0
C58 C 0.54067 0.21549 0.58185 0.0
C59 C 0.56887 0.18782 0.54952 0.0
C60 C 0.46857 0.21899 0.595 0.0
H61 H 0.54662 0.1437 0.50436 0.0
C62 C 0.52517 0.16389 0.53005 0.0
C63 C 0.45336 0.1677 0.54228 0.0
C64 C 0.42548 0.19489 0.57478 0.0
C65 C 0.43689 0.24854 0.6289 0.0
H66 H 0.36923 0.19907 0.58304 0.0
C67 C 0.4592 0.29106 0.63606 0.0
C68 C 0.42628 0.31943 0.66724 0.0
C69 C 0.38219 0.23461 0.65397 0.0
H70 H 0.36494 0.20169 0.6501 0.0
C71 C 0.34924 0.26277 0.68461 0.0
H72 H 0.50105 0.30259 0.61716 0.0
C73 C 0.37083 0.30491 0.69119 0.0
H74 H 0.34549 0.32555 0.71586 0.0
H75 H 0.30725 0.25163 0.70363 0.0
Zn76 Zn 0.04541 0.15417 0.37549 0.0
Zn77 Zn 0.09245 0.97432 0.37699 0.0
Zn78 Zn 0.06325 0.0632 0.37483 0.0
C79 C 0.08074 0.9958 0.30019 0.0
C80 C -0.04093 0.99895 0.41631 0.0
O81 O 0.15332 0.08813 0.39772 0.0
O82 O 0.13976 0.16335 0.38919 0.0
C83 C 0.03877 0.12521 0.29965 0.0
O84 O 0.06122 1.03613 0.3155 0.0
O85 O 0.10453 0.9629 0.32064 0.0
O86 O 0.00253 0.96393 0.40558 0.0
O87 O -0.02681 1.03956 0.40845 0.0
O88 O 0.02703 0.16068 0.32106 0.0
O89 O 0.05547 0.08537 0.31426 0.0
O90 O -0.03153 0.08756 0.41485 0.0
O91 O -0.03491 0.16299 0.41656 0.0
C92 C 0.94059 0.12751 0.42861 0.0
O93 O 0.16363 1.04061 0.40068 0.0
O94 O 0.17417 0.96505 0.40603 0.0
C95 C 0.17544 0.12718 0.40001 0.0
C96 C 0.19631 1.00233 0.41186 0.0
Zn97 Zn 0.5079 0.64393 0.87605 0.0
Zn98 Zn 0.51275 0.48299 0.87422 0.0
Zn99 Zn 0.51327 0.55969 0.87686 0.0
C100 C 0.47304 0.50514 0.80624 0.0
C101 C 0.41925 0.50279 0.93327 0.0
O102 O 0.60368 0.57191 0.90783 0.0
O103 O 0.57518 0.64716 0.91409 0.0
C104 C 0.53523 0.62106 0.80043 0.0
O105 O 0.50437 0.53854 0.81596 0.0
O106 O 0.45664 0.47659 0.83118 0.0
O107 O 0.46844 0.46999 0.92554 0.0
O108 O 0.42131 0.54079 0.91495 0.0
O109 O 0.54044 0.65454 0.82196 0.0
O110 O 0.51939 0.58339 0.81552 0.0
O111 O 0.41541 0.58987 0.91219 0.0
O112 O 0.4075 0.66245 0.89451 0.0
C113 C 0.38178 0.63108 0.91315 0.0
O114 O 0.61562 0.52527 0.89515 0.0
O115 O 0.61357 0.46108 0.86344 0.0
C116 C 0.61346 0.61063 0.92206 0.0
C117 C 0.64695 0.48566 0.88213 0.0
H118 H 0.07763 0.13988 0.11806 0.0
H119 H 0.93978 0.26715 0.14626 0.0
H120 H 0.93116 0.24748 0.21433 0.0
H121 H -0.03471 0.19591 0.26584 0.0
H122 H 0.10658 0.06987 0.23947 0.0
H123 H 0.10912 0.08632 0.17041 0.0
C124 C 0.04527 0.16308 0.13912 0.0
C125 C 0.01002 0.20519 0.12714 0.0
C126 C 0.04045 0.1515 0.17837 0.0
C127 C -0.03137 0.23503 0.15477 0.0
C128 C -0.03683 0.22363 0.19367 0.0
C129 C -0.00363 0.17179 0.24501 0.0
C130 C 0.03515 0.13146 0.25774 0.0
C131 C -0.00069 0.18224 0.20576 0.0
C132 C 0.07494 0.10058 0.23038 0.0
C133 C 0.07714 0.11033 0.19094 0.0
H134 H 0.90411 0.92256 0.18369 0.0
H135 H 0.08218 0.81474 0.17434 0.0
H136 H 0.15023 0.86345 0.20731 0.0
H137 H 0.14854 0.92875 0.25132 0.0
H138 H -0.03198 1.03462 0.26425 0.0
H139 H 0.91248 0.99564 0.21639 0.0
C140 C -0.04155 0.91028 0.18804 0.0
C141 C -0.01235 0.8648 0.17742 0.0
C142 C -0.0034 0.93808 0.20794 0.0
C143 C 0.05845 0.8495 0.18242 0.0
C144 C 0.0972 0.87724 0.20156 0.0
C145 C 0.09817 0.94414 0.24254 0.0
C146 C 0.06179 0.98396 0.26178 0.0
C147 C 0.0654 0.9205 0.21629 0.0
C148 C -0.00297 1.00395 0.24992 0.0
C149 C -0.03521 0.98126 0.22294 0.0
H150 H 0.51689 0.65308 0.62291 0.0
H151 H 0.67189 0.74022 0.64224 0.0
H152 H 0.67276 0.71459 0.70873 0.0
H153 H 0.62366 0.67198 0.76246 0.0
H154 H 0.46826 0.58524 0.74434 0.0
H155 H 0.47517 0.60478 0.67582 0.0
C156 C 0.55184 0.66582 0.64143 0.0
C157 C 0.59354 0.69907 0.6277 0.0
C158 C 0.55224 0.65081 0.67974 0.0
C159 C 0.63809 0.71544 0.65227 0.0
C160 C 0.63896 0.7006 0.69024 0.0
C161 C 0.59191 0.65691 0.74337 0.0
C162 C 0.54573 0.62702 0.75828 0.0
C163 C 0.59524 0.66908 0.70444 0.0
C164 C 0.50522 0.60751 0.73332 0.0
C165 C 0.50854 0.61922 0.69428 0.0
H166 H 0.34922 0.40279 0.6853 0.0
H167 H 0.56211 0.33185 0.67283 0.0
H168 H 0.60099 0.39446 0.70708 0.0
H169 H 0.56818 0.45837 0.75409 0.0
H170 H 0.35324 0.52432 0.77189 0.0
H171 H 0.32146 0.47602 0.72128 0.0
C172 C 0.40443 0.40172 0.68924 0.0
C173 C 0.45246 0.36237 0.67743 0.0
C174 C 0.42583 0.43705 0.71014 0.0
C175 C 0.52408 0.36166 0.68188 0.0
C176 C 0.54622 0.39732 0.70175 0.0
C177 C 0.51535 0.46371 0.74526 0.0
C178 C 0.46305 0.49482 0.76624 0.0
C179 C 0.49683 0.43379 0.7179 0.0
C180 C 0.39431 0.50094 0.75556 0.0
C181 C 0.376 0.47276 0.72713 0.0
H182 H 0.11966 0.47692 0.00937 0.0
H183 H 0.23039 0.33904 0.01816 0.0
H184 H 0.34152 0.36724 1.00339 0.0
H185 H 0.40564 0.42661 0.97515 0.0
H186 H 0.29006 0.55578 0.94527 0.0
H187 H 0.18331 0.53601 0.98032 0.0
C188 C 0.16764 0.4525 0.00747 0.0
C189 C 0.16505 0.40533 0.01364 0.0
C190 C 0.2313 0.46781 0.99475 0.0
C191 C 0.22912 0.37545 0.01365 0.0
C192 C 0.29332 0.39145 0.00455 0.0
C193 C 0.3574 0.45088 0.9768 0.0
C194 C 0.35672 0.49381 0.95885 0.0
C195 C 0.29466 0.43694 0.99306 0.0
C196 C 0.29334 0.52417 0.96083 0.0
C197 C 0.23173 0.51212 0.98003 0.0
H198 H 0.83455 0.61136 0.04433 0.0
H199 H 0.84324 0.74509 0.99546 0.0
H200 H 0.75818 0.73159 0.95097 0.0
H201 H 0.68343 0.68193 0.92561 0.0
H202 H 0.66443 0.55043 0.97664 0.0
H203 H 0.75207 0.5624 0.02071 0.0
C204 C 0.81696 0.63744 0.02408 0.0
C205 C 0.84422 0.67919 0.02292 0.0
C206 C 0.76729 0.62958 0.99891 0.0
C207 C 0.82203 0.71295 0.99673 0.0
C208 C 0.7739 0.70514 0.97129 0.0
C209 C 0.69862 0.65571 0.94629 0.0
C210 C 0.66915 0.61482 0.94727 0.0
C211 C 0.74665 0.66355 0.97199 0.0
C212 C 0.68821 0.58158 0.97464 0.0
C213 C 0.73759 0.58868 1.00004 0.0
H214 H 0.90296 0.35744 0.93946 0.0
H215 H 0.93531 0.48459 0.99167 0.0
H216 H 0.84268 0.52656 0.95732 0.0
H217 H 0.74455 0.52595 0.91678 0.0
H218 H 0.70751 0.39694 0.87037 0.0
H219 H 0.80992 0.35739 0.89736 0.0
C220 C 0.88906 0.39423 0.94389 0.0
C221 C 0.92527 0.41757 0.96864 0.0
C222 C 0.8343 0.41799 0.92516 0.0
C223 C 0.90823 0.46561 0.97281 0.0
C224 C 0.8548 0.48968 0.95343 0.0
C225 C 0.75819 0.48922 0.91338 0.0
C226 C 0.71631 0.46451 0.8932 0.0
C227 C 0.81618 0.46607 0.93029 0.0
C228 C 0.7377 0.41708 0.88646 0.0
C229 C 0.79623 0.39414 0.90208 0.0
H230 H 0.06663 0.69307 0.97634 0.0
H231 H 0.14568 0.65259 0.08443 0.0
H232 H 0.26453 0.63153 0.05101 0.0
H233 H 0.34528 0.62383 0.99014 0.0
H234 H 0.26295 0.66504 0.88303 0.0
H235 H 0.14536 0.68621 0.91686 0.0
C236 C 0.10975 0.67923 0.99259 0.0
C237 C 0.09747 0.67378 0.03266 0.0
C238 C 0.17704 0.66722 0.97328 0.0
C239 C 0.15407 0.65704 0.05353 0.0
C240 C 0.22176 0.64485 0.03441 0.0
C241 C 0.30122 0.63732 0.97447 0.0
C242 C 0.31171 0.64236 0.93425 0.0
C243 C 0.23378 0.64962 0.99422 0.0
C244 C 0.25525 0.66052 0.91398 0.0
C245 C 0.1883 0.67261 0.93327 0.0
H246 H 0.65332 0.96811 0.47495 0.0
H247 H 0.76592 0.87955 0.55408 0.0
H248 H 0.87618 0.90348 0.52704 0.0
H249 H 0.94133 0.94483 0.47742 0.0
H250 H 0.82779 1.03752 0.40219 0.0
H251 H 0.71589 1.0179 0.4325 0.0
C252 C 0.70126 0.95497 0.48743 0.0
C253 C 0.70087 0.92142 0.51634 0.0
C254 C 0.76421 0.96957 0.47237 0.0
C255 C 0.76451 0.90441 0.53119 0.0
C256 C 0.82764 0.9183 0.51592 0.0
C257 C 0.89183 0.96099 0.46808 0.0
C258 C 0.89202 0.99199 0.4375 0.0
C259 C 0.82821 0.94992 0.48586 0.0
C260 C 0.82823 1.0134 0.42567 0.0
C261 C 0.76459 1.00209 0.44289 0.0
H262 H 0.44089 0.18227 0.46697 0.0
H263 H 0.35837 0.11045 0.56508 0.0
H264 H 0.26905 0.08639 0.52741 0.0
H265 H 0.20653 0.09392 0.46904 0.0
H266 H 0.28423 0.17072 0.37287 0.0
H267 H 0.38362 0.1851 0.40721 0.0
C268 C 0.40411 0.1606 0.47975 0.0
C269 C 0.40573 0.14803 0.51854 0.0
C270 C 0.35176 0.14847 0.45844 0.0
C271 C 0.35748 0.12056 0.53521 0.0
C272 C 0.30651 0.10699 0.51377 0.0
C273 C 0.24632 0.11285 0.45542 0.0
C274 C 0.23925 0.13082 0.4185 0.0
C275 C 0.30193 0.12191 0.47574 0.0
C276 C 0.28948 0.15642 0.40126 0.0
C277 C 0.34599 0.16464 0.42086 0.0
H278 H 0.4917 0.96928 0.47171 0.0
H279 H 0.37359 0.90666 0.56393 0.0
H280 H 0.264 0.93658 0.53743 0.0
H281 H 0.2048 0.96977 0.48276 0.0
H282 H 0.32226 1.03106 0.39002 0.0
H283 H 0.42965 1.01368 0.42271 0.0
C284 C 0.44193 0.96341 0.48682 0.0
C285 C 0.44086 0.93505 0.51941 0.0
C286 C 0.37938 0.98015 0.47113 0.0
C287 C 0.37584 0.92752 0.53835 0.0
C288 C 0.31325 0.94464 0.52325 0.0
C289 C 0.25383 0.98008 0.47026 0.0
C290 C 0.2567 1.0011 0.43415 0.0
C291 C 0.31484 0.96921 0.48879 0.0
C292 C 0.31963 1.01472 0.41788 0.0
C293 C 0.38075 1.00458 0.43646 0.0
H294 H 0.67293 0.11535 0.54583 0.0
H295 H 0.62674 0.25738 0.51499 0.0
H296 H 0.7402 0.25182 0.47547 0.0
H297 H 0.84613 0.20426 0.44473 0.0
H298 H 0.8993 0.06481 0.48083 0.0
H299 H 0.78869 0.07093 0.52279 0.0
C300 C 0.68883 0.14521 0.53112 0.0
C301 C 0.64236 0.18671 0.53309 0.0
C302 C 0.754 0.14172 0.50864 0.0
C303 C 0.66252 0.22533 0.51398 0.0
C304 C 0.72688 0.222 0.49118 0.0
C305 C 0.83388 0.17529 0.46201 0.0
C306 C 0.87843 0.13293 0.4577 0.0
C307 C 0.7721 0.18002 0.48749 0.0
C308 C 0.863 0.0964 0.48133 0.0
C309 C 0.80061 0.10033 0.50601 0.0
loop_
_geom_bond_atom_site_label_1
_geom_bond_atom_site_label_2
_geom_bond_distance
_geom_bond_site_symmetry_2
_ccdc_geom_bond_type
H0 C1 0.949 . S
C1 H0 0.949 . S
C1 C2 1.395 . S
C1 C3 1.391 . S
C2 C1 1.395 . S
C2 C5 1.390 1_554 S
C3 C1 1.391 . S
C3 C7 1.387 . S
C3 C8 1.491 . S
H4 C5 0.950 . S
C5 C2 1.390 1_556 S
C5 H4 0.950 . S
C5 C6 1.378 . S
C6 C5 1.378 . S
C6 C7 1.409 1_556 S
C7 C3 1.387 . S
C7 C6 1.409 1_554 S
C7 H9 0.951 . S
C8 C3 1.491 . S
C8 C10 1.382 . S
C8 C12 1.404 . S
H9 C7 0.951 . S
C10 C8 1.382 . S
C10 C11 1.390 . S
C10 H15 0.949 . S
C11 C10 1.390 . S
C11 C16 1.399 . S
C12 C8 1.404 . S
C12 H13 0.950 . S
C12 C14 1.375 . S
H13 C12 0.950 . S
C14 C12 1.375 . S
C14 C16 1.382 . S
C14 H18 0.950 . S
H15 C10 0.949 . S
C16 C11 1.399 . S
C16 C14 1.382 . S
C16 H17 0.952 . S
H17 C16 0.952 . S
H18 C14 0.950 . S
H19 C20 0.949 . S
C20 H19 0.949 . S
C20 C21 1.395 . S
C20 C22 1.391 1_455 S
C21 C20 1.395 . S
C21 C24 1.390 1_554 S
C22 C20 1.391 1_655 S
C22 C26 1.387 . S
C22 C27 1.491 . S
H23 C24 0.950 . S
C24 C21 1.390 1_556 S
C24 H23 0.950 . S
C24 C25 1.378 1_456 S
C25 C24 1.378 1_654 S
C25 C26 1.409 . S
C26 C22 1.387 . S
C26 C25 1.409 . S
C26 H28 0.951 . S
C27 C22 1.491 . S
C27 C29 1.374 1_655 S
C27 C31 1.404 . S
H28 C26 0.951 . S
C29 C27 1.374 1_455 S
C29 C30 1.389 1_455 S
C29 H34 0.957 . S
C30 C29 1.389 1_655 S
C30 C35 1.399 . S
C31 C27 1.404 . S
C31 H32 0.950 . S
C31 C33 1.375 . S
H32 C31 0.950 . S
C33 C31 1.375 . S
C33 C35 1.382 . S
C33 H37 0.950 . S
H34 C29 0.957 . S
C35 C30 1.399 . S
C35 C33 1.382 . S
C35 H36 0.952 . S
H36 C35 0.952 . S
H37 C33 0.950 . S
H38 C39 0.949 . S
C39 H38 0.949 . S
C39 C40 1.395 . S
C39 C41 1.391 . S
C40 C39 1.395 . S
C40 C43 1.390 . S
C41 C39 1.391 . S
C41 C45 1.387 . S
C41 C46 1.491 . S
H42 C43 0.950 . S
C43 C40 1.390 . S
C43 H42 0.950 . S
C43 C44 1.378 . S
C44 C43 1.378 . S
C44 C45 1.409 . S
C45 C41 1.387 . S
C45 C44 1.409 . S
C45 H47 0.951 . S
C46 C41 1.491 . S
C46 C48 1.382 . S
C46 C50 1.404 . S
H47 C45 0.951 . S
C48 C46 1.382 . S
C48 C49 1.390 . S
C48 H53 0.949 . S
C49 C48 1.390 . S
C49 C54 1.399 . S
C50 C46 1.404 . S
C50 H51 0.950 . S
C50 C52 1.375 . S
H51 C50 0.950 . S
C52 C50 1.375 . S
C52 C54 1.382 . S
C52 H56 0.950 . S
H53 C48 0.949 . S
C54 C49 1.399 . S
C54 C52 1.382 . S
C54 H55 0.952 . S
H55 C54 0.952 . S
H56 C52 0.950 . S
H57 C58 0.949 . S
C58 H57 0.949 . S
C58 C59 1.395 . S
C58 C60 1.391 . S
C59 C58 1.395 . S
C59 C62 1.390 . S
C60 C58 1.391 . S
C60 C64 1.387 . S
C60 C65 1.491 . S
H61 C62 0.950 . S
C62 C59 1.390 . S
C62 H61 0.950 . S
C62 C63 1.378 . S
C63 C62 1.378 . S
C63 C64 1.409 . S
C64 C60 1.387 . S
C64 C63 1.409 . S
C64 H66 0.951 . S
C65 C60 1.491 . S
C65 C67 1.382 . S
C65 C69 1.404 . S
H66 C64 0.951 . S
C67 C65 1.382 . S
C67 C68 1.390 . S
C67 H72 0.949 . S
C68 C67 1.390 . S
C68 C73 1.399 . S
C69 C65 1.404 . S
C69 H70 0.950 . S
C69 C71 1.375 . S
H70 C69 0.950 . S
C71 C69 1.375 . S
C71 C73 1.382 . S
C71 H75 0.950 . S
H72 C67 0.949 . S
C73 C68 1.399 . S
C73 C71 1.382 . S
C73 H74 0.952 . S
H74 C73 0.952 . S
H75 C71 0.950 . S
Zn76 O82 1.920 . S
Zn76 O88 1.898 . S
Zn76 O91 1.905 1_455 S
Zn77 O85 1.905 . S
Zn77 O86 1.898 . S
Zn77 O94 1.920 . S
Zn78 O81 2.080 . S
Zn78 O84 2.114 1_545 S
Zn78 O87 2.120 1_545 S
Zn78 O89 2.120 . S
Zn78 O90 2.114 1_455 S
Zn78 O93 2.080 1_545 S
C79 O84 1.166 . S
C79 O85 1.182 . S
C80 O86 1.167 . S
C80 O87 1.299 . S
O81 Zn78 2.080 . S
O81 C95 1.305 . S
O82 Zn76 1.920 . S
O82 C95 1.234 . S
C83 O88 1.167 . S
C83 O89 1.299 . S
O84 Zn78 2.114 1_565 S
O84 C79 1.166 . S
O85 Zn77 1.905 . S
O85 C79 1.182 . S
O86 Zn77 1.898 . S
O86 C80 1.167 . S
O87 Zn78 2.120 1_565 S
O87 C80 1.299 . S
O88 Zn76 1.898 . S
O88 C83 1.167 . S
O89 Zn78 2.120 . S
O89 C83 1.299 . S
O90 Zn78 2.114 1_655 S
O90 C92 1.166 . S
O91 Zn76 1.905 1_655 S
O91 C92 1.182 . S
C92 O90 1.166 . S
C92 O91 1.182 . S
O93 Zn78 2.080 1_565 S
O93 C96 1.305 . S
O94 Zn77 1.920 . S
O94 C96 1.234 . S
C95 O81 1.305 . S
C95 O82 1.234 . S
C96 O93 1.305 . S
C96 O94 1.234 . S
Zn97 O103 1.920 . S
Zn97 O109 1.898 . S
Zn97 O112 1.905 . S
Zn98 O106 1.905 . S
Zn98 O107 1.898 . S
Zn98 O115 1.920 . S
Zn99 O102 2.080 . S
Zn99 O105 2.114 . S
Zn99 O108 2.120 . S
Zn99 O110 2.120 . S
Zn99 O111 2.114 . S
Zn99 O114 2.080 . S
C100 O105 1.166 . S
C100 O106 1.182 . S
C101 O107 1.167 . S
C101 O108 1.299 . S
O102 Zn99 2.080 . S
O102 C116 1.305 . S
O103 Zn97 1.920 . S
O103 C116 1.234 . S
C104 O109 1.167 . S
C104 O110 1.299 . S
O105 Zn99 2.114 . S
O105 C100 1.166 . S
O106 Zn98 1.905 . S
O106 C100 1.182 . S
O107 Zn98 1.898 . S
O107 C101 1.167 . S
O108 Zn99 2.120 . S
O108 C101 1.299 . S
O109 Zn97 1.898 . S
O109 C104 1.167 . S
O110 Zn99 2.120 . S
O110 C104 1.299 . S
O111 Zn99 2.114 . S
O111 C113 1.166 . S
O112 Zn97 1.905 . S
O112 C113 1.182 . S
C113 O111 1.166 . S
C113 O112 1.182 . S
O114 Zn99 2.080 . S
O114 C117 1.305 . S
O115 Zn98 1.920 . S
O115 C117 1.234 . S
C116 O102 1.305 . S
C116 O103 1.234 . S
C117 O114 1.305 . S
C117 O115 1.234 . S
H118 C124 0.930 . S
H119 C127 0.930 . S
H120 C128 0.930 . S
H121 C129 0.930 . S
H122 C132 0.930 . S
H123 C133 0.930 . S
C124 H118 0.930 . S
C124 C125 1.355 . S
C124 C126 1.415 . S
C125 C124 1.355 . S
C125 C127 1.419 . S
C126 C124 1.415 . S
C126 C131 1.425 . S
C126 C133 1.409 . S
C127 H119 0.930 . S
C127 C125 1.419 . S
C127 C128 1.362 . S
C128 H120 0.930 . S
C128 C127 1.362 . S
C128 C131 1.409 . S
C129 H121 0.930 . S
C129 C130 1.355 . S
C129 C131 1.415 . S
C130 C129 1.355 . S
C130 C132 1.419 . S
C131 C126 1.425 . S
C131 C128 1.409 . S
C131 C129 1.415 . S
C132 H122 0.930 . S
C132 C130 1.419 . S
C132 C133 1.362 . S
C133 H123 0.930 . S
C133 C126 1.409 . S
C133 C132 1.362 . S
H134 C140 0.930 . S
H135 C143 0.930 . S
H136 C144 0.930 . S
H137 C145 0.930 . S
H138 C148 0.930 . S
H139 C149 0.930 . S
C140 H134 0.930 . S
C140 C141 1.355 . S
C140 C142 1.415 . S
C141 C140 1.355 . S
C141 C143 1.419 . S
C142 C140 1.415 . S
C142 C147 1.425 . S
C142 C149 1.409 . S
C143 H135 0.930 . S
C143 C141 1.419 . S
C143 C144 1.362 . S
C144 H136 0.930 . S
C144 C143 1.362 . S
C144 C147 1.409 . S
C145 H137 0.930 . S
C145 C146 1.355 . S
C145 C147 1.415 . S
C146 C145 1.355 . S
C146 C148 1.419 . S
C147 C142 1.425 . S
C147 C144 1.409 . S
C147 C145 1.415 . S
C148 H138 0.930 . S
C148 C146 1.419 . S
C148 C149 1.362 . S
C149 H139 0.930 . S
C149 C142 1.409 . S
C149 C148 1.362 . S
H150 C156 0.930 . S
H151 C159 0.930 . S
H152 C160 0.930 . S
H153 C161 0.930 . S
H154 C164 0.930 . S
H155 C165 0.930 . S
C156 H150 0.930 . S
C156 C157 1.355 . S
C156 C158 1.415 . S
C157 C156 1.355 . S
C157 C159 1.419 . S
C158 C156 1.415 . S
C158 C163 1.425 . S
C158 C165 1.409 . S
C159 H151 0.930 . S
C159 C157 1.419 . S
C159 C160 1.362 . S
C160 H152 0.930 . S
C160 C159 1.362 . S
C160 C163 1.409 . S
C161 H153 0.930 . S
C161 C162 1.355 . S
C161 C163 1.415 . S
C162 C161 1.355 . S
C162 C164 1.419 . S
C163 C158 1.425 . S
C163 C160 1.409 . S
C163 C161 1.415 . S
C164 H154 0.930 . S
C164 C162 1.419 . S
C164 C165 1.362 . S
C165 H155 0.930 . S
C165 C158 1.409 . S
C165 C164 1.362 . S
H166 C172 0.930 . S
H167 C175 0.930 . S
H168 C176 0.930 . S
H169 C177 0.930 . S
H170 C180 0.930 . S
H171 C181 0.930 . S
C172 H166 0.930 . S
C172 C173 1.355 . S
C172 C174 1.415 . S
C173 C172 1.355 . S
C173 C175 1.419 . S
C174 C172 1.415 . S
C174 C179 1.425 . S
C174 C181 1.409 . S
C175 H167 0.930 . S
C175 C173 1.419 . S
C175 C176 1.362 . S
C176 H168 0.930 . S
C176 C175 1.362 . S
C176 C179 1.409 . S
C177 H169 0.930 . S
C177 C178 1.355 . S
C177 C179 1.415 . S
C178 C177 1.355 . S
C178 C180 1.419 . S
C179 C174 1.425 . S
C179 C176 1.409 . S
C179 C177 1.415 . S
C180 H170 0.930 . S
C180 C178 1.419 . S
C180 C181 1.362 . S
C181 H171 0.930 . S
C181 C174 1.409 . S
C181 C180 1.362 . S
H182 C188 0.930 . S
H183 C191 0.930 . S
H184 C192 0.930 . S
H185 C193 0.930 . S
H186 C196 0.930 1_554 S
H187 C197 0.930 . S
C188 H182 0.930 . S
C188 C189 1.355 1_554 S
C188 C190 1.415 1_554 S
C189 C188 1.355 1_556 S
C189 C191 1.419 . S
C190 C188 1.415 1_556 S
C190 C195 1.425 . S
C190 C197 1.409 1_556 S
C191 H183 0.930 . S
C191 C189 1.419 . S
C191 C192 1.362 . S
C192 H184 0.930 . S
C192 C191 1.362 . S
C192 C195 1.409 . S
C193 H185 0.930 . S
C193 C194 1.355 . S
C193 C195 1.415 . S
C194 C193 1.355 . S
C194 C196 1.419 . S
C195 C190 1.425 . S
C195 C192 1.409 . S
C195 C193 1.415 . S
C196 H186 0.930 1_556 S
C196 C194 1.419 . S
C196 C197 1.362 1_556 S
C197 H187 0.930 . S
C197 C190 1.409 1_554 S
C197 C196 1.362 1_554 S
H198 C204 0.930 . S
H199 C207 0.925 1_554 S
H200 C208 0.930 . S
H201 C209 0.930 . S
H202 C212 0.930 . S
H203 C213 0.930 . S
C204 H198 0.930 . S
C204 C205 1.355 . S
C204 C206 1.415 . S
C205 C204 1.355 . S
C205 C207 1.420 . S
C206 C204 1.415 . S
C206 C211 1.425 . S
C206 C213 1.409 . S
C207 H199 0.925 1_556 S
C207 C205 1.420 . S
C207 C208 1.367 . S
C208 H200 0.930 . S
C208 C207 1.367 . S
C208 C211 1.409 . S
C209 H201 0.930 . S
C209 C210 1.355 . S
C209 C211 1.415 . S
C210 C209 1.355 . S
C210 C212 1.419 . S
C211 C206 1.425 . S
C211 C208 1.409 . S
C211 C209 1.415 . S
C212 H202 0.930 . S
C212 C210 1.419 . S
C212 C213 1.362 . S
C213 H203 0.930 . S
C213 C206 1.409 . S
C213 C212 1.362 . S
H214 C220 0.930 . S
H215 C223 0.930 . S
H216 C224 0.926 1_455 S
H217 C225 0.930 . S
H218 C228 0.930 . S
H219 C229 0.930 . S
C220 H214 0.930 . S
C220 C221 1.355 1_655 S
C220 C222 1.415 . S
C221 C220 1.355 1_455 S
C221 C223 1.419 . S
C222 C220 1.415 . S
C222 C227 1.425 . S
C222 C229 1.409 . S
C223 H215 0.930 . S
C223 C221 1.419 . S
C223 C224 1.362 1_455 S
C224 H216 0.926 1_655 S
C224 C223 1.362 1_655 S
C224 C227 1.409 . S
C225 H217 0.930 . S
C225 C226 1.355 . S
C225 C227 1.415 . S
C226 C225 1.355 . S
C226 C228 1.419 . S
C227 C222 1.425 . S
C227 C224 1.409 . S
C227 C225 1.415 . S
C228 H218 0.930 . S
C228 C226 1.419 . S
C228 C229 1.362 . S
C229 H219 0.930 . S
C229 C222 1.409 . S
C229 C228 1.362 . S
H230 C236 0.930 . S
H231 C239 0.930 . S
H232 C240 0.930 . S
H233 C241 0.930 . S
H234 C244 0.930 . S
H235 C245 0.930 . S
C236 H230 0.930 . S
C236 C237 1.355 . S
C236 C238 1.415 . S
C237 C236 1.355 . S
C237 C239 1.419 1_556 S
C238 C236 1.415 . S
C238 C243 1.425 . S
C238 C245 1.409 . S
C239 H231 0.930 . S
C239 C237 1.419 1_554 S
C239 C240 1.362 . S
C240 H232 0.930 . S
C240 C239 1.362 . S
C240 C243 1.409 1_554 S
C241 H233 0.930 . S
C241 C242 1.355 . S
C241 C243 1.415 . S
C242 C241 1.355 . S
C242 C244 1.419 . S
C243 C238 1.425 . S
C243 C240 1.409 1_556 S
C243 C241 1.415 . S
C244 H234 0.930 . S
C244 C242 1.419 . S
C244 C245 1.362 . S
C245 H235 0.930 . S
C245 C238 1.409 . S
C245 C244 1.362 . S
H246 C252 0.930 . S
H247 C255 0.930 . S
H248 C256 0.930 . S
H249 C257 0.930 . S
H250 C260 0.930 . S
H251 C261 0.930 1_455 S
C252 H246 0.930 . S
C252 C253 1.355 . S
C252 C254 1.415 . S
C253 C252 1.355 . S
C253 C255 1.419 . S
C254 C252 1.415 . S
C254 C259 1.425 . S
C254 C261 1.409 . S
C255 H247 0.930 . S
C255 C253 1.419 . S
C255 C256 1.362 . S
C256 H248 0.930 . S
C256 C255 1.362 . S
C256 C259 1.409 . S
C257 H249 0.930 . S
C257 C258 1.355 . S
C257 C259 1.415 . S
C258 C257 1.355 . S
C258 C260 1.419 1_655 S
C259 C254 1.425 . S
C259 C256 1.409 . S
C259 C257 1.415 . S
C260 H250 0.930 . S
C260 C258 1.419 1_455 S
C260 C261 1.362 1_455 S
C261 H251 0.930 1_655 S
C261 C254 1.409 . S
C261 C260 1.362 1_655 S
H262 C268 0.930 . S
H263 C271 0.930 . S
H264 C272 0.930 . S
H265 C273 0.930 . S
H266 C276 0.930 . S
H267 C277 0.930 . S
C268 H262 0.930 . S
C268 C269 1.355 . S
C268 C270 1.415 . S
C269 C268 1.355 . S
C269 C271 1.419 . S
C270 C268 1.415 . S
C270 C275 1.425 . S
C270 C277 1.409 . S
C271 H263 0.930 . S
C271 C269 1.419 . S
C271 C272 1.362 . S
C272 H264 0.930 . S
C272 C271 1.362 . S
C272 C275 1.409 . S
C273 H265 0.930 . S
C273 C274 1.355 . S
C273 C275 1.415 . S
C274 C273 1.355 . S
C274 C276 1.419 . S
C275 C270 1.425 . S
C275 C272 1.409 . S
C275 C273 1.415 . S
C276 H266 0.930 . S
C276 C274 1.419 . S
C276 C277 1.362 . S
C277 H267 0.930 . S
C277 C270 1.409 . S
C277 C276 1.362 . S
H278 C284 0.930 . S
H279 C287 0.930 . S
H280 C288 0.930 . S
H281 C289 0.930 . S
H282 C292 0.930 . S
H283 C293 0.930 . S
C284 H278 0.930 . S
C284 C285 1.355 . S
C284 C286 1.415 . S
C285 C284 1.355 . S
C285 C287 1.419 . S
C286 C284 1.415 . S
C286 C291 1.425 . S
C286 C293 1.409 . S
C287 H279 0.930 . S
C287 C285 1.419 . S
C287 C288 1.362 . S
C288 H280 0.930 . S
C288 C287 1.362 . S
C288 C291 1.409 . S
C289 H281 0.930 . S
C289 C290 1.355 . S
C289 C291 1.415 . S
C290 C289 1.355 . S
C290 C292 1.419 . S
C291 C286 1.425 . S
C291 C288 1.409 . S
C291 C289 1.415 . S
C292 H282 0.930 . S
C292 C290 1.419 . S
C292 C293 1.362 . S
C293 H283 0.930 . S
C293 C286 1.409 . S
C293 C292 1.362 . S
H294 C300 0.930 . S
H295 C303 0.930 . S
H296 C304 0.930 . S
H297 C305 0.930 . S
H298 C308 0.930 . S
H299 C309 0.930 . S
C300 H294 0.930 . S
C300 C301 1.355 . S
C300 C302 1.415 . S
C301 C300 1.355 . S
C301 C303 1.419 . S
C302 C300 1.415 . S
C302 C307 1.425 . S
C302 C309 1.409 . S
C303 H295 0.930 . S
C303 C301 1.419 . S
C303 C304 1.362 . S
C304 H296 0.930 . S
C304 C303 1.362 . S
C304 C307 1.409 . S
C305 H297 0.930 . S
C305 C306 1.355 . S
C305 C307 1.415 . S
C306 C305 1.355 . S
C306 C308 1.419 . S
C307 C302 1.425 . S
C307 C304 1.409 . S
C307 C305 1.415 . S
C308 H298 0.930 . S
C308 C306 1.419 . S
C308 C309 1.362 . S
C309 H299 0.930 . S
C309 C302 1.409 . S
C309 C308 1.362 . S
C130 C83 1.484 . S
C125 C11 1.430 . S
C146 C79 1.363 . S
C141 C30 1.431 1_455 S
C162 C104 1.431 . S
C157 C49 1.475 . S
C173 C68 1.443 . S
C178 C100 1.407 . S
C189 C2 1.292 1_556 S
C194 C101 1.189 . S
C210 C116 1.231 . S
C205 C25 1.338 1_556 S
C221 C6 1.756 . S
C226 C117 1.558 . S
C242 C113 1.645 . S
C237 C21 1.781 1_556 S
C258 C80 1.104 1_655 S
C253 C40 1.269 . S
C269 C63 1.288 . S
C274 C95 1.094 . S
C290 C96 1.566 . S
C285 C44 1.757 . S
C306 C92 1.652 . S
C301 C59 1.768 . S
