# Generated by pormake.
# Topology anh, (6,3)-cn, num edge types: 1
# Building blocks:
#     Node 0, Type 0, BuildingBlock: HISSIN_clean_sbu_0, # of connection points: 6
#     Node 1, Type 0, BuildingBlock: HISSIN_clean_sbu_0, # of connection points: 6
#     Node 2, Type 0, BuildingBlock: HISSIN_clean_sbu_0, # of connection points: 6
#     Node 3, Type 1, BuildingBlock: QEWDON_clean_linker_0, # of connection points: 3
#     Node 4, Type 1, BuildingBlock: QEWDON_clean_linker_0, # of connection points: 3
#     Node 5, Type 1, BuildingBlock: QEWDON_clean_linker_0, # of connection points: 3
#     Node 6, Type 1, BuildingBlock: QEWDON_clean_linker_0, # of connection points: 3
#     Node 7, Type 1, BuildingBlock: QEWDON_clean_linker_0, # of connection points: 3
#     Node 8, Type 1, BuildingBlock: QEWDON_clean_linker_0, # of connection points: 3
#     Edge 9, Type (0, 1), BuildingBlock: AJUNOK_clean_linker_0, # of connection points: 2
#     Edge 10, Type (0, 1), BuildingBlock: AJUNOK_clean_linker_0, # of connection points: 2
#     Edge 11, Type (0, 1), BuildingBlock: AJUNOK_clean_linker_0, # of connection points: 2
#     Edge 12, Type (0, 1), BuildingBlock: AJUNOK_clean_linker_0, # of connection points: 2
#     Edge 13, Type (0, 1), BuildingBlock: AJUNOK_clean_linker_0, # of connection points: 2
#     Edge 14, Type (0, 1), BuildingBlock: AJUNOK_clean_linker_0, # of connection points: 2
#     Edge 15, Type (0, 1), BuildingBlock: AJUNOK_clean_linker_0, # of connection points: 2
#     Edge 16, Type (0, 1), BuildingBlock: AJUNOK_clean_linker_0, # of connection points: 2
#     Edge 17, Type (0, 1), BuildingBlock: AJUNOK_clean_linker_0, # of connection points: 2
#     Edge 18, Type (0, 1), BuildingBlock: AJUNOK_clean_linker_0, # of connection points: 2
#     Edge 19, Type (0, 1), BuildingBlock: AJUNOK_clean_linker_0, # of connection points: 2
#     Edge 20, Type (0, 1), BuildingBlock: AJUNOK_clean_linker_0, # of connection points: 2
#     Edge 21, Type (0, 1), BuildingBlock: AJUNOK_clean_linker_0, # of connection points: 2
#     Edge 22, Type (0, 1), BuildingBlock: AJUNOK_clean_linker_0, # of connection points: 2
#     Edge 23, Type (0, 1), BuildingBlock: AJUNOK_clean_linker_0, # of connection points: 2
#     Edge 24, Type (0, 1), BuildingBlock: AJUNOK_clean_linker_0, # of connection points: 2
#     Edge 25, Type (0, 1), BuildingBlock: AJUNOK_clean_linker_0, # of connection points: 2
#     Edge 26, Type (0, 1), BuildingBlock: AJUNOK_clean_linker_0, # of connection points: 2
# Relax obj value: 0.321
# Max RMSD: 0.145
# Mean RMSD: 0.121
data_MOF--net-anh--node1-HISSIN_clean_sbu_0--node2-QEWDON_clean_linker_0--edge1-AJUNOK_clean_linker_0
_symmetry_space_group_name_H-M    P1
_symmetry_Int_Tables_number       1
_symmetry_cell_setting            triclinic
loop_
_symmetry_equiv_pos_as_xyz
'x, y, z'
_cell_length_a     24.132212
_cell_length_b     23.893069
_cell_length_c     36.743431
_cell_angle_alpha  95.575061
_cell_angle_beta   92.058988
_cell_angle_gamma 120.28846
loop_
_atom_site_label
_atom_site_type_symbol
_atom_site_fract_x
_atom_site_fract_y
_atom_site_fract_z
_atom_type_partial_charge
Eu0 Eu 1.12567 0.54989 0.12827 0.0
Eu1 Eu 0.19647 0.70367 0.14519 0.0
C2 C 1.14813 0.62115 0.21361 0.0
C3 C 0.97635 0.39693 0.11121 0.0
C4 C 0.95007 0.38509 0.14506 0.0
C5 C 0.89298 0.41835 0.0901 0.0
C6 C 0.90093 0.39766 0.15264 0.0
C7 C 0.94226 0.40576 0.08251 0.0
C8 C 0.87649 0.42045 0.12619 0.0
C9 C 1.04685 0.42548 0.11081 0.0
O10 O 0.28053 0.68194 0.13892 0.0
O11 O 0.22947 0.57012 0.13418 0.0
C12 C 0.28342 0.6274 0.1359 0.0
O13 O 0.17941 0.58884 0.07903 0.0
O14 O 0.26984 0.79598 0.17604 0.0
O15 O 0.21333 0.79552 0.12857 0.0
O16 O 0.1706 0.67876 0.08469 0.0
C17 C 0.18288 0.6387 0.06515 0.0
O18 O 1.04611 0.57597 0.11661 0.0
O19 O 1.09118 0.6786 0.14774 0.0
O20 O 0.17127 0.67752 0.20129 0.0
O21 O 1.07268 0.46499 0.08633 0.0
O22 O 1.08073 0.45054 0.14282 0.0
O23 O 1.13058 0.56702 0.19125 0.0
C24 C 0.32322 0.8789 0.13837 0.0
C25 C 0.32162 0.90186 0.10471 0.0
C26 C 0.43627 0.96065 0.15082 0.0
C27 C 0.37644 0.95638 0.09522 0.0
C28 C 0.38192 0.90646 0.16021 0.0
C29 C 0.43278 0.98918 0.11969 0.0
C30 C 0.26371 0.83033 0.15237 0.0
C31 C 1.04009 0.62608 0.12997 0.0
H32 H 0.97352 0.37572 0.1674 0.0
H33 H 0.87322 0.43337 0.06877 0.0
H34 H 0.88655 0.39581 0.18031 0.0
H35 H 0.95966 0.41264 0.05558 0.0
H36 H 0.27717 0.8805 0.08687 0.0
H37 H 0.47877 0.98441 0.17043 0.0
H38 H 0.37288 0.97654 0.07068 0.0
H39 H 0.38497 0.88924 0.186 0.0
Eu40 Eu 0.64957 1.07121 0.46099 0.0
Eu41 Eu 0.56357 0.13631 0.47866 0.0
C42 C 0.62478 1.09788 0.54635 0.0
C43 C 0.74656 0.98046 0.44197 0.0
C44 C 0.74099 0.94972 0.4733 0.0
C45 C 0.83394 0.96381 0.42559 0.0
C46 C 0.78343 0.92802 0.48135 0.0
C47 C 0.79099 0.98458 0.41732 0.0
C48 C 0.83265 0.93844 0.4586 0.0
C49 C 0.71954 1.02239 0.43885 0.0
O50 O 0.66383 0.22524 0.46944 0.0
O51 O 0.72705 0.17931 0.47082 0.0
C52 C 0.72176 0.23123 0.46935 0.0
O53 O 0.64938 0.12332 0.41293 0.0
O54 O 0.54449 0.20726 0.50857 0.0
O55 O 0.47854 0.14132 0.4622 0.0
O56 O 0.54959 1.1059 0.41798 0.0
C57 C 0.5988 0.12308 0.39904 0.0
O58 O 0.5437 0.9846 0.45127 0.0
O59 O 0.49074 1.02829 0.48215 0.0
O60 O 0.59442 0.1269 0.53522 0.0
O61 O 0.6598 0.99778 0.4255 0.0
O62 O 0.73827 1.07009 0.46549 0.0
O63 O 0.64707 1.07026 0.52297 0.0
C64 C 0.50647 0.25138 0.46748 0.0
C65 C 0.53514 0.26387 0.43428 0.0
C66 C 0.53308 0.36376 0.47917 0.0
C67 C 0.56607 0.32713 0.42478 0.0
C68 C 0.50157 0.30042 0.4884 0.0
C69 C 0.56997 0.3787 0.44884 0.0
C70 C 0.49723 0.19472 0.48453 0.0
C71 C 0.49032 0.977 0.46474 0.0
H72 H 0.707 0.94656 0.49265 0.0
H73 H 0.87085 0.9717 0.4074 0.0
H74 H 0.77982 0.90609 0.50626 0.0
H75 H 0.79609 1.00885 0.39316 0.0
H76 H 0.53949 0.22653 0.41764 0.0
H77 H 0.53538 0.40201 0.49869 0.0
H78 H 0.59339 0.33696 0.40106 0.0
H79 H 0.47981 0.29162 0.5141 0.0
Eu80 Eu 0.64147 0.56034 0.79325 0.0
Eu81 Eu 0.79401 0.63817 0.81359 0.0
C82 C 0.70448 0.60651 0.87969 0.0
C83 C 0.48321 0.52365 0.75268 0.0
C84 C 0.43425 0.52826 0.76963 0.0
C85 C 0.50821 0.61927 0.72351 0.0
C86 C 0.42854 0.58312 0.76714 0.0
C87 C 0.51429 0.56473 0.72605 0.0
C88 C 0.47215 0.63297 0.74797 0.0
C89 C 0.51825 0.49885 0.77285 0.0
O90 O 0.77013 0.53132 0.81332 0.0
O91 O 0.6664 0.47926 0.78621 0.0
C92 C 0.71763 0.47699 0.79787 0.0
O93 O 0.68779 0.60174 0.74216 0.0
O94 O 0.88462 0.66419 0.84381 0.0
O95 O 0.88392 0.71434 0.79742 0.0
O96 O 0.77281 0.59056 0.75575 0.0
C97 C 0.73776 0.59896 0.7318 0.0
O98 O 0.6648 0.66632 0.7915 0.0
O99 O 0.7741 0.72121 0.80625 0.0
O100 O 0.75986 0.64642 0.86822 0.0
O101 O 0.55867 0.48838 0.75499 0.0
O102 O 0.54372 0.5313 0.80555 0.0
O103 O 0.65482 0.56392 0.85608 0.0
C104 C 0.9667 0.69283 0.80497 0.0
C105 C 0.94874 0.63242 0.78454 0.0
C106 C 1.07822 0.73002 0.79865 0.0
C107 C 0.996 0.62008 0.77213 0.0
C108 C 1.0311 0.74238 0.81059 0.0
C109 C 1.06144 0.66769 0.7808 0.0
C110 C 0.91866 0.70426 0.82092 0.0
C111 C 0.72098 0.72174 0.79714 0.0
H112 H 0.40885 0.49646 0.78979 0.0
H113 H 0.53999 0.65566 0.70717 0.0
H114 H 0.39928 0.59229 0.78573 0.0
H115 H 0.55109 0.56128 0.71166 0.0
H116 H 0.89849 0.59412 0.7795 0.0
H117 H 1.12806 0.76791 0.80627 0.0
H118 H 0.98156 0.57224 0.75784 0.0
H119 H 1.04521 0.78953 0.82582 0.0
H120 H 0.63757 0.34278 0.29468 0.0
C121 C 0.6167 0.3091 0.26943 0.0
C122 C 0.59601 0.24242 0.26946 0.0
C123 C 0.61269 0.33226 0.23622 0.0
H124 H 0.55872 0.14913 0.23609 0.0
C125 C 0.57338 0.20021 0.23625 0.0
C126 C 0.56947 0.22322 0.20326 0.0
C127 C 0.58644 0.28817 0.20359 0.0
C128 C 0.64678 0.40277 0.23285 0.0
H129 H 0.58328 0.30551 0.1778 0.0
C130 C 0.68919 0.42348 0.20577 0.0
C131 C 0.72102 0.4881 0.19861 0.0
C132 C 0.63794 0.44878 0.25453 0.0
H133 H 0.60541 0.43392 0.27584 0.0
C134 C 0.67086 0.51451 0.24809 0.0
H135 H 0.69878 0.38863 0.19031 0.0
C136 C 0.71269 0.53443 0.22022 0.0
H137 H 0.73867 0.58531 0.21586 0.0
H138 H 0.66411 0.55008 0.2648 0.0
H139 H 0.91215 0.71659 0.59872 0.0
C140 C 0.87727 0.6824 0.57642 0.0
C141 C 0.81427 0.63671 0.58346 0.0
C142 C 0.89455 0.68611 0.54033 0.0
H143 H 0.71956 0.56188 0.55886 0.0
C144 C 0.76827 0.59751 0.55381 0.0
C145 C 0.78498 0.60227 0.51762 0.0
C146 C 0.84852 0.64506 0.51104 0.0
C147 C 0.95337 0.74341 0.53177 0.0
H148 H 0.86112 0.64945 0.48299 0.0
C149 C 0.94882 0.79797 0.52674 0.0
C150 C 0.99382 0.84673 0.50797 0.0
C151 C 1.0068 0.74003 0.5209 0.0
H152 H 1.0101 0.69718 0.52389 0.0
C153 C 1.05462 0.7911 0.50431 0.0
H154 H 0.9056 0.79849 0.53354 0.0
C155 C 1.04732 0.84363 0.49685 0.0
H156 H 1.08174 0.88021 0.48143 0.0
H157 H 1.09543 0.78812 0.49538 0.0
H158 H 0.38203 0.7866 0.9486 0.0
C159 C 0.34927 0.76147 0.92386 0.0
C160 C 0.28517 0.71206 0.92601 0.0
C161 C 0.3714 0.77625 0.8894 0.0
H162 H 0.19235 0.64857 0.89639 0.0
C163 C 0.24294 0.68129 0.89379 0.0
C164 C 0.26493 0.69496 0.85901 0.0
C165 C 0.32967 0.74146 0.85738 0.0
C166 C 0.43852 0.82507 0.88472 0.0
H167 H 0.34796 0.75208 0.83087 0.0
C168 C 0.47019 0.80425 0.86106 0.0
C169 C 0.52028 0.8484 0.8426 0.0
C170 C 0.46365 0.89235 0.89446 0.0
H171 H 0.43934 0.90965 0.91248 0.0
C172 C 0.51732 0.93748 0.87807 0.0
H173 H 0.45022 0.75207 0.85339 0.0
C174 C 0.54396 0.91545 0.85092 0.0
H175 H 0.58122 0.94994 0.83595 0.0
H176 H 0.53553 0.98933 0.88466 0.0
H177 H 1.07237 0.56953 0.38504 0.0
C178 C 1.11804 0.61002 0.3978 0.0
C179 C 1.16482 0.64828 0.37478 0.0
C180 C 1.12842 0.62601 0.43657 0.0
H181 H 0.25865 0.73258 0.37242 0.0
C182 C 0.22371 0.70322 0.39046 0.0
C183 C 0.23825 0.72208 0.42858 0.0
C184 C 0.19023 0.6828 0.45141 0.0
C185 C 1.0739 0.58666 0.46105 0.0
H186 H 0.2025 0.69666 0.4807 0.0
C187 C 1.01711 0.52191 0.45 0.0
C188 C 0.96722 0.49059 0.47436 0.0
C189 C 1.07747 0.6168 0.49671 0.0
H190 H 1.1157 0.66589 0.50676 0.0
C191 C 1.0309 0.58576 0.52053 0.0
H192 H 1.011 0.49639 0.42287 0.0
C193 C 0.97714 0.52423 0.5097 0.0
H194 H 0.94249 0.50275 0.52948 0.0
H195 H 1.03604 0.61051 0.54782 0.0
H196 H 0.68996 1.05535 0.71643 0.0
C197 C 0.69925 1.10265 0.72866 0.0
C198 C 0.69054 0.14271 0.70586 0.0
C199 C 0.71586 0.12172 0.76712 0.0
H200 H 0.69226 0.23345 0.70376 0.0
C201 C 0.69924 0.20319 0.72145 0.0
C202 C 0.71523 0.22528 0.75922 0.0
C203 C 0.72554 0.18512 0.78162 0.0
C204 C 0.71748 1.07395 0.79237 0.0
H205 H 0.73981 0.20363 0.81044 0.0
C206 C 0.72384 1.01748 0.78074 0.0
C207 C 0.72367 0.9751 0.80655 0.0
C208 C 0.70946 1.08402 0.8298 0.0
H209 H 0.70052 0.12204 0.84061 0.0
C210 C 0.71002 1.04398 0.85462 0.0
H211 H 0.73009 1.00719 0.75238 0.0
C212 C 0.7165 0.99063 0.84331 0.0
H213 H 0.71407 0.96001 0.86382 0.0
H214 H 0.70335 1.05337 0.88308 0.0
H215 H 0.63602 0.62153 0.05211 0.0
C216 C 0.67598 0.61883 0.06416 0.0
C217 C 0.7185 0.61384 0.04044 0.0
C218 C 0.68664 0.62413 0.10279 0.0
H219 H 0.80593 0.61167 0.0364 0.0
C220 C 0.7733 0.61384 0.05521 0.0
C221 C 0.78787 0.61799 0.0932 0.0
C222 C 0.7433 0.62252 0.11675 0.0
C223 C 0.64125 0.6355 0.12793 0.0
H224 H 0.75283 0.62343 0.14577 0.0
C225 C 0.57828 0.6266 0.11603 0.0
C226 C 0.54159 0.64292 0.14106 0.0
C227 C 0.66354 0.65978 0.16527 0.0
H228 H 0.71013 0.67009 0.17652 0.0
C229 C 0.62771 0.67385 0.18945 0.0
H230 H 0.55804 0.60813 0.0878 0.0
C231 C 0.56843 0.66591 0.17768 0.0
H232 H 0.54305 0.67807 0.19778 0.0
H233 H 0.64682 0.6923 0.21793 0.0
C234 C 0.40848 0.69014 0.14304 0.0
C235 C 0.34913 0.63067 0.13349 0.0
C236 C 0.46949 0.69393 0.14272 0.0
C237 C 0.47624 0.63893 0.13215 0.0
H238 H 0.40804 0.73443 0.15201 0.0
H239 H 0.51234 0.74078 0.15211 0.0
S240 S 0.3375 0.47157 0.10187 0.0
N241 N 0.30282 0.51518 0.11106 0.0
N242 N 0.41601 0.52285 0.11042 0.0
C243 C 0.41757 0.57964 0.12114 0.0
C244 C 0.35508 0.57546 0.12183 0.0
C245 C 0.78658 0.35754 0.47597 0.0
C246 C 0.78329 0.29718 0.46641 0.0
C247 C 0.84469 0.41864 0.47608 0.0
C248 C 0.90341 0.42424 0.46579 0.0
H249 H 0.74443 0.35785 0.4849 0.0
H250 H 0.84433 0.46257 0.48584 0.0
S251 S 0.92104 0.28186 0.43498 0.0
N252 N 0.84496 0.24803 0.44392 0.0
N253 N 0.9521 0.36175 0.44384 0.0
C254 C 0.90007 0.36439 0.45445 0.0
C255 C 0.84106 0.30178 0.45486 0.0
C256 C 0.76473 0.84123 0.82279 0.0
C257 C 0.72518 0.78779 0.79568 0.0
C258 C 0.76714 0.90201 0.82412 0.0
C259 C 0.7303 0.91419 0.79838 0.0
H260 H 0.79283 0.83548 0.84418 0.0
H261 H 0.79728 0.93968 0.84659 0.0
S262 S 0.63009 0.79629 0.71662 0.0
N263 N 0.65613 0.75546 0.73864 0.0
N264 N 0.6597 0.86846 0.74159 0.0
C265 C 0.69417 0.86278 0.76948 0.0
C266 C 0.69161 0.80032 0.76813 0.0
C267 C 0.92986 0.58202 0.09293 0.0
C268 C 0.97512 0.62389 0.12287 0.0
C269 C 0.87005 0.57907 0.08489 0.0
C270 C 0.85031 0.61797 0.10604 0.0
H271 H 0.94125 0.55158 0.07477 0.0
H272 H 0.83869 0.54526 0.0614 0.0
S273 S 0.95003 0.73689 0.18805 0.0
N274 N 0.99442 0.70568 0.17427 0.0
N275 N 0.88382 0.70063 0.15919 0.0
C276 C 0.89489 0.65984 0.13642 0.0
C277 C 0.9563 0.66296 0.14459 0.0
C278 C 0.3683 0.90074 0.47066 0.0
C279 C 0.42725 0.90963 0.45861 0.0
C280 C 0.30855 0.83983 0.46303 0.0
C281 C 0.30374 0.78381 0.44269 0.0
H282 H 0.36776 0.94186 0.48555 0.0
H283 H 0.26523 0.83748 0.47191 0.0
S284 S 0.44284 0.77705 0.40688 0.0
N285 N 0.47549 0.85328 0.4268 0.0
N286 N 0.36528 0.74134 0.41254 0.0
C287 C 0.36249 0.79143 0.43153 0.0
C288 C 0.42318 0.85308 0.43942 0.0
C289 C 0.77104 0.40584 0.79923 0.0
C290 C 0.71599 0.41137 0.79135 0.0
C291 C 0.77039 0.34566 0.7908 0.0
C292 C 0.71478 0.28754 0.77392 0.0
H293 H 0.81563 0.44872 0.81124 0.0
H294 H 0.81467 0.34538 0.79638 0.0
S295 S 0.55651 0.27231 0.74941 0.0
N296 N 0.60298 0.3498 0.76696 0.0
N297 N 0.60246 0.23966 0.75141 0.0
C298 C 0.6593 0.29207 0.76693 0.0
C299 C 0.65972 0.35271 0.77552 0.0
C300 C 0.90334 0.8919 0.44518 0.0
C301 C 0.88458 0.92628 0.47013 0.0
C302 C 0.94745 0.87398 0.45671 0.0
C303 C 0.97392 0.88976 0.4935 0.0
H304 H 0.88085 0.87523 0.41719 0.0
H305 H 0.95607 0.84227 0.43762 0.0
S306 S 0.94935 0.98889 0.56784 0.0
N307 N 0.90343 0.98396 0.53181 0.0
N308 N 0.98459 0.94788 0.55364 0.0
C309 C 0.95997 0.92892 0.51782 0.0
C310 C 0.91543 0.94751 0.50613 0.0
C311 C 0.17467 0.69938 0.77509 0.0
C312 C 1.11212 0.65019 0.78024 0.0
C313 C 0.22713 0.71027 0.79832 0.0
C314 C 0.21884 0.66887 0.82516 0.0
H315 H 0.18146 0.73701 0.75843 0.0
H316 H 0.27179 0.75592 0.79801 0.0
S317 S 1.07128 0.51004 0.8315 0.0
N318 N 1.04864 0.54501 0.80249 0.0
N319 N 1.14924 0.56079 0.84274 0.0
C320 C 1.15991 0.60932 0.82245 0.0
C321 C 1.10582 0.60024 0.80017 0.0
C322 C 0.54326 1.08456 0.13392 0.0
C323 C 0.47867 1.06001 0.12053 0.0
C324 C 0.57611 0.14226 0.15861 0.0
C325 C 0.54634 0.17824 0.16866 0.0
H326 H 0.5642 1.05377 0.13041 0.0
H327 H 0.62214 0.15524 0.17259 0.0
S328 S 0.38977 0.14925 0.12878 0.0
N329 N 0.39454 1.08634 0.11009 0.0
N330 N 0.45773 0.19619 0.15546 0.0
C331 C 0.48805 0.16174 0.14925 0.0
C332 C 0.45411 1.10246 0.12468 0.0
C333 C 0.68788 0.45334 0.44948 0.0
C334 C 0.62604 0.44587 0.45002 0.0
C335 C 0.74211 0.5094 0.46778 0.0
C336 C 0.73586 0.55889 0.4873 0.0
H337 H 0.69371 0.4128 0.43909 0.0
H338 H 0.78757 0.51081 0.47005 0.0
S339 S 0.59048 0.5738 0.48529 0.0
N340 N 0.56591 0.50116 0.46204 0.0
N341 N 0.66801 0.60564 0.49802 0.0
C342 C 0.67701 0.55704 0.4828 0.0
C343 C 0.62198 0.50065 0.46349 0.0
C344 C 0.48397 0.74442 0.75497 0.0
C345 C 0.50123 0.70052 0.76642 0.0
C346 C 0.50276 0.80339 0.77751 0.0
C347 C 0.53869 0.81913 0.81191 0.0
H348 H 0.45204 0.73096 0.73013 0.0
H349 H 0.48203 0.83234 0.7703 0.0
S350 S 0.60061 0.72313 0.852 0.0
N351 N 0.56017 0.679 0.81259 0.0
N352 N 0.59747 0.79071 0.85369 0.0
C353 C 0.56296 0.77953 0.82099 0.0
C354 C 0.54258 0.71919 0.79885 0.0
C355 C 0.86795 0.50164 0.1698 0.0
C356 C 0.84223 0.45482 0.1381 0.0
C357 C 0.83188 0.52635 0.18615 0.0
C358 C 0.76863 0.50396 0.17162 0.0
H359 H 0.91467 0.51608 0.18342 0.0
H360 H 0.85002 0.55548 0.21295 0.0
S361 S 0.68687 0.39768 0.08353 0.0
N362 N 0.75572 0.39873 0.08848 0.0
N363 N 0.68813 0.44602 0.11929 0.0
C364 C 0.74719 0.46659 0.13663 0.0
C365 C 0.78349 0.44067 0.12011 0.0
C366 C 0.24079 0.72141 0.02321 0.0
C367 C 0.20823 0.65541 0.02939 0.0
C368 C 0.26709 0.73969 -0.00995 0.0
C369 C 0.26092 0.69251 0.96174 0.0
H370 H 0.24671 0.75951 0.04431 0.0
H371 H 0.29128 0.79087 -0.01373 0.0
S372 S 0.18059 0.51355 0.96403 0.0
N373 N 0.17195 0.54305 0.00459 0.0
N374 N 0.2208 0.5773 0.94192 0.0
C375 C 0.22871 0.62644 0.96753 0.0
C376 C 0.20259 0.60791 0.00148 0.0
C377 C 0.5421 0.13378 0.34457 0.0
C378 C 0.60035 0.15233 0.36519 0.0
C379 C 0.54125 0.16421 0.31405 0.0
C380 C 0.59843 0.21529 0.30353 0.0
H381 H 0.49672 1.09531 0.35203 0.0
H382 H 0.49545 0.14773 0.29852 0.0
S383 S 0.7635 0.2835 0.34863 0.0
N384 N 0.71686 0.22562 0.37307 0.0
N385 N 0.71479 0.28332 0.31578 0.0
C386 C 0.65698 0.23484 0.32396 0.0
C387 C 0.65807 0.20312 0.35475 0.0
C388 C 0.71912 0.61431 0.66674 0.0
C389 C 0.75752 0.60847 0.69406 0.0
C390 C 0.738 0.62423 0.63112 0.0
C391 C 0.79621 0.62905 0.62162 0.0
H392 H 0.67399 0.61113 0.67284 0.0
H393 H 0.70704 0.62848 0.61096 0.0
S394 S 0.91416 0.61675 0.68271 0.0
N395 N 0.85709 0.60868 0.70885 0.0
N396 N 0.89137 0.6261 0.64202 0.0
C397 C 0.83505 0.62349 0.64861 0.0
C398 C 0.81602 0.61341 0.68477 0.0
C399 C 0.68818 1.09557 0.60253 0.0
C400 C 0.63607 1.09983 0.5871 0.0
C401 C 0.70384 1.10608 0.64106 0.0
C402 C 0.66823 0.12105 0.66562 0.0
H403 H 0.71843 1.08697 0.58488 0.0
H404 H 0.74623 1.10534 0.65163 0.0
S405 S 0.52192 0.12816 0.64003 0.0
N406 N 0.54498 1.11327 0.60031 0.0
N407 N 0.57443 0.13234 0.6718 0.0
C408 C 0.61393 0.12146 0.6506 0.0
C409 C 0.59805 1.11106 0.61168 0.0
C410 C 0.75726 0.65705 0.94384 0.0
C411 C 0.70195 0.60927 0.92071 0.0
C412 C 0.76094 0.65888 -0.01785 0.0
C413 C 0.70943 0.61342 -0.00028 0.0
H414 H 0.79938 0.69317 0.93234 0.0
H415 H 0.80522 0.696 -0.00178 0.0
S416 S 0.55165 0.48068 0.95318 0.0
N417 N 0.59271 0.51684 0.91909 0.0
N418 N 0.59976 0.52073 -0.00865 0.0
C419 C 0.65266 0.56688 -0.02257 0.0
C420 C 0.64892 0.56465 0.93801 0.0
C421 C 1.15423 0.67902 0.27578 0.0
C422 C 1.14437 0.62169 0.25443 0.0
C423 C 1.15808 0.68562 0.31429 0.0
C424 C 1.15185 0.6352 0.3337 0.0
H425 H 1.16054 0.72035 0.26277 0.0
H426 H 1.16741 0.73149 0.32913 0.0
S427 S 1.122 0.47351 0.29193 0.0
N428 N 1.12562 0.51197 0.25625 0.0
N429 N 1.13264 0.52463 0.32882 0.0
C430 C 1.1393 0.57647 0.31302 0.0
C431 C 1.13562 0.56968 0.27346 0.0
loop_
_geom_bond_atom_site_label_1
_geom_bond_atom_site_label_2
_geom_bond_distance
_geom_bond_site_symmetry_2
_ccdc_geom_bond_type
Eu0 C9 2.828 . S
Eu0 O11 2.392 1_655 S
Eu0 O13 2.418 . S
Eu0 O18 2.373 . S
Eu0 O21 2.488 . S
Eu0 O22 2.471 . S
Eu0 O23 2.349 1_655 S
Eu1 O10 2.373 . S
Eu1 O14 2.488 . S
Eu1 O15 2.471 . S
Eu1 O16 2.349 . S
Eu1 O19 2.392 1_455 S
Eu1 O20 2.418 . S
Eu1 C30 2.828 . S
C2 O20 1.244 . S
C2 O23 1.265 . S
C3 C4 1.379 . S
C3 C7 1.373 . S
C3 C9 1.505 . S
C4 C3 1.379 . S
C4 C6 1.369 . S
C4 H32 0.930 . S
C5 C7 1.383 . S
C5 C8 1.382 . S
C5 H33 0.930 . S
C6 C4 1.369 . S
C6 C8 1.392 . S
C6 H34 0.930 . S
C7 C3 1.373 . S
C7 C5 1.383 . S
C7 H35 0.931 . S
C8 C5 1.382 . S
C8 C6 1.392 . S
C9 Eu0 2.828 . S
C9 C3 1.505 . S
C9 O21 1.249 . S
C9 O22 1.244 . S
O10 Eu1 2.373 . S
O10 C12 1.258 . S
O11 Eu0 2.392 1_455 S
O11 C12 1.242 . S
C12 O10 1.258 . S
C12 O11 1.242 . S
O13 Eu0 2.418 . S
O13 C17 1.244 1_655 S
O14 Eu1 2.488 . S
O14 C30 1.249 . S
O15 Eu1 2.471 . S
O15 C30 1.244 . S
O16 Eu1 2.349 . S
O16 C17 1.265 . S
C17 O13 1.244 1_455 S
C17 O16 1.265 . S
O18 Eu0 2.373 . S
O18 C31 1.258 . S
O19 Eu1 2.392 1_655 S
O19 C31 1.242 . S
O20 Eu1 2.418 . S
O20 C2 1.244 . S
O21 Eu0 2.488 . S
O21 C9 1.249 . S
O22 Eu0 2.471 . S
O22 C9 1.244 . S
O23 Eu0 2.349 1_455 S
O23 C2 1.265 . S
C24 C25 1.379 . S
C24 C28 1.373 . S
C24 C30 1.505 . S
C25 C24 1.379 . S
C25 C27 1.369 . S
C25 H36 0.930 . S
C26 C28 1.383 . S
C26 C29 1.382 . S
C26 H37 0.930 . S
C27 C25 1.369 . S
C27 C29 1.392 . S
C27 H38 0.930 . S
C28 C24 1.373 . S
C28 C26 1.383 . S
C28 H39 0.931 . S
C29 C26 1.382 . S
C29 C27 1.392 . S
C30 Eu1 2.828 . S
C30 O14 1.249 . S
C30 O15 1.244 . S
C30 C24 1.505 . S
C31 O18 1.258 . S
C31 O19 1.242 . S
H32 C4 0.930 . S
H33 C5 0.930 . S
H34 C6 0.930 . S
H35 C7 0.931 . S
H36 C25 0.930 . S
H37 C26 0.930 . S
H38 C27 0.930 . S
H39 C28 0.931 . S
Eu40 C49 2.828 . S
Eu40 O51 2.392 1_565 S
Eu40 O53 2.418 . S
Eu40 O58 2.373 . S
Eu40 O61 2.488 . S
Eu40 O62 2.471 . S
Eu40 O63 2.349 1_565 S
Eu41 O50 2.373 . S
Eu41 O54 2.488 . S
Eu41 O55 2.471 . S
Eu41 O56 2.349 . S
Eu41 O59 2.392 1_545 S
Eu41 O60 2.418 . S
Eu41 C70 2.828 . S
C42 O60 1.244 . S
C42 O63 1.265 . S
C43 C44 1.379 . S
C43 C47 1.373 . S
C43 C49 1.505 . S
C44 C43 1.379 . S
C44 C46 1.369 . S
C44 H72 0.930 . S
C45 C47 1.383 . S
C45 C48 1.382 . S
C45 H73 0.930 . S
C46 C44 1.369 . S
C46 C48 1.392 . S
C46 H74 0.930 . S
C47 C43 1.373 . S
C47 C45 1.383 . S
C47 H75 0.931 . S
C48 C45 1.382 . S
C48 C46 1.392 . S
C49 Eu40 2.828 . S
C49 C43 1.505 . S
C49 O61 1.249 . S
C49 O62 1.244 . S
O50 Eu41 2.373 . S
O50 C52 1.258 . S
O51 Eu40 2.392 1_545 S
O51 C52 1.242 . S
C52 O50 1.258 . S
C52 O51 1.242 . S
O53 Eu40 2.418 . S
O53 C57 1.244 1_565 S
O54 Eu41 2.488 . S
O54 C70 1.249 . S
O55 Eu41 2.471 . S
O55 C70 1.244 . S
O56 Eu41 2.349 . S
O56 C57 1.265 . S
C57 O53 1.244 1_545 S
C57 O56 1.265 . S
O58 Eu40 2.373 . S
O58 C71 1.258 . S
O59 Eu41 2.392 1_565 S
O59 C71 1.242 . S
O60 Eu41 2.418 . S
O60 C42 1.244 . S
O61 Eu40 2.488 . S
O61 C49 1.249 . S
O62 Eu40 2.471 . S
O62 C49 1.244 . S
O63 Eu40 2.349 1_545 S
O63 C42 1.265 . S
C64 C65 1.379 . S
C64 C68 1.373 . S
C64 C70 1.505 . S
C65 C64 1.379 . S
C65 C67 1.369 . S
C65 H76 0.930 . S
C66 C68 1.383 . S
C66 C69 1.382 . S
C66 H77 0.930 . S
C67 C65 1.369 . S
C67 C69 1.392 . S
C67 H78 0.930 . S
C68 C64 1.373 . S
C68 C66 1.383 . S
C68 H79 0.931 . S
C69 C66 1.382 . S
C69 C67 1.392 . S
C70 Eu41 2.828 . S
C70 O54 1.249 . S
C70 O55 1.244 . S
C70 C64 1.505 . S
C71 O58 1.258 . S
C71 O59 1.242 . S
H72 C44 0.930 . S
H73 C45 0.930 . S
H74 C46 0.930 . S
H75 C47 0.931 . S
H76 C65 0.930 . S
H77 C66 0.930 . S
H78 C67 0.930 . S
H79 C68 0.931 . S
Eu80 C89 2.828 . S
Eu80 O91 2.392 . S
Eu80 O93 2.418 . S
Eu80 O98 2.373 . S
Eu80 O101 2.488 . S
Eu80 O102 2.471 . S
Eu80 O103 2.349 . S
Eu81 O90 2.373 . S
Eu81 O94 2.488 . S
Eu81 O95 2.471 . S
Eu81 O96 2.349 . S
Eu81 O99 2.392 . S
Eu81 O100 2.418 . S
Eu81 C110 2.828 . S
C82 O100 1.244 . S
C82 O103 1.265 . S
C83 C84 1.379 . S
C83 C87 1.373 . S
C83 C89 1.505 . S
C84 C83 1.379 . S
C84 C86 1.369 . S
C84 H112 0.930 . S
C85 C87 1.383 . S
C85 C88 1.382 . S
C85 H113 0.930 . S
C86 C84 1.369 . S
C86 C88 1.392 . S
C86 H114 0.930 . S
C87 C83 1.373 . S
C87 C85 1.383 . S
C87 H115 0.931 . S
C88 C85 1.382 . S
C88 C86 1.392 . S
C89 Eu80 2.828 . S
C89 C83 1.505 . S
C89 O101 1.249 . S
C89 O102 1.244 . S
O90 Eu81 2.373 . S
O90 C92 1.258 . S
O91 Eu80 2.392 . S
O91 C92 1.242 . S
C92 O90 1.258 . S
C92 O91 1.242 . S
O93 Eu80 2.418 . S
O93 C97 1.244 . S
O94 Eu81 2.488 . S
O94 C110 1.249 . S
O95 Eu81 2.471 . S
O95 C110 1.244 . S
O96 Eu81 2.349 . S
O96 C97 1.265 . S
C97 O93 1.244 . S
C97 O96 1.265 . S
O98 Eu80 2.373 . S
O98 C111 1.258 . S
O99 Eu81 2.392 . S
O99 C111 1.242 . S
O100 Eu81 2.418 . S
O100 C82 1.244 . S
O101 Eu80 2.488 . S
O101 C89 1.249 . S
O102 Eu80 2.471 . S
O102 C89 1.244 . S
O103 Eu80 2.349 . S
O103 C82 1.265 . S
C104 C105 1.379 . S
C104 C108 1.373 . S
C104 C110 1.505 . S
C105 C104 1.379 . S
C105 C107 1.369 . S
C105 H116 0.930 . S
C106 C108 1.383 . S
C106 C109 1.382 . S
C106 H117 0.930 . S
C107 C105 1.369 . S
C107 C109 1.392 . S
C107 H118 0.930 . S
C108 C104 1.373 . S
C108 C106 1.383 . S
C108 H119 0.931 . S
C109 C106 1.382 . S
C109 C107 1.392 . S
C110 Eu81 2.828 . S
C110 O94 1.249 . S
C110 O95 1.244 . S
C110 C104 1.505 . S
C111 O98 1.258 . S
C111 O99 1.242 . S
H112 C84 0.930 . S
H113 C85 0.930 . S
H114 C86 0.930 . S
H115 C87 0.931 . S
H116 C105 0.930 . S
H117 C106 0.930 . S
H118 C107 0.930 . S
H119 C108 0.931 . S
H120 C121 0.949 . S
C121 H120 0.949 . S
C121 C122 1.395 . S
C121 C123 1.391 . S
C122 C121 1.395 . S
C122 C125 1.390 1_545 S
C123 C121 1.391 . S
C123 C127 1.387 . S
C123 C128 1.491 . S
H124 C125 0.950 . S
C125 C122 1.390 1_565 S
C125 H124 0.950 . S
C125 C126 1.378 . S
C126 C125 1.378 . S
C126 C127 1.409 1_565 S
C127 C123 1.387 . S
C127 C126 1.409 1_545 S
C127 H129 0.951 . S
C128 C123 1.491 . S
C128 C130 1.382 . S
C128 C132 1.404 . S
H129 C127 0.951 . S
C130 C128 1.382 . S
C130 C131 1.390 . S
C130 H135 0.949 . S
C131 C130 1.390 . S
C131 C136 1.399 . S
C132 C128 1.404 . S
C132 H133 0.950 . S
C132 C134 1.375 . S
H133 C132 0.950 . S
C134 C132 1.375 . S
C134 C136 1.382 . S
C134 H138 0.950 . S
H135 C130 0.949 . S
C136 C131 1.399 . S
C136 C134 1.382 . S
C136 H137 0.952 . S
H137 C136 0.952 . S
H138 C134 0.950 . S
H139 C140 0.949 . S
C140 H139 0.949 . S
C140 C141 1.395 . S
C140 C142 1.391 . S
C141 C140 1.395 . S
C141 C144 1.390 . S
C142 C140 1.391 . S
C142 C146 1.387 . S
C142 C147 1.491 . S
H143 C144 0.950 . S
C144 C141 1.390 . S
C144 H143 0.950 . S
C144 C145 1.378 . S
C145 C144 1.378 . S
C145 C146 1.409 . S
C146 C142 1.387 . S
C146 C145 1.409 . S
C146 H148 0.951 . S
C147 C142 1.491 . S
C147 C149 1.382 . S
C147 C151 1.404 . S
H148 C146 0.951 . S
C149 C147 1.382 . S
C149 C150 1.390 . S
C149 H154 0.949 . S
C150 C149 1.390 . S
C150 C155 1.399 . S
C151 C147 1.404 . S
C151 H152 0.950 . S
C151 C153 1.375 . S
H152 C151 0.950 . S
C153 C151 1.375 . S
C153 C155 1.382 . S
C153 H157 0.950 . S
H154 C149 0.949 . S
C155 C150 1.399 . S
C155 C153 1.382 . S
C155 H156 0.952 . S
H156 C155 0.952 . S
H157 C153 0.950 . S
H158 C159 0.949 . S
C159 H158 0.949 . S
C159 C160 1.395 . S
C159 C161 1.391 . S
C160 C159 1.395 . S
C160 C163 1.390 1_455 S
C161 C159 1.391 . S
C161 C165 1.387 . S
C161 C166 1.491 . S
H162 C163 0.950 . S
C163 C160 1.390 1_655 S
C163 H162 0.950 . S
C163 C164 1.378 . S
C164 C163 1.378 . S
C164 C165 1.409 1_655 S
C165 C161 1.387 . S
C165 C164 1.409 1_455 S
C165 H167 0.951 . S
C166 C161 1.491 . S
C166 C168 1.382 . S
C166 C170 1.404 . S
H167 C165 0.951 . S
C168 C166 1.382 . S
C168 C169 1.390 . S
C168 H173 0.949 . S
C169 C168 1.390 . S
C169 C174 1.399 . S
C170 C166 1.404 . S
C170 H171 0.950 . S
C170 C172 1.375 . S
H171 C170 0.950 . S
C172 C170 1.375 . S
C172 C174 1.382 . S
C172 H176 0.950 . S
H173 C168 0.949 . S
C174 C169 1.399 . S
C174 C172 1.382 . S
C174 H175 0.952 . S
H175 C174 0.952 . S
H176 C172 0.950 . S
H177 C178 0.938 1_655 S
C178 H177 0.938 1_455 S
C178 C179 1.405 . S
C178 C180 1.392 . S
C179 C178 1.405 . S
C179 C182 1.390 . S
C180 C178 1.392 . S
C180 C184 1.387 . S
C180 C185 1.491 1_455 S
H181 C182 0.950 . S
C182 C179 1.390 . S
C182 H181 0.950 . S
C182 C183 1.378 . S
C183 C182 1.378 . S
C183 C184 1.409 . S
C184 C180 1.387 . S
C184 C183 1.409 . S
C184 H186 0.951 . S
C185 C180 1.491 1_655 S
C185 C187 1.382 . S
C185 C189 1.404 . S
H186 C184 0.951 . S
C187 C185 1.382 . S
C187 C188 1.390 . S
C187 H192 0.949 . S
C188 C187 1.390 . S
C188 C193 1.399 . S
C189 C185 1.404 . S
C189 H190 0.950 . S
C189 C191 1.375 . S
H190 C189 0.950 . S
C191 C189 1.375 . S
C191 C193 1.382 . S
C191 H195 0.950 . S
H192 C187 0.949 . S
C193 C188 1.399 . S
C193 C191 1.382 . S
C193 H194 0.952 . S
H194 C193 0.952 . S
H195 C191 0.950 . S
H196 C197 0.949 1_565 S
C197 H196 0.949 1_545 S
C197 C198 1.395 . S
C197 C199 1.391 . S
C198 C197 1.395 . S
C198 C201 1.390 . S
C199 C197 1.391 . S
C199 C203 1.387 . S
C199 C204 1.491 1_545 S
H200 C201 0.950 . S
C201 C198 1.390 . S
C201 H200 0.950 . S
C201 C202 1.378 . S
C202 C201 1.378 . S
C202 C203 1.409 . S
C203 C199 1.387 . S
C203 C202 1.409 . S
C203 H205 0.951 . S
C204 C199 1.491 1_565 S
C204 C206 1.382 . S
C204 C208 1.404 . S
H205 C203 0.951 . S
C206 C204 1.382 . S
C206 C207 1.390 . S
C206 H211 0.949 . S
C207 C206 1.390 . S
C207 C212 1.399 . S
C208 C204 1.404 . S
C208 H209 0.950 1_565 S
C208 C210 1.375 . S
H209 C208 0.950 1_545 S
C210 C208 1.375 . S
C210 C212 1.382 . S
C210 H214 0.950 . S
H211 C206 0.949 . S
C212 C207 1.399 . S
C212 C210 1.382 . S
C212 H213 0.952 . S
H213 C212 0.952 . S
H214 C210 0.950 . S
H215 C216 0.949 . S
C216 H215 0.949 . S
C216 C217 1.395 . S
C216 C218 1.391 . S
C217 C216 1.395 . S
C217 C220 1.390 . S
C218 C216 1.391 . S
C218 C222 1.387 . S
C218 C223 1.491 . S
H219 C220 0.950 . S
C220 C217 1.390 . S
C220 H219 0.950 . S
C220 C221 1.378 . S
C221 C220 1.378 . S
C221 C222 1.409 . S
C222 C218 1.387 . S
C222 C221 1.409 . S
C222 H224 0.951 . S
C223 C218 1.491 . S
C223 C225 1.382 . S
C223 C227 1.404 . S
H224 C222 0.951 . S
C225 C223 1.382 . S
C225 C226 1.390 . S
C225 H230 0.949 . S
C226 C225 1.390 . S
C226 C231 1.399 . S
C227 C223 1.404 . S
C227 H228 0.950 . S
C227 C229 1.375 . S
H228 C227 0.950 . S
C229 C227 1.375 . S
C229 C231 1.382 . S
C229 H233 0.950 . S
H230 C225 0.949 . S
C231 C226 1.399 . S
C231 C229 1.382 . S
C231 H232 0.952 . S
H232 C231 0.952 . S
H233 C229 0.950 . S
C234 C235 1.369 . S
C234 C236 1.419 . S
C234 H238 0.930 . S
C235 C234 1.369 . S
C235 C244 1.429 . S
C236 C234 1.419 . S
C236 C237 1.363 . S
C236 H239 0.929 . S
C237 C236 1.363 . S
C237 C243 1.428 . S
H238 C234 0.930 . S
H239 C236 0.929 . S
S240 N241 1.613 . S
S240 N242 1.610 . S
N241 S240 1.613 . S
N241 C244 1.350 . S
N242 S240 1.610 . S
N242 C243 1.351 . S
C243 C237 1.428 . S
C243 N242 1.351 . S
C243 C244 1.434 . S
C244 C235 1.429 . S
C244 N241 1.350 . S
C244 C243 1.434 . S
C245 C246 1.369 . S
C245 C247 1.419 . S
C245 H249 0.930 . S
C246 C245 1.369 . S
C246 C255 1.429 . S
C247 C245 1.419 . S
C247 C248 1.363 . S
C247 H250 0.929 . S
C248 C247 1.363 . S
C248 C254 1.428 . S
H249 C245 0.930 . S
H250 C247 0.929 . S
S251 N252 1.613 . S
S251 N253 1.610 . S
N252 S251 1.613 . S
N252 C255 1.350 . S
N253 S251 1.610 . S
N253 C254 1.351 . S
C254 C248 1.428 . S
C254 N253 1.351 . S
C254 C255 1.434 . S
C255 C246 1.429 . S
C255 N252 1.350 . S
C255 C254 1.434 . S
C256 C257 1.369 . S
C256 C258 1.419 . S
C256 H260 0.930 . S
C257 C256 1.369 . S
C257 C266 1.429 . S
C258 C256 1.419 . S
C258 C259 1.363 . S
C258 H261 0.929 . S
C259 C258 1.363 . S
C259 C265 1.428 . S
H260 C256 0.930 . S
H261 C258 0.929 . S
S262 N263 1.613 . S
S262 N264 1.610 . S
N263 S262 1.613 . S
N263 C266 1.350 . S
N264 S262 1.610 . S
N264 C265 1.351 . S
C265 C259 1.428 . S
C265 N264 1.351 . S
C265 C266 1.434 . S
C266 C257 1.429 . S
C266 N263 1.350 . S
C266 C265 1.434 . S
C267 C268 1.369 . S
C267 C269 1.419 . S
C267 H271 0.930 . S
C268 C267 1.369 . S
C268 C277 1.429 . S
C269 C267 1.419 . S
C269 C270 1.363 . S
C269 H272 0.929 . S
C270 C269 1.363 . S
C270 C276 1.428 . S
H271 C267 0.930 . S
H272 C269 0.929 . S
S273 N274 1.613 . S
S273 N275 1.610 . S
N274 S273 1.613 . S
N274 C277 1.350 . S
N275 S273 1.610 . S
N275 C276 1.351 . S
C276 C270 1.428 . S
C276 N275 1.351 . S
C276 C277 1.434 . S
C277 C268 1.429 . S
C277 N274 1.350 . S
C277 C276 1.434 . S
C278 C279 1.369 . S
C278 C280 1.419 . S
C278 H282 0.930 . S
C279 C278 1.369 . S
C279 C288 1.429 . S
C280 C278 1.419 . S
C280 C281 1.363 . S
C280 H283 0.929 . S
C281 C280 1.363 . S
C281 C287 1.428 . S
H282 C278 0.930 . S
H283 C280 0.929 . S
S284 N285 1.613 . S
S284 N286 1.610 . S
N285 S284 1.613 . S
N285 C288 1.350 . S
N286 S284 1.610 . S
N286 C287 1.351 . S
C287 C281 1.428 . S
C287 N286 1.351 . S
C287 C288 1.434 . S
C288 C279 1.429 . S
C288 N285 1.350 . S
C288 C287 1.434 . S
C289 C290 1.369 . S
C289 C291 1.419 . S
C289 H293 0.930 . S
C290 C289 1.369 . S
C290 C299 1.429 . S
C291 C289 1.419 . S
C291 C292 1.363 . S
C291 H294 0.929 . S
C292 C291 1.363 . S
C292 C298 1.428 . S
H293 C289 0.930 . S
H294 C291 0.929 . S
S295 N296 1.613 . S
S295 N297 1.610 . S
N296 S295 1.613 . S
N296 C299 1.350 . S
N297 S295 1.610 . S
N297 C298 1.351 . S
C298 C292 1.428 . S
C298 N297 1.351 . S
C298 C299 1.434 . S
C299 C290 1.429 . S
C299 N296 1.350 . S
C299 C298 1.434 . S
C300 C301 1.369 . S
C300 C302 1.419 . S
C300 H304 0.930 . S
C301 C300 1.369 . S
C301 C310 1.429 . S
C302 C300 1.419 . S
C302 C303 1.363 . S
C302 H305 0.929 . S
C303 C302 1.363 . S
C303 C309 1.428 . S
H304 C300 0.930 . S
H305 C302 0.929 . S
S306 N307 1.613 . S
S306 N308 1.610 . S
N307 S306 1.613 . S
N307 C310 1.350 . S
N308 S306 1.610 . S
N308 C309 1.351 . S
C309 C303 1.428 . S
C309 N308 1.351 . S
C309 C310 1.434 . S
C310 C301 1.429 . S
C310 N307 1.350 . S
C310 C309 1.434 . S
C311 C312 1.369 . S
C311 C313 1.419 . S
C311 H315 0.930 . S
C312 C311 1.369 . S
C312 C321 1.429 . S
C313 C311 1.419 . S
C313 C314 1.363 . S
C313 H316 0.929 . S
C314 C313 1.363 . S
C314 C320 1.428 . S
H315 C311 0.930 . S
H316 C313 0.929 . S
S317 N318 1.613 . S
S317 N319 1.610 . S
N318 S317 1.613 . S
N318 C321 1.350 . S
N319 S317 1.610 . S
N319 C320 1.351 . S
C320 C314 1.428 . S
C320 N319 1.351 . S
C320 C321 1.434 . S
C321 C312 1.429 . S
C321 N318 1.350 . S
C321 C320 1.434 . S
C322 C323 1.369 . S
C322 C324 1.419 . S
C322 H326 0.930 . S
C323 C322 1.369 . S
C323 C332 1.429 . S
C324 C322 1.419 . S
C324 C325 1.363 . S
C324 H327 0.929 . S
C325 C324 1.363 . S
C325 C331 1.428 . S
H326 C322 0.930 . S
H327 C324 0.929 . S
S328 N329 1.613 . S
S328 N330 1.610 . S
N329 S328 1.613 . S
N329 C332 1.350 . S
N330 S328 1.610 . S
N330 C331 1.351 . S
C331 C325 1.428 . S
C331 N330 1.351 . S
C331 C332 1.434 . S
C332 C323 1.429 . S
C332 N329 1.350 . S
C332 C331 1.434 . S
C333 C334 1.369 . S
C333 C335 1.419 . S
C333 H337 0.930 . S
C334 C333 1.369 . S
C334 C343 1.429 . S
C335 C333 1.419 . S
C335 C336 1.363 . S
C335 H338 0.929 . S
C336 C335 1.363 . S
C336 C342 1.428 . S
H337 C333 0.930 . S
H338 C335 0.929 . S
S339 N340 1.613 . S
S339 N341 1.610 . S
N340 S339 1.613 . S
N340 C343 1.350 . S
N341 S339 1.610 . S
N341 C342 1.351 . S
C342 C336 1.428 . S
C342 N341 1.351 . S
C342 C343 1.434 . S
C343 C334 1.429 . S
C343 N340 1.350 . S
C343 C342 1.434 . S
C344 C345 1.369 . S
C344 C346 1.419 . S
C344 H348 0.930 . S
C345 C344 1.369 . S
C345 C354 1.429 . S
C346 C344 1.419 . S
C346 C347 1.363 . S
C346 H349 0.929 . S
C347 C346 1.363 . S
C347 C353 1.428 . S
H348 C344 0.930 . S
H349 C346 0.929 . S
S350 N351 1.613 . S
S350 N352 1.610 . S
N351 S350 1.613 . S
N351 C354 1.350 . S
N352 S350 1.610 . S
N352 C353 1.351 . S
C353 C347 1.428 . S
C353 N352 1.351 . S
C353 C354 1.434 . S
C354 C345 1.429 . S
C354 N351 1.350 . S
C354 C353 1.434 . S
C355 C356 1.369 . S
C355 C357 1.419 . S
C355 H359 0.930 . S
C356 C355 1.369 . S
C356 C365 1.429 . S
C357 C355 1.419 . S
C357 C358 1.363 . S
C357 H360 0.929 . S
C358 C357 1.363 . S
C358 C364 1.428 . S
H359 C355 0.930 . S
H360 C357 0.929 . S
S361 N362 1.613 . S
S361 N363 1.610 . S
N362 S361 1.613 . S
N362 C365 1.350 . S
N363 S361 1.610 . S
N363 C364 1.351 . S
C364 C358 1.428 . S
C364 N363 1.351 . S
C364 C365 1.434 . S
C365 C356 1.429 . S
C365 N362 1.350 . S
C365 C364 1.434 . S
C366 C367 1.369 . S
C366 C368 1.419 1_554 S
C366 H370 0.930 . S
C367 C366 1.369 . S
C367 C376 1.429 1_455 S
C368 C366 1.419 1_556 S
C368 C369 1.363 . S
C368 H371 0.929 . S
C369 C368 1.363 . S
C369 C375 1.428 1_455 S
H370 C366 0.930 . S
H371 C368 0.929 . S
S372 N373 1.613 1_556 S
S372 N374 1.610 . S
N373 S372 1.613 1_554 S
N373 C376 1.350 . S
N374 S372 1.610 . S
N374 C375 1.351 . S
C375 C369 1.428 1_655 S
C375 N374 1.351 . S
C375 C376 1.434 1_556 S
C376 C367 1.429 1_655 S
C376 N373 1.350 . S
C376 C375 1.434 1_554 S
C377 C378 1.369 1_565 S
C377 C379 1.419 . S
C377 H381 0.930 . S
C378 C377 1.369 1_545 S
C378 C387 1.429 . S
C379 C377 1.419 . S
C379 C380 1.363 1_565 S
C379 H382 0.929 . S
C380 C379 1.363 1_545 S
C380 C386 1.428 . S
H381 C377 0.930 . S
H382 C379 0.929 . S
S383 N384 1.613 . S
S383 N385 1.610 . S
N384 S383 1.613 . S
N384 C387 1.350 . S
N385 S383 1.610 . S
N385 C386 1.351 . S
C386 C380 1.428 . S
C386 N385 1.351 . S
C386 C387 1.434 . S
C387 C378 1.429 . S
C387 N384 1.350 . S
C387 C386 1.434 . S
C388 C389 1.369 . S
C388 C390 1.419 . S
C388 H392 0.930 . S
C389 C388 1.369 . S
C389 C398 1.429 . S
C390 C388 1.419 . S
C390 C391 1.363 . S
C390 H393 0.929 . S
C391 C390 1.363 . S
C391 C397 1.428 . S
H392 C388 0.930 . S
H393 C390 0.929 . S
S394 N395 1.613 . S
S394 N396 1.610 . S
N395 S394 1.613 . S
N395 C398 1.350 . S
N396 S394 1.610 . S
N396 C397 1.351 . S
C397 C391 1.428 . S
C397 N396 1.351 . S
C397 C398 1.434 . S
C398 C389 1.429 . S
C398 N395 1.350 . S
C398 C397 1.434 . S
C399 C400 1.369 . S
C399 C401 1.419 . S
C399 H403 0.930 . S
C400 C399 1.369 . S
C400 C409 1.429 . S
C401 C399 1.419 . S
C401 C402 1.363 . S
C401 H404 0.929 . S
C402 C401 1.363 . S
C402 C408 1.428 . S
H403 C399 0.930 . S
H404 C401 0.929 . S
S405 N406 1.613 . S
S405 N407 1.610 . S
N406 S405 1.613 . S
N406 C409 1.350 . S
N407 S405 1.610 . S
N407 C408 1.351 . S
C408 C402 1.428 . S
C408 N407 1.351 . S
C408 C409 1.434 . S
C409 C400 1.429 . S
C409 N406 1.350 . S
C409 C408 1.434 . S
C410 C411 1.369 . S
C410 C412 1.390 1_556 S
C410 H414 0.930 . S
C411 C410 1.369 . S
C411 C420 1.429 . S
C412 C410 1.390 1_554 S
C412 C413 1.384 . S
C412 H415 0.938 . S
C413 C412 1.384 . S
C413 C419 1.428 . S
H414 C410 0.930 . S
H415 C412 0.938 . S
S416 N417 1.613 . S
S416 N418 1.610 1_556 S
N417 S416 1.613 . S
N417 C420 1.350 . S
N418 S416 1.610 1_554 S
N418 C419 1.351 . S
C419 C413 1.428 . S
C419 N418 1.351 . S
C419 C420 1.434 1_554 S
C420 C411 1.429 . S
C420 N417 1.350 . S
C420 C419 1.434 1_556 S
C421 C422 1.369 . S
C421 C423 1.419 . S
C421 H425 0.930 . S
C422 C421 1.369 . S
C422 C431 1.429 1_455 S
C423 C421 1.419 . S
C423 C424 1.363 . S
C423 H426 0.929 . S
C424 C423 1.363 . S
C424 C430 1.428 1_455 S
H425 C421 0.930 . S
H426 C423 0.929 . S
S427 N428 1.613 . S
S427 N429 1.610 . S
N428 S427 1.613 . S
N428 C431 1.350 . S
N429 S427 1.610 . S
N429 C430 1.351 . S
C430 C424 1.428 1_655 S
C430 N429 1.351 . S
C430 C431 1.434 . S
C431 C422 1.429 1_655 S
C431 N428 1.350 . S
C431 C430 1.434 . S
C235 C12 3.116 . S
C237 C226 3.028 . S
C246 C52 3.117 . S
C248 C188 3.031 . S
C257 C111 3.134 . S
C259 C207 3.045 . S
C268 C31 3.089 . S
C270 C221 3.037 . S
C281 C183 3.036 . S
C279 C71 3.094 . S
C292 C202 3.012 . S
C290 C92 3.061 . S
C301 C48 0.838 . S
C303 C150 0.811 . S
C312 C109 0.579 . S
C314 C164 0.376 . S
C323 C29 0.475 . S
C325 C126 0.269 . S
C336 C145 0.570 . S
C334 C69 0.611 . S
C347 C169 0.609 . S
C345 C88 0.497 . S
C356 C8 0.624 . S
C358 C131 0.683 . S
C369 C160 1.253 . S
C367 C17 1.211 . S
C378 C57 1.202 . S
C380 C122 1.238 . S
C389 C97 1.267 . S
C391 C141 1.268 . S
C402 C198 1.745 . S
C400 C42 1.731 . S
C413 C217 1.769 . S
C411 C82 1.750 . S
C422 C2 1.772 . S
C424 C179 1.774 . S
