# Generated by pormake.
# Topology pyr, (3,6)-cn, num edge types: 1
# Building blocks:
#     Node 0, Type 0, BuildingBlock: KAKCAD_clean_linker_0, # of connection points: 3
#     Node 1, Type 0, BuildingBlock: KAKCAD_clean_linker_0, # of connection points: 3
#     Node 2, Type 0, BuildingBlock: KAKCAD_clean_linker_0, # of connection points: 3
#     Node 3, Type 0, BuildingBlock: KAKCAD_clean_linker_0, # of connection points: 3
#     Node 4, Type 0, BuildingBlock: KAKCAD_clean_linker_0, # of connection points: 3
#     Node 5, Type 0, BuildingBlock: KAKCAD_clean_linker_0, # of connection points: 3
#     Node 6, Type 0, BuildingBlock: KAKCAD_clean_linker_0, # of connection points: 3
#     Node 7, Type 0, BuildingBlock: KAKCAD_clean_linker_0, # of connection points: 3
#     Node 8, Type 1, BuildingBlock: LEVNOQ01_clean_sbu_1, # of connection points: 6
#     Node 9, Type 1, BuildingBlock: LEVNOQ01_clean_sbu_1, # of connection points: 6
#     Node 10, Type 1, BuildingBlock: LEVNOQ01_clean_sbu_1, # of connection points: 6
#     Node 11, Type 1, BuildingBlock: LEVNOQ01_clean_sbu_1, # of connection points: 6
#     Edge 12, Type (0, 1), BuildingBlock: CIFDUS_clean_linker_0, # of connection points: 2
#     Edge 13, Type (0, 1), BuildingBlock: CIFDUS_clean_linker_0, # of connection points: 2
#     Edge 14, Type (0, 1), BuildingBlock: CIFDUS_clean_linker_0, # of connection points: 2
#     Edge 15, Type (0, 1), BuildingBlock: CIFDUS_clean_linker_0, # of connection points: 2
#     Edge 16, Type (0, 1), BuildingBlock: CIFDUS_clean_linker_0, # of connection points: 2
#     Edge 17, Type (0, 1), BuildingBlock: CIFDUS_clean_linker_0, # of connection points: 2
#     Edge 18, Type (0, 1), BuildingBlock: CIFDUS_clean_linker_0, # of connection points: 2
#     Edge 19, Type (0, 1), BuildingBlock: CIFDUS_clean_linker_0, # of connection points: 2
#     Edge 20, Type (0, 1), BuildingBlock: CIFDUS_clean_linker_0, # of connection points: 2
#     Edge 21, Type (0, 1), BuildingBlock: CIFDUS_clean_linker_0, # of connection points: 2
#     Edge 22, Type (0, 1), BuildingBlock: CIFDUS_clean_linker_0, # of connection points: 2
#     Edge 23, Type (0, 1), BuildingBlock: CIFDUS_clean_linker_0, # of connection points: 2
#     Edge 24, Type (0, 1), BuildingBlock: CIFDUS_clean_linker_0, # of connection points: 2
#     Edge 25, Type (0, 1), BuildingBlock: CIFDUS_clean_linker_0, # of connection points: 2
#     Edge 26, Type (0, 1), BuildingBlock: CIFDUS_clean_linker_0, # of connection points: 2
#     Edge 27, Type (0, 1), BuildingBlock: CIFDUS_clean_linker_0, # of connection points: 2
#     Edge 28, Type (0, 1), BuildingBlock: CIFDUS_clean_linker_0, # of connection points: 2
#     Edge 29, Type (0, 1), BuildingBlock: CIFDUS_clean_linker_0, # of connection points: 2
#     Edge 30, Type (0, 1), BuildingBlock: CIFDUS_clean_linker_0, # of connection points: 2
#     Edge 31, Type (0, 1), BuildingBlock: CIFDUS_clean_linker_0, # of connection points: 2
#     Edge 32, Type (0, 1), BuildingBlock: CIFDUS_clean_linker_0, # of connection points: 2
#     Edge 33, Type (0, 1), BuildingBlock: CIFDUS_clean_linker_0, # of connection points: 2
#     Edge 34, Type (0, 1), BuildingBlock: CIFDUS_clean_linker_0, # of connection points: 2
#     Edge 35, Type (0, 1), BuildingBlock: CIFDUS_clean_linker_0, # of connection points: 2
# Relax obj value: 0.034
# Max RMSD: 0.110
# Mean RMSD: 0.045
data_MOF--net-pry--node1-LEVNOQ01_clean_sbu_1--node2-KAKCAD_clean_linker_0--edge1-CIFDUS_clean_linker_0
_symmetry_space_group_name_H-M    P1
_symmetry_Int_Tables_number       1
_symmetry_cell_setting            triclinic
loop_
_symmetry_equiv_pos_as_xyz
'x, y, z'
_cell_length_a     41.279058
_cell_length_b     40.035944
_cell_length_c     39.885078
_cell_angle_alpha  93.007215
_cell_angle_beta   91.140855
_cell_angle_gamma 93.228189
loop_
_atom_site_label
_atom_site_type_symbol
_atom_site_fract_x
_atom_site_fract_y
_atom_site_fract_z
_atom_type_partial_charge
C0 C 0.0887 0.12867 0.24181 0.0
C1 C 0.10684 0.11464 0.26715 0.0
C2 C 0.10422 0.14431 0.21555 0.0
C3 C 0.13822 0.1459 0.21385 0.0
C4 C 0.15643 0.13242 0.23953 0.0
C5 C 0.14087 0.11715 0.26613 0.0
C6 C 0.15445 0.16124 0.18503 0.0
C7 C 0.14519 0.19221 0.17443 0.0
C8 C 0.15987 0.20686 0.14693 0.0
C9 C 0.1847 0.19033 0.13039 0.0
C10 C 0.19393 0.15862 0.13989 0.0
C11 C 0.17837 0.14441 0.16742 0.0
C12 C 0.21912 0.14018 0.12076 0.0
C13 C 0.2249 0.14602 0.08682 0.0
C14 C 0.23764 0.11639 0.13606 0.0
C15 C 0.26075 0.09898 0.11805 0.0
C16 C 0.26732 0.1057 0.08443 0.0
C17 C 0.14866 0.23908 0.13514 0.0
C18 C 0.11534 0.24473 0.13357 0.0
C19 C 0.17098 0.26439 0.1254 0.0
C20 C 0.16024 0.29471 0.11471 0.0
C21 C 0.12692 0.30047 0.11348 0.0
C22 C 0.10461 0.27502 0.1229 0.0
C23 C 0.24898 0.12974 0.06929 0.0
H24 H 0.06242 0.12708 0.24206 0.0
H25 H 0.08956 0.15433 0.19605 0.0
H26 H 0.1827 0.13359 0.23895 0.0
H27 H 0.15535 0.10627 0.28524 0.0
H28 H 0.12674 0.20521 0.18801 0.0
H29 H 0.18385 0.11968 0.17475 0.0
H30 H 0.19644 0.20225 0.1098 0.0
H31 H 0.21088 0.16318 0.07331 0.0
H32 H 0.23479 0.11121 0.1622 0.0
H33 H 0.27336 0.08027 0.13089 0.0
H34 H 0.09745 0.22561 0.14045 0.0
H35 H 0.19681 0.26099 0.12651 0.0
H36 H 0.25327 0.13672 0.04388 0.0
H37 H 0.07882 0.27869 0.12262 0.0
H38 H 0.17809 0.31362 0.10729 0.0
C39 C 0.38326 0.87477 0.73902 0.0
C40 C 0.38251 0.90904 0.74855 0.0
C41 C 0.37677 0.86326 0.70577 0.0
C42 C 0.36911 0.88572 0.68133 0.0
C43 C 0.36872 0.92007 0.69073 0.0
C44 C 0.37558 0.93166 0.72399 0.0
C45 C 0.3607 0.87325 0.64633 0.0
C46 C 0.3328 0.88365 0.6303 0.0
C47 C 0.32419 0.87171 0.59749 0.0
C48 C 0.3444 0.85007 0.58009 0.0
C49 C 0.37204 0.83823 0.59598 0.0
C50 C 0.37972 0.85001 0.62938 0.0
C51 C 0.39186 0.81252 0.57852 0.0
C52 C 0.37785 0.78946 0.55371 0.0
C53 C 0.42474 0.8098 0.5874 0.0
C54 C 0.4423 0.78376 0.57369 0.0
C55 C 0.42811 0.76021 0.5494 0.0
C56 C 0.29294 0.88029 0.5823 0.0
C57 C 0.26414 0.87511 0.59993 0.0
C58 C 0.29158 0.89368 0.5505 0.0
C59 C 0.26196 0.90281 0.53707 0.0
C60 C 0.23321 0.89803 0.55497 0.0
C61 C 0.23454 0.88369 0.58631 0.0
C62 C 0.39584 0.76427 0.53891 0.0
H63 H 0.38888 0.8568 0.75736 0.0
H64 H 0.37702 0.83665 0.69934 0.0
H65 H 0.3631 0.93797 0.67232 0.0
H66 H 0.37475 0.95817 0.73065 0.0
H67 H 0.3173 0.90057 0.64365 0.0
H68 H 0.40028 0.84096 0.64267 0.0
H69 H 0.33783 0.84192 0.55444 0.0
H70 H 0.3526 0.78996 0.54611 0.0
H71 H 0.43713 0.82745 0.60544 0.0
H72 H 0.46677 0.78179 0.58324 0.0
H73 H 0.26455 0.86448 0.62435 0.0
H74 H 0.3135 0.89786 0.53646 0.0
H75 H 0.38393 0.74771 0.51961 0.0
H76 H 0.21282 0.88013 0.60081 0.0
H77 H 0.26153 0.91388 0.51287 0.0
C78 C 0.75185 0.39292 0.92093 0.0
C79 C 0.78083 0.37657 0.92559 0.0
C80 C 0.72862 0.38055 0.89658 0.0
C81 C 0.73367 0.35134 0.87671 0.0
C82 C 0.76255 0.33513 0.88119 0.0
C83 C 0.78592 0.3477 0.90504 0.0
C84 C 0.70873 0.33706 0.85185 0.0
C85 C 0.69514 0.35707 0.82797 0.0
C86 C 0.67216 0.34308 0.80392 0.0
C87 C 0.66212 0.30897 0.80457 0.0
C88 C 0.67497 0.28883 0.82882 0.0
C89 C 0.6986 0.30301 0.85197 0.0
C90 C 0.66214 0.25375 0.83201 0.0
C91 C 0.62853 0.24629 0.83277 0.0
C92 C 0.68328 0.22826 0.83791 0.0
C93 C 0.67111 0.19659 0.84647 0.0
C94 C 0.63752 0.18982 0.8497 0.0
C95 C 0.65825 0.36428 0.77847 0.0
C96 C 0.64554 0.3949 0.78842 0.0
C97 C 0.65765 0.35415 0.74418 0.0
C98 C 0.64507 0.3746 0.72022 0.0
C99 C 0.63238 0.40543 0.7301 0.0
C100 C 0.63249 0.41505 0.76462 0.0
C101 C 0.61635 0.21475 0.84164 0.0
H102 H 0.74687 0.41501 0.93636 0.0
H103 H 0.70639 0.39338 0.89377 0.0
H104 H 0.76726 0.31283 0.86589 0.0
H105 H 0.80825 0.33492 0.90692 0.0
H106 H 0.70308 0.38332 0.82755 0.0
H107 H 0.70826 0.28781 0.87111 0.0
H108 H 0.64388 0.29825 0.78659 0.0
H109 H 0.61164 0.2655 0.82864 0.0
H110 H 0.70932 0.23318 0.837 0.0
H111 H 0.68811 0.17784 0.85185 0.0
H112 H 0.64526 0.40306 0.81475 0.0
H113 H 0.66751 0.33069 0.73585 0.0
H114 H 0.59039 0.21076 0.84429 0.0
H115 H 0.62215 0.43806 0.77347 0.0
H116 H 0.6458 0.36645 0.69395 0.0
C117 C 0.88693 0.60861 0.26946 0.0
C118 C 0.92073 0.60838 0.2661 0.0
C119 C 0.87353 0.61372 0.30112 0.0
C120 C 0.89366 0.61867 0.33007 0.0
C121 C 0.9274 0.61811 0.32671 0.0
C122 C 0.94076 0.61293 0.29513 0.0
C123 C 0.87955 0.6243 0.36371 0.0
C124 C 0.852 0.60513 0.37265 0.0
C125 C 0.83745 0.61107 0.40371 0.0
C126 C 0.85201 0.63534 0.42691 0.0
C127 C 0.87965 0.6553 0.41848 0.0
C128 C 0.89296 0.64951 0.38649 0.0
C129 C 0.89302 0.68389 0.44151 0.0
C130 C 0.87294 0.70078 0.46411 0.0
C131 C 0.92552 0.69624 0.43945 0.0
C132 C 0.93645 0.72636 0.45635 0.0
C133 C 0.91567 0.74451 0.47713 0.0
C134 C 0.80568 0.59369 0.41049 0.0
C135 C 0.78191 0.58897 0.38466 0.0
C136 C 0.79837 0.58254 0.4425 0.0
C137 C 0.76797 0.56687 0.44838 0.0
C138 C 0.74452 0.56189 0.4223 0.0
C139 C 0.75181 0.57313 0.39045 0.0
C140 C 0.88434 0.73009 0.4822 0.0
H141 H 0.87088 0.60551 0.24757 0.0
H142 H 0.84743 0.61439 0.30288 0.0
H143 H 0.94348 0.62129 0.34859 0.0
H144 H 0.96688 0.61219 0.29351 0.0
H145 H 0.84169 0.58554 0.35518 0.0
H146 H 0.913 0.66548 0.3784 0.0
H147 H 0.84102 0.63925 0.45106 0.0
H148 H 0.84778 0.69262 0.46691 0.0
H149 H 0.94247 0.68342 0.42373 0.0
H150 H 0.96076 0.73604 0.45139 0.0
H151 H 0.78631 0.59807 0.35997 0.0
H152 H 0.8162 0.5856 0.46287 0.0
H153 H 0.86781 0.74211 0.49904 0.0
H154 H 0.73395 0.57023 0.37008 0.0
H155 H 0.76294 0.55828 0.47315 0.0
C156 C 0.87328 0.90597 0.74218 0.0
C157 C 0.90736 0.90812 0.74142 0.0
C158 C 0.85727 0.89099 0.76869 0.0
C159 C 0.87502 0.87759 0.79479 0.0
C160 C 0.90907 0.87913 0.79356 0.0
C161 C 0.92502 0.89422 0.76724 0.0
C162 C 0.85829 0.86227 0.82343 0.0
C163 C 0.86847 0.83212 0.83552 0.0
C164 C 0.85327 0.81756 0.86285 0.0
C165 C 0.82747 0.83352 0.87816 0.0
C166 C 0.81676 0.86362 0.8663 0.0
C167 C 0.83241 0.87784 0.839 0.0
C168 C 0.78846 0.87958 0.88153 0.0
C169 C 0.75996 0.86016 0.88754 0.0
C170 C 0.78923 0.91436 0.88905 0.0
C171 C 0.7619 0.92943 0.90185 0.0
C172 C 0.73313 0.91007 0.9069 0.0
C173 C 0.86415 0.78538 0.8749 0.0
C174 C 0.86977 0.7587 0.85183 0.0
C175 C 0.86938 0.78119 0.90934 0.0
C176 C 0.88027 0.75103 0.92041 0.0
C177 C 0.88573 0.72431 0.89729 0.0
C178 C 0.8803 0.7285 0.8629 0.0
C179 C 0.73259 0.87524 0.89992 0.0
H180 H 0.85903 0.91663 0.72276 0.0
H181 H 0.831 0.88985 0.76873 0.0
H182 H 0.92347 0.86927 0.81335 0.0
H183 H 0.9513 0.89518 0.7672 0.0
H184 H 0.88832 0.81989 0.82358 0.0
H185 H 0.8243 0.90101 0.82976 0.0
H186 H 0.81547 0.82232 0.89911 0.0
H187 H 0.75852 0.83336 0.88179 0.0
H188 H 0.81095 0.92993 0.88492 0.0
H189 H 0.76298 0.95632 0.90692 0.0
H190 H 0.86574 0.76106 0.82516 0.0
H191 H 0.86546 0.8014 0.92768 0.0
H192 H 0.71085 0.85963 0.90388 0.0
H193 H 0.88454 0.70848 0.84444 0.0
H194 H 0.88403 0.74846 0.94708 0.0
C195 C 0.61054 0.07413 0.26759 0.0
C196 C 0.60027 0.09906 0.24687 0.0
C197 C 0.61735 0.08153 0.30183 0.0
C198 C 0.61425 0.11409 0.31613 0.0
C199 C 0.60348 0.13878 0.29542 0.0
C200 C 0.59634 0.13131 0.26144 0.0
C201 C 0.62353 0.12299 0.352 0.0
C202 C 0.6505 0.10937 0.36695 0.0
C203 C 0.66118 0.11999 0.39965 0.0
C204 C 0.64502 0.14497 0.41749 0.0
C205 C 0.61764 0.15865 0.40321 0.0
C206 C 0.60674 0.14686 0.3708 0.0
C207 C 0.60087 0.18605 0.42122 0.0
C208 C 0.5961 0.18633 0.45614 0.0
C209 C 0.58888 0.21209 0.40308 0.0
C210 C 0.57133 0.23678 0.41899 0.0
C211 C 0.56578 0.23649 0.45353 0.0
C212 C 0.69021 0.10557 0.41411 0.0
C213 C 0.692 0.07069 0.41372 0.0
C214 C 0.71727 0.12625 0.42539 0.0
C215 C 0.74641 0.11218 0.43401 0.0
C216 C 0.74877 0.07721 0.43166 0.0
C217 C 0.72087 0.05666 0.42266 0.0
C218 C 0.57881 0.21153 0.47223 0.0
H219 H 0.61397 0.04905 0.25728 0.0
H220 H 0.62518 0.06173 0.31703 0.0
H221 H 0.60123 0.16427 0.30521 0.0
H222 H 0.58778 0.15102 0.24655 0.0
H223 H 0.66421 0.09144 0.3527 0.0
H224 H 0.58505 0.15643 0.36005 0.0
H225 H 0.65401 0.15389 0.44226 0.0
H226 H 0.60493 0.16663 0.47087 0.0
H227 H 0.59292 0.2134 0.37643 0.0
H228 H 0.56191 0.25618 0.40421 0.0
H229 H 0.67128 0.05426 0.40552 0.0
H230 H 0.71644 0.15326 0.42575 0.0
H231 H 0.57479 0.21098 0.49895 0.0
H232 H 0.72165 0.02962 0.42139 0.0
H233 H 0.76749 0.1287 0.44068 0.0
C234 C 0.23495 0.62868 0.14034 0.0
C235 C 0.23837 0.62092 0.10584 0.0
C236 C 0.26216 0.63754 0.16101 0.0
C237 C 0.29328 0.6394 0.14746 0.0
C238 C 0.29682 0.63029 0.11319 0.0
C239 C 0.26959 0.62082 0.09261 0.0
C240 C 0.32135 0.65418 0.16813 0.0
C241 C 0.32838 0.643 0.20023 0.0
C242 C 0.3544 0.65822 0.22006 0.0
C243 C 0.37254 0.68559 0.20763 0.0
C244 C 0.36604 0.69669 0.17554 0.0
C245 C 0.34049 0.68077 0.15597 0.0
C246 C 0.38658 0.72419 0.16189 0.0
C247 C 0.39505 0.75386 0.18134 0.0
C248 C 0.39805 0.72067 0.12908 0.0
C249 C 0.41761 0.74612 0.11598 0.0
C250 C 0.42614 0.77581 0.13531 0.0
C251 C 0.36376 0.64499 0.25304 0.0
C252 C 0.34028 0.63228 0.27492 0.0
C253 C 0.39673 0.64466 0.26271 0.0
C254 C 0.40597 0.63229 0.29331 0.0
C255 C 0.3826 0.6194 0.31502 0.0
C256 C 0.34962 0.61943 0.30549 0.0
C257 C 0.41448 0.77957 0.16807 0.0
H258 H 0.21106 0.62881 0.1511 0.0
H259 H 0.25871 0.64464 0.18723 0.0
H260 H 0.3206 0.6314 0.10216 0.0
H261 H 0.27279 0.61501 0.06609 0.0
H262 H 0.31413 0.62186 0.20919 0.0
H263 H 0.3349 0.68976 0.13145 0.0
H264 H 0.39227 0.69801 0.22267 0.0
H265 H 0.38634 0.75732 0.20665 0.0
H266 H 0.39217 0.69801 0.11359 0.0
H267 H 0.42579 0.74268 0.09045 0.0
H268 H 0.31467 0.6324 0.26856 0.0
H269 H 0.41565 0.65326 0.24627 0.0
H270 H 0.42067 0.80219 0.18349 0.0
H271 H 0.33107 0.60958 0.32172 0.0
H272 H 0.43162 0.63182 0.29948 0.0
C273 C 0.09134 0.2875 0.53716 0.0
C274 C 0.05747 0.28093 0.53578 0.0
C275 C 0.10513 0.31631 0.55424 0.0
C276 C 0.0855 0.33928 0.57064 0.0
C277 C 0.0516 0.33365 0.56809 0.0
C278 C 0.03772 0.3049 0.55066 0.0
C279 C 0.10077 0.36737 0.59237 0.0
C280 C 0.12834 0.38564 0.58164 0.0
C281 C 0.14607 0.4088 0.60368 0.0
C282 C 0.13494 0.41438 0.63649 0.0
C283 C 0.10683 0.39719 0.64739 0.0
C284 C 0.08986 0.3737 0.62512 0.0
C285 C 0.09585 0.40305 0.6824 0.0
C286 C 0.11835 0.40674 0.70955 0.0
C287 C 0.06271 0.40519 0.68888 0.0
C288 C 0.05227 0.41064 0.72168 0.0
C289 C 0.0747 0.41409 0.74883 0.0
C290 C 0.17737 0.42531 0.59341 0.0
C291 C 0.19802 0.40822 0.57167 0.0
C292 C 0.18785 0.45743 0.60678 0.0
C293 C 0.21879 0.47117 0.6002 0.0
C294 C 0.2398 0.4536 0.57927 0.0
C295 C 0.22853 0.42239 0.5643 0.0
C296 C 0.10789 0.41234 0.74241 0.0
H297 H 0.1075 0.26947 0.52676 0.0
H298 H 0.13134 0.31963 0.55613 0.0
H299 H 0.03585 0.35116 0.58015 0.0
H300 H 0.01154 0.30099 0.5497 0.0
H301 H 0.13617 0.38132 0.5561 0.0
H302 H 0.0691 0.35909 0.63385 0.0
H303 H 0.14848 0.43173 0.65398 0.0
H304 H 0.14405 0.40472 0.7055 0.0
H305 H 0.04481 0.40304 0.66853 0.0
H306 H 0.02655 0.41245 0.72577 0.0
H307 H 0.19123 0.38332 0.56106 0.0
H308 H 0.17245 0.47187 0.62291 0.0
H309 H 0.12568 0.41458 0.76286 0.0
H310 H 0.24344 0.40842 0.54722 0.0
H311 H 0.22645 0.49515 0.61247 0.0
O312 O 0.00841 0.01324 0.59237 0.0
Mg313 Mg 0.03426 0.0423 0.55851 0.0
O314 O 0.97933 0.9882 0.55054 0.0
Mg315 Mg 0.00136 0.00936 0.50118 0.0
O316 O 0.00862 0.06567 0.52269 0.0
O317 O 0.03184 0.09142 0.56952 0.0
O318 O 0.02409 0.03121 0.45176 0.0
O319 O 0.94876 0.0248 0.48764 0.0
Mg320 Mg 0.97699 0.97159 0.43596 0.0
O321 O 0.99113 0.95425 0.48071 0.0
O322 O 0.01298 -0.00474 0.40872 0.0
O323 O 0.933 -0.00489 0.44115 0.0
O324 O 0.97613 0.92084 0.43564 0.0
C325 C 0.08062 0.00367 0.5261 0.0
C326 C 0.98578 0.99246 0.58198 0.0
C327 C 0.01606 0.09281 0.54145 0.0
C328 C 0.02726 0.02206 0.42082 0.0
C329 C 0.92737 0.01647 0.46462 0.0
C330 C 0.98511 0.92436 0.46686 0.0
O331 O 0.08066 0.02975 0.5452 0.0
O332 O 0.05423 0.9915 0.51194 0.0
O333 O 0.44657 0.0741 0.00712 0.0
Mg334 Mg 0.49734 0.07855 0.00561 0.0
O335 O 0.45078 0.02004 0.01331 0.0
Mg336 Mg 0.50141 0.00312 0.99342 0.0
O337 O 0.51722 0.05194 0.96694 0.0
O338 O 0.51651 0.10801 0.9704 0.0
O339 O 0.55161 0.98486 0.97478 0.0
O340 O 0.4747 0.99117 0.93913 0.0
Mg341 Mg 0.48805 0.9454 0.97336 0.0
O342 O 0.48832 0.95374 0.02429 0.0
O343 O 0.52967 0.94289 0.9435 0.0
O344 O 0.44336 0.94737 0.94864 0.0
O345 O 0.48762 0.90285 0.99749 0.0
C346 C 0.53331 0.04798 0.06169 0.0
C347 C 0.43403 0.04595 0.01426 0.0
C348 C 0.52454 0.08083 0.95469 0.0
C349 C 0.55444 0.96138 0.95241 0.0
C350 C 0.45085 0.97078 0.92992 0.0
C351 C 0.4865 0.92115 0.02489 0.0
O352 O 0.52434 0.07528 0.05078 0.0
O353 O 0.52718 0.02015 0.04496 0.0
O354 O 0.50704 0.5792 0.55325 0.0
Mg355 Mg 0.49165 0.53408 0.57402 0.0
O356 O 0.48313 0.55157 0.5101 0.0
Mg357 Mg 0.49628 0.4948 0.51215 0.0
O358 O 0.52076 0.49474 0.56597 0.0
O359 O 0.51828 0.52414 0.6152 0.0
O360 O 0.50792 0.43744 0.51233 0.0
O361 O 0.54725 0.5093 0.49247 0.0
Mg362 Mg 0.50331 0.46054 0.44127 0.0
O363 O 0.47173 0.49396 0.45914 0.0
O364 O 0.49577 0.41404 0.46192 0.0
O365 O 0.55127 0.48305 0.44251 0.0
O366 O 0.46998 0.47292 0.40609 0.0
C367 C 0.4291 0.4944 0.55457 0.0
C368 C 0.49251 0.5794 0.52522 0.0
C369 C 0.53023 0.50029 0.59722 0.0
C370 C 0.50348 0.4114 0.49245 0.0
C371 C 0.56353 0.50219 0.46644 0.0
C372 C 0.45871 0.49261 0.42912 0.0
O373 O 0.44092 0.51882 0.57342 0.0
O374 O 0.44606 0.48043 0.53213 0.0
O375 O 0.05687 0.48793 0.0596 0.0
Mg376 Mg 0.03255 0.53359 0.05301 0.0
O377 O 0.01679 0.46283 0.02995 0.0
Mg378 Mg 0.00499 0.51372 0.00946 0.0
O379 O 0.98555 0.53515 0.06426 0.0
O380 O 0.02669 0.55177 0.09999 0.0
O381 O 0.99316 0.56455 0.98892 0.0
O382 O 0.94683 0.49933 0.01441 0.0
Mg383 Mg 0.97754 0.49322 0.96779 0.0
O384 O 0.02393 0.49165 0.95425 0.0
O385 O 0.95306 0.53869 0.95997 0.0
O386 O 0.9552 0.45127 0.99111 0.0
O387 O 0.98132 0.47343 0.92116 0.0
C388 C 0.07406 0.55834 0.0148 0.0
C389 C 0.04198 0.46096 0.04845 0.0
C390 C 0.99605 0.54792 0.09347 0.0
C391 C 0.96788 0.56595 0.97046 0.0
C392 C 0.93637 0.46933 0.00717 0.0
C393 C 0.01218 0.47774 0.92596 0.0
O394 O 0.05506 0.57591 0.03122 0.0
O395 O 0.0632 0.52884 0.00561 0.0
H396 H 0.11439 0.12096 0.33577 0.0
H397 H 0.06163 0.06394 0.25542 0.0
H398 H 0.03308 0.03043 0.29599 0.0
H399 H 0.02282 0.01738 0.35341 0.0
H400 H 0.07271 0.07458 0.4355 0.0
H401 H 0.10267 0.10819 0.39513 0.0
C402 C 0.09667 0.10112 0.32734 0.0
C403 C 0.09 0.09492 0.29269 0.0
C404 C 0.07989 0.08212 0.35099 0.0
C405 C 0.06689 0.06935 0.28194 0.0
C406 C 0.05065 0.05012 0.3051 0.0
C407 C 0.04037 0.03706 0.36271 0.0
C408 C 0.04575 0.0432 0.39749 0.0
C409 C 0.05693 0.05632 0.33957 0.0
C410 C 0.06818 0.06925 0.40886 0.0
C411 C 0.08531 0.08841 0.38577 0.0
H412 H 0.42211 0.96187 0.7738 0.0
H413 H 0.35552 0.88233 0.8033 0.0
H414 H 0.36777 0.89769 0.86235 0.0
H415 H 0.40063 0.93006 0.90517 0.0
H416 H 0.46957 0.00806 0.87684 0.0
H417 H 0.45246 -0.00232 0.81784 0.0
C418 C 0.41 0.94827 0.79323 0.0
C419 C 0.38827 0.92071 0.78423 0.0
C420 C 0.41752 0.95698 0.82728 0.0
C421 C 0.37278 0.90322 0.80961 0.0
C422 C 0.37965 0.91209 0.84336 0.0
C423 C 0.41168 0.94519 0.88621 0.0
C424 C 0.43661 0.96955 0.89542 0.0
C425 C 0.40249 0.93838 0.85244 0.0
C426 C 0.45037 0.98909 0.87048 0.0
C427 C 0.44076 0.98298 0.8367 0.0
H428 H 0.59862 0.38738 0.67101 0.0
H429 H 0.63656 0.47395 0.73176 0.0
H430 H 0.61012 0.51067 0.69457 0.0
H431 H 0.57302 0.51834 0.64749 0.0
H432 H 0.537 0.43311 0.58439 0.0
H433 H 0.56698 0.39582 0.61905 0.0
C434 C 0.6017 0.41428 0.67583 0.0
C435 C 0.61897 0.42764 0.70489 0.0
C436 C 0.58689 0.43555 0.65381 0.0
C437 C 0.62251 0.46269 0.71046 0.0
C438 C 0.60764 0.48385 0.68897 0.0
C439 C 0.57211 0.49163 0.64104 0.0
C440 C 0.55264 0.47839 0.61369 0.0
C441 C 0.58921 0.47054 0.66106 0.0
C442 C 0.55196 0.44385 0.60528 0.0
C443 C 0.56886 0.42254 0.62529 0.0
H444 H 0.90045 0.56471 0.21354 0.0
H445 H 0.9738 0.64248 0.24309 0.0
H446 H 0.00162 0.63225 0.19068 0.0
H447 H 0.00764 0.59872 0.13893 0.0
H448 H 0.93518 0.52107 0.10753 0.0
H449 H 0.90379 0.53443 0.15781 0.0
C450 C 0.92222 0.57975 0.20823 0.0
C451 C 0.9354 0.60388 0.23256 0.0
C452 C 0.93817 0.57381 0.1778 0.0
C453 C 0.96364 0.62315 0.22527 0.0
C454 C 0.97946 0.6175 0.1952 0.0
C455 C 0.98478 0.58488 0.14291 0.0
C456 C 0.97388 0.55866 0.11997 0.0
C457 C 0.96735 0.59244 0.17173 0.0
C458 C 0.944 0.54136 0.12496 0.0
C459 C 0.92625 0.54885 0.15379 0.0
H460 H 0.32184 0.07762 0.1099 0.0
H461 H 0.27307 0.09428 0.0156 0.0
H462 H 0.31943 0.0752 0.98531 0.0
H463 H 0.37629 0.0587 0.98559 0.0
H464 H 0.4215 0.03478 0.07886 0.0
H465 H 0.37316 0.05013 0.10935 0.0
C466 C 0.32042 0.07629 0.08275 0.0
C467 C 0.2938 0.08893 0.0656 0.0
C468 C 0.3466 0.06355 0.06507 0.0
C469 C 0.29352 0.0867 0.03013 0.0
C470 C 0.31997 0.07519 0.01249 0.0
C471 C 0.37498 0.05581 0.01243 0.0
C472 C 0.40214 0.04553 0.03006 0.0
C473 C 0.347 0.06438 0.02972 0.0
C474 C 0.40056 0.04217 0.06482 0.0
C475 C 0.37311 0.05134 0.08227 0.0
H476 H 0.22344 0.95953 0.53351 0.0
H477 H 0.17362 0.86451 0.54999 0.0
H478 H 0.12139 0.88779 0.53733 0.0
H479 H 0.08965 0.93714 0.52795 0.0
H480 H 0.13999 0.03309 0.51701 0.0
H481 H 0.19223 0.00752 0.52032 0.0
C482 C 0.20119 0.94376 0.53354 0.0
C483 C 0.20226 0.91044 0.54262 0.0
C484 C 0.17133 0.9576 0.52735 0.0
C485 C 0.17326 0.89034 0.5432 0.0
C486 C 0.14345 0.90363 0.53599 0.0
C487 C 0.11211 0.95215 0.52551 0.0
C488 C 0.11119 0.98683 0.5222 0.0
C489 C 0.14211 0.9375 0.52894 0.0
C490 C 0.14031 0.0063 0.51963 0.0
C491 C 0.17012 0.99174 0.52164 0.0
H492 H 0.7985 0.44218 0.94494 0.0
H493 H 0.82055 0.34057 0.96405 0.0
H494 H 0.86856 0.36111 0.99681 0.0
H495 H 0.90869 0.4072 0.01224 0.0
H496 H 0.88616 0.50881 0.99519 0.0
H497 H 0.83317 0.48906 0.97099 0.0
C498 C 0.81318 0.42446 0.95699 0.0
C499 C 0.80636 0.38972 0.95079 0.0
C500 C 0.8407 0.43646 0.97639 0.0
C501 C 0.82583 0.36737 0.96699 0.0
C502 C 0.85321 0.37909 0.9861 0.0
C503 C 0.89162 0.42508 0.00439 0.0
C504 C 0.90137 0.45931 0.00522 0.0
C505 C 0.86157 0.41349 0.98982 0.0
C506 C 0.87913 0.48231 0.99504 0.0
C507 C 0.849 0.47096 0.98068 0.0
H508 H 0.7038 0.57472 0.47365 0.0
H509 H 0.71286 0.51237 0.38315 0.0
H510 H 0.65779 0.48827 0.3891 0.0
H511 H 0.60668 0.48633 0.41867 0.0
H512 H 0.59677 0.54854 0.50924 0.0
H513 H 0.65267 0.57119 0.50467 0.0
C514 C 0.6938 0.55552 0.45555 0.0
C515 C 0.71223 0.54542 0.42793 0.0
C516 C 0.66197 0.54197 0.45897 0.0
C517 C 0.69895 0.52079 0.40441 0.0
C518 C 0.66752 0.50699 0.40781 0.0
C519 C 0.61665 0.50486 0.43746 0.0
C520 C 0.59744 0.51586 0.46412 0.0
C521 C 0.64869 0.51772 0.43472 0.0
C522 C 0.61096 0.53968 0.48837 0.0
C523 C 0.64294 0.55264 0.4858 0.0
H524 H 0.07426 0.31154 0.07372 0.0
H525 H 0.15388 0.36315 0.13044 0.0
H526 H 0.13502 0.41696 0.11478 0.0
H527 H 0.09547 0.44951 0.08606 0.0
H528 H 0.01515 0.39836 0.03006 0.0
H529 H 0.03455 0.3443 0.04474 0.0
C530 C 0.08737 0.33456 0.08286 0.0
C531 C 0.11551 0.33318 0.10323 0.0
C532 C 0.07621 0.36554 0.074 0.0
C533 C 0.13244 0.36333 0.11436 0.0
C534 C 0.12154 0.39418 0.10561 0.0
C535 C 0.08215 0.42657 0.07703 0.0
C536 C 0.05382 0.42807 0.05704 0.0
C537 C 0.09341 0.39559 0.08556 0.0
C538 C 0.03699 0.39801 0.04551 0.0
C539 C 0.04808 0.36705 0.0539 0.0
H540 H 0.58126 0.15174 0.83457 0.0
H541 H 0.66491 0.159 0.9019 0.0
H542 H 0.63939 0.11714 0.93627 0.0
H543 H 0.58914 0.08824 0.95391 0.0
H544 H 0.50345 0.08544 0.89045 0.0
H545 H 0.53375 0.11511 0.84776 0.0
C546 C 0.5941 0.1438 0.85648 0.0
C547 C 0.62479 0.15908 0.8658 0.0
C548 C 0.57873 0.12049 0.87703 0.0
C549 C 0.64138 0.14778 0.89386 0.0
C550 C 0.62665 0.12395 0.91383 0.0
C551 C 0.57766 0.09273 0.92997 0.0
C552 C 0.5444 0.08441 0.92492 0.0
C553 C 0.59479 0.11139 0.90655 0.0
C554 C 0.52927 0.09111 0.8944 0.0
C555 C 0.54647 0.10856 0.8703 0.0
H556 H 0.97698 0.77428 0.49163 0.0
H557 H 0.87535 0.796 0.49036 0.0
H558 H 0.88994 0.85495 0.49858 0.0
H559 H 0.93026 0.90077 0.49212 0.0
H560 H 0.03081 0.88032 0.48159 0.0
H561 H 0.01821 0.82111 0.49179 0.0
C562 C 0.95787 0.79171 0.49307 0.0
C563 C 0.92497 0.7799 0.48948 0.0
C564 C 0.96637 0.82631 0.49539 0.0
C565 C 0.90088 0.8034 0.49317 0.0
C566 C 0.90918 0.83759 0.49749 0.0
C567 C 0.94956 0.88352 0.49366 0.0
C568 C 0.98137 0.89464 0.48664 0.0
C569 C 0.94169 0.84935 0.4968 0.0
C570 C 0.00623 0.87223 0.48765 0.0
C571 C 0.99887 0.83832 0.49288 0.0
H572 H 0.40304 0.69808 0.52466 0.0
H573 H 0.49456 0.75445 0.54505 0.0
H574 H 0.5232 0.7036 0.53613 0.0
H575 H 0.52166 0.64187 0.52966 0.0
H576 H 0.43122 0.58721 0.50235 0.0
H577 H 0.40306 0.63933 0.50492 0.0
C578 C 0.42928 0.70002 0.52614 0.0
C579 C 0.44612 0.73049 0.53711 0.0
C580 C 0.44598 0.67086 0.51945 0.0
C581 C 0.48035 0.73141 0.53863 0.0
C582 C 0.497 0.70228 0.533 0.0
C583 C 0.49598 0.6416 0.52322 0.0
C584 C 0.47843 0.61084 0.51626 0.0
C585 C 0.47996 0.67167 0.5246 0.0
C586 C 0.44525 0.61065 0.50769 0.0
C587 C 0.42907 0.64041 0.50957 0.0
H588 H 0.89493 0.90395 0.67342 0.0
H589 H 0.95871 0.95333 0.75003 0.0
H590 H 0.98831 0.98315 0.7075 0.0
H591 H 0.99626 -0.00459 0.64921 0.0
H592 H 0.93353 0.94676 0.57129 0.0
H593 H 0.90326 0.91653 0.61372 0.0
C594 C 0.91521 0.92138 0.68072 0.0
C595 C 0.92472 0.92622 0.71487 0.0
C596 C 0.93229 0.93854 0.65598 0.0
C597 C 0.95119 0.94871 0.72394 0.0
C598 C 0.96805 0.96593 0.69965 0.0
C599 C 0.97596 0.97823 0.6413 0.0
C600 C 0.96717 0.9735 0.60702 0.0
C601 C 0.95887 0.96099 0.66567 0.0
C602 C 0.94083 0.95097 0.59747 0.0
C603 C 0.9235 0.93369 0.62175 0.0
H604 H 0.57245 0.04184 0.21455 0.0
H605 H 0.6145 0.14029 0.19611 0.0
H606 H 0.59933 0.13206 0.13694 0.0
H607 H 0.57077 0.09893 0.09121 0.0
H608 H 0.53067 -0.00043 0.10783 0.0
H609 H 0.5494 0.00572 0.1667 0.0
C610 C 0.57884 0.06128 0.19754 0.0
C611 C 0.59389 0.09202 0.21016 0.0
C612 C 0.57047 0.05621 0.16316 0.0
C613 C 0.60194 0.11684 0.18751 0.0
C614 C 0.59354 0.11207 0.15352 0.0
C615 C 0.56648 0.07844 0.10762 0.0
C616 C 0.54909 0.049 0.09536 0.0
C617 C 0.57719 0.0822 0.14124 0.0
C618 C 0.54408 0.02247 0.11671 0.0
C619 C 0.55457 0.02609 0.15042 0.0
H620 H 0.36187 0.55912 0.33734 0.0
H621 H 0.4279 0.64451 0.36207 0.0
H622 H 0.45316 0.61438 0.40657 0.0
H623 H 0.46274 0.56031 0.43107 0.0
H624 H 0.39975 0.47381 0.40211 0.0
H625 H 0.36634 0.50783 0.36772 0.0
C626 C 0.38115 0.57146 0.35312 0.0
C627 C 0.39328 0.60381 0.34613 0.0
C628 C 0.39619 0.55361 0.37795 0.0
C629 C 0.4185 0.61938 0.36662 0.0
C630 C 0.43293 0.60218 0.39208 0.0
C631 C 0.44089 0.54939 0.41831 0.0
C632 C 0.4334 0.5148 0.41922 0.0
C633 C 0.4229 0.56877 0.39702 0.0
C634 C 0.40562 0.50053 0.40196 0.0
C635 C 0.38678 0.51989 0.38198 0.0
H636 H 0.09903 0.45841 0.79911 0.0
H637 H 0.02439 0.38002 0.77674 0.0
H638 H 0.00103 0.39072 0.83154 0.0
H639 H 0.99869 0.42519 0.88315 0.0
H640 H 0.07171 0.50454 0.90698 0.0
H641 H 0.09957 0.49 0.85463 0.0
C642 C 0.07797 0.44339 0.80652 0.0
C643 C 0.06307 0.41886 0.78363 0.0
C644 C 0.06446 0.44982 0.83821 0.0
C645 C 0.03581 0.39955 0.79355 0.0
C646 C 0.02255 0.40551 0.82494 0.0
C647 C 0.02094 0.43913 0.8771 0.0
C648 C 0.03295 0.46617 0.89851 0.0
C649 C 0.03617 0.43107 0.84702 0.0
C650 C 0.06206 0.48361 0.89078 0.0
C651 C 0.07776 0.47546 0.86076 0.0
H652 H 0.67282 0.89974 0.87961 0.0
H653 H 0.72658 0.95644 0.95924 0.0
H654 H 0.67633 0.97986 0.97928 0.0
H655 H 0.61614 0.98114 0.97603 0.0
H656 H 0.5638 0.9235 0.89566 0.0
H657 H 0.61429 0.90381 0.87409 0.0
C658 C 0.67353 0.91719 0.9014 0.0
C659 C 0.70324 0.92598 0.91819 0.0
C660 C 0.6447 0.93043 0.91269 0.0
C661 C 0.70393 0.94924 0.94591 0.0
C662 C 0.6752 0.96255 0.95742 0.0
C663 C 0.6159 0.96466 0.95356 0.0
C664 C 0.5861 0.95358 0.93777 0.0
C665 C 0.64529 0.95297 0.94126 0.0
C666 C 0.58626 0.93218 0.90862 0.0
C667 C 0.61517 0.92081 0.8962 0.0
H668 H 0.79791 0.09385 0.47819 0.0
H669 H 0.77174 0.02718 0.39202 0.0
H670 H 0.8239 0.00237 0.39559 0.0
H671 H 0.87695 3e-05 0.42178 0.0
H672 H 0.90556 0.0666 0.5072 0.0
H673 H 0.85247 0.09118 0.50511 0.0
C674 C 0.80371 0.07394 0.46021 0.0
C675 C 0.78068 0.06215 0.43514 0.0
C676 C 0.83417 0.05985 0.46213 0.0
C677 C 0.78857 0.03624 0.41207 0.0
C678 C 0.81856 0.02219 0.41388 0.0
C679 C 0.87177 0.01993 0.44006 0.0
C680 C 0.89533 0.03149 0.46455 0.0
C681 C 0.8415 0.03384 0.43868 0.0
C682 C 0.88789 0.0572 0.48805 0.0
C683 C 0.85755 0.07128 0.48684 0.0
H684 H 0.21951 0.56654 0.06398 0.0
H685 H 0.19198 0.66474 0.0979 0.0
H686 H 0.14104 0.65641 0.06566 0.0
H687 H 0.10171 0.61902 0.03421 0.0
H688 H 0.12558 0.51835 0.00466 0.0
H689 H 0.1809 0.53016 0.02739 0.0
C690 C 0.20244 0.58615 0.06383 0.0
C691 C 0.20914 0.61604 0.08357 0.0
C692 C 0.17264 0.58078 0.04587 0.0
C693 C 0.187 0.64137 0.08327 0.0
C694 C 0.15798 0.63667 0.06474 0.0
C695 C 0.11919 0.59982 0.032 0.0
C696 C 0.10934 0.56772 0.01811 0.0
C697 C 0.15015 0.60616 0.0468 0.0
C698 C 0.13246 0.5433 0.01517 0.0
C699 C 0.16399 0.54991 0.02863 0.0
H700 H 0.29384 0.41803 0.57067 0.0
H701 H 0.26275 0.51946 0.57689 0.0
H702 H 0.31876 0.54094 0.57205 0.0
H703 H 0.37678 0.53094 0.56547 0.0
H704 H 0.40628 0.42959 0.55222 0.0
H705 H 0.35038 0.408 0.55947 0.0
C706 C 0.29893 0.44484 0.57019 0.0
C707 C 0.27376 0.46694 0.57432 0.0
C708 C 0.33101 0.45706 0.56611 0.0
C709 C 0.28148 0.50168 0.57452 0.0
C710 C 0.31355 0.51407 0.57147 0.0
C711 C 0.37083 0.50416 0.5643 0.0
C712 C 0.39539 0.48178 0.55871 0.0
C713 C 0.33852 0.49199 0.56738 0.0
C714 C 0.38758 0.44717 0.55656 0.0
C715 C 0.35572 0.43486 0.56073 0.0
H716 H 0.93403 0.71463 0.94296 0.0
H717 H 0.86219 0.66134 0.87723 0.0
H718 H 0.88096 0.60791 0.89434 0.0
H719 H 0.91812 0.57626 0.92727 0.0
H720 H 0.99082 0.62904 0.99245 0.0
H721 H 0.97127 0.68265 0.97644 0.0
C722 C 0.92233 0.6913 0.93264 0.0
C723 C 0.89679 0.69198 0.90879 0.0
C724 C 0.93344 0.66057 0.94243 0.0
C725 C 0.88213 0.66153 0.89533 0.0
C726 C 0.89277 0.63095 0.90519 0.0
C727 C 0.9297 0.59946 0.93807 0.0
C728 C 0.95593 0.59855 0.96104 0.0
C729 C 0.91851 0.63017 0.92857 0.0
C730 C 0.97063 0.62894 0.97466 0.0
C731 C 0.95944 0.65964 0.96554 0.0
H732 H 0.41702 0.84305 0.1367 0.0
H733 H 0.48151 0.76859 0.10073 0.0
H734 H 0.51004 0.80983 0.06755 0.0
H735 H 0.5111 0.86394 0.04218 0.0
H736 H 0.44639 0.93876 0.07605 0.0
H737 H 0.42418 0.90098 0.11754 0.0
C738 C 0.43783 0.83615 0.12224 0.0
C739 C 0.4467 0.80263 0.12054 0.0
C740 C 0.45397 0.86001 0.10281 0.0
C741 C 0.47374 0.79402 0.10177 0.0
C742 C 0.49014 0.81759 0.08289 0.0
C743 C 0.49273 0.87228 0.05931 0.0
C744 C 0.48007 0.90377 0.05595 0.0
C745 C 0.47963 0.85021 0.0822 0.0
C746 C 0.45654 0.91459 0.07835 0.0
C747 C 0.4436 0.89283 0.10174 0.0
H748 H 0.00693 0.24395 0.5607 0.0
H749 H 0.07701 0.24186 0.48182 0.0
H750 H 0.06435 0.18195 0.47086 0.0
H751 H 0.04174 0.12876 0.49205 0.0
H752 H 0.97337 0.13164 0.57211 0.0
H753 H 0.9757 0.19276 0.57312 0.0
C754 C 0.01862 0.23086 0.54021 0.0
C755 C 0.04362 0.24737 0.52283 0.0
C756 C 0.01145 0.19634 0.53425 0.0
C757 C 0.05844 0.22962 0.49642 0.0
C758 C 0.05112 0.19532 0.49001 0.0
C759 C 0.02619 0.14286 0.50847 0.0
C760 C 0.00728 0.12602 0.53185 0.0
C761 C 0.02888 0.17811 0.50995 0.0
C762 C 0.98778 0.1443 0.55366 0.0
C763 C 0.9895 0.17923 0.55456 0.0
H764 H 0.5835 0.28581 0.50117 0.0
H765 H 0.50285 0.24463 0.43902 0.0
H766 H 0.47235 0.29379 0.45286 0.0
H767 H 0.47331 0.35237 0.47299 0.0
H768 H 0.55492 0.39611 0.53205 0.0
H769 H 0.57995 0.34195 0.53026 0.0
C770 C 0.55886 0.2873 0.49166 0.0
C771 C 0.54539 0.26201 0.46891 0.0
C772 C 0.54181 0.31623 0.49897 0.0
C773 C 0.51359 0.26405 0.45641 0.0
C774 C 0.49624 0.29215 0.46423 0.0
C775 C 0.49605 0.34969 0.48646 0.0
C776 C 0.51248 0.37809 0.50225 0.0
C777 C 0.51074 0.31901 0.4841 0.0
C778 C 0.54178 0.37448 0.51984 0.0
C779 C 0.5563 0.34362 0.51837 0.0
loop_
_geom_bond_atom_site_label_1
_geom_bond_atom_site_label_2
_geom_bond_distance
_geom_bond_site_symmetry_2
_ccdc_geom_bond_type
C0 C1 1.386 . S
C0 C2 1.397 . S
C0 H24 0.931 . S
C1 C0 1.386 . S
C1 C5 1.397 . S
C2 C0 1.397 . S
C2 C3 1.384 . S
C2 H25 0.930 . S
C3 C2 1.384 . S
C3 C4 1.377 . S
C3 C6 1.481 . S
C4 C3 1.377 . S
C4 C5 1.389 . S
C4 H26 0.929 . S
C5 C1 1.397 . S
C5 C4 1.389 . S
C5 H27 0.931 . S
C6 C3 1.481 . S
C6 C7 1.387 . S
C6 C11 1.390 . S
C7 C6 1.387 . S
C7 C8 1.401 . S
C7 H28 0.930 . S
C8 C7 1.401 . S
C8 C9 1.376 . S
C8 C17 1.511 . S
C9 C8 1.376 . S
C9 C10 1.392 . S
C9 H30 0.931 . S
C10 C9 1.392 . S
C10 C11 1.361 . S
C10 C12 1.500 . S
C11 C6 1.390 . S
C11 C10 1.361 . S
C11 H29 0.931 . S
C12 C10 1.500 . S
C12 C13 1.371 . S
C12 C14 1.365 . S
C13 C12 1.371 . S
C13 C23 1.386 . S
C13 H31 0.931 . S
C14 C12 1.365 . S
C14 C15 1.409 . S
C14 H32 0.929 . S
C15 C14 1.409 . S
C15 C16 1.380 . S
C15 H33 0.930 . S
C16 C15 1.380 . S
C16 C23 1.357 . S
C17 C8 1.511 . S
C17 C18 1.341 . S
C17 C19 1.371 . S
C18 C17 1.341 . S
C18 C22 1.394 . S
C18 H34 0.930 . S
C19 C17 1.371 . S
C19 C20 1.392 . S
C19 H35 0.931 . S
C20 C19 1.392 . S
C20 C21 1.331 . S
C20 H38 0.932 . S
C21 C20 1.331 . S
C21 C22 1.336 . S
C22 C18 1.394 . S
C22 C21 1.336 . S
C22 H37 0.929 . S
C23 C13 1.386 . S
C23 C16 1.357 . S
C23 H36 0.928 . S
H24 C0 0.931 . S
H25 C2 0.930 . S
H26 C4 0.929 . S
H27 C5 0.931 . S
H28 C7 0.930 . S
H29 C11 0.931 . S
H30 C9 0.931 . S
H31 C13 0.931 . S
H32 C14 0.929 . S
H33 C15 0.930 . S
H34 C18 0.930 . S
H35 C19 0.931 . S
H36 C23 0.928 . S
H37 C22 0.929 . S
H38 C20 0.932 . S
C39 C40 1.386 . S
C39 C41 1.397 . S
C39 H63 0.931 . S
C40 C39 1.386 . S
C40 C44 1.397 . S
C41 C39 1.397 . S
C41 C42 1.384 . S
C41 H64 0.930 . S
C42 C41 1.384 . S
C42 C43 1.377 . S
C42 C45 1.481 . S
C43 C42 1.377 . S
C43 C44 1.389 . S
C43 H65 0.929 . S
C44 C40 1.397 . S
C44 C43 1.389 . S
C44 H66 0.931 . S
C45 C42 1.481 . S
C45 C46 1.387 . S
C45 C50 1.390 . S
C46 C45 1.387 . S
C46 C47 1.401 . S
C46 H67 0.930 . S
C47 C46 1.401 . S
C47 C48 1.376 . S
C47 C56 1.511 . S
C48 C47 1.376 . S
C48 C49 1.392 . S
C48 H69 0.931 . S
C49 C48 1.392 . S
C49 C50 1.361 . S
C49 C51 1.500 . S
C50 C45 1.390 . S
C50 C49 1.361 . S
C50 H68 0.931 . S
C51 C49 1.500 . S
C51 C52 1.371 . S
C51 C53 1.365 . S
C52 C51 1.371 . S
C52 C62 1.386 . S
C52 H70 0.931 . S
C53 C51 1.365 . S
C53 C54 1.409 . S
C53 H71 0.929 . S
C54 C53 1.409 . S
C54 C55 1.380 . S
C54 H72 0.930 . S
C55 C54 1.380 . S
C55 C62 1.357 . S
C56 C47 1.511 . S
C56 C57 1.341 . S
C56 C58 1.371 . S
C57 C56 1.341 . S
C57 C61 1.394 . S
C57 H73 0.930 . S
C58 C56 1.371 . S
C58 C59 1.392 . S
C58 H74 0.931 . S
C59 C58 1.392 . S
C59 C60 1.331 . S
C59 H77 0.932 . S
C60 C59 1.331 . S
C60 C61 1.336 . S
C61 C57 1.394 . S
C61 C60 1.336 . S
C61 H76 0.929 . S
C62 C52 1.386 . S
C62 C55 1.357 . S
C62 H75 0.928 . S
H63 C39 0.931 . S
H64 C41 0.930 . S
H65 C43 0.929 . S
H66 C44 0.931 . S
H67 C46 0.930 . S
H68 C50 0.931 . S
H69 C48 0.931 . S
H70 C52 0.931 . S
H71 C53 0.929 . S
H72 C54 0.930 . S
H73 C57 0.930 . S
H74 C58 0.931 . S
H75 C62 0.928 . S
H76 C61 0.929 . S
H77 C59 0.932 . S
C78 C79 1.386 . S
C78 C80 1.397 . S
C78 H102 0.931 . S
C79 C78 1.386 . S
C79 C83 1.397 . S
C80 C78 1.397 . S
C80 C81 1.384 . S
C80 H103 0.930 . S
C81 C80 1.384 . S
C81 C82 1.377 . S
C81 C84 1.481 . S
C82 C81 1.377 . S
C82 C83 1.389 . S
C82 H104 0.929 . S
C83 C79 1.397 . S
C83 C82 1.389 . S
C83 H105 0.931 . S
C84 C81 1.481 . S
C84 C85 1.387 . S
C84 C89 1.390 . S
C85 C84 1.387 . S
C85 C86 1.401 . S
C85 H106 0.930 . S
C86 C85 1.401 . S
C86 C87 1.376 . S
C86 C95 1.511 . S
C87 C86 1.376 . S
C87 C88 1.392 . S
C87 H108 0.931 . S
C88 C87 1.392 . S
C88 C89 1.361 . S
C88 C90 1.500 . S
C89 C84 1.390 . S
C89 C88 1.361 . S
C89 H107 0.931 . S
C90 C88 1.500 . S
C90 C91 1.371 . S
C90 C92 1.365 . S
C91 C90 1.371 . S
C91 C101 1.386 . S
C91 H109 0.931 . S
C92 C90 1.365 . S
C92 C93 1.409 . S
C92 H110 0.929 . S
C93 C92 1.409 . S
C93 C94 1.380 . S
C93 H111 0.930 . S
C94 C93 1.380 . S
C94 C101 1.357 . S
C95 C86 1.511 . S
C95 C96 1.341 . S
C95 C97 1.371 . S
C96 C95 1.341 . S
C96 C100 1.394 . S
C96 H112 0.930 . S
C97 C95 1.371 . S
C97 C98 1.392 . S
C97 H113 0.931 . S
C98 C97 1.392 . S
C98 C99 1.331 . S
C98 H116 0.932 . S
C99 C98 1.331 . S
C99 C100 1.336 . S
C100 C96 1.394 . S
C100 C99 1.336 . S
C100 H115 0.929 . S
C101 C91 1.386 . S
C101 C94 1.357 . S
C101 H114 0.928 . S
H102 C78 0.931 . S
H103 C80 0.930 . S
H104 C82 0.929 . S
H105 C83 0.931 . S
H106 C85 0.930 . S
H107 C89 0.931 . S
H108 C87 0.931 . S
H109 C91 0.931 . S
H110 C92 0.929 . S
H111 C93 0.930 . S
H112 C96 0.930 . S
H113 C97 0.931 . S
H114 C101 0.928 . S
H115 C100 0.929 . S
H116 C98 0.932 . S
C117 C118 1.386 . S
C117 C119 1.397 . S
C117 H141 0.931 . S
C118 C117 1.386 . S
C118 C122 1.397 . S
C119 C117 1.397 . S
C119 C120 1.384 . S
C119 H142 0.930 . S
C120 C119 1.384 . S
C120 C121 1.377 . S
C120 C123 1.481 . S
C121 C120 1.377 . S
C121 C122 1.389 . S
C121 H143 0.929 . S
C122 C118 1.397 . S
C122 C121 1.389 . S
C122 H144 0.931 . S
C123 C120 1.481 . S
C123 C124 1.387 . S
C123 C128 1.390 . S
C124 C123 1.387 . S
C124 C125 1.401 . S
C124 H145 0.930 . S
C125 C124 1.401 . S
C125 C126 1.376 . S
C125 C134 1.511 . S
C126 C125 1.376 . S
C126 C127 1.392 . S
C126 H147 0.931 . S
C127 C126 1.392 . S
C127 C128 1.361 . S
C127 C129 1.500 . S
C128 C123 1.390 . S
C128 C127 1.361 . S
C128 H146 0.931 . S
C129 C127 1.500 . S
C129 C130 1.371 . S
C129 C131 1.365 . S
C130 C129 1.371 . S
C130 C140 1.386 . S
C130 H148 0.931 . S
C131 C129 1.365 . S
C131 C132 1.409 . S
C131 H149 0.929 . S
C132 C131 1.409 . S
C132 C133 1.380 . S
C132 H150 0.930 . S
C133 C132 1.380 . S
C133 C140 1.357 . S
C134 C125 1.511 . S
C134 C135 1.341 . S
C134 C136 1.371 . S
C135 C134 1.341 . S
C135 C139 1.394 . S
C135 H151 0.930 . S
C136 C134 1.371 . S
C136 C137 1.392 . S
C136 H152 0.931 . S
C137 C136 1.392 . S
C137 C138 1.331 . S
C137 H155 0.932 . S
C138 C137 1.331 . S
C138 C139 1.336 . S
C139 C135 1.394 . S
C139 C138 1.336 . S
C139 H154 0.929 . S
C140 C130 1.386 . S
C140 C133 1.357 . S
C140 H153 0.928 . S
H141 C117 0.931 . S
H142 C119 0.930 . S
H143 C121 0.929 . S
H144 C122 0.931 . S
H145 C124 0.930 . S
H146 C128 0.931 . S
H147 C126 0.931 . S
H148 C130 0.931 . S
H149 C131 0.929 . S
H150 C132 0.930 . S
H151 C135 0.930 . S
H152 C136 0.931 . S
H153 C140 0.928 . S
H154 C139 0.929 . S
H155 C137 0.932 . S
C156 C157 1.386 . S
C156 C158 1.397 . S
C156 H180 0.931 . S
C157 C156 1.386 . S
C157 C161 1.397 . S
C158 C156 1.397 . S
C158 C159 1.384 . S
C158 H181 0.930 . S
C159 C158 1.384 . S
C159 C160 1.377 . S
C159 C162 1.481 . S
C160 C159 1.377 . S
C160 C161 1.389 . S
C160 H182 0.929 . S
C161 C157 1.397 . S
C161 C160 1.389 . S
C161 H183 0.931 . S
C162 C159 1.481 . S
C162 C163 1.387 . S
C162 C167 1.390 . S
C163 C162 1.387 . S
C163 C164 1.401 . S
C163 H184 0.930 . S
C164 C163 1.401 . S
C164 C165 1.376 . S
C164 C173 1.511 . S
C165 C164 1.376 . S
C165 C166 1.392 . S
C165 H186 0.931 . S
C166 C165 1.392 . S
C166 C167 1.361 . S
C166 C168 1.500 . S
C167 C162 1.390 . S
C167 C166 1.361 . S
C167 H185 0.931 . S
C168 C166 1.500 . S
C168 C169 1.371 . S
C168 C170 1.365 . S
C169 C168 1.371 . S
C169 C179 1.386 . S
C169 H187 0.931 . S
C170 C168 1.365 . S
C170 C171 1.409 . S
C170 H188 0.929 . S
C171 C170 1.409 . S
C171 C172 1.380 . S
C171 H189 0.930 . S
C172 C171 1.380 . S
C172 C179 1.357 . S
C173 C164 1.511 . S
C173 C174 1.341 . S
C173 C175 1.371 . S
C174 C173 1.341 . S
C174 C178 1.394 . S
C174 H190 0.930 . S
C175 C173 1.371 . S
C175 C176 1.392 . S
C175 H191 0.931 . S
C176 C175 1.392 . S
C176 C177 1.331 . S
C176 H194 0.932 . S
C177 C176 1.331 . S
C177 C178 1.336 . S
C178 C174 1.394 . S
C178 C177 1.336 . S
C178 H193 0.929 . S
C179 C169 1.386 . S
C179 C172 1.357 . S
C179 H192 0.928 . S
H180 C156 0.931 . S
H181 C158 0.930 . S
H182 C160 0.929 . S
H183 C161 0.931 . S
H184 C163 0.930 . S
H185 C167 0.931 . S
H186 C165 0.931 . S
H187 C169 0.931 . S
H188 C170 0.929 . S
H189 C171 0.930 . S
H190 C174 0.930 . S
H191 C175 0.931 . S
H192 C179 0.928 . S
H193 C178 0.929 . S
H194 C176 0.932 . S
C195 C196 1.386 . S
C195 C197 1.397 . S
C195 H219 0.931 . S
C196 C195 1.386 . S
C196 C200 1.397 . S
C197 C195 1.397 . S
C197 C198 1.384 . S
C197 H220 0.930 . S
C198 C197 1.384 . S
C198 C199 1.377 . S
C198 C201 1.481 . S
C199 C198 1.377 . S
C199 C200 1.389 . S
C199 H221 0.929 . S
C200 C196 1.397 . S
C200 C199 1.389 . S
C200 H222 0.931 . S
C201 C198 1.481 . S
C201 C202 1.387 . S
C201 C206 1.390 . S
C202 C201 1.387 . S
C202 C203 1.401 . S
C202 H223 0.930 . S
C203 C202 1.401 . S
C203 C204 1.376 . S
C203 C212 1.511 . S
C204 C203 1.376 . S
C204 C205 1.392 . S
C204 H225 0.931 . S
C205 C204 1.392 . S
C205 C206 1.361 . S
C205 C207 1.500 . S
C206 C201 1.390 . S
C206 C205 1.361 . S
C206 H224 0.931 . S
C207 C205 1.500 . S
C207 C208 1.371 . S
C207 C209 1.365 . S
C208 C207 1.371 . S
C208 C218 1.386 . S
C208 H226 0.931 . S
C209 C207 1.365 . S
C209 C210 1.409 . S
C209 H227 0.929 . S
C210 C209 1.409 . S
C210 C211 1.380 . S
C210 H228 0.930 . S
C211 C210 1.380 . S
C211 C218 1.357 . S
C212 C203 1.511 . S
C212 C213 1.341 . S
C212 C214 1.371 . S
C213 C212 1.341 . S
C213 C217 1.394 . S
C213 H229 0.930 . S
C214 C212 1.371 . S
C214 C215 1.392 . S
C214 H230 0.931 . S
C215 C214 1.392 . S
C215 C216 1.331 . S
C215 H233 0.932 . S
C216 C215 1.331 . S
C216 C217 1.336 . S
C217 C213 1.394 . S
C217 C216 1.336 . S
C217 H232 0.929 . S
C218 C208 1.386 . S
C218 C211 1.357 . S
C218 H231 0.928 . S
H219 C195 0.931 . S
H220 C197 0.930 . S
H221 C199 0.929 . S
H222 C200 0.931 . S
H223 C202 0.930 . S
H224 C206 0.931 . S
H225 C204 0.931 . S
H226 C208 0.931 . S
H227 C209 0.929 . S
H228 C210 0.930 . S
H229 C213 0.930 . S
H230 C214 0.931 . S
H231 C218 0.928 . S
H232 C217 0.929 . S
H233 C215 0.932 . S
C234 C235 1.386 . S
C234 C236 1.397 . S
C234 H258 0.931 . S
C235 C234 1.386 . S
C235 C239 1.397 . S
C236 C234 1.397 . S
C236 C237 1.384 . S
C236 H259 0.930 . S
C237 C236 1.384 . S
C237 C238 1.377 . S
C237 C240 1.481 . S
C238 C237 1.377 . S
C238 C239 1.389 . S
C238 H260 0.929 . S
C239 C235 1.397 . S
C239 C238 1.389 . S
C239 H261 0.931 . S
C240 C237 1.481 . S
C240 C241 1.387 . S
C240 C245 1.390 . S
C241 C240 1.387 . S
C241 C242 1.401 . S
C241 H262 0.930 . S
C242 C241 1.401 . S
C242 C243 1.376 . S
C242 C251 1.511 . S
C243 C242 1.376 . S
C243 C244 1.392 . S
C243 H264 0.931 . S
C244 C243 1.392 . S
C244 C245 1.361 . S
C244 C246 1.500 . S
C245 C240 1.390 . S
C245 C244 1.361 . S
C245 H263 0.931 . S
C246 C244 1.500 . S
C246 C247 1.371 . S
C246 C248 1.365 . S
C247 C246 1.371 . S
C247 C257 1.386 . S
C247 H265 0.931 . S
C248 C246 1.365 . S
C248 C249 1.409 . S
C248 H266 0.929 . S
C249 C248 1.409 . S
C249 C250 1.380 . S
C249 H267 0.930 . S
C250 C249 1.380 . S
C250 C257 1.357 . S
C251 C242 1.511 . S
C251 C252 1.341 . S
C251 C253 1.371 . S
C252 C251 1.341 . S
C252 C256 1.394 . S
C252 H268 0.930 . S
C253 C251 1.371 . S
C253 C254 1.392 . S
C253 H269 0.931 . S
C254 C253 1.392 . S
C254 C255 1.331 . S
C254 H272 0.932 . S
C255 C254 1.331 . S
C255 C256 1.336 . S
C256 C252 1.394 . S
C256 C255 1.336 . S
C256 H271 0.929 . S
C257 C247 1.386 . S
C257 C250 1.357 . S
C257 H270 0.928 . S
H258 C234 0.931 . S
H259 C236 0.930 . S
H260 C238 0.929 . S
H261 C239 0.931 . S
H262 C241 0.930 . S
H263 C245 0.931 . S
H264 C243 0.931 . S
H265 C247 0.931 . S
H266 C248 0.929 . S
H267 C249 0.930 . S
H268 C252 0.930 . S
H269 C253 0.931 . S
H270 C257 0.928 . S
H271 C256 0.929 . S
H272 C254 0.932 . S
C273 C274 1.386 . S
C273 C275 1.397 . S
C273 H297 0.931 . S
C274 C273 1.386 . S
C274 C278 1.397 . S
C275 C273 1.397 . S
C275 C276 1.384 . S
C275 H298 0.930 . S
C276 C275 1.384 . S
C276 C277 1.377 . S
C276 C279 1.481 . S
C277 C276 1.377 . S
C277 C278 1.389 . S
C277 H299 0.929 . S
C278 C274 1.397 . S
C278 C277 1.389 . S
C278 H300 0.931 . S
C279 C276 1.481 . S
C279 C280 1.387 . S
C279 C284 1.390 . S
C280 C279 1.387 . S
C280 C281 1.401 . S
C280 H301 0.930 . S
C281 C280 1.401 . S
C281 C282 1.376 . S
C281 C290 1.511 . S
C282 C281 1.376 . S
C282 C283 1.392 . S
C282 H303 0.931 . S
C283 C282 1.392 . S
C283 C284 1.361 . S
C283 C285 1.500 . S
C284 C279 1.390 . S
C284 C283 1.361 . S
C284 H302 0.931 . S
C285 C283 1.500 . S
C285 C286 1.371 . S
C285 C287 1.365 . S
C286 C285 1.371 . S
C286 C296 1.386 . S
C286 H304 0.931 . S
C287 C285 1.365 . S
C287 C288 1.409 . S
C287 H305 0.929 . S
C288 C287 1.409 . S
C288 C289 1.380 . S
C288 H306 0.930 . S
C289 C288 1.380 . S
C289 C296 1.357 . S
C290 C281 1.511 . S
C290 C291 1.341 . S
C290 C292 1.371 . S
C291 C290 1.341 . S
C291 C295 1.394 . S
C291 H307 0.930 . S
C292 C290 1.371 . S
C292 C293 1.392 . S
C292 H308 0.931 . S
C293 C292 1.392 . S
C293 C294 1.331 . S
C293 H311 0.932 . S
C294 C293 1.331 . S
C294 C295 1.336 . S
C295 C291 1.394 . S
C295 C294 1.336 . S
C295 H310 0.929 . S
C296 C286 1.386 . S
C296 C289 1.357 . S
C296 H309 0.928 . S
H297 C273 0.931 . S
H298 C275 0.930 . S
H299 C277 0.929 . S
H300 C278 0.931 . S
H301 C280 0.930 . S
H302 C284 0.931 . S
H303 C282 0.931 . S
H304 C286 0.931 . S
H305 C287 0.929 . S
H306 C288 0.930 . S
H307 C291 0.930 . S
H308 C292 0.931 . S
H309 C296 0.928 . S
H310 C295 0.929 . S
H311 C293 0.932 . S
O312 Mg313 1.990 . S
O312 C326 1.253 1_445 S
Mg313 O312 1.990 . S
Mg313 O316 2.180 . S
Mg313 O317 2.117 . S
Mg313 O331 2.030 1_545 S
O314 Mg315 2.072 1_665 S
O314 C326 1.260 . S
Mg315 O314 2.072 1_445 S
Mg315 O316 2.099 . S
Mg315 O318 2.079 . S
Mg315 O319 2.072 1_455 S
Mg315 O321 2.099 1_445 S
Mg315 O332 2.079 1_545 S
O316 Mg313 2.180 . S
O316 Mg315 2.099 . S
O316 C327 1.279 . S
O317 Mg313 2.117 . S
O317 C327 1.250 . S
O318 Mg315 2.079 . S
O318 C328 1.264 . S
O319 Mg315 2.072 1_655 S
O319 C329 1.260 . S
Mg320 O321 2.180 . S
Mg320 O322 2.030 1_565 S
Mg320 O323 1.990 1_565 S
Mg320 O324 2.117 . S
O321 Mg315 2.099 1_665 S
O321 Mg320 2.180 . S
O321 C330 1.279 . S
O322 Mg320 2.030 1_545 S
O322 C328 1.248 1_655 S
O323 Mg320 1.990 1_545 S
O323 C329 1.253 . S
O324 Mg320 2.117 . S
O324 C330 1.250 . S
C325 O331 1.248 . S
C325 O332 1.264 . S
C326 O312 1.253 1_665 S
C326 O314 1.260 . S
C327 O316 1.279 . S
C327 O317 1.250 . S
C328 O318 1.264 . S
C328 O322 1.248 1_455 S
C329 O319 1.260 . S
C329 O323 1.253 . S
C330 O321 1.279 . S
C330 O324 1.250 . S
O331 Mg313 2.030 1_565 S
O331 C325 1.248 . S
O332 Mg315 2.079 1_565 S
O332 C325 1.264 . S
O333 Mg334 1.990 . S
O333 C347 1.253 . S
Mg334 O333 1.990 . S
Mg334 O337 2.163 1_554 S
Mg334 O338 2.117 1_554 S
Mg334 O352 2.030 . S
O335 Mg336 2.072 . S
O335 C347 1.260 . S
Mg336 O335 2.072 . S
Mg336 O337 2.094 1_554 S
Mg336 O339 2.081 1_554 S
Mg336 O340 2.072 1_554 S
Mg336 O342 2.099 1_545 S
Mg336 O353 2.079 . S
O337 Mg334 2.163 1_556 S
O337 Mg336 2.094 1_556 S
O337 C348 1.296 . S
O338 Mg334 2.117 1_556 S
O338 C348 1.250 . S
O339 Mg336 2.081 1_556 S
O339 C349 1.258 1_545 S
O340 Mg336 2.072 1_556 S
O340 C350 1.260 1_545 S
Mg341 O342 2.180 1_556 S
Mg341 O343 2.030 . S
Mg341 O344 1.990 . S
Mg341 O345 2.117 1_556 S
O342 Mg336 2.099 1_565 S
O342 Mg341 2.180 1_554 S
O342 C351 1.279 . S
O343 Mg341 2.030 . S
O343 C349 1.248 . S
O344 Mg341 1.990 . S
O344 C350 1.253 . S
O345 Mg341 2.117 1_554 S
O345 C351 1.250 . S
C346 O352 1.248 . S
C346 O353 1.264 . S
C347 O333 1.253 . S
C347 O335 1.260 . S
C348 O337 1.296 . S
C348 O338 1.250 . S
C349 O339 1.258 1_565 S
C349 O343 1.248 . S
C350 O340 1.260 1_565 S
C350 O344 1.253 . S
C351 O342 1.279 . S
C351 O345 1.250 . S
O352 Mg334 2.030 . S
O352 C346 1.248 . S
O353 Mg336 2.079 . S
O353 C346 1.264 . S
O354 Mg355 1.990 . S
O354 C368 1.253 . S
Mg355 O354 1.990 . S
Mg355 O358 2.180 . S
Mg355 O359 2.117 . S
Mg355 O373 2.030 . S
O356 Mg357 2.072 . S
O356 C368 1.260 . S
Mg357 O356 2.072 . S
Mg357 O358 2.099 . S
Mg357 O360 2.079 . S
Mg357 O361 2.072 . S
Mg357 O363 2.099 . S
Mg357 O374 2.079 . S
O358 Mg355 2.180 . S
O358 Mg357 2.099 . S
O358 C369 1.279 . S
O359 Mg355 2.117 . S
O359 C369 1.250 . S
O360 Mg357 2.079 . S
O360 C370 1.264 . S
O361 Mg357 2.072 . S
O361 C371 1.260 . S
Mg362 O363 2.180 . S
Mg362 O364 2.030 . S
Mg362 O365 1.990 . S
Mg362 O366 2.117 . S
O363 Mg357 2.099 . S
O363 Mg362 2.180 . S
O363 C372 1.279 . S
O364 Mg362 2.030 . S
O364 C370 1.248 . S
O365 Mg362 1.990 . S
O365 C371 1.253 . S
O366 Mg362 2.117 . S
O366 C372 1.250 . S
C367 O373 1.248 . S
C367 O374 1.264 . S
C368 O354 1.253 . S
C368 O356 1.260 . S
C369 O358 1.279 . S
C369 O359 1.250 . S
C370 O360 1.264 . S
C370 O364 1.248 . S
C371 O361 1.260 . S
C371 O365 1.253 . S
C372 O363 1.279 . S
C372 O366 1.250 . S
O373 Mg355 2.030 . S
O373 C367 1.248 . S
O374 Mg357 2.079 . S
O374 C367 1.264 . S
O375 Mg376 1.990 . S
O375 C389 1.253 . S
Mg376 O375 1.990 . S
Mg376 O379 2.180 1_455 S
Mg376 O380 2.117 1_455 S
Mg376 O394 2.030 . S
O377 Mg378 2.072 . S
O377 C389 1.260 . S
Mg378 O377 2.072 . S
Mg378 O379 2.099 1_455 S
Mg378 O381 2.079 1_454 S
Mg378 O382 2.072 1_455 S
Mg378 O384 2.099 1_554 S
Mg378 O395 2.079 . S
O379 Mg376 2.180 1_655 S
O379 Mg378 2.099 1_655 S
O379 C390 1.279 . S
O380 Mg376 2.117 1_655 S
O380 C390 1.250 . S
O381 Mg378 2.079 1_656 S
O381 C391 1.264 . S
O382 Mg378 2.072 1_655 S
O382 C392 1.260 1_554 S
Mg383 O384 2.180 1_655 S
Mg383 O385 2.030 . S
Mg383 O386 1.990 . S
Mg383 O387 2.117 . S
O384 Mg378 2.099 1_556 S
O384 Mg383 2.180 1_455 S
O384 C393 1.279 . S
O385 Mg383 2.030 . S
O385 C391 1.248 . S
O386 Mg383 1.990 . S
O386 C392 1.253 . S
O387 Mg383 2.117 . S
O387 C393 1.250 1_655 S
C388 O394 1.248 . S
C388 O395 1.264 . S
C389 O375 1.253 . S
C389 O377 1.260 . S
C390 O379 1.279 . S
C390 O380 1.250 . S
C391 O381 1.264 . S
C391 O385 1.248 . S
C392 O382 1.260 1_556 S
C392 O386 1.253 . S
C393 O384 1.279 . S
C393 O387 1.250 1_455 S
O394 Mg376 2.030 . S
O394 C388 1.248 . S
O395 Mg378 2.079 . S
O395 C388 1.264 . S
H396 C402 0.930 . S
H397 C405 0.930 . S
H398 C406 0.930 1_565 S
H399 C407 0.930 . S
H400 C410 0.930 . S
H401 C411 0.930 . S
C402 H396 0.930 . S
C402 C403 1.355 . S
C402 C404 1.415 . S
C403 C402 1.355 . S
C403 C405 1.419 . S
C404 C402 1.415 . S
C404 C409 1.425 . S
C404 C411 1.409 . S
C405 H397 0.930 . S
C405 C403 1.419 . S
C405 C406 1.362 . S
C406 H398 0.930 1_545 S
C406 C405 1.362 . S
C406 C409 1.409 . S
C407 H399 0.930 . S
C407 C408 1.355 . S
C407 C409 1.415 . S
C408 C407 1.355 . S
C408 C410 1.419 . S
C409 C404 1.425 . S
C409 C406 1.409 . S
C409 C407 1.415 . S
C410 H400 0.930 . S
C410 C408 1.419 . S
C410 C411 1.362 . S
C411 H401 0.930 . S
C411 C404 1.409 . S
C411 C410 1.362 . S
H412 C418 0.930 . S
H413 C421 0.930 1_545 S
H414 C422 0.930 . S
H415 C423 0.948 . S
H416 C426 0.930 . S
H417 C427 0.930 . S
C418 H412 0.930 . S
C418 C419 1.355 . S
C418 C420 1.415 . S
C419 C418 1.355 . S
C419 C421 1.419 . S
C420 C418 1.415 . S
C420 C425 1.425 . S
C420 C427 1.409 . S
C421 H413 0.930 1_565 S
C421 C419 1.419 . S
C421 C422 1.362 1_565 S
C422 H414 0.930 . S
C422 C421 1.362 1_545 S
C422 C425 1.409 1_545 S
C423 H415 0.948 . S
C423 C424 1.343 1_545 S
C423 C425 1.408 1_545 S
C424 C423 1.343 1_565 S
C424 C426 1.419 . S
C425 C420 1.425 . S
C425 C422 1.409 1_565 S
C425 C423 1.408 1_565 S
C426 H416 0.930 . S
C426 C424 1.419 . S
C426 C427 1.362 . S
C427 H417 0.930 . S
C427 C420 1.409 . S
C427 C426 1.362 . S
H428 C434 0.930 . S
H429 C437 0.930 . S
H430 C438 0.930 . S
H431 C439 0.930 . S
H432 C442 0.930 . S
H433 C443 0.930 . S
C434 H428 0.930 . S
C434 C435 1.355 . S
C434 C436 1.415 . S
C435 C434 1.355 . S
C435 C437 1.419 . S
C436 C434 1.415 . S
C436 C441 1.425 . S
C436 C443 1.409 . S
C437 H429 0.930 . S
C437 C435 1.419 . S
C437 C438 1.362 . S
C438 H430 0.930 . S
C438 C437 1.362 . S
C438 C441 1.409 . S
C439 H431 0.930 . S
C439 C440 1.355 . S
C439 C441 1.415 . S
C440 C439 1.355 . S
C440 C442 1.419 . S
C441 C436 1.425 . S
C441 C438 1.409 . S
C441 C439 1.415 . S
C442 H432 0.930 . S
C442 C440 1.419 . S
C442 C443 1.362 . S
C443 H433 0.930 . S
C443 C436 1.409 . S
C443 C442 1.362 . S
H444 C450 0.930 . S
H445 C453 0.930 . S
H446 C454 0.930 . S
H447 C455 0.930 . S
H448 C458 0.930 . S
H449 C459 0.930 . S
C450 H444 0.930 . S
C450 C451 1.355 . S
C450 C452 1.415 . S
C451 C450 1.355 . S
C451 C453 1.419 . S
C452 C450 1.415 . S
C452 C457 1.425 . S
C452 C459 1.409 . S
C453 H445 0.930 . S
C453 C451 1.419 . S
C453 C454 1.362 . S
C454 H446 0.930 . S
C454 C453 1.362 . S
C454 C457 1.409 . S
C455 H447 0.930 . S
C455 C456 1.355 . S
C455 C457 1.415 . S
C456 C455 1.355 . S
C456 C458 1.419 . S
C457 C452 1.425 . S
C457 C454 1.409 . S
C457 C455 1.415 . S
C458 H448 0.930 . S
C458 C456 1.419 . S
C458 C459 1.362 . S
C459 H449 0.930 . S
C459 C452 1.409 . S
C459 C458 1.362 . S
H460 C466 0.930 . S
H461 C469 0.930 . S
H462 C470 0.930 . S
H463 C471 0.930 . S
H464 C474 0.930 . S
H465 C475 0.930 . S
C466 H460 0.930 . S
C466 C467 1.355 . S
C466 C468 1.415 . S
C467 C466 1.355 . S
C467 C469 1.419 . S
C468 C466 1.415 . S
C468 C473 1.425 . S
C468 C475 1.409 . S
C469 H461 0.930 . S
C469 C467 1.419 . S
C469 C470 1.362 . S
C470 H462 0.930 . S
C470 C469 1.362 . S
C470 C473 1.409 . S
C471 H463 0.930 . S
C471 C472 1.355 . S
C471 C473 1.415 . S
C472 C471 1.355 . S
C472 C474 1.419 . S
C473 C468 1.425 . S
C473 C470 1.409 . S
C473 C471 1.415 . S
C474 H464 0.930 . S
C474 C472 1.419 . S
C474 C475 1.362 . S
C475 H465 0.930 . S
C475 C468 1.409 . S
C475 C474 1.362 . S
H476 C482 0.930 . S
H477 C485 0.930 . S
H478 C486 0.930 . S
H479 C487 0.930 . S
H480 C490 0.930 1_545 S
H481 C491 0.930 1_545 S
C482 H476 0.930 . S
C482 C483 1.355 . S
C482 C484 1.415 . S
C483 C482 1.355 . S
C483 C485 1.419 . S
C484 C482 1.415 . S
C484 C489 1.425 . S
C484 C491 1.409 . S
C485 H477 0.930 . S
C485 C483 1.419 . S
C485 C486 1.362 . S
C486 H478 0.930 . S
C486 C485 1.362 . S
C486 C489 1.409 . S
C487 H479 0.930 . S
C487 C488 1.355 . S
C487 C489 1.415 . S
C488 C487 1.355 . S
C488 C490 1.419 . S
C489 C484 1.425 . S
C489 C486 1.409 . S
C489 C487 1.415 . S
C490 H480 0.930 1_565 S
C490 C488 1.419 . S
C490 C491 1.362 . S
C491 H481 0.930 1_565 S
C491 C484 1.409 . S
C491 C490 1.362 . S
H492 C498 0.930 . S
H493 C501 0.930 . S
H494 C502 0.930 1_554 S
H495 C503 0.930 1_554 S
H496 C506 0.930 . S
H497 C507 0.930 . S
C498 H492 0.930 . S
C498 C499 1.355 . S
C498 C500 1.415 . S
C499 C498 1.355 . S
C499 C501 1.419 . S
C500 C498 1.415 . S
C500 C505 1.425 . S
C500 C507 1.409 . S
C501 H493 0.930 . S
C501 C499 1.419 . S
C501 C502 1.362 . S
C502 H494 0.930 1_556 S
C502 C501 1.362 . S
C502 C505 1.409 . S
C503 H495 0.930 1_556 S
C503 C504 1.355 . S
C503 C505 1.415 . S
C504 C503 1.355 . S
C504 C506 1.419 . S
C505 C500 1.425 . S
C505 C502 1.409 . S
C505 C503 1.415 . S
C506 H496 0.930 . S
C506 C504 1.419 . S
C506 C507 1.362 . S
C507 H497 0.930 . S
C507 C500 1.409 . S
C507 C506 1.362 . S
H508 C514 0.930 . S
H509 C517 0.930 . S
H510 C518 0.930 . S
H511 C519 0.930 . S
H512 C522 0.930 . S
H513 C523 0.930 . S
C514 H508 0.930 . S
C514 C515 1.355 . S
C514 C516 1.415 . S
C515 C514 1.355 . S
C515 C517 1.419 . S
C516 C514 1.415 . S
C516 C521 1.425 . S
C516 C523 1.409 . S
C517 H509 0.930 . S
C517 C515 1.419 . S
C517 C518 1.362 . S
C518 H510 0.930 . S
C518 C517 1.362 . S
C518 C521 1.409 . S
C519 H511 0.930 . S
C519 C520 1.355 . S
C519 C521 1.415 . S
C520 C519 1.355 . S
C520 C522 1.419 . S
C521 C516 1.425 . S
C521 C518 1.409 . S
C521 C519 1.415 . S
C522 H512 0.930 . S
C522 C520 1.419 . S
C522 C523 1.362 . S
C523 H513 0.930 . S
C523 C516 1.409 . S
C523 C522 1.362 . S
H524 C530 0.930 . S
H525 C533 0.930 . S
H526 C534 0.930 . S
H527 C535 0.930 . S
H528 C538 0.930 1_655 S
H529 C539 0.930 1_655 S
C530 H524 0.930 . S
C530 C531 1.355 . S
C530 C532 1.415 . S
C531 C530 1.355 . S
C531 C533 1.419 . S
C532 C530 1.415 . S
C532 C537 1.425 . S
C532 C539 1.409 . S
C533 H525 0.930 . S
C533 C531 1.419 . S
C533 C534 1.362 . S
C534 H526 0.930 . S
C534 C533 1.362 . S
C534 C537 1.409 . S
C535 H527 0.930 . S
C535 C536 1.355 . S
C535 C537 1.415 . S
C536 C535 1.355 . S
C536 C538 1.419 . S
C537 C532 1.425 . S
C537 C534 1.409 . S
C537 C535 1.415 . S
C538 H528 0.930 1_455 S
C538 C536 1.419 . S
C538 C539 1.362 . S
C539 H529 0.930 1_455 S
C539 C532 1.409 . S
C539 C538 1.362 . S
H540 C546 0.930 . S
H541 C549 0.930 . S
H542 C550 0.930 . S
H543 C551 0.930 . S
H544 C554 0.930 . S
H545 C555 0.930 . S
C546 H540 0.930 . S
C546 C547 1.355 . S
C546 C548 1.415 . S
C547 C546 1.355 . S
C547 C549 1.419 . S
C548 C546 1.415 . S
C548 C553 1.425 . S
C548 C555 1.409 . S
C549 H541 0.930 . S
C549 C547 1.419 . S
C549 C550 1.362 . S
C550 H542 0.930 . S
C550 C549 1.362 . S
C550 C553 1.409 . S
C551 H543 0.930 . S
C551 C552 1.355 . S
C551 C553 1.415 . S
C552 C551 1.355 . S
C552 C554 1.419 . S
C553 C548 1.425 . S
C553 C550 1.409 . S
C553 C551 1.415 . S
C554 H544 0.930 . S
C554 C552 1.419 . S
C554 C555 1.362 . S
C555 H545 0.930 . S
C555 C548 1.409 . S
C555 C554 1.362 . S
H556 C562 0.930 . S
H557 C565 0.930 . S
H558 C566 0.930 . S
H559 C567 0.930 . S
H560 C570 0.930 . S
H561 C571 0.930 . S
C562 H556 0.930 . S
C562 C563 1.355 . S
C562 C564 1.415 . S
C563 C562 1.355 . S
C563 C565 1.419 . S
C564 C562 1.415 . S
C564 C569 1.425 . S
C564 C571 1.409 1_655 S
C565 H557 0.930 . S
C565 C563 1.419 . S
C565 C566 1.362 . S
C566 H558 0.930 . S
C566 C565 1.362 . S
C566 C569 1.409 . S
C567 H559 0.930 . S
C567 C568 1.355 . S
C567 C569 1.415 . S
C568 C567 1.355 . S
C568 C570 1.419 1_655 S
C569 C564 1.425 . S
C569 C566 1.409 . S
C569 C567 1.415 . S
C570 H560 0.930 . S
C570 C568 1.419 1_455 S
C570 C571 1.362 . S
C571 H561 0.930 . S
C571 C564 1.409 1_455 S
C571 C570 1.362 . S
H572 C578 0.930 . S
H573 C581 0.930 . S
H574 C582 0.930 . S
H575 C583 0.930 . S
H576 C586 0.930 . S
H577 C587 0.930 . S
C578 H572 0.930 . S
C578 C579 1.355 . S
C578 C580 1.415 . S
C579 C578 1.355 . S
C579 C581 1.419 . S
C580 C578 1.415 . S
C580 C585 1.425 . S
C580 C587 1.409 . S
C581 H573 0.930 . S
C581 C579 1.419 . S
C581 C582 1.362 . S
C582 H574 0.930 . S
C582 C581 1.362 . S
C582 C585 1.409 . S
C583 H575 0.930 . S
C583 C584 1.355 . S
C583 C585 1.415 . S
C584 C583 1.355 . S
C584 C586 1.419 . S
C585 C580 1.425 . S
C585 C582 1.409 . S
C585 C583 1.415 . S
C586 H576 0.930 . S
C586 C584 1.419 . S
C586 C587 1.362 . S
C587 H577 0.930 . S
C587 C580 1.409 . S
C587 C586 1.362 . S
H588 C594 0.930 . S
H589 C597 0.930 . S
H590 C598 0.930 . S
H591 C599 0.930 . S
H592 C602 0.930 . S
H593 C603 0.919 1_455 S
C594 H588 0.930 . S
C594 C595 1.355 . S
C594 C596 1.415 . S
C595 C594 1.355 . S
C595 C597 1.419 . S
C596 C594 1.415 . S
C596 C601 1.425 . S
C596 C603 1.422 . S
C597 H589 0.930 . S
C597 C595 1.419 . S
C597 C598 1.362 . S
C598 H590 0.930 . S
C598 C597 1.362 . S
C598 C601 1.409 . S
C599 H591 0.930 . S
C599 C600 1.355 . S
C599 C601 1.415 . S
C600 C599 1.355 . S
C600 C602 1.419 1_655 S
C601 C596 1.425 . S
C601 C598 1.409 . S
C601 C599 1.415 . S
C602 H592 0.930 . S
C602 C600 1.419 1_455 S
C602 C603 1.361 1_455 S
C603 H593 0.919 1_655 S
C603 C596 1.422 . S
C603 C602 1.361 1_655 S
H604 C610 0.930 . S
H605 C613 0.930 . S
H606 C614 0.930 . S
H607 C615 0.930 . S
H608 C618 0.930 . S
H609 C619 0.930 . S
C610 H604 0.930 . S
C610 C611 1.355 . S
C610 C612 1.415 . S
C611 C610 1.355 . S
C611 C613 1.419 . S
C612 C610 1.415 . S
C612 C617 1.425 . S
C612 C619 1.409 . S
C613 H605 0.930 . S
C613 C611 1.419 . S
C613 C614 1.362 . S
C614 H606 0.930 . S
C614 C613 1.362 . S
C614 C617 1.409 . S
C615 H607 0.930 . S
C615 C616 1.355 . S
C615 C617 1.415 . S
C616 C615 1.355 . S
C616 C618 1.419 . S
C617 C612 1.425 . S
C617 C614 1.409 . S
C617 C615 1.415 . S
C618 H608 0.930 . S
C618 C616 1.419 . S
C618 C619 1.362 . S
C619 H609 0.930 . S
C619 C612 1.409 . S
C619 C618 1.362 . S
H620 C626 0.930 . S
H621 C629 0.930 . S
H622 C630 0.930 . S
H623 C631 0.930 . S
H624 C634 0.930 . S
H625 C635 0.930 . S
C626 H620 0.930 . S
C626 C627 1.355 . S
C626 C628 1.415 . S
C627 C626 1.355 . S
C627 C629 1.419 . S
C628 C626 1.415 . S
C628 C633 1.425 . S
C628 C635 1.409 . S
C629 H621 0.930 . S
C629 C627 1.419 . S
C629 C630 1.362 . S
C630 H622 0.930 . S
C630 C629 1.362 . S
C630 C633 1.409 . S
C631 H623 0.930 . S
C631 C632 1.355 . S
C631 C633 1.415 . S
C632 C631 1.355 . S
C632 C634 1.419 . S
C633 C628 1.425 . S
C633 C630 1.409 . S
C633 C631 1.415 . S
C634 H624 0.930 . S
C634 C632 1.419 . S
C634 C635 1.362 . S
C635 H625 0.930 . S
C635 C628 1.409 . S
C635 C634 1.362 . S
H636 C642 0.930 . S
H637 C645 0.930 . S
H638 C646 0.930 . S
H639 C647 0.930 . S
H640 C650 0.930 . S
H641 C651 0.930 . S
C642 H636 0.930 . S
C642 C643 1.355 . S
C642 C644 1.415 . S
C643 C642 1.355 . S
C643 C645 1.419 . S
C644 C642 1.415 . S
C644 C649 1.425 . S
C644 C651 1.409 . S
C645 H637 0.930 . S
C645 C643 1.419 . S
C645 C646 1.362 . S
C646 H638 0.930 . S
C646 C645 1.362 . S
C646 C649 1.409 . S
C647 H639 0.930 . S
C647 C648 1.355 . S
C647 C649 1.415 . S
C648 C647 1.355 . S
C648 C650 1.419 . S
C649 C644 1.425 . S
C649 C646 1.409 . S
C649 C647 1.415 . S
C650 H640 0.930 . S
C650 C648 1.419 . S
C650 C651 1.362 . S
C651 H641 0.930 . S
C651 C644 1.409 . S
C651 C650 1.362 . S
H652 C658 0.930 . S
H653 C661 0.930 . S
H654 C662 0.930 1_545 S
H655 C663 0.930 1_545 S
H656 C666 0.930 . S
H657 C667 0.930 . S
C658 H652 0.930 . S
C658 C659 1.355 . S
C658 C660 1.415 . S
C659 C658 1.355 . S
C659 C661 1.419 . S
C660 C658 1.415 . S
C660 C665 1.425 . S
C660 C667 1.409 . S
C661 H653 0.930 . S
C661 C659 1.419 . S
C661 C662 1.362 . S
C662 H654 0.930 1_565 S
C662 C661 1.362 . S
C662 C665 1.409 . S
C663 H655 0.930 1_565 S
C663 C664 1.355 . S
C663 C665 1.415 . S
C664 C663 1.355 . S
C664 C666 1.419 . S
C665 C660 1.425 . S
C665 C662 1.409 . S
C665 C663 1.415 . S
C666 H656 0.930 . S
C666 C664 1.419 . S
C666 C667 1.362 . S
C667 H657 0.930 . S
C667 C660 1.409 . S
C667 C666 1.362 . S
H668 C674 0.930 . S
H669 C677 0.930 . S
H670 C678 0.930 . S
H671 C679 0.930 . S
H672 C682 0.930 . S
H673 C683 0.930 . S
C674 H668 0.930 . S
C674 C675 1.355 . S
C674 C676 1.415 . S
C675 C674 1.355 . S
C675 C677 1.419 . S
C676 C674 1.415 . S
C676 C681 1.425 . S
C676 C683 1.409 . S
C677 H669 0.930 . S
C677 C675 1.419 . S
C677 C678 1.362 . S
C678 H670 0.930 . S
C678 C677 1.362 . S
C678 C681 1.409 . S
C679 H671 0.930 . S
C679 C680 1.355 . S
C679 C681 1.415 . S
C680 C679 1.355 . S
C680 C682 1.419 . S
C681 C676 1.425 . S
C681 C678 1.409 . S
C681 C679 1.415 . S
C682 H672 0.930 . S
C682 C680 1.419 . S
C682 C683 1.362 . S
C683 H673 0.930 . S
C683 C676 1.409 . S
C683 C682 1.362 . S
H684 C690 0.930 . S
H685 C693 0.930 . S
H686 C694 0.930 . S
H687 C695 0.930 . S
H688 C698 0.930 . S
H689 C699 0.930 . S
C690 H684 0.930 . S
C690 C691 1.355 . S
C690 C692 1.415 . S
C691 C690 1.355 . S
C691 C693 1.419 . S
C692 C690 1.415 . S
C692 C697 1.425 . S
C692 C699 1.409 . S
C693 H685 0.930 . S
C693 C691 1.419 . S
C693 C694 1.362 . S
C694 H686 0.930 . S
C694 C693 1.362 . S
C694 C697 1.409 . S
C695 H687 0.930 . S
C695 C696 1.355 . S
C695 C697 1.415 . S
C696 C695 1.355 . S
C696 C698 1.419 . S
C697 C692 1.425 . S
C697 C694 1.409 . S
C697 C695 1.415 . S
C698 H688 0.930 . S
C698 C696 1.419 . S
C698 C699 1.362 . S
C699 H689 0.930 . S
C699 C692 1.409 . S
C699 C698 1.362 . S
H700 C706 0.930 . S
H701 C709 0.930 . S
H702 C710 0.930 . S
H703 C711 0.930 . S
H704 C714 0.930 . S
H705 C715 0.930 . S
C706 H700 0.930 . S
C706 C707 1.355 . S
C706 C708 1.415 . S
C707 C706 1.355 . S
C707 C709 1.419 . S
C708 C706 1.415 . S
C708 C713 1.425 . S
C708 C715 1.409 . S
C709 H701 0.930 . S
C709 C707 1.419 . S
C709 C710 1.362 . S
C710 H702 0.930 . S
C710 C709 1.362 . S
C710 C713 1.409 . S
C711 H703 0.930 . S
C711 C712 1.355 . S
C711 C713 1.415 . S
C712 C711 1.355 . S
C712 C714 1.419 . S
C713 C708 1.425 . S
C713 C710 1.409 . S
C713 C711 1.415 . S
C714 H704 0.930 . S
C714 C712 1.419 . S
C714 C715 1.362 . S
C715 H705 0.930 . S
C715 C708 1.409 . S
C715 C714 1.362 . S
H716 C722 0.930 . S
H717 C725 0.930 . S
H718 C726 0.930 . S
H719 C727 0.930 . S
H720 C730 0.930 1_455 S
H721 C731 0.930 1_455 S
C722 H716 0.930 . S
C722 C723 1.355 . S
C722 C724 1.415 . S
C723 C722 1.355 . S
C723 C725 1.419 . S
C724 C722 1.415 . S
C724 C729 1.425 . S
C724 C731 1.409 . S
C725 H717 0.930 . S
C725 C723 1.419 . S
C725 C726 1.362 . S
C726 H718 0.930 . S
C726 C725 1.362 . S
C726 C729 1.409 . S
C727 H719 0.930 . S
C727 C728 1.355 . S
C727 C729 1.415 . S
C728 C727 1.355 . S
C728 C730 1.419 . S
C729 C724 1.425 . S
C729 C726 1.409 . S
C729 C727 1.415 . S
C730 H720 0.930 1_655 S
C730 C728 1.419 . S
C730 C731 1.362 . S
C731 H721 0.930 1_655 S
C731 C724 1.409 . S
C731 C730 1.362 . S
H732 C738 0.930 . S
H733 C741 0.930 . S
H734 C742 0.930 . S
H735 C743 0.930 . S
H736 C746 0.930 . S
H737 C747 0.930 . S
C738 H732 0.930 . S
C738 C739 1.355 . S
C738 C740 1.415 . S
C739 C738 1.355 . S
C739 C741 1.419 . S
C740 C738 1.415 . S
C740 C745 1.425 . S
C740 C747 1.409 . S
C741 H733 0.930 . S
C741 C739 1.419 . S
C741 C742 1.362 . S
C742 H734 0.930 . S
C742 C741 1.362 . S
C742 C745 1.409 . S
C743 H735 0.930 . S
C743 C744 1.355 . S
C743 C745 1.415 . S
C744 C743 1.355 . S
C744 C746 1.419 . S
C745 C740 1.425 . S
C745 C742 1.409 . S
C745 C743 1.415 . S
C746 H736 0.930 . S
C746 C744 1.419 . S
C746 C747 1.362 . S
C747 H737 0.930 . S
C747 C740 1.409 . S
C747 C746 1.362 . S
H748 C754 0.930 . S
H749 C757 0.930 . S
H750 C758 0.930 . S
H751 C759 0.930 . S
H752 C762 0.930 . S
H753 C763 0.930 . S
C754 H748 0.930 . S
C754 C755 1.355 . S
C754 C756 1.415 . S
C755 C754 1.355 . S
C755 C757 1.419 . S
C756 C754 1.415 . S
C756 C761 1.425 . S
C756 C763 1.409 1_455 S
C757 H749 0.930 . S
C757 C755 1.419 . S
C757 C758 1.362 . S
C758 H750 0.930 . S
C758 C757 1.362 . S
C758 C761 1.409 . S
C759 H751 0.930 . S
C759 C760 1.355 . S
C759 C761 1.415 . S
C760 C759 1.355 . S
C760 C762 1.419 1_455 S
C761 C756 1.425 . S
C761 C758 1.409 . S
C761 C759 1.415 . S
C762 H752 0.930 . S
C762 C760 1.419 1_655 S
C762 C763 1.362 . S
C763 H753 0.930 . S
C763 C756 1.409 1_655 S
C763 C762 1.362 . S
H764 C770 0.930 . S
H765 C773 0.930 . S
H766 C774 0.930 . S
H767 C775 0.930 . S
H768 C778 0.930 . S
H769 C779 0.930 . S
C770 H764 0.930 . S
C770 C771 1.355 . S
C770 C772 1.415 . S
C771 C770 1.355 . S
C771 C773 1.419 . S
C772 C770 1.415 . S
C772 C777 1.425 . S
C772 C779 1.409 . S
C773 H765 0.930 . S
C773 C771 1.419 . S
C773 C774 1.362 . S
C774 H766 0.930 . S
C774 C773 1.362 . S
C774 C777 1.409 . S
C775 H767 0.930 . S
C775 C776 1.355 . S
C775 C777 1.415 . S
C776 C775 1.355 . S
C776 C778 1.419 . S
C777 C772 1.425 . S
C777 C774 1.409 . S
C777 C775 1.415 . S
C778 H768 0.930 . S
C778 C776 1.419 . S
C778 C779 1.362 . S
C779 H769 0.930 . S
C779 C772 1.409 . S
C779 C778 1.362 . S
C403 C1 1.618 . S
C408 C328 1.572 . S
C419 C40 1.499 . S
C424 C350 1.420 . S
C440 C369 1.132 . S
C435 C99 1.462 . S
C451 C118 1.806 . S
C456 C390 1.442 . S
C472 C347 1.745 . S
C467 C16 1.815 . S
C488 C325 1.644 . S
C483 C60 1.678 . S
C504 C392 1.303 . S
C499 C79 1.386 . S
C520 C371 1.436 . S
C515 C138 1.509 . S
C531 C21 1.724 . S
C536 C389 1.666 . S
C552 C348 1.342 . S
C547 C94 1.628 . S
C563 C133 1.655 . S
C568 C330 1.549 . S
C579 C55 1.552 . S
C584 C368 1.506 . S
C600 C326 1.567 . S
C595 C157 1.634 . S
C611 C196 1.327 . S
C616 C346 1.302 . S
C627 C255 1.511 . S
C632 C372 1.260 . S
C643 C289 1.718 . S
C648 C393 1.314 . S
C659 C172 1.746 . S
C664 C349 1.686 . S
C680 C329 1.738 . S
C675 C216 1.776 . S
C696 C388 1.195 . S
C691 C235 1.289 . S
C712 C367 1.520 . S
C707 C294 1.584 . S
C723 C177 1.534 . S
C728 C391 1.541 . S
C744 C351 1.327 . S
C739 C250 1.550 . S
C760 C327 1.400 . S
C755 C274 1.487 . S
C771 C211 1.462 . S
C776 C370 1.439 . S
