# Generated by pormake.
# Topology csq, (4,8)-cn, num edge types: 1
# Building blocks:
#     Node 0, Type 0, BuildingBlock: IZENUY_clean_linker_0, # of connection points: 4
#     Node 1, Type 0, BuildingBlock: IZENUY_clean_linker_0, # of connection points: 4
#     Node 2, Type 0, BuildingBlock: IZENUY_clean_linker_0, # of connection points: 4
#     Node 3, Type 0, BuildingBlock: IZENUY_clean_linker_0, # of connection points: 4
#     Node 4, Type 0, BuildingBlock: IZENUY_clean_linker_0, # of connection points: 4
#     Node 5, Type 0, BuildingBlock: IZENUY_clean_linker_0, # of connection points: 4
#     Node 6, Type 1, BuildingBlock: TAGTUT_clean_sbu_1, # of connection points: 8
#     Node 7, Type 1, BuildingBlock: TAGTUT_clean_sbu_1, # of connection points: 8
#     Node 8, Type 1, BuildingBlock: TAGTUT_clean_sbu_1, # of connection points: 8
#     Edge 9, Type (0, 1), BuildingBlock: OJICUG_clean_linker_0, # of connection points: 2
#     Edge 10, Type (0, 1), BuildingBlock: OJICUG_clean_linker_0, # of connection points: 2
#     Edge 11, Type (0, 1), BuildingBlock: OJICUG_clean_linker_0, # of connection points: 2
#     Edge 12, Type (0, 1), BuildingBlock: OJICUG_clean_linker_0, # of connection points: 2
#     Edge 13, Type (0, 1), BuildingBlock: OJICUG_clean_linker_0, # of connection points: 2
#     Edge 14, Type (0, 1), BuildingBlock: OJICUG_clean_linker_0, # of connection points: 2
#     Edge 15, Type (0, 1), BuildingBlock: OJICUG_clean_linker_0, # of connection points: 2
#     Edge 16, Type (0, 1), BuildingBlock: OJICUG_clean_linker_0, # of connection points: 2
#     Edge 17, Type (0, 1), BuildingBlock: OJICUG_clean_linker_0, # of connection points: 2
#     Edge 18, Type (0, 1), BuildingBlock: OJICUG_clean_linker_0, # of connection points: 2
#     Edge 19, Type (0, 1), BuildingBlock: OJICUG_clean_linker_0, # of connection points: 2
#     Edge 20, Type (0, 1), BuildingBlock: OJICUG_clean_linker_0, # of connection points: 2
#     Edge 21, Type (0, 1), BuildingBlock: OJICUG_clean_linker_0, # of connection points: 2
#     Edge 22, Type (0, 1), BuildingBlock: OJICUG_clean_linker_0, # of connection points: 2
#     Edge 23, Type (0, 1), BuildingBlock: OJICUG_clean_linker_0, # of connection points: 2
#     Edge 24, Type (0, 1), BuildingBlock: OJICUG_clean_linker_0, # of connection points: 2
#     Edge 25, Type (0, 1), BuildingBlock: OJICUG_clean_linker_0, # of connection points: 2
#     Edge 26, Type (0, 1), BuildingBlock: OJICUG_clean_linker_0, # of connection points: 2
#     Edge 27, Type (0, 1), BuildingBlock: OJICUG_clean_linker_0, # of connection points: 2
#     Edge 28, Type (0, 1), BuildingBlock: OJICUG_clean_linker_0, # of connection points: 2
#     Edge 29, Type (0, 1), BuildingBlock: OJICUG_clean_linker_0, # of connection points: 2
#     Edge 30, Type (0, 1), BuildingBlock: OJICUG_clean_linker_0, # of connection points: 2
#     Edge 31, Type (0, 1), BuildingBlock: OJICUG_clean_linker_0, # of connection points: 2
#     Edge 32, Type (0, 1), BuildingBlock: OJICUG_clean_linker_0, # of connection points: 2
# Relax obj value: 0.065
# Max RMSD: 0.143
# Mean RMSD: 0.136
data_MOF--net-csq--node1-TAGTUT_clean_sbu_1--node2-IZENUY_clean_linker_0--edge1-OJICUG_clean_linker_0
_symmetry_space_group_name_H-M    P1
_symmetry_Int_Tables_number       1
_symmetry_cell_setting            triclinic
loop_
_symmetry_equiv_pos_as_xyz
'x, y, z'
_cell_length_a     43.476642
_cell_length_b     42.853864
_cell_length_c     15.16577
_cell_angle_alpha  95.27931
_cell_angle_beta   93.52572
_cell_angle_gamma 119.84116
loop_
_atom_site_label
_atom_site_type_symbol
_atom_site_fract_x
_atom_site_fract_y
_atom_site_fract_z
_atom_type_partial_charge
H0 H 0.23221 0.50021 0.03567 0.0
H1 H 0.22948 0.50105 0.31964 0.0
H2 H 0.15782 0.52205 0.16116 0.0
H3 H 0.31404 0.48939 0.26852 0.0
H4 H 0.31278 0.48747 -0.01664 0.0
H5 H 0.39723 0.48482 0.14015 0.0
N6 N 0.26413 0.49447 0.18585 0.0
N7 N 0.27857 0.4918 0.11894 0.0
C8 C 0.22098 0.5033 0.09544 0.0
C9 C 0.19354 0.51132 0.08866 0.0
C10 C 0.23449 0.50007 0.17855 0.0
C11 C 0.21933 0.50382 0.25555 0.0
C12 C 0.19174 0.51206 0.24997 0.0
C13 C 0.17937 0.51618 0.16627 0.0
C14 C 0.32539 0.4877 0.20787 0.0
C15 C 0.3567 0.48601 0.21321 0.0
C16 C 0.3092 0.48789 0.12494 0.0
C17 C 0.32479 0.48642 0.04696 0.0
C18 C 0.3568 0.48557 0.05169 0.0
C19 C 0.37234 0.48504 0.1353 0.0
H20 H 0.74952 0.21349 -0.03383 0.0
H21 H 0.75691 0.22162 0.25273 0.0
H22 H 0.65645 0.14836 0.09287 0.0
H23 H 0.85165 0.29638 0.22167 0.0
H24 H 0.85168 0.29348 0.93591 0.0
H25 H 0.94753 0.36568 0.11293 0.0
N26 N 0.79392 0.24851 0.12325 0.0
N27 N 0.81098 0.26181 0.06033 0.0
C28 C 0.73703 0.20537 0.02611 0.0
C29 C 0.70035 0.17923 0.01903 0.0
C30 C 0.75725 0.22112 0.11112 0.0
C31 C 0.74105 0.2098 0.1879 0.0
C32 C 0.70478 0.18381 0.18224 0.0
C33 C 0.68444 0.16905 0.09768 0.0
C34 C 0.86566 0.30485 0.16394 0.0
C35 C 0.90186 0.33212 0.17646 0.0
C36 C 0.84761 0.28953 0.07625 0.0
C37 C 0.86579 0.30327 0.00294 0.0
C38 C 0.90185 0.33057 0.01694 0.0
C39 C 0.91986 0.34364 0.1029 0.0
H40 H 0.56929 0.74132 0.89828 0.0
H41 H 0.56174 0.75327 0.18158 0.0
H42 H 0.55566 0.65692 0.05018 0.0
H43 H 0.57235 0.84484 0.1055 0.0
H44 H 0.57118 0.82989 0.81856 0.0
H45 H 0.57593 0.92528 0.95201 0.0
N46 N 0.56816 0.78595 0.03636 0.0
N47 N 0.56988 0.79899 -0.03488 0.0
C48 C 0.56598 0.73098 0.96168 0.0
C49 C 0.56185 0.69663 -0.03374 0.0
C50 C 0.5654 0.75155 0.03929 0.0
C51 C 0.56162 0.73751 0.12133 0.0
C52 C 0.55732 0.70287 0.12446 0.0
C53 C 0.55765 0.6831 0.04702 0.0
C54 C 0.57294 0.85415 0.04125 0.0
C55 C 0.5737 0.88697 0.03631 0.0
C56 C 0.57206 0.83316 0.96254 0.0
C57 C 0.57237 0.84591 0.8796 0.0
C58 C 0.57368 0.87927 0.87648 0.0
C59 C 0.57474 0.89944 0.95479 0.0
H60 H 0.75228 0.54913 0.8985 0.0
H61 H 0.75346 0.55085 0.1836 0.0
H62 H 0.66952 0.5545 0.02722 0.0
H63 H 0.83359 0.53744 0.13106 0.0
H64 H 0.83631 0.53654 0.84708 0.0
H65 H 0.90757 0.51497 0.00542 0.0
N66 N 0.7875 0.54626 0.04792 0.0
N67 N 0.80186 0.54346 -0.01903 0.0
C68 C 0.74098 0.55091 0.9592 0.0
C69 C 0.70985 0.55295 0.95399 0.0
C70 C 0.75706 0.5505 0.04205 0.0
C71 C 0.74154 0.55208 0.12008 0.0
C72 C 0.70971 0.55327 0.11548 0.0
C73 C 0.69428 0.55404 0.03196 0.0
C74 C 0.84476 0.53424 0.07126 0.0
C75 C 0.87204 0.526 0.078 0.0
C76 C 0.83131 0.53758 -0.01182 0.0
C77 C 0.84639 0.53369 0.91115 0.0
C78 C 0.87382 0.5252 0.91666 0.0
C79 C 0.88613 0.521 0.00035 0.0
H80 H 0.21386 0.7409 0.94494 0.0
H81 H 0.21388 0.74384 0.23078 0.0
H82 H 0.11842 0.67046 0.05372 0.0
H83 H 0.3156 0.82463 0.20054 0.0
H84 H 0.30829 0.81645 0.91397 0.0
H85 H 0.40851 0.89041 0.07403 0.0
N86 N 0.25439 0.7758 0.10631 0.0
N87 N 0.27137 0.78925 0.0434 0.0
C88 C 0.19992 0.73222 0.00267 0.0
C89 C 0.16388 0.70452 -0.00981 0.0
C90 C 0.2179 0.74771 0.09037 0.0
C91 C 0.19982 0.73382 0.16371 0.0
C92 C 0.16392 0.7061 0.14971 0.0
C93 C 0.14598 0.69275 0.06374 0.0
C94 C 0.32808 0.83286 0.14062 0.0
C95 C 0.36467 0.85926 0.14778 0.0
C96 C 0.30792 0.81695 0.05558 0.0
C97 C 0.3241 0.8284 -0.02117 0.0
C98 C 0.36029 0.85463 -0.01543 0.0
C99 C 0.38057 0.86954 0.06917 0.0
H100 H 0.49218 0.19354 0.06118 0.0
H101 H 0.49367 0.2088 0.34817 0.0
H102 H 0.48651 0.11222 0.2144 0.0
H103 H 0.49703 0.298 0.26864 0.0
H104 H 0.50431 0.28577 -0.01472 0.0
H105 H 0.51235 0.38302 0.11719 0.0
N106 N 0.49545 0.23985 0.20164 0.0
N107 N 0.49739 0.25295 0.13042 0.0
C108 C 0.49123 0.18411 0.12536 0.0
C109 C 0.48968 0.15091 0.13024 0.0
C110 C 0.49253 0.20534 0.20411 0.0
C111 C 0.49199 0.19252 0.28705 0.0
C112 C 0.48982 0.15877 0.29008 0.0
C113 C 0.48819 0.13829 0.21167 0.0
C114 C 0.50064 0.30843 0.20535 0.0
C115 C 0.50541 0.34304 0.20095 0.0
C116 C 0.50086 0.28766 0.12766 0.0
C117 C 0.50485 0.30173 0.04566 0.0
C118 C 0.50981 0.33665 0.04267 0.0
C119 C 0.50995 0.35667 0.12027 0.0
C120 C 1.00259 0.4339 0.82451 0.0
C121 C 0.11048 0.50552 0.7775 0.0
C122 C 0.06529 0.59793 0.70499 0.0
Mg123 Mg 0.041 0.45293 0.6568 0.0
O124 O 0.02384 0.48544 0.67221 0.0
Mg125 Mg 0.04141 0.52082 0.7839 0.0
Mg126 Mg 0.03267 0.51843 0.58325 0.0
O127 O 0.04153 0.55146 0.49443 0.0
Mg128 Mg 0.02454 0.58412 0.50991 0.0
Mg129 Mg 0.02398 0.51615 0.38271 0.0
C130 C 1.00018 0.43901 0.46163 0.0
C131 C 0.09443 0.51751 0.46715 0.0
O132 O 1.01261 0.46761 0.84837 0.0
O133 O 1.01118 0.42259 0.75452 0.0
O134 O 0.09323 0.52069 0.80396 0.0
O135 O 0.09692 0.47922 0.71312 0.0
O136 O 1.01584 0.42942 0.51896 0.0
O137 O 1.00154 0.46982 0.47383 0.0
C138 C 0.97093 0.51937 0.6994 0.0
O139 O 0.97998 0.5184 0.62032 0.0
O140 O 0.99022 0.52053 0.76738 0.0
O141 O 0.05289 0.56938 0.3184 0.0
O142 O 0.05447 0.61446 0.41233 0.0
O143 O 0.9722 0.51638 0.36267 0.0
C144 C 0.06303 0.60311 0.34234 0.0
O145 O 0.96865 0.55795 0.45346 0.0
O146 O 0.04973 0.60766 0.64775 0.0
C147 C 0.95504 0.53164 0.38912 0.0
O148 O 0.06374 0.56704 0.69252 0.0
O149 O 0.08538 0.51849 0.54623 0.0
O150 O 0.07513 0.51635 0.39918 0.0
C151 C 0.48167 0.04414 0.86134 0.0
C152 C 0.43918 0.9369 0.72373 0.0
C153 C 0.57498 0.98035 0.66178 0.0
Mg154 Mg 0.46034 1.01061 0.66326 0.0
O155 O 0.50916 0.02575 0.68438 0.0
Mg156 Mg 0.52544 1.00446 0.77473 0.0
Mg157 Mg 0.53236 0.0194 0.58345 0.0
O158 O 0.55556 1.01301 0.48261 0.0
Mg159 Mg 0.6043 0.02781 0.50342 0.0
Mg160 Mg 0.5393 0.03428 0.3922 0.0
C161 C 0.48961 0.05823 0.50502 0.0
C162 C 0.46868 0.96098 0.42456 0.0
O163 O 0.50349 0.03217 0.87093 0.0
O164 O 0.46232 0.03828 0.78789 0.0
O165 O 0.47174 0.95241 0.75785 0.0
O166 O 0.42796 0.95303 0.67531 0.0
O167 O 0.46394 0.04129 0.55177 0.0
O168 O 0.51742 0.05478 0.50869 0.0
C169 C 0.59602 0.07782 0.7424 0.0
O170 O 0.58561 0.07108 0.65806 0.0
O171 O 0.57782 0.0563 0.79548 0.0
O172 O 0.56103 1.00636 0.29598 0.0
O173 O 0.60205 0.99997 0.37879 0.0
O174 O 0.59311 0.08623 0.409 0.0
C175 C 0.58268 0.99418 0.30544 0.0
O176 O 0.63683 0.08535 0.49116 0.0
O177 O 0.60067 0.99708 0.6149 0.0
C178 C 0.62568 0.10159 0.44294 0.0
O179 O 0.54737 0.98411 0.6581 0.0
O180 O 0.47913 0.9677 0.50888 0.0
O181 O 0.48686 0.98252 0.37149 0.0
C182 C 0.56678 0.6107 0.35227 0.0
C183 C 0.62331 0.55238 0.39132 0.0
C184 C 0.49392 0.44226 0.45564 0.0
Mg185 Mg 0.59831 0.59384 0.51711 0.0
O186 O 0.55038 0.55544 0.49825 0.0
Mg187 Mg 0.53422 0.52258 0.38324 0.0
Mg188 Mg 0.53336 0.5197 0.58366 0.0
O189 O 0.51632 0.48392 0.66893 0.0
Mg190 Mg 0.46841 0.44542 0.64994 0.0
Mg191 Mg 0.53244 0.51672 0.78395 0.0
C192 C 0.57282 0.59711 0.7115 0.0
C193 C 0.60427 0.53152 0.70228 0.0
O194 O 0.54728 0.57629 0.32399 0.0
O195 O 0.58861 0.62335 0.42425 0.0
O196 O 0.59008 0.53258 0.36312 0.0
O197 O 0.63418 0.57753 0.45798 0.0
O198 O 0.59616 0.61096 0.65676 0.0
O199 O 0.54629 0.56423 0.69618 0.0
C200 C 0.46244 0.5079 0.46502 0.0
O201 O 0.47568 0.5093 0.54422 0.0
O202 O 0.48007 0.5125 0.3989 0.0
O203 O 0.51945 0.46299 0.84302 0.0
O204 O 0.47817 0.41592 0.74272 0.0
O205 O 0.47653 0.50662 0.80403 0.0
C206 C 0.49999 0.42859 0.8147 0.0
O207 O 0.43248 0.46162 0.70916 0.0
O208 O 0.47055 0.42829 0.51025 0.0
C209 C 0.44331 0.48675 0.77583 0.0
O210 O 0.52037 0.47517 0.47128 0.0
O211 O 0.59104 0.5301 0.62306 0.0
O212 O 0.58663 0.5269 0.76837 0.0
C213 C 0.15263 0.48575 0.37053 0.0
C214 C 0.17491 0.5161 0.32975 0.0
H215 H 0.10954 0.46265 0.45098 0.0
C216 C 0.17611 0.54905 0.35536 0.0
H217 H 0.15087 0.45989 0.3511 0.0
C218 C 0.15328 0.55086 0.41429 0.0
C219 C 0.12835 0.51967 0.44816 0.0
H220 H 0.19283 0.57278 0.32455 0.0
H221 H 0.15239 0.57573 0.42552 0.0
C222 C 0.12931 0.48744 0.42876 0.0
C223 C 0.70421 0.15781 0.32436 0.0
C224 C 0.68855 0.17058 0.26423 0.0
H225 H 0.69684 0.1265 0.43172 0.0
C226 C 0.65595 0.16803 0.27939 0.0
H227 H 0.72955 0.15976 0.31457 0.0
C228 C 0.63771 0.14997 0.34805 0.0
C229 C 0.65119 0.1331 0.40135 0.0
H230 H 0.64372 0.17842 0.23532 0.0
H231 H 0.61141 0.14627 0.35375 0.0
C232 C 0.68566 0.13914 0.39232 0.0
C233 C 0.58666 0.69768 0.26244 0.0
C234 C 0.55503 0.68611 0.20622 0.0
H235 H 0.61549 0.68245 0.35148 0.0
C236 C 0.5258 0.65099 0.20694 0.0
H237 H 0.60979 0.72426 0.26139 0.0
C238 C 0.52955 0.62647 0.25461 0.0
C239 C 0.56227 0.63699 0.30456 0.0
H240 H 0.50132 0.64128 0.16278 0.0
H241 H 0.5072 0.59899 0.25013 0.0
C242 C 0.59017 0.67337 0.31183 0.0
C243 C 0.89776 0.55204 0.2379 0.0
C244 C 0.88652 0.5237 0.16675 0.0
H245 H 0.92777 0.57643 0.36726 0.0
C246 C 0.89096 0.49416 0.17955 0.0
H247 H 0.89431 0.57502 0.22989 0.0
C248 C 0.90915 0.49444 0.259 0.0
C249 C 0.92413 0.52475 0.3264 0.0
H250 H 0.88173 0.47156 0.1266 0.0
H251 H 0.91421 0.47229 0.2643 0.0
C252 C 0.9165 0.55262 0.31714 0.0
C253 C 0.41915 0.87856 0.25525 0.0
C254 C 0.38668 0.87766 0.23604 0.0
H255 H 0.47017 0.9049 0.33508 0.0
C256 C 0.37842 0.89903 0.295 0.0
H257 H 0.42627 0.8625 0.21091 0.0
C258 C 0.40376 0.92351 0.3665 0.0
C259 C 0.43738 0.92639 0.38115 0.0
H260 H 0.35375 0.89916 0.28122 0.0
H261 H 0.39835 0.94245 0.40495 0.0
C262 C 0.4441 0.9025 0.32716 0.0
C263 C 0.53239 0.40187 0.29826 0.0
C264 C 0.50417 0.36582 0.27719 0.0
H265 H 0.55067 0.45471 0.3673 0.0
C266 C 0.47204 0.35506 0.31311 0.0
H267 H 0.55717 0.41078 0.2695 0.0
C268 C 0.46797 0.38037 0.36824 0.0
C269 C 0.49595 0.41678 0.3876 0.0
H270 H 0.44965 0.32761 0.2953 0.0
H271 H 0.44292 0.37143 0.39556 0.0
C272 C 0.52825 0.42717 0.35226 0.0
C273 C 0.60486 0.9221 0.77147 0.0
C274 C 0.57252 0.89483 0.79479 0.0
H275 H 0.63126 0.97124 0.71316 0.0
C276 C 0.54076 0.89429 0.76781 0.0
H277 H 0.62983 0.9238 0.79438 0.0
C278 C 0.54169 0.92229 0.72553 0.0
C279 C 0.57437 0.95108 0.70781 0.0
H280 H 0.51566 0.87422 0.78766 0.0
H281 H 0.51684 0.92175 0.70866 0.0
C282 C 0.60576 0.94985 0.72767 0.0
C283 C 0.67317 0.51797 0.80888 0.0
C284 C 0.6917 0.55105 0.86647 0.0
H285 H 0.63049 0.486 0.70309 0.0
C286 C 0.68842 0.58057 0.84615 0.0
H287 H 0.67545 0.49488 0.82361 0.0
C288 C 0.66385 0.57589 0.77493 0.0
C289 C 0.64145 0.54134 0.72537 0.0
H290 H 0.70266 0.60635 0.88964 0.0
H291 H 0.6587 0.59785 0.76728 0.0
C292 C 0.64803 0.5131 0.73872 0.0
C293 C 0.11702 0.68626 0.86326 0.0
C294 C 0.14476 0.68267 0.9037 0.0
H295 H 0.06953 0.66182 0.76988 0.0
C296 C 0.14623 0.65114 0.87881 0.0
H297 H 0.11464 0.70973 0.88437 0.0
C298 C 0.11977 0.62309 0.81626 0.0
C299 C 0.09144 0.6262 0.77693 0.0
H300 H 0.16665 0.64727 0.91197 0.0
H301 H 0.12152 0.59898 0.79892 0.0
C302 C 0.09077 0.65842 0.79972 0.0
C303 C 0.51701 0.11908 0.05507 0.0
C304 C 0.49017 0.12826 0.05279 0.0
H305 H 0.53474 0.08426 -0.00178 0.0
C306 C 0.46024 0.10938 -0.0116 0.0
H307 H 0.54003 0.13309 0.10576 0.0
C308 C 0.45679 0.08096 0.92793 0.0
C309 C 0.48321 0.07103 0.93157 0.0
H310 H 0.43887 0.11551 -0.01247 0.0
H311 H 0.43333 0.06662 0.8787 0.0
C312 C 0.51351 0.09059 -0.00478 0.0
C313 C 0.41078 0.5175 -0.0268 0.0
C314 C 0.37597 0.48822 -0.02812 0.0
H315 H 0.45848 0.54087 0.91065 0.0
C316 C 0.36127 0.46072 0.89763 0.0
H317 H 0.42266 0.53927 0.029 0.0
C318 C 0.38208 0.46128 0.82929 0.0
C319 C 0.41783 0.48959 0.83362 0.0
H320 H 0.33443 0.43784 0.89493 0.0
H321 H 0.37084 0.43855 0.77605 0.0
C322 C 0.43125 0.51838 0.90484 0.0
C323 C 0.94616 0.34515 0.91047 0.0
C324 C 0.92061 0.35134 0.94735 0.0
H325 H 0.99296 0.36715 0.8434 0.0
C326 C 0.92165 0.38435 0.94203 0.0
H327 H 0.94642 0.32032 0.91709 0.0
C328 C 0.94906 0.41168 0.90436 0.0
C329 C 0.97546 0.4061 0.87023 0.0
H330 H 0.90274 0.38993 -0.02705 0.0
H331 H 0.94962 0.43716 0.90212 0.0
C332 C 0.97319 0.37223 0.87089 0.0
C333 C 0.88933 0.48805 0.81146 0.0
C334 C 0.89058 0.52104 0.83686 0.0
H335 H 0.91296 0.46124 0.74146 0.0
C336 C 0.91285 0.55132 0.7958 0.0
H337 H 0.87261 0.46438 0.84246 0.0
C338 C 0.93611 0.54952 0.73756 0.0
C339 C 0.93703 0.51726 0.7184 0.0
H340 H 0.91464 0.5772 0.81505 0.0
H341 H 0.95587 0.57426 0.71512 0.0
C342 C 0.91209 0.48613 0.7525 0.0
C343 C 0.40915 0.87056 0.88749 0.0
C344 C 0.3765 0.86789 0.90258 0.0
H345 H 0.45367 0.8924 0.81309 0.0
C346 C 0.36074 0.88053 0.84236 0.0
H347 H 0.42145 0.86027 0.93164 0.0
C348 C 0.37925 0.89921 0.77435 0.0
C349 C 0.41375 0.90536 0.76535 0.0
H350 H 0.33536 0.87849 0.85211 0.0
H351 H 0.36799 0.91177 0.73487 0.0
C352 C 0.42733 0.8886 0.81875 0.0
C353 C 0.54118 0.38839 0.95965 0.0
C354 C 0.51195 0.3533 0.96079 0.0
H355 H 0.55972 0.44033 0.91617 0.0
C356 C 0.48024 0.3417 0.90484 0.0
H357 H 0.56573 0.39812 0.00354 0.0
C358 C 0.47666 0.36597 0.85541 0.0
C359 C 0.50458 0.40233 0.86237 0.0
H360 H 0.45712 0.31515 0.90616 0.0
H361 H 0.4513 0.35688 0.81601 0.0
C362 C 0.53736 0.41286 0.91197 0.0
C363 C 0.17451 0.54308 -0.01288 0.0
C364 C 0.17904 0.51358 -9e-05 0.0
H365 H 0.1512 0.56488 0.90237 0.0
C366 C 0.16786 0.48527 0.92875 0.0
H367 H 0.18369 0.56566 0.04009 0.0
C368 C 0.14911 0.48465 0.84949 0.0
C369 C 0.1414 0.51247 0.84024 0.0
H370 H 0.17138 0.46233 0.93675 0.0
H371 H 0.13789 0.46085 0.79935 0.0
C372 C 0.15632 0.54277 0.90765 0.0
C373 C 0.68641 0.13958 0.87148 0.0
C374 C 0.67826 0.16094 0.9308 0.0
H375 H 0.66633 0.09625 0.76129 0.0
C376 C 0.64581 0.16012 0.91196 0.0
H377 H 0.71107 0.1394 0.88496 0.0
C378 C 0.62077 0.13625 0.84011 0.0
C379 C 0.62739 0.11237 0.78577 0.0
H380 H 0.63877 0.17618 0.95655 0.0
H381 H 0.59472 0.1339 0.83248 0.0
C382 C 0.661 0.11519 0.80001 0.0
C383 C 0.59506 0.68448 0.85387 0.0
C384 C 0.56297 0.67384 0.88988 0.0
H385 H 0.62401 0.66792 0.77131 0.0
C386 C 0.53466 0.63784 0.8689 0.0
H387 H 0.61752 0.7119 0.87166 0.0
C388 C 0.53866 0.61245 0.81489 0.0
C389 C 0.57093 0.62271 0.77945 0.0
H390 H 0.50992 0.62902 0.89779 0.0
H391 H 0.51619 0.58494 0.79998 0.0
C392 C 0.599 0.65909 0.7987 0.0
C393 C 0.52312 0.14414 0.3986 0.0
C394 C 0.49121 0.14334 0.37183 0.0
H395 H 0.54744 0.11703 0.45765 0.0
C396 C 0.459 0.11593 0.3954 0.0
H397 H 0.54811 0.16431 0.37852 0.0
C398 C 0.45839 0.08832 0.43928 0.0
C399 C 0.48994 0.08737 0.45898 0.0
H400 H 0.43392 0.11402 0.37263 0.0
H401 H 0.43299 0.06683 0.45398 0.0
C402 C 0.52248 0.11629 0.44097 0.0
C403 C 0.37816 0.45862 0.32168 0.0
C404 C 0.37493 0.48811 0.30079 0.0
H405 H 0.40788 0.44147 0.401 0.0
C406 C 0.39357 0.52132 0.35785 0.0
H407 H 0.36383 0.43274 0.27858 0.0
C408 C 0.41876 0.52632 0.42806 0.0
C409 C 0.42527 0.49807 0.44197 0.0
H410 H 0.39133 0.54438 0.34267 0.0
H411 H 0.43636 0.55348 0.46328 0.0
C412 C 0.40277 0.46343 0.39294 0.0
C413 C 0.91919 0.38532 0.28813 0.0
C414 C 0.92102 0.35402 0.26289 0.0
H415 H 0.94354 0.4374 0.36828 0.0
C416 C 0.94901 0.35074 0.303 0.0
H417 H 0.89858 0.38896 0.25524 0.0
C418 C 0.97514 0.37865 0.36659 0.0
C419 C 0.97412 0.41066 0.38971 0.0
H420 H 0.95165 0.32744 0.28163 0.0
H421 H 0.99657 0.37549 0.3962 0.0
C422 C 0.94556 0.41346 0.35069 0.0
C423 C 0.54664 0.91898 0.11219 0.0
C424 C 0.57338 0.90966 0.11398 0.0
H425 H 0.52925 0.95404 0.16939 0.0
C426 C 0.60344 0.92847 0.17805 0.0
H427 H 0.52351 0.905 0.06182 0.0
C428 C 0.60714 0.95702 0.23853 0.0
C429 C 0.58085 0.96712 0.23525 0.0
H430 H 0.62472 0.92223 0.17859 0.0
H431 H 0.6307 0.97132 0.28746 0.0
C432 C 0.5504 0.94758 0.17205 0.0
C433 C 0.70531 0.57823 0.26946 0.0
C434 C 0.69056 0.5507 0.19529 0.0
H435 H 0.6958 0.60049 0.391 0.0
C436 C 0.65574 0.52146 0.19403 0.0
H437 H 0.73216 0.60108 0.27211 0.0
C438 C 0.63529 0.52065 0.26239 0.0
C439 C 0.64876 0.54947 0.33355 0.0
H440 H 0.64383 0.49967 0.13827 0.0
H441 H 0.60805 0.49819 0.25663 0.0
C442 C 0.68453 0.57774 0.33781 0.0
C443 C 0.14395 0.65231 0.22456 0.0
C444 C 0.14524 0.68544 0.21953 0.0
H445 H 0.11573 0.59948 0.26423 0.0
C446 C 0.1199 0.69186 0.25683 0.0
H447 H 0.16271 0.64656 0.19333 0.0
C448 C 0.09279 0.66486 0.29643 0.0
C449 C 0.09025 0.63086 0.29672 0.0
H450 H 0.11982 0.7168 0.25045 0.0
H451 H 0.07316 0.67011 0.32419 0.0
C452 C 0.11648 0.62507 0.26227 0.0
loop_
_geom_bond_atom_site_label_1
_geom_bond_atom_site_label_2
_geom_bond_distance
_geom_bond_site_symmetry_2
_ccdc_geom_bond_type
H0 C8 0.940 . S
H1 C11 0.940 . S
H2 C13 0.940 . S
H3 C14 0.940 . S
H4 C17 0.940 . S
H5 C19 0.940 . S
N6 N7 1.190 . S
N6 C10 1.477 . S
N7 N6 1.190 . S
N7 C16 1.477 . S
C8 H0 0.940 . S
C8 C9 1.390 . S
C8 C10 1.322 . S
C9 C8 1.390 . S
C9 C13 1.370 . S
C10 N6 1.477 . S
C10 C8 1.322 . S
C10 C11 1.447 . S
C11 H1 0.940 . S
C11 C10 1.447 . S
C11 C12 1.373 . S
C12 C11 1.373 . S
C12 C13 1.417 . S
C13 H2 0.940 . S
C13 C9 1.370 . S
C13 C12 1.417 . S
C14 H3 0.940 . S
C14 C15 1.390 . S
C14 C16 1.322 . S
C15 C14 1.390 . S
C15 C19 1.370 . S
C16 N7 1.477 . S
C16 C14 1.322 . S
C16 C17 1.447 . S
C17 H4 0.940 . S
C17 C16 1.447 . S
C17 C18 1.373 . S
C18 C17 1.373 . S
C18 C19 1.417 . S
C19 H5 0.940 . S
C19 C15 1.370 . S
C19 C18 1.417 . S
H20 C28 0.940 . S
H21 C31 0.940 . S
H22 C33 0.940 . S
H23 C34 0.940 . S
H24 C37 0.940 1_556 S
H25 C39 0.940 . S
N26 N27 1.190 . S
N26 C30 1.477 . S
N27 N26 1.190 . S
N27 C36 1.477 . S
C28 H20 0.940 . S
C28 C29 1.390 . S
C28 C30 1.322 . S
C29 C28 1.390 . S
C29 C33 1.370 . S
C30 N26 1.477 . S
C30 C28 1.322 . S
C30 C31 1.447 . S
C31 H21 0.940 . S
C31 C30 1.447 . S
C31 C32 1.373 . S
C32 C31 1.373 . S
C32 C33 1.417 . S
C33 H22 0.940 . S
C33 C29 1.370 . S
C33 C32 1.417 . S
C34 H23 0.940 . S
C34 C35 1.390 . S
C34 C36 1.322 . S
C35 C34 1.390 . S
C35 C39 1.370 . S
C36 N27 1.477 . S
C36 C34 1.322 . S
C36 C37 1.447 . S
C37 H24 0.940 1_554 S
C37 C36 1.447 . S
C37 C38 1.373 . S
C38 C37 1.373 . S
C38 C39 1.417 . S
C39 H25 0.940 . S
C39 C35 1.370 . S
C39 C38 1.417 . S
H40 C48 0.940 . S
H41 C51 0.940 . S
H42 C53 0.940 . S
H43 C54 0.940 . S
H44 C57 0.940 . S
H45 C59 0.940 . S
N46 N47 1.190 1_554 S
N46 C50 1.477 . S
N47 N46 1.190 1_556 S
N47 C56 1.477 . S
C48 H40 0.940 . S
C48 C49 1.390 . S
C48 C50 1.322 1_556 S
C49 C48 1.390 . S
C49 C53 1.370 . S
C50 N46 1.477 . S
C50 C48 1.322 1_554 S
C50 C51 1.447 . S
C51 H41 0.940 . S
C51 C50 1.447 . S
C51 C52 1.373 . S
C52 C51 1.373 . S
C52 C53 1.417 1_554 S
C53 H42 0.940 . S
C53 C49 1.370 . S
C53 C52 1.417 1_556 S
C54 H43 0.940 . S
C54 C55 1.390 . S
C54 C56 1.322 1_554 S
C55 C54 1.390 . S
C55 C59 1.370 . S
C56 N47 1.477 . S
C56 C54 1.322 1_556 S
C56 C57 1.447 . S
C57 H44 0.940 . S
C57 C56 1.447 . S
C57 C58 1.373 . S
C58 C57 1.373 . S
C58 C59 1.417 1_556 S
C59 H45 0.940 . S
C59 C55 1.370 . S
C59 C58 1.417 1_554 S
H60 C68 0.940 . S
H61 C71 0.940 . S
H62 C73 0.940 . S
H63 C74 0.940 . S
H64 C77 0.940 . S
H65 C79 0.940 . S
N66 N67 1.190 . S
N66 C70 1.477 . S
N67 N66 1.190 . S
N67 C76 1.477 . S
C68 H60 0.940 . S
C68 C69 1.390 . S
C68 C70 1.322 1_556 S
C69 C68 1.390 . S
C69 C73 1.370 1_556 S
C70 N66 1.477 . S
C70 C68 1.322 1_554 S
C70 C71 1.447 . S
C71 H61 0.940 . S
C71 C70 1.447 . S
C71 C72 1.373 . S
C72 C71 1.373 . S
C72 C73 1.417 . S
C73 H62 0.940 . S
C73 C69 1.370 1_554 S
C73 C72 1.417 . S
C74 H63 0.940 . S
C74 C75 1.390 . S
C74 C76 1.322 . S
C75 C74 1.390 . S
C75 C79 1.370 . S
C76 N67 1.477 . S
C76 C74 1.322 . S
C76 C77 1.447 1_554 S
C77 H64 0.940 . S
C77 C76 1.447 1_556 S
C77 C78 1.373 . S
C78 C77 1.373 . S
C78 C79 1.417 1_556 S
C79 H65 0.940 . S
C79 C75 1.370 . S
C79 C78 1.417 1_554 S
H80 C88 0.940 1_556 S
H81 C91 0.940 . S
H82 C93 0.940 . S
H83 C94 0.940 . S
H84 C97 0.940 . S
H85 C99 0.940 . S
N86 N87 1.190 . S
N86 C90 1.477 . S
N87 N86 1.190 . S
N87 C96 1.477 . S
C88 H80 0.940 1_554 S
C88 C89 1.390 . S
C88 C90 1.322 . S
C89 C88 1.390 . S
C89 C93 1.373 . S
C90 N86 1.477 . S
C90 C88 1.322 . S
C90 C91 1.447 . S
C91 H81 0.940 . S
C91 C90 1.447 . S
C91 C92 1.373 . S
C92 C91 1.373 . S
C92 C93 1.417 . S
C93 H82 0.940 . S
C93 C89 1.373 . S
C93 C92 1.417 . S
C94 H83 0.940 . S
C94 C95 1.390 . S
C94 C96 1.322 . S
C95 C94 1.390 . S
C95 C99 1.370 . S
C96 N87 1.477 . S
C96 C94 1.322 . S
C96 C97 1.447 1_554 S
C97 H84 0.940 . S
C97 C96 1.447 1_556 S
C97 C98 1.373 1_556 S
C98 C97 1.373 1_554 S
C98 C99 1.417 . S
C99 H85 0.940 . S
C99 C95 1.370 . S
C99 C98 1.417 . S
H100 C108 0.940 . S
H101 C111 0.940 . S
H102 C113 0.940 . S
H103 C114 0.940 . S
H104 C117 0.940 . S
H105 C119 0.940 . S
N106 N107 1.190 . S
N106 C110 1.477 . S
N107 N106 1.190 . S
N107 C116 1.477 . S
C108 H100 0.940 . S
C108 C109 1.390 . S
C108 C110 1.322 . S
C109 C108 1.390 . S
C109 C113 1.370 . S
C110 N106 1.477 . S
C110 C108 1.322 . S
C110 C111 1.447 . S
C111 H101 0.940 . S
C111 C110 1.447 . S
C111 C112 1.373 . S
C112 C111 1.373 . S
C112 C113 1.417 . S
C113 H102 0.940 . S
C113 C109 1.370 . S
C113 C112 1.417 . S
C114 H103 0.940 . S
C114 C115 1.390 . S
C114 C116 1.322 . S
C115 C114 1.390 . S
C115 C119 1.370 . S
C116 N107 1.477 . S
C116 C114 1.322 . S
C116 C117 1.447 . S
C117 H104 0.940 . S
C117 C116 1.447 . S
C117 C118 1.373 . S
C118 C117 1.373 . S
C118 C119 1.417 . S
C119 H105 0.940 . S
C119 C115 1.370 . S
C119 C118 1.417 . S
C120 O132 1.241 . S
C120 O133 1.280 . S
C121 O134 1.277 . S
C121 O135 1.245 . S
C122 O146 1.247 . S
C122 O148 1.289 . S
Mg123 O124 1.925 . S
Mg123 O133 1.984 . S
Mg123 O135 1.988 1_655 S
Mg123 O136 2.061 . S
O124 Mg123 1.925 . S
O124 Mg125 1.987 1_655 S
O124 Mg126 1.917 1_655 S
Mg125 O124 1.987 1_455 S
Mg125 O132 2.042 1_455 S
Mg125 O134 2.041 . S
Mg125 O140 2.038 1_455 S
Mg125 O148 2.238 . S
Mg126 O124 1.917 1_455 S
Mg126 O127 1.917 . S
Mg126 O137 2.106 1_455 S
Mg126 O139 2.079 1_455 S
Mg126 O148 2.106 . S
Mg126 O149 2.079 . S
O127 Mg126 1.917 . S
O127 Mg128 1.926 . S
O127 Mg129 1.986 . S
Mg128 O127 1.926 . S
Mg128 O142 1.984 . S
Mg128 O145 1.988 1_455 S
Mg128 O146 2.061 . S
Mg129 O127 1.986 . S
Mg129 O137 2.238 1_455 S
Mg129 O141 2.042 . S
Mg129 O143 2.041 1_455 S
Mg129 O150 2.038 . S
C130 O136 1.247 . S
C130 O137 1.289 . S
C131 O149 1.245 . S
C131 O150 1.274 . S
O132 C120 1.241 . S
O132 Mg125 2.042 1_655 S
O133 C120 1.280 . S
O133 Mg123 1.984 . S
O134 C121 1.277 . S
O134 Mg125 2.041 . S
O135 C121 1.245 . S
O135 Mg123 1.988 1_455 S
O136 Mg123 2.061 . S
O136 C130 1.247 . S
O137 Mg126 2.106 1_655 S
O137 Mg129 2.238 1_655 S
O137 C130 1.289 . S
C138 O139 1.245 . S
C138 O140 1.274 . S
O139 Mg126 2.079 1_655 S
O139 C138 1.245 . S
O140 Mg125 2.038 1_655 S
O140 C138 1.274 . S
O141 Mg129 2.042 . S
O141 C144 1.241 . S
O142 Mg128 1.984 . S
O142 C144 1.280 . S
O143 Mg129 2.041 1_655 S
O143 C147 1.277 . S
C144 O141 1.241 . S
C144 O142 1.280 . S
O145 Mg128 1.988 1_655 S
O145 C147 1.245 . S
O146 C122 1.247 . S
O146 Mg128 2.061 . S
C147 O143 1.277 . S
C147 O145 1.245 . S
O148 C122 1.289 . S
O148 Mg125 2.238 . S
O148 Mg126 2.106 . S
O149 Mg126 2.079 . S
O149 C131 1.245 . S
O150 Mg129 2.038 . S
O150 C131 1.274 . S
C151 O163 1.241 . S
C151 O164 1.280 . S
C152 O165 1.277 . S
C152 O166 1.245 . S
C153 O177 1.247 . S
C153 O179 1.289 . S
Mg154 O155 1.926 . S
Mg154 O164 1.984 . S
Mg154 O166 1.988 1_545 S
Mg154 O167 2.061 . S
O155 Mg154 1.926 . S
O155 Mg156 1.986 . S
O155 Mg157 1.917 . S
Mg156 O155 1.986 . S
Mg156 O163 2.042 . S
Mg156 O165 2.041 1_545 S
Mg156 O171 2.038 . S
Mg156 O179 2.238 1_545 S
Mg157 O155 1.917 . S
Mg157 O158 1.917 1_545 S
Mg157 O168 2.106 . S
Mg157 O170 2.079 . S
Mg157 O179 2.106 1_545 S
Mg157 O180 2.079 1_545 S
O158 Mg157 1.917 1_565 S
O158 Mg159 1.926 . S
O158 Mg160 1.991 . S
Mg159 O158 1.926 . S
Mg159 O173 1.984 . S
Mg159 O176 1.988 1_565 S
Mg159 O177 2.061 . S
Mg160 O158 1.991 . S
Mg160 O168 2.232 1_565 S
Mg160 O172 2.050 . S
Mg160 O174 2.038 1_565 S
Mg160 O181 2.041 . S
C161 O167 1.247 . S
C161 O168 1.289 . S
C162 O180 1.245 . S
C162 O181 1.274 . S
O163 C151 1.241 . S
O163 Mg156 2.042 . S
O164 C151 1.280 . S
O164 Mg154 1.984 . S
O165 C152 1.277 . S
O165 Mg156 2.041 1_565 S
O166 C152 1.245 . S
O166 Mg154 1.988 1_565 S
O167 Mg154 2.061 . S
O167 C161 1.247 . S
O168 Mg157 2.106 . S
O168 Mg160 2.232 1_545 S
O168 C161 1.289 . S
C169 O170 1.245 . S
C169 O171 1.274 . S
O170 Mg157 2.079 . S
O170 C169 1.245 . S
O171 Mg156 2.038 . S
O171 C169 1.274 . S
O172 Mg160 2.050 . S
O172 C175 1.241 . S
O173 Mg159 1.984 . S
O173 C175 1.280 . S
O174 Mg160 2.038 1_545 S
O174 C178 1.277 . S
C175 O172 1.241 . S
C175 O173 1.280 . S
O176 Mg159 1.988 1_545 S
O176 C178 1.245 . S
O177 C153 1.247 . S
O177 Mg159 2.061 . S
C178 O174 1.277 . S
C178 O176 1.245 . S
O179 C153 1.289 . S
O179 Mg156 2.238 1_565 S
O179 Mg157 2.106 1_565 S
O180 Mg157 2.079 1_565 S
O180 C162 1.245 . S
O181 Mg160 2.041 . S
O181 C162 1.274 . S
C182 O194 1.241 . S
C182 O195 1.280 . S
C183 O196 1.277 . S
C183 O197 1.245 . S
C184 O208 1.247 . S
C184 O210 1.289 . S
Mg185 O186 1.926 . S
Mg185 O195 1.984 . S
Mg185 O197 1.988 . S
Mg185 O198 2.061 . S
O186 Mg185 1.926 . S
O186 Mg187 1.986 . S
O186 Mg188 1.917 . S
Mg187 O186 1.986 . S
Mg187 O194 2.042 . S
Mg187 O196 2.041 . S
Mg187 O202 2.038 . S
Mg187 O210 2.238 . S
Mg188 O186 1.917 . S
Mg188 O189 1.917 . S
Mg188 O199 2.106 . S
Mg188 O201 2.079 . S
Mg188 O210 2.106 . S
Mg188 O211 2.079 . S
O189 Mg188 1.917 . S
O189 Mg190 1.926 . S
O189 Mg191 1.986 . S
Mg190 O189 1.926 . S
Mg190 O204 1.984 . S
Mg190 O207 1.988 . S
Mg190 O208 2.061 . S
Mg191 O189 1.986 . S
Mg191 O199 2.238 . S
Mg191 O203 2.042 . S
Mg191 O205 2.041 . S
Mg191 O212 2.038 . S
C192 O198 1.247 . S
C192 O199 1.289 . S
C193 O211 1.245 . S
C193 O212 1.274 . S
O194 C182 1.241 . S
O194 Mg187 2.042 . S
O195 C182 1.280 . S
O195 Mg185 1.984 . S
O196 C183 1.277 . S
O196 Mg187 2.041 . S
O197 C183 1.245 . S
O197 Mg185 1.988 . S
O198 Mg185 2.061 . S
O198 C192 1.247 . S
O199 Mg188 2.106 . S
O199 Mg191 2.238 . S
O199 C192 1.289 . S
C200 O201 1.245 . S
C200 O202 1.274 . S
O201 Mg188 2.079 . S
O201 C200 1.245 . S
O202 Mg187 2.038 . S
O202 C200 1.274 . S
O203 Mg191 2.042 . S
O203 C206 1.241 . S
O204 Mg190 1.984 . S
O204 C206 1.280 . S
O205 Mg191 2.041 . S
O205 C209 1.277 . S
C206 O203 1.241 . S
C206 O204 1.280 . S
O207 Mg190 1.988 . S
O207 C209 1.245 . S
O208 C184 1.247 . S
O208 Mg190 2.061 . S
C209 O205 1.277 . S
C209 O207 1.245 . S
O210 C184 1.289 . S
O210 Mg187 2.238 . S
O210 Mg188 2.106 . S
O211 Mg188 2.079 . S
O211 C193 1.245 . S
O212 Mg191 2.038 . S
O212 C193 1.274 . S
C213 C214 1.387 . S
C213 H217 0.950 . S
C213 C222 1.390 . S
C214 C213 1.387 . S
C214 C216 1.387 . S
H215 C222 0.950 . S
C216 C214 1.387 . S
C216 C218 1.390 . S
C216 H220 0.950 . S
H217 C213 0.950 . S
C218 C216 1.390 . S
C218 C219 1.387 . S
C218 H221 0.950 . S
C219 C218 1.387 . S
C219 C222 1.387 . S
H220 C216 0.950 . S
H221 C218 0.950 . S
C222 C213 1.390 . S
C222 H215 0.950 . S
C222 C219 1.387 . S
C223 C224 1.387 . S
C223 H227 0.950 . S
C223 C232 1.390 . S
C224 C223 1.387 . S
C224 C226 1.387 . S
H225 C232 0.950 . S
C226 C224 1.387 . S
C226 C228 1.390 . S
C226 H230 0.950 . S
H227 C223 0.950 . S
C228 C226 1.390 . S
C228 C229 1.387 . S
C228 H231 0.950 . S
C229 C228 1.387 . S
C229 C232 1.387 . S
H230 C226 0.950 . S
H231 C228 0.950 . S
C232 C223 1.390 . S
C232 H225 0.950 . S
C232 C229 1.387 . S
C233 C234 1.387 . S
C233 H237 0.950 . S
C233 C242 1.390 . S
C234 C233 1.387 . S
C234 C236 1.387 . S
H235 C242 0.950 . S
C236 C234 1.387 . S
C236 C238 1.390 . S
C236 H240 0.950 . S
H237 C233 0.950 . S
C238 C236 1.390 . S
C238 C239 1.387 . S
C238 H241 0.950 . S
C239 C238 1.387 . S
C239 C242 1.387 . S
H240 C236 0.950 . S
H241 C238 0.950 . S
C242 C233 1.390 . S
C242 H235 0.950 . S
C242 C239 1.387 . S
C243 C244 1.387 . S
C243 H247 0.950 . S
C243 C252 1.390 . S
C244 C243 1.387 . S
C244 C246 1.387 . S
H245 C252 0.950 . S
C246 C244 1.387 . S
C246 C248 1.390 . S
C246 H250 0.950 . S
H247 C243 0.950 . S
C248 C246 1.390 . S
C248 C249 1.387 . S
C248 H251 0.950 . S
C249 C248 1.387 . S
C249 C252 1.387 . S
H250 C246 0.950 . S
H251 C248 0.950 . S
C252 C243 1.390 . S
C252 H245 0.950 . S
C252 C249 1.387 . S
C253 C254 1.387 . S
C253 H257 0.950 . S
C253 C262 1.390 . S
C254 C253 1.387 . S
C254 C256 1.387 . S
H255 C262 0.950 . S
C256 C254 1.387 . S
C256 C258 1.390 . S
C256 H260 0.950 . S
H257 C253 0.950 . S
C258 C256 1.390 . S
C258 C259 1.387 . S
C258 H261 0.950 . S
C259 C258 1.387 . S
C259 C262 1.387 . S
H260 C256 0.950 . S
H261 C258 0.950 . S
C262 C253 1.390 . S
C262 H255 0.950 . S
C262 C259 1.387 . S
C263 C264 1.387 . S
C263 H267 0.950 . S
C263 C272 1.390 . S
C264 C263 1.387 . S
C264 C266 1.387 . S
H265 C272 0.950 . S
C266 C264 1.387 . S
C266 C268 1.390 . S
C266 H270 0.950 . S
H267 C263 0.950 . S
C268 C266 1.390 . S
C268 C269 1.387 . S
C268 H271 0.950 . S
C269 C268 1.387 . S
C269 C272 1.387 . S
H270 C266 0.950 . S
H271 C268 0.950 . S
C272 C263 1.390 . S
C272 H265 0.950 . S
C272 C269 1.387 . S
C273 C274 1.387 . S
C273 H277 0.950 . S
C273 C282 1.390 . S
C274 C273 1.387 . S
C274 C276 1.387 . S
H275 C282 0.950 . S
C276 C274 1.387 . S
C276 C278 1.390 . S
C276 H280 0.950 . S
H277 C273 0.950 . S
C278 C276 1.390 . S
C278 C279 1.387 . S
C278 H281 0.950 . S
C279 C278 1.387 . S
C279 C282 1.387 . S
H280 C276 0.950 . S
H281 C278 0.950 . S
C282 C273 1.390 . S
C282 H275 0.950 . S
C282 C279 1.387 . S
C283 C284 1.387 . S
C283 H287 0.950 . S
C283 C292 1.390 . S
C284 C283 1.387 . S
C284 C286 1.387 . S
H285 C292 0.950 . S
C286 C284 1.387 . S
C286 C288 1.390 . S
C286 H290 0.950 . S
H287 C283 0.950 . S
C288 C286 1.390 . S
C288 C289 1.387 . S
C288 H291 0.950 . S
C289 C288 1.387 . S
C289 C292 1.387 . S
H290 C286 0.950 . S
H291 C288 0.950 . S
C292 C283 1.390 . S
C292 H285 0.950 . S
C292 C289 1.387 . S
C293 C294 1.387 . S
C293 H297 0.950 . S
C293 C302 1.390 . S
C294 C293 1.387 . S
C294 C296 1.387 . S
H295 C302 0.950 . S
C296 C294 1.387 . S
C296 C298 1.390 . S
C296 H300 0.950 . S
H297 C293 0.950 . S
C298 C296 1.390 . S
C298 C299 1.387 . S
C298 H301 0.950 . S
C299 C298 1.387 . S
C299 C302 1.387 . S
H300 C296 0.950 . S
H301 C298 0.950 . S
C302 C293 1.390 . S
C302 H295 0.950 . S
C302 C299 1.387 . S
C303 C304 1.387 . S
C303 H307 0.950 . S
C303 C312 1.390 1_554 S
C304 C303 1.387 . S
C304 C306 1.387 . S
H305 C312 0.950 . S
C306 C304 1.387 . S
C306 C308 1.390 . S
C306 H310 0.950 . S
H307 C303 0.950 . S
C308 C306 1.390 . S
C308 C309 1.387 1_554 S
C308 H311 0.950 . S
C309 C308 1.387 1_556 S
C309 C312 1.387 . S
H310 C306 0.950 . S
H311 C308 0.950 . S
C312 C303 1.390 1_556 S
C312 H305 0.950 . S
C312 C309 1.387 . S
C313 C314 1.387 . S
C313 H317 0.950 . S
C313 C322 1.390 . S
C314 C313 1.387 . S
C314 C316 1.387 . S
H315 C322 0.950 . S
C316 C314 1.387 . S
C316 C318 1.390 . S
C316 H320 0.950 1_556 S
H317 C313 0.950 . S
C318 C316 1.390 . S
C318 C319 1.387 . S
C318 H321 0.950 . S
C319 C318 1.387 . S
C319 C322 1.387 . S
H320 C316 0.950 1_554 S
H321 C318 0.950 . S
C322 C313 1.390 . S
C322 H315 0.950 . S
C322 C319 1.387 . S
C323 C324 1.387 . S
C323 H327 0.950 . S
C323 C332 1.390 . S
C324 C323 1.387 . S
C324 C326 1.387 1_556 S
H325 C332 0.950 . S
C326 C324 1.387 1_554 S
C326 C328 1.393 . S
C326 H330 0.950 . S
H327 C323 0.950 . S
C328 C326 1.393 . S
C328 C329 1.382 1_554 S
C328 H331 0.952 . S
C329 C328 1.382 1_556 S
C329 C332 1.387 . S
H330 C326 0.950 . S
H331 C328 0.952 . S
C332 C323 1.390 . S
C332 H325 0.950 . S
C332 C329 1.387 . S
C333 C334 1.387 . S
C333 H337 0.950 . S
C333 C342 1.390 . S
C334 C333 1.387 . S
C334 C336 1.387 . S
H335 C342 0.950 . S
C336 C334 1.387 . S
C336 C338 1.390 . S
C336 H340 0.950 . S
H337 C333 0.950 . S
C338 C336 1.390 . S
C338 C339 1.387 . S
C338 H341 0.950 . S
C339 C338 1.387 . S
C339 C342 1.387 . S
H340 C336 0.950 . S
H341 C338 0.950 . S
C342 C333 1.390 . S
C342 H335 0.950 . S
C342 C339 1.387 . S
C343 C344 1.387 . S
C343 H347 0.950 1_556 S
C343 C352 1.390 . S
C344 C343 1.387 . S
C344 C346 1.387 . S
H345 C352 0.950 . S
C346 C344 1.387 . S
C346 C348 1.390 . S
C346 H350 0.950 . S
H347 C343 0.950 1_554 S
C348 C346 1.390 . S
C348 C349 1.387 . S
C348 H351 0.950 . S
C349 C348 1.387 . S
C349 C352 1.387 . S
H350 C346 0.950 . S
H351 C348 0.950 . S
C352 C343 1.390 . S
C352 H345 0.950 . S
C352 C349 1.387 . S
C353 C354 1.387 1_556 S
C353 H357 0.950 . S
C353 C362 1.390 . S
C354 C353 1.387 1_554 S
C354 C356 1.387 . S
H355 C362 0.950 . S
C356 C354 1.387 . S
C356 C358 1.390 . S
C356 H360 0.950 . S
H357 C353 0.950 . S
C358 C356 1.390 . S
C358 C359 1.387 1_554 S
C358 H361 0.950 . S
C359 C358 1.387 1_556 S
C359 C362 1.387 . S
H360 C356 0.950 . S
H361 C358 0.950 . S
C362 C353 1.390 . S
C362 H355 0.950 . S
C362 C359 1.387 . S
C363 C364 1.387 . S
C363 H367 0.950 . S
C363 C372 1.390 1_554 S
C364 C363 1.387 . S
C364 C366 1.387 1_554 S
H365 C372 0.950 . S
C366 C364 1.387 1_556 S
C366 C368 1.390 . S
C366 H370 0.950 . S
H367 C363 0.950 . S
C368 C366 1.390 . S
C368 C369 1.387 . S
C368 H371 0.950 . S
C369 C368 1.387 . S
C369 C372 1.387 . S
H370 C366 0.950 . S
H371 C368 0.950 . S
C372 C363 1.390 1_556 S
C372 H365 0.950 . S
C372 C369 1.387 . S
C373 C374 1.387 . S
C373 H377 0.950 . S
C373 C382 1.390 . S
C374 C373 1.387 . S
C374 C376 1.387 . S
H375 C382 0.950 . S
C376 C374 1.387 . S
C376 C378 1.390 . S
C376 H380 0.950 1_556 S
H377 C373 0.950 . S
C378 C376 1.390 . S
C378 C379 1.387 . S
C378 H381 0.950 . S
C379 C378 1.387 . S
C379 C382 1.387 . S
H380 C376 0.950 1_554 S
H381 C378 0.950 . S
C382 C373 1.390 . S
C382 H375 0.950 . S
C382 C379 1.387 . S
C383 C384 1.387 . S
C383 H387 0.950 . S
C383 C392 1.390 . S
C384 C383 1.387 . S
C384 C386 1.387 . S
H385 C392 0.950 . S
C386 C384 1.387 . S
C386 C388 1.390 . S
C386 H390 0.950 . S
H387 C383 0.950 . S
C388 C386 1.390 . S
C388 C389 1.387 . S
C388 H391 0.950 . S
C389 C388 1.387 . S
C389 C392 1.387 . S
H390 C386 0.950 . S
H391 C388 0.950 . S
C392 C383 1.390 . S
C392 H385 0.950 . S
C392 C389 1.387 . S
C393 C394 1.387 . S
C393 H397 0.950 . S
C393 C402 1.390 . S
C394 C393 1.387 . S
C394 C396 1.387 . S
H395 C402 0.950 . S
C396 C394 1.387 . S
C396 C398 1.390 . S
C396 H400 0.950 . S
H397 C393 0.950 . S
C398 C396 1.390 . S
C398 C399 1.387 . S
C398 H401 0.950 . S
C399 C398 1.387 . S
C399 C402 1.387 . S
H400 C396 0.950 . S
H401 C398 0.950 . S
C402 C393 1.390 . S
C402 H395 0.950 . S
C402 C399 1.387 . S
C403 C404 1.387 . S
C403 H407 0.950 . S
C403 C412 1.390 . S
C404 C403 1.387 . S
C404 C406 1.387 . S
H405 C412 0.950 . S
C406 C404 1.387 . S
C406 C408 1.390 . S
C406 H410 0.950 . S
H407 C403 0.950 . S
C408 C406 1.390 . S
C408 C409 1.387 . S
C408 H411 0.950 . S
C409 C408 1.387 . S
C409 C412 1.387 . S
H410 C406 0.950 . S
H411 C408 0.950 . S
C412 C403 1.390 . S
C412 H405 0.950 . S
C412 C409 1.387 . S
C413 C414 1.387 . S
C413 H417 0.950 . S
C413 C422 1.390 . S
C414 C413 1.387 . S
C414 C416 1.387 . S
H415 C422 0.950 . S
C416 C414 1.387 . S
C416 C418 1.390 . S
C416 H420 0.950 . S
H417 C413 0.950 . S
C418 C416 1.390 . S
C418 C419 1.387 . S
C418 H421 0.950 . S
C419 C418 1.387 . S
C419 C422 1.387 . S
H420 C416 0.950 . S
H421 C418 0.950 . S
C422 C413 1.390 . S
C422 H415 0.950 . S
C422 C419 1.387 . S
C423 C424 1.387 . S
C423 H427 0.950 . S
C423 C432 1.390 . S
C424 C423 1.387 . S
C424 C426 1.387 . S
H425 C432 0.950 . S
C426 C424 1.387 . S
C426 C428 1.390 . S
C426 H430 0.950 . S
H427 C423 0.950 . S
C428 C426 1.390 . S
C428 C429 1.387 . S
C428 H431 0.950 . S
C429 C428 1.387 . S
C429 C432 1.387 . S
H430 C426 0.950 . S
H431 C428 0.950 . S
C432 C423 1.390 . S
C432 H425 0.950 . S
C432 C429 1.387 . S
C433 C434 1.387 . S
C433 H437 0.950 . S
C433 C442 1.390 . S
C434 C433 1.387 . S
C434 C436 1.387 . S
H435 C442 0.950 . S
C436 C434 1.387 . S
C436 C438 1.390 . S
C436 H440 0.950 . S
H437 C433 0.950 . S
C438 C436 1.390 . S
C438 C439 1.387 . S
C438 H441 0.950 . S
C439 C438 1.387 . S
C439 C442 1.387 . S
H440 C436 0.950 . S
H441 C438 0.950 . S
C442 C433 1.390 . S
C442 H435 0.950 . S
C442 C439 1.387 . S
C443 C444 1.387 . S
C443 H447 0.950 . S
C443 C452 1.390 . S
C444 C443 1.387 . S
C444 C446 1.387 . S
H445 C452 0.950 . S
C446 C444 1.387 . S
C446 C448 1.390 . S
C446 H450 0.950 . S
H447 C443 0.950 . S
C448 C446 1.390 . S
C448 C449 1.387 . S
C448 H451 0.950 . S
C449 C448 1.387 . S
C449 C452 1.387 . S
H450 C446 0.950 . S
H451 C448 0.950 . S
C452 C443 1.390 . S
C452 H445 0.950 . S
C452 C449 1.387 . S
C214 C12 1.884 . S
C219 C131 1.862 . S
C224 C32 1.642 . S
C229 C178 1.644 . S
C239 C182 1.736 . S
C234 C52 1.800 . S
C249 C147 1.577 . S
C244 C75 1.574 . S
C254 C95 1.812 . S
C259 C162 1.802 . S
C269 C184 1.339 . S
C264 C115 1.272 . S
C279 C153 1.606 . S
C274 C58 1.617 . S
C284 C69 1.521 . S
C289 C193 1.590 . S
C299 C122 1.506 . S
C294 C89 1.496 1_556 S
C304 C109 1.503 . S
C309 C151 1.508 . S
C314 C18 1.874 1_556 S
C319 C209 1.815 . S
C329 C120 1.568 . S
C324 C38 1.574 1_556 S
C339 C138 1.819 . S
C334 C78 1.841 . S
C349 C152 1.626 . S
C344 C98 1.622 1_556 S
C359 C206 1.714 . S
C354 C118 1.768 . S
C369 C121 1.559 . S
C364 C9 1.572 . S
C379 C169 1.755 . S
C374 C29 1.812 1_556 S
C384 C49 1.266 . S
C389 C192 1.307 . S
C399 C161 1.580 . S
C394 C112 1.581 . S
C409 C200 1.544 . S
C404 C15 1.517 . S
C419 C130 1.469 . S
C414 C35 1.495 . S
C429 C175 1.485 . S
C424 C55 1.496 . S
C434 C72 1.851 . S
C439 C183 1.795 . S
C444 C92 1.542 . S
C449 C144 1.543 . S
