# Generated by pormake.
# Topology zzz, (3,6)-cn, num edge types: 1
# Building blocks:
#     Node 0, Type 0, BuildingBlock: ESEHIV_clean_linker_0, # of connection points: 3
#     Node 1, Type 0, BuildingBlock: ESEHIV_clean_linker_0, # of connection points: 3
#     Node 2, Type 0, BuildingBlock: ESEHIV_clean_linker_0, # of connection points: 3
#     Node 3, Type 0, BuildingBlock: ESEHIV_clean_linker_0, # of connection points: 3
#     Node 4, Type 0, BuildingBlock: ESEHIV_clean_linker_0, # of connection points: 3
#     Node 5, Type 0, BuildingBlock: ESEHIV_clean_linker_0, # of connection points: 3
#     Node 6, Type 0, BuildingBlock: ESEHIV_clean_linker_0, # of connection points: 3
#     Node 7, Type 0, BuildingBlock: ESEHIV_clean_linker_0, # of connection points: 3
#     Node 8, Type 1, BuildingBlock: PAMTUU_clean_sbu_0, # of connection points: 6
#     Node 9, Type 1, BuildingBlock: PAMTUU_clean_sbu_0, # of connection points: 6
#     Node 10, Type 1, BuildingBlock: PAMTUU_clean_sbu_0, # of connection points: 6
#     Node 11, Type 1, BuildingBlock: PAMTUU_clean_sbu_0, # of connection points: 6
#     Edge 12, Type (0, 1), BuildingBlock: XIVTED_clean_linker_0, # of connection points: 2
#     Edge 13, Type (0, 1), BuildingBlock: XIVTED_clean_linker_0, # of connection points: 2
#     Edge 14, Type (0, 1), BuildingBlock: XIVTED_clean_linker_0, # of connection points: 2
#     Edge 15, Type (0, 1), BuildingBlock: XIVTED_clean_linker_0, # of connection points: 2
#     Edge 16, Type (0, 1), BuildingBlock: XIVTED_clean_linker_0, # of connection points: 2
#     Edge 17, Type (0, 1), BuildingBlock: XIVTED_clean_linker_0, # of connection points: 2
#     Edge 18, Type (0, 1), BuildingBlock: XIVTED_clean_linker_0, # of connection points: 2
#     Edge 19, Type (0, 1), BuildingBlock: XIVTED_clean_linker_0, # of connection points: 2
#     Edge 20, Type (0, 1), BuildingBlock: XIVTED_clean_linker_0, # of connection points: 2
#     Edge 21, Type (0, 1), BuildingBlock: XIVTED_clean_linker_0, # of connection points: 2
#     Edge 22, Type (0, 1), BuildingBlock: XIVTED_clean_linker_0, # of connection points: 2
#     Edge 23, Type (0, 1), BuildingBlock: XIVTED_clean_linker_0, # of connection points: 2
#     Edge 24, Type (0, 1), BuildingBlock: XIVTED_clean_linker_0, # of connection points: 2
#     Edge 25, Type (0, 1), BuildingBlock: XIVTED_clean_linker_0, # of connection points: 2
#     Edge 26, Type (0, 1), BuildingBlock: XIVTED_clean_linker_0, # of connection points: 2
#     Edge 27, Type (0, 1), BuildingBlock: XIVTED_clean_linker_0, # of connection points: 2
#     Edge 28, Type (0, 1), BuildingBlock: XIVTED_clean_linker_0, # of connection points: 2
#     Edge 29, Type (0, 1), BuildingBlock: XIVTED_clean_linker_0, # of connection points: 2
#     Edge 30, Type (0, 1), BuildingBlock: XIVTED_clean_linker_0, # of connection points: 2
#     Edge 31, Type (0, 1), BuildingBlock: XIVTED_clean_linker_0, # of connection points: 2
#     Edge 32, Type (0, 1), BuildingBlock: XIVTED_clean_linker_0, # of connection points: 2
#     Edge 33, Type (0, 1), BuildingBlock: XIVTED_clean_linker_0, # of connection points: 2
#     Edge 34, Type (0, 1), BuildingBlock: XIVTED_clean_linker_0, # of connection points: 2
#     Edge 35, Type (0, 1), BuildingBlock: XIVTED_clean_linker_0, # of connection points: 2
# Relax obj value: 0.422
# Max RMSD: 0.290
# Mean RMSD: 0.219
data_MOF--net-zzz--node1-PAMTUU_clean_sbu_0--node2-ESEHIV_clean_linker_0--edge1-XIVTED_clean_linker_0
_symmetry_space_group_name_H-M    P1
_symmetry_Int_Tables_number       1
_symmetry_cell_setting            triclinic
loop_
_symmetry_equiv_pos_as_xyz
'x, y, z'
_cell_length_a     43.780697
_cell_length_b     48.307747
_cell_length_c     16.401233
_cell_angle_alpha  100.84395
_cell_angle_beta   90.00817
_cell_angle_gamma 89.088922
loop_
_atom_site_label
_atom_site_type_symbol
_atom_site_fract_x
_atom_site_fract_y
_atom_site_fract_z
_atom_type_partial_charge
H0 H 0.79881 0.56299 0.47865 0.0
H1 H 0.71473 0.56792 0.34585 0.0
H2 H 0.73947 0.49224 0.43479 0.0
C3 C 0.77697 0.55448 0.45642 0.0
C4 C 0.7703 0.5273 0.46862 0.0
C5 C 0.75837 0.56865 0.40691 0.0
C6 C 0.73003 0.55686 0.3811 0.0
C7 C 0.72313 0.52913 0.38848 0.0
C8 C 0.74375 0.51403 0.43153 0.0
H9 H 0.05989 0.79206 0.43591 0.0
H10 H 0.05851 0.71992 0.23785 0.0
H11 H 0.99702 0.72542 0.44526 0.0
C12 C 0.05203 0.77107 0.41011 0.0
C13 C 0.02889 0.75955 0.45197 0.0
C14 C 0.0624 0.75742 0.33175 0.0
C15 C 0.05047 0.73102 0.29786 0.0
C16 C 0.02686 0.7194 0.33792 0.0
C17 C 1.01601 0.7337 0.41544 0.0
H18 H 0.75291 0.94026 0.45047 0.0
H19 H 0.83068 0.93593 0.28809 0.0
H20 H 0.80181 0.01531 0.43691 0.0
C21 C 0.77262 0.94982 0.42775 0.0
C22 C 0.77607 0.9788 0.4548 0.0
C23 C 0.79067 0.93441 0.36351 0.0
C24 C 0.81605 0.94765 0.33628 0.0
C25 C 0.82054 0.97674 0.36206 0.0
C26 C 0.79982 0.99263 0.42021 0.0
H27 H 0.51566 0.70447 0.21799 0.0
H28 H 0.56758 0.78011 0.24117 0.0
H29 H 0.50326 0.75867 0.04069 0.0
C30 C 0.52022 0.724 0.19704 0.0
C31 C 0.50662 0.72937 0.12414 0.0
C32 C 0.54189 0.7422 0.23981 0.0
C33 C 0.55009 0.76648 0.20974 0.0
C34 C 0.53618 0.77249 0.13723 0.0
C35 C 0.51415 0.75406 0.09608 0.0
H36 H 0.2437 0.42087 0.20347 0.0
H37 H 0.32929 0.42347 0.33248 0.0
H38 H 0.30622 0.48732 0.19078 0.0
C39 C 0.26613 0.42962 0.21699 0.0
C40 C 0.27384 0.45318 0.18272 0.0
C41 C 0.28493 0.41964 0.27513 0.0
C42 C 0.31378 0.43158 0.29081 0.0
C43 C 0.32126 0.45659 0.26431 0.0
C44 C 0.30102 0.46772 0.21035 0.0
H45 H 0.98365 0.21443 0.19816 0.0
H46 H 0.99408 0.28393 0.40123 0.0
H47 H 0.05426 0.27466 0.18989 0.0
C48 C 0.99419 0.2342 0.22509 0.0
C49 C 1.01847 0.24384 0.18256 0.0
C50 C 0.98561 0.24801 0.30486 0.0
C51 C 1.0007 0.27271 0.34001 0.0
C52 C 0.02553 0.28234 0.29956 0.0
C53 C 0.03454 0.26787 0.2204 0.0
H54 H 0.30139 0.07043 0.29782 0.0
H55 H 0.21373 0.07016 0.4147 0.0
H56 H 0.23395 0.0113 0.18853 0.0
C57 C 0.27817 0.06304 0.29734 0.0
C58 C 0.26935 0.04182 0.23106 0.0
C59 C 0.25896 0.07261 0.36584 0.0
C60 C 0.22922 0.06233 0.36373 0.0
C61 C 0.22016 0.03965 0.30251 0.0
C62 C 0.24051 0.02899 0.23582 0.0
H63 H 0.53355 0.26825 0.40012 0.0
H64 H 0.48273 0.19198 0.3798 0.0
H65 H 0.54298 0.21793 0.58787 0.0
C66 C 0.52868 0.24916 0.42323 0.0
C67 C 0.5407 0.24539 0.49942 0.0
C68 C 0.50821 0.22995 0.37928 0.0
C69 C 0.49947 0.2063 0.41206 0.0
C70 C 0.51187 0.2019 0.4883 0.0
C71 C 0.53302 0.22124 0.5299 0.0
Tb72 Tb 0.98489 0.00916 0.74391 0.0
Tb73 Tb 0.04267 -0.00335 0.85962 0.0
C74 C 0.97469 0.00101 0.92861 0.0
C75 C 0.9302 0.04646 0.62814 0.0
C76 C 0.91756 0.09691 0.57073 0.0
C77 C 0.92452 0.07185 0.51433 0.0
C78 C 0.93066 0.04683 0.54282 0.0
C79 C 0.92152 0.07111 0.6841 0.0
C80 C 0.91517 0.09601 0.65561 0.0
C81 C 0.94021 0.02084 0.65824 0.0
O82 O 0.99654 0.04963 0.81893 0.0
O83 O 0.04638 0.04082 0.85147 0.0
O84 O 0.05908 0.9901 0.73119 0.0
O85 O 0.0258 0.01901 0.67831 0.0
O86 O 0.0655 0.00225 0.97443 0.0
O87 O 0.08541 0.97694 0.86498 0.0
O88 O 1.01847 0.95714 0.82979 0.0
O89 O 0.99458 0.96421 0.71056 0.0
O90 O 0.96476 0.99574 0.85167 0.0
O91 O 1.00371 0.00621 0.9452 0.0
C92 C 0.02369 0.05841 0.84541 0.0
O93 O 0.96538 0.00866 0.62619 0.0
O94 O 0.93922 0.02212 0.73821 0.0
C95 C 0.05193 0.00498 0.67437 0.0
C96 C 0.09247 0.961 0.98879 0.0
C97 C 0.10407 0.91226 0.05474 0.0
C98 C 0.1268 0.93261 0.05691 0.0
C99 C 0.12107 0.9568 0.02342 0.0
C100 C 0.06946 0.94123 0.98952 0.0
C101 C 0.07522 0.91705 0.02198 0.0
C102 C 0.08726 0.98444 0.94518 0.0
C103 C 1.00425 0.94748 0.76001 0.0
H104 H 0.92683 0.07181 0.44858 0.0
H105 H 0.93696 0.02804 0.4984 0.0
H106 H 0.92053 0.0715 0.75029 0.0
H107 H 0.90932 0.11481 0.70049 0.0
H108 H 0.14917 0.92939 0.08208 0.0
H109 H 0.13911 0.97185 0.02283 0.0
H110 H 0.04723 0.9442 0.96324 0.0
H111 H 0.05709 0.90199 0.02113 0.0
Tb112 Tb 0.50744 0.97379 0.75542 0.0
Tb113 Tb 0.53733 0.00994 0.92009 0.0
C114 C 0.53553 0.94441 0.88622 0.0
C115 C 0.44613 0.96211 0.6201 0.0
C116 C 0.40206 0.00524 0.62119 0.0
C117 C 0.42079 -0.00368 0.55115 0.0
C118 C 0.44261 0.97489 0.55056 0.0
C119 C 0.42505 0.96889 0.68603 0.0
C120 C 0.40341 0.99039 0.68686 0.0
C121 C 0.47626 0.95024 0.63609 0.0
O122 O 0.47267 0.97988 0.85481 0.0
O123 O 0.48874 0.02087 0.93565 0.0
O124 O 0.52889 0.04189 0.84505 0.0
O125 O 0.49377 0.01725 0.75609 0.0
O126 O 0.53777 0.01755 0.05078 0.0
O127 O 0.57362 0.03298 0.98269 0.0
O128 O 0.5755 0.99325 0.83716 0.0
O129 O 0.5516 0.98555 0.7115 0.0
O130 O 0.53546 0.94356 0.80609 0.0
O131 O 0.52708 0.96755 0.93626 0.0
C132 C 0.46705 0.00256 0.91172 0.0
O133 O 0.49888 0.96666 0.62726 0.0
O134 O 0.47882 0.94029 0.70456 0.0
C135 C 0.50868 0.04043 0.7849 0.0
C136 C 0.58767 0.00579 0.08134 0.0
C137 C 0.62559 0.96414 0.13076 0.0
C138 C 0.61872 0.98955 0.18641 0.0
C139 C 0.59969 0.01026 0.16188 0.0
C140 C 0.59441 0.98036 0.02698 0.0
C141 C 0.61279 0.95977 0.05129 0.0
C142 C 0.56607 0.02553 0.05239 0.0
C143 C 0.57661 0.99008 0.75583 0.0
H144 H 0.41948 0.0067 0.49816 0.0
H145 H 0.45859 0.97018 0.49917 0.0
H146 H 0.42699 0.9595 0.74082 0.0
H147 H 0.38915 -0.00348 0.74142 0.0
H148 H 0.6285 0.99365 0.24808 0.0
H149 H 0.59444 0.02955 0.20533 0.0
H150 H 0.58508 0.97606 0.96531 0.0
H151 H 0.6169 0.94031 0.00744 0.0
Tb152 Tb 0.50079 0.47567 0.86806 0.0
Tb153 Tb 0.5525 0.50229 0.75637 0.0
C154 C 0.48606 0.48808 0.68517 0.0
C155 C 0.46721 0.42339 0.98155 0.0
C156 C 0.469 0.37282 0.04556 0.0
C157 C 0.45283 0.3968 0.08737 0.0
C158 C 0.45187 0.42176 0.05548 0.0
C159 C 0.48372 0.39968 0.94018 0.0
C160 C 0.48444 0.37468 0.97148 0.0
C161 C 0.4649 0.44939 0.94645 0.0
O162 O 0.53668 0.44432 0.83298 0.0
O163 O 0.55465 0.45699 0.71424 0.0
O164 O 0.57598 0.49104 0.86406 0.0
O165 O 0.53564 0.49545 0.95466 0.0
O166 O 0.57481 0.50482 0.6445 0.0
O167 O 0.58898 0.53021 0.76025 0.0
O168 O 0.52616 0.53762 0.82419 0.0
O169 O 0.48362 0.51821 0.87451 0.0
O170 O 0.48038 0.47401 0.74495 0.0
O171 O 0.511 0.50279 0.6833 0.0
C172 C 0.55129 0.43834 0.76203 0.0
O173 O 0.48091 0.47082 0.98193 0.0
O174 O 0.46646 0.44588 0.86589 0.0
C175 C 0.56525 0.4945 0.94038 0.0
C176 C 0.59074 0.55107 0.64233 0.0
C177 C 0.58911 0.60119 0.57684 0.0
C178 C 0.6168 0.58623 0.58078 0.0
C179 C 0.61758 0.56141 0.61337 0.0
C180 C 0.56306 0.56573 0.63808 0.0
C181 C 0.56223 0.59049 0.60558 0.0
C182 C 0.59174 0.52565 0.67972 0.0
C183 C 0.49874 0.53976 0.85788 0.0
H184 H 0.44115 0.39648 0.14535 0.0
H185 H 0.43904 0.43978 0.0885 0.0
H186 H 0.49579 0.40033 0.88292 0.0
H187 H 0.4968 0.35669 0.93669 0.0
H188 H 0.63797 0.59391 0.55991 0.0
H189 H 0.63919 0.55043 0.61661 0.0
H190 H 0.54208 0.55803 0.66012 0.0
H191 H 0.5404 0.60105 0.6021 0.0
Tb192 Tb 0.03658 0.51583 0.77311 0.0
Tb193 Tb 1.00693 0.47672 0.89012 0.0
C194 C 1.0061 0.54263 0.93803 0.0
C195 C 0.09668 0.53005 0.65113 0.0
C196 C 0.14066 0.48721 0.59902 0.0
C197 C 0.12183 0.49707 0.54068 0.0
C198 C 0.10005 0.51836 0.56652 0.0
C199 C 0.11792 0.52243 0.7079 0.0
C200 C 0.13949 0.50107 0.68224 0.0
C201 C 0.06647 0.54122 0.68201 0.0
O202 O 0.07066 0.51086 0.86846 0.0
O203 O 0.05591 0.46886 0.89989 0.0
O204 O 1.0173 0.4477 0.77507 0.0
O205 O 0.05365 0.47365 0.72392 0.0
O206 O 1.00225 0.46789 0.01025 0.0
O207 O 0.9758 0.44571 0.90839 0.0
O208 O 0.96858 0.49615 0.83443 0.0
O209 O 0.99218 0.50386 0.717 0.0
O210 O 1.00784 0.54434 0.85943 0.0
O211 O 1.01257 0.51891 0.96236 0.0
C212 C 0.07676 0.48816 0.89961 0.0
O213 O 0.0441 0.52458 0.65418 0.0
O214 O 0.06411 0.55033 0.76201 0.0
C215 C 0.03926 0.45 0.72229 0.0
C216 C 0.94933 0.46768 0.02945 0.0
C217 C 0.90657 0.5104 0.09584 0.0
C218 C 0.9047 0.49665 0.01256 0.0
C219 C 0.92552 0.47536 0.9801 0.0
C220 C 0.94985 0.47976 0.11425 0.0
C221 C 0.92859 0.50084 0.14725 0.0
C222 C 0.97726 0.45406 0.98877 0.0
C223 C 0.96711 0.50026 0.75756 0.0
H224 H 0.12297 0.48749 0.4755 0.0
H225 H 0.08393 0.52371 0.52156 0.0
H226 H 0.11607 0.53093 0.77373 0.0
H227 H 0.15378 0.4942 0.72877 0.0
H228 H 0.88822 0.50327 0.97066 0.0
H229 H 0.9243 0.46659 0.91438 0.0
H230 H 0.96798 0.47435 0.15368 0.0
H231 H 0.93007 0.51019 0.21247 0.0
H232 H 0.16182 0.05991 0.2939 0.0
H233 H 0.10548 0.97454 0.63805 0.0
H234 H 0.21307 0.99134 0.36364 0.0
H235 H 0.04979 0.03776 0.55262 0.0
H236 H 0.14291 0.97772 0.52978 0.0
H237 H 0.11819 0.04854 0.37481 0.0
C238 C 0.16338 0.0416 0.32307 0.0
C239 C 0.191 0.02615 0.3201 0.0
C240 C 0.12243 0.99078 0.53412 0.0
C241 C 0.1415 0.01389 0.41741 0.0
C242 C 0.10096 0.98906 0.59642 0.0
C243 C 0.07427 0.00602 0.60545 0.0
C244 C 0.1176 0.00979 0.47995 0.0
C245 C 0.06993 0.02428 0.54868 0.0
C246 C 0.13861 0.03541 0.37069 0.0
C247 C 0.19205 0.00336 0.36223 0.0
N248 N 0.09138 0.02582 0.48912 0.0
N249 N 0.16796 -0.00178 0.40996 0.0
H250 H 0.50457 0.1459 0.41695 0.0
H251 H 0.52203 0.09583 0.84511 0.0
H252 H 0.49813 0.20374 0.65157 0.0
H253 H 0.48287 0.04122 0.63346 0.0
H254 H 0.51637 0.13542 0.77219 0.0
H255 H 0.4982 0.1065 0.49093 0.0
C256 C 0.5013 0.15035 0.48362 0.0
C257 C 0.50262 0.17809 0.52829 0.0
C258 C 0.50873 0.1148 0.74214 0.0
C259 C 0.49603 0.13334 0.61303 0.0
C260 C 0.51205 0.09221 0.78366 0.0
C261 C 0.50301 0.06518 0.74537 0.0
C262 C 0.49694 0.11023 0.66104 0.0
C263 C 0.49013 0.06172 0.66549 0.0
C264 C 0.49782 0.1279 0.52581 0.0
C265 C 0.49824 0.18263 0.61479 0.0
N266 N 0.48789 0.0839 0.62544 0.0
N267 N 0.49571 0.16052 0.65438 0.0
H268 H 0.31825 0.49512 0.40682 0.0
H269 H 0.49575 0.49065 0.52062 0.0
H270 H 0.38287 0.45012 0.23066 0.0
H271 H 0.42378 0.48447 0.69529 0.0
H272 H 0.45714 0.48859 0.41012 0.0
H273 H 0.35955 0.50596 0.50845 0.0
C274 C 0.34144 0.48877 0.38806 0.0
C275 C 0.34719 0.47232 0.30922 0.0
C276 C 0.44989 0.48786 0.4728 0.0
C277 C 0.39457 0.48392 0.42646 0.0
C278 C 0.47186 0.48907 0.53593 0.0
C279 C 0.46306 0.48753 0.61747 0.0
C280 C 0.41877 0.48603 0.49174 0.0
C281 C 0.4317 0.48545 0.6334 0.0
C282 C 0.36489 0.49445 0.4467 0.0
C283 C 0.37755 0.46351 0.28979 0.0
N284 N 0.41077 0.485 0.57152 0.0
N285 N 0.40008 0.46932 0.348 0.0
H286 H 0.05776 0.28263 0.43982 0.0
H287 H 0.06257 0.45003 0.56742 0.0
H288 H 0.03041 0.33601 0.26897 0.0
H289 H 0.03449 0.39432 0.72954 0.0
H290 H 0.07026 0.40889 0.45509 0.0
H291 H 0.07087 0.32448 0.54198 0.0
C292 C 0.05567 0.3032 0.42284 0.0
C293 C 0.04286 0.30606 0.34646 0.0
C294 C 0.06287 0.4058 0.51573 0.0
C295 C 0.05725 0.35381 0.463 0.0
C296 C 0.05852 0.42913 0.57974 0.0
C297 C 0.04745 0.42548 0.65742 0.0
C298 C 0.05692 0.37876 0.53061 0.0
C299 C 0.04261 0.39804 0.67025 0.0
C300 C 0.06286 0.32699 0.48124 0.0
C301 C 0.04031 0.33308 0.3273 0.0
N302 N 0.04736 0.37572 0.60744 0.0
N303 N 0.04697 0.35612 0.386 0.0
H304 H 0.88273 0.97636 0.38201 0.0
H305 H 0.91202 0.00305 0.92229 0.0
H306 H 0.81201 0.00307 0.23043 0.0
H307 H 0.9859 -0.00094 0.0939 0.0
H308 H 0.87546 0.00259 0.03465 0.0
H309 H 0.92114 0.98532 0.28092 0.0
C310 C 0.87541 0.98507 0.32886 0.0
C311 C 0.84415 0.9897 0.31583 0.0
C312 C 0.89965 0.00195 0.04808 0.0
C313 C 0.88789 -0.00142 0.19715 0.0
C314 C 0.92066 0.00204 0.98357 0.0
C315 C 0.9523 0.00098 0.99798 0.0
C316 C 0.91006 0.00038 0.12824 0.0
C317 C 0.96182 -8e-05 0.07943 0.0
C318 C 0.89731 0.98986 0.27055 0.0
C319 C 0.83588 -6e-05 0.2441 0.0
N320 N 0.94087 -0.0006 0.14104 0.0
N321 N 0.85747 0.00369 0.18724 0.0
H322 H 0.54918 0.77406 0.97528 0.0
H323 H 0.54206 0.942 0.04977 0.0
H324 H 0.54226 0.82743 0.2171 0.0
H325 H 0.54443 0.88919 0.80615 0.0
H326 H 0.54933 0.90049 0.11166 0.0
H327 H 0.55484 0.81583 0.91305 0.0
C328 C 0.54913 0.79463 0.01539 0.0
C329 C 0.54469 0.79735 0.10143 0.0
C330 C 0.54844 0.89789 0.04467 0.0
C331 C 0.55117 0.84529 0.03043 0.0
C332 C 0.54424 0.92164 0.00901 0.0
C333 C 0.54224 0.91909 0.92237 0.0
C334 C 0.55038 0.87117 0.99365 0.0
C335 C 0.5456 0.89214 0.87314 0.0
C336 C 0.5524 0.81845 0.97977 0.0
C337 C 0.5455 0.8244 0.15056 0.0
N338 N 0.54919 0.86917 0.90955 0.0
N339 N 0.54825 0.84736 0.11424 0.0
H340 H 0.72598 0.48707 0.25154 0.0
H341 H 0.5538 0.5129 0.10732 0.0
H342 H 0.66216 0.54326 0.40248 0.0
H343 H 0.62658 0.48053 0.93698 0.0
H344 H 0.59017 0.51666 0.2227 0.0
H345 H 0.6865 0.47588 0.14429 0.0
C346 C 0.70329 0.49619 0.26351 0.0
C347 C 0.69725 0.51574 0.33682 0.0
C348 C 0.59815 0.50863 0.1601 0.0
C349 C 0.65207 0.50372 0.21303 0.0
C350 C 0.57737 0.50645 0.09401 0.0
C351 C 0.58704 0.49655 0.01173 0.0
C352 C 0.62889 0.50043 0.14452 0.0
C353 C 0.61799 0.48852 0.99896 0.0
C354 C 0.68089 0.4902 0.20162 0.0
C355 C 0.66766 0.52771 0.34756 0.0
N356 N 0.63768 0.49057 0.06433 0.0
N357 N 0.6463 0.52163 0.28643 0.0
H358 H 0.02349 0.66745 0.38176 0.0
H359 H 0.99044 0.59561 0.91334 0.0
H360 H 0.99835 0.71312 0.18952 0.0
H361 H 1.00743 0.54807 0.10734 0.0
H362 H 0.98597 0.6385 0.01852 0.0
H363 H 1.01 0.62323 0.28881 0.0
C364 C 1.01432 0.66815 0.32082 0.0
C365 C 1.01225 0.69371 0.29255 0.0
C366 C 0.99038 0.61866 0.03829 0.0
C367 C 0.99744 0.64362 0.18579 0.0
C368 C 0.993 0.59414 0.97808 0.0
C369 C 0.99993 0.56828 1.00131 0.0
C370 C 0.99504 0.6174 0.12239 0.0
C371 C 1.00255 0.56762 0.08638 0.0
C372 C 1.00683 0.64298 0.26758 0.0
C373 C 1.00049 0.69367 0.21302 0.0
N374 N 1.00055 0.59188 0.14375 0.0
N375 N 0.99394 0.669 0.16203 0.0
H376 H 0.98993 0.2469 0.47097 0.0
H377 H 0.89226 0.10938 0.42771 0.0
H378 H 0.93447 0.21637 0.25577 0.0
H379 H 0.94122 0.14692 0.64852 0.0
H380 H 0.89947 0.15248 0.37236 0.0
H381 H 0.96346 0.21604 0.54637 0.0
C382 C 0.97161 0.23432 0.43987 0.0
C383 C 0.96491 0.23399 0.35592 0.0
C384 C 0.90806 0.15146 0.43366 0.0
C385 C 0.93522 0.1974 0.44185 0.0
C386 C 0.90412 0.1268 0.46505 0.0
C387 C 0.91654 0.12432 0.54235 0.0
C388 C 0.92479 0.17364 0.47963 0.0
C389 C 0.93113 0.14779 0.5888 0.0
C390 C 0.95664 0.21635 0.48307 0.0
C391 C 0.9411 0.21674 0.31952 0.0
N392 N 0.93523 0.17124 0.55618 0.0
N393 N 0.92756 0.19867 0.36213 0.0
H394 H 0.24166 0.06917 0.52632 0.0
H395 H 0.4137 0.05522 0.57167 0.0
H396 H 0.30738 0.11014 0.39425 0.0
H397 H 0.34394 0.01262 0.68467 0.0
H398 H 0.37643 0.0921 0.5566 0.0
H399 H 0.27736 0.07074 0.63797 0.0
C400 C 0.26314 0.0794 0.52084 0.0
C401 C 0.27245 0.08711 0.44608 0.0
C402 C 0.36949 0.07506 0.58666 0.0
C403 C 0.3142 0.08722 0.5734 0.0
C404 C 0.39061 0.05376 0.59404 0.0
C405 C 0.38148 0.03011 0.62573 0.0
C406 C 0.339 0.07246 0.61024 0.0
C407 C 0.35183 0.03006 0.65788 0.0
C408 C 0.28386 0.08 0.5854 0.0
C409 C 0.30022 0.10142 0.44715 0.0
N410 N 0.33149 0.05056 0.64758 0.0
N411 N 0.32089 0.09969 0.50781 0.0
H412 H 0.53404 0.26391 0.66639 0.0
H413 H 0.56046 0.39823 0.85688 0.0
H414 H 0.58287 0.28142 0.45351 0.0
H415 H 0.56911 0.41236 0.60575 0.0
H416 H 0.57157 0.34837 0.80781 0.0
H417 H 0.5484 0.30927 0.74412 0.0
C418 C 0.54887 0.27682 0.6368 0.0
C419 C 0.55674 0.26898 0.55258 0.0
C420 C 0.57092 0.36226 0.76321 0.0
C421 C 0.57321 0.32164 0.64172 0.0
C422 C 0.56479 0.39082 0.79129 0.0
C423 C 0.56291 0.40928 0.73479 0.0
C424 C 0.5745 0.35202 0.67773 0.0
C425 C 0.56972 0.39873 0.65113 0.0
C426 C 0.55714 0.303 0.68159 0.0
C427 C 0.57558 0.28696 0.51765 0.0
N428 N 0.57466 0.37064 0.62483 0.0
N429 N 0.5825 0.31279 0.56174 0.0
H430 H 0.30127 0.41922 0.43928 0.0
H431 H 0.12868 0.4385 0.48829 0.0
H432 H 0.23638 0.38171 0.25398 0.0
H433 H 0.19852 0.4783 0.65386 0.0
H434 H 0.1653 0.40115 0.43126 0.0
H435 H 0.26387 0.41817 0.54508 0.0
C436 C 0.27956 0.40996 0.4196 0.0
C437 C 0.27103 0.40357 0.33531 0.0
C438 C 0.17237 0.41768 0.48152 0.0
C439 C 0.22748 0.40379 0.45822 0.0
C440 C 0.15164 0.43928 0.51313 0.0
C441 C 0.16098 0.46225 0.57331 0.0
C442 C 0.20266 0.41924 0.50988 0.0
C443 C 0.19044 0.46139 0.60628 0.0
C444 C 0.25786 0.40964 0.48132 0.0
C445 C 0.24299 0.3899 0.31737 0.0
N446 N 0.21038 0.44058 0.57293 0.0
N447 N 0.22142 0.39197 0.37786 0.0
H448 H 0.05838 0.75584 0.16399 0.0
H449 H 0.13038 0.90574 0.20203 0.0
H450 H 0.10847 0.79551 0.38074 0.0
H451 H 0.09094 0.85884 0.97805 0.0
H452 H 0.13141 0.86267 0.26089 0.0
H453 H 0.07968 0.78895 0.08694 0.0
C454 C 0.07454 0.77096 0.19521 0.0
C455 C 0.08104 0.77309 0.28005 0.0
C456 C 0.12308 0.86169 0.19826 0.0
C457 C 0.10457 0.81225 0.19198 0.0
C458 C 0.12255 0.88624 0.1647 0.0
C459 C 0.10989 0.88588 0.08597 0.0
C460 C 0.11079 0.8368 0.15261 0.0
C461 C 0.10013 0.86012 0.03993 0.0
C462 C 0.0865 0.79021 0.15099 0.0
C463 C 0.10194 0.7936 0.31631 0.0
N464 N 0.10038 0.83673 0.07437 0.0
N465 N 0.1124 0.81282 0.27265 0.0
H466 H 0.7954 0.91719 0.19277 0.0
H467 H 0.63177 0.94536 0.27861 0.0
H468 H 0.75329 0.89243 0.40488 0.0
H469 H 0.66925 0.93404 0.03086 0.0
H470 H 0.67244 0.91467 0.31547 0.0
H471 H 0.74933 0.90576 0.11499 0.0
C472 C 0.77697 0.90836 0.22306 0.0
C473 C 0.77688 0.9093 0.30933 0.0
C474 C 0.6712 0.91819 0.25227 0.0
C475 C 0.72352 0.89723 0.22066 0.0
C476 C 0.64828 0.93614 0.23173 0.0
C477 C 0.6475 0.94286 0.15222 0.0
C478 C 0.69384 0.90742 0.19335 0.0
C479 C 0.66897 0.92966 0.09317 0.0
C480 C 0.75016 0.90211 0.17813 0.0
C481 C 0.75303 0.89512 0.34084 0.0
N482 N 0.69156 0.91308 0.1154 0.0
N483 N 0.72621 0.89164 0.29871 0.0
H484 H 0.50772 0.71414 0.95458 0.0
H485 H 0.45943 0.56034 0.98628 0.0
H486 H 0.4655 0.6927 0.17203 0.0
H487 H 0.50784 0.58405 0.78151 0.0
H488 H 0.44655 0.6102 0.03786 0.0
H489 H 0.49123 0.66967 0.87384 0.0
C490 C 0.49416 0.70053 0.98517 0.0
C491 C 0.48892 0.70685 0.07116 0.0
C492 C 0.45939 0.60438 0.98061 0.0
C493 C 0.4711 0.65511 0.97911 0.0
C494 C 0.46671 0.57597 0.95122 0.0
C495 C 0.48545 0.56832 0.88105 0.0
C496 C 0.47086 0.62498 0.93906 0.0
C497 C 0.49409 0.58923 0.83732 0.0
C498 C 0.485 0.67487 0.9389 0.0
C499 C 0.47115 0.68817 0.10657 0.0
N500 N 0.4871 0.61663 0.86769 0.0
N501 N 0.46361 0.66275 0.06092 0.0
H502 H 0.74402 0.58055 0.25103 0.0
H503 H 0.91838 0.55784 0.21396 0.0
H504 H 0.80635 0.60641 0.45398 0.0
H505 H 0.84726 0.51911 0.05037 0.0
H506 H 0.88154 0.59421 0.27742 0.0
H507 H 0.78437 0.58414 0.15476 0.0
C508 C 0.76583 0.5878 0.27679 0.0
C509 C 0.77275 0.58937 0.36148 0.0
C510 C 0.87439 0.57814 0.22601 0.0
C511 C 0.81929 0.59256 0.24972 0.0
C512 C 0.89519 0.55701 0.19077 0.0
C513 C 0.88578 0.53466 0.12836 0.0
C514 C 0.84404 0.57702 0.19822 0.0
C515 C 0.85581 0.5356 0.09841 0.0
C516 C 0.78918 0.58962 0.22059 0.0
C517 C 0.80092 0.60146 0.38855 0.0
N518 N 0.83603 0.55613 0.13433 0.0
N519 N 0.824 0.60079 0.33275 0.0
H520 H 0.07191 0.21397 0.15352 0.0
H521 H 0.98588 0.10181 0.82107 0.0
H522 H 0.98668 0.23023 0.0388 0.0
H523 H 0.07227 0.08507 0.93074 0.0
H524 H 0.9913 0.15182 0.87855 0.0
H525 H 0.07882 0.17081 0.0491 0.0
C526 C 0.05537 0.20908 0.10396 0.0
C527 C 0.02867 0.22551 0.10456 0.0
C528 C 1.00928 0.1373 0.88932 0.0
C529 C 0.03567 0.17579 0.98727 0.0
C530 C 1.00613 0.10866 0.85676 0.0
C531 C 0.02837 0.08909 0.87241 0.0
C532 C 0.0347 0.14652 0.93886 0.0
C533 C 0.05436 0.09933 0.91788 0.0
C534 C 0.05905 0.18423 0.04508 0.0
C535 C 1.00758 0.21803 0.04016 0.0
N536 N 0.05658 0.12728 0.95057 0.0
N537 N 1.01122 0.19343 0.9851 0.0
H538 H 0.29836 0.07592 0.14264 0.0
H539 H 0.42208 0.96334 0.91547 0.0
H540 H 0.29486 0.98883 0.16743 0.0
H541 H 0.44045 0.05161 0.99736 0.0
H542 H 0.37141 0.97085 0.98179 0.0
H543 H 0.34506 0.06565 0.06022 0.0
C544 C 0.307 0.0544 0.12894 0.0
C545 C 0.29245 0.03325 0.1625 0.0
C546 C 0.38654 0.98854 0.98508 0.0
C547 C 0.34671 0.02132 0.06784 0.0
C548 C 0.4155 0.98434 0.94706 0.0
C549 C 0.43589 0.00686 0.95098 0.0
C550 C 0.37736 0.01563 0.02586 0.0
C551 C 0.42582 0.03354 0.99298 0.0
C552 C 0.33393 0.04863 0.08252 0.0
C553 C 0.30498 0.00577 0.14246 0.0
N554 N 0.39739 0.03717 0.02804 0.0
N555 N 0.33146 0.00063 0.09696 0.0
H556 H 0.53541 0.22787 0.22986 0.0
H557 H 0.4241 0.34969 0.12926 0.0
H558 H 0.45176 0.25277 0.36338 0.0
H559 H 0.51685 0.3348 0.04007 0.0
H560 H 0.42821 0.30762 0.19184 0.0
H561 H 0.52187 0.25836 0.13158 0.0
C562 C 0.51347 0.23878 0.23601 0.0
C563 C 0.49451 0.23765 0.30411 0.0
C564 C 0.4475 0.31345 0.15772 0.0
C565 C 0.47951 0.27368 0.19465 0.0
C566 C 0.44532 0.33766 0.12258 0.0
C567 C 0.47028 0.3462 0.07975 0.0
C568 C 0.47477 0.29745 0.14973 0.0
C569 C 0.49684 0.32913 0.07156 0.0
C570 C 0.50598 0.25659 0.18088 0.0
C571 C 0.46674 0.2528 0.31086 0.0
N572 N 0.49841 0.30578 0.10655 0.0
N573 N 0.4603 0.27064 0.25773 0.0
H574 H 0.24633 0.50598 0.18948 0.0
H575 H 0.10463 0.43908 0.9237 0.0
H576 H 0.24719 0.42129 0.04767 0.0
H577 H 0.11984 0.52846 0.95715 0.0
H578 H 0.15517 0.4329 0.98217 0.0
H579 H 0.19962 0.51615 0.11481 0.0
C580 C 0.23729 0.4898 0.14116 0.0
C581 C 0.25082 0.46269 0.12516 0.0
C582 C 0.14754 0.4539 0.97661 0.0
C583 C 0.19671 0.47383 0.04191 0.0
C584 C 0.11852 0.45746 0.94357 0.0
C585 C 0.10773 0.48434 0.93543 0.0
C586 C 0.16602 0.47741 1.00377 0.0
C587 C 0.12713 0.50732 0.96202 0.0
C588 C 0.21041 0.49551 0.09919 0.0
C589 C 0.23757 0.44243 0.06266 0.0
N590 N 0.15511 0.50339 0.99576 0.0
N591 N 0.21119 0.44822 0.02476 0.0
H592 H 0.05559 0.77665 0.60235 0.0
H593 H 0.96602 0.92002 0.64069 0.0
H594 H 0.97359 0.78614 0.46468 0.0
H595 H 0.03308 0.90476 0.82078 0.0
H596 H 0.9638 0.86938 0.58819 0.0
H597 H 0.04264 0.82036 0.69867 0.0
C598 C 0.03413 0.78735 0.59483 0.0
C599 C 1.01555 0.77788 0.52593 0.0
C600 C 0.97866 0.87701 0.64006 0.0
C601 C 1.00133 0.82854 0.63286 0.0
C602 C 0.98009 0.90599 0.66973 0.0
C603 C 1.00017 0.91671 0.73427 0.0
C604 C 0.99784 0.85857 0.67408 0.0
C605 C 1.01749 0.89747 0.77035 0.0
C606 C 0.02689 0.81248 0.64913 0.0
C607 C 0.98833 0.79271 0.51758 0.0
N608 N 1.01633 0.86937 0.73878 0.0
N609 N 0.98239 0.81772 0.56919 0.0
H610 H 0.7702 0.98503 0.62341 0.0
H611 H 0.58776 0.99186 0.59139 0.0
H612 H 0.72275 0.00051 0.40637 0.0
H613 H 0.63468 0.99277 0.82312 0.0
H614 H 0.63699 -0.00411 0.52401 0.0
H615 H 0.72165 0.99059 0.70036 0.0
C616 C 0.74979 0.99097 0.59309 0.0
C617 C 0.75085 0.99325 0.50893 0.0
C618 C 0.63658 0.99531 0.58968 0.0
C619 C 0.6945 -0.00216 0.59527 0.0
C620 C 0.60837 0.99281 0.62828 0.0
C621 C 0.60679 0.99179 0.71337 0.0
C622 C 0.66379 -0.0034 0.63588 0.0
C623 C 0.63454 0.99337 0.75748 0.0
C624 C 0.72189 0.99359 0.63659 0.0
C625 C 0.72325 -0.00048 0.47177 0.0
N626 N 0.66174 0.99551 0.71831 0.0
N627 N 0.69631 0.00118 0.51457 0.0
H628 H 0.59849 0.71834 0.24027 0.0
H629 H 0.55475 0.64933 0.63034 0.0
H630 H 0.51911 0.74218 0.39383 0.0
H631 H 0.62097 0.61347 0.44349 0.0
H632 H 0.54943 0.69036 0.56401 0.0
H633 H 0.61574 0.68796 0.33611 0.0
C634 C 0.58544 0.71811 0.29626 0.0
C635 C 0.55758 0.73294 0.31002 0.0
C636 C 0.56535 0.67364 0.53802 0.0
C637 C 0.57641 0.6976 0.41796 0.0
C638 C 0.56824 0.65005 0.57548 0.0
C639 C 0.58795 0.62755 0.54176 0.0
C640 C 0.58232 0.67491 0.46622 0.0
C641 C 0.60551 0.63022 0.47194 0.0
C642 C 0.59499 0.70045 0.35019 0.0
C643 C 0.54094 0.73131 0.38193 0.0
N644 N 0.60205 0.6533 0.43608 0.0
N645 N 0.55041 0.71366 0.43271 0.0
H646 H 0.82005 0.49796 0.39706 0.0
H647 H 0.90979 0.50585 0.82909 0.0
H648 H 0.7778 0.52774 0.63483 0.0
H649 H 0.95449 0.49637 0.59107 0.0
H650 H 0.86017 0.50681 0.75994 0.0
H651 H 0.86762 0.48877 0.46743 0.0
C652 C 0.82041 0.5014 0.46427 0.0
C653 C 0.79457 0.51284 0.51009 0.0
C654 C 0.88082 0.50442 0.72277 0.0
C655 C 0.84957 0.50353 0.59163 0.0
C656 C 0.90925 0.50383 0.76229 0.0
C657 C 0.9366 0.50108 0.71621 0.0
C658 C 0.87945 0.50192 0.63598 0.0
C659 C 0.93419 0.49871 0.62957 0.0
C660 C 0.84778 0.49667 0.5045 0.0
C661 C 0.79685 0.51814 0.59714 0.0
N662 N 0.90628 0.49912 0.59253 0.0
N663 N 0.82381 0.51359 0.63497 0.0
loop_
_geom_bond_atom_site_label_1
_geom_bond_atom_site_label_2
_geom_bond_distance
_geom_bond_site_symmetry_2
_ccdc_geom_bond_type
H0 C3 0.931 . S
H1 C6 0.928 . S
H2 C8 0.930 . S
C3 H0 0.931 . S
C3 C4 1.413 . S
C3 C5 1.360 . S
C4 C3 1.413 . S
C4 C8 1.429 . S
C5 C3 1.360 . S
C5 C6 1.372 . S
C6 H1 0.928 . S
C6 C5 1.372 . S
C6 C7 1.404 . S
C7 C6 1.404 . S
C7 C8 1.391 . S
C8 H2 0.930 . S
C8 C4 1.429 . S
C8 C7 1.391 . S
H9 C12 0.931 . S
H10 C15 0.928 . S
H11 C17 0.930 . S
C12 H9 0.931 . S
C12 C13 1.413 . S
C12 C14 1.360 . S
C13 C12 1.413 . S
C13 C17 1.429 1_655 S
C14 C12 1.360 . S
C14 C15 1.373 . S
C15 H10 0.928 . S
C15 C14 1.373 . S
C15 C16 1.404 . S
C16 C15 1.404 . S
C16 C17 1.390 1_655 S
C17 H11 0.930 . S
C17 C13 1.429 1_455 S
C17 C16 1.390 1_455 S
H18 C21 0.930 . S
H19 C24 0.928 . S
H20 C26 0.933 . S
C21 H18 0.930 . S
C21 C22 1.414 . S
C21 C23 1.360 . S
C22 C21 1.414 . S
C22 C26 1.429 1_565 S
C23 C21 1.360 . S
C23 C24 1.371 . S
C24 H19 0.928 . S
C24 C23 1.371 . S
C24 C25 1.402 . S
C25 C24 1.402 . S
C25 C26 1.393 1_565 S
C26 H20 0.933 . S
C26 C22 1.429 1_545 S
C26 C25 1.393 1_545 S
H27 C30 0.931 . S
H28 C33 0.928 . S
H29 C35 0.930 . S
C30 H27 0.931 . S
C30 C31 1.413 1_554 S
C30 C32 1.360 . S
C31 C30 1.413 1_556 S
C31 C35 1.429 . S
C32 C30 1.360 . S
C32 C33 1.372 . S
C33 H28 0.928 . S
C33 C32 1.372 . S
C33 C34 1.404 1_554 S
C34 C33 1.404 1_556 S
C34 C35 1.391 . S
C35 H29 0.930 . S
C35 C31 1.429 . S
C35 C34 1.391 . S
H36 C39 0.931 . S
H37 C42 0.928 . S
H38 C44 0.930 . S
C39 H36 0.931 . S
C39 C40 1.413 . S
C39 C41 1.360 . S
C40 C39 1.413 . S
C40 C44 1.429 . S
C41 C39 1.360 . S
C41 C42 1.372 . S
C42 H37 0.928 . S
C42 C41 1.372 . S
C42 C43 1.404 . S
C43 C42 1.404 . S
C43 C44 1.391 . S
C44 H38 0.930 . S
C44 C40 1.429 . S
C44 C43 1.391 . S
H45 C48 0.930 . S
H46 C51 0.928 . S
H47 C53 0.929 . S
C48 H45 0.930 . S
C48 C49 1.413 . S
C48 C50 1.360 . S
C49 C48 1.413 . S
C49 C53 1.429 1_655 S
C50 C48 1.360 . S
C50 C51 1.372 . S
C51 H46 0.928 . S
C51 C50 1.372 . S
C51 C52 1.404 . S
C52 C51 1.404 . S
C52 C53 1.391 1_655 S
C53 H47 0.929 . S
C53 C49 1.429 1_455 S
C53 C52 1.391 1_455 S
H54 C57 0.931 . S
H55 C60 0.928 . S
H56 C62 0.926 . S
C57 H54 0.931 . S
C57 C58 1.412 . S
C57 C59 1.360 . S
C58 C57 1.412 . S
C58 C62 1.430 1_565 S
C59 C57 1.360 . S
C59 C60 1.373 . S
C60 H55 0.928 . S
C60 C59 1.373 . S
C60 C61 1.405 . S
C61 C60 1.405 . S
C61 C62 1.388 1_565 S
C62 H56 0.926 . S
C62 C58 1.430 1_545 S
C62 C61 1.388 1_545 S
H63 C66 0.931 . S
H64 C69 0.928 . S
H65 C71 0.930 . S
C66 H63 0.931 . S
C66 C67 1.413 . S
C66 C68 1.360 . S
C67 C66 1.413 . S
C67 C71 1.429 . S
C68 C66 1.360 . S
C68 C69 1.372 . S
C69 H64 0.928 . S
C69 C68 1.372 . S
C69 C70 1.404 . S
C70 C69 1.404 . S
C70 C71 1.391 . S
C71 H65 0.930 . S
C71 C67 1.429 . S
C71 C70 1.391 . S
Tb72 C81 2.764 . S
Tb72 O82 2.325 . S
Tb72 O85 2.303 1_655 S
Tb72 O89 2.322 1_545 S
Tb72 O90 2.349 . S
Tb72 O93 2.415 . S
Tb72 O94 2.399 . S
Tb73 O83 2.322 1_565 S
Tb73 O84 2.349 . S
Tb73 O86 2.415 . S
Tb73 O87 2.399 . S
Tb73 O88 2.325 . S
Tb73 O91 2.303 1_455 S
Tb73 C102 2.764 . S
C74 O90 1.261 . S
C74 O91 1.257 1_545 S
C75 C78 1.358 . S
C75 C79 1.332 . S
C75 C81 1.504 . S
C76 C77 1.373 . S
C76 C80 1.308 . S
C77 C76 1.373 . S
C77 C78 1.429 . S
C77 H104 0.932 . S
C78 C75 1.358 . S
C78 C77 1.429 . S
C78 H105 0.930 . S
C79 C75 1.332 . S
C79 C80 1.394 . S
C79 H106 0.908 1_655 S
C80 C76 1.308 . S
C80 C79 1.394 . S
C80 H107 0.929 . S
C81 Tb72 2.764 . S
C81 C75 1.504 . S
C81 O93 1.239 . S
C81 O94 1.263 . S
O82 Tb72 2.325 . S
O82 C92 1.236 1_655 S
O83 Tb73 2.322 1_545 S
O83 C92 1.257 . S
O84 Tb73 2.349 . S
O84 C95 1.261 . S
O85 Tb72 2.303 1_455 S
O85 C95 1.257 1_545 S
O86 Tb73 2.415 . S
O86 C102 1.239 . S
O87 Tb73 2.399 . S
O87 C102 1.263 . S
O88 Tb73 2.325 . S
O88 C103 1.236 1_455 S
O89 Tb72 2.322 1_565 S
O89 C103 1.257 . S
O90 Tb72 2.349 . S
O90 C74 1.261 . S
O91 Tb73 2.303 1_655 S
O91 C74 1.257 1_565 S
C92 O82 1.236 1_455 S
C92 O83 1.257 . S
O93 Tb72 2.415 . S
O93 C81 1.239 . S
O94 Tb72 2.399 . S
O94 C81 1.263 . S
C95 O84 1.261 . S
C95 O85 1.257 1_565 S
C96 C99 1.358 1_556 S
C96 C100 1.332 1_556 S
C96 C102 1.504 . S
C97 C98 1.373 . S
C97 C101 1.308 . S
C98 C97 1.373 . S
C98 C99 1.429 . S
C98 H108 0.932 . S
C99 C96 1.358 1_554 S
C99 C98 1.429 . S
C99 H109 0.930 1_554 S
C100 C96 1.332 1_554 S
C100 C101 1.394 . S
C100 H110 0.916 1_455 S
C101 C97 1.308 . S
C101 C100 1.394 . S
C101 H111 0.929 . S
C102 Tb73 2.764 . S
C102 O86 1.239 . S
C102 O87 1.263 . S
C102 C96 1.504 . S
C103 O88 1.236 1_655 S
C103 O89 1.257 . S
H104 C77 0.932 . S
H105 C78 0.930 . S
H106 C79 0.908 1_455 S
H107 C80 0.929 . S
H108 C98 0.932 . S
H109 C99 0.930 1_556 S
H110 C100 0.916 1_655 S
H111 C101 0.929 . S
Tb112 C121 2.764 . S
Tb112 O122 2.325 . S
Tb112 O125 2.303 1_565 S
Tb112 O129 2.322 . S
Tb112 O130 2.349 . S
Tb112 O133 2.415 1_565 S
Tb112 O134 2.399 . S
Tb113 O123 2.322 . S
Tb113 O124 2.349 . S
Tb113 O126 2.415 1_545 S
Tb113 O127 2.405 . S
Tb113 O128 2.325 . S
Tb113 O131 2.303 1_545 S
Tb113 C142 2.764 1_556 S
C114 O130 1.261 . S
C114 O131 1.257 . S
C115 C118 1.358 . S
C115 C119 1.312 1_565 S
C115 C121 1.504 . S
C116 C117 1.373 . S
C116 C120 1.308 . S
C117 C116 1.373 . S
C117 C118 1.429 . S
C117 H144 0.932 . S
C118 C115 1.358 . S
C118 C117 1.429 . S
C118 H145 0.930 . S
C119 C115 1.312 1_545 S
C119 C120 1.395 1_545 S
C119 H146 0.952 . S
C120 C116 1.308 . S
C120 C119 1.395 1_565 S
C120 H147 0.929 1_565 S
C121 Tb112 2.764 . S
C121 C115 1.504 . S
C121 O133 1.239 1_565 S
C121 O134 1.263 . S
O122 Tb112 2.325 . S
O122 C132 1.236 1_565 S
O123 Tb113 2.322 . S
O123 C132 1.257 . S
O124 Tb113 2.349 . S
O124 C135 1.261 . S
O125 Tb112 2.303 1_545 S
O125 C135 1.257 . S
O126 Tb113 2.415 1_565 S
O126 C142 1.239 1_566 S
O127 Tb113 2.405 . S
O127 C142 1.259 1_556 S
O128 Tb113 2.325 . S
O128 C143 1.236 1_545 S
O129 Tb112 2.322 . S
O129 C143 1.257 . S
O130 Tb112 2.349 . S
O130 C114 1.261 . S
O131 Tb113 2.303 1_565 S
O131 C114 1.257 . S
C132 O122 1.236 1_545 S
C132 O123 1.257 . S
O133 Tb112 2.415 1_545 S
O133 C121 1.239 1_545 S
O134 Tb112 2.399 . S
O134 C121 1.263 . S
C135 O124 1.261 . S
C135 O125 1.257 . S
C136 C139 1.358 . S
C136 C140 1.320 1_545 S
C136 C142 1.504 . S
C137 C138 1.373 . S
C137 C141 1.308 . S
C138 C137 1.373 . S
C138 C139 1.429 . S
C138 H148 0.932 . S
C139 C136 1.358 . S
C139 C138 1.429 . S
C139 H149 0.930 . S
C140 C136 1.320 1_565 S
C140 C141 1.395 1_565 S
C140 H150 0.944 . S
C141 C137 1.308 . S
C141 C140 1.395 1_545 S
C141 H151 0.929 1_545 S
C142 Tb113 2.764 1_554 S
C142 O126 1.239 1_544 S
C142 O127 1.259 1_554 S
C142 C136 1.504 . S
C143 O128 1.236 1_565 S
C143 O129 1.257 . S
H144 C117 0.932 . S
H145 C118 0.930 . S
H146 C119 0.952 . S
H147 C120 0.929 1_545 S
H148 C138 0.932 . S
H149 C139 0.930 . S
H150 C140 0.944 . S
H151 C141 0.929 1_565 S
Tb152 C161 2.764 1_556 S
Tb152 O162 2.325 . S
Tb152 O165 2.303 . S
Tb152 O169 2.322 . S
Tb152 O170 2.349 . S
Tb152 O173 2.415 1_556 S
Tb152 O174 2.399 . S
Tb153 O163 2.322 . S
Tb153 O164 2.349 . S
Tb153 O166 2.415 . S
Tb153 O167 2.399 . S
Tb153 O168 2.325 . S
Tb153 O171 2.303 . S
Tb153 C182 2.764 . S
C154 O170 1.261 . S
C154 O171 1.257 . S
C155 C158 1.358 . S
C155 C159 1.332 . S
C155 C161 1.504 . S
C156 C157 1.373 . S
C156 C160 1.308 . S
C157 C156 1.373 . S
C157 C158 1.429 . S
C157 H184 0.932 . S
C158 C155 1.358 . S
C158 C157 1.429 . S
C158 H185 0.930 . S
C159 C155 1.332 . S
C159 C160 1.394 . S
C159 H186 0.932 . S
C160 C156 1.308 . S
C160 C159 1.394 . S
C160 H187 0.929 . S
C161 Tb152 2.764 1_554 S
C161 C155 1.504 . S
C161 O173 1.239 . S
C161 O174 1.263 1_554 S
O162 Tb152 2.325 . S
O162 C172 1.236 . S
O163 Tb153 2.322 . S
O163 C172 1.257 . S
O164 Tb153 2.349 . S
O164 C175 1.261 . S
O165 Tb152 2.303 . S
O165 C175 1.257 . S
O166 Tb153 2.415 . S
O166 C182 1.239 . S
O167 Tb153 2.399 . S
O167 C182 1.263 . S
O168 Tb153 2.325 . S
O168 C183 1.236 . S
O169 Tb152 2.322 . S
O169 C183 1.257 . S
O170 Tb152 2.349 . S
O170 C154 1.261 . S
O171 Tb153 2.303 . S
O171 C154 1.257 . S
C172 O162 1.236 . S
C172 O163 1.257 . S
O173 Tb152 2.415 1_554 S
O173 C161 1.239 . S
O174 Tb152 2.399 . S
O174 C161 1.263 1_556 S
C175 O164 1.261 . S
C175 O165 1.257 . S
C176 C179 1.358 . S
C176 C180 1.332 . S
C176 C182 1.504 . S
C177 C178 1.373 . S
C177 C181 1.308 . S
C178 C177 1.373 . S
C178 C179 1.429 . S
C178 H188 0.932 . S
C179 C176 1.358 . S
C179 C178 1.429 . S
C179 H189 0.930 . S
C180 C176 1.332 . S
C180 C181 1.394 . S
C180 H190 0.932 . S
C181 C177 1.308 . S
C181 C180 1.394 . S
C181 H191 0.929 . S
C182 Tb153 2.764 . S
C182 O166 1.239 . S
C182 O167 1.263 . S
C182 C176 1.504 . S
C183 O168 1.236 . S
C183 O169 1.257 . S
H184 C157 0.932 . S
H185 C158 0.930 . S
H186 C159 0.932 . S
H187 C160 0.929 . S
H188 C178 0.932 . S
H189 C179 0.930 . S
H190 C180 0.932 . S
H191 C181 0.929 . S
Tb192 C201 2.764 . S
Tb192 O202 2.325 . S
Tb192 O205 2.303 . S
Tb192 O209 2.322 1_455 S
Tb192 O210 2.349 . S
Tb192 O213 2.415 . S
Tb192 O214 2.399 . S
Tb193 O203 2.322 1_655 S
Tb193 O204 2.349 . S
Tb193 O206 2.415 . S
Tb193 O207 2.399 . S
Tb193 O208 2.325 . S
Tb193 O211 2.303 . S
Tb193 C222 2.764 . S
C194 O210 1.261 . S
C194 O211 1.257 1_455 S
C195 C198 1.358 . S
C195 C199 1.332 . S
C195 C201 1.504 . S
C196 C197 1.373 . S
C196 C200 1.308 . S
C197 C196 1.373 . S
C197 C198 1.429 . S
C197 H224 0.932 . S
C198 C195 1.358 . S
C198 C197 1.429 . S
C198 H225 0.930 . S
C199 C195 1.332 . S
C199 C200 1.394 . S
C199 H226 0.932 . S
C200 C196 1.308 . S
C200 C199 1.394 . S
C200 H227 0.929 . S
C201 Tb192 2.764 . S
C201 C195 1.504 . S
C201 O213 1.239 . S
C201 O214 1.263 . S
O202 Tb192 2.325 . S
O202 C212 1.236 . S
O203 Tb193 2.322 1_455 S
O203 C212 1.257 . S
O204 Tb193 2.349 . S
O204 C215 1.261 . S
O205 Tb192 2.303 . S
O205 C215 1.257 1_455 S
O206 Tb193 2.415 . S
O206 C222 1.239 . S
O207 Tb193 2.399 . S
O207 C222 1.263 . S
O208 Tb193 2.325 . S
O208 C223 1.236 . S
O209 Tb192 2.322 1_655 S
O209 C223 1.257 . S
O210 Tb192 2.349 . S
O210 C194 1.261 . S
O211 Tb193 2.303 . S
O211 C194 1.257 1_655 S
C212 O202 1.236 . S
C212 O203 1.257 . S
O213 Tb192 2.415 . S
O213 C201 1.239 . S
O214 Tb192 2.399 . S
O214 C201 1.263 . S
C215 O204 1.261 . S
C215 O205 1.257 1_655 S
C216 C219 1.358 . S
C216 C220 1.332 . S
C216 C222 1.504 1_554 S
C217 C218 1.373 . S
C217 C221 1.308 . S
C218 C217 1.373 . S
C218 C219 1.429 . S
C218 H228 0.932 . S
C219 C216 1.358 . S
C219 C218 1.429 . S
C219 H229 0.930 . S
C220 C216 1.332 . S
C220 C221 1.394 . S
C220 H230 0.932 . S
C221 C217 1.308 . S
C221 C220 1.394 . S
C221 H231 0.929 . S
C222 Tb193 2.764 . S
C222 O206 1.239 . S
C222 O207 1.263 . S
C222 C216 1.504 1_556 S
C223 O208 1.236 . S
C223 O209 1.257 . S
H224 C197 0.932 . S
H225 C198 0.930 . S
H226 C199 0.932 . S
H227 C200 0.929 . S
H228 C218 0.932 . S
H229 C219 0.930 . S
H230 C220 0.932 . S
H231 C221 0.929 . S
H232 C238 0.930 . S
H233 C242 0.930 . S
H234 C247 0.929 . S
H235 C245 0.929 . S
H236 C240 0.929 . S
H237 C246 0.929 . S
C238 H232 0.930 . S
C238 C239 1.386 . S
C238 C246 1.378 . S
C239 C238 1.386 . S
C239 C247 1.408 1_545 S
C240 H236 0.929 . S
C240 C242 1.378 . S
C240 C244 1.350 1_565 S
C241 C244 1.463 . S
C241 C246 1.350 . S
C241 N249 1.427 1_545 S
C242 H233 0.930 . S
C242 C240 1.378 . S
C242 C243 1.367 1_565 S
C243 C242 1.367 1_545 S
C243 C245 1.433 . S
C244 C240 1.350 1_545 S
C244 C241 1.463 . S
C244 N248 1.427 . S
C245 H235 0.929 . S
C245 C243 1.433 . S
C245 N248 1.384 . S
C246 H237 0.929 . S
C246 C238 1.378 . S
C246 C241 1.350 . S
C247 H234 0.929 . S
C247 C239 1.408 1_565 S
C247 N249 1.384 . S
N248 C244 1.427 . S
N248 C245 1.384 . S
N249 C241 1.427 1_565 S
N249 C247 1.384 . S
H250 C256 0.930 . S
H251 C260 0.930 . S
H252 C265 0.929 . S
H253 C263 0.929 . S
H254 C258 0.929 . S
H255 C264 0.929 . S
C256 H250 0.930 . S
C256 C257 1.367 . S
C256 C264 1.378 . S
C257 C256 1.367 . S
C257 C265 1.433 . S
C258 H254 0.929 . S
C258 C260 1.378 . S
C258 C262 1.350 . S
C259 C262 1.463 . S
C259 C264 1.350 . S
C259 N267 1.427 . S
C260 H251 0.930 . S
C260 C258 1.378 . S
C260 C261 1.367 . S
C261 C260 1.367 . S
C261 C263 1.433 . S
C262 C258 1.350 . S
C262 C259 1.463 . S
C262 N266 1.427 . S
C263 H253 0.929 . S
C263 C261 1.433 . S
C263 N266 1.384 . S
C264 H255 0.929 . S
C264 C256 1.378 . S
C264 C259 1.350 . S
C265 H252 0.929 . S
C265 C257 1.433 . S
C265 N267 1.384 . S
N266 C262 1.427 . S
N266 C263 1.384 . S
N267 C259 1.427 . S
N267 C265 1.384 . S
H268 C274 0.930 . S
H269 C278 0.930 . S
H270 C283 0.929 . S
H271 C281 0.929 . S
H272 C276 0.929 . S
H273 C282 0.929 . S
C274 H268 0.930 . S
C274 C275 1.367 . S
C274 C282 1.378 . S
C275 C274 1.367 . S
C275 C283 1.433 . S
C276 H272 0.929 . S
C276 C278 1.378 . S
C276 C280 1.350 . S
C277 C280 1.463 . S
C277 C282 1.350 . S
C277 N285 1.427 . S
C278 H269 0.930 . S
C278 C276 1.378 . S
C278 C279 1.367 . S
C279 C278 1.367 . S
C279 C281 1.433 . S
C280 C276 1.350 . S
C280 C277 1.463 . S
C280 N284 1.427 . S
C281 H271 0.929 . S
C281 C279 1.433 . S
C281 N284 1.384 . S
C282 H273 0.929 . S
C282 C274 1.378 . S
C282 C277 1.350 . S
C283 H270 0.929 . S
C283 C275 1.433 . S
C283 N285 1.384 . S
N284 C280 1.427 . S
N284 C281 1.384 . S
N285 C277 1.427 . S
N285 C283 1.384 . S
H286 C292 0.930 . S
H287 C296 0.930 1_655 S
H288 C301 0.931 . S
H289 C299 0.929 . S
H290 C294 0.928 1_655 S
H291 C300 0.929 . S
C292 H286 0.930 . S
C292 C293 1.367 . S
C292 C300 1.378 . S
C293 C292 1.367 . S
C293 C301 1.433 1_455 S
C294 H290 0.928 1_455 S
C294 C296 1.378 . S
C294 C298 1.350 . S
C295 C298 1.463 . S
C295 C300 1.350 . S
C295 N303 1.427 1_455 S
C296 H287 0.930 1_455 S
C296 C294 1.378 . S
C296 C297 1.368 . S
C297 C296 1.368 . S
C297 C299 1.433 . S
C298 C294 1.350 . S
C298 C295 1.463 . S
C298 N302 1.427 . S
C299 H289 0.929 . S
C299 C297 1.433 . S
C299 N302 1.384 . S
C300 H291 0.929 . S
C300 C292 1.378 . S
C300 C295 1.350 . S
C301 H288 0.931 . S
C301 C293 1.433 1_655 S
C301 N303 1.383 . S
N302 C298 1.427 . S
N302 C299 1.384 . S
N303 C295 1.427 1_655 S
N303 C301 1.383 . S
H304 C310 0.930 . S
H305 C314 0.930 . S
H306 C319 0.929 . S
H307 C317 0.929 . S
H308 C312 0.929 . S
H309 C318 0.929 . S
C310 H304 0.930 . S
C310 C311 1.368 . S
C310 C318 1.378 . S
C311 C310 1.368 . S
C311 C319 1.430 1_565 S
C312 H308 0.929 . S
C312 C314 1.378 1_554 S
C312 C316 1.350 1_545 S
C313 C316 1.463 . S
C313 C318 1.350 . S
C313 N321 1.427 1_565 S
C314 H305 0.930 . S
C314 C312 1.378 1_556 S
C314 C315 1.367 1_545 S
C315 C314 1.367 1_565 S
C315 C317 1.433 1_556 S
C316 C312 1.350 1_565 S
C316 C313 1.463 . S
C316 N320 1.427 . S
C317 H307 0.929 . S
C317 C315 1.433 1_554 S
C317 N320 1.384 . S
C318 H309 0.929 . S
C318 C310 1.378 . S
C318 C313 1.350 . S
C319 H306 0.929 . S
C319 C311 1.430 1_545 S
C319 N321 1.384 . S
N320 C316 1.427 . S
N320 C317 1.384 . S
N321 C313 1.427 1_545 S
N321 C319 1.384 . S
H322 C328 0.930 . S
H323 C332 0.930 . S
H324 C337 0.929 . S
H325 C335 0.929 . S
H326 C330 0.929 . S
H327 C336 0.929 . S
C328 H322 0.930 . S
C328 C329 1.367 . S
C328 C336 1.378 . S
C329 C328 1.367 . S
C329 C337 1.433 . S
C330 H326 0.929 . S
C330 C332 1.378 . S
C330 C334 1.350 . S
C331 C334 1.463 . S
C331 C336 1.350 . S
C331 N339 1.427 . S
C332 H323 0.930 . S
C332 C330 1.378 . S
C332 C333 1.367 . S
C333 C332 1.367 . S
C333 C335 1.433 . S
C334 C330 1.350 . S
C334 C331 1.463 . S
C334 N338 1.427 . S
C335 H325 0.929 . S
C335 C333 1.433 . S
C335 N338 1.384 . S
C336 H327 0.929 . S
C336 C328 1.378 . S
C336 C331 1.350 . S
C337 H324 0.929 . S
C337 C329 1.433 . S
C337 N339 1.384 . S
N338 C334 1.427 . S
N338 C335 1.384 . S
N339 C331 1.427 . S
N339 C337 1.384 . S
H340 C346 0.930 . S
H341 C350 0.930 . S
H342 C355 0.929 . S
H343 C353 0.929 1_556 S
H344 C348 0.929 . S
H345 C354 0.929 . S
C346 H340 0.930 . S
C346 C347 1.367 . S
C346 C354 1.378 . S
C347 C346 1.367 . S
C347 C355 1.433 . S
C348 H344 0.929 . S
C348 C350 1.378 . S
C348 C352 1.350 . S
C349 C352 1.463 . S
C349 C354 1.350 . S
C349 N357 1.427 . S
C350 H341 0.930 . S
C350 C348 1.378 . S
C350 C351 1.367 . S
C351 C350 1.367 . S
C351 C353 1.433 . S
C352 C348 1.350 . S
C352 C349 1.463 . S
C352 N356 1.427 . S
C353 H343 0.929 1_554 S
C353 C351 1.433 . S
C353 N356 1.384 . S
C354 H345 0.929 . S
C354 C346 1.378 . S
C354 C349 1.350 . S
C355 H342 0.929 . S
C355 C347 1.433 . S
C355 N357 1.384 . S
N356 C352 1.427 . S
N356 C353 1.384 . S
N357 C349 1.427 . S
N357 C355 1.384 . S
H358 C364 0.930 . S
H359 C368 0.930 . S
H360 C373 0.929 . S
H361 C371 0.929 . S
H362 C366 0.929 . S
H363 C372 0.929 . S
C364 H358 0.930 . S
C364 C365 1.366 1_455 S
C364 C372 1.378 . S
C365 C364 1.366 1_655 S
C365 C373 1.434 . S
C366 H362 0.929 . S
C366 C368 1.378 1_554 S
C366 C370 1.350 . S
C367 C370 1.464 . S
C367 C372 1.347 1_655 S
C367 N375 1.431 . S
C368 H359 0.930 . S
C368 C366 1.378 1_556 S
C368 C369 1.367 . S
C369 C368 1.367 . S
C369 C371 1.433 1_656 S
C370 C366 1.350 . S
C370 C367 1.464 . S
C370 N374 1.427 1_655 S
C371 H361 0.929 . S
C371 C369 1.433 1_454 S
C371 N374 1.384 . S
C372 H363 0.929 . S
C372 C364 1.378 . S
C372 C367 1.347 1_455 S
C373 H360 0.929 . S
C373 C365 1.434 . S
C373 N375 1.384 . S
N374 C370 1.427 1_455 S
N374 C371 1.384 . S
N375 C367 1.431 . S
N375 C373 1.384 . S
H376 C382 0.930 . S
H377 C386 0.930 . S
H378 C391 0.929 . S
H379 C389 0.929 . S
H380 C384 0.929 . S
H381 C390 0.929 . S
C382 H376 0.930 . S
C382 C383 1.364 1_455 S
C382 C390 1.378 . S
C383 C382 1.364 1_655 S
C383 C391 1.438 . S
C384 H380 0.929 . S
C384 C386 1.378 . S
C384 C388 1.350 . S
C385 C388 1.463 . S
C385 C390 1.350 1_655 S
C385 N393 1.427 . S
C386 H377 0.930 . S
C386 C384 1.378 . S
C386 C387 1.367 . S
C387 C386 1.367 . S
C387 C389 1.433 . S
C388 C384 1.350 . S
C388 C385 1.463 . S
C388 N392 1.427 . S
C389 H379 0.929 . S
C389 C387 1.433 . S
C389 N392 1.384 . S
C390 H381 0.929 . S
C390 C382 1.378 . S
C390 C385 1.350 1_455 S
C391 H378 0.929 . S
C391 C383 1.438 . S
C391 N393 1.384 . S
N392 C388 1.427 . S
N392 C389 1.384 . S
N393 C385 1.427 . S
N393 C391 1.384 . S
H394 C400 0.930 . S
H395 C404 0.930 1_545 S
H396 C409 0.929 . S
H397 C407 0.929 . S
H398 C402 0.929 . S
H399 C408 0.929 . S
C400 H394 0.930 . S
C400 C401 1.367 1_565 S
C400 C408 1.378 . S
C401 C400 1.367 1_545 S
C401 C409 1.433 . S
C402 H398 0.929 . S
C402 C404 1.378 1_545 S
C402 C406 1.350 1_545 S
C403 C406 1.463 . S
C403 C408 1.350 . S
C403 N411 1.427 1_565 S
C404 H395 0.930 1_565 S
C404 C402 1.378 1_565 S
C404 C405 1.367 . S
C405 C404 1.367 . S
C405 C407 1.433 . S
C406 C402 1.350 1_565 S
C406 C403 1.463 . S
C406 N410 1.427 . S
C407 H397 0.929 . S
C407 C405 1.433 . S
C407 N410 1.384 . S
C408 H399 0.929 . S
C408 C400 1.378 . S
C408 C403 1.350 . S
C409 H396 0.929 . S
C409 C401 1.433 . S
C409 N411 1.384 . S
N410 C406 1.427 . S
N410 C407 1.384 . S
N411 C403 1.427 1_545 S
N411 C409 1.384 . S
H412 C418 0.930 . S
H413 C422 0.930 . S
H414 C427 0.929 . S
H415 C425 0.929 . S
H416 C420 0.929 . S
H417 C426 0.929 . S
C418 H412 0.930 . S
C418 C419 1.367 . S
C418 C426 1.378 . S
C419 C418 1.367 . S
C419 C427 1.433 . S
C420 H416 0.929 . S
C420 C422 1.378 . S
C420 C424 1.350 . S
C421 C424 1.463 . S
C421 C426 1.350 . S
C421 N429 1.427 . S
C422 H413 0.930 . S
C422 C420 1.378 . S
C422 C423 1.367 . S
C423 C422 1.367 . S
C423 C425 1.433 . S
C424 C420 1.350 . S
C424 C421 1.463 . S
C424 N428 1.427 . S
C425 H415 0.929 . S
C425 C423 1.433 . S
C425 N428 1.384 . S
C426 H417 0.929 . S
C426 C418 1.378 . S
C426 C421 1.350 . S
C427 H414 0.929 . S
C427 C419 1.433 . S
C427 N429 1.384 . S
N428 C424 1.427 . S
N428 C425 1.384 . S
N429 C421 1.427 . S
N429 C427 1.384 . S
H430 C436 0.930 . S
H431 C440 0.930 . S
H432 C445 0.929 . S
H433 C443 0.929 . S
H434 C438 0.929 . S
H435 C444 0.929 . S
C436 H430 0.930 . S
C436 C437 1.367 . S
C436 C444 1.378 . S
C437 C436 1.367 . S
C437 C445 1.433 . S
C438 H434 0.929 . S
C438 C440 1.378 . S
C438 C442 1.350 . S
C439 C442 1.463 . S
C439 C444 1.350 . S
C439 N447 1.427 . S
C440 H431 0.930 . S
C440 C438 1.378 . S
C440 C441 1.367 . S
C441 C440 1.367 . S
C441 C443 1.433 . S
C442 C438 1.350 . S
C442 C439 1.463 . S
C442 N446 1.427 . S
C443 H433 0.929 . S
C443 C441 1.433 . S
C443 N446 1.384 . S
C444 H435 0.929 . S
C444 C436 1.378 . S
C444 C439 1.350 . S
C445 H432 0.929 . S
C445 C437 1.433 . S
C445 N447 1.384 . S
N446 C442 1.427 . S
N446 C443 1.384 . S
N447 C439 1.427 . S
N447 C445 1.384 . S
H448 C454 0.930 . S
H449 C458 0.930 . S
H450 C463 0.929 . S
H451 C461 0.929 . S
H452 C456 0.929 . S
H453 C462 0.929 . S
C454 H448 0.930 . S
C454 C455 1.363 1_655 S
C454 C462 1.378 . S
C455 C454 1.363 1_455 S
C455 C463 1.441 . S
C456 H452 0.929 . S
C456 C458 1.378 . S
C456 C460 1.350 . S
C457 C460 1.463 . S
C457 C462 1.350 1_455 S
C457 N465 1.427 . S
C458 H449 0.930 . S
C458 C456 1.378 . S
C458 C459 1.367 . S
C459 C458 1.367 . S
C459 C461 1.433 . S
C460 C456 1.350 . S
C460 C457 1.463 . S
C460 N464 1.427 . S
C461 H451 0.929 . S
C461 C459 1.433 . S
C461 N464 1.384 . S
C462 H453 0.929 . S
C462 C454 1.378 . S
C462 C457 1.350 1_655 S
C463 H450 0.929 . S
C463 C455 1.441 . S
C463 N465 1.384 . S
N464 C460 1.427 . S
N464 C461 1.384 . S
N465 C457 1.427 . S
N465 C463 1.384 . S
H466 C472 0.930 . S
H467 C476 0.930 1_565 S
H468 C481 0.929 . S
H469 C479 0.929 . S
H470 C474 0.929 . S
H471 C480 0.929 . S
C472 H466 0.930 . S
C472 C473 1.367 1_545 S
C472 C480 1.378 . S
C473 C472 1.367 1_565 S
C473 C481 1.433 . S
C474 H470 0.929 . S
C474 C476 1.378 1_565 S
C474 C478 1.350 1_565 S
C475 C478 1.463 . S
C475 C480 1.350 . S
C475 N483 1.427 1_545 S
C476 H467 0.930 1_545 S
C476 C474 1.378 1_545 S
C476 C477 1.367 . S
C477 C476 1.367 . S
C477 C479 1.433 . S
C478 C474 1.350 1_545 S
C478 C475 1.463 . S
C478 N482 1.427 . S
C479 H469 0.929 . S
C479 C477 1.433 . S
C479 N482 1.384 . S
C480 H471 0.929 . S
C480 C472 1.378 . S
C480 C475 1.350 . S
C481 H468 0.929 . S
C481 C473 1.433 . S
C481 N483 1.384 . S
N482 C478 1.427 . S
N482 C479 1.384 . S
N483 C475 1.427 1_565 S
N483 C481 1.384 . S
H484 C490 0.930 . S
H485 C494 0.930 . S
H486 C499 0.929 1_554 S
H487 C497 0.929 . S
H488 C492 0.929 . S
H489 C498 0.929 . S
C490 H484 0.930 . S
C490 C491 1.367 . S
C490 C498 1.378 . S
C491 C490 1.367 . S
C491 C499 1.433 . S
C492 H488 0.929 . S
C492 C494 1.378 . S
C492 C496 1.350 . S
C493 C496 1.463 . S
C493 C498 1.350 . S
C493 N501 1.427 . S
C494 H485 0.930 . S
C494 C492 1.378 . S
C494 C495 1.367 . S
C495 C494 1.367 . S
C495 C497 1.433 . S
C496 C492 1.350 . S
C496 C493 1.463 . S
C496 N500 1.427 . S
C497 H487 0.929 . S
C497 C495 1.433 . S
C497 N500 1.384 . S
C498 H489 0.929 . S
C498 C490 1.378 . S
C498 C493 1.350 . S
C499 H486 0.929 1_556 S
C499 C491 1.433 . S
C499 N501 1.384 . S
N500 C496 1.427 . S
N500 C497 1.384 . S
N501 C493 1.427 . S
N501 C499 1.384 . S
H502 C508 0.930 . S
H503 C512 0.930 . S
H504 C517 0.929 . S
H505 C515 0.929 . S
H506 C510 0.929 . S
H507 C516 0.929 . S
C508 H502 0.930 . S
C508 C509 1.367 . S
C508 C516 1.378 . S
C509 C508 1.367 . S
C509 C517 1.433 . S
C510 H506 0.929 . S
C510 C512 1.378 . S
C510 C514 1.350 . S
C511 C514 1.463 . S
C511 C516 1.350 . S
C511 N519 1.427 . S
C512 H503 0.930 . S
C512 C510 1.378 . S
C512 C513 1.367 . S
C513 C512 1.367 . S
C513 C515 1.433 . S
C514 C510 1.350 . S
C514 C511 1.463 . S
C514 N518 1.427 . S
C515 H505 0.929 . S
C515 C513 1.433 . S
C515 N518 1.384 . S
C516 H507 0.929 . S
C516 C508 1.378 . S
C516 C511 1.350 . S
C517 H504 0.929 . S
C517 C509 1.433 . S
C517 N519 1.384 . S
N518 C514 1.427 . S
N518 C515 1.384 . S
N519 C511 1.427 . S
N519 C517 1.384 . S
H520 C526 0.930 . S
H521 C530 0.930 1_554 S
H522 C535 0.929 . S
H523 C533 0.929 . S
H524 C528 0.929 . S
H525 C534 0.929 . S
C526 H520 0.930 . S
C526 C527 1.367 . S
C526 C534 1.378 1_554 S
C527 C526 1.367 . S
C527 C535 1.433 1_455 S
C528 H524 0.929 . S
C528 C530 1.378 1_554 S
C528 C532 1.350 1_654 S
C529 C532 1.463 1_554 S
C529 C534 1.350 1_554 S
C529 N537 1.427 1_455 S
C530 H521 0.930 1_556 S
C530 C528 1.378 1_556 S
C530 C531 1.367 1_655 S
C531 C530 1.367 1_455 S
C531 C533 1.433 . S
C532 C528 1.350 1_456 S
C532 C529 1.463 1_556 S
C532 N536 1.427 . S
C533 H523 0.929 . S
C533 C531 1.433 . S
C533 N536 1.384 . S
C534 H525 0.929 . S
C534 C526 1.378 1_556 S
C534 C529 1.350 1_556 S
C535 H522 0.929 . S
C535 C527 1.433 1_655 S
C535 N537 1.384 . S
N536 C532 1.427 . S
N536 C533 1.384 . S
N537 C529 1.427 1_655 S
N537 C535 1.384 . S
H538 C544 0.930 . S
H539 C548 0.930 . S
H540 C553 0.929 1_556 S
H541 C551 0.929 . S
H542 C546 0.929 . S
H543 C552 0.929 . S
C544 H538 0.930 . S
C544 C545 1.367 . S
C544 C552 1.378 . S
C545 C544 1.367 . S
C545 C553 1.433 1_545 S
C546 H542 0.929 . S
C546 C548 1.378 . S
C546 C550 1.350 1_565 S
C547 C550 1.463 . S
C547 C552 1.350 1_556 S
C547 N555 1.427 1_545 S
C548 H539 0.930 . S
C548 C546 1.378 . S
C548 C549 1.367 1_565 S
C549 C548 1.367 1_545 S
C549 C551 1.433 . S
C550 C546 1.350 1_545 S
C550 C547 1.463 . S
C550 N554 1.427 . S
C551 H541 0.929 . S
C551 C549 1.433 . S
C551 N554 1.384 . S
C552 H543 0.929 . S
C552 C544 1.378 . S
C552 C547 1.350 1_554 S
C553 H540 0.929 1_554 S
C553 C545 1.433 1_565 S
C553 N555 1.384 1_554 S
N554 C550 1.427 . S
N554 C551 1.384 . S
N555 C547 1.427 1_565 S
N555 C553 1.384 1_556 S
H556 C562 0.930 . S
H557 C566 0.930 . S
H558 C571 0.929 . S
H559 C569 0.929 . S
H560 C564 0.929 . S
H561 C570 0.929 . S
C562 H556 0.930 . S
C562 C563 1.367 . S
C562 C570 1.378 . S
C563 C562 1.367 . S
C563 C571 1.433 . S
C564 H560 0.929 . S
C564 C566 1.378 . S
C564 C568 1.350 . S
C565 C568 1.463 . S
C565 C570 1.350 . S
C565 N573 1.427 . S
C566 H557 0.930 . S
C566 C564 1.378 . S
C566 C567 1.367 . S
C567 C566 1.367 . S
C567 C569 1.433 . S
C568 C564 1.350 . S
C568 C565 1.463 . S
C568 N572 1.427 . S
C569 H559 0.929 . S
C569 C567 1.433 . S
C569 N572 1.384 . S
C570 H561 0.929 . S
C570 C562 1.378 . S
C570 C565 1.350 . S
C571 H558 0.929 . S
C571 C563 1.433 . S
C571 N573 1.384 . S
N572 C568 1.427 . S
N572 C569 1.384 . S
N573 C565 1.427 . S
N573 C571 1.384 . S
H574 C580 0.930 . S
H575 C584 0.930 . S
H576 C589 0.929 . S
H577 C587 0.929 . S
H578 C582 0.929 . S
H579 C588 0.929 . S
C580 H574 0.930 . S
C580 C581 1.367 . S
C580 C588 1.378 1_554 S
C581 C580 1.367 . S
C581 C589 1.433 . S
C582 H578 0.929 . S
C582 C584 1.378 . S
C582 C586 1.350 . S
C583 C586 1.463 . S
C583 C588 1.350 . S
C583 N591 1.427 . S
C584 H575 0.930 . S
C584 C582 1.378 . S
C584 C585 1.367 . S
C585 C584 1.367 . S
C585 C587 1.433 . S
C586 C582 1.350 . S
C586 C583 1.463 . S
C586 N590 1.427 . S
C587 H577 0.929 . S
C587 C585 1.433 . S
C587 N590 1.384 . S
C588 H579 0.929 . S
C588 C580 1.378 1_556 S
C588 C583 1.350 . S
C589 H576 0.929 . S
C589 C581 1.433 . S
C589 N591 1.384 1_554 S
N590 C586 1.427 . S
N590 C587 1.384 . S
N591 C583 1.427 . S
N591 C589 1.384 1_556 S
H592 C598 0.930 . S
H593 C602 0.930 . S
H594 C607 0.929 . S
H595 C605 0.929 1_455 S
H596 C600 0.929 . S
H597 C606 0.929 . S
C598 H592 0.930 . S
C598 C599 1.367 1_455 S
C598 C606 1.378 . S
C599 C598 1.367 1_655 S
C599 C607 1.433 . S
C600 H596 0.929 . S
C600 C602 1.378 . S
C600 C604 1.350 . S
C601 C604 1.463 . S
C601 C606 1.350 1_655 S
C601 N609 1.427 . S
C602 H593 0.930 . S
C602 C600 1.378 . S
C602 C603 1.367 . S
C603 C602 1.367 . S
C603 C605 1.433 . S
C604 C600 1.350 . S
C604 C601 1.463 . S
C604 N608 1.425 1_655 S
C605 H595 0.929 1_655 S
C605 C603 1.433 . S
C605 N608 1.383 1_655 S
C606 H597 0.929 . S
C606 C598 1.378 . S
C606 C601 1.350 1_455 S
C607 H594 0.929 . S
C607 C599 1.433 . S
C607 N609 1.384 . S
N608 C604 1.425 1_455 S
N608 C605 1.383 1_455 S
N609 C601 1.427 . S
N609 C607 1.384 . S
H610 C616 0.930 . S
H611 C620 0.930 . S
H612 C625 0.929 . S
H613 C623 0.929 . S
H614 C618 0.929 . S
H615 C624 0.929 . S
C616 H610 0.930 . S
C616 C617 1.367 . S
C616 C624 1.378 . S
C617 C616 1.367 . S
C617 C625 1.433 1_565 S
C618 H614 0.929 . S
C618 C620 1.378 . S
C618 C622 1.350 1_545 S
C619 C622 1.463 . S
C619 C624 1.350 . S
C619 N627 1.427 1_565 S
C620 H611 0.930 . S
C620 C618 1.378 . S
C620 C621 1.367 1_545 S
C621 C620 1.367 1_565 S
C621 C623 1.433 . S
C622 C618 1.350 1_565 S
C622 C619 1.463 . S
C622 N626 1.427 . S
C623 H613 0.929 . S
C623 C621 1.433 . S
C623 N626 1.384 . S
C624 H615 0.929 . S
C624 C616 1.378 . S
C624 C619 1.350 . S
C625 H612 0.929 . S
C625 C617 1.433 1_545 S
C625 N627 1.384 . S
N626 C622 1.427 . S
N626 C623 1.384 . S
N627 C619 1.427 1_545 S
N627 C625 1.384 . S
H628 C634 0.930 . S
H629 C638 0.930 . S
H630 C643 0.929 . S
H631 C641 0.929 . S
H632 C636 0.929 . S
H633 C642 0.929 . S
C634 H628 0.930 . S
C634 C635 1.367 . S
C634 C642 1.378 . S
C635 C634 1.367 . S
C635 C643 1.433 . S
C636 H632 0.929 . S
C636 C638 1.378 . S
C636 C640 1.350 . S
C637 C640 1.463 . S
C637 C642 1.350 . S
C637 N645 1.427 . S
C638 H629 0.930 . S
C638 C636 1.378 . S
C638 C639 1.367 . S
C639 C638 1.367 . S
C639 C641 1.433 . S
C640 C636 1.350 . S
C640 C637 1.463 . S
C640 N644 1.427 . S
C641 H631 0.929 . S
C641 C639 1.433 . S
C641 N644 1.384 . S
C642 H633 0.929 . S
C642 C634 1.378 . S
C642 C637 1.350 . S
C643 H630 0.929 . S
C643 C635 1.433 . S
C643 N645 1.384 . S
N644 C640 1.427 . S
N644 C641 1.384 . S
N645 C637 1.427 . S
N645 C643 1.384 . S
H646 C652 0.930 . S
H647 C656 0.930 . S
H648 C661 0.929 . S
H649 C659 0.929 . S
H650 C654 0.929 . S
H651 C660 0.929 . S
C652 H646 0.930 . S
C652 C653 1.367 . S
C652 C660 1.378 . S
C653 C652 1.367 . S
C653 C661 1.433 . S
C654 H650 0.929 . S
C654 C656 1.378 . S
C654 C658 1.350 . S
C655 C658 1.463 . S
C655 C660 1.350 . S
C655 N663 1.427 . S
C656 H647 0.930 . S
C656 C654 1.378 . S
C656 C657 1.367 . S
C657 C656 1.367 . S
C657 C659 1.433 . S
C658 C654 1.350 . S
C658 C655 1.463 . S
C658 N662 1.427 . S
C659 H649 0.929 . S
C659 C657 1.433 . S
C659 N662 1.384 . S
C660 H651 0.929 . S
C660 C652 1.378 . S
C660 C655 1.350 . S
C661 H648 0.929 . S
C661 C653 1.433 . S
C661 N663 1.384 . S
N662 C658 1.427 . S
N662 C659 1.384 . S
N663 C655 1.427 . S
N663 C661 1.384 . S
C239 C61 1.856 1_545 S
C243 C95 1.986 1_545 S
C261 C135 1.589 . S
C257 C70 1.583 . S
C279 C154 2.035 . S
C275 C43 1.895 . S
C297 C215 1.410 1_455 S
C293 C52 1.318 1_455 S
C315 C74 1.991 1_565 S
C311 C25 1.857 . S
C329 C34 1.587 . S
C333 C114 1.591 . S
C347 C7 1.898 . S
C351 C175 2.033 1_554 S
C365 C16 1.341 . S
C369 C194 1.415 1_655 S
C387 C76 0.848 . S
C383 C50 0.850 . S
C405 C116 0.293 . S
C401 C59 0.240 1_545 S
C423 C172 0.651 . S
C419 C67 0.652 . S
C437 C41 0.415 . S
C441 C196 0.440 . S
C455 C14 0.856 1_455 S
C459 C97 0.846 . S
C477 C137 0.293 . S
C473 C23 0.225 . S
C495 C183 0.660 . S
C491 C31 0.699 . S
C509 C5 0.390 . S
C513 C217 0.439 . S
C527 C49 1.551 1_455 S
C531 C92 1.685 . S
C545 C58 2.138 1_545 S
C549 C132 2.358 . S
C567 C156 1.659 . S
C563 C68 1.660 . S
C585 C212 2.342 . S
C581 C40 2.132 . S
C599 C13 1.554 . S
C603 C103 1.701 . S
C621 C143 2.359 . S
C617 C22 2.144 . S
C639 C177 1.649 . S
C635 C32 1.656 . S
C653 C4 2.127 . S
C657 C223 2.343 . S
