# Generated by pormake.
# Topology tsx, (6,3)-cn, num edge types: 1
# Building blocks:
#     Node 0, Type 0, BuildingBlock: VOLQOD_clean_sbu_1, # of connection points: 6
#     Node 1, Type 0, BuildingBlock: VOLQOD_clean_sbu_1, # of connection points: 6
#     Node 2, Type 1, BuildingBlock: ESEHIV_clean_linker_0, # of connection points: 3
#     Node 3, Type 1, BuildingBlock: ESEHIV_clean_linker_0, # of connection points: 3
#     Node 4, Type 1, BuildingBlock: ESEHIV_clean_linker_0, # of connection points: 3
#     Node 5, Type 1, BuildingBlock: ESEHIV_clean_linker_0, # of connection points: 3
#     Edge 6, Type (0, 1), BuildingBlock: EZIPEK_clean_linker_0, # of connection points: 2
#     Edge 7, Type (0, 1), BuildingBlock: EZIPEK_clean_linker_0, # of connection points: 2
#     Edge 8, Type (0, 1), BuildingBlock: EZIPEK_clean_linker_0, # of connection points: 2
#     Edge 9, Type (0, 1), BuildingBlock: EZIPEK_clean_linker_0, # of connection points: 2
#     Edge 10, Type (0, 1), BuildingBlock: EZIPEK_clean_linker_0, # of connection points: 2
#     Edge 11, Type (0, 1), BuildingBlock: EZIPEK_clean_linker_0, # of connection points: 2
#     Edge 12, Type (0, 1), BuildingBlock: EZIPEK_clean_linker_0, # of connection points: 2
#     Edge 13, Type (0, 1), BuildingBlock: EZIPEK_clean_linker_0, # of connection points: 2
#     Edge 14, Type (0, 1), BuildingBlock: EZIPEK_clean_linker_0, # of connection points: 2
#     Edge 15, Type (0, 1), BuildingBlock: EZIPEK_clean_linker_0, # of connection points: 2
#     Edge 16, Type (0, 1), BuildingBlock: EZIPEK_clean_linker_0, # of connection points: 2
#     Edge 17, Type (0, 1), BuildingBlock: EZIPEK_clean_linker_0, # of connection points: 2
# Relax obj value: 0.075
# Max RMSD: 0.108
# Mean RMSD: 0.082
data_MOF--net-tsx--node1-VOLQOD_clean_sbu_1--node2-ESEHIV_clean_linker_0--edge1-EZIPEK_clean_linker_0
_symmetry_space_group_name_H-M    P1
_symmetry_Int_Tables_number       1
_symmetry_cell_setting            triclinic
loop_
_symmetry_equiv_pos_as_xyz
'x, y, z'
_cell_length_a     13.956947
_cell_length_b     14.488368
_cell_length_c     27.918556
_cell_angle_alpha  90.721513
_cell_angle_beta   90.114196
_cell_angle_gamma 89.865054
loop_
_atom_site_label
_atom_site_type_symbol
_atom_site_fract_x
_atom_site_fract_y
_atom_site_fract_z
_atom_type_partial_charge
O0 O 0.05103 0.93632 0.11173 0.0
Zn1 Zn 0.07844 0.94627 0.04048 0.0
O2 O 0.9626 0.97814 0.00623 0.0
Zn3 Zn 0.92495 0.88256 0.96122 0.0
Zn4 Zn 0.85951 -0.00253 0.05123 0.0
Zn5 Zn 0.98519 0.08818 0.97018 0.0
O6 O 0.92015 0.92934 0.89297 0.0
O7 O 0.00723 0.05751 0.90074 0.0
O8 O 0.14077 0.83209 0.01072 0.0
O9 O 0.02598 0.78658 0.96055 0.0
O10 O 0.80744 0.81393 0.98255 0.0
O11 O 0.78051 0.88112 0.05341 0.0
O12 O 0.77434 0.10246 0.02766 0.0
O13 O 0.171 0.05167 0.03915 0.0
O14 O 0.86551 0.16369 0.97077 0.0
O15 O 0.09629 0.16051 0.99757 0.0
C16 C 0.98849 0.97902 0.13708 0.0
C17 C 0.96697 0.99588 0.8748 0.0
C18 C 0.76396 0.81754 0.02259 0.0
C19 C 0.10794 0.77528 0.97945 0.0
C20 C 0.78774 0.16084 0.99439 0.0
C21 C 0.16605 0.13358 0.02346 0.0
O22 O 0.91481 0.01683 0.11827 0.0
O23 O 0.58969 0.49495 0.61769 0.0
Zn24 Zn 0.65348 0.51379 0.55494 0.0
O25 O 0.55666 0.51811 0.50706 0.0
Zn26 Zn 0.54483 0.39803 0.48161 0.0
Zn27 Zn 0.43196 0.54725 0.53087 0.0
Zn28 Zn 0.59707 0.60289 0.45985 0.0
O29 O 0.51745 0.40976 0.41166 0.0
O30 O 0.6006 0.53815 0.39632 0.0
O31 O 0.75577 0.41754 0.5377 0.0
O32 O 0.67252 0.33593 0.48429 0.0
O33 O 0.43948 0.33167 0.51801 0.0
O34 O 0.3368 0.44678 0.51448 0.0
O35 O 0.38396 0.66619 0.50233 0.0
O36 O 0.71262 0.63837 0.5578 0.0
O37 O 0.50231 0.70512 0.45383 0.0
O38 O 0.71571 0.67033 0.48001 0.0
C39 C 0.50663 0.51947 0.632 0.0
C40 C 0.55562 0.46599 0.38257 0.0
C41 C 0.35426 0.36251 0.52305 0.0
C42 C 0.75046 0.35246 0.50655 0.0
C43 C 0.42051 0.72096 0.47193 0.0
C44 C 0.73835 0.68894 0.52329 0.0
O45 O 0.44182 0.54933 0.60361 0.0
H46 H 0.95779 0.14401 0.34718 0.0
H47 H 0.16808 0.92846 0.34548 0.0
H48 H 0.14475 0.11374 0.46763 0.0
C49 C 0.01622 0.10809 0.36462 0.0
C50 C 0.0389 0.12883 0.41255 0.0
C51 C 0.06514 0.03775 0.34002 0.0
C52 C 0.13472 0.98598 0.36427 0.0
C53 C 0.16523 0.01077 0.41115 0.0
C54 C 0.11959 0.0869 0.43365 0.0
H55 H 0.89676 0.93177 0.65261 0.0
H56 H 0.10597 0.14418 0.67541 0.0
H57 H 0.99509 0.096 0.53452 0.0
C58 C 0.94134 0.98583 0.63809 0.0
C59 C 0.93939 0.00391 0.58857 0.0
C60 C 0.99751 0.03887 0.66961 0.0
C61 C 0.05937 0.10564 0.65138 0.0
C62 C 0.06189 0.12204 0.60209 0.0
C63 C 0.99808 0.0752 0.5713 0.0
H64 H 0.339 0.56481 0.83977 0.0
H65 H 0.57471 0.37747 0.8392 0.0
H66 H 0.42099 0.41963 0.96843 0.0
C67 C 0.38029 0.51428 0.85924 0.0
C68 C 0.35887 0.49315 0.90746 0.0
C69 C 0.45462 0.47034 0.83444 0.0
C70 C 0.51623 0.41067 0.85832 0.0
C71 C 0.50321 0.39489 0.90706 0.0
C72 C 0.4252 0.43506 0.93128 0.0
H73 H 0.42048 0.32718 0.17582 0.0
H74 H 0.61106 0.55898 0.17144 0.0
H75 H 0.48897 0.45141 0.04082 0.0
C76 C 0.45959 0.37768 0.15523 0.0
C77 C 0.44684 0.38199 0.10562 0.0
C78 C 0.51871 0.44129 0.17869 0.0
C79 C 0.56665 0.50877 0.15275 0.0
C80 C 0.55637 0.51272 0.10293 0.0
C81 C 0.49729 0.44825 0.07922 0.0
C82 C 0.20732 0.2724 0.07336 0.0
C83 C 0.23732 0.2012 0.04128 0.0
C84 C 0.40561 0.24391 0.05434 0.0
C85 C 0.37499 0.32045 0.08256 0.0
N86 N 0.24735 0.41244 0.11714 0.0
N87 N 0.36254 0.12081 -0.00147 0.0
C88 C 0.27597 0.33571 0.09179 0.0
C89 C 0.33594 0.18738 0.03105 0.0
N90 N 0.11403 0.27644 0.08837 0.0
N91 N 0.50107 0.22301 0.05172 0.0
H92 H 0.31316 0.08016 0.97978 0.0
H93 H 0.4328 0.10892 0.98785 0.0
H94 H 0.55419 0.26396 0.06742 0.0
H95 H 0.52755 0.16125 0.03767 0.0
H96 H 0.09026 0.31871 0.11634 0.0
H97 H 0.06083 0.23173 0.07599 0.0
H98 H 0.17633 0.43377 0.12005 0.0
H99 H 0.29505 0.4607 0.13149 0.0
C100 C 0.2108 0.63582 -0.00222 0.0
C101 C 0.16479 0.69343 0.96376 0.0
C102 C 0.20161 0.57927 0.90149 0.0
C103 C 0.27206 0.53932 0.93104 0.0
N104 N 0.29475 0.49326 0.01216 0.0
N105 N 0.12781 0.72224 0.88005 0.0
C106 C 0.26491 0.55799 0.98097 0.0
C107 C 0.16216 0.66531 0.91476 0.0
N108 N 0.19631 0.65081 0.04575 0.0
N109 N 0.16988 0.53302 0.86171 0.0
H110 H 0.10666 0.79013 0.88676 0.0
H111 H 0.13168 0.70518 0.84368 0.0
H112 H 0.1942 0.46649 0.85332 0.0
H113 H 0.11314 0.55681 0.8408 0.0
H114 H 0.22811 0.61276 0.07281 0.0
H115 H 0.14792 0.69935 0.05923 0.0
H116 H 0.31244 0.50781 0.04749 0.0
H117 H 0.2905 0.4235 0.00268 0.0
C118 C 0.60906 0.73271 0.0336 0.0
C119 C 0.71005 0.7355 0.03804 0.0
C120 C 0.70991 0.58373 0.07598 0.0
C121 C 0.60826 0.58575 0.07656 0.0
N122 N 0.4603 0.66777 0.06237 0.0
N123 N 0.85795 0.66875 0.06652 0.0
C124 C 0.55733 0.66127 0.0566 0.0
C125 C 0.76096 0.66214 0.05991 0.0
N126 N 0.56289 0.79833 0.00738 0.0
N127 N 0.75735 0.50571 0.08984 0.0
H128 H 0.89879 0.72334 0.05371 0.0
H129 H 0.89762 0.62342 0.08737 0.0
H130 H 0.72205 0.44595 0.10043 0.0
H131 H 0.83104 0.49651 0.08672 0.0
H132 H 0.49043 0.79499 -0.00141 0.0
H133 H 0.599 0.85248 0.99104 0.0
H134 H 0.42021 0.72537 0.05281 0.0
H135 H 0.42043 0.61884 0.08067 0.0
C136 C 0.63231 0.17966 0.95067 0.0
C137 C 0.70789 0.22023 0.97795 0.0
C138 C 0.64786 0.37551 0.95957 0.0
C139 C 0.57191 0.33478 0.93289 0.0
N140 N 0.48442 0.2011 0.90567 0.0
N141 N 0.79398 0.35412 0.0059 0.0
C142 C 0.56198 0.23755 0.92928 0.0
C143 C 0.71694 0.31763 0.982 0.0
N144 N 0.63093 0.08603 0.94323 0.0
N145 N 0.65308 0.46966 0.96348 0.0
H146 H 0.84141 0.31405 0.0258 0.0
H147 H 0.81393 0.42309 0.00486 0.0
H148 H 0.60461 0.514 0.94696 0.0
H149 H 0.70365 0.50522 0.98375 0.0
H150 H 0.58433 0.05201 0.91996 0.0
H151 H 0.68027 0.04102 0.95854 0.0
H152 H 0.46836 0.13118 0.90359 0.0
H153 H 0.43161 0.2416 0.88977 0.0
C154 C 0.87639 0.79582 0.51694 0.0
C155 C 0.78373 0.77801 0.53422 0.0
C156 C 0.77889 0.93088 0.57282 0.0
C157 C 0.87434 0.94612 0.55735 0.0
N158 N 0.9766 0.9166 0.48941 0.0
N159 N 0.63495 0.83746 0.56647 0.0
C160 C 0.91365 0.88548 0.52228 0.0
C161 C 0.73085 0.84849 0.55842 0.0
N162 N 0.92941 0.72771 0.49538 0.0
N163 N 0.73559 0.995 0.60184 0.0
H164 H 0.59749 0.77834 0.55593 0.0
H165 H 0.59076 0.88943 0.58008 0.0
H166 H 0.76673 0.05922 0.60894 0.0
H167 H 0.67102 0.98408 0.61946 0.0
H168 H 0.00114 0.73696 0.48616 0.0
H169 H 0.90444 0.66041 0.49053 0.0
H170 H 0.00163 0.87626 0.46083 0.0
H171 H 0.98863 0.98637 0.48564 0.0
C172 C 0.92333 0.33495 0.47796 0.0
C173 C 0.83545 0.29489 0.49325 0.0
C174 C 0.88108 0.14827 0.45524 0.0
C175 C 0.97119 0.18605 0.44197 0.0
N176 N 0.08564 0.30999 0.4492 0.0
N177 N 0.74752 0.1566 0.51017 0.0
C178 C 0.99521 0.27734 0.45666 0.0
C179 C 0.82015 0.1992 0.48632 0.0
N180 N 0.93596 0.42843 0.48021 0.0
N181 N 0.85202 0.06447 0.43756 0.0
H182 H 0.70445 0.19146 0.53505 0.0
H183 H 0.73689 0.08549 0.50924 0.0
H184 H 0.89515 0.02139 0.41668 0.0
H185 H 0.78242 0.03981 0.44143 0.0
H186 H 0.9935 0.46187 0.46435 0.0
H187 H 0.88586 0.47407 0.49465 0.0
H188 H 0.11052 0.37167 0.46417 0.0
H189 H 0.1381 0.27238 0.43089 0.0
C190 C 0.19508 0.33994 0.56709 0.0
C191 C 0.27621 0.30198 0.54218 0.0
C192 C 0.22456 0.14915 0.56722 0.0
C193 C 0.13527 0.18506 0.58234 0.0
N194 N 0.02928 0.31592 0.5894 0.0
N195 N 0.34562 0.16296 0.50684 0.0
C196 C 0.11791 0.28084 0.57931 0.0
C197 C 0.28472 0.2043 0.53878 0.0
N198 N 0.19423 0.42925 0.5834 0.0
N199 N 0.25391 0.06373 0.58095 0.0
H200 H 0.38116 0.19912 0.48022 0.0
H201 H 0.34938 0.09142 0.50252 0.0
H202 H 0.21243 0.02141 0.60259 0.0
H203 H 0.32305 0.03952 0.57405 0.0
H204 H 0.13857 0.45625 0.60415 0.0
H205 H 0.25406 0.47188 0.58333 0.0
H206 H 0.01138 0.38475 0.5834 0.0
H207 H 0.97198 0.27452 0.59969 0.0
C208 C 0.31323 0.85278 0.49458 0.0
C209 C 0.36824 0.80698 0.45912 0.0
C210 C 0.32361 0.92901 0.4035 0.0
C211 C 0.24667 0.95664 0.43367 0.0
N212 N 0.1723 0.93921 0.51206 0.0
N213 N 0.41351 0.79751 0.37512 0.0
C214 C 0.24275 0.91757 0.48051 0.0
C215 C 0.37155 0.84446 0.41229 0.0
N216 N 0.33093 0.8379 0.54209 0.0
N217 N 0.35019 0.98311 0.36618 0.0
H218 H 0.44113 0.73102 0.37795 0.0
H219 H 0.4099 0.8205 0.33991 0.0
H220 H 0.31879 0.04752 0.36038 0.0
H221 H 0.40999 0.96855 0.34502 0.0
H222 H 0.29565 0.87323 0.5696 0.0
H223 H 0.389 0.799 0.55408 0.0
H224 H 0.15648 0.89834 0.54152 0.0
H225 H 0.13247 -0.00126 0.51031 0.0
C226 C 0.08091 0.055 0.2039 0.0
C227 C 0.00759 0.9929 0.18915 0.0
C228 C 0.9692 0.96204 0.27345 0.0
C229 C 0.0458 0.02045 0.28805 0.0
N230 N 0.18209 0.11429 0.268 0.0
N231 N 0.8892 0.87886 0.20854 0.0
C232 C 0.1039 0.06442 0.25344 0.0
C233 C 0.95336 0.94432 0.2236 0.0
N234 N 0.12602 0.10785 0.17054 0.0
N235 N 0.91102 0.92446 0.30733 0.0
H236 H 0.87539 0.86499 0.17241 0.0
H237 H 0.85424 0.83389 0.23137 0.0
H238 H 0.92377 0.93189 0.34398 0.0
H239 H 0.84745 0.89003 0.29949 0.0
H240 H 0.17192 0.16217 0.17903 0.0
H241 H 0.11222 0.10212 0.13392 0.0
H242 H 0.23425 0.13848 0.24475 0.0
H243 H 0.19875 0.12678 0.30393 0.0
C244 C 0.05961 0.97761 0.79838 0.0
C245 C 0.9736 0.00349 0.82213 0.0
C246 C 0.90637 0.05869 0.74651 0.0
C247 C 0.98922 0.02584 0.72214 0.0
N248 N 0.13762 0.94049 0.72295 0.0
N249 N 0.8104 0.05818 0.8189 0.0
C250 C 0.06399 0.98146 0.74755 0.0
C251 C 0.8953 0.04045 0.79613 0.0
N252 N 0.13778 0.95123 0.82449 0.0
N253 N 0.84036 0.11092 0.72265 0.0
H254 H 0.80085 0.04967 0.85563 0.0
H255 H 0.7474 0.07519 0.801 0.0
H256 H 0.84638 0.12668 0.68644 0.0
H257 H 0.78385 0.1453 0.73943 0.0
H258 H 0.20554 0.9412 0.80977 0.0
H259 H 0.13686 0.946 0.86171 0.0
H260 H 0.18884 0.89848 0.73892 0.0
H261 H 0.14314 0.94203 0.6857 0.0
C262 C 0.42674 0.43955 0.69982 0.0
C263 C 0.48574 0.51215 0.68346 0.0
C264 C 0.52694 0.55559 0.76601 0.0
C265 C 0.46529 0.48517 0.78243 0.0
N266 N 0.34513 0.3691 0.76663 0.0
N267 N 0.57838 0.64929 0.69938 0.0
C268 C 0.41146 0.42998 0.74978 0.0
C269 C 0.532 0.57316 0.71615 0.0
N270 N 0.38902 0.37737 0.66769 0.0
N271 N 0.58189 0.60426 0.79809 0.0
H272 H 0.58288 0.66433 0.66299 0.0
H273 H 0.60553 0.7016 0.72135 0.0
H274 H 0.57761 0.59525 0.83504 0.0
H275 H 0.63611 0.64933 0.7882 0.0
H276 H 0.35443 0.31692 0.67746 0.0
H277 H 0.39773 0.38282 0.63075 0.0
H278 H 0.29576 0.3348 0.74487 0.0
H279 H 0.33482 0.35708 0.80302 0.0
C280 C 0.60726 0.39707 0.30465 0.0
C281 C 0.54122 0.45175 0.3311 0.0
C282 C 0.45989 0.49842 0.25778 0.0
C283 C 0.52449 0.44203 0.23128 0.0
N284 N 0.64992 0.32746 0.22804 0.0
N285 N 0.39572 0.54143 0.33558 0.0
C286 C 0.59524 0.38793 0.25433 0.0
C287 C 0.46462 0.49846 0.30845 0.0
N288 N 0.68287 0.35654 0.3276 0.0
N289 N 0.39603 0.5538 0.23434 0.0
H290 H 0.39778 0.54387 0.37294 0.0
H291 H 0.33274 0.56872 0.32159 0.0
H292 H 0.388 0.55333 0.19719 0.0
H293 H 0.35494 0.60458 0.25123 0.0
H294 H 0.73962 0.32421 0.30998 0.0
H295 H 0.69178 0.35945 0.36471 0.0
H296 H 0.69603 0.2792 0.24304 0.0
H297 H 0.64473 0.32117 0.19086 0.0
loop_
_geom_bond_atom_site_label_1
_geom_bond_atom_site_label_2
_geom_bond_distance
_geom_bond_site_symmetry_2
_ccdc_geom_bond_type
O0 Zn1 1.953 . S
O0 C16 1.225 1_565 S
Zn1 O0 1.953 . S
Zn1 O2 1.949 1_565 S
Zn1 O8 1.919 . S
Zn1 O13 1.924 1_565 S
O2 Zn1 1.949 1_545 S
O2 Zn3 1.923 1_444 S
O2 Zn4 1.950 1_455 S
O2 Zn5 1.945 1_554 S
Zn3 O2 1.923 1_666 S
Zn3 O6 1.933 . S
Zn3 O9 1.941 1_655 S
Zn3 O10 1.965 . S
Zn4 O2 1.950 1_655 S
Zn4 O11 1.938 1_545 S
Zn4 O12 1.906 . S
Zn4 O22 1.953 . S
Zn5 O2 1.945 1_556 S
Zn5 O7 1.932 . S
Zn5 O14 1.977 1_455 S
Zn5 O15 1.910 . S
O6 Zn3 1.933 . S
O6 C17 1.226 1_665 S
O7 Zn5 1.932 . S
O7 C17 1.307 . S
O8 Zn1 1.919 . S
O8 C19 1.253 1_554 S
O9 Zn3 1.941 1_455 S
O9 C19 1.283 . S
O10 Zn3 1.965 . S
O10 C18 1.303 1_556 S
O11 Zn4 1.938 1_565 S
O11 C18 1.247 . S
O12 Zn4 1.906 . S
O12 C20 1.304 1_554 S
O13 Zn1 1.924 1_545 S
O13 C21 1.311 . S
O14 Zn5 1.977 1_655 S
O14 C20 1.272 . S
O15 Zn5 1.910 . S
O15 C21 1.231 1_556 S
C16 O0 1.225 1_545 S
C16 O22 1.298 1_455 S
C17 O6 1.226 1_445 S
C17 O7 1.307 . S
C18 O10 1.303 1_554 S
C18 O11 1.247 . S
C19 O8 1.253 1_556 S
C19 O9 1.283 . S
C20 O12 1.304 1_556 S
C20 O14 1.272 . S
C21 O13 1.311 . S
C21 O15 1.231 1_554 S
O22 Zn4 1.953 . S
O22 C16 1.298 1_655 S
O23 Zn24 1.953 . S
O23 C39 1.225 . S
Zn24 O23 1.953 . S
Zn24 O25 1.949 . S
Zn24 O31 1.919 . S
Zn24 O36 1.924 . S
O25 Zn24 1.949 . S
O25 Zn26 1.923 . S
O25 Zn27 1.950 . S
O25 Zn28 1.945 . S
Zn26 O25 1.923 . S
Zn26 O29 1.933 . S
Zn26 O32 1.941 . S
Zn26 O33 1.965 . S
Zn27 O25 1.950 . S
Zn27 O34 1.938 . S
Zn27 O35 1.906 . S
Zn27 O45 1.953 . S
Zn28 O25 1.945 . S
Zn28 O30 1.932 . S
Zn28 O37 1.977 . S
Zn28 O38 1.910 . S
O29 Zn26 1.933 . S
O29 C40 1.226 . S
O30 Zn28 1.932 . S
O30 C40 1.307 . S
O31 Zn24 1.919 . S
O31 C42 1.253 . S
O32 Zn26 1.941 . S
O32 C42 1.283 . S
O33 Zn26 1.965 . S
O33 C41 1.303 . S
O34 Zn27 1.938 . S
O34 C41 1.247 . S
O35 Zn27 1.906 . S
O35 C43 1.304 . S
O36 Zn24 1.924 . S
O36 C44 1.311 . S
O37 Zn28 1.977 . S
O37 C43 1.272 . S
O38 Zn28 1.910 . S
O38 C44 1.231 . S
C39 O23 1.225 . S
C39 O45 1.298 . S
C40 O29 1.226 . S
C40 O30 1.307 . S
C41 O33 1.303 . S
C41 O34 1.247 . S
C42 O31 1.253 . S
C42 O32 1.283 . S
C43 O35 1.304 . S
C43 O37 1.272 . S
C44 O36 1.311 . S
C44 O38 1.231 . S
O45 Zn27 1.953 . S
O45 C39 1.298 . S
H46 C49 0.931 . S
H47 C52 0.928 . S
H48 C54 0.930 1_545 S
C49 H46 0.931 . S
C49 C50 1.413 . S
C49 C51 1.365 1_545 S
C50 C49 1.413 . S
C50 C54 1.422 1_645 S
C51 C49 1.365 1_565 S
C51 C52 1.367 1_655 S
C52 H47 0.928 . S
C52 C51 1.367 1_455 S
C52 C53 1.404 . S
C53 C52 1.404 . S
C53 C54 1.398 . S
C54 H48 0.930 1_565 S
C54 C50 1.422 1_465 S
C54 C53 1.398 . S
H55 C58 0.931 . S
H56 C61 0.928 . S
H57 C63 0.930 . S
C58 H55 0.931 . S
C58 C59 1.413 . S
C58 C60 1.360 1_665 S
C59 C58 1.413 . S
C59 C63 1.429 1_665 S
C60 C58 1.360 1_445 S
C60 C61 1.372 . S
C61 H56 0.928 . S
C61 C60 1.372 . S
C61 C62 1.404 . S
C62 C61 1.404 . S
C62 C63 1.391 . S
C63 H57 0.930 . S
C63 C59 1.429 1_445 S
C63 C62 1.391 . S
H64 C67 0.931 . S
H65 C70 0.928 . S
H66 C72 0.930 . S
C67 H64 0.931 . S
C67 C68 1.413 . S
C67 C69 1.360 . S
C68 C67 1.413 . S
C68 C72 1.429 . S
C69 C67 1.360 . S
C69 C70 1.372 . S
C70 H65 0.928 . S
C70 C69 1.372 . S
C70 C71 1.404 . S
C71 C70 1.404 . S
C71 C72 1.391 . S
C72 H66 0.930 . S
C72 C68 1.429 . S
C72 C71 1.391 . S
H73 C76 0.931 . S
H74 C79 0.928 . S
H75 C81 0.930 . S
C76 H73 0.931 . S
C76 C77 1.413 . S
C76 C78 1.360 . S
C77 C76 1.413 . S
C77 C81 1.429 . S
C78 C76 1.360 . S
C78 C79 1.372 . S
C79 H74 0.928 . S
C79 C78 1.372 . S
C79 C80 1.404 . S
C80 C79 1.404 . S
C80 C81 1.391 . S
C81 H75 0.930 . S
C81 C77 1.429 . S
C81 C80 1.391 . S
C82 C83 1.363 . S
C82 C88 1.379 . S
C82 N90 1.356 . S
C83 C82 1.363 . S
C83 C89 1.363 . S
C84 C85 1.363 . S
C84 C89 1.379 . S
C84 N91 1.356 . S
C85 C84 1.363 . S
C85 C88 1.363 . S
N86 C88 1.356 . S
N86 H98 0.984 . S
N86 H99 0.985 . S
N87 C89 1.356 1_556 S
N87 H92 0.984 . S
N87 H93 0.985 . S
C88 C82 1.379 . S
C88 C85 1.363 . S
C88 N86 1.356 . S
C89 C83 1.363 . S
C89 C84 1.379 . S
C89 N87 1.356 1_554 S
N90 C82 1.356 . S
N90 H96 0.984 . S
N90 H97 0.984 . S
N91 C84 1.356 . S
N91 H94 0.984 . S
N91 H95 0.985 1_554 S
H92 N87 0.984 . S
H93 N87 0.985 . S
H94 N91 0.984 . S
H95 N91 0.985 1_556 S
H96 N90 0.984 . S
H97 N90 0.984 . S
H98 N86 0.984 . S
H99 N86 0.985 . S
C100 C101 1.363 1_554 S
C100 C106 1.379 1_554 S
C100 N108 1.356 . S
C101 C100 1.363 1_556 S
C101 C107 1.363 . S
C102 C103 1.363 . S
C102 C107 1.379 . S
C102 N109 1.356 . S
C103 C102 1.363 . S
C103 C106 1.363 . S
N104 C106 1.356 1_554 S
N104 H116 0.984 . S
N104 H117 0.985 1_554 S
N105 C107 1.356 . S
N105 H110 0.984 . S
N105 H111 0.985 . S
C106 C100 1.379 1_556 S
C106 C103 1.363 . S
C106 N104 1.356 1_556 S
C107 C101 1.363 . S
C107 C102 1.379 . S
C107 N105 1.356 . S
N108 C100 1.356 . S
N108 H114 0.984 . S
N108 H115 0.984 . S
N109 C102 1.356 . S
N109 H112 0.984 . S
N109 H113 0.985 . S
H110 N105 0.984 . S
H111 N105 0.985 . S
H112 N109 0.984 . S
H113 N109 0.985 . S
H114 N108 0.984 . S
H115 N108 0.984 . S
H116 N104 0.984 . S
H117 N104 0.985 1_556 S
C118 C119 1.363 . S
C118 C124 1.379 . S
C118 N126 1.356 1_554 S
C119 C118 1.363 . S
C119 C125 1.363 . S
C120 C121 1.363 . S
C120 C125 1.379 . S
C120 N127 1.356 . S
C121 C120 1.363 . S
C121 C124 1.363 . S
N122 C124 1.356 . S
N122 H134 0.984 1_554 S
N122 H135 0.985 . S
N123 C125 1.356 . S
N123 H128 0.984 . S
N123 H129 0.985 . S
C124 C118 1.379 . S
C124 C121 1.363 . S
C124 N122 1.356 . S
C125 C119 1.363 . S
C125 C120 1.379 . S
C125 N123 1.356 . S
N126 C118 1.356 1_556 S
N126 H132 0.984 . S
N126 H133 0.984 . S
N127 C120 1.356 . S
N127 H130 0.984 . S
N127 H131 0.985 . S
H128 N123 0.984 . S
H129 N123 0.985 . S
H130 N127 0.984 . S
H131 N127 0.985 . S
H132 N126 0.984 . S
H133 N126 0.984 . S
H134 N122 0.984 1_556 S
H135 N122 0.985 . S
C136 C137 1.363 . S
C136 C142 1.379 . S
C136 N144 1.356 . S
C137 C136 1.363 . S
C137 C143 1.363 1_556 S
C138 C139 1.363 . S
C138 C143 1.379 1_556 S
C138 N145 1.356 1_556 S
C139 C138 1.363 . S
C139 C142 1.363 . S
N140 C142 1.356 . S
N140 H152 0.984 . S
N140 H153 0.985 . S
N141 C143 1.356 . S
N141 H146 0.984 . S
N141 H147 0.985 . S
C142 C136 1.379 . S
C142 C139 1.363 . S
C142 N140 1.356 . S
C143 C137 1.363 1_554 S
C143 C138 1.379 1_554 S
C143 N141 1.356 . S
N144 C136 1.356 . S
N144 H150 0.984 . S
N144 H151 0.984 . S
N145 C138 1.356 1_554 S
N145 H148 0.984 1_554 S
N145 H149 0.985 . S
H146 N141 0.984 . S
H147 N141 0.985 . S
H148 N145 0.984 1_556 S
H149 N145 0.985 . S
H150 N144 0.984 . S
H151 N144 0.984 . S
H152 N140 0.984 . S
H153 N140 0.985 . S
C154 C155 1.363 . S
C154 C160 1.379 . S
C154 N162 1.356 . S
C155 C154 1.363 . S
C155 C161 1.363 . S
C156 C157 1.363 . S
C156 C161 1.379 . S
C156 N163 1.356 . S
C157 C156 1.363 . S
C157 C160 1.363 . S
N158 C160 1.356 . S
N158 H170 0.984 1_655 S
N158 H171 0.985 1_655 S
N159 C161 1.356 . S
N159 H164 0.984 . S
N159 H165 0.985 . S
C160 C154 1.379 . S
C160 C157 1.363 . S
C160 N158 1.356 . S
C161 C155 1.363 . S
C161 C156 1.379 . S
C161 N159 1.356 . S
N162 C154 1.356 . S
N162 H168 0.984 . S
N162 H169 0.984 . S
N163 C156 1.356 . S
N163 H166 0.984 . S
N163 H167 0.985 . S
H164 N159 0.984 . S
H165 N159 0.985 . S
H166 N163 0.984 . S
H167 N163 0.985 . S
H168 N162 0.984 . S
H169 N162 0.984 . S
H170 N158 0.984 1_455 S
H171 N158 0.985 1_455 S
C172 C173 1.363 . S
C172 C178 1.379 . S
C172 N180 1.356 . S
C173 C172 1.363 . S
C173 C179 1.363 . S
C174 C175 1.363 . S
C174 C179 1.379 . S
C174 N181 1.356 . S
C175 C174 1.363 . S
C175 C178 1.363 . S
N176 C178 1.356 . S
N176 H188 0.984 . S
N176 H189 0.985 . S
N177 C179 1.356 . S
N177 H182 0.984 . S
N177 H183 0.985 . S
C178 C172 1.379 . S
C178 C175 1.363 . S
C178 N176 1.356 . S
C179 C173 1.363 . S
C179 C174 1.379 . S
C179 N177 1.356 . S
N180 C172 1.356 . S
N180 H186 0.984 . S
N180 H187 0.984 . S
N181 C174 1.356 . S
N181 H184 0.984 1_545 S
N181 H185 0.985 1_545 S
H182 N177 0.984 . S
H183 N177 0.985 . S
H184 N181 0.984 1_565 S
H185 N181 0.985 1_565 S
H186 N180 0.984 . S
H187 N180 0.984 . S
H188 N176 0.984 . S
H189 N176 0.985 . S
C190 C191 1.363 . S
C190 C196 1.379 . S
C190 N198 1.356 . S
C191 C190 1.363 . S
C191 C197 1.363 . S
C192 C193 1.363 . S
C192 C197 1.379 . S
C192 N199 1.356 . S
C193 C192 1.363 . S
C193 C196 1.363 . S
N194 C196 1.356 . S
N194 H206 0.984 . S
N194 H207 0.985 . S
N195 C197 1.356 . S
N195 H200 0.984 . S
N195 H201 0.985 . S
C196 C190 1.379 . S
C196 C193 1.363 . S
C196 N194 1.356 . S
C197 C191 1.363 . S
C197 C192 1.379 . S
C197 N195 1.356 . S
N198 C190 1.356 . S
N198 H204 0.984 . S
N198 H205 0.984 . S
N199 C192 1.356 . S
N199 H202 0.984 . S
N199 H203 0.985 . S
H200 N195 0.984 . S
H201 N195 0.985 . S
H202 N199 0.984 . S
H203 N199 0.985 . S
H204 N198 0.984 . S
H205 N198 0.984 . S
H206 N194 0.984 . S
H207 N194 0.985 . S
C208 C209 1.363 . S
C208 C214 1.379 . S
C208 N216 1.356 . S
C209 C208 1.363 . S
C209 C215 1.363 . S
C210 C211 1.363 . S
C210 C215 1.379 . S
C210 N217 1.356 . S
C211 C210 1.363 . S
C211 C214 1.363 . S
N212 C214 1.356 . S
N212 H224 0.984 . S
N212 H225 0.985 . S
N213 C215 1.356 . S
N213 H218 0.984 . S
N213 H219 0.985 . S
C214 C208 1.379 . S
C214 C211 1.363 . S
C214 N212 1.356 . S
C215 C209 1.363 . S
C215 C210 1.379 . S
C215 N213 1.356 . S
N216 C208 1.356 . S
N216 H222 0.984 . S
N216 H223 0.984 . S
N217 C210 1.356 . S
N217 H220 0.984 . S
N217 H221 0.985 . S
H218 N213 0.984 . S
H219 N213 0.985 . S
H220 N217 0.984 . S
H221 N217 0.985 . S
H222 N216 0.984 . S
H223 N216 0.984 . S
H224 N212 0.984 . S
H225 N212 0.985 . S
C226 C227 1.363 . S
C226 C232 1.379 . S
C226 N234 1.356 . S
C227 C226 1.363 . S
C227 C233 1.363 1_445 S
C228 C229 1.355 1_665 S
C228 C233 1.379 . S
C228 N235 1.356 . S
C229 C228 1.355 1_445 S
C229 C232 1.372 . S
N230 C232 1.356 . S
N230 H242 0.984 . S
N230 H243 0.985 . S
N231 C233 1.356 . S
N231 H236 0.984 . S
N231 H237 0.985 . S
C232 C226 1.379 . S
C232 C229 1.372 . S
C232 N230 1.356 . S
C233 C227 1.363 1_665 S
C233 C228 1.379 . S
C233 N231 1.356 . S
N234 C226 1.356 . S
N234 H240 0.984 . S
N234 H241 0.984 . S
N235 C228 1.356 . S
N235 H238 0.984 . S
N235 H239 0.985 . S
H236 N231 0.984 . S
H237 N231 0.985 . S
H238 N235 0.984 . S
H239 N235 0.985 . S
H240 N234 0.984 . S
H241 N234 0.984 . S
H242 N230 0.984 . S
H243 N230 0.985 . S
C244 C245 1.363 1_565 S
C244 C250 1.379 . S
C244 N252 1.356 . S
C245 C244 1.363 1_545 S
C245 C251 1.363 1_455 S
C246 C247 1.363 1_655 S
C246 C251 1.379 . S
C246 N253 1.356 . S
C247 C246 1.363 1_455 S
C247 C250 1.363 1_545 S
N248 C250 1.356 . S
N248 H260 0.984 . S
N248 H261 0.985 . S
N249 C251 1.356 . S
N249 H254 0.984 . S
N249 H255 0.985 . S
C250 C244 1.379 . S
C250 C247 1.363 1_565 S
C250 N248 1.356 . S
C251 C245 1.363 1_655 S
C251 C246 1.379 . S
C251 N249 1.356 . S
N252 C244 1.356 . S
N252 H258 0.984 . S
N252 H259 0.984 . S
N253 C246 1.356 . S
N253 H256 0.984 . S
N253 H257 0.985 . S
H254 N249 0.984 . S
H255 N249 0.985 . S
H256 N253 0.984 . S
H257 N253 0.985 . S
H258 N252 0.984 . S
H259 N252 0.984 . S
H260 N248 0.984 . S
H261 N248 0.985 . S
C262 C263 1.363 . S
C262 C268 1.379 . S
C262 N270 1.356 . S
C263 C262 1.363 . S
C263 C269 1.363 . S
C264 C265 1.363 . S
C264 C269 1.379 . S
C264 N271 1.356 . S
C265 C264 1.363 . S
C265 C268 1.363 . S
N266 C268 1.356 . S
N266 H278 0.984 . S
N266 H279 0.985 . S
N267 C269 1.356 . S
N267 H272 0.984 . S
N267 H273 0.985 . S
C268 C262 1.379 . S
C268 C265 1.363 . S
C268 N266 1.356 . S
C269 C263 1.363 . S
C269 C264 1.379 . S
C269 N267 1.356 . S
N270 C262 1.356 . S
N270 H276 0.984 . S
N270 H277 0.984 . S
N271 C264 1.356 . S
N271 H274 0.984 . S
N271 H275 0.985 . S
H272 N267 0.984 . S
H273 N267 0.985 . S
H274 N271 0.984 . S
H275 N271 0.985 . S
H276 N270 0.984 . S
H277 N270 0.984 . S
H278 N266 0.984 . S
H279 N266 0.985 . S
C280 C281 1.363 . S
C280 C286 1.379 . S
C280 N288 1.356 . S
C281 C280 1.363 . S
C281 C287 1.363 . S
C282 C283 1.363 . S
C282 C287 1.379 . S
C282 N289 1.356 . S
C283 C282 1.363 . S
C283 C286 1.363 . S
N284 C286 1.356 . S
N284 H296 0.984 . S
N284 H297 0.985 . S
N285 C287 1.356 . S
N285 H290 0.984 . S
N285 H291 0.985 . S
C286 C280 1.379 . S
C286 C283 1.363 . S
C286 N284 1.356 . S
C287 C281 1.363 . S
C287 C282 1.379 . S
C287 N285 1.356 . S
N288 C280 1.356 . S
N288 H294 0.984 . S
N288 H295 0.984 . S
N289 C282 1.356 . S
N289 H292 0.984 . S
N289 H293 0.985 . S
H290 N285 0.984 . S
H291 N285 0.985 . S
H292 N289 0.984 . S
H293 N289 0.985 . S
H294 N288 0.984 . S
H295 N288 0.984 . S
H296 N284 0.984 . S
H297 N284 0.985 . S
C85 C77 1.454 . S
C83 C21 1.454 . S
C101 C19 1.451 . S
C103 C68 1.454 . S
C119 C18 1.428 . S
C121 C80 1.434 . S
C137 C20 1.446 . S
C139 C71 1.445 . S
C155 C44 1.454 . S
C157 C59 1.454 . S
C173 C42 1.451 . S
C175 C50 1.454 . S
C193 C62 1.434 . S
C191 C41 1.428 . S
C211 C53 1.445 . S
C209 C43 1.445 . S
C227 C16 1.499 . S
C229 C51 1.499 1_445 S
C245 C17 1.473 . S
C247 C60 1.474 . S
C265 C69 1.499 . S
C263 C39 1.499 . S
C281 C40 1.473 . S
C283 C78 1.474 . S
