# Generated by pormake.
# Topology zzz, (3,6)-cn, num edge types: 1
# Building blocks:
#     Node 0, Type 0, BuildingBlock: PAMTOO_clean_linker_0, # of connection points: 3
#     Node 1, Type 0, BuildingBlock: PAMTOO_clean_linker_0, # of connection points: 3
#     Node 2, Type 0, BuildingBlock: PAMTOO_clean_linker_0, # of connection points: 3
#     Node 3, Type 0, BuildingBlock: PAMTOO_clean_linker_0, # of connection points: 3
#     Node 4, Type 0, BuildingBlock: PAMTOO_clean_linker_0, # of connection points: 3
#     Node 5, Type 0, BuildingBlock: PAMTOO_clean_linker_0, # of connection points: 3
#     Node 6, Type 0, BuildingBlock: PAMTOO_clean_linker_0, # of connection points: 3
#     Node 7, Type 0, BuildingBlock: PAMTOO_clean_linker_0, # of connection points: 3
#     Node 8, Type 1, BuildingBlock: NUHQIS_clean_sbu_0, # of connection points: 6
#     Node 9, Type 1, BuildingBlock: NUHQIS_clean_sbu_0, # of connection points: 6
#     Node 10, Type 1, BuildingBlock: NUHQIS_clean_sbu_0, # of connection points: 6
#     Node 11, Type 1, BuildingBlock: NUHQIS_clean_sbu_0, # of connection points: 6
#     Edge 12, Type (0, 1), BuildingBlock: AJUNOK_clean_linker_0, # of connection points: 2
#     Edge 13, Type (0, 1), BuildingBlock: AJUNOK_clean_linker_0, # of connection points: 2
#     Edge 14, Type (0, 1), BuildingBlock: AJUNOK_clean_linker_0, # of connection points: 2
#     Edge 15, Type (0, 1), BuildingBlock: AJUNOK_clean_linker_0, # of connection points: 2
#     Edge 16, Type (0, 1), BuildingBlock: AJUNOK_clean_linker_0, # of connection points: 2
#     Edge 17, Type (0, 1), BuildingBlock: AJUNOK_clean_linker_0, # of connection points: 2
#     Edge 18, Type (0, 1), BuildingBlock: AJUNOK_clean_linker_0, # of connection points: 2
#     Edge 19, Type (0, 1), BuildingBlock: AJUNOK_clean_linker_0, # of connection points: 2
#     Edge 20, Type (0, 1), BuildingBlock: AJUNOK_clean_linker_0, # of connection points: 2
#     Edge 21, Type (0, 1), BuildingBlock: AJUNOK_clean_linker_0, # of connection points: 2
#     Edge 22, Type (0, 1), BuildingBlock: AJUNOK_clean_linker_0, # of connection points: 2
#     Edge 23, Type (0, 1), BuildingBlock: AJUNOK_clean_linker_0, # of connection points: 2
#     Edge 24, Type (0, 1), BuildingBlock: AJUNOK_clean_linker_0, # of connection points: 2
#     Edge 25, Type (0, 1), BuildingBlock: AJUNOK_clean_linker_0, # of connection points: 2
#     Edge 26, Type (0, 1), BuildingBlock: AJUNOK_clean_linker_0, # of connection points: 2
#     Edge 27, Type (0, 1), BuildingBlock: AJUNOK_clean_linker_0, # of connection points: 2
#     Edge 28, Type (0, 1), BuildingBlock: AJUNOK_clean_linker_0, # of connection points: 2
#     Edge 29, Type (0, 1), BuildingBlock: AJUNOK_clean_linker_0, # of connection points: 2
#     Edge 30, Type (0, 1), BuildingBlock: AJUNOK_clean_linker_0, # of connection points: 2
#     Edge 31, Type (0, 1), BuildingBlock: AJUNOK_clean_linker_0, # of connection points: 2
#     Edge 32, Type (0, 1), BuildingBlock: AJUNOK_clean_linker_0, # of connection points: 2
#     Edge 33, Type (0, 1), BuildingBlock: AJUNOK_clean_linker_0, # of connection points: 2
#     Edge 34, Type (0, 1), BuildingBlock: AJUNOK_clean_linker_0, # of connection points: 2
#     Edge 35, Type (0, 1), BuildingBlock: AJUNOK_clean_linker_0, # of connection points: 2
# Relax obj value: 0.337
# Max RMSD: 0.178
# Mean RMSD: 0.137
data_MOF--net-zzz--node1-NUHQIS_clean_sbu_0--node2-PAMTOO_clean_linker_0--edge1-AJUNOK_clean_linker_0
_symmetry_space_group_name_H-M    P1
_symmetry_Int_Tables_number       1
_symmetry_cell_setting            triclinic
loop_
_symmetry_equiv_pos_as_xyz
'x, y, z'
_cell_length_a     37.529197
_cell_length_b     37.510832
_cell_length_c     10.479636
_cell_angle_alpha  90.260899
_cell_angle_beta   89.791936
_cell_angle_gamma 89.764046
loop_
_atom_site_label
_atom_site_type_symbol
_atom_site_fract_x
_atom_site_fract_y
_atom_site_fract_z
_atom_type_partial_charge
H0 H 0.86057 0.4507 0.46038 0.0
H1 H 0.76679 0.46078 0.22946 0.0
H2 H 0.79995 0.54826 0.46847 0.0
H3 H 0.71194 0.53942 0.4269 0.0
C4 C 0.71576 0.52154 0.34325 0.0
O5 O 0.75071 0.52524 0.30073 0.0
H6 H 0.71123 0.49387 0.37738 0.0
C7 C 0.83686 0.46559 0.43424 0.0
C8 C 0.83302 0.5006 0.47953 0.0
C9 C 0.81346 0.45103 0.34375 0.0
C10 C 0.78429 0.47131 0.30242 0.0
C11 C 0.7785 0.50595 0.34914 0.0
C12 C 0.80332 0.52094 0.43671 0.0
H13 H 0.1074 0.85603 0.45512 0.0
H14 H 0.09949 0.76084 0.23082 0.0
H15 H 1.01495 0.7892 0.4919 0.0
H16 H 1.02585 0.69944 0.44041 0.0
C17 C 0.04473 0.70547 0.36159 0.0
O18 O 0.03821 0.74019 0.32033 0.0
H19 H 0.07202 0.70326 0.4023 0.0
C20 C 0.09371 0.83125 0.43424 0.0
C21 C 0.06008 0.8255 0.48858 0.0
C22 C 0.10798 0.80823 0.34131 0.0
C23 C 0.0892 0.77757 0.30664 0.0
C24 C 0.05632 0.76949 0.3633 0.0
C25 C 0.04125 0.79405 0.45315 0.0
H26 H 0.70807 0.11281 0.46142 0.0
H27 H 0.80661 0.10272 0.26024 0.0
H28 H 0.77134 1.01756 0.50472 0.0
H29 H 0.86181 1.02252 0.44554 0.0
C30 C 0.85617 0.04179 0.3679 0.0
O31 O 0.82072 0.03775 0.33183 0.0
H32 H 0.8605 0.06895 0.40789 0.0
C33 C 0.73267 0.09817 0.44536 0.0
C34 C 0.73685 0.06449 0.50134 0.0
C35 C 0.7575 0.11205 0.35891 0.0
C36 C 0.78792 0.09216 0.32857 0.0
C37 C 0.79319 0.05799 0.3791 0.0
C38 C 0.76761 0.04409 0.46675 0.0
H39 H 0.46029 0.71805 0.50472 0.0
H40 H 0.46194 0.81781 0.30247 0.0
H41 H 0.55733 0.7769 0.47636 0.0
H42 H 0.55206 0.86617 0.44823 0.0
C43 C 0.52968 0.86395 0.37969 0.0
O44 O 0.52931 0.82918 0.33331 0.0
H45 H 0.50464 0.8698 0.43311 0.0
C46 C 0.47351 0.7426 0.4788 0.0
C47 C 0.50983 0.74514 0.50653 0.0
C48 C 0.45579 0.76798 0.40291 0.0
C49 C 0.47473 0.79822 0.36286 0.0
C50 C 0.51109 0.80206 0.39021 0.0
C51 C 0.52884 0.77524 0.46182 0.0
H52 H 0.22142 0.60219 0.15746 0.0
H53 H 0.32556 0.59763 0.32543 0.0
H54 H 0.28568 0.5079 0.11108 0.0
H55 H 0.34666 0.48536 0.32496 0.0
C56 C 0.34774 0.51403 0.35161 0.0
O57 O 0.34152 0.5341 0.24252 0.0
H58 H 0.32606 0.51822 0.4231 0.0
C59 C 0.24661 0.58839 0.17056 0.0
C60 C 0.25007 0.55365 0.12287 0.0
C61 C 0.27341 0.6045 0.24386 0.0
C62 C 0.30513 0.58581 0.26642 0.0
C63 C 0.31009 0.55121 0.21807 0.0
C64 C 0.28239 0.53494 0.14581 0.0
H65 H 0.95826 0.21871 0.2189 0.0
H66 H 0.97168 0.32614 0.34829 0.0
H67 H 0.04636 0.28024 0.07831 0.0
H68 H 0.0825 0.34692 0.26864 0.0
C69 C 0.05632 0.34395 0.31721 0.0
O70 O 1.03065 0.33763 0.22449 0.0
H71 H 0.05937 0.32047 0.38105 0.0
C72 C 0.97215 0.2439 0.21056 0.0
C73 C 1.00201 0.24602 0.13062 0.0
C74 C 0.96029 0.27278 0.28468 0.0
C75 C 0.98005 0.3042 0.28748 0.0
C76 C 1.01159 0.30685 0.21609 0.0
C77 C 1.0225 0.27784 0.13592 0.0
H78 H 0.3441 0.9657 0.14354 0.0
H79 H 0.23946 0.97009 0.31222 0.0
H80 H 0.27895 0.05897 0.09432 0.0
H81 H 0.21878 0.08281 0.30659 0.0
C82 C 0.21777 0.05436 0.33534 0.0
O83 O 0.22343 1.03327 0.22769 0.0
H84 H 0.23977 0.05067 0.40532 0.0
C85 C 0.31864 0.97915 0.15582 0.0
C86 C 0.31469 1.01342 0.10616 0.0
C87 C 0.29212 0.96345 0.23171 0.0
C88 C 0.25992 0.98172 0.25239 0.0
C89 C 0.25478 1.01603 0.20278 0.0
C90 C 0.28244 1.03217 0.13025 0.0
H91 H 0.60857 0.34965 0.15063 0.0
H92 H 0.59744 0.25321 0.36575 0.0
H93 H 0.50781 0.29568 0.15876 0.0
H94 H 0.55604 0.20259 0.22365 0.0
C95 C 0.53057 0.20862 0.27405 0.0
O96 O 0.53022 0.2438 0.31664 0.0
H97 H 0.50876 0.20542 0.20351 0.0
C98 C 0.59286 0.32663 0.17752 0.0
C99 C 0.55718 0.32533 0.13942 0.0
C100 C 0.60747 0.30129 0.26082 0.0
C101 C 0.58643 0.27265 0.30074 0.0
C102 C 0.55061 0.27006 0.26403 0.0
C103 C 0.53575 0.29676 0.18373 0.0
Tb104 Tb 0.05417 1.02609 0.91946 0.0
Eu105 Eu 0.99928 0.04521 0.68412 0.0
C106 C 0.08521 0.03901 0.63517 0.0
C107 C 1.02683 0.107 0.88113 0.0
C108 C 0.1274 0.98585 0.10394 0.0
C109 C 0.15668 0.94262 0.23799 0.0
C110 C 0.13754 0.97425 0.22487 0.0
C111 C 0.14049 0.96811 0.99512 0.0
C112 C 0.15991 0.93644 1.00805 0.0
C113 C 0.16558 0.92181 0.12982 0.0
C114 C 0.09793 1.01135 0.09391 0.0
O115 O 1.00079 1.01826 1.0034 0.0
O116 O 0.96638 0.05012 0.86429 0.0
O117 O 1.00325 0.98476 0.68146 0.0
O118 O 0.05188 0.97578 0.8105 0.0
C119 C 0.97044 1.03406 0.97427 0.0
O120 O 0.94629 0.04057 0.59974 0.0
O121 O 0.98749 0.07021 0.50189 0.0
O122 O 0.05314 0.04208 0.58619 0.0
O123 O 0.09035 1.03474 0.75833 0.0
O124 O 0.04158 0.08264 0.95431 0.0
O125 O 1.01253 0.09903 0.77012 0.0
C126 C 1.02824 0.96378 0.72778 0.0
O127 O 0.10214 0.03746 1.01391 0.0
O128 O 0.06659 0.99684 0.08331 0.0
C129 C 0.9299 0.09379 0.49316 0.0
C130 C 0.90183 0.16316 0.4749 0.0
C131 C 0.89954 0.14453 0.59043 0.0
C132 C 0.91385 0.11014 0.59995 0.0
C133 C 0.9283 0.11072 0.37456 0.0
C134 C 0.91423 0.14506 0.36526 0.0
C135 C 0.95362 0.06279 0.50789 0.0
H136 H 0.16003 0.93245 0.33368 0.0
H137 H 0.12747 0.98752 0.3097 0.0
H138 H 0.13292 0.97687 0.90059 0.0
H139 H 0.16674 0.92136 0.92295 0.0
H140 H 0.8895 0.15769 0.67539 0.0
H141 H 0.91476 0.09755 0.69257 0.0
H142 H 0.94058 0.0986 0.29117 0.0
H143 H 0.91656 0.15873 0.27474 0.0
Tb144 Tb 0.53757 0.06213 0.93813 0.0
Eu145 Eu 0.51825 1.00677 0.70831 0.0
C146 C 0.52587 0.09219 0.65404 0.0
C147 C 0.45644 0.03849 0.89534 0.0
C148 C 0.58093 0.13128 0.13677 0.0
C149 C 0.62756 0.16838 0.04686 0.0
C150 C 0.59578 0.14939 0.03248 0.0
C151 C 0.59616 0.13512 0.25743 0.0
C152 C 0.62777 0.15394 0.27192 0.0
C153 C 0.64521 0.16863 0.16506 0.0
C154 C 0.55375 0.10378 0.11875 0.0
O155 O 0.54921 1.00831 1.00993 0.0
O156 O 0.51039 0.97593 0.89118 0.0
O157 O 0.57915 1.00867 0.71259 0.0
O158 O 0.58651 0.06093 0.82376 0.0
C159 C 0.53035 0.97917 0.99277 0.0
O160 O 0.5205 0.95238 0.63292 0.0
O161 O 0.49597 0.99438 0.52185 0.0
O162 O 0.52478 0.05963 0.60692 0.0
O163 O 0.52752 0.09828 0.77786 0.0
O164 O 0.48162 0.04877 0.97442 0.0
O165 O 0.46436 1.02614 0.78074 0.0
C166 C 0.59951 0.0352 0.75097 0.0
O167 O 0.52851 0.11032 0.03702 0.0
O168 O 0.56643 0.07164 0.10542 0.0
C169 C 0.47025 0.93779 0.50606 0.0
C170 C 0.40294 0.90812 0.45464 0.0
C171 C 0.42425 0.9218 0.3554 0.0
C172 C 0.45741 0.93661 0.38112 0.0
C173 C 0.4507 0.92135 0.60407 0.0
C174 C 0.41735 0.90633 0.57824 0.0
C175 C 0.50139 0.96019 0.53304 0.0
H176 H 0.63993 0.17996 0.96331 0.0
H177 H 0.58437 0.14657 0.93841 0.0
H178 H 0.5852 0.12117 0.33883 0.0
H179 H 0.64044 0.15331 0.3646 0.0
H180 H 0.41404 0.92415 0.25923 0.0
H181 H 0.47195 0.94937 0.30452 0.0
H182 H 0.46018 0.92193 0.70157 0.0
H183 H 0.4019 0.89548 0.6563 0.0
Tb184 Tb 0.51433 0.54648 0.91719 0.0
Eu185 Eu 0.56591 0.52041 0.6827 0.0
C186 C 0.48165 0.53032 0.64337 0.0
C187 C 0.53699 0.46333 0.89053 0.0
C188 C 0.44811 0.59967 0.09285 0.0
C189 C 0.39526 0.63113 0.16839 0.0
C190 C 0.41402 0.59916 0.14805 0.0
C191 C 0.46201 0.63201 0.04957 0.0
C192 C 0.44389 0.66375 0.07255 0.0
C193 C 0.41084 0.66412 0.13737 0.0
C194 C 0.46982 0.56704 0.08311 0.0
O195 O 0.56589 0.54071 1.01414 0.0
O196 O 0.60423 0.52862 0.8472 0.0
O197 O 0.55131 0.57778 0.64001 0.0
O198 O 0.53209 0.59759 0.83563 0.0
C199 C 0.59829 0.53487 0.96911 0.0
O200 O 0.61551 0.52738 0.57623 0.0
O201 O 0.57594 0.48984 0.50924 0.0
O202 O 0.50929 0.50998 0.61644 0.0
O203 O 0.4825 0.55173 0.74287 0.0
O204 O 0.51441 0.4878 0.93304 0.0
O205 O 0.56092 0.47074 0.80248 0.0
C206 C 0.54142 0.60394 0.71634 0.0
O207 O 0.4619 0.54544 0.98997 0.0
O208 O 0.50414 0.57161 0.09242 0.0
C209 C 0.63553 0.4751 0.47012 0.0
C210 C 0.67254 0.41061 0.43235 0.0
C211 C 0.65594 0.42807 0.32931 0.0
C212 C 0.63742 0.45986 0.34849 0.0
C213 C 0.65577 0.46047 0.56965 0.0
C214 C 0.67467 0.42861 0.55022 0.0
C215 C 0.6081 0.50223 0.49433 0.0
H216 H 0.36931 0.63004 0.21279 0.0
H217 H 0.40242 0.57424 0.1789 0.0
H218 H 0.48793 0.63309 1.004 0.0
H219 H 0.45745 0.68813 0.04714 0.0
H220 H 0.65357 0.41532 0.23682 0.0
H221 H 0.6221 0.47093 0.27053 0.0
H222 H 0.65484 0.47213 0.66438 0.0
H223 H 0.68804 0.41644 0.63048 0.0
Tb224 Tb 1.02859 0.50472 0.9305 0.0
Eu225 Eu 0.05151 0.55665 0.69566 0.0
C226 C 0.04185 0.47157 0.64865 0.0
C227 C 0.11046 0.52706 0.89402 0.0
C228 C 0.98808 0.43319 0.12545 0.0
C229 C 0.94551 0.40358 0.26167 0.0
C230 C 0.97581 0.4245 0.24727 0.0
C231 C 0.97231 0.41734 0.0183 0.0
C232 C 0.9421 0.39599 0.03247 0.0
C233 C 0.92658 0.39143 0.15379 0.0
C234 C 1.01241 0.46338 0.1112 0.0
O235 O 1.01928 0.5594 1.00337 0.0
O236 O 0.05832 0.58919 0.8758 0.0
O237 O 0.99087 0.5553 0.69213 0.0
O238 O 0.98014 0.50579 0.81373 0.0
C239 C 0.03877 0.58782 0.97958 0.0
O240 O 0.04761 0.60972 0.61183 0.0
O241 O 0.07742 0.56803 0.51427 0.0
O242 O 0.04336 0.50348 0.59772 0.0
O243 O 0.04023 0.46711 0.77344 0.0
O244 O 0.08391 0.51943 0.97168 0.0
O245 O 0.10436 0.53656 0.7751 0.0
C246 C 0.96922 0.53013 0.73211 0.0
O247 O 0.0399 0.4586 0.03676 0.0
O248 O 0.99677 0.49386 0.09019 0.0
C249 C 0.09873 0.6263 0.49251 0.0
C250 C 0.16389 0.66109 0.44679 0.0
C251 C 0.14547 0.64393 0.34698 0.0
C252 C 0.11338 0.62666 0.3699 0.0
C253 C 0.11521 0.64585 0.5906 0.0
C254 C 0.14751 0.66338 0.56757 0.0
C255 C 0.0691 0.60183 0.51762 0.0
H256 H 0.93461 0.40122 0.357 0.0
H257 H 0.9874 0.4368 0.331 0.0
H258 H 0.98128 0.42418 0.92343 0.0
H259 H 0.92851 0.38676 0.94757 0.0
H260 H 0.15729 0.64094 0.25307 0.0
H261 H 0.10118 0.61156 0.29335 0.0
H262 H 0.10425 0.64592 0.68636 0.0
H263 H 0.1607 0.67671 0.646 0.0
C264 C 0.18086 1.02634 0.5129 0.0
C265 C 0.18206 0.04681 0.40057 0.0
C266 C 0.1494 1.0235 0.58614 0.0
C267 C 0.11741 0.04049 0.54951 0.0
H268 H 0.20484 1.01344 0.54715 0.0
H269 H 0.15034 1.00815 0.67337 0.0
S270 S 0.10571 0.09555 0.25873 0.0
N271 N 0.14798 0.08311 0.25324 0.0
N272 N 0.08886 0.07727 0.38865 0.0
C273 C 0.11784 0.05966 0.43398 0.0
C274 C 0.15005 0.06289 0.36017 0.0
C275 C 0.50798 0.14918 0.35749 0.0
C276 C 0.52631 0.1813 0.38185 0.0
C277 C 0.50775 0.12083 0.44563 0.0
C278 C 0.52554 0.12326 0.56359 0.0
H279 H 0.49446 0.14546 0.26731 0.0
H280 H 0.49361 0.09669 0.42056 0.0
S281 S 0.57883 0.20072 0.6736 0.0
N282 N 0.56379 0.21301 0.53253 0.0
N283 N 0.56267 0.16046 0.69852 0.0
C284 C 0.54369 0.15531 0.58997 0.0
C285 C 0.54435 0.18401 0.49924 0.0
C286 C 0.41382 0.5005 0.38964 0.0
C287 C 0.38374 0.52222 0.41397 0.0
C288 C 0.44552 0.50392 0.46119 0.0
C289 C 0.44874 0.52927 0.5606 0.0
H290 H 0.41238 0.47971 0.31781 0.0
H291 H 0.4673 0.48576 0.44056 0.0
S292 S 0.37889 0.59544 0.6526 0.0
N293 N 0.3603 0.57187 0.5375 0.0
N294 N 0.41931 0.5787 0.67069 0.0
C295 C 0.41938 0.55245 0.58085 0.0
C296 C 0.38719 0.54891 0.50786 0.0
C297 C 0.06196 0.4109 0.36 0.0
C298 C 0.04852 0.37743 0.39707 0.0
C299 C 0.05904 0.44119 0.44021 0.0
C300 C 0.04287 0.43937 0.56196 0.0
H301 H 0.07564 0.4135 0.26937 0.0
H302 H 0.07044 0.46603 0.40763 0.0
S303 S 1.00007 0.35881 0.69856 0.0
N304 N 1.01592 0.34507 0.55952 0.0
N305 N 1.01076 0.40137 0.70997 0.0
C306 C 1.02816 0.40629 0.59768 0.0
C307 C 1.03078 0.37562 0.5154 0.0
C308 C 0.91411 1.01612 0.27556 0.0
C309 C 0.88274 0.03638 0.25702 0.0
C310 C 0.9419 1.01508 0.18405 0.0
C311 C 0.93983 1.0343 0.06875 0.0
H312 H 0.91774 1.00161 0.36371 0.0
H313 H 0.96544 0.99944 0.2052 0.0
S314 S 0.8632 0.09128 0.9715 0.0
N315 N 0.85143 0.07575 0.11244 0.0
N316 N 0.90284 0.07396 0.94149 0.0
C317 C 0.90826 0.05417 0.04803 0.0
C318 C 0.88007 0.05521 0.14148 0.0
C319 C 0.51296 0.88949 0.16054 0.0
C320 C 0.53316 0.89184 0.27349 0.0
C321 C 0.51264 0.91734 0.06978 0.0
C322 C 0.53199 0.94922 0.08857 0.0
H323 H 0.49666 0.86621 0.14327 0.0
H324 H 0.4965 0.91401 0.98515 0.0
S325 S 0.58725 0.96983 0.37236 0.0
N326 N 0.57224 0.92929 0.39992 0.0
N327 N 0.571 0.98145 0.23269 0.0
C328 C 0.55202 0.95191 0.20173 0.0
C329 C 0.55267 0.92345 0.29309 0.0
C330 C 0.68779 0.50939 0.1242 0.0
C331 C 0.68802 0.52913 0.23909 0.0
C332 C 0.65938 0.51216 0.0361 0.0
C333 C 0.62937 0.53414 0.06014 0.0
H334 H 0.70929 0.49084 0.10396 0.0
H335 H 0.66038 0.4959 0.95045 0.0
S336 S 0.61772 0.59297 0.34325 0.0
N337 N 0.65628 0.57292 0.368 0.0
N338 N 0.6029 0.57733 0.20589 0.0
C339 C 0.62965 0.55446 0.17359 0.0
C340 C 0.65883 0.55214 0.26183 0.0
C341 C 1.01502 0.65068 0.26026 0.0
C342 C 0.04129 0.67752 0.2543 0.0
C343 C 1.01414 0.6221 0.17157 0.0
C344 C 0.03942 0.61894 0.07196 0.0
H345 H 0.99539 0.65124 0.33625 0.0
H346 H 0.99355 0.60216 0.18204 0.0
S347 S 0.11488 0.68122 1.01727 0.0
N348 N 0.09384 0.69812 0.14231 0.0
N349 N 0.09219 0.64542 0.97592 0.0
C350 C 0.06568 0.64583 0.06463 0.0
C351 C 0.06658 0.67474 0.15524 0.0
C352 C 0.89934 0.25172 0.32076 0.0
C353 C 0.93071 0.26581 0.37402 0.0
C354 C 0.88491 0.22001 0.36844 0.0
C355 C 0.90095 0.2027 0.47245 0.0
H356 H 0.89051 0.26084 0.2281 0.0
H357 H 0.86489 0.20636 0.31246 0.0
S358 S 0.97306 0.23907 0.67581 0.0
N359 N 0.96878 0.2682 0.55938 0.0
N360 N 0.94244 0.20848 0.64923 0.0
C361 C 0.92643 0.22173 0.54354 0.0
C362 C 0.94077 0.25404 0.49506 0.0
C363 C 0.32249 0.90493 0.25247 0.0
C364 C 0.30297 0.93268 0.31105 0.0
C365 C 0.35277 0.89076 0.31199 0.0
C366 C 0.36405 0.90412 0.43103 0.0
H367 H 0.31816 0.89873 0.15264 0.0
H368 H 0.37031 0.87368 0.25633 0.0
S369 S 0.31132 0.96329 0.64516 0.0
N370 N 0.28874 0.96251 0.51055 0.0
N371 N 0.3459 0.93663 0.62248 0.0
C372 C 0.33963 0.92499 0.5017 0.0
C373 C 0.30866 0.93903 0.4413 0.0
C374 C 0.66871 0.32641 0.25684 0.0
C375 C 0.64092 0.31089 0.32785 0.0
C376 C 0.68686 0.35619 0.30477 0.0
C377 C 0.67701 0.37117 0.42341 0.0
H378 H 0.67199 0.31969 0.15681 0.0
H379 H 0.70354 0.37115 0.23975 0.0
S380 S 0.62087 0.32757 0.66904 0.0
N381 N 0.61587 0.30287 0.53979 0.0
N382 N 0.64946 0.35898 0.62951 0.0
C383 C 0.65693 0.3497 0.50674 0.0
C384 C 0.63874 0.31928 0.45833 0.0
C385 C 0.24465 0.66404 0.25113 0.0
C386 C 0.26375 0.63731 0.31583 0.0
C387 C 0.21428 0.67946 0.30725 0.0
C388 C 0.20259 0.66814 0.42836 0.0
H389 H 0.24903 0.668 0.14993 0.0
H390 H 0.19666 0.69496 0.2472 0.0
S391 S 0.2566 0.61673 0.6598 0.0
N392 N 0.27875 0.61341 0.52386 0.0
N393 N 0.22152 0.642 0.62963 0.0
C394 C 0.22735 0.64984 0.50487 0.0
C395 C 0.25834 0.63439 0.44786 0.0
C396 C 0.12848 0.83136 0.13442 0.0
C397 C 0.13714 0.82203 0.26021 0.0
C398 C 0.14397 0.86123 0.07759 0.0
C399 C 0.16841 0.88247 0.14572 0.0
H400 H 0.10577 0.81932 0.08768 0.0
H401 H 0.13221 0.87064 0.98968 0.0
S402 S 0.21165 0.8584 0.45046 0.0
N403 N 0.17997 0.82834 0.43184 0.0
N404 N 0.21015 0.88393 0.32249 0.0
C405 C 0.18334 0.868 0.25704 0.0
C406 C 0.1672 0.83789 0.31576 0.0
C407 C 0.72913 0.1718 0.34123 0.0
C408 C 0.74606 0.14278 0.28019 0.0
C409 C 0.69866 0.18738 0.28763 0.0
C410 C 0.68443 0.17377 0.17319 0.0
H411 H 0.73555 0.17819 0.43942 0.0
H412 H 0.68288 0.20533 0.34647 0.0
S413 S 0.73015 0.11134 0.95043 0.0
N414 N 0.75509 0.11141 0.07961 0.0
N415 N 0.69763 0.14005 0.97927 0.0
C416 C 0.70666 0.15179 0.09767 0.0
C417 C 0.7378 0.13626 0.1518 0.0
C418 C 0.42104 0.75915 0.20379 0.0
C419 C 0.42212 0.75698 0.33791 0.0
C420 C 0.40792 0.73058 0.1316 0.0
C421 C 0.39772 0.6987 0.1923 0.0
H422 H 0.43561 0.77963 0.15351 0.0
H423 H 0.41228 0.73096 0.02934 0.0
S424 S 0.37285 0.69195 0.53482 0.0
N425 N 0.39319 0.73075 0.52262 0.0
N426 N 0.37254 0.67483 0.38936 0.0
C427 C 0.38867 0.70125 0.32276 0.0
C428 C 0.39998 0.7314 0.39517 0.0
C429 C 0.83511 0.42487 0.14217 0.0
C430 C 0.82593 0.41941 0.27066 0.0
C431 C 0.86547 0.40853 0.09021 0.0
C432 C 0.88732 0.38656 0.16624 0.0
H433 H 0.8228 0.44626 0.08867 0.0
H434 H 0.87481 0.41835 0.99907 0.0
S435 S 0.86297 0.34959 0.48131 0.0
N436 N 0.83224 0.38026 0.45334 0.0
N437 N 0.88898 0.34871 0.35375 0.0
C438 C 0.87263 0.37367 0.2806 0.0
C439 C 0.84192 0.39057 0.33409 0.0
C440 C 0.04431 0.19739 0.04701 0.0
C441 C 1.01031 0.21371 0.04793 0.0
C442 C 0.04995 0.16319 0.99142 0.0
C443 C 1.02198 0.14416 0.93257 0.0
H444 H 0.06628 0.21026 0.09522 0.0
H445 H 0.07626 0.15131 0.99638 0.0
S446 S 0.92766 0.17338 0.9162 0.0
N447 N 0.9483 0.20721 0.98399 0.0
N448 N 0.95891 0.14352 0.88494 0.0
C449 C 0.98821 0.16038 0.93103 0.0
C450 C 0.98243 0.19491 0.98676 0.0
C451 C 0.35723 1.01446 0.92071 0.0
C452 C 0.3466 1.02867 0.03956 0.0
C453 C 0.39199 1.0193 0.87185 0.0
C454 C 0.41821 0.038 0.94116 0.0
H455 H 0.33904 0.9976 0.86869 0.0
H456 H 0.39877 1.00657 0.78195 0.0
S457 S 0.40357 0.08167 0.25685 0.0
N458 N 0.36476 0.06328 0.22364 0.0
N459 N 0.42983 0.07254 0.13406 0.0
C460 C 0.4074 0.0536 0.05841 0.0
C461 C 0.37182 0.04887 0.10705 0.0
C462 C 0.56077 0.36496 0.94714 0.0
C463 C 0.54376 0.35655 0.06325 0.0
C464 C 0.55717 0.39874 0.88991 0.0
C465 C 0.53646 0.42617 0.94619 0.0
H466 H 0.57874 0.34576 0.90381 0.0
H467 H 0.57196 0.40371 0.80288 0.0
S468 S 0.48523 0.41759 0.2492 0.0
N469 N 0.50449 0.3782 0.23079 0.0
N470 N 0.49724 0.44143 0.12417 0.0
C471 C 0.51791 0.41754 0.05976 0.0
C472 C 0.52166 0.38295 0.11788 0.0
C473 C 0.1862 0.53479 0.13718 0.0
C474 C 0.21735 0.53785 0.06244 0.0
C475 C 0.15239 0.52993 0.08191 0.0
C476 C 0.1477 0.52831 0.94836 0.0
H477 H 0.18775 0.53814 0.23979 0.0
H478 H 0.12952 0.52911 0.14513 0.0
S479 S 0.2211 0.53067 0.70955 0.0
N480 N 0.24161 0.53598 0.84768 0.0
N481 N 0.17825 0.5268 0.74324 0.0
C482 C 0.17889 0.5295 0.87245 0.0
C483 C 0.21353 0.53423 0.92938 0.0
C484 C 0.06529 0.86906 0.67197 0.0
C485 C 0.04511 0.8556 0.56901 0.0
C486 C 0.0586 0.90303 0.72595 0.0
C487 C 1.03147 0.92568 0.67941 0.0
H488 H 0.08791 0.85393 0.70654 0.0
H489 H 0.07601 0.91213 0.80152 0.0
S490 S 0.96938 0.9024 0.4157 0.0
N491 N 0.99566 0.86712 0.42681 0.0
N492 N 0.98269 0.93048 0.52746 0.0
C493 C 1.00984 0.91172 0.58067 0.0
C494 C 1.0167 0.87696 0.526 0.0
C495 C 0.68964 0.0769 0.66833 0.0
C496 C 0.70651 0.05198 0.58613 0.0
C497 C 0.6562 0.07048 0.7245 0.0
C498 C 0.63751 0.03849 0.70325 0.0
H499 H 0.70158 0.10277 0.68411 0.0
H500 H 0.64434 0.09169 0.78108 0.0
S501 S 0.67293 0.96087 0.51965 0.0
N502 N 0.70371 0.99178 0.50086 0.0
N503 N 0.64167 0.97892 0.61109 0.0
C504 C 0.65544 1.01186 0.63113 0.0
C505 C 0.68963 1.01868 0.57217 0.0
C506 C 0.52894 0.70607 0.69155 0.0
C507 C 0.52697 0.712 0.55889 0.0
C508 C 0.53479 0.67151 0.74206 0.0
C509 C 0.53841 0.64118 0.66218 0.0
H510 H 0.5241 0.72801 0.75698 0.0
H511 H 0.53532 0.66841 0.84473 0.0
S512 S 0.53208 0.64228 0.30756 0.0
N513 N 0.52788 0.68453 0.34949 0.0
N514 N 0.53779 0.62017 0.44183 0.0
C515 C 0.53671 0.64709 0.52905 0.0
C516 C 0.53126 0.68219 0.47834 0.0
C517 C 0.87448 0.49578 0.66796 0.0
C518 C 0.86311 0.51499 0.55977 0.0
C519 C 0.90784 0.50193 0.72574 0.0
C520 C 0.93188 0.52757 0.67819 0.0
H521 H 0.85811 0.47437 0.7045 0.0
H522 H 0.91531 0.48536 0.80575 0.0
S523 S 0.91456 0.58629 0.39954 0.0
N524 N 0.87827 0.56168 0.41021 0.0
N525 N 0.94054 0.57364 0.51804 0.0
C526 C 0.9201 0.54819 0.57345 0.0
C527 C 0.88597 0.54185 0.51475 0.0
loop_
_geom_bond_atom_site_label_1
_geom_bond_atom_site_label_2
_geom_bond_distance
_geom_bond_site_symmetry_2
_ccdc_geom_bond_type
H0 C7 0.929 . S
H1 C10 0.930 . S
H2 C12 0.929 . S
H3 C4 0.969 . S
C4 H3 0.969 . S
C4 O5 1.550 . S
C4 H6 0.973 . S
O5 C4 1.550 . S
O5 C11 1.412 . S
H6 C4 0.973 . S
C7 H0 0.929 . S
C7 C8 1.400 . S
C7 C9 1.364 . S
C8 C7 1.400 . S
C8 C12 1.377 . S
C9 C7 1.364 . S
C9 C10 1.374 . S
C10 H1 0.930 . S
C10 C9 1.374 . S
C10 C11 1.383 . S
C11 O5 1.412 . S
C11 C10 1.383 . S
C11 C12 1.394 . S
C12 H2 0.929 . S
C12 C8 1.377 . S
C12 C11 1.394 . S
H13 C20 0.928 1_655 S
H14 C23 0.931 . S
H15 C25 0.928 1_655 S
H16 C17 0.969 . S
C17 H16 0.969 . S
C17 O18 1.550 1_455 S
C17 H19 0.973 1_455 S
O18 C17 1.550 1_655 S
O18 C24 1.404 1_655 S
H19 C17 0.973 1_655 S
C20 H13 0.928 1_455 S
C20 C21 1.399 . S
C20 C22 1.364 . S
C21 C20 1.399 . S
C21 C25 1.377 . S
C22 C20 1.364 . S
C22 C23 1.374 1_455 S
C23 H14 0.931 . S
C23 C22 1.374 1_655 S
C23 C24 1.382 1_655 S
C24 O18 1.404 1_455 S
C24 C23 1.382 1_455 S
C24 C25 1.394 . S
C25 H15 0.928 1_455 S
C25 C21 1.377 . S
C25 C24 1.394 . S
H26 C33 0.928 1_565 S
H27 C36 0.931 . S
H28 C38 0.929 1_565 S
H29 C30 0.969 . S
C30 H29 0.969 . S
C30 O31 1.550 1_545 S
C30 H32 0.973 1_545 S
O31 C30 1.550 1_565 S
O31 C37 1.404 1_565 S
H32 C30 0.973 1_565 S
C33 H26 0.928 1_545 S
C33 C34 1.399 . S
C33 C35 1.364 . S
C34 C33 1.399 . S
C34 C38 1.377 . S
C35 C33 1.364 . S
C35 C36 1.374 1_545 S
C36 H27 0.931 . S
C36 C35 1.374 1_565 S
C36 C37 1.382 1_565 S
C37 O31 1.404 1_545 S
C37 C36 1.382 1_545 S
C37 C38 1.394 . S
C38 H28 0.929 1_545 S
C38 C34 1.377 . S
C38 C37 1.394 . S
H39 C46 0.929 . S
H40 C49 0.930 . S
H41 C51 0.929 . S
H42 C43 0.969 . S
C43 H42 0.969 . S
C43 O44 1.550 . S
C43 H45 0.973 . S
O44 C43 1.550 . S
O44 C50 1.412 . S
H45 C43 0.973 . S
C46 H39 0.929 . S
C46 C47 1.400 . S
C46 C48 1.364 . S
C47 C46 1.400 . S
C47 C51 1.377 . S
C48 C46 1.364 . S
C48 C49 1.374 . S
C49 H40 0.930 . S
C49 C48 1.374 . S
C49 C50 1.383 . S
C50 O44 1.412 . S
C50 C49 1.383 . S
C50 C51 1.394 . S
C51 H41 0.929 . S
C51 C47 1.377 . S
C51 C50 1.394 . S
H52 C59 0.929 . S
H53 C62 0.930 . S
H54 C64 0.929 . S
H55 C56 0.969 . S
C56 H55 0.969 . S
C56 O57 1.550 . S
C56 H58 0.973 . S
O57 C56 1.550 . S
O57 C63 1.412 . S
H58 C56 0.973 . S
C59 H52 0.929 . S
C59 C60 1.400 1_554 S
C59 C61 1.364 . S
C60 C59 1.400 1_556 S
C60 C64 1.377 . S
C61 C59 1.364 . S
C61 C62 1.374 . S
C62 H53 0.930 . S
C62 C61 1.374 . S
C62 C63 1.383 . S
C63 O57 1.412 . S
C63 C62 1.383 . S
C63 C64 1.394 1_554 S
C64 H54 0.929 . S
C64 C60 1.377 . S
C64 C63 1.394 1_556 S
H65 C72 0.928 1_655 S
H66 C75 0.930 . S
H67 C77 0.928 1_655 S
H68 C69 0.969 . S
C69 H68 0.969 . S
C69 O70 1.550 1_455 S
C69 H71 0.973 1_455 S
O70 C69 1.550 1_655 S
O70 C76 1.412 1_655 S
H71 C69 0.973 1_655 S
C72 H65 0.928 1_455 S
C72 C73 1.400 1_554 S
C72 C74 1.364 . S
C73 C72 1.400 1_556 S
C73 C77 1.377 . S
C74 C72 1.364 . S
C74 C75 1.374 1_455 S
C75 H66 0.930 . S
C75 C74 1.374 1_655 S
C75 C76 1.383 1_655 S
C76 O70 1.412 1_455 S
C76 C75 1.383 1_455 S
C76 C77 1.395 1_554 S
C77 H67 0.928 1_455 S
C77 C73 1.377 . S
C77 C76 1.395 1_556 S
H78 C85 0.928 1_565 S
H79 C88 0.930 . S
H80 C90 0.928 1_565 S
H81 C82 0.969 . S
C82 H81 0.969 . S
C82 O83 1.550 1_545 S
C82 H84 0.973 1_545 S
O83 C82 1.550 1_565 S
O83 C89 1.412 1_565 S
H84 C82 0.973 1_565 S
C85 H78 0.928 1_545 S
C85 C86 1.400 1_554 S
C85 C87 1.364 . S
C86 C85 1.400 1_556 S
C86 C90 1.377 . S
C87 C85 1.364 . S
C87 C88 1.374 1_545 S
C88 H79 0.930 . S
C88 C87 1.374 1_565 S
C88 C89 1.383 1_565 S
C89 O83 1.412 1_545 S
C89 C88 1.383 1_545 S
C89 C90 1.395 1_554 S
C90 H80 0.928 1_545 S
C90 C86 1.377 . S
C90 C89 1.395 1_556 S
H91 C98 0.929 . S
H92 C101 0.930 . S
H93 C103 0.929 . S
H94 C95 0.969 . S
C95 H94 0.969 . S
C95 O96 1.550 . S
C95 H97 0.973 . S
O96 C95 1.550 . S
O96 C102 1.412 . S
H97 C95 0.973 . S
C98 H91 0.929 . S
C98 C99 1.400 1_554 S
C98 C100 1.364 . S
C99 C98 1.400 1_556 S
C99 C103 1.377 . S
C100 C98 1.364 . S
C100 C101 1.374 . S
C101 H92 0.930 . S
C101 C100 1.374 . S
C101 C102 1.383 . S
C102 O96 1.412 . S
C102 C101 1.383 . S
C102 C103 1.394 1_554 S
C103 H93 0.929 . S
C103 C99 1.377 . S
C103 C102 1.394 1_556 S
Tb104 C114 2.825 1_556 S
Tb104 O115 2.347 1_455 S
Tb104 O118 2.366 . S
Tb104 O123 2.418 . S
Tb104 O124 2.384 1_565 S
Tb104 O127 2.479 1_556 S
Tb104 O128 2.471 1_556 S
Eu105 O116 2.418 . S
Eu105 O117 2.384 1_545 S
Eu105 O120 2.479 . S
Eu105 O121 2.471 . S
Eu105 O122 2.347 1_655 S
Eu105 O125 2.366 . S
Eu105 C135 2.825 . S
C106 O122 1.259 1_565 S
C106 O123 1.265 . S
C107 O124 1.255 . S
C107 O125 1.265 1_455 S
C108 C110 1.380 . S
C108 C111 1.374 . S
C108 C114 1.507 . S
C109 C110 1.384 . S
C109 C113 1.387 . S
C109 H136 0.930 . S
C110 C108 1.380 . S
C110 C109 1.384 . S
C110 H137 0.931 . S
C111 C108 1.374 . S
C111 C112 1.390 . S
C111 H138 0.930 1_455 S
C112 C111 1.390 . S
C112 C113 1.391 . S
C112 H139 0.930 1_455 S
C113 C109 1.387 . S
C113 C112 1.391 . S
C114 Tb104 2.825 1_554 S
C114 C108 1.507 . S
C114 O127 1.238 . S
C114 O128 1.247 . S
O115 Tb104 2.347 1_655 S
O115 C119 1.259 1_565 S
O116 Eu105 2.418 . S
O116 C119 1.265 . S
O117 Eu105 2.384 1_565 S
O117 C126 1.255 . S
O118 Tb104 2.366 . S
O118 C126 1.265 1_455 S
C119 O115 1.259 1_545 S
C119 O116 1.265 . S
O120 Eu105 2.479 . S
O120 C135 1.238 . S
O121 Eu105 2.471 . S
O121 C135 1.247 . S
O122 Eu105 2.347 1_455 S
O122 C106 1.259 1_545 S
O123 Tb104 2.418 . S
O123 C106 1.265 . S
O124 Tb104 2.384 1_545 S
O124 C107 1.255 . S
O125 Eu105 2.366 . S
O125 C107 1.265 1_655 S
C126 O117 1.255 . S
C126 O118 1.265 1_655 S
O127 Tb104 2.479 1_554 S
O127 C114 1.238 . S
O128 Tb104 2.471 1_554 S
O128 C114 1.247 . S
C129 C132 1.380 . S
C129 C133 1.374 . S
C129 C135 1.507 . S
C130 C131 1.387 . S
C130 C134 1.391 . S
C131 C130 1.387 . S
C131 C132 1.384 . S
C131 H140 0.930 . S
C132 C129 1.380 . S
C132 C131 1.384 . S
C132 H141 0.931 . S
C133 C129 1.374 . S
C133 C134 1.390 . S
C133 H142 0.930 1_655 S
C134 C130 1.391 . S
C134 C133 1.390 . S
C134 H143 0.930 1_655 S
C135 Eu105 2.825 . S
C135 O120 1.238 . S
C135 O121 1.247 . S
C135 C129 1.507 . S
H136 C109 0.930 . S
H137 C110 0.931 . S
H138 C111 0.930 1_655 S
H139 C112 0.930 1_655 S
H140 C131 0.930 . S
H141 C132 0.931 . S
H142 C133 0.930 1_455 S
H143 C134 0.930 1_455 S
Tb144 C154 2.825 1_556 S
Tb144 O155 2.347 1_545 S
Tb144 O158 2.366 . S
Tb144 O163 2.418 . S
Tb144 O164 2.384 . S
Tb144 O167 2.479 1_556 S
Tb144 O168 2.471 1_556 S
Eu145 O156 2.418 . S
Eu145 O157 2.384 . S
Eu145 O160 2.479 . S
Eu145 O161 2.471 . S
Eu145 O162 2.347 1_565 S
Eu145 O165 2.366 . S
Eu145 C175 2.825 . S
C146 O162 1.259 . S
C146 O163 1.265 . S
C147 O164 1.255 . S
C147 O165 1.265 1_545 S
C148 C150 1.380 . S
C148 C151 1.374 . S
C148 C154 1.507 . S
C149 C150 1.384 . S
C149 C153 1.387 . S
C149 H176 0.930 . S
C150 C148 1.380 . S
C150 C149 1.384 . S
C150 H177 0.931 . S
C151 C148 1.374 . S
C151 C152 1.390 . S
C151 H178 0.930 1_545 S
C152 C151 1.390 . S
C152 C153 1.391 . S
C152 H179 0.930 1_545 S
C153 C149 1.387 . S
C153 C152 1.391 . S
C154 Tb144 2.825 1_554 S
C154 C148 1.507 . S
C154 O167 1.238 . S
C154 O168 1.247 . S
O155 Tb144 2.347 1_565 S
O155 C159 1.259 . S
O156 Eu145 2.418 . S
O156 C159 1.265 . S
O157 Eu145 2.384 . S
O157 C166 1.255 . S
O158 Tb144 2.366 . S
O158 C166 1.265 1_545 S
C159 O155 1.259 . S
C159 O156 1.265 . S
O160 Eu145 2.479 . S
O160 C175 1.238 . S
O161 Eu145 2.471 . S
O161 C175 1.247 . S
O162 Eu145 2.347 1_545 S
O162 C146 1.259 . S
O163 Tb144 2.418 . S
O163 C146 1.265 . S
O164 Tb144 2.384 . S
O164 C147 1.255 . S
O165 Eu145 2.366 . S
O165 C147 1.265 1_565 S
C166 O157 1.255 . S
C166 O158 1.265 1_565 S
O167 Tb144 2.479 1_554 S
O167 C154 1.238 . S
O168 Tb144 2.471 1_554 S
O168 C154 1.247 . S
C169 C172 1.380 . S
C169 C173 1.374 . S
C169 C175 1.507 . S
C170 C171 1.387 . S
C170 C174 1.391 . S
C171 C170 1.387 . S
C171 C172 1.384 . S
C171 H180 0.930 . S
C172 C169 1.380 . S
C172 C171 1.384 . S
C172 H181 0.931 . S
C173 C169 1.374 . S
C173 C174 1.390 . S
C173 H182 0.930 1_565 S
C174 C170 1.391 . S
C174 C173 1.390 . S
C174 H183 0.930 1_565 S
C175 Eu145 2.825 . S
C175 O160 1.238 . S
C175 O161 1.247 . S
C175 C169 1.507 . S
H176 C149 0.930 . S
H177 C150 0.931 . S
H178 C151 0.930 1_565 S
H179 C152 0.930 1_565 S
H180 C171 0.930 . S
H181 C172 0.931 . S
H182 C173 0.930 1_545 S
H183 C174 0.930 1_545 S
Tb184 C194 2.825 1_556 S
Tb184 O195 2.347 . S
Tb184 O198 2.366 . S
Tb184 O203 2.418 . S
Tb184 O204 2.384 . S
Tb184 O207 2.479 1_556 S
Tb184 O208 2.471 1_556 S
Eu185 O196 2.418 . S
Eu185 O197 2.384 . S
Eu185 O200 2.479 . S
Eu185 O201 2.471 . S
Eu185 O202 2.347 . S
Eu185 O205 2.366 . S
Eu185 C215 2.825 . S
C186 O202 1.259 . S
C186 O203 1.265 . S
C187 O204 1.255 . S
C187 O205 1.265 . S
C188 C190 1.380 . S
C188 C191 1.374 . S
C188 C194 1.507 . S
C189 C190 1.384 . S
C189 C193 1.387 . S
C189 H216 0.930 . S
C190 C188 1.380 . S
C190 C189 1.384 . S
C190 H217 0.931 . S
C191 C188 1.374 . S
C191 C192 1.390 . S
C191 H218 0.930 . S
C192 C191 1.390 . S
C192 C193 1.391 . S
C192 H219 0.930 . S
C193 C189 1.387 . S
C193 C192 1.391 . S
C194 Tb184 2.825 1_554 S
C194 C188 1.507 . S
C194 O207 1.238 . S
C194 O208 1.247 . S
O195 Tb184 2.347 . S
O195 C199 1.259 . S
O196 Eu185 2.418 . S
O196 C199 1.265 . S
O197 Eu185 2.384 . S
O197 C206 1.255 . S
O198 Tb184 2.366 . S
O198 C206 1.265 . S
C199 O195 1.259 . S
C199 O196 1.265 . S
O200 Eu185 2.479 . S
O200 C215 1.238 . S
O201 Eu185 2.471 . S
O201 C215 1.247 . S
O202 Eu185 2.347 . S
O202 C186 1.259 . S
O203 Tb184 2.418 . S
O203 C186 1.265 . S
O204 Tb184 2.384 . S
O204 C187 1.255 . S
O205 Eu185 2.366 . S
O205 C187 1.265 . S
C206 O197 1.255 . S
C206 O198 1.265 . S
O207 Tb184 2.479 1_554 S
O207 C194 1.238 . S
O208 Tb184 2.471 1_554 S
O208 C194 1.247 . S
C209 C212 1.380 . S
C209 C213 1.374 . S
C209 C215 1.507 . S
C210 C211 1.387 . S
C210 C214 1.391 . S
C211 C210 1.387 . S
C211 C212 1.384 . S
C211 H220 0.930 . S
C212 C209 1.380 . S
C212 C211 1.384 . S
C212 H221 0.931 . S
C213 C209 1.374 . S
C213 C214 1.390 . S
C213 H222 0.930 . S
C214 C210 1.391 . S
C214 C213 1.390 . S
C214 H223 0.930 . S
C215 Eu185 2.825 . S
C215 O200 1.238 . S
C215 O201 1.247 . S
C215 C209 1.507 . S
H216 C189 0.930 . S
H217 C190 0.931 . S
H218 C191 0.930 . S
H219 C192 0.930 . S
H220 C211 0.930 . S
H221 C212 0.931 . S
H222 C213 0.930 . S
H223 C214 0.930 . S
Tb224 C234 2.825 1_556 S
Tb224 O235 2.347 . S
Tb224 O238 2.366 . S
Tb224 O243 2.418 . S
Tb224 O244 2.384 1_655 S
Tb224 O247 2.479 1_556 S
Tb224 O248 2.471 1_556 S
Eu225 O236 2.418 . S
Eu225 O237 2.384 1_455 S
Eu225 O240 2.479 . S
Eu225 O241 2.471 . S
Eu225 O242 2.347 . S
Eu225 O245 2.366 . S
Eu225 C255 2.825 . S
C226 O242 1.259 1_655 S
C226 O243 1.265 . S
C227 O244 1.255 . S
C227 O245 1.265 . S
C228 C230 1.380 . S
C228 C231 1.374 . S
C228 C234 1.507 . S
C229 C230 1.384 . S
C229 C233 1.387 . S
C229 H256 0.930 . S
C230 C228 1.380 . S
C230 C229 1.384 . S
C230 H257 0.931 . S
C231 C228 1.374 . S
C231 C232 1.390 . S
C231 H258 0.930 . S
C232 C231 1.390 . S
C232 C233 1.391 . S
C232 H259 0.930 . S
C233 C229 1.387 . S
C233 C232 1.391 . S
C234 Tb224 2.825 1_554 S
C234 C228 1.507 . S
C234 O247 1.238 . S
C234 O248 1.247 . S
O235 Tb224 2.347 . S
O235 C239 1.259 1_655 S
O236 Eu225 2.418 . S
O236 C239 1.265 . S
O237 Eu225 2.384 1_655 S
O237 C246 1.255 . S
O238 Tb224 2.366 . S
O238 C246 1.265 . S
C239 O235 1.259 1_455 S
C239 O236 1.265 . S
O240 Eu225 2.479 . S
O240 C255 1.238 . S
O241 Eu225 2.471 . S
O241 C255 1.247 . S
O242 Eu225 2.347 . S
O242 C226 1.259 1_455 S
O243 Tb224 2.418 . S
O243 C226 1.265 . S
O244 Tb224 2.384 1_455 S
O244 C227 1.255 . S
O245 Eu225 2.366 . S
O245 C227 1.265 . S
C246 O237 1.255 . S
C246 O238 1.265 . S
O247 Tb224 2.479 1_554 S
O247 C234 1.238 . S
O248 Tb224 2.471 1_554 S
O248 C234 1.247 . S
C249 C252 1.380 . S
C249 C253 1.374 . S
C249 C255 1.507 . S
C250 C251 1.387 . S
C250 C254 1.391 . S
C251 C250 1.387 . S
C251 C252 1.384 . S
C251 H260 0.930 . S
C252 C249 1.380 . S
C252 C251 1.384 . S
C252 H261 0.931 . S
C253 C249 1.374 . S
C253 C254 1.390 . S
C253 H262 0.930 . S
C254 C250 1.391 . S
C254 C253 1.390 . S
C254 H263 0.930 . S
C255 Eu225 2.825 . S
C255 O240 1.238 . S
C255 O241 1.247 . S
C255 C249 1.507 . S
H256 C229 0.930 . S
H257 C230 0.931 . S
H258 C231 0.930 . S
H259 C232 0.930 . S
H260 C251 0.930 . S
H261 C252 0.931 . S
H262 C253 0.930 . S
H263 C254 0.930 . S
C264 C265 1.364 1_545 S
C264 C266 1.419 . S
C264 H268 0.930 . S
C265 C264 1.364 1_565 S
C265 C274 1.434 . S
C266 C264 1.419 . S
C266 C267 1.351 1_545 S
C266 H269 0.929 . S
C267 C266 1.351 1_565 S
C267 C273 1.440 . S
H268 C264 0.930 . S
H269 C266 0.929 . S
S270 N271 1.613 . S
S270 N272 1.610 . S
N271 S270 1.613 . S
N271 C274 1.350 . S
N272 S270 1.610 . S
N272 C273 1.351 . S
C273 C267 1.440 . S
C273 N272 1.351 . S
C273 C274 1.434 . S
C274 C265 1.434 . S
C274 N271 1.350 . S
C274 C273 1.434 . S
C275 C276 1.369 . S
C275 C277 1.419 . S
C275 H279 0.930 . S
C276 C275 1.369 . S
C276 C285 1.429 . S
C277 C275 1.419 . S
C277 C278 1.363 . S
C277 H280 0.929 . S
C278 C277 1.363 . S
C278 C284 1.428 . S
H279 C275 0.930 . S
H280 C277 0.929 . S
S281 N282 1.613 . S
S281 N283 1.610 . S
N282 S281 1.613 . S
N282 C285 1.350 . S
N283 S281 1.610 . S
N283 C284 1.351 . S
C284 C278 1.428 . S
C284 N283 1.351 . S
C284 C285 1.434 . S
C285 C276 1.429 . S
C285 N282 1.350 . S
C285 C284 1.434 . S
C286 C287 1.369 . S
C286 C288 1.419 . S
C286 H290 0.930 . S
C287 C286 1.369 . S
C287 C296 1.429 . S
C288 C286 1.419 . S
C288 C289 1.363 . S
C288 H291 0.929 . S
C289 C288 1.363 . S
C289 C295 1.428 . S
H290 C286 0.930 . S
H291 C288 0.929 . S
S292 N293 1.613 . S
S292 N294 1.610 . S
N293 S292 1.613 . S
N293 C296 1.350 . S
N294 S292 1.610 . S
N294 C295 1.351 . S
C295 C289 1.428 . S
C295 N294 1.351 . S
C295 C296 1.434 . S
C296 C287 1.429 . S
C296 N293 1.350 . S
C296 C295 1.434 . S
C297 C298 1.372 1_455 S
C297 C299 1.419 . S
C297 H301 0.930 . S
C298 C297 1.372 1_655 S
C298 C307 1.426 . S
C299 C297 1.419 . S
C299 C300 1.383 . S
C299 H302 0.929 . S
C300 C299 1.383 . S
C300 C306 1.408 1_455 S
H301 C297 0.930 . S
H302 C299 0.929 . S
S303 N304 1.613 . S
S303 N305 1.610 . S
N304 S303 1.613 . S
N304 C307 1.350 . S
N305 S303 1.610 . S
N305 C306 1.351 . S
C306 C300 1.408 1_655 S
C306 N305 1.351 . S
C306 C307 1.434 . S
C307 C298 1.426 . S
C307 N304 1.350 . S
C307 C306 1.434 . S
C308 C309 1.357 1_565 S
C308 C310 1.419 . S
C308 H312 0.930 . S
C309 C308 1.357 1_545 S
C309 C318 1.442 . S
C310 C308 1.419 . S
C310 C311 1.347 1_565 S
C310 H313 0.929 . S
C311 C310 1.347 1_545 S
C311 C317 1.446 . S
H312 C308 0.930 . S
H313 C310 0.929 . S
S314 N315 1.613 . S
S314 N316 1.610 . S
N315 S314 1.613 . S
N315 C318 1.350 . S
N316 S314 1.610 . S
N316 C317 1.351 . S
C317 C311 1.446 . S
C317 N316 1.351 . S
C317 C318 1.434 . S
C318 C309 1.442 . S
C318 N315 1.350 . S
C318 C317 1.434 . S
C319 C320 1.369 . S
C319 C321 1.419 . S
C319 H323 0.930 . S
C320 C319 1.369 . S
C320 C329 1.429 . S
C321 C319 1.419 . S
C321 C322 1.363 . S
C321 H324 0.929 . S
C322 C321 1.363 . S
C322 C328 1.428 . S
H323 C319 0.930 . S
H324 C321 0.929 . S
S325 N326 1.613 . S
S325 N327 1.610 . S
N326 S325 1.613 . S
N326 C329 1.350 . S
N327 S325 1.610 . S
N327 C328 1.351 . S
C328 C322 1.428 . S
C328 N327 1.351 . S
C328 C329 1.434 . S
C329 C320 1.429 . S
C329 N326 1.350 . S
C329 C328 1.434 . S
C330 C331 1.369 . S
C330 C332 1.419 . S
C330 H334 0.930 . S
C331 C330 1.369 . S
C331 C340 1.429 . S
C332 C330 1.419 . S
C332 C333 1.363 . S
C332 H335 0.929 . S
C333 C332 1.363 . S
C333 C339 1.428 . S
H334 C330 0.930 . S
H335 C332 0.929 . S
S336 N337 1.613 . S
S336 N338 1.610 . S
N337 S336 1.613 . S
N337 C340 1.350 . S
N338 S336 1.610 . S
N338 C339 1.351 . S
C339 C333 1.428 . S
C339 N338 1.351 . S
C339 C340 1.434 . S
C340 C331 1.429 . S
C340 N337 1.350 . S
C340 C339 1.434 . S
C341 C342 1.367 1_455 S
C341 C343 1.419 . S
C341 H345 0.930 . S
C342 C341 1.367 1_655 S
C342 C351 1.432 . S
C343 C341 1.419 . S
C343 C344 1.363 1_455 S
C343 H346 0.929 . S
C344 C343 1.363 1_655 S
C344 C350 1.428 . S
H345 C341 0.930 . S
H346 C343 0.929 . S
S347 N348 1.613 . S
S347 N349 1.610 . S
N348 S347 1.613 . S
N348 C351 1.350 . S
N349 S347 1.610 . S
N349 C350 1.351 . S
C350 C344 1.428 . S
C350 N349 1.351 . S
C350 C351 1.434 . S
C351 C342 1.432 . S
C351 N348 1.350 . S
C351 C350 1.434 . S
C352 C353 1.368 . S
C352 C354 1.419 . S
C352 H356 0.930 . S
C353 C352 1.368 . S
C353 C362 1.429 1_655 S
C354 C352 1.419 . S
C354 C355 1.363 . S
C354 H357 0.929 . S
C355 C354 1.363 . S
C355 C361 1.428 . S
H356 C352 0.930 . S
H357 C354 0.929 . S
S358 N359 1.613 . S
S358 N360 1.610 1_455 S
N359 S358 1.613 . S
N359 C362 1.350 . S
N360 S358 1.610 1_655 S
N360 C361 1.351 . S
C361 C355 1.428 . S
C361 N360 1.351 . S
C361 C362 1.434 1_655 S
C362 C353 1.429 1_455 S
C362 N359 1.350 . S
C362 C361 1.434 1_455 S
C363 C364 1.371 . S
C363 C365 1.419 . S
C363 H367 0.930 . S
C364 C363 1.371 . S
C364 C373 1.429 . S
C365 C363 1.419 . S
C365 C366 1.363 . S
C365 H368 0.929 . S
C366 C365 1.363 . S
C366 C372 1.428 . S
H367 C363 0.930 . S
H368 C365 0.929 . S
S369 N370 1.613 1_566 S
S369 N371 1.609 1_556 S
N370 S369 1.613 1_544 S
N370 C373 1.350 1_545 S
N371 S369 1.609 1_554 S
N371 C372 1.351 . S
C372 C366 1.428 . S
C372 N371 1.351 . S
C372 C373 1.434 . S
C373 C364 1.429 . S
C373 N370 1.350 1_565 S
C373 C372 1.434 . S
C374 C375 1.369 . S
C374 C376 1.419 . S
C374 H378 0.930 . S
C375 C374 1.369 . S
C375 C384 1.429 . S
C376 C374 1.419 . S
C376 C377 1.363 . S
C376 H379 0.929 . S
C377 C376 1.363 . S
C377 C383 1.428 . S
H378 C374 0.930 . S
H379 C376 0.929 . S
S380 N381 1.613 1_556 S
S380 N382 1.610 1_556 S
N381 S380 1.613 1_554 S
N381 C384 1.350 . S
N382 S380 1.610 1_554 S
N382 C383 1.351 . S
C383 C377 1.428 . S
C383 N382 1.351 . S
C383 C384 1.434 . S
C384 C375 1.429 . S
C384 N381 1.350 . S
C384 C383 1.434 . S
C385 C386 1.369 . S
C385 C387 1.419 . S
C385 H389 0.930 . S
C386 C385 1.369 . S
C386 C395 1.429 . S
C387 C385 1.419 . S
C387 C388 1.363 . S
C387 H390 0.929 . S
C388 C387 1.363 . S
C388 C394 1.428 . S
H389 C385 0.930 . S
H390 C387 0.929 . S
S391 N392 1.613 . S
S391 N393 1.610 . S
N392 S391 1.613 . S
N392 C395 1.350 . S
N393 S391 1.610 . S
N393 C394 1.351 . S
C394 C388 1.428 . S
C394 N393 1.351 . S
C394 C395 1.434 . S
C395 C386 1.429 . S
C395 N392 1.350 . S
C395 C394 1.434 . S
C396 C397 1.369 1_655 S
C396 C398 1.415 1_655 S
C396 H400 0.934 . S
C397 C396 1.369 1_455 S
C397 C406 1.439 . S
C398 C396 1.415 1_455 S
C398 C399 1.363 . S
C398 H401 0.929 . S
C399 C398 1.363 . S
C399 C405 1.428 . S
H400 C396 0.934 . S
H401 C398 0.929 . S
S402 N403 1.613 . S
S402 N404 1.610 . S
N403 S402 1.613 . S
N403 C406 1.350 . S
N404 S402 1.610 . S
N404 C405 1.351 . S
C405 C399 1.428 . S
C405 N404 1.351 . S
C405 C406 1.434 . S
C406 C397 1.439 . S
C406 N403 1.350 . S
C406 C405 1.434 . S
C407 C408 1.369 . S
C407 C409 1.419 . S
C407 H411 0.930 . S
C408 C407 1.369 . S
C408 C417 1.428 1_545 S
C409 C407 1.419 . S
C409 C410 1.363 . S
C409 H412 0.929 . S
C410 C409 1.363 . S
C410 C416 1.428 . S
H411 C407 0.930 . S
H412 C409 0.929 . S
S413 N414 1.613 . S
S413 N415 1.610 . S
N414 S413 1.613 . S
N414 C417 1.350 . S
N415 S413 1.610 . S
N415 C416 1.351 1_565 S
C416 C410 1.428 . S
C416 N415 1.351 1_545 S
C416 C417 1.434 1_545 S
C417 C408 1.428 1_565 S
C417 N414 1.350 . S
C417 C416 1.434 1_565 S
C418 C419 1.369 . S
C418 C420 1.419 . S
C418 H422 0.930 . S
C419 C418 1.369 . S
C419 C428 1.429 . S
C420 C418 1.419 . S
C420 C421 1.363 . S
C420 H423 0.929 . S
C421 C420 1.363 . S
C421 C427 1.428 . S
H422 C418 0.930 . S
H423 C420 0.929 . S
S424 N425 1.613 . S
S424 N426 1.610 . S
N425 S424 1.613 . S
N425 C428 1.350 . S
N426 S424 1.610 . S
N426 C427 1.351 . S
C427 C421 1.428 . S
C427 N426 1.351 . S
C427 C428 1.434 . S
C428 C419 1.429 . S
C428 N425 1.350 . S
C428 C427 1.434 . S
C429 C430 1.369 . S
C429 C431 1.419 . S
C429 H433 0.930 . S
C430 C429 1.369 . S
C430 C439 1.429 . S
C431 C429 1.419 . S
C431 C432 1.363 . S
C431 H434 0.929 . S
C432 C431 1.363 . S
C432 C438 1.428 . S
H433 C429 0.930 . S
H434 C431 0.929 . S
S435 N436 1.613 . S
S435 N437 1.610 . S
N436 S435 1.613 . S
N436 C439 1.350 . S
N437 S435 1.610 . S
N437 C438 1.351 . S
C438 C432 1.428 . S
C438 N437 1.351 . S
C438 C439 1.434 . S
C439 C430 1.429 . S
C439 N436 1.350 . S
C439 C438 1.434 . S
C440 C441 1.369 . S
C440 C442 1.419 . S
C440 H444 0.930 . S
C441 C440 1.369 . S
C441 C450 1.429 1_455 S
C442 C440 1.419 . S
C442 C443 1.363 . S
C442 H445 0.929 . S
C443 C442 1.363 . S
C443 C449 1.428 1_455 S
H444 C440 0.930 . S
H445 C442 0.929 . S
S446 N447 1.613 . S
S446 N448 1.610 . S
N447 S446 1.613 . S
N447 C450 1.350 . S
N448 S446 1.610 . S
N448 C449 1.351 . S
C449 C443 1.428 1_655 S
C449 N448 1.351 . S
C449 C450 1.434 . S
C450 C441 1.429 1_655 S
C450 N447 1.350 . S
C450 C449 1.434 . S
C451 C452 1.369 1_565 S
C451 C453 1.419 . S
C451 H455 0.930 . S
C452 C451 1.369 1_545 S
C452 C461 1.429 . S
C453 C451 1.419 . S
C453 C454 1.363 1_565 S
C453 H456 0.929 . S
C454 C453 1.363 1_545 S
C454 C460 1.428 . S
H455 C451 0.930 . S
H456 C453 0.929 . S
S457 N458 1.613 . S
S457 N459 1.610 . S
N458 S457 1.613 . S
N458 C461 1.350 . S
N459 S457 1.610 . S
N459 C460 1.351 . S
C460 C454 1.428 . S
C460 N459 1.351 . S
C460 C461 1.434 . S
C461 C452 1.429 . S
C461 N458 1.350 . S
C461 C460 1.434 . S
C462 C463 1.369 . S
C462 C464 1.419 . S
C462 H466 0.930 . S
C463 C462 1.369 . S
C463 C472 1.429 . S
C464 C462 1.419 . S
C464 C465 1.363 . S
C464 H467 0.929 . S
C465 C464 1.363 . S
C465 C471 1.428 . S
H466 C462 0.930 . S
H467 C464 0.929 . S
S468 N469 1.613 . S
S468 N470 1.610 . S
N469 S468 1.613 . S
N469 C472 1.350 . S
N470 S468 1.610 . S
N470 C471 1.351 . S
C471 C465 1.428 . S
C471 N470 1.351 . S
C471 C472 1.434 . S
C472 C463 1.429 . S
C472 N469 1.350 . S
C472 C471 1.434 . S
C473 C474 1.369 . S
C473 C475 1.419 . S
C473 H477 0.930 . S
C474 C473 1.369 . S
C474 C483 1.429 . S
C475 C473 1.419 . S
C475 C476 1.363 . S
C475 H478 0.929 . S
C476 C475 1.363 . S
C476 C482 1.428 . S
H477 C473 0.930 . S
H478 C475 0.929 . S
S479 N480 1.613 . S
S479 N481 1.610 . S
N480 S479 1.613 . S
N480 C483 1.350 . S
N481 S479 1.610 . S
N481 C482 1.351 . S
C482 C476 1.428 . S
C482 N481 1.351 . S
C482 C483 1.434 . S
C483 C474 1.429 . S
C483 N480 1.350 . S
C483 C482 1.434 . S
C484 C485 1.366 1_455 S
C484 C486 1.416 1_455 S
C484 H488 0.937 . S
C485 C484 1.366 1_655 S
C485 C494 1.429 . S
C486 C484 1.416 1_655 S
C486 C487 1.363 . S
C486 H489 0.926 1_655 S
C487 C486 1.363 . S
C487 C493 1.428 . S
H488 C484 0.937 . S
H489 C486 0.926 1_455 S
S490 N491 1.613 1_554 S
S490 N492 1.610 1_554 S
N491 S490 1.613 1_556 S
N491 C494 1.350 . S
N492 S490 1.610 1_556 S
N492 C493 1.351 . S
C493 C487 1.428 . S
C493 N492 1.351 . S
C493 C494 1.434 . S
C494 C485 1.429 . S
C494 N491 1.350 . S
C494 C493 1.434 . S
C495 C496 1.369 1_545 S
C495 C497 1.419 . S
C495 H499 0.930 . S
C496 C495 1.369 1_565 S
C496 C505 1.429 . S
C497 C495 1.419 . S
C497 C498 1.363 1_545 S
C497 H500 0.929 . S
C498 C497 1.363 1_565 S
C498 C504 1.428 . S
H499 C495 0.930 . S
H500 C497 0.929 . S
S501 N502 1.613 . S
S501 N503 1.610 . S
N502 S501 1.613 . S
N502 C505 1.350 . S
N503 S501 1.610 . S
N503 C504 1.351 . S
C504 C498 1.428 . S
C504 N503 1.351 . S
C504 C505 1.434 . S
C505 C496 1.429 . S
C505 N502 1.350 . S
C505 C504 1.434 . S
C506 C507 1.369 . S
C506 C508 1.419 . S
C506 H510 0.930 . S
C507 C506 1.369 . S
C507 C516 1.429 . S
C508 C506 1.419 . S
C508 C509 1.363 . S
C508 H511 0.929 . S
C509 C508 1.363 . S
C509 C515 1.428 . S
H510 C506 0.930 . S
H511 C508 0.929 . S
S512 N513 1.613 . S
S512 N514 1.610 . S
N513 S512 1.613 . S
N513 C516 1.350 . S
N514 S512 1.610 . S
N514 C515 1.351 . S
C515 C509 1.428 . S
C515 N514 1.351 . S
C515 C516 1.434 . S
C516 C507 1.429 . S
C516 N513 1.350 . S
C516 C515 1.434 . S
C517 C518 1.369 . S
C517 C519 1.419 . S
C517 H521 0.930 . S
C518 C517 1.369 . S
C518 C527 1.429 . S
C519 C517 1.419 . S
C519 C520 1.363 . S
C519 H522 0.929 . S
C520 C519 1.363 . S
C520 C526 1.428 . S
H521 C517 0.930 . S
H522 C519 0.929 . S
S523 N524 1.613 . S
S523 N525 1.610 . S
N524 S523 1.613 . S
N524 C527 1.350 . S
N525 S523 1.610 . S
N525 C526 1.351 . S
C526 C520 1.428 . S
C526 N525 1.351 . S
C526 C527 1.434 . S
C527 C518 1.429 . S
C527 N524 1.350 . S
C527 C526 1.434 . S
C265 C82 1.765 1_565 S
C267 C106 2.183 . S
C278 C146 2.200 . S
C276 C95 1.768 . S
C289 C186 2.211 . S
C287 C56 1.779 . S
C300 C226 2.194 1_455 S
C298 C69 1.773 1_655 S
C311 C119 2.186 1_554 S
C309 C30 1.763 . S
C320 C43 1.796 . S
C322 C159 2.203 1_554 S
C331 C4 1.808 . S
C333 C199 2.210 1_554 S
C342 C17 1.765 1_655 S
C344 C239 2.197 1_654 S
C355 C130 0.759 . S
C353 C74 0.758 1_655 S
C366 C170 0.763 . S
C364 C87 0.754 1_565 S
C377 C210 0.754 . S
C375 C100 0.746 . S
C386 C61 0.752 . S
C388 C250 0.742 . S
C397 C22 0.758 . S
C399 C113 0.774 . S
C410 C153 0.757 . S
C408 C35 0.774 . S
C421 C193 0.762 . S
C419 C48 0.745 . S
C430 C9 0.740 . S
C432 C233 0.761 . S
C441 C73 2.230 . S
C443 C107 2.552 . S
C452 C86 2.192 . S
C454 C147 2.517 . S
C465 C187 2.502 . S
C463 C99 2.178 . S
C476 C227 2.542 . S
C474 C60 2.213 . S
C485 C21 2.237 1_655 S
C487 C126 2.560 . S
C498 C166 2.516 . S
C496 C34 2.192 1_565 S
C509 C206 2.504 . S
C507 C47 2.177 . S
C518 C8 2.215 . S
C520 C246 2.547 . S
