# Generated by pormake.
# Topology zzz, (3,6)-cn, num edge types: 1
# Building blocks:
#     Node 0, Type 0, BuildingBlock: PAMTOO_clean_linker_0, # of connection points: 3
#     Node 1, Type 0, BuildingBlock: PAMTOO_clean_linker_0, # of connection points: 3
#     Node 2, Type 0, BuildingBlock: PAMTOO_clean_linker_0, # of connection points: 3
#     Node 3, Type 0, BuildingBlock: PAMTOO_clean_linker_0, # of connection points: 3
#     Node 4, Type 0, BuildingBlock: PAMTOO_clean_linker_0, # of connection points: 3
#     Node 5, Type 0, BuildingBlock: PAMTOO_clean_linker_0, # of connection points: 3
#     Node 6, Type 0, BuildingBlock: PAMTOO_clean_linker_0, # of connection points: 3
#     Node 7, Type 0, BuildingBlock: PAMTOO_clean_linker_0, # of connection points: 3
#     Node 8, Type 1, BuildingBlock: LEVNOQ01_clean_sbu_1, # of connection points: 6
#     Node 9, Type 1, BuildingBlock: LEVNOQ01_clean_sbu_1, # of connection points: 6
#     Node 10, Type 1, BuildingBlock: LEVNOQ01_clean_sbu_1, # of connection points: 6
#     Node 11, Type 1, BuildingBlock: LEVNOQ01_clean_sbu_1, # of connection points: 6
#     Edge 12, Type (0, 1), BuildingBlock: EYOCIG_clean_linker_4, # of connection points: 2
#     Edge 13, Type (0, 1), BuildingBlock: EYOCIG_clean_linker_4, # of connection points: 2
#     Edge 14, Type (0, 1), BuildingBlock: EYOCIG_clean_linker_4, # of connection points: 2
#     Edge 15, Type (0, 1), BuildingBlock: EYOCIG_clean_linker_4, # of connection points: 2
#     Edge 16, Type (0, 1), BuildingBlock: EYOCIG_clean_linker_4, # of connection points: 2
#     Edge 17, Type (0, 1), BuildingBlock: EYOCIG_clean_linker_4, # of connection points: 2
#     Edge 18, Type (0, 1), BuildingBlock: EYOCIG_clean_linker_4, # of connection points: 2
#     Edge 19, Type (0, 1), BuildingBlock: EYOCIG_clean_linker_4, # of connection points: 2
#     Edge 20, Type (0, 1), BuildingBlock: EYOCIG_clean_linker_4, # of connection points: 2
#     Edge 21, Type (0, 1), BuildingBlock: EYOCIG_clean_linker_4, # of connection points: 2
#     Edge 22, Type (0, 1), BuildingBlock: EYOCIG_clean_linker_4, # of connection points: 2
#     Edge 23, Type (0, 1), BuildingBlock: EYOCIG_clean_linker_4, # of connection points: 2
#     Edge 24, Type (0, 1), BuildingBlock: EYOCIG_clean_linker_4, # of connection points: 2
#     Edge 25, Type (0, 1), BuildingBlock: EYOCIG_clean_linker_4, # of connection points: 2
#     Edge 26, Type (0, 1), BuildingBlock: EYOCIG_clean_linker_4, # of connection points: 2
#     Edge 27, Type (0, 1), BuildingBlock: EYOCIG_clean_linker_4, # of connection points: 2
#     Edge 28, Type (0, 1), BuildingBlock: EYOCIG_clean_linker_4, # of connection points: 2
#     Edge 29, Type (0, 1), BuildingBlock: EYOCIG_clean_linker_4, # of connection points: 2
#     Edge 30, Type (0, 1), BuildingBlock: EYOCIG_clean_linker_4, # of connection points: 2
#     Edge 31, Type (0, 1), BuildingBlock: EYOCIG_clean_linker_4, # of connection points: 2
#     Edge 32, Type (0, 1), BuildingBlock: EYOCIG_clean_linker_4, # of connection points: 2
#     Edge 33, Type (0, 1), BuildingBlock: EYOCIG_clean_linker_4, # of connection points: 2
#     Edge 34, Type (0, 1), BuildingBlock: EYOCIG_clean_linker_4, # of connection points: 2
#     Edge 35, Type (0, 1), BuildingBlock: EYOCIG_clean_linker_4, # of connection points: 2
# Relax obj value: 0.130
# Max RMSD: 0.178
# Mean RMSD: 0.105
data_MOF--net-zzz--node1-LEVNOQ01_clean_sbu_1--node2-PAMTOO_clean_linker_0--edge1-EYOCIG_clean_linker_4
_symmetry_space_group_name_H-M    P1
_symmetry_Int_Tables_number       1
_symmetry_cell_setting            triclinic
loop_
_symmetry_equiv_pos_as_xyz
'x, y, z'
_cell_length_a     39.22414
_cell_length_b     39.226447
_cell_length_c     12.592069
_cell_angle_alpha  90.044356
_cell_angle_beta   90.111299
_cell_angle_gamma 90.045954
loop_
_atom_site_label
_atom_site_type_symbol
_atom_site_fract_x
_atom_site_fract_y
_atom_site_fract_z
_atom_type_partial_charge
H0 H 0.8666 0.56874 0.17973 0.0
H1 H 0.77937 0.57803 0.97567 0.0
H2 H 0.76657 0.57758 0.31573 0.0
H3 H 0.70664 0.54236 0.19345 0.0
C4 C 0.71617 0.55114 0.1152 0.0
O5 O 0.73475 0.58084 0.12865 0.0
H6 H 0.73225 0.53059 0.08035 0.0
C7 C 0.83939 0.57321 0.17031 0.0
C8 C 0.81872 0.57431 0.25968 0.0
C9 C 0.82533 0.57391 0.06888 0.0
C10 C 0.79037 0.57863 0.05472 0.0
C11 C 0.76898 0.58024 0.14374 0.0
C12 C 0.78316 0.57795 0.24709 0.0
H13 H 0.95964 0.86738 0.18043 0.0
H14 H 0.95085 0.78057 0.97468 0.0
H15 H 0.94915 0.76718 0.31451 0.0
H16 H 0.98417 0.70639 0.19218 0.0
C17 C 0.97624 0.71689 0.11417 0.0
O18 O 0.94671 0.73572 0.12673 0.0
H19 H 0.99736 0.73302 0.08298 0.0
C20 C 0.95501 0.84021 0.17038 0.0
C21 C 0.95319 0.8194 0.25939 0.0
C22 C 0.95482 0.82632 0.06877 0.0
C23 C 0.94989 0.79143 0.05383 0.0
C24 C 0.94757 0.76991 0.14241 0.0
C25 C 0.94935 0.78388 0.24608 0.0
H26 H 0.66102 0.96062 0.18131 0.0
H27 H 0.74786 0.95021 0.9772 0.0
H28 H 0.76118 0.95129 0.31721 0.0
H29 H 0.82192 0.9854 0.19309 0.0
C30 C 0.81146 0.97689 0.11554 0.0
O31 O 0.79267 0.9474 0.13002 0.0
H32 H 0.79532 0.99773 0.08261 0.0
C33 C 0.68819 0.95593 0.17191 0.0
C34 C 0.70898 0.95484 0.26126 0.0
C35 C 0.70209 0.95487 0.07047 0.0
C36 C 0.73698 0.94987 0.05629 0.0
C37 C 0.75848 0.94831 0.14526 0.0
C38 C 0.74449 0.95092 0.24862 0.0
H39 H 0.56911 0.66033 0.1617 0.0
H40 H 0.5803 0.74962 0.96785 0.0
H41 H 0.5738 0.75919 0.3083 0.0
H42 H 0.53985 0.82068 0.1858 0.0
C43 C 0.54927 0.81076 0.10871 0.0
O44 O 0.57911 0.79276 0.12526 0.0
H45 H 0.52912 0.7942 0.0734 0.0
C46 C 0.57317 0.68769 0.15558 0.0
C47 C 0.57254 0.70754 0.24705 0.0
C48 C 0.57562 0.70272 0.05567 0.0
C49 C 0.57969 0.73789 0.04578 0.0
C50 C 0.57912 0.75842 0.13689 0.0
C51 C 0.57554 0.74325 0.23826 0.0
H52 H 0.16417 0.46639 0.23322 0.0
H53 H 0.25382 0.47114 0.4282 0.0
H54 H 0.26318 0.45746 0.08966 0.0
H55 H 0.33059 0.42548 0.24965 0.0
C56 C 0.31712 0.43881 0.31498 0.0
O57 O 0.29701 0.46444 0.27276 0.0
H58 H 0.30154 0.41989 0.35943 0.0
C59 C 0.1917 0.46407 0.24075 0.0
C60 C 0.21147 0.46072 0.14991 0.0
C61 C 0.20682 0.46799 0.33998 0.0
C62 C 0.24214 0.4667 0.35129 0.0
C63 C 0.26269 0.46201 0.26153 0.0
C64 C 0.24734 0.45903 0.15981 0.0
H65 H 0.06049 0.16473 0.2261 0.0
H66 H 0.05503 0.25449 0.42002 0.0
H67 H 0.07364 0.26351 0.08377 0.0
H68 H 0.10486 0.33009 0.24562 0.0
C69 C 0.09045 0.3172 0.30982 0.0
O70 O 0.06483 0.29751 0.26539 0.0
H71 H 0.10844 0.30136 0.35716 0.0
C72 C 0.06329 0.19222 0.23391 0.0
C73 C 0.06836 0.21191 0.14364 0.0
C74 C 0.0583 0.20741 0.33242 0.0
C75 C 0.06023 0.24271 0.34383 0.0
C76 C 0.06666 0.26314 0.25477 0.0
C77 C 0.07073 0.24772 0.15367 0.0
H78 H 0.36377 0.06262 0.2296 0.0
H79 H 0.27388 0.05774 0.4225 0.0
H80 H 0.26495 0.07205 0.08406 0.0
H81 H 0.19812 0.10424 0.23956 0.0
C82 C 0.21075 0.09067 0.30613 0.0
O83 O 0.23092 0.0648 0.26588 0.0
H84 H 0.22615 0.10931 0.35263 0.0
C85 C 0.33623 0.06497 0.23661 0.0
C86 C 0.31655 0.06856 0.14546 0.0
C87 C 0.321 0.06091 0.33543 0.0
C88 C 0.28567 0.06225 0.34595 0.0
C89 C 0.26524 0.06714 0.25575 0.0
C90 C 0.2807 0.07029 0.15454 0.0
H91 H 0.46659 0.36478 0.21787 0.0
H92 H 0.47159 0.27797 0.42407 0.0
H93 H 0.45523 0.26393 0.08805 0.0
H94 H 0.42215 0.20121 0.25516 0.0
C95 C 0.4372 0.21354 0.31925 0.0
O96 O 0.46312 0.23268 0.27469 0.0
H97 H 0.41992 0.22971 0.36791 0.0
C98 C 0.46404 0.3374 0.22911 0.0
C99 C 0.4597 0.31639 0.14125 0.0
C100 C 0.46844 0.32368 0.32991 0.0
C101 C 0.46684 0.28857 0.34594 0.0
C102 C 0.46119 0.26683 0.25926 0.0
C103 C 0.45762 0.28074 0.15591 0.0
O104 O 0.06857 0.95464 0.86982 0.0
Mg105 Mg 0.07523 0.95838 0.70349 0.0
O106 O 0.01745 0.97399 0.83448 0.0
Mg107 Mg 0.01577 0.01342 0.70409 0.0
O108 O 0.07198 0.0075 0.65004 0.0
O109 O 0.11964 0.977 0.63686 0.0
O110 O 0.0138 0.05308 0.57271 0.0
O111 O 0.03302 0.05898 0.81508 0.0
Mg112 Mg 0.95607 0.06721 0.70358 0.0
O113 O 0.95958 0.01869 0.76055 0.0
O114 O 0.96107 0.06705 0.53707 0.0
O115 O 0.99194 0.09766 0.79059 0.0
O116 O 0.91209 0.04956 0.77355 0.0
C117 C 0.01079 0.93812 0.57612 0.0
C118 C 0.03701 0.95542 0.88944 0.0
C119 C 0.1034 1.00493 0.61872 0.0
C120 C 0.99248 0.06968 0.51772 0.0
C121 C 0.02067 0.08897 0.8289 0.0
C122 C 0.92821 0.0216 0.79213 0.0
O123 O 0.03971 0.92908 0.61215 0.0
O124 O 0.99847 0.96795 0.59313 0.0
O125 O 0.43081 0.99322 0.78807 0.0
Mg126 Mg 0.46114 0.95805 0.6986 0.0
O127 O 0.46968 0.03389 0.81751 0.0
Mg128 Mg 0.51531 0.01747 0.70619 0.0
O129 O 0.50946 0.96086 0.75799 0.0
O130 O 0.47834 0.91336 0.76534 0.0
O131 O 0.56085 1.00094 0.59492 0.0
O132 O 0.55455 0.01802 0.8373 0.0
Mg133 Mg 0.57096 0.0772 0.70985 0.0
O134 O 0.52179 0.07391 0.65692 0.0
O135 O 0.59983 0.04208 0.61605 0.0
O136 O 0.57439 0.0688 0.87558 0.0
O137 O 0.55174 0.12193 0.64581 0.0
C138 C 0.45925 0.99637 0.51664 0.0
C139 C 0.43959 0.02151 0.82939 0.0
C140 C 0.50625 0.92926 0.78699 0.0
C141 C 0.59069 0.01337 0.57851 0.0
C142 C 0.57331 0.03712 0.89336 0.0
C143 C 0.52392 0.1055 0.6271 0.0
O144 O 0.46174 0.96475 0.53264 0.0
O145 O 0.47594 0.01697 0.57403 0.0
O146 O 0.53484 0.42995 0.7819 0.0
Mg147 Mg 0.57083 0.46108 0.69745 0.0
O148 O 0.49421 0.46847 0.81581 0.0
Mg149 Mg 0.51072 0.51563 0.71037 0.0
O150 O 0.56701 0.50853 0.76156 0.0
O151 O 0.61499 0.47858 0.76964 0.0
O152 O 0.52766 0.56209 0.60235 0.0
O153 O 0.51142 0.55306 0.84565 0.0
Mg154 Mg 0.45136 0.57339 0.71073 0.0
O155 O 0.45428 0.52362 0.6634 0.0
O156 O 0.48593 0.60081 0.61167 0.0
O157 O 0.46212 0.57773 0.87485 0.0
O158 O 0.40628 0.55328 0.65014 0.0
C159 C 0.53201 0.46309 0.51424 0.0
C160 C 0.50651 0.43821 0.82383 0.0
C161 C 0.59844 0.50593 0.79257 0.0
C162 C 0.51512 0.59141 0.57924 0.0
C163 C 0.49355 0.57462 0.8951 0.0
C164 C 0.4227 0.5254 0.63311 0.0
O165 O 0.56355 0.46584 0.53205 0.0
O166 O 0.51091 0.47837 0.5733 0.0
O167 O 0.95337 0.46037 0.87336 0.0
Mg168 Mg 0.95716 0.45225 0.70754 0.0
O169 O 0.97331 0.51116 0.83643 0.0
Mg170 Mg 0.0127 0.51184 0.70609 0.0
O171 O 0.00634 0.4554 0.65479 0.0
O172 O 0.97613 0.40753 0.64293 0.0
O173 O 0.0521 0.51267 0.57473 0.0
O174 O 0.05842 0.49531 0.81807 0.0
Mg175 Mg 0.06684 0.57148 0.70134 0.0
O176 O 0.01842 0.56835 0.75917 0.0
O177 O 0.06645 0.56497 0.53518 0.0
O178 O 0.09715 0.53623 0.79091 0.0
O179 O 0.04928 0.61596 0.76884 0.0
C180 C 0.93739 0.51616 0.57713 0.0
C181 C 0.95442 0.49203 0.89165 0.0
C182 C 1.00398 0.42386 0.62426 0.0
C183 C 0.06887 0.53337 0.51827 0.0
C184 C 0.08844 0.50781 0.83121 0.0
C185 C 0.0214 0.5999 0.78914 0.0
O186 O 0.92823 0.48741 0.61397 0.0
O187 O 0.96722 0.52856 0.59429 0.0
C188 C 0.16307 0.06412 0.43485 0.0
C189 C 0.18452 0.0762 0.37679 0.0
C190 C 0.1387 0.04805 0.50157 0.0
C191 C 0.1199 0.03074 0.55544 0.0
C192 C 0.46401 0.16538 0.44595 0.0
C193 C 0.45181 0.18702 0.38873 0.0
C194 C 0.48031 0.14085 0.5117 0.0
C195 C 0.49785 0.12198 0.56467 0.0
C196 C 0.36347 0.46559 0.44885 0.0
C197 C 0.3425 0.45352 0.38873 0.0
C198 C 0.38758 0.48167 0.51699 0.0
C199 C 0.40639 0.49918 0.57056 0.0
C200 C 0.06324 0.36446 0.43914 0.0
C201 C 0.07552 0.34318 0.38074 0.0
C202 C 0.04705 0.38868 0.50635 0.0
C203 C 0.02973 0.40741 0.5605 0.0
C204 C 0.86372 0.97282 0.98044 0.0
C205 C 0.83983 0.97138 0.04099 0.0
C206 C 0.89096 0.98168 0.91171 0.0
C207 C 0.91154 0.9963 0.85665 0.0
C208 C 0.55352 0.86368 0.97598 0.0
C209 C 0.55473 0.83955 0.0357 0.0
C210 C 0.54514 0.89121 0.90771 0.0
C211 C 0.53097 0.9121 0.85258 0.0
C212 C 0.6626 0.55457 0.98431 0.0
C213 C 0.68696 0.55635 0.04329 0.0
C214 C 0.6352 0.54538 0.91618 0.0
C215 C 0.61483 0.53077 0.85993 0.0
C216 C 0.97287 0.6647 0.97801 0.0
C217 C 0.97118 0.68856 0.03886 0.0
C218 C 0.98183 0.63748 0.90916 0.0
C219 C 0.99639 0.61683 0.85413 0.0
C220 C 0.03338 0.16063 0.45144 0.0
C221 C 0.04492 0.18605 0.4135 0.0
C222 C 0.01781 0.1291 0.46877 0.0
C223 C 1.00424 0.10255 0.48858 0.0
C224 C 0.36819 0.038 0.45641 0.0
C225 C 0.34247 0.04884 0.41832 0.0
C226 C 0.39985 0.02252 0.47201 0.0
C227 C 0.42636 0.00858 0.48955 0.0
C228 C 0.4915 0.37239 0.44536 0.0
C229 C 0.48073 0.34635 0.40929 0.0
C230 C 0.50675 0.4041 0.46162 0.0
C231 C 0.52052 0.43046 0.48226 0.0
C232 C 0.15963 0.49109 0.46 0.0
C233 C 0.18532 0.48011 0.42248 0.0
C234 C 0.12813 0.50691 0.4747 0.0
C235 C 0.10173 0.52111 0.4916 0.0
C236 C 0.98224 0.87216 0.9525 0.0
C237 C 0.96814 0.84753 0.98714 0.0
C238 C 1.00312 0.90077 0.93972 0.0
C239 C 0.02152 0.92445 0.9219 0.0
C240 C 0.65621 0.98143 0.95276 0.0
C241 C 0.68092 0.96749 0.98756 0.0
C242 C 0.62768 1.00245 0.94101 0.0
C243 C 0.60417 0.02115 0.92455 0.0
C244 C 0.55249 0.65727 0.93065 0.0
C245 C 0.5654 0.68213 0.96816 0.0
C246 C 0.53134 0.62872 0.92163 0.0
C247 C 0.51188 0.60535 0.9127 0.0
C248 C 0.87123 0.54737 0.95133 0.0
C249 C 0.8465 0.56121 0.98618 0.0
C250 C 0.89988 0.52652 0.93915 0.0
C251 C 0.92351 0.50797 0.92244 0.0
C252 C 0.06151 0.17043 0.98179 0.0
C253 C 0.06594 0.19376 0.0436 0.0
C254 C 0.05173 0.14016 0.92698 0.0
C255 C 0.0399 0.11506 0.88416 0.0
C256 C 0.35813 0.061 0.98441 0.0
C257 C 0.33482 0.06547 0.04602 0.0
C258 C 0.3884 0.05158 0.92945 0.0
C259 C 0.41352 0.04018 0.88602 0.0
C260 C 0.46681 0.35599 0.97557 0.0
C261 C 0.46235 0.33319 0.03914 0.0
C262 C 0.47639 0.38616 0.92014 0.0
C263 C 0.48796 0.41153 0.87835 0.0
C264 C 0.16992 0.46855 0.98818 0.0
C265 C 0.19322 0.46401 0.05015 0.0
C266 C 0.13965 0.4779 0.9325 0.0
C267 C 0.11452 0.48919 0.88843 0.0
C268 C 0.96695 0.85835 0.42276 0.0
C269 C 0.95988 0.83603 0.35989 0.0
C270 C 0.97845 0.88783 0.47804 0.0
C271 C 0.99106 0.91244 0.52125 0.0
C272 C 0.67012 0.96972 0.42363 0.0
C273 C 0.69233 0.96227 0.36107 0.0
C274 C 0.64078 0.98137 0.47903 0.0
C275 C 0.6163 0.99389 0.52281 0.0
C276 C 0.55794 0.66809 0.40973 0.0
C277 C 0.56491 0.68988 0.34513 0.0
C278 C 0.54694 0.63965 0.47074 0.0
C279 C 0.53464 0.61596 0.51917 0.0
C280 C 0.85787 0.55979 0.42207 0.0
C281 C 0.83554 0.56708 0.35951 0.0
C282 C 0.8873 0.54824 0.47753 0.0
C283 C 0.91181 0.53572 0.52139 0.0
loop_
_geom_bond_atom_site_label_1
_geom_bond_atom_site_label_2
_geom_bond_distance
_geom_bond_site_symmetry_2
_ccdc_geom_bond_type
H0 C7 0.929 . S
H1 C10 0.930 1_556 S
H2 C12 0.929 . S
H3 C4 0.969 . S
C4 H3 0.969 . S
C4 O5 1.550 1_556 S
C4 H6 0.973 . S
O5 C4 1.550 1_554 S
O5 C11 1.412 . S
H6 C4 0.973 . S
C7 H0 0.929 . S
C7 C8 1.400 . S
C7 C9 1.364 . S
C8 C7 1.400 . S
C8 C12 1.377 . S
C9 C7 1.364 . S
C9 C10 1.374 . S
C10 H1 0.930 1_554 S
C10 C9 1.374 . S
C10 C11 1.383 . S
C11 O5 1.412 . S
C11 C10 1.383 . S
C11 C12 1.394 . S
C12 H2 0.929 . S
C12 C8 1.377 . S
C12 C11 1.394 . S
H13 C20 0.929 . S
H14 C23 0.930 1_556 S
H15 C25 0.929 . S
H16 C17 1.003 . S
C17 H16 1.003 . S
C17 O18 1.550 1_556 S
C17 H19 0.973 . S
O18 C17 1.550 1_554 S
O18 C24 1.412 . S
H19 C17 0.973 . S
C20 H13 0.929 . S
C20 C21 1.400 . S
C20 C22 1.364 . S
C21 C20 1.400 . S
C21 C25 1.377 . S
C22 C20 1.364 . S
C22 C23 1.374 . S
C23 H14 0.930 1_554 S
C23 C22 1.374 . S
C23 C24 1.383 . S
C24 O18 1.412 . S
C24 C23 1.383 . S
C24 C25 1.394 . S
C25 H15 0.929 . S
C25 C21 1.377 . S
C25 C24 1.394 . S
H26 C33 0.929 . S
H27 C36 0.930 1_556 S
H28 C38 0.929 . S
H29 C30 0.965 1_545 S
C30 H29 0.965 1_565 S
C30 O31 1.550 1_556 S
C30 H32 0.973 . S
O31 C30 1.550 1_554 S
O31 C37 1.412 . S
H32 C30 0.973 . S
C33 H26 0.929 . S
C33 C34 1.400 . S
C33 C35 1.364 . S
C34 C33 1.400 . S
C34 C38 1.377 . S
C35 C33 1.364 . S
C35 C36 1.374 . S
C36 H27 0.930 1_554 S
C36 C35 1.374 . S
C36 C37 1.383 . S
C37 O31 1.412 . S
C37 C36 1.383 . S
C37 C38 1.394 . S
C38 H28 0.929 . S
C38 C34 1.377 . S
C38 C37 1.394 . S
H39 C46 0.929 . S
H40 C49 0.930 1_556 S
H41 C51 0.929 . S
H42 C43 0.969 . S
C43 H42 0.969 . S
C43 O44 1.550 1_556 S
C43 H45 0.973 . S
O44 C43 1.550 1_554 S
O44 C50 1.412 . S
H45 C43 0.973 . S
C46 H39 0.929 . S
C46 C47 1.400 . S
C46 C48 1.364 . S
C47 C46 1.400 . S
C47 C51 1.377 . S
C48 C46 1.364 . S
C48 C49 1.374 . S
C49 H40 0.930 1_554 S
C49 C48 1.374 . S
C49 C50 1.383 . S
C50 O44 1.412 . S
C50 C49 1.383 . S
C50 C51 1.394 . S
C51 H41 0.929 . S
C51 C47 1.377 . S
C51 C50 1.394 . S
H52 C59 0.929 . S
H53 C62 0.930 . S
H54 C64 0.929 . S
H55 C56 0.969 . S
C56 H55 0.969 . S
C56 O57 1.550 . S
C56 H58 0.973 . S
O57 C56 1.550 . S
O57 C63 1.412 . S
H58 C56 0.973 . S
C59 H52 0.929 . S
C59 C60 1.400 . S
C59 C61 1.364 . S
C60 C59 1.400 . S
C60 C64 1.377 . S
C61 C59 1.364 . S
C61 C62 1.374 . S
C62 H53 0.930 . S
C62 C61 1.374 . S
C62 C63 1.383 . S
C63 O57 1.412 . S
C63 C62 1.383 . S
C63 C64 1.394 . S
C64 H54 0.929 . S
C64 C60 1.377 . S
C64 C63 1.394 . S
H65 C72 0.929 . S
H66 C75 0.930 . S
H67 C77 0.929 . S
H68 C69 0.969 . S
C69 H68 0.969 . S
C69 O70 1.550 . S
C69 H71 0.973 . S
O70 C69 1.550 . S
O70 C76 1.412 . S
H71 C69 0.973 . S
C72 H65 0.929 . S
C72 C73 1.400 . S
C72 C74 1.364 . S
C73 C72 1.400 . S
C73 C77 1.377 . S
C74 C72 1.364 . S
C74 C75 1.374 . S
C75 H66 0.930 . S
C75 C74 1.374 . S
C75 C76 1.383 . S
C76 O70 1.412 . S
C76 C75 1.383 . S
C76 C77 1.394 . S
C77 H67 0.929 . S
C77 C73 1.377 . S
C77 C76 1.394 . S
H78 C85 0.929 . S
H79 C88 0.930 . S
H80 C90 0.929 . S
H81 C82 0.969 . S
C82 H81 0.969 . S
C82 O83 1.550 . S
C82 H84 0.973 . S
O83 C82 1.550 . S
O83 C89 1.412 . S
H84 C82 0.973 . S
C85 H78 0.929 . S
C85 C86 1.400 . S
C85 C87 1.364 . S
C86 C85 1.400 . S
C86 C90 1.377 . S
C87 C85 1.364 . S
C87 C88 1.374 . S
C88 H79 0.930 . S
C88 C87 1.374 . S
C88 C89 1.383 . S
C89 O83 1.412 . S
C89 C88 1.383 . S
C89 C90 1.394 . S
C90 H80 0.929 . S
C90 C86 1.377 . S
C90 C89 1.394 . S
H91 C98 0.929 . S
H92 C101 0.930 . S
H93 C103 0.929 . S
H94 C95 0.969 . S
C95 H94 0.969 . S
C95 O96 1.550 . S
C95 H97 0.973 . S
O96 C95 1.550 . S
O96 C102 1.412 . S
H97 C95 0.973 . S
C98 H91 0.929 . S
C98 C99 1.400 . S
C98 C100 1.364 . S
C99 C98 1.400 . S
C99 C103 1.377 . S
C100 C98 1.364 . S
C100 C101 1.374 . S
C101 H92 0.930 . S
C101 C100 1.374 . S
C101 C102 1.383 . S
C102 O96 1.412 . S
C102 C101 1.383 . S
C102 C103 1.394 . S
C103 H93 0.929 . S
C103 C99 1.377 . S
C103 C102 1.394 . S
O104 Mg105 1.990 . S
O104 C118 1.253 . S
Mg105 O104 1.990 . S
Mg105 O108 2.180 . S
Mg105 O109 2.117 . S
Mg105 O123 2.030 . S
O106 Mg107 2.072 1_565 S
O106 C118 1.260 . S
Mg107 O106 2.072 1_545 S
Mg107 O108 2.099 1_545 S
Mg107 O110 2.079 . S
Mg107 O111 2.072 . S
Mg107 O113 2.099 1_455 S
Mg107 O124 2.079 1_445 S
O108 Mg105 2.180 . S
O108 Mg107 2.099 1_565 S
O108 C119 1.279 . S
O109 Mg105 2.117 . S
O109 C119 1.250 . S
O110 Mg107 2.079 . S
O110 C120 1.263 1_455 S
O111 Mg107 2.072 . S
O111 C121 1.260 . S
Mg112 O113 2.180 . S
Mg112 O114 2.030 . S
Mg112 O115 1.990 . S
Mg112 O116 2.117 . S
O113 Mg107 2.099 1_655 S
O113 Mg112 2.180 . S
O113 C122 1.279 . S
O114 Mg112 2.030 . S
O114 C120 1.248 . S
O115 Mg112 1.990 . S
O115 C121 1.253 1_655 S
O116 Mg112 2.117 . S
O116 C122 1.250 . S
C117 O123 1.248 1_655 S
C117 O124 1.264 . S
C118 O104 1.253 . S
C118 O106 1.260 . S
C119 O108 1.279 . S
C119 O109 1.250 . S
C120 O110 1.263 1_655 S
C120 O114 1.248 . S
C121 O111 1.260 . S
C121 O115 1.253 1_455 S
C122 O113 1.279 . S
C122 O116 1.250 . S
O123 Mg105 2.030 . S
O123 C117 1.248 1_455 S
O124 Mg107 2.079 1_665 S
O124 C117 1.264 . S
O125 Mg126 1.990 . S
O125 C139 1.253 1_565 S
Mg126 O125 1.990 . S
Mg126 O129 2.180 . S
Mg126 O130 2.117 . S
Mg126 O144 2.030 . S
O127 Mg128 2.072 . S
O127 C139 1.260 . S
Mg128 O127 2.072 . S
Mg128 O129 2.099 1_545 S
Mg128 O131 2.079 1_545 S
Mg128 O132 2.072 . S
Mg128 O134 2.099 . S
Mg128 O145 2.079 . S
O129 Mg126 2.180 . S
O129 Mg128 2.099 1_565 S
O129 C140 1.279 . S
O130 Mg126 2.117 . S
O130 C140 1.250 . S
O131 Mg128 2.079 1_565 S
O131 C141 1.264 . S
O132 Mg128 2.072 . S
O132 C142 1.260 . S
Mg133 O134 2.180 . S
Mg133 O135 2.030 . S
Mg133 O136 1.990 . S
Mg133 O137 2.117 . S
O134 Mg128 2.099 . S
O134 Mg133 2.180 . S
O134 C143 1.279 . S
O135 Mg133 2.030 . S
O135 C141 1.248 1_545 S
O136 Mg133 1.990 . S
O136 C142 1.253 . S
O137 Mg133 2.117 . S
O137 C143 1.250 . S
C138 O144 1.241 1_545 S
C138 O145 1.267 . S
C139 O125 1.253 1_545 S
C139 O127 1.260 . S
C140 O129 1.279 . S
C140 O130 1.250 . S
C141 O131 1.264 . S
C141 O135 1.248 1_565 S
C142 O132 1.260 . S
C142 O136 1.253 . S
C143 O134 1.279 . S
C143 O137 1.250 . S
O144 Mg126 2.030 . S
O144 C138 1.241 1_565 S
O145 Mg128 2.079 . S
O145 C138 1.267 . S
O146 Mg147 1.990 . S
O146 C160 1.253 . S
Mg147 O146 1.990 . S
Mg147 O150 2.180 . S
Mg147 O151 2.117 . S
Mg147 O165 2.030 . S
O148 Mg149 2.072 . S
O148 C160 1.260 . S
Mg149 O148 2.072 . S
Mg149 O150 2.099 . S
Mg149 O152 2.079 . S
Mg149 O153 2.072 . S
Mg149 O155 2.099 . S
Mg149 O166 2.079 . S
O150 Mg147 2.180 . S
O150 Mg149 2.099 . S
O150 C161 1.279 . S
O151 Mg147 2.117 . S
O151 C161 1.250 . S
O152 Mg149 2.079 . S
O152 C162 1.264 . S
O153 Mg149 2.072 . S
O153 C163 1.260 . S
Mg154 O155 2.180 . S
Mg154 O156 2.030 . S
Mg154 O157 1.990 . S
Mg154 O158 2.117 . S
O155 Mg149 2.099 . S
O155 Mg154 2.180 . S
O155 C164 1.279 . S
O156 Mg154 2.030 . S
O156 C162 1.248 . S
O157 Mg154 1.990 . S
O157 C163 1.253 . S
O158 Mg154 2.117 . S
O158 C164 1.250 . S
C159 O165 1.248 . S
C159 O166 1.264 . S
C160 O146 1.253 . S
C160 O148 1.260 . S
C161 O150 1.279 . S
C161 O151 1.250 . S
C162 O152 1.264 . S
C162 O156 1.248 . S
C163 O153 1.260 . S
C163 O157 1.253 . S
C164 O155 1.279 . S
C164 O158 1.250 . S
O165 Mg147 2.030 . S
O165 C159 1.248 . S
O166 Mg149 2.079 . S
O166 C159 1.264 . S
O167 Mg168 1.990 . S
O167 C181 1.253 . S
Mg168 O167 1.990 . S
Mg168 O171 2.180 . S
Mg168 O172 2.117 . S
Mg168 O186 2.030 . S
O169 Mg170 2.072 1_655 S
O169 C181 1.260 . S
Mg170 O169 2.072 1_455 S
Mg170 O171 2.099 1_455 S
Mg170 O173 2.079 . S
Mg170 O174 2.072 . S
Mg170 O176 2.099 . S
Mg170 O187 2.079 1_455 S
O171 Mg168 2.180 . S
O171 Mg170 2.099 1_655 S
O171 C182 1.279 . S
O172 Mg168 2.117 . S
O172 C182 1.250 . S
O173 Mg170 2.079 . S
O173 C183 1.264 . S
O174 Mg170 2.072 . S
O174 C184 1.260 . S
Mg175 O176 2.180 . S
Mg175 O177 2.030 . S
Mg175 O178 1.990 . S
Mg175 O179 2.117 . S
O176 Mg170 2.099 . S
O176 Mg175 2.180 . S
O176 C185 1.279 . S
O177 Mg175 2.030 . S
O177 C183 1.248 . S
O178 Mg175 1.990 . S
O178 C184 1.253 . S
O179 Mg175 2.117 . S
O179 C185 1.250 . S
C180 O186 1.248 . S
C180 O187 1.264 . S
C181 O167 1.253 . S
C181 O169 1.260 . S
C182 O171 1.279 . S
C182 O172 1.250 . S
C183 O173 1.264 . S
C183 O177 1.248 . S
C184 O174 1.260 . S
C184 O178 1.253 . S
C185 O176 1.279 . S
C185 O179 1.250 . S
O186 Mg168 2.030 . S
O186 C180 1.248 . S
O187 Mg170 2.079 1_655 S
O187 C180 1.264 . S
C188 C189 1.170 . S
C188 C190 1.380 . S
C189 C188 1.170 . S
C190 C188 1.380 . S
C190 C191 1.170 . S
C191 C190 1.170 . S
C192 C193 1.170 . S
C192 C194 1.380 . S
C193 C192 1.170 . S
C194 C192 1.380 . S
C194 C195 1.170 . S
C195 C194 1.170 . S
C196 C197 1.170 . S
C196 C198 1.380 . S
C197 C196 1.170 . S
C198 C196 1.380 . S
C198 C199 1.170 . S
C199 C198 1.170 . S
C200 C201 1.170 . S
C200 C202 1.380 . S
C201 C200 1.170 . S
C202 C200 1.380 . S
C202 C203 1.170 . S
C203 C202 1.170 . S
C204 C205 1.170 . S
C204 C206 1.380 . S
C205 C204 1.170 . S
C206 C204 1.380 . S
C206 C207 1.170 . S
C207 C206 1.170 . S
C208 C209 1.170 . S
C208 C210 1.380 . S
C209 C208 1.170 . S
C210 C208 1.380 . S
C210 C211 1.170 . S
C211 C210 1.170 . S
C212 C213 1.170 . S
C212 C214 1.380 . S
C213 C212 1.170 . S
C214 C212 1.380 . S
C214 C215 1.170 . S
C215 C214 1.170 . S
C216 C217 1.170 . S
C216 C218 1.380 . S
C217 C216 1.170 . S
C218 C216 1.380 . S
C218 C219 1.170 . S
C219 C218 1.170 . S
C220 C221 1.170 . S
C220 C222 1.380 . S
C221 C220 1.170 . S
C222 C220 1.380 . S
C222 C223 1.170 . S
C223 C222 1.170 . S
C224 C225 1.170 . S
C224 C226 1.380 . S
C225 C224 1.170 . S
C226 C224 1.380 . S
C226 C227 1.170 . S
C227 C226 1.170 . S
C228 C229 1.170 . S
C228 C230 1.380 . S
C229 C228 1.170 . S
C230 C228 1.380 . S
C230 C231 1.170 . S
C231 C230 1.170 . S
C232 C233 1.170 . S
C232 C234 1.380 . S
C233 C232 1.170 . S
C234 C232 1.380 . S
C234 C235 1.170 . S
C235 C234 1.170 . S
C236 C237 1.170 . S
C236 C238 1.380 . S
C237 C236 1.170 . S
C238 C236 1.380 . S
C238 C239 1.170 1_655 S
C239 C238 1.170 1_455 S
C240 C241 1.170 . S
C240 C242 1.384 . S
C241 C240 1.170 . S
C242 C240 1.384 . S
C242 C243 1.167 1_565 S
C243 C242 1.167 1_545 S
C244 C245 1.170 . S
C244 C246 1.380 . S
C245 C244 1.170 . S
C246 C244 1.380 . S
C246 C247 1.170 . S
C247 C246 1.170 . S
C248 C249 1.170 . S
C248 C250 1.380 . S
C249 C248 1.170 . S
C250 C248 1.380 . S
C250 C251 1.170 . S
C251 C250 1.170 . S
C252 C253 1.170 . S
C252 C254 1.380 1_554 S
C253 C252 1.170 . S
C254 C252 1.380 1_556 S
C254 C255 1.170 . S
C255 C254 1.170 . S
C256 C257 1.170 . S
C256 C258 1.380 1_554 S
C257 C256 1.170 . S
C258 C256 1.380 1_556 S
C258 C259 1.170 . S
C259 C258 1.170 . S
C260 C261 1.170 . S
C260 C262 1.380 1_554 S
C261 C260 1.170 . S
C262 C260 1.380 1_556 S
C262 C263 1.170 . S
C263 C262 1.170 . S
C264 C265 1.170 . S
C264 C266 1.380 . S
C265 C264 1.170 . S
C266 C264 1.380 . S
C266 C267 1.170 1_554 S
C267 C266 1.170 1_556 S
C268 C269 1.170 . S
C268 C270 1.380 . S
C269 C268 1.170 . S
C270 C268 1.380 . S
C270 C271 1.170 . S
C271 C270 1.170 . S
C272 C273 1.170 . S
C272 C274 1.380 . S
C273 C272 1.170 . S
C274 C272 1.380 . S
C274 C275 1.170 . S
C275 C274 1.170 . S
C276 C277 1.170 . S
C276 C278 1.380 . S
C277 C276 1.170 . S
C278 C276 1.380 . S
C278 C279 1.170 . S
C279 C278 1.170 . S
C280 C281 1.170 . S
C280 C282 1.380 . S
C281 C280 1.170 . S
C282 C280 1.380 . S
C282 C283 1.170 . S
C283 C282 1.170 . S
C189 C82 1.538 . S
C191 C119 1.445 1_545 S
C195 C143 1.473 . S
C193 C95 1.491 . S
C199 C164 1.478 . S
C197 C56 1.493 . S
C203 C182 1.437 1_455 S
C201 C69 1.531 . S
C207 C122 1.402 1_565 S
C205 C30 1.370 . S
C209 C43 1.401 . S
C211 C140 1.337 . S
C213 C4 1.401 . S
C215 C161 1.395 . S
C217 C17 1.417 . S
C219 C185 1.377 1_655 S
C223 C120 0.870 1_455 S
C221 C74 0.819 . S
C227 C138 0.850 . S
C225 C87 0.900 . S
C231 C159 0.903 . S
C229 C100 0.834 . S
C233 C61 0.901 . S
C235 C183 0.850 . S
C237 C22 0.895 1_556 S
C239 C118 0.980 . S
C243 C142 0.962 . S
C241 C35 0.914 1_556 S
C247 C163 0.962 . S
C245 C48 0.933 1_556 S
C249 C9 0.893 1_556 S
C251 C181 0.978 . S
C253 C73 1.602 . S
C255 C121 1.525 . S
C257 C86 1.605 . S
C259 C139 1.524 . S
C263 C160 1.525 . S
C261 C99 1.607 . S
C267 C184 1.561 . S
C265 C60 1.571 . S
C269 C21 1.460 . S
C271 C117 1.453 . S
C275 C141 1.399 . S
C273 C34 1.461 . S
C279 C162 1.409 . S
C277 C47 1.442 . S
C281 C8 1.443 . S
C283 C180 1.438 . S
