# Generated by pormake.
# Topology anh, (6,3)-cn, num edge types: 1
# Building blocks:
#     Node 0, Type 0, BuildingBlock: GEDQOX_clean_sbu_0, # of connection points: 6
#     Node 1, Type 0, BuildingBlock: GEDQOX_clean_sbu_0, # of connection points: 6
#     Node 2, Type 0, BuildingBlock: GEDQOX_clean_sbu_0, # of connection points: 6
#     Node 3, Type 1, BuildingBlock: BELTOD_clean_linker_0, # of connection points: 3
#     Node 4, Type 1, BuildingBlock: BELTOD_clean_linker_0, # of connection points: 3
#     Node 5, Type 1, BuildingBlock: BELTOD_clean_linker_0, # of connection points: 3
#     Node 6, Type 1, BuildingBlock: BELTOD_clean_linker_0, # of connection points: 3
#     Node 7, Type 1, BuildingBlock: BELTOD_clean_linker_0, # of connection points: 3
#     Node 8, Type 1, BuildingBlock: BELTOD_clean_linker_0, # of connection points: 3
#     Edge 9, Type (0, 1), BuildingBlock: ZUJKAS_clean_linker_0, # of connection points: 2
#     Edge 10, Type (0, 1), BuildingBlock: ZUJKAS_clean_linker_0, # of connection points: 2
#     Edge 11, Type (0, 1), BuildingBlock: ZUJKAS_clean_linker_0, # of connection points: 2
#     Edge 12, Type (0, 1), BuildingBlock: ZUJKAS_clean_linker_0, # of connection points: 2
#     Edge 13, Type (0, 1), BuildingBlock: ZUJKAS_clean_linker_0, # of connection points: 2
#     Edge 14, Type (0, 1), BuildingBlock: ZUJKAS_clean_linker_0, # of connection points: 2
#     Edge 15, Type (0, 1), BuildingBlock: ZUJKAS_clean_linker_0, # of connection points: 2
#     Edge 16, Type (0, 1), BuildingBlock: ZUJKAS_clean_linker_0, # of connection points: 2
#     Edge 17, Type (0, 1), BuildingBlock: ZUJKAS_clean_linker_0, # of connection points: 2
#     Edge 18, Type (0, 1), BuildingBlock: ZUJKAS_clean_linker_0, # of connection points: 2
#     Edge 19, Type (0, 1), BuildingBlock: ZUJKAS_clean_linker_0, # of connection points: 2
#     Edge 20, Type (0, 1), BuildingBlock: ZUJKAS_clean_linker_0, # of connection points: 2
#     Edge 21, Type (0, 1), BuildingBlock: ZUJKAS_clean_linker_0, # of connection points: 2
#     Edge 22, Type (0, 1), BuildingBlock: ZUJKAS_clean_linker_0, # of connection points: 2
#     Edge 23, Type (0, 1), BuildingBlock: ZUJKAS_clean_linker_0, # of connection points: 2
#     Edge 24, Type (0, 1), BuildingBlock: ZUJKAS_clean_linker_0, # of connection points: 2
#     Edge 25, Type (0, 1), BuildingBlock: ZUJKAS_clean_linker_0, # of connection points: 2
#     Edge 26, Type (0, 1), BuildingBlock: ZUJKAS_clean_linker_0, # of connection points: 2
# Relax obj value: 0.154
# Max RMSD: 0.196
# Mean RMSD: 0.143
data_MOF--net-anh--node1-GEDQOX_clean_sbu_0--node2-BELTOD_clean_linker_0--edge1-ZUJKAS_clean_linker_0
_symmetry_space_group_name_H-M    P1
_symmetry_Int_Tables_number       1
_symmetry_cell_setting            triclinic
loop_
_symmetry_equiv_pos_as_xyz
'x, y, z'
_cell_length_a     43.955825
_cell_length_b     42.37687
_cell_length_c     76.300977
_cell_angle_alpha  93.123299
_cell_angle_beta   90.824674
_cell_angle_gamma 108.68739
loop_
_atom_site_label
_atom_site_type_symbol
_atom_site_fract_x
_atom_site_fract_y
_atom_site_fract_z
_atom_type_partial_charge
Nd0 Nd 0.06201 0.54086 0.14803 0.0
Nd1 Nd 0.03957 0.4653 0.14847 0.0
C2 C 0.09061 0.60396 0.14129 0.0
C3 C 0.12229 0.62887 0.14524 0.0
C4 C 0.12953 0.66071 0.13885 0.0
C5 C 0.15929 0.68492 0.14301 0.0
C6 C 0.18233 0.67766 0.15365 0.0
C7 C 0.17501 0.64543 0.15982 0.0
C8 C 0.14525 0.62127 0.15566 0.0
C9 C 0.0522 0.51754 0.18096 0.0
C10 C 0.11693 0.50088 0.148 0.0
C11 C 1.01227 0.40217 0.15555 0.0
C12 C 0.98017 0.37876 0.15858 0.0
C13 C 0.95569 0.38994 0.16543 0.0
C14 C 0.92567 0.36703 0.1687 0.0
C15 C 0.9196 0.33259 0.16508 0.0
C16 C 0.94414 0.32167 0.15799 0.0
C17 C 0.97412 0.34455 0.15479 0.0
C18 C 0.05082 0.49002 0.11593 0.0
C19 C 0.98482 0.50469 0.14682 0.0
O20 O 0.09005 0.57878 0.13042 0.0
O21 O 0.07249 0.59486 0.15476 0.0
O22 O 0.04561 0.54364 0.17628 0.0
O23 O 0.06531 0.50583 0.16877 0.0
O24 O 0.1102 0.52873 0.14547 0.0
O25 O 0.09386 0.47299 0.15118 0.0
O26 O 1.02431 0.42634 0.16763 0.0
O27 O 1.01774 0.41185 0.13959 0.0
O28 O 0.05856 0.4644 0.12047 0.0
O29 O 1.03665 0.5004 0.12802 0.0
O30 O 0.99169 0.47794 0.15154 0.0
O31 O 1.00799 0.53148 0.14232 0.0
H32 H 0.1121 0.66691 0.13072 0.0
H33 H 0.1643 0.70928 0.13782 0.0
H34 H 0.192 0.63908 0.16821 0.0
H35 H 0.13999 0.59676 0.16073 0.0
H36 H 0.95984 0.41632 0.16836 0.0
H37 H 0.90718 0.37628 0.17399 0.0
H38 H 0.94044 0.29532 0.15528 0.0
H39 H 0.99275 0.33547 0.14952 0.0
Nd40 Nd 0.49664 0.99829 0.52129 0.0
Nd41 Nd 0.56649 0.02119 0.51219 0.0
C42 C 0.43856 0.96854 0.53284 0.0
C43 C 0.4124 0.93785 0.52718 0.0
C44 C 0.38862 0.92253 0.53886 0.0
C45 C 0.36359 0.89347 0.5334 0.0
C46 C 0.36189 0.87943 0.51612 0.0
C47 C 0.38601 0.89478 0.50452 0.0
C48 C 0.4111 0.92362 0.51002 0.0
C49 C 0.5074 0.00185 0.48591 0.0
C50 C 0.53494 0.94277 0.51631 0.0
C51 C 0.62226 0.04877 0.49752 0.0
C52 C 0.64628 0.08171 0.49517 0.0
C53 C 0.65699 0.0899 0.47827 0.0
C54 C 0.68116 0.11995 0.47572 0.0
C55 C 0.69528 0.14242 0.49007 0.0
C56 C 0.68401 0.1345 0.50697 0.0
C57 C 0.65967 0.10449 0.5095 0.0
C58 C 0.55657 0.01496 0.54742 0.0
C59 C 0.52978 0.07715 0.52037 0.0
O60 O 0.46455 0.96445 0.53945 0.0
O61 O 0.44483 0.99245 0.52198 0.0
O62 O 0.48459 0.01016 0.49335 0.0
O63 O 0.52229 0.9906 0.49681 0.0
O64 O 0.51123 0.95079 0.52377 0.0
O65 O 0.55768 0.96502 0.50826 0.0
O66 O 0.59455 0.04203 0.48911 0.0
O67 O 0.61966 0.03763 0.51328 0.0
O68 O 0.57924 0.00732 0.53929 0.0
O69 O 0.54117 0.02739 0.53727 0.0
O70 O 0.55257 0.06952 0.51168 0.0
O71 O 0.50748 0.05408 0.52821 0.0
H72 H 0.38932 0.93311 0.55217 0.0
H73 H 0.34528 0.88232 0.54261 0.0
H74 H 0.38568 0.88429 0.49123 0.0
H75 H 0.42947 0.93489 0.50086 0.0
H76 H 0.64708 0.07268 0.46703 0.0
H77 H 0.68952 0.12508 0.46256 0.0
H78 H 0.69414 0.15146 0.51826 0.0
H79 H 0.6517 0.09894 0.52269 0.0
Nd80 Nd 0.50328 0.47502 0.83056 0.0
Nd81 Nd 0.56897 0.5009 0.84841 0.0
C82 C 0.45226 0.46803 0.81019 0.0
C83 C 0.43317 0.49035 0.808 0.0
C84 C 0.41467 0.48799 0.79259 0.0
C85 C 0.39756 0.51033 0.79039 0.0
C86 C 0.39886 0.53537 0.80356 0.0
C87 C 0.41777 0.53767 0.81891 0.0
C88 C 0.43483 0.51547 0.82106 0.0
C89 C 0.50347 0.47387 0.86659 0.0
C90 C 0.53515 0.55556 0.8416 0.0
C91 C 0.62062 0.51026 0.86864 0.0
C92 C 0.64874 0.49865 0.8679 0.0
C93 C 0.66131 0.49042 0.88332 0.0
C94 C 0.68926 0.48146 0.88294 0.0
C95 C 0.70529 0.48093 0.86713 0.0
C96 C 0.69166 0.4877 0.85156 0.0
C97 C 0.66355 0.49628 0.85193 0.0
C98 C 0.56969 0.50291 0.81255 0.0
C99 C 0.53683 0.41985 0.83666 0.0
O100 O 0.48162 0.47925 0.80476 0.0
O101 O 0.45065 0.45508 0.82547 0.0
O102 O 0.4841 0.45044 0.85626 0.0
O103 O 0.52038 0.49723 0.85795 0.0
O104 O 0.51637 0.53239 0.83041 0.0
O105 O 0.55457 0.54809 0.85281 0.0
O106 O 0.59307 0.48767 0.87135 0.0
O107 O 0.61859 0.53072 0.85678 0.0
O108 O 0.5895 0.5254 0.8231 0.0
O109 O 0.5523 0.47931 0.8209 0.0
O110 O 0.55733 0.44324 0.84715 0.0
O111 O 0.5154 0.42681 0.82665 0.0
H112 H 0.41356 0.46902 0.78227 0.0
H113 H 0.38346 0.50809 0.77835 0.0
H114 H 0.4189 0.55617 0.82948 0.0
H115 H 0.44928 0.51788 0.83299 0.0
H116 H 0.64988 0.49161 0.89572 0.0
H117 H 0.69874 0.47576 0.89511 0.0
H118 H 0.70345 0.48796 0.83918 0.0
H119 H 0.65397 0.50203 0.83979 0.0
P120 P 0.58188 0.97403 0.24197 0.0
H121 H 0.56657 0.93157 0.20958 0.0
H122 H 0.51579 0.89911 0.19457 0.0
H123 H 0.46422 0.93898 0.23298 0.0
H124 H 0.5151 0.97207 0.24754 0.0
H125 H 0.63583 0.02861 0.2571 0.0
H126 H 0.67143 0.07918 0.24537 0.0
H127 H 0.61539 0.05595 0.19659 0.0
H128 H 0.57985 0.00509 0.20844 0.0
H129 H 0.5772 0.93081 0.27095 0.0
H130 H 0.56817 0.02748 0.26326 0.0
O131 O 0.60457 0.94919 0.24004 0.0
H132 H 0.56674 0.9369 0.3021 0.0
H133 H 0.55835 0.03416 0.29453 0.0
C134 C 0.54458 0.95371 0.22986 0.0
C135 C 0.54432 0.93355 0.21465 0.0
C136 C 0.51524 0.91484 0.20615 0.0
C137 C 0.48582 0.91599 0.21271 0.0
C138 C 0.48636 0.93756 0.2275 0.0
C139 C 0.51551 0.95637 0.23594 0.0
C140 C 0.60478 0.01343 0.2338 0.0
C141 C 0.63075 0.03476 0.24402 0.0
C142 C 0.65109 0.06373 0.23729 0.0
C143 C 0.64617 0.07174 0.22007 0.0
C144 C 0.6199 0.05042 0.20988 0.0
C145 C 0.59941 0.02145 0.21669 0.0
C146 C 0.57423 0.97903 0.26492 0.0
C147 C 0.57329 0.95352 0.27602 0.0
C148 C 0.56742 0.95709 0.29384 0.0
C149 C 0.56208 0.98619 0.30086 0.0
C150 C 0.56226 0.0114 0.28955 0.0
C151 C 0.56815 0.00776 0.27171 0.0
P152 P 0.59573 0.53301 0.56566 0.0
H153 H 0.5989 0.50057 0.53133 0.0
H154 H 0.5803 0.44185 0.52061 0.0
H155 H 0.52821 0.41616 0.5682 0.0
H156 H 0.54583 0.47473 0.57843 0.0
H157 H 0.6339 0.60153 0.56101 0.0
H158 H 0.62131 0.64975 0.55127 0.0
H159 H 0.52192 0.58922 0.54239 0.0
H160 H 0.53492 0.54055 0.55234 0.0
H161 H 0.62689 0.50779 0.59282 0.0
H162 H 0.55472 0.55646 0.58998 0.0
O163 O 0.63448 0.53944 0.56183 0.0
H164 H 0.62053 0.50455 0.62444 0.0
H165 H 0.54869 0.55406 0.62177 0.0
C166 C 0.57417 0.49206 0.55577 0.0
C167 C 0.58268 0.48237 0.5392 0.0
C168 C 0.57234 0.44868 0.53319 0.0
C169 C 0.55331 0.42401 0.54369 0.0
C170 C 0.54276 0.43429 0.55969 0.0
C171 C 0.55301 0.46799 0.56564 0.0
C172 C 0.58551 0.56725 0.557 0.0
C173 C 0.60947 0.59837 0.55669 0.0
C174 C 0.60223 0.62601 0.55108 0.0
C175 C 0.57067 0.62334 0.54582 0.0
C176 C 0.54648 0.59212 0.54633 0.0
C177 C 0.55388 0.56425 0.55187 0.0
C178 C 0.59186 0.53306 0.58913 0.0
C179 C 0.61005 0.51831 0.59908 0.0
C180 C 0.60641 0.51654 0.61718 0.0
C181 C 0.58432 0.52936 0.6257 0.0
C182 C 0.56581 0.54382 0.61562 0.0
C183 C 0.56946 0.54552 0.59746 0.0
P184 P 0.11642 0.70552 0.90389 0.0
H185 H 0.12341 0.71778 0.86687 0.0
H186 H 0.16376 0.71363 0.84588 0.0
H187 H 0.22091 0.69492 0.8882 0.0
H188 H 0.18104 0.69994 0.90905 0.0
H189 H 0.04858 0.69833 0.90696 0.0
H190 H 0.99952 0.65344 0.89735 0.0
H191 H 0.05659 0.59951 0.87169 0.0
H192 H 0.10544 0.64461 0.88117 0.0
H193 H 0.11928 0.73394 0.94011 0.0
H194 H 0.12555 0.6437 0.91379 0.0
O195 O 0.11109 0.74274 0.90639 0.0
H196 H 0.12051 0.71026 0.96852 0.0
H197 H 0.12571 0.6194 0.942 0.0
C198 C 0.14896 0.70846 0.88941 0.0
C199 C 0.14498 0.71343 0.87163 0.0
C200 C 0.16794 0.7109 0.85966 0.0
C201 C 0.19535 0.70358 0.86534 0.0
C202 C 0.2002 0.70082 0.8834 0.0
C203 C 0.1772 0.70333 0.89534 0.0
C204 C 0.08054 0.67518 0.89442 0.0
C205 C 0.05046 0.67718 0.89895 0.0
C206 C 1.02251 0.65134 0.89362 0.0
C207 C 1.02425 0.62287 0.88383 0.0
C208 C 0.05447 0.62128 0.87902 0.0
C209 C 0.0824 0.64712 0.88441 0.0
C210 C 0.12241 0.69059 0.92486 0.0
C211 C 0.1213 0.70918 0.94045 0.0
C212 C 0.12172 0.69547 0.95668 0.0
C213 C 0.12298 0.6628 0.95756 0.0
C214 C 0.12514 0.64474 0.94187 0.0
C215 C 0.12486 0.65854 0.92569 0.0
P216 P 0.07585 0.46745 0.4252 0.0
H217 H 0.07415 0.49813 0.46042 0.0
H218 H 0.10189 0.55405 0.4738 0.0
H219 H 0.14167 0.585 0.42365 0.0
H220 H 0.11333 0.52965 0.4104 0.0
H221 H 0.05365 0.39894 0.43556 0.0
H222 H 1.00338 0.36418 0.4471 0.0
H223 H 0.96588 0.44671 0.44664 0.0
H224 H 1.01679 0.48175 0.4352 0.0
H225 H 0.11311 0.45436 0.39587 0.0
H226 H 1.02641 0.47975 0.40284 0.0
O227 O 0.10406 0.45008 0.4295 0.0
H228 H 0.10673 0.45516 0.36413 0.0
H229 H 1.01926 0.47964 0.37101 0.0
C230 C 0.09096 0.50991 0.43431 0.0
C231 C 0.08812 0.51728 0.45223 0.0
C232 C 0.10433 0.54917 0.4599 0.0
C233 C 0.12407 0.57415 0.44983 0.0
C234 C 0.12623 0.56672 0.43178 0.0
C235 C 0.10998 0.53492 0.42414 0.0
C236 C 0.03914 0.44308 0.43476 0.0
C237 C 1.03486 0.4098 0.43817 0.0
C238 C 1.00608 0.38992 0.4448 0.0
C239 C 0.98074 0.40277 0.44791 0.0
C240 C 0.98497 0.43612 0.44435 0.0
C241 C 1.01403 0.45617 0.43787 0.0
C242 C 0.06993 0.46641 0.40173 0.0
C243 C 0.0924 0.45961 0.39056 0.0
C244 C 0.08863 0.45994 0.37237 0.0
C245 C 0.06233 0.46722 0.36496 0.0
C246 C 0.03992 0.47418 0.37625 0.0
C247 C 0.04379 0.47393 0.39447 0.0
P248 P 0.59181 0.00044 0.79293 0.0
H249 H 0.63044 0.06313 0.81118 0.0
H250 H 0.61777 0.11255 0.8215 0.0
H251 H 0.51684 0.06041 0.81041 0.0
H252 H 0.53001 0.01086 0.79968 0.0
H253 H 0.57804 0.93513 0.77463 0.0
H254 H 0.5619 0.87874 0.78452 0.0
H255 H 0.5525 0.91702 0.8371 0.0
H256 H 0.56873 0.97392 0.82695 0.0
H257 H 0.62852 0.03925 0.76543 0.0
H258 H 0.53355 0.9695 0.77064 0.0
O259 O 0.63144 0.00838 0.79517 0.0
H260 H 0.61609 0.0441 0.73457 0.0
H261 H 0.52096 0.97407 0.73965 0.0
C262 C 0.58114 0.03312 0.80481 0.0
C263 C 0.60547 0.0619 0.81139 0.0
C264 C 0.59814 0.09029 0.81734 0.0
C265 C 0.56626 0.09067 0.81675 0.0
C266 C 0.5417 0.06119 0.81087 0.0
C267 C 0.54912 0.03269 0.80491 0.0
C268 C 0.57352 0.95872 0.7999 0.0
C269 C 0.57145 0.93142 0.78816 0.0
C270 C 0.56229 0.89905 0.79387 0.0
C271 C 0.55565 0.89322 0.81159 0.0
C272 C 0.55747 0.92063 0.82336 0.0
C273 C 0.56642 0.95313 0.81755 0.0
C274 C 0.58232 0.0032 0.77014 0.0
C275 C 0.60506 0.02477 0.75988 0.0
C276 C 0.59782 0.02777 0.74229 0.0
C277 C 0.56761 0.00931 0.73467 0.0
C278 C 0.54459 0.98822 0.74511 0.0
C279 C 0.55178 0.98553 0.76278 0.0
P280 P 0.54033 0.47261 0.11575 0.0
H281 H 0.57778 0.48123 0.14944 0.0
H282 H 0.63486 0.48905 0.15584 0.0
H283 H 0.65516 0.50731 0.10149 0.0
H284 H 0.59915 0.49865 0.09517 0.0
H285 H 0.51625 0.53056 0.11144 0.0
H286 H 0.46472 0.53786 0.11784 0.0
H287 H 0.44141 0.45209 0.14928 0.0
H288 H 0.49232 0.44407 0.14212 0.0
H289 H 0.51357 0.41983 0.08781 0.0
H290 H 0.55456 0.52714 0.09162 0.0
O291 O 0.53157 0.43246 0.11993 0.0
H292 H 0.50753 0.42046 0.0561 0.0
H293 H 0.54703 0.52814 0.05993 0.0
C294 C 0.58341 0.49014 0.12187 0.0
C295 C 0.59468 0.48808 0.13902 0.0
C296 C 0.62751 0.4923 0.14264 0.0
C297 C 0.65 0.4983 0.12914 0.0
C298 C 0.63883 0.50202 0.11224 0.0
C299 C 0.60628 0.49773 0.10866 0.0
C300 C 0.50859 0.48632 0.12594 0.0
C301 C 0.50045 0.51349 0.11991 0.0
C302 C 0.47058 0.51773 0.12368 0.0
C303 C 0.44789 0.49508 0.13377 0.0
C304 C 0.45735 0.46953 0.14096 0.0
C305 C 0.48706 0.46521 0.13708 0.0
C306 C 0.53455 0.47346 0.09221 0.0
C307 C 0.52099 0.44363 0.08189 0.0
C308 C 0.51727 0.44404 0.06368 0.0
C309 C 0.52676 0.47436 0.05535 0.0
C310 C 0.53981 0.50428 0.0658 0.0
C311 C 0.54367 0.5038 0.08401 0.0
H312 H 0.17203 0.55408 0.14386 0.0
H313 H 0.22757 0.55379 0.14172 0.0
H314 H 0.19586 0.44795 0.14816 0.0
H315 H 0.14032 0.44796 0.15019 0.0
H316 H 0.26789 0.53591 0.16497 0.0
H317 H 0.24783 0.45357 0.10408 0.0
H318 H 0.21877 0.47271 0.11166 0.0
H319 H 0.22161 0.43597 0.12136 0.0
C320 C 0.17674 0.53064 0.1448 0.0
C321 C 0.15126 0.50099 0.14712 0.0
C322 C 0.20872 0.53054 0.14359 0.0
C323 C 0.21629 0.50076 0.14446 0.0
C324 C 0.19095 0.47123 0.14704 0.0
H325 H 0.39074 0.44345 0.1364 0.0
H326 H 0.33649 0.44607 0.13969 0.0
C327 C 0.159 0.47132 0.14833 0.0
C328 C 0.25052 0.50062 0.14285 0.0
H329 H 0.29844 0.46571 0.11888 0.0
C330 C 0.27454 0.52067 0.15482 0.0
C331 C 0.25964 0.48077 0.12966 0.0
C332 C 0.23573 0.45976 0.11584 0.0
C333 C 0.30679 0.52074 0.15427 0.0
C334 C 0.31594 0.50086 0.14108 0.0
C335 C 0.29188 0.48098 0.12905 0.0
C336 C 0.34998 0.49983 0.13961 0.0
C337 C 0.33047 0.54137 0.1683 0.0
C338 C 0.3764 0.52908 0.13832 0.0
C339 C 0.40792 0.52772 0.13669 0.0
C340 C 0.4142 0.497 0.1361 0.0
C341 C 0.38756 0.46776 0.13721 0.0
C342 C 0.35613 0.46917 0.13891 0.0
H343 H 0.31813 0.54665 0.18017 0.0
H344 H 0.34773 0.52862 0.17224 0.0
H345 H 0.34418 0.56566 0.16314 0.0
H346 H 0.3727 0.55312 0.13834 0.0
H347 H 0.42739 0.55093 0.13596 0.0
H348 H 0.70178 0.18625 0.46412 0.0
H349 H 0.749 0.23401 0.4585 0.0
H350 H 0.79782 0.21579 0.50434 0.0
H351 H 0.75098 0.16782 0.50995 0.0
H352 H 0.78499 0.29368 0.48256 0.0
H353 H 0.85588 0.21157 0.46117 0.0
H354 H 0.81257 0.19662 0.46185 0.0
H355 H 0.83649 0.20335 0.48181 0.0
C356 C 0.72255 0.19247 0.47303 0.0
C357 C 0.72269 0.17311 0.48743 0.0
C358 C 0.74939 0.21986 0.46985 0.0
C359 C 0.77693 0.22818 0.48092 0.0
C360 C 0.77683 0.20959 0.49559 0.0
H361 H 0.97216 0.36046 0.47448 0.0
H362 H 0.92188 0.32052 0.48336 0.0
C363 C 0.74996 0.18234 0.49884 0.0
C364 C 0.80632 0.25533 0.4767 0.0
H365 H 0.88287 0.26951 0.46306 0.0
C366 C 0.80643 0.28852 0.47827 0.0
C367 C 0.83415 0.24839 0.47112 0.0
C368 C 0.83492 0.21307 0.46873 0.0
C369 C 0.83402 0.31511 0.47473 0.0
C370 C 0.8619 0.30816 0.46909 0.0
C371 C 0.86158 0.27488 0.46745 0.0
C372 C 0.89179 0.33478 0.46474 0.0
C373 C 0.83328 0.35038 0.4775 0.0
C374 C 0.89164 0.35638 0.45143 0.0
C375 C 0.9204 0.37941 0.44639 0.0
C376 C 0.94988 0.38088 0.4544 0.0
C377 C 0.94986 0.35969 0.46796 0.0
C378 C 0.92113 0.33692 0.47307 0.0
H379 H 0.81413 0.35187 0.48654 0.0
H380 H 0.85671 0.36747 0.48291 0.0
H381 H 0.82822 0.35925 0.4647 0.0
H382 H 0.86944 0.35468 0.4445 0.0
H383 H 0.91971 0.39509 0.43575 0.0
H384 H 0.56964 0.61069 0.86252 0.0
H385 H 0.56967 0.66827 0.86075 0.0
H386 H 0.49989 0.63684 0.81767 0.0
H387 H 0.49913 0.57939 0.8196 0.0
H388 H 0.58705 0.70791 0.8338 0.0
H389 H 0.46011 0.69282 0.84769 0.0
H390 H 0.4779 0.66082 0.85164 0.0
H391 H 0.4638 0.66501 0.82989 0.0
C392 C 0.554 0.61596 0.85282 0.0
C393 C 0.53434 0.59032 0.84124 0.0
C394 C 0.55406 0.64892 0.85181 0.0
C395 C 0.53438 0.65691 0.83927 0.0
C396 C 0.51465 0.6313 0.82777 0.0
H397 H 0.5175 0.83397 0.79557 0.0
H398 H 0.51196 0.77744 0.80382 0.0
C399 C 0.51447 0.59839 0.82881 0.0
C400 C 0.536 0.69224 0.83742 0.0
H401 H 0.49001 0.74356 0.83491 0.0
C402 C 0.56589 0.71579 0.83429 0.0
C403 C 0.50837 0.70257 0.83797 0.0
C404 C 0.4758 0.67904 0.84215 0.0
C405 C 0.56876 0.74897 0.83111 0.0
C406 C 0.54105 0.75911 0.83133 0.0
C407 C 0.51122 0.73575 0.83474 0.0
C408 C 0.54245 0.79348 0.82729 0.0
C409 C 0.60125 0.7726 0.8269 0.0
C410 C 0.56067 0.82132 0.83801 0.0
C411 C 0.56396 0.85372 0.8333 0.0
C412 C 0.54904 0.85892 0.81776 0.0
C413 C 0.52968 0.83089 0.80747 0.0
C414 C 0.52635 0.79854 0.81222 0.0
H415 H 0.61855 0.75918 0.82354 0.0
H416 H 0.59919 0.78768 0.81576 0.0
H417 H 0.61126 0.79 0.83851 0.0
H418 H 0.5729 0.81799 0.84984 0.0
H419 H 0.5792 0.87468 0.84147 0.0
H420 H 0.96156 0.55661 0.14113 0.0
H421 H 0.9057 0.55597 0.13973 0.0
H422 H 0.87349 0.45097 0.14857 0.0
H423 H 0.92935 0.45172 0.15053 0.0
H424 H 0.85722 0.52665 0.11834 0.0
H425 H 0.8203 0.48003 0.18353 0.0
H426 H 0.86169 0.49289 0.1773 0.0
H427 H 0.83498 0.45185 0.17052 0.0
C428 C 0.94266 0.53335 0.14292 0.0
C429 C 0.95036 0.50427 0.14607 0.0
C430 C 0.91049 0.53301 0.14209 0.0
C431 C 0.8848 0.50358 0.14436 0.0
C432 C 0.89245 0.47437 0.14729 0.0
H433 H 0.68671 0.47254 0.10725 0.0
H434 H 0.74237 0.47439 0.11128 0.0
C435 C 0.92466 0.47475 0.14827 0.0
C436 C 0.85027 0.50338 0.143 0.0
H437 H 0.77808 0.48043 0.16359 0.0
C438 C 0.84008 0.51662 0.12833 0.0
C439 C 0.82748 0.49092 0.15607 0.0
C440 C 0.83671 0.47845 0.17282 0.0
C441 C 0.80822 0.51716 0.12618 0.0
C442 C 0.78504 0.50327 0.13882 0.0
C443 C 0.79536 0.49071 0.1537 0.0
C444 C 0.75017 0.50139 0.13671 0.0
C445 C 0.80001 0.53342 0.11048 0.0
C446 C 0.73476 0.51464 0.14992 0.0
C447 C 0.70241 0.51345 0.14767 0.0
C448 C 0.6844 0.49895 0.13213 0.0
C449 C 0.69972 0.48488 0.11919 0.0
C450 C 0.73186 0.48594 0.12147 0.0
H451 H 0.82173 0.55185 0.10544 0.0
H452 H 0.78954 0.51401 0.09976 0.0
H453 H 0.78227 0.54632 0.11373 0.0
H454 H 0.74794 0.52649 0.16191 0.0
H455 H 0.69175 0.52455 0.15799 0.0
H456 H 0.33636 0.82237 0.53348 0.0
H457 H 0.29363 0.77139 0.52293 0.0
H458 H 0.28381 0.8169 0.47489 0.0
H459 H 0.32669 0.86767 0.48525 0.0
H460 H 0.23046 0.75973 0.5131 0.0
H461 H 0.29708 0.73107 0.45653 0.0
H462 H 0.31616 0.76213 0.47385 0.0
H463 H 0.29304 0.77187 0.45653 0.0
C464 C 0.32496 0.82154 0.52071 0.0
C465 C 0.33513 0.84891 0.51012 0.0
C466 C 0.30061 0.79239 0.51468 0.0
C467 C 0.28596 0.79007 0.49797 0.0
C468 C 0.29537 0.81775 0.48762 0.0
H469 H 0.13783 0.63609 0.43669 0.0
H470 H 0.1754 0.68891 0.44908 0.0
C471 C 0.31985 0.84677 0.49357 0.0
C472 C 0.26088 0.75871 0.49134 0.0
H473 H 0.24204 0.69858 0.45761 0.0
C474 C 0.23305 0.74627 0.50101 0.0
C475 C 0.26432 0.74109 0.47558 0.0
C476 C 0.29439 0.752 0.4651 0.0
C477 C 0.20832 0.71705 0.49517 0.0
C478 C 0.21165 0.69973 0.47933 0.0
C479 C 0.23946 0.7121 0.46968 0.0
C480 C 0.18694 0.66829 0.47262 0.0
C481 C 0.17857 0.70518 0.5058 0.0
C482 C 0.18087 0.63922 0.48179 0.0
C483 C 0.15966 0.60889 0.47467 0.0
C484 C 0.14412 0.60702 0.45819 0.0
C485 C 0.14967 0.63647 0.44928 0.0
C486 C 0.171 0.66674 0.45638 0.0
H487 H 0.17655 0.725 0.51542 0.0
H488 H 0.15663 0.69672 0.4971 0.0
H489 H 0.17956 0.68365 0.51318 0.0
H490 H 0.19338 0.63975 0.4942 0.0
H491 H 0.15647 0.58668 0.48178 0.0
H492 H 0.50141 0.36634 0.81521 0.0
H493 H 0.5047 0.30977 0.81343 0.0
H494 H 0.57953 0.33838 0.85393 0.0
H495 H 0.57633 0.39508 0.85591 0.0
H496 H 0.55931 0.29075 0.80539 0.0
H497 H 0.51483 0.25269 0.87132 0.0
H498 H 0.50898 0.28816 0.86141 0.0
H499 H 0.54734 0.29138 0.8712 0.0
C500 C 0.51847 0.36065 0.82384 0.0
C501 C 0.53855 0.38534 0.83575 0.0
C502 C 0.52031 0.32825 0.82278 0.0
C503 C 0.54204 0.31971 0.8337 0.0
C504 C 0.56216 0.34424 0.8456 0.0
H505 H 0.59346 0.13925 0.84295 0.0
H506 H 0.58692 0.19435 0.84715 0.0
C507 C 0.56042 0.37672 0.84664 0.0
C508 C 0.54442 0.28547 0.83211 0.0
H509 H 0.53471 0.21534 0.85448 0.0
C510 C 0.5538 0.27419 0.81609 0.0
C511 C 0.5374 0.26399 0.84613 0.0
C512 C 0.52632 0.27444 0.86346 0.0
C513 C 0.5568 0.24221 0.81377 0.0
C514 C 0.54944 0.22053 0.82771 0.0
C515 C 0.5402 0.23188 0.84378 0.0
C516 C 0.55163 0.18619 0.82589 0.0
C517 C 0.56864 0.2323 0.79652 0.0
C518 C 0.53324 0.16284 0.8129 0.0
C519 C 0.53713 0.13141 0.81036 0.0
C520 C 0.55932 0.1225 0.82086 0.0
C521 C 0.57657 0.14542 0.83442 0.0
C522 C 0.57273 0.17689 0.83691 0.0
H523 H 0.58142 0.25443 0.78921 0.0
H524 H 0.5851 0.21759 0.79859 0.0
H525 H 0.5478 0.21664 0.78819 0.0
H526 H 0.51628 0.16916 0.80449 0.0
H527 H 0.52359 0.11462 0.79971 0.0
H528 H 0.58089 0.917 0.5038 0.0
H529 H 0.58394 0.86089 0.50691 0.0
H530 H 0.4955 0.83455 0.53475 0.0
H531 H 0.49198 0.89032 0.53153 0.0
H532 H 0.58778 0.83136 0.538 0.0
H533 H 0.47918 0.75582 0.49868 0.0
H534 H 0.49642 0.80042 0.49739 0.0
H535 H 0.47167 0.78363 0.51541 0.0
C536 C 0.56188 0.89919 0.51042 0.0
C537 C 0.53616 0.90825 0.51737 0.0
C538 C 0.56368 0.8671 0.5122 0.0
C539 C 0.53972 0.8433 0.52085 0.0
C540 C 0.51391 0.85219 0.52769 0.0
H541 H 0.51937 0.64415 0.55461 0.0
H542 H 0.51095 0.69683 0.54798 0.0
C543 C 0.51208 0.88424 0.52593 0.0
C544 C 0.54272 0.80989 0.5236 0.0
H545 H 0.50507 0.72598 0.51582 0.0
C546 C 0.5698 0.80834 0.53304 0.0
C547 C 0.51912 0.77982 0.51725 0.0
C548 C 0.49008 0.77987 0.50648 0.0
C549 C 0.57373 0.77763 0.53652 0.0
C550 C 0.55023 0.74755 0.5301 0.0
C551 C 0.52306 0.74904 0.52072 0.0
C552 C 0.5538 0.71442 0.53291 0.0
C553 C 0.6027 0.77768 0.5474 0.0
C554 C 0.58006 0.70629 0.52615 0.0
C555 C 0.58487 0.67627 0.52987 0.0
C556 C 0.56342 0.65353 0.54036 0.0
C557 C 0.53627 0.661 0.54643 0.0
C558 C 0.5315 0.69117 0.54272 0.0
H559 H 0.61367 0.80183 0.55509 0.0
H560 H 0.59625 0.75732 0.55661 0.0
H561 H 0.62112 0.77365 0.53856 0.0
H562 H 0.59714 0.72345 0.51819 0.0
H563 H 0.60566 0.67101 0.52468 0.0
H564 H 0.75358 0.50573 0.89197 0.0
H565 H 0.80937 0.50831 0.88978 0.0
H566 H 0.78765 0.45205 0.83981 0.0
H567 H 0.73101 0.4484 0.84206 0.0
H568 H 0.84324 0.45828 0.88268 0.0
H569 H 0.85099 0.54709 0.83017 0.0
H570 H 0.81723 0.53616 0.84439 0.0
H571 H 0.82155 0.5061 0.82797 0.0
C572 C 0.7602 0.4928 0.88077 0.0
C573 C 0.73776 0.47714 0.8671 0.0
C574 C 0.79223 0.49443 0.87953 0.0
C575 C 0.80258 0.48067 0.86457 0.0
C576 C 0.78005 0.46307 0.85139 0.0
H577 H 1.00715 0.58584 0.85248 0.0
H578 H 0.9566 0.54094 0.84489 0.0
C579 C 0.74781 0.46122 0.85267 0.0
C580 C 0.83747 0.48902 0.86215 0.0
H581 H 0.89875 0.54918 0.84466 0.0
C582 C 0.85553 0.47742 0.87399 0.0
C583 C 0.85338 0.51363 0.85063 0.0
C584 C 0.83499 0.52668 0.83755 0.0
C585 C 0.889 0.49198 0.8757 0.0
C586 C 0.90445 0.51933 0.86564 0.0
C587 C 0.8868 0.52844 0.8525 0.0
C588 C 0.9369 0.54254 0.87063 0.0
C589 C 0.90724 0.47908 0.8889 0.0
C590 C 0.94252 0.55833 0.88757 0.0
C591 C 0.97114 0.58387 0.89189 0.0
C592 C 0.99469 0.59445 0.87931 0.0
C593 C 0.98947 0.57808 0.86246 0.0
C594 C 0.96068 0.55245 0.85812 0.0
H595 H 0.8959 0.45178 0.88992 0.0
H596 H 0.93272 0.48417 0.88537 0.0
H597 H 0.90657 0.4914 0.90203 0.0
H598 H 0.9242 0.55183 0.8973 0.0
H599 H 0.97465 0.59566 0.90506 0.0
H600 H 0.24212 0.67051 0.15564 0.0
H601 H 0.2931 0.71307 0.1648 0.0
H602 H 0.24462 0.78652 0.17133 0.0
H603 H 0.1934 0.74394 0.16279 0.0
H604 H 0.32516 0.77341 0.15007 0.0
H605 H 0.29227 0.79497 0.21866 0.0
H606 H 0.2693 0.75938 0.20462 0.0
H607 H 0.26473 0.79958 0.20215 0.0
C608 C 0.24223 0.69564 0.1592 0.0
C609 C 0.21359 0.70373 0.15859 0.0
C610 C 0.27142 0.71998 0.16431 0.0
C611 C 0.27257 0.75284 0.16899 0.0
C612 C 0.24419 0.76118 0.16807 0.0
H613 H 0.42959 0.92992 0.20718 0.0
H614 H 0.37791 0.89153 0.19562 0.0
C615 C 0.21498 0.73687 0.16298 0.0
C616 C 0.30352 0.77836 0.17476 0.0
H617 H 0.34197 0.83088 0.20954 0.0
C618 C 0.32887 0.78597 0.16307 0.0
C619 C 0.30825 0.79475 0.19172 0.0
C620 C 0.28233 0.78663 0.2051 0.0
C621 C 0.3588 0.8097 0.16786 0.0
C622 C 0.36361 0.82586 0.18487 0.0
C623 C 0.33815 0.81853 0.19649 0.0
C624 C 0.39522 0.8495 0.19114 0.0
C625 C 0.3849 0.81756 0.1546 0.0
C626 C 0.422 0.83852 0.19256 0.0
C627 C 0.45146 0.86027 0.19926 0.0
C628 C 0.45476 0.89349 0.20475 0.0
C629 C 0.42786 0.90445 0.20322 0.0
C630 C 0.39834 0.88261 0.19655 0.0
H631 H 0.37494 0.81016 0.14097 0.0
H632 H 0.39882 0.8446 0.15545 0.0
H633 H 0.4017 0.80354 0.15732 0.0
H634 H 0.41994 0.81285 0.18886 0.0
H635 H 0.47141 0.85072 0.2006 0.0
H636 H 0.48491 0.10189 0.53514 0.0
H637 H 0.48542 0.15988 0.53737 0.0
H638 H 0.57594 0.19023 0.51153 0.0
H639 H 0.57532 0.13232 0.50891 0.0
H640 H 0.52827 0.21434 0.55425 0.0
H641 H 0.52453 0.23456 0.48325 0.0
H642 H 0.51639 0.19357 0.4914 0.0
H643 H 0.55716 0.22031 0.48952 0.0
C644 C 0.50486 0.12085 0.52983 0.0
C645 C 0.52999 0.11234 0.52176 0.0
C646 C 0.5051 0.15403 0.53112 0.0
C647 C 0.53041 0.17941 0.52433 0.0
C648 C 0.55571 0.17103 0.51645 0.0
H649 H 0.59432 0.39442 0.5285 0.0
H650 H 0.58627 0.33494 0.52316 0.0
C651 C 0.55542 0.13786 0.51508 0.0
C652 C 0.53098 0.21478 0.52611 0.0
H653 H 0.53742 0.28326 0.50285 0.0
C654 C 0.52993 0.2293 0.54299 0.0
C655 C 0.53311 0.23435 0.51142 0.0
C656 C 0.53254 0.21984 0.49286 0.0
C657 C 0.53195 0.26301 0.54563 0.0
C658 C 0.5347 0.2827 0.53097 0.0
C659 C 0.53534 0.26813 0.51407 0.0
C660 C 0.53821 0.31879 0.53302 0.0
C661 C 0.53215 0.27761 0.56413 0.0
C662 C 0.51348 0.32954 0.53989 0.0
C663 C 0.51784 0.36367 0.54279 0.0
C664 C 0.54705 0.38777 0.53888 0.0
C665 C 0.57132 0.37677 0.53144 0.0
C666 C 0.56688 0.34269 0.52849 0.0
H667 H 0.53645 0.26115 0.57406 0.0
H668 H 0.55092 0.30246 0.56602 0.0
H669 H 0.50852 0.28098 0.56658 0.0
H670 H 0.49091 0.31151 0.54318 0.0
H671 H 0.49842 0.37115 0.54827 0.0
H672 H 0.33735 0.51968 0.79016 0.0
H673 H 0.3024 0.55426 0.79202 0.0
H674 H 0.3802 0.63563 0.81644 0.0
H675 H 0.41578 0.60195 0.81369 0.0
H676 H 0.28669 0.57396 0.82284 0.0
H677 H 0.3397 0.68627 0.78603 0.0
H678 H 0.3517 0.64943 0.78296 0.0
H679 H 0.36878 0.67976 0.80088 0.0
C680 C 0.3474 0.54535 0.7953 0.0
C681 C 0.37927 0.55791 0.80198 0.0
C682 C 0.32732 0.56505 0.79643 0.0
C683 C 0.33869 0.59762 0.80427 0.0
C684 C 0.371 0.61086 0.81001 0.0
H685 H 0.26111 0.72167 0.86728 0.0
H686 H 0.29506 0.69833 0.84903 0.0
C687 C 0.39118 0.59131 0.80872 0.0
C688 C 0.31579 0.61556 0.80906 0.0
H689 H 0.30415 0.69154 0.8093 0.0
C690 C 0.29011 0.59941 0.81952 0.0
C691 C 0.32042 0.64887 0.80486 0.0
C692 C 0.34648 0.66694 0.79291 0.0
C693 C 0.26984 0.61607 0.82656 0.0
C694 C 0.27521 0.64972 0.82292 0.0
C695 C 0.30022 0.66571 0.81205 0.0
C696 C 0.25614 0.66888 0.8314 0.0
C697 C 0.24369 0.59803 0.83853 0.0
C698 C 0.22335 0.66089 0.82706 0.0
C699 C 0.20388 0.67391 0.83752 0.0
C700 C 0.21696 0.69516 0.85248 0.0
C701 C 0.2503 0.70499 0.856 0.0
C702 C 0.26975 0.69194 0.84551 0.0
H703 H 0.24585 0.57375 0.8421 0.0
H704 H 0.24431 0.61366 0.85078 0.0
H705 H 0.21991 0.59314 0.83182 0.0
H706 H 0.21252 0.64311 0.81618 0.0
H707 H 0.17828 0.6656 0.83453 0.0
H708 H 0.88405 0.33219 0.19433 0.0
H709 H 0.83434 0.28941 0.20181 0.0
H710 H 0.83446 0.23453 0.15255 0.0
H711 H 0.88411 0.27715 0.14496 0.0
H712 H 0.77341 0.26416 0.18476 0.0
H713 H 0.83172 0.16615 0.18884 0.0
H714 H 0.85444 0.20983 0.18806 0.0
H715 H 0.83635 0.18564 0.16829 0.0
C716 C 0.87329 0.31123 0.18499 0.0
C717 C 0.88822 0.30792 0.16912 0.0
C718 C 0.84495 0.28675 0.18931 0.0
C719 C 0.83105 0.25849 0.17788 0.0
C720 C 0.8452 0.25574 0.16175 0.0
H721 H 0.67152 0.07551 0.18739 0.0
H722 H 0.71389 0.12214 0.1761 0.0
C723 C 0.87357 0.28012 0.15743 0.0
C724 C 0.8022 0.23153 0.18303 0.0
H725 H 0.77539 0.14907 0.19163 0.0
C726 C 0.77381 0.23899 0.18627 0.0
C727 C 0.80281 0.19872 0.18503 0.0
C728 C 0.83301 0.18956 0.18254 0.0
C729 C 0.74587 0.21438 0.19127 0.0
C730 C 0.74655 0.18163 0.1933 0.0
C731 C 0.77488 0.17416 0.18995 0.0
C732 C 0.71857 0.15485 0.19947 0.0
C733 C 0.71576 0.22352 0.19411 0.0
C734 C 0.70695 0.15787 0.2163 0.0
C735 C 0.68265 0.13132 0.22276 0.0
C736 C 0.66959 0.10114 0.21255 0.0
C737 C 0.68072 0.09853 0.19551 0.0
C738 C 0.70509 0.12508 0.18907 0.0
H739 H 0.71657 0.2465 0.18751 0.0
H740 H 0.69411 0.2029 0.18915 0.0
H741 H 0.71332 0.22822 0.20838 0.0
H742 H 0.71738 0.18038 0.22466 0.0
H743 H 0.67446 0.13422 0.23589 0.0
H744 H 0.08883 0.47664 0.09049 0.0
H745 H 0.1058 0.50678 0.06388 0.0
H746 H 0.05013 0.57122 0.0778 0.0
H747 H 1.0336 0.54166 0.10447 0.0
H748 H 0.06935 0.51569 0.03603 0.0
H749 H 0.13766 0.63787 0.06941 0.0
H750 H 0.12501 0.5998 0.0808 0.0
H751 H 0.0972 0.62198 0.07659 0.0
C752 C 0.08026 0.49725 0.08784 0.0
C753 C 0.06006 0.50698 0.09954 0.0
C754 C 0.08999 0.51445 0.07268 0.0
C755 C 0.07975 0.54166 0.06907 0.0
C756 C 0.05899 0.55087 0.08057 0.0
H757 H 0.08415 0.66775 0.98459 0.0
H758 H 0.0766 0.63857 0.01174 0.0
C759 C 0.04936 0.53379 0.09572 0.0
C760 C 0.08996 0.55996 0.05304 0.0
H761 H 0.12517 0.63795 0.03877 0.0
C762 C 0.08191 0.54233 0.03661 0.0
C763 C 0.10645 0.59472 0.05386 0.0
C764 C 0.11738 0.61466 0.07112 0.0
C765 C 0.0888 0.5588 0.02096 0.0
C766 C 0.10439 0.59368 0.02181 0.0
C767 C 0.11309 0.6112 0.03821 0.0
C768 C 0.11065 0.61262 0.00581 0.0
C769 C 0.07838 0.53902 0.00363 0.0
C770 C 0.13285 0.60819 0.99369 0.0
C771 C 0.13753 0.62513 0.97823 0.0
C772 C 0.12004 0.64678 0.97461 0.0
C773 C 0.09838 0.65169 0.98704 0.0
C774 C 0.09385 0.63487 0.00252 0.0
H775 H 0.06184 0.51342 0.00532 0.0
H776 H 0.06622 0.55193 0.99501 0.0
H777 H 0.09986 0.53691 0.99683 0.0
H778 H 0.14639 0.59146 0.99616 0.0
H779 H 0.15476 0.62117 0.96908 0.0
H780 H 0.55228 0.9817 0.4685 0.0
H781 H 0.56182 0.9823 0.43698 0.0
H782 H 0.48587 0.02454 0.42902 0.0
H783 H 0.476 0.0237 0.46058 0.0
H784 H 0.48226 0.97029 0.4056 0.0
H785 H 0.6048 0.06282 0.40844 0.0
H786 H 0.60036 0.02879 0.42228 0.0
H787 H 0.57841 0.0574 0.42675 0.0
C788 C 0.53775 0.99128 0.46004 0.0
C789 C 0.51345 0.00272 0.46695 0.0
C790 C 0.54334 0.99181 0.44206 0.0
C791 C 0.52488 0.00395 0.43071 0.0
C792 C 0.5005 0.01526 0.43759 0.0
H793 H 0.51855 0.012 0.31641 0.0
H794 H 0.50929 0.01792 0.34781 0.0
C795 C 0.49491 0.01477 0.45558 0.0
C796 C 0.53018 0.00358 0.41157 0.0
H797 H 0.58692 0.03222 0.38103 0.0
C798 C 0.50503 0.98406 0.40019 0.0
C799 C 0.55994 0.02155 0.40459 0.0
C800 C 0.58735 0.04408 0.41612 0.0
C801 C 0.50913 0.98121 0.38202 0.0
C802 C 0.53903 0.99883 0.37506 0.0
C803 C 0.56405 0.0187 0.38642 0.0
C804 C 0.54511 0.99624 0.35606 0.0
C805 C 0.48178 0.95852 0.37051 0.0
C806 C 0.56892 0.98296 0.35034 0.0
C807 C 0.5745 0.97985 0.33245 0.0
C808 C 0.55645 0.99014 0.31991 0.0
C809 C 0.53298 0.004 0.32572 0.0
C810 C 0.52742 0.00709 0.34364 0.0
H811 H 0.46341 0.94095 0.37828 0.0
H812 H 0.46989 0.97387 0.36348 0.0
H813 H 0.49072 0.94385 0.36054 0.0
H814 H 0.58301 0.97467 0.35973 0.0
H815 H 0.59313 0.96961 0.32845 0.0
H816 H 0.5329 0.45564 0.78831 0.0
H817 H 0.53172 0.45871 0.75627 0.0
H818 H 0.60304 0.55643 0.76144 0.0
H819 H 0.60418 0.55363 0.79339 0.0
H820 H 0.54925 0.55096 0.73835 0.0
H821 H 0.60466 0.4518 0.72372 0.0
H822 H 0.57014 0.44071 0.73727 0.0
H823 H 0.6066 0.47189 0.74538 0.0
C824 C 0.54834 0.47772 0.78258 0.0
C825 C 0.56879 0.50432 0.79328 0.0
C826 C 0.54771 0.4794 0.76431 0.0
C827 C 0.56753 0.50766 0.75651 0.0
C828 C 0.58762 0.53438 0.76722 0.0
H829 H 0.63159 0.53979 0.65116 0.0
H830 H 0.62541 0.53403 0.68272 0.0
C831 C 0.58833 0.53269 0.78544 0.0
C832 C 0.56764 0.50956 0.73718 0.0
H833 H 0.5889 0.47592 0.69949 0.0
C834 C 0.55774 0.53447 0.72981 0.0
C835 C 0.57903 0.48818 0.72615 0.0
C836 C 0.59097 0.46176 0.73346 0.0
C837 C 0.55906 0.53866 0.71167 0.0
C838 C 0.57035 0.51721 0.70064 0.0
C839 C 0.58009 0.4922 0.708 0.0
C840 C 0.57365 0.5212 0.68152 0.0
C841 C 0.54926 0.56659 0.7045 0.0
C842 C 0.54654 0.51582 0.67039 0.0
C843 C 0.54996 0.51889 0.65229 0.0
C844 C 0.58057 0.52726 0.645 0.0
C845 C 0.60764 0.53284 0.65628 0.0
C846 C 0.60419 0.52971 0.67433 0.0
H847 H 0.54729 0.58487 0.71507 0.0
H848 H 0.5668 0.57998 0.69491 0.0
H849 H 0.52548 0.55598 0.69756 0.0
H850 H 0.52271 0.50872 0.67566 0.0
H851 H 0.52858 0.51393 0.64396 0.0
H852 H 0.51798 0.04032 0.5678 0.0
H853 H 0.51567 0.04212 0.59999 0.0
H854 H 0.58491 0.98964 0.60231 0.0
H855 H 0.58778 0.98836 0.57035 0.0
H856 H 0.49992 0.99202 0.62359 0.0
H857 H 0.62636 0.07268 0.63453 0.0
H858 H 0.60583 0.0663 0.61333 0.0
H859 H 0.62268 0.03574 0.62087 0.0
C860 C 0.53267 0.02918 0.57522 0.0
C861 C 0.55339 0.01459 0.56664 0.0
C862 C 0.53129 0.03019 0.59357 0.0
C863 C 0.55065 0.01666 0.60355 0.0
C864 C 0.57041 0.001 0.5949 0.0
H865 H 0.53988 0.9582 0.7102 0.0
H866 H 0.53264 0.96173 0.67861 0.0
C867 C 0.57191 0.00014 0.57663 0.0
C868 C 0.55054 0.01895 0.62302 0.0
H869 H 0.60031 0.0452 0.65935 0.0
C870 C 0.52177 0.00392 0.63145 0.0
C871 C 0.57893 0.03507 0.63325 0.0
C872 C 0.61012 0.05367 0.62505 0.0
C873 C 0.52093 0.00344 0.64985 0.0
C874 C 0.54977 0.01777 0.66002 0.0
C875 C 0.57825 0.03388 0.65158 0.0
C876 C 0.55142 0.01571 0.67937 0.0
C877 C 0.48913 0.98775 0.65818 0.0
C878 C 0.56481 0.04479 0.69032 0.0
C879 C 0.56937 0.04278 0.70834 0.0
C880 C 0.56057 0.01162 0.71578 0.0
C881 C 0.54646 0.98257 0.70488 0.0
C882 C 0.54217 0.98458 0.68682 0.0
H883 H 0.46871 0.98804 0.64951 0.0
H884 H 0.48628 0.96131 0.66041 0.0
H885 H 0.48776 0.00083 0.67101 0.0
H886 H 0.57221 0.06907 0.68487 0.0
H887 H 0.58004 0.0656 0.71644 0.0
H888 H 0.46525 0.42824 0.88763 0.0
H889 H 0.46816 0.42888 0.9198 0.0
H890 H 0.54919 0.51943 0.92125 0.0
H891 H 0.54587 0.51935 0.88922 0.0
H892 H 0.51645 0.42627 0.94184 0.0
H893 H 0.49132 0.54507 0.95591 0.0
H894 H 0.48506 0.52395 0.93434 0.0
H895 H 0.52472 0.54944 0.94195 0.0
C896 C 0.48353 0.44838 0.89485 0.0
C897 C 0.50513 0.47391 0.88596 0.0
C898 C 0.48521 0.4487 0.91321 0.0
C899 C 0.50849 0.47456 0.92298 0.0
C900 C 0.53046 0.49973 0.91405 0.0
H901 H 0.56843 0.51466 0.0331 0.0
H902 H 0.56339 0.51444 0.00112 0.0
C903 C 0.52866 0.49954 0.89574 0.0
C904 C 0.51035 0.47476 0.94247 0.0
H905 H 0.50973 0.52211 0.98014 0.0
C906 C 0.51474 0.44712 0.95021 0.0
C907 C 0.50814 0.50199 0.95342 0.0
C908 C 0.50174 0.53165 0.94601 0.0
C909 C 0.51759 0.44627 0.96853 0.0
C910 C 0.51572 0.47363 0.97942 0.0
C911 C 0.51127 0.50122 0.97173 0.0
C912 C 0.5183 0.47403 0.99884 0.0
C913 C 0.52324 0.41641 0.97614 0.0
C914 C 0.49433 0.45173 0.00817 0.0
C915 C 0.49689 0.45204 0.02649 0.0
C916 C 0.52355 0.47465 0.03586 0.0
C917 C 0.54736 0.4972 0.02641 0.0
C918 C 0.54465 0.49699 0.0081 0.0
H919 H 0.53053 0.40064 0.96601 0.0
H920 H 0.5421 0.42445 0.98679 0.0
H921 H 0.50073 0.40087 0.98188 0.0
H922 H 0.47351 0.43419 0.00129 0.0
H923 H 0.47779 0.43475 0.0333 0.0
H924 H 0.07168 0.46823 0.19439 0.0
H925 H 0.07 0.45317 0.22508 0.0
H926 H 1.02733 0.52917 0.23924 0.0
H927 H 1.02839 0.54382 0.20869 0.0
H928 H 0.10015 0.4936 0.25391 0.0
H929 H 0.96864 0.44918 0.26239 0.0
H930 H 0.98617 0.45456 0.24105 0.0
H931 H 0.98248 0.48989 0.25398 0.0
C932 C 0.06159 0.48139 0.20404 0.0
C933 C 0.0501 0.50713 0.19918 0.0
C934 C 0.06068 0.47282 0.22154 0.0
C935 C 0.04806 0.48968 0.2344 0.0
C936 C 1.03645 0.51526 0.22949 0.0
H937 H 0.0427 0.51165 0.34669 0.0
H938 H 0.03852 0.5142 0.31483 0.0
C939 C 1.0373 0.52379 0.21205 0.0
C940 C 0.04873 0.48213 0.25314 0.0
H941 H 1.00167 0.46269 0.2888 0.0
C942 C 0.07858 0.48637 0.26149 0.0
C943 C 1.02055 0.47272 0.26302 0.0
C944 C 0.98762 0.46599 0.25461 0.0
C945 C 0.08115 0.48277 0.27959 0.0
C946 C 0.05308 0.47435 0.28954 0.0
C947 C 1.02316 0.46933 0.28114 0.0
C948 C 0.05446 0.47168 0.30879 0.0
C949 C 0.11398 0.48919 0.28807 0.0
C950 C 0.06425 0.44655 0.31593 0.0
C951 C 0.06642 0.44482 0.33413 0.0
C952 C 0.05879 0.46822 0.34557 0.0
C953 C 0.0484 0.493 0.33831 0.0
C954 C 0.04615 0.49462 0.3201 0.0
H955 H 0.13356 0.50166 0.27928 0.0
H956 H 0.11672 0.50496 0.30048 0.0
H957 H 0.11684 0.46507 0.29133 0.0
H958 H 0.07023 0.42826 0.3074 0.0
H959 H 0.07391 0.42504 0.33925 0.0
loop_
_geom_bond_atom_site_label_1
_geom_bond_atom_site_label_2
_geom_bond_distance
_geom_bond_site_symmetry_2
_ccdc_geom_bond_type
Nd0 C2 2.836 . S
Nd0 O20 2.500 . S
Nd0 O21 2.492 . S
Nd0 O22 2.487 . S
Nd0 O23 2.682 . S
Nd0 O24 2.410 . S
Nd0 O29 2.414 . S
Nd0 O31 2.424 1_455 S
Nd1 C11 2.836 1_455 S
Nd1 O23 2.414 . S
Nd1 O25 2.424 . S
Nd1 O26 2.500 1_455 S
Nd1 O27 2.492 1_455 S
Nd1 O28 2.487 . S
Nd1 O29 2.682 . S
Nd1 O30 2.410 1_455 S
C2 Nd0 2.836 . S
C2 C3 1.498 . S
C2 O20 1.258 . S
C2 O21 1.239 . S
C3 C2 1.498 . S
C3 C4 1.366 . S
C3 C8 1.407 . S
C4 C3 1.366 . S
C4 C5 1.392 . S
C4 H32 0.930 . S
C5 C4 1.392 . S
C5 C6 1.398 . S
C5 H33 0.929 . S
C6 C5 1.398 . S
C6 C7 1.352 . S
C7 C6 1.352 . S
C7 C8 1.384 . S
C7 H34 0.930 . S
C8 C3 1.407 . S
C8 C7 1.384 . S
C8 H35 0.929 . S
C9 O22 1.241 . S
C9 O23 1.273 . S
C10 O24 1.251 . S
C10 O25 1.268 . S
C11 Nd1 2.836 1_655 S
C11 C12 1.498 . S
C11 O26 1.258 . S
C11 O27 1.239 . S
C12 C11 1.498 . S
C12 C13 1.366 . S
C12 C17 1.407 . S
C13 C12 1.366 . S
C13 C14 1.392 . S
C13 H36 0.930 . S
C14 C13 1.392 . S
C14 C15 1.398 . S
C14 H37 0.929 . S
C15 C14 1.398 . S
C15 C16 1.352 . S
C16 C15 1.352 . S
C16 C17 1.384 . S
C16 H38 0.930 . S
C17 C12 1.407 . S
C17 C16 1.384 . S
C17 H39 0.929 . S
C18 O28 1.241 . S
C18 O29 1.273 . S
C19 O30 1.251 . S
C19 O31 1.268 . S
O20 Nd0 2.500 . S
O20 C2 1.258 . S
O21 Nd0 2.492 . S
O21 C2 1.239 . S
O22 Nd0 2.487 . S
O22 C9 1.241 . S
O23 Nd0 2.682 . S
O23 Nd1 2.414 . S
O23 C9 1.273 . S
O24 Nd0 2.410 . S
O24 C10 1.251 . S
O25 Nd1 2.424 . S
O25 C10 1.268 . S
O26 Nd1 2.500 1_655 S
O26 C11 1.258 . S
O27 Nd1 2.492 1_655 S
O27 C11 1.239 . S
O28 Nd1 2.487 . S
O28 C18 1.241 . S
O29 Nd0 2.414 . S
O29 Nd1 2.682 . S
O29 C18 1.273 . S
O30 Nd1 2.410 1_655 S
O30 C19 1.251 . S
O31 Nd0 2.424 1_655 S
O31 C19 1.268 . S
H32 C4 0.930 . S
H33 C5 0.929 . S
H34 C7 0.930 . S
H35 C8 0.929 . S
H36 C13 0.930 . S
H37 C14 0.929 . S
H38 C16 0.930 . S
H39 C17 0.929 . S
Nd40 C42 2.836 1_545 S
Nd40 O60 2.500 1_545 S
Nd40 O61 2.492 1_545 S
Nd40 O62 2.487 . S
Nd40 O63 2.682 . S
Nd40 O64 2.410 1_545 S
Nd40 O69 2.414 . S
Nd40 O71 2.424 . S
Nd41 C51 2.836 . S
Nd41 O63 2.414 . S
Nd41 O65 2.424 1_545 S
Nd41 O66 2.500 . S
Nd41 O67 2.492 . S
Nd41 O68 2.487 . S
Nd41 O69 2.682 . S
Nd41 O70 2.410 . S
C42 Nd40 2.836 1_565 S
C42 C43 1.498 . S
C42 O60 1.258 . S
C42 O61 1.239 . S
C43 C42 1.498 . S
C43 C44 1.366 . S
C43 C48 1.407 . S
C44 C43 1.366 . S
C44 C45 1.392 . S
C44 H72 0.930 . S
C45 C44 1.392 . S
C45 C46 1.398 . S
C45 H73 0.929 . S
C46 C45 1.398 . S
C46 C47 1.352 . S
C47 C46 1.352 . S
C47 C48 1.384 . S
C47 H74 0.930 . S
C48 C43 1.407 . S
C48 C47 1.384 . S
C48 H75 0.929 . S
C49 O62 1.241 . S
C49 O63 1.273 . S
C50 O64 1.251 . S
C50 O65 1.268 . S
C51 Nd41 2.836 . S
C51 C52 1.498 . S
C51 O66 1.258 . S
C51 O67 1.239 . S
C52 C51 1.498 . S
C52 C53 1.366 . S
C52 C57 1.407 . S
C53 C52 1.366 . S
C53 C54 1.392 . S
C53 H76 0.930 . S
C54 C53 1.392 . S
C54 C55 1.398 . S
C54 H77 0.929 . S
C55 C54 1.398 . S
C55 C56 1.352 . S
C56 C55 1.352 . S
C56 C57 1.384 . S
C56 H78 0.930 . S
C57 C52 1.407 . S
C57 C56 1.384 . S
C57 H79 0.929 . S
C58 O68 1.241 . S
C58 O69 1.273 . S
C59 O70 1.251 . S
C59 O71 1.268 . S
O60 Nd40 2.500 1_565 S
O60 C42 1.258 . S
O61 Nd40 2.492 1_565 S
O61 C42 1.239 . S
O62 Nd40 2.487 . S
O62 C49 1.241 . S
O63 Nd40 2.682 . S
O63 Nd41 2.414 . S
O63 C49 1.273 . S
O64 Nd40 2.410 1_565 S
O64 C50 1.251 . S
O65 Nd41 2.424 1_565 S
O65 C50 1.268 . S
O66 Nd41 2.500 . S
O66 C51 1.258 . S
O67 Nd41 2.492 . S
O67 C51 1.239 . S
O68 Nd41 2.487 . S
O68 C58 1.241 . S
O69 Nd40 2.414 . S
O69 Nd41 2.682 . S
O69 C58 1.273 . S
O70 Nd41 2.410 . S
O70 C59 1.251 . S
O71 Nd40 2.424 . S
O71 C59 1.268 . S
H72 C44 0.930 . S
H73 C45 0.929 . S
H74 C47 0.930 . S
H75 C48 0.929 . S
H76 C53 0.930 . S
H77 C54 0.929 . S
H78 C56 0.930 . S
H79 C57 0.929 . S
Nd80 C82 2.836 . S
Nd80 O100 2.500 . S
Nd80 O101 2.492 . S
Nd80 O102 2.487 . S
Nd80 O103 2.682 . S
Nd80 O104 2.410 . S
Nd80 O109 2.414 . S
Nd80 O111 2.424 . S
Nd81 C91 2.836 . S
Nd81 O103 2.414 . S
Nd81 O105 2.424 . S
Nd81 O106 2.500 . S
Nd81 O107 2.492 . S
Nd81 O108 2.487 . S
Nd81 O109 2.682 . S
Nd81 O110 2.410 . S
C82 Nd80 2.836 . S
C82 C83 1.498 . S
C82 O100 1.258 . S
C82 O101 1.239 . S
C83 C82 1.498 . S
C83 C84 1.366 . S
C83 C88 1.407 . S
C84 C83 1.366 . S
C84 C85 1.392 . S
C84 H112 0.930 . S
C85 C84 1.392 . S
C85 C86 1.398 . S
C85 H113 0.929 . S
C86 C85 1.398 . S
C86 C87 1.352 . S
C87 C86 1.352 . S
C87 C88 1.384 . S
C87 H114 0.930 . S
C88 C83 1.407 . S
C88 C87 1.384 . S
C88 H115 0.929 . S
C89 O102 1.241 . S
C89 O103 1.273 . S
C90 O104 1.251 . S
C90 O105 1.268 . S
C91 Nd81 2.836 . S
C91 C92 1.498 . S
C91 O106 1.258 . S
C91 O107 1.239 . S
C92 C91 1.498 . S
C92 C93 1.366 . S
C92 C97 1.407 . S
C93 C92 1.366 . S
C93 C94 1.392 . S
C93 H116 0.930 . S
C94 C93 1.392 . S
C94 C95 1.398 . S
C94 H117 0.929 . S
C95 C94 1.398 . S
C95 C96 1.352 . S
C96 C95 1.352 . S
C96 C97 1.384 . S
C96 H118 0.930 . S
C97 C92 1.407 . S
C97 C96 1.384 . S
C97 H119 0.929 . S
C98 O108 1.241 . S
C98 O109 1.273 . S
C99 O110 1.251 . S
C99 O111 1.268 . S
O100 Nd80 2.500 . S
O100 C82 1.258 . S
O101 Nd80 2.492 . S
O101 C82 1.239 . S
O102 Nd80 2.487 . S
O102 C89 1.241 . S
O103 Nd80 2.682 . S
O103 Nd81 2.414 . S
O103 C89 1.273 . S
O104 Nd80 2.410 . S
O104 C90 1.251 . S
O105 Nd81 2.424 . S
O105 C90 1.268 . S
O106 Nd81 2.500 . S
O106 C91 1.258 . S
O107 Nd81 2.492 . S
O107 C91 1.239 . S
O108 Nd81 2.487 . S
O108 C98 1.241 . S
O109 Nd80 2.414 . S
O109 Nd81 2.682 . S
O109 C98 1.273 . S
O110 Nd81 2.410 . S
O110 C99 1.251 . S
O111 Nd80 2.424 . S
O111 C99 1.268 . S
H112 C84 0.930 . S
H113 C85 0.929 . S
H114 C87 0.930 . S
H115 C88 0.929 . S
H116 C93 0.930 . S
H117 C94 0.929 . S
H118 C96 0.930 . S
H119 C97 0.929 . S
P120 O131 1.490 . S
P120 C134 1.812 . S
P120 C140 1.803 1_565 S
P120 C146 1.819 1_565 S
H121 C135 0.941 . S
H122 C136 0.939 . S
H123 C138 0.940 . S
H124 C139 0.940 1_545 S
H125 C141 0.939 . S
H126 C142 0.942 . S
H127 C144 0.940 . S
H128 C145 0.939 . S
H129 C147 0.941 . S
H130 C151 0.939 . S
O131 P120 1.490 . S
H132 C148 0.939 . S
H133 C150 0.940 . S
C134 P120 1.812 . S
C134 C135 1.389 . S
C134 C139 1.391 . S
C135 H121 0.941 . S
C135 C134 1.389 . S
C135 C136 1.397 . S
C136 H122 0.939 . S
C136 C135 1.397 . S
C136 C137 1.378 . S
C137 C136 1.378 . S
C137 C138 1.378 . S
C138 H123 0.940 . S
C138 C137 1.378 . S
C138 C139 1.396 . S
C139 H124 0.940 1_565 S
C139 C134 1.391 . S
C139 C138 1.396 . S
C140 P120 1.803 1_545 S
C140 C141 1.378 . S
C140 C145 1.400 . S
C141 H125 0.939 . S
C141 C140 1.378 . S
C141 C142 1.361 . S
C142 H126 0.942 . S
C142 C141 1.361 . S
C142 C143 1.369 . S
C143 C142 1.369 . S
C143 C144 1.404 . S
C144 H127 0.940 . S
C144 C143 1.404 . S
C144 C145 1.389 . S
C145 H128 0.939 . S
C145 C140 1.400 . S
C145 C144 1.389 . S
C146 P120 1.819 1_545 S
C146 C147 1.391 1_545 S
C146 C151 1.391 . S
C147 H129 0.941 . S
C147 C146 1.391 1_565 S
C147 C148 1.396 . S
C148 H132 0.939 . S
C148 C147 1.396 . S
C148 C149 1.397 1_565 S
C149 C148 1.397 1_545 S
C149 C150 1.385 . S
C150 H133 0.940 . S
C150 C149 1.385 . S
C150 C151 1.388 . S
C151 H130 0.939 . S
C151 C146 1.391 . S
C151 C150 1.388 . S
P152 O163 1.490 . S
P152 C166 1.812 . S
P152 C172 1.803 . S
P152 C178 1.819 . S
H153 C167 0.941 . S
H154 C168 0.939 . S
H155 C170 0.940 . S
H156 C171 0.940 . S
H157 C173 0.939 . S
H158 C174 0.942 . S
H159 C176 0.940 . S
H160 C177 0.939 . S
H161 C179 0.941 . S
H162 C183 0.939 . S
O163 P152 1.490 . S
H164 C180 0.939 . S
H165 C182 0.940 . S
C166 P152 1.812 . S
C166 C167 1.389 . S
C166 C171 1.391 . S
C167 H153 0.941 . S
C167 C166 1.389 . S
C167 C168 1.397 . S
C168 H154 0.939 . S
C168 C167 1.397 . S
C168 C169 1.378 . S
C169 C168 1.378 . S
C169 C170 1.378 . S
C170 H155 0.940 . S
C170 C169 1.378 . S
C170 C171 1.396 . S
C171 H156 0.940 . S
C171 C166 1.391 . S
C171 C170 1.396 . S
C172 P152 1.803 . S
C172 C173 1.378 . S
C172 C177 1.400 . S
C173 H157 0.939 . S
C173 C172 1.378 . S
C173 C174 1.361 . S
C174 H158 0.942 . S
C174 C173 1.361 . S
C174 C175 1.369 . S
C175 C174 1.369 . S
C175 C176 1.404 . S
C176 H159 0.940 . S
C176 C175 1.404 . S
C176 C177 1.389 . S
C177 H160 0.939 . S
C177 C172 1.400 . S
C177 C176 1.389 . S
C178 P152 1.819 . S
C178 C179 1.391 . S
C178 C183 1.391 . S
C179 H161 0.941 . S
C179 C178 1.391 . S
C179 C180 1.396 . S
C180 H164 0.939 . S
C180 C179 1.396 . S
C180 C181 1.397 . S
C181 C180 1.397 . S
C181 C182 1.385 . S
C182 H165 0.940 . S
C182 C181 1.385 . S
C182 C183 1.388 . S
C183 H162 0.939 . S
C183 C178 1.391 . S
C183 C182 1.388 . S
P184 O195 1.490 . S
P184 C198 1.812 . S
P184 C204 1.803 . S
P184 C210 1.819 . S
H185 C199 0.941 . S
H186 C200 0.939 . S
H187 C202 0.940 . S
H188 C203 0.940 . S
H189 C205 0.939 1_455 S
H190 C206 0.942 . S
H191 C208 0.940 . S
H192 C209 0.939 . S
H193 C211 0.941 . S
H194 C215 0.944 . S
O195 P184 1.490 . S
H196 C212 0.939 . S
H197 C214 0.940 1_655 S
C198 P184 1.812 . S
C198 C199 1.389 . S
C198 C203 1.391 . S
C199 H185 0.941 . S
C199 C198 1.389 . S
C199 C200 1.397 . S
C200 H186 0.939 . S
C200 C199 1.397 . S
C200 C201 1.378 . S
C201 C200 1.378 . S
C201 C202 1.378 . S
C202 H187 0.940 . S
C202 C201 1.378 . S
C202 C203 1.396 . S
C203 H188 0.940 . S
C203 C198 1.391 . S
C203 C202 1.396 . S
C204 P184 1.803 . S
C204 C205 1.378 1_455 S
C204 C209 1.400 . S
C205 H189 0.939 1_655 S
C205 C204 1.378 1_655 S
C205 C206 1.361 . S
C206 H190 0.942 . S
C206 C205 1.361 . S
C206 C207 1.369 . S
C207 C206 1.369 . S
C207 C208 1.404 . S
C208 H191 0.940 . S
C208 C207 1.404 . S
C208 C209 1.389 1_655 S
C209 H192 0.939 . S
C209 C204 1.400 . S
C209 C208 1.389 1_455 S
C210 P184 1.819 . S
C210 C211 1.391 . S
C210 C215 1.391 . S
C211 H193 0.941 . S
C211 C210 1.391 . S
C211 C212 1.396 . S
C212 H196 0.939 . S
C212 C211 1.396 . S
C212 C213 1.397 . S
C213 C212 1.397 . S
C213 C214 1.385 . S
C214 H197 0.940 1_455 S
C214 C213 1.385 . S
C214 C215 1.388 . S
C215 H194 0.944 . S
C215 C210 1.391 . S
C215 C214 1.388 . S
P216 O227 1.490 . S
P216 C230 1.812 . S
P216 C236 1.803 1_455 S
P216 C242 1.819 . S
H217 C231 0.941 . S
H218 C232 0.939 . S
H219 C234 0.940 . S
H220 C235 0.940 . S
H221 C237 0.939 . S
H222 C238 0.942 . S
H223 C240 0.940 . S
H224 C241 0.939 . S
H225 C243 0.941 . S
H226 C247 0.939 . S
O227 P216 1.490 . S
H228 C244 0.939 . S
H229 C246 0.940 . S
C230 P216 1.812 . S
C230 C231 1.389 . S
C230 C235 1.391 . S
C231 H217 0.941 . S
C231 C230 1.389 . S
C231 C232 1.397 . S
C232 H218 0.939 . S
C232 C231 1.397 . S
C232 C233 1.378 . S
C233 C232 1.378 . S
C233 C234 1.378 . S
C234 H219 0.940 . S
C234 C233 1.378 . S
C234 C235 1.396 . S
C235 H220 0.940 . S
C235 C230 1.391 . S
C235 C234 1.396 . S
C236 P216 1.803 1_655 S
C236 C237 1.378 . S
C236 C241 1.400 . S
C237 H221 0.939 . S
C237 C236 1.378 . S
C237 C238 1.361 . S
C238 H222 0.942 . S
C238 C237 1.361 . S
C238 C239 1.369 . S
C239 C238 1.369 . S
C239 C240 1.404 . S
C240 H223 0.940 . S
C240 C239 1.404 . S
C240 C241 1.389 . S
C241 H224 0.939 . S
C241 C236 1.400 . S
C241 C240 1.389 . S
C242 P216 1.819 . S
C242 C243 1.391 . S
C242 C247 1.391 1_455 S
C243 H225 0.941 . S
C243 C242 1.391 . S
C243 C244 1.396 . S
C244 H228 0.939 . S
C244 C243 1.396 . S
C244 C245 1.397 . S
C245 C244 1.397 . S
C245 C246 1.385 1_455 S
C246 H229 0.940 . S
C246 C245 1.385 1_655 S
C246 C247 1.388 . S
C247 H226 0.939 . S
C247 C242 1.391 1_655 S
C247 C246 1.388 . S
P248 O259 1.490 . S
P248 C262 1.812 . S
P248 C268 1.803 1_545 S
P248 C274 1.819 . S
H249 C263 0.941 . S
H250 C264 0.939 . S
H251 C266 0.940 . S
H252 C267 0.940 . S
H253 C269 0.939 . S
H254 C270 0.942 . S
H255 C272 0.940 . S
H256 C273 0.939 . S
H257 C275 0.941 . S
H258 C279 0.939 . S
O259 P248 1.490 . S
H260 C276 0.939 . S
H261 C278 0.940 . S
C262 P248 1.812 . S
C262 C263 1.389 . S
C262 C267 1.391 . S
C263 H249 0.941 . S
C263 C262 1.389 . S
C263 C264 1.397 . S
C264 H250 0.939 . S
C264 C263 1.397 . S
C264 C265 1.378 . S
C265 C264 1.378 . S
C265 C266 1.378 . S
C266 H251 0.940 . S
C266 C265 1.378 . S
C266 C267 1.396 . S
C267 H252 0.940 . S
C267 C262 1.391 . S
C267 C266 1.396 . S
C268 P248 1.803 1_565 S
C268 C269 1.378 . S
C268 C273 1.400 . S
C269 H253 0.939 . S
C269 C268 1.378 . S
C269 C270 1.361 . S
C270 H254 0.942 . S
C270 C269 1.361 . S
C270 C271 1.369 . S
C271 C270 1.369 . S
C271 C272 1.404 . S
C272 H255 0.940 . S
C272 C271 1.404 . S
C272 C273 1.389 . S
C273 H256 0.939 . S
C273 C268 1.400 . S
C273 C272 1.389 . S
C274 P248 1.819 . S
C274 C275 1.391 . S
C274 C279 1.391 1_545 S
C275 H257 0.941 . S
C275 C274 1.391 . S
C275 C276 1.396 . S
C276 H260 0.939 . S
C276 C275 1.396 . S
C276 C277 1.397 . S
C277 C276 1.397 . S
C277 C278 1.385 1_545 S
C278 H261 0.940 . S
C278 C277 1.385 1_565 S
C278 C279 1.388 . S
C279 H258 0.939 . S
C279 C274 1.391 1_565 S
C279 C278 1.388 . S
P280 O291 1.490 . S
P280 C294 1.812 . S
P280 C300 1.803 . S
P280 C306 1.819 . S
H281 C295 0.941 . S
H282 C296 0.939 . S
H283 C298 0.940 . S
H284 C299 0.940 . S
H285 C301 0.939 . S
H286 C302 0.942 . S
H287 C304 0.940 . S
H288 C305 0.939 . S
H289 C307 0.941 . S
H290 C311 0.939 . S
O291 P280 1.490 . S
H292 C308 0.939 . S
H293 C310 0.940 . S
C294 P280 1.812 . S
C294 C295 1.389 . S
C294 C299 1.391 . S
C295 H281 0.941 . S
C295 C294 1.389 . S
C295 C296 1.397 . S
C296 H282 0.939 . S
C296 C295 1.397 . S
C296 C297 1.378 . S
C297 C296 1.378 . S
C297 C298 1.378 . S
C298 H283 0.940 . S
C298 C297 1.378 . S
C298 C299 1.396 . S
C299 H284 0.940 . S
C299 C294 1.391 . S
C299 C298 1.396 . S
C300 P280 1.803 . S
C300 C301 1.378 . S
C300 C305 1.400 . S
C301 H285 0.939 . S
C301 C300 1.378 . S
C301 C302 1.361 . S
C302 H286 0.942 . S
C302 C301 1.361 . S
C302 C303 1.369 . S
C303 C302 1.369 . S
C303 C304 1.404 . S
C304 H287 0.940 . S
C304 C303 1.404 . S
C304 C305 1.389 . S
C305 H288 0.939 . S
C305 C300 1.400 . S
C305 C304 1.389 . S
C306 P280 1.819 . S
C306 C307 1.391 . S
C306 C311 1.391 . S
C307 H289 0.941 . S
C307 C306 1.391 . S
C307 C308 1.396 . S
C308 H292 0.939 . S
C308 C307 1.396 . S
C308 C309 1.397 . S
C309 C308 1.397 . S
C309 C310 1.385 . S
C310 H293 0.940 . S
C310 C309 1.385 . S
C310 C311 1.388 . S
C311 H290 0.939 . S
C311 C306 1.391 . S
C311 C310 1.388 . S
H312 C320 0.929 . S
H313 C322 0.930 . S
H314 C324 0.930 . S
H315 C327 0.929 . S
H316 C330 0.930 . S
H317 C332 0.960 . S
H318 C332 0.960 . S
H319 C332 0.960 . S
C320 H312 0.929 . S
C320 C321 1.377 . S
C320 C322 1.384 . S
C321 C320 1.377 . S
C321 C327 1.390 . S
C322 H313 0.930 . S
C322 C320 1.384 . S
C322 C323 1.372 . S
C323 C322 1.372 . S
C323 C324 1.400 . S
C323 C328 1.490 . S
C324 H314 0.930 . S
C324 C323 1.400 . S
C324 C327 1.386 . S
H325 C341 0.930 . S
H326 C342 0.931 . S
C327 H315 0.929 . S
C327 C321 1.390 . S
C327 C324 1.386 . S
C328 C323 1.490 . S
C328 C330 1.395 . S
C328 C331 1.403 . S
H329 C335 0.930 . S
C330 H316 0.930 . S
C330 C328 1.395 . S
C330 C333 1.403 . S
C331 C328 1.403 . S
C331 C332 1.524 . S
C331 C335 1.400 . S
C332 H317 0.960 . S
C332 H318 0.960 . S
C332 H319 0.960 . S
C332 C331 1.524 . S
C333 C330 1.403 . S
C333 C334 1.392 . S
C333 C337 1.495 . S
C334 C333 1.392 . S
C334 C335 1.385 . S
C334 C336 1.478 . S
C335 H329 0.930 . S
C335 C331 1.400 . S
C335 C334 1.385 . S
C336 C334 1.478 . S
C336 C338 1.381 . S
C336 C342 1.383 . S
C337 C333 1.495 . S
C337 H343 0.959 . S
C337 H344 0.961 . S
C337 H345 0.960 . S
C338 C336 1.381 . S
C338 C339 1.394 . S
C338 H346 0.930 . S
C339 C338 1.394 . S
C339 C340 1.383 . S
C339 H347 0.929 . S
C340 C339 1.383 . S
C340 C341 1.377 . S
C341 H325 0.930 . S
C341 C340 1.377 . S
C341 C342 1.379 . S
C342 H326 0.931 . S
C342 C336 1.383 . S
C342 C341 1.379 . S
H343 C337 0.959 . S
H344 C337 0.961 . S
H345 C337 0.960 . S
H346 C338 0.930 . S
H347 C339 0.929 . S
H348 C356 0.929 . S
H349 C358 0.930 . S
H350 C360 0.930 . S
H351 C363 0.929 . S
H352 C366 0.930 . S
H353 C368 0.960 . S
H354 C368 0.960 . S
H355 C368 0.960 . S
C356 H348 0.929 . S
C356 C357 1.377 . S
C356 C358 1.384 . S
C357 C356 1.377 . S
C357 C363 1.390 . S
C358 H349 0.930 . S
C358 C356 1.384 . S
C358 C359 1.372 . S
C359 C358 1.372 . S
C359 C360 1.400 . S
C359 C364 1.490 . S
C360 H350 0.930 . S
C360 C359 1.400 . S
C360 C363 1.386 . S
H361 C377 0.930 . S
H362 C378 0.931 . S
C363 H351 0.929 . S
C363 C357 1.390 . S
C363 C360 1.386 . S
C364 C359 1.490 . S
C364 C366 1.395 . S
C364 C367 1.403 . S
H365 C371 0.930 . S
C366 H352 0.930 . S
C366 C364 1.395 . S
C366 C369 1.403 . S
C367 C364 1.403 . S
C367 C368 1.524 . S
C367 C371 1.400 . S
C368 H353 0.960 . S
C368 H354 0.960 . S
C368 H355 0.960 . S
C368 C367 1.524 . S
C369 C366 1.403 . S
C369 C370 1.392 . S
C369 C373 1.495 . S
C370 C369 1.392 . S
C370 C371 1.385 . S
C370 C372 1.478 . S
C371 H365 0.930 . S
C371 C367 1.400 . S
C371 C370 1.385 . S
C372 C370 1.478 . S
C372 C374 1.381 . S
C372 C378 1.383 . S
C373 C369 1.495 . S
C373 H379 0.959 . S
C373 H380 0.961 . S
C373 H381 0.960 . S
C374 C372 1.381 . S
C374 C375 1.394 . S
C374 H382 0.930 . S
C375 C374 1.394 . S
C375 C376 1.383 . S
C375 H383 0.929 . S
C376 C375 1.383 . S
C376 C377 1.377 . S
C377 H361 0.930 . S
C377 C376 1.377 . S
C377 C378 1.379 . S
C378 H362 0.931 . S
C378 C372 1.383 . S
C378 C377 1.379 . S
H379 C373 0.959 . S
H380 C373 0.961 . S
H381 C373 0.960 . S
H382 C374 0.930 . S
H383 C375 0.929 . S
H384 C392 0.929 . S
H385 C394 0.930 . S
H386 C396 0.930 . S
H387 C399 0.929 . S
H388 C402 0.930 . S
H389 C404 0.960 . S
H390 C404 0.960 . S
H391 C404 0.960 . S
C392 H384 0.929 . S
C392 C393 1.377 . S
C392 C394 1.384 . S
C393 C392 1.377 . S
C393 C399 1.390 . S
C394 H385 0.930 . S
C394 C392 1.384 . S
C394 C395 1.372 . S
C395 C394 1.372 . S
C395 C396 1.400 . S
C395 C400 1.490 . S
C396 H386 0.930 . S
C396 C395 1.400 . S
C396 C399 1.386 . S
H397 C413 0.930 . S
H398 C414 0.931 . S
C399 H387 0.929 . S
C399 C393 1.390 . S
C399 C396 1.386 . S
C400 C395 1.490 . S
C400 C402 1.395 . S
C400 C403 1.403 . S
H401 C407 0.930 . S
C402 H388 0.930 . S
C402 C400 1.395 . S
C402 C405 1.403 . S
C403 C400 1.403 . S
C403 C404 1.524 . S
C403 C407 1.400 . S
C404 H389 0.960 . S
C404 H390 0.960 . S
C404 H391 0.960 . S
C404 C403 1.524 . S
C405 C402 1.403 . S
C405 C406 1.392 . S
C405 C409 1.495 . S
C406 C405 1.392 . S
C406 C407 1.385 . S
C406 C408 1.478 . S
C407 H401 0.930 . S
C407 C403 1.400 . S
C407 C406 1.385 . S
C408 C406 1.478 . S
C408 C410 1.381 . S
C408 C414 1.383 . S
C409 C405 1.495 . S
C409 H415 0.959 . S
C409 H416 0.961 . S
C409 H417 0.960 . S
C410 C408 1.381 . S
C410 C411 1.394 . S
C410 H418 0.930 . S
C411 C410 1.394 . S
C411 C412 1.383 . S
C411 H419 0.929 . S
C412 C411 1.383 . S
C412 C413 1.377 . S
C413 H397 0.930 . S
C413 C412 1.377 . S
C413 C414 1.379 . S
C414 H398 0.931 . S
C414 C408 1.383 . S
C414 C413 1.379 . S
H415 C409 0.959 . S
H416 C409 0.961 . S
H417 C409 0.960 . S
H418 C410 0.930 . S
H419 C411 0.929 . S
H420 C428 0.929 . S
H421 C430 0.930 . S
H422 C432 0.930 . S
H423 C435 0.929 . S
H424 C438 0.930 . S
H425 C440 0.960 . S
H426 C440 0.960 . S
H427 C440 0.960 . S
C428 H420 0.929 . S
C428 C429 1.377 . S
C428 C430 1.384 . S
C429 C428 1.377 . S
C429 C435 1.390 . S
C430 H421 0.930 . S
C430 C428 1.384 . S
C430 C431 1.372 . S
C431 C430 1.372 . S
C431 C432 1.400 . S
C431 C436 1.490 . S
C432 H422 0.930 . S
C432 C431 1.400 . S
C432 C435 1.386 . S
H433 C449 0.930 . S
H434 C450 0.931 . S
C435 H423 0.929 . S
C435 C429 1.390 . S
C435 C432 1.386 . S
C436 C431 1.490 . S
C436 C438 1.395 . S
C436 C439 1.403 . S
H437 C443 0.930 . S
C438 H424 0.930 . S
C438 C436 1.395 . S
C438 C441 1.403 . S
C439 C436 1.403 . S
C439 C440 1.524 . S
C439 C443 1.400 . S
C440 H425 0.960 . S
C440 H426 0.960 . S
C440 H427 0.960 . S
C440 C439 1.524 . S
C441 C438 1.403 . S
C441 C442 1.392 . S
C441 C445 1.495 . S
C442 C441 1.392 . S
C442 C443 1.385 . S
C442 C444 1.478 . S
C443 H437 0.930 . S
C443 C439 1.400 . S
C443 C442 1.385 . S
C444 C442 1.478 . S
C444 C446 1.381 . S
C444 C450 1.383 . S
C445 C441 1.495 . S
C445 H451 0.959 . S
C445 H452 0.961 . S
C445 H453 0.960 . S
C446 C444 1.381 . S
C446 C447 1.394 . S
C446 H454 0.930 . S
C447 C446 1.394 . S
C447 C448 1.383 . S
C447 H455 0.929 . S
C448 C447 1.383 . S
C448 C449 1.377 . S
C449 H433 0.930 . S
C449 C448 1.377 . S
C449 C450 1.379 . S
C450 H434 0.931 . S
C450 C444 1.383 . S
C450 C449 1.379 . S
H451 C445 0.959 . S
H452 C445 0.961 . S
H453 C445 0.960 . S
H454 C446 0.930 . S
H455 C447 0.929 . S
H456 C464 0.929 . S
H457 C466 0.930 . S
H458 C468 0.930 . S
H459 C471 0.929 . S
H460 C474 0.930 . S
H461 C476 0.960 . S
H462 C476 0.960 . S
H463 C476 0.960 . S
C464 H456 0.929 . S
C464 C465 1.377 . S
C464 C466 1.384 . S
C465 C464 1.377 . S
C465 C471 1.390 . S
C466 H457 0.930 . S
C466 C464 1.384 . S
C466 C467 1.372 . S
C467 C466 1.372 . S
C467 C468 1.400 . S
C467 C472 1.490 . S
C468 H458 0.930 . S
C468 C467 1.400 . S
C468 C471 1.386 . S
H469 C485 0.930 . S
H470 C486 0.931 . S
C471 H459 0.929 . S
C471 C465 1.390 . S
C471 C468 1.386 . S
C472 C467 1.490 . S
C472 C474 1.395 . S
C472 C475 1.403 . S
H473 C479 0.930 . S
C474 H460 0.930 . S
C474 C472 1.395 . S
C474 C477 1.403 . S
C475 C472 1.403 . S
C475 C476 1.524 . S
C475 C479 1.400 . S
C476 H461 0.960 . S
C476 H462 0.960 . S
C476 H463 0.960 . S
C476 C475 1.524 . S
C477 C474 1.403 . S
C477 C478 1.392 . S
C477 C481 1.495 . S
C478 C477 1.392 . S
C478 C479 1.385 . S
C478 C480 1.478 . S
C479 H473 0.930 . S
C479 C475 1.400 . S
C479 C478 1.385 . S
C480 C478 1.478 . S
C480 C482 1.381 . S
C480 C486 1.383 . S
C481 C477 1.495 . S
C481 H487 0.959 . S
C481 H488 0.961 . S
C481 H489 0.960 . S
C482 C480 1.381 . S
C482 C483 1.394 . S
C482 H490 0.930 . S
C483 C482 1.394 . S
C483 C484 1.383 . S
C483 H491 0.929 . S
C484 C483 1.383 . S
C484 C485 1.377 . S
C485 H469 0.930 . S
C485 C484 1.377 . S
C485 C486 1.379 . S
C486 H470 0.931 . S
C486 C480 1.383 . S
C486 C485 1.379 . S
H487 C481 0.959 . S
H488 C481 0.961 . S
H489 C481 0.960 . S
H490 C482 0.930 . S
H491 C483 0.929 . S
H492 C500 0.929 . S
H493 C502 0.930 . S
H494 C504 0.930 . S
H495 C507 0.929 . S
H496 C510 0.930 . S
H497 C512 0.960 . S
H498 C512 0.960 . S
H499 C512 0.960 . S
C500 H492 0.929 . S
C500 C501 1.377 . S
C500 C502 1.384 . S
C501 C500 1.377 . S
C501 C507 1.390 . S
C502 H493 0.930 . S
C502 C500 1.384 . S
C502 C503 1.372 . S
C503 C502 1.372 . S
C503 C504 1.400 . S
C503 C508 1.490 . S
C504 H494 0.930 . S
C504 C503 1.400 . S
C504 C507 1.386 . S
H505 C521 0.930 . S
H506 C522 0.931 . S
C507 H495 0.929 . S
C507 C501 1.390 . S
C507 C504 1.386 . S
C508 C503 1.490 . S
C508 C510 1.395 . S
C508 C511 1.403 . S
H509 C515 0.930 . S
C510 H496 0.930 . S
C510 C508 1.395 . S
C510 C513 1.403 . S
C511 C508 1.403 . S
C511 C512 1.524 . S
C511 C515 1.400 . S
C512 H497 0.960 . S
C512 H498 0.960 . S
C512 H499 0.960 . S
C512 C511 1.524 . S
C513 C510 1.403 . S
C513 C514 1.392 . S
C513 C517 1.495 . S
C514 C513 1.392 . S
C514 C515 1.385 . S
C514 C516 1.478 . S
C515 H509 0.930 . S
C515 C511 1.400 . S
C515 C514 1.385 . S
C516 C514 1.478 . S
C516 C518 1.381 . S
C516 C522 1.383 . S
C517 C513 1.495 . S
C517 H523 0.959 . S
C517 H524 0.961 . S
C517 H525 0.960 . S
C518 C516 1.381 . S
C518 C519 1.394 . S
C518 H526 0.930 . S
C519 C518 1.394 . S
C519 C520 1.383 . S
C519 H527 0.929 . S
C520 C519 1.383 . S
C520 C521 1.377 . S
C521 H505 0.930 . S
C521 C520 1.377 . S
C521 C522 1.379 . S
C522 H506 0.931 . S
C522 C516 1.383 . S
C522 C521 1.379 . S
H523 C517 0.959 . S
H524 C517 0.961 . S
H525 C517 0.960 . S
H526 C518 0.930 . S
H527 C519 0.929 . S
H528 C536 0.929 . S
H529 C538 0.930 . S
H530 C540 0.930 . S
H531 C543 0.929 . S
H532 C546 0.930 . S
H533 C548 0.960 . S
H534 C548 0.960 . S
H535 C548 0.960 . S
C536 H528 0.929 . S
C536 C537 1.377 . S
C536 C538 1.384 . S
C537 C536 1.377 . S
C537 C543 1.390 . S
C538 H529 0.930 . S
C538 C536 1.384 . S
C538 C539 1.372 . S
C539 C538 1.372 . S
C539 C540 1.400 . S
C539 C544 1.490 . S
C540 H530 0.930 . S
C540 C539 1.400 . S
C540 C543 1.386 . S
H541 C557 0.930 . S
H542 C558 0.931 . S
C543 H531 0.929 . S
C543 C537 1.390 . S
C543 C540 1.386 . S
C544 C539 1.490 . S
C544 C546 1.395 . S
C544 C547 1.403 . S
H545 C551 0.930 . S
C546 H532 0.930 . S
C546 C544 1.395 . S
C546 C549 1.403 . S
C547 C544 1.403 . S
C547 C548 1.524 . S
C547 C551 1.400 . S
C548 H533 0.960 . S
C548 H534 0.960 . S
C548 H535 0.960 . S
C548 C547 1.524 . S
C549 C546 1.403 . S
C549 C550 1.392 . S
C549 C553 1.495 . S
C550 C549 1.392 . S
C550 C551 1.385 . S
C550 C552 1.478 . S
C551 H545 0.930 . S
C551 C547 1.400 . S
C551 C550 1.385 . S
C552 C550 1.478 . S
C552 C554 1.381 . S
C552 C558 1.383 . S
C553 C549 1.495 . S
C553 H559 0.959 . S
C553 H560 0.961 . S
C553 H561 0.960 . S
C554 C552 1.381 . S
C554 C555 1.394 . S
C554 H562 0.930 . S
C555 C554 1.394 . S
C555 C556 1.383 . S
C555 H563 0.929 . S
C556 C555 1.383 . S
C556 C557 1.377 . S
C557 H541 0.930 . S
C557 C556 1.377 . S
C557 C558 1.379 . S
C558 H542 0.931 . S
C558 C552 1.383 . S
C558 C557 1.379 . S
H559 C553 0.959 . S
H560 C553 0.961 . S
H561 C553 0.960 . S
H562 C554 0.930 . S
H563 C555 0.929 . S
H564 C572 0.929 . S
H565 C574 0.930 . S
H566 C576 0.930 . S
H567 C579 0.929 . S
H568 C582 0.930 . S
H569 C584 0.960 . S
H570 C584 0.960 . S
H571 C584 0.960 . S
C572 H564 0.929 . S
C572 C573 1.377 . S
C572 C574 1.384 . S
C573 C572 1.377 . S
C573 C579 1.390 . S
C574 H565 0.930 . S
C574 C572 1.384 . S
C574 C575 1.372 . S
C575 C574 1.372 . S
C575 C576 1.400 . S
C575 C580 1.490 . S
C576 H566 0.930 . S
C576 C575 1.400 . S
C576 C579 1.386 . S
H577 C593 0.930 . S
H578 C594 0.931 . S
C579 H567 0.929 . S
C579 C573 1.390 . S
C579 C576 1.386 . S
C580 C575 1.490 . S
C580 C582 1.395 . S
C580 C583 1.403 . S
H581 C587 0.930 . S
C582 H568 0.930 . S
C582 C580 1.395 . S
C582 C585 1.403 . S
C583 C580 1.403 . S
C583 C584 1.524 . S
C583 C587 1.400 . S
C584 H569 0.960 . S
C584 H570 0.960 . S
C584 H571 0.960 . S
C584 C583 1.524 . S
C585 C582 1.403 . S
C585 C586 1.392 . S
C585 C589 1.495 . S
C586 C585 1.392 . S
C586 C587 1.385 . S
C586 C588 1.478 . S
C587 H581 0.930 . S
C587 C583 1.400 . S
C587 C586 1.385 . S
C588 C586 1.478 . S
C588 C590 1.381 . S
C588 C594 1.383 . S
C589 C585 1.495 . S
C589 H595 0.959 . S
C589 H596 0.961 . S
C589 H597 0.960 . S
C590 C588 1.381 . S
C590 C591 1.394 . S
C590 H598 0.930 . S
C591 C590 1.394 . S
C591 C592 1.383 . S
C591 H599 0.929 . S
C592 C591 1.383 . S
C592 C593 1.377 . S
C593 H577 0.930 . S
C593 C592 1.377 . S
C593 C594 1.379 . S
C594 H578 0.931 . S
C594 C588 1.383 . S
C594 C593 1.379 . S
H595 C589 0.959 . S
H596 C589 0.961 . S
H597 C589 0.960 . S
H598 C590 0.930 . S
H599 C591 0.929 . S
H600 C608 0.929 . S
H601 C610 0.930 . S
H602 C612 0.930 . S
H603 C615 0.929 . S
H604 C618 0.930 . S
H605 C620 0.960 . S
H606 C620 0.960 . S
H607 C620 0.960 . S
C608 H600 0.929 . S
C608 C609 1.377 . S
C608 C610 1.384 . S
C609 C608 1.377 . S
C609 C615 1.390 . S
C610 H601 0.930 . S
C610 C608 1.384 . S
C610 C611 1.372 . S
C611 C610 1.372 . S
C611 C612 1.400 . S
C611 C616 1.490 . S
C612 H602 0.930 . S
C612 C611 1.400 . S
C612 C615 1.386 . S
H613 C629 0.930 . S
H614 C630 0.931 . S
C615 H603 0.929 . S
C615 C609 1.390 . S
C615 C612 1.386 . S
C616 C611 1.490 . S
C616 C618 1.395 . S
C616 C619 1.403 . S
H617 C623 0.930 . S
C618 H604 0.930 . S
C618 C616 1.395 . S
C618 C621 1.403 . S
C619 C616 1.403 . S
C619 C620 1.524 . S
C619 C623 1.400 . S
C620 H605 0.960 . S
C620 H606 0.960 . S
C620 H607 0.960 . S
C620 C619 1.524 . S
C621 C618 1.403 . S
C621 C622 1.392 . S
C621 C625 1.495 . S
C622 C621 1.392 . S
C622 C623 1.385 . S
C622 C624 1.478 . S
C623 H617 0.930 . S
C623 C619 1.400 . S
C623 C622 1.385 . S
C624 C622 1.478 . S
C624 C626 1.381 . S
C624 C630 1.383 . S
C625 C621 1.495 . S
C625 H631 0.959 . S
C625 H632 0.961 . S
C625 H633 0.960 . S
C626 C624 1.381 . S
C626 C627 1.394 . S
C626 H634 0.930 . S
C627 C626 1.394 . S
C627 C628 1.383 . S
C627 H635 0.929 . S
C628 C627 1.383 . S
C628 C629 1.377 . S
C629 H613 0.930 . S
C629 C628 1.377 . S
C629 C630 1.379 . S
C630 H614 0.931 . S
C630 C624 1.383 . S
C630 C629 1.379 . S
H631 C625 0.959 . S
H632 C625 0.961 . S
H633 C625 0.960 . S
H634 C626 0.930 . S
H635 C627 0.929 . S
H636 C644 0.929 . S
H637 C646 0.930 . S
H638 C648 0.930 . S
H639 C651 0.929 . S
H640 C654 0.930 . S
H641 C656 0.960 . S
H642 C656 0.960 . S
H643 C656 0.960 . S
C644 H636 0.929 . S
C644 C645 1.377 . S
C644 C646 1.384 . S
C645 C644 1.377 . S
C645 C651 1.390 . S
C646 H637 0.930 . S
C646 C644 1.384 . S
C646 C647 1.372 . S
C647 C646 1.372 . S
C647 C648 1.400 . S
C647 C652 1.490 . S
C648 H638 0.930 . S
C648 C647 1.400 . S
C648 C651 1.386 . S
H649 C665 0.930 . S
H650 C666 0.931 . S
C651 H639 0.929 . S
C651 C645 1.390 . S
C651 C648 1.386 . S
C652 C647 1.490 . S
C652 C654 1.395 . S
C652 C655 1.403 . S
H653 C659 0.930 . S
C654 H640 0.930 . S
C654 C652 1.395 . S
C654 C657 1.403 . S
C655 C652 1.403 . S
C655 C656 1.524 . S
C655 C659 1.400 . S
C656 H641 0.960 . S
C656 H642 0.960 . S
C656 H643 0.960 . S
C656 C655 1.524 . S
C657 C654 1.403 . S
C657 C658 1.392 . S
C657 C661 1.495 . S
C658 C657 1.392 . S
C658 C659 1.385 . S
C658 C660 1.478 . S
C659 H653 0.930 . S
C659 C655 1.400 . S
C659 C658 1.385 . S
C660 C658 1.478 . S
C660 C662 1.381 . S
C660 C666 1.383 . S
C661 C657 1.495 . S
C661 H667 0.959 . S
C661 H668 0.961 . S
C661 H669 0.960 . S
C662 C660 1.381 . S
C662 C663 1.394 . S
C662 H670 0.930 . S
C663 C662 1.394 . S
C663 C664 1.383 . S
C663 H671 0.929 . S
C664 C663 1.383 . S
C664 C665 1.377 . S
C665 H649 0.930 . S
C665 C664 1.377 . S
C665 C666 1.379 . S
C666 H650 0.931 . S
C666 C660 1.383 . S
C666 C665 1.379 . S
H667 C661 0.959 . S
H668 C661 0.961 . S
H669 C661 0.960 . S
H670 C662 0.930 . S
H671 C663 0.929 . S
H672 C680 0.929 . S
H673 C682 0.930 . S
H674 C684 0.930 . S
H675 C687 0.929 . S
H676 C690 0.930 . S
H677 C692 0.960 . S
H678 C692 0.960 . S
H679 C692 0.960 . S
C680 H672 0.929 . S
C680 C681 1.377 . S
C680 C682 1.384 . S
C681 C680 1.377 . S
C681 C687 1.390 . S
C682 H673 0.930 . S
C682 C680 1.384 . S
C682 C683 1.372 . S
C683 C682 1.372 . S
C683 C684 1.400 . S
C683 C688 1.490 . S
C684 H674 0.930 . S
C684 C683 1.400 . S
C684 C687 1.386 . S
H685 C701 0.930 . S
H686 C702 0.931 . S
C687 H675 0.929 . S
C687 C681 1.390 . S
C687 C684 1.386 . S
C688 C683 1.490 . S
C688 C690 1.395 . S
C688 C691 1.403 . S
H689 C695 0.930 . S
C690 H676 0.930 . S
C690 C688 1.395 . S
C690 C693 1.403 . S
C691 C688 1.403 . S
C691 C692 1.524 . S
C691 C695 1.400 . S
C692 H677 0.960 . S
C692 H678 0.960 . S
C692 H679 0.960 . S
C692 C691 1.524 . S
C693 C690 1.403 . S
C693 C694 1.392 . S
C693 C697 1.495 . S
C694 C693 1.392 . S
C694 C695 1.385 . S
C694 C696 1.478 . S
C695 H689 0.930 . S
C695 C691 1.400 . S
C695 C694 1.385 . S
C696 C694 1.478 . S
C696 C698 1.381 . S
C696 C702 1.383 . S
C697 C693 1.495 . S
C697 H703 0.959 . S
C697 H704 0.961 . S
C697 H705 0.960 . S
C698 C696 1.381 . S
C698 C699 1.394 . S
C698 H706 0.930 . S
C699 C698 1.394 . S
C699 C700 1.383 . S
C699 H707 0.929 . S
C700 C699 1.383 . S
C700 C701 1.377 . S
C701 H685 0.930 . S
C701 C700 1.377 . S
C701 C702 1.379 . S
C702 H686 0.931 . S
C702 C696 1.383 . S
C702 C701 1.379 . S
H703 C697 0.959 . S
H704 C697 0.961 . S
H705 C697 0.960 . S
H706 C698 0.930 . S
H707 C699 0.929 . S
H708 C716 0.929 . S
H709 C718 0.930 . S
H710 C720 0.930 . S
H711 C723 0.929 . S
H712 C726 0.930 . S
H713 C728 0.960 . S
H714 C728 0.960 . S
H715 C728 0.960 . S
C716 H708 0.929 . S
C716 C717 1.377 . S
C716 C718 1.384 . S
C717 C716 1.377 . S
C717 C723 1.390 . S
C718 H709 0.930 . S
C718 C716 1.384 . S
C718 C719 1.372 . S
C719 C718 1.372 . S
C719 C720 1.400 . S
C719 C724 1.490 . S
C720 H710 0.930 . S
C720 C719 1.400 . S
C720 C723 1.386 . S
H721 C737 0.930 . S
H722 C738 0.931 . S
C723 H711 0.929 . S
C723 C717 1.390 . S
C723 C720 1.386 . S
C724 C719 1.490 . S
C724 C726 1.395 . S
C724 C727 1.403 . S
H725 C731 0.930 . S
C726 H712 0.930 . S
C726 C724 1.395 . S
C726 C729 1.403 . S
C727 C724 1.403 . S
C727 C728 1.524 . S
C727 C731 1.400 . S
C728 H713 0.960 . S
C728 H714 0.960 . S
C728 H715 0.960 . S
C728 C727 1.524 . S
C729 C726 1.403 . S
C729 C730 1.392 . S
C729 C733 1.495 . S
C730 C729 1.392 . S
C730 C731 1.385 . S
C730 C732 1.478 . S
C731 H725 0.930 . S
C731 C727 1.400 . S
C731 C730 1.385 . S
C732 C730 1.478 . S
C732 C734 1.381 . S
C732 C738 1.383 . S
C733 C729 1.495 . S
C733 H739 0.959 . S
C733 H740 0.961 . S
C733 H741 0.960 . S
C734 C732 1.381 . S
C734 C735 1.394 . S
C734 H742 0.930 . S
C735 C734 1.394 . S
C735 C736 1.383 . S
C735 H743 0.929 . S
C736 C735 1.383 . S
C736 C737 1.377 . S
C737 H721 0.930 . S
C737 C736 1.377 . S
C737 C738 1.379 . S
C738 H722 0.931 . S
C738 C732 1.383 . S
C738 C737 1.379 . S
H739 C733 0.959 . S
H740 C733 0.961 . S
H741 C733 0.960 . S
H742 C734 0.930 . S
H743 C735 0.929 . S
H744 C752 0.929 . S
H745 C754 0.930 . S
H746 C756 0.930 . S
H747 C759 0.929 . S
H748 C762 0.930 1_655 S
H749 C764 0.960 . S
H750 C764 0.960 . S
H751 C764 0.960 . S
C752 H744 0.929 . S
C752 C753 1.377 . S
C752 C754 1.384 . S
C753 C752 1.377 . S
C753 C759 1.390 . S
C754 H745 0.930 . S
C754 C752 1.384 . S
C754 C755 1.372 . S
C755 C754 1.372 . S
C755 C756 1.400 . S
C755 C760 1.490 . S
C756 H746 0.930 . S
C756 C755 1.400 . S
C756 C759 1.386 . S
H757 C773 0.930 . S
H758 C774 0.931 1_554 S
C759 H747 0.929 . S
C759 C753 1.390 . S
C759 C756 1.386 . S
C760 C755 1.490 . S
C760 C762 1.395 . S
C760 C763 1.403 . S
H761 C767 0.930 . S
C762 H748 0.930 1_455 S
C762 C760 1.395 . S
C762 C765 1.403 . S
C763 C760 1.403 . S
C763 C764 1.524 . S
C763 C767 1.400 . S
C764 H749 0.960 . S
C764 H750 0.960 . S
C764 H751 0.960 . S
C764 C763 1.524 . S
C765 C762 1.403 . S
C765 C766 1.392 . S
C765 C769 1.495 1_455 S
C766 C765 1.392 . S
C766 C767 1.385 . S
C766 C768 1.478 . S
C767 H761 0.930 . S
C767 C763 1.400 . S
C767 C766 1.385 . S
C768 C766 1.478 . S
C768 C770 1.381 1_554 S
C768 C774 1.383 1_554 S
C769 C765 1.495 1_655 S
C769 H775 0.959 . S
C769 H776 0.961 . S
C769 H777 0.960 . S
C770 C768 1.381 1_556 S
C770 C771 1.394 . S
C770 H778 0.930 . S
C771 C770 1.394 . S
C771 C772 1.383 . S
C771 H779 0.929 . S
C772 C771 1.383 . S
C772 C773 1.377 . S
C773 H757 0.930 . S
C773 C772 1.377 . S
C773 C774 1.379 . S
C774 H758 0.931 1_556 S
C774 C768 1.383 1_556 S
C774 C773 1.379 . S
H775 C769 0.959 . S
H776 C769 0.961 . S
H777 C769 0.960 . S
H778 C770 0.930 . S
H779 C771 0.929 . S
H780 C788 0.929 . S
H781 C790 0.930 . S
H782 C792 0.930 . S
H783 C795 0.929 . S
H784 C798 0.930 1_565 S
H785 C800 0.960 . S
H786 C800 0.960 . S
H787 C800 0.960 . S
C788 H780 0.929 . S
C788 C789 1.377 1_565 S
C788 C790 1.384 . S
C789 C788 1.377 1_545 S
C789 C795 1.390 . S
C790 H781 0.930 . S
C790 C788 1.384 . S
C790 C791 1.372 1_565 S
C791 C790 1.372 1_545 S
C791 C792 1.400 . S
C791 C796 1.490 . S
C792 H782 0.930 . S
C792 C791 1.400 . S
C792 C795 1.386 . S
H793 C809 0.930 . S
H794 C810 0.931 . S
C795 H783 0.929 . S
C795 C789 1.390 . S
C795 C792 1.386 . S
C796 C791 1.490 . S
C796 C798 1.395 . S
C796 C799 1.403 . S
H797 C803 0.930 . S
C798 H784 0.930 1_545 S
C798 C796 1.395 . S
C798 C801 1.406 1_545 S
C799 C796 1.403 . S
C799 C800 1.524 . S
C799 C803 1.400 . S
C800 H785 0.960 . S
C800 H786 0.960 . S
C800 H787 0.960 . S
C800 C799 1.524 . S
C801 C798 1.406 1_565 S
C801 C802 1.375 1_565 S
C801 C805 1.510 . S
C802 C801 1.375 1_545 S
C802 C803 1.385 . S
C802 C804 1.478 . S
C803 H797 0.930 . S
C803 C799 1.400 . S
C803 C802 1.385 . S
C804 C802 1.478 . S
C804 C806 1.381 1_545 S
C804 C810 1.383 . S
C805 C801 1.510 . S
C805 H811 0.959 . S
C805 H812 0.961 . S
C805 H813 0.960 . S
C806 C804 1.381 1_565 S
C806 C807 1.391 1_565 S
C806 H814 0.930 . S
C807 C806 1.391 1_545 S
C807 C808 1.413 . S
C807 H815 0.903 1_545 S
C808 C807 1.413 . S
C808 C809 1.377 . S
C809 H793 0.930 . S
C809 C808 1.377 . S
C809 C810 1.379 . S
C810 H794 0.931 . S
C810 C804 1.383 . S
C810 C809 1.379 . S
H811 C805 0.959 . S
H812 C805 0.961 . S
H813 C805 0.960 . S
H814 C806 0.930 . S
H815 C807 0.903 1_565 S
H816 C824 0.929 . S
H817 C826 0.930 . S
H818 C828 0.930 . S
H819 C831 0.929 . S
H820 C834 0.930 . S
H821 C836 0.960 . S
H822 C836 0.960 . S
H823 C836 0.960 . S
C824 H816 0.929 . S
C824 C825 1.377 . S
C824 C826 1.384 . S
C825 C824 1.377 . S
C825 C831 1.390 . S
C826 H817 0.930 . S
C826 C824 1.384 . S
C826 C827 1.372 . S
C827 C826 1.372 . S
C827 C828 1.400 . S
C827 C832 1.490 . S
C828 H818 0.930 . S
C828 C827 1.400 . S
C828 C831 1.386 . S
H829 C845 0.930 . S
H830 C846 0.931 . S
C831 H819 0.929 . S
C831 C825 1.390 . S
C831 C828 1.386 . S
C832 C827 1.490 . S
C832 C834 1.395 . S
C832 C835 1.403 . S
H833 C839 0.930 . S
C834 H820 0.930 . S
C834 C832 1.395 . S
C834 C837 1.403 . S
C835 C832 1.403 . S
C835 C836 1.524 . S
C835 C839 1.400 . S
C836 H821 0.960 . S
C836 H822 0.960 . S
C836 H823 0.960 . S
C836 C835 1.524 . S
C837 C834 1.403 . S
C837 C838 1.392 . S
C837 C841 1.495 . S
C838 C837 1.392 . S
C838 C839 1.385 . S
C838 C840 1.478 . S
C839 H833 0.930 . S
C839 C835 1.400 . S
C839 C838 1.385 . S
C840 C838 1.478 . S
C840 C842 1.381 . S
C840 C846 1.383 . S
C841 C837 1.495 . S
C841 H847 0.959 . S
C841 H848 0.961 . S
C841 H849 0.960 . S
C842 C840 1.381 . S
C842 C843 1.394 . S
C842 H850 0.930 . S
C843 C842 1.394 . S
C843 C844 1.383 . S
C843 H851 0.929 . S
C844 C843 1.383 . S
C844 C845 1.377 . S
C845 H829 0.930 . S
C845 C844 1.377 . S
C845 C846 1.379 . S
C846 H830 0.931 . S
C846 C840 1.383 . S
C846 C845 1.379 . S
H847 C841 0.959 . S
H848 C841 0.961 . S
H849 C841 0.960 . S
H850 C842 0.930 . S
H851 C843 0.929 . S
H852 C860 0.929 . S
H853 C862 0.930 . S
H854 C864 0.930 . S
H855 C867 0.929 . S
H856 C870 0.930 . S
H857 C872 0.960 . S
H858 C872 0.960 . S
H859 C872 0.960 . S
C860 H852 0.929 . S
C860 C861 1.377 . S
C860 C862 1.384 . S
C861 C860 1.377 . S
C861 C867 1.390 1_545 S
C862 H853 0.930 . S
C862 C860 1.384 . S
C862 C863 1.372 . S
C863 C862 1.372 . S
C863 C864 1.400 1_545 S
C863 C868 1.490 . S
C864 H854 0.930 . S
C864 C863 1.400 1_565 S
C864 C867 1.386 . S
H865 C881 0.930 . S
H866 C882 0.931 . S
C867 H855 0.929 . S
C867 C861 1.390 1_565 S
C867 C864 1.386 . S
C868 C863 1.490 . S
C868 C870 1.395 . S
C868 C871 1.403 . S
H869 C875 0.930 . S
C870 H856 0.930 . S
C870 C868 1.395 . S
C870 C873 1.403 . S
C871 C868 1.403 . S
C871 C872 1.524 . S
C871 C875 1.400 . S
C872 H857 0.960 . S
C872 H858 0.960 . S
C872 H859 0.960 . S
C872 C871 1.524 . S
C873 C870 1.403 . S
C873 C874 1.392 . S
C873 C877 1.495 . S
C874 C873 1.392 . S
C874 C875 1.385 . S
C874 C876 1.478 . S
C875 H869 0.930 . S
C875 C871 1.400 . S
C875 C874 1.385 . S
C876 C874 1.478 . S
C876 C878 1.381 . S
C876 C882 1.383 1_545 S
C877 C873 1.495 . S
C877 H883 0.959 . S
C877 H884 0.961 1_545 S
C877 H885 0.960 . S
C878 C876 1.381 . S
C878 C879 1.394 . S
C878 H886 0.930 . S
C879 C878 1.394 . S
C879 C880 1.383 . S
C879 H887 0.929 . S
C880 C879 1.383 . S
C880 C881 1.377 1_545 S
C881 H865 0.930 . S
C881 C880 1.377 1_565 S
C881 C882 1.379 . S
C882 H866 0.931 . S
C882 C876 1.383 1_565 S
C882 C881 1.379 . S
H883 C877 0.959 . S
H884 C877 0.961 1_565 S
H885 C877 0.960 . S
H886 C878 0.930 . S
H887 C879 0.929 . S
H888 C896 0.929 . S
H889 C898 0.930 . S
H890 C900 0.930 . S
H891 C903 0.929 . S
H892 C906 0.930 . S
H893 C908 0.960 . S
H894 C908 0.960 . S
H895 C908 0.960 . S
C896 H888 0.929 . S
C896 C897 1.377 . S
C896 C898 1.384 . S
C897 C896 1.377 . S
C897 C903 1.390 . S
C898 H889 0.930 . S
C898 C896 1.384 . S
C898 C899 1.372 . S
C899 C898 1.372 . S
C899 C900 1.400 . S
C899 C904 1.490 . S
C900 H890 0.930 . S
C900 C899 1.400 . S
C900 C903 1.386 . S
H901 C917 0.930 . S
H902 C918 0.929 . S
C903 H891 0.929 . S
C903 C897 1.390 . S
C903 C900 1.386 . S
C904 C899 1.490 . S
C904 C906 1.395 . S
C904 C907 1.403 . S
H905 C911 0.930 . S
C906 H892 0.930 . S
C906 C904 1.395 . S
C906 C909 1.403 . S
C907 C904 1.403 . S
C907 C908 1.524 . S
C907 C911 1.400 . S
C908 H893 0.960 . S
C908 H894 0.960 . S
C908 H895 0.960 . S
C908 C907 1.524 . S
C909 C906 1.403 . S
C909 C910 1.392 . S
C909 C913 1.495 . S
C910 C909 1.392 . S
C910 C911 1.385 . S
C910 C912 1.478 . S
C911 H905 0.930 . S
C911 C907 1.400 . S
C911 C910 1.385 . S
C912 C910 1.478 . S
C912 C914 1.381 1_556 S
C912 C918 1.383 1_556 S
C913 C909 1.495 . S
C913 H919 0.959 . S
C913 H920 0.961 . S
C913 H921 0.960 . S
C914 C912 1.381 1_554 S
C914 C915 1.394 . S
C914 H922 0.930 1_554 S
C915 C914 1.394 . S
C915 C916 1.383 . S
C915 H923 0.929 . S
C916 C915 1.383 . S
C916 C917 1.377 . S
C917 H901 0.930 . S
C917 C916 1.377 . S
C917 C918 1.379 . S
C918 H902 0.929 . S
C918 C912 1.383 1_554 S
C918 C917 1.379 . S
H919 C913 0.959 . S
H920 C913 0.961 . S
H921 C913 0.960 . S
H922 C914 0.930 1_556 S
H923 C915 0.929 . S
H924 C932 0.929 . S
H925 C934 0.930 . S
H926 C936 0.930 . S
H927 C939 0.929 . S
H928 C942 0.930 . S
H929 C944 0.960 . S
H930 C944 0.960 . S
H931 C944 0.960 . S
C932 H924 0.929 . S
C932 C933 1.377 . S
C932 C934 1.384 . S
C933 C932 1.377 . S
C933 C939 1.390 1_455 S
C934 H925 0.930 . S
C934 C932 1.384 . S
C934 C935 1.372 . S
C935 C934 1.372 . S
C935 C936 1.400 1_455 S
C935 C940 1.490 . S
C936 H926 0.930 . S
C936 C935 1.400 1_655 S
C936 C939 1.386 . S
H937 C953 0.930 . S
H938 C954 0.931 . S
C939 H927 0.929 . S
C939 C933 1.390 1_655 S
C939 C936 1.386 . S
C940 C935 1.490 . S
C940 C942 1.395 . S
C940 C943 1.403 1_455 S
H941 C947 0.930 . S
C942 H928 0.930 . S
C942 C940 1.395 . S
C942 C945 1.403 . S
C943 C940 1.403 1_655 S
C943 C944 1.524 . S
C943 C947 1.400 . S
C944 H929 0.960 . S
C944 H930 0.960 . S
C944 H931 0.960 . S
C944 C943 1.524 . S
C945 C942 1.403 . S
C945 C946 1.392 . S
C945 C949 1.495 . S
C946 C945 1.392 . S
C946 C947 1.385 1_455 S
C946 C948 1.478 . S
C947 H941 0.930 . S
C947 C943 1.400 . S
C947 C946 1.385 1_655 S
C948 C946 1.478 . S
C948 C950 1.381 . S
C948 C954 1.383 1_455 S
C949 C945 1.495 . S
C949 H955 0.959 . S
C949 H956 0.961 . S
C949 H957 0.960 . S
C950 C948 1.381 . S
C950 C951 1.394 . S
C950 H958 0.930 . S
C951 C950 1.394 . S
C951 C952 1.383 . S
C951 H959 0.929 . S
C952 C951 1.383 . S
C952 C953 1.377 1_455 S
C953 H937 0.930 . S
C953 C952 1.377 1_655 S
C953 C954 1.379 . S
C954 H938 0.931 . S
C954 C948 1.383 1_655 S
C954 C953 1.379 . S
H955 C949 0.959 . S
H956 C949 0.961 . S
H957 C949 0.960 . S
H958 C950 0.930 . S
H959 C951 0.929 . S
C321 C10 3.016 . S
C340 C303 2.954 . S
C357 C55 1.153 . S
C376 C239 1.174 . S
C393 C90 1.828 . S
C412 C271 1.778 . S
C429 C19 2.909 . S
C448 C297 2.895 . S
C484 C233 1.232 . S
C465 C46 1.227 . S
C520 C265 1.887 . S
C501 C99 1.938 . S
C537 C50 1.836 . S
C556 C175 1.766 . S
C573 C95 0.441 . S
C592 C207 0.440 . S
C609 C6 1.251 . S
C628 C137 1.219 . S
C664 C169 1.872 . S
C645 C59 1.913 . S
C700 C201 0.374 . S
C681 C86 0.384 . S
C717 C15 1.177 . S
C736 C143 1.176 . S
C772 C213 1.127 . S
C753 C18 1.113 . S
C789 C49 1.456 . S
C808 C149 1.458 . S
C825 C98 1.346 . S
C844 C181 1.364 . S
C880 C277 1.380 . S
C861 C58 1.340 . S
C916 C309 1.714 . S
C897 C89 1.688 . S
C933 C9 1.462 . S
C952 C245 1.479 . S
