# Generated by pormake.
# Topology zzz, (3,6)-cn, num edge types: 1
# Building blocks:
#     Node 0, Type 0, BuildingBlock: BETDIP_clean_linker_0, # of connection points: 3
#     Node 1, Type 0, BuildingBlock: BETDIP_clean_linker_0, # of connection points: 3
#     Node 2, Type 0, BuildingBlock: BETDIP_clean_linker_0, # of connection points: 3
#     Node 3, Type 0, BuildingBlock: BETDIP_clean_linker_0, # of connection points: 3
#     Node 4, Type 0, BuildingBlock: BETDIP_clean_linker_0, # of connection points: 3
#     Node 5, Type 0, BuildingBlock: BETDIP_clean_linker_0, # of connection points: 3
#     Node 6, Type 0, BuildingBlock: BETDIP_clean_linker_0, # of connection points: 3
#     Node 7, Type 0, BuildingBlock: BETDIP_clean_linker_0, # of connection points: 3
#     Node 8, Type 1, BuildingBlock: HISSIN_clean_sbu_0, # of connection points: 6
#     Node 9, Type 1, BuildingBlock: HISSIN_clean_sbu_0, # of connection points: 6
#     Node 10, Type 1, BuildingBlock: HISSIN_clean_sbu_0, # of connection points: 6
#     Node 11, Type 1, BuildingBlock: HISSIN_clean_sbu_0, # of connection points: 6
#     Edge 12, Type (0, 1), BuildingBlock: EZIPEK_clean_linker_0, # of connection points: 2
#     Edge 13, Type (0, 1), BuildingBlock: EZIPEK_clean_linker_0, # of connection points: 2
#     Edge 14, Type (0, 1), BuildingBlock: EZIPEK_clean_linker_0, # of connection points: 2
#     Edge 15, Type (0, 1), BuildingBlock: EZIPEK_clean_linker_0, # of connection points: 2
#     Edge 16, Type (0, 1), BuildingBlock: EZIPEK_clean_linker_0, # of connection points: 2
#     Edge 17, Type (0, 1), BuildingBlock: EZIPEK_clean_linker_0, # of connection points: 2
#     Edge 18, Type (0, 1), BuildingBlock: EZIPEK_clean_linker_0, # of connection points: 2
#     Edge 19, Type (0, 1), BuildingBlock: EZIPEK_clean_linker_0, # of connection points: 2
#     Edge 20, Type (0, 1), BuildingBlock: EZIPEK_clean_linker_0, # of connection points: 2
#     Edge 21, Type (0, 1), BuildingBlock: EZIPEK_clean_linker_0, # of connection points: 2
#     Edge 22, Type (0, 1), BuildingBlock: EZIPEK_clean_linker_0, # of connection points: 2
#     Edge 23, Type (0, 1), BuildingBlock: EZIPEK_clean_linker_0, # of connection points: 2
#     Edge 24, Type (0, 1), BuildingBlock: EZIPEK_clean_linker_0, # of connection points: 2
#     Edge 25, Type (0, 1), BuildingBlock: EZIPEK_clean_linker_0, # of connection points: 2
#     Edge 26, Type (0, 1), BuildingBlock: EZIPEK_clean_linker_0, # of connection points: 2
#     Edge 27, Type (0, 1), BuildingBlock: EZIPEK_clean_linker_0, # of connection points: 2
#     Edge 28, Type (0, 1), BuildingBlock: EZIPEK_clean_linker_0, # of connection points: 2
#     Edge 29, Type (0, 1), BuildingBlock: EZIPEK_clean_linker_0, # of connection points: 2
#     Edge 30, Type (0, 1), BuildingBlock: EZIPEK_clean_linker_0, # of connection points: 2
#     Edge 31, Type (0, 1), BuildingBlock: EZIPEK_clean_linker_0, # of connection points: 2
#     Edge 32, Type (0, 1), BuildingBlock: EZIPEK_clean_linker_0, # of connection points: 2
#     Edge 33, Type (0, 1), BuildingBlock: EZIPEK_clean_linker_0, # of connection points: 2
#     Edge 34, Type (0, 1), BuildingBlock: EZIPEK_clean_linker_0, # of connection points: 2
#     Edge 35, Type (0, 1), BuildingBlock: EZIPEK_clean_linker_0, # of connection points: 2
# Relax obj value: 0.363
# Max RMSD: 0.209
# Mean RMSD: 0.100
data_MOF--net-zzz--node1-HISSIN_clean_sbu_0--node2-BETDIP_clean_linker_0--edge1-EZIPEK_clean_linker_0
_symmetry_space_group_name_H-M    P1
_symmetry_Int_Tables_number       1
_symmetry_cell_setting            triclinic
loop_
_symmetry_equiv_pos_as_xyz
'x, y, z'
_cell_length_a     37.361974
_cell_length_b     37.360865
_cell_length_c     12.196624
_cell_angle_alpha  89.670107
_cell_angle_beta   92.737461
_cell_angle_gamma 90.326404
loop_
_atom_site_label
_atom_site_type_symbol
_atom_site_fract_x
_atom_site_fract_y
_atom_site_fract_z
_atom_type_partial_charge
H0 H 0.77876 0.53573 0.49517 0.0
H1 H 0.75735 0.47631 0.19577 0.0
H2 H 0.859 0.46644 0.36864 0.0
H3 H 0.73735 0.54413 0.15691 0.0
C4 C 0.71724 0.536 0.21373 0.0
C5 C 0.78714 0.51692 0.4344 0.0
C6 C 0.82211 0.50152 0.44507 0.0
C7 C 0.76368 0.50859 0.34188 0.0
C8 C 0.77483 0.48358 0.26558 0.0
C9 C 0.80906 0.46902 0.27455 0.0
C10 C 0.83232 0.47788 0.36354 0.0
N11 N 0.72928 0.52513 0.32266 0.0
H12 H 0.04991 0.76977 0.43862 0.0
H13 H 0.96128 0.74218 0.21467 0.0
H14 H 0.96104 0.84144 0.38894 0.0
H15 H 1.00752 0.72322 0.11162 0.0
C16 C 0.01964 0.70545 0.17352 0.0
C17 C 0.024 0.77591 0.39981 0.0
C18 C 1.00645 0.80883 0.42575 0.0
C19 C 1.00794 0.75158 0.3203 0.0
C20 C 0.97419 0.76042 0.27247 0.0
C21 C 0.95815 0.79369 0.28945 0.0
C22 C 0.97346 0.81612 0.3715 0.0
N23 N 0.02538 0.71925 0.28424 0.0
H24 H 0.77594 0.99852 0.39961 0.0
H25 H 0.80243 0.08352 0.17427 0.0
H26 H 0.70492 0.08855 0.34146 0.0
H27 H 0.82025 0.036 0.06827 0.0
C28 C 0.83854 0.02438 0.13036 0.0
C29 C 0.76944 0.02356 0.35857 0.0
C30 C 0.73709 0.0425 0.38587 0.0
C31 C 0.79306 0.03749 0.27659 0.0
C32 C 0.78466 0.07102 0.23068 0.0
C33 C 0.75275 0.08842 0.2508 0.0
C34 C 0.72944 0.07426 0.32703 0.0
N35 N 0.8251 0.01937 0.24036 0.0
H36 H 0.56648 0.76645 0.44646 0.0
H37 H 0.48094 0.80018 0.21772 0.0
H38 H 0.47864 0.69527 0.35875 0.0
H39 H 0.50287 0.85727 0.28322 0.0
C40 C 0.52875 0.85095 0.25151 0.0
C41 C 0.54143 0.76102 0.40119 0.0
C42 C 0.52279 0.72786 0.41907 0.0
C43 C 0.52691 0.78735 0.32495 0.0
C44 C 0.49329 0.78049 0.27271 0.0
C45 C 0.47704 0.74693 0.28006 0.0
C46 C 0.49186 0.7211 0.35256 0.0
N47 N 0.54652 0.81899 0.2931 0.0
H48 H 0.28058 0.50342 0.0751 0.0
H49 H 0.2956 0.57226 0.35834 0.0
H50 H 0.19686 0.57468 0.16911 0.0
H51 H 0.3524 0.57055 0.3105 0.0
C52 C 0.35524 0.54163 0.30825 0.0
C53 C 0.27083 0.52368 0.12916 0.0
C54 C 0.23561 0.53787 0.10958 0.0
C55 C 0.2934 0.53624 0.21899 0.0
C56 C 0.28003 0.56283 0.28706 0.0
C57 C 0.24561 0.5764 0.26893 0.0
C58 C 0.2237 0.56393 0.18135 0.0
N59 N 0.32865 0.52185 0.2438 0.0
H60 H 0.05918 0.25568 0.11701 0.0
H61 H 0.96537 0.28514 0.29026 0.0
H62 H 0.96899 0.18338 0.13397 0.0
H63 H 1.00937 0.30495 0.41692 0.0
C64 C 0.02364 0.32207 0.36127 0.0
C65 C 0.03245 0.24984 0.14288 0.0
C66 C 0.01529 0.21659 0.11055 0.0
C67 C 0.015 0.2748 0.21248 0.0
C68 C 0.98001 0.26656 0.24195 0.0
C69 C 0.96441 0.23326 0.2188 0.0
C70 C 0.98164 0.20904 0.15188 0.0
N71 N 0.03196 0.30732 0.25539 0.0
H72 H 0.30286 0.04558 0.13102 0.0
H73 H 0.2766 0.96077 0.35808 0.0
H74 H 0.37455 0.95637 0.19257 0.0
H75 H 0.21857 0.97692 0.3083 0.0
C76 C 0.22231 1.00476 0.33156 0.0
C77 C 0.30929 0.02049 0.17189 0.0
C78 C 0.34208 1.00201 0.14657 0.0
C79 C 0.28466 1.00569 0.24969 0.0
C80 C 0.29374 0.97271 0.29865 0.0
C81 C 0.3262 0.95589 0.28068 0.0
C82 C 0.34969 0.97029 0.20543 0.0
N83 N 0.25239 0.02378 0.2845 0.0
H84 H 0.51737 0.27888 0.09084 0.0
H85 H 0.59125 0.25674 0.36618 0.0
H86 H 0.59837 0.35636 0.19441 0.0
H87 H 0.53142 0.23713 0.43455 0.0
C88 C 0.53128 0.21727 0.36978 0.0
C89 C 0.53972 0.28687 0.14513 0.0
C90 C 0.55682 0.32101 0.12907 0.0
C91 C 0.55139 0.26362 0.23405 0.0
C92 C 0.58114 0.27414 0.30056 0.0
C93 C 0.59751 0.30738 0.28722 0.0
C94 C 0.5854 0.33048 0.20262 0.0
N95 N 0.53422 0.22985 0.25806 0.0
Eu96 Eu 1.00895 0.03284 0.64858 0.0
Eu97 Eu 0.05751 1.00141 0.84056 0.0
C98 C 0.0403 0.08692 0.84677 0.0
C99 C 0.94156 0.07895 0.44152 0.0
C100 C 0.91479 0.08994 0.51071 0.0
C101 C 0.92118 0.12245 0.30587 0.0
C102 C 0.89198 0.11812 0.47861 0.0
C103 C 0.94334 0.09409 0.33702 0.0
C104 C 0.89637 0.13616 0.37843 0.0
C105 C 0.96968 0.05382 0.47764 0.0
O106 O 0.99812 0.99385 0.88929 0.0
O107 O 0.97048 0.03738 0.78847 0.0
C108 C 0.97048 0.01559 0.87344 0.0
O109 O 1.00441 0.97149 0.62658 0.0
O110 O 0.06451 0.99605 0.01963 0.0
O111 O 0.09404 0.96165 0.91663 0.0
O112 O 0.05645 0.95607 0.7156 0.0
C113 C 0.0297 0.94759 0.64754 0.0
O114 O 0.06562 0.03346 0.5786 0.0
O115 O 0.10238 0.0144 0.72241 0.0
O116 O 0.06327 0.0614 0.87634 0.0
O117 O 1.0009 0.06776 0.50589 0.0
O118 O 0.9608 0.02751 0.54183 0.0
O119 O 0.01635 0.08136 0.76462 0.0
C120 C 0.0555 0.93467 0.03882 0.0
C121 C 0.03068 0.92302 0.95624 0.0
C122 C 0.02484 0.89725 0.16852 0.0
C123 C 1.00298 0.8999 0.97884 0.0
C124 C 0.05243 0.92166 0.1461 0.0
C125 C 1.00002 0.88637 0.08424 0.0
C126 C 0.07918 0.96474 1.01066 0.0
C127 C 0.0981 0.02463 0.61815 0.0
H128 H 0.91269 0.07802 0.59135 0.0
H129 H 0.92594 0.13556 0.22851 0.0
H130 H 0.87265 0.1272 0.53529 0.0
H131 H 0.96355 0.08555 0.28199 0.0
H132 H 0.03137 0.93315 0.87417 0.0
H133 H 0.02229 0.88746 0.25146 0.0
H134 H 0.98369 0.89244 0.91387 0.0
H135 H 0.07052 0.93089 0.21209 0.0
Eu136 Eu 0.55663 0.04842 0.86368 0.0
Eu137 Eu 0.52406 0.99786 0.67624 0.0
C138 C 0.54771 0.96435 0.92133 0.0
C139 C 0.60022 0.12428 0.03538 0.0
C140 C 0.61363 0.13044 0.14233 0.0
C141 C 0.64473 0.16497 0.9665 0.0
C142 C 0.64403 0.15161 0.16082 0.0
C143 C 0.61453 0.14316 0.94789 0.0
C144 C 0.66183 0.1669 0.07201 0.0
C145 C 0.5754 0.09432 0.01672 0.0
O146 O 0.47244 1.00845 0.76807 0.0
O147 O 0.49896 0.03597 0.91776 0.0
C148 C 0.47001 0.02166 0.8681 0.0
O149 O 0.55194 0.08549 0.71298 0.0
O150 O 0.53163 0.94652 0.59633 0.0
O151 O 0.49063 0.98316 0.53261 0.0
O152 O 0.51515 0.05271 0.59619 0.0
C153 C 0.53228 0.0827 0.6208 0.0
O154 O 0.60811 0.03849 0.77005 0.0
O155 O 0.58192 1.00918 0.6232 0.0
O156 O 0.52727 0.96183 0.83036 0.0
O157 O 0.54849 0.09921 0.94616 0.0
O158 O 0.59039 0.06312 1.00666 0.0
O159 O 0.56665 0.99359 0.94096 0.0
C160 C 0.48015 0.9221 0.50315 0.0
C161 C 0.46655 0.90174 0.58876 0.0
C162 C 0.43601 0.89608 0.37609 0.0
C163 C 0.4364 0.87994 0.5687 0.0
C164 C 0.46611 0.91747 0.39608 0.0
C165 C 0.41885 0.87933 0.46372 0.0
C166 C 0.50523 0.95171 0.52413 0.0
C167 C 0.61071 0.0242 0.67145 0.0
H168 H 0.60254 0.11628 0.21084 0.0
H169 H 0.65636 0.17747 0.89647 0.0
H170 H 0.65559 0.15226 0.2438 0.0
H171 H 0.60402 0.13906 0.86454 0.0
H172 H 0.47757 0.9046 0.67207 0.0
H173 H 0.42411 0.89634 0.29343 0.0
H174 H 0.42524 0.86622 0.63742 0.0
H175 H 0.47652 0.93283 0.32886 0.0
Eu176 Eu 0.50473 0.53208 0.84426 0.0
Eu177 Eu 0.56484 0.51019 0.67683 0.0
C178 C 0.58768 0.53249 0.93183 0.0
C179 C 0.4366 0.58358 0.9996 0.0
C180 C 0.46072 0.60781 0.05022 0.0
C181 C 0.38836 0.62651 0.0156 0.0
C182 C 0.44873 0.64072 0.08482 0.0
C183 C 0.40031 0.59295 0.98271 0.0
C184 C 0.41268 0.65057 0.0663 0.0
C185 C 0.44969 0.54996 0.9559 0.0
O186 O 0.54827 0.45602 0.75194 0.0
O187 O 0.51976 0.47575 0.90239 0.0
C188 C 0.53503 0.44975 0.84925 0.0
O189 O 0.47557 0.50552 0.69802 0.0
O190 O 0.61967 0.51548 0.62373 0.0
O191 O 0.58106 0.48184 0.53296 0.0
O192 O 0.5147 0.51916 0.5683 0.0
C193 C 0.48181 0.51241 0.59519 0.0
O194 O 0.51889 0.58652 0.76769 0.0
O195 O 0.55793 0.56981 0.63864 0.0
O196 O 0.59505 0.51474 0.84284 0.0
O197 O 0.44909 0.54858 0.84933 0.0
O198 O 0.47934 0.53708 1.00098 0.0
O199 O 0.55581 0.5465 0.94382 0.0
C200 C 0.64085 0.46462 0.53138 0.0
C201 C 0.64433 0.45072 0.42659 0.0
C202 C 0.67492 0.41474 0.60912 0.0
C203 C 0.66068 0.41784 0.41353 0.0
C204 C 0.65788 0.4476 0.62233 0.0
C205 C 0.67381 0.39806 0.5057 0.0
C206 C 0.61431 0.49272 0.54367 0.0
C207 C 0.53856 0.59468 0.6836 0.0
H208 H 0.4889 0.60149 0.06248 0.0
H209 H 0.36058 0.63388 1.00006 0.0
H210 H 0.46791 0.65903 0.12399 0.0
H211 H 0.38149 0.57461 0.94213 0.0
H212 H 0.63122 0.46358 0.35577 0.0
H213 H 0.68636 0.40139 0.68116 0.0
H214 H 0.65914 0.40632 0.33217 0.0
H215 H 0.65581 0.45829 0.70415 0.0
Eu216 Eu 0.03989 0.54151 0.66881 0.0
Eu217 Eu 0.02296 0.4867 0.86565 0.0
C218 C 0.10577 0.51726 0.83604 0.0
C219 C 0.07625 0.61594 0.49145 0.0
C220 C 0.09331 0.63636 0.57535 0.0
C221 C 0.1245 0.62948 0.37319 0.0
C222 C 0.12685 0.65183 0.55935 0.0
C223 C 0.09063 0.61519 0.38776 0.0
C224 C 0.14415 0.6453 0.46178 0.0
C225 C 0.04862 0.5894 0.5152 0.0
O226 O 0.01522 0.54076 0.94797 0.0
O227 O 0.0422 0.5769 0.82337 0.0
C228 C 0.02833 0.57218 0.92007 0.0
O229 O 0.98037 0.5287 0.64268 0.0
O230 O 1.00633 0.47184 0.02788 0.0
O231 O 0.03095 0.43211 0.92818 0.0
O232 O 0.96618 0.49791 0.79819 0.0
C233 C 0.95657 0.51302 0.70343 0.0
O234 O 0.04659 0.48741 0.58487 0.0
O235 O 0.02012 0.45161 0.71105 0.0
O236 O 0.08208 0.50064 0.8949 0.0
O237 O 0.05919 0.55631 0.50956 0.0
O238 O 0.02944 0.59487 0.60003 0.0
O239 O 0.09641 0.53178 0.7403 0.0
C240 C 0.98377 0.41408 0.03969 0.0
C241 C 0.96258 0.39884 0.95336 0.0
C242 C 0.93451 0.40825 0.1592 0.0
C243 C 0.92662 0.3905 0.96878 0.0
C244 C 0.97056 0.41528 0.14502 0.0
C245 C 0.91177 0.39928 0.06852 0.0
C246 C 1.01368 0.43805 0.0166 0.0
C247 C 0.03371 0.45604 0.614 0.0
H248 H 0.08228 0.63789 0.65571 0.0
H249 H 0.13684 0.62439 0.29623 0.0
H250 H 0.14043 0.66596 0.62653 0.0
H251 H 0.07759 0.6 0.32159 0.0
H252 H 0.97237 0.39739 0.87132 0.0
H253 H 0.92357 0.4144 0.23759 0.0
H254 H 0.90944 0.38281 0.89869 0.0
H255 H 0.98665 0.42655 0.21278 0.0
C256 C 0.1556 0.01502 0.35575 0.0
C257 C 0.19147 0.01971 0.39809 0.0
C258 C 0.16578 0.03534 0.57768 0.0
C259 C 0.13025 0.02475 0.54034 0.0
N260 N 0.09416 0.99894 0.38918 0.0
N261 N 0.23039 0.0314 0.55618 0.0
C262 C 0.12592 0.01357 0.42763 0.0
C263 C 0.19635 0.02929 0.51088 0.0
N264 N 0.14971 0.01203 0.24475 0.0
N265 N 0.17042 0.05281 0.67533 0.0
H266 H 0.25292 0.02851 0.50969 0.0
H267 H 0.23613 0.03377 0.64026 0.0
H268 H 0.1491 0.0597 0.72292 0.0
H269 H 0.19476 0.0641 0.70279 0.0
H270 H 0.12429 0.01265 0.20579 0.0
H271 H 0.17055 0.013 0.19071 0.0
H272 H 0.09083 0.98676 0.3128 0.0
H273 H 0.07212 0.99487 0.43654 0.0
C274 C 0.56093 0.15762 0.42152 0.0
C275 C 0.52926 0.17847 0.40797 0.0
C276 C 0.49857 0.13538 0.52873 0.0
C277 C 0.53021 0.11438 0.54141 0.0
N278 N 0.58867 0.10126 0.4778 0.0
N279 N 0.46613 0.18352 0.43185 0.0
C280 C 0.56051 0.12431 0.48106 0.0
C281 C 0.49753 0.16601 0.45634 0.0
N282 N 0.59208 0.17049 0.38204 0.0
N283 N 0.46994 0.12702 0.58989 0.0
H284 H 0.4647 0.20564 0.37915 0.0
H285 H 0.4412 0.17446 0.4551 0.0
H286 H 0.46955 0.10476 0.64187 0.0
H287 H 0.44752 0.14321 0.59495 0.0
H288 H 0.61713 0.15975 0.40346 0.0
H289 H 0.59303 0.19313 0.33194 0.0
H290 H 0.61014 0.10495 0.42747 0.0
H291 H 0.58885 0.07659 0.51798 0.0
C292 C 0.42042 0.54949 0.35855 0.0
C293 C 0.38948 0.52746 0.36361 0.0
C294 C 0.42258 0.49035 0.50305 0.0
C295 C 0.45091 0.51613 0.5107 0.0
N296 N 0.47171 0.57495 0.45717 0.0
N297 N 0.35989 0.47845 0.45263 0.0
C298 C 0.44865 0.54678 0.44069 0.0
C299 C 0.3903 0.49798 0.43824 0.0
N300 N 0.42289 0.5735 0.27449 0.0
N301 N 0.42675 0.45816 0.55554 0.0
H302 H 0.33597 0.48299 0.40759 0.0
H303 H 0.35771 0.45949 0.51497 0.0
H304 H 0.45015 0.45131 0.60067 0.0
H305 H 0.40862 0.43703 0.54497 0.0
H306 H 0.44617 0.58802 0.26128 0.0
H307 H 0.40314 0.57591 0.21161 0.0
H308 H 0.4684 0.5996 0.41762 0.0
H309 H 0.49166 0.57558 0.51919 0.0
C310 C 0.99618 0.38026 0.42477 0.0
C311 C 0.02757 0.36101 0.39907 0.0
C312 C 0.06393 0.4061 0.50604 0.0
C313 C 0.03233 0.42489 0.53279 0.0
N314 N 0.96952 0.43465 0.49298 0.0
N315 N 0.09173 0.35913 0.40009 0.0
C316 C 0.99883 0.41328 0.48472 0.0
C317 C 0.06159 0.37533 0.43431 0.0
N318 N 0.96335 0.36641 0.3937 0.0
N319 N 0.09609 0.41676 0.5534 0.0
H320 H 0.09061 0.33666 0.34965 0.0
H321 H 0.11753 0.36923 0.41411 0.0
H322 H 0.09873 0.43908 0.6042 0.0
H323 H 0.11986 0.40269 0.54765 0.0
H324 H 0.93935 0.37568 0.42267 0.0
H325 H 0.96021 0.34465 0.341 0.0
H326 H 0.94503 0.43006 0.451 0.0
H327 H 0.97064 0.45904 0.53412 0.0
C328 C 0.89666 0.05179 0.06214 0.0
C329 C 0.87726 0.02048 0.09211 0.0
C330 C 0.91954 0.98489 0.98243 0.0
C331 C 0.93919 0.01641 0.95347 0.0
N332 N 0.95042 0.07877 0.99213 0.0
N333 N 0.87363 0.95651 0.09227 0.0
C334 C 0.92873 0.04945 1.001 0.0
C335 C 0.89015 0.98681 0.05648 0.0
N336 N 0.8837 0.08448 0.08943 0.0
N337 N 0.92762 0.95325 0.9342 0.0
H338 H 0.85256 0.95745 0.14536 0.0
H339 H 0.88208 0.93065 0.07672 0.0
H340 H 0.94767 0.95112 0.87831 0.0
H341 H 0.91322 0.9296 0.94295 0.0
H342 H 0.89255 0.10849 0.05608 0.0
H343 H 0.86291 0.08742 0.14256 0.0
H344 H 0.94714 0.10237 0.03549 0.0
H345 H 0.9739 0.0784 0.94973 0.0
C346 C 0.54552 0.91435 0.20158 0.0
C347 C 0.54304 0.87792 0.16991 0.0
C348 C 0.55118 0.89765 0.97761 0.0
C349 C 0.54764 0.93436 1.00749 0.0
N350 N 0.5343 0.97612 0.15086 0.0
N351 N 0.54091 0.83496 0.02363 0.0
C352 C 0.54333 0.94231 0.12056 0.0
C353 C 0.54547 0.86958 0.05673 0.0
N354 N 0.55036 0.92236 0.31035 0.0
N355 N 0.5612 0.88945 0.87453 0.0
H356 H 0.53835 0.81385 0.07897 0.0
H357 H 0.53768 0.82752 0.94157 0.0
H358 H 0.56675 0.90895 0.81615 0.0
H359 H 0.5675 0.86362 0.8506 0.0
H360 H 0.55618 0.94812 0.3386 0.0
H361 H 0.55226 0.90256 0.37109 0.0
H362 H 0.52718 0.98243 0.23001 0.0
H363 H 0.52981 0.997 0.09513 0.0
C364 C 0.66032 0.50333 0.14637 0.0
C365 C 0.67885 0.53604 0.16863 0.0
C366 C 0.63474 0.56771 0.04538 0.0
C367 C 0.61641 0.53494 0.02284 0.0
N368 N 0.60632 0.47353 0.07405 0.0
N369 N 0.67922 0.60026 0.15904 0.0
C370 C 0.62757 0.50339 0.08043 0.0
C371 C 0.66444 0.56851 0.12438 0.0
N372 N 0.67498 0.4718 0.18275 0.0
N373 N 0.62493 0.59775 0.98718 0.0
H374 H 0.70064 0.60151 0.21711 0.0
H375 H 0.66837 0.62516 0.13864 0.0
H376 H 0.6031 0.59828 0.93059 0.0
H377 H 0.63959 0.62152 0.98963 0.0
H378 H 0.66592 0.44683 0.15549 0.0
H379 H 0.69712 0.47059 0.23764 0.0
H380 H 0.61088 0.45071 0.12203 0.0
H381 H 0.58204 0.47293 0.02839 0.0
C382 C 0.99124 0.64812 0.09923 0.0
C383 C 0.02296 0.66665 0.136 0.0
C384 C 0.05831 0.61918 0.04912 0.0
C385 C 0.02652 0.60376 0.99911 0.0
N386 N 0.96233 0.60596 0.97126 0.0
N387 N 0.08718 0.67032 0.14156 0.0
C388 C 0.99287 0.6187 0.02395 0.0
C389 C 0.05666 0.65203 0.11056 0.0
N390 N 0.95926 0.65844 0.13831 0.0
N391 N 0.09009 0.60179 0.04057 0.0
H392 H 0.08686 0.69315 0.19042 0.0
H393 H 0.11244 0.66389 0.11522 0.0
H394 H 0.092 0.57772 0.99842 0.0
H395 H 0.11377 0.60933 0.08288 0.0
H396 H 0.93536 0.6444 0.12406 0.0
H397 H 0.95745 0.67902 0.19516 0.0
H398 H 0.93745 0.61818 0.97504 0.0
H399 H 0.96223 0.58467 0.91629 0.0
C400 C 0.9308 0.21742 0.38818 0.0
C401 C 0.93117 0.22176 0.27191 0.0
C402 C 0.87709 0.18456 0.25156 0.0
C403 C 0.88381 0.17371 0.36146 0.0
N404 N 0.89392 0.20028 0.53839 0.0
N405 N 0.89686 0.22108 0.09921 0.0
C406 C 0.90206 0.19811 0.43115 0.0
C407 C 0.9011 0.20971 0.20547 0.0
N408 N 0.95884 0.22803 0.4565 0.0
N409 N 0.85131 0.16683 0.19029 0.0
H410 H 0.9143 0.23973 0.06601 0.0
H411 H 0.87518 0.21395 0.04703 0.0
H412 H 0.83502 0.14774 0.22671 0.0
H413 H 0.84647 0.17057 0.10631 0.0
H414 H 0.96016 0.22193 0.54014 0.0
H415 H 0.98207 0.23996 0.42975 0.0
H416 H 0.90601 0.21886 0.59208 0.0
H417 H 0.87219 0.18619 0.5682 0.0
C418 C 0.34368 0.89077 0.28843 0.0
C419 C 0.33678 0.92326 0.34438 0.0
C420 C 0.35884 0.89478 0.51366 0.0
C421 C 0.37942 0.87206 0.45079 0.0
N422 N 0.3783 0.83522 0.29218 0.0
N423 N 0.33682 0.955 0.51864 0.0
C424 C 0.36573 0.86454 0.34357 0.0
C425 C 0.34297 0.92473 0.46045 0.0
N426 N 0.33034 0.88598 0.1834 0.0
N427 N 0.35623 0.88868 0.62302 0.0
H428 H 0.32741 0.97872 0.48297 0.0
H429 H 0.34417 0.95723 0.60192 0.0
H430 H 0.36674 0.8655 0.65996 0.0
H431 H 0.34027 0.90421 0.6718 0.0
H432 H 0.33381 0.86275 0.13863 0.0
H433 H 0.31382 0.9049 0.14343 0.0
H434 H 0.37218 0.82885 0.21048 0.0
H435 H 0.39555 0.81741 0.33449 0.0
C436 C 0.66153 0.32489 0.32756 0.0
C437 C 0.62676 0.31898 0.36577 0.0
C438 C 0.64794 0.33982 0.54573 0.0
C439 C 0.67572 0.3583 0.49534 0.0
N440 N 0.71885 0.35652 0.35804 0.0
N441 N 0.58689 0.31973 0.51744 0.0
C442 C 0.68671 0.34517 0.39399 0.0
C443 C 0.62004 0.32519 0.47771 0.0
N444 N 0.66869 0.31198 0.22688 0.0
N445 N 0.6479 0.33725 0.65703 0.0
H446 H 0.56495 0.31063 0.46933 0.0
H447 H 0.58061 0.32723 0.59644 0.0
H448 H 0.6697 0.34602 0.70651 0.0
H449 H 0.62879 0.32236 0.69739 0.0
H450 H 0.69338 0.31421 0.19112 0.0
H451 H 0.69338 0.31421 0.19112 0.0
H452 H 0.72835 0.35091 0.28128 0.0
H453 H 0.73596 0.37221 0.40847 0.0
C454 C 0.22146 0.59227 0.45093 0.0
C455 C 0.23131 0.60301 0.34456 0.0
C456 C 0.19852 0.65876 0.36163 0.0
C457 C 0.18383 0.64511 0.45788 0.0
N458 N 0.19763 0.61103 0.62236 0.0
N459 N 0.2359 0.65141 0.21139 0.0
C460 C 0.20126 0.61616 0.51276 0.0
C461 C 0.22287 0.63801 0.30556 0.0
N462 N 0.22862 0.55851 0.4894 0.0
N463 N 0.18695 0.69022 0.31667 0.0
H464 H 0.25418 0.63784 0.16481 0.0
H465 H 0.25418 0.63784 0.16481 0.0
H466 H 0.1683 0.70637 0.35375 0.0
H467 H 0.1683 0.70637 0.35375 0.0
H468 H 0.21811 0.54823 0.56074 0.0
H469 H 0.24277 0.53969 0.44635 0.0
H470 H 0.21146 0.59134 0.6676 0.0
H471 H 0.18467 0.62947 0.67002 0.0
C472 C 0.92104 0.84405 0.21996 0.0
C473 C 0.93188 0.80857 0.2033 0.0
C474 C 0.96799 0.82706 0.05603 0.0
C475 C 0.97015 0.86159 0.10577 0.0
N476 N 0.94008 0.90644 0.21019 0.0
N477 N 0.93191 0.77262 0.04152 0.0
C478 C 0.94314 0.87171 0.17826 0.0
C479 C 0.94283 0.80255 0.0966 0.0
N480 N 0.89348 0.85027 0.28595 0.0
N481 N 0.99119 0.8166 0.97949 0.0
H482 H 0.91414 0.75458 0.07621 0.0
H483 H 0.93852 0.76767 0.9609 0.0
H484 H 1.01159 0.83293 0.95189 0.0
H485 H 0.99153 0.79051 0.94962 0.0
H486 H 0.88363 0.8757 0.30104 0.0
H487 H 0.87967 0.82887 0.3203 0.0
H488 H 0.92276 0.91465 0.26937 0.0
H489 H 0.95518 0.927 0.17665 0.0
C490 C 0.73704 0.12112 0.07267 0.0
C491 C 0.74284 0.12161 0.18902 0.0
C492 C 0.71516 0.18087 0.19288 0.0
C493 C 0.70134 0.1741 0.08529 0.0
N494 N 0.72531 0.15891 0.91292 0.0
N495 N 0.75023 0.15796 0.35179 0.0
C496 C 0.72195 0.15176 0.02138 0.0
C497 C 0.73664 0.15392 0.24674 0.0
N498 N 0.74277 0.09123 1.01229 0.0
N499 N 0.70328 0.21023 0.24558 0.0
H500 H 0.76653 0.13859 0.39045 0.0
H501 H 0.74727 0.18104 0.3977 0.0
H502 H 0.68644 0.22859 0.20405 0.0
H503 H 0.70956 0.21608 0.32757 0.0
H504 H 0.73578 0.08991 0.92857 0.0
H505 H 0.75136 0.06697 0.04631 0.0
H506 H 0.74134 0.14362 0.86365 0.0
H507 H 0.71519 0.18252 0.87764 0.0
C508 C 0.41547 0.72112 0.26216 0.0
C509 C 0.44477 0.73718 0.20999 0.0
C510 C 0.42026 0.71385 0.03582 0.0
C511 C 0.40274 0.68732 0.09536 0.0
N512 N 0.37442 0.67031 0.25938 0.0
N513 N 0.47384 0.74983 0.03885 0.0
C514 C 0.39604 0.69347 0.20621 0.0
C515 C 0.44605 0.73541 0.09329 0.0
N516 N 0.40816 0.73084 0.36631 0.0
N517 N 0.41613 0.71411 0.92429 0.0
H518 H 0.49519 0.76356 0.07679 0.0
H519 H 0.47722 0.74562 0.95562 0.0
H520 H 0.39872 0.69605 0.88358 0.0
H521 H 0.42715 0.73387 0.87526 0.0
H522 H 0.3862 0.72117 0.40703 0.0
H523 H 0.42267 0.75111 0.40738 0.0
H524 H 0.37146 0.67059 0.34384 0.0
H525 H 0.36025 0.65011 0.21695 0.0
C526 C 0.82836 0.40881 0.21279 0.0
C527 C 0.82213 0.44543 0.18828 0.0
C528 C 0.8627 0.44347 0.03797 0.0
C529 C 0.87351 0.40877 0.07475 0.0
N530 N 0.85988 0.35422 0.16787 0.0
N531 N 0.82247 0.49353 0.0555 0.0
C532 C 0.85334 0.3898 0.15125 0.0
C533 C 0.83525 0.46117 0.09224 0.0
N534 N 0.81175 0.39322 0.29843 0.0
N535 N 0.88118 0.46102 0.95963 0.0
H536 H 0.80363 0.50819 0.09613 0.0
H537 H 0.8281 0.50452 0.97958 0.0
H538 H 0.90004 0.44875 0.91284 0.0
H539 H 0.87871 0.48823 0.94242 0.0
H540 H 0.81708 0.3675 0.32769 0.0
H541 H 0.79239 0.40664 0.34125 0.0
H542 H 0.84563 0.33787 0.21979 0.0
H543 H 0.87846 0.34063 0.12236 0.0
C544 C 0.04037 0.15366 0.09333 0.0
C545 C 0.03122 0.18681 0.04145 0.0
C546 C 0.03581 0.1561 0.86145 0.0
C547 C 0.03936 0.12185 0.91382 0.0
N548 N 0.03776 0.0889 0.08515 0.0
N549 N 0.01713 0.21843 0.87295 0.0
C550 C 0.04021 0.12096 0.03139 0.0
C551 C 0.02837 0.18768 0.92445 0.0
N552 N 0.04881 0.15335 0.20351 0.0
N553 N 0.04067 0.15883 0.75147 0.0
H554 H 1.01288 0.24205 0.91556 0.0
H555 H 1.01004 0.21989 0.78941 0.0
H556 H 0.04728 0.13694 0.70391 0.0
H557 H 0.04178 0.18319 0.70982 0.0
H558 H 0.05911 0.13099 0.2453 0.0
H559 H 0.04904 0.1766 0.2506 0.0
H560 H 0.03421 0.08678 0.16913 0.0
H561 H 0.03481 0.06446 0.04515 0.0
C562 C 0.37758 0.98746 0.97605 0.0
C563 C 0.36981 0.01252 0.05983 0.0
C564 C 0.42305 0.04751 1.0 0.0
C565 C 0.43423 0.01928 0.92986 0.0
N566 N 0.42303 0.95808 0.87341 0.0
N567 N 0.38964 0.06511 0.15832 0.0
C568 C 0.41145 0.98827 0.92315 0.0
C569 C 0.39377 0.04227 0.07306 0.0
N570 N 0.35227 0.96237 0.9465 0.0
N571 N 0.43933 0.08021 0.99408 0.0
H572 H 0.3686 0.06271 0.21107 0.0
H573 H 0.40849 0.08469 0.18112 0.0
H574 H 0.45886 0.08599 0.93828 0.0
H575 H 0.43051 0.10267 0.03501 0.0
H576 H 0.35443 0.94555 0.87928 0.0
H577 H 0.32738 0.96121 0.98182 0.0
H578 H 0.40932 0.93374 0.87553 0.0
H579 H 0.44829 0.95582 0.84176 0.0
C580 C 0.57379 0.35948 0.96565 0.0
C581 C 0.54694 0.34832 0.03802 0.0
C582 C 0.50907 0.39789 0.96154 0.0
C583 C 0.53836 0.41279 0.9049 0.0
N584 N 0.60152 0.40887 0.87086 0.0
N585 N 0.48967 0.36054 0.11196 0.0
C586 C 0.5714 0.3936 0.91052 0.0
C587 C 0.5146 0.36836 0.03706 0.0
N588 N 0.60203 0.33732 0.95004 0.0
N589 N 0.47545 0.41122 0.94085 0.0
H590 H 0.49239 0.33928 0.16735 0.0
H591 H 0.46767 0.37677 0.12447 0.0
H592 H 0.47001 0.43139 0.88304 0.0
H593 H 0.45255 0.39957 0.97146 0.0
H594 H 0.62097 0.34221 0.89177 0.0
H595 H 0.60428 0.31219 0.98751 0.0
H596 H 0.62697 0.39789 0.88329 0.0
H597 H 0.60208 0.43434 0.83604 0.0
C598 C 0.19788 0.55554 0.94121 0.0
C599 C 0.20972 0.52792 0.01478 0.0
C600 C 0.16014 0.4901 0.93892 0.0
C601 C 0.14402 0.52021 0.884 0.0
N602 N 0.1474 0.58384 0.8447 0.0
N603 N 0.20012 0.46882 0.08792 0.0
C604 C 0.16316 0.55343 0.8864 0.0
C605 C 0.19058 0.49495 0.01368 0.0
N606 N 0.21975 0.5844 0.92613 0.0
N607 N 0.14685 0.45659 0.91776 0.0
H608 H 0.22243 0.47102 0.14213 0.0
H609 H 0.18455 0.44606 0.10032 0.0
H610 H 0.12586 0.45187 0.86002 0.0
H611 H 0.1592 0.43335 0.94778 0.0
H612 H 0.21419 0.60435 0.86793 0.0
H613 H 0.24524 0.58638 0.96468 0.0
H614 H 0.15843 0.60927 0.85649 0.0
H615 H 0.12172 0.58461 0.80809 0.0
C616 C 0.99793 0.8495 0.58901 0.0
C617 C 0.02024 0.83866 0.50346 0.0
C618 C 0.05307 0.89627 0.52837 0.0
C619 C 0.02719 0.90953 0.60066 0.0
N620 N 0.97291 0.89776 0.69389 0.0
N621 N 0.07152 0.85405 0.39704 0.0
C622 C 0.99915 0.88568 0.62958 0.0
C623 C 0.04844 0.8624 0.47579 0.0
N624 N 0.97562 0.82466 0.63246 0.0
N625 N 0.08243 0.91588 0.50375 0.0
H626 H 0.07037 0.83024 0.35278 0.0
H627 H 0.07037 0.83024 0.35278 0.0
H628 H 0.08884 0.94069 0.53832 0.0
H629 H 0.08884 0.94069 0.53832 0.0
H630 H 0.96107 0.82914 0.70175 0.0
H631 H 0.9747 0.79817 0.60551 0.0
H632 H 0.9495 0.88349 0.70742 0.0
H633 H 0.9735 0.92314 0.72872 0.0
C634 C 0.68573 1.00273 0.46345 0.0
C635 C 0.70988 0.03239 0.47453 0.0
C636 C 0.66932 0.05716 0.61346 0.0
C637 C 0.64638 0.02623 0.60882 0.0
N638 N 0.64085 0.96506 0.54667 0.0
N639 N 0.72843 0.08266 0.58597 0.0
C640 C 0.65704 0.99776 0.53869 0.0
C641 C 0.70282 0.05767 0.55841 0.0
N642 N 0.6891 0.97972 0.37819 0.0
N643 N 0.65828 0.08757 0.66318 0.0
H644 H 0.75308 0.08358 0.5491 0.0
H645 H 0.72681 0.09963 0.65308 0.0
H646 H 0.63332 0.09012 0.69651 0.0
H647 H 0.67206 0.11183 0.65926 0.0
H648 H 0.66999 0.96021 0.35703 0.0
H649 H 0.7097 0.98193 0.32377 0.0
H650 H 0.64932 0.94251 0.50548 0.0
H651 H 0.62192 0.95937 0.60444 0.0
C652 C 0.50537 0.68881 0.57984 0.0
C653 C 0.53226 0.69926 0.50686 0.0
C654 C 0.56746 0.64708 0.57789 0.0
C655 C 0.5372 0.63247 0.63125 0.0
N656 N 0.47345 0.63916 0.65743 0.0
N657 N 0.58837 0.68448 0.4295 0.0
C658 C 0.5052 0.65347 0.62663 0.0
C659 C 0.56331 0.67741 0.50451 0.0
N660 N 0.47926 0.71264 0.60313 0.0
N661 N 0.60067 0.63304 0.6002 0.0
H662 H 0.58648 0.70622 0.37564 0.0
H663 H 0.60946 0.66719 0.41561 0.0
H664 H 0.60547 0.61318 0.6594 0.0
H665 H 0.62393 0.64427 0.57054 0.0
H666 H 0.46073 0.7078 0.66285 0.0
H667 H 0.47884 0.73869 0.57158 0.0
H668 H 0.44912 0.65248 0.6456 0.0
H669 H 0.47009 0.61258 0.68043 0.0
C670 C 0.86185 0.47964 0.60482 0.0
C671 C 0.84991 0.50881 0.53739 0.0
C672 C 0.90218 0.54358 0.6107 0.0
C673 C 0.91779 0.51213 0.6592 0.0
N674 N 0.91258 0.44824 0.68971 0.0
N675 N 0.86071 0.56859 0.47144 0.0
C676 C 0.89738 0.47972 0.65473 0.0
C677 C 0.87041 0.54099 0.54022 0.0
N678 N 0.83919 0.45141 0.6195 0.0
N679 N 0.91729 0.5762 0.63401 0.0
H680 H 0.83742 0.56811 0.42089 0.0
H681 H 0.87695 0.59091 0.45958 0.0
H682 H 0.93946 0.57927 0.68854 0.0
H683 H 0.90553 0.60032 0.6092 0.0
H684 H 0.84474 0.4308 0.67558 0.0
H685 H 0.81321 0.45076 0.58387 0.0
H686 H 0.90034 0.4234 0.6769 0.0
H687 H 0.93874 0.44622 0.72228 0.0
loop_
_geom_bond_atom_site_label_1
_geom_bond_atom_site_label_2
_geom_bond_distance
_geom_bond_site_symmetry_2
_ccdc_geom_bond_type
H0 C5 0.930 . S
H1 C8 0.930 . S
H2 C10 0.930 . S
H3 C4 1.016 . S
C4 H3 1.016 . S
C4 N11 1.286 . S
C5 H0 0.930 . S
C5 C6 1.397 . S
C5 C7 1.361 . S
C6 C5 1.397 . S
C6 C10 1.390 . S
C7 C5 1.361 . S
C7 C8 1.393 . S
C7 N11 1.413 . S
C8 H1 0.930 . S
C8 C7 1.393 . S
C8 C9 1.399 . S
C9 C8 1.399 . S
C9 C10 1.381 . S
C10 H2 0.930 . S
C10 C6 1.390 . S
C10 C9 1.381 . S
N11 C4 1.286 . S
N11 C7 1.413 . S
H12 C17 0.930 . S
H13 C20 0.930 . S
H14 C22 0.930 . S
H15 C16 1.016 . S
C16 H15 1.016 . S
C16 N23 1.286 . S
C17 H12 0.930 . S
C17 C18 1.397 . S
C17 C19 1.361 . S
C18 C17 1.397 . S
C18 C22 1.390 . S
C19 C17 1.361 . S
C19 C20 1.393 . S
C19 N23 1.413 . S
C20 H13 0.930 . S
C20 C19 1.393 . S
C20 C21 1.399 . S
C21 C20 1.399 . S
C21 C22 1.381 . S
C22 H14 0.930 . S
C22 C18 1.390 . S
C22 C21 1.381 . S
N23 C16 1.286 . S
N23 C19 1.413 . S
H24 C29 0.930 . S
H25 C32 0.930 . S
H26 C34 0.930 . S
H27 C28 1.016 . S
C28 H27 1.016 . S
C28 N35 1.285 . S
C29 H24 0.930 . S
C29 C30 1.397 . S
C29 C31 1.361 . S
C30 C29 1.397 . S
C30 C34 1.390 . S
C31 C29 1.361 . S
C31 C32 1.393 . S
C31 N35 1.412 . S
C32 H25 0.930 . S
C32 C31 1.393 . S
C32 C33 1.399 . S
C33 C32 1.399 . S
C33 C34 1.381 . S
C34 H26 0.930 . S
C34 C30 1.390 . S
C34 C33 1.381 . S
N35 C28 1.285 . S
N35 C31 1.412 . S
H36 C41 0.930 . S
H37 C44 0.930 . S
H38 C46 0.930 . S
H39 C40 1.016 . S
C40 H39 1.016 . S
C40 N47 1.286 . S
C41 H36 0.930 . S
C41 C42 1.397 . S
C41 C43 1.361 . S
C42 C41 1.397 . S
C42 C46 1.390 . S
C43 C41 1.361 . S
C43 C44 1.393 . S
C43 N47 1.413 . S
C44 H37 0.930 . S
C44 C43 1.393 . S
C44 C45 1.399 . S
C45 C44 1.399 . S
C45 C46 1.381 . S
C46 H38 0.930 . S
C46 C42 1.390 . S
C46 C45 1.381 . S
N47 C40 1.286 . S
N47 C43 1.413 . S
H48 C53 0.930 . S
H49 C56 0.930 . S
H50 C58 0.930 . S
H51 C52 1.016 . S
C52 H51 1.016 . S
C52 N59 1.286 . S
C53 H48 0.930 . S
C53 C54 1.397 . S
C53 C55 1.361 1_556 S
C54 C53 1.397 . S
C54 C58 1.390 1_556 S
C55 C53 1.361 1_554 S
C55 C56 1.393 . S
C55 N59 1.413 . S
C56 H49 0.930 . S
C56 C55 1.393 . S
C56 C57 1.399 . S
C57 C56 1.399 . S
C57 C58 1.381 . S
C58 H50 0.930 . S
C58 C54 1.390 1_554 S
C58 C57 1.381 . S
N59 C52 1.286 . S
N59 C55 1.413 . S
H60 C65 0.930 . S
H61 C68 0.930 . S
H62 C70 0.930 . S
H63 C64 1.016 . S
C64 H63 1.016 . S
C64 N71 1.286 . S
C65 H60 0.930 . S
C65 C66 1.397 . S
C65 C67 1.361 1_556 S
C66 C65 1.397 . S
C66 C70 1.390 1_556 S
C67 C65 1.361 1_554 S
C67 C68 1.393 . S
C67 N71 1.413 . S
C68 H61 0.930 . S
C68 C67 1.393 . S
C68 C69 1.399 . S
C69 C68 1.399 . S
C69 C70 1.381 . S
C70 H62 0.930 . S
C70 C66 1.390 1_554 S
C70 C69 1.381 . S
N71 C64 1.286 . S
N71 C67 1.413 . S
H72 C77 0.930 . S
H73 C80 0.930 . S
H74 C82 0.930 . S
H75 C76 1.016 . S
C76 H75 1.016 . S
C76 N83 1.286 . S
C77 H72 0.930 . S
C77 C78 1.397 . S
C77 C79 1.361 1_556 S
C78 C77 1.397 . S
C78 C82 1.390 . S
C79 C77 1.361 1_554 S
C79 C80 1.393 . S
C79 N83 1.413 . S
C80 H73 0.930 . S
C80 C79 1.393 . S
C80 C81 1.399 . S
C81 C80 1.399 . S
C81 C82 1.381 1_554 S
C82 H74 0.930 . S
C82 C78 1.390 . S
C82 C81 1.381 1_556 S
N83 C76 1.286 . S
N83 C79 1.413 . S
H84 C89 0.930 . S
H85 C92 0.930 . S
H86 C94 0.930 . S
H87 C88 1.016 . S
C88 H87 1.016 . S
C88 N95 1.286 . S
C89 H84 0.930 . S
C89 C90 1.397 . S
C89 C91 1.361 1_556 S
C90 C89 1.397 . S
C90 C94 1.390 1_556 S
C91 C89 1.361 1_554 S
C91 C92 1.393 . S
C91 N95 1.413 . S
C92 H85 0.930 . S
C92 C91 1.393 . S
C92 C93 1.399 . S
C93 C92 1.399 . S
C93 C94 1.381 . S
C94 H86 0.930 . S
C94 C90 1.390 1_554 S
C94 C93 1.381 . S
N95 C88 1.286 . S
N95 C91 1.413 . S
Eu96 C105 2.828 . S
Eu96 O107 2.392 . S
Eu96 O109 2.418 1_545 S
Eu96 O114 2.373 1_655 S
Eu96 O117 2.488 . S
Eu96 O118 2.471 . S
Eu96 O119 2.349 1_655 S
Eu97 O106 2.373 1_455 S
Eu97 O110 2.488 1_556 S
Eu97 O111 2.471 . S
Eu97 O112 2.349 . S
Eu97 O115 2.392 1_565 S
Eu97 O116 2.418 1_565 S
Eu97 C126 2.828 1_556 S
C98 O116 1.244 . S
C98 O119 1.265 . S
C99 C100 1.379 1_655 S
C99 C103 1.373 . S
C99 C105 1.505 . S
C100 C99 1.379 1_455 S
C100 C102 1.369 . S
C100 H128 0.930 . S
C101 C103 1.383 . S
C101 C104 1.382 . S
C101 H129 0.930 . S
C102 C100 1.369 . S
C102 C104 1.392 1_455 S
C102 H130 0.930 . S
C103 C99 1.373 . S
C103 C101 1.383 . S
C103 H131 0.931 . S
C104 C101 1.382 . S
C104 C102 1.392 1_655 S
C105 Eu96 2.828 . S
C105 C99 1.505 . S
C105 O117 1.249 . S
C105 O118 1.244 . S
O106 Eu97 2.373 1_655 S
O106 C108 1.258 1_565 S
O107 Eu96 2.392 . S
O107 C108 1.241 . S
C108 O106 1.258 1_545 S
C108 O107 1.241 . S
O109 Eu96 2.418 1_565 S
O109 C113 1.244 . S
O110 Eu97 2.488 1_554 S
O110 C126 1.249 . S
O111 Eu97 2.471 . S
O111 C126 1.244 1_556 S
O112 Eu97 2.349 . S
O112 C113 1.265 1_455 S
C113 O109 1.244 . S
C113 O112 1.265 1_655 S
O114 Eu96 2.373 1_455 S
O114 C127 1.258 . S
O115 Eu97 2.392 1_545 S
O115 C127 1.242 . S
O116 Eu97 2.418 1_545 S
O116 C98 1.244 . S
O117 Eu96 2.488 . S
O117 C105 1.249 . S
O118 Eu96 2.471 . S
O118 C105 1.244 . S
O119 Eu96 2.349 1_455 S
O119 C98 1.265 . S
C120 C121 1.379 . S
C120 C124 1.373 . S
C120 C126 1.505 . S
C121 C120 1.379 . S
C121 C123 1.369 . S
C121 H132 0.929 . S
C122 C124 1.383 . S
C122 C125 1.382 . S
C122 H133 0.930 . S
C123 C121 1.369 . S
C123 C125 1.392 . S
C123 H134 0.930 1_455 S
C124 C120 1.373 . S
C124 C122 1.383 . S
C124 H135 0.931 . S
C125 C122 1.382 . S
C125 C123 1.392 . S
C126 Eu97 2.828 1_554 S
C126 O110 1.249 . S
C126 O111 1.244 1_554 S
C126 C120 1.505 . S
C127 O114 1.258 . S
C127 O115 1.242 . S
H128 C100 0.930 . S
H129 C101 0.930 . S
H130 C102 0.930 . S
H131 C103 0.931 . S
H132 C121 0.929 . S
H133 C122 0.930 . S
H134 C123 0.930 1_655 S
H135 C124 0.931 . S
Eu136 C145 2.828 . S
Eu136 O147 2.392 . S
Eu136 O149 2.418 . S
Eu136 O154 2.373 . S
Eu136 O157 2.488 . S
Eu136 O158 2.470 1_556 S
Eu136 O159 2.349 1_545 S
Eu137 O146 2.373 1_565 S
Eu137 O150 2.488 . S
Eu137 O151 2.471 1_565 S
Eu137 O152 2.349 1_565 S
Eu137 O155 2.392 . S
Eu137 O156 2.418 . S
Eu137 C166 2.828 . S
C138 O156 1.244 . S
C138 O159 1.265 . S
C139 C140 1.379 . S
C139 C143 1.373 . S
C139 C145 1.505 1_554 S
C140 C139 1.379 . S
C140 C142 1.369 . S
C140 H168 0.930 1_545 S
C141 C143 1.383 . S
C141 C144 1.382 . S
C141 H169 0.930 . S
C142 C140 1.369 . S
C142 C144 1.392 . S
C142 H170 0.930 1_545 S
C143 C139 1.373 . S
C143 C141 1.383 . S
C143 H171 0.931 . S
C144 C141 1.382 . S
C144 C142 1.392 . S
C145 Eu136 2.828 . S
C145 C139 1.505 1_556 S
C145 O157 1.249 . S
C145 O158 1.244 1_556 S
O146 Eu137 2.373 1_545 S
O146 C148 1.258 . S
O147 Eu136 2.392 . S
O147 C148 1.242 . S
C148 O146 1.258 . S
C148 O147 1.242 . S
O149 Eu136 2.418 . S
O149 C153 1.244 . S
O150 Eu137 2.488 . S
O150 C166 1.249 . S
O151 Eu137 2.471 1_545 S
O151 C166 1.244 1_545 S
O152 Eu137 2.349 1_545 S
O152 C153 1.265 . S
C153 O149 1.244 . S
C153 O152 1.265 . S
O154 Eu136 2.373 . S
O154 C167 1.258 1_545 S
O155 Eu137 2.392 . S
O155 C167 1.242 . S
O156 Eu137 2.418 . S
O156 C138 1.244 . S
O157 Eu136 2.488 . S
O157 C145 1.249 . S
O158 Eu136 2.470 1_554 S
O158 C145 1.244 1_554 S
O159 Eu136 2.349 1_565 S
O159 C138 1.265 . S
C160 C161 1.379 1_565 S
C160 C164 1.373 . S
C160 C166 1.505 . S
C161 C160 1.379 1_545 S
C161 C163 1.369 . S
C161 H172 0.930 . S
C162 C164 1.383 . S
C162 C165 1.382 . S
C162 H173 0.930 . S
C163 C161 1.369 . S
C163 C165 1.392 1_545 S
C163 H174 0.930 . S
C164 C160 1.373 . S
C164 C162 1.383 . S
C164 H175 0.931 . S
C165 C162 1.382 . S
C165 C163 1.392 1_565 S
C166 Eu137 2.828 . S
C166 O150 1.249 . S
C166 O151 1.244 1_565 S
C166 C160 1.505 . S
C167 O154 1.258 1_565 S
C167 O155 1.242 . S
H168 C140 0.930 1_565 S
H169 C141 0.930 . S
H170 C142 0.930 1_565 S
H171 C143 0.931 . S
H172 C161 0.930 . S
H173 C162 0.930 . S
H174 C163 0.930 . S
H175 C164 0.931 . S
Eu176 C185 2.828 . S
Eu176 O187 2.392 . S
Eu176 O189 2.418 . S
Eu176 O194 2.373 . S
Eu176 O197 2.488 . S
Eu176 O198 2.471 . S
Eu176 O199 2.349 . S
Eu177 O186 2.373 . S
Eu177 O190 2.488 . S
Eu177 O191 2.471 . S
Eu177 O192 2.349 . S
Eu177 O195 2.392 . S
Eu177 O196 2.418 . S
Eu177 C206 2.828 . S
C178 O196 1.244 . S
C178 O199 1.265 . S
C179 C180 1.379 . S
C179 C183 1.373 . S
C179 C185 1.505 1_554 S
C180 C179 1.379 . S
C180 C182 1.369 . S
C180 H208 0.930 . S
C181 C183 1.383 . S
C181 C184 1.382 . S
C181 H209 0.930 . S
C182 C180 1.369 . S
C182 C184 1.392 . S
C182 H210 0.930 . S
C183 C179 1.373 . S
C183 C181 1.383 . S
C183 H211 0.931 . S
C184 C181 1.382 . S
C184 C182 1.392 . S
C185 Eu176 2.828 . S
C185 C179 1.505 1_556 S
C185 O197 1.249 . S
C185 O198 1.244 . S
O186 Eu177 2.373 . S
O186 C188 1.258 . S
O187 Eu176 2.392 . S
O187 C188 1.242 . S
C188 O186 1.258 . S
C188 O187 1.242 . S
O189 Eu176 2.418 . S
O189 C193 1.244 . S
O190 Eu177 2.488 . S
O190 C206 1.249 . S
O191 Eu177 2.471 . S
O191 C206 1.244 . S
O192 Eu177 2.349 . S
O192 C193 1.265 . S
C193 O189 1.244 . S
C193 O192 1.265 . S
O194 Eu176 2.373 . S
O194 C207 1.258 . S
O195 Eu177 2.392 . S
O195 C207 1.242 . S
O196 Eu177 2.418 . S
O196 C178 1.244 . S
O197 Eu176 2.488 . S
O197 C185 1.249 . S
O198 Eu176 2.471 . S
O198 C185 1.244 . S
O199 Eu176 2.349 . S
O199 C178 1.265 . S
C200 C201 1.379 . S
C200 C204 1.373 . S
C200 C206 1.505 . S
C201 C200 1.379 . S
C201 C203 1.369 . S
C201 H212 0.930 . S
C202 C204 1.383 . S
C202 C205 1.382 . S
C202 H213 0.930 . S
C203 C201 1.369 . S
C203 C205 1.392 . S
C203 H214 0.930 . S
C204 C200 1.373 . S
C204 C202 1.383 . S
C204 H215 0.931 . S
C205 C202 1.382 . S
C205 C203 1.392 . S
C206 Eu177 2.828 . S
C206 O190 1.249 . S
C206 O191 1.244 . S
C206 C200 1.505 . S
C207 O194 1.258 . S
C207 O195 1.242 . S
H208 C180 0.930 . S
H209 C181 0.930 . S
H210 C182 0.930 . S
H211 C183 0.931 . S
H212 C201 0.930 . S
H213 C202 0.930 . S
H214 C203 0.930 . S
H215 C204 0.931 . S
Eu216 C225 2.828 . S
Eu216 O227 2.392 . S
Eu216 O229 2.418 1_455 S
Eu216 O234 2.373 . S
Eu216 O237 2.488 . S
Eu216 O238 2.471 . S
Eu216 O239 2.349 . S
Eu217 O226 2.373 . S
Eu217 O230 2.488 1_556 S
Eu217 O231 2.471 . S
Eu217 O232 2.349 . S
Eu217 O235 2.392 1_655 S
Eu217 O236 2.418 1_655 S
Eu217 C246 2.828 1_556 S
C218 O236 1.244 . S
C218 O239 1.265 . S
C219 C220 1.379 . S
C219 C223 1.373 . S
C219 C225 1.505 . S
C220 C219 1.379 . S
C220 C222 1.369 . S
C220 H248 0.930 . S
C221 C223 1.383 . S
C221 C224 1.382 . S
C221 H249 0.930 . S
C222 C220 1.369 . S
C222 C224 1.392 . S
C222 H250 0.930 . S
C223 C219 1.373 . S
C223 C221 1.383 . S
C223 H251 0.931 . S
C224 C221 1.382 . S
C224 C222 1.392 . S
C225 Eu216 2.828 . S
C225 C219 1.505 . S
C225 O237 1.249 . S
C225 O238 1.244 . S
O226 Eu217 2.373 . S
O226 C228 1.261 . S
O227 Eu216 2.392 . S
O227 C228 1.234 1_455 S
C228 O226 1.261 . S
C228 O227 1.234 1_655 S
O229 Eu216 2.418 1_655 S
O229 C233 1.244 . S
O230 Eu217 2.488 1_554 S
O230 C246 1.249 . S
O231 Eu217 2.471 . S
O231 C246 1.244 1_556 S
O232 Eu217 2.349 . S
O232 C233 1.265 . S
C233 O229 1.244 . S
C233 O232 1.265 . S
O234 Eu216 2.373 . S
O234 C247 1.258 . S
O235 Eu217 2.392 1_455 S
O235 C247 1.242 . S
O236 Eu217 2.418 1_455 S
O236 C218 1.244 . S
O237 Eu216 2.488 . S
O237 C225 1.249 . S
O238 Eu216 2.471 . S
O238 C225 1.244 . S
O239 Eu216 2.349 . S
O239 C218 1.265 . S
C240 C241 1.379 . S
C240 C244 1.373 . S
C240 C246 1.505 . S
C241 C240 1.379 . S
C241 C243 1.369 . S
C241 H252 0.930 . S
C242 C244 1.383 . S
C242 C245 1.382 . S
C242 H253 0.930 . S
C243 C241 1.369 . S
C243 C245 1.392 . S
C243 H254 0.930 . S
C244 C240 1.373 . S
C244 C242 1.383 . S
C244 H255 0.931 . S
C245 C242 1.382 . S
C245 C243 1.392 . S
C246 Eu217 2.828 1_554 S
C246 O230 1.249 . S
C246 O231 1.244 1_554 S
C246 C240 1.505 . S
C247 O234 1.258 . S
C247 O235 1.242 . S
H248 C220 0.930 . S
H249 C221 0.930 . S
H250 C222 0.930 . S
H251 C223 0.931 . S
H252 C241 0.930 . S
H253 C242 0.930 . S
H254 C243 0.930 . S
H255 C244 0.931 . S
C256 C257 1.363 . S
C256 C262 1.381 . S
C256 N264 1.356 1_545 S
C257 C256 1.363 . S
C257 C263 1.363 . S
C258 C259 1.363 . S
C258 C263 1.379 . S
C258 N265 1.356 . S
C259 C258 1.363 . S
C259 C262 1.385 . S
N260 C262 1.337 1_565 S
N260 H272 0.984 . S
N260 H273 0.985 . S
N261 C263 1.356 . S
N261 H266 0.984 . S
N261 H267 0.985 . S
C262 C256 1.381 . S
C262 C259 1.385 . S
C262 N260 1.337 1_545 S
C263 C257 1.363 . S
C263 C258 1.379 . S
C263 N261 1.356 . S
N264 C256 1.356 1_565 S
N264 H270 0.984 . S
N264 H271 0.984 . S
N265 C258 1.356 . S
N265 H268 0.984 . S
N265 H269 0.985 . S
H266 N261 0.984 . S
H267 N261 0.985 . S
H268 N265 0.984 . S
H269 N265 0.985 . S
H270 N264 0.984 . S
H271 N264 0.984 . S
H272 N260 0.984 . S
H273 N260 0.985 . S
C274 C275 1.363 . S
C274 C280 1.379 . S
C274 N282 1.356 . S
C275 C274 1.363 . S
C275 C281 1.363 . S
C276 C277 1.363 . S
C276 C281 1.379 . S
C276 N283 1.356 . S
C277 C276 1.363 . S
C277 C280 1.363 . S
N278 C280 1.356 . S
N278 H290 0.984 . S
N278 H291 0.985 . S
N279 C281 1.356 . S
N279 H284 0.984 . S
N279 H285 0.985 . S
C280 C274 1.379 . S
C280 C277 1.363 . S
C280 N278 1.356 . S
C281 C275 1.363 . S
C281 C276 1.379 . S
C281 N279 1.356 . S
N282 C274 1.356 . S
N282 H288 0.984 . S
N282 H289 0.984 . S
N283 C276 1.356 . S
N283 H286 0.984 . S
N283 H287 0.985 . S
H284 N279 0.984 . S
H285 N279 0.985 . S
H286 N283 0.984 . S
H287 N283 0.985 . S
H288 N282 0.984 . S
H289 N282 0.984 . S
H290 N278 0.984 . S
H291 N278 0.985 . S
C292 C293 1.363 . S
C292 C298 1.379 . S
C292 N300 1.356 . S
C293 C292 1.363 . S
C293 C299 1.363 . S
C294 C295 1.363 . S
C294 C299 1.379 . S
C294 N301 1.356 . S
C295 C294 1.363 . S
C295 C298 1.363 . S
N296 C298 1.356 . S
N296 H308 0.984 . S
N296 H309 0.985 . S
N297 C299 1.356 . S
N297 H302 0.984 . S
N297 H303 0.985 . S
C298 C292 1.379 . S
C298 C295 1.363 . S
C298 N296 1.356 . S
C299 C293 1.363 . S
C299 C294 1.379 . S
C299 N297 1.356 . S
N300 C292 1.356 . S
N300 H306 0.984 . S
N300 H307 0.984 . S
N301 C294 1.356 . S
N301 H304 0.984 . S
N301 H305 0.985 . S
H302 N297 0.984 . S
H303 N297 0.985 . S
H304 N301 0.984 . S
H305 N301 0.985 . S
H306 N300 0.984 . S
H307 N300 0.984 . S
H308 N296 0.984 . S
H309 N296 0.985 . S
C310 C311 1.363 . S
C310 C316 1.379 . S
C310 N318 1.356 . S
C311 C310 1.363 . S
C311 C317 1.363 . S
C312 C313 1.363 . S
C312 C317 1.379 . S
C312 N319 1.356 . S
C313 C312 1.363 . S
C313 C316 1.363 . S
N314 C316 1.356 . S
N314 H326 0.984 . S
N314 H327 0.985 . S
N315 C317 1.356 . S
N315 H320 0.984 . S
N315 H321 0.985 . S
C316 C310 1.379 . S
C316 C313 1.363 . S
C316 N314 1.356 . S
C317 C311 1.363 . S
C317 C312 1.379 . S
C317 N315 1.356 . S
N318 C310 1.356 . S
N318 H324 0.984 . S
N318 H325 0.984 . S
N319 C312 1.356 . S
N319 H322 0.984 . S
N319 H323 0.985 . S
H320 N315 0.984 . S
H321 N315 0.985 . S
H322 N319 0.984 . S
H323 N319 0.985 . S
H324 N318 0.984 . S
H325 N318 0.984 . S
H326 N314 0.984 . S
H327 N314 0.985 . S
C328 C329 1.363 1_545 S
C328 C334 1.379 . S
C328 N336 1.356 . S
C329 C328 1.363 1_565 S
C329 C335 1.363 . S
C330 C331 1.363 . S
C330 C335 1.379 . S
C330 N337 1.356 . S
C331 C330 1.363 . S
C331 C334 1.363 1_565 S
N332 C334 1.356 . S
N332 H344 0.984 . S
N332 H345 0.985 1_554 S
N333 C335 1.356 . S
N333 H338 0.984 . S
N333 H339 0.985 . S
C334 C328 1.379 . S
C334 C331 1.363 1_545 S
C334 N332 1.356 . S
C335 C329 1.363 . S
C335 C330 1.379 . S
C335 N333 1.356 . S
N336 C328 1.356 . S
N336 H342 0.984 . S
N336 H343 0.984 . S
N337 C330 1.356 . S
N337 H340 0.984 1_554 S
N337 H341 0.985 . S
H338 N333 0.984 . S
H339 N333 0.985 . S
H340 N337 0.984 1_556 S
H341 N337 0.985 . S
H342 N336 0.984 . S
H343 N336 0.984 . S
H344 N332 0.984 . S
H345 N332 0.985 1_556 S
C346 C347 1.363 . S
C346 C352 1.379 . S
C346 N354 1.356 . S
C347 C346 1.363 . S
C347 C353 1.363 . S
C348 C349 1.363 . S
C348 C353 1.379 . S
C348 N355 1.356 1_554 S
C349 C348 1.363 . S
C349 C352 1.363 . S
N350 C352 1.356 . S
N350 H362 0.984 . S
N350 H363 0.985 1_554 S
N351 C353 1.356 . S
N351 H356 0.984 . S
N351 H357 0.985 . S
C352 C346 1.379 . S
C352 C349 1.363 . S
C352 N350 1.356 . S
C353 C347 1.363 . S
C353 C348 1.379 . S
C353 N351 1.356 . S
N354 C346 1.356 . S
N354 H360 0.984 . S
N354 H361 0.984 . S
N355 C348 1.356 1_556 S
N355 H358 0.984 . S
N355 H359 0.985 . S
H356 N351 0.984 . S
H357 N351 0.985 . S
H358 N355 0.984 . S
H359 N355 0.985 . S
H360 N354 0.984 . S
H361 N354 0.984 . S
H362 N350 0.984 . S
H363 N350 0.985 1_556 S
C364 C365 1.363 . S
C364 C370 1.379 . S
C364 N372 1.356 . S
C365 C364 1.363 . S
C365 C371 1.363 . S
C366 C367 1.363 . S
C366 C371 1.379 . S
C366 N373 1.356 . S
C367 C366 1.363 . S
C367 C370 1.363 . S
N368 C370 1.356 1_556 S
N368 H380 0.984 . S
N368 H381 0.985 . S
N369 C371 1.356 . S
N369 H374 0.984 . S
N369 H375 0.985 . S
C370 C364 1.379 . S
C370 C367 1.363 . S
C370 N368 1.356 1_554 S
C371 C365 1.363 . S
C371 C366 1.379 . S
C371 N369 1.356 . S
N372 C364 1.356 . S
N372 H378 0.984 . S
N372 H379 0.984 . S
N373 C366 1.356 . S
N373 H376 0.984 1_554 S
N373 H377 0.985 . S
H374 N369 0.984 . S
H375 N369 0.985 . S
H376 N373 0.984 1_556 S
H377 N373 0.985 . S
H378 N372 0.984 . S
H379 N372 0.984 . S
H380 N368 0.984 . S
H381 N368 0.985 . S
C382 C383 1.363 . S
C382 C388 1.379 . S
C382 N390 1.356 . S
C383 C382 1.363 . S
C383 C389 1.363 1_655 S
C384 C385 1.363 1_455 S
C384 C389 1.379 . S
C384 N391 1.356 . S
C385 C384 1.363 1_655 S
C385 C388 1.363 . S
N386 C388 1.356 1_556 S
N386 H398 0.984 . S
N386 H399 0.985 . S
N387 C389 1.356 . S
N387 H392 0.984 . S
N387 H393 0.985 . S
C388 C382 1.379 . S
C388 C385 1.363 . S
C388 N386 1.356 1_554 S
C389 C383 1.363 1_455 S
C389 C384 1.379 . S
C389 N387 1.356 . S
N390 C382 1.356 . S
N390 H396 0.984 . S
N390 H397 0.984 . S
N391 C384 1.356 . S
N391 H394 0.984 1_554 S
N391 H395 0.985 . S
H392 N387 0.984 . S
H393 N387 0.985 . S
H394 N391 0.984 1_556 S
H395 N391 0.985 . S
H396 N390 0.984 . S
H397 N390 0.984 . S
H398 N386 0.984 . S
H399 N386 0.985 . S
C400 C401 1.363 . S
C400 C406 1.379 . S
C400 N408 1.356 . S
C401 C400 1.363 . S
C401 C407 1.363 . S
C402 C403 1.363 1_655 S
C402 C407 1.379 1_655 S
C402 N409 1.356 . S
C403 C402 1.363 1_455 S
C403 C406 1.363 . S
N404 C406 1.356 . S
N404 H416 0.984 . S
N404 H417 0.985 . S
N405 C407 1.356 . S
N405 H410 0.984 . S
N405 H411 0.985 1_554 S
C406 C400 1.379 . S
C406 C403 1.363 . S
C406 N404 1.356 . S
C407 C401 1.363 . S
C407 C402 1.379 1_455 S
C407 N405 1.356 . S
N408 C400 1.356 . S
N408 H414 0.984 . S
N408 H415 0.984 . S
N409 C402 1.356 . S
N409 H412 0.984 . S
N409 H413 0.985 1_554 S
H410 N405 0.984 . S
H411 N405 0.985 1_556 S
H412 N409 0.984 . S
H413 N409 0.985 1_556 S
H414 N408 0.984 . S
H415 N408 0.984 . S
H416 N404 0.984 . S
H417 N404 0.985 . S
C418 C419 1.363 1_565 S
C418 C424 1.379 . S
C418 N426 1.356 1_565 S
C419 C418 1.363 1_545 S
C419 C425 1.363 . S
C420 C421 1.363 1_545 S
C420 C425 1.379 . S
C420 N427 1.356 . S
C421 C420 1.363 1_565 S
C421 C424 1.363 . S
N422 C424 1.356 . S
N422 H434 0.984 . S
N422 H435 0.985 . S
N423 C425 1.356 . S
N423 H428 0.984 . S
N423 H429 0.985 . S
C424 C418 1.379 . S
C424 C421 1.363 . S
C424 N422 1.356 . S
C425 C419 1.363 . S
C425 C420 1.379 . S
C425 N423 1.356 . S
N426 C418 1.356 1_545 S
N426 H432 0.977 1_545 S
N426 H433 0.993 . S
N427 C420 1.356 . S
N427 H430 0.984 1_545 S
N427 H431 0.985 . S
H428 N423 0.984 . S
H429 N423 0.985 . S
H430 N427 0.984 1_565 S
H431 N427 0.985 . S
H432 N426 0.977 1_565 S
H433 N426 0.993 . S
H434 N422 0.984 . S
H435 N422 0.985 . S
C436 C437 1.363 . S
C436 C442 1.379 . S
C436 N444 1.356 . S
C437 C436 1.363 . S
C437 C443 1.363 . S
C438 C439 1.363 . S
C438 C443 1.379 . S
C438 N445 1.356 . S
C439 C438 1.363 . S
C439 C442 1.363 . S
N440 C442 1.356 . S
N440 H452 0.984 . S
N440 H453 0.985 . S
N441 C443 1.356 . S
N441 H446 0.984 . S
N441 H447 0.985 . S
C442 C436 1.379 . S
C442 C439 1.363 . S
C442 N440 1.356 . S
C443 C437 1.363 . S
C443 C438 1.379 . S
C443 N441 1.356 . S
N444 C436 1.356 . S
N444 H450 0.984 . S
N444 H451 0.984 . S
N445 C438 1.356 . S
N445 H448 0.984 . S
N445 H449 0.985 . S
H446 N441 0.984 . S
H447 N441 0.985 . S
H448 N445 0.984 . S
H449 N445 0.985 . S
H450 N444 0.984 . S
H451 N444 0.984 . S
H452 N440 0.984 . S
H453 N440 0.985 . S
C454 C455 1.363 . S
C454 C460 1.379 . S
C454 N462 1.356 . S
C455 C454 1.363 . S
C455 C461 1.363 . S
C456 C457 1.363 . S
C456 C461 1.379 . S
C456 N463 1.356 . S
C457 C456 1.363 . S
C457 C460 1.363 . S
N458 C460 1.356 . S
N458 H470 0.984 . S
N458 H471 0.985 . S
N459 C461 1.356 . S
N459 H464 0.984 . S
N459 H465 0.985 . S
C460 C454 1.379 . S
C460 C457 1.363 . S
C460 N458 1.356 . S
C461 C455 1.363 . S
C461 C456 1.379 . S
C461 N459 1.356 . S
N462 C454 1.356 . S
N462 H468 0.984 . S
N462 H469 0.984 . S
N463 C456 1.356 . S
N463 H466 0.984 . S
N463 H467 0.985 1_554 S
H464 N459 0.984 . S
H465 N459 0.985 . S
H466 N463 0.984 . S
H467 N463 0.985 1_556 S
H468 N462 0.984 . S
H469 N462 0.984 . S
H470 N458 0.984 . S
H471 N458 0.985 . S
C472 C473 1.363 . S
C472 C478 1.379 . S
C472 N480 1.356 . S
C473 C472 1.363 . S
C473 C479 1.344 1_655 S
C474 C475 1.363 . S
C474 C479 1.395 . S
C474 N481 1.356 . S
C475 C474 1.363 . S
C475 C478 1.363 1_455 S
N476 C478 1.356 1_455 S
N476 H488 0.984 1_455 S
N476 H489 0.985 . S
N477 C479 1.354 1_655 S
N477 H482 0.984 . S
N477 H483 0.985 1_655 S
C478 C472 1.379 . S
C478 C475 1.363 1_655 S
C478 N476 1.356 1_655 S
C479 C473 1.344 1_455 S
C479 C474 1.395 . S
C479 N477 1.354 1_455 S
N480 C472 1.356 . S
N480 H486 0.984 . S
N480 H487 0.984 . S
N481 C474 1.356 . S
N481 H484 0.984 . S
N481 H485 0.985 . S
H482 N477 0.984 . S
H483 N477 0.985 1_455 S
H484 N481 0.984 . S
H485 N481 0.985 . S
H486 N480 0.984 . S
H487 N480 0.984 . S
H488 N476 0.984 1_655 S
H489 N476 0.985 . S
C490 C491 1.363 . S
C490 C496 1.379 1_565 S
C490 N498 1.356 . S
C491 C490 1.363 . S
C491 C497 1.363 1_565 S
C492 C493 1.363 . S
C492 C497 1.379 . S
C492 N499 1.356 . S
C493 C492 1.363 . S
C493 C496 1.363 . S
N494 C496 1.356 . S
N494 H506 0.984 . S
N494 H507 0.985 . S
N495 C497 1.360 . S
N495 H500 0.975 1_545 S
N495 H501 0.991 . S
C496 C490 1.379 1_545 S
C496 C493 1.363 . S
C496 N494 1.356 . S
C497 C491 1.363 1_545 S
C497 C492 1.379 . S
C497 N495 1.360 . S
N498 C490 1.356 . S
N498 H504 0.984 . S
N498 H505 0.984 . S
N499 C492 1.356 . S
N499 H502 0.984 . S
N499 H503 0.985 . S
H500 N495 0.975 1_565 S
H501 N495 0.991 . S
H502 N499 0.984 . S
H503 N499 0.985 . S
H504 N498 0.984 . S
H505 N498 0.984 . S
H506 N494 0.984 . S
H507 N494 0.985 . S
C508 C509 1.363 . S
C508 C514 1.379 . S
C508 N516 1.356 . S
C509 C508 1.363 . S
C509 C515 1.363 . S
C510 C511 1.363 . S
C510 C515 1.379 . S
C510 N517 1.356 . S
C511 C510 1.363 . S
C511 C514 1.363 . S
N512 C514 1.356 . S
N512 H524 0.984 . S
N512 H525 0.985 . S
N513 C515 1.356 . S
N513 H518 0.984 . S
N513 H519 0.985 . S
C514 C508 1.379 . S
C514 C511 1.363 . S
C514 N512 1.356 . S
C515 C509 1.363 . S
C515 C510 1.379 . S
C515 N513 1.356 . S
N516 C508 1.356 . S
N516 H522 0.984 . S
N516 H523 0.984 . S
N517 C510 1.356 . S
N517 H520 0.984 1_554 S
N517 H521 0.985 1_554 S
H518 N513 0.984 . S
H519 N513 0.985 . S
H520 N517 0.984 1_556 S
H521 N517 0.985 1_556 S
H522 N516 0.984 . S
H523 N516 0.984 . S
H524 N512 0.984 . S
H525 N512 0.985 . S
C526 C527 1.363 . S
C526 C532 1.379 . S
C526 N534 1.356 . S
C527 C526 1.363 . S
C527 C533 1.363 . S
C528 C529 1.363 . S
C528 C533 1.379 . S
C528 N535 1.356 . S
C529 C528 1.363 . S
C529 C532 1.363 . S
N530 C532 1.356 . S
N530 H542 0.984 . S
N530 H543 0.985 . S
N531 C533 1.356 . S
N531 H536 0.984 . S
N531 H537 0.985 . S
C532 C526 1.379 . S
C532 C529 1.363 . S
C532 N530 1.356 . S
C533 C527 1.363 . S
C533 C528 1.379 . S
C533 N531 1.356 . S
N534 C526 1.356 . S
N534 H540 0.984 . S
N534 H541 0.984 . S
N535 C528 1.356 . S
N535 H538 0.984 . S
N535 H539 0.985 . S
H536 N531 0.984 . S
H537 N531 0.985 . S
H538 N535 0.984 . S
H539 N535 0.985 . S
H540 N534 0.984 . S
H541 N534 0.984 . S
H542 N530 0.984 . S
H543 N530 0.985 . S
C544 C545 1.363 . S
C544 C550 1.379 . S
C544 N552 1.356 1_556 S
C545 C544 1.363 . S
C545 C551 1.363 . S
C546 C547 1.363 . S
C546 C551 1.379 . S
C546 N553 1.356 . S
C547 C546 1.363 . S
C547 C550 1.363 . S
N548 C550 1.356 1_554 S
N548 H560 0.984 . S
N548 H561 0.985 1_554 S
N549 C551 1.356 . S
N549 H554 0.984 . S
N549 H555 0.985 1_455 S
C550 C544 1.379 . S
C550 C547 1.363 . S
C550 N548 1.356 1_556 S
C551 C545 1.363 . S
C551 C546 1.379 . S
C551 N549 1.356 . S
N552 C544 1.356 1_554 S
N552 H558 0.984 . S
N552 H559 0.984 1_554 S
N553 C546 1.356 . S
N553 H556 0.984 . S
N553 H557 0.985 1_455 S
H554 N549 0.984 . S
H555 N549 0.985 1_655 S
H556 N553 0.984 . S
H557 N553 0.985 1_655 S
H558 N552 0.984 . S
H559 N552 0.984 1_556 S
H560 N548 0.984 . S
H561 N548 0.985 1_556 S
C562 C563 1.363 . S
C562 C568 1.379 . S
C562 N570 1.356 1_545 S
C563 C562 1.363 . S
C563 C569 1.363 . S
C564 C565 1.363 . S
C564 C569 1.379 . S
C564 N571 1.356 . S
C565 C564 1.363 . S
C565 C568 1.363 . S
N566 C568 1.356 1_565 S
N566 H578 0.984 . S
N566 H579 0.985 . S
N567 C569 1.356 . S
N567 H572 0.984 . S
N567 H573 0.985 . S
C568 C562 1.379 . S
C568 C565 1.363 . S
C568 N566 1.356 1_545 S
C569 C563 1.363 . S
C569 C564 1.379 . S
C569 N567 1.356 . S
N570 C562 1.356 1_565 S
N570 H576 0.984 . S
N570 H577 0.984 . S
N571 C564 1.356 . S
N571 H574 0.984 . S
N571 H575 0.985 . S
H572 N567 0.984 . S
H573 N567 0.985 . S
H574 N571 0.984 . S
H575 N571 0.985 . S
H576 N570 0.984 . S
H577 N570 0.984 . S
H578 N566 0.984 . S
H579 N566 0.985 . S
C580 C581 1.363 . S
C580 C586 1.379 . S
C580 N588 1.356 1_556 S
C581 C580 1.363 . S
C581 C587 1.363 . S
C582 C583 1.363 . S
C582 C587 1.379 . S
C582 N589 1.356 . S
C583 C582 1.363 . S
C583 C586 1.363 . S
N584 C586 1.356 1_554 S
N584 H596 0.984 . S
N584 H597 0.985 1_554 S
N585 C587 1.356 . S
N585 H590 0.984 . S
N585 H591 0.985 . S
C586 C580 1.379 . S
C586 C583 1.363 . S
C586 N584 1.356 1_556 S
C587 C581 1.363 . S
C587 C582 1.379 . S
C587 N585 1.356 . S
N588 C580 1.356 1_554 S
N588 H594 0.984 . S
N588 H595 0.984 . S
N589 C582 1.356 . S
N589 H592 0.984 . S
N589 H593 0.985 . S
H590 N585 0.984 . S
H591 N585 0.985 . S
H592 N589 0.984 . S
H593 N589 0.985 . S
H594 N588 0.984 . S
H595 N588 0.984 . S
H596 N584 0.984 . S
H597 N584 0.985 1_556 S
C598 C599 1.363 . S
C598 C604 1.379 . S
C598 N606 1.356 . S
C599 C598 1.363 . S
C599 C605 1.363 . S
C600 C601 1.363 . S
C600 C605 1.379 . S
C600 N607 1.356 . S
C601 C600 1.363 . S
C601 C604 1.363 . S
N602 C604 1.356 . S
N602 H614 0.984 1_556 S
N602 H615 0.985 . S
N603 C605 1.356 . S
N603 H608 0.984 . S
N603 H609 0.985 . S
C604 C598 1.379 . S
C604 C601 1.363 . S
C604 N602 1.356 . S
C605 C599 1.363 . S
C605 C600 1.379 . S
C605 N603 1.356 . S
N606 C598 1.356 . S
N606 H612 0.984 1_556 S
N606 H613 0.984 . S
N607 C600 1.356 . S
N607 H610 0.984 . S
N607 H611 0.985 . S
H608 N603 0.984 . S
H609 N603 0.985 . S
H610 N607 0.984 . S
H611 N607 0.985 . S
H612 N606 0.984 1_554 S
H613 N606 0.984 . S
H614 N602 0.984 1_554 S
H615 N602 0.985 . S
C616 C617 1.363 . S
C616 C622 1.379 . S
C616 N624 1.356 . S
C617 C616 1.363 . S
C617 C623 1.363 . S
C618 C619 1.373 . S
C618 C623 1.381 . S
C618 N625 1.347 1_655 S
C619 C618 1.373 . S
C619 C622 1.363 . S
N620 C622 1.356 . S
N620 H632 0.984 . S
N620 H633 0.985 . S
N621 C623 1.356 1_455 S
N621 H626 0.984 1_455 S
N621 H627 0.985 . S
C622 C616 1.379 . S
C622 C619 1.363 . S
C622 N620 1.356 . S
C623 C617 1.363 . S
C623 C618 1.381 . S
C623 N621 1.356 1_655 S
N624 C616 1.356 . S
N624 H630 0.984 . S
N624 H631 0.984 . S
N625 C618 1.347 1_455 S
N625 H628 0.984 . S
N625 H629 0.985 . S
H626 N621 0.984 1_655 S
H627 N621 0.985 . S
H628 N625 0.984 . S
H629 N625 0.985 . S
H630 N624 0.984 . S
H631 N624 0.984 . S
H632 N620 0.984 . S
H633 N620 0.985 . S
C634 C635 1.363 . S
C634 C640 1.379 . S
C634 N642 1.356 . S
C635 C634 1.363 . S
C635 C641 1.363 1_565 S
C636 C637 1.363 1_545 S
C636 C641 1.379 . S
C636 N643 1.356 . S
C637 C636 1.363 1_565 S
C637 C640 1.363 . S
N638 C640 1.356 . S
N638 H650 0.984 . S
N638 H651 0.985 . S
N639 C641 1.356 . S
N639 H644 0.984 . S
N639 H645 0.985 . S
C640 C634 1.379 . S
C640 C637 1.363 . S
C640 N638 1.356 . S
C641 C635 1.363 1_545 S
C641 C636 1.379 . S
C641 N639 1.356 . S
N642 C634 1.356 . S
N642 H648 0.984 . S
N642 H649 0.984 . S
N643 C636 1.356 . S
N643 H646 0.984 . S
N643 H647 0.985 . S
H644 N639 0.984 . S
H645 N639 0.985 . S
H646 N643 0.984 . S
H647 N643 0.985 . S
H648 N642 0.984 . S
H649 N642 0.984 . S
H650 N638 0.984 . S
H651 N638 0.985 . S
C652 C653 1.363 . S
C652 C658 1.379 . S
C652 N660 1.356 . S
C653 C652 1.363 . S
C653 C659 1.363 . S
C654 C655 1.363 . S
C654 C659 1.379 . S
C654 N661 1.356 . S
C655 C654 1.363 . S
C655 C658 1.363 . S
N656 C658 1.356 . S
N656 H668 0.984 . S
N656 H669 0.985 . S
N657 C659 1.356 . S
N657 H662 0.984 . S
N657 H663 0.985 . S
C658 C652 1.379 . S
C658 C655 1.363 . S
C658 N656 1.356 . S
C659 C653 1.363 . S
C659 C654 1.379 . S
C659 N657 1.356 . S
N660 C652 1.356 . S
N660 H666 0.984 . S
N660 H667 0.984 . S
N661 C654 1.356 . S
N661 H664 0.984 . S
N661 H665 0.985 . S
H662 N657 0.984 . S
H663 N657 0.985 . S
H664 N661 0.984 . S
H665 N661 0.985 . S
H666 N660 0.984 . S
H667 N660 0.984 . S
H668 N656 0.984 . S
H669 N656 0.985 . S
C670 C671 1.363 . S
C670 C676 1.379 . S
C670 N678 1.356 . S
C671 C670 1.363 . S
C671 C677 1.363 . S
C672 C673 1.363 . S
C672 C677 1.379 . S
C672 N679 1.356 . S
C673 C672 1.363 . S
C673 C676 1.363 . S
N674 C676 1.356 . S
N674 H686 0.984 . S
N674 H687 0.985 . S
N675 C677 1.356 . S
N675 H680 0.984 . S
N675 H681 0.985 . S
C676 C670 1.379 . S
C676 C673 1.363 . S
C676 N674 1.356 . S
C677 C671 1.363 . S
C677 C672 1.379 . S
C677 N675 1.356 . S
N678 C670 1.356 . S
N678 H684 0.984 . S
N678 H685 0.984 . S
N679 C672 1.356 . S
N679 H682 0.984 . S
N679 H683 0.985 . S
H680 N675 0.984 . S
H681 N675 0.985 . S
H682 N679 0.984 . S
H683 N679 0.985 . S
H684 N678 0.984 . S
H685 N678 0.984 . S
H686 N674 0.984 . S
H687 N674 0.985 . S
C257 C76 2.198 . S
C259 C127 2.484 . S
C277 C153 2.215 . S
C275 C88 1.901 . S
C295 C193 2.206 . S
C293 C52 1.927 . S
C313 C247 2.472 . S
C311 C64 2.213 . S
C331 C108 2.484 1_564 S
C329 C28 2.202 . S
C347 C40 1.893 . S
C349 C138 2.215 1_554 S
C365 C4 1.931 . S
C367 C178 2.205 1_554 S
C383 C16 2.221 . S
C385 C228 2.477 1_554 S
C403 C104 0.883 1_455 S
C401 C69 0.874 . S
C421 C165 0.914 . S
C419 C81 0.932 . S
C439 C205 0.765 . S
C437 C93 0.767 . S
C455 C57 0.788 . S
C457 C224 0.793 . S
C473 C21 0.865 . S
C475 C125 0.883 . S
C493 C144 0.914 . S
C491 C33 0.922 . S
C511 C184 0.765 . S
C509 C45 0.766 . S
C527 C9 0.786 . S
C529 C245 0.793 . S
C545 C66 2.088 . S
C547 C98 2.421 . S
C563 C78 2.445 . S
C565 C148 2.727 . S
C583 C188 2.555 . S
C581 C90 2.283 . S
C601 C218 2.226 . S
C599 C54 1.916 . S
C617 C18 2.078 . S
C619 C113 2.421 . S
C637 C167 2.727 . S
C635 C30 2.445 . S
C655 C207 2.555 . S
C653 C42 2.301 . S
C671 C6 1.915 . S
C673 C233 2.225 . S
