# Generated by pormake.
# Topology hwx, (6,3)-cn, num edge types: 1
# Building blocks:
#     Node 0, Type 0, BuildingBlock: OJICUG_clean_sbu_0, # of connection points: 6
#     Node 1, Type 0, BuildingBlock: OJICUG_clean_sbu_0, # of connection points: 6
#     Node 2, Type 0, BuildingBlock: OJICUG_clean_sbu_0, # of connection points: 6
#     Node 3, Type 0, BuildingBlock: OJICUG_clean_sbu_0, # of connection points: 6
#     Node 4, Type 1, BuildingBlock: VETTIZ_charged_linker_0, # of connection points: 3
#     Node 5, Type 1, BuildingBlock: VETTIZ_charged_linker_0, # of connection points: 3
#     Node 6, Type 1, BuildingBlock: VETTIZ_charged_linker_0, # of connection points: 3
#     Node 7, Type 1, BuildingBlock: VETTIZ_charged_linker_0, # of connection points: 3
#     Node 8, Type 1, BuildingBlock: VETTIZ_charged_linker_0, # of connection points: 3
#     Node 9, Type 1, BuildingBlock: VETTIZ_charged_linker_0, # of connection points: 3
#     Node 10, Type 1, BuildingBlock: VETTIZ_charged_linker_0, # of connection points: 3
#     Node 11, Type 1, BuildingBlock: VETTIZ_charged_linker_0, # of connection points: 3
#     Edge 12, Type (0, 1), BuildingBlock: XUDNAN_clean_linker_2, # of connection points: 2
#     Edge 13, Type (0, 1), BuildingBlock: XUDNAN_clean_linker_2, # of connection points: 2
#     Edge 14, Type (0, 1), BuildingBlock: XUDNAN_clean_linker_2, # of connection points: 2
#     Edge 15, Type (0, 1), BuildingBlock: XUDNAN_clean_linker_2, # of connection points: 2
#     Edge 16, Type (0, 1), BuildingBlock: XUDNAN_clean_linker_2, # of connection points: 2
#     Edge 17, Type (0, 1), BuildingBlock: XUDNAN_clean_linker_2, # of connection points: 2
#     Edge 18, Type (0, 1), BuildingBlock: XUDNAN_clean_linker_2, # of connection points: 2
#     Edge 19, Type (0, 1), BuildingBlock: XUDNAN_clean_linker_2, # of connection points: 2
#     Edge 20, Type (0, 1), BuildingBlock: XUDNAN_clean_linker_2, # of connection points: 2
#     Edge 21, Type (0, 1), BuildingBlock: XUDNAN_clean_linker_2, # of connection points: 2
#     Edge 22, Type (0, 1), BuildingBlock: XUDNAN_clean_linker_2, # of connection points: 2
#     Edge 23, Type (0, 1), BuildingBlock: XUDNAN_clean_linker_2, # of connection points: 2
#     Edge 24, Type (0, 1), BuildingBlock: XUDNAN_clean_linker_2, # of connection points: 2
#     Edge 25, Type (0, 1), BuildingBlock: XUDNAN_clean_linker_2, # of connection points: 2
#     Edge 26, Type (0, 1), BuildingBlock: XUDNAN_clean_linker_2, # of connection points: 2
#     Edge 27, Type (0, 1), BuildingBlock: XUDNAN_clean_linker_2, # of connection points: 2
#     Edge 28, Type (0, 1), BuildingBlock: XUDNAN_clean_linker_2, # of connection points: 2
#     Edge 29, Type (0, 1), BuildingBlock: XUDNAN_clean_linker_2, # of connection points: 2
#     Edge 30, Type (0, 1), BuildingBlock: XUDNAN_clean_linker_2, # of connection points: 2
#     Edge 31, Type (0, 1), BuildingBlock: XUDNAN_clean_linker_2, # of connection points: 2
#     Edge 32, Type (0, 1), BuildingBlock: XUDNAN_clean_linker_2, # of connection points: 2
#     Edge 33, Type (0, 1), BuildingBlock: XUDNAN_clean_linker_2, # of connection points: 2
#     Edge 34, Type (0, 1), BuildingBlock: XUDNAN_clean_linker_2, # of connection points: 2
#     Edge 35, Type (0, 1), BuildingBlock: XUDNAN_clean_linker_2, # of connection points: 2
# Relax obj value: 0.080
# Max RMSD: 0.104
# Mean RMSD: 0.097
data_MOF--net-hwx--node1-OJICUG_clean_sbu_0--node2-VETTIZ_charged_linker_0--edge1-XUDNAN_clean_linker_2
_symmetry_space_group_name_H-M    P1
_symmetry_Int_Tables_number       1
_symmetry_cell_setting            triclinic
loop_
_symmetry_equiv_pos_as_xyz
'x, y, z'
_cell_length_a     60.452015
_cell_length_b     60.421006
_cell_length_c     27.554528
_cell_angle_alpha  90.042306
_cell_angle_beta   89.954364
_cell_angle_gamma 90.046758
loop_
_atom_site_label
_atom_site_type_symbol
_atom_site_fract_x
_atom_site_fract_y
_atom_site_fract_z
_atom_type_partial_charge
Sc0 Sc 0.21524 0.22369 0.07119 0.0
Sc1 Sc 0.18302 0.18738 0.00105 0.0
Sc2 Sc 0.22554 0.21866 0.94579 0.0
O3 O 0.20794 0.2099 0.00598 0.0
C4 C 0.21664 0.26473 0.99771 0.0
C5 C 0.16229 0.22229 0.07472 0.0
C6 C 0.17698 0.21279 0.90159 0.0
C7 C 0.20619 0.17358 0.10081 0.0
C8 C 0.26355 0.21932 0.02621 0.0
C9 C 0.22149 0.16648 0.93481 0.0
O10 O 0.21559 0.25625 0.03992 0.0
O11 O 0.16028 0.20692 0.04351 0.0
O12 O 0.19711 0.21861 0.89907 0.0
O13 O 0.21509 0.19234 0.10835 0.0
O14 O 0.25689 0.21989 0.9826 0.0
O15 O 0.20333 0.16544 0.95822 0.0
O16 O 0.25044 0.21951 0.06223 0.0
O17 O 0.1941 0.16958 0.06411 0.0
O18 O 0.23209 0.18447 0.92822 0.0
O19 O 0.18099 0.22964 0.08833 0.0
O20 O 0.21996 0.25346 0.95929 0.0
O21 O 0.16886 0.20247 0.9375 0.0
Sc22 Sc 0.2731 0.72279 0.41581 0.0
Sc23 Sc 0.31834 0.69384 0.46427 0.0
Sc24 Sc 0.28141 0.72288 0.54185 0.0
O25 O 0.291 0.71313 0.47412 0.0
C26 C 0.27634 0.76686 0.4797 0.0
C27 C 0.32264 0.72803 0.37705 0.0
C28 C 0.33421 0.72491 0.55073 0.0
C29 C 0.28415 0.67298 0.38858 0.0
C30 C 0.23473 0.7138 0.4921 0.0
C31 C 0.29441 0.67214 0.55668 0.0
O32 O 0.27296 0.75649 0.44023 0.0
O33 O 0.33132 0.71466 0.40713 0.0
O34 O 0.31473 0.72937 0.56489 0.0
O35 O 0.2719 0.68998 0.38651 0.0
O36 O 0.24651 0.71728 0.52943 0.0
O37 O 0.3079 0.67147 0.5211 0.0
O38 O 0.24222 0.71493 0.44927 0.0
O39 O 0.30191 0.67217 0.41317 0.0
O40 O 0.28345 0.6894 0.56807 0.0
O41 O 0.30199 0.73167 0.37526 0.0
O42 O 0.27935 0.75726 0.52027 0.0
O43 O 0.33826 0.71285 0.51404 0.0
Sc44 Sc 0.77674 0.77344 0.95789 0.0
Sc45 Sc 0.81201 0.81249 0.01393 0.0
Sc46 Sc 0.77924 0.77741 0.0858 0.0
O47 O 0.78925 0.78779 0.01917 0.0
C48 C 0.73408 0.77541 0.02581 0.0
C49 C 0.77906 0.82408 0.92665 0.0
C50 C 0.78083 0.83009 0.09866 0.0
C51 C 0.82817 0.77869 0.93304 0.0
C52 C 0.7834 0.73177 0.0278 0.0
C53 C 0.83051 0.78562 0.10473 0.0
O54 O 0.74317 0.77462 0.98422 0.0
O55 O 0.79438 0.82874 0.95647 0.0
O56 O 0.77446 0.81091 0.11194 0.0
O57 O 0.80912 0.77051 0.92496 0.0
O58 O 0.78338 0.74312 0.06669 0.0
O59 O 0.83279 0.79957 0.07067 0.0
O60 O 0.7809 0.74025 0.9859 0.0
O61 O 0.8319 0.7936 0.96447 0.0
O62 O 0.81221 0.77628 0.11405 0.0
O63 O 0.77073 0.80483 0.92316 0.0
O64 O 0.74498 0.77652 0.06516 0.0
O65 O 0.79402 0.83335 0.06342 0.0
Sc66 Sc 0.71597 0.28202 0.56856 0.0
Sc67 Sc 0.68774 0.30847 0.47217 0.0
Sc68 Sc 0.72773 0.26752 0.44768 0.0
O69 O 0.71043 0.28602 0.49619 0.0
C70 C 0.76493 0.2795 0.52602 0.0
C71 C 0.70928 0.33441 0.56129 0.0
C72 C 0.72733 0.31499 0.39657 0.0
C73 C 0.66341 0.2868 0.56393 0.0
C74 C 0.7186 0.23196 0.53015 0.0
C75 C 0.67981 0.26815 0.39926 0.0
O76 O 0.75149 0.28409 0.56015 0.0
O77 O 0.69948 0.33418 0.5205 0.0
O78 O 0.7355 0.29591 0.40391 0.0
O79 O 0.68109 0.28007 0.58416 0.0
O80 O 0.72188 0.23712 0.48607 0.0
O81 O 0.67334 0.28562 0.42075 0.0
O82 O 0.71677 0.2463 0.56374 0.0
O83 O 0.66315 0.29732 0.5239 0.0
O84 O 0.69896 0.26002 0.40533 0.0
O85 O 0.71569 0.31699 0.58283 0.0
O86 O 0.75858 0.27281 0.48457 0.0
O87 O 0.70993 0.3218 0.41791 0.0
C88 C 0.26373 0.54209 0.8183 0.0
C89 C 0.2706 0.56431 0.8158 0.0
C90 C 0.27419 0.57616 0.85914 0.0
C91 C 0.26324 0.54427 0.90631 0.0
C92 C 0.26004 0.53246 0.86391 0.0
C93 C 0.25203 0.50926 0.87364 0.0
H94 H 0.22067 0.43171 0.03745 0.0
C95 C 0.25725 0.52991 0.94746 0.0
C96 C 0.25058 0.50936 0.92873 0.0
H97 H 0.22491 0.42468 0.88153 0.0
H98 H 0.23732 0.46263 0.87461 0.0
H99 H 0.26614 0.45871 0.05052 0.0
H100 H 0.19818 0.47897 0.03706 0.0
H101 H 0.21057 0.49726 0.0784 0.0
H102 H 0.20901 0.46814 0.09277 0.0
H103 H 0.24571 0.45374 0.09659 0.0
H104 H 0.26104 0.47927 0.09437 0.0
C105 C 0.26979 0.49289 0.85488 0.0
C106 C 0.22901 0.50648 0.84977 0.0
C107 C 0.26174 0.56034 0.11872 0.0
C108 C 0.25526 0.55193 0.16399 0.0
C109 C 0.24645 0.53039 0.16692 0.0
C110 C 0.24424 0.51733 0.12509 0.0
C111 C 0.25061 0.52606 0.07984 0.0
C112 C 0.25905 0.54728 0.07727 0.0
C113 C 0.26357 0.55443 0.02602 0.0
C114 C 0.25683 0.53384 0.9982 0.0
C115 C 0.24945 0.51724 0.02985 0.0
C116 C 0.28867 0.55917 0.02131 0.0
C117 C 0.24841 0.57448 0.01436 0.0
C118 C 0.22395 0.4384 0.0017 0.0
C119 C 0.22165 0.42523 0.95994 0.0
C120 C 0.22666 0.43447 0.91426 0.0
C121 C 0.2338 0.45651 0.91034 0.0
C122 C 0.23603 0.46942 0.95256 0.0
C123 C 0.23113 0.46027 0.99722 0.0
C124 C 0.23466 0.47621 0.03835 0.0
C125 C 0.24277 0.49641 0.01113 0.0
C126 C 0.24344 0.49243 0.96087 0.0
C127 C 0.25272 0.46657 0.07214 0.0
C128 C 0.21206 0.48035 0.06341 0.0
H129 H 0.27357 0.57626 0.93575 0.0
H130 H 0.26079 0.5326 0.78556 0.0
H131 H 0.21893 0.52173 0.85457 0.0
H132 H 0.2191 0.49309 0.86619 0.0
H133 H 0.23058 0.50333 0.8102 0.0
H134 H 0.28672 0.49977 0.85984 0.0
H135 H 0.26755 0.48941 0.8156 0.0
H136 H 0.2699 0.4771 0.87504 0.0
H137 H 0.26803 0.57707 0.11538 0.0
H138 H 0.24125 0.52373 0.2016 0.0
H139 H 0.23744 0.50105 0.12954 0.0
H140 H 0.29846 0.54686 0.04228 0.0
H141 H 0.29283 0.57586 0.03556 0.0
H142 H 0.2948 0.55776 0.98368 0.0
H143 H 0.23295 0.57407 0.03631 0.0
H144 H 0.24258 0.57455 0.97634 0.0
H145 H 0.25687 0.5904 0.02224 0.0
H146 H 0.27989 0.59316 0.85814 0.0
C147 C 0.2706 0.56628 0.90425 0.0
C148 C 0.0621 0.70902 0.5474 0.0
C149 C 0.07475 0.70519 0.50538 0.0
C150 C 0.06451 0.70643 0.45956 0.0
C151 C 0.02944 0.71462 0.49759 0.0
C152 C 0.03942 0.71345 0.54267 0.0
C153 C 0.02308 0.71698 0.58329 0.0
H154 H 0.91616 0.72974 0.65162 0.0
C155 C 0.00567 0.71876 0.50482 0.0
C156 C 0.00169 0.71982 0.555 0.0
H157 H 0.9742 0.73178 0.74365 0.0
H158 H 0.99745 0.72529 0.6739 0.0
H159 H 0.93461 0.76228 0.58122 0.0
H160 H 0.93187 0.69144 0.5751 0.0
H161 H 0.92415 0.70156 0.51759 0.0
H162 H 0.9082 0.70924 0.57028 0.0
H163 H 0.91069 0.74815 0.55857 0.0
H164 H 0.93318 0.7562 0.51919 0.0
C165 C 0.02963 0.73836 0.61088 0.0
C166 C 0.02273 0.69594 0.61522 0.0
C167 C 0.95567 0.73163 0.3593 0.0
C168 C 0.93289 0.73597 0.35535 0.0
C169 C 0.91959 0.73498 0.39736 0.0
C170 C 0.92887 0.73046 0.44269 0.0
C171 C 0.95176 0.72709 0.44639 0.0
C172 C 0.96472 0.72722 0.40509 0.0
C173 C 0.98868 0.72282 0.41627 0.0
C174 C 0.98803 0.72131 0.47135 0.0
C175 C 0.96639 0.72385 0.48856 0.0
C176 C 0.0024 0.74297 0.39879 0.0
C177 C 0.99528 0.70051 0.39236 0.0
C178 C 0.93385 0.729 0.65726 0.0
C179 C 0.94314 0.73136 0.70377 0.0
C180 C 0.96637 0.72971 0.70864 0.0
C181 C 0.97994 0.72618 0.66793 0.0
C182 C 0.97029 0.72461 0.62166 0.0
C183 C 0.94761 0.72626 0.61706 0.0
C184 C 0.94022 0.72666 0.56513 0.0
C185 C 0.96217 0.7244 0.53913 0.0
C186 C 0.97974 0.72281 0.57227 0.0
C187 C 0.92896 0.74935 0.55524 0.0
C188 C 0.92518 0.70628 0.55626 0.0
H189 H 0.03522 0.71186 0.41956 0.0
H190 H 0.06958 0.70807 0.58305 0.0
H191 H 0.02227 0.68082 0.59213 0.0
H192 H 0.00805 0.69491 0.63885 0.0
H193 H 0.03776 0.69502 0.63831 0.0
H194 H 0.03754 0.75056 0.5861 0.0
H195 H 0.04155 0.73474 0.64047 0.0
H196 H 0.01518 0.74715 0.62611 0.0
H197 H 0.96626 0.73191 0.32757 0.0
H198 H 0.90203 0.73847 0.39552 0.0
H199 H 0.91788 0.73024 0.47323 0.0
H200 H 0.99405 0.75871 0.40894 0.0
H201 H 0.00434 0.74278 0.3587 0.0
H202 H 0.01898 0.74385 0.41539 0.0
H203 H 0.98063 0.68976 0.38581 0.0
H204 H 0.00621 0.69047 0.4159 0.0
H205 H 0.00354 0.70316 0.35681 0.0
H206 H 0.07403 0.70385 0.4267 0.0
C207 C 0.04199 0.71114 0.45545 0.0
C208 C 0.76666 0.43937 0.13861 0.0
C209 C 0.76723 0.41617 0.13511 0.0
C210 C 0.76701 0.40612 0.08903 0.0
C211 C 0.76494 0.44207 0.05072 0.0
C212 C 0.76583 0.45199 0.09589 0.0
C213 C 0.76638 0.47687 0.09223 0.0
H214 H 0.77124 0.56846 0.95085 0.0
C215 C 0.76362 0.45968 0.01375 0.0
C216 C 0.76474 0.48013 0.03757 0.0
H217 H 0.77563 0.56378 0.10735 0.0
H218 H 0.76941 0.52462 0.10316 0.0
H219 H 0.79804 0.52313 0.92208 0.0
H220 H 0.72851 0.53571 0.94507 0.0
H221 H 0.73085 0.51565 0.89924 0.0
H222 H 0.74197 0.54305 0.8893 0.0
H223 H 0.78197 0.54169 0.88529 0.0
H224 H 0.78216 0.5125 0.87333 0.0
C225 C 0.78884 0.48502 0.11282 0.0
C226 C 0.74582 0.48616 0.11889 0.0
C227 C 0.75101 0.43802 0.83884 0.0
C228 C 0.74542 0.44988 0.79672 0.0
C229 C 0.74577 0.47325 0.79859 0.0
C230 C 0.75088 0.48443 0.84208 0.0
C231 C 0.75545 0.47213 0.88427 0.0
C232 C 0.75535 0.44931 0.88193 0.0
C233 C 0.7588 0.43864 0.93043 0.0
C234 C 0.76083 0.4588 0.96272 0.0
C235 C 0.75932 0.47843 0.9356 0.0
C236 C 0.78066 0.42524 0.92843 0.0
C237 C 0.73789 0.42473 0.94242 0.0
C238 C 0.77072 0.55904 0.98423 0.0
C239 C 0.77462 0.56931 0.02941 0.0
C240 C 0.77352 0.55632 0.07191 0.0
C241 C 0.76977 0.53351 0.06951 0.0
C242 C 0.76687 0.52339 0.02416 0.0
C243 C 0.76684 0.53612 0.98249 0.0
C244 C 0.76241 0.52238 0.93779 0.0
C245 C 0.76142 0.49923 0.95937 0.0
C246 C 0.76398 0.50001 0.01007 0.0
C247 C 0.78209 0.52505 0.90241 0.0
C248 C 0.73986 0.52955 0.91627 0.0
H249 H 0.76551 0.41021 0.01299 0.0
H250 H 0.76717 0.44746 0.17369 0.0
H251 H 0.73102 0.47576 0.11137 0.0
H252 H 0.74128 0.50297 0.10683 0.0
H253 H 0.74842 0.48635 0.1588 0.0
H254 H 0.802 0.47234 0.10799 0.0
H255 H 0.78762 0.48867 0.15225 0.0
H256 H 0.79527 0.49977 0.09377 0.0
H257 H 0.75159 0.42011 0.83891 0.0
H258 H 0.74151 0.48293 0.7669 0.0
H259 H 0.75071 0.50219 0.84146 0.0
H260 H 0.7928 0.43306 0.90335 0.0
H261 H 0.77772 0.40809 0.9154 0.0
H262 H 0.78927 0.42464 0.9638 0.0
H263 H 0.7227 0.43288 0.92829 0.0
H264 H 0.73484 0.42294 0.9817 0.0
H265 H 0.73885 0.40802 0.92576 0.0
H266 H 0.76739 0.38825 0.08568 0.0
C267 C 0.76583 0.41891 0.0469 0.0
C268 C 0.03858 0.2847 0.32088 0.0
C269 C 0.06131 0.28257 0.31016 0.0
C270 C 0.07672 0.28381 0.34848 0.0
C271 C 0.04705 0.28632 0.40692 0.0
C272 C 0.03184 0.28666 0.36956 0.0
C273 C 0.00843 0.28813 0.38844 0.0
H274 H 0.93826 0.28046 0.58006 0.0
C275 C 0.03492 0.28546 0.45325 0.0
C276 C 0.01226 0.28673 0.44303 0.0
H277 H 0.92241 0.29689 0.43125 0.0
H278 H 0.96106 0.29495 0.40984 0.0
H279 H 0.97287 0.24374 0.55664 0.0
H280 H 0.98244 0.31302 0.58752 0.0
H281 H 0.00106 0.29721 0.62264 0.0
H282 H 0.97177 0.2935 0.63079 0.0
H283 H 0.97234 0.25418 0.61759 0.0
H284 H 0.99786 0.246 0.58855 0.0
C285 C 0.99528 0.26797 0.36922 0.0
C286 C 0.99867 0.31081 0.37324 0.0
C287 C 0.07769 0.26663 0.60511 0.0
C288 C 0.07137 0.25855 0.65086 0.0
C289 C 0.04875 0.25894 0.66361 0.0
C290 C 0.03271 0.26617 0.63023 0.0
C291 C 0.03934 0.2728 0.58345 0.0
C292 C 0.06156 0.27303 0.57186 0.0
C293 C 0.06572 0.27831 0.51947 0.0
C294 C 0.04228 0.28125 0.5012 0.0
C295 C 0.0269 0.27842 0.53885 0.0
C296 C 0.07761 0.25815 0.49577 0.0
C297 C 0.07887 0.30031 0.51708 0.0
C298 C 0.94309 0.28394 0.54298 0.0
C299 C 0.92715 0.28876 0.50735 0.0
C300 C 0.93424 0.29278 0.45931 0.0
C301 C 0.95672 0.29183 0.44695 0.0
C302 C 0.97236 0.28679 0.48288 0.0
C303 C 0.96549 0.28319 0.53008 0.0
C304 C 0.98451 0.27835 0.56359 0.0
C305 C 0.00395 0.28045 0.52904 0.0
C306 C 0.9967 0.28497 0.48157 0.0
C307 C 0.98183 0.25441 0.58306 0.0
C308 C 0.98504 0.29633 0.60357 0.0
H309 H 0.08231 0.28604 0.42387 0.0
H310 H 0.02634 0.28423 0.29223 0.0
H311 H 0.0119 0.32332 0.36709 0.0
H312 H 0.98809 0.31813 0.40186 0.0
H313 H 0.98901 0.30943 0.3391 0.0
H314 H 0.00496 0.25249 0.37428 0.0
H315 H 0.99171 0.26977 0.32988 0.0
H316 H 0.97948 0.26539 0.38838 0.0
H317 H 0.09491 0.26705 0.59422 0.0
H318 H 0.04334 0.25281 0.69858 0.0
H319 H 0.01573 0.26565 0.64157 0.0
H320 H 0.07522 0.2427 0.5171 0.0
H321 H 0.09571 0.26099 0.49277 0.0
H322 H 0.07098 0.25399 0.45951 0.0
H323 H 0.07274 0.31222 0.54484 0.0
H324 H 0.07695 0.30895 0.48199 0.0
H325 H 0.09674 0.2975 0.52409 0.0
H326 H 0.09428 0.28198 0.34177 0.0
C327 C 0.06973 0.28584 0.39651 0.0
C328 C 0.71093 0.94372 0.6755 0.0
C329 C 0.7165 0.92111 0.67687 0.0
C330 C 0.71703 0.90911 0.63294 0.0
C331 C 0.71044 0.9428 0.58755 0.0
C332 C 0.70836 0.95427 0.63063 0.0
C333 C 0.70542 0.97874 0.62268 0.0
H334 H 0.7209 0.0669 0.47794 0.0
C335 C 0.71054 0.95906 0.54755 0.0
C336 C 0.70769 0.98015 0.56776 0.0
H337 H 0.69568 0.06527 0.62512 0.0
H338 H 0.69436 0.02564 0.6224 0.0
H339 H 0.75376 0.02558 0.48299 0.0
H340 H 0.68487 0.02725 0.44117 0.0
H341 H 0.69974 0.01084 0.39962 0.0
H342 H 0.70619 0.03986 0.40508 0.0
H343 H 0.7447 0.03859 0.42788 0.0
H344 H 0.75001 0.00928 0.43063 0.0
C345 C 0.72445 0.99096 0.64924 0.0
C346 C 0.68193 0.98538 0.6402 0.0
C347 C 0.72716 0.93248 0.37727 0.0
C348 C 0.73355 0.94311 0.33405 0.0
C349 C 0.73421 0.96652 0.33353 0.0
C350 C 0.72884 0.9789 0.37519 0.0
C351 C 0.72309 0.96783 0.41827 0.0
C352 C 0.72258 0.94498 0.41871 0.0
C353 C 0.71849 0.9357 0.4684 0.0
C354 C 0.71527 0.95676 0.4974 0.0
C355 C 0.71784 0.97561 0.468 0.0
C356 C 0.73947 0.92267 0.48425 0.0
C357 C 0.69706 0.92168 0.46694 0.0
C358 C 0.71499 0.05805 0.50953 0.0
C359 C 0.7093 0.06942 0.5526 0.0
C360 C 0.7012 0.05708 0.59231 0.0
C361 C 0.70027 0.03401 0.59069 0.0
C362 C 0.70746 0.02291 0.54895 0.0
C363 C 0.71366 0.03481 0.5084 0.0
C364 C 0.71866 0.01981 0.46593 0.0
C365 C 0.71514 0.99707 0.48856 0.0
C366 C 0.70922 0.99916 0.53766 0.0
C367 C 0.743 0.02349 0.45056 0.0
C368 C 0.70163 0.02466 0.42545 0.0
H369 H 0.71491 0.90987 0.55627 0.0
H370 H 0.70971 0.95329 0.70862 0.0
H371 H 0.67076 0.97081 0.64347 0.0
H372 H 0.67353 0.99653 0.61411 0.0
H373 H 0.6825 0.99353 0.67633 0.0
H374 H 0.74063 0.98309 0.64069 0.0
H375 H 0.72208 0.99036 0.68919 0.0
H376 H 0.7261 0.00846 0.63878 0.0
H377 H 0.72601 0.91464 0.37955 0.0
H378 H 0.73941 0.97537 0.30134 0.0
H379 H 0.72989 0.99659 0.3726 0.0
H380 H 0.75424 0.92709 0.46213 0.0
H381 H 0.73702 0.90453 0.48055 0.0
H382 H 0.74448 0.92646 0.522 0.0
H383 H 0.68396 0.93037 0.44599 0.0
H384 H 0.68999 0.91877 0.50337 0.0
H385 H 0.70007 0.90543 0.44924 0.0
H386 H 0.72124 0.8917 0.63255 0.0
C387 C 0.71378 0.9198 0.58841 0.0
C388 C 0.55605 0.2319 0.1401 0.0
C389 C 0.57915 0.22996 0.13665 0.0
C390 C 0.5892 0.22918 0.09059 0.0
C391 C 0.55342 0.23305 0.0522 0.0
C392 C 0.54351 0.23311 0.09739 0.0
C393 C 0.51869 0.23405 0.09393 0.0
H394 H 0.4268 0.23094 0.95443 0.0
C395 C 0.53588 0.23512 0.01528 0.0
C396 C 0.51547 0.23541 0.03925 0.0
H397 H 0.43199 0.23033 0.11125 0.0
H398 H 0.4712 0.23487 0.10567 0.0
H399 H 0.46126 0.27294 0.94566 0.0
H400 H 0.47152 0.20273 0.92555 0.0
H401 H 0.48186 0.21812 0.87558 0.0
H402 H 0.45287 0.21892 0.8892 0.0
H403 H 0.45299 0.25915 0.8909 0.0
H404 H 0.48087 0.26927 0.89933 0.0
C405 C 0.51071 0.25538 0.11981 0.0
C406 C 0.50932 0.21225 0.11551 0.0
C407 C 0.55808 0.24558 0.84026 0.0
C408 C 0.54659 0.25178 0.7981 0.0
C409 C 0.52322 0.25245 0.79977 0.0
C410 C 0.51174 0.24787 0.84321 0.0
C411 C 0.52375 0.24286 0.88556 0.0
C412 C 0.54655 0.24186 0.8833 0.0
C413 C 0.55703 0.23816 0.93186 0.0
C414 C 0.53681 0.23739 0.96416 0.0
C415 C 0.51726 0.23965 0.93704 0.0
C416 C 0.57199 0.25842 0.94325 0.0
C417 C 0.56928 0.21562 0.93052 0.0
C418 C 0.43635 0.23187 0.98757 0.0
C419 C 0.42613 0.22932 0.03337 0.0
C420 C 0.43932 0.23115 0.07544 0.0
C421 C 0.46219 0.23398 0.07223 0.0
C422 C 0.47224 0.23532 0.02648 0.0
C423 C 0.45938 0.23501 0.98504 0.0
C424 C 0.47315 0.23845 0.93986 0.0
C425 C 0.49641 0.23883 0.96105 0.0
C426 C 0.49563 0.23698 0.01188 0.0
C427 C 0.46675 0.26102 0.9173 0.0
C428 C 0.46969 0.21857 0.90539 0.0
H429 H 0.58517 0.2303 0.01447 0.0
H430 H 0.54794 0.23218 0.17518 0.0
H431 H 0.5209 0.1982 0.10954 0.0
H432 H 0.49378 0.20687 0.09808 0.0
H433 H 0.50661 0.21376 0.15524 0.0
H434 H 0.5225 0.26924 0.11351 0.0
H435 H 0.50942 0.25284 0.15963 0.0
H436 H 0.49469 0.26146 0.10592 0.0
H437 H 0.57593 0.24416 0.84047 0.0
H438 H 0.51381 0.25715 0.768 0.0
H439 H 0.49401 0.24878 0.8425 0.0
H440 H 0.56454 0.27395 0.929 0.0
H441 H 0.58856 0.25657 0.92629 0.0
H442 H 0.57411 0.26151 0.98243 0.0
H443 H 0.56098 0.20379 0.90545 0.0
H444 H 0.56925 0.20712 0.96605 0.0
H445 H 0.58662 0.21762 0.91787 0.0
H446 H 0.607 0.22777 0.08728 0.0
C447 C 0.57648 0.23075 0.0484 0.0
C448 C 0.25289 0.05231 0.36884 0.0
C449 C 0.24738 0.07492 0.3693 0.0
C450 C 0.24869 0.0867 0.41341 0.0
C451 C 0.25975 0.0533 0.45556 0.0
C452 C 0.25891 0.0419 0.41216 0.0
C453 C 0.26435 0.01779 0.41814 0.0
H454 H 0.28913 0.93149 0.56432 0.0
C455 C 0.26563 0.03736 0.4941 0.0
C456 C 0.26835 0.01656 0.47245 0.0
H457 H 0.27986 0.93217 0.40857 0.0
H458 H 0.27346 0.97125 0.41045 0.0
H459 H 0.31766 0.97729 0.5701 0.0
H460 H 0.24786 0.96456 0.58778 0.0
H461 H 0.25623 0.98322 0.63317 0.0
H462 H 0.26796 0.95582 0.6317 0.0
H463 H 0.30677 0.96284 0.62179 0.0
H464 H 0.30806 0.99264 0.62014 0.0
C465 C 0.28567 0.01289 0.38871 0.0
C466 C 0.2438 0.00412 0.40251 0.0
C467 C 0.26783 0.06309 0.66878 0.0
C468 C 0.27116 0.05221 0.71321 0.0
C469 C 0.2766 0.0295 0.71287 0.0
C470 C 0.27826 0.01779 0.66895 0.0
C471 C 0.27425 0.02886 0.62492 0.0
C472 C 0.26941 0.05121 0.62547 0.0
C473 C 0.26509 0.06031 0.57574 0.0
C474 C 0.26801 0.03974 0.54501 0.0
C475 C 0.27334 0.02131 0.57385 0.0
C476 C 0.283 0.07796 0.5646 0.0
C477 C 0.24096 0.06906 0.57431 0.0
C478 C 0.28562 0.94011 0.53075 0.0
C479 C 0.28529 0.92871 0.48616 0.0
C480 C 0.28072 0.94057 0.44327 0.0
C481 C 0.27683 0.96332 0.44442 0.0
C482 C 0.27728 0.97451 0.48899 0.0
C483 C 0.28164 0.96301 0.53125 0.0
C484 C 0.2813 0.97794 0.57512 0.0
C485 C 0.2761 0.00018 0.55194 0.0
C486 C 0.2737 0.99794 0.50151 0.0
C487 C 0.30457 0.97767 0.5985 0.0
C488 C 0.2625 0.97003 0.60915 0.0
H489 H 0.25527 0.08587 0.48887 0.0
H490 H 0.25238 0.04282 0.3355 0.0
H491 H 0.22821 0.01308 0.41119 0.0
H492 H 0.24229 0.98823 0.422 0.0
H493 H 0.24392 0.00089 0.36282 0.0
H494 H 0.29706 0.02737 0.38909 0.0
H495 H 0.28176 0.00912 0.3502 0.0
H496 H 0.29551 0.99919 0.40409 0.0
H497 H 0.26312 0.08037 0.66761 0.0
H498 H 0.27938 0.02077 0.74663 0.0
H499 H 0.28226 0.00052 0.67099 0.0
H500 H 0.29923 0.07311 0.58037 0.0
H501 H 0.27843 0.09428 0.58024 0.0
H502 H 0.28622 0.07992 0.52538 0.0
H503 H 0.22995 0.05896 0.59794 0.0
H504 H 0.23339 0.06796 0.53794 0.0
H505 H 0.24005 0.08646 0.58721 0.0
H506 H 0.24433 0.10407 0.41497 0.0
C507 C 0.25489 0.07605 0.45644 0.0
C508 C 0.55717 0.77554 0.0261 0.0
C509 C 0.57248 0.77109 0.98893 0.0
C510 C 0.56478 0.76938 0.9407 0.0
C511 C 0.52722 0.77645 0.96765 0.0
C512 C 0.53481 0.77797 0.01481 0.0
C513 C 0.51651 0.7818 0.05071 0.0
H514 H 0.40736 0.79314 0.09473 0.0
C515 C 0.5031 0.78032 0.96848 0.0
C516 C 0.4968 0.78359 0.01707 0.0
H517 H 0.46011 0.785 0.19887 0.0
H518 H 0.48711 0.78585 0.13401 0.0
H519 H 0.42957 0.82825 0.02934 0.0
H520 H 0.42647 0.75749 0.0169 0.0
H521 H 0.41852 0.76982 0.96146 0.0
H522 H 0.40317 0.77595 0.01516 0.0
H523 H 0.40747 0.81506 0.99709 0.0
H524 H 0.43291 0.82283 0.96703 0.0
C525 C 0.521 0.80388 0.07753 0.0
C526 C 0.51502 0.76126 0.08447 0.0
C527 C 0.45692 0.77424 0.81437 0.0
C528 C 0.43435 0.77845 0.80508 0.0
C529 C 0.42155 0.78869 0.84162 0.0
C530 C 0.43026 0.79259 0.88771 0.0
C531 C 0.45209 0.7864 0.89764 0.0
C532 C 0.46548 0.77867 0.86074 0.0
C533 C 0.48906 0.77571 0.87743 0.0
C534 C 0.48698 0.78139 0.93108 0.0
C535 C 0.4651 0.78701 0.94269 0.0
C536 C 0.50375 0.79256 0.84985 0.0
C537 C 0.49575 0.75126 0.8696 0.0
C538 C 0.42477 0.79193 0.1036 0.0
C539 C 0.43167 0.789 0.15183 0.0
C540 C 0.45443 0.7871 0.16188 0.0
C541 C 0.47003 0.78751 0.12418 0.0
C542 C 0.46275 0.78945 0.07589 0.0
C543 C 0.44046 0.79188 0.06635 0.0
C544 C 0.43556 0.79273 0.0129 0.0
C545 C 0.45859 0.78968 0.99184 0.0
C546 C 0.47439 0.78788 0.02885 0.0
C547 C 0.42576 0.81581 0.00074 0.0
C548 C 0.42006 0.77307 0.00061 0.0
H549 H 0.53734 0.77044 0.89263 0.0
H550 H 0.56241 0.77728 0.06347 0.0
H551 H 0.52235 0.74629 0.06727 0.0
H552 H 0.49774 0.75645 0.09252 0.0
H553 H 0.52396 0.7641 0.11913 0.0
H554 H 0.52656 0.81682 0.05153 0.0
H555 H 0.53416 0.80184 0.10529 0.0
H556 H 0.50611 0.81068 0.09533 0.0
H557 H 0.46748 0.76694 0.78698 0.0
H558 H 0.40451 0.79331 0.83499 0.0
H559 H 0.4195 0.7998 0.91425 0.0
H560 H 0.49426 0.80767 0.83997 0.0
H561 H 0.51035 0.78532 0.81572 0.0
H562 H 0.51765 0.79874 0.87211 0.0
H563 H 0.48232 0.74001 0.88207 0.0
H564 H 0.51058 0.7465 0.89039 0.0
H565 H 0.49885 0.74781 0.83058 0.0
H566 H 0.57611 0.76565 0.91137 0.0
C567 C 0.54225 0.77209 0.92988 0.0
H568 H 0.15921 0.25961 0.13072 0.0
H569 H 0.11976 0.20623 0.07033 0.0
H570 H 0.08699 0.22034 0.11405 0.0
H571 H 0.13779 0.25787 0.24532 0.0
H572 H 0.1382 0.28732 0.25575 0.0
H573 H 0.15737 0.27517 0.21366 0.0
H574 H 0.14337 0.30149 0.14603 0.0
H575 H 0.12405 0.31372 0.18809 0.0
H576 H 0.1143 0.30226 0.1316 0.0
H577 H 0.06028 0.23673 0.17413 0.0
H578 H 0.04255 0.25325 0.24621 0.0
H579 H 0.09874 0.29723 0.26387 0.0
C580 C 0.1436 0.25109 0.12587 0.0
C581 C 0.14211 0.23176 0.09715 0.0
C582 C 0.12134 0.22111 0.09198 0.0
C583 C 0.10259 0.22907 0.11652 0.0
C584 C 0.10478 0.24791 0.14538 0.0
C585 C 0.12475 0.25889 0.14974 0.0
C586 C 0.12333 0.27752 0.18633 0.0
C587 C 0.14016 0.27425 0.22769 0.0
C588 C 0.12644 0.30008 0.16152 0.0
C589 C 0.0998 0.27454 0.20389 0.0
C590 C 0.0892 0.25766 0.17927 0.0
C591 C 0.0682 0.25035 0.19285 0.0
C592 C 0.05817 0.25995 0.23374 0.0
C593 C 0.06922 0.27658 0.26074 0.0
C594 C 0.08985 0.28455 0.24406 0.0
H595 H 0.27048 0.66815 0.64062 0.0
H596 H 0.31188 0.63064 0.54136 0.0
H597 H 0.30785 0.59769 0.59369 0.0
H598 H 0.29234 0.64621 0.74779 0.0
H599 H 0.26634 0.64587 0.77988 0.0
H600 H 0.27095 0.66577 0.73242 0.0
H601 H 0.23573 0.65202 0.68795 0.0
H602 H 0.231 0.63204 0.73536 0.0
H603 H 0.233 0.62308 0.6731 0.0
H604 H 0.30083 0.56933 0.65983 0.0
H605 H 0.29265 0.54877 0.73557 0.0
H606 H 0.25606 0.60529 0.79004 0.0
C607 C 0.27852 0.65298 0.62939 0.0
C608 C 0.29147 0.65203 0.58675 0.0
C609 C 0.30186 0.63182 0.57385 0.0
C610 C 0.2996 0.61298 0.60323 0.0
C611 C 0.28685 0.6146 0.64524 0.0
C612 C 0.2765 0.63412 0.65822 0.0
C613 C 0.26474 0.63201 0.70641 0.0
C614 C 0.27417 0.64844 0.74382 0.0
C615 C 0.23963 0.63496 0.70032 0.0
C616 C 0.27051 0.60841 0.71915 0.0
C617 C 0.28303 0.59848 0.68325 0.0
C618 C 0.29089 0.57689 0.68799 0.0
C619 C 0.28611 0.56531 0.73095 0.0
C620 C 0.27383 0.57551 0.76858 0.0
C621 C 0.26565 0.59716 0.762 0.0
H622 H 0.83286 0.75367 0.17477 0.0
H623 H 0.87225 0.80386 0.10201 0.0
H624 H 0.90431 0.79389 0.15308 0.0
H625 H 0.85322 0.76289 0.29162 0.0
H626 H 0.85289 0.73415 0.30906 0.0
H627 H 0.83382 0.74404 0.26399 0.0
H628 H 0.84811 0.71447 0.20334 0.0
H629 H 0.86731 0.7045 0.24828 0.0
H630 H 0.87723 0.71311 0.18954 0.0
H631 H 0.93116 0.78021 0.2165 0.0
H632 H 0.95 0.76494 0.28862 0.0
H633 H 0.89306 0.72315 0.31738 0.0
C634 C 0.84824 0.76252 0.16917 0.0
C635 C 0.84999 0.7796 0.13441 0.0
C636 C 0.87048 0.79071 0.1284 0.0
C637 C 0.88881 0.7851 0.15709 0.0
C638 C 0.88642 0.76824 0.19119 0.0
C639 C 0.86664 0.7571 0.1972 0.0
C640 C 0.86793 0.74042 0.23794 0.0
C641 C 0.85097 0.74571 0.27801 0.0
C642 C 0.86497 0.71672 0.2186 0.0
C643 C 0.89134 0.74437 0.25501 0.0
C644 C 0.90187 0.76027 0.22727 0.0
C645 C 0.92319 0.76753 0.23804 0.0
C646 C 0.93381 0.75866 0.27889 0.0
C647 C 0.923 0.74283 0.30854 0.0
C648 C 0.90172 0.73529 0.29554 0.0
H649 H 0.70383 0.343 0.65695 0.0
H650 H 0.72334 0.37363 0.52138 0.0
H651 H 0.73273 0.40823 0.56567 0.0
H652 H 0.67882 0.39308 0.70982 0.0
H653 H 0.68779 0.38592 0.77017 0.0
H654 H 0.68169 0.36442 0.72685 0.0
H655 H 0.72086 0.34797 0.7397 0.0
H656 H 0.72713 0.36948 0.78271 0.0
H657 H 0.74478 0.36534 0.73074 0.0
H658 H 0.74398 0.43793 0.62797 0.0
H659 H 0.75325 0.46045 0.70027 0.0
H660 H 0.72204 0.41103 0.79208 0.0
C661 C 0.70986 0.35709 0.63654 0.0
C662 C 0.71305 0.35573 0.58598 0.0
C663 C 0.72076 0.37448 0.56024 0.0
C664 C 0.72615 0.39412 0.58509 0.0
C665 C 0.72315 0.3948 0.63534 0.0
C666 C 0.71475 0.37685 0.66048 0.0
C667 C 0.71315 0.38149 0.71421 0.0
C668 C 0.68892 0.38122 0.73125 0.0
C669 C 0.72733 0.3651 0.74354 0.0
C670 C 0.7227 0.40458 0.71584 0.0
C671 C 0.72845 0.41208 0.67021 0.0
C672 C 0.73912 0.43237 0.66375 0.0
C673 C 0.74424 0.44512 0.70508 0.0
C674 C 0.73859 0.43755 0.75221 0.0
C675 C 0.72712 0.41725 0.75696 0.0
H676 H 0.64 0.28312 0.36342 0.0
H677 H 0.68571 0.22773 0.35641 0.0
H678 H 0.6623 0.20999 0.29464 0.0
H679 H 0.58877 0.25038 0.3433 0.0
H680 H 0.57644 0.27173 0.30655 0.0
H681 H 0.59539 0.27903 0.35447 0.0
H682 H 0.61969 0.30044 0.29278 0.0
H683 H 0.60087 0.29321 0.24479 0.0
H684 H 0.62978 0.28634 0.23948 0.0
H685 H 0.63672 0.2002 0.22761 0.0
H686 H 0.61006 0.199 0.15966 0.0
H687 H 0.5803 0.25999 0.21063 0.0
C688 C 0.64488 0.26706 0.34961 0.0
C689 C 0.66474 0.25687 0.36484 0.0
C690 C 0.67064 0.23596 0.3453 0.0
C691 C 0.65738 0.22565 0.31034 0.0
C692 C 0.63817 0.23633 0.29548 0.0
C693 C 0.63182 0.2565 0.31461 0.0
C694 C 0.61121 0.26515 0.28976 0.0
C695 C 0.5918 0.26665 0.32567 0.0
C696 C 0.61567 0.28761 0.26525 0.0
C697 C 0.60744 0.24703 0.25265 0.0
C698 C 0.62307 0.23046 0.25695 0.0
C699 C 0.62413 0.21284 0.22439 0.0
C700 C 0.60902 0.21232 0.18592 0.0
C701 C 0.59308 0.22926 0.18054 0.0
C702 C 0.59202 0.24658 0.21482 0.0
H703 H 0.25279 0.16211 0.86321 0.0
H704 H 0.20979 0.12397 0.95782 0.0
H705 H 0.22243 0.08954 0.9186 0.0
H706 H 0.24199 0.13226 0.75911 0.0
H707 H 0.26961 0.1338 0.73464 0.0
H708 H 0.25985 0.15506 0.77495 0.0
H709 H 0.29326 0.14815 0.83188 0.0
H710 H 0.30313 0.12678 0.79163 0.0
H711 H 0.2983 0.12067 0.85478 0.0
H712 H 0.2363 0.05981 0.86332 0.0
H713 H 0.24887 0.03748 0.79354 0.0
H714 H 0.2833 0.09473 0.73566 0.0
C715 C 0.24642 0.14649 0.87648 0.0
C716 C 0.23035 0.14576 0.9137 0.0
C717 C 0.22209 0.12498 0.92929 0.0
C718 C 0.22929 0.1053 0.9075 0.0
C719 C 0.24483 0.10663 0.8703 0.0
C720 C 0.25333 0.12669 0.85493 0.0
C721 C 0.26815 0.1238 0.81109 0.0
C722 C 0.25936 0.13701 0.76738 0.0
C723 C 0.29213 0.13023 0.82308 0.0
C724 C 0.26596 0.0991 0.80309 0.0
C725 C 0.25279 0.08942 0.83816 0.0
C726 C 0.24699 0.0671 0.83616 0.0
C727 C 0.25431 0.05451 0.7965 0.0
C728 C 0.26712 0.06433 0.75922 0.0
C729 C 0.27353 0.08675 0.76359 0.0
H730 H 0.36606 0.72001 0.35138 0.0
H731 H 0.31175 0.76598 0.32934 0.0
H732 H 0.33533 0.78865 0.27634 0.0
H733 H 0.41068 0.76113 0.35 0.0
H734 H 0.42936 0.74345 0.31684 0.0
H735 H 0.40886 0.7315 0.35651 0.0
H736 H 0.39369 0.70788 0.28534 0.0
H737 H 0.41425 0.71959 0.24569 0.0
H738 H 0.38537 0.72139 0.22997 0.0
H739 H 0.3637 0.80547 0.22293 0.0
H740 H 0.39461 0.81388 0.16728 0.0
H741 H 0.43045 0.75691 0.22185 0.0
C742 C 0.35921 0.73494 0.33571 0.0
C743 C 0.33705 0.74119 0.3446 0.0
C744 C 0.32863 0.76073 0.32294 0.0
C745 C 0.34194 0.77386 0.29305 0.0
C746 C 0.36365 0.76725 0.28497 0.0
C747 C 0.37224 0.74819 0.30529 0.0
C748 C 0.39566 0.7441 0.28789 0.0
C749 C 0.41211 0.74511 0.33035 0.0
C750 C 0.39733 0.72193 0.26059 0.0
C751 C 0.39867 0.7636 0.25394 0.0
C752 C 0.3801 0.7769 0.25341 0.0
C753 C 0.37843 0.79529 0.22322 0.0
C754 C 0.39601 0.79991 0.1917 0.0
C755 C 0.4149 0.7861 0.19046 0.0
C756 C 0.41641 0.76801 0.22279 0.0
H757 H 0.74856 0.82109 0.85245 0.0
H758 H 0.78976 0.86804 0.93078 0.0
H759 H 0.77557 0.89821 0.87976 0.0
H760 H 0.75626 0.84465 0.73614 0.0
H761 H 0.72834 0.83975 0.71586 0.0
H762 H 0.74054 0.82189 0.76069 0.0
H763 H 0.70791 0.82994 0.81914 0.0
H764 H 0.69563 0.84791 0.77448 0.0
H765 H 0.70135 0.85818 0.83461 0.0
H766 H 0.75893 0.92288 0.8181 0.0
H767 H 0.7419 0.94048 0.74716 0.0
H768 H 0.71032 0.87816 0.70928 0.0
C769 C 0.75449 0.83773 0.85914 0.0
C770 C 0.77032 0.84212 0.89572 0.0
C771 C 0.77771 0.86416 0.90298 0.0
C772 C 0.76966 0.88148 0.87435 0.0
C773 C 0.75415 0.87657 0.83866 0.0
C774 C 0.74663 0.85527 0.83082 0.0
C775 C 0.73068 0.85444 0.78842 0.0
C776 C 0.73949 0.83929 0.74789 0.0
C777 C 0.70752 0.84719 0.80518 0.0
C778 C 0.73085 0.87853 0.77306 0.0
C779 C 0.74432 0.89099 0.80294 0.0
C780 C 0.74805 0.9134 0.79485 0.0
C781 C 0.73808 0.9233 0.75455 0.0
C782 C 0.72447 0.91084 0.7227 0.0
C783 C 0.72059 0.8882 0.73278 0.0
H784 H 0.83582 0.78 0.83561 0.0
H785 H 0.86333 0.75755 0.97206 0.0
H786 H 0.8958 0.74216 0.92859 0.0
H787 H 0.85427 0.73496 0.76028 0.0
H788 H 0.861 0.75241 0.70934 0.0
H789 H 0.83951 0.76052 0.75099 0.0
H790 H 0.85953 0.79786 0.76622 0.0
H791 H 0.88103 0.78988 0.72448 0.0
H792 H 0.888 0.79779 0.78568 0.0
H793 H 0.92449 0.7281 0.86919 0.0
H794 H 0.94871 0.71917 0.79981 0.0
H795 H 0.90434 0.75536 0.70436 0.0
C796 C 0.84866 0.77168 0.85604 0.0
C797 C 0.84719 0.7696 0.9068 0.0
C798 C 0.86434 0.75909 0.93294 0.0
C799 C 0.88273 0.75031 0.90862 0.0
C800 C 0.88382 0.75265 0.85837 0.0
C801 C 0.8674 0.76336 0.83248 0.0
C802 C 0.87314 0.76477 0.77918 0.0
C803 C 0.85596 0.75242 0.74813 0.0
C804 C 0.87558 0.78901 0.76296 0.0
C805 C 0.89519 0.75295 0.77904 0.0
C806 C 0.90097 0.74583 0.82486 0.0
C807 C 0.92028 0.73384 0.83317 0.0
C808 C 0.93405 0.72901 0.79349 0.0
C809 C 0.92862 0.73647 0.74615 0.0
C810 C 0.90896 0.74883 0.73946 0.0
H811 H 0.71306 0.3552 0.36101 0.0
H812 H 0.7671 0.30799 0.35157 0.0
H813 H 0.78514 0.33123 0.28986 0.0
H814 H 0.70969 0.36643 0.23684 0.0
H815 H 0.70365 0.39549 0.24352 0.0
H816 H 0.69602 0.37641 0.29075 0.0
H817 H 0.7182 0.3996 0.35317 0.0
H818 H 0.72596 0.41875 0.30598 0.0
H819 H 0.747 0.40548 0.34198 0.0
H820 H 0.79555 0.35718 0.22383 0.0
H821 H 0.79741 0.38442 0.15703 0.0
H822 H 0.7374 0.41545 0.20968 0.0
C823 C 0.72885 0.3499 0.34656 0.0
C824 C 0.7386 0.32971 0.36127 0.0
C825 C 0.7592 0.32332 0.34094 0.0
C826 C 0.76968 0.33647 0.30599 0.0
C827 C 0.75949 0.35608 0.29187 0.0
C828 C 0.73958 0.36285 0.31156 0.0
C829 C 0.73149 0.38394 0.28766 0.0
C830 C 0.70888 0.38034 0.26324 0.0
C831 C 0.73062 0.40308 0.3244 0.0
C832 C 0.74962 0.38754 0.25047 0.0
C833 C 0.76572 0.37138 0.25392 0.0
C834 C 0.78328 0.37016 0.22125 0.0
C835 C 0.7842 0.38562 0.18348 0.0
C836 C 0.76771 0.40208 0.17885 0.0
C837 C 0.75047 0.40332 0.21331 0.0
H838 H 0.1358 0.23187 0.89888 0.0
H839 H 0.18705 0.20297 0.80876 0.0
H840 H 0.16424 0.20944 0.73583 0.0
H841 H 0.088 0.21264 0.82978 0.0
H842 H 0.07286 0.23814 0.83685 0.0
H843 H 0.09225 0.2296 0.88282 0.0
H844 H 0.11301 0.26694 0.87452 0.0
H845 H 0.09366 0.27561 0.82867 0.0
H846 H 0.12289 0.27555 0.81573 0.0
H847 H 0.13632 0.21833 0.67379 0.0
H848 H 0.10648 0.23307 0.62308 0.0
H849 H 0.07443 0.26018 0.75131 0.0
C850 C 0.14198 0.22673 0.86373 0.0
C851 C 0.16298 0.21674 0.85903 0.0
C852 C 0.17095 0.21062 0.8127 0.0
C853 C 0.15809 0.21411 0.77128 0.0
C854 C 0.1375 0.22409 0.77687 0.0
C855 C 0.12956 0.23065 0.82168 0.0
C856 C 0.10761 0.2426 0.8167 0.0
C857 C 0.08909 0.22999 0.84311 0.0
C858 C 0.10941 0.2666 0.83498 0.0
C859 C 0.10455 0.24173 0.76209 0.0
C860 C 0.12186 0.23063 0.74018 0.0
C861 C 0.12281 0.22735 0.69035 0.0
C862 C 0.10584 0.23603 0.66181 0.0
C863 C 0.08832 0.24837 0.68291 0.0
C864 C 0.08755 0.2509 0.73396 0.0
H865 H 0.30846 0.64544 0.33048 0.0
H866 H 0.24269 0.65605 0.38874 0.0
H867 H 0.22912 0.62311 0.34453 0.0
H868 H 0.29022 0.63183 0.21292 0.0
H869 H 0.31141 0.61151 0.20144 0.0
H870 H 0.31665 0.63394 0.24286 0.0
H871 H 0.32669 0.60577 0.31025 0.0
H872 H 0.32139 0.58322 0.26899 0.0
H873 H 0.30715 0.58445 0.32641 0.0
H874 H 0.22235 0.59019 0.29166 0.0
H875 H 0.22178 0.56214 0.22617 0.0
H876 H 0.2912 0.57463 0.19754 0.0
C877 C 0.29133 0.6405 0.33448 0.0
C878 C 0.2766 0.65296 0.36323 0.0
C879 C 0.25415 0.64654 0.36683 0.0
C880 C 0.24637 0.62782 0.3422 0.0
C881 C 0.26121 0.61593 0.31366 0.0
C882 C 0.28315 0.62215 0.30913 0.0
C883 C 0.29503 0.60798 0.27202 0.0
C884 C 0.30383 0.62216 0.22982 0.0
C885 C 0.31367 0.59456 0.29586 0.0
C886 C 0.27625 0.59312 0.25586 0.0
C887 C 0.25703 0.59762 0.28115 0.0
C888 C 0.23733 0.5864 0.27179 0.0
C889 C 0.23716 0.57047 0.23478 0.0
C890 C 0.25645 0.56629 0.20721 0.0
C891 C 0.27628 0.57753 0.21838 0.0
H892 H 0.33402 0.73355 0.64735 0.0
H893 H 0.37648 0.7348 0.52042 0.0
H894 H 0.40732 0.74905 0.57105 0.0
H895 H 0.35416 0.78237 0.70491 0.0
H896 H 0.35234 0.7709 0.76515 0.0
H897 H 0.33384 0.7614 0.71839 0.0
H898 H 0.34659 0.72096 0.73299 0.0
H899 H 0.36506 0.73033 0.77992 0.0
H900 H 0.37563 0.71436 0.72975 0.0
H901 H 0.43315 0.76447 0.63704 0.0
H902 H 0.4518 0.77737 0.71188 0.0
H903 H 0.39237 0.76237 0.79432 0.0
C904 C 0.34975 0.73697 0.63003 0.0
C905 C 0.35285 0.73335 0.57995 0.0
C906 C 0.37381 0.73755 0.55883 0.0
C907 C 0.39136 0.74567 0.58724 0.0
C908 C 0.38768 0.74911 0.63668 0.0
C909 C 0.36742 0.74462 0.65783 0.0
C910 C 0.36773 0.74884 0.71179 0.0
C911 C 0.35103 0.76696 0.72586 0.0
C912 C 0.36352 0.72734 0.74027 0.0
C913 C 0.39124 0.75674 0.71784 0.0
C914 C 0.40256 0.75696 0.67429 0.0
C915 C 0.42445 0.76419 0.67139 0.0
C916 C 0.43496 0.77138 0.71416 0.0
C917 C 0.42358 0.77112 0.75921 0.0
C918 C 0.40151 0.76342 0.7606 0.0
H919 H 0.77691 0.83487 0.19677 0.0
H920 H 0.76695 0.8693 0.0606 0.0
H921 H 0.75346 0.90224 0.10537 0.0
H922 H 0.73053 0.85696 0.26202 0.0
H923 H 0.74535 0.85962 0.31845 0.0
H924 H 0.75319 0.83857 0.27546 0.0
H925 H 0.79332 0.85375 0.27454 0.0
H926 H 0.78561 0.87481 0.31761 0.0
H927 H 0.79807 0.88252 0.26062 0.0
H928 H 0.73944 0.93079 0.16591 0.0
H929 H 0.72894 0.95355 0.23661 0.0
H930 H 0.75308 0.90177 0.33248 0.0
C931 C 0.7717 0.84931 0.17649 0.0
C932 C 0.77264 0.84957 0.12538 0.0
C933 C 0.76622 0.86886 0.09988 0.0
C934 C 0.75852 0.88757 0.12495 0.0
C935 C 0.75784 0.88684 0.1755 0.0
C936 C 0.76458 0.86831 0.20096 0.0
C937 C 0.76337 0.87214 0.25514 0.0
C938 C 0.74714 0.85586 0.27916 0.0
C939 C 0.78646 0.87073 0.27833 0.0
C940 C 0.75454 0.89556 0.25622 0.0
C941 C 0.75121 0.90371 0.21005 0.0
C942 C 0.74228 0.92468 0.20229 0.0
C943 C 0.73653 0.93759 0.24284 0.0
C944 C 0.74005 0.92966 0.2907 0.0
C945 C 0.74953 0.9084 0.29688 0.0
H946 H 0.65533 0.29054 0.66044 0.0
H947 H 0.624 0.27364 0.52397 0.0
H948 H 0.58929 0.26444 0.5679 0.0
H949 H 0.63149 0.24931 0.73285 0.0
H950 H 0.62792 0.26673 0.7854 0.0
H951 H 0.6497 0.27254 0.74272 0.0
H952 H 0.6347 0.31239 0.7313 0.0
H953 H 0.61291 0.30674 0.77418 0.0
H954 H 0.60622 0.31642 0.7141 0.0
H955 H 0.55915 0.25366 0.62952 0.0
H956 H 0.53602 0.24494 0.70125 0.0
H957 H 0.58644 0.27348 0.79457 0.0
C958 C 0.6411 0.28501 0.63982 0.0
C959 C 0.64227 0.28256 0.58904 0.0
C960 C 0.62332 0.2756 0.56302 0.0
C961 C 0.6036 0.27033 0.58766 0.0
C962 C 0.60305 0.2727 0.63805 0.0
C963 C 0.62124 0.28029 0.66359 0.0
C964 C 0.61654 0.28164 0.71734 0.0
C965 C 0.63235 0.26666 0.74625 0.0
C966 C 0.61765 0.30573 0.73527 0.0
C967 C 0.59312 0.27291 0.71845 0.0
C968 C 0.58553 0.26775 0.67257 0.0
C969 C 0.56482 0.25801 0.66553 0.0
C970 C 0.55172 0.25322 0.70652 0.0
C971 C 0.55936 0.25827 0.75392 0.0
C972 C 0.58013 0.26882 0.75925 0.0
H973 H 0.23282 0.17442 0.1817 0.0
H974 H 0.18853 0.13175 0.09984 0.0
H975 H 0.19495 0.10172 0.15858 0.0
H976 H 0.27218 0.13195 0.21389 0.0
H977 H 0.27717 0.14312 0.27356 0.0
H978 H 0.26934 0.16125 0.22464 0.0
H979 H 0.23627 0.17562 0.27561 0.0
H980 H 0.24398 0.15753 0.32465 0.0
H981 H 0.21648 0.15615 0.2996 0.0
H982 H 0.20543 0.07661 0.22695 0.0
H983 H 0.21926 0.05811 0.30065 0.0
H984 H 0.2574 0.11678 0.33684 0.0
C985 C 0.22446 0.15878 0.176 0.0
C986 C 0.21012 0.15552 0.13609 0.0
C987 C 0.19958 0.13472 0.13007 0.0
C988 C 0.20312 0.11752 0.16322 0.0
C989 C 0.21731 0.12133 0.20211 0.0
C990 C 0.22784 0.14141 0.20864 0.0
C991 C 0.24214 0.14124 0.25371 0.0
C992 C 0.26666 0.14458 0.24065 0.0
C993 C 0.23424 0.15867 0.29057 0.0
C994 C 0.23782 0.11798 0.27175 0.0
C995 C 0.22351 0.10676 0.24137 0.0
C996 C 0.21678 0.08516 0.25085 0.0
C997 C 0.22485 0.07475 0.29264 0.0
C998 C 0.23952 0.08594 0.32443 0.0
C999 C 0.24609 0.10783 0.31353 0.0
H1000 H 0.23583 0.29448 0.93498 0.0
H1001 H 0.18804 0.28881 0.05194 0.0
H1002 H 0.18115 0.32898 0.04807 0.0
H1003 H 0.25976 0.34399 0.97732 0.0
H1004 H 0.26456 0.35569 0.91808 0.0
H1005 H 0.26376 0.32613 0.92561 0.0
H1006 H 0.23305 0.32342 0.86029 0.0
H1007 H 0.23369 0.35305 0.85273 0.0
H1008 H 0.20804 0.33935 0.86739 0.0
H1009 H 0.18077 0.36949 0.03515 0.0
H1010 H 0.18914 0.40869 0.01859 0.0
H1011 H 0.23873 0.38884 0.91315 0.0
C1012 C 0.22366 0.30172 0.9591 0.0
C1013 C 0.21237 0.28864 0.99358 0.0
C1014 C 0.19691 0.29864 0.02538 0.0
C1015 C 0.19275 0.32137 0.0232 0.0
C1016 C 0.20431 0.3339 0.98926 0.0
C1017 C 0.21959 0.32454 0.95802 0.0
C1018 C 0.23124 0.34214 0.92826 0.0
C1019 C 0.25631 0.34198 0.93792 0.0
C1020 C 0.22619 0.33932 0.87394 0.0
C1021 C 0.22043 0.36282 0.94844 0.0
C1022 C 0.20466 0.35761 0.98292 0.0
C1023 C 0.19303 0.37382 0.00812 0.0
C1024 C 0.19799 0.39602 0.99868 0.0
C1025 C 0.21466 0.40181 0.96481 0.0
C1026 C 0.22567 0.38494 0.93869 0.0
H1027 H 0.20206 0.73221 0.54869 0.0
H1028 H 0.21564 0.67923 0.44678 0.0
H1029 H 0.17646 0.66795 0.44927 0.0
H1030 H 0.1572 0.70343 0.61894 0.0
H1031 H 0.141 0.72835 0.6242 0.0
H1032 H 0.17076 0.72999 0.62157 0.0
H1033 H 0.16805 0.75664 0.54821 0.0
H1034 H 0.13836 0.75508 0.55062 0.0
H1035 H 0.15269 0.74822 0.49523 0.0
H1036 H 0.13605 0.66486 0.45492 0.0
H1037 H 0.09586 0.67131 0.46002 0.0
H1038 H 0.10722 0.72714 0.55589 0.0
C1039 C 0.19677 0.71788 0.52811 0.0
C1040 C 0.21173 0.70637 0.49795 0.0
C1041 C 0.20431 0.68814 0.47018 0.0
C1042 C 0.18216 0.68153 0.47164 0.0
C1043 C 0.16762 0.69345 0.5008 0.0
C1044 C 0.17451 0.71129 0.52846 0.0
C1045 C 0.15493 0.72282 0.55189 0.0
C1046 C 0.15605 0.72103 0.60746 0.0
C1047 C 0.15342 0.74712 0.53548 0.0
C1048 C 0.13601 0.70913 0.53165 0.0
C1049 C 0.14382 0.69201 0.50311 0.0
C1050 C 0.12969 0.678 0.47767 0.0
C1051 C 0.10693 0.68186 0.48056 0.0
C1052 C 0.09854 0.69969 0.50834 0.0
C1053 C 0.11324 0.71316 0.53513 0.0
H1054 H 0.76461 0.69909 0.97205 0.0
H1055 H 0.80874 0.71004 0.09386 0.0
H1056 H 0.81303 0.66965 0.10375 0.0
H1057 H 0.73631 0.65355 0.02508 0.0
H1058 H 0.73284 0.63856 0.96902 0.0
H1059 H 0.73483 0.66829 0.96831 0.0
H1060 H 0.76763 0.6659 0.90796 0.0
H1061 H 0.76575 0.63613 0.90851 0.0
H1062 H 0.79152 0.64951 0.92341 0.0
H1063 H 0.81216 0.62849 0.10145 0.0
H1064 H 0.80423 0.58885 0.09131 0.0
H1065 H 0.75822 0.6042 0.97501 0.0
C1066 C 0.77544 0.69293 0.00026 0.0
C1067 C 0.78652 0.70762 0.03195 0.0
C1068 C 0.80013 0.69902 0.06921 0.0
C1069 C 0.80275 0.67614 0.07496 0.0
C1070 C 0.79142 0.66208 0.0435 0.0
C1071 C 0.77789 0.67008 0.00713 0.0
C1072 C 0.76636 0.65131 0.98066 0.0
C1073 C 0.74109 0.65303 0.98612 0.0
C1074 C 0.77324 0.65068 0.92695 0.0
C1075 C 0.77544 0.63155 0.00807 0.0
C1076 C 0.79009 0.63819 0.04369 0.0
C1077 C 0.80059 0.62308 0.07393 0.0
C1078 C 0.79579 0.60057 0.06812 0.0
C1079 C 0.7803 0.59328 0.03287 0.0
C1080 C 0.77023 0.60909 0.0021 0.0
H1081 H 0.79854 0.26801 0.46427 0.0
H1082 H 0.78602 0.29747 0.60551 0.0
H1083 H 0.82625 0.30297 0.61666 0.0
H1084 H 0.84822 0.23898 0.49732 0.0
H1085 H 0.86133 0.24378 0.43951 0.0
H1086 H 0.83165 0.24201 0.44336 0.0
H1087 H 0.82828 0.28057 0.40283 0.0
H1088 H 0.85795 0.28251 0.39905 0.0
H1089 H 0.84241 0.30392 0.42929 0.0
H1090 H 0.86807 0.30598 0.61102 0.0
H1091 H 0.90781 0.30557 0.58994 0.0
H1092 H 0.89229 0.27323 0.45336 0.0
C1093 C 0.80415 0.27558 0.49771 0.0
C1094 C 0.78903 0.28232 0.53402 0.0
C1095 C 0.79723 0.29212 0.57718 0.0
C1096 C 0.82006 0.29534 0.58381 0.0
C1097 C 0.83443 0.28861 0.54705 0.0
C1098 C 0.82676 0.27885 0.50495 0.0
C1099 C 0.84552 0.27311 0.47084 0.0
C1100 C 0.84675 0.24798 0.46228 0.0
C1101 C 0.84341 0.28579 0.42267 0.0
C1102 C 0.86501 0.28126 0.50016 0.0
C1103 C 0.85833 0.29016 0.544 0.0
C1104 C 0.87348 0.29892 0.57692 0.0
C1105 C 0.89603 0.2985 0.56471 0.0
C1106 C 0.90323 0.28934 0.51999 0.0
C1107 C 0.88738 0.28062 0.48752 0.0
H1108 H 0.70906 0.19681 0.47022 0.0
H1109 H 0.72588 0.21334 0.61912 0.0
H1110 H 0.72587 0.17364 0.64007 0.0
H1111 H 0.67183 0.15181 0.50027 0.0
H1112 H 0.67986 0.13519 0.44885 0.0
H1113 H 0.68138 0.16492 0.44534 0.0
H1114 H 0.72279 0.16223 0.42176 0.0
H1115 H 0.72144 0.13249 0.42552 0.0
H1116 H 0.7416 0.14748 0.4608 0.0
H1117 H 0.72596 0.13246 0.64402 0.0
H1118 H 0.7228 0.09225 0.63322 0.0
H1119 H 0.70321 0.10208 0.48301 0.0
C1120 C 0.71274 0.19207 0.50725 0.0
C1121 C 0.71758 0.20819 0.54303 0.0
C1122 C 0.72206 0.20132 0.59116 0.0
C1123 C 0.7222 0.17881 0.60336 0.0
C1124 C 0.71756 0.16338 0.56717 0.0
C1125 C 0.71263 0.16967 0.52025 0.0
C1126 C 0.70767 0.1497 0.48864 0.0
C1127 C 0.68377 0.15045 0.46967 0.0
C1128 C 0.72438 0.14787 0.44671 0.0
C1129 C 0.71078 0.13118 0.52511 0.0
C1130 C 0.71665 0.13951 0.57001 0.0
C1131 C 0.721 0.12575 0.60926 0.0
C1132 C 0.71897 0.10288 0.60276 0.0
C1133 C 0.71227 0.09383 0.55751 0.0
C1134 C 0.70836 0.10831 0.51806 0.0
H1135 H 0.29676 0.2371 0.97089 0.0
H1136 H 0.28457 0.19915 0.10188 0.0
H1137 H 0.32488 0.19642 0.11584 0.0
H1138 H 0.34619 0.20888 0.93193 0.0
H1139 H 0.35983 0.23371 0.91142 0.0
H1140 H 0.33008 0.23198 0.91049 0.0
H1141 H 0.32749 0.26752 0.96288 0.0
H1142 H 0.35722 0.26944 0.96371 0.0
H1143 H 0.34199 0.26878 0.01997 0.0
H1144 H 0.36624 0.19659 0.11368 0.0
H1145 H 0.40596 0.20291 0.10134 0.0
H1146 H 0.3914 0.24393 0.9758 0.0
C1147 C 0.30261 0.22812 0.00236 0.0
C1148 C 0.28761 0.21817 0.03517 0.0
C1149 C 0.29582 0.2069 0.0764 0.0
C1150 C 0.31865 0.20517 0.08445 0.0
C1151 C 0.333 0.2151 0.05133 0.0
C1152 C 0.32533 0.22663 0.0115 0.0
C1153 C 0.34427 0.23672 0.98291 0.0
C1154 C 0.34514 0.22725 0.93112 0.0
C1155 C 0.34264 0.26212 0.98236 0.0
C1156 C 0.36381 0.22896 0.01279 0.0
C1157 C 0.3569 0.21628 0.05168 0.0
C1158 C 0.37184 0.2068 0.08385 0.0
C1159 C 0.39443 0.2107 0.07668 0.0
C1160 C 0.40202 0.22439 0.03819 0.0
C1161 C 0.38635 0.23338 0.00553 0.0
H1162 H 0.26383 0.80035 0.54274 0.0
H1163 H 0.29877 0.78719 0.4081 0.0
H1164 H 0.30787 0.8267 0.40044 0.0
H1165 H 0.23921 0.85088 0.50166 0.0
H1166 H 0.24107 0.86475 0.55945 0.0
H1167 H 0.23886 0.83506 0.55711 0.0
H1168 H 0.27477 0.83168 0.60784 0.0
H1169 H 0.2772 0.8614 0.60988 0.0
H1170 H 0.29972 0.84494 0.58679 0.0
H1171 H 0.31313 0.86688 0.40604 0.0
H1172 H 0.31026 0.90706 0.41888 0.0
H1173 H 0.26962 0.89575 0.54655 0.0
C1174 C 0.27347 0.80589 0.51191 0.0
C1175 C 0.28059 0.79081 0.47594 0.0
C1176 C 0.29297 0.79855 0.43574 0.0
C1177 C 0.29843 0.82091 0.43131 0.0
C1178 C 0.29117 0.8354 0.46712 0.0
C1179 C 0.27868 0.8284 0.50626 0.0
C1180 C 0.27153 0.84793 0.53719 0.0
C1181 C 0.24616 0.84976 0.53893 0.0
C1182 C 0.2814 0.84639 0.58847 0.0
C1183 C 0.28175 0.8669 0.50882 0.0
C1184 C 0.29337 0.85913 0.46915 0.0
C1185 C 0.304 0.87325 0.43682 0.0
C1186 C 0.30216 0.89604 0.44429 0.0
C1187 C 0.28947 0.90456 0.48329 0.0
C1188 C 0.27958 0.88973 0.51665 0.0
H1189 H 0.7032 0.78738 0.95748 0.0
H1190 H 0.71019 0.7588 0.10121 0.0
H1191 H 0.66983 0.75331 0.10554 0.0
H1192 H 0.65273 0.81717 0.98409 0.0
H1193 H 0.64109 0.8128 0.92463 0.0
H1194 H 0.67066 0.81401 0.93222 0.0
H1195 H 0.67433 0.77558 0.8913 0.0
H1196 H 0.64475 0.77413 0.88399 0.0
H1197 H 0.65917 0.75237 0.91555 0.0
H1198 H 0.62935 0.74929 0.09313 0.0
H1199 H 0.59024 0.75089 0.06901 0.0
H1200 H 0.6088 0.78485 0.93602 0.0
C1201 C 0.6962 0.77998 0.98983 0.0
C1202 C 0.7098 0.77343 0.02895 0.0
C1203 C 0.70005 0.76404 0.07093 0.0
C1204 C 0.67718 0.76072 0.07361 0.0
C1205 C 0.66427 0.76714 0.0343 0.0
C1206 C 0.67331 0.7769 0.99351 0.0
C1207 C 0.65551 0.78309 0.95728 0.0
C1208 C 0.65497 0.80826 0.9491 0.0
C1209 C 0.65864 0.77054 0.90919 0.0
C1210 C 0.6351 0.77516 0.98407 0.0
C1211 C 0.64061 0.76578 0.02812 0.0
C1212 C 0.62475 0.75689 0.05905 0.0
C1213 C 0.60254 0.75803 0.0451 0.0
C1214 C 0.5963 0.76835 0.00096 0.0
C1215 C 0.61294 0.77674 0.96983 0.0
loop_
_geom_bond_atom_site_label_1
_geom_bond_atom_site_label_2
_geom_bond_distance
_geom_bond_site_symmetry_2
_ccdc_geom_bond_type
Sc0 O3 2.025 . S
Sc0 O10 2.105 . S
Sc0 O13 2.105 . S
Sc0 O16 2.105 . S
Sc0 O19 2.105 . S
Sc1 O3 2.025 . S
Sc1 O11 2.105 . S
Sc1 O15 2.105 1_554 S
Sc1 O17 2.105 . S
Sc1 O21 2.105 1_554 S
Sc2 O3 2.025 1_556 S
Sc2 O12 2.105 . S
Sc2 O14 2.105 . S
Sc2 O18 2.105 . S
Sc2 O20 2.105 . S
O3 Sc0 2.025 . S
O3 Sc1 2.025 . S
O3 Sc2 2.025 1_554 S
C4 O10 1.268 . S
C4 O20 1.268 1_554 S
C5 O11 1.268 . S
C5 O19 1.268 . S
C6 O12 1.268 . S
C6 O21 1.268 . S
C7 O13 1.268 . S
C7 O17 1.268 . S
C8 O14 1.268 1_554 S
C8 O16 1.268 . S
C9 O15 1.268 . S
C9 O18 1.268 . S
O10 Sc0 2.105 . S
O10 C4 1.268 . S
O11 Sc1 2.105 . S
O11 C5 1.268 . S
O12 Sc2 2.105 . S
O12 C6 1.268 . S
O13 Sc0 2.105 . S
O13 C7 1.268 . S
O14 Sc2 2.105 . S
O14 C8 1.268 1_556 S
O15 Sc1 2.105 1_556 S
O15 C9 1.268 . S
O16 Sc0 2.105 . S
O16 C8 1.268 . S
O17 Sc1 2.105 . S
O17 C7 1.268 . S
O18 Sc2 2.105 . S
O18 C9 1.268 . S
O19 Sc0 2.105 . S
O19 C5 1.268 . S
O20 Sc2 2.105 . S
O20 C4 1.268 1_556 S
O21 Sc1 2.105 1_556 S
O21 C6 1.268 . S
Sc22 O25 2.025 . S
Sc22 O32 2.105 . S
Sc22 O35 2.105 . S
Sc22 O38 2.105 . S
Sc22 O41 2.105 . S
Sc23 O25 2.025 . S
Sc23 O33 2.105 . S
Sc23 O37 2.105 . S
Sc23 O39 2.105 . S
Sc23 O43 2.105 . S
Sc24 O25 2.025 . S
Sc24 O34 2.105 . S
Sc24 O36 2.105 . S
Sc24 O40 2.105 . S
Sc24 O42 2.105 . S
O25 Sc22 2.025 . S
O25 Sc23 2.025 . S
O25 Sc24 2.025 . S
C26 O32 1.268 . S
C26 O42 1.268 . S
C27 O33 1.268 . S
C27 O41 1.268 . S
C28 O34 1.268 . S
C28 O43 1.268 . S
C29 O35 1.268 . S
C29 O39 1.268 . S
C30 O36 1.268 . S
C30 O38 1.268 . S
C31 O37 1.268 . S
C31 O40 1.268 . S
O32 Sc22 2.105 . S
O32 C26 1.268 . S
O33 Sc23 2.105 . S
O33 C27 1.268 . S
O34 Sc24 2.105 . S
O34 C28 1.268 . S
O35 Sc22 2.105 . S
O35 C29 1.268 . S
O36 Sc24 2.105 . S
O36 C30 1.268 . S
O37 Sc23 2.105 . S
O37 C31 1.268 . S
O38 Sc22 2.105 . S
O38 C30 1.268 . S
O39 Sc23 2.105 . S
O39 C29 1.268 . S
O40 Sc24 2.105 . S
O40 C31 1.268 . S
O41 Sc22 2.105 . S
O41 C27 1.268 . S
O42 Sc24 2.105 . S
O42 C26 1.268 . S
O43 Sc23 2.105 . S
O43 C28 1.268 . S
Sc44 O47 2.025 1_556 S
Sc44 O54 2.105 . S
Sc44 O57 2.105 . S
Sc44 O60 2.105 . S
Sc44 O63 2.105 . S
Sc45 O47 2.025 . S
Sc45 O55 2.105 1_554 S
Sc45 O59 2.105 . S
Sc45 O61 2.105 1_554 S
Sc45 O65 2.105 . S
Sc46 O47 2.025 . S
Sc46 O56 2.105 . S
Sc46 O58 2.105 . S
Sc46 O62 2.105 . S
Sc46 O64 2.105 . S
O47 Sc44 2.025 1_554 S
O47 Sc45 2.025 . S
O47 Sc46 2.025 . S
C48 O54 1.268 1_554 S
C48 O64 1.268 . S
C49 O55 1.268 . S
C49 O63 1.268 . S
C50 O56 1.268 . S
C50 O65 1.268 . S
C51 O57 1.268 . S
C51 O61 1.268 . S
C52 O58 1.268 . S
C52 O60 1.268 1_554 S
C53 O59 1.268 . S
C53 O62 1.268 . S
O54 Sc44 2.105 . S
O54 C48 1.268 1_556 S
O55 Sc45 2.105 1_556 S
O55 C49 1.268 . S
O56 Sc46 2.105 . S
O56 C50 1.268 . S
O57 Sc44 2.105 . S
O57 C51 1.268 . S
O58 Sc46 2.105 . S
O58 C52 1.268 . S
O59 Sc45 2.105 . S
O59 C53 1.268 . S
O60 Sc44 2.105 . S
O60 C52 1.268 1_556 S
O61 Sc45 2.105 1_556 S
O61 C51 1.268 . S
O62 Sc46 2.105 . S
O62 C53 1.268 . S
O63 Sc44 2.105 . S
O63 C49 1.268 . S
O64 Sc46 2.105 . S
O64 C48 1.268 . S
O65 Sc45 2.105 . S
O65 C50 1.268 . S
Sc66 O69 2.025 . S
Sc66 O76 2.105 . S
Sc66 O79 2.105 . S
Sc66 O82 2.105 . S
Sc66 O85 2.105 . S
Sc67 O69 2.025 . S
Sc67 O77 2.105 . S
Sc67 O81 2.105 . S
Sc67 O83 2.105 . S
Sc67 O87 2.105 . S
Sc68 O69 2.025 . S
Sc68 O78 2.105 . S
Sc68 O80 2.105 . S
Sc68 O84 2.105 . S
Sc68 O86 2.105 . S
O69 Sc66 2.025 . S
O69 Sc67 2.025 . S
O69 Sc68 2.025 . S
C70 O76 1.268 . S
C70 O86 1.268 . S
C71 O77 1.268 . S
C71 O85 1.268 . S
C72 O78 1.268 . S
C72 O87 1.268 . S
C73 O79 1.268 . S
C73 O83 1.268 . S
C74 O80 1.268 . S
C74 O82 1.268 . S
C75 O81 1.268 . S
C75 O84 1.268 . S
O76 Sc66 2.105 . S
O76 C70 1.268 . S
O77 Sc67 2.105 . S
O77 C71 1.268 . S
O78 Sc68 2.105 . S
O78 C72 1.268 . S
O79 Sc66 2.105 . S
O79 C73 1.268 . S
O80 Sc68 2.105 . S
O80 C74 1.268 . S
O81 Sc67 2.105 . S
O81 C75 1.268 . S
O82 Sc66 2.105 . S
O82 C74 1.268 . S
O83 Sc67 2.105 . S
O83 C73 1.268 . S
O84 Sc68 2.105 . S
O84 C75 1.268 . S
O85 Sc66 2.105 . S
O85 C71 1.268 . S
O86 Sc68 2.105 . S
O86 C70 1.268 . S
O87 Sc67 2.105 . S
O87 C72 1.268 . S
C88 C89 1.391 . S
C88 C92 1.391 . S
C88 H130 0.948 . S
C89 C88 1.391 . S
C89 C90 1.391 . S
C90 C89 1.391 . S
C90 H146 0.947 . S
C90 C147 1.392 . S
C91 C92 1.391 . S
C91 C95 1.397 . S
C91 C147 1.419 . S
C92 C88 1.391 . S
C92 C91 1.391 . S
C92 C93 1.399 . S
C93 C92 1.399 . S
C93 C96 1.396 . S
C93 C105 1.453 . S
C93 C106 1.684 . S
H94 C118 0.948 . S
C95 C91 1.397 . S
C95 C96 1.394 . S
C95 C114 1.723 1_556 S
C96 C93 1.396 . S
C96 C95 1.394 . S
C96 C126 1.723 . S
H97 C120 0.947 . S
H98 C121 0.948 . S
H99 C127 0.982 . S
H100 C128 0.979 . S
H101 C128 0.980 . S
H102 C128 0.983 . S
H103 C127 0.979 . S
H104 C127 0.977 . S
C105 C93 1.453 . S
C105 H134 0.982 . S
C105 H135 0.979 . S
C105 H136 0.977 . S
C106 C93 1.684 . S
C106 H131 0.979 . S
C106 H132 0.980 . S
C106 H133 0.983 . S
C107 C108 1.391 . S
C107 C112 1.391 . S
C107 H137 0.948 . S
C108 C107 1.391 . S
C108 C109 1.391 . S
C109 C108 1.391 . S
C109 C110 1.392 . S
C109 H138 0.947 . S
C110 C109 1.392 . S
C110 C111 1.419 . S
C110 H139 0.948 . S
C111 C110 1.419 . S
C111 C112 1.391 . S
C111 C115 1.397 . S
C112 C107 1.391 . S
C112 C111 1.391 . S
C112 C113 1.399 . S
C113 C112 1.399 . S
C113 C114 1.396 . S
C113 C116 1.453 . S
C113 C117 1.684 . S
C114 C95 1.723 1_554 S
C114 C113 1.396 . S
C114 C115 1.394 . S
C115 C111 1.397 . S
C115 C114 1.394 . S
C115 C125 1.723 . S
C116 C113 1.453 . S
C116 H140 0.982 . S
C116 H141 0.979 . S
C116 H142 0.977 1_554 S
C117 C113 1.684 . S
C117 H143 0.979 . S
C117 H144 0.980 1_554 S
C117 H145 0.983 . S
C118 H94 0.948 . S
C118 C119 1.391 1_554 S
C118 C123 1.391 . S
C119 C118 1.391 1_556 S
C119 C120 1.391 . S
C120 H97 0.947 . S
C120 C119 1.391 . S
C120 C121 1.392 . S
C121 H98 0.948 . S
C121 C120 1.392 . S
C121 C122 1.419 . S
C122 C121 1.419 . S
C122 C123 1.391 1_556 S
C122 C126 1.397 . S
C123 C118 1.391 . S
C123 C122 1.391 1_554 S
C123 C124 1.399 . S
C124 C123 1.399 . S
C124 C125 1.396 . S
C124 C127 1.453 . S
C124 C128 1.684 . S
C125 C115 1.723 . S
C125 C124 1.396 . S
C125 C126 1.394 1_554 S
C126 C96 1.723 . S
C126 C122 1.397 . S
C126 C125 1.394 1_556 S
C127 H99 0.982 . S
C127 H103 0.979 . S
C127 H104 0.977 . S
C127 C124 1.453 . S
C128 H100 0.979 . S
C128 H101 0.980 . S
C128 H102 0.983 . S
C128 C124 1.684 . S
H129 C147 0.948 . S
H130 C88 0.948 . S
H131 C106 0.979 . S
H132 C106 0.980 . S
H133 C106 0.983 . S
H134 C105 0.982 . S
H135 C105 0.979 . S
H136 C105 0.977 . S
H137 C107 0.948 . S
H138 C109 0.947 . S
H139 C110 0.948 . S
H140 C116 0.982 . S
H141 C116 0.979 . S
H142 C116 0.977 1_556 S
H143 C117 0.979 . S
H144 C117 0.980 1_556 S
H145 C117 0.983 . S
H146 C90 0.947 . S
C147 C90 1.392 . S
C147 C91 1.419 . S
C147 H129 0.948 . S
C148 C149 1.391 . S
C148 C152 1.391 . S
C148 H190 0.948 . S
C149 C148 1.391 . S
C149 C150 1.391 . S
C150 C149 1.391 . S
C150 H206 0.947 . S
C150 C207 1.392 . S
C151 C152 1.391 . S
C151 C155 1.397 . S
C151 C207 1.419 . S
C152 C148 1.391 . S
C152 C151 1.391 . S
C152 C153 1.399 . S
C153 C152 1.399 . S
C153 C156 1.395 1_455 S
C153 C165 1.453 . S
C153 C166 1.684 . S
H154 C178 0.948 . S
C155 C151 1.397 . S
C155 C156 1.394 1_455 S
C155 C174 1.723 1_455 S
C156 C153 1.395 1_655 S
C156 C155 1.394 1_655 S
C156 C186 1.725 . S
H157 C180 0.947 . S
H158 C181 0.948 . S
H159 C187 0.982 . S
H160 C188 0.979 . S
H161 C188 0.980 . S
H162 C188 0.983 . S
H163 C187 0.979 . S
H164 C187 0.977 . S
C165 C153 1.453 . S
C165 H194 0.982 . S
C165 H195 0.979 . S
C165 H196 0.977 . S
C166 C153 1.684 . S
C166 H191 0.979 . S
C166 H192 0.980 . S
C166 H193 0.983 . S
C167 C168 1.391 . S
C167 C172 1.391 . S
C167 H197 0.948 . S
C168 C167 1.391 . S
C168 C169 1.391 . S
C169 C168 1.391 . S
C169 C170 1.392 . S
C169 H198 0.947 . S
C170 C169 1.392 . S
C170 C171 1.419 . S
C170 H199 0.948 . S
C171 C170 1.419 . S
C171 C172 1.391 . S
C171 C175 1.397 . S
C172 C167 1.391 . S
C172 C171 1.391 . S
C172 C173 1.399 . S
C173 C172 1.399 . S
C173 C174 1.396 . S
C173 C176 1.419 1_655 S
C173 C177 1.689 . S
C174 C155 1.723 1_655 S
C174 C173 1.396 . S
C174 C175 1.394 . S
C175 C171 1.397 . S
C175 C174 1.394 . S
C175 C185 1.723 . S
C176 C173 1.419 1_455 S
C176 H200 0.971 1_455 S
C176 H201 0.981 . S
C176 H202 1.024 . S
C177 C173 1.689 . S
C177 H203 0.982 . S
C177 H204 0.971 1_655 S
C177 H205 0.983 . S
C178 H154 0.948 . S
C178 C179 1.391 . S
C178 C183 1.391 . S
C179 C178 1.391 . S
C179 C180 1.391 . S
C180 H157 0.947 . S
C180 C179 1.391 . S
C180 C181 1.392 . S
C181 H158 0.948 . S
C181 C180 1.392 . S
C181 C182 1.419 . S
C182 C181 1.419 . S
C182 C183 1.391 . S
C182 C186 1.397 . S
C183 C178 1.391 . S
C183 C182 1.391 . S
C183 C184 1.399 . S
C184 C183 1.399 . S
C184 C185 1.396 . S
C184 C187 1.453 . S
C184 C188 1.684 . S
C185 C175 1.723 . S
C185 C184 1.396 . S
C185 C186 1.394 . S
C186 C156 1.725 . S
C186 C182 1.397 . S
C186 C185 1.394 . S
C187 H159 0.982 . S
C187 H163 0.979 . S
C187 H164 0.977 . S
C187 C184 1.453 . S
C188 H160 0.979 . S
C188 H161 0.980 . S
C188 H162 0.983 . S
C188 C184 1.684 . S
H189 C207 0.948 . S
H190 C148 0.948 . S
H191 C166 0.979 . S
H192 C166 0.980 . S
H193 C166 0.983 . S
H194 C165 0.982 . S
H195 C165 0.979 . S
H196 C165 0.977 . S
H197 C167 0.948 . S
H198 C169 0.947 . S
H199 C170 0.948 . S
H200 C176 0.971 1_655 S
H201 C176 0.981 . S
H202 C176 1.024 . S
H203 C177 0.982 . S
H204 C177 0.971 1_455 S
H205 C177 0.983 . S
H206 C150 0.947 . S
C207 C150 1.392 . S
C207 C151 1.419 . S
C207 H189 0.948 . S
C208 C209 1.391 . S
C208 C212 1.391 . S
C208 H250 0.948 . S
C209 C208 1.391 . S
C209 C210 1.391 . S
C210 C209 1.391 . S
C210 H266 0.947 . S
C210 C267 1.392 . S
C211 C212 1.391 . S
C211 C215 1.397 . S
C211 C267 1.419 . S
C212 C208 1.391 . S
C212 C211 1.391 . S
C212 C213 1.399 . S
C213 C212 1.399 . S
C213 C216 1.396 . S
C213 C225 1.453 . S
C213 C226 1.684 . S
H214 C238 0.948 . S
C215 C211 1.397 . S
C215 C216 1.394 . S
C215 C234 1.723 1_554 S
C216 C213 1.396 . S
C216 C215 1.394 . S
C216 C246 1.723 . S
H217 C240 0.947 . S
H218 C241 0.948 . S
H219 C247 0.982 . S
H220 C248 0.979 . S
H221 C248 0.980 . S
H222 C248 0.983 . S
H223 C247 0.979 . S
H224 C247 0.977 . S
C225 C213 1.453 . S
C225 H254 0.982 . S
C225 H255 0.979 . S
C225 H256 0.977 . S
C226 C213 1.684 . S
C226 H251 0.979 . S
C226 H252 0.980 . S
C226 H253 0.983 . S
C227 C228 1.391 . S
C227 C232 1.391 . S
C227 H257 0.948 . S
C228 C227 1.391 . S
C228 C229 1.391 . S
C229 C228 1.391 . S
C229 C230 1.392 . S
C229 H258 0.947 . S
C230 C229 1.392 . S
C230 C231 1.419 . S
C230 H259 0.948 . S
C231 C230 1.419 . S
C231 C232 1.391 . S
C231 C235 1.397 . S
C232 C227 1.391 . S
C232 C231 1.391 . S
C232 C233 1.399 . S
C233 C232 1.399 . S
C233 C234 1.396 . S
C233 C236 1.453 . S
C233 C237 1.684 . S
C234 C215 1.723 1_556 S
C234 C233 1.396 . S
C234 C235 1.394 . S
C235 C231 1.397 . S
C235 C234 1.394 . S
C235 C245 1.723 . S
C236 C233 1.453 . S
C236 H260 0.982 . S
C236 H261 0.979 . S
C236 H262 0.977 1_556 S
C237 C233 1.684 . S
C237 H263 0.979 . S
C237 H264 0.980 1_556 S
C237 H265 0.983 . S
C238 H214 0.948 . S
C238 C239 1.391 1_556 S
C238 C243 1.391 . S
C239 C238 1.391 1_554 S
C239 C240 1.391 . S
C240 H217 0.947 . S
C240 C239 1.391 . S
C240 C241 1.392 . S
C241 H218 0.948 . S
C241 C240 1.392 . S
C241 C242 1.419 . S
C242 C241 1.419 . S
C242 C243 1.391 1_554 S
C242 C246 1.397 . S
C243 C238 1.391 . S
C243 C242 1.391 1_556 S
C243 C244 1.399 . S
C244 C243 1.399 . S
C244 C245 1.396 . S
C244 C247 1.453 . S
C244 C248 1.684 . S
C245 C235 1.723 . S
C245 C244 1.396 . S
C245 C246 1.394 1_556 S
C246 C216 1.723 . S
C246 C242 1.397 . S
C246 C245 1.394 1_554 S
C247 H219 0.982 . S
C247 H223 0.979 . S
C247 H224 0.977 . S
C247 C244 1.453 . S
C248 H220 0.979 . S
C248 H221 0.980 . S
C248 H222 0.983 . S
C248 C244 1.684 . S
H249 C267 0.948 . S
H250 C208 0.948 . S
H251 C226 0.979 . S
H252 C226 0.980 . S
H253 C226 0.983 . S
H254 C225 0.982 . S
H255 C225 0.979 . S
H256 C225 0.977 . S
H257 C227 0.948 . S
H258 C229 0.947 . S
H259 C230 0.948 . S
H260 C236 0.982 . S
H261 C236 0.979 . S
H262 C236 0.977 1_554 S
H263 C237 0.979 . S
H264 C237 0.980 1_554 S
H265 C237 0.983 . S
H266 C210 0.947 . S
C267 C210 1.392 . S
C267 C211 1.419 . S
C267 H249 0.948 . S
C268 C269 1.391 . S
C268 C272 1.391 . S
C268 H310 0.948 . S
C269 C268 1.391 . S
C269 C270 1.391 . S
C270 C269 1.391 . S
C270 H326 0.947 . S
C270 C327 1.392 . S
C271 C272 1.391 . S
C271 C275 1.397 . S
C271 C327 1.419 . S
C272 C268 1.391 . S
C272 C271 1.391 . S
C272 C273 1.399 . S
C273 C272 1.399 . S
C273 C276 1.396 . S
C273 C285 1.420 1_455 S
C273 C286 1.689 . S
H274 C298 0.948 . S
C275 C271 1.397 . S
C275 C276 1.394 . S
C275 C294 1.723 . S
C276 C273 1.396 . S
C276 C275 1.394 . S
C276 C306 1.723 1_455 S
H277 C300 0.947 . S
H278 C301 0.948 . S
H279 C307 0.982 . S
H280 C308 0.979 . S
H281 C308 0.980 . S
H282 C308 0.983 . S
H283 C307 0.979 . S
H284 C307 0.977 . S
C285 C273 1.420 1_655 S
C285 H314 0.971 1_655 S
C285 H315 0.981 . S
C285 H316 1.023 . S
C286 C273 1.689 . S
C286 H311 0.982 . S
C286 H312 0.971 1_455 S
C286 H313 0.983 . S
C287 C288 1.391 . S
C287 C292 1.391 . S
C287 H317 0.948 . S
C288 C287 1.391 . S
C288 C289 1.391 . S
C289 C288 1.391 . S
C289 C290 1.392 . S
C289 H318 0.947 . S
C290 C289 1.392 . S
C290 C291 1.419 . S
C290 H319 0.948 . S
C291 C290 1.419 . S
C291 C292 1.391 . S
C291 C295 1.397 . S
C292 C287 1.391 . S
C292 C291 1.391 . S
C292 C293 1.399 . S
C293 C292 1.399 . S
C293 C294 1.396 . S
C293 C296 1.453 . S
C293 C297 1.684 . S
C294 C275 1.723 . S
C294 C293 1.396 . S
C294 C295 1.394 . S
C295 C291 1.397 . S
C295 C294 1.394 . S
C295 C305 1.725 . S
C296 C293 1.453 . S
C296 H320 0.982 . S
C296 H321 0.979 . S
C296 H322 0.977 . S
C297 C293 1.684 . S
C297 H323 0.979 . S
C297 H324 0.980 . S
C297 H325 0.983 . S
C298 H274 0.948 . S
C298 C299 1.391 . S
C298 C303 1.391 . S
C299 C298 1.391 . S
C299 C300 1.391 . S
C300 H277 0.947 . S
C300 C299 1.391 . S
C300 C301 1.392 . S
C301 H278 0.948 . S
C301 C300 1.392 . S
C301 C302 1.419 . S
C302 C301 1.419 . S
C302 C303 1.391 . S
C302 C306 1.397 . S
C303 C298 1.391 . S
C303 C302 1.391 . S
C303 C304 1.399 . S
C304 C303 1.399 . S
C304 C305 1.395 1_655 S
C304 C307 1.453 . S
C304 C308 1.684 . S
C305 C295 1.725 . S
C305 C304 1.395 1_455 S
C305 C306 1.394 1_455 S
C306 C276 1.723 1_655 S
C306 C302 1.397 . S
C306 C305 1.394 1_655 S
C307 H279 0.982 . S
C307 H283 0.979 . S
C307 H284 0.977 . S
C307 C304 1.453 . S
C308 H280 0.979 . S
C308 H281 0.980 . S
C308 H282 0.983 . S
C308 C304 1.684 . S
H309 C327 0.948 . S
H310 C268 0.948 . S
H311 C286 0.982 . S
H312 C286 0.971 1_655 S
H313 C286 0.983 . S
H314 C285 0.971 1_455 S
H315 C285 0.981 . S
H316 C285 1.023 . S
H317 C287 0.948 . S
H318 C289 0.947 . S
H319 C290 0.948 . S
H320 C296 0.982 . S
H321 C296 0.979 . S
H322 C296 0.977 . S
H323 C297 0.979 . S
H324 C297 0.980 . S
H325 C297 0.983 . S
H326 C270 0.947 . S
C327 C270 1.392 . S
C327 C271 1.419 . S
C327 H309 0.948 . S
C328 C329 1.391 . S
C328 C332 1.391 . S
C328 H370 0.948 . S
C329 C328 1.391 . S
C329 C330 1.391 . S
C330 C329 1.391 . S
C330 H386 0.947 . S
C330 C387 1.392 . S
C331 C332 1.391 . S
C331 C335 1.397 . S
C331 C387 1.419 . S
C332 C328 1.391 . S
C332 C331 1.391 . S
C332 C333 1.399 . S
C333 C332 1.399 . S
C333 C336 1.396 . S
C333 C345 1.419 1_565 S
C333 C346 1.689 . S
H334 C358 0.948 . S
C335 C331 1.397 . S
C335 C336 1.394 . S
C335 C354 1.723 . S
C336 C333 1.396 . S
C336 C335 1.394 . S
C336 C366 1.723 1_565 S
H337 C360 0.947 . S
H338 C361 0.948 . S
H339 C367 0.982 . S
H340 C368 0.979 . S
H341 C368 0.980 . S
H342 C368 0.983 . S
H343 C367 0.979 . S
H344 C367 0.977 . S
C345 C333 1.419 1_545 S
C345 H374 0.971 1_545 S
C345 H375 0.981 . S
C345 H376 1.023 . S
C346 C333 1.689 . S
C346 H371 0.982 . S
C346 H372 0.971 1_565 S
C346 H373 0.983 . S
C347 C348 1.391 . S
C347 C352 1.391 . S
C347 H377 0.948 . S
C348 C347 1.391 . S
C348 C349 1.391 . S
C349 C348 1.391 . S
C349 C350 1.392 . S
C349 H378 0.947 . S
C350 C349 1.392 . S
C350 C351 1.419 . S
C350 H379 0.948 . S
C351 C350 1.419 . S
C351 C352 1.391 . S
C351 C355 1.397 . S
C352 C347 1.391 . S
C352 C351 1.391 . S
C352 C353 1.399 . S
C353 C352 1.399 . S
C353 C354 1.396 . S
C353 C356 1.453 . S
C353 C357 1.684 . S
C354 C335 1.723 . S
C354 C353 1.396 . S
C354 C355 1.394 . S
C355 C351 1.397 . S
C355 C354 1.394 . S
C355 C365 1.725 . S
C356 C353 1.453 . S
C356 H380 0.982 . S
C356 H381 0.979 . S
C356 H382 0.977 . S
C357 C353 1.684 . S
C357 H383 0.979 . S
C357 H384 0.980 . S
C357 H385 0.983 . S
C358 H334 0.948 . S
C358 C359 1.391 . S
C358 C363 1.391 . S
C359 C358 1.391 . S
C359 C360 1.391 . S
C360 H337 0.947 . S
C360 C359 1.391 . S
C360 C361 1.392 . S
C361 H338 0.948 . S
C361 C360 1.392 . S
C361 C362 1.419 . S
C362 C361 1.419 . S
C362 C363 1.391 . S
C362 C366 1.397 . S
C363 C358 1.391 . S
C363 C362 1.391 . S
C363 C364 1.399 . S
C364 C363 1.399 . S
C364 C365 1.395 1_545 S
C364 C367 1.453 . S
C364 C368 1.684 . S
C365 C355 1.725 . S
C365 C364 1.395 1_565 S
C365 C366 1.394 1_565 S
C366 C336 1.723 1_545 S
C366 C362 1.397 . S
C366 C365 1.394 1_545 S
C367 H339 0.982 . S
C367 H343 0.979 . S
C367 H344 0.977 . S
C367 C364 1.453 . S
C368 H340 0.979 . S
C368 H341 0.980 . S
C368 H342 0.983 . S
C368 C364 1.684 . S
H369 C387 0.948 . S
H370 C328 0.948 . S
H371 C346 0.982 . S
H372 C346 0.971 1_545 S
H373 C346 0.983 . S
H374 C345 0.971 1_565 S
H375 C345 0.981 . S
H376 C345 1.023 . S
H377 C347 0.948 . S
H378 C349 0.947 . S
H379 C350 0.948 . S
H380 C356 0.982 . S
H381 C356 0.979 . S
H382 C356 0.977 . S
H383 C357 0.979 . S
H384 C357 0.980 . S
H385 C357 0.983 . S
H386 C330 0.947 . S
C387 C330 1.392 . S
C387 C331 1.419 . S
C387 H369 0.948 . S
C388 C389 1.391 . S
C388 C392 1.391 . S
C388 H430 0.948 . S
C389 C388 1.391 . S
C389 C390 1.391 . S
C390 C389 1.391 . S
C390 H446 0.947 . S
C390 C447 1.392 . S
C391 C392 1.391 . S
C391 C395 1.397 . S
C391 C447 1.419 . S
C392 C388 1.391 . S
C392 C391 1.391 . S
C392 C393 1.399 . S
C393 C392 1.399 . S
C393 C396 1.396 . S
C393 C405 1.453 . S
C393 C406 1.684 . S
H394 C418 0.948 . S
C395 C391 1.397 . S
C395 C396 1.394 . S
C395 C414 1.723 1_554 S
C396 C393 1.396 . S
C396 C395 1.394 . S
C396 C426 1.723 . S
H397 C420 0.947 . S
H398 C421 0.948 . S
H399 C427 0.982 . S
H400 C428 0.979 . S
H401 C428 0.980 . S
H402 C428 0.983 . S
H403 C427 0.979 . S
H404 C427 0.977 . S
C405 C393 1.453 . S
C405 H434 0.982 . S
C405 H435 0.979 . S
C405 H436 0.977 . S
C406 C393 1.684 . S
C406 H431 0.979 . S
C406 H432 0.980 . S
C406 H433 0.983 . S
C407 C408 1.391 . S
C407 C412 1.391 . S
C407 H437 0.948 . S
C408 C407 1.391 . S
C408 C409 1.391 . S
C409 C408 1.391 . S
C409 C410 1.392 . S
C409 H438 0.947 . S
C410 C409 1.392 . S
C410 C411 1.419 . S
C410 H439 0.948 . S
C411 C410 1.419 . S
C411 C412 1.391 . S
C411 C415 1.397 . S
C412 C407 1.391 . S
C412 C411 1.391 . S
C412 C413 1.399 . S
C413 C412 1.399 . S
C413 C414 1.396 . S
C413 C416 1.453 . S
C413 C417 1.684 . S
C414 C395 1.723 1_556 S
C414 C413 1.396 . S
C414 C415 1.394 . S
C415 C411 1.397 . S
C415 C414 1.394 . S
C415 C425 1.723 . S
C416 C413 1.453 . S
C416 H440 0.982 . S
C416 H441 0.979 . S
C416 H442 0.977 1_556 S
C417 C413 1.684 . S
C417 H443 0.979 . S
C417 H444 0.980 1_556 S
C417 H445 0.983 . S
C418 H394 0.948 . S
C418 C419 1.391 1_556 S
C418 C423 1.391 . S
C419 C418 1.391 1_554 S
C419 C420 1.391 . S
C420 H397 0.947 . S
C420 C419 1.391 . S
C420 C421 1.392 . S
C421 H398 0.948 . S
C421 C420 1.392 . S
C421 C422 1.419 . S
C422 C421 1.419 . S
C422 C423 1.391 1_554 S
C422 C426 1.397 . S
C423 C418 1.391 . S
C423 C422 1.391 1_556 S
C423 C424 1.399 . S
C424 C423 1.399 . S
C424 C425 1.396 . S
C424 C427 1.453 . S
C424 C428 1.684 . S
C425 C415 1.723 . S
C425 C424 1.396 . S
C425 C426 1.394 1_556 S
C426 C396 1.723 . S
C426 C422 1.397 . S
C426 C425 1.394 1_554 S
C427 H399 0.982 . S
C427 H403 0.979 . S
C427 H404 0.977 . S
C427 C424 1.453 . S
C428 H400 0.979 . S
C428 H401 0.980 . S
C428 H402 0.983 . S
C428 C424 1.684 . S
H429 C447 0.948 . S
H430 C388 0.948 . S
H431 C406 0.979 . S
H432 C406 0.980 . S
H433 C406 0.983 . S
H434 C405 0.982 . S
H435 C405 0.979 . S
H436 C405 0.977 . S
H437 C407 0.948 . S
H438 C409 0.947 . S
H439 C410 0.948 . S
H440 C416 0.982 . S
H441 C416 0.979 . S
H442 C416 0.977 1_554 S
H443 C417 0.979 . S
H444 C417 0.980 1_554 S
H445 C417 0.983 . S
H446 C390 0.947 . S
C447 C390 1.392 . S
C447 C391 1.419 . S
C447 H429 0.948 . S
C448 C449 1.391 . S
C448 C452 1.391 . S
C448 H490 0.948 . S
C449 C448 1.391 . S
C449 C450 1.391 . S
C450 C449 1.391 . S
C450 H506 0.947 . S
C450 C507 1.392 . S
C451 C452 1.391 . S
C451 C455 1.397 . S
C451 C507 1.419 . S
C452 C448 1.391 . S
C452 C451 1.391 . S
C452 C453 1.399 . S
C453 C452 1.399 . S
C453 C456 1.396 . S
C453 C465 1.453 . S
C453 C466 1.684 1_545 S
H454 C478 0.948 . S
C455 C451 1.397 . S
C455 C456 1.394 . S
C455 C474 1.723 . S
C456 C453 1.396 . S
C456 C455 1.394 . S
C456 C486 1.723 1_545 S
H457 C480 0.947 . S
H458 C481 0.948 . S
H459 C487 0.982 . S
H460 C488 0.979 . S
H461 C488 0.980 . S
H462 C488 0.983 . S
H463 C487 0.979 . S
H464 C487 0.977 . S
C465 C453 1.453 . S
C465 H494 0.982 . S
C465 H495 0.979 . S
C465 H496 0.977 1_545 S
C466 C453 1.684 1_565 S
C466 H491 0.979 . S
C466 H492 0.980 . S
C466 H493 0.983 . S
C467 C468 1.391 . S
C467 C472 1.391 . S
C467 H497 0.948 . S
C468 C467 1.391 . S
C468 C469 1.391 . S
C469 C468 1.391 . S
C469 C470 1.392 . S
C469 H498 0.947 . S
C470 C469 1.392 . S
C470 C471 1.419 . S
C470 H499 0.948 . S
C471 C470 1.419 . S
C471 C472 1.391 . S
C471 C475 1.397 . S
C472 C467 1.391 . S
C472 C471 1.391 . S
C472 C473 1.399 . S
C473 C472 1.399 . S
C473 C474 1.396 . S
C473 C476 1.453 . S
C473 C477 1.684 . S
C474 C455 1.723 . S
C474 C473 1.396 . S
C474 C475 1.394 . S
C475 C471 1.397 . S
C475 C474 1.394 . S
C475 C485 1.745 . S
C476 C473 1.453 . S
C476 H500 0.982 . S
C476 H501 0.979 . S
C476 H502 0.977 . S
C477 C473 1.684 . S
C477 H503 0.979 . S
C477 H504 0.980 . S
C477 H505 0.983 . S
C478 H454 0.948 . S
C478 C479 1.391 . S
C478 C483 1.391 . S
C479 C478 1.391 . S
C479 C480 1.391 . S
C480 H457 0.947 . S
C480 C479 1.391 . S
C480 C481 1.392 . S
C481 H458 0.948 . S
C481 C480 1.392 . S
C481 C482 1.419 . S
C482 C481 1.419 . S
C482 C483 1.391 . S
C482 C486 1.397 . S
C483 C478 1.391 . S
C483 C482 1.391 . S
C483 C484 1.399 . S
C484 C483 1.399 . S
C484 C485 1.377 1_565 S
C484 C487 1.453 . S
C484 C488 1.684 . S
C485 C475 1.745 . S
C485 C484 1.377 1_545 S
C485 C486 1.390 1_545 S
C486 C456 1.723 1_565 S
C486 C482 1.397 . S
C486 C485 1.390 1_565 S
C487 H459 0.982 . S
C487 H463 0.979 . S
C487 H464 0.977 . S
C487 C484 1.453 . S
C488 H460 0.979 . S
C488 H461 0.980 . S
C488 H462 0.983 . S
C488 C484 1.684 . S
H489 C507 0.948 . S
H490 C448 0.948 . S
H491 C466 0.979 . S
H492 C466 0.980 . S
H493 C466 0.983 . S
H494 C465 0.982 . S
H495 C465 0.979 . S
H496 C465 0.977 1_565 S
H497 C467 0.948 . S
H498 C469 0.947 . S
H499 C470 0.948 . S
H500 C476 0.982 . S
H501 C476 0.979 . S
H502 C476 0.977 . S
H503 C477 0.979 . S
H504 C477 0.980 . S
H505 C477 0.983 . S
H506 C450 0.947 . S
C507 C450 1.392 . S
C507 C451 1.419 . S
C507 H489 0.948 . S
C508 C509 1.391 1_554 S
C508 C512 1.391 . S
C508 H550 0.948 . S
C509 C508 1.391 1_556 S
C509 C510 1.391 . S
C510 C509 1.391 . S
C510 H566 0.947 . S
C510 C567 1.392 . S
C511 C512 1.391 1_556 S
C511 C515 1.397 . S
C511 C567 1.419 . S
C512 C508 1.391 . S
C512 C511 1.391 1_554 S
C512 C513 1.399 . S
C513 C512 1.399 . S
C513 C516 1.396 . S
C513 C525 1.453 . S
C513 C526 1.684 . S
H514 C538 0.948 . S
C515 C511 1.397 . S
C515 C516 1.394 1_556 S
C515 C534 1.723 . S
C516 C513 1.396 . S
C516 C515 1.394 1_554 S
C516 C546 1.723 . S
H517 C540 0.947 . S
H518 C541 0.948 . S
H519 C547 0.982 . S
H520 C548 0.979 . S
H521 C548 0.980 1_556 S
H522 C548 0.983 . S
H523 C547 0.979 . S
H524 C547 0.977 1_556 S
C525 C513 1.453 . S
C525 H554 0.982 . S
C525 H555 0.979 . S
C525 H556 0.977 . S
C526 C513 1.684 . S
C526 H551 0.979 . S
C526 H552 0.980 . S
C526 H553 0.983 . S
C527 C528 1.391 . S
C527 C532 1.391 . S
C527 H557 0.948 . S
C528 C527 1.391 . S
C528 C529 1.391 . S
C529 C528 1.391 . S
C529 C530 1.392 . S
C529 H558 0.947 . S
C530 C529 1.392 . S
C530 C531 1.419 . S
C530 H559 0.948 . S
C531 C530 1.419 . S
C531 C532 1.391 . S
C531 C535 1.397 . S
C532 C527 1.391 . S
C532 C531 1.391 . S
C532 C533 1.399 . S
C533 C532 1.399 . S
C533 C534 1.396 . S
C533 C536 1.453 . S
C533 C537 1.684 . S
C534 C515 1.723 . S
C534 C533 1.396 . S
C534 C535 1.394 . S
C535 C531 1.397 . S
C535 C534 1.394 . S
C535 C545 1.723 1_556 S
C536 C533 1.453 . S
C536 H560 0.982 . S
C536 H561 0.979 . S
C536 H562 0.977 . S
C537 C533 1.684 . S
C537 H563 0.979 . S
C537 H564 0.980 . S
C537 H565 0.983 . S
C538 H514 0.948 . S
C538 C539 1.391 . S
C538 C543 1.391 . S
C539 C538 1.391 . S
C539 C540 1.391 . S
C540 H517 0.947 . S
C540 C539 1.391 . S
C540 C541 1.392 . S
C541 H518 0.948 . S
C541 C540 1.392 . S
C541 C542 1.419 . S
C542 C541 1.419 . S
C542 C543 1.391 . S
C542 C546 1.397 . S
C543 C538 1.391 . S
C543 C542 1.391 . S
C543 C544 1.399 . S
C544 C543 1.399 . S
C544 C545 1.396 . S
C544 C547 1.453 . S
C544 C548 1.684 . S
C545 C535 1.723 1_554 S
C545 C544 1.396 . S
C545 C546 1.394 . S
C546 C516 1.723 . S
C546 C542 1.397 . S
C546 C545 1.394 . S
C547 H519 0.982 . S
C547 H523 0.979 . S
C547 H524 0.977 1_554 S
C547 C544 1.453 . S
C548 H520 0.979 . S
C548 H521 0.980 1_554 S
C548 H522 0.983 . S
C548 C544 1.684 . S
H549 C567 0.948 . S
H550 C508 0.948 . S
H551 C526 0.979 . S
H552 C526 0.980 . S
H553 C526 0.983 . S
H554 C525 0.982 . S
H555 C525 0.979 . S
H556 C525 0.977 . S
H557 C527 0.948 . S
H558 C529 0.947 . S
H559 C530 0.948 . S
H560 C536 0.982 . S
H561 C536 0.979 . S
H562 C536 0.977 . S
H563 C537 0.979 . S
H564 C537 0.980 . S
H565 C537 0.983 . S
H566 C510 0.947 . S
C567 C510 1.392 . S
C567 C511 1.419 . S
C567 H549 0.948 . S
H568 C580 0.930 . S
H569 C582 0.930 . S
H570 C583 0.930 . S
H571 C587 0.959 . S
H572 C587 0.959 . S
H573 C587 0.961 . S
H574 C588 0.960 . S
H575 C588 0.961 . S
H576 C588 0.959 . S
H577 C591 0.929 . S
H578 C592 0.931 . S
H579 C594 0.930 . S
C580 H568 0.930 . S
C580 C581 1.399 . S
C580 C585 1.399 . S
C581 C580 1.399 . S
C581 C582 1.376 . S
C582 H569 0.930 . S
C582 C581 1.376 . S
C582 C583 1.388 . S
C583 H570 0.930 . S
C583 C582 1.388 . S
C583 C584 1.390 . S
C584 C583 1.390 . S
C584 C585 1.394 . S
C584 C590 1.465 . S
C585 C580 1.399 . S
C585 C584 1.394 . S
C585 C586 1.516 . S
C586 C585 1.516 . S
C586 C587 1.502 . S
C586 C588 1.561 . S
C586 C589 1.526 . S
C587 H571 0.959 . S
C587 H572 0.959 . S
C587 H573 0.961 . S
C587 C586 1.502 . S
C588 H574 0.960 . S
C588 H575 0.961 . S
C588 H576 0.959 . S
C588 C586 1.561 . S
C589 C586 1.526 . S
C589 C590 1.396 . S
C589 C594 1.390 . S
C590 C584 1.465 . S
C590 C589 1.396 . S
C590 C591 1.399 . S
C591 H577 0.929 . S
C591 C590 1.399 . S
C591 C592 1.385 . S
C592 H578 0.931 . S
C592 C591 1.385 . S
C592 C593 1.389 . S
C593 C592 1.389 . S
C593 C594 1.387 . S
C594 H579 0.930 . S
C594 C589 1.390 . S
C594 C593 1.387 . S
H595 C607 0.930 . S
H596 C609 0.930 . S
H597 C610 0.930 . S
H598 C614 0.959 . S
H599 C614 0.959 . S
H600 C614 0.961 . S
H601 C615 0.960 . S
H602 C615 0.961 . S
H603 C615 0.959 . S
H604 C618 0.929 . S
H605 C619 0.931 . S
H606 C621 0.930 . S
C607 H595 0.930 . S
C607 C608 1.399 . S
C607 C612 1.399 . S
C608 C607 1.399 . S
C608 C609 1.376 . S
C609 H596 0.930 . S
C609 C608 1.376 . S
C609 C610 1.388 . S
C610 H597 0.930 . S
C610 C609 1.388 . S
C610 C611 1.390 . S
C611 C610 1.390 . S
C611 C612 1.394 . S
C611 C617 1.465 . S
C612 C607 1.399 . S
C612 C611 1.394 . S
C612 C613 1.516 . S
C613 C612 1.516 . S
C613 C614 1.502 . S
C613 C615 1.561 . S
C613 C616 1.526 . S
C614 H598 0.959 . S
C614 H599 0.959 . S
C614 H600 0.961 . S
C614 C613 1.502 . S
C615 H601 0.960 . S
C615 H602 0.961 . S
C615 H603 0.959 . S
C615 C613 1.561 . S
C616 C613 1.526 . S
C616 C617 1.396 . S
C616 C621 1.390 . S
C617 C611 1.465 . S
C617 C616 1.396 . S
C617 C618 1.399 . S
C618 H604 0.929 . S
C618 C617 1.399 . S
C618 C619 1.385 . S
C619 H605 0.931 . S
C619 C618 1.385 . S
C619 C620 1.389 . S
C620 C619 1.389 . S
C620 C621 1.387 . S
C621 H606 0.930 . S
C621 C616 1.390 . S
C621 C620 1.387 . S
H622 C634 0.930 . S
H623 C636 0.930 . S
H624 C637 0.930 . S
H625 C641 0.959 . S
H626 C641 0.959 . S
H627 C641 0.961 . S
H628 C642 0.960 . S
H629 C642 0.961 . S
H630 C642 0.959 . S
H631 C645 0.929 . S
H632 C646 0.931 . S
H633 C648 0.930 . S
C634 H622 0.930 . S
C634 C635 1.399 . S
C634 C639 1.399 . S
C635 C634 1.399 . S
C635 C636 1.376 . S
C636 H623 0.930 . S
C636 C635 1.376 . S
C636 C637 1.388 . S
C637 H624 0.930 . S
C637 C636 1.388 . S
C637 C638 1.390 . S
C638 C637 1.390 . S
C638 C639 1.394 . S
C638 C644 1.465 . S
C639 C634 1.399 . S
C639 C638 1.394 . S
C639 C640 1.516 . S
C640 C639 1.516 . S
C640 C641 1.502 . S
C640 C642 1.561 . S
C640 C643 1.526 . S
C641 H625 0.959 . S
C641 H626 0.959 . S
C641 H627 0.961 . S
C641 C640 1.502 . S
C642 H628 0.960 . S
C642 H629 0.961 . S
C642 H630 0.959 . S
C642 C640 1.561 . S
C643 C640 1.526 . S
C643 C644 1.396 . S
C643 C648 1.390 . S
C644 C638 1.465 . S
C644 C643 1.396 . S
C644 C645 1.399 . S
C645 H631 0.929 . S
C645 C644 1.399 . S
C645 C646 1.385 . S
C646 H632 0.931 . S
C646 C645 1.385 . S
C646 C647 1.389 . S
C647 C646 1.389 . S
C647 C648 1.387 . S
C648 H633 0.930 . S
C648 C643 1.390 . S
C648 C647 1.387 . S
H649 C661 0.930 . S
H650 C663 0.930 . S
H651 C664 0.930 . S
H652 C668 0.959 . S
H653 C668 0.959 . S
H654 C668 0.961 . S
H655 C669 0.960 . S
H656 C669 0.961 . S
H657 C669 0.959 . S
H658 C672 0.929 . S
H659 C673 0.931 . S
H660 C675 0.930 . S
C661 H649 0.930 . S
C661 C662 1.399 . S
C661 C666 1.399 . S
C662 C661 1.399 . S
C662 C663 1.376 . S
C663 H650 0.930 . S
C663 C662 1.376 . S
C663 C664 1.388 . S
C664 H651 0.930 . S
C664 C663 1.388 . S
C664 C665 1.390 . S
C665 C664 1.390 . S
C665 C666 1.394 . S
C665 C671 1.465 . S
C666 C661 1.399 . S
C666 C665 1.394 . S
C666 C667 1.516 . S
C667 C666 1.516 . S
C667 C668 1.502 . S
C667 C669 1.561 . S
C667 C670 1.526 . S
C668 H652 0.959 . S
C668 H653 0.959 . S
C668 H654 0.961 . S
C668 C667 1.502 . S
C669 H655 0.960 . S
C669 H656 0.961 . S
C669 H657 0.959 . S
C669 C667 1.561 . S
C670 C667 1.526 . S
C670 C671 1.396 . S
C670 C675 1.390 . S
C671 C665 1.465 . S
C671 C670 1.396 . S
C671 C672 1.399 . S
C672 H658 0.929 . S
C672 C671 1.399 . S
C672 C673 1.385 . S
C673 H659 0.931 . S
C673 C672 1.385 . S
C673 C674 1.389 . S
C674 C673 1.389 . S
C674 C675 1.387 . S
C675 H660 0.930 . S
C675 C670 1.390 . S
C675 C674 1.387 . S
H676 C688 0.930 . S
H677 C690 0.930 . S
H678 C691 0.930 . S
H679 C695 0.959 . S
H680 C695 0.959 . S
H681 C695 0.961 . S
H682 C696 0.960 . S
H683 C696 0.961 . S
H684 C696 0.959 . S
H685 C699 0.929 . S
H686 C700 0.931 . S
H687 C702 0.930 . S
C688 H676 0.930 . S
C688 C689 1.399 . S
C688 C693 1.399 . S
C689 C688 1.399 . S
C689 C690 1.376 . S
C690 H677 0.930 . S
C690 C689 1.376 . S
C690 C691 1.388 . S
C691 H678 0.930 . S
C691 C690 1.388 . S
C691 C692 1.390 . S
C692 C691 1.390 . S
C692 C693 1.394 . S
C692 C698 1.465 . S
C693 C688 1.399 . S
C693 C692 1.394 . S
C693 C694 1.516 . S
C694 C693 1.516 . S
C694 C695 1.502 . S
C694 C696 1.561 . S
C694 C697 1.526 . S
C695 H679 0.959 . S
C695 H680 0.959 . S
C695 H681 0.961 . S
C695 C694 1.502 . S
C696 H682 0.960 . S
C696 H683 0.961 . S
C696 H684 0.959 . S
C696 C694 1.561 . S
C697 C694 1.526 . S
C697 C698 1.396 . S
C697 C702 1.390 . S
C698 C692 1.465 . S
C698 C697 1.396 . S
C698 C699 1.399 . S
C699 H685 0.929 . S
C699 C698 1.399 . S
C699 C700 1.385 . S
C700 H686 0.931 . S
C700 C699 1.385 . S
C700 C701 1.389 . S
C701 C700 1.389 . S
C701 C702 1.387 . S
C702 H687 0.930 . S
C702 C697 1.390 . S
C702 C701 1.387 . S
H703 C715 0.930 . S
H704 C717 0.930 . S
H705 C718 0.930 . S
H706 C722 0.959 . S
H707 C722 0.959 . S
H708 C722 0.961 . S
H709 C723 0.960 . S
H710 C723 0.961 . S
H711 C723 0.959 . S
H712 C726 0.929 . S
H713 C727 0.931 . S
H714 C729 0.930 . S
C715 H703 0.930 . S
C715 C716 1.399 . S
C715 C720 1.399 . S
C716 C715 1.399 . S
C716 C717 1.376 . S
C717 H704 0.930 . S
C717 C716 1.376 . S
C717 C718 1.388 . S
C718 H705 0.930 . S
C718 C717 1.388 . S
C718 C719 1.390 . S
C719 C718 1.390 . S
C719 C720 1.394 . S
C719 C725 1.465 . S
C720 C715 1.399 . S
C720 C719 1.394 . S
C720 C721 1.516 . S
C721 C720 1.516 . S
C721 C722 1.502 . S
C721 C723 1.561 . S
C721 C724 1.526 . S
C722 H706 0.959 . S
C722 H707 0.959 . S
C722 H708 0.961 . S
C722 C721 1.502 . S
C723 H709 0.960 . S
C723 H710 0.961 . S
C723 H711 0.959 . S
C723 C721 1.561 . S
C724 C721 1.526 . S
C724 C725 1.396 . S
C724 C729 1.390 . S
C725 C719 1.465 . S
C725 C724 1.396 . S
C725 C726 1.399 . S
C726 H712 0.929 . S
C726 C725 1.399 . S
C726 C727 1.385 . S
C727 H713 0.931 . S
C727 C726 1.385 . S
C727 C728 1.389 . S
C728 C727 1.389 . S
C728 C729 1.387 . S
C729 H714 0.930 . S
C729 C724 1.390 . S
C729 C728 1.387 . S
H730 C742 0.930 . S
H731 C744 0.930 . S
H732 C745 0.930 . S
H733 C749 0.959 . S
H734 C749 0.959 . S
H735 C749 0.961 . S
H736 C750 0.960 . S
H737 C750 0.961 . S
H738 C750 0.959 . S
H739 C753 0.929 . S
H740 C754 0.931 . S
H741 C756 0.930 . S
C742 H730 0.930 . S
C742 C743 1.399 . S
C742 C747 1.399 . S
C743 C742 1.399 . S
C743 C744 1.376 . S
C744 H731 0.930 . S
C744 C743 1.376 . S
C744 C745 1.388 . S
C745 H732 0.930 . S
C745 C744 1.388 . S
C745 C746 1.390 . S
C746 C745 1.390 . S
C746 C747 1.394 . S
C746 C752 1.465 . S
C747 C742 1.399 . S
C747 C746 1.394 . S
C747 C748 1.516 . S
C748 C747 1.516 . S
C748 C749 1.502 . S
C748 C750 1.561 . S
C748 C751 1.526 . S
C749 H733 0.959 . S
C749 H734 0.959 . S
C749 H735 0.961 . S
C749 C748 1.502 . S
C750 H736 0.960 . S
C750 H737 0.961 . S
C750 H738 0.959 . S
C750 C748 1.561 . S
C751 C748 1.526 . S
C751 C752 1.396 . S
C751 C756 1.390 . S
C752 C746 1.465 . S
C752 C751 1.396 . S
C752 C753 1.399 . S
C753 H739 0.929 . S
C753 C752 1.399 . S
C753 C754 1.385 . S
C754 H740 0.931 . S
C754 C753 1.385 . S
C754 C755 1.389 . S
C755 C754 1.389 . S
C755 C756 1.387 . S
C756 H741 0.930 . S
C756 C751 1.390 . S
C756 C755 1.387 . S
H757 C769 0.930 . S
H758 C771 0.930 . S
H759 C772 0.930 . S
H760 C776 0.959 . S
H761 C776 0.959 . S
H762 C776 0.961 . S
H763 C777 0.960 . S
H764 C777 0.961 . S
H765 C777 0.959 . S
H766 C780 0.929 . S
H767 C781 0.931 . S
H768 C783 0.930 . S
C769 H757 0.930 . S
C769 C770 1.399 . S
C769 C774 1.399 . S
C770 C769 1.399 . S
C770 C771 1.376 . S
C771 H758 0.930 . S
C771 C770 1.376 . S
C771 C772 1.388 . S
C772 H759 0.930 . S
C772 C771 1.388 . S
C772 C773 1.390 . S
C773 C772 1.390 . S
C773 C774 1.394 . S
C773 C779 1.465 . S
C774 C769 1.399 . S
C774 C773 1.394 . S
C774 C775 1.516 . S
C775 C774 1.516 . S
C775 C776 1.502 . S
C775 C777 1.561 . S
C775 C778 1.526 . S
C776 H760 0.959 . S
C776 H761 0.959 . S
C776 H762 0.961 . S
C776 C775 1.502 . S
C777 H763 0.960 . S
C777 H764 0.961 . S
C777 H765 0.959 . S
C777 C775 1.561 . S
C778 C775 1.526 . S
C778 C779 1.396 . S
C778 C783 1.390 . S
C779 C773 1.465 . S
C779 C778 1.396 . S
C779 C780 1.399 . S
C780 H766 0.929 . S
C780 C779 1.399 . S
C780 C781 1.385 . S
C781 H767 0.931 . S
C781 C780 1.385 . S
C781 C782 1.389 . S
C782 C781 1.389 . S
C782 C783 1.387 . S
C783 H768 0.930 . S
C783 C778 1.390 . S
C783 C782 1.387 . S
H784 C796 0.930 . S
H785 C798 0.930 . S
H786 C799 0.930 . S
H787 C803 0.959 . S
H788 C803 0.959 . S
H789 C803 0.961 . S
H790 C804 0.960 . S
H791 C804 0.961 . S
H792 C804 0.959 . S
H793 C807 0.929 . S
H794 C808 0.931 . S
H795 C810 0.930 . S
C796 H784 0.930 . S
C796 C797 1.399 . S
C796 C801 1.399 . S
C797 C796 1.399 . S
C797 C798 1.376 . S
C798 H785 0.930 . S
C798 C797 1.376 . S
C798 C799 1.388 . S
C799 H786 0.930 . S
C799 C798 1.388 . S
C799 C800 1.390 . S
C800 C799 1.390 . S
C800 C801 1.394 . S
C800 C806 1.465 . S
C801 C796 1.399 . S
C801 C800 1.394 . S
C801 C802 1.516 . S
C802 C801 1.516 . S
C802 C803 1.502 . S
C802 C804 1.561 . S
C802 C805 1.526 . S
C803 H787 0.959 . S
C803 H788 0.959 . S
C803 H789 0.961 . S
C803 C802 1.502 . S
C804 H790 0.960 . S
C804 H791 0.961 . S
C804 H792 0.959 . S
C804 C802 1.561 . S
C805 C802 1.526 . S
C805 C806 1.396 . S
C805 C810 1.390 . S
C806 C800 1.465 . S
C806 C805 1.396 . S
C806 C807 1.399 . S
C807 H793 0.929 . S
C807 C806 1.399 . S
C807 C808 1.385 . S
C808 H794 0.931 . S
C808 C807 1.385 . S
C808 C809 1.389 . S
C809 C808 1.389 . S
C809 C810 1.387 . S
C810 H795 0.930 . S
C810 C805 1.390 . S
C810 C809 1.387 . S
H811 C823 0.930 . S
H812 C825 0.930 . S
H813 C826 0.930 . S
H814 C830 0.959 . S
H815 C830 0.959 . S
H816 C830 0.961 . S
H817 C831 0.960 . S
H818 C831 0.961 . S
H819 C831 0.959 . S
H820 C834 0.929 . S
H821 C835 0.931 . S
H822 C837 0.930 . S
C823 H811 0.930 . S
C823 C824 1.399 . S
C823 C828 1.399 . S
C824 C823 1.399 . S
C824 C825 1.376 . S
C825 H812 0.930 . S
C825 C824 1.376 . S
C825 C826 1.388 . S
C826 H813 0.930 . S
C826 C825 1.388 . S
C826 C827 1.390 . S
C827 C826 1.390 . S
C827 C828 1.394 . S
C827 C833 1.465 . S
C828 C823 1.399 . S
C828 C827 1.394 . S
C828 C829 1.516 . S
C829 C828 1.516 . S
C829 C830 1.502 . S
C829 C831 1.561 . S
C829 C832 1.526 . S
C830 H814 0.959 . S
C830 H815 0.959 . S
C830 H816 0.961 . S
C830 C829 1.502 . S
C831 H817 0.960 . S
C831 H818 0.961 . S
C831 H819 0.959 . S
C831 C829 1.561 . S
C832 C829 1.526 . S
C832 C833 1.396 . S
C832 C837 1.390 . S
C833 C827 1.465 . S
C833 C832 1.396 . S
C833 C834 1.399 . S
C834 H820 0.929 . S
C834 C833 1.399 . S
C834 C835 1.385 . S
C835 H821 0.931 . S
C835 C834 1.385 . S
C835 C836 1.389 . S
C836 C835 1.389 . S
C836 C837 1.387 . S
C837 H822 0.930 . S
C837 C832 1.390 . S
C837 C836 1.387 . S
H838 C850 0.930 . S
H839 C852 0.930 . S
H840 C853 0.930 . S
H841 C857 0.959 . S
H842 C857 0.959 . S
H843 C857 0.961 . S
H844 C858 0.960 . S
H845 C858 0.961 . S
H846 C858 0.959 . S
H847 C861 0.929 . S
H848 C862 0.931 . S
H849 C864 0.930 . S
C850 H838 0.930 . S
C850 C851 1.399 . S
C850 C855 1.399 . S
C851 C850 1.399 . S
C851 C852 1.376 . S
C852 H839 0.930 . S
C852 C851 1.376 . S
C852 C853 1.388 . S
C853 H840 0.930 . S
C853 C852 1.388 . S
C853 C854 1.390 . S
C854 C853 1.390 . S
C854 C855 1.394 . S
C854 C860 1.465 . S
C855 C850 1.399 . S
C855 C854 1.394 . S
C855 C856 1.516 . S
C856 C855 1.516 . S
C856 C857 1.502 . S
C856 C858 1.561 . S
C856 C859 1.526 . S
C857 H841 0.959 . S
C857 H842 0.959 . S
C857 H843 0.961 . S
C857 C856 1.502 . S
C858 H844 0.960 . S
C858 H845 0.961 . S
C858 H846 0.959 . S
C858 C856 1.561 . S
C859 C856 1.526 . S
C859 C860 1.396 . S
C859 C864 1.390 . S
C860 C854 1.465 . S
C860 C859 1.396 . S
C860 C861 1.399 . S
C861 H847 0.929 . S
C861 C860 1.399 . S
C861 C862 1.385 . S
C862 H848 0.931 . S
C862 C861 1.385 . S
C862 C863 1.389 . S
C863 C862 1.389 . S
C863 C864 1.387 . S
C864 H849 0.930 . S
C864 C859 1.390 . S
C864 C863 1.387 . S
H865 C877 0.930 . S
H866 C879 0.930 . S
H867 C880 0.930 . S
H868 C884 0.959 . S
H869 C884 0.959 . S
H870 C884 0.961 . S
H871 C885 0.960 . S
H872 C885 0.961 . S
H873 C885 0.959 . S
H874 C888 0.929 . S
H875 C889 0.931 . S
H876 C891 0.930 . S
C877 H865 0.930 . S
C877 C878 1.399 . S
C877 C882 1.399 . S
C878 C877 1.399 . S
C878 C879 1.376 . S
C879 H866 0.930 . S
C879 C878 1.376 . S
C879 C880 1.388 . S
C880 H867 0.930 . S
C880 C879 1.388 . S
C880 C881 1.390 . S
C881 C880 1.390 . S
C881 C882 1.394 . S
C881 C887 1.465 . S
C882 C877 1.399 . S
C882 C881 1.394 . S
C882 C883 1.516 . S
C883 C882 1.516 . S
C883 C884 1.502 . S
C883 C885 1.561 . S
C883 C886 1.526 . S
C884 H868 0.959 . S
C884 H869 0.959 . S
C884 H870 0.961 . S
C884 C883 1.502 . S
C885 H871 0.960 . S
C885 H872 0.961 . S
C885 H873 0.959 . S
C885 C883 1.561 . S
C886 C883 1.526 . S
C886 C887 1.396 . S
C886 C891 1.390 . S
C887 C881 1.465 . S
C887 C886 1.396 . S
C887 C888 1.399 . S
C888 H874 0.929 . S
C888 C887 1.399 . S
C888 C889 1.385 . S
C889 H875 0.931 . S
C889 C888 1.385 . S
C889 C890 1.389 . S
C890 C889 1.389 . S
C890 C891 1.387 . S
C891 H876 0.930 . S
C891 C886 1.390 . S
C891 C890 1.387 . S
H892 C904 0.930 . S
H893 C906 0.930 . S
H894 C907 0.930 . S
H895 C911 0.959 . S
H896 C911 0.959 . S
H897 C911 0.961 . S
H898 C912 0.960 . S
H899 C912 0.961 . S
H900 C912 0.959 . S
H901 C915 0.929 . S
H902 C916 0.931 . S
H903 C918 0.930 . S
C904 H892 0.930 . S
C904 C905 1.399 . S
C904 C909 1.399 . S
C905 C904 1.399 . S
C905 C906 1.376 . S
C906 H893 0.930 . S
C906 C905 1.376 . S
C906 C907 1.388 . S
C907 H894 0.930 . S
C907 C906 1.388 . S
C907 C908 1.390 . S
C908 C907 1.390 . S
C908 C909 1.394 . S
C908 C914 1.465 . S
C909 C904 1.399 . S
C909 C908 1.394 . S
C909 C910 1.516 . S
C910 C909 1.516 . S
C910 C911 1.502 . S
C910 C912 1.561 . S
C910 C913 1.526 . S
C911 H895 0.959 . S
C911 H896 0.959 . S
C911 H897 0.961 . S
C911 C910 1.502 . S
C912 H898 0.960 . S
C912 H899 0.961 . S
C912 H900 0.959 . S
C912 C910 1.561 . S
C913 C910 1.526 . S
C913 C914 1.396 . S
C913 C918 1.390 . S
C914 C908 1.465 . S
C914 C913 1.396 . S
C914 C915 1.399 . S
C915 H901 0.929 . S
C915 C914 1.399 . S
C915 C916 1.385 . S
C916 H902 0.931 . S
C916 C915 1.385 . S
C916 C917 1.389 . S
C917 C916 1.389 . S
C917 C918 1.387 . S
C918 H903 0.930 . S
C918 C913 1.390 . S
C918 C917 1.387 . S
H919 C931 0.930 . S
H920 C933 0.930 . S
H921 C934 0.930 . S
H922 C938 0.959 . S
H923 C938 0.959 . S
H924 C938 0.961 . S
H925 C939 0.960 . S
H926 C939 0.961 . S
H927 C939 0.959 . S
H928 C942 0.929 . S
H929 C943 0.931 . S
H930 C945 0.930 . S
C931 H919 0.930 . S
C931 C932 1.399 . S
C931 C936 1.399 . S
C932 C931 1.399 . S
C932 C933 1.376 . S
C933 H920 0.930 . S
C933 C932 1.376 . S
C933 C934 1.388 . S
C934 H921 0.930 . S
C934 C933 1.388 . S
C934 C935 1.390 . S
C935 C934 1.390 . S
C935 C936 1.394 . S
C935 C941 1.465 . S
C936 C931 1.399 . S
C936 C935 1.394 . S
C936 C937 1.516 . S
C937 C936 1.516 . S
C937 C938 1.502 . S
C937 C939 1.561 . S
C937 C940 1.526 . S
C938 H922 0.959 . S
C938 H923 0.959 . S
C938 H924 0.961 . S
C938 C937 1.502 . S
C939 H925 0.960 . S
C939 H926 0.961 . S
C939 H927 0.959 . S
C939 C937 1.561 . S
C940 C937 1.526 . S
C940 C941 1.396 . S
C940 C945 1.390 . S
C941 C935 1.465 . S
C941 C940 1.396 . S
C941 C942 1.399 . S
C942 H928 0.929 . S
C942 C941 1.399 . S
C942 C943 1.385 . S
C943 H929 0.931 . S
C943 C942 1.385 . S
C943 C944 1.389 . S
C944 C943 1.389 . S
C944 C945 1.387 . S
C945 H930 0.930 . S
C945 C940 1.390 . S
C945 C944 1.387 . S
H946 C958 0.930 . S
H947 C960 0.930 . S
H948 C961 0.930 . S
H949 C965 0.959 . S
H950 C965 0.959 . S
H951 C965 0.961 . S
H952 C966 0.960 . S
H953 C966 0.961 . S
H954 C966 0.959 . S
H955 C969 0.929 . S
H956 C970 0.931 . S
H957 C972 0.930 . S
C958 H946 0.930 . S
C958 C959 1.399 . S
C958 C963 1.399 . S
C959 C958 1.399 . S
C959 C960 1.376 . S
C960 H947 0.930 . S
C960 C959 1.376 . S
C960 C961 1.388 . S
C961 H948 0.930 . S
C961 C960 1.388 . S
C961 C962 1.390 . S
C962 C961 1.390 . S
C962 C963 1.394 . S
C962 C968 1.465 . S
C963 C958 1.399 . S
C963 C962 1.394 . S
C963 C964 1.516 . S
C964 C963 1.516 . S
C964 C965 1.502 . S
C964 C966 1.561 . S
C964 C967 1.526 . S
C965 H949 0.959 . S
C965 H950 0.959 . S
C965 H951 0.961 . S
C965 C964 1.502 . S
C966 H952 0.960 . S
C966 H953 0.961 . S
C966 H954 0.959 . S
C966 C964 1.561 . S
C967 C964 1.526 . S
C967 C968 1.396 . S
C967 C972 1.390 . S
C968 C962 1.465 . S
C968 C967 1.396 . S
C968 C969 1.399 . S
C969 H955 0.929 . S
C969 C968 1.399 . S
C969 C970 1.385 . S
C970 H956 0.931 . S
C970 C969 1.385 . S
C970 C971 1.389 . S
C971 C970 1.389 . S
C971 C972 1.387 . S
C972 H957 0.930 . S
C972 C967 1.390 . S
C972 C971 1.387 . S
H973 C985 0.930 . S
H974 C987 0.930 . S
H975 C988 0.930 . S
H976 C992 0.959 . S
H977 C992 0.959 . S
H978 C992 0.961 . S
H979 C993 0.960 . S
H980 C993 0.961 . S
H981 C993 0.959 . S
H982 C996 0.929 . S
H983 C997 0.931 . S
H984 C999 0.930 . S
C985 H973 0.930 . S
C985 C986 1.399 . S
C985 C990 1.399 . S
C986 C985 1.399 . S
C986 C987 1.376 . S
C987 H974 0.930 . S
C987 C986 1.376 . S
C987 C988 1.388 . S
C988 H975 0.930 . S
C988 C987 1.388 . S
C988 C989 1.390 . S
C989 C988 1.390 . S
C989 C990 1.394 . S
C989 C995 1.465 . S
C990 C985 1.399 . S
C990 C989 1.394 . S
C990 C991 1.516 . S
C991 C990 1.516 . S
C991 C992 1.502 . S
C991 C993 1.561 . S
C991 C994 1.526 . S
C992 H976 0.959 . S
C992 H977 0.959 . S
C992 H978 0.961 . S
C992 C991 1.502 . S
C993 H979 0.960 . S
C993 H980 0.961 . S
C993 H981 0.959 . S
C993 C991 1.561 . S
C994 C991 1.526 . S
C994 C995 1.396 . S
C994 C999 1.390 . S
C995 C989 1.465 . S
C995 C994 1.396 . S
C995 C996 1.399 . S
C996 H982 0.929 . S
C996 C995 1.399 . S
C996 C997 1.385 . S
C997 H983 0.931 . S
C997 C996 1.385 . S
C997 C998 1.389 . S
C998 C997 1.389 . S
C998 C999 1.387 . S
C999 H984 0.930 . S
C999 C994 1.390 . S
C999 C998 1.387 . S
H1000 C1012 0.930 . S
H1001 C1014 0.930 . S
H1002 C1015 0.930 . S
H1003 C1019 0.959 . S
H1004 C1019 0.959 . S
H1005 C1019 0.961 . S
H1006 C1020 0.960 . S
H1007 C1020 0.961 . S
H1008 C1020 0.959 . S
H1009 C1023 0.929 . S
H1010 C1024 0.931 . S
H1011 C1026 0.930 . S
C1012 H1000 0.930 . S
C1012 C1013 1.399 1_556 S
C1012 C1017 1.399 . S
C1013 C1012 1.399 1_554 S
C1013 C1014 1.376 . S
C1014 H1001 0.930 . S
C1014 C1013 1.376 . S
C1014 C1015 1.388 . S
C1015 H1002 0.930 . S
C1015 C1014 1.388 . S
C1015 C1016 1.390 . S
C1016 C1015 1.390 . S
C1016 C1017 1.394 1_554 S
C1016 C1022 1.465 . S
C1017 C1012 1.399 . S
C1017 C1016 1.394 1_556 S
C1017 C1018 1.516 . S
C1018 C1017 1.516 . S
C1018 C1019 1.502 . S
C1018 C1020 1.561 . S
C1018 C1021 1.526 . S
C1019 H1003 0.959 . S
C1019 H1004 0.959 . S
C1019 H1005 0.961 . S
C1019 C1018 1.502 . S
C1020 H1006 0.960 . S
C1020 H1007 0.961 . S
C1020 H1008 0.959 . S
C1020 C1018 1.561 . S
C1021 C1018 1.526 . S
C1021 C1022 1.396 1_556 S
C1021 C1026 1.390 . S
C1022 C1016 1.465 . S
C1022 C1021 1.396 1_554 S
C1022 C1023 1.399 . S
C1023 H1009 0.929 . S
C1023 C1022 1.399 . S
C1023 C1024 1.385 . S
C1024 H1010 0.931 . S
C1024 C1023 1.385 . S
C1024 C1025 1.389 . S
C1025 C1024 1.389 . S
C1025 C1026 1.387 1_554 S
C1026 H1011 0.930 . S
C1026 C1021 1.390 . S
C1026 C1025 1.387 1_556 S
H1027 C1039 0.930 . S
H1028 C1041 0.930 . S
H1029 C1042 0.930 . S
H1030 C1046 0.959 . S
H1031 C1046 0.959 . S
H1032 C1046 0.961 . S
H1033 C1047 0.960 . S
H1034 C1047 0.961 . S
H1035 C1047 0.959 . S
H1036 C1050 0.929 . S
H1037 C1051 0.931 . S
H1038 C1053 0.930 . S
C1039 H1027 0.930 . S
C1039 C1040 1.399 . S
C1039 C1044 1.399 . S
C1040 C1039 1.399 . S
C1040 C1041 1.376 . S
C1041 H1028 0.930 . S
C1041 C1040 1.376 . S
C1041 C1042 1.388 . S
C1042 H1029 0.930 . S
C1042 C1041 1.388 . S
C1042 C1043 1.390 . S
C1043 C1042 1.390 . S
C1043 C1044 1.394 . S
C1043 C1049 1.465 . S
C1044 C1039 1.399 . S
C1044 C1043 1.394 . S
C1044 C1045 1.516 . S
C1045 C1044 1.516 . S
C1045 C1046 1.502 . S
C1045 C1047 1.561 . S
C1045 C1048 1.526 . S
C1046 H1030 0.959 . S
C1046 H1031 0.959 . S
C1046 H1032 0.961 . S
C1046 C1045 1.502 . S
C1047 H1033 0.960 . S
C1047 H1034 0.961 . S
C1047 H1035 0.959 . S
C1047 C1045 1.561 . S
C1048 C1045 1.526 . S
C1048 C1049 1.396 . S
C1048 C1053 1.390 . S
C1049 C1043 1.465 . S
C1049 C1048 1.396 . S
C1049 C1050 1.399 . S
C1050 H1036 0.929 . S
C1050 C1049 1.399 . S
C1050 C1051 1.385 . S
C1051 H1037 0.931 . S
C1051 C1050 1.385 . S
C1051 C1052 1.389 . S
C1052 C1051 1.389 . S
C1052 C1053 1.387 . S
C1053 H1038 0.930 . S
C1053 C1048 1.390 . S
C1053 C1052 1.387 . S
H1054 C1066 0.930 . S
H1055 C1068 0.930 . S
H1056 C1069 0.930 . S
H1057 C1073 0.959 1_554 S
H1058 C1073 0.959 . S
H1059 C1073 0.961 . S
H1060 C1074 0.960 . S
H1061 C1074 0.961 . S
H1062 C1074 0.959 . S
H1063 C1077 0.929 . S
H1064 C1078 0.931 . S
H1065 C1080 0.930 . S
C1066 H1054 0.930 . S
C1066 C1067 1.395 1_556 S
C1066 C1071 1.399 . S
C1067 C1066 1.395 1_554 S
C1067 C1068 1.381 . S
C1068 H1055 0.930 . S
C1068 C1067 1.381 . S
C1068 C1069 1.388 . S
C1069 H1056 0.930 . S
C1069 C1068 1.388 . S
C1069 C1070 1.390 . S
C1070 C1069 1.390 . S
C1070 C1071 1.394 1_554 S
C1070 C1076 1.465 . S
C1071 C1066 1.399 . S
C1071 C1070 1.394 1_556 S
C1071 C1072 1.516 . S
C1072 C1071 1.516 . S
C1072 C1073 1.502 . S
C1072 C1074 1.561 . S
C1072 C1075 1.526 . S
C1073 H1057 0.959 1_556 S
C1073 H1058 0.959 . S
C1073 H1059 0.961 . S
C1073 C1072 1.502 . S
C1074 H1060 0.960 . S
C1074 H1061 0.961 . S
C1074 H1062 0.959 . S
C1074 C1072 1.561 . S
C1075 C1072 1.526 . S
C1075 C1076 1.396 1_556 S
C1075 C1080 1.390 . S
C1076 C1070 1.465 . S
C1076 C1075 1.396 1_554 S
C1076 C1077 1.399 . S
C1077 H1063 0.929 . S
C1077 C1076 1.399 . S
C1077 C1078 1.385 . S
C1078 H1064 0.931 . S
C1078 C1077 1.385 . S
C1078 C1079 1.389 . S
C1079 C1078 1.389 . S
C1079 C1080 1.387 1_554 S
C1080 H1065 0.930 . S
C1080 C1075 1.390 . S
C1080 C1079 1.387 1_556 S
H1081 C1093 0.930 . S
H1082 C1095 0.930 . S
H1083 C1096 0.930 . S
H1084 C1100 0.959 . S
H1085 C1100 0.959 . S
H1086 C1100 0.961 . S
H1087 C1101 0.960 . S
H1088 C1101 0.961 . S
H1089 C1101 0.959 . S
H1090 C1104 0.929 . S
H1091 C1105 0.931 . S
H1092 C1107 0.930 . S
C1093 H1081 0.930 . S
C1093 C1094 1.399 . S
C1093 C1098 1.399 . S
C1094 C1093 1.399 . S
C1094 C1095 1.376 . S
C1095 H1082 0.930 . S
C1095 C1094 1.376 . S
C1095 C1096 1.388 . S
C1096 H1083 0.930 . S
C1096 C1095 1.388 . S
C1096 C1097 1.390 . S
C1097 C1096 1.390 . S
C1097 C1098 1.394 . S
C1097 C1103 1.465 . S
C1098 C1093 1.399 . S
C1098 C1097 1.394 . S
C1098 C1099 1.516 . S
C1099 C1098 1.516 . S
C1099 C1100 1.502 . S
C1099 C1101 1.561 . S
C1099 C1102 1.526 . S
C1100 H1084 0.959 . S
C1100 H1085 0.959 . S
C1100 H1086 0.961 . S
C1100 C1099 1.502 . S
C1101 H1087 0.960 . S
C1101 H1088 0.961 . S
C1101 H1089 0.959 . S
C1101 C1099 1.561 . S
C1102 C1099 1.526 . S
C1102 C1103 1.396 . S
C1102 C1107 1.390 . S
C1103 C1097 1.465 . S
C1103 C1102 1.396 . S
C1103 C1104 1.399 . S
C1104 H1090 0.929 . S
C1104 C1103 1.399 . S
C1104 C1105 1.385 . S
C1105 H1091 0.931 . S
C1105 C1104 1.385 . S
C1105 C1106 1.389 . S
C1106 C1105 1.389 . S
C1106 C1107 1.387 . S
C1107 H1092 0.930 . S
C1107 C1102 1.390 . S
C1107 C1106 1.387 . S
H1108 C1120 0.930 . S
H1109 C1122 0.930 . S
H1110 C1123 0.930 . S
H1111 C1127 0.959 . S
H1112 C1127 0.959 . S
H1113 C1127 0.961 . S
H1114 C1128 0.960 . S
H1115 C1128 0.961 . S
H1116 C1128 0.959 . S
H1117 C1131 0.929 . S
H1118 C1132 0.931 . S
H1119 C1134 0.930 . S
C1120 H1108 0.930 . S
C1120 C1121 1.399 . S
C1120 C1125 1.399 . S
C1121 C1120 1.399 . S
C1121 C1122 1.376 . S
C1122 H1109 0.930 . S
C1122 C1121 1.376 . S
C1122 C1123 1.388 . S
C1123 H1110 0.930 . S
C1123 C1122 1.388 . S
C1123 C1124 1.390 . S
C1124 C1123 1.390 . S
C1124 C1125 1.394 . S
C1124 C1130 1.465 . S
C1125 C1120 1.399 . S
C1125 C1124 1.394 . S
C1125 C1126 1.516 . S
C1126 C1125 1.516 . S
C1126 C1127 1.502 . S
C1126 C1128 1.561 . S
C1126 C1129 1.526 . S
C1127 H1111 0.959 . S
C1127 H1112 0.959 . S
C1127 H1113 0.961 . S
C1127 C1126 1.502 . S
C1128 H1114 0.960 . S
C1128 H1115 0.961 . S
C1128 H1116 0.959 . S
C1128 C1126 1.561 . S
C1129 C1126 1.526 . S
C1129 C1130 1.396 . S
C1129 C1134 1.390 . S
C1130 C1124 1.465 . S
C1130 C1129 1.396 . S
C1130 C1131 1.399 . S
C1131 H1117 0.929 . S
C1131 C1130 1.399 . S
C1131 C1132 1.385 . S
C1132 H1118 0.931 . S
C1132 C1131 1.385 . S
C1132 C1133 1.389 . S
C1133 C1132 1.389 . S
C1133 C1134 1.387 . S
C1134 H1119 0.930 . S
C1134 C1129 1.390 . S
C1134 C1133 1.387 . S
H1135 C1147 0.930 . S
H1136 C1149 0.930 . S
H1137 C1150 0.930 . S
H1138 C1154 0.959 . S
H1139 C1154 0.959 . S
H1140 C1154 0.961 . S
H1141 C1155 0.960 . S
H1142 C1155 0.961 . S
H1143 C1155 0.959 . S
H1144 C1158 0.929 . S
H1145 C1159 0.931 . S
H1146 C1161 0.930 . S
C1147 H1135 0.930 . S
C1147 C1148 1.399 1_556 S
C1147 C1152 1.399 . S
C1148 C1147 1.399 1_554 S
C1148 C1149 1.376 . S
C1149 H1136 0.930 . S
C1149 C1148 1.376 . S
C1149 C1150 1.388 . S
C1150 H1137 0.930 . S
C1150 C1149 1.388 . S
C1150 C1151 1.390 . S
C1151 C1150 1.390 . S
C1151 C1152 1.394 1_554 S
C1151 C1157 1.465 . S
C1152 C1147 1.399 . S
C1152 C1151 1.394 1_556 S
C1152 C1153 1.516 . S
C1153 C1152 1.516 . S
C1153 C1154 1.502 . S
C1153 C1155 1.561 1_556 S
C1153 C1156 1.526 . S
C1154 H1138 0.959 . S
C1154 H1139 0.959 . S
C1154 H1140 0.961 . S
C1154 C1153 1.502 . S
C1155 H1141 0.960 . S
C1155 H1142 0.961 . S
C1155 H1143 0.959 . S
C1155 C1153 1.561 1_554 S
C1156 C1153 1.526 . S
C1156 C1157 1.396 1_556 S
C1156 C1161 1.390 . S
C1157 C1151 1.465 . S
C1157 C1156 1.396 1_554 S
C1157 C1158 1.399 . S
C1158 H1144 0.929 . S
C1158 C1157 1.399 . S
C1158 C1159 1.385 . S
C1159 H1145 0.931 . S
C1159 C1158 1.385 . S
C1159 C1160 1.389 . S
C1160 C1159 1.389 . S
C1160 C1161 1.387 1_554 S
C1161 H1146 0.930 . S
C1161 C1156 1.390 . S
C1161 C1160 1.387 1_556 S
H1162 C1174 0.930 . S
H1163 C1176 0.930 . S
H1164 C1177 0.930 . S
H1165 C1181 0.959 . S
H1166 C1181 0.959 . S
H1167 C1181 0.961 . S
H1168 C1182 0.960 . S
H1169 C1182 0.961 . S
H1170 C1182 0.959 . S
H1171 C1185 0.929 . S
H1172 C1186 0.931 . S
H1173 C1188 0.930 . S
C1174 H1162 0.930 . S
C1174 C1175 1.399 . S
C1174 C1179 1.399 . S
C1175 C1174 1.399 . S
C1175 C1176 1.376 . S
C1176 H1163 0.930 . S
C1176 C1175 1.376 . S
C1176 C1177 1.388 . S
C1177 H1164 0.930 . S
C1177 C1176 1.388 . S
C1177 C1178 1.390 . S
C1178 C1177 1.390 . S
C1178 C1179 1.394 . S
C1178 C1184 1.465 . S
C1179 C1174 1.399 . S
C1179 C1178 1.394 . S
C1179 C1180 1.516 . S
C1180 C1179 1.516 . S
C1180 C1181 1.502 . S
C1180 C1182 1.561 . S
C1180 C1183 1.526 . S
C1181 H1165 0.959 . S
C1181 H1166 0.959 . S
C1181 H1167 0.961 . S
C1181 C1180 1.502 . S
C1182 H1168 0.960 . S
C1182 H1169 0.961 . S
C1182 H1170 0.959 . S
C1182 C1180 1.561 . S
C1183 C1180 1.526 . S
C1183 C1184 1.396 . S
C1183 C1188 1.390 . S
C1184 C1178 1.465 . S
C1184 C1183 1.396 . S
C1184 C1185 1.399 . S
C1185 H1171 0.929 . S
C1185 C1184 1.399 . S
C1185 C1186 1.385 . S
C1186 H1172 0.931 . S
C1186 C1185 1.385 . S
C1186 C1187 1.389 . S
C1187 C1186 1.389 . S
C1187 C1188 1.387 . S
C1188 H1173 0.930 . S
C1188 C1183 1.390 . S
C1188 C1187 1.387 . S
H1189 C1201 0.930 . S
H1190 C1203 0.930 . S
H1191 C1204 0.930 . S
H1192 C1208 0.959 . S
H1193 C1208 0.959 . S
H1194 C1208 0.961 . S
H1195 C1209 0.960 . S
H1196 C1209 0.961 . S
H1197 C1209 0.959 . S
H1198 C1212 0.929 . S
H1199 C1213 0.931 . S
H1200 C1215 0.930 . S
C1201 H1189 0.930 . S
C1201 C1202 1.399 1_556 S
C1201 C1206 1.399 . S
C1202 C1201 1.399 1_554 S
C1202 C1203 1.376 . S
C1203 H1190 0.930 . S
C1203 C1202 1.376 . S
C1203 C1204 1.388 . S
C1204 H1191 0.930 . S
C1204 C1203 1.388 . S
C1204 C1205 1.390 . S
C1205 C1204 1.390 . S
C1205 C1206 1.394 1_554 S
C1205 C1211 1.465 . S
C1206 C1201 1.399 . S
C1206 C1205 1.394 1_556 S
C1206 C1207 1.516 . S
C1207 C1206 1.516 . S
C1207 C1208 1.502 . S
C1207 C1209 1.561 . S
C1207 C1210 1.526 . S
C1208 H1192 0.959 . S
C1208 H1193 0.959 . S
C1208 H1194 0.961 . S
C1208 C1207 1.502 . S
C1209 H1195 0.960 . S
C1209 H1196 0.961 . S
C1209 H1197 0.959 . S
C1209 C1207 1.561 . S
C1210 C1207 1.526 . S
C1210 C1211 1.396 1_556 S
C1210 C1215 1.390 . S
C1211 C1205 1.465 . S
C1211 C1210 1.396 1_554 S
C1211 C1212 1.399 . S
C1212 H1198 0.929 . S
C1212 C1211 1.399 . S
C1212 C1213 1.385 . S
C1213 H1199 0.931 . S
C1213 C1212 1.385 . S
C1213 C1214 1.389 . S
C1214 C1213 1.389 . S
C1214 C1215 1.387 1_554 S
C1215 H1200 0.930 . S
C1215 C1210 1.390 . S
C1215 C1214 1.387 1_556 S
C581 C5 1.472 . S
C593 C269 1.428 . S
C608 C31 1.496 . S
C620 C89 1.473 . S
C647 C168 1.432 . S
C635 C53 1.472 . S
C662 C71 1.478 . S
C674 C228 1.491 . S
C701 C389 1.422 . S
C689 C75 1.469 . S
C728 C468 1.433 . S
C716 C9 1.480 . S
C755 C539 1.475 . S
C743 C27 1.453 . S
C782 C329 1.406 . S
C770 C49 1.461 . S
C797 C51 1.496 . S
C809 C179 1.493 . S
C824 C72 1.469 . S
C836 C209 1.381 . S
C851 C6 1.452 . S
C863 C288 1.493 . S
C890 C108 1.494 . S
C878 C29 1.483 . S
C905 C28 1.496 . S
C917 C528 1.448 . S
C944 C348 1.490 . S
C932 C50 1.494 . S
C971 C408 1.494 . S
C959 C73 1.483 . S
C986 C7 1.482 . S
C998 C449 1.420 . S
C1025 C119 1.501 1_554 S
C1013 C4 1.506 . S
C1052 C149 1.463 . S
C1040 C30 1.491 . S
C1067 C52 1.508 . S
C1079 C239 1.472 . S
C1094 C70 1.501 . S
C1106 C299 1.506 . S
C1133 C359 1.464 . S
C1121 C74 1.484 . S
C1148 C8 1.504 . S
C1160 C419 1.476 . S
C1175 C26 1.506 . S
C1187 C479 1.453 . S
C1202 C48 1.483 . S
C1214 C509 1.458 1_554 S
