# Generated by pormake.
# Topology nom, (4,4)-cn, num edge types: 1
# Building blocks:
#     Node 0, Type 0, BuildingBlock: AZAVOO_clean_linker_0, # of connection points: 4
#     Node 1, Type 0, BuildingBlock: AZAVOO_clean_linker_0, # of connection points: 4
#     Node 2, Type 0, BuildingBlock: AZAVOO_clean_linker_0, # of connection points: 4
#     Node 3, Type 0, BuildingBlock: AZAVOO_clean_linker_0, # of connection points: 4
#     Node 4, Type 0, BuildingBlock: AZAVOO_clean_linker_0, # of connection points: 4
#     Node 5, Type 0, BuildingBlock: AZAVOO_clean_linker_0, # of connection points: 4
#     Node 6, Type 1, BuildingBlock: UXUYUI_clean_sbu_0, # of connection points: 4
#     Node 7, Type 1, BuildingBlock: UXUYUI_clean_sbu_0, # of connection points: 4
#     Node 8, Type 1, BuildingBlock: UXUYUI_clean_sbu_0, # of connection points: 4
#     Node 9, Type 1, BuildingBlock: UXUYUI_clean_sbu_0, # of connection points: 4
#     Node 10, Type 1, BuildingBlock: UXUYUI_clean_sbu_0, # of connection points: 4
#     Node 11, Type 1, BuildingBlock: UXUYUI_clean_sbu_0, # of connection points: 4
#     Edge 12, Type (0, 1), BuildingBlock: MIFKUJ_clean_linker_0, # of connection points: 2
#     Edge 13, Type (0, 1), BuildingBlock: MIFKUJ_clean_linker_0, # of connection points: 2
#     Edge 14, Type (0, 1), BuildingBlock: MIFKUJ_clean_linker_0, # of connection points: 2
#     Edge 15, Type (0, 1), BuildingBlock: MIFKUJ_clean_linker_0, # of connection points: 2
#     Edge 16, Type (0, 1), BuildingBlock: MIFKUJ_clean_linker_0, # of connection points: 2
#     Edge 17, Type (0, 1), BuildingBlock: MIFKUJ_clean_linker_0, # of connection points: 2
#     Edge 18, Type (0, 1), BuildingBlock: MIFKUJ_clean_linker_0, # of connection points: 2
#     Edge 19, Type (0, 1), BuildingBlock: MIFKUJ_clean_linker_0, # of connection points: 2
#     Edge 20, Type (0, 1), BuildingBlock: MIFKUJ_clean_linker_0, # of connection points: 2
#     Edge 21, Type (0, 1), BuildingBlock: MIFKUJ_clean_linker_0, # of connection points: 2
#     Edge 22, Type (0, 1), BuildingBlock: MIFKUJ_clean_linker_0, # of connection points: 2
#     Edge 23, Type (0, 1), BuildingBlock: MIFKUJ_clean_linker_0, # of connection points: 2
#     Edge 24, Type (0, 1), BuildingBlock: MIFKUJ_clean_linker_0, # of connection points: 2
#     Edge 25, Type (0, 1), BuildingBlock: MIFKUJ_clean_linker_0, # of connection points: 2
#     Edge 26, Type (0, 1), BuildingBlock: MIFKUJ_clean_linker_0, # of connection points: 2
#     Edge 27, Type (0, 1), BuildingBlock: MIFKUJ_clean_linker_0, # of connection points: 2
#     Edge 28, Type (0, 1), BuildingBlock: MIFKUJ_clean_linker_0, # of connection points: 2
#     Edge 29, Type (0, 1), BuildingBlock: MIFKUJ_clean_linker_0, # of connection points: 2
#     Edge 30, Type (0, 1), BuildingBlock: MIFKUJ_clean_linker_0, # of connection points: 2
#     Edge 31, Type (0, 1), BuildingBlock: MIFKUJ_clean_linker_0, # of connection points: 2
#     Edge 32, Type (0, 1), BuildingBlock: MIFKUJ_clean_linker_0, # of connection points: 2
#     Edge 33, Type (0, 1), BuildingBlock: MIFKUJ_clean_linker_0, # of connection points: 2
#     Edge 34, Type (0, 1), BuildingBlock: MIFKUJ_clean_linker_0, # of connection points: 2
#     Edge 35, Type (0, 1), BuildingBlock: MIFKUJ_clean_linker_0, # of connection points: 2
# Relax obj value: 0.165
# Max RMSD: 0.223
# Mean RMSD: 0.184
data_MOF--net-nom--node1-UXUYUI_clean_sbu_0--node2-AZAVOO_clean_linker_0--edge1-MIFKUJ_clean_linker_0
_symmetry_space_group_name_H-M    P1
_symmetry_Int_Tables_number       1
_symmetry_cell_setting            triclinic
loop_
_symmetry_equiv_pos_as_xyz
'x, y, z'
_cell_length_a     69.415032
_cell_length_b     70.504084
_cell_length_c     87.409608
_cell_angle_alpha  89.943973
_cell_angle_beta   89.90899
_cell_angle_gamma 121.30991
loop_
_atom_site_label
_atom_site_type_symbol
_atom_site_fract_x
_atom_site_fract_y
_atom_site_fract_z
_atom_type_partial_charge
H0 H 0.06822 0.48308 0.231 0.0
H1 H 0.16747 0.63159 0.37397 0.0
H2 H 0.01034 0.47305 0.30532 0.0
H3 H 0.98157 0.45215 0.28596 0.0
H4 H 0.9759 0.50958 0.27766 0.0
H5 H 0.00389 0.52984 0.29752 0.0
H6 H 0.06587 0.49795 0.29664 0.0
H7 H 0.06938 0.48786 0.27044 0.0
H8 H 0.04487 0.52902 0.25325 0.0
H9 H 0.04175 0.5392 0.27948 0.0
H10 H 0.10701 0.53484 0.32009 0.0
H11 H 0.14517 0.55829 0.30971 0.0
H12 H 0.12162 0.59268 0.28161 0.0
H13 H 0.08402 0.57002 0.29258 0.0
H14 H 0.08506 0.53032 0.35335 0.0
H15 H 0.11642 0.55416 0.37038 0.0
H16 H 0.12805 0.6118 0.34487 0.0
H17 H 0.09638 0.58782 0.32813 0.0
H18 H 0.03369 0.50521 0.35979 0.0
H19 H 0.04204 0.5143 0.38687 0.0
H20 H 0.06414 0.58273 0.37695 0.0
H21 H 0.05584 0.57345 0.34983 0.0
H22 H 0.99097 0.48209 0.33627 0.0
H23 H 0.95412 0.47472 0.34538 0.0
H24 H 0.97736 0.54441 0.34056 0.0
H25 H 0.01383 0.55152 0.33143 0.0
O26 O 0.06683 0.48738 0.24127 0.0
O27 O 0.05401 0.50866 0.23302 0.0
O28 O 0.1481 0.59165 0.38028 0.0
O29 O 0.15527 0.62174 0.36724 0.0
C30 C 0.02929 0.51662 0.31231 0.0
C31 C 0.05095 0.52484 0.3059 0.0
C32 C 0.07037 0.53878 0.31461 0.0
C33 C 0.06817 0.54306 0.33009 0.0
C34 C 0.04649 0.53465 0.3365 0.0
C35 C 0.02711 0.52219 0.32744 0.0
C36 C 0.00912 0.50289 0.30277 0.0
C37 C 0.00236 0.48082 0.29958 0.0
C38 C 0.98614 0.46904 0.28839 0.0
C39 C 0.97663 0.47926 0.28004 0.0
C40 C 0.98262 0.50104 0.28393 0.0
C41 C 0.99865 0.51271 0.29526 0.0
C42 C 0.05334 0.5191 0.28995 0.0
C43 C 0.06131 0.50479 0.28719 0.0
C44 C 0.06326 0.49903 0.27222 0.0
C45 C 0.05731 0.50755 0.25974 0.0
C46 C 0.04951 0.52208 0.26258 0.0
C47 C 0.04762 0.52786 0.27755 0.0
C48 C 0.0928 0.55078 0.3071 0.0
C49 C 0.11014 0.54735 0.31161 0.0
C50 C 0.13186 0.56066 0.3056 0.0
C51 C 0.13646 0.57749 0.29494 0.0
C52 C 0.11875 0.58016 0.29001 0.0
C53 C 0.09718 0.56704 0.29612 0.0
C54 C 0.08851 0.55735 0.33949 0.0
C55 C 0.09451 0.54809 0.35141 0.0
C56 C 0.1124 0.56174 0.36113 0.0
C57 C 0.12472 0.5849 0.359 0.0
C58 C 0.11892 0.59405 0.34683 0.0
C59 C 0.10093 0.58039 0.33719 0.0
C60 C 0.04445 0.53873 0.35288 0.0
C61 C 0.03943 0.52196 0.36358 0.0
C62 C 0.04425 0.52721 0.37904 0.0
C63 C 0.05415 0.54932 0.38397 0.0
C64 C 0.05689 0.56563 0.37342 0.0
C65 C 0.05199 0.56034 0.35798 0.0
C66 C 0.00496 0.51732 0.33323 0.0
C67 C 0.98801 0.49569 0.33722 0.0
C68 C 0.96709 0.49155 0.34244 0.0
C69 C 0.96288 0.50899 0.34359 0.0
C70 C 0.98002 0.53061 0.33959 0.0
C71 C 0.00087 0.53473 0.33449 0.0
C72 C 0.05925 0.50129 0.24386 0.0
C73 C 0.14339 0.59954 0.36949 0.0
H74 H 0.56338 0.07544 0.39155 0.0
H75 H 0.54642 0.16439 0.54585 0.0
H76 H 0.54903 0.02392 0.46724 0.0
H77 H 0.54322 0.99459 0.44961 0.0
H78 H 0.47107 0.96334 0.45533 0.0
H79 H 0.47713 0.9934 0.47251 0.0
H80 H 0.56597 0.07407 0.45841 0.0
H81 H 0.57173 0.07856 0.43071 0.0
H82 H 0.49963 0.03813 0.42394 0.0
H83 H 0.4941 0.03399 0.45167 0.0
H84 H 0.57322 0.1072 0.48393 0.0
H85 H 0.58394 0.14403 0.47417 0.0
H86 H 0.5166 0.11717 0.45639 0.0
H87 H 0.50596 0.08055 0.46643 0.0
H88 H 0.5652 0.08717 0.51823 0.0
H89 H 0.57597 0.11861 0.5353 0.0
H90 H 0.51949 0.12274 0.51893 0.0
H91 H 0.50869 0.09104 0.5021 0.0
H92 H 0.54388 0.03502 0.52447 0.0
H93 H 0.54846 0.04053 0.55216 0.0
H94 H 0.49759 0.05835 0.55274 0.0
H95 H 0.49287 0.05248 0.52504 0.0
H96 H 0.52733 0.99782 0.50195 0.0
H97 H 0.50496 0.96037 0.5129 0.0
H98 H 0.44765 0.96876 0.51663 0.0
H99 H 0.47034 0.00619 0.50629 0.0
O100 O 0.56071 0.0735 0.40247 0.0
O101 O 0.52353 0.05253 0.39961 0.0
O102 O 0.57116 0.14892 0.54737 0.0
O103 O 0.54262 0.15202 0.53914 0.0
C104 C 0.51745 0.02982 0.48067 0.0
C105 C 0.52622 0.05097 0.47386 0.0
C106 C 0.53157 0.06951 0.48307 0.0
C107 C 0.52916 0.06712 0.49911 0.0
C108 C 0.51989 0.04587 0.50585 0.0
C109 C 0.51337 0.02714 0.49658 0.0
C110 C 0.51351 0.01078 0.47111 0.0
C111 C 0.53198 0.01063 0.46475 0.0
C112 C 0.52861 0.99375 0.45479 0.0
C113 C 0.50666 0.97658 0.45106 0.0
C114 C 0.48817 0.97645 0.45783 0.0
C115 C 0.49158 0.99347 0.46774 0.0
C116 C 0.52963 0.0537 0.45703 0.0
C117 C 0.55144 0.06628 0.45092 0.0
C118 C 0.55468 0.06877 0.43509 0.0
C119 C 0.53614 0.05869 0.4251 0.0
C120 C 0.51428 0.04609 0.43131 0.0
C121 C 0.51107 0.04366 0.44713 0.0
C122 C 0.53882 0.09129 0.47591 0.0
C123 C 0.56089 0.10929 0.4778 0.0
C124 C 0.56698 0.13024 0.47217 0.0
C125 C 0.55105 0.13348 0.46459 0.0
C126 C 0.52913 0.11522 0.46235 0.0
C127 C 0.52308 0.0943 0.46796 0.0
C128 C 0.5362 0.08688 0.50892 0.0
C129 C 0.55521 0.09493 0.51833 0.0
C130 C 0.56132 0.11288 0.52807 0.0
C131 C 0.54857 0.12319 0.52848 0.0
C132 C 0.52967 0.11519 0.51889 0.0
C133 C 0.52351 0.09716 0.50922 0.0
C134 C 0.51827 0.04365 0.52275 0.0
C135 C 0.53313 0.0393 0.53066 0.0
C136 C 0.53573 0.04247 0.54646 0.0
C137 C 0.5236 0.05017 0.55452 0.0
C138 C 0.50734 0.05267 0.54674 0.0
C139 C 0.50457 0.04926 0.53098 0.0
C140 C 0.50042 0.00465 0.5034 0.0
C141 C 0.50998 0.99151 0.50526 0.0
C142 C 0.49712 0.97011 0.51141 0.0
C143 C 0.47449 0.96153 0.51572 0.0
C144 C 0.46512 0.97492 0.51378 0.0
C145 C 0.478 0.99628 0.50777 0.0
C146 C 0.53965 0.06133 0.4083 0.0
C147 C 0.55488 0.14214 0.53891 0.0
H148 H 0.55526 0.50171 0.75133 0.0
H149 H 0.5512 0.43703 0.58302 0.0
H150 H 0.53518 0.5549 0.67644 0.0
H151 H 0.52923 0.57124 0.69925 0.0
H152 H 0.46373 0.51181 0.70556 0.0
H153 H 0.46949 0.4962 0.68225 0.0
H154 H 0.55637 0.52492 0.68695 0.0
H155 H 0.56239 0.52046 0.71399 0.0
H156 H 0.49313 0.46628 0.71763 0.0
H157 H 0.48742 0.47093 0.69056 0.0
H158 H 0.56854 0.50113 0.66145 0.0
H159 H 0.58171 0.47717 0.67124 0.0
H160 H 0.51248 0.42418 0.67779 0.0
H161 H 0.49965 0.4484 0.66836 0.0
H162 H 0.56123 0.51937 0.62658 0.0
H163 H 0.57524 0.50671 0.60566 0.0
H164 H 0.52073 0.43924 0.61363 0.0
H165 H 0.50665 0.45221 0.63434 0.0
H166 H 0.53699 0.54585 0.62415 0.0
H167 H 0.54462 0.55044 0.59668 0.0
H168 H 0.49474 0.48111 0.58977 0.0
H169 H 0.48724 0.47667 0.61732 0.0
H170 H 0.51576 0.55875 0.65139 0.0
H171 H 0.49206 0.57344 0.64345 0.0
H172 H 0.43972 0.50749 0.62999 0.0
H173 H 0.46329 0.49297 0.6381 0.0
O174 O 0.55236 0.50345 0.74075 0.0
O175 O 0.51676 0.4754 0.74195 0.0
O176 O 0.57353 0.47749 0.58749 0.0
O177 O 0.54628 0.44243 0.59143 0.0
C178 C 0.5084 0.51325 0.66589 0.0
C179 C 0.5181 0.50082 0.67043 0.0
C180 C 0.52501 0.49109 0.65934 0.0
C181 C 0.52344 0.49483 0.64369 0.0
C182 C 0.51304 0.5067 0.63915 0.0
C183 C 0.50498 0.51541 0.65025 0.0
C184 C 0.5027 0.52448 0.67772 0.0
C185 C 0.51926 0.54578 0.6825 0.0
C186 C 0.51593 0.55493 0.69563 0.0
C187 C 0.49614 0.54271 0.70438 0.0
C188 C 0.47906 0.5218 0.69903 0.0
C189 C 0.4823 0.5128 0.68575 0.0
C190 C 0.52147 0.49829 0.68688 0.0
C191 C 0.54254 0.51215 0.69364 0.0
C192 C 0.54591 0.50956 0.70907 0.0
C193 C 0.52825 0.493 0.71797 0.0
C194 C 0.50709 0.47919 0.71111 0.0
C195 C 0.50376 0.48182 0.69568 0.0
C196 C 0.53319 0.47642 0.66424 0.0
C197 C 0.55631 0.48429 0.66493 0.0
C198 C 0.56375 0.47057 0.67047 0.0
C199 C 0.54813 0.44881 0.67539 0.0
C200 C 0.52495 0.44096 0.67437 0.0
C201 C 0.51757 0.45468 0.66888 0.0
C202 C 0.53297 0.48669 0.63199 0.0
C203 C 0.55244 0.50184 0.62386 0.0
C204 C 0.56038 0.49457 0.6119 0.0
C205 C 0.54907 0.47195 0.60796 0.0
C206 C 0.52983 0.45676 0.61637 0.0
C207 C 0.52183 0.46409 0.62827 0.0
C208 C 0.51187 0.51086 0.62268 0.0
C209 C 0.52699 0.53192 0.61662 0.0
C210 C 0.5313 0.5345 0.60092 0.0
C211 C 0.52052 0.51602 0.59117 0.0
C212 C 0.50346 0.49554 0.5971 0.0
C213 C 0.4991 0.493 0.61278 0.0
C214 C 0.49113 0.52477 0.64545 0.0
C215 C 0.49909 0.54749 0.64687 0.0
C216 C 0.48559 0.55584 0.6423 0.0
C217 C 0.46409 0.5416 0.63606 0.0
C218 C 0.45632 0.5189 0.63457 0.0
C219 C 0.4697 0.51057 0.63926 0.0
C220 C 0.532 0.49004 0.73428 0.0
C221 C 0.55712 0.46421 0.59502 0.0
H222 H 0.02891 0.56515 0.93555 0.0
H223 H 0.16847 0.58963 0.7936 0.0
H224 H 0.99051 0.54578 0.8584 0.0
H225 H 0.95979 0.5266 0.87677 0.0
H226 H 0.953 0.4641 0.86413 0.0
H227 H 0.98475 0.48372 0.84651 0.0
H228 H 0.0422 0.57685 0.86932 0.0
H229 H 0.03923 0.57866 0.89712 0.0
H230 H 0.01541 0.50863 0.9004 0.0
H231 H 0.01877 0.50713 0.87263 0.0
H232 H 0.08742 0.59503 0.84595 0.0
H233 H 0.12433 0.60988 0.85828 0.0
H234 H 0.10236 0.54487 0.87675 0.0
H235 H 0.06604 0.53007 0.8641 0.0
H236 H 0.07339 0.58725 0.81043 0.0
H237 H 0.10966 0.60464 0.79704 0.0
H238 H 0.12242 0.55578 0.81651 0.0
H239 H 0.08596 0.53835 0.82962 0.0
H240 H 0.02186 0.55767 0.79867 0.0
H241 H 0.0314 0.56274 0.7714 0.0
H242 H 0.0628 0.52378 0.77645 0.0
H243 H 0.05223 0.518 0.80342 0.0
H244 H 0.97746 0.53086 0.82033 0.0
H245 H 0.94258 0.50347 0.80747 0.0
H246 H 0.96918 0.4603 0.80226 0.0
H247 H 0.00407 0.48806 0.81455 0.0
O248 O 0.03021 0.56413 0.9246 0.0
O249 O 0.0186 0.52822 0.92569 0.0
O250 O 0.14704 0.60826 0.78945 0.0
O251 O 0.15416 0.58323 0.79889 0.0
C252 C 0.01208 0.52847 0.84323 0.0
C253 C 0.03194 0.54077 0.85202 0.0
C254 C 0.05323 0.55143 0.84479 0.0
C255 C 0.05469 0.5506 0.8287 0.0
C256 C 0.03484 0.53839 0.81991 0.0
C257 C 0.01359 0.52688 0.82721 0.0
C258 C 0.98996 0.51619 0.8512 0.0
C259 C 0.982 0.52788 0.85935 0.0
C260 C 0.96434 0.51683 0.86981 0.0
C261 C 0.95408 0.4938 0.87212 0.0
C262 C 0.96084 0.4819 0.8629 0.0
C263 C 0.97876 0.49303 0.85263 0.0
C264 C 0.03054 0.54184 0.86896 0.0
C265 C 0.03643 0.56195 0.87608 0.0
C266 C 0.03467 0.56292 0.89195 0.0
C267 C 0.02702 0.54378 0.90098 0.0
C268 C 0.02132 0.52368 0.89379 0.0
C269 C 0.02314 0.52275 0.87793 0.0
C270 C 0.07408 0.56147 0.85413 0.0
C271 C 0.0905 0.58414 0.85289 0.0
C272 C 0.11147 0.59258 0.85993 0.0
C273 C 0.11606 0.57852 0.86852 0.0
C274 C 0.0991 0.55615 0.87044 0.0
C275 C 0.07836 0.54767 0.86321 0.0
C276 C 0.0771 0.56161 0.82103 0.0
C277 C 0.08407 0.58037 0.81179 0.0
C278 C 0.10479 0.59026 0.80417 0.0
C279 C 0.11895 0.58159 0.80571 0.0
C280 C 0.11194 0.56288 0.81507 0.0
C281 C 0.09117 0.55294 0.82263 0.0
C282 C 0.03659 0.53769 0.80302 0.0
C283 C 0.0302 0.54971 0.79374 0.0
C284 C 0.0359 0.55279 0.77821 0.0
C285 C 0.04818 0.54397 0.77175 0.0
C286 C 0.05318 0.53067 0.78094 0.0
C287 C 0.04728 0.52744 0.7964 0.0
C288 C 0.99324 0.51142 0.81831 0.0
C289 C 0.97578 0.5156 0.81618 0.0
C290 C 0.95583 0.49985 0.80895 0.0
C291 C 0.95298 0.47959 0.80386 0.0
C292 C 0.97086 0.47581 0.80575 0.0
C293 C 0.9908 0.49162 0.81283 0.0
C294 C 0.02502 0.54482 0.91783 0.0
C295 C 0.14088 0.59191 0.79752 0.0
H296 H 0.44868 0.98491 0.89412 0.0
H297 H 0.45563 0.86754 0.04415 0.0
H298 H 0.47004 0.02507 0.96908 0.0
H299 H 0.48561 0.05375 0.94928 0.0
H300 H 0.55261 0.06783 0.95992 0.0
H301 H 0.53672 0.03831 0.97908 0.0
H302 H 0.44257 0.97264 0.96055 0.0
H303 H 0.43817 0.97411 0.93286 0.0
H304 H 0.51018 0.00436 0.92705 0.0
H305 H 0.51428 0.00249 0.95471 0.0
H306 H 0.43314 0.92905 0.98208 0.0
H307 H 0.42638 0.89424 0.97056 0.0
H308 H 0.49635 0.92736 0.95683 0.0
H309 H 0.503 0.96165 0.9685 0.0
H310 H 0.43687 0.94489 0.01667 0.0
H311 H 0.42446 0.91147 0.03212 0.0
H312 H 0.485 0.91203 0.01943 0.0
H313 H 0.49722 0.94549 0.00408 0.0
H314 H 0.46072 0.98784 0.03206 0.0
H315 H 0.46358 0.98001 0.05896 0.0
H316 H 0.52572 0.98206 0.04886 0.0
H317 H 0.52146 0.98782 0.02195 0.0
H318 H 0.48821 0.04281 0.00608 0.0
H319 H 0.51489 0.07938 0.01726 0.0
H320 H 0.56377 0.0596 0.02289 0.0
H321 H 0.53784 0.02394 0.01102 0.0
O322 O 0.45071 0.9839 0.90498 0.0
O323 O 0.48779 0.99914 0.90261 0.0
O324 O 0.42854 0.88029 0.04341 0.0
O325 O 0.45996 0.88053 0.03793 0.0
C326 C 0.49235 0.00865 0.98443 0.0
C327 C 0.48141 0.98815 0.97652 0.0
C328 C 0.47397 0.96816 0.98457 0.0
C329 C 0.47585 0.96844 0.00063 0.0
C330 C 0.48698 0.98886 0.00852 0.0
C331 C 0.49586 0.00904 0.00038 0.0
C332 C 0.50223 0.02958 0.97549 0.0
C333 C 0.48813 0.03478 0.96739 0.0
C334 C 0.49709 0.05121 0.95611 0.0
C335 C 0.52034 0.06286 0.95287 0.0
C336 C 0.53459 0.05884 0.96193 0.0
C337 C 0.52559 0.04223 0.97307 0.0
C338 C 0.47874 0.98766 0.95963 0.0
C339 C 0.45733 0.97939 0.95325 0.0
C340 C 0.45489 0.98034 0.93744 0.0
C341 C 0.47385 0.98951 0.92775 0.0
C342 C 0.49524 0.99729 0.93419 0.0
C343 C 0.49764 0.99627 0.94998 0.0
C344 C 0.46853 0.94782 0.97606 0.0
C345 C 0.44685 0.92877 0.97637 0.0
C346 C 0.44304 0.909 0.96979 0.0
C347 C 0.46092 0.90812 0.96297 0.0
C348 C 0.48235 0.9275 0.96221 0.0
C349 C 0.48611 0.94713 0.96872 0.0
C350 C 0.46784 0.94746 0.00922 0.0
C351 C 0.44732 0.93764 0.01717 0.0
C352 C 0.44031 0.91861 0.026 0.0
C353 C 0.45376 0.90909 0.02703 0.0
C354 C 0.47425 0.91892 0.0189 0.0
C355 C 0.48123 0.93796 0.01007 0.0
C356 C 0.49107 0.98874 0.02514 0.0
C357 C 0.47514 0.98701 0.03579 0.0
C358 C 0.47688 0.98261 0.05118 0.0
C359 C 0.49478 0.98015 0.05614 0.0
C360 C 0.5114 0.98328 0.04547 0.0
C361 C 0.5093 0.98706 0.0301 0.0
C362 C 0.51083 0.03045 0.00819 0.0
C363 C 0.50459 0.04635 0.0099 0.0
C364 C 0.51976 0.06713 0.01623 0.0
C365 C 0.54113 0.072 0.02114 0.0
C366 C 0.54718 0.05599 0.01952 0.0
C367 C 0.5323 0.03555 0.0129 0.0
C368 C 0.47129 0.99114 0.91102 0.0
C369 C 0.44658 0.8891 0.03662 0.0
H370 H 0.46634 0.42028 0.07121 0.0
H371 H 0.60324 0.46364 0.21804 0.0
H372 H 0.45511 0.46842 0.14249 0.0
H373 H 0.43687 0.47813 0.12263 0.0
H374 H 0.4964 0.54383 0.11959 0.0
H375 H 0.51423 0.53406 0.13965 0.0
H376 H 0.47773 0.43705 0.13708 0.0
H377 H 0.4688 0.42354 0.11073 0.0
H378 H 0.51263 0.49052 0.09411 0.0
H379 H 0.52166 0.50374 0.1205 0.0
H380 H 0.51107 0.43216 0.16211 0.0
H381 H 0.53298 0.41647 0.15211 0.0
H382 H 0.57236 0.4753 0.12451 0.0
H383 H 0.55084 0.49092 0.1347 0.0
H384 H 0.50535 0.45064 0.19524 0.0
H385 H 0.52645 0.44115 0.21287 0.0
H386 H 0.58787 0.4851 0.18807 0.0
H387 H 0.56661 0.49463 0.17064 0.0
H388 H 0.48299 0.48172 0.19982 0.0
H389 H 0.48966 0.4892 0.22729 0.0
H390 H 0.56147 0.52801 0.21871 0.0
H391 H 0.55455 0.52109 0.19134 0.0
H392 H 0.46379 0.50065 0.17169 0.0
H393 H 0.45934 0.53117 0.18094 0.0
H394 H 0.53159 0.57298 0.18531 0.0
H395 H 0.53602 0.54303 0.17551 0.0
O396 O 0.47016 0.42597 0.08154 0.0
O397 O 0.49272 0.46073 0.07359 0.0
O398 O 0.56231 0.44405 0.22324 0.0
O399 O 0.59442 0.46676 0.21106 0.0
C400 C 0.49816 0.49349 0.15258 0.0
C401 C 0.50533 0.47944 0.14674 0.0
C402 C 0.51796 0.47346 0.15605 0.0
C403 C 0.52177 0.47996 0.17156 0.0
C404 C 0.51438 0.49381 0.17739 0.0
C405 C 0.50356 0.50146 0.16772 0.0
C406 C 0.48596 0.50054 0.14244 0.0
C407 C 0.46395 0.48505 0.13775 0.0
C408 C 0.45366 0.49058 0.12635 0.0
C409 C 0.46528 0.51168 0.11944 0.0
C410 C 0.48689 0.52753 0.12479 0.0
C411 C 0.49714 0.522 0.13622 0.0
C412 C 0.50015 0.47139 0.13069 0.0
C413 C 0.4854 0.44876 0.12772 0.0
C414 C 0.48031 0.4411 0.11266 0.0
C415 C 0.48993 0.45597 0.10031 0.0
C416 C 0.50486 0.47864 0.10336 0.0
C417 C 0.50997 0.48625 0.11841 0.0
C418 C 0.52934 0.46264 0.14909 0.0
C419 C 0.5243 0.4415 0.1538 0.0
C420 C 0.5368 0.43262 0.14812 0.0
C421 C 0.55428 0.44465 0.1375 0.0
C422 C 0.55875 0.46549 0.13248 0.0
C423 C 0.54649 0.47444 0.13829 0.0
C424 C 0.53443 0.4732 0.18162 0.0
C425 C 0.52334 0.45808 0.19359 0.0
C426 C 0.53544 0.45273 0.20364 0.0
C427 C 0.55887 0.46239 0.20188 0.0
C428 C 0.56986 0.47736 0.18975 0.0
C429 C 0.55774 0.48273 0.17972 0.0
C430 C 0.51832 0.50058 0.19368 0.0
C431 C 0.5001 0.4922 0.2039 0.0
C432 C 0.50395 0.4964 0.21955 0.0
C433 C 0.52609 0.50909 0.22517 0.0
C434 C 0.5442 0.51843 0.21475 0.0
C435 C 0.54033 0.51428 0.19913 0.0
C436 C 0.50023 0.51956 0.17306 0.0
C437 C 0.47862 0.51647 0.17452 0.0
C438 C 0.4761 0.53381 0.1798 0.0
C439 C 0.49513 0.55422 0.18396 0.0
C440 C 0.51667 0.55727 0.18237 0.0
C441 C 0.5192 0.54019 0.17681 0.0
C442 C 0.48442 0.44779 0.08433 0.0
C443 C 0.57188 0.4571 0.21271 0.0
Li444 Li 0.6562 0.4684 0.42759 0.0
Li445 Li 0.64459 0.43255 0.41744 0.0
Li446 Li 0.68284 0.46575 0.41111 0.0
Li447 Li 0.64677 0.46103 0.40121 0.0
C448 C 0.67897 0.45488 0.4456 0.0
N449 N 0.69574 0.46282 0.47506 0.0
C450 C 0.66435 0.44515 0.45804 0.0
C451 C 0.70213 0.46858 0.44814 0.0
C452 C 0.67315 0.44941 0.47285 0.0
C453 C 0.71028 0.47239 0.46312 0.0
C454 C 0.60677 0.42959 0.42418 0.0
C455 C 0.57186 0.39497 0.42003 0.0
N456 N 0.56692 0.39406 0.43517 0.0
C457 C 0.60135 0.4283 0.43971 0.0
C458 C 0.5919 0.41282 0.41424 0.0
C459 C 0.58111 0.41022 0.44504 0.0
C460 C 0.63483 0.48685 0.44228 0.0
N461 N 0.65302 0.48462 0.44395 0.0
C462 C 0.66244 0.50439 0.46762 0.0
C463 C 0.66727 0.49384 0.45603 0.0
C464 C 0.64321 0.50605 0.46642 0.0
C465 C 0.6296 0.49758 0.45341 0.0
H466 H 0.62413 0.47994 0.43235 0.0
H467 H 0.6823 0.49299 0.45678 0.0
C468 C 0.63153 0.38901 0.40938 0.0
N469 N 0.63044 0.40139 0.42088 0.0
C470 C 0.6233 0.36646 0.41155 0.0
C471 C 0.61251 0.36962 0.43729 0.0
C472 C 0.62113 0.39217 0.43465 0.0
C473 C 0.61387 0.35657 0.42572 0.0
H474 H 0.6393 0.39676 0.39861 0.0
H475 H 0.62078 0.40235 0.44371 0.0
C476 C 0.67984 0.50803 0.41533 0.0
N477 N 0.69148 0.54862 0.42771 0.0
C478 C 0.66664 0.51727 0.41238 0.0
C479 C 0.69904 0.51945 0.42447 0.0
C480 C 0.67279 0.53781 0.41878 0.0
C481 C 0.70462 0.53996 0.43065 0.0
C482 C 0.65784 0.44017 0.38176 0.0
C483 C 0.67659 0.45298 0.3724 0.0
C484 C 0.63687 0.42572 0.37515 0.0
C485 C 0.67398 0.45126 0.35652 0.0
C486 C 0.63495 0.42451 0.35923 0.0
N487 N 0.65339 0.43721 0.35032 0.0
C488 C 0.71752 0.4578 0.40825 0.0
C489 C 0.72826 0.49456 0.40133 0.0
C490 C 0.73882 0.46183 0.40443 0.0
N491 N 0.71269 0.47403 0.40659 0.0
C492 C 0.74985 0.49935 0.39736 0.0
C493 C 0.7553 0.4828 0.39882 0.0
H494 H 0.70461 0.44158 0.41233 0.0
H495 H 0.7238 0.50706 0.40002 0.0
C496 C 0.6113 0.46005 0.38515 0.0
N497 N 0.63375 0.46779 0.38473 0.0
C498 C 0.60131 0.46564 0.37359 0.0
C499 C 0.63782 0.48722 0.36142 0.0
C500 C 0.64712 0.48129 0.37328 0.0
C501 C 0.61461 0.47941 0.36151 0.0
H502 H 0.6012 0.44987 0.39462 0.0
H503 H 0.66502 0.48756 0.37343 0.0
O504 O 0.67076 0.4507 0.43101 0.0
O505 O 0.62657 0.44711 0.41872 0.0
O506 O 0.67375 0.48768 0.40954 0.0
O507 O 0.65994 0.44193 0.39733 0.0
H508 H 0.64638 0.43475 0.4563 0.0
H509 H 0.7137 0.47626 0.43865 0.0
H510 H 0.66202 0.44211 0.48258 0.0
H511 H 0.72815 0.48299 0.46526 0.0
H512 H 0.56025 0.38183 0.41248 0.0
H513 H 0.61275 0.44094 0.44762 0.0
H514 H 0.59589 0.41346 0.40222 0.0
H515 H 0.57674 0.40897 0.45703 0.0
H516 H 0.67346 0.51101 0.47745 0.0
H517 H 0.61455 0.49845 0.45214 0.0
H518 H 0.62452 0.35692 0.40231 0.0
H519 H 0.60562 0.36268 0.44845 0.0
H520 H 0.65167 0.50854 0.40536 0.0
H521 H 0.70931 0.5124 0.42695 0.0
H522 H 0.66266 0.54512 0.41668 0.0
H523 H 0.71935 0.54894 0.43783 0.0
H524 H 0.69293 0.46427 0.37733 0.0
H525 H 0.62219 0.41571 0.38225 0.0
H526 H 0.68832 0.46116 0.34913 0.0
H527 H 0.6188 0.41352 0.35395 0.0
H528 H 0.74212 0.44847 0.40547 0.0
H529 H 0.76211 0.51578 0.39319 0.0
H530 H 0.58345 0.4596 0.37428 0.0
H531 H 0.64867 0.49771 0.35227 0.0
Li532 Li 0.22959 0.63744 0.59225 0.0
Li533 Li 0.25693 0.63008 0.58136 0.0
Li534 Li 0.25991 0.66555 0.57631 0.0
Li535 Li 0.23073 0.63144 0.5648 0.0
C536 C 0.2675 0.66884 0.60752 0.0
N537 N 0.27804 0.69989 0.63028 0.0
C538 C 0.28256 0.67152 0.6191 0.0
C539 C 0.25776 0.68193 0.60751 0.0
C540 C 0.28768 0.68732 0.63051 0.0
C541 C 0.26332 0.69754 0.61912 0.0
C542 C 0.22191 0.58989 0.58319 0.0
C543 C 0.22881 0.56188 0.57358 0.0
N544 N 0.21976 0.54985 0.58659 0.0
C545 C 0.21242 0.57711 0.59638 0.0
C546 C 0.22991 0.58208 0.57162 0.0
C547 C 0.21157 0.55696 0.59791 0.0
C548 C 0.19695 0.63922 0.61205 0.0
N549 N 0.21184 0.63232 0.61025 0.0
C550 C 0.2015 0.61412 0.63456 0.0
C551 C 0.21482 0.62063 0.62138 0.0
C552 C 0.1851 0.61992 0.63638 0.0
C553 C 0.18326 0.63307 0.62507 0.0
H554 H 0.19539 0.64922 0.60337 0.0
H555 H 0.22736 0.61606 0.61988 0.0
C556 C 0.28937 0.61816 0.57535 0.0
N557 N 0.27484 0.61773 0.58597 0.0
C558 C 0.30396 0.61082 0.57915 0.0
C559 C 0.28815 0.60258 0.60469 0.0
C560 C 0.27386 0.61005 0.60038 0.0
C561 C 0.30366 0.60316 0.59405 0.0
H562 H 0.29005 0.62474 0.56406 0.0
H563 H 0.26223 0.61013 0.6086 0.0
C564 C 0.20582 0.65054 0.57331 0.0
N565 N 0.16219 0.6412 0.56959 0.0
C566 C 0.18764 0.62865 0.57437 0.0
C567 C 0.20178 0.66764 0.5703 0.0
C568 C 0.16572 0.62428 0.57246 0.0
C569 C 0.17961 0.66259 0.56848 0.0
C570 C 0.26585 0.64785 0.54623 0.0
C571 C 0.26894 0.66677 0.53874 0.0
C572 C 0.26447 0.63046 0.53764 0.0
C573 C 0.27035 0.66789 0.52279 0.0
C574 C 0.26593 0.6322 0.5217 0.0
N575 N 0.2688 0.65071 0.51467 0.0
C576 C 0.3032 0.70197 0.57327 0.0
C577 C 0.27497 0.71104 0.57024 0.0
C578 C 0.32004 0.72366 0.56967 0.0
N579 N 0.28122 0.69609 0.5733 0.0
C580 C 0.29129 0.73298 0.56659 0.0
C581 C 0.31416 0.73943 0.56604 0.0
H582 H 0.30757 0.68962 0.57571 0.0
H583 H 0.2573 0.70578 0.57023 0.0
C584 C 0.19986 0.59804 0.54405 0.0
N585 N 0.2127 0.62019 0.54687 0.0
C586 C 0.18608 0.59033 0.53112 0.0
C587 C 0.19896 0.62836 0.52432 0.0
C588 C 0.21234 0.6353 0.53739 0.0
C589 C 0.18557 0.6056 0.52105 0.0
H590 H 0.20005 0.58634 0.55193 0.0
H591 H 0.22226 0.65277 0.54013 0.0
O592 O 0.26229 0.65334 0.59635 0.0
O593 O 0.22328 0.60989 0.58157 0.0
O594 O 0.22752 0.65529 0.57481 0.0
O595 O 0.26404 0.64628 0.56185 0.0
H596 H 0.29018 0.66147 0.61927 0.0
H597 H 0.24602 0.68007 0.59869 0.0
H598 H 0.29931 0.68957 0.63954 0.0
H599 H 0.25592 0.70777 0.61926 0.0
H600 H 0.23516 0.55577 0.56476 0.0
H601 H 0.20561 0.58255 0.60529 0.0
H602 H 0.23713 0.59166 0.56131 0.0
H603 H 0.20436 0.54696 0.60809 0.0
H604 H 0.20395 0.60452 0.64318 0.0
H605 H 0.17091 0.63801 0.62603 0.0
H606 H 0.31587 0.61186 0.57067 0.0
H607 H 0.28721 0.5966 0.61624 0.0
H608 H 0.19032 0.61513 0.57664 0.0
H609 H 0.21563 0.68465 0.56936 0.0
H610 H 0.15152 0.60744 0.57326 0.0
H611 H 0.17625 0.67568 0.56617 0.0
H612 H 0.26985 0.68033 0.54512 0.0
H613 H 0.26229 0.61576 0.54317 0.0
H614 H 0.27257 0.68237 0.51686 0.0
H615 H 0.26479 0.61882 0.51493 0.0
H616 H 0.33747 0.728 0.56961 0.0
H617 H 0.286 0.74454 0.56373 0.0
H618 H 0.17604 0.57265 0.52899 0.0
H619 H 0.19872 0.64066 0.51702 0.0
Li620 Li 0.66325 0.24232 0.75115 0.0
Li621 Li 0.62775 0.21789 0.76434 0.0
Li622 Li 0.63211 0.2133 0.73727 0.0
Li623 Li 0.62997 0.2448 0.7465 0.0
C624 C 0.66604 0.2082 0.75917 0.0
N625 N 0.7032 0.20694 0.76892 0.0
C626 C 0.66878 0.20544 0.77469 0.0
C627 C 0.68214 0.21021 0.7486 0.0
C628 C 0.68769 0.20485 0.77939 0.0
C629 C 0.70084 0.20959 0.75376 0.0
C630 C 0.64881 0.26966 0.77053 0.0
C631 C 0.63198 0.2898 0.78023 0.0
N632 N 0.65211 0.30913 0.77864 0.0
C633 C 0.66935 0.28974 0.76902 0.0
C634 C 0.62998 0.26967 0.77623 0.0
C635 C 0.67067 0.30951 0.77318 0.0
C636 C 0.70744 0.27284 0.74125 0.0
N637 N 0.69499 0.26036 0.75335 0.0
C638 C 0.72695 0.2787 0.76984 0.0
C639 C 0.70427 0.2628 0.76744 0.0
C640 C 0.74002 0.29245 0.75768 0.0
C641 C 0.73014 0.28906 0.74316 0.0
H642 H 0.69951 0.27094 0.73027 0.0
H643 H 0.69377 0.25316 0.77697 0.0
C644 C 0.6074 0.18029 0.7834 0.0
N645 N 0.61452 0.20224 0.7828 0.0
C646 C 0.59785 0.16819 0.7968 0.0
C647 C 0.60304 0.20151 0.80866 0.0
C648 C 0.61258 0.21298 0.79505 0.0
C649 C 0.59565 0.17884 0.80967 0.0
H650 H 0.6093 0.17224 0.77348 0.0
H651 H 0.61866 0.23049 0.79432 0.0
C652 C 0.65174 0.24359 0.71601 0.0
N653 N 0.65072 0.23843 0.68463 0.0
C654 C 0.6371 0.24702 0.70709 0.0
C655 C 0.66596 0.23769 0.70895 0.0
C656 C 0.63684 0.24431 0.69125 0.0
C657 C 0.66515 0.2351 0.69308 0.0
C658 C 0.58679 0.19701 0.75367 0.0
C659 C 0.57871 0.17475 0.75025 0.0
C660 C 0.575 0.20242 0.764 0.0
C661 C 0.55896 0.15823 0.7573 0.0
C662 C 0.55535 0.18541 0.77083 0.0
N663 N 0.54781 0.16386 0.76737 0.0
C664 C 0.6324 0.18064 0.71788 0.0
C665 C 0.60606 0.1914 0.71199 0.0
C666 C 0.62549 0.16661 0.70516 0.0
N667 N 0.62279 0.19283 0.72088 0.0
C668 C 0.59874 0.17773 0.69917 0.0
C669 C 0.60864 0.16528 0.69552 0.0
H670 H 0.64558 0.18203 0.72521 0.0
H671 H 0.59861 0.20116 0.71479 0.0
C672 C 0.63776 0.28591 0.73709 0.0
N673 N 0.62105 0.26519 0.7412 0.0
C674 C 0.63263 0.30173 0.73256 0.0
C675 C 0.59309 0.27448 0.73635 0.0
C676 C 0.59902 0.25919 0.74091 0.0
C677 C 0.61002 0.29607 0.73201 0.0
H678 H 0.65511 0.29006 0.73726 0.0
H679 H 0.58607 0.24246 0.74398 0.0
O680 O 0.64779 0.20908 0.75435 0.0
O681 O 0.64705 0.25015 0.76626 0.0
O682 O 0.6518 0.24554 0.73158 0.0
O683 O 0.60638 0.21341 0.74717 0.0
H684 H 0.65658 0.20401 0.78305 0.0
H685 H 0.68036 0.21252 0.73656 0.0
H686 H 0.69008 0.20282 0.79138 0.0
H687 H 0.71349 0.21126 0.74572 0.0
H688 H 0.6175 0.29005 0.78454 0.0
H689 H 0.68407 0.29013 0.76455 0.0
H690 H 0.61387 0.25435 0.77727 0.0
H691 H 0.68644 0.32516 0.77202 0.0
H692 H 0.73384 0.28107 0.78127 0.0
H693 H 0.73968 0.2993 0.7335 0.0
H694 H 0.59223 0.1507 0.79708 0.0
H695 H 0.60197 0.21041 0.8184 0.0
H696 H 0.62585 0.25143 0.71236 0.0
H697 H 0.67729 0.23484 0.71569 0.0
H698 H 0.62551 0.24679 0.68422 0.0
H699 H 0.67594 0.23037 0.68749 0.0
H700 H 0.58773 0.17025 0.74239 0.0
H701 H 0.58113 0.21955 0.76688 0.0
H702 H 0.55257 0.14093 0.75481 0.0
H703 H 0.54614 0.18935 0.77893 0.0
H704 H 0.63359 0.15733 0.70268 0.0
H705 H 0.58545 0.17691 0.69219 0.0
H706 H 0.64625 0.31822 0.72951 0.0
H707 H 0.57543 0.26929 0.73587 0.0
Li708 Li 0.41835 0.60154 0.92606 0.0
Li709 Li 0.42934 0.63523 0.91011 0.0
Li710 Li 0.39429 0.60101 0.90558 0.0
Li711 Li 0.42865 0.60454 0.89842 0.0
C712 C 0.38609 0.62091 0.92845 0.0
N713 N 0.34865 0.62352 0.93526 0.0
C714 C 0.38294 0.63683 0.92128 0.0
C715 C 0.37025 0.60639 0.93913 0.0
C716 C 0.36388 0.63786 0.92486 0.0
C717 C 0.35143 0.60797 0.94242 0.0
C718 C 0.46694 0.64079 0.92123 0.0
C719 C 0.5001 0.67689 0.91696 0.0
N720 N 0.50453 0.67871 0.93222 0.0
C721 C 0.4719 0.64297 0.93686 0.0
C722 C 0.48123 0.65783 0.91118 0.0
C723 C 0.49096 0.66228 0.94219 0.0
C724 C 0.42674 0.57653 0.94703 0.0
N725 N 0.42012 0.5915 0.94566 0.0
C726 C 0.41624 0.59247 0.97272 0.0
C727 C 0.41509 0.59969 0.95808 0.0
C728 C 0.4228 0.57681 0.97454 0.0
C729 C 0.42816 0.56887 0.96145 0.0
H730 H 0.43087 0.57055 0.93689 0.0
H731 H 0.41027 0.6119 0.95662 0.0
C732 C 0.44083 0.67745 0.89918 0.0
N733 N 0.44135 0.66614 0.91161 0.0
C734 C 0.44546 0.69911 0.90074 0.0
C735 C 0.45173 0.69724 0.92777 0.0
C736 C 0.44684 0.67557 0.9257 0.0
C737 C 0.45052 0.70907 0.91525 0.0
H738 H 0.43561 0.66926 0.88822 0.0
H739 H 0.4463 0.66587 0.93546 0.0
C740 C 0.38309 0.55922 0.90973 0.0
N741 N 0.34226 0.51938 0.90997 0.0
C742 C 0.37107 0.55052 0.89613 0.0
C743 C 0.37431 0.5476 0.92344 0.0
C744 C 0.35046 0.53038 0.8965 0.0
C745 C 0.35366 0.5275 0.92332 0.0
C746 C 0.42064 0.62187 0.87526 0.0
C747 C 0.40501 0.60511 0.86562 0.0
C748 C 0.44158 0.63816 0.86941 0.0
C749 C 0.4107 0.6048 0.85032 0.0
C750 C 0.44664 0.63725 0.85404 0.0
N751 N 0.43124 0.62071 0.8449 0.0
C752 C 0.36121 0.60351 0.88955 0.0
C753 C 0.34584 0.576 0.90895 0.0
C754 C 0.34012 0.60055 0.88664 0.0
N755 N 0.36375 0.59142 0.90059 0.0
C756 C 0.32435 0.57239 0.90636 0.0
C757 C 0.32137 0.58505 0.89524 0.0
H758 H 0.37579 0.61632 0.8835 0.0
H759 H 0.34834 0.56724 0.91812 0.0
C760 C 0.46525 0.61024 0.88025 0.0
N761 N 0.44309 0.59635 0.88365 0.0
C762 C 0.47472 0.60613 0.86752 0.0
C763 C 0.43871 0.57279 0.86273 0.0
C764 C 0.43002 0.57751 0.87554 0.0
C765 C 0.46118 0.58752 0.85832 0.0
H766 H 0.47528 0.62505 0.88695 0.0
H767 H 0.41251 0.56677 0.87851 0.0
O768 O 0.4043 0.61921 0.92476 0.0
O769 O 0.44822 0.6221 0.91581 0.0
O770 O 0.40346 0.5788 0.9096 0.0
O771 O 0.41564 0.62205 0.89041 0.0
H772 H 0.39487 0.64803 0.91285 0.0
H773 H 0.37224 0.59374 0.94462 0.0
H774 H 0.36114 0.64998 0.91931 0.0
H775 H 0.33896 0.59674 0.95057 0.0
H776 H 0.51118 0.69027 0.90933 0.0
H777 H 0.46115 0.62995 0.9448 0.0
H778 H 0.47758 0.65654 0.89908 0.0
H779 H 0.49495 0.66421 0.95425 0.0
H780 H 0.41184 0.59892 0.98248 0.0
H781 H 0.43369 0.5571 0.96236 0.0
H782 H 0.44437 0.70771 0.89081 0.0
H783 H 0.45514 0.70417 0.93919 0.0
H784 H 0.37732 0.55938 0.88545 0.0
H785 H 0.38322 0.55404 0.93409 0.0
H786 H 0.34094 0.52355 0.88608 0.0
H787 H 0.34668 0.51837 0.93386 0.0
H788 H 0.38876 0.59233 0.86994 0.0
H789 H 0.45397 0.65115 0.8767 0.0
H790 H 0.39884 0.59183 0.84277 0.0
H791 H 0.46287 0.64961 0.84941 0.0
H792 H 0.33877 0.61112 0.87825 0.0
H793 H 0.31036 0.56024 0.91325 0.0
H794 H 0.49221 0.61774 0.86466 0.0
H795 H 0.42753 0.55841 0.85588 0.0
Li796 Li 0.78333 0.38787 0.08111 0.0
Li797 Li 0.81272 0.38363 0.09339 0.0
Li798 Li 0.81152 0.38796 0.06493 0.0
Li799 Li 0.78452 0.35313 0.07706 0.0
C800 C 0.81855 0.42945 0.08478 0.0
N801 N 0.82204 0.46937 0.09173 0.0
C802 C 0.82711 0.43956 0.09892 0.0
C803 C 0.81214 0.43988 0.07407 0.0
C804 C 0.82865 0.45968 0.10225 0.0
C805 C 0.81391 0.45998 0.07783 0.0
C806 C 0.77143 0.35479 0.10989 0.0
C807 C 0.76522 0.32649 0.12819 0.0
N808 N 0.75472 0.33362 0.13766 0.0
C809 C 0.76026 0.36161 0.11972 0.0
C810 C 0.77368 0.3369 0.11409 0.0
C811 C 0.75207 0.3508 0.13374 0.0
C812 C 0.74536 0.39108 0.07505 0.0
N813 N 0.76322 0.39799 0.0846 0.0
C814 C 0.74947 0.4154 0.10103 0.0
C815 C 0.76564 0.41007 0.09733 0.0
C816 C 0.73051 0.40801 0.0916 0.0
C817 C 0.72876 0.39603 0.07831 0.0
H818 H 0.74356 0.38103 0.06521 0.0
H819 H 0.7797 0.41487 0.10493 0.0
C820 C 0.85126 0.3942 0.11173 0.0
N821 N 0.8303 0.39129 0.11157 0.0
C822 C 0.86379 0.40026 0.12527 0.0
C823 C 0.83296 0.40034 0.1381 0.0
C824 C 0.82119 0.39448 0.12435 0.0
C825 C 0.85463 0.40345 0.13872 0.0
H826 H 0.85828 0.39194 0.10132 0.0
H827 H 0.80493 0.39297 0.12381 0.0
C828 C 0.77541 0.37186 0.04686 0.0
N829 N 0.77087 0.375 0.0157 0.0
C830 C 0.77117 0.35428 0.03724 0.0
C831 C 0.77693 0.39087 0.04065 0.0
C832 C 0.76902 0.35622 0.02151 0.0
C833 C 0.77472 0.39219 0.02486 0.0
C834 C 0.82394 0.35177 0.07841 0.0
C835 C 0.83056 0.34433 0.06579 0.0
C836 C 0.82389 0.3435 0.09296 0.0
C837 C 0.83642 0.32831 0.06787 0.0
C838 C 0.82988 0.32751 0.09459 0.0
N839 N 0.83594 0.32028 0.08211 0.0
C840 C 0.83934 0.42212 0.04377 0.0
C841 C 0.82723 0.38545 0.03586 0.0
C842 C 0.84951 0.4305 0.02956 0.0
N843 N 0.82824 0.39993 0.04654 0.0
C844 C 0.83717 0.39307 0.02154 0.0
C845 C 0.84829 0.41585 0.01818 0.0
H846 H 0.83994 0.43328 0.05247 0.0
H847 H 0.81796 0.36786 0.03828 0.0
C848 C 0.7453 0.312 0.08185 0.0
N849 N 0.76533 0.32203 0.07424 0.0
C850 C 0.72898 0.28996 0.07883 0.0
C851 C 0.7539 0.289 0.05991 0.0
C852 C 0.77001 0.31096 0.06357 0.0
C853 C 0.73304 0.27841 0.0675 0.0
H854 H 0.74156 0.32139 0.08978 0.0
H855 H 0.78568 0.31952 0.05727 0.0
O856 O 0.81676 0.40964 0.08137 0.0
O857 O 0.77959 0.36527 0.09611 0.0
O858 O 0.7781 0.37049 0.06227 0.0
O859 O 0.81819 0.36752 0.07656 0.0
H860 H 0.83258 0.43202 0.10725 0.0
H861 H 0.80578 0.43251 0.06301 0.0
H862 H 0.83515 0.46761 0.11319 0.0
H863 H 0.80884 0.46812 0.06968 0.0
H864 H 0.76688 0.31264 0.13157 0.0
H865 H 0.75806 0.3752 0.11661 0.0
H866 H 0.7814 0.33077 0.10642 0.0
H867 H 0.74356 0.35604 0.14149 0.0
H868 H 0.75156 0.42483 0.11132 0.0
H869 H 0.71425 0.38971 0.07087 0.0
H870 H 0.88057 0.40282 0.12514 0.0
H871 H 0.82506 0.40237 0.14815 0.0
H872 H 0.76979 0.3394 0.04182 0.0
H873 H 0.7798 0.40446 0.04792 0.0
H874 H 0.76593 0.34281 0.01393 0.0
H875 H 0.77604 0.40689 0.0199 0.0
H876 H 0.83109 0.35075 0.05447 0.0
H877 H 0.81947 0.34946 0.10293 0.0
H878 H 0.8414 0.32229 0.05817 0.0
H879 H 0.82981 0.32093 0.10579 0.0
H880 H 0.85815 0.44821 0.02748 0.0
H881 H 0.83552 0.38116 0.01303 0.0
H882 H 0.71286 0.28242 0.08466 0.0
H883 H 0.75743 0.28059 0.05097 0.0
Li884 Li 0.47246 0.82162 0.26752 0.0
Li885 Li 0.4403 0.79575 0.25201 0.0
Li886 Li 0.47783 0.7987 0.24986 0.0
Li887 Li 0.47274 0.82794 0.23927 0.0
C888 C 0.45481 0.78302 0.28241 0.0
N889 N 0.45124 0.77239 0.31313 0.0
C890 C 0.4339 0.77333 0.28979 0.0
C891 C 0.47382 0.787 0.29061 0.0
C892 C 0.43246 0.76815 0.30534 0.0
C893 C 0.4717 0.78161 0.30615 0.0
C894 C 0.43672 0.83416 0.25305 0.0
C895 C 0.4139 0.84167 0.23623 0.0
N896 N 0.40583 0.84722 0.24852 0.0
C897 C 0.42844 0.84028 0.26549 0.0
C898 C 0.42959 0.83514 0.23828 0.0
C899 C 0.41274 0.84669 0.26298 0.0
C900 C 0.50014 0.84915 0.29219 0.0
N901 N 0.47884 0.8349 0.28716 0.0
C902 C 0.46319 0.8385 0.31052 0.0
C903 C 0.46055 0.8294 0.296 0.0
C904 C 0.48491 0.85358 0.316 0.0
C905 C 0.50359 0.85874 0.30671 0.0
H906 H 0.51438 0.85325 0.28489 0.0
H907 H 0.44384 0.8179 0.29172 0.0
C908 C 0.40108 0.75594 0.24448 0.0
N909 N 0.40885 0.77524 0.25226 0.0
C910 C 0.37839 0.73928 0.24535 0.0
C911 C 0.37216 0.76258 0.2624 0.0
C912 C 0.39495 0.77887 0.26108 0.0
C913 C 0.36365 0.74235 0.25459 0.0
H914 H 0.41264 0.7533 0.23784 0.0
H915 H 0.40172 0.794 0.26761 0.0
C916 C 0.51857 0.83453 0.24991 0.0
N917 N 0.56021 0.83977 0.24412 0.0
C918 C 0.52913 0.84277 0.23578 0.0
C919 C 0.52931 0.82925 0.26116 0.0
C920 C 0.55016 0.84523 0.23306 0.0
C921 C 0.55031 0.83192 0.25799 0.0
C922 C 0.44789 0.79001 0.21907 0.0
C923 C 0.4577 0.78294 0.20826 0.0
C924 C 0.42844 0.79017 0.2152 0.0
C925 C 0.44826 0.77674 0.19368 0.0
C926 C 0.41948 0.78381 0.20051 0.0
N927 N 0.42952 0.77733 0.19013 0.0
C928 C 0.48412 0.76301 0.25513 0.0
C929 C 0.50259 0.78411 0.23295 0.0
C930 C 0.48907 0.74689 0.25098 0.0
N931 N 0.49048 0.78089 0.24595 0.0
C932 C 0.50773 0.7683 0.22829 0.0
C933 C 0.50036 0.74909 0.23715 0.0
H934 H 0.47406 0.76055 0.26521 0.0
H935 H 0.50709 0.79827 0.22572 0.0
C936 C 0.48248 0.8688 0.22611 0.0
N937 N 0.48108 0.84917 0.22327 0.0
C938 C 0.48663 0.88366 0.21416 0.0
C939 C 0.48868 0.85814 0.19676 0.0
C940 C 0.48467 0.84392 0.20903 0.0
C941 C 0.48943 0.87822 0.19917 0.0
H942 H 0.47984 0.87268 0.23761 0.0
H943 H 0.48416 0.82856 0.20714 0.0
O944 O 0.45662 0.78856 0.26724 0.0
O945 O 0.45218 0.8279 0.25534 0.0
O946 O 0.49789 0.83181 0.25274 0.0
O947 O 0.45694 0.79609 0.23345 0.0
H948 H 0.41898 0.76998 0.28361 0.0
H949 H 0.49007 0.79429 0.28505 0.0
H950 H 0.41642 0.76078 0.31122 0.0
H951 H 0.48631 0.78475 0.31265 0.0
H952 H 0.40825 0.84244 0.22485 0.0
H953 H 0.434 0.84007 0.27699 0.0
H954 H 0.43632 0.83126 0.22845 0.0
H955 H 0.4061 0.85131 0.27253 0.0
H956 H 0.44834 0.83374 0.31738 0.0
H957 H 0.52061 0.87043 0.31047 0.0
H958 H 0.37255 0.72406 0.23902 0.0
H959 H 0.36157 0.76548 0.26994 0.0
H960 H 0.52114 0.84708 0.22698 0.0
H961 H 0.5215 0.82312 0.27222 0.0
H962 H 0.55847 0.85146 0.22214 0.0
H963 H 0.55876 0.82777 0.26657 0.0
H964 H 0.47255 0.78239 0.21103 0.0
H965 H 0.42002 0.79469 0.22351 0.0
H966 H 0.45582 0.77143 0.18519 0.0
H967 H 0.40445 0.78391 0.1974 0.0
H968 H 0.48283 0.73218 0.25803 0.0
H969 H 0.51658 0.77064 0.21758 0.0
H970 H 0.48747 0.89911 0.21663 0.0
H971 H 0.4905 0.85305 0.18544 0.0
H972 H 0.15705 0.62226 0.29094 0.0
H973 H 0.19532 0.64801 0.28203 0.0
H974 H 0.20745 0.59408 0.27834 0.0
H975 H 0.16881 0.56795 0.28699 0.0
H976 H 0.24176 0.63114 0.29324 0.0
H977 H 0.19991 0.61491 0.24659 0.0
H978 H 0.1692 0.61067 0.23003 0.0
H979 H 0.19191 0.67964 0.23595 0.0
H980 H 0.22257 0.68422 0.25274 0.0
H981 H 0.34737 0.69782 0.25724 0.0
H982 H 0.3086 0.66809 0.26197 0.0
H983 H 0.28747 0.71583 0.26252 0.0
H984 H 0.32607 0.74559 0.25696 0.0
H985 H 0.25754 0.67947 0.24785 0.0
H986 H 0.29675 0.69559 0.2958 0.0
H987 H 0.32693 0.70074 0.3133 0.0
H988 H 0.3087 0.63319 0.30599 0.0
H989 H 0.2786 0.62773 0.28826 0.0
C990 C 0.16769 0.61576 0.28799 0.0
C991 C 0.1598 0.593 0.28951 0.0
C992 C 0.18959 0.63053 0.28296 0.0
C993 C 0.20406 0.62287 0.27934 0.0
C994 C 0.19644 0.60025 0.28104 0.0
C995 C 0.17443 0.58539 0.28603 0.0
C996 C 0.22733 0.63875 0.27416 0.0
C997 C 0.24528 0.64143 0.28315 0.0
C998 C 0.23176 0.65252 0.26123 0.0
C999 C 0.21345 0.64986 0.25102 0.0
C1000 C 0.19826 0.62914 0.24445 0.0
C1001 C 0.18088 0.62668 0.23501 0.0
C1002 C 0.17858 0.64486 0.23196 0.0
C1003 C 0.1937 0.66556 0.23833 0.0
C1004 C 0.21111 0.66811 0.24779 0.0
C1005 C 0.33444 0.70199 0.25805 0.0
C1006 C 0.33987 0.72414 0.25676 0.0
C1007 C 0.31231 0.68498 0.26095 0.0
C1008 C 0.29522 0.6898 0.26286 0.0
C1009 C 0.30043 0.71177 0.26117 0.0
C1010 C 0.32254 0.72878 0.25814 0.0
C1011 C 0.27202 0.67205 0.26701 0.0
C1012 C 0.25407 0.66903 0.25784 0.0
C1013 C 0.26756 0.65811 0.27988 0.0
C1014 C 0.2856 0.66133 0.29057 0.0
C1015 C 0.2993 0.68189 0.29783 0.0
C1016 C 0.31637 0.68485 0.30781 0.0
C1017 C 0.31977 0.66732 0.31072 0.0
C1018 C 0.30607 0.64676 0.3037 0.0
C1019 C 0.289 0.64372 0.29369 0.0
H1020 H 0.333 0.66965 0.31845 0.0
H1021 H 0.1651 0.64293 0.22465 0.0
H1022 H 0.58949 0.16488 0.45001 0.0
H1023 H 0.59967 0.20247 0.44261 0.0
H1024 H 0.53637 0.19052 0.46062 0.0
H1025 H 0.52607 0.15293 0.46796 0.0
H1026 H 0.54548 0.21162 0.43388 0.0
H1027 H 0.58521 0.22073 0.48065 0.0
H1028 H 0.61053 0.21657 0.49823 0.0
H1029 H 0.6656 0.2522 0.46682 0.0
H1030 H 0.64052 0.25629 0.44893 0.0
H1031 H 0.57522 0.32477 0.43988 0.0
H1032 H 0.56406 0.28633 0.44556 0.0
H1033 H 0.62485 0.29698 0.42397 0.0
H1034 H 0.63621 0.33545 0.41842 0.0
H1035 H 0.61699 0.27663 0.45226 0.0
H1036 H 0.57634 0.26788 0.40571 0.0
H1037 H 0.55049 0.27229 0.38885 0.0
H1038 H 0.49645 0.23635 0.42095 0.0
H1039 H 0.52208 0.23198 0.43812 0.0
C1040 C 0.57779 0.17031 0.45242 0.0
C1041 C 0.55701 0.15599 0.45959 0.0
C1042 C 0.58361 0.19177 0.44819 0.0
C1043 C 0.56888 0.19938 0.45123 0.0
C1044 C 0.54796 0.18497 0.45814 0.0
C1045 C 0.54209 0.16349 0.46229 0.0
C1046 C 0.57537 0.22244 0.44738 0.0
C1047 C 0.56099 0.22584 0.43804 0.0
C1048 C 0.59578 0.24098 0.45263 0.0
C1049 C 0.61093 0.23861 0.46338 0.0
C1050 C 0.60268 0.22752 0.47743 0.0
C1051 C 0.61699 0.2252 0.48746 0.0
C1052 C 0.63964 0.23407 0.48363 0.0
C1053 C 0.64804 0.24532 0.46976 0.0
C1054 C 0.63379 0.24765 0.45968 0.0
C1055 C 0.58618 0.31889 0.43635 0.0
C1056 C 0.60654 0.33306 0.42866 0.0
C1057 C 0.57973 0.29693 0.43952 0.0
C1058 C 0.59358 0.28882 0.43509 0.0
C1059 C 0.61392 0.30293 0.42744 0.0
C1060 C 0.62029 0.32482 0.42417 0.0
C1061 C 0.58714 0.26575 0.43874 0.0
C1062 C 0.60152 0.26238 0.44807 0.0
C1063 C 0.56665 0.24727 0.4336 0.0
C1064 C 0.55119 0.2498 0.42327 0.0
C1065 C 0.55899 0.26108 0.40924 0.0
C1066 C 0.54437 0.26354 0.39961 0.0
C1067 C 0.52185 0.25466 0.40384 0.0
C1068 C 0.5139 0.24324 0.41769 0.0
C1069 C 0.52846 0.24075 0.42737 0.0
H1070 H 0.51056 0.25658 0.39637 0.0
H1071 H 0.6507 0.23226 0.49141 0.0
H1072 H 0.45532 0.56989 0.65168 0.0
H1073 H 0.42916 0.58188 0.64446 0.0
H1074 H 0.41359 0.5443 0.60263 0.0
H1075 H 0.43991 0.53251 0.60968 0.0
H1076 H 0.41915 0.58568 0.59822 0.0
H1077 H 0.37847 0.52296 0.63196 0.0
H1078 H 0.37221 0.50179 0.65581 0.0
H1079 H 0.37267 0.55385 0.68156 0.0
H1080 H 0.37927 0.5755 0.65787 0.0
H1081 H 0.31703 0.57878 0.57777 0.0
H1082 H 0.34535 0.56969 0.58498 0.0
H1083 H 0.35587 0.60408 0.62781 0.0
H1084 H 0.32761 0.61324 0.62068 0.0
H1085 H 0.35375 0.5655 0.63208 0.0
H1086 H 0.39335 0.62792 0.5985 0.0
H1087 H 0.39994 0.64948 0.57481 0.0
H1088 H 0.40208 0.59886 0.54895 0.0
H1089 H 0.39517 0.57682 0.57247 0.0
C1090 C 0.44655 0.56445 0.64085 0.0
C1091 C 0.44952 0.55016 0.63128 0.0
C1092 C 0.43151 0.57117 0.6368 0.0
C1093 C 0.41928 0.56376 0.6231 0.0
C1094 C 0.42283 0.55014 0.61328 0.0
C1095 C 0.43773 0.54331 0.61736 0.0
C1096 C 0.40222 0.56958 0.61919 0.0
C1097 C 0.40472 0.58109 0.60553 0.0
C1098 C 0.38369 0.56399 0.62892 0.0
C1099 C 0.3796 0.55095 0.64317 0.0
C1100 C 0.37742 0.52998 0.64272 0.0
C1101 C 0.37378 0.51787 0.65621 0.0
C1102 C 0.37211 0.5265 0.6702 0.0
C1103 C 0.37401 0.54721 0.67072 0.0
C1104 C 0.37768 0.5594 0.65727 0.0
C1105 C 0.32545 0.58448 0.58869 0.0
C1106 C 0.32012 0.59678 0.59864 0.0
C1107 C 0.34162 0.57929 0.5928 0.0
C1108 C 0.35293 0.58647 0.60685 0.0
C1109 C 0.34734 0.59837 0.61692 0.0
C1110 C 0.33112 0.60351 0.61285 0.0
C1111 C 0.3706 0.58157 0.61105 0.0
C1112 C 0.36822 0.5702 0.62478 0.0
C1113 C 0.38928 0.58737 0.6014 0.0
C1114 C 0.39352 0.60062 0.58723 0.0
C1115 C 0.39504 0.6213 0.58775 0.0
C1116 C 0.39887 0.63362 0.57435 0.0
C1117 C 0.40137 0.62552 0.56037 0.0
C1118 C 0.40011 0.6051 0.55978 0.0
C1119 C 0.39626 0.59269 0.57314 0.0
H1120 H 0.40434 0.63509 0.55001 0.0
H1121 H 0.36929 0.5171 0.68063 0.0
H1122 H 0.94604 0.45073 0.78047 0.0
H1123 H 0.91022 0.41953 0.77163 0.0
H1124 H 0.87456 0.43775 0.80307 0.0
H1125 H 0.91035 0.46808 0.81271 0.0
H1126 H 0.85752 0.39568 0.80468 0.0
H1127 H 0.87627 0.44685 0.76338 0.0
H1128 H 0.90005 0.47269 0.74299 0.0
H1129 H 0.90217 0.41986 0.72023 0.0
H1130 H 0.87864 0.39375 0.7406 0.0
H1131 H 0.75805 0.33506 0.74784 0.0
H1132 H 0.79466 0.36731 0.75441 0.0
H1133 H 0.81074 0.32527 0.78042 0.0
H1134 H 0.77384 0.29293 0.77408 0.0
H1135 H 0.83685 0.38012 0.74987 0.0
H1136 H 0.84086 0.35278 0.81174 0.0
H1137 H 0.81487 0.32946 0.83231 0.0
H1138 H 0.76334 0.33949 0.81421 0.0
H1139 H 0.78912 0.36311 0.79368 0.0
C1140 C 0.9306 0.44806 0.78558 0.0
C1141 C 0.93114 0.46193 0.79736 0.0
C1142 C 0.91008 0.43035 0.78036 0.0
C1143 C 0.88964 0.42638 0.78657 0.0
C1144 C 0.89011 0.44047 0.79809 0.0
C1145 C 0.91061 0.45801 0.80346 0.0
C1146 C 0.86782 0.40704 0.78152 0.0
C1147 C 0.85303 0.39232 0.79268 0.0
C1148 C 0.86175 0.40275 0.76589 0.0
C1149 C 0.87586 0.41839 0.75359 0.0
C1150 C 0.88194 0.44078 0.75409 0.0
C1151 C 0.89535 0.45547 0.74252 0.0
C1152 C 0.90266 0.44794 0.73034 0.0
C1153 C 0.89652 0.42568 0.72968 0.0
C1154 C 0.88312 0.41092 0.74122 0.0
C1155 C 0.76953 0.33263 0.75476 0.0
C1156 C 0.76309 0.3115 0.76049 0.0
C1157 C 0.79043 0.35109 0.75853 0.0
C1158 C 0.80533 0.34877 0.76808 0.0
C1159 C 0.79933 0.32752 0.77328 0.0
C1160 C 0.7783 0.30907 0.76964 0.0
C1161 C 0.8267 0.36874 0.77302 0.0
C1162 C 0.84142 0.3835 0.76185 0.0
C1163 C 0.8324 0.37346 0.78867 0.0
C1164 C 0.81685 0.3595 0.80109 0.0
C1165 C 0.82401 0.35006 0.81219 0.0
C1166 C 0.80931 0.33679 0.82383 0.0
C1167 C 0.78744 0.33293 0.82453 0.0
C1168 C 0.78025 0.34242 0.81363 0.0
C1169 C 0.79489 0.35573 0.80198 0.0
H1170 H 0.77608 0.32264 0.83355 0.0
H1171 H 0.91305 0.45934 0.7214 0.0
H1172 H 0.48764 0.89142 0.96872 0.0
H1173 H 0.48438 0.85778 0.95836 0.0
H1174 H 0.42408 0.84323 0.93414 0.0
H1175 H 0.42721 0.87705 0.94467 0.0
H1176 H 0.41986 0.80628 0.94712 0.0
H1177 H 0.4733 0.86467 0.91497 0.0
H1178 H 0.50682 0.90109 0.90885 0.0
H1179 H 0.54936 0.88152 0.93047 0.0
H1180 H 0.51604 0.84509 0.93693 0.0
H1181 H 0.42337 0.72288 0.90368 0.0
H1182 H 0.42429 0.75727 0.90948 0.0
H1183 H 0.48222 0.77822 0.9384 0.0
H1184 H 0.48164 0.74399 0.93244 0.0
H1185 H 0.48577 0.81222 0.92013 0.0
H1186 H 0.43142 0.75502 0.95406 0.0
H1187 H 0.39771 0.7186 0.95993 0.0
H1188 H 0.3566 0.73614 0.93413 0.0
H1189 H 0.39015 0.77257 0.92792 0.0
C1190 C 0.47373 0.8811 0.96113 0.0
C1191 C 0.45786 0.88697 0.95729 0.0
C1192 C 0.47189 0.86191 0.95523 0.0
C1193 C 0.45429 0.8483 0.94521 0.0
C1194 C 0.4379 0.85364 0.94177 0.0
C1195 C 0.43966 0.87287 0.94778 0.0
C1196 C 0.45329 0.8286 0.93838 0.0
C1197 C 0.43409 0.8076 0.94095 0.0
C1198 C 0.472 0.83035 0.93051 0.0
C1199 C 0.49213 0.85218 0.92653 0.0
C1200 C 0.48978 0.86818 0.91851 0.0
C1201 C 0.50875 0.88882 0.91497 0.0
C1202 C 0.5302 0.89363 0.91929 0.0
C1203 C 0.53273 0.87778 0.92713 0.0
C1204 C 0.51381 0.85711 0.93072 0.0
C1205 C 0.43658 0.73502 0.91103 0.0
C1206 C 0.45244 0.73078 0.91762 0.0
C1207 C 0.43695 0.75454 0.91443 0.0
C1208 C 0.45316 0.77011 0.92449 0.0
C1209 C 0.46954 0.76634 0.93063 0.0
C1210 C 0.46912 0.74676 0.92729 0.0
C1211 C 0.45255 0.78995 0.92913 0.0
C1212 C 0.47146 0.81096 0.92612 0.0
C1213 C 0.43354 0.78821 0.93652 0.0
C1214 C 0.41333 0.76642 0.94038 0.0
C1215 C 0.41522 0.75105 0.94954 0.0
C1216 C 0.39614 0.73041 0.95294 0.0
C1217 C 0.37503 0.72503 0.94736 0.0
C1218 C 0.37296 0.74031 0.93841 0.0
C1219 C 0.392 0.76096 0.93496 0.0
H1220 H 0.36028 0.70904 0.95 0.0
H1221 H 0.54487 0.90962 0.91654 0.0
H1222 H 0.56838 0.44419 0.1084 0.0
H1223 H 0.59662 0.43532 0.10047 0.0
H1224 H 0.60176 0.41799 0.147 0.0
H1225 H 0.57377 0.42719 0.15505 0.0
H1226 H 0.64278 0.44744 0.13447 0.0
H1227 H 0.57733 0.37813 0.12043 0.0
H1228 H 0.54079 0.35384 0.10783 0.0
H1229 H 0.57125 0.3792 0.06391 0.0
H1230 H 0.60794 0.40389 0.07627 0.0
H1231 H 0.7126 0.4039 0.12009 0.0
H1232 H 0.68146 0.40864 0.12749 0.0
H1233 H 0.67493 0.42424 0.08076 0.0
H1234 H 0.70627 0.41961 0.07325 0.0
H1235 H 0.63426 0.39517 0.09335 0.0
H1236 H 0.69911 0.46494 0.10696 0.0
H1237 H 0.73582 0.48991 0.11916 0.0
H1238 H 0.70664 0.46464 0.1634 0.0
H1239 H 0.66981 0.43927 0.15144 0.0
C1240 C 0.57537 0.43825 0.1169 0.0
C1241 C 0.56894 0.43641 0.13234 0.0
C1242 C 0.59137 0.43307 0.11234 0.0
C1243 C 0.60121 0.42594 0.12315 0.0
C1244 C 0.59432 0.42343 0.1385 0.0
C1245 C 0.57822 0.42851 0.14305 0.0
C1246 C 0.61979 0.42262 0.11861 0.0
C1247 C 0.64082 0.43573 0.12567 0.0
C1248 C 0.61737 0.40788 0.10677 0.0
C1249 C 0.59534 0.39302 0.0993 0.0
C1250 C 0.5762 0.37868 0.1081 0.0
C1251 C 0.55547 0.3648 0.101 0.0
C1252 C 0.55369 0.36502 0.08508 0.0
C1253 C 0.57265 0.37907 0.07624 0.0
C1254 C 0.59343 0.39299 0.08329 0.0
C1255 C 0.70478 0.40866 0.11141 0.0
C1256 C 0.71203 0.41157 0.0961 0.0
C1257 C 0.68692 0.41127 0.11566 0.0
C1258 C 0.67605 0.417 0.1047 0.0
C1259 C 0.68311 0.41979 0.08938 0.0
C1260 C 0.70098 0.41714 0.08511 0.0
C1261 C 0.6572 0.41991 0.10928 0.0
C1262 C 0.63617 0.4068 0.1022 0.0
C1263 C 0.65963 0.43476 0.12105 0.0
C1264 C 0.68175 0.45005 0.12829 0.0
C1265 C 0.70056 0.46457 0.11928 0.0
C1266 C 0.72138 0.47882 0.12616 0.0
C1267 C 0.72357 0.47882 0.14204 0.0
C1268 C 0.70493 0.4646 0.15109 0.0
C1269 C 0.68407 0.4503 0.14427 0.0
H1270 H 0.73971 0.48987 0.14734 0.0
H1271 H 0.53762 0.35427 0.07961 0.0
H1272 H 0.47425 0.92393 0.50709 0.0
H1273 H 0.44946 0.88607 0.5164 0.0
H1274 H 0.41718 0.90917 0.54702 0.0
H1275 H 0.44283 0.94718 0.53854 0.0
H1276 H 0.42183 0.87925 0.56085 0.0
H1277 H 0.39427 0.88435 0.51125 0.0
H1278 H 0.39751 0.8921 0.48353 0.0
H1279 H 0.41458 0.84243 0.47584 0.0
H1280 H 0.41169 0.83456 0.50356 0.0
H1281 H 0.31803 0.77885 0.57406 0.0
H1282 H 0.3469 0.81623 0.56578 0.0
H1283 H 0.37905 0.78893 0.53903 0.0
H1284 H 0.34992 0.75149 0.5469 0.0
H1285 H 0.37591 0.82015 0.52318 0.0
H1286 H 0.40123 0.81381 0.57295 0.0
H1287 H 0.39765 0.80628 0.60069 0.0
H1288 H 0.38413 0.8585 0.60803 0.0
H1289 H 0.38732 0.86613 0.58029 0.0
C1290 C 0.46218 0.92104 0.51602 0.0
C1291 C 0.4604 0.93863 0.52193 0.0
C1292 C 0.4478 0.89931 0.52119 0.0
C1293 C 0.43109 0.89467 0.53216 0.0
C1294 C 0.4298 0.91228 0.53845 0.0
C1295 C 0.44434 0.93401 0.53345 0.0
C1296 C 0.41457 0.8715 0.53692 0.0
C1297 C 0.41163 0.8664 0.55261 0.0
C1298 C 0.40159 0.85456 0.52617 0.0
C1299 C 0.40298 0.85902 0.50949 0.0
C1300 C 0.39883 0.87516 0.50365 0.0
C1301 C 0.40059 0.87956 0.48795 0.0
C1302 C 0.40631 0.8678 0.47794 0.0
C1303 C 0.41018 0.85154 0.48361 0.0
C1304 C 0.40846 0.84709 0.49932 0.0
C1305 C 0.33117 0.7808 0.56634 0.0
C1306 C 0.33175 0.76221 0.56121 0.0
C1307 C 0.34776 0.80218 0.56172 0.0
C1308 C 0.36528 0.80537 0.55193 0.0
C1309 C 0.36575 0.78684 0.54665 0.0
C1310 C 0.3492 0.76548 0.55127 0.0
C1311 C 0.38301 0.82803 0.54709 0.0
C1312 C 0.38618 0.833 0.5314 0.0
C1313 C 0.39611 0.84489 0.55783 0.0
C1314 C 0.39432 0.84041 0.57452 0.0
C1315 C 0.39733 0.82358 0.58046 0.0
C1316 C 0.3954 0.81931 0.59619 0.0
C1317 C 0.39062 0.83187 0.60611 0.0
C1318 C 0.38781 0.84877 0.60033 0.0
C1319 C 0.3897 0.85309 0.58461 0.0
H1320 H 0.38913 0.82854 0.61828 0.0
H1321 H 0.4077 0.87127 0.46579 0.0
H1322 H 0.53103 0.42091 0.70002 0.0
H1323 H 0.54255 0.3959 0.70983 0.0
H1324 H 0.59466 0.41941 0.67539 0.0
H1325 H 0.58258 0.44387 0.66508 0.0
H1326 H 0.57198 0.37517 0.67732 0.0
H1327 H 0.60712 0.43556 0.71295 0.0
H1328 H 0.60845 0.46266 0.73139 0.0
H1329 H 0.56125 0.4095 0.76047 0.0
H1330 H 0.55939 0.38205 0.7421 0.0
H1331 H 0.62933 0.32576 0.70846 0.0
H1332 H 0.61989 0.3527 0.6995 0.0
H1333 H 0.56751 0.32984 0.73368 0.0
H1334 H 0.57754 0.30344 0.7432 0.0
H1335 H 0.59094 0.37423 0.73192 0.0
H1336 H 0.55504 0.31394 0.69623 0.0
H1337 H 0.55317 0.28658 0.67779 0.0
H1338 H 0.60128 0.33937 0.64885 0.0
H1339 H 0.60367 0.36705 0.66723 0.0
C1340 C 0.54484 0.42066 0.69445 0.0
C1341 C 0.55584 0.43433 0.68173 0.0
C1342 C 0.55158 0.40654 0.70019 0.0
C1343 C 0.56964 0.40598 0.69345 0.0
C1344 C 0.58073 0.41965 0.68079 0.0
C1345 C 0.57394 0.43375 0.675 0.0
C1346 C 0.57647 0.39061 0.69934 0.0
C1347 C 0.57649 0.3752 0.68921 0.0
C1348 C 0.58173 0.39027 0.71495 0.0
C1349 C 0.58297 0.40675 0.72608 0.0
C1350 C 0.5969 0.42964 0.72323 0.0
C1351 C 0.59777 0.44507 0.73368 0.0
C1352 C 0.5849 0.4378 0.74708 0.0
C1353 C 0.57119 0.4151 0.75008 0.0
C1354 C 0.57024 0.3996 0.73966 0.0
C1355 C 0.61599 0.32663 0.71422 0.0
C1356 C 0.60418 0.31242 0.72656 0.0
C1357 C 0.61045 0.34188 0.70896 0.0
C1358 C 0.59279 0.34307 0.71578 0.0
C1359 C 0.58114 0.32913 0.72821 0.0
C1360 C 0.58675 0.31391 0.73354 0.0
C1361 C 0.58647 0.35882 0.7099 0.0
C1362 C 0.58651 0.37427 0.72003 0.0
C1363 C 0.58121 0.35918 0.6943 0.0
C1364 C 0.57969 0.34256 0.68318 0.0
C1365 C 0.56534 0.31971 0.68599 0.0
C1366 C 0.56417 0.30415 0.67554 0.0
C1367 C 0.57714 0.31123 0.66218 0.0
C1368 C 0.59126 0.3339 0.65922 0.0
C1369 C 0.59252 0.34954 0.66964 0.0
H1370 H 0.5762 0.29916 0.6541 0.0
H1371 H 0.58559 0.44977 0.75515 0.0
H1372 H 0.15461 0.6001 0.85183 0.0
H1373 H 0.19102 0.60469 0.85841 0.0
H1374 H 0.16584 0.57765 0.90331 0.0
H1375 H 0.12922 0.57293 0.89677 0.0
H1376 H 0.21483 0.61492 0.90083 0.0
H1377 H 0.15944 0.54233 0.88062 0.0
H1378 H 0.13088 0.51836 0.86161 0.0
H1379 H 0.18071 0.54657 0.82595 0.0
H1380 H 0.20949 0.57102 0.84474 0.0
H1381 H 0.29121 0.5799 0.91754 0.0
H1382 H 0.25641 0.58015 0.91443 0.0
H1383 H 0.26763 0.58829 0.86566 0.0
H1384 H 0.30171 0.58671 0.86857 0.0
H1385 H 0.22513 0.56089 0.87099 0.0
H1386 H 0.28085 0.63258 0.88995 0.0
H1387 H 0.31006 0.65894 0.90773 0.0
H1388 H 0.26152 0.63539 0.94425 0.0
H1389 H 0.23208 0.60863 0.92672 0.0
C1390 C 0.15709 0.59591 0.86329 0.0
C1391 C 0.13914 0.58607 0.87379 0.0
C1392 C 0.17784 0.59845 0.867 0.0
C1393 C 0.18093 0.59132 0.88128 0.0
C1394 C 0.16369 0.58327 0.89226 0.0
C1395 C 0.14283 0.58049 0.88849 0.0
C1396 C 0.20071 0.58919 0.88381 0.0
C1397 C 0.21706 0.60297 0.89448 0.0
C1398 C 0.20363 0.57385 0.87527 0.0
C1399 C 0.18655 0.55863 0.86405 0.0
C1400 C 0.16427 0.54351 0.86871 0.0
C1401 C 0.14805 0.52984 0.85798 0.0
C1402 C 0.15396 0.53098 0.84257 0.0
C1403 C 0.17614 0.54572 0.83788 0.0
C1404 C 0.19242 0.55948 0.84857 0.0
C1405 C 0.28602 0.58123 0.90611 0.0
C1406 C 0.29931 0.58339 0.8933 0.0
C1407 C 0.26628 0.58171 0.90438 0.0
C1408 C 0.25968 0.58474 0.88985 0.0
C1409 C 0.27249 0.58612 0.877 0.0
C1410 C 0.29207 0.58539 0.87869 0.0
C1411 C 0.23961 0.58677 0.888 0.0
C1412 C 0.22306 0.57286 0.87743 0.0
C1413 C 0.23671 0.60222 0.89652 0.0
C1414 C 0.25432 0.61844 0.90706 0.0
C1415 C 0.27644 0.63291 0.9018 0.0
C1416 C 0.29303 0.64794 0.91183 0.0
C1417 C 0.28766 0.6488 0.92712 0.0
C1418 C 0.26566 0.63468 0.9324 0.0
C1419 C 0.24901 0.61959 0.92242 0.0
H1420 H 0.30053 0.66044 0.93487 0.0
H1421 H 0.14137 0.5204 0.83428 0.0
H1422 H 0.5634 0.08148 0.04822 0.0
H1423 H 0.59499 0.11754 0.05656 0.0
H1424 H 0.58897 0.14798 0.01546 0.0
H1425 H 0.55705 0.11195 0.00721 0.0
H1426 H 0.63342 0.15445 0.02188 0.0
H1427 H 0.57469 0.16126 0.04588 0.0
H1428 H 0.54134 0.14883 0.06234 0.0
H1429 H 0.57825 0.14692 0.10109 0.0
H1430 H 0.61174 0.15903 0.0848 0.0
H1431 H 0.71579 0.26589 0.03898 0.0
H1432 H 0.68239 0.23088 0.03138 0.0
H1433 H 0.67554 0.2061 0.07753 0.0
H1434 H 0.70834 0.2417 0.08527 0.0
H1435 H 0.63681 0.19639 0.06836 0.0
H1436 H 0.69459 0.1878 0.04593 0.0
H1437 H 0.72832 0.198 0.0304 0.0
H1438 H 0.69437 0.20034 0.99007 0.0
H1439 H 0.66053 0.19043 0.00539 0.0
C1440 C 0.56858 0.09599 0.04115 0.0
C1441 C 0.55786 0.09411 0.02713 0.0
C1442 C 0.58655 0.1165 0.0459 0.0
C1443 C 0.59423 0.13531 0.03659 0.0
C1444 C 0.58319 0.13359 0.02277 0.0
C1445 C 0.56494 0.11313 0.01814 0.0
C1446 C 0.61475 0.1564 0.04086 0.0
C1447 C 0.63416 0.16389 0.0319 0.0
C1448 C 0.61576 0.16804 0.05426 0.0
C1449 C 0.59566 0.16085 0.06408 0.0
C1450 C 0.57564 0.15799 0.05788 0.0
C1451 C 0.55672 0.15105 0.06719 0.0
C1452 C 0.55765 0.14704 0.08275 0.0
C1453 C 0.57754 0.15002 0.08903 0.0
C1454 C 0.5965 0.15694 0.07977 0.0
C1455 C 0.70732 0.25279 0.0474 0.0
C1456 C 0.71464 0.25629 0.06265 0.0
C1457 C 0.68827 0.23277 0.04307 0.0
C1458 C 0.67657 0.21565 0.05382 0.0
C1459 C 0.68424 0.21903 0.06902 0.0
C1460 C 0.70301 0.23926 0.07343 0.0
C1461 C 0.65577 0.19466 0.04938 0.0
C1462 C 0.63624 0.18708 0.05831 0.0
C1463 C 0.65477 0.18265 0.03611 0.0
C1464 C 0.67509 0.18857 0.02684 0.0
C1465 C 0.69438 0.19065 0.03377 0.0
C1466 C 0.71351 0.19635 0.025 0.0
C1467 C 0.71351 0.19987 0.00926 0.0
C1468 C 0.69436 0.19763 0.00226 0.0
C1469 C 0.67518 0.19195 0.01098 0.0
H1470 H 0.72834 0.20428 0.00249 0.0
H1471 H 0.54299 0.14166 0.08994 0.0
H1472 H 0.51164 0.57635 0.21067 0.0
H1473 H 0.51105 0.60895 0.21968 0.0
H1474 H 0.47385 0.60649 0.17949 0.0
H1475 H 0.47409 0.57354 0.17054 0.0
H1476 H 0.51429 0.64917 0.18609 0.0
H1477 H 0.44627 0.59254 0.21031 0.0
H1478 H 0.42325 0.55916 0.22612 0.0
H1479 H 0.46536 0.59202 0.26494 0.0
H1480 H 0.48886 0.62551 0.2493 0.0
H1481 H 0.49066 0.73163 0.20847 0.0
H1482 H 0.4897 0.69845 0.19937 0.0
H1483 H 0.51273 0.69073 0.24347 0.0
H1484 H 0.51328 0.7238 0.25273 0.0
H1485 H 0.47881 0.65262 0.2345 0.0
H1486 H 0.54742 0.70852 0.21117 0.0
H1487 H 0.57214 0.74199 0.19587 0.0
H1488 H 0.53154 0.71105 0.15611 0.0
H1489 H 0.50637 0.67749 0.17123 0.0
C1490 C 0.50312 0.58265 0.20387 0.0
C1491 C 0.49289 0.57254 0.18995 0.0
C1492 C 0.50276 0.60119 0.20902 0.0
C1493 C 0.4924 0.61005 0.20023 0.0
C1494 C 0.4819 0.59982 0.1864 0.0
C1495 C 0.48192 0.58101 0.18137 0.0
C1496 C 0.49346 0.63058 0.20525 0.0
C1497 C 0.50624 0.64992 0.19654 0.0
C1498 C 0.48359 0.63156 0.21914 0.0
C1499 C 0.46946 0.61146 0.22859 0.0
C1500 C 0.45076 0.59258 0.22218 0.0
C1501 C 0.43759 0.57366 0.23112 0.0
C1502 C 0.44288 0.57345 0.24651 0.0
C1503 C 0.46131 0.5922 0.25301 0.0
C1504 C 0.47454 0.61116 0.24412 0.0
C1505 C 0.49596 0.72312 0.21613 0.0
C1506 C 0.5022 0.73038 0.23128 0.0
C1507 C 0.49537 0.70412 0.21093 0.0
C1508 C 0.50136 0.69219 0.22068 0.0
C1509 C 0.508 0.69965 0.23575 0.0
C1510 C 0.50837 0.71855 0.24101 0.0
C1511 C 0.49973 0.67142 0.21536 0.0
C1512 C 0.48686 0.65198 0.22403 0.0
C1513 C 0.50978 0.67041 0.20151 0.0
C1514 C 0.52488 0.69057 0.19237 0.0
C1515 C 0.54365 0.70892 0.19919 0.0
C1516 C 0.55776 0.7279 0.19055 0.0
C1517 C 0.55338 0.72867 0.17504 0.0
C1518 C 0.53489 0.71044 0.16813 0.0
C1519 C 0.52071 0.69143 0.17673 0.0
H1520 H 0.56433 0.74338 0.16836 0.0
H1521 H 0.43266 0.55878 0.25341 0.0
H1522 H 0.93833 0.4844 0.36826 0.0
H1523 H 0.903 0.47973 0.37799 0.0
H1524 H 0.90241 0.51969 0.34077 0.0
H1525 H 0.93779 0.52459 0.33113 0.0
H1526 H 0.89373 0.53255 0.3669 0.0
H1527 H 0.8667 0.46288 0.34155 0.0
H1528 H 0.86488 0.4278 0.33565 0.0
H1529 H 0.84704 0.40658 0.38229 0.0
H1530 H 0.84905 0.4417 0.38852 0.0
H1531 H 0.77992 0.50545 0.37356 0.0
H1532 H 0.81572 0.51031 0.3649 0.0
H1533 H 0.81684 0.47393 0.40426 0.0
H1534 H 0.78119 0.46926 0.41312 0.0
H1535 H 0.82537 0.45924 0.37769 0.0
H1536 H 0.85165 0.52915 0.40261 0.0
H1537 H 0.85295 0.56413 0.40795 0.0
H1538 H 0.87164 0.58473 0.3613 0.0
H1539 H 0.87014 0.54972 0.35562 0.0
C1540 C 0.93048 0.49193 0.36207 0.0
C1541 C 0.9408 0.50489 0.34897 0.0
C1542 C 0.91033 0.48928 0.36763 0.0
C1543 C 0.9 0.49927 0.36005 0.0
C1544 C 0.91013 0.51193 0.34684 0.0
C1545 C 0.93033 0.51472 0.34135 0.0
C1546 C 0.87896 0.49708 0.36609 0.0
C1547 C 0.87869 0.51651 0.36907 0.0
C1548 C 0.85951 0.47616 0.36926 0.0
C1549 C 0.85825 0.45502 0.36553 0.0
C1550 C 0.86257 0.45081 0.35058 0.0
C1551 C 0.86147 0.43091 0.34717 0.0
C1552 C 0.85591 0.415 0.3586 0.0
C1553 C 0.85138 0.41894 0.37346 0.0
C1554 C 0.85248 0.43883 0.37693 0.0
C1555 C 0.78798 0.49883 0.38052 0.0
C1556 C 0.7777 0.48696 0.39403 0.0
C1557 C 0.80839 0.50154 0.37553 0.0
C1558 C 0.81895 0.49254 0.38398 0.0
C1559 C 0.80889 0.48092 0.39754 0.0
C1560 C 0.78851 0.47823 0.40256 0.0
C1561 C 0.84015 0.49469 0.37842 0.0
C1562 C 0.84045 0.47526 0.37554 0.0
C1563 C 0.85957 0.5156 0.37525 0.0
C1564 C 0.86058 0.53671 0.37866 0.0
C1565 C 0.85586 0.54106 0.39346 0.0
C1566 C 0.85667 0.56091 0.39655 0.0
C1567 C 0.86232 0.57662 0.38496 0.0
C1568 C 0.86724 0.57253 0.37026 0.0
C1569 C 0.86644 0.5527 0.3671 0.0
H1570 H 0.86293 0.59197 0.38738 0.0
H1571 H 0.85507 0.39959 0.35594 0.0
H1572 H 0.09582 0.58414 0.39086 0.0
H1573 H 0.11558 0.59211 0.41522 0.0
H1574 H 0.05692 0.53652 0.43597 0.0
H1575 H 0.03673 0.52864 0.41155 0.0
H1576 H 0.0786 0.57359 0.45521 0.0
H1577 H 0.09705 0.52963 0.42423 0.0
H1578 H 0.10944 0.51939 0.40087 0.0
H1579 H 0.17427 0.57937 0.40388 0.0
H1580 H 0.16205 0.59032 0.42701 0.0
H1581 H 0.14182 0.5711 0.51891 0.0
H1582 H 0.11732 0.55959 0.4964 0.0
H1583 H 0.17151 0.61167 0.46987 0.0
H1584 H 0.1962 0.62293 0.4922 0.0
H1585 H 0.14964 0.57271 0.4543 0.0
H1586 H 0.12986 0.61798 0.48388 0.0
H1587 H 0.11732 0.62849 0.50707 0.0
H1588 H 0.05514 0.56547 0.50684 0.0
H1589 H 0.06746 0.55446 0.48376 0.0
C1590 C 0.08685 0.57396 0.4007 0.0
C1591 C 0.06467 0.55579 0.39931 0.0
C1592 C 0.09827 0.5784 0.41457 0.0
C1593 C 0.0878 0.5647 0.42731 0.0
C1594 C 0.06529 0.54721 0.42623 0.0
C1595 C 0.05384 0.54269 0.41229 0.0
C1596 C 0.10093 0.56801 0.44143 0.0
C1597 C 0.09395 0.57306 0.4551 0.0
C1598 C 0.12106 0.56751 0.44118 0.0
C1599 C 0.12853 0.56091 0.4273 0.0
C1600 C 0.11387 0.54076 0.41983 0.0
C1601 C 0.12087 0.53482 0.40663 0.0
C1602 C 0.14261 0.54873 0.40088 0.0
C1603 C 0.15742 0.56861 0.40834 0.0
C1604 C 0.15045 0.57472 0.42148 0.0
C1605 C 0.14857 0.57991 0.50823 0.0
C1606 C 0.1709 0.59798 0.50733 0.0
C1607 C 0.13451 0.57345 0.49543 0.0
C1608 C 0.14254 0.58494 0.48152 0.0
C1609 C 0.16497 0.60263 0.48051 0.0
C1610 C 0.17899 0.60914 0.49329 0.0
C1611 C 0.12761 0.57879 0.46801 0.0
C1612 C 0.13422 0.5731 0.45445 0.0
C1613 C 0.10715 0.57867 0.46837 0.0
C1614 C 0.09969 0.58531 0.4822 0.0
C1615 C 0.11359 0.6063 0.48885 0.0
C1616 C 0.10651 0.61235 0.50196 0.0
C1617 C 0.08548 0.59763 0.50845 0.0
C1618 C 0.07145 0.57684 0.50182 0.0
C1619 C 0.07846 0.57069 0.48872 0.0
H1620 H 0.08002 0.60235 0.5186 0.0
H1621 H 0.148 0.54411 0.39065 0.0
H1622 H 0.5306 0.02987 0.57887 0.0
H1623 H 0.54568 0.04614 0.60412 0.0
H1624 H 0.54736 0.10585 0.59062 0.0
H1625 H 0.53242 0.08981 0.56552 0.0
H1626 H 0.58833 0.11302 0.60261 0.0
H1627 H 0.50837 0.07219 0.61443 0.0
H1628 H 0.47056 0.03846 0.61621 0.0
H1629 H 0.49629 0.0085 0.64619 0.0
H1630 H 0.53436 0.04198 0.64441 0.0
H1631 H 0.60165 0.17658 0.6672 0.0
H1632 H 0.58845 0.1535 0.64434 0.0
H1633 H 0.58693 0.09977 0.66911 0.0
H1634 H 0.59973 0.12276 0.69228 0.0
H1635 H 0.54867 0.08555 0.65233 0.0
H1636 H 0.62744 0.1275 0.64321 0.0
H1637 H 0.66555 0.16082 0.6416 0.0
H1638 H 0.64324 0.18781 0.60662 0.0
H1639 H 0.60488 0.15479 0.60818 0.0
C1640 C 0.53395 0.04635 0.58141 0.0
C1641 C 0.53017 0.05852 0.57033 0.0
C1642 C 0.5425 0.05558 0.59579 0.0
C1643 C 0.54762 0.07717 0.59918 0.0
C1644 C 0.5435 0.08916 0.58821 0.0
C1645 C 0.53475 0.07989 0.57395 0.0
C1646 C 0.55814 0.08786 0.61387 0.0
C1647 C 0.57965 0.10712 0.61349 0.0
C1648 C 0.54711 0.07957 0.62807 0.0
C1649 C 0.52426 0.05946 0.62912 0.0
C1650 C 0.50602 0.05832 0.62128 0.0
C1651 C 0.48453 0.03927 0.62231 0.0
C1652 C 0.48104 0.02131 0.63126 0.0
C1653 C 0.49903 0.0224 0.63923 0.0
C1654 C 0.52056 0.04141 0.63822 0.0
C1655 C 0.59844 0.15982 0.66781 0.0
C1656 C 0.60162 0.15143 0.68154 0.0
C1657 C 0.5911 0.14672 0.6547 0.0
C1658 C 0.58693 0.12501 0.65499 0.0
C1659 C 0.59014 0.11653 0.66865 0.0
C1660 C 0.59758 0.12971 0.68182 0.0
C1661 C 0.5786 0.11118 0.64102 0.0
C1662 C 0.55757 0.09129 0.64151 0.0
C1663 C 0.59015 0.11878 0.6269 0.0
C1664 C 0.61322 0.1387 0.62589 0.0
C1665 C 0.6306 0.14061 0.63526 0.0
C1666 C 0.65226 0.15944 0.63434 0.0
C1667 C 0.6568 0.17644 0.62403 0.0
C1668 C 0.63969 0.17463 0.6146 0.0
C1669 C 0.61799 0.15584 0.61548 0.0
H1670 H 0.67359 0.191 0.62334 0.0
H1671 H 0.46439 0.00658 0.63206 0.0
H1672 H 0.52939 0.56399 0.72569 0.0
H1673 H 0.52586 0.57432 0.75164 0.0
H1674 H 0.45502 0.54848 0.74429 0.0
H1675 H 0.45867 0.5392 0.71792 0.0
H1676 H 0.47243 0.58497 0.76079 0.0
H1677 H 0.47372 0.51777 0.76228 0.0
H1678 H 0.48838 0.49306 0.75756 0.0
H1679 H 0.54815 0.53677 0.78307 0.0
H1680 H 0.53402 0.56195 0.78772 0.0
H1681 H 0.45303 0.54861 0.84546 0.0
H1682 H 0.46141 0.54307 0.8193 0.0
H1683 H 0.49739 0.61383 0.81159 0.0
H1684 H 0.48796 0.61943 0.83744 0.0
H1685 H 0.49713 0.55476 0.80261 0.0
H1686 H 0.4872 0.62405 0.77542 0.0
H1687 H 0.46834 0.6448 0.78112 0.0
H1688 H 0.41813 0.58985 0.8076 0.0
H1689 H 0.43644 0.56863 0.80183 0.0
C1690 C 0.51316 0.56101 0.72941 0.0
C1691 C 0.49428 0.5507 0.7197 0.0
C1692 C 0.51112 0.56668 0.74434 0.0
C1693 C 0.4901 0.56178 0.74999 0.0
C1694 C 0.47139 0.55229 0.74018 0.0
C1695 C 0.47346 0.54681 0.72516 0.0
C1696 C 0.48744 0.56567 0.76629 0.0
C1697 C 0.4779 0.57843 0.76993 0.0
C1698 C 0.49421 0.55679 0.77823 0.0
C1699 C 0.5029 0.54185 0.77523 0.0
C1700 C 0.49009 0.52223 0.76675 0.0
C1701 C 0.49829 0.50812 0.76411 0.0
C1702 C 0.51917 0.51335 0.77002 0.0
C1703 C 0.53197 0.53275 0.7785 0.0
C1704 C 0.52388 0.54694 0.78114 0.0
C1705 C 0.46276 0.56301 0.83821 0.0
C1706 C 0.46956 0.58443 0.84347 0.0
C1707 C 0.46772 0.55983 0.8233 0.0
C1708 C 0.47964 0.578 0.81342 0.0
C1709 C 0.48779 0.59954 0.81896 0.0
C1710 C 0.48263 0.60272 0.83381 0.0
C1711 C 0.48234 0.57423 0.7971 0.0
C1712 C 0.49186 0.56147 0.79346 0.0
C1713 C 0.47494 0.58255 0.78518 0.0
C1714 C 0.46335 0.59487 0.78832 0.0
C1715 C 0.47206 0.61636 0.78238 0.0
C1716 C 0.46147 0.6282 0.78563 0.0
C1717 C 0.44209 0.61867 0.79476 0.0
C1718 C 0.43317 0.59723 0.80057 0.0
C1719 C 0.44365 0.58529 0.7973 0.0
H1720 H 0.43397 0.6279 0.79731 0.0
H1721 H 0.5254 0.50232 0.7681 0.0
H1722 H 0.92149 0.50135 0.88317 0.0
H1723 H 0.89997 0.48706 0.90697 0.0
H1724 H 0.92952 0.4471 0.91446 0.0
H1725 H 0.95165 0.46178 0.89111 0.0
H1726 H 0.88301 0.42491 0.92142 0.0
H1727 H 0.95207 0.49459 0.93139 0.0
H1728 H 0.97927 0.53447 0.9273 0.0
H1729 H 0.92852 0.5494 0.93908 0.0
H1730 H 0.90084 0.50952 0.94297 0.0
H1731 H 0.87245 0.4034 0.00059 0.0
H1732 H 0.88685 0.41572 0.97468 0.0
H1733 H 0.86029 0.4591 0.97485 0.0
H1734 H 0.84582 0.44683 0.00081 0.0
H1735 H 0.90196 0.47967 0.96305 0.0
H1736 H 0.83358 0.41049 0.95526 0.0
H1737 H 0.80601 0.37065 0.95914 0.0
H1738 H 0.85437 0.35465 0.94308 0.0
H1739 H 0.88237 0.39444 0.93932 0.0
C1740 C 0.92335 0.48945 0.88984 0.0
C1741 C 0.93842 0.48282 0.88522 0.0
C1742 C 0.91095 0.48123 0.90338 0.0
C1743 C 0.91332 0.46617 0.91248 0.0
C1744 C 0.9274 0.45863 0.90753 0.0
C1745 C 0.93994 0.46698 0.8941 0.0
C1746 C 0.90248 0.4594 0.92771 0.0
C1747 C 0.8872 0.43682 0.93056 0.0
C1748 C 0.90763 0.47507 0.93949 0.0
C1749 C 0.92431 0.49905 0.93729 0.0
C1750 C 0.94665 0.50635 0.93298 0.0
C1751 C 0.96216 0.52896 0.93072 0.0
C1752 C 0.95562 0.54445 0.93289 0.0
C1753 C 0.93355 0.53737 0.93737 0.0
C1754 C 0.91794 0.51477 0.93961 0.0
C1755 C 0.86958 0.41548 0.99508 0.0
C1756 C 0.85792 0.42407 0.00272 0.0
C1757 C 0.87779 0.42249 0.98028 0.0
C1758 C 0.87432 0.43806 0.97274 0.0
C1759 C 0.86311 0.44703 0.98044 0.0
C1760 C 0.85494 0.44008 0.99529 0.0
C1761 C 0.8826 0.44507 0.95688 0.0
C1762 C 0.89747 0.46772 0.95389 0.0
C1763 C 0.87698 0.42945 0.94496 0.0
C1764 C 0.86015 0.40548 0.94713 0.0
C1765 C 0.8384 0.39849 0.95266 0.0
C1766 C 0.82269 0.37591 0.95483 0.0
C1767 C 0.82845 0.36013 0.95139 0.0
C1768 C 0.84994 0.36689 0.94575 0.0
C1769 C 0.86573 0.38946 0.94358 0.0
H1770 H 0.81626 0.34265 0.95307 0.0
H1771 H 0.96767 0.56195 0.93114 0.0
H1772 H 0.50893 0.95219 0.0652 0.0
H1773 H 0.50862 0.93856 0.09068 0.0
H1774 H 0.47923 0.97495 0.10852 0.0
H1775 H 0.48125 0.99035 0.08304 0.0
H1776 H 0.50834 0.97652 0.12829 0.0
H1777 H 0.44688 0.91842 0.10107 0.0
H1778 H 0.42733 0.89282 0.07962 0.0
H1779 H 0.46811 0.86394 0.08565 0.0
H1780 H 0.48819 0.88961 0.10696 0.0
H1781 H 0.46911 0.90242 0.19469 0.0
H1782 H 0.47085 0.92331 0.17181 0.0
H1783 H 0.51646 0.90692 0.15063 0.0
H1784 H 0.51576 0.88693 0.17363 0.0
H1785 H 0.4752 0.89527 0.13372 0.0
H1786 H 0.53771 0.95649 0.16067 0.0
H1787 H 0.55511 0.98179 0.18257 0.0
H1788 H 0.50803 0.00359 0.17781 0.0
H1789 H 0.49013 0.97815 0.156 0.0
C1790 C 0.50294 0.95788 0.07452 0.0
C1791 C 0.49517 0.97251 0.07196 0.0
C1792 C 0.5024 0.94969 0.08911 0.0
C1793 C 0.49336 0.95526 0.10146 0.0
C1794 C 0.48608 0.97026 0.09912 0.0
C1795 C 0.48703 0.97886 0.08451 0.0
C1796 C 0.49127 0.94497 0.11667 0.0
C1797 C 0.50074 0.95872 0.12952 0.0
C1798 C 0.48134 0.92171 0.11831 0.0
C1799 C 0.46914 0.90605 0.10557 0.0
C1800 C 0.45178 0.9067 0.09777 0.0
C1801 C 0.4406 0.89217 0.08563 0.0
C1802 C 0.44648 0.87677 0.08128 0.0
C1803 C 0.46356 0.87587 0.08904 0.0
C1804 C 0.47484 0.8904 0.10116 0.0
C1805 C 0.47999 0.90372 0.18534 0.0
C1806 C 0.49213 0.89278 0.18598 0.0
C1807 C 0.48083 0.91556 0.17225 0.0
C1808 C 0.49367 0.91649 0.15956 0.0
C1809 C 0.50633 0.90622 0.16031 0.0
C1810 C 0.50577 0.89467 0.17343 0.0
C1811 C 0.49283 0.92687 0.1451 0.0
C1812 C 0.48261 0.91305 0.13245 0.0
C1813 C 0.50162 0.94992 0.14375 0.0
C1814 C 0.51241 0.96522 0.15683 0.0
C1815 C 0.53092 0.9665 0.16439 0.0
C1816 C 0.5409 0.98091 0.17676 0.0
C1817 C 0.53263 0.99423 0.18161 0.0
C1818 C 0.51439 0.99322 0.17406 0.0
C1819 C 0.50433 0.97883 0.16169 0.0
H1820 H 0.54039 0.00538 0.19119 0.0
H1821 H 0.43776 0.86549 0.07192 0.0
H1822 H 0.55724 0.5453 0.2415 0.0
H1823 H 0.57012 0.54517 0.26752 0.0
H1824 H 0.51829 0.47616 0.2724 0.0
H1825 H 0.50556 0.47601 0.24639 0.0
H1826 H 0.52731 0.50029 0.29987 0.0
H1827 H 0.56638 0.48708 0.25939 0.0
H1828 H 0.58758 0.49625 0.23512 0.0
H1829 H 0.64035 0.55728 0.25446 0.0
H1830 H 0.61921 0.54865 0.27877 0.0
H1831 H 0.57393 0.45308 0.34754 0.0
H1832 H 0.55718 0.46323 0.327 0.0
H1833 H 0.61526 0.52978 0.32672 0.0
H1834 H 0.63201 0.51988 0.3475 0.0
H1835 H 0.60414 0.51168 0.29822 0.0
H1836 H 0.56618 0.52078 0.34064 0.0
H1837 H 0.54398 0.51003 0.36451 0.0
H1838 H 0.48848 0.45492 0.34158 0.0
H1839 H 0.51047 0.46514 0.31761 0.0
C1840 C 0.54833 0.53022 0.24823 0.0
C1841 C 0.53063 0.51057 0.24182 0.0
C1842 C 0.55561 0.53022 0.2631 0.0
C1843 C 0.54533 0.51057 0.27174 0.0
C1844 C 0.52639 0.49149 0.2659 0.0
C1845 C 0.51913 0.49146 0.25102 0.0
C1846 C 0.55619 0.5089 0.28577 0.0
C1847 C 0.54408 0.50274 0.29957 0.0
C1848 C 0.57816 0.51234 0.28531 0.0
C1849 C 0.59111 0.51736 0.27082 0.0
C1850 C 0.58243 0.50253 0.25843 0.0
C1851 C 0.59443 0.50762 0.24467 0.0
C1852 C 0.61527 0.52736 0.24324 0.0
C1853 C 0.62418 0.54201 0.25558 0.0
C1854 C 0.61219 0.53704 0.26935 0.0
C1855 C 0.583 0.46998 0.3433 0.0
C1856 C 0.60431 0.48567 0.34916 0.0
C1857 C 0.57339 0.47575 0.33156 0.0
C1858 C 0.58488 0.49732 0.32548 0.0
C1859 C 0.60612 0.51305 0.3313 0.0
C1860 C 0.61572 0.50731 0.34308 0.0
C1861 C 0.57526 0.50297 0.31241 0.0
C1862 C 0.58756 0.50969 0.29869 0.0
C1863 C 0.55339 0.49981 0.31296 0.0
C1864 C 0.54006 0.49365 0.32734 0.0
C1865 C 0.54931 0.50627 0.34071 0.0
C1866 C 0.53675 0.50028 0.35426 0.0
C1867 C 0.51485 0.48178 0.35457 0.0
C1868 C 0.50545 0.46925 0.34132 0.0
C1869 C 0.51795 0.47514 0.32775 0.0
H1870 H 0.50515 0.47718 0.36507 0.0
H1871 H 0.62455 0.53127 0.23258 0.0
H1872 H 0.47511 0.95943 0.42833 0.0
H1873 H 0.47147 0.93427 0.4079 0.0
H1874 H 0.52723 0.93109 0.42651 0.0
H1875 H 0.53071 0.95596 0.44726 0.0
H1876 H 0.53212 0.94056 0.39589 0.0
H1877 H 0.47566 0.88657 0.42895 0.0
H1878 H 0.44236 0.87045 0.44587 0.0
H1879 H 0.40137 0.86841 0.40842 0.0
H1880 H 0.4345 0.88487 0.39132 0.0
H1881 H 0.51619 0.8615 0.33817 0.0
H1882 H 0.52032 0.87888 0.36321 0.0
H1883 H 0.46422 0.88699 0.35297 0.0
H1884 H 0.46009 0.86983 0.32803 0.0
H1885 H 0.46113 0.87155 0.38166 0.0
H1886 H 0.51829 0.93013 0.34989 0.0
H1887 H 0.55159 0.94737 0.33294 0.0
H1888 H 0.59111 0.94124 0.36815 0.0
H1889 H 0.55793 0.92369 0.38525 0.0
C1890 C 0.48626 0.95298 0.42833 0.0
C1891 C 0.50321 0.95973 0.43945 0.0
C1892 C 0.48421 0.93865 0.4166 0.0
C1893 C 0.49901 0.93073 0.41575 0.0
C1894 C 0.51567 0.93705 0.42697 0.0
C1895 C 0.51767 0.95132 0.43877 0.0
C1896 C 0.49787 0.917 0.40258 0.0
C1897 C 0.51675 0.9252 0.39295 0.0
C1898 C 0.47769 0.89719 0.39864 0.0
C1899 C 0.45764 0.8871 0.40886 0.0
C1900 C 0.45959 0.88284 0.42434 0.0
C1901 C 0.44073 0.87362 0.43396 0.0
C1902 C 0.41977 0.86844 0.42823 0.0
C1903 C 0.41762 0.87244 0.41285 0.0
C1904 C 0.43643 0.88169 0.40318 0.0
C1905 C 0.50485 0.86713 0.34124 0.0
C1906 C 0.48778 0.86425 0.33114 0.0
C1907 C 0.50717 0.87697 0.35555 0.0
C1908 C 0.49259 0.88425 0.35993 0.0
C1909 C 0.47553 0.88131 0.34988 0.0
C1910 C 0.47318 0.87148 0.33563 0.0
C1911 C 0.49522 0.89539 0.37481 0.0
C1912 C 0.47661 0.8867 0.38476 0.0
C1913 C 0.51562 0.91479 0.37903 0.0
C1914 C 0.53557 0.92535 0.36877 0.0
C1915 C 0.53403 0.93229 0.35397 0.0
C1916 C 0.55289 0.94215 0.34435 0.0
C1917 C 0.57344 0.94533 0.34945 0.0
C1918 C 0.57518 0.93872 0.3642 0.0
C1919 C 0.55635 0.92882 0.37386 0.0
H1920 H 0.58802 0.95297 0.34198 0.0
H1921 H 0.40519 0.86129 0.4357 0.0
H1922 H 0.53137 0.48726 0.57946 0.0
H1923 H 0.55372 0.49216 0.55666 0.0
H1924 H 0.55515 0.55255 0.54581 0.0
H1925 H 0.53266 0.54781 0.56887 0.0
H1926 H 0.54781 0.51876 0.51971 0.0
H1927 H 0.59745 0.5634 0.56074 0.0
H1928 H 0.60995 0.56896 0.58761 0.0
H1929 H 0.62354 0.51629 0.58378 0.0
H1930 H 0.61062 0.51008 0.55697 0.0
H1931 H 0.63107 0.53718 0.46525 0.0
H1932 H 0.61317 0.54653 0.48568 0.0
H1933 H 0.61989 0.50228 0.51638 0.0
H1934 H 0.63853 0.49368 0.49621 0.0
H1935 H 0.62504 0.53566 0.53186 0.0
H1936 H 0.57111 0.4861 0.49444 0.0
H1937 H 0.55498 0.47491 0.46857 0.0
H1938 H 0.54648 0.53099 0.46626 0.0
H1939 H 0.56288 0.54268 0.49205 0.0
C1940 C 0.53578 0.50122 0.572 0.0
C1941 C 0.53018 0.51712 0.57588 0.0
C1942 C 0.54868 0.50407 0.55904 0.0
C1943 C 0.55611 0.52276 0.54969 0.0
C1944 C 0.54947 0.53802 0.55295 0.0
C1945 C 0.53673 0.53532 0.56608 0.0
C1946 C 0.57242 0.52703 0.53739 0.0
C1947 C 0.56492 0.52303 0.52223 0.0
C1948 C 0.59444 0.532 0.5409 0.0
C1949 C 0.60295 0.5362 0.55686 0.0
C1950 C 0.60297 0.55291 0.56565 0.0
C1951 C 0.61013 0.55618 0.58087 0.0
C1952 C 0.61752 0.54297 0.5874 0.0
C1953 C 0.61783 0.52652 0.5787 0.0
C1954 C 0.6106 0.52313 0.56349 0.0
C1955 C 0.62911 0.52987 0.47648 0.0
C1956 C 0.636 0.51464 0.4792 0.0
C1957 C 0.61882 0.53512 0.4881 0.0
C1958 C 0.61471 0.5247 0.50245 0.0
C1959 C 0.62284 0.51051 0.5054 0.0
C1960 C 0.6335 0.50561 0.49389 0.0
C1961 C 0.60039 0.52697 0.51404 0.0
C1962 C 0.60821 0.53206 0.52915 0.0
C1963 C 0.57846 0.5225 0.51052 0.0
C1964 C 0.56847 0.51542 0.49507 0.0
C1965 C 0.56594 0.49612 0.48837 0.0
C1966 C 0.55674 0.48969 0.47373 0.0
C1967 C 0.54978 0.50227 0.46575 0.0
C1968 C 0.55194 0.52129 0.47243 0.0
C1969 C 0.56119 0.52783 0.48706 0.0
H1970 H 0.54265 0.49726 0.45442 0.0
H1971 H 0.623 0.54549 0.5992 0.0
H1972 H 0.05239 0.51799 0.7502 0.0
H1973 H 0.07323 0.5302 0.72605 0.0
H1974 H 0.08614 0.59626 0.73342 0.0
H1975 H 0.06603 0.58449 0.75778 0.0
H1976 H 0.07546 0.58151 0.70253 0.0
H1977 H 0.12512 0.58743 0.74309 0.0
H1978 H 0.13651 0.57341 0.76497 0.0
H1979 H 0.13603 0.52375 0.7363 0.0
H1980 H 0.12424 0.53725 0.71428 0.0
H1981 H 0.17063 0.64263 0.65368 0.0
H1982 H 0.14479 0.62875 0.67554 0.0
H1983 H 0.13876 0.56492 0.6712 0.0
H1984 H 0.16446 0.57863 0.64933 0.0
H1985 H 0.145 0.57798 0.70035 0.0
H1986 H 0.09656 0.57276 0.65945 0.0
H1987 H 0.08454 0.58635 0.63764 0.0
H1988 H 0.08238 0.63429 0.6667 0.0
H1989 H 0.09471 0.62119 0.68864 0.0
C1990 C 0.05956 0.5351 0.74666 0.0
C1991 C 0.05768 0.55029 0.75603 0.0
C1992 C 0.07134 0.542 0.73282 0.0
C1993 C 0.08137 0.56417 0.72806 0.0
C1994 C 0.07845 0.57906 0.7369 0.0
C1995 C 0.06683 0.57224 0.7508 0.0
C1996 C 0.09641 0.57224 0.71452 0.0
C1997 C 0.09078 0.58095 0.70206 0.0
C1998 C 0.11618 0.57116 0.7139 0.0
C1999 C 0.12356 0.5632 0.72707 0.0
C2000 C 0.12726 0.57341 0.74147 0.0
C2001 C 0.13381 0.56557 0.7539 0.0
C2002 C 0.13693 0.54766 0.75204 0.0
C2003 C 0.13357 0.5376 0.73773 0.0
C2004 C 0.12696 0.54534 0.72527 0.0
C2005 C 0.16366 0.62559 0.6573 0.0
C2006 C 0.16963 0.61175 0.64978 0.0
C2007 C 0.14889 0.61767 0.6698 0.0
C2008 C 0.13968 0.59572 0.67491 0.0
C2009 C 0.14571 0.58193 0.66747 0.0
C2010 C 0.16048 0.58983 0.65502 0.0
C2011 C 0.12407 0.58721 0.6882 0.0
C2012 C 0.12964 0.57847 0.7007 0.0
C2013 C 0.10425 0.58826 0.68882 0.0
C2014 C 0.09678 0.59614 0.67566 0.0
C2015 C 0.09371 0.58632 0.66116 0.0
C2016 C 0.0868 0.59391 0.64878 0.0
C2017 C 0.08276 0.61121 0.65077 0.0
C2018 C 0.08555 0.62091 0.66517 0.0
C2019 C 0.09248 0.6134 0.67758 0.0
H2020 H 0.07741 0.61706 0.64118 0.0
H2021 H 0.14201 0.54162 0.76168 0.0
H2022 H 0.50889 0.09219 0.94176 0.0
H2023 H 0.52133 0.1131 0.91771 0.0
H2024 H 0.56425 0.0869 0.90885 0.0
H2025 H 0.55161 0.06565 0.93257 0.0
H2026 H 0.58537 0.13124 0.90247 0.0
H2027 H 0.51517 0.0646 0.89155 0.0
H2028 H 0.47485 0.03678 0.89527 0.0
H2029 H 0.45804 0.08638 0.88629 0.0
H2030 H 0.49835 0.11461 0.88276 0.0
H2031 H 0.60526 0.14984 0.82323 0.0
H2032 H 0.59166 0.13109 0.84788 0.0
H2033 H 0.55224 0.16179 0.85391 0.0
H2034 H 0.56549 0.18035 0.82907 0.0
H2035 H 0.52904 0.11679 0.86217 0.0
H2036 H 0.60059 0.18315 0.87196 0.0
H2037 H 0.64114 0.20966 0.86776 0.0
H2038 H 0.65555 0.15879 0.87832 0.0
H2039 H 0.61502 0.13188 0.88237 0.0
C2040 C 0.521 0.09092 0.9347 0.0
C2041 C 0.5293 0.0773 0.93912 0.0
C2042 C 0.52811 0.10289 0.92099 0.0
C2043 C 0.54358 0.1014 0.91148 0.0
C2044 C 0.55238 0.08835 0.91607 0.0
C2045 C 0.54523 0.07633 0.92971 0.0
C2046 C 0.55017 0.11284 0.89649 0.0
C2047 C 0.57308 0.12797 0.89362 0.0
C2048 C 0.53406 0.10874 0.88505 0.0
C2049 C 0.5098 0.09178 0.88706 0.0
C2050 C 0.5029 0.06963 0.8905 0.0
C2051 C 0.48004 0.05377 0.89255 0.0
C2052 C 0.4639 0.05982 0.89106 0.0
C2053 C 0.47058 0.08173 0.88747 0.0
C2054 C 0.49342 0.09767 0.88544 0.0
C2055 C 0.59345 0.15236 0.8297 0.0
C2056 C 0.5865 0.16663 0.82426 0.0
C2057 C 0.58584 0.14178 0.84382 0.0
C2058 C 0.57117 0.14528 0.85277 0.0
C2059 C 0.56364 0.15896 0.84718 0.0
C2060 C 0.57134 0.16966 0.83307 0.0
C2061 C 0.56425 0.13512 0.86815 0.0
C2062 C 0.54129 0.12021 0.87108 0.0
C2063 C 0.58034 0.13924 0.87961 0.0
C2064 C 0.60474 0.15546 0.87734 0.0
C2065 C 0.61238 0.17758 0.87328 0.0
C2066 C 0.63537 0.19268 0.87094 0.0
C2067 C 0.65091 0.1859 0.87274 0.0
C2068 C 0.64349 0.16402 0.87692 0.0
C2069 C 0.62052 0.14884 0.87925 0.0
H2070 H 0.6687 0.19762 0.87092 0.0
H2071 H 0.44621 0.04752 0.89265 0.0
H2072 H 0.46645 0.55018 0.11237 0.0
H2073 H 0.45515 0.55932 0.08832 0.0
H2074 H 0.43137 0.49315 0.07167 0.0
H2075 H 0.44346 0.48421 0.09537 0.0
H2076 H 0.45807 0.52309 0.05141 0.0
H2077 H 0.39453 0.51008 0.08121 0.0
H2078 H 0.37476 0.51423 0.10322 0.0
H2079 H 0.40548 0.58378 0.09347 0.0
H2080 H 0.42571 0.58012 0.07152 0.0
H2081 H 0.40969 0.53452 0.98335 0.0
H2082 H 0.41342 0.52193 0.00863 0.0
H2083 H 0.44254 0.58855 0.026 0.0
H2084 H 0.43919 0.60137 0.0007 0.0
H2085 H 0.41117 0.55695 0.04584 0.0
H2086 H 0.47613 0.56993 0.01694 0.0
H2087 H 0.49586 0.56564 0.99496 0.0
H2088 H 0.46193 0.49544 0.00323 0.0
H2089 H 0.44175 0.49927 0.02514 0.0
C2090 C 0.45869 0.53755 0.10362 0.0
C2091 C 0.45587 0.51648 0.10578 0.0
C2092 C 0.45203 0.54271 0.08994 0.0
C2093 C 0.44228 0.52685 0.07825 0.0
C2094 C 0.43881 0.50561 0.08057 0.0
C2095 C 0.44553 0.50046 0.09419 0.0
C2096 C 0.43731 0.53291 0.06317 0.0
C2097 C 0.44746 0.5301 0.05017 0.0
C2098 C 0.42396 0.5426 0.06162 0.0
C2099 C 0.4118 0.54486 0.0748 0.0
C2100 C 0.39722 0.5263 0.08383 0.0
C2101 C 0.3859 0.52855 0.09628 0.0
C2102 C 0.3889 0.54926 0.09976 0.0
C2103 C 0.40319 0.56775 0.09077 0.0
C2104 C 0.41457 0.56559 0.07831 0.0
C2105 C 0.41701 0.54652 0.99252 0.0
C2106 C 0.42429 0.56897 0.99 0.0
C2107 C 0.41902 0.53928 0.00696 0.0
C2108 C 0.42841 0.55436 0.01912 0.0
C2109 C 0.43517 0.57666 0.01675 0.0
C2110 C 0.43321 0.58393 0.00231 0.0
C2111 C 0.4319 0.54705 0.03417 0.0
C2112 C 0.42159 0.54973 0.04712 0.0
C2113 C 0.44507 0.53718 0.03571 0.0
C2114 C 0.45725 0.53486 0.02257 0.0
C2115 C 0.47273 0.55355 0.01399 0.0
C2116 C 0.48402 0.55121 0.00156 0.0
C2117 C 0.4801 0.53027 0.99767 0.0
C2118 C 0.46492 0.51164 0.00623 0.0
C2119 C 0.45356 0.51389 0.01866 0.0
H2120 H 0.48886 0.52849 0.98805 0.0
H2121 H 0.38012 0.55097 0.1094 0.0
H2122 H 0.93976 0.48065 0.27025 0.0
H2123 H 0.91856 0.4654 0.24665 0.0
H2124 H 0.95848 0.43636 0.236 0.0
H2125 H 0.98078 0.45285 0.25898 0.0
H2126 H 0.95536 0.45532 0.2119 0.0
H2127 H 0.90171 0.4047 0.2481 0.0
H2128 H 0.87797 0.39302 0.2713 0.0
H2129 H 0.84315 0.4244 0.25455 0.0
H2130 H 0.86689 0.43653 0.23134 0.0
H2131 H 0.88245 0.39 0.15029 0.0
H2132 H 0.90283 0.40076 0.17462 0.0
H2133 H 0.87587 0.44239 0.18463 0.0
H2134 H 0.85614 0.43244 0.16019 0.0
H2135 H 0.87186 0.4142 0.20906 0.0
H2136 H 0.92789 0.46612 0.17333 0.0
H2137 H 0.95152 0.47653 0.15012 0.0
H2138 H 0.98149 0.44018 0.1663 0.0
H2139 H 0.95778 0.42928 0.18952 0.0
C2140 C 0.94409 0.47107 0.26288 0.0
C2141 C 0.96201 0.468 0.26658 0.0
C2142 C 0.93173 0.46209 0.24947 0.0
C2143 C 0.93671 0.44946 0.23961 0.0
C2144 C 0.95426 0.44597 0.24343 0.0
C2145 C 0.96682 0.4552 0.25672 0.0
C2146 C 0.92445 0.44092 0.22492 0.0
C2147 C 0.93709 0.44596 0.21135 0.0
C2148 C 0.9006 0.42902 0.22411 0.0
C2149 C 0.88622 0.42168 0.23803 0.0
C2150 C 0.8891 0.40925 0.24941 0.0
C2151 C 0.87562 0.40252 0.26256 0.0
C2152 C 0.8591 0.40801 0.26441 0.0
C2153 C 0.85597 0.42018 0.25311 0.0
C2154 C 0.86942 0.42696 0.23994 0.0
C2155 C 0.8811 0.40168 0.15756 0.0
C2156 C 0.86754 0.41025 0.15329 0.0
C2157 C 0.89263 0.40769 0.1715 0.0
C2158 C 0.89076 0.4223 0.18141 0.0
C2159 C 0.87734 0.43092 0.17719 0.0
C2160 C 0.866 0.42512 0.16323 0.0
C2161 C 0.90281 0.42876 0.1962 0.0
C2162 C 0.89012 0.42335 0.20973 0.0
C2163 C 0.92658 0.44007 0.19701 0.0
C2164 C 0.94087 0.44667 0.18307 0.0
C2165 C 0.93937 0.46017 0.17187 0.0
C2166 C 0.95281 0.4662 0.15873 0.0
C2167 C 0.96794 0.45896 0.15671 0.0
C2168 C 0.96972 0.44574 0.16786 0.0
C2169 C 0.9563 0.43964 0.18102 0.0
H2170 H 0.97834 0.46365 0.14653 0.0
H2171 H 0.84868 0.40279 0.2746 0.0
loop_
_geom_bond_atom_site_label_1
_geom_bond_atom_site_label_2
_geom_bond_distance
_geom_bond_site_symmetry_2
_ccdc_geom_bond_type
H0 O26 0.856 . S
H1 O29 0.854 . S
H2 C37 0.930 . S
H3 C38 0.930 . S
H4 C40 0.930 . S
H5 C41 0.924 . S
H6 C43 0.931 . S
H7 C44 0.930 . S
H8 C46 0.930 . S
H9 C47 0.929 . S
H10 C49 0.930 . S
H11 C50 0.931 . S
H12 C52 0.930 . S
H13 C53 0.929 . S
H14 C55 0.931 . S
H15 C56 0.930 . S
H16 C58 0.930 . S
H17 C59 0.932 . S
H18 C61 0.930 . S
H19 C62 0.929 . S
H20 C64 0.931 . S
H21 C65 0.930 . S
H22 C67 0.929 . S
H23 C68 0.931 . S
H24 C70 0.930 . S
H25 C71 0.929 . S
O26 H0 0.856 . S
O26 C72 1.300 . S
O27 C72 1.209 . S
O28 C73 1.199 . S
O29 H1 0.854 . S
O29 C73 1.297 . S
C30 C31 1.404 . S
C30 C35 1.397 . S
C30 C36 1.492 . S
C31 C30 1.404 . S
C31 C32 1.396 . S
C31 C42 1.492 . S
C32 C31 1.396 . S
C32 C33 1.397 . S
C32 C48 1.509 . S
C33 C32 1.397 . S
C33 C34 1.412 . S
C33 C54 1.485 . S
C34 C33 1.412 . S
C34 C35 1.388 . S
C34 C60 1.490 . S
C35 C30 1.397 . S
C35 C34 1.388 . S
C35 C66 1.519 . S
C36 C30 1.492 . S
C36 C37 1.363 . S
C36 C41 1.407 . S
C37 H2 0.930 . S
C37 C36 1.363 . S
C37 C38 1.372 1_455 S
C38 H3 0.930 . S
C38 C37 1.372 1_655 S
C38 C39 1.383 . S
C39 C38 1.383 . S
C39 C40 1.395 . S
C40 H4 0.930 . S
C40 C39 1.395 . S
C40 C41 1.351 1_655 S
C41 H5 0.924 . S
C41 C36 1.407 . S
C41 C40 1.351 1_455 S
C42 C31 1.492 . S
C42 C43 1.377 . S
C42 C47 1.397 . S
C43 H6 0.931 . S
C43 C42 1.377 . S
C43 C44 1.376 . S
C44 H7 0.930 . S
C44 C43 1.376 . S
C44 C45 1.376 . S
C45 C44 1.376 . S
C45 C46 1.378 . S
C45 C72 1.486 . S
C46 H8 0.930 . S
C46 C45 1.378 . S
C46 C47 1.376 . S
C47 H9 0.929 . S
C47 C42 1.397 . S
C47 C46 1.376 . S
C48 C32 1.509 . S
C48 C49 1.391 . S
C48 C53 1.386 . S
C49 H10 0.930 . S
C49 C48 1.391 . S
C49 C50 1.375 . S
C50 H11 0.931 . S
C50 C49 1.375 . S
C50 C51 1.375 . S
C51 C50 1.375 . S
C51 C52 1.361 . S
C52 H12 0.930 . S
C52 C51 1.361 . S
C52 C53 1.399 . S
C53 H13 0.929 . S
C53 C48 1.386 . S
C53 C52 1.399 . S
C54 C33 1.485 . S
C54 C55 1.394 . S
C54 C59 1.360 . S
C55 H14 0.931 . S
C55 C54 1.394 . S
C55 C56 1.372 . S
C56 H15 0.930 . S
C56 C55 1.372 . S
C56 C57 1.397 . S
C57 C56 1.397 . S
C57 C58 1.390 . S
C57 C73 1.476 . S
C58 H16 0.930 . S
C58 C57 1.390 . S
C58 C59 1.366 . S
C59 H17 0.932 . S
C59 C54 1.360 . S
C59 C58 1.366 . S
C60 C34 1.490 . S
C60 C61 1.380 . S
C60 C65 1.386 . S
C61 H18 0.930 . S
C61 C60 1.380 . S
C61 C62 1.381 . S
C62 H19 0.929 . S
C62 C61 1.381 . S
C62 C63 1.371 . S
C63 C62 1.371 . S
C63 C64 1.380 . S
C64 H20 0.931 . S
C64 C63 1.380 . S
C64 C65 1.387 . S
C65 H21 0.930 . S
C65 C60 1.386 . S
C65 C64 1.387 . S
C66 C35 1.519 . S
C66 C67 1.377 1_455 S
C66 C71 1.361 . S
C67 H22 0.929 . S
C67 C66 1.377 1_655 S
C67 C68 1.386 . S
C68 H23 0.931 . S
C68 C67 1.386 . S
C68 C69 1.363 . S
C69 C68 1.363 . S
C69 C70 1.385 . S
C70 H24 0.930 . S
C70 C69 1.385 . S
C70 C71 1.396 1_655 S
C71 H25 0.929 . S
C71 C66 1.361 . S
C71 C70 1.396 1_455 S
C72 O26 1.300 . S
C72 O27 1.209 . S
C72 C45 1.486 . S
C73 O28 1.199 . S
C73 O29 1.297 . S
C73 C57 1.476 . S
H74 O100 0.856 . S
H75 O103 0.854 . S
H76 C111 0.930 . S
H77 C112 0.930 . S
H78 C114 0.930 . S
H79 C115 0.930 . S
H80 C117 0.931 . S
H81 C118 0.930 . S
H82 C120 0.930 . S
H83 C121 0.929 . S
H84 C123 0.930 . S
H85 C124 0.931 . S
H86 C126 0.930 . S
H87 C127 0.929 . S
H88 C129 0.931 . S
H89 C130 0.930 . S
H90 C132 0.930 . S
H91 C133 0.932 . S
H92 C135 0.930 . S
H93 C136 0.929 . S
H94 C138 0.931 . S
H95 C139 0.930 . S
H96 C141 0.929 . S
H97 C142 0.931 . S
H98 C144 0.930 . S
H99 C145 0.929 . S
O100 H74 0.856 . S
O100 C146 1.300 . S
O101 C146 1.209 . S
O102 C147 1.199 . S
O103 H75 0.854 . S
O103 C147 1.297 . S
C104 C105 1.404 . S
C104 C109 1.397 . S
C104 C110 1.492 . S
C105 C104 1.404 . S
C105 C106 1.396 . S
C105 C116 1.492 . S
C106 C105 1.396 . S
C106 C107 1.397 . S
C106 C122 1.509 . S
C107 C106 1.397 . S
C107 C108 1.412 . S
C107 C128 1.485 . S
C108 C107 1.412 . S
C108 C109 1.388 . S
C108 C134 1.490 . S
C109 C104 1.397 . S
C109 C108 1.388 . S
C109 C140 1.519 . S
C110 C104 1.492 . S
C110 C111 1.363 . S
C110 C115 1.390 . S
C111 H76 0.930 . S
C111 C110 1.363 . S
C111 C112 1.372 . S
C112 H77 0.930 . S
C112 C111 1.372 . S
C112 C113 1.383 1_545 S
C113 C112 1.383 1_565 S
C113 C114 1.395 . S
C114 H78 0.930 . S
C114 C113 1.395 . S
C114 C115 1.362 1_565 S
C115 H79 0.930 . S
C115 C110 1.390 . S
C115 C114 1.362 1_545 S
C116 C105 1.492 . S
C116 C117 1.377 . S
C116 C121 1.397 . S
C117 H80 0.931 . S
C117 C116 1.377 . S
C117 C118 1.376 . S
C118 H81 0.930 . S
C118 C117 1.376 . S
C118 C119 1.376 . S
C119 C118 1.376 . S
C119 C120 1.378 . S
C119 C146 1.486 . S
C120 H82 0.930 . S
C120 C119 1.378 . S
C120 C121 1.376 . S
C121 H83 0.929 . S
C121 C116 1.397 . S
C121 C120 1.376 . S
C122 C106 1.509 . S
C122 C123 1.391 . S
C122 C127 1.386 . S
C123 H84 0.930 . S
C123 C122 1.391 . S
C123 C124 1.375 . S
C124 H85 0.931 . S
C124 C123 1.375 . S
C124 C125 1.375 . S
C125 C124 1.375 . S
C125 C126 1.361 . S
C126 H86 0.930 . S
C126 C125 1.361 . S
C126 C127 1.399 . S
C127 H87 0.929 . S
C127 C122 1.386 . S
C127 C126 1.399 . S
C128 C107 1.485 . S
C128 C129 1.394 . S
C128 C133 1.360 . S
C129 H88 0.931 . S
C129 C128 1.394 . S
C129 C130 1.372 . S
C130 H89 0.930 . S
C130 C129 1.372 . S
C130 C131 1.397 . S
C131 C130 1.397 . S
C131 C132 1.390 . S
C131 C147 1.476 . S
C132 H90 0.930 . S
C132 C131 1.390 . S
C132 C133 1.366 . S
C133 H91 0.932 . S
C133 C128 1.360 . S
C133 C132 1.366 . S
C134 C108 1.490 . S
C134 C135 1.380 . S
C134 C139 1.386 . S
C135 H92 0.930 . S
C135 C134 1.380 . S
C135 C136 1.381 . S
C136 H93 0.929 . S
C136 C135 1.381 . S
C136 C137 1.371 . S
C137 C136 1.371 . S
C137 C138 1.380 . S
C138 H94 0.931 . S
C138 C137 1.380 . S
C138 C139 1.387 . S
C139 H95 0.930 . S
C139 C134 1.386 . S
C139 C138 1.387 . S
C140 C109 1.519 . S
C140 C141 1.377 . S
C140 C145 1.361 . S
C141 H96 0.929 . S
C141 C140 1.377 . S
C141 C142 1.386 1_545 S
C142 H97 0.931 . S
C142 C141 1.386 1_565 S
C142 C143 1.363 . S
C143 C142 1.363 . S
C143 C144 1.385 . S
C144 H98 0.930 . S
C144 C143 1.385 . S
C144 C145 1.396 1_565 S
C145 H99 0.929 . S
C145 C140 1.361 . S
C145 C144 1.396 1_545 S
C146 O100 1.300 . S
C146 O101 1.209 . S
C146 C119 1.486 . S
C147 O102 1.199 . S
C147 O103 1.297 . S
C147 C131 1.476 . S
H148 O174 0.856 . S
H149 O177 0.854 . S
H150 C185 0.930 . S
H151 C186 0.930 . S
H152 C188 0.930 . S
H153 C189 0.930 . S
H154 C191 0.931 . S
H155 C192 0.930 . S
H156 C194 0.930 . S
H157 C195 0.929 . S
H158 C197 0.930 . S
H159 C198 0.931 . S
H160 C200 0.930 . S
H161 C201 0.929 . S
H162 C203 0.931 . S
H163 C204 0.930 . S
H164 C206 0.930 . S
H165 C207 0.932 . S
H166 C209 0.930 . S
H167 C210 0.929 . S
H168 C212 0.931 . S
H169 C213 0.930 . S
H170 C215 0.929 . S
H171 C216 0.931 . S
H172 C218 0.930 . S
H173 C219 0.929 . S
O174 H148 0.856 . S
O174 C220 1.300 . S
O175 C220 1.209 . S
O176 C221 1.199 . S
O177 H149 0.854 . S
O177 C221 1.297 . S
C178 C179 1.404 . S
C178 C183 1.397 . S
C178 C184 1.492 . S
C179 C178 1.404 . S
C179 C180 1.396 . S
C179 C190 1.492 . S
C180 C179 1.396 . S
C180 C181 1.397 . S
C180 C196 1.509 . S
C181 C180 1.397 . S
C181 C182 1.412 . S
C181 C202 1.485 . S
C182 C181 1.412 . S
C182 C183 1.388 . S
C182 C208 1.490 . S
C183 C178 1.397 . S
C183 C182 1.388 . S
C183 C214 1.519 . S
C184 C178 1.492 . S
C184 C185 1.363 . S
C184 C189 1.390 . S
C185 H150 0.930 . S
C185 C184 1.363 . S
C185 C186 1.372 . S
C186 H151 0.930 . S
C186 C185 1.372 . S
C186 C187 1.383 . S
C187 C186 1.383 . S
C187 C188 1.395 . S
C188 H152 0.930 . S
C188 C187 1.395 . S
C188 C189 1.362 . S
C189 H153 0.930 . S
C189 C184 1.390 . S
C189 C188 1.362 . S
C190 C179 1.492 . S
C190 C191 1.377 . S
C190 C195 1.397 . S
C191 H154 0.931 . S
C191 C190 1.377 . S
C191 C192 1.376 . S
C192 H155 0.930 . S
C192 C191 1.376 . S
C192 C193 1.376 . S
C193 C192 1.376 . S
C193 C194 1.378 . S
C193 C220 1.486 . S
C194 H156 0.930 . S
C194 C193 1.378 . S
C194 C195 1.376 . S
C195 H157 0.929 . S
C195 C190 1.397 . S
C195 C194 1.376 . S
C196 C180 1.509 . S
C196 C197 1.391 . S
C196 C201 1.386 . S
C197 H158 0.930 . S
C197 C196 1.391 . S
C197 C198 1.375 . S
C198 H159 0.931 . S
C198 C197 1.375 . S
C198 C199 1.375 . S
C199 C198 1.375 . S
C199 C200 1.361 . S
C200 H160 0.930 . S
C200 C199 1.361 . S
C200 C201 1.399 . S
C201 H161 0.929 . S
C201 C196 1.386 . S
C201 C200 1.399 . S
C202 C181 1.485 . S
C202 C203 1.394 . S
C202 C207 1.360 . S
C203 H162 0.931 . S
C203 C202 1.394 . S
C203 C204 1.372 . S
C204 H163 0.930 . S
C204 C203 1.372 . S
C204 C205 1.397 . S
C205 C204 1.397 . S
C205 C206 1.390 . S
C205 C221 1.476 . S
C206 H164 0.930 . S
C206 C205 1.390 . S
C206 C207 1.366 . S
C207 H165 0.932 . S
C207 C202 1.360 . S
C207 C206 1.366 . S
C208 C182 1.490 . S
C208 C209 1.380 . S
C208 C213 1.386 . S
C209 H166 0.930 . S
C209 C208 1.380 . S
C209 C210 1.381 . S
C210 H167 0.929 . S
C210 C209 1.381 . S
C210 C211 1.371 . S
C211 C210 1.371 . S
C211 C212 1.380 . S
C212 H168 0.931 . S
C212 C211 1.380 . S
C212 C213 1.387 . S
C213 H169 0.930 . S
C213 C208 1.386 . S
C213 C212 1.387 . S
C214 C183 1.519 . S
C214 C215 1.377 . S
C214 C219 1.361 . S
C215 H170 0.929 . S
C215 C214 1.377 . S
C215 C216 1.386 . S
C216 H171 0.931 . S
C216 C215 1.386 . S
C216 C217 1.363 . S
C217 C216 1.363 . S
C217 C218 1.385 . S
C218 H172 0.930 . S
C218 C217 1.385 . S
C218 C219 1.396 . S
C219 H173 0.929 . S
C219 C214 1.361 . S
C219 C218 1.396 . S
C220 O174 1.300 . S
C220 O175 1.209 . S
C220 C193 1.486 . S
C221 O176 1.199 . S
C221 O177 1.297 . S
C221 C205 1.476 . S
H222 O248 0.856 . S
H223 O251 0.854 . S
H224 C259 0.930 . S
H225 C260 0.930 . S
H226 C262 0.930 . S
H227 C263 0.930 . S
H228 C265 0.931 . S
H229 C266 0.930 . S
H230 C268 0.930 . S
H231 C269 0.929 . S
H232 C271 0.930 . S
H233 C272 0.931 . S
H234 C274 0.930 . S
H235 C275 0.929 . S
H236 C277 0.931 . S
H237 C278 0.930 . S
H238 C280 0.930 . S
H239 C281 0.932 . S
H240 C283 0.930 . S
H241 C284 0.929 . S
H242 C286 0.931 . S
H243 C287 0.930 . S
H244 C289 0.929 . S
H245 C290 0.931 . S
H246 C292 0.930 . S
H247 C293 0.929 1_455 S
O248 H222 0.856 . S
O248 C294 1.300 . S
O249 C294 1.209 . S
O250 C295 1.199 . S
O251 H223 0.854 . S
O251 C295 1.297 . S
C252 C253 1.404 . S
C252 C257 1.397 . S
C252 C258 1.492 . S
C253 C252 1.404 . S
C253 C254 1.396 . S
C253 C264 1.492 . S
C254 C253 1.396 . S
C254 C255 1.397 . S
C254 C270 1.509 . S
C255 C254 1.397 . S
C255 C256 1.412 . S
C255 C276 1.485 . S
C256 C255 1.412 . S
C256 C257 1.388 . S
C256 C282 1.490 . S
C257 C252 1.397 . S
C257 C256 1.388 . S
C257 C288 1.521 . S
C258 C252 1.492 . S
C258 C259 1.363 . S
C258 C263 1.390 1_455 S
C259 H224 0.930 . S
C259 C258 1.363 . S
C259 C260 1.372 1_455 S
C260 H225 0.930 . S
C260 C259 1.372 1_655 S
C260 C261 1.383 . S
C261 C260 1.383 . S
C261 C262 1.395 . S
C262 H226 0.930 . S
C262 C261 1.395 . S
C262 C263 1.362 . S
C263 H227 0.930 . S
C263 C258 1.390 1_655 S
C263 C262 1.362 . S
C264 C253 1.492 . S
C264 C265 1.377 . S
C264 C269 1.397 . S
C265 H228 0.931 . S
C265 C264 1.377 . S
C265 C266 1.376 . S
C266 H229 0.930 . S
C266 C265 1.376 . S
C266 C267 1.376 . S
C267 C266 1.376 . S
C267 C268 1.378 . S
C267 C294 1.486 . S
C268 H230 0.930 . S
C268 C267 1.378 . S
C268 C269 1.376 . S
C269 H231 0.929 . S
C269 C264 1.397 . S
C269 C268 1.376 . S
C270 C254 1.509 . S
C270 C271 1.391 . S
C270 C275 1.386 . S
C271 H232 0.930 . S
C271 C270 1.391 . S
C271 C272 1.375 . S
C272 H233 0.931 . S
C272 C271 1.375 . S
C272 C273 1.375 . S
C273 C272 1.375 . S
C273 C274 1.361 . S
C274 H234 0.930 . S
C274 C273 1.361 . S
C274 C275 1.399 . S
C275 H235 0.929 . S
C275 C270 1.386 . S
C275 C274 1.399 . S
C276 C255 1.485 . S
C276 C277 1.394 . S
C276 C281 1.360 . S
C277 H236 0.931 . S
C277 C276 1.394 . S
C277 C278 1.372 . S
C278 H237 0.930 . S
C278 C277 1.372 . S
C278 C279 1.397 . S
C279 C278 1.397 . S
C279 C280 1.390 . S
C279 C295 1.476 . S
C280 H238 0.930 . S
C280 C279 1.390 . S
C280 C281 1.366 . S
C281 H239 0.932 . S
C281 C276 1.360 . S
C281 C280 1.366 . S
C282 C256 1.490 . S
C282 C283 1.380 . S
C282 C287 1.386 . S
C283 H240 0.930 . S
C283 C282 1.380 . S
C283 C284 1.381 . S
C284 H241 0.929 . S
C284 C283 1.381 . S
C284 C285 1.371 . S
C285 C284 1.371 . S
C285 C286 1.380 . S
C286 H242 0.931 . S
C286 C285 1.380 . S
C286 C287 1.387 . S
C287 H243 0.930 . S
C287 C282 1.386 . S
C287 C286 1.387 . S
C288 C257 1.521 . S
C288 C289 1.374 1_455 S
C288 C293 1.362 1_455 S
C289 H244 0.929 . S
C289 C288 1.374 1_655 S
C289 C290 1.386 . S
C290 H245 0.931 . S
C290 C289 1.386 . S
C290 C291 1.363 . S
C291 C290 1.363 . S
C291 C292 1.385 . S
C292 H246 0.930 . S
C292 C291 1.385 . S
C292 C293 1.396 . S
C293 H247 0.929 1_655 S
C293 C288 1.362 1_655 S
C293 C292 1.396 . S
C294 O248 1.300 . S
C294 O249 1.209 . S
C294 C267 1.486 . S
C295 O250 1.199 . S
C295 O251 1.297 . S
C295 C279 1.476 . S
H296 O322 0.856 . S
H297 O325 0.854 . S
H298 C333 0.930 . S
H299 C334 0.930 . S
H300 C336 0.930 . S
H301 C337 0.930 . S
H302 C339 0.931 . S
H303 C340 0.930 . S
H304 C342 0.930 . S
H305 C343 0.929 . S
H306 C345 0.930 . S
H307 C346 0.931 . S
H308 C348 0.930 . S
H309 C349 0.929 . S
H310 C351 0.931 . S
H311 C352 0.930 . S
H312 C354 0.930 . S
H313 C355 0.932 . S
H314 C357 0.930 . S
H315 C358 0.929 . S
H316 C360 0.931 . S
H317 C361 0.930 . S
H318 C363 0.929 1_556 S
H319 C364 0.931 . S
H320 C366 0.930 . S
H321 C367 0.929 . S
O322 H296 0.856 . S
O322 C368 1.300 . S
O323 C368 1.209 . S
O324 C369 1.199 . S
O325 H297 0.854 . S
O325 C369 1.297 . S
C326 C327 1.404 . S
C326 C331 1.397 . S
C326 C332 1.492 1_565 S
C327 C326 1.404 . S
C327 C328 1.396 . S
C327 C338 1.492 . S
C328 C327 1.396 . S
C328 C329 1.397 . S
C328 C344 1.509 . S
C329 C328 1.397 . S
C329 C330 1.412 1_556 S
C329 C350 1.485 1_556 S
C330 C329 1.412 1_554 S
C330 C331 1.388 1_554 S
C330 C356 1.490 . S
C331 C326 1.397 . S
C331 C330 1.388 1_556 S
C331 C362 1.519 1_566 S
C332 C326 1.492 1_545 S
C332 C333 1.363 . S
C332 C337 1.390 . S
C333 H298 0.930 . S
C333 C332 1.363 . S
C333 C334 1.372 . S
C334 H299 0.930 . S
C334 C333 1.372 . S
C334 C335 1.383 . S
C335 C334 1.383 . S
C335 C336 1.395 . S
C336 H300 0.930 . S
C336 C335 1.395 . S
C336 C337 1.362 . S
C337 H301 0.930 . S
C337 C332 1.390 . S
C337 C336 1.362 . S
C338 C327 1.492 . S
C338 C339 1.377 . S
C338 C343 1.397 . S
C339 H302 0.931 . S
C339 C338 1.377 . S
C339 C340 1.376 . S
C340 H303 0.930 . S
C340 C339 1.376 . S
C340 C341 1.376 . S
C341 C340 1.376 . S
C341 C342 1.378 . S
C341 C368 1.486 . S
C342 H304 0.930 . S
C342 C341 1.378 . S
C342 C343 1.376 . S
C343 H305 0.929 . S
C343 C338 1.397 . S
C343 C342 1.376 . S
C344 C328 1.509 . S
C344 C345 1.391 . S
C344 C349 1.386 . S
C345 H306 0.930 . S
C345 C344 1.391 . S
C345 C346 1.375 . S
C346 H307 0.931 . S
C346 C345 1.375 . S
C346 C347 1.375 . S
C347 C346 1.375 . S
C347 C348 1.361 . S
C348 H308 0.930 . S
C348 C347 1.361 . S
C348 C349 1.399 . S
C349 H309 0.929 . S
C349 C344 1.386 . S
C349 C348 1.399 . S
C350 C329 1.485 1_554 S
C350 C351 1.394 . S
C350 C355 1.360 . S
C351 H310 0.931 . S
C351 C350 1.394 . S
C351 C352 1.372 . S
C352 H311 0.930 . S
C352 C351 1.372 . S
C352 C353 1.397 . S
C353 C352 1.397 . S
C353 C354 1.390 . S
C353 C369 1.476 . S
C354 H312 0.930 . S
C354 C353 1.390 . S
C354 C355 1.366 . S
C355 H313 0.932 . S
C355 C350 1.360 . S
C355 C354 1.366 . S
C356 C330 1.490 . S
C356 C357 1.380 . S
C356 C361 1.386 . S
C357 H314 0.930 . S
C357 C356 1.380 . S
C357 C358 1.381 . S
C358 H315 0.929 . S
C358 C357 1.381 . S
C358 C359 1.371 . S
C359 C358 1.371 . S
C359 C360 1.380 . S
C360 H316 0.931 . S
C360 C359 1.380 . S
C360 C361 1.387 . S
C361 H317 0.930 . S
C361 C356 1.386 . S
C361 C360 1.387 . S
C362 C331 1.519 1_544 S
C362 C363 1.377 . S
C362 C367 1.361 . S
C363 H318 0.929 1_554 S
C363 C362 1.377 . S
C363 C364 1.386 . S
C364 H319 0.931 . S
C364 C363 1.386 . S
C364 C365 1.363 . S
C365 C364 1.363 . S
C365 C366 1.385 . S
C366 H320 0.930 . S
C366 C365 1.385 . S
C366 C367 1.396 . S
C367 H321 0.929 . S
C367 C362 1.361 . S
C367 C366 1.396 . S
C368 O322 1.300 . S
C368 O323 1.209 . S
C368 C341 1.486 . S
C369 O324 1.199 . S
C369 O325 1.297 . S
C369 C353 1.476 . S
H370 O396 0.856 . S
H371 O399 0.854 . S
H372 C407 0.930 . S
H373 C408 0.930 . S
H374 C410 0.930 . S
H375 C411 0.930 . S
H376 C413 0.931 . S
H377 C414 0.930 . S
H378 C416 0.930 . S
H379 C417 0.929 . S
H380 C419 0.930 . S
H381 C420 0.931 . S
H382 C422 0.930 . S
H383 C423 0.929 . S
H384 C425 0.931 . S
H385 C426 0.930 . S
H386 C428 0.930 . S
H387 C429 0.932 . S
H388 C431 0.930 . S
H389 C432 0.929 . S
H390 C434 0.931 . S
H391 C435 0.930 . S
H392 C437 0.929 . S
H393 C438 0.931 . S
H394 C440 0.930 . S
H395 C441 0.929 . S
O396 H370 0.856 . S
O396 C442 1.300 . S
O397 C442 1.209 . S
O398 C443 1.199 . S
O399 H371 0.854 . S
O399 C443 1.297 . S
C400 C401 1.404 . S
C400 C405 1.397 . S
C400 C406 1.492 . S
C401 C400 1.404 . S
C401 C402 1.396 . S
C401 C412 1.492 . S
C402 C401 1.396 . S
C402 C403 1.397 . S
C402 C418 1.509 . S
C403 C402 1.397 . S
C403 C404 1.412 . S
C403 C424 1.485 . S
C404 C403 1.412 . S
C404 C405 1.388 . S
C404 C430 1.490 . S
C405 C400 1.397 . S
C405 C404 1.388 . S
C405 C436 1.519 . S
C406 C400 1.492 . S
C406 C407 1.363 . S
C406 C411 1.390 . S
C407 H372 0.930 . S
C407 C406 1.363 . S
C407 C408 1.372 . S
C408 H373 0.930 . S
C408 C407 1.372 . S
C408 C409 1.383 . S
C409 C408 1.383 . S
C409 C410 1.395 . S
C410 H374 0.930 . S
C410 C409 1.395 . S
C410 C411 1.362 . S
C411 H375 0.930 . S
C411 C406 1.390 . S
C411 C410 1.362 . S
C412 C401 1.492 . S
C412 C413 1.377 . S
C412 C417 1.397 . S
C413 H376 0.931 . S
C413 C412 1.377 . S
C413 C414 1.376 . S
C414 H377 0.930 . S
C414 C413 1.376 . S
C414 C415 1.376 . S
C415 C414 1.376 . S
C415 C416 1.378 . S
C415 C442 1.486 . S
C416 H378 0.930 . S
C416 C415 1.378 . S
C416 C417 1.376 . S
C417 H379 0.929 . S
C417 C412 1.397 . S
C417 C416 1.376 . S
C418 C402 1.509 . S
C418 C419 1.391 . S
C418 C423 1.386 . S
C419 H380 0.930 . S
C419 C418 1.391 . S
C419 C420 1.375 . S
C420 H381 0.931 . S
C420 C419 1.375 . S
C420 C421 1.375 . S
C421 C420 1.375 . S
C421 C422 1.361 . S
C422 H382 0.930 . S
C422 C421 1.361 . S
C422 C423 1.399 . S
C423 H383 0.929 . S
C423 C418 1.386 . S
C423 C422 1.399 . S
C424 C403 1.485 . S
C424 C425 1.394 . S
C424 C429 1.360 . S
C425 H384 0.931 . S
C425 C424 1.394 . S
C425 C426 1.372 . S
C426 H385 0.930 . S
C426 C425 1.372 . S
C426 C427 1.397 . S
C427 C426 1.397 . S
C427 C428 1.390 . S
C427 C443 1.476 . S
C428 H386 0.930 . S
C428 C427 1.390 . S
C428 C429 1.366 . S
C429 H387 0.932 . S
C429 C424 1.360 . S
C429 C428 1.366 . S
C430 C404 1.490 . S
C430 C431 1.380 . S
C430 C435 1.386 . S
C431 H388 0.930 . S
C431 C430 1.380 . S
C431 C432 1.381 . S
C432 H389 0.929 . S
C432 C431 1.381 . S
C432 C433 1.371 . S
C433 C432 1.371 . S
C433 C434 1.380 . S
C434 H390 0.931 . S
C434 C433 1.380 . S
C434 C435 1.387 . S
C435 H391 0.930 . S
C435 C430 1.386 . S
C435 C434 1.387 . S
C436 C405 1.519 . S
C436 C437 1.377 . S
C436 C441 1.361 . S
C437 H392 0.929 . S
C437 C436 1.377 . S
C437 C438 1.386 . S
C438 H393 0.931 . S
C438 C437 1.386 . S
C438 C439 1.363 . S
C439 C438 1.363 . S
C439 C440 1.385 . S
C440 H394 0.930 . S
C440 C439 1.385 . S
C440 C441 1.396 . S
C441 H395 0.929 . S
C441 C436 1.361 . S
C441 C440 1.396 . S
C442 O396 1.300 . S
C442 O397 1.209 . S
C442 C415 1.486 . S
C443 O398 1.199 . S
C443 O399 1.297 . S
C443 C427 1.476 . S
Li444 N461 1.990 . S
Li444 O504 1.956 . S
Li444 O505 1.970 . S
Li444 O506 1.961 . S
Li445 N469 1.990 . S
Li445 O504 1.970 . S
Li445 O505 1.956 . S
Li445 O507 1.961 . S
Li446 N491 1.990 . S
Li446 O504 1.961 . S
Li446 O506 1.956 . S
Li446 O507 1.970 . S
Li447 N497 1.990 . S
Li447 O505 1.961 . S
Li447 O506 1.970 . S
Li447 O507 1.956 . S
C448 C450 1.348 . S
C448 C451 1.356 . S
C448 O504 1.325 . S
N449 C452 1.314 . S
N449 C453 1.279 . S
C450 C448 1.348 . S
C450 C452 1.353 . S
C450 H508 0.929 . S
C451 C448 1.356 . S
C451 C453 1.358 . S
C451 H509 0.930 . S
C452 N449 1.314 . S
C452 C450 1.353 . S
C452 H510 0.930 . S
C453 N449 1.279 . S
C453 C451 1.358 . S
C453 H511 0.930 . S
C454 C457 1.348 . S
C454 C458 1.356 . S
C454 O505 1.325 . S
C455 N456 1.279 . S
C455 C458 1.358 . S
C455 H512 0.930 . S
N456 C455 1.279 . S
N456 C459 1.314 . S
C457 C454 1.348 . S
C457 C459 1.353 . S
C457 H513 0.929 . S
C458 C454 1.356 . S
C458 C455 1.358 . S
C458 H514 0.930 . S
C459 N456 1.314 . S
C459 C457 1.353 . S
C459 H515 0.930 . S
C460 N461 1.314 . S
C460 C465 1.353 . S
C460 H466 0.930 . S
N461 Li444 1.990 . S
N461 C460 1.314 . S
N461 C463 1.279 . S
C462 C463 1.358 . S
C462 C464 1.356 . S
C462 H516 0.930 . S
C463 N461 1.279 . S
C463 C462 1.358 . S
C463 H467 0.930 . S
C464 C462 1.356 . S
C464 C465 1.348 . S
C465 C460 1.353 . S
C465 C464 1.348 . S
C465 H517 0.929 . S
H466 C460 0.930 . S
H467 C463 0.930 . S
C468 N469 1.314 . S
C468 C470 1.353 . S
C468 H474 0.930 . S
N469 Li445 1.990 . S
N469 C468 1.314 . S
N469 C472 1.279 . S
C470 C468 1.353 . S
C470 C473 1.348 . S
C470 H518 0.929 . S
C471 C472 1.358 . S
C471 C473 1.356 . S
C471 H519 0.930 . S
C472 N469 1.279 . S
C472 C471 1.358 . S
C472 H475 0.930 . S
C473 C470 1.348 . S
C473 C471 1.356 . S
H474 C468 0.930 . S
H475 C472 0.930 . S
C476 C478 1.348 . S
C476 C479 1.356 . S
C476 O506 1.325 . S
N477 C480 1.314 . S
N477 C481 1.279 . S
C478 C476 1.348 . S
C478 C480 1.353 . S
C478 H520 0.929 . S
C479 C476 1.356 . S
C479 C481 1.358 . S
C479 H521 0.930 . S
C480 N477 1.314 . S
C480 C478 1.353 . S
C480 H522 0.930 . S
C481 N477 1.279 . S
C481 C479 1.358 . S
C481 H523 0.930 . S
C482 C483 1.348 . S
C482 C484 1.356 . S
C482 O507 1.325 . S
C483 C482 1.348 . S
C483 C485 1.353 . S
C483 H524 0.929 . S
C484 C482 1.356 . S
C484 C486 1.358 . S
C484 H525 0.930 . S
C485 C483 1.353 . S
C485 N487 1.314 . S
C485 H526 0.930 . S
C486 C484 1.358 . S
C486 N487 1.279 . S
C486 H527 0.930 . S
N487 C485 1.314 . S
N487 C486 1.279 . S
C488 C490 1.353 . S
C488 N491 1.314 . S
C488 H494 0.930 . S
C489 N491 1.279 . S
C489 C492 1.358 . S
C489 H495 0.930 . S
C490 C488 1.353 . S
C490 C493 1.348 . S
C490 H528 0.929 . S
N491 Li446 1.990 . S
N491 C488 1.314 . S
N491 C489 1.279 . S
C492 C489 1.358 . S
C492 C493 1.356 . S
C492 H529 0.930 . S
C493 C490 1.348 . S
C493 C492 1.356 . S
H494 C488 0.930 . S
H495 C489 0.930 . S
C496 N497 1.314 . S
C496 C498 1.353 . S
C496 H502 0.930 . S
N497 Li447 1.990 . S
N497 C496 1.314 . S
N497 C500 1.279 . S
C498 C496 1.353 . S
C498 C501 1.348 . S
C498 H530 0.929 . S
C499 C500 1.358 . S
C499 C501 1.356 . S
C499 H531 0.930 . S
C500 N497 1.279 . S
C500 C499 1.358 . S
C500 H503 0.930 . S
C501 C498 1.348 . S
C501 C499 1.356 . S
H502 C496 0.930 . S
H503 C500 0.930 . S
O504 Li444 1.956 . S
O504 Li445 1.970 . S
O504 Li446 1.961 . S
O504 C448 1.325 . S
O505 Li444 1.970 . S
O505 Li445 1.956 . S
O505 Li447 1.961 . S
O505 C454 1.325 . S
O506 Li444 1.961 . S
O506 Li446 1.956 . S
O506 Li447 1.970 . S
O506 C476 1.325 . S
O507 Li445 1.961 . S
O507 Li446 1.970 . S
O507 Li447 1.956 . S
O507 C482 1.325 . S
H508 C450 0.929 . S
H509 C451 0.930 . S
H510 C452 0.930 . S
H511 C453 0.930 . S
H512 C455 0.930 . S
H513 C457 0.929 . S
H514 C458 0.930 . S
H515 C459 0.930 . S
H516 C462 0.930 . S
H517 C465 0.929 . S
H518 C470 0.929 . S
H519 C471 0.930 . S
H520 C478 0.929 . S
H521 C479 0.930 . S
H522 C480 0.930 . S
H523 C481 0.930 . S
H524 C483 0.929 . S
H525 C484 0.930 . S
H526 C485 0.930 . S
H527 C486 0.930 . S
H528 C490 0.929 . S
H529 C492 0.930 . S
H530 C498 0.929 . S
H531 C499 0.930 . S
Li532 N549 1.990 . S
Li532 O592 1.956 . S
Li532 O593 1.970 . S
Li532 O594 1.961 . S
Li533 N557 1.990 . S
Li533 O592 1.970 . S
Li533 O593 1.956 . S
Li533 O595 1.961 . S
Li534 N579 1.990 . S
Li534 O592 1.961 . S
Li534 O594 1.956 . S
Li534 O595 1.970 . S
Li535 N585 1.990 . S
Li535 O593 1.961 . S
Li535 O594 1.970 . S
Li535 O595 1.956 . S
C536 C538 1.348 . S
C536 C539 1.356 . S
C536 O592 1.325 . S
N537 C540 1.314 . S
N537 C541 1.279 . S
C538 C536 1.348 . S
C538 C540 1.353 . S
C538 H596 0.929 . S
C539 C536 1.356 . S
C539 C541 1.358 . S
C539 H597 0.930 . S
C540 N537 1.314 . S
C540 C538 1.353 . S
C540 H598 0.930 . S
C541 N537 1.279 . S
C541 C539 1.358 . S
C541 H599 0.930 . S
C542 C545 1.348 . S
C542 C546 1.356 . S
C542 O593 1.325 . S
C543 N544 1.279 . S
C543 C546 1.358 . S
C543 H600 0.930 . S
N544 C543 1.279 . S
N544 C547 1.314 . S
C545 C542 1.348 . S
C545 C547 1.353 . S
C545 H601 0.929 . S
C546 C542 1.356 . S
C546 C543 1.358 . S
C546 H602 0.930 . S
C547 N544 1.314 . S
C547 C545 1.353 . S
C547 H603 0.930 . S
C548 N549 1.314 . S
C548 C553 1.353 . S
C548 H554 0.930 . S
N549 Li532 1.990 . S
N549 C548 1.314 . S
N549 C551 1.279 . S
C550 C551 1.358 . S
C550 C552 1.356 . S
C550 H604 0.930 . S
C551 N549 1.279 . S
C551 C550 1.358 . S
C551 H555 0.930 . S
C552 C550 1.356 . S
C552 C553 1.348 . S
C553 C548 1.353 . S
C553 C552 1.348 . S
C553 H605 0.929 . S
H554 C548 0.930 . S
H555 C551 0.930 . S
C556 N557 1.314 . S
C556 C558 1.353 . S
C556 H562 0.930 . S
N557 Li533 1.990 . S
N557 C556 1.314 . S
N557 C560 1.279 . S
C558 C556 1.353 . S
C558 C561 1.348 . S
C558 H606 0.929 . S
C559 C560 1.358 . S
C559 C561 1.356 . S
C559 H607 0.930 . S
C560 N557 1.279 . S
C560 C559 1.358 . S
C560 H563 0.930 . S
C561 C558 1.348 . S
C561 C559 1.356 . S
H562 C556 0.930 . S
H563 C560 0.930 . S
C564 C566 1.348 . S
C564 C567 1.356 . S
C564 O594 1.325 . S
N565 C568 1.314 . S
N565 C569 1.279 . S
C566 C564 1.348 . S
C566 C568 1.353 . S
C566 H608 0.929 . S
C567 C564 1.356 . S
C567 C569 1.358 . S
C567 H609 0.930 . S
C568 N565 1.314 . S
C568 C566 1.353 . S
C568 H610 0.930 . S
C569 N565 1.279 . S
C569 C567 1.358 . S
C569 H611 0.930 . S
C570 C571 1.348 . S
C570 C572 1.356 . S
C570 O595 1.325 . S
C571 C570 1.348 . S
C571 C573 1.353 . S
C571 H612 0.929 . S
C572 C570 1.356 . S
C572 C574 1.358 . S
C572 H613 0.930 . S
C573 C571 1.353 . S
C573 N575 1.314 . S
C573 H614 0.930 . S
C574 C572 1.358 . S
C574 N575 1.279 . S
C574 H615 0.930 . S
N575 C573 1.314 . S
N575 C574 1.279 . S
C576 C578 1.353 . S
C576 N579 1.314 . S
C576 H582 0.930 . S
C577 N579 1.279 . S
C577 C580 1.358 . S
C577 H583 0.930 . S
C578 C576 1.353 . S
C578 C581 1.348 . S
C578 H616 0.929 . S
N579 Li534 1.990 . S
N579 C576 1.314 . S
N579 C577 1.279 . S
C580 C577 1.358 . S
C580 C581 1.356 . S
C580 H617 0.930 . S
C581 C578 1.348 . S
C581 C580 1.356 . S
H582 C576 0.930 . S
H583 C577 0.930 . S
C584 N585 1.314 . S
C584 C586 1.353 . S
C584 H590 0.930 . S
N585 Li535 1.990 . S
N585 C584 1.314 . S
N585 C588 1.279 . S
C586 C584 1.353 . S
C586 C589 1.348 . S
C586 H618 0.929 . S
C587 C588 1.358 . S
C587 C589 1.356 . S
C587 H619 0.930 . S
C588 N585 1.279 . S
C588 C587 1.358 . S
C588 H591 0.930 . S
C589 C586 1.348 . S
C589 C587 1.356 . S
H590 C584 0.930 . S
H591 C588 0.930 . S
O592 Li532 1.956 . S
O592 Li533 1.970 . S
O592 Li534 1.961 . S
O592 C536 1.325 . S
O593 Li532 1.970 . S
O593 Li533 1.956 . S
O593 Li535 1.961 . S
O593 C542 1.325 . S
O594 Li532 1.961 . S
O594 Li534 1.956 . S
O594 Li535 1.970 . S
O594 C564 1.325 . S
O595 Li533 1.961 . S
O595 Li534 1.970 . S
O595 Li535 1.956 . S
O595 C570 1.325 . S
H596 C538 0.929 . S
H597 C539 0.930 . S
H598 C540 0.930 . S
H599 C541 0.930 . S
H600 C543 0.930 . S
H601 C545 0.929 . S
H602 C546 0.930 . S
H603 C547 0.930 . S
H604 C550 0.930 . S
H605 C553 0.929 . S
H606 C558 0.929 . S
H607 C559 0.930 . S
H608 C566 0.929 . S
H609 C567 0.930 . S
H610 C568 0.930 . S
H611 C569 0.930 . S
H612 C571 0.929 . S
H613 C572 0.930 . S
H614 C573 0.930 . S
H615 C574 0.930 . S
H616 C578 0.929 . S
H617 C580 0.930 . S
H618 C586 0.929 . S
H619 C587 0.930 . S
Li620 N637 1.990 . S
Li620 O680 1.956 . S
Li620 O681 1.970 . S
Li620 O682 1.961 . S
Li621 N645 1.990 . S
Li621 O680 1.970 . S
Li621 O681 1.956 . S
Li621 O683 1.961 . S
Li622 N667 1.990 . S
Li622 O680 1.961 . S
Li622 O682 1.956 . S
Li622 O683 1.970 . S
Li623 N673 1.990 . S
Li623 O681 1.961 . S
Li623 O682 1.970 . S
Li623 O683 1.956 . S
C624 C626 1.348 . S
C624 C627 1.356 . S
C624 O680 1.325 . S
N625 C628 1.314 . S
N625 C629 1.279 . S
C626 C624 1.348 . S
C626 C628 1.353 . S
C626 H684 0.929 . S
C627 C624 1.356 . S
C627 C629 1.358 . S
C627 H685 0.930 . S
C628 N625 1.314 . S
C628 C626 1.353 . S
C628 H686 0.930 . S
C629 N625 1.279 . S
C629 C627 1.358 . S
C629 H687 0.930 . S
C630 C633 1.348 . S
C630 C634 1.356 . S
C630 O681 1.325 . S
C631 N632 1.279 . S
C631 C634 1.358 . S
C631 H688 0.930 . S
N632 C631 1.279 . S
N632 C635 1.314 . S
C633 C630 1.348 . S
C633 C635 1.353 . S
C633 H689 0.929 . S
C634 C630 1.356 . S
C634 C631 1.358 . S
C634 H690 0.930 . S
C635 N632 1.314 . S
C635 C633 1.353 . S
C635 H691 0.930 . S
C636 N637 1.314 . S
C636 C641 1.353 . S
C636 H642 0.930 . S
N637 Li620 1.990 . S
N637 C636 1.314 . S
N637 C639 1.279 . S
C638 C639 1.358 . S
C638 C640 1.356 . S
C638 H692 0.930 . S
C639 N637 1.279 . S
C639 C638 1.358 . S
C639 H643 0.930 . S
C640 C638 1.356 . S
C640 C641 1.348 . S
C641 C636 1.353 . S
C641 C640 1.348 . S
C641 H693 0.929 . S
H642 C636 0.930 . S
H643 C639 0.930 . S
C644 N645 1.314 . S
C644 C646 1.353 . S
C644 H650 0.930 . S
N645 Li621 1.990 . S
N645 C644 1.314 . S
N645 C648 1.279 . S
C646 C644 1.353 . S
C646 C649 1.348 . S
C646 H694 0.929 . S
C647 C648 1.358 . S
C647 C649 1.356 . S
C647 H695 0.930 . S
C648 N645 1.279 . S
C648 C647 1.358 . S
C648 H651 0.930 . S
C649 C646 1.348 . S
C649 C647 1.356 . S
H650 C644 0.930 . S
H651 C648 0.930 . S
C652 C654 1.348 . S
C652 C655 1.356 . S
C652 O682 1.325 . S
N653 C656 1.314 . S
N653 C657 1.279 . S
C654 C652 1.348 . S
C654 C656 1.353 . S
C654 H696 0.929 . S
C655 C652 1.356 . S
C655 C657 1.358 . S
C655 H697 0.930 . S
C656 N653 1.314 . S
C656 C654 1.353 . S
C656 H698 0.930 . S
C657 N653 1.279 . S
C657 C655 1.358 . S
C657 H699 0.930 . S
C658 C659 1.348 . S
C658 C660 1.356 . S
C658 O683 1.325 . S
C659 C658 1.348 . S
C659 C661 1.353 . S
C659 H700 0.929 . S
C660 C658 1.356 . S
C660 C662 1.358 . S
C660 H701 0.930 . S
C661 C659 1.353 . S
C661 N663 1.314 . S
C661 H702 0.930 . S
C662 C660 1.358 . S
C662 N663 1.279 . S
C662 H703 0.930 . S
N663 C661 1.314 . S
N663 C662 1.279 . S
C664 C666 1.353 . S
C664 N667 1.314 . S
C664 H670 0.930 . S
C665 N667 1.279 . S
C665 C668 1.358 . S
C665 H671 0.930 . S
C666 C664 1.353 . S
C666 C669 1.348 . S
C666 H704 0.929 . S
N667 Li622 1.990 . S
N667 C664 1.314 . S
N667 C665 1.279 . S
C668 C665 1.358 . S
C668 C669 1.356 . S
C668 H705 0.930 . S
C669 C666 1.348 . S
C669 C668 1.356 . S
H670 C664 0.930 . S
H671 C665 0.930 . S
C672 N673 1.314 . S
C672 C674 1.353 . S
C672 H678 0.930 . S
N673 Li623 1.990 . S
N673 C672 1.314 . S
N673 C676 1.279 . S
C674 C672 1.353 . S
C674 C677 1.348 . S
C674 H706 0.929 . S
C675 C676 1.358 . S
C675 C677 1.356 . S
C675 H707 0.930 . S
C676 N673 1.279 . S
C676 C675 1.358 . S
C676 H679 0.930 . S
C677 C674 1.348 . S
C677 C675 1.356 . S
H678 C672 0.930 . S
H679 C676 0.930 . S
O680 Li620 1.956 . S
O680 Li621 1.970 . S
O680 Li622 1.961 . S
O680 C624 1.325 . S
O681 Li620 1.970 . S
O681 Li621 1.956 . S
O681 Li623 1.961 . S
O681 C630 1.325 . S
O682 Li620 1.961 . S
O682 Li622 1.956 . S
O682 Li623 1.970 . S
O682 C652 1.325 . S
O683 Li621 1.961 . S
O683 Li622 1.970 . S
O683 Li623 1.956 . S
O683 C658 1.325 . S
H684 C626 0.929 . S
H685 C627 0.930 . S
H686 C628 0.930 . S
H687 C629 0.930 . S
H688 C631 0.930 . S
H689 C633 0.929 . S
H690 C634 0.930 . S
H691 C635 0.930 . S
H692 C638 0.930 . S
H693 C641 0.929 . S
H694 C646 0.929 . S
H695 C647 0.930 . S
H696 C654 0.929 . S
H697 C655 0.930 . S
H698 C656 0.930 . S
H699 C657 0.930 . S
H700 C659 0.929 . S
H701 C660 0.930 . S
H702 C661 0.930 . S
H703 C662 0.930 . S
H704 C666 0.929 . S
H705 C668 0.930 . S
H706 C674 0.929 . S
H707 C675 0.930 . S
Li708 N725 1.990 . S
Li708 O768 1.956 . S
Li708 O769 1.970 . S
Li708 O770 1.961 . S
Li709 N733 1.990 . S
Li709 O768 1.970 . S
Li709 O769 1.956 . S
Li709 O771 1.961 . S
Li710 N755 1.990 . S
Li710 O768 1.961 . S
Li710 O770 1.956 . S
Li710 O771 1.970 . S
Li711 N761 1.990 . S
Li711 O769 1.961 . S
Li711 O770 1.970 . S
Li711 O771 1.956 . S
C712 C714 1.348 . S
C712 C715 1.356 . S
C712 O768 1.325 . S
N713 C716 1.314 . S
N713 C717 1.279 . S
C714 C712 1.348 . S
C714 C716 1.353 . S
C714 H772 0.929 . S
C715 C712 1.356 . S
C715 C717 1.358 . S
C715 H773 0.930 . S
C716 N713 1.314 . S
C716 C714 1.353 . S
C716 H774 0.930 . S
C717 N713 1.279 . S
C717 C715 1.358 . S
C717 H775 0.930 . S
C718 C721 1.348 . S
C718 C722 1.356 . S
C718 O769 1.325 . S
C719 N720 1.279 . S
C719 C722 1.358 . S
C719 H776 0.930 . S
N720 C719 1.279 . S
N720 C723 1.314 . S
C721 C718 1.348 . S
C721 C723 1.353 . S
C721 H777 0.929 . S
C722 C718 1.356 . S
C722 C719 1.358 . S
C722 H778 0.930 . S
C723 N720 1.314 . S
C723 C721 1.353 . S
C723 H779 0.930 . S
C724 N725 1.314 . S
C724 C729 1.353 . S
C724 H730 0.930 . S
N725 Li708 1.990 . S
N725 C724 1.314 . S
N725 C727 1.279 . S
C726 C727 1.358 . S
C726 C728 1.356 . S
C726 H780 0.930 . S
C727 N725 1.279 . S
C727 C726 1.358 . S
C727 H731 0.930 . S
C728 C726 1.356 . S
C728 C729 1.348 . S
C729 C724 1.353 . S
C729 C728 1.348 . S
C729 H781 0.929 . S
H730 C724 0.930 . S
H731 C727 0.930 . S
C732 N733 1.314 . S
C732 C734 1.353 . S
C732 H738 0.930 . S
N733 Li709 1.990 . S
N733 C732 1.314 . S
N733 C736 1.279 . S
C734 C732 1.353 . S
C734 C737 1.348 . S
C734 H782 0.929 . S
C735 C736 1.358 . S
C735 C737 1.356 . S
C735 H783 0.930 . S
C736 N733 1.279 . S
C736 C735 1.358 . S
C736 H739 0.930 . S
C737 C734 1.348 . S
C737 C735 1.356 . S
H738 C732 0.930 . S
H739 C736 0.930 . S
C740 C742 1.348 . S
C740 C743 1.356 . S
C740 O770 1.325 . S
N741 C744 1.314 . S
N741 C745 1.279 . S
C742 C740 1.348 . S
C742 C744 1.353 . S
C742 H784 0.929 . S
C743 C740 1.356 . S
C743 C745 1.358 . S
C743 H785 0.930 . S
C744 N741 1.314 . S
C744 C742 1.353 . S
C744 H786 0.930 . S
C745 N741 1.279 . S
C745 C743 1.358 . S
C745 H787 0.930 . S
C746 C747 1.348 . S
C746 C748 1.356 . S
C746 O771 1.325 . S
C747 C746 1.348 . S
C747 C749 1.353 . S
C747 H788 0.929 . S
C748 C746 1.356 . S
C748 C750 1.358 . S
C748 H789 0.930 . S
C749 C747 1.353 . S
C749 N751 1.314 . S
C749 H790 0.930 . S
C750 C748 1.358 . S
C750 N751 1.279 . S
C750 H791 0.930 . S
N751 C749 1.314 . S
N751 C750 1.279 . S
C752 C754 1.353 . S
C752 N755 1.314 . S
C752 H758 0.930 . S
C753 N755 1.279 . S
C753 C756 1.358 . S
C753 H759 0.930 . S
C754 C752 1.353 . S
C754 C757 1.348 . S
C754 H792 0.929 . S
N755 Li710 1.990 . S
N755 C752 1.314 . S
N755 C753 1.279 . S
C756 C753 1.358 . S
C756 C757 1.356 . S
C756 H793 0.930 . S
C757 C754 1.348 . S
C757 C756 1.356 . S
H758 C752 0.930 . S
H759 C753 0.930 . S
C760 N761 1.314 . S
C760 C762 1.353 . S
C760 H766 0.930 . S
N761 Li711 1.990 . S
N761 C760 1.314 . S
N761 C764 1.279 . S
C762 C760 1.353 . S
C762 C765 1.348 . S
C762 H794 0.929 . S
C763 C764 1.358 . S
C763 C765 1.356 . S
C763 H795 0.930 . S
C764 N761 1.279 . S
C764 C763 1.358 . S
C764 H767 0.930 . S
C765 C762 1.348 . S
C765 C763 1.356 . S
H766 C760 0.930 . S
H767 C764 0.930 . S
O768 Li708 1.956 . S
O768 Li709 1.970 . S
O768 Li710 1.961 . S
O768 C712 1.325 . S
O769 Li708 1.970 . S
O769 Li709 1.956 . S
O769 Li711 1.961 . S
O769 C718 1.325 . S
O770 Li708 1.961 . S
O770 Li710 1.956 . S
O770 Li711 1.970 . S
O770 C740 1.325 . S
O771 Li709 1.961 . S
O771 Li710 1.970 . S
O771 Li711 1.956 . S
O771 C746 1.325 . S
H772 C714 0.929 . S
H773 C715 0.930 . S
H774 C716 0.930 . S
H775 C717 0.930 . S
H776 C719 0.930 . S
H777 C721 0.929 . S
H778 C722 0.930 . S
H779 C723 0.930 . S
H780 C726 0.930 . S
H781 C729 0.929 . S
H782 C734 0.929 . S
H783 C735 0.930 . S
H784 C742 0.929 . S
H785 C743 0.930 . S
H786 C744 0.930 . S
H787 C745 0.930 . S
H788 C747 0.929 . S
H789 C748 0.930 . S
H790 C749 0.930 . S
H791 C750 0.930 . S
H792 C754 0.929 . S
H793 C756 0.930 . S
H794 C762 0.929 . S
H795 C763 0.930 . S
Li796 N813 1.990 . S
Li796 O856 1.956 . S
Li796 O857 1.970 . S
Li796 O858 1.961 . S
Li797 N821 1.990 . S
Li797 O856 1.970 . S
Li797 O857 1.956 . S
Li797 O859 1.961 . S
Li798 N843 1.990 . S
Li798 O856 1.961 . S
Li798 O858 1.956 . S
Li798 O859 1.970 . S
Li799 N849 1.990 . S
Li799 O857 1.961 . S
Li799 O858 1.970 . S
Li799 O859 1.956 . S
C800 C802 1.348 . S
C800 C803 1.356 . S
C800 O856 1.325 . S
N801 C804 1.314 . S
N801 C805 1.279 . S
C802 C800 1.348 . S
C802 C804 1.353 . S
C802 H860 0.929 . S
C803 C800 1.356 . S
C803 C805 1.358 . S
C803 H861 0.930 . S
C804 N801 1.314 . S
C804 C802 1.353 . S
C804 H862 0.930 . S
C805 N801 1.279 . S
C805 C803 1.358 . S
C805 H863 0.930 . S
C806 C809 1.348 . S
C806 C810 1.356 . S
C806 O857 1.325 . S
C807 N808 1.279 . S
C807 C810 1.358 . S
C807 H864 0.930 . S
N808 C807 1.279 . S
N808 C811 1.314 . S
C809 C806 1.348 . S
C809 C811 1.353 . S
C809 H865 0.929 . S
C810 C806 1.356 . S
C810 C807 1.358 . S
C810 H866 0.930 . S
C811 N808 1.314 . S
C811 C809 1.353 . S
C811 H867 0.930 . S
C812 N813 1.314 . S
C812 C817 1.353 . S
C812 H818 0.930 . S
N813 Li796 1.990 . S
N813 C812 1.314 . S
N813 C815 1.279 . S
C814 C815 1.358 . S
C814 C816 1.356 . S
C814 H868 0.930 . S
C815 N813 1.279 . S
C815 C814 1.358 . S
C815 H819 0.930 . S
C816 C814 1.356 . S
C816 C817 1.348 . S
C817 C812 1.353 . S
C817 C816 1.348 . S
C817 H869 0.929 . S
H818 C812 0.930 . S
H819 C815 0.930 . S
C820 N821 1.314 . S
C820 C822 1.353 . S
C820 H826 0.930 . S
N821 Li797 1.990 . S
N821 C820 1.314 . S
N821 C824 1.279 . S
C822 C820 1.353 . S
C822 C825 1.348 . S
C822 H870 0.929 . S
C823 C824 1.358 . S
C823 C825 1.356 . S
C823 H871 0.930 . S
C824 N821 1.279 . S
C824 C823 1.358 . S
C824 H827 0.930 . S
C825 C822 1.348 . S
C825 C823 1.356 . S
H826 C820 0.930 . S
H827 C824 0.930 . S
C828 C830 1.348 . S
C828 C831 1.356 . S
C828 O858 1.325 . S
N829 C832 1.314 . S
N829 C833 1.279 . S
C830 C828 1.348 . S
C830 C832 1.353 . S
C830 H872 0.929 . S
C831 C828 1.356 . S
C831 C833 1.358 . S
C831 H873 0.930 . S
C832 N829 1.314 . S
C832 C830 1.353 . S
C832 H874 0.930 . S
C833 N829 1.279 . S
C833 C831 1.358 . S
C833 H875 0.930 . S
C834 C835 1.348 . S
C834 C836 1.356 . S
C834 O859 1.325 . S
C835 C834 1.348 . S
C835 C837 1.353 . S
C835 H876 0.929 . S
C836 C834 1.356 . S
C836 C838 1.358 . S
C836 H877 0.930 . S
C837 C835 1.353 . S
C837 N839 1.314 . S
C837 H878 0.930 . S
C838 C836 1.358 . S
C838 N839 1.279 . S
C838 H879 0.930 . S
N839 C837 1.314 . S
N839 C838 1.279 . S
C840 C842 1.353 . S
C840 N843 1.314 . S
C840 H846 0.930 . S
C841 N843 1.279 . S
C841 C844 1.358 . S
C841 H847 0.930 . S
C842 C840 1.353 . S
C842 C845 1.348 . S
C842 H880 0.929 . S
N843 Li798 1.990 . S
N843 C840 1.314 . S
N843 C841 1.279 . S
C844 C841 1.358 . S
C844 C845 1.356 . S
C844 H881 0.930 . S
C845 C842 1.348 . S
C845 C844 1.356 . S
H846 C840 0.930 . S
H847 C841 0.930 . S
C848 N849 1.314 . S
C848 C850 1.353 . S
C848 H854 0.930 . S
N849 Li799 1.990 . S
N849 C848 1.314 . S
N849 C852 1.279 . S
C850 C848 1.353 . S
C850 C853 1.348 . S
C850 H882 0.929 . S
C851 C852 1.358 . S
C851 C853 1.356 . S
C851 H883 0.930 . S
C852 N849 1.279 . S
C852 C851 1.358 . S
C852 H855 0.930 . S
C853 C850 1.348 . S
C853 C851 1.356 . S
H854 C848 0.930 . S
H855 C852 0.930 . S
O856 Li796 1.956 . S
O856 Li797 1.970 . S
O856 Li798 1.961 . S
O856 C800 1.325 . S
O857 Li796 1.970 . S
O857 Li797 1.956 . S
O857 Li799 1.961 . S
O857 C806 1.325 . S
O858 Li796 1.961 . S
O858 Li798 1.956 . S
O858 Li799 1.970 . S
O858 C828 1.325 . S
O859 Li797 1.961 . S
O859 Li798 1.970 . S
O859 Li799 1.956 . S
O859 C834 1.325 . S
H860 C802 0.929 . S
H861 C803 0.930 . S
H862 C804 0.930 . S
H863 C805 0.930 . S
H864 C807 0.930 . S
H865 C809 0.929 . S
H866 C810 0.930 . S
H867 C811 0.930 . S
H868 C814 0.930 . S
H869 C817 0.929 . S
H870 C822 0.929 . S
H871 C823 0.930 . S
H872 C830 0.929 . S
H873 C831 0.930 . S
H874 C832 0.930 . S
H875 C833 0.930 . S
H876 C835 0.929 . S
H877 C836 0.930 . S
H878 C837 0.930 . S
H879 C838 0.930 . S
H880 C842 0.929 . S
H881 C844 0.930 . S
H882 C850 0.929 . S
H883 C851 0.930 . S
Li884 N901 1.990 . S
Li884 O944 1.956 . S
Li884 O945 1.970 . S
Li884 O946 1.961 . S
Li885 N909 1.990 . S
Li885 O944 1.970 . S
Li885 O945 1.956 . S
Li885 O947 1.961 . S
Li886 N931 1.990 . S
Li886 O944 1.961 . S
Li886 O946 1.956 . S
Li886 O947 1.970 . S
Li887 N937 1.990 . S
Li887 O945 1.961 . S
Li887 O946 1.970 . S
Li887 O947 1.956 . S
C888 C890 1.348 . S
C888 C891 1.356 . S
C888 O944 1.325 . S
N889 C892 1.314 . S
N889 C893 1.279 . S
C890 C888 1.348 . S
C890 C892 1.353 . S
C890 H948 0.929 . S
C891 C888 1.356 . S
C891 C893 1.358 . S
C891 H949 0.930 . S
C892 N889 1.314 . S
C892 C890 1.353 . S
C892 H950 0.930 . S
C893 N889 1.279 . S
C893 C891 1.358 . S
C893 H951 0.930 . S
C894 C897 1.348 . S
C894 C898 1.356 . S
C894 O945 1.325 . S
C895 N896 1.279 . S
C895 C898 1.358 . S
C895 H952 0.930 . S
N896 C895 1.279 . S
N896 C899 1.314 . S
C897 C894 1.348 . S
C897 C899 1.353 . S
C897 H953 0.929 . S
C898 C894 1.356 . S
C898 C895 1.358 . S
C898 H954 0.930 . S
C899 N896 1.314 . S
C899 C897 1.353 . S
C899 H955 0.930 . S
C900 N901 1.314 . S
C900 C905 1.353 . S
C900 H906 0.930 . S
N901 Li884 1.990 . S
N901 C900 1.314 . S
N901 C903 1.279 . S
C902 C903 1.358 . S
C902 C904 1.356 . S
C902 H956 0.930 . S
C903 N901 1.279 . S
C903 C902 1.358 . S
C903 H907 0.930 . S
C904 C902 1.356 . S
C904 C905 1.348 . S
C905 C900 1.353 . S
C905 C904 1.348 . S
C905 H957 0.929 . S
H906 C900 0.930 . S
H907 C903 0.930 . S
C908 N909 1.314 . S
C908 C910 1.353 . S
C908 H914 0.930 . S
N909 Li885 1.990 . S
N909 C908 1.314 . S
N909 C912 1.279 . S
C910 C908 1.353 . S
C910 C913 1.348 . S
C910 H958 0.929 . S
C911 C912 1.358 . S
C911 C913 1.356 . S
C911 H959 0.930 . S
C912 N909 1.279 . S
C912 C911 1.358 . S
C912 H915 0.930 . S
C913 C910 1.348 . S
C913 C911 1.356 . S
H914 C908 0.930 . S
H915 C912 0.930 . S
C916 C918 1.348 . S
C916 C919 1.356 . S
C916 O946 1.325 . S
N917 C920 1.314 . S
N917 C921 1.279 . S
C918 C916 1.348 . S
C918 C920 1.353 . S
C918 H960 0.929 . S
C919 C916 1.356 . S
C919 C921 1.358 . S
C919 H961 0.930 . S
C920 N917 1.314 . S
C920 C918 1.353 . S
C920 H962 0.930 . S
C921 N917 1.279 . S
C921 C919 1.358 . S
C921 H963 0.930 . S
C922 C923 1.348 . S
C922 C924 1.356 . S
C922 O947 1.325 . S
C923 C922 1.348 . S
C923 C925 1.353 . S
C923 H964 0.929 . S
C924 C922 1.356 . S
C924 C926 1.358 . S
C924 H965 0.930 . S
C925 C923 1.353 . S
C925 N927 1.314 . S
C925 H966 0.930 . S
C926 C924 1.358 . S
C926 N927 1.279 . S
C926 H967 0.930 . S
N927 C925 1.314 . S
N927 C926 1.279 . S
C928 C930 1.353 . S
C928 N931 1.314 . S
C928 H934 0.930 . S
C929 N931 1.279 . S
C929 C932 1.358 . S
C929 H935 0.930 . S
C930 C928 1.353 . S
C930 C933 1.348 . S
C930 H968 0.929 . S
N931 Li886 1.990 . S
N931 C928 1.314 . S
N931 C929 1.279 . S
C932 C929 1.358 . S
C932 C933 1.356 . S
C932 H969 0.930 . S
C933 C930 1.348 . S
C933 C932 1.356 . S
H934 C928 0.930 . S
H935 C929 0.930 . S
C936 N937 1.314 . S
C936 C938 1.353 . S
C936 H942 0.930 . S
N937 Li887 1.990 . S
N937 C936 1.314 . S
N937 C940 1.279 . S
C938 C936 1.353 . S
C938 C941 1.348 . S
C938 H970 0.929 . S
C939 C940 1.358 . S
C939 C941 1.356 . S
C939 H971 0.930 . S
C940 N937 1.279 . S
C940 C939 1.358 . S
C940 H943 0.930 . S
C941 C938 1.348 . S
C941 C939 1.356 . S
H942 C936 0.930 . S
H943 C940 0.930 . S
O944 Li884 1.956 . S
O944 Li885 1.970 . S
O944 Li886 1.961 . S
O944 C888 1.325 . S
O945 Li884 1.970 . S
O945 Li885 1.956 . S
O945 Li887 1.961 . S
O945 C894 1.325 . S
O946 Li884 1.961 . S
O946 Li886 1.956 . S
O946 Li887 1.970 . S
O946 C916 1.325 . S
O947 Li885 1.961 . S
O947 Li886 1.970 . S
O947 Li887 1.956 . S
O947 C922 1.325 . S
H948 C890 0.929 . S
H949 C891 0.930 . S
H950 C892 0.930 . S
H951 C893 0.930 . S
H952 C895 0.930 . S
H953 C897 0.929 . S
H954 C898 0.930 . S
H955 C899 0.930 . S
H956 C902 0.930 . S
H957 C905 0.929 . S
H958 C910 0.929 . S
H959 C911 0.930 . S
H960 C918 0.929 . S
H961 C919 0.930 . S
H962 C920 0.930 . S
H963 C921 0.930 . S
H964 C923 0.929 . S
H965 C924 0.930 . S
H966 C925 0.930 . S
H967 C926 0.930 . S
H968 C930 0.929 . S
H969 C932 0.930 . S
H970 C938 0.929 . S
H971 C939 0.930 . S
H972 C990 0.951 . S
H973 C992 0.951 . S
H974 C994 0.950 . S
H975 C995 0.950 . S
H976 C997 0.950 . S
H977 C1000 0.950 . S
H978 C1001 0.950 . S
H979 C1003 0.950 . S
H980 C1004 0.950 . S
H981 C1005 0.951 . S
H982 C1007 0.951 . S
H983 C1009 0.950 . S
H984 C1010 0.950 . S
H985 C1012 0.950 . S
H986 C1015 0.950 . S
H987 C1016 0.950 . S
H988 C1018 0.950 . S
H989 C1019 0.950 . S
C990 H972 0.951 . S
C990 C991 1.366 . S
C990 C992 1.388 . S
C991 C990 1.366 . S
C991 C995 1.385 . S
C992 H973 0.951 . S
C992 C990 1.388 . S
C992 C993 1.366 . S
C993 C992 1.366 . S
C993 C994 1.414 . S
C993 C996 1.499 . S
C994 H974 0.950 . S
C994 C993 1.414 . S
C994 C995 1.374 . S
C995 H975 0.950 . S
C995 C991 1.385 . S
C995 C994 1.374 . S
C996 C993 1.499 . S
C996 C997 1.373 . S
C996 C998 1.389 . S
C997 H976 0.950 . S
C997 C996 1.373 . S
C997 C1013 1.377 . S
C998 C996 1.389 . S
C998 C999 1.524 . S
C998 C1012 1.377 . S
C999 C998 1.524 . S
C999 C1000 1.397 . S
C999 C1004 1.363 . S
C1000 H977 0.950 . S
C1000 C999 1.397 . S
C1000 C1001 1.334 . S
C1001 H978 0.950 . S
C1001 C1000 1.334 . S
C1001 C1002 1.287 . S
C1002 C1001 1.287 . S
C1002 C1003 1.524 . S
C1002 H1021 0.913 . S
C1003 H979 0.950 . S
C1003 C1002 1.524 . S
C1003 C1004 1.415 . S
C1004 H980 0.950 . S
C1004 C999 1.363 . S
C1004 C1003 1.415 . S
C1005 H981 0.951 . S
C1005 C1006 1.366 . S
C1005 C1007 1.388 . S
C1006 C1005 1.366 . S
C1006 C1010 1.385 . S
C1007 H982 0.951 . S
C1007 C1005 1.388 . S
C1007 C1008 1.366 . S
C1008 C1007 1.366 . S
C1008 C1009 1.414 . S
C1008 C1011 1.499 . S
C1009 H983 0.950 . S
C1009 C1008 1.414 . S
C1009 C1010 1.374 . S
C1010 H984 0.950 . S
C1010 C1006 1.385 . S
C1010 C1009 1.374 . S
C1011 C1008 1.499 . S
C1011 C1012 1.373 . S
C1011 C1013 1.389 . S
C1012 H985 0.950 . S
C1012 C998 1.377 . S
C1012 C1011 1.373 . S
C1013 C997 1.377 . S
C1013 C1011 1.389 . S
C1013 C1014 1.524 . S
C1014 C1013 1.524 . S
C1014 C1015 1.397 . S
C1014 C1019 1.363 . S
C1015 H986 0.950 . S
C1015 C1014 1.397 . S
C1015 C1016 1.334 . S
C1016 H987 0.950 . S
C1016 C1015 1.334 . S
C1016 C1017 1.287 . S
C1017 C1016 1.287 . S
C1017 C1018 1.524 . S
C1017 H1020 0.999 . S
C1018 H988 0.950 . S
C1018 C1017 1.524 . S
C1018 C1019 1.415 . S
C1019 H989 0.950 . S
C1019 C1014 1.363 . S
C1019 C1018 1.415 . S
H1020 C1017 0.999 . S
H1021 C1002 0.913 . S
H1022 C1040 0.951 . S
H1023 C1042 0.951 . S
H1024 C1044 0.950 . S
H1025 C1045 0.950 . S
H1026 C1047 0.950 . S
H1027 C1050 0.950 . S
H1028 C1051 0.950 . S
H1029 C1053 0.950 . S
H1030 C1054 0.950 . S
H1031 C1055 0.951 . S
H1032 C1057 0.951 . S
H1033 C1059 0.950 . S
H1034 C1060 0.950 . S
H1035 C1062 0.950 . S
H1036 C1065 0.950 . S
H1037 C1066 0.950 . S
H1038 C1068 0.950 . S
H1039 C1069 0.950 . S
C1040 H1022 0.951 . S
C1040 C1041 1.366 . S
C1040 C1042 1.388 . S
C1041 C1040 1.366 . S
C1041 C1045 1.385 . S
C1042 H1023 0.951 . S
C1042 C1040 1.388 . S
C1042 C1043 1.366 . S
C1043 C1042 1.366 . S
C1043 C1044 1.414 . S
C1043 C1046 1.499 . S
C1044 H1024 0.950 . S
C1044 C1043 1.414 . S
C1044 C1045 1.374 . S
C1045 H1025 0.950 . S
C1045 C1041 1.385 . S
C1045 C1044 1.374 . S
C1046 C1043 1.499 . S
C1046 C1047 1.373 . S
C1046 C1048 1.389 . S
C1047 H1026 0.950 . S
C1047 C1046 1.373 . S
C1047 C1063 1.377 . S
C1048 C1046 1.389 . S
C1048 C1049 1.524 . S
C1048 C1062 1.377 . S
C1049 C1048 1.524 . S
C1049 C1050 1.397 . S
C1049 C1054 1.363 . S
C1050 H1027 0.950 . S
C1050 C1049 1.397 . S
C1050 C1051 1.334 . S
C1051 H1028 0.950 . S
C1051 C1050 1.334 . S
C1051 C1052 1.287 . S
C1052 C1051 1.287 . S
C1052 C1053 1.524 . S
C1052 H1071 0.913 . S
C1053 H1029 0.950 . S
C1053 C1052 1.524 . S
C1053 C1054 1.415 . S
C1054 H1030 0.950 . S
C1054 C1049 1.363 . S
C1054 C1053 1.415 . S
C1055 H1031 0.951 . S
C1055 C1056 1.366 . S
C1055 C1057 1.388 . S
C1056 C1055 1.366 . S
C1056 C1060 1.385 . S
C1057 H1032 0.951 . S
C1057 C1055 1.388 . S
C1057 C1058 1.366 . S
C1058 C1057 1.366 . S
C1058 C1059 1.414 . S
C1058 C1061 1.499 . S
C1059 H1033 0.950 . S
C1059 C1058 1.414 . S
C1059 C1060 1.374 . S
C1060 H1034 0.950 . S
C1060 C1056 1.385 . S
C1060 C1059 1.374 . S
C1061 C1058 1.499 . S
C1061 C1062 1.373 . S
C1061 C1063 1.389 . S
C1062 H1035 0.950 . S
C1062 C1048 1.377 . S
C1062 C1061 1.373 . S
C1063 C1047 1.377 . S
C1063 C1061 1.389 . S
C1063 C1064 1.524 . S
C1064 C1063 1.524 . S
C1064 C1065 1.397 . S
C1064 C1069 1.363 . S
C1065 H1036 0.950 . S
C1065 C1064 1.397 . S
C1065 C1066 1.334 . S
C1066 H1037 0.950 . S
C1066 C1065 1.334 . S
C1066 C1067 1.287 . S
C1067 C1066 1.287 . S
C1067 C1068 1.524 . S
C1067 H1070 0.999 . S
C1068 H1038 0.950 . S
C1068 C1067 1.524 . S
C1068 C1069 1.415 . S
C1069 H1039 0.950 . S
C1069 C1064 1.363 . S
C1069 C1068 1.415 . S
H1070 C1067 0.999 . S
H1071 C1052 0.913 . S
H1072 C1090 0.951 . S
H1073 C1092 0.951 . S
H1074 C1094 0.950 . S
H1075 C1095 0.950 . S
H1076 C1097 0.950 . S
H1077 C1100 0.950 . S
H1078 C1101 0.950 . S
H1079 C1103 0.950 . S
H1080 C1104 0.950 . S
H1081 C1105 0.951 . S
H1082 C1107 0.951 . S
H1083 C1109 0.950 . S
H1084 C1110 0.950 . S
H1085 C1112 0.950 . S
H1086 C1115 0.950 . S
H1087 C1116 0.950 . S
H1088 C1118 0.950 . S
H1089 C1119 0.950 . S
C1090 H1072 0.951 . S
C1090 C1091 1.366 . S
C1090 C1092 1.388 . S
C1091 C1090 1.366 . S
C1091 C1095 1.385 . S
C1092 H1073 0.951 . S
C1092 C1090 1.388 . S
C1092 C1093 1.366 . S
C1093 C1092 1.366 . S
C1093 C1094 1.414 . S
C1093 C1096 1.499 . S
C1094 H1074 0.950 . S
C1094 C1093 1.414 . S
C1094 C1095 1.374 . S
C1095 H1075 0.950 . S
C1095 C1091 1.385 . S
C1095 C1094 1.374 . S
C1096 C1093 1.499 . S
C1096 C1097 1.373 . S
C1096 C1098 1.389 . S
C1097 H1076 0.950 . S
C1097 C1096 1.373 . S
C1097 C1113 1.377 . S
C1098 C1096 1.389 . S
C1098 C1099 1.524 . S
C1098 C1112 1.377 . S
C1099 C1098 1.524 . S
C1099 C1100 1.397 . S
C1099 C1104 1.363 . S
C1100 H1077 0.950 . S
C1100 C1099 1.397 . S
C1100 C1101 1.334 . S
C1101 H1078 0.950 . S
C1101 C1100 1.334 . S
C1101 C1102 1.287 . S
C1102 C1101 1.287 . S
C1102 C1103 1.524 . S
C1102 H1121 0.913 . S
C1103 H1079 0.950 . S
C1103 C1102 1.524 . S
C1103 C1104 1.415 . S
C1104 H1080 0.950 . S
C1104 C1099 1.363 . S
C1104 C1103 1.415 . S
C1105 H1081 0.951 . S
C1105 C1106 1.366 . S
C1105 C1107 1.388 . S
C1106 C1105 1.366 . S
C1106 C1110 1.385 . S
C1107 H1082 0.951 . S
C1107 C1105 1.388 . S
C1107 C1108 1.366 . S
C1108 C1107 1.366 . S
C1108 C1109 1.414 . S
C1108 C1111 1.499 . S
C1109 H1083 0.950 . S
C1109 C1108 1.414 . S
C1109 C1110 1.374 . S
C1110 H1084 0.950 . S
C1110 C1106 1.385 . S
C1110 C1109 1.374 . S
C1111 C1108 1.499 . S
C1111 C1112 1.373 . S
C1111 C1113 1.389 . S
C1112 H1085 0.950 . S
C1112 C1098 1.377 . S
C1112 C1111 1.373 . S
C1113 C1097 1.377 . S
C1113 C1111 1.389 . S
C1113 C1114 1.524 . S
C1114 C1113 1.524 . S
C1114 C1115 1.397 . S
C1114 C1119 1.363 . S
C1115 H1086 0.950 . S
C1115 C1114 1.397 . S
C1115 C1116 1.334 . S
C1116 H1087 0.950 . S
C1116 C1115 1.334 . S
C1116 C1117 1.287 . S
C1117 C1116 1.287 . S
C1117 C1118 1.524 . S
C1117 H1120 0.999 . S
C1118 H1088 0.950 . S
C1118 C1117 1.524 . S
C1118 C1119 1.415 . S
C1119 H1089 0.950 . S
C1119 C1114 1.363 . S
C1119 C1118 1.415 . S
H1120 C1117 0.999 . S
H1121 C1102 0.913 . S
H1122 C1140 0.951 . S
H1123 C1142 0.951 . S
H1124 C1144 0.950 . S
H1125 C1145 0.950 . S
H1126 C1147 0.950 . S
H1127 C1150 0.950 . S
H1128 C1151 0.950 . S
H1129 C1153 0.950 . S
H1130 C1154 0.950 . S
H1131 C1155 0.951 . S
H1132 C1157 0.951 . S
H1133 C1159 0.950 . S
H1134 C1160 0.950 . S
H1135 C1162 0.950 . S
H1136 C1165 0.950 . S
H1137 C1166 0.950 . S
H1138 C1168 0.950 . S
H1139 C1169 0.950 . S
C1140 H1122 0.951 . S
C1140 C1141 1.366 . S
C1140 C1142 1.388 . S
C1141 C1140 1.366 . S
C1141 C1145 1.385 . S
C1142 H1123 0.951 . S
C1142 C1140 1.388 . S
C1142 C1143 1.366 . S
C1143 C1142 1.366 . S
C1143 C1144 1.414 . S
C1143 C1146 1.499 . S
C1144 H1124 0.950 . S
C1144 C1143 1.414 . S
C1144 C1145 1.374 . S
C1145 H1125 0.950 . S
C1145 C1141 1.385 . S
C1145 C1144 1.374 . S
C1146 C1143 1.499 . S
C1146 C1147 1.373 . S
C1146 C1148 1.389 . S
C1147 H1126 0.950 . S
C1147 C1146 1.373 . S
C1147 C1163 1.377 . S
C1148 C1146 1.389 . S
C1148 C1149 1.524 . S
C1148 C1162 1.377 . S
C1149 C1148 1.524 . S
C1149 C1150 1.397 . S
C1149 C1154 1.363 . S
C1150 H1127 0.950 . S
C1150 C1149 1.397 . S
C1150 C1151 1.334 . S
C1151 H1128 0.950 . S
C1151 C1150 1.334 . S
C1151 C1152 1.287 . S
C1152 C1151 1.287 . S
C1152 C1153 1.524 . S
C1152 H1171 0.913 . S
C1153 H1129 0.950 . S
C1153 C1152 1.524 . S
C1153 C1154 1.415 . S
C1154 H1130 0.950 . S
C1154 C1149 1.363 . S
C1154 C1153 1.415 . S
C1155 H1131 0.951 . S
C1155 C1156 1.366 . S
C1155 C1157 1.388 . S
C1156 C1155 1.366 . S
C1156 C1160 1.385 . S
C1157 H1132 0.951 . S
C1157 C1155 1.388 . S
C1157 C1158 1.366 . S
C1158 C1157 1.366 . S
C1158 C1159 1.414 . S
C1158 C1161 1.499 . S
C1159 H1133 0.950 . S
C1159 C1158 1.414 . S
C1159 C1160 1.374 . S
C1160 H1134 0.950 . S
C1160 C1156 1.385 . S
C1160 C1159 1.374 . S
C1161 C1158 1.499 . S
C1161 C1162 1.373 . S
C1161 C1163 1.389 . S
C1162 H1135 0.950 . S
C1162 C1148 1.377 . S
C1162 C1161 1.373 . S
C1163 C1147 1.377 . S
C1163 C1161 1.389 . S
C1163 C1164 1.524 . S
C1164 C1163 1.524 . S
C1164 C1165 1.397 . S
C1164 C1169 1.363 . S
C1165 H1136 0.950 . S
C1165 C1164 1.397 . S
C1165 C1166 1.334 . S
C1166 H1137 0.950 . S
C1166 C1165 1.334 . S
C1166 C1167 1.287 . S
C1167 C1166 1.287 . S
C1167 C1168 1.524 . S
C1167 H1170 0.999 . S
C1168 H1138 0.950 . S
C1168 C1167 1.524 . S
C1168 C1169 1.415 . S
C1169 H1139 0.950 . S
C1169 C1164 1.363 . S
C1169 C1168 1.415 . S
H1170 C1167 0.999 . S
H1171 C1152 0.913 . S
H1172 C1190 0.951 . S
H1173 C1192 0.951 . S
H1174 C1194 0.950 . S
H1175 C1195 0.950 . S
H1176 C1197 0.950 . S
H1177 C1200 0.950 . S
H1178 C1201 0.950 . S
H1179 C1203 0.950 . S
H1180 C1204 0.950 . S
H1181 C1205 0.951 . S
H1182 C1207 0.951 . S
H1183 C1209 0.950 . S
H1184 C1210 0.950 . S
H1185 C1212 0.950 . S
H1186 C1215 0.950 . S
H1187 C1216 0.950 . S
H1188 C1218 0.950 . S
H1189 C1219 0.950 . S
C1190 H1172 0.951 . S
C1190 C1191 1.366 . S
C1190 C1192 1.388 . S
C1191 C1190 1.366 . S
C1191 C1195 1.385 . S
C1192 H1173 0.951 . S
C1192 C1190 1.388 . S
C1192 C1193 1.366 . S
C1193 C1192 1.366 . S
C1193 C1194 1.414 . S
C1193 C1196 1.499 . S
C1194 H1174 0.950 . S
C1194 C1193 1.414 . S
C1194 C1195 1.374 . S
C1195 H1175 0.950 . S
C1195 C1191 1.385 . S
C1195 C1194 1.374 . S
C1196 C1193 1.499 . S
C1196 C1197 1.373 . S
C1196 C1198 1.389 . S
C1197 H1176 0.950 . S
C1197 C1196 1.373 . S
C1197 C1213 1.377 . S
C1198 C1196 1.389 . S
C1198 C1199 1.524 . S
C1198 C1212 1.377 . S
C1199 C1198 1.524 . S
C1199 C1200 1.397 . S
C1199 C1204 1.363 . S
C1200 H1177 0.950 . S
C1200 C1199 1.397 . S
C1200 C1201 1.334 . S
C1201 H1178 0.950 . S
C1201 C1200 1.334 . S
C1201 C1202 1.287 . S
C1202 C1201 1.287 . S
C1202 C1203 1.524 . S
C1202 H1221 0.913 . S
C1203 H1179 0.950 . S
C1203 C1202 1.524 . S
C1203 C1204 1.415 . S
C1204 H1180 0.950 . S
C1204 C1199 1.363 . S
C1204 C1203 1.415 . S
C1205 H1181 0.951 . S
C1205 C1206 1.366 . S
C1205 C1207 1.388 . S
C1206 C1205 1.366 . S
C1206 C1210 1.385 . S
C1207 H1182 0.951 . S
C1207 C1205 1.388 . S
C1207 C1208 1.366 . S
C1208 C1207 1.366 . S
C1208 C1209 1.414 . S
C1208 C1211 1.499 . S
C1209 H1183 0.950 . S
C1209 C1208 1.414 . S
C1209 C1210 1.374 . S
C1210 H1184 0.950 . S
C1210 C1206 1.385 . S
C1210 C1209 1.374 . S
C1211 C1208 1.499 . S
C1211 C1212 1.373 . S
C1211 C1213 1.389 . S
C1212 H1185 0.950 . S
C1212 C1198 1.377 . S
C1212 C1211 1.373 . S
C1213 C1197 1.377 . S
C1213 C1211 1.389 . S
C1213 C1214 1.524 . S
C1214 C1213 1.524 . S
C1214 C1215 1.397 . S
C1214 C1219 1.363 . S
C1215 H1186 0.950 . S
C1215 C1214 1.397 . S
C1215 C1216 1.334 . S
C1216 H1187 0.950 . S
C1216 C1215 1.334 . S
C1216 C1217 1.287 . S
C1217 C1216 1.287 . S
C1217 C1218 1.524 . S
C1217 H1220 0.999 . S
C1218 H1188 0.950 . S
C1218 C1217 1.524 . S
C1218 C1219 1.415 . S
C1219 H1189 0.950 . S
C1219 C1214 1.363 . S
C1219 C1218 1.415 . S
H1220 C1217 0.999 . S
H1221 C1202 0.913 . S
H1222 C1240 0.951 . S
H1223 C1242 0.951 . S
H1224 C1244 0.950 . S
H1225 C1245 0.950 . S
H1226 C1247 0.950 . S
H1227 C1250 0.950 . S
H1228 C1251 0.950 . S
H1229 C1253 0.950 . S
H1230 C1254 0.950 . S
H1231 C1255 0.951 . S
H1232 C1257 0.951 . S
H1233 C1259 0.950 . S
H1234 C1260 0.950 . S
H1235 C1262 0.950 . S
H1236 C1265 0.950 . S
H1237 C1266 0.950 . S
H1238 C1268 0.950 . S
H1239 C1269 0.950 . S
C1240 H1222 0.951 . S
C1240 C1241 1.366 . S
C1240 C1242 1.388 . S
C1241 C1240 1.366 . S
C1241 C1245 1.385 . S
C1242 H1223 0.951 . S
C1242 C1240 1.388 . S
C1242 C1243 1.366 . S
C1243 C1242 1.366 . S
C1243 C1244 1.414 . S
C1243 C1246 1.499 . S
C1244 H1224 0.950 . S
C1244 C1243 1.414 . S
C1244 C1245 1.374 . S
C1245 H1225 0.950 . S
C1245 C1241 1.385 . S
C1245 C1244 1.374 . S
C1246 C1243 1.499 . S
C1246 C1247 1.373 . S
C1246 C1248 1.389 . S
C1247 H1226 0.950 . S
C1247 C1246 1.373 . S
C1247 C1263 1.377 . S
C1248 C1246 1.389 . S
C1248 C1249 1.524 . S
C1248 C1262 1.377 . S
C1249 C1248 1.524 . S
C1249 C1250 1.397 . S
C1249 C1254 1.363 . S
C1250 H1227 0.950 . S
C1250 C1249 1.397 . S
C1250 C1251 1.334 . S
C1251 H1228 0.950 . S
C1251 C1250 1.334 . S
C1251 C1252 1.287 . S
C1252 C1251 1.287 . S
C1252 C1253 1.524 . S
C1252 H1271 0.913 . S
C1253 H1229 0.950 . S
C1253 C1252 1.524 . S
C1253 C1254 1.415 . S
C1254 H1230 0.950 . S
C1254 C1249 1.363 . S
C1254 C1253 1.415 . S
C1255 H1231 0.951 . S
C1255 C1256 1.366 . S
C1255 C1257 1.388 . S
C1256 C1255 1.366 . S
C1256 C1260 1.385 . S
C1257 H1232 0.951 . S
C1257 C1255 1.388 . S
C1257 C1258 1.366 . S
C1258 C1257 1.366 . S
C1258 C1259 1.414 . S
C1258 C1261 1.499 . S
C1259 H1233 0.950 . S
C1259 C1258 1.414 . S
C1259 C1260 1.374 . S
C1260 H1234 0.950 . S
C1260 C1256 1.385 . S
C1260 C1259 1.374 . S
C1261 C1258 1.499 . S
C1261 C1262 1.373 . S
C1261 C1263 1.389 . S
C1262 H1235 0.950 . S
C1262 C1248 1.377 . S
C1262 C1261 1.373 . S
C1263 C1247 1.377 . S
C1263 C1261 1.389 . S
C1263 C1264 1.524 . S
C1264 C1263 1.524 . S
C1264 C1265 1.397 . S
C1264 C1269 1.363 . S
C1265 H1236 0.950 . S
C1265 C1264 1.397 . S
C1265 C1266 1.334 . S
C1266 H1237 0.950 . S
C1266 C1265 1.334 . S
C1266 C1267 1.287 . S
C1267 C1266 1.287 . S
C1267 C1268 1.524 . S
C1267 H1270 0.999 . S
C1268 H1238 0.950 . S
C1268 C1267 1.524 . S
C1268 C1269 1.415 . S
C1269 H1239 0.950 . S
C1269 C1264 1.363 . S
C1269 C1268 1.415 . S
H1270 C1267 0.999 . S
H1271 C1252 0.913 . S
H1272 C1290 0.951 . S
H1273 C1292 0.951 . S
H1274 C1294 0.950 . S
H1275 C1295 0.950 . S
H1276 C1297 0.950 . S
H1277 C1300 0.950 . S
H1278 C1301 0.950 . S
H1279 C1303 0.950 . S
H1280 C1304 0.950 . S
H1281 C1305 0.951 . S
H1282 C1307 0.951 . S
H1283 C1309 0.950 . S
H1284 C1310 0.950 . S
H1285 C1312 0.950 . S
H1286 C1315 0.950 . S
H1287 C1316 0.950 . S
H1288 C1318 0.950 . S
H1289 C1319 0.950 . S
C1290 H1272 0.951 . S
C1290 C1291 1.366 . S
C1290 C1292 1.388 . S
C1291 C1290 1.366 . S
C1291 C1295 1.385 . S
C1292 H1273 0.951 . S
C1292 C1290 1.388 . S
C1292 C1293 1.366 . S
C1293 C1292 1.366 . S
C1293 C1294 1.414 . S
C1293 C1296 1.499 . S
C1294 H1274 0.950 . S
C1294 C1293 1.414 . S
C1294 C1295 1.374 . S
C1295 H1275 0.950 . S
C1295 C1291 1.385 . S
C1295 C1294 1.374 . S
C1296 C1293 1.499 . S
C1296 C1297 1.373 . S
C1296 C1298 1.389 . S
C1297 H1276 0.950 . S
C1297 C1296 1.373 . S
C1297 C1313 1.377 . S
C1298 C1296 1.389 . S
C1298 C1299 1.524 . S
C1298 C1312 1.377 . S
C1299 C1298 1.524 . S
C1299 C1300 1.397 . S
C1299 C1304 1.363 . S
C1300 H1277 0.950 . S
C1300 C1299 1.397 . S
C1300 C1301 1.334 . S
C1301 H1278 0.950 . S
C1301 C1300 1.334 . S
C1301 C1302 1.287 . S
C1302 C1301 1.287 . S
C1302 C1303 1.524 . S
C1302 H1321 0.913 . S
C1303 H1279 0.950 . S
C1303 C1302 1.524 . S
C1303 C1304 1.415 . S
C1304 H1280 0.950 . S
C1304 C1299 1.363 . S
C1304 C1303 1.415 . S
C1305 H1281 0.951 . S
C1305 C1306 1.366 . S
C1305 C1307 1.388 . S
C1306 C1305 1.366 . S
C1306 C1310 1.385 . S
C1307 H1282 0.951 . S
C1307 C1305 1.388 . S
C1307 C1308 1.366 . S
C1308 C1307 1.366 . S
C1308 C1309 1.414 . S
C1308 C1311 1.499 . S
C1309 H1283 0.950 . S
C1309 C1308 1.414 . S
C1309 C1310 1.374 . S
C1310 H1284 0.950 . S
C1310 C1306 1.385 . S
C1310 C1309 1.374 . S
C1311 C1308 1.499 . S
C1311 C1312 1.373 . S
C1311 C1313 1.389 . S
C1312 H1285 0.950 . S
C1312 C1298 1.377 . S
C1312 C1311 1.373 . S
C1313 C1297 1.377 . S
C1313 C1311 1.389 . S
C1313 C1314 1.524 . S
C1314 C1313 1.524 . S
C1314 C1315 1.397 . S
C1314 C1319 1.363 . S
C1315 H1286 0.950 . S
C1315 C1314 1.397 . S
C1315 C1316 1.334 . S
C1316 H1287 0.950 . S
C1316 C1315 1.334 . S
C1316 C1317 1.287 . S
C1317 C1316 1.287 . S
C1317 C1318 1.524 . S
C1317 H1320 0.999 . S
C1318 H1288 0.950 . S
C1318 C1317 1.524 . S
C1318 C1319 1.415 . S
C1319 H1289 0.950 . S
C1319 C1314 1.363 . S
C1319 C1318 1.415 . S
H1320 C1317 0.999 . S
H1321 C1302 0.913 . S
H1322 C1340 0.951 . S
H1323 C1342 0.951 . S
H1324 C1344 0.950 . S
H1325 C1345 0.950 . S
H1326 C1347 0.950 . S
H1327 C1350 0.950 . S
H1328 C1351 0.950 . S
H1329 C1353 0.950 . S
H1330 C1354 0.950 . S
H1331 C1355 0.951 . S
H1332 C1357 0.951 . S
H1333 C1359 0.950 . S
H1334 C1360 0.950 . S
H1335 C1362 0.950 . S
H1336 C1365 0.950 . S
H1337 C1366 0.950 . S
H1338 C1368 0.950 . S
H1339 C1369 0.950 . S
C1340 H1322 0.951 . S
C1340 C1341 1.366 . S
C1340 C1342 1.388 . S
C1341 C1340 1.366 . S
C1341 C1345 1.385 . S
C1342 H1323 0.951 . S
C1342 C1340 1.388 . S
C1342 C1343 1.366 . S
C1343 C1342 1.366 . S
C1343 C1344 1.414 . S
C1343 C1346 1.499 . S
C1344 H1324 0.950 . S
C1344 C1343 1.414 . S
C1344 C1345 1.374 . S
C1345 H1325 0.950 . S
C1345 C1341 1.385 . S
C1345 C1344 1.374 . S
C1346 C1343 1.499 . S
C1346 C1347 1.373 . S
C1346 C1348 1.389 . S
C1347 H1326 0.950 . S
C1347 C1346 1.373 . S
C1347 C1363 1.377 . S
C1348 C1346 1.389 . S
C1348 C1349 1.524 . S
C1348 C1362 1.377 . S
C1349 C1348 1.524 . S
C1349 C1350 1.397 . S
C1349 C1354 1.363 . S
C1350 H1327 0.950 . S
C1350 C1349 1.397 . S
C1350 C1351 1.334 . S
C1351 H1328 0.950 . S
C1351 C1350 1.334 . S
C1351 C1352 1.287 . S
C1352 C1351 1.287 . S
C1352 C1353 1.524 . S
C1352 H1371 0.913 . S
C1353 H1329 0.950 . S
C1353 C1352 1.524 . S
C1353 C1354 1.415 . S
C1354 H1330 0.950 . S
C1354 C1349 1.363 . S
C1354 C1353 1.415 . S
C1355 H1331 0.951 . S
C1355 C1356 1.366 . S
C1355 C1357 1.388 . S
C1356 C1355 1.366 . S
C1356 C1360 1.385 . S
C1357 H1332 0.951 . S
C1357 C1355 1.388 . S
C1357 C1358 1.366 . S
C1358 C1357 1.366 . S
C1358 C1359 1.414 . S
C1358 C1361 1.499 . S
C1359 H1333 0.950 . S
C1359 C1358 1.414 . S
C1359 C1360 1.374 . S
C1360 H1334 0.950 . S
C1360 C1356 1.385 . S
C1360 C1359 1.374 . S
C1361 C1358 1.499 . S
C1361 C1362 1.373 . S
C1361 C1363 1.389 . S
C1362 H1335 0.950 . S
C1362 C1348 1.377 . S
C1362 C1361 1.373 . S
C1363 C1347 1.377 . S
C1363 C1361 1.389 . S
C1363 C1364 1.524 . S
C1364 C1363 1.524 . S
C1364 C1365 1.397 . S
C1364 C1369 1.363 . S
C1365 H1336 0.950 . S
C1365 C1364 1.397 . S
C1365 C1366 1.334 . S
C1366 H1337 0.950 . S
C1366 C1365 1.334 . S
C1366 C1367 1.287 . S
C1367 C1366 1.287 . S
C1367 C1368 1.524 . S
C1367 H1370 0.999 . S
C1368 H1338 0.950 . S
C1368 C1367 1.524 . S
C1368 C1369 1.415 . S
C1369 H1339 0.950 . S
C1369 C1364 1.363 . S
C1369 C1368 1.415 . S
H1370 C1367 0.999 . S
H1371 C1352 0.913 . S
H1372 C1390 0.951 . S
H1373 C1392 0.951 . S
H1374 C1394 0.950 . S
H1375 C1395 0.950 . S
H1376 C1397 0.950 . S
H1377 C1400 0.950 . S
H1378 C1401 0.950 . S
H1379 C1403 0.950 . S
H1380 C1404 0.950 . S
H1381 C1405 0.951 . S
H1382 C1407 0.951 . S
H1383 C1409 0.950 . S
H1384 C1410 0.950 . S
H1385 C1412 0.950 . S
H1386 C1415 0.950 . S
H1387 C1416 0.950 . S
H1388 C1418 0.950 . S
H1389 C1419 0.950 . S
C1390 H1372 0.951 . S
C1390 C1391 1.366 . S
C1390 C1392 1.388 . S
C1391 C1390 1.366 . S
C1391 C1395 1.385 . S
C1392 H1373 0.951 . S
C1392 C1390 1.388 . S
C1392 C1393 1.366 . S
C1393 C1392 1.366 . S
C1393 C1394 1.414 . S
C1393 C1396 1.499 . S
C1394 H1374 0.950 . S
C1394 C1393 1.414 . S
C1394 C1395 1.374 . S
C1395 H1375 0.950 . S
C1395 C1391 1.385 . S
C1395 C1394 1.374 . S
C1396 C1393 1.499 . S
C1396 C1397 1.373 . S
C1396 C1398 1.389 . S
C1397 H1376 0.950 . S
C1397 C1396 1.373 . S
C1397 C1413 1.377 . S
C1398 C1396 1.389 . S
C1398 C1399 1.524 . S
C1398 C1412 1.377 . S
C1399 C1398 1.524 . S
C1399 C1400 1.397 . S
C1399 C1404 1.363 . S
C1400 H1377 0.950 . S
C1400 C1399 1.397 . S
C1400 C1401 1.334 . S
C1401 H1378 0.950 . S
C1401 C1400 1.334 . S
C1401 C1402 1.287 . S
C1402 C1401 1.287 . S
C1402 C1403 1.524 . S
C1402 H1421 0.913 . S
C1403 H1379 0.950 . S
C1403 C1402 1.524 . S
C1403 C1404 1.415 . S
C1404 H1380 0.950 . S
C1404 C1399 1.363 . S
C1404 C1403 1.415 . S
C1405 H1381 0.951 . S
C1405 C1406 1.366 . S
C1405 C1407 1.388 . S
C1406 C1405 1.366 . S
C1406 C1410 1.385 . S
C1407 H1382 0.951 . S
C1407 C1405 1.388 . S
C1407 C1408 1.366 . S
C1408 C1407 1.366 . S
C1408 C1409 1.414 . S
C1408 C1411 1.499 . S
C1409 H1383 0.950 . S
C1409 C1408 1.414 . S
C1409 C1410 1.374 . S
C1410 H1384 0.950 . S
C1410 C1406 1.385 . S
C1410 C1409 1.374 . S
C1411 C1408 1.499 . S
C1411 C1412 1.373 . S
C1411 C1413 1.389 . S
C1412 H1385 0.950 . S
C1412 C1398 1.377 . S
C1412 C1411 1.373 . S
C1413 C1397 1.377 . S
C1413 C1411 1.389 . S
C1413 C1414 1.524 . S
C1414 C1413 1.524 . S
C1414 C1415 1.397 . S
C1414 C1419 1.363 . S
C1415 H1386 0.950 . S
C1415 C1414 1.397 . S
C1415 C1416 1.334 . S
C1416 H1387 0.950 . S
C1416 C1415 1.334 . S
C1416 C1417 1.287 . S
C1417 C1416 1.287 . S
C1417 C1418 1.524 . S
C1417 H1420 0.999 . S
C1418 H1388 0.950 . S
C1418 C1417 1.524 . S
C1418 C1419 1.415 . S
C1419 H1389 0.950 . S
C1419 C1414 1.363 . S
C1419 C1418 1.415 . S
H1420 C1417 0.999 . S
H1421 C1402 0.913 . S
H1422 C1440 0.951 . S
H1423 C1442 0.951 . S
H1424 C1444 0.950 . S
H1425 C1445 0.899 1_556 S
H1426 C1447 0.950 . S
H1427 C1450 0.950 . S
H1428 C1451 0.950 . S
H1429 C1453 0.950 . S
H1430 C1454 0.950 . S
H1431 C1455 0.951 . S
H1432 C1457 0.951 . S
H1433 C1459 0.950 . S
H1434 C1460 0.950 . S
H1435 C1462 0.950 . S
H1436 C1465 0.950 . S
H1437 C1466 0.950 . S
H1438 C1468 0.962 . S
H1439 C1469 0.950 . S
C1440 H1422 0.951 . S
C1440 C1441 1.366 . S
C1440 C1442 1.388 . S
C1441 C1440 1.366 . S
C1441 C1445 1.385 . S
C1442 H1423 0.951 . S
C1442 C1440 1.388 . S
C1442 C1443 1.366 . S
C1443 C1442 1.366 . S
C1443 C1444 1.414 . S
C1443 C1446 1.499 . S
C1444 H1424 0.950 . S
C1444 C1443 1.414 . S
C1444 C1445 1.374 . S
C1445 H1425 0.899 1_554 S
C1445 C1441 1.385 . S
C1445 C1444 1.374 . S
C1446 C1443 1.499 . S
C1446 C1447 1.373 . S
C1446 C1448 1.389 . S
C1447 H1426 0.950 . S
C1447 C1446 1.373 . S
C1447 C1463 1.377 . S
C1448 C1446 1.389 . S
C1448 C1449 1.524 . S
C1448 C1462 1.377 . S
C1449 C1448 1.524 . S
C1449 C1450 1.397 . S
C1449 C1454 1.363 . S
C1450 H1427 0.950 . S
C1450 C1449 1.397 . S
C1450 C1451 1.334 . S
C1451 H1428 0.950 . S
C1451 C1450 1.334 . S
C1451 C1452 1.287 . S
C1452 C1451 1.287 . S
C1452 C1453 1.524 . S
C1452 H1471 0.913 . S
C1453 H1429 0.950 . S
C1453 C1452 1.524 . S
C1453 C1454 1.415 . S
C1454 H1430 0.950 . S
C1454 C1449 1.363 . S
C1454 C1453 1.415 . S
C1455 H1431 0.951 . S
C1455 C1456 1.366 . S
C1455 C1457 1.388 . S
C1456 C1455 1.366 . S
C1456 C1460 1.385 . S
C1457 H1432 0.951 . S
C1457 C1455 1.388 . S
C1457 C1458 1.366 . S
C1458 C1457 1.366 . S
C1458 C1459 1.414 . S
C1458 C1461 1.499 . S
C1459 H1433 0.950 . S
C1459 C1458 1.414 . S
C1459 C1460 1.374 . S
C1460 H1434 0.950 . S
C1460 C1456 1.385 . S
C1460 C1459 1.374 . S
C1461 C1458 1.499 . S
C1461 C1462 1.373 . S
C1461 C1463 1.389 . S
C1462 H1435 0.950 . S
C1462 C1448 1.377 . S
C1462 C1461 1.373 . S
C1463 C1447 1.377 . S
C1463 C1461 1.389 . S
C1463 C1464 1.524 . S
C1464 C1463 1.524 . S
C1464 C1465 1.397 . S
C1464 C1469 1.363 . S
C1465 H1436 0.950 . S
C1465 C1464 1.397 . S
C1465 C1466 1.334 . S
C1466 H1437 0.950 . S
C1466 C1465 1.334 . S
C1466 C1467 1.287 . S
C1467 C1466 1.287 . S
C1467 C1468 1.517 1_554 S
C1467 H1470 0.999 . S
C1468 H1438 0.962 . S
C1468 C1467 1.517 1_556 S
C1468 C1469 1.408 1_556 S
C1469 H1439 0.950 . S
C1469 C1464 1.363 . S
C1469 C1468 1.408 1_554 S
H1470 C1467 0.999 . S
H1471 C1452 0.913 . S
H1472 C1490 0.951 . S
H1473 C1492 0.951 . S
H1474 C1494 0.950 . S
H1475 C1495 0.950 . S
H1476 C1497 0.950 . S
H1477 C1500 0.950 . S
H1478 C1501 0.950 . S
H1479 C1503 0.950 . S
H1480 C1504 0.950 . S
H1481 C1505 0.951 . S
H1482 C1507 0.951 . S
H1483 C1509 0.950 . S
H1484 C1510 0.950 . S
H1485 C1512 0.950 . S
H1486 C1515 0.950 . S
H1487 C1516 0.950 . S
H1488 C1518 0.950 . S
H1489 C1519 0.950 . S
C1490 H1472 0.951 . S
C1490 C1491 1.366 . S
C1490 C1492 1.388 . S
C1491 C1490 1.366 . S
C1491 C1495 1.385 . S
C1492 H1473 0.951 . S
C1492 C1490 1.388 . S
C1492 C1493 1.366 . S
C1493 C1492 1.366 . S
C1493 C1494 1.414 . S
C1493 C1496 1.499 . S
C1494 H1474 0.950 . S
C1494 C1493 1.414 . S
C1494 C1495 1.374 . S
C1495 H1475 0.950 . S
C1495 C1491 1.385 . S
C1495 C1494 1.374 . S
C1496 C1493 1.499 . S
C1496 C1497 1.373 . S
C1496 C1498 1.389 . S
C1497 H1476 0.950 . S
C1497 C1496 1.373 . S
C1497 C1513 1.377 . S
C1498 C1496 1.389 . S
C1498 C1499 1.524 . S
C1498 C1512 1.377 . S
C1499 C1498 1.524 . S
C1499 C1500 1.397 . S
C1499 C1504 1.363 . S
C1500 H1477 0.950 . S
C1500 C1499 1.397 . S
C1500 C1501 1.334 . S
C1501 H1478 0.950 . S
C1501 C1500 1.334 . S
C1501 C1502 1.287 . S
C1502 C1501 1.287 . S
C1502 C1503 1.524 . S
C1502 H1521 0.913 . S
C1503 H1479 0.950 . S
C1503 C1502 1.524 . S
C1503 C1504 1.415 . S
C1504 H1480 0.950 . S
C1504 C1499 1.363 . S
C1504 C1503 1.415 . S
C1505 H1481 0.951 . S
C1505 C1506 1.366 . S
C1505 C1507 1.388 . S
C1506 C1505 1.366 . S
C1506 C1510 1.385 . S
C1507 H1482 0.951 . S
C1507 C1505 1.388 . S
C1507 C1508 1.366 . S
C1508 C1507 1.366 . S
C1508 C1509 1.414 . S
C1508 C1511 1.499 . S
C1509 H1483 0.950 . S
C1509 C1508 1.414 . S
C1509 C1510 1.374 . S
C1510 H1484 0.950 . S
C1510 C1506 1.385 . S
C1510 C1509 1.374 . S
C1511 C1508 1.499 . S
C1511 C1512 1.373 . S
C1511 C1513 1.389 . S
C1512 H1485 0.950 . S
C1512 C1498 1.377 . S
C1512 C1511 1.373 . S
C1513 C1497 1.377 . S
C1513 C1511 1.389 . S
C1513 C1514 1.524 . S
C1514 C1513 1.524 . S
C1514 C1515 1.397 . S
C1514 C1519 1.363 . S
C1515 H1486 0.950 . S
C1515 C1514 1.397 . S
C1515 C1516 1.334 . S
C1516 H1487 0.950 . S
C1516 C1515 1.334 . S
C1516 C1517 1.287 . S
C1517 C1516 1.287 . S
C1517 C1518 1.524 . S
C1517 H1520 0.999 . S
C1518 H1488 0.950 . S
C1518 C1517 1.524 . S
C1518 C1519 1.415 . S
C1519 H1489 0.950 . S
C1519 C1514 1.363 . S
C1519 C1518 1.415 . S
H1520 C1517 0.999 . S
H1521 C1502 0.913 . S
H1522 C1540 0.951 . S
H1523 C1542 0.951 . S
H1524 C1544 0.950 . S
H1525 C1545 0.950 . S
H1526 C1547 0.950 . S
H1527 C1550 0.950 . S
H1528 C1551 0.950 . S
H1529 C1553 0.950 . S
H1530 C1554 0.950 . S
H1531 C1555 0.951 . S
H1532 C1557 0.951 . S
H1533 C1559 0.950 . S
H1534 C1560 0.950 . S
H1535 C1562 0.950 . S
H1536 C1565 0.950 . S
H1537 C1566 0.950 . S
H1538 C1568 0.950 . S
H1539 C1569 0.950 . S
C1540 H1522 0.951 . S
C1540 C1541 1.366 . S
C1540 C1542 1.388 . S
C1541 C1540 1.366 . S
C1541 C1545 1.385 . S
C1542 H1523 0.951 . S
C1542 C1540 1.388 . S
C1542 C1543 1.366 . S
C1543 C1542 1.366 . S
C1543 C1544 1.414 . S
C1543 C1546 1.499 . S
C1544 H1524 0.950 . S
C1544 C1543 1.414 . S
C1544 C1545 1.374 . S
C1545 H1525 0.950 . S
C1545 C1541 1.385 . S
C1545 C1544 1.374 . S
C1546 C1543 1.499 . S
C1546 C1547 1.373 . S
C1546 C1548 1.389 . S
C1547 H1526 0.950 . S
C1547 C1546 1.373 . S
C1547 C1563 1.377 . S
C1548 C1546 1.389 . S
C1548 C1549 1.524 . S
C1548 C1562 1.377 . S
C1549 C1548 1.524 . S
C1549 C1550 1.397 . S
C1549 C1554 1.363 . S
C1550 H1527 0.950 . S
C1550 C1549 1.397 . S
C1550 C1551 1.334 . S
C1551 H1528 0.950 . S
C1551 C1550 1.334 . S
C1551 C1552 1.287 . S
C1552 C1551 1.287 . S
C1552 C1553 1.524 . S
C1552 H1571 0.913 . S
C1553 H1529 0.950 . S
C1553 C1552 1.524 . S
C1553 C1554 1.415 . S
C1554 H1530 0.950 . S
C1554 C1549 1.363 . S
C1554 C1553 1.415 . S
C1555 H1531 0.951 . S
C1555 C1556 1.366 . S
C1555 C1557 1.388 . S
C1556 C1555 1.366 . S
C1556 C1560 1.385 . S
C1557 H1532 0.951 . S
C1557 C1555 1.388 . S
C1557 C1558 1.366 . S
C1558 C1557 1.366 . S
C1558 C1559 1.414 . S
C1558 C1561 1.499 . S
C1559 H1533 0.950 . S
C1559 C1558 1.414 . S
C1559 C1560 1.374 . S
C1560 H1534 0.950 . S
C1560 C1556 1.385 . S
C1560 C1559 1.374 . S
C1561 C1558 1.499 . S
C1561 C1562 1.373 . S
C1561 C1563 1.389 . S
C1562 H1535 0.950 . S
C1562 C1548 1.377 . S
C1562 C1561 1.373 . S
C1563 C1547 1.377 . S
C1563 C1561 1.389 . S
C1563 C1564 1.524 . S
C1564 C1563 1.524 . S
C1564 C1565 1.397 . S
C1564 C1569 1.363 . S
C1565 H1536 0.950 . S
C1565 C1564 1.397 . S
C1565 C1566 1.334 . S
C1566 H1537 0.950 . S
C1566 C1565 1.334 . S
C1566 C1567 1.287 . S
C1567 C1566 1.287 . S
C1567 C1568 1.524 . S
C1567 H1570 0.999 . S
C1568 H1538 0.950 . S
C1568 C1567 1.524 . S
C1568 C1569 1.415 . S
C1569 H1539 0.950 . S
C1569 C1564 1.363 . S
C1569 C1568 1.415 . S
H1570 C1567 0.999 . S
H1571 C1552 0.913 . S
H1572 C1590 0.951 . S
H1573 C1592 0.951 . S
H1574 C1594 0.950 . S
H1575 C1595 0.950 . S
H1576 C1597 0.950 . S
H1577 C1600 0.950 . S
H1578 C1601 0.950 . S
H1579 C1603 0.950 . S
H1580 C1604 0.950 . S
H1581 C1605 0.951 . S
H1582 C1607 0.951 . S
H1583 C1609 0.950 . S
H1584 C1610 0.950 . S
H1585 C1612 0.950 . S
H1586 C1615 0.950 . S
H1587 C1616 0.950 . S
H1588 C1618 0.950 . S
H1589 C1619 0.950 . S
C1590 H1572 0.951 . S
C1590 C1591 1.366 . S
C1590 C1592 1.388 . S
C1591 C1590 1.366 . S
C1591 C1595 1.385 . S
C1592 H1573 0.951 . S
C1592 C1590 1.388 . S
C1592 C1593 1.366 . S
C1593 C1592 1.366 . S
C1593 C1594 1.414 . S
C1593 C1596 1.499 . S
C1594 H1574 0.950 . S
C1594 C1593 1.414 . S
C1594 C1595 1.374 . S
C1595 H1575 0.950 . S
C1595 C1591 1.385 . S
C1595 C1594 1.374 . S
C1596 C1593 1.499 . S
C1596 C1597 1.373 . S
C1596 C1598 1.389 . S
C1597 H1576 0.950 . S
C1597 C1596 1.373 . S
C1597 C1613 1.377 . S
C1598 C1596 1.389 . S
C1598 C1599 1.524 . S
C1598 C1612 1.377 . S
C1599 C1598 1.524 . S
C1599 C1600 1.397 . S
C1599 C1604 1.363 . S
C1600 H1577 0.950 . S
C1600 C1599 1.397 . S
C1600 C1601 1.334 . S
C1601 H1578 0.950 . S
C1601 C1600 1.334 . S
C1601 C1602 1.287 . S
C1602 C1601 1.287 . S
C1602 C1603 1.524 . S
C1602 H1621 0.913 . S
C1603 H1579 0.950 . S
C1603 C1602 1.524 . S
C1603 C1604 1.415 . S
C1604 H1580 0.950 . S
C1604 C1599 1.363 . S
C1604 C1603 1.415 . S
C1605 H1581 0.951 . S
C1605 C1606 1.366 . S
C1605 C1607 1.388 . S
C1606 C1605 1.366 . S
C1606 C1610 1.385 . S
C1607 H1582 0.951 . S
C1607 C1605 1.388 . S
C1607 C1608 1.366 . S
C1608 C1607 1.366 . S
C1608 C1609 1.414 . S
C1608 C1611 1.499 . S
C1609 H1583 0.950 . S
C1609 C1608 1.414 . S
C1609 C1610 1.374 . S
C1610 H1584 0.950 . S
C1610 C1606 1.385 . S
C1610 C1609 1.374 . S
C1611 C1608 1.499 . S
C1611 C1612 1.373 . S
C1611 C1613 1.389 . S
C1612 H1585 0.950 . S
C1612 C1598 1.377 . S
C1612 C1611 1.373 . S
C1613 C1597 1.377 . S
C1613 C1611 1.389 . S
C1613 C1614 1.524 . S
C1614 C1613 1.524 . S
C1614 C1615 1.397 . S
C1614 C1619 1.363 . S
C1615 H1586 0.950 . S
C1615 C1614 1.397 . S
C1615 C1616 1.334 . S
C1616 H1587 0.950 . S
C1616 C1615 1.334 . S
C1616 C1617 1.287 . S
C1617 C1616 1.287 . S
C1617 C1618 1.524 . S
C1617 H1620 0.999 . S
C1618 H1588 0.950 . S
C1618 C1617 1.524 . S
C1618 C1619 1.415 . S
C1619 H1589 0.950 . S
C1619 C1614 1.363 . S
C1619 C1618 1.415 . S
H1620 C1617 0.999 . S
H1621 C1602 0.913 . S
H1622 C1640 0.951 . S
H1623 C1642 0.951 . S
H1624 C1644 0.950 . S
H1625 C1645 0.950 . S
H1626 C1647 0.950 . S
H1627 C1650 0.950 . S
H1628 C1651 0.950 . S
H1629 C1653 0.950 . S
H1630 C1654 0.950 . S
H1631 C1655 0.951 . S
H1632 C1657 0.951 . S
H1633 C1659 0.950 . S
H1634 C1660 0.950 . S
H1635 C1662 0.950 . S
H1636 C1665 0.950 . S
H1637 C1666 0.950 . S
H1638 C1668 0.950 . S
H1639 C1669 0.950 . S
C1640 H1622 0.951 . S
C1640 C1641 1.366 . S
C1640 C1642 1.388 . S
C1641 C1640 1.366 . S
C1641 C1645 1.385 . S
C1642 H1623 0.951 . S
C1642 C1640 1.388 . S
C1642 C1643 1.366 . S
C1643 C1642 1.366 . S
C1643 C1644 1.414 . S
C1643 C1646 1.499 . S
C1644 H1624 0.950 . S
C1644 C1643 1.414 . S
C1644 C1645 1.374 . S
C1645 H1625 0.950 . S
C1645 C1641 1.385 . S
C1645 C1644 1.374 . S
C1646 C1643 1.499 . S
C1646 C1647 1.373 . S
C1646 C1648 1.389 . S
C1647 H1626 0.950 . S
C1647 C1646 1.373 . S
C1647 C1663 1.377 . S
C1648 C1646 1.389 . S
C1648 C1649 1.524 . S
C1648 C1662 1.377 . S
C1649 C1648 1.524 . S
C1649 C1650 1.397 . S
C1649 C1654 1.363 . S
C1650 H1627 0.950 . S
C1650 C1649 1.397 . S
C1650 C1651 1.334 . S
C1651 H1628 0.950 . S
C1651 C1650 1.334 . S
C1651 C1652 1.287 . S
C1652 C1651 1.287 . S
C1652 C1653 1.524 . S
C1652 H1671 0.913 . S
C1653 H1629 0.950 . S
C1653 C1652 1.524 . S
C1653 C1654 1.415 . S
C1654 H1630 0.950 . S
C1654 C1649 1.363 . S
C1654 C1653 1.415 . S
C1655 H1631 0.951 . S
C1655 C1656 1.366 . S
C1655 C1657 1.388 . S
C1656 C1655 1.366 . S
C1656 C1660 1.385 . S
C1657 H1632 0.951 . S
C1657 C1655 1.388 . S
C1657 C1658 1.366 . S
C1658 C1657 1.366 . S
C1658 C1659 1.414 . S
C1658 C1661 1.499 . S
C1659 H1633 0.950 . S
C1659 C1658 1.414 . S
C1659 C1660 1.374 . S
C1660 H1634 0.950 . S
C1660 C1656 1.385 . S
C1660 C1659 1.374 . S
C1661 C1658 1.499 . S
C1661 C1662 1.373 . S
C1661 C1663 1.389 . S
C1662 H1635 0.950 . S
C1662 C1648 1.377 . S
C1662 C1661 1.373 . S
C1663 C1647 1.377 . S
C1663 C1661 1.389 . S
C1663 C1664 1.524 . S
C1664 C1663 1.524 . S
C1664 C1665 1.397 . S
C1664 C1669 1.363 . S
C1665 H1636 0.950 . S
C1665 C1664 1.397 . S
C1665 C1666 1.334 . S
C1666 H1637 0.950 . S
C1666 C1665 1.334 . S
C1666 C1667 1.287 . S
C1667 C1666 1.287 . S
C1667 C1668 1.524 . S
C1667 H1670 0.999 . S
C1668 H1638 0.950 . S
C1668 C1667 1.524 . S
C1668 C1669 1.415 . S
C1669 H1639 0.950 . S
C1669 C1664 1.363 . S
C1669 C1668 1.415 . S
H1670 C1667 0.999 . S
H1671 C1652 0.913 . S
H1672 C1690 0.951 . S
H1673 C1692 0.951 . S
H1674 C1694 0.950 . S
H1675 C1695 0.950 . S
H1676 C1697 0.950 . S
H1677 C1700 0.950 . S
H1678 C1701 0.950 . S
H1679 C1703 0.950 . S
H1680 C1704 0.950 . S
H1681 C1705 0.951 . S
H1682 C1707 0.951 . S
H1683 C1709 0.950 . S
H1684 C1710 0.950 . S
H1685 C1712 0.950 . S
H1686 C1715 0.950 . S
H1687 C1716 0.950 . S
H1688 C1718 0.950 . S
H1689 C1719 0.950 . S
C1690 H1672 0.951 . S
C1690 C1691 1.366 . S
C1690 C1692 1.388 . S
C1691 C1690 1.366 . S
C1691 C1695 1.385 . S
C1692 H1673 0.951 . S
C1692 C1690 1.388 . S
C1692 C1693 1.366 . S
C1693 C1692 1.366 . S
C1693 C1694 1.414 . S
C1693 C1696 1.499 . S
C1694 H1674 0.950 . S
C1694 C1693 1.414 . S
C1694 C1695 1.374 . S
C1695 H1675 0.950 . S
C1695 C1691 1.385 . S
C1695 C1694 1.374 . S
C1696 C1693 1.499 . S
C1696 C1697 1.373 . S
C1696 C1698 1.389 . S
C1697 H1676 0.950 . S
C1697 C1696 1.373 . S
C1697 C1713 1.377 . S
C1698 C1696 1.389 . S
C1698 C1699 1.524 . S
C1698 C1712 1.377 . S
C1699 C1698 1.524 . S
C1699 C1700 1.397 . S
C1699 C1704 1.363 . S
C1700 H1677 0.950 . S
C1700 C1699 1.397 . S
C1700 C1701 1.334 . S
C1701 H1678 0.950 . S
C1701 C1700 1.334 . S
C1701 C1702 1.287 . S
C1702 C1701 1.287 . S
C1702 C1703 1.524 . S
C1702 H1721 0.913 . S
C1703 H1679 0.950 . S
C1703 C1702 1.524 . S
C1703 C1704 1.415 . S
C1704 H1680 0.950 . S
C1704 C1699 1.363 . S
C1704 C1703 1.415 . S
C1705 H1681 0.951 . S
C1705 C1706 1.366 . S
C1705 C1707 1.388 . S
C1706 C1705 1.366 . S
C1706 C1710 1.385 . S
C1707 H1682 0.951 . S
C1707 C1705 1.388 . S
C1707 C1708 1.366 . S
C1708 C1707 1.366 . S
C1708 C1709 1.414 . S
C1708 C1711 1.499 . S
C1709 H1683 0.950 . S
C1709 C1708 1.414 . S
C1709 C1710 1.374 . S
C1710 H1684 0.950 . S
C1710 C1706 1.385 . S
C1710 C1709 1.374 . S
C1711 C1708 1.499 . S
C1711 C1712 1.373 . S
C1711 C1713 1.389 . S
C1712 H1685 0.950 . S
C1712 C1698 1.377 . S
C1712 C1711 1.373 . S
C1713 C1697 1.377 . S
C1713 C1711 1.389 . S
C1713 C1714 1.524 . S
C1714 C1713 1.524 . S
C1714 C1715 1.397 . S
C1714 C1719 1.363 . S
C1715 H1686 0.950 . S
C1715 C1714 1.397 . S
C1715 C1716 1.334 . S
C1716 H1687 0.950 . S
C1716 C1715 1.334 . S
C1716 C1717 1.287 . S
C1717 C1716 1.287 . S
C1717 C1718 1.524 . S
C1717 H1720 0.999 . S
C1718 H1688 0.950 . S
C1718 C1717 1.524 . S
C1718 C1719 1.415 . S
C1719 H1689 0.950 . S
C1719 C1714 1.363 . S
C1719 C1718 1.415 . S
H1720 C1717 0.999 . S
H1721 C1702 0.913 . S
H1722 C1740 0.951 . S
H1723 C1742 0.951 . S
H1724 C1744 0.950 . S
H1725 C1745 0.950 . S
H1726 C1747 0.950 . S
H1727 C1750 0.950 . S
H1728 C1751 0.950 1_455 S
H1729 C1753 0.950 . S
H1730 C1754 0.950 . S
H1731 C1755 0.962 . S
H1732 C1757 0.951 . S
H1733 C1759 0.950 . S
H1734 C1760 0.950 . S
H1735 C1762 0.950 . S
H1736 C1765 0.950 . S
H1737 C1766 0.950 . S
H1738 C1768 0.950 . S
H1739 C1769 0.950 . S
C1740 H1722 0.951 . S
C1740 C1741 1.366 . S
C1740 C1742 1.388 . S
C1741 C1740 1.366 . S
C1741 C1745 1.385 . S
C1742 H1723 0.951 . S
C1742 C1740 1.388 . S
C1742 C1743 1.366 . S
C1743 C1742 1.366 . S
C1743 C1744 1.414 . S
C1743 C1746 1.499 . S
C1744 H1724 0.950 . S
C1744 C1743 1.414 . S
C1744 C1745 1.374 . S
C1745 H1725 0.950 . S
C1745 C1741 1.385 . S
C1745 C1744 1.374 . S
C1746 C1743 1.499 . S
C1746 C1747 1.373 . S
C1746 C1748 1.389 . S
C1747 H1726 0.950 . S
C1747 C1746 1.373 . S
C1747 C1763 1.377 . S
C1748 C1746 1.389 . S
C1748 C1749 1.524 . S
C1748 C1762 1.377 . S
C1749 C1748 1.524 . S
C1749 C1750 1.397 . S
C1749 C1754 1.363 . S
C1750 H1727 0.950 . S
C1750 C1749 1.397 . S
C1750 C1751 1.334 . S
C1751 H1728 0.950 1_655 S
C1751 C1750 1.334 . S
C1751 C1752 1.287 . S
C1752 C1751 1.287 . S
C1752 C1753 1.524 . S
C1752 H1771 0.913 1_655 S
C1753 H1729 0.950 . S
C1753 C1752 1.524 . S
C1753 C1754 1.415 . S
C1754 H1730 0.950 . S
C1754 C1749 1.363 . S
C1754 C1753 1.415 . S
C1755 H1731 0.962 . S
C1755 C1756 1.366 1_556 S
C1755 C1757 1.388 . S
C1756 C1755 1.366 1_554 S
C1756 C1760 1.385 . S
C1757 H1732 0.951 . S
C1757 C1755 1.388 . S
C1757 C1758 1.366 . S
C1758 C1757 1.366 . S
C1758 C1759 1.414 . S
C1758 C1761 1.499 . S
C1759 H1733 0.950 . S
C1759 C1758 1.414 . S
C1759 C1760 1.374 1_556 S
C1760 H1734 0.950 . S
C1760 C1756 1.385 . S
C1760 C1759 1.374 1_554 S
C1761 C1758 1.499 . S
C1761 C1762 1.373 . S
C1761 C1763 1.389 . S
C1762 H1735 0.950 . S
C1762 C1748 1.377 . S
C1762 C1761 1.373 . S
C1763 C1747 1.377 . S
C1763 C1761 1.389 . S
C1763 C1764 1.524 . S
C1764 C1763 1.524 . S
C1764 C1765 1.397 . S
C1764 C1769 1.363 . S
C1765 H1736 0.950 . S
C1765 C1764 1.397 . S
C1765 C1766 1.334 . S
C1766 H1737 0.950 . S
C1766 C1765 1.334 . S
C1766 C1767 1.287 . S
C1767 C1766 1.287 . S
C1767 C1768 1.524 . S
C1767 H1770 0.999 . S
C1768 H1738 0.950 . S
C1768 C1767 1.524 . S
C1768 C1769 1.415 . S
C1769 H1739 0.950 . S
C1769 C1764 1.363 . S
C1769 C1768 1.415 . S
H1770 C1767 0.999 . S
H1771 C1752 0.913 1_455 S
H1772 C1790 0.951 . S
H1773 C1792 0.951 . S
H1774 C1794 0.950 . S
H1775 C1795 0.950 . S
H1776 C1797 0.950 . S
H1777 C1800 0.950 . S
H1778 C1801 0.950 . S
H1779 C1803 0.950 . S
H1780 C1804 0.950 . S
H1781 C1805 0.951 . S
H1782 C1807 0.951 . S
H1783 C1809 0.950 . S
H1784 C1810 0.950 . S
H1785 C1812 0.950 . S
H1786 C1815 0.950 . S
H1787 C1816 0.950 . S
H1788 C1818 0.950 . S
H1789 C1819 0.950 . S
C1790 H1772 0.951 . S
C1790 C1791 1.366 . S
C1790 C1792 1.388 . S
C1791 C1790 1.366 . S
C1791 C1795 1.385 . S
C1792 H1773 0.951 . S
C1792 C1790 1.388 . S
C1792 C1793 1.366 . S
C1793 C1792 1.366 . S
C1793 C1794 1.414 . S
C1793 C1796 1.499 . S
C1794 H1774 0.950 . S
C1794 C1793 1.414 . S
C1794 C1795 1.374 . S
C1795 H1775 0.950 . S
C1795 C1791 1.385 . S
C1795 C1794 1.374 . S
C1796 C1793 1.499 . S
C1796 C1797 1.373 . S
C1796 C1798 1.389 . S
C1797 H1776 0.950 . S
C1797 C1796 1.373 . S
C1797 C1813 1.377 . S
C1798 C1796 1.389 . S
C1798 C1799 1.524 . S
C1798 C1812 1.377 . S
C1799 C1798 1.524 . S
C1799 C1800 1.397 . S
C1799 C1804 1.363 . S
C1800 H1777 0.950 . S
C1800 C1799 1.397 . S
C1800 C1801 1.334 . S
C1801 H1778 0.950 . S
C1801 C1800 1.334 . S
C1801 C1802 1.287 . S
C1802 C1801 1.287 . S
C1802 C1803 1.524 . S
C1802 H1821 0.913 . S
C1803 H1779 0.950 . S
C1803 C1802 1.524 . S
C1803 C1804 1.415 . S
C1804 H1780 0.950 . S
C1804 C1799 1.363 . S
C1804 C1803 1.415 . S
C1805 H1781 0.951 . S
C1805 C1806 1.366 . S
C1805 C1807 1.388 . S
C1806 C1805 1.366 . S
C1806 C1810 1.385 . S
C1807 H1782 0.951 . S
C1807 C1805 1.388 . S
C1807 C1808 1.366 . S
C1808 C1807 1.366 . S
C1808 C1809 1.414 . S
C1808 C1811 1.499 . S
C1809 H1783 0.950 . S
C1809 C1808 1.414 . S
C1809 C1810 1.374 . S
C1810 H1784 0.950 . S
C1810 C1806 1.385 . S
C1810 C1809 1.374 . S
C1811 C1808 1.499 . S
C1811 C1812 1.373 . S
C1811 C1813 1.389 . S
C1812 H1785 0.950 . S
C1812 C1798 1.377 . S
C1812 C1811 1.373 . S
C1813 C1797 1.377 . S
C1813 C1811 1.389 . S
C1813 C1814 1.524 . S
C1814 C1813 1.524 . S
C1814 C1815 1.397 . S
C1814 C1819 1.363 . S
C1815 H1786 0.950 . S
C1815 C1814 1.397 . S
C1815 C1816 1.334 . S
C1816 H1787 0.950 . S
C1816 C1815 1.334 . S
C1816 C1817 1.287 . S
C1817 C1816 1.287 . S
C1817 C1818 1.524 . S
C1817 H1820 0.999 . S
C1818 H1788 0.950 . S
C1818 C1817 1.524 . S
C1818 C1819 1.415 . S
C1819 H1789 0.950 . S
C1819 C1814 1.363 . S
C1819 C1818 1.415 . S
H1820 C1817 0.999 . S
H1821 C1802 0.913 . S
H1822 C1840 0.951 . S
H1823 C1842 0.951 . S
H1824 C1844 0.950 . S
H1825 C1845 0.950 . S
H1826 C1847 0.950 . S
H1827 C1850 0.950 . S
H1828 C1851 0.950 . S
H1829 C1853 0.950 . S
H1830 C1854 0.950 . S
H1831 C1855 0.951 . S
H1832 C1857 0.951 . S
H1833 C1859 0.950 . S
H1834 C1860 0.950 . S
H1835 C1862 0.950 . S
H1836 C1865 0.950 . S
H1837 C1866 0.950 . S
H1838 C1868 0.950 . S
H1839 C1869 0.950 . S
C1840 H1822 0.951 . S
C1840 C1841 1.366 . S
C1840 C1842 1.388 . S
C1841 C1840 1.366 . S
C1841 C1845 1.385 . S
C1842 H1823 0.951 . S
C1842 C1840 1.388 . S
C1842 C1843 1.366 . S
C1843 C1842 1.366 . S
C1843 C1844 1.414 . S
C1843 C1846 1.499 . S
C1844 H1824 0.950 . S
C1844 C1843 1.414 . S
C1844 C1845 1.374 . S
C1845 H1825 0.950 . S
C1845 C1841 1.385 . S
C1845 C1844 1.374 . S
C1846 C1843 1.499 . S
C1846 C1847 1.373 . S
C1846 C1848 1.389 . S
C1847 H1826 0.950 . S
C1847 C1846 1.373 . S
C1847 C1863 1.377 . S
C1848 C1846 1.389 . S
C1848 C1849 1.524 . S
C1848 C1862 1.377 . S
C1849 C1848 1.524 . S
C1849 C1850 1.397 . S
C1849 C1854 1.363 . S
C1850 H1827 0.950 . S
C1850 C1849 1.397 . S
C1850 C1851 1.334 . S
C1851 H1828 0.950 . S
C1851 C1850 1.334 . S
C1851 C1852 1.287 . S
C1852 C1851 1.287 . S
C1852 C1853 1.524 . S
C1852 H1871 0.913 . S
C1853 H1829 0.950 . S
C1853 C1852 1.524 . S
C1853 C1854 1.415 . S
C1854 H1830 0.950 . S
C1854 C1849 1.363 . S
C1854 C1853 1.415 . S
C1855 H1831 0.951 . S
C1855 C1856 1.366 . S
C1855 C1857 1.388 . S
C1856 C1855 1.366 . S
C1856 C1860 1.385 . S
C1857 H1832 0.951 . S
C1857 C1855 1.388 . S
C1857 C1858 1.366 . S
C1858 C1857 1.366 . S
C1858 C1859 1.414 . S
C1858 C1861 1.499 . S
C1859 H1833 0.950 . S
C1859 C1858 1.414 . S
C1859 C1860 1.374 . S
C1860 H1834 0.950 . S
C1860 C1856 1.385 . S
C1860 C1859 1.374 . S
C1861 C1858 1.499 . S
C1861 C1862 1.373 . S
C1861 C1863 1.389 . S
C1862 H1835 0.950 . S
C1862 C1848 1.377 . S
C1862 C1861 1.373 . S
C1863 C1847 1.377 . S
C1863 C1861 1.389 . S
C1863 C1864 1.524 . S
C1864 C1863 1.524 . S
C1864 C1865 1.397 . S
C1864 C1869 1.363 . S
C1865 H1836 0.950 . S
C1865 C1864 1.397 . S
C1865 C1866 1.334 . S
C1866 H1837 0.950 . S
C1866 C1865 1.334 . S
C1866 C1867 1.287 . S
C1867 C1866 1.287 . S
C1867 C1868 1.524 . S
C1867 H1870 0.999 . S
C1868 H1838 0.950 . S
C1868 C1867 1.524 . S
C1868 C1869 1.415 . S
C1869 H1839 0.950 . S
C1869 C1864 1.363 . S
C1869 C1868 1.415 . S
H1870 C1867 0.999 . S
H1871 C1852 0.913 . S
H1872 C1890 0.951 . S
H1873 C1892 0.951 . S
H1874 C1894 0.950 . S
H1875 C1895 0.950 . S
H1876 C1897 0.950 . S
H1877 C1900 0.950 . S
H1878 C1901 0.950 . S
H1879 C1903 0.950 . S
H1880 C1904 0.950 . S
H1881 C1905 0.951 . S
H1882 C1907 0.951 . S
H1883 C1909 0.950 . S
H1884 C1910 0.950 . S
H1885 C1912 0.950 . S
H1886 C1915 0.950 . S
H1887 C1916 0.950 . S
H1888 C1918 0.950 . S
H1889 C1919 0.950 . S
C1890 H1872 0.951 . S
C1890 C1891 1.366 . S
C1890 C1892 1.388 . S
C1891 C1890 1.366 . S
C1891 C1895 1.385 . S
C1892 H1873 0.951 . S
C1892 C1890 1.388 . S
C1892 C1893 1.366 . S
C1893 C1892 1.366 . S
C1893 C1894 1.414 . S
C1893 C1896 1.499 . S
C1894 H1874 0.950 . S
C1894 C1893 1.414 . S
C1894 C1895 1.374 . S
C1895 H1875 0.950 . S
C1895 C1891 1.385 . S
C1895 C1894 1.374 . S
C1896 C1893 1.499 . S
C1896 C1897 1.373 . S
C1896 C1898 1.389 . S
C1897 H1876 0.950 . S
C1897 C1896 1.373 . S
C1897 C1913 1.377 . S
C1898 C1896 1.389 . S
C1898 C1899 1.524 . S
C1898 C1912 1.377 . S
C1899 C1898 1.524 . S
C1899 C1900 1.397 . S
C1899 C1904 1.363 . S
C1900 H1877 0.950 . S
C1900 C1899 1.397 . S
C1900 C1901 1.334 . S
C1901 H1878 0.950 . S
C1901 C1900 1.334 . S
C1901 C1902 1.287 . S
C1902 C1901 1.287 . S
C1902 C1903 1.524 . S
C1902 H1921 0.913 . S
C1903 H1879 0.950 . S
C1903 C1902 1.524 . S
C1903 C1904 1.415 . S
C1904 H1880 0.950 . S
C1904 C1899 1.363 . S
C1904 C1903 1.415 . S
C1905 H1881 0.951 . S
C1905 C1906 1.366 . S
C1905 C1907 1.388 . S
C1906 C1905 1.366 . S
C1906 C1910 1.385 . S
C1907 H1882 0.951 . S
C1907 C1905 1.388 . S
C1907 C1908 1.366 . S
C1908 C1907 1.366 . S
C1908 C1909 1.414 . S
C1908 C1911 1.499 . S
C1909 H1883 0.950 . S
C1909 C1908 1.414 . S
C1909 C1910 1.374 . S
C1910 H1884 0.950 . S
C1910 C1906 1.385 . S
C1910 C1909 1.374 . S
C1911 C1908 1.499 . S
C1911 C1912 1.373 . S
C1911 C1913 1.389 . S
C1912 H1885 0.950 . S
C1912 C1898 1.377 . S
C1912 C1911 1.373 . S
C1913 C1897 1.377 . S
C1913 C1911 1.389 . S
C1913 C1914 1.524 . S
C1914 C1913 1.524 . S
C1914 C1915 1.397 . S
C1914 C1919 1.363 . S
C1915 H1886 0.950 . S
C1915 C1914 1.397 . S
C1915 C1916 1.334 . S
C1916 H1887 0.950 . S
C1916 C1915 1.334 . S
C1916 C1917 1.287 . S
C1917 C1916 1.287 . S
C1917 C1918 1.524 . S
C1917 H1920 0.999 1_565 S
C1918 H1888 0.950 . S
C1918 C1917 1.524 . S
C1918 C1919 1.415 . S
C1919 H1889 0.950 . S
C1919 C1914 1.363 . S
C1919 C1918 1.415 . S
H1920 C1917 0.999 1_545 S
H1921 C1902 0.913 . S
H1922 C1940 0.951 . S
H1923 C1942 0.951 . S
H1924 C1944 0.950 . S
H1925 C1945 0.950 . S
H1926 C1947 0.950 . S
H1927 C1950 0.950 . S
H1928 C1951 0.950 . S
H1929 C1953 0.950 . S
H1930 C1954 0.950 . S
H1931 C1955 0.951 . S
H1932 C1957 0.951 . S
H1933 C1959 0.950 . S
H1934 C1960 0.950 . S
H1935 C1962 0.950 . S
H1936 C1965 0.950 . S
H1937 C1966 0.950 . S
H1938 C1968 0.950 . S
H1939 C1969 0.950 . S
C1940 H1922 0.951 . S
C1940 C1941 1.366 . S
C1940 C1942 1.388 . S
C1941 C1940 1.366 . S
C1941 C1945 1.385 . S
C1942 H1923 0.951 . S
C1942 C1940 1.388 . S
C1942 C1943 1.366 . S
C1943 C1942 1.366 . S
C1943 C1944 1.414 . S
C1943 C1946 1.499 . S
C1944 H1924 0.950 . S
C1944 C1943 1.414 . S
C1944 C1945 1.374 . S
C1945 H1925 0.950 . S
C1945 C1941 1.385 . S
C1945 C1944 1.374 . S
C1946 C1943 1.499 . S
C1946 C1947 1.373 . S
C1946 C1948 1.389 . S
C1947 H1926 0.950 . S
C1947 C1946 1.373 . S
C1947 C1963 1.377 . S
C1948 C1946 1.389 . S
C1948 C1949 1.524 . S
C1948 C1962 1.377 . S
C1949 C1948 1.524 . S
C1949 C1950 1.397 . S
C1949 C1954 1.363 . S
C1950 H1927 0.950 . S
C1950 C1949 1.397 . S
C1950 C1951 1.334 . S
C1951 H1928 0.950 . S
C1951 C1950 1.334 . S
C1951 C1952 1.287 . S
C1952 C1951 1.287 . S
C1952 C1953 1.524 . S
C1952 H1971 0.913 . S
C1953 H1929 0.950 . S
C1953 C1952 1.524 . S
C1953 C1954 1.415 . S
C1954 H1930 0.950 . S
C1954 C1949 1.363 . S
C1954 C1953 1.415 . S
C1955 H1931 0.951 . S
C1955 C1956 1.366 . S
C1955 C1957 1.388 . S
C1956 C1955 1.366 . S
C1956 C1960 1.385 . S
C1957 H1932 0.951 . S
C1957 C1955 1.388 . S
C1957 C1958 1.366 . S
C1958 C1957 1.366 . S
C1958 C1959 1.414 . S
C1958 C1961 1.499 . S
C1959 H1933 0.950 . S
C1959 C1958 1.414 . S
C1959 C1960 1.374 . S
C1960 H1934 0.950 . S
C1960 C1956 1.385 . S
C1960 C1959 1.374 . S
C1961 C1958 1.499 . S
C1961 C1962 1.373 . S
C1961 C1963 1.389 . S
C1962 H1935 0.950 . S
C1962 C1948 1.377 . S
C1962 C1961 1.373 . S
C1963 C1947 1.377 . S
C1963 C1961 1.389 . S
C1963 C1964 1.524 . S
C1964 C1963 1.524 . S
C1964 C1965 1.397 . S
C1964 C1969 1.363 . S
C1965 H1936 0.950 . S
C1965 C1964 1.397 . S
C1965 C1966 1.334 . S
C1966 H1937 0.950 . S
C1966 C1965 1.334 . S
C1966 C1967 1.287 . S
C1967 C1966 1.287 . S
C1967 C1968 1.524 . S
C1967 H1970 0.999 . S
C1968 H1938 0.950 . S
C1968 C1967 1.524 . S
C1968 C1969 1.415 . S
C1969 H1939 0.950 . S
C1969 C1964 1.363 . S
C1969 C1968 1.415 . S
H1970 C1967 0.999 . S
H1971 C1952 0.913 . S
H1972 C1990 0.951 . S
H1973 C1992 0.951 . S
H1974 C1994 0.950 . S
H1975 C1995 0.950 . S
H1976 C1997 0.950 . S
H1977 C2000 0.950 . S
H1978 C2001 0.950 . S
H1979 C2003 0.950 . S
H1980 C2004 0.950 . S
H1981 C2005 0.951 . S
H1982 C2007 0.951 . S
H1983 C2009 0.950 . S
H1984 C2010 0.950 . S
H1985 C2012 0.950 . S
H1986 C2015 0.950 . S
H1987 C2016 0.950 . S
H1988 C2018 0.950 . S
H1989 C2019 0.950 . S
C1990 H1972 0.951 . S
C1990 C1991 1.366 . S
C1990 C1992 1.388 . S
C1991 C1990 1.366 . S
C1991 C1995 1.385 . S
C1992 H1973 0.951 . S
C1992 C1990 1.388 . S
C1992 C1993 1.366 . S
C1993 C1992 1.366 . S
C1993 C1994 1.414 . S
C1993 C1996 1.499 . S
C1994 H1974 0.950 . S
C1994 C1993 1.414 . S
C1994 C1995 1.374 . S
C1995 H1975 0.950 . S
C1995 C1991 1.385 . S
C1995 C1994 1.374 . S
C1996 C1993 1.499 . S
C1996 C1997 1.373 . S
C1996 C1998 1.389 . S
C1997 H1976 0.950 . S
C1997 C1996 1.373 . S
C1997 C2013 1.377 . S
C1998 C1996 1.389 . S
C1998 C1999 1.524 . S
C1998 C2012 1.377 . S
C1999 C1998 1.524 . S
C1999 C2000 1.397 . S
C1999 C2004 1.363 . S
C2000 H1977 0.950 . S
C2000 C1999 1.397 . S
C2000 C2001 1.334 . S
C2001 H1978 0.950 . S
C2001 C2000 1.334 . S
C2001 C2002 1.287 . S
C2002 C2001 1.287 . S
C2002 C2003 1.524 . S
C2002 H2021 0.913 . S
C2003 H1979 0.950 . S
C2003 C2002 1.524 . S
C2003 C2004 1.415 . S
C2004 H1980 0.950 . S
C2004 C1999 1.363 . S
C2004 C2003 1.415 . S
C2005 H1981 0.951 . S
C2005 C2006 1.366 . S
C2005 C2007 1.388 . S
C2006 C2005 1.366 . S
C2006 C2010 1.385 . S
C2007 H1982 0.951 . S
C2007 C2005 1.388 . S
C2007 C2008 1.366 . S
C2008 C2007 1.366 . S
C2008 C2009 1.414 . S
C2008 C2011 1.499 . S
C2009 H1983 0.950 . S
C2009 C2008 1.414 . S
C2009 C2010 1.374 . S
C2010 H1984 0.950 . S
C2010 C2006 1.385 . S
C2010 C2009 1.374 . S
C2011 C2008 1.499 . S
C2011 C2012 1.373 . S
C2011 C2013 1.389 . S
C2012 H1985 0.950 . S
C2012 C1998 1.377 . S
C2012 C2011 1.373 . S
C2013 C1997 1.377 . S
C2013 C2011 1.389 . S
C2013 C2014 1.524 . S
C2014 C2013 1.524 . S
C2014 C2015 1.397 . S
C2014 C2019 1.363 . S
C2015 H1986 0.950 . S
C2015 C2014 1.397 . S
C2015 C2016 1.334 . S
C2016 H1987 0.950 . S
C2016 C2015 1.334 . S
C2016 C2017 1.287 . S
C2017 C2016 1.287 . S
C2017 C2018 1.524 . S
C2017 H2020 0.999 . S
C2018 H1988 0.950 . S
C2018 C2017 1.524 . S
C2018 C2019 1.415 . S
C2019 H1989 0.950 . S
C2019 C2014 1.363 . S
C2019 C2018 1.415 . S
H2020 C2017 0.999 . S
H2021 C2002 0.913 . S
H2022 C2040 0.951 . S
H2023 C2042 0.951 . S
H2024 C2044 0.950 . S
H2025 C2045 0.950 . S
H2026 C2047 0.950 . S
H2027 C2050 0.950 . S
H2028 C2051 0.950 . S
H2029 C2053 0.950 . S
H2030 C2054 0.950 . S
H2031 C2055 0.951 . S
H2032 C2057 0.951 . S
H2033 C2059 0.950 . S
H2034 C2060 0.950 . S
H2035 C2062 0.950 . S
H2036 C2065 0.950 . S
H2037 C2066 0.950 . S
H2038 C2068 0.950 . S
H2039 C2069 0.950 . S
C2040 H2022 0.951 . S
C2040 C2041 1.366 . S
C2040 C2042 1.388 . S
C2041 C2040 1.366 . S
C2041 C2045 1.385 . S
C2042 H2023 0.951 . S
C2042 C2040 1.388 . S
C2042 C2043 1.366 . S
C2043 C2042 1.366 . S
C2043 C2044 1.414 . S
C2043 C2046 1.499 . S
C2044 H2024 0.950 . S
C2044 C2043 1.414 . S
C2044 C2045 1.374 . S
C2045 H2025 0.950 . S
C2045 C2041 1.385 . S
C2045 C2044 1.374 . S
C2046 C2043 1.499 . S
C2046 C2047 1.373 . S
C2046 C2048 1.389 . S
C2047 H2026 0.950 . S
C2047 C2046 1.373 . S
C2047 C2063 1.377 . S
C2048 C2046 1.389 . S
C2048 C2049 1.524 . S
C2048 C2062 1.377 . S
C2049 C2048 1.524 . S
C2049 C2050 1.397 . S
C2049 C2054 1.363 . S
C2050 H2027 0.950 . S
C2050 C2049 1.397 . S
C2050 C2051 1.334 . S
C2051 H2028 0.950 . S
C2051 C2050 1.334 . S
C2051 C2052 1.287 . S
C2052 C2051 1.287 . S
C2052 C2053 1.524 . S
C2052 H2071 0.913 . S
C2053 H2029 0.950 . S
C2053 C2052 1.524 . S
C2053 C2054 1.415 . S
C2054 H2030 0.950 . S
C2054 C2049 1.363 . S
C2054 C2053 1.415 . S
C2055 H2031 0.951 . S
C2055 C2056 1.366 . S
C2055 C2057 1.388 . S
C2056 C2055 1.366 . S
C2056 C2060 1.385 . S
C2057 H2032 0.951 . S
C2057 C2055 1.388 . S
C2057 C2058 1.366 . S
C2058 C2057 1.366 . S
C2058 C2059 1.414 . S
C2058 C2061 1.499 . S
C2059 H2033 0.950 . S
C2059 C2058 1.414 . S
C2059 C2060 1.374 . S
C2060 H2034 0.950 . S
C2060 C2056 1.385 . S
C2060 C2059 1.374 . S
C2061 C2058 1.499 . S
C2061 C2062 1.373 . S
C2061 C2063 1.389 . S
C2062 H2035 0.950 . S
C2062 C2048 1.377 . S
C2062 C2061 1.373 . S
C2063 C2047 1.377 . S
C2063 C2061 1.389 . S
C2063 C2064 1.524 . S
C2064 C2063 1.524 . S
C2064 C2065 1.397 . S
C2064 C2069 1.363 . S
C2065 H2036 0.950 . S
C2065 C2064 1.397 . S
C2065 C2066 1.334 . S
C2066 H2037 0.950 . S
C2066 C2065 1.334 . S
C2066 C2067 1.287 . S
C2067 C2066 1.287 . S
C2067 C2068 1.524 . S
C2067 H2070 0.999 . S
C2068 H2038 0.950 . S
C2068 C2067 1.524 . S
C2068 C2069 1.415 . S
C2069 H2039 0.950 . S
C2069 C2064 1.363 . S
C2069 C2068 1.415 . S
H2070 C2067 0.999 . S
H2071 C2052 0.913 . S
H2072 C2090 0.951 . S
H2073 C2092 0.951 . S
H2074 C2094 0.950 . S
H2075 C2095 0.950 . S
H2076 C2097 0.950 . S
H2077 C2100 0.950 . S
H2078 C2101 0.950 . S
H2079 C2103 0.950 . S
H2080 C2104 0.950 . S
H2081 C2105 0.951 . S
H2082 C2107 0.951 . S
H2083 C2109 0.950 . S
H2084 C2110 0.950 . S
H2085 C2112 0.950 . S
H2086 C2115 0.950 . S
H2087 C2116 0.950 1_556 S
H2088 C2118 0.950 . S
H2089 C2119 0.950 . S
C2090 H2072 0.951 . S
C2090 C2091 1.366 . S
C2090 C2092 1.388 . S
C2091 C2090 1.366 . S
C2091 C2095 1.385 . S
C2092 H2073 0.951 . S
C2092 C2090 1.388 . S
C2092 C2093 1.366 . S
C2093 C2092 1.366 . S
C2093 C2094 1.414 . S
C2093 C2096 1.499 . S
C2094 H2074 0.950 . S
C2094 C2093 1.414 . S
C2094 C2095 1.374 . S
C2095 H2075 0.950 . S
C2095 C2091 1.385 . S
C2095 C2094 1.374 . S
C2096 C2093 1.499 . S
C2096 C2097 1.373 . S
C2096 C2098 1.389 . S
C2097 H2076 0.950 . S
C2097 C2096 1.373 . S
C2097 C2113 1.377 . S
C2098 C2096 1.389 . S
C2098 C2099 1.524 . S
C2098 C2112 1.377 . S
C2099 C2098 1.524 . S
C2099 C2100 1.397 . S
C2099 C2104 1.363 . S
C2100 H2077 0.950 . S
C2100 C2099 1.397 . S
C2100 C2101 1.334 . S
C2101 H2078 0.950 . S
C2101 C2100 1.334 . S
C2101 C2102 1.287 . S
C2102 C2101 1.287 . S
C2102 C2103 1.524 . S
C2102 H2121 0.913 . S
C2103 H2079 0.950 . S
C2103 C2102 1.524 . S
C2103 C2104 1.415 . S
C2104 H2080 0.950 . S
C2104 C2099 1.363 . S
C2104 C2103 1.415 . S
C2105 H2081 0.951 . S
C2105 C2106 1.366 . S
C2105 C2107 1.388 1_556 S
C2106 C2105 1.366 . S
C2106 C2110 1.385 . S
C2107 H2082 0.951 . S
C2107 C2105 1.388 1_554 S
C2107 C2108 1.366 . S
C2108 C2107 1.366 . S
C2108 C2109 1.414 . S
C2108 C2111 1.499 . S
C2109 H2083 0.950 . S
C2109 C2108 1.414 . S
C2109 C2110 1.374 1_554 S
C2110 H2084 0.950 . S
C2110 C2106 1.385 . S
C2110 C2109 1.374 1_556 S
C2111 C2108 1.499 . S
C2111 C2112 1.373 . S
C2111 C2113 1.389 . S
C2112 H2085 0.950 . S
C2112 C2098 1.377 . S
C2112 C2111 1.373 . S
C2113 C2097 1.377 . S
C2113 C2111 1.389 . S
C2113 C2114 1.524 . S
C2114 C2113 1.524 . S
C2114 C2115 1.397 . S
C2114 C2119 1.363 . S
C2115 H2086 0.950 . S
C2115 C2114 1.397 . S
C2115 C2116 1.334 . S
C2116 H2087 0.950 1_554 S
C2116 C2115 1.334 . S
C2116 C2117 1.280 1_554 S
C2117 C2116 1.280 1_556 S
C2117 C2118 1.496 1_556 S
C2117 H2120 1.046 . S
C2118 H2088 0.950 . S
C2118 C2117 1.496 1_554 S
C2118 C2119 1.415 . S
C2119 H2089 0.950 . S
C2119 C2114 1.363 . S
C2119 C2118 1.415 . S
H2120 C2117 1.046 . S
H2121 C2102 0.913 . S
H2122 C2140 0.951 . S
H2123 C2142 0.951 . S
H2124 C2144 0.950 . S
H2125 C2145 0.950 . S
H2126 C2147 0.950 . S
H2127 C2150 0.950 . S
H2128 C2151 0.950 . S
H2129 C2153 0.950 . S
H2130 C2154 0.950 . S
H2131 C2155 0.951 . S
H2132 C2157 0.951 . S
H2133 C2159 0.950 . S
H2134 C2160 0.950 . S
H2135 C2162 0.950 . S
H2136 C2165 0.950 . S
H2137 C2166 0.950 . S
H2138 C2168 0.950 . S
H2139 C2169 0.950 . S
C2140 H2122 0.951 . S
C2140 C2141 1.366 . S
C2140 C2142 1.388 . S
C2141 C2140 1.366 . S
C2141 C2145 1.385 . S
C2142 H2123 0.951 . S
C2142 C2140 1.388 . S
C2142 C2143 1.366 . S
C2143 C2142 1.366 . S
C2143 C2144 1.414 . S
C2143 C2146 1.499 . S
C2144 H2124 0.950 . S
C2144 C2143 1.414 . S
C2144 C2145 1.374 . S
C2145 H2125 0.950 . S
C2145 C2141 1.385 . S
C2145 C2144 1.374 . S
C2146 C2143 1.499 . S
C2146 C2147 1.373 . S
C2146 C2148 1.389 . S
C2147 H2126 0.950 . S
C2147 C2146 1.373 . S
C2147 C2163 1.377 . S
C2148 C2146 1.389 . S
C2148 C2149 1.524 . S
C2148 C2162 1.377 . S
C2149 C2148 1.524 . S
C2149 C2150 1.397 . S
C2149 C2154 1.363 . S
C2150 H2127 0.950 . S
C2150 C2149 1.397 . S
C2150 C2151 1.334 . S
C2151 H2128 0.950 . S
C2151 C2150 1.334 . S
C2151 C2152 1.287 . S
C2152 C2151 1.287 . S
C2152 C2153 1.524 . S
C2152 H2171 0.913 . S
C2153 H2129 0.950 . S
C2153 C2152 1.524 . S
C2153 C2154 1.415 . S
C2154 H2130 0.950 . S
C2154 C2149 1.363 . S
C2154 C2153 1.415 . S
C2155 H2131 0.951 . S
C2155 C2156 1.366 . S
C2155 C2157 1.388 . S
C2156 C2155 1.366 . S
C2156 C2160 1.385 . S
C2157 H2132 0.951 . S
C2157 C2155 1.388 . S
C2157 C2158 1.366 . S
C2158 C2157 1.366 . S
C2158 C2159 1.414 . S
C2158 C2161 1.499 . S
C2159 H2133 0.950 . S
C2159 C2158 1.414 . S
C2159 C2160 1.374 . S
C2160 H2134 0.950 . S
C2160 C2156 1.385 . S
C2160 C2159 1.374 . S
C2161 C2158 1.499 . S
C2161 C2162 1.373 . S
C2161 C2163 1.389 . S
C2162 H2135 0.950 . S
C2162 C2148 1.377 . S
C2162 C2161 1.373 . S
C2163 C2147 1.377 . S
C2163 C2161 1.389 . S
C2163 C2164 1.524 . S
C2164 C2163 1.524 . S
C2164 C2165 1.397 . S
C2164 C2169 1.363 . S
C2165 H2136 0.950 . S
C2165 C2164 1.397 . S
C2165 C2166 1.334 . S
C2166 H2137 0.950 . S
C2166 C2165 1.334 . S
C2166 C2167 1.287 . S
C2167 C2166 1.287 . S
C2167 C2168 1.524 . S
C2167 H2170 0.999 . S
C2168 H2138 0.950 . S
C2168 C2167 1.524 . S
C2168 C2169 1.415 . S
C2169 H2139 0.950 . S
C2169 C2164 1.363 . S
C2169 C2168 1.415 . S
H2170 C2167 0.999 . S
H2171 C2152 0.913 . S
C1006 C913 1.078 . S
C991 C51 1.067 . S
C1041 C125 1.593 . S
C1056 C473 1.595 . S
C1091 C217 2.683 . S
C1106 C561 2.686 . S
C1141 C291 1.792 . S
C1156 C640 1.796 . S
C1206 C737 0.450 . S
C1191 C347 0.454 . S
C1241 C421 0.796 . S
C1256 C816 0.798 . S
C1291 C143 2.698 . S
C1306 C581 2.701 . S
C1341 C199 1.309 . S
C1356 C677 1.305 . S
C1391 C273 0.497 . S
C1406 C757 0.496 . S
C1456 C853 1.462 . S
C1441 C365 1.463 . S
C1506 C933 2.152 . S
C1491 C439 2.172 . S
C1556 C493 2.501 . S
C1541 C69 2.517 . S
C1591 C63 1.239 . S
C1606 C589 1.294 . S
C1641 C137 1.332 . S
C1656 C669 1.375 . S
C1706 C765 1.194 . S
C1691 C187 1.171 . S
C1741 C261 1.327 . S
C1756 C845 1.364 . S
C1806 C941 1.164 . S
C1791 C359 1.106 . S
C1856 C501 0.876 . S
C1841 C433 0.859 . S
C1906 C904 1.549 . S
C1891 C113 1.546 . S
C1941 C211 1.243 . S
C1956 C464 1.271 . S
C2006 C552 1.374 . S
C1991 C285 1.308 . S
C2041 C335 1.119 . S
C2056 C649 1.147 . S
C2091 C409 1.247 . S
C2106 C728 1.280 . S
C2141 C39 1.704 . S
C2156 C825 1.719 . S
