# Generated by pormake.
# Topology zzz, (3,6)-cn, num edge types: 1
# Building blocks:
#     Node 0, Type 0, BuildingBlock: ESEHIV_clean_linker_0, # of connection points: 3
#     Node 1, Type 0, BuildingBlock: ESEHIV_clean_linker_0, # of connection points: 3
#     Node 2, Type 0, BuildingBlock: ESEHIV_clean_linker_0, # of connection points: 3
#     Node 3, Type 0, BuildingBlock: ESEHIV_clean_linker_0, # of connection points: 3
#     Node 4, Type 0, BuildingBlock: ESEHIV_clean_linker_0, # of connection points: 3
#     Node 5, Type 0, BuildingBlock: ESEHIV_clean_linker_0, # of connection points: 3
#     Node 6, Type 0, BuildingBlock: ESEHIV_clean_linker_0, # of connection points: 3
#     Node 7, Type 0, BuildingBlock: ESEHIV_clean_linker_0, # of connection points: 3
#     Node 8, Type 1, BuildingBlock: VOLQOD_clean_sbu_1, # of connection points: 6
#     Node 9, Type 1, BuildingBlock: VOLQOD_clean_sbu_1, # of connection points: 6
#     Node 10, Type 1, BuildingBlock: VOLQOD_clean_sbu_1, # of connection points: 6
#     Node 11, Type 1, BuildingBlock: VOLQOD_clean_sbu_1, # of connection points: 6
#     Edge 12, Type (0, 1), BuildingBlock: CIFDUS_clean_linker_0, # of connection points: 2
#     Edge 13, Type (0, 1), BuildingBlock: CIFDUS_clean_linker_0, # of connection points: 2
#     Edge 14, Type (0, 1), BuildingBlock: CIFDUS_clean_linker_0, # of connection points: 2
#     Edge 15, Type (0, 1), BuildingBlock: CIFDUS_clean_linker_0, # of connection points: 2
#     Edge 16, Type (0, 1), BuildingBlock: CIFDUS_clean_linker_0, # of connection points: 2
#     Edge 17, Type (0, 1), BuildingBlock: CIFDUS_clean_linker_0, # of connection points: 2
#     Edge 18, Type (0, 1), BuildingBlock: CIFDUS_clean_linker_0, # of connection points: 2
#     Edge 19, Type (0, 1), BuildingBlock: CIFDUS_clean_linker_0, # of connection points: 2
#     Edge 20, Type (0, 1), BuildingBlock: CIFDUS_clean_linker_0, # of connection points: 2
#     Edge 21, Type (0, 1), BuildingBlock: CIFDUS_clean_linker_0, # of connection points: 2
#     Edge 22, Type (0, 1), BuildingBlock: CIFDUS_clean_linker_0, # of connection points: 2
#     Edge 23, Type (0, 1), BuildingBlock: CIFDUS_clean_linker_0, # of connection points: 2
#     Edge 24, Type (0, 1), BuildingBlock: CIFDUS_clean_linker_0, # of connection points: 2
#     Edge 25, Type (0, 1), BuildingBlock: CIFDUS_clean_linker_0, # of connection points: 2
#     Edge 26, Type (0, 1), BuildingBlock: CIFDUS_clean_linker_0, # of connection points: 2
#     Edge 27, Type (0, 1), BuildingBlock: CIFDUS_clean_linker_0, # of connection points: 2
#     Edge 28, Type (0, 1), BuildingBlock: CIFDUS_clean_linker_0, # of connection points: 2
#     Edge 29, Type (0, 1), BuildingBlock: CIFDUS_clean_linker_0, # of connection points: 2
#     Edge 30, Type (0, 1), BuildingBlock: CIFDUS_clean_linker_0, # of connection points: 2
#     Edge 31, Type (0, 1), BuildingBlock: CIFDUS_clean_linker_0, # of connection points: 2
#     Edge 32, Type (0, 1), BuildingBlock: CIFDUS_clean_linker_0, # of connection points: 2
#     Edge 33, Type (0, 1), BuildingBlock: CIFDUS_clean_linker_0, # of connection points: 2
#     Edge 34, Type (0, 1), BuildingBlock: CIFDUS_clean_linker_0, # of connection points: 2
#     Edge 35, Type (0, 1), BuildingBlock: CIFDUS_clean_linker_0, # of connection points: 2
# Relax obj value: 0.359
# Max RMSD: 0.258
# Mean RMSD: 0.208
data_MOF--net-zzz--node1-VOLQOD_clean_sbu_1--node2-ESEHIV_clean_linker_0--edge1-CIFDUS_clean_linker_0
_symmetry_space_group_name_H-M    P1
_symmetry_Int_Tables_number       1
_symmetry_cell_setting            triclinic
loop_
_symmetry_equiv_pos_as_xyz
'x, y, z'
_cell_length_a     39.109471
_cell_length_b     38.563921
_cell_length_c     15.459818
_cell_angle_alpha  90.042395
_cell_angle_beta   89.929857
_cell_angle_gamma 92.342734
loop_
_atom_site_label
_atom_site_type_symbol
_atom_site_fract_x
_atom_site_fract_y
_atom_site_fract_z
_atom_type_partial_charge
H0 H 0.86744 0.50748 0.14986 0.0
H1 H 0.77938 0.47913 0.99671 0.0
H2 H 0.76763 0.53565 0.23507 0.0
C3 C 0.83999 0.507 0.13996 0.0
C4 C 0.81941 0.52274 0.20163 0.0
C5 C 0.82588 0.49084 0.06638 0.0
C6 C 0.79048 0.49116 0.05406 0.0
C7 C 0.76923 0.50774 0.11325 0.0
C8 C 0.78377 0.52331 0.18814 0.0
H9 H 0.06158 0.82606 0.28569 0.0
H10 H 0.07475 0.77929 0.03613 0.0
H11 H 0.02058 0.72324 0.23867 0.0
C12 C 0.05869 0.80392 0.24262 0.0
C13 C 0.0396 0.77472 0.27114 0.0
C14 C 0.06866 0.80729 0.15587 0.0
C15 C 0.06607 0.77762 0.10252 0.0
C16 C 0.05073 0.74617 0.13365 0.0
C17 C 0.0359 0.74565 0.21704 0.0
H18 H 0.69222 0.02849 0.28129 0.0
H19 H 0.73797 0.04315 0.03101 0.0
H20 H 0.78987 0.9864 0.22791 0.0
C21 C 0.71361 0.02565 0.23748 0.0
C22 C 0.74055 0.00533 0.26336 0.0
C23 C 0.71075 0.03659 0.15178 0.0
C24 C 0.73944 0.03441 0.09741 0.0
C25 C 0.76935 0.01851 0.12606 0.0
C26 C 0.76878 1.00184 0.20774 0.0
H27 H 0.47902 0.66867 0.29234 0.0
H28 H 0.53208 0.76819 0.27578 0.0
H29 H 0.47541 0.72756 0.05724 0.0
C30 C 0.48533 0.69199 0.25555 0.0
C31 C 0.4741 0.69479 0.16994 0.0
C32 C 0.50703 0.7177 0.29281 0.0
C33 C 0.51538 0.74834 0.24673 0.0
C34 C 0.50216 0.75289 0.16275 0.0
C35 C 0.48252 0.72552 0.12465 0.0
H36 H 0.2244 0.56807 0.0871 0.0
H37 H 0.30132 0.59361 0.27776 0.0
H38 H 0.31867 0.51533 0.08593 0.0
C39 C 0.25004 0.56601 0.11255 0.0
C40 C 0.27133 0.54194 0.07418 0.0
C41 C 0.25975 0.58393 0.18815 0.0
C42 C 0.29286 0.57955 0.22046 0.0
C43 C 0.31384 0.55415 0.1862 0.0
C44 C 0.30333 0.5358 0.11129 0.0
H45 H 0.99887 0.17638 0.10826 0.0
H46 H 0.98764 0.24395 0.32787 0.0
H47 H 0.05249 0.27529 0.1151 0.0
C48 C 0.00504 0.20002 0.14356 0.0
C49 C 0.0284 0.22397 0.1057 0.0
C50 C 0.99104 0.20559 0.22583 0.0
C51 C 0.9978 0.23823 0.26462 0.0
C52 C 0.01863 0.26402 0.22368 0.0
C53 C 0.03526 0.25624 0.14553 0.0
H54 H 0.3309 0.96123 0.10584 0.0
H55 H 0.2748 0.96322 0.3453 0.0
H56 H 0.24839 0.03032 0.136 0.0
C57 C 0.31054 0.97095 0.1455 0.0
C58 C 0.29113 0.99761 0.11234 0.0
C59 C 0.30645 0.95944 0.23099 0.0
C60 C 0.27879 0.97157 0.27909 0.0
C61 C 0.25668 0.99578 0.24406 0.0
C62 C 0.26362 0.00977 0.16117 0.0
H63 H 0.50392 0.31319 0.09587 0.0
H64 H 0.48734 0.20288 0.07754 0.0
H65 H 0.51212 0.25171 0.32372 0.0
C66 C 0.50222 0.28801 0.12732 0.0
C67 C 0.50939 0.28565 0.21513 0.0
C68 C 0.49288 0.2587 0.07847 0.0
C69 C 0.4931 0.2256 0.11686 0.0
C70 C 0.5011 0.2224 0.20603 0.0
C71 C 0.50821 0.25298 0.25452 0.0
O72 O 0.08879 0.0149 0.59493 0.0
Zn73 Zn 0.05747 0.01535 0.70181 0.0
O74 O 0.01021 0.99747 0.6729 0.0
Zn75 Zn 0.977 0.03325 0.68845 0.0
Zn76 Zn 0.00873 0.98159 0.55312 0.0
Zn77 Zn 0.99575 0.95878 0.74699 0.0
O78 O 0.93836 0.01926 0.77131 0.0
O79 O 0.95162 0.96652 0.81312 0.0
O80 O 0.05629 0.0653 0.74987 0.0
O81 O 1.00094 0.07541 0.73688 0.0
O82 O 0.95861 0.0488 0.57428 0.0
O83 O 0.97846 0.01074 0.48126 0.0
O84 O 0.99584 0.9305 0.54315 0.0
O85 O 0.07838 0.98385 0.79256 0.0
O86 O 0.99236 0.91363 0.68033 0.0
O87 O 0.03246 0.95147 0.83199 0.0
C88 C 0.08407 0.0024 0.5191 0.0
C89 C 0.93201 0.99211 0.81659 0.0
C90 C 0.96154 0.03753 0.49734 0.0
C91 C 0.03125 0.08541 0.75751 0.0
C92 C 0.99193 0.9067 0.59983 0.0
C93 C 0.06379 0.96086 0.84085 0.0
O94 O 0.05525 0.98842 0.49756 0.0
O95 O 0.50427 0.06441 0.60836 0.0
Zn96 Zn 0.50089 0.03057 0.70876 0.0
O97 O 0.51459 0.98398 0.66895 0.0
Zn98 Zn 0.47591 0.95141 0.68055 0.0
Zn99 Zn 0.52877 0.98515 0.54729 0.0
Zn100 Zn 0.55213 0.96672 0.73859 0.0
O101 O 0.48549 0.91342 0.76354 0.0
O102 O 0.53884 0.92302 0.80834 0.0
O103 O 0.45161 0.0293 0.75894 0.0
O104 O 0.43572 0.97474 0.72932 0.0
O105 O 0.46031 0.93182 0.56699 0.0
O106 O 0.49801 0.95434 0.47357 0.0
O107 O 0.57849 0.97303 0.53308 0.0
O108 O 0.53431 0.04959 0.79976 0.0
O109 O 0.59529 0.96122 0.66686 0.0
O110 O 0.56547 0.00339 0.82307 0.0
C111 C 0.51373 0.06175 0.52972 0.0
C112 C 0.51054 0.90537 0.81089 0.0
C113 C 0.47127 0.93551 0.48995 0.0
C114 C 0.42893 0.00446 0.7588 0.0
C115 C 0.60162 0.96467 0.58633 0.0
C116 C 0.55802 0.03448 0.83949 0.0
O117 O 0.52387 0.03335 0.49867 0.0
O118 O 0.44168 0.49453 0.6295 0.0
Zn119 Zn 0.47312 0.48374 0.73056 0.0
O120 O 0.52151 0.49396 0.69848 0.0
Zn121 Zn 0.54836 0.45349 0.7203 0.0
Zn122 Zn 0.52476 0.5051 0.57661 0.0
Zn123 Zn 0.54149 0.53351 0.76226 0.0
O124 O 0.58641 0.46427 0.80427 0.0
O125 O 0.58414 0.52082 0.82942 0.0
O126 O 0.46549 0.43276 0.7659 0.0
O127 O 0.51869 0.41476 0.76832 0.0
O128 O 0.5663 0.43257 0.61127 0.0
O129 O 0.54479 0.4665 0.51129 0.0
O130 O 0.55055 0.55015 0.55434 0.0
O131 O 0.46023 0.51348 0.83377 0.0
O132 O 0.55151 0.57536 0.68366 0.0
O133 O 0.50772 0.54681 0.85121 0.0
C134 C 0.44768 0.5049 0.55227 0.0
C135 C 0.59784 0.49177 0.84191 0.0
C136 C 0.56047 0.43956 0.53245 0.0
C137 C 0.48673 0.40905 0.77938 0.0
C138 C 0.55639 0.57662 0.60211 0.0
C139 C 0.47743 0.53737 0.87336 0.0
O140 O 0.47816 0.51018 0.52516 0.0
O141 O 0.99983 0.56571 0.52258 0.0
Zn142 Zn 0.04331 0.56269 0.59608 0.0
O143 O 0.0487 0.51515 0.64236 0.0
Zn144 Zn 0.05029 0.5161 0.76863 0.0
Zn145 Zn 0.01007 0.48559 0.60472 0.0
Zn146 Zn 0.09081 0.4948 0.60123 0.0
O147 O 0.09436 0.49871 0.81467 0.0
O148 O 0.12344 0.48344 0.69839 0.0
O149 O 0.04013 0.59713 0.69543 0.0
O150 O 0.04639 0.56505 0.81314 0.0
O151 O 0.01168 0.48714 0.8197 0.0
O152 O 0.98386 0.46569 0.7052 0.0
O153 O 0.02501 0.44686 0.52789 0.0
O154 O 0.08548 0.57829 0.5263 0.0
O155 O 0.08171 0.45232 0.52417 0.0
O156 O 0.11662 0.53129 0.53562 0.0
C157 C 0.97518 0.54354 0.50995 0.0
C158 C 0.12102 0.48689 0.78003 0.0
C159 C 0.98734 0.4687 0.78663 0.0
C160 C 0.0423 0.59438 0.77749 0.0
C161 C 0.05377 0.43669 0.50121 0.0
C162 C 0.11279 0.56236 0.51115 0.0
O163 O 0.97622 0.51276 0.53895 0.0
H164 H 0.18889 0.98597 0.2096 0.0
H165 H 0.25914 0.02772 0.40089 0.0
H166 H 0.21181 0.03539 0.50203 0.0
H167 H 0.15097 0.02547 0.54063 0.0
H168 H 0.08113 0.98132 0.35029 0.0
H169 H 0.12741 0.97935 0.24519 0.0
C170 C 0.19359 0.99755 0.27266 0.0
C171 C 0.22734 0.00659 0.29756 0.0
C172 C 0.16631 1.0009 0.33148 0.0
C173 C 0.23329 0.02086 0.38017 0.0
C174 C 0.20626 0.02499 0.4382 0.0
C175 C 0.14577 0.01567 0.47601 0.0
C176 C 0.11246 0.00333 0.45425 0.0
C177 C 0.17273 0.0143 0.41543 0.0
C178 C 0.10642 0.9908 0.36971 0.0
C179 C 0.13294 0.98969 0.30911 0.0
H180 H 0.54159 0.20408 0.34125 0.0
H181 H 0.46244 0.16207 0.1717 0.0
H182 H 0.46119 0.10769 0.25284 0.0
H183 H 0.48002 0.07321 0.37898 0.0
H184 H 0.55221 0.11998 0.55908 0.0
H185 H 0.55763 0.17202 0.46894 0.0
C186 C 0.52334 0.18355 0.32253 0.0
C187 C 0.50171 0.18789 0.25065 0.0
C188 C 0.52122 0.15322 0.37245 0.0
C189 C 0.47967 0.15981 0.22593 0.0
C190 C 0.47862 0.1287 0.27307 0.0
C191 C 0.49683 0.09494 0.39808 0.0
C192 C 0.51573 0.09305 0.47523 0.0
C193 C 0.49887 0.12532 0.34738 0.0
C194 C 0.53733 0.12117 0.50013 0.0
C195 C 0.54052 0.15077 0.44849 0.0
H196 H 0.31119 0.53436 0.35253 0.0
H197 H 0.38141 0.54877 0.13925 0.0
H198 H 0.42924 0.5341 0.23388 0.0
H199 H 0.45086 0.5194 0.37908 0.0
H200 H 0.37948 0.50501 0.59089 0.0
H201 H 0.33221 0.51765 0.49474 0.0
C202 C 0.33702 0.53428 0.32678 0.0
C203 C 0.34295 0.54298 0.23947 0.0
C204 C 0.36407 0.52599 0.38134 0.0
C205 C 0.37632 0.54216 0.20628 0.0
C206 C 0.40359 0.53395 0.26048 0.0
C207 C 0.42497 0.51896 0.40433 0.0
C208 C 0.41885 0.51142 0.49261 0.0
C209 C 0.39777 0.52618 0.34843 0.0
C210 C 0.38504 0.51073 0.52363 0.0
C211 C 0.35796 0.51799 0.46864 0.0
H212 H 0.07624 0.30121 0.27697 0.0
H213 H 0.96641 0.3049 0.26053 0.0
H214 H 0.96778 0.35924 0.34149 0.0
H215 H 0.99934 0.40352 0.42457 0.0
H216 H 0.10919 0.40066 0.44591 0.0
H217 H 0.10872 0.34841 0.35553 0.0
C218 C 0.05279 0.31434 0.29011 0.0
C219 C 0.02124 0.29912 0.26313 0.0
C220 C 0.05371 0.34547 0.3384 0.0
C221 C 0.99094 0.31612 0.28107 0.0
C222 C 0.9917 0.34711 0.32752 0.0
C223 C 0.02329 0.39163 0.4095 0.0
C224 C 0.05422 0.40594 0.44294 0.0
C225 C 0.02281 0.36164 0.35797 0.0
C226 C 0.08496 0.3902 0.42152 0.0
C227 C 0.08471 0.36027 0.36978 0.0
H228 H 0.81198 0.96503 0.08944 0.0
H229 H 0.79571 0.07254 0.03128 0.0
H230 H 0.84344 0.07365 0.92986 0.0
H231 H 0.88968 0.04441 0.85634 0.0
H232 H 0.90728 0.93718 0.9146 0.0
H233 H 0.85949 0.93579 0.01681 0.0
C234 C 0.81911 0.98878 0.05527 0.0
C235 C 0.79997 0.0186 0.06792 0.0
C236 C 0.84682 0.98931 0.99641 0.0
C237 C 0.80954 0.04904 0.02214 0.0
C238 C 0.83696 0.04976 0.96414 0.0
C239 C 0.88306 0.02063 0.89099 0.0
C240 C 0.90216 0.99092 0.87704 0.0
C241 C 0.85566 0.02003 0.95025 0.0
C242 C 0.89313 0.96049 0.92349 0.0
C243 C 0.86576 0.95966 0.98227 0.0
H244 H 0.45792 0.78579 0.06075 0.0
H245 H 0.56275 0.79214 0.14729 0.0
H246 H 0.57497 0.84043 0.04701 0.0
H247 H 0.55613 0.87874 0.9277 0.0
H248 H 0.45154 0.86746 0.83809 0.0
H249 H 0.43953 0.82257 0.94438 0.0
C250 C 0.48358 0.79753 0.05757 0.0
C251 C 0.50944 0.78498 0.11084 0.0
C252 C 0.49067 0.82413 0.99784 0.0
C253 C 0.54225 0.80132 0.10745 0.0
C254 C 0.54934 0.8287 0.04933 0.0
C255 C 0.5308 0.86632 0.93119 0.0
C256 C 0.50492 0.87659 0.8741 0.0
C257 C 0.52385 0.83993 0.99289 0.0
C258 C 0.47216 0.86021 0.88026 0.0
C259 C 0.46508 0.83452 0.94154 0.0
H260 H 0.72584 0.45496 0.066 0.0
H261 H 0.73103 0.56563 0.10508 0.0
H262 H 0.67655 0.57064 0.02829 0.0
H263 H 0.63158 0.54405 0.93323 0.0
H264 H 0.62983 0.43331 0.88874 0.0
H265 H 0.679 0.42802 0.98273 0.0
C266 C 0.71463 0.4801 0.05923 0.0
C267 C 0.73248 0.50989 0.09053 0.0
C268 C 0.68435 0.48288 0.0118 0.0
C269 C 0.71762 0.54228 0.08211 0.0
C270 C 0.68676 0.54517 0.037 0.0
C271 C 0.64185 0.51875 0.94443 0.0
C272 C 0.62717 0.48924 0.90246 0.0
C273 C 0.67059 0.51578 0.99859 0.0
C274 C 0.6407 0.45661 0.9188 0.0
C275 C 0.66882 0.45345 0.97307 0.0
H276 H 0.03737 0.74137 0.95947 0.0
H277 H 0.05947 0.67925 0.18323 0.0
H278 H 0.05754 0.627 0.09403 0.0
H279 H 0.05128 0.59901 0.95218 0.0
H280 H 0.03085 0.66112 0.72719 0.0
H281 H 0.03087 0.71321 0.81714 0.0
C282 C 0.0421 0.71648 0.98873 0.0
C283 C 0.04869 0.71442 0.07821 0.0
C284 C 0.04133 0.68645 0.93677 0.0
C285 C 0.05398 0.68169 0.11489 0.0
C286 C 0.05309 0.65176 0.06378 0.0
C287 C 0.04669 0.62388 0.92259 0.0
C288 C 0.04111 0.62597 0.83271 0.0
C289 C 0.04695 0.65384 0.9746 0.0
C290 C 0.03527 0.65858 0.796 0.0
C291 C 0.03529 0.68846 0.84746 0.0
H292 H 0.99354 0.13495 0.19653 0.0
H293 H 0.94506 0.20868 0.36401 0.0
H294 H 0.92606 0.16136 0.45814 0.0
H295 H 0.93155 0.10045 0.50396 0.0
H296 H 0.97493 0.02771 0.326 0.0
H297 H 0.98464 0.07373 0.22082 0.0
C298 C 0.9776 0.14149 0.25076 0.0
C299 C 0.97235 0.17642 0.27333 0.0
C300 C 0.9653 0.11408 0.3029 0.0
C301 C 0.95163 0.18269 0.34612 0.0
C302 C 0.94009 0.15543 0.39985 0.0
C303 C 0.94205 0.09436 0.44105 0.0
C304 C 0.9538 0.0609 0.42454 0.0
C305 C 0.94814 0.12117 0.38075 0.0
C306 C 0.96641 0.05335 0.34167 0.0
C307 C 0.97233 0.07978 0.28155 0.0
H308 H 0.37484 0.96071 0.19091 0.0
H309 H 0.30119 0.91308 0.36821 0.0
H310 H 0.34794 0.8942 0.45853 0.0
H311 H 0.40862 0.90175 0.49973 0.0
H312 H 0.48093 0.94778 0.31738 0.0
H313 H 0.4353 0.95403 0.21271 0.0
C314 C 0.36835 0.94485 0.24672 0.0
C315 C 0.33397 0.9396 0.27346 0.0
C316 C 0.39524 0.93353 0.29759 0.0
C317 C 0.32718 0.91912 0.34746 0.0
C318 C 0.35397 0.90792 0.39893 0.0
C319 C 0.41466 0.91209 0.43605 0.0
C320 C 0.44792 0.92567 0.41791 0.0
C321 C 0.38804 0.91666 0.37683 0.0
C322 C 0.45543 0.93795 0.33413 0.0
C323 C 0.42925 0.94187 0.27435 0.0
H324 H 0.55859 0.29665 0.3388 0.0
H325 H 0.47813 0.3471 0.20213 0.0
H326 H 0.49274 0.40134 0.27552 0.0
H327 H 0.52475 0.43317 0.38491 0.0
H328 H 0.60004 0.38225 0.53806 0.0
H329 H 0.59178 0.32968 0.45 0.0
C330 C 0.54414 0.31947 0.32574 0.0
C331 C 0.51751 0.31786 0.26456 0.0
C332 C 0.55206 0.35057 0.37006 0.0
C333 C 0.49917 0.34774 0.24772 0.0
C334 C 0.50744 0.3788 0.28972 0.0
C335 C 0.54008 0.41095 0.39801 0.0
C336 C 0.56305 0.41165 0.46778 0.0
C337 C 0.53361 0.38041 0.3513 0.0
C338 C 0.5823 0.38238 0.48431 0.0
C339 C 0.57726 0.35222 0.43474 0.0
H340 H 0.2568 0.58489 0.36432 0.0
H341 H 0.2008 0.61685 0.13912 0.0
H342 H 0.14871 0.61874 0.22589 0.0
H343 H 0.11736 0.59783 0.35776 0.0
H344 H 0.17556 0.5661 0.57868 0.0
H345 H 0.22883 0.5792 0.50198 0.0
C346 C 0.2339 0.59389 0.33378 0.0
C347 C 0.23273 0.59903 0.24372 0.0
C348 C 0.20409 0.59459 0.38357 0.0
C349 C 0.20228 0.61098 0.20744 0.0
C350 C 0.17238 0.61215 0.2571 0.0
C351 C 0.14179 0.59508 0.38965 0.0
C352 C 0.14283 0.58039 0.47264 0.0
C353 C 0.17256 0.60175 0.344 0.0
C354 C 0.17442 0.5769 0.51405 0.0
C355 C 0.20484 0.58427 0.47022 0.0
H356 H 0.11077 0.82901 0.01994 0.0
H357 H 0.03832 0.86663 0.20656 0.0
H358 H 0.04006 0.92242 0.1382 0.0
H359 H 0.05117 0.95648 0.00925 0.0
H360 H 0.11666 0.9186 0.80981 0.0
H361 H 0.12888 0.86785 0.89866 0.0
C362 C 0.09568 0.84949 0.04624 0.0
C363 C 0.07468 0.84295 0.11921 0.0
C364 C 0.09524 0.8818 0.00351 0.0
C365 C 0.05566 0.87036 0.15247 0.0
C366 C 0.05615 0.90259 0.11256 0.0
C367 C 0.0694 0.93788 0.98724 0.0
C368 C 0.08309 0.94109 0.9039 0.0
C369 C 0.07454 0.90806 0.03615 0.0
C370 C 0.10627 0.91678 0.87473 0.0
C371 C 0.11267 0.88743 0.92483 0.0
H372 H 0.69213 0.08083 0.02034 0.0
H373 H 0.65031 0.00452 0.20124 0.0
H374 H 0.59532 0.00622 0.13337 0.0
H375 H 0.56234 0.0187 0.00574 0.0
H376 H 0.60387 0.08842 0.81201 0.0
H377 H 0.65497 0.10021 0.90112 0.0
C378 C 0.6709 0.06493 0.04555 0.0
C379 C 0.67596 0.04279 0.11656 0.0
C380 C 0.63899 0.06454 0.00313 0.0
C381 C 0.6477 0.02269 0.14859 0.0
C382 C 0.61593 0.02317 0.10896 0.0
C383 C 0.58195 0.0377 0.98518 0.0
C384 C 0.57958 0.05282 0.90345 0.0
C385 C 0.61173 0.04271 0.03419 0.0
C386 C 0.60513 0.07696 0.87584 0.0
C387 C 0.63458 0.08315 0.92606 0.0
H388 H 0.48628 0.62626 0.19618 0.0
H389 H 0.42652 0.69341 0.03774 0.0
H390 H 0.41537 0.64595 0.936 0.0
H391 H 0.43391 0.58993 0.87761 0.0
H392 H 0.4932 0.52394 0.03836 0.0
H393 H 0.49144 0.56586 0.15649 0.0
C394 C 0.46953 0.63052 0.1418 0.0
C395 C 0.45852 0.66406 0.12332 0.0
C396 C 0.46307 0.60312 0.08377 0.0
C397 C 0.43679 0.66839 0.05181 0.0
C398 C 0.43015 0.64115 0.99372 0.0
C399 C 0.4449 0.58414 0.94011 0.0
C400 C 0.46367 0.55417 0.95 0.0
C401 C 0.44486 0.60902 0.00657 0.0
C402 C 0.47841 0.54688 0.03022 0.0
C403 C 0.47781 0.57105 0.09718 0.0
H404 H 0.88471 0.45649 0.09199 0.0
H405 H 0.81851 0.49229 0.88986 0.0
H406 H 0.86093 0.47863 0.7817 0.0
H407 H 0.92062 0.46885 0.74789 0.0
H408 H 0.99063 0.44472 0.95238 0.0
H409 H 0.94327 0.44163 0.05621 0.0
C410 C 0.87949 0.46133 0.0243 0.0
C411 C 0.84867 0.47621 -0.00021 0.0
C412 C 0.905 0.45585 0.96278 0.0
C413 C 0.84184 0.48082 0.91127 0.0
C414 C 0.86631 0.47337 0.84909 0.0
C415 C 0.92529 0.46177 0.81465 0.0
C416 C 0.95888 0.45712 0.84296 0.0
C417 C 0.89853 0.46256 0.87459 0.0
C418 C 0.96485 0.44847 0.92963 0.0
C419 C 0.93786 0.44697 0.98888 0.0
H420 H 0.00409 0.22454 0.94331 0.0
H421 H 0.08939 0.1935 0.09597 0.0
H422 H 0.10229 0.14894 0.98932 0.0
H423 H 0.08019 0.11023 0.87206 0.0
H424 H 0.99228 0.14034 0.72586 0.0
H425 H 0.98976 0.19369 0.80898 0.0
C426 C 0.02665 0.20931 0.95039 0.0
C427 C 0.04588 0.21232 0.02674 0.0
C428 C 0.03268 0.18258 0.89121 0.0
C429 C 0.0746 0.19196 0.03676 0.0
C430 C 0.0815 0.16596 0.97662 0.0
C431 C 0.06118 0.12899 0.85682 0.0
C432 C 0.03592 0.12083 0.79444 0.0
C433 C 0.05934 0.15959 0.9065 0.0
C434 C 0.01154 0.14553 0.77505 0.0
C435 C 0.01007 0.17618 0.82246 0.0
H436 H 0.29037 0.97293 0.94884 0.0
H437 H 0.32654 0.05932 0.1043 0.0
H438 H 0.37175 0.07321 0.99871 0.0
H439 H 0.40827 0.05229 0.87933 0.0
H440 H 0.37181 0.96426 0.72788 0.0
H441 H 0.31968 0.95982 0.81328 0.0
C442 C 0.30701 0.99591 0.95698 0.0
C443 C 0.30502 0.01518 0.03381 0.0
C444 C 0.33381 0.00274 0.89786 0.0
C445 C 0.3272 0.04447 0.04484 0.0
C446 C 0.35354 0.05195 0.98524 0.0
C447 C 0.38849 0.0328 0.86353 0.0
C448 C 0.39453 0.00809 0.7986 0.0
C449 C 0.35833 0.03 0.91407 0.0
C450 C 0.36838 0.98314 0.77875 0.0
C451 C 0.33837 0.98056 0.82753 0.0
H452 H 0.43631 0.28756 0.01829 0.0
H453 H 0.53284 0.24866 0.93773 0.0
H454 H 0.5365 0.29132 0.82092 0.0
H455 H 0.52034 0.34893 0.77163 0.0
H456 H 0.42667 0.39159 0.86357 0.0
H457 H 0.41373 0.33859 0.94617 0.0
C458 C 0.45705 0.28714 0.97164 0.0
C459 C 0.4845 0.26538 0.98698 0.0
C460 C 0.4603 0.31369 0.90964 0.0
C461 C 0.5114 0.26504 0.92695 0.0
C462 C 0.5139 0.29012 0.86162 0.0
C463 C 0.49673 0.34638 0.80838 0.0
C464 C 0.47499 0.37462 0.81357 0.0
C465 C 0.48987 0.31618 0.85716 0.0
C466 C 0.44409 0.37052 0.85953 0.0
C467 C 0.4367 0.34019 0.90686 0.0
H468 H 0.22153 0.49286 0.09089 0.0
H469 H 0.28543 0.54529 0.90125 0.0
H470 H 0.24606 0.52575 0.7859 0.0
H471 H 0.18756 0.50478 0.74564 0.0
H472 H 0.12107 0.4594 0.94129 0.0
H473 H 0.16718 0.46454 0.04748 0.0
C474 C 0.22746 0.49867 0.0237 0.0
C475 C 0.25626 0.52021 0.00402 0.0
C476 C 0.20369 0.48921 0.95919 0.0
C477 C 0.26361 0.52831 0.91738 0.0
C478 C 0.2408 0.51757 0.8518 0.0
C479 C 0.18365 0.49495 0.81078 0.0
C480 C 0.151 0.48181 0.83594 0.0
C481 C 0.20985 0.49963 0.87267 0.0
C482 C 0.14597 0.46969 0.92077 0.0
C483 C 0.17228 0.47276 0.98151 0.0
H484 H 0.05689 0.77863 0.44121 0.0
H485 H 0.97263 0.78707 0.26474 0.0
H486 H 0.94558 0.82749 0.36224 0.0
H487 H 0.95467 0.8717 0.47687 0.0
H488 H 0.03758 0.86158 0.65708 0.0
H489 H 0.05624 0.81031 0.58012 0.0
C490 C 0.03159 0.78765 0.42697 0.0
C491 C 0.0169 0.78028 0.3458 0.0
C492 C 0.01657 0.81154 0.48267 0.0
C493 C 0.98426 0.79227 0.32726 0.0
C494 C 0.96913 0.816 0.38222 0.0
C495 C 0.97593 0.85734 0.50108 0.0
C496 C 0.99509 0.87051 0.57137 0.0
C497 C 0.98633 0.82765 0.45694 0.0
C498 C 0.0225 0.85179 0.60288 0.0
C499 C 0.03334 0.82262 0.55854 0.0
H500 H 0.73927 0.02186 0.43442 0.0
H501 H 0.71981 0.93811 0.25484 0.0
H502 H 0.67443 0.914 0.34806 0.0
H503 H 0.63107 0.92614 0.46028 0.0
H504 H 0.65203 0.00843 0.64355 0.0
H505 H 0.70595 0.02372 0.57005 0.0
C506 C 0.72663 0.99709 0.41871 0.0
C507 C 0.73261 0.98201 0.33742 0.0
C508 C 0.69978 0.98395 0.47167 0.0
C509 C 0.71584 0.95008 0.31732 0.0
C510 C 0.68922 0.93675 0.36968 0.0
C511 C 0.64812 0.94656 0.48571 0.0
C512 C 0.63754 0.96645 0.55635 0.0
C513 C 0.67943 0.95489 0.44379 0.0
C514 C 0.65976 0.99279 0.58919 0.0
C515 C 0.69052 1.00165 0.54693 0.0
H516 H 0.56548 0.68495 0.30843 0.0
H517 H 0.48367 0.7266 0.45708 0.0
H518 H 0.49821 0.69018 0.5805 0.0
H519 H 0.5249 0.63684 0.63045 0.0
H520 H 0.60097 0.59026 0.47104 0.0
H521 H 0.59881 0.6383 0.36854 0.0
C522 C 0.55207 0.68723 0.36955 0.0
C523 C 0.52391 0.70861 0.37457 0.0
C524 C 0.55915 0.66454 0.43761 0.0
C525 C 0.50585 0.71076 0.45273 0.0
C526 C 0.51385 0.68949 0.52265 0.0
C527 C 0.542 0.63808 0.57512 0.0
C528 C 0.56308 0.61016 0.55804 0.0
C529 C 0.53911 0.66482 0.51386 0.0
C530 C 0.58461 0.61155 0.4853 0.0
C531 C 0.58317 0.63888 0.42641 0.0
H532 H 0.87036 0.5722 0.21473 0.0
H533 H 0.80866 0.49954 0.36549 0.0
H534 H 0.85089 0.50297 0.48225 0.0
H535 H 0.91009 0.5177 0.52733 0.0
H536 H 0.97265 0.58932 0.37504 0.0
H537 H 0.92542 0.5954 0.27291 0.0
C538 C 0.86558 0.55829 0.2748 0.0
C539 C 0.83655 0.53556 0.28166 0.0
C540 C 0.89062 0.55942 0.34003 0.0
C541 C 0.83061 0.51744 0.35923 0.0
C542 C 0.85507 0.51895 0.42528 0.0
C543 C 0.91316 0.53513 0.47256 0.0
C544 C 0.94504 0.55249 0.45763 0.0
C545 C 0.88596 0.53838 0.41419 0.0
C546 C 0.94847 0.57551 0.38755 0.0
C547 C 0.9215 0.57889 0.32904 0.0
loop_
_geom_bond_atom_site_label_1
_geom_bond_atom_site_label_2
_geom_bond_distance
_geom_bond_site_symmetry_2
_ccdc_geom_bond_type
H0 C3 0.931 . S
H1 C6 0.928 . S
H2 C8 0.930 . S
C3 H0 0.931 . S
C3 C4 1.413 . S
C3 C5 1.360 1_554 S
C4 C3 1.413 . S
C4 C8 1.429 . S
C5 C3 1.360 1_556 S
C5 C6 1.372 . S
C6 H1 0.928 . S
C6 C5 1.372 . S
C6 C7 1.404 1_556 S
C7 C6 1.404 1_554 S
C7 C8 1.391 . S
C8 H2 0.930 . S
C8 C4 1.429 . S
C8 C7 1.391 . S
H9 C12 0.931 . S
H10 C15 0.928 1_556 S
H11 C17 0.930 . S
C12 H9 0.931 . S
C12 C13 1.413 . S
C12 C14 1.360 . S
C13 C12 1.413 . S
C13 C17 1.429 . S
C14 C12 1.360 . S
C14 C15 1.372 . S
C15 H10 0.928 1_554 S
C15 C14 1.372 . S
C15 C16 1.404 . S
C16 C15 1.404 . S
C16 C17 1.391 . S
C17 H11 0.930 . S
C17 C13 1.429 . S
C17 C16 1.391 . S
H18 C21 0.931 . S
H19 C24 0.928 . S
H20 C26 0.931 . S
C21 H18 0.931 . S
C21 C22 1.413 . S
C21 C23 1.360 . S
C22 C21 1.413 . S
C22 C26 1.429 1_565 S
C23 C21 1.360 . S
C23 C24 1.373 1_554 S
C24 H19 0.928 . S
C24 C23 1.373 1_556 S
C24 C25 1.404 1_556 S
C25 C24 1.404 1_554 S
C25 C26 1.390 1_565 S
C26 H20 0.931 . S
C26 C22 1.429 1_545 S
C26 C25 1.390 1_545 S
H27 C30 0.931 . S
H28 C33 0.928 . S
H29 C35 0.930 . S
C30 H27 0.931 . S
C30 C31 1.413 1_554 S
C30 C32 1.360 . S
C31 C30 1.413 1_556 S
C31 C35 1.429 . S
C32 C30 1.360 . S
C32 C33 1.372 . S
C33 H28 0.928 . S
C33 C32 1.372 . S
C33 C34 1.404 . S
C34 C33 1.404 . S
C34 C35 1.391 1_554 S
C35 H29 0.930 . S
C35 C31 1.429 . S
C35 C34 1.391 1_556 S
H36 C39 0.931 . S
H37 C42 0.928 . S
H38 C44 0.930 . S
C39 H36 0.931 . S
C39 C40 1.413 . S
C39 C41 1.360 . S
C40 C39 1.413 . S
C40 C44 1.429 . S
C41 C39 1.360 . S
C41 C42 1.372 . S
C42 H37 0.928 . S
C42 C41 1.372 . S
C42 C43 1.404 . S
C43 C42 1.404 . S
C43 C44 1.391 . S
C44 H38 0.930 . S
C44 C40 1.429 . S
C44 C43 1.391 . S
H45 C48 0.931 . S
H46 C51 0.928 . S
H47 C53 0.930 . S
C48 H45 0.931 . S
C48 C49 1.413 . S
C48 C50 1.360 . S
C49 C48 1.413 . S
C49 C53 1.429 . S
C50 C48 1.360 . S
C50 C51 1.372 . S
C51 H46 0.928 . S
C51 C50 1.372 . S
C51 C52 1.404 . S
C52 C51 1.404 . S
C52 C53 1.391 . S
C53 H47 0.930 . S
C53 C49 1.429 . S
C53 C52 1.391 . S
H54 C57 0.930 . S
H55 C60 0.928 . S
H56 C62 0.929 . S
C57 H54 0.930 . S
C57 C58 1.413 . S
C57 C59 1.360 . S
C58 C57 1.413 . S
C58 C62 1.429 1_565 S
C59 C57 1.360 . S
C59 C60 1.372 . S
C60 H55 0.928 . S
C60 C59 1.372 . S
C60 C61 1.405 . S
C61 C60 1.405 . S
C61 C62 1.391 1_565 S
C62 H56 0.929 . S
C62 C58 1.429 1_545 S
C62 C61 1.391 1_545 S
H63 C66 0.931 . S
H64 C69 0.928 . S
H65 C71 0.930 . S
C66 H63 0.931 . S
C66 C67 1.413 . S
C66 C68 1.360 . S
C67 C66 1.413 . S
C67 C71 1.429 . S
C68 C66 1.360 . S
C68 C69 1.372 . S
C69 H64 0.928 . S
C69 C68 1.372 . S
C69 C70 1.404 . S
C70 C69 1.404 . S
C70 C71 1.391 . S
C71 H65 0.930 . S
C71 C67 1.429 . S
C71 C70 1.391 . S
O72 Zn73 1.953 . S
O72 C88 1.233 . S
Zn73 O72 1.953 . S
Zn73 O74 1.950 . S
Zn73 O80 1.919 1_565 S
Zn73 O85 1.924 . S
O74 Zn73 1.950 . S
O74 Zn75 1.899 1_565 S
O74 Zn76 1.953 . S
O74 Zn77 1.965 1_455 S
Zn75 O74 1.899 1_545 S
Zn75 O78 1.933 1_455 S
Zn75 O81 1.941 . S
Zn75 O82 1.965 . S
Zn76 O74 1.953 . S
Zn76 O83 1.938 1_565 S
Zn76 O84 1.906 . S
Zn76 O94 1.953 . S
Zn77 O74 1.965 1_655 S
Zn77 O79 1.932 . S
Zn77 O86 1.977 . S
Zn77 O87 1.910 1_655 S
O78 Zn75 1.933 1_655 S
O78 C89 1.226 . S
O79 Zn77 1.932 . S
O79 C89 1.307 1_565 S
O80 Zn73 1.919 1_545 S
O80 C91 1.253 . S
O81 Zn75 1.941 . S
O81 C91 1.283 . S
O82 Zn75 1.965 . S
O82 C90 1.303 . S
O83 Zn76 1.938 1_545 S
O83 C90 1.247 . S
O84 Zn76 1.906 . S
O84 C92 1.304 1_455 S
O85 Zn73 1.924 . S
O85 C93 1.311 . S
O86 Zn77 1.977 . S
O86 C92 1.272 . S
O87 Zn77 1.910 1_455 S
O87 C93 1.231 . S
C88 O72 1.233 . S
C88 O94 1.298 . S
C89 O78 1.226 . S
C89 O79 1.307 1_545 S
C90 O82 1.303 . S
C90 O83 1.247 . S
C91 O80 1.253 . S
C91 O81 1.283 . S
C92 O84 1.304 1_655 S
C92 O86 1.272 . S
C93 O85 1.311 . S
C93 O87 1.231 . S
O94 Zn76 1.953 . S
O94 C88 1.298 . S
O95 Zn96 1.953 . S
O95 C111 1.225 . S
Zn96 O95 1.953 . S
Zn96 O97 1.949 . S
Zn96 O103 1.919 . S
Zn96 O108 1.924 . S
O97 Zn96 1.949 . S
O97 Zn98 1.923 1_545 S
O97 Zn99 1.950 . S
O97 Zn100 1.945 1_545 S
Zn98 O97 1.923 1_565 S
Zn98 O101 1.933 . S
Zn98 O104 1.941 . S
Zn98 O105 1.965 . S
Zn99 O97 1.950 . S
Zn99 O106 1.938 . S
Zn99 O107 1.906 1_545 S
Zn99 O117 1.953 . S
Zn100 O97 1.945 1_565 S
Zn100 O102 1.932 . S
Zn100 O109 1.977 . S
Zn100 O110 1.910 1_565 S
O101 Zn98 1.933 . S
O101 C112 1.226 . S
O102 Zn100 1.932 . S
O102 C112 1.307 . S
O103 Zn96 1.919 . S
O103 C114 1.253 . S
O104 Zn98 1.941 . S
O104 C114 1.283 1_565 S
O105 Zn98 1.965 . S
O105 C113 1.303 . S
O106 Zn99 1.938 . S
O106 C113 1.247 1_545 S
O107 Zn99 1.906 1_565 S
O107 C115 1.304 . S
O108 Zn96 1.924 . S
O108 C116 1.311 . S
O109 Zn100 1.977 . S
O109 C115 1.272 . S
O110 Zn100 1.910 1_545 S
O110 C116 1.231 . S
C111 O95 1.225 . S
C111 O117 1.298 . S
C112 O101 1.226 . S
C112 O102 1.307 . S
C113 O105 1.303 . S
C113 O106 1.247 1_565 S
C114 O103 1.253 . S
C114 O104 1.283 1_545 S
C115 O107 1.304 . S
C115 O109 1.272 . S
C116 O108 1.311 . S
C116 O110 1.231 . S
O117 Zn99 1.953 . S
O117 C111 1.298 . S
O118 Zn119 1.953 . S
O118 C134 1.225 . S
Zn119 O118 1.953 . S
Zn119 O120 1.949 . S
Zn119 O126 1.919 . S
Zn119 O131 1.924 . S
O120 Zn119 1.949 . S
O120 Zn121 1.923 . S
O120 Zn122 1.950 . S
O120 Zn123 1.945 . S
Zn121 O120 1.923 . S
Zn121 O124 1.933 . S
Zn121 O127 1.941 . S
Zn121 O128 1.965 . S
Zn122 O120 1.950 . S
Zn122 O129 1.938 . S
Zn122 O130 1.906 . S
Zn122 O140 1.953 . S
Zn123 O120 1.945 . S
Zn123 O125 1.932 . S
Zn123 O132 1.977 . S
Zn123 O133 1.910 . S
O124 Zn121 1.933 . S
O124 C135 1.226 . S
O125 Zn123 1.932 . S
O125 C135 1.307 . S
O126 Zn119 1.919 . S
O126 C137 1.253 . S
O127 Zn121 1.941 . S
O127 C137 1.283 . S
O128 Zn121 1.965 . S
O128 C136 1.303 . S
O129 Zn122 1.938 . S
O129 C136 1.247 . S
O130 Zn122 1.906 . S
O130 C138 1.304 . S
O131 Zn119 1.924 . S
O131 C139 1.311 . S
O132 Zn123 1.977 . S
O132 C138 1.272 . S
O133 Zn123 1.910 . S
O133 C139 1.231 . S
C134 O118 1.225 . S
C134 O140 1.298 . S
C135 O124 1.226 . S
C135 O125 1.307 . S
C136 O128 1.303 . S
C136 O129 1.247 . S
C137 O126 1.253 . S
C137 O127 1.283 . S
C138 O130 1.304 . S
C138 O132 1.272 . S
C139 O131 1.311 . S
C139 O133 1.231 . S
O140 Zn122 1.953 . S
O140 C134 1.298 . S
O141 Zn142 1.953 1_655 S
O141 C157 1.225 . S
Zn142 O141 1.953 1_455 S
Zn142 O143 1.949 . S
Zn142 O149 1.919 . S
Zn142 O154 1.924 . S
O143 Zn142 1.949 . S
O143 Zn144 1.923 . S
O143 Zn145 1.950 1_455 S
O143 Zn146 1.945 . S
Zn144 O143 1.923 . S
Zn144 O147 1.933 . S
Zn144 O150 1.941 1_455 S
Zn144 O151 1.965 1_455 S
Zn145 O143 1.950 1_655 S
Zn145 O152 1.938 . S
Zn145 O153 1.905 . S
Zn145 O163 1.953 . S
Zn146 O143 1.945 . S
Zn146 O148 1.932 . S
Zn146 O155 1.977 . S
Zn146 O156 1.910 . S
O147 Zn144 1.933 . S
O147 C158 1.226 . S
O148 Zn146 1.932 . S
O148 C158 1.307 . S
O149 Zn142 1.919 . S
O149 C160 1.253 . S
O150 Zn144 1.941 1_655 S
O150 C160 1.283 1_655 S
O151 Zn144 1.965 1_655 S
O151 C159 1.303 . S
O152 Zn145 1.938 . S
O152 C159 1.247 . S
O153 Zn145 1.905 . S
O153 C161 1.305 1_655 S
O154 Zn142 1.924 . S
O154 C162 1.311 . S
O155 Zn146 1.977 . S
O155 C161 1.272 . S
O156 Zn146 1.910 . S
O156 C162 1.231 . S
C157 O141 1.225 . S
C157 O163 1.298 . S
C158 O147 1.226 . S
C158 O148 1.307 . S
C159 O151 1.303 . S
C159 O152 1.247 . S
C160 O149 1.253 . S
C160 O150 1.283 1_455 S
C161 O153 1.305 1_455 S
C161 O155 1.272 . S
C162 O154 1.311 . S
C162 O156 1.231 . S
O163 Zn145 1.953 . S
O163 C157 1.298 . S
H164 C170 0.930 . S
H165 C173 0.930 . S
H166 C174 0.930 . S
H167 C175 0.930 . S
H168 C178 0.930 . S
H169 C179 0.930 . S
C170 H164 0.930 . S
C170 C171 1.360 . S
C170 C172 1.415 . S
C171 C170 1.360 . S
C171 C173 1.413 1_565 S
C172 C170 1.415 . S
C172 C177 1.425 1_565 S
C172 C179 1.409 . S
C173 H165 0.930 . S
C173 C171 1.413 1_545 S
C173 C174 1.362 . S
C174 H166 0.930 . S
C174 C173 1.362 . S
C174 C177 1.409 . S
C175 H167 0.930 . S
C175 C176 1.355 1_545 S
C175 C177 1.415 . S
C176 C175 1.355 1_565 S
C176 C178 1.419 . S
C177 C172 1.425 1_545 S
C177 C174 1.409 . S
C177 C175 1.415 . S
C178 H168 0.930 . S
C178 C176 1.419 . S
C178 C179 1.362 . S
C179 H169 0.930 . S
C179 C172 1.409 . S
C179 C178 1.362 . S
H180 C186 0.930 . S
H181 C189 0.930 . S
H182 C190 0.930 . S
H183 C191 0.930 . S
H184 C194 0.930 . S
H185 C195 0.930 . S
C186 H180 0.930 . S
C186 C187 1.355 . S
C186 C188 1.415 . S
C187 C186 1.355 . S
C187 C189 1.419 . S
C188 C186 1.415 . S
C188 C193 1.425 . S
C188 C195 1.409 . S
C189 H181 0.930 . S
C189 C187 1.419 . S
C189 C190 1.362 . S
C190 H182 0.930 . S
C190 C189 1.362 . S
C190 C193 1.409 . S
C191 H183 0.930 . S
C191 C192 1.355 . S
C191 C193 1.415 . S
C192 C191 1.355 . S
C192 C194 1.419 . S
C193 C188 1.425 . S
C193 C190 1.409 . S
C193 C191 1.415 . S
C194 H184 0.930 . S
C194 C192 1.419 . S
C194 C195 1.362 . S
C195 H185 0.930 . S
C195 C188 1.409 . S
C195 C194 1.362 . S
H196 C202 0.930 . S
H197 C205 0.930 . S
H198 C206 0.930 . S
H199 C207 0.930 . S
H200 C210 0.930 . S
H201 C211 0.930 . S
C202 H196 0.930 . S
C202 C203 1.355 . S
C202 C204 1.415 . S
C203 C202 1.355 . S
C203 C205 1.419 . S
C204 C202 1.415 . S
C204 C209 1.425 . S
C204 C211 1.409 . S
C205 H197 0.930 . S
C205 C203 1.419 . S
C205 C206 1.362 . S
C206 H198 0.930 . S
C206 C205 1.362 . S
C206 C209 1.409 . S
C207 H199 0.930 . S
C207 C208 1.355 . S
C207 C209 1.415 . S
C208 C207 1.355 . S
C208 C210 1.419 . S
C209 C204 1.425 . S
C209 C206 1.409 . S
C209 C207 1.415 . S
C210 H200 0.930 . S
C210 C208 1.419 . S
C210 C211 1.362 . S
C211 H201 0.930 . S
C211 C204 1.409 . S
C211 C210 1.362 . S
H212 C218 0.930 . S
H213 C221 0.930 . S
H214 C222 0.930 . S
H215 C223 0.930 . S
H216 C226 0.930 . S
H217 C227 0.930 . S
C218 H212 0.930 . S
C218 C219 1.355 . S
C218 C220 1.415 . S
C219 C218 1.355 . S
C219 C221 1.419 . S
C220 C218 1.415 . S
C220 C225 1.425 . S
C220 C227 1.409 . S
C221 H213 0.930 . S
C221 C219 1.419 . S
C221 C222 1.362 . S
C222 H214 0.930 . S
C222 C221 1.362 . S
C222 C225 1.409 . S
C223 H215 0.930 . S
C223 C224 1.355 . S
C223 C225 1.415 . S
C224 C223 1.355 . S
C224 C226 1.419 . S
C225 C220 1.425 . S
C225 C222 1.409 . S
C225 C223 1.415 . S
C226 H216 0.930 . S
C226 C224 1.419 . S
C226 C227 1.362 . S
C227 H217 0.930 . S
C227 C220 1.409 . S
C227 C226 1.362 . S
H228 C234 0.930 . S
H229 C237 0.931 . S
H230 C238 0.930 . S
H231 C239 0.930 . S
H232 C242 0.930 . S
H233 C243 0.930 1_554 S
C234 H228 0.930 . S
C234 C235 1.355 . S
C234 C236 1.415 1_554 S
C235 C234 1.355 . S
C235 C237 1.419 1_554 S
C236 C234 1.415 1_556 S
C236 C241 1.425 . S
C236 C243 1.409 . S
C237 H229 0.931 . S
C237 C235 1.419 1_556 S
C237 C238 1.362 . S
C238 H230 0.930 . S
C238 C237 1.362 . S
C238 C241 1.409 . S
C239 H231 0.930 . S
C239 C240 1.355 . S
C239 C241 1.415 . S
C240 C239 1.355 . S
C240 C242 1.419 . S
C241 C236 1.425 . S
C241 C238 1.409 . S
C241 C239 1.415 . S
C242 H232 0.930 . S
C242 C240 1.419 . S
C242 C243 1.362 . S
C243 H233 0.930 1_556 S
C243 C236 1.409 . S
C243 C242 1.362 . S
H244 C250 0.930 1_554 S
H245 C253 0.930 . S
H246 C254 0.930 . S
H247 C255 0.930 . S
H248 C258 0.930 . S
H249 C259 0.934 . S
C250 H244 0.930 1_556 S
C250 C251 1.355 . S
C250 C252 1.415 . S
C251 C250 1.355 . S
C251 C253 1.419 . S
C252 C250 1.415 . S
C252 C257 1.425 . S
C252 C259 1.409 . S
C253 H245 0.930 . S
C253 C251 1.419 . S
C253 C254 1.362 . S
C254 H246 0.930 . S
C254 C253 1.362 . S
C254 C257 1.409 . S
C255 H247 0.930 . S
C255 C256 1.355 . S
C255 C257 1.415 . S
C256 C255 1.355 . S
C256 C258 1.419 . S
C257 C252 1.425 . S
C257 C254 1.409 . S
C257 C255 1.415 . S
C258 H248 0.930 . S
C258 C256 1.419 . S
C258 C259 1.362 . S
C259 H249 0.934 . S
C259 C252 1.409 . S
C259 C258 1.362 . S
H260 C266 0.930 1_554 S
H261 C269 0.930 . S
H262 C270 0.930 . S
H263 C271 0.930 . S
H264 C274 0.930 . S
H265 C275 0.930 . S
C266 H260 0.930 1_556 S
C266 C267 1.355 . S
C266 C268 1.415 . S
C267 C266 1.355 . S
C267 C269 1.419 . S
C268 C266 1.415 . S
C268 C273 1.425 . S
C268 C275 1.409 . S
C269 H261 0.930 . S
C269 C267 1.419 . S
C269 C270 1.362 . S
C270 H262 0.930 . S
C270 C269 1.362 . S
C270 C273 1.409 . S
C271 H263 0.930 . S
C271 C272 1.355 . S
C271 C273 1.415 . S
C272 C271 1.355 . S
C272 C274 1.419 . S
C273 C268 1.425 . S
C273 C270 1.409 . S
C273 C271 1.415 . S
C274 H264 0.930 . S
C274 C272 1.419 . S
C274 C275 1.362 . S
C275 H265 0.930 . S
C275 C268 1.409 . S
C275 C274 1.362 . S
H276 C282 0.930 . S
H277 C285 0.930 . S
H278 C286 0.930 . S
H279 C287 0.930 . S
H280 C290 0.930 . S
H281 C291 0.930 . S
C282 H276 0.930 . S
C282 C283 1.355 1_556 S
C282 C284 1.415 . S
C283 C282 1.355 1_554 S
C283 C285 1.419 1_655 S
C284 C282 1.415 . S
C284 C289 1.425 1_655 S
C284 C291 1.409 . S
C285 H277 0.930 . S
C285 C283 1.419 1_455 S
C285 C286 1.362 1_554 S
C286 H278 0.930 . S
C286 C285 1.362 1_556 S
C286 C289 1.409 . S
C287 H279 0.930 . S
C287 C288 1.355 . S
C287 C289 1.415 . S
C288 C287 1.355 . S
C288 C290 1.419 1_455 S
C289 C284 1.425 1_455 S
C289 C286 1.409 . S
C289 C287 1.415 . S
C290 H280 0.930 . S
C290 C288 1.419 1_655 S
C290 C291 1.362 . S
C291 H281 0.930 . S
C291 C284 1.409 . S
C291 C290 1.362 . S
H292 C298 0.930 . S
H293 C301 0.930 . S
H294 C302 0.930 . S
H295 C303 0.930 . S
H296 C306 0.930 . S
H297 C307 0.930 . S
C298 H292 0.930 . S
C298 C299 1.355 . S
C298 C300 1.415 . S
C299 C298 1.355 . S
C299 C301 1.419 . S
C300 C298 1.415 . S
C300 C305 1.425 . S
C300 C307 1.409 . S
C301 H293 0.930 . S
C301 C299 1.419 . S
C301 C302 1.362 . S
C302 H294 0.930 . S
C302 C301 1.362 . S
C302 C305 1.409 . S
C303 H295 0.930 . S
C303 C304 1.355 . S
C303 C305 1.415 . S
C304 C303 1.355 . S
C304 C306 1.419 . S
C305 C300 1.425 . S
C305 C302 1.409 . S
C305 C303 1.415 . S
C306 H296 0.930 . S
C306 C304 1.419 . S
C306 C307 1.362 . S
C307 H297 0.930 . S
C307 C300 1.409 . S
C307 C306 1.362 . S
H308 C314 0.930 . S
H309 C317 0.930 . S
H310 C318 0.930 . S
H311 C319 0.930 . S
H312 C322 0.930 . S
H313 C323 0.930 . S
C314 H308 0.930 . S
C314 C315 1.355 1_545 S
C314 C316 1.415 . S
C315 C314 1.355 1_565 S
C315 C317 1.419 . S
C316 C314 1.415 . S
C316 C321 1.425 1_545 S
C316 C323 1.409 . S
C317 H309 0.930 . S
C317 C315 1.419 . S
C317 C318 1.362 . S
C318 H310 0.930 . S
C318 C317 1.362 . S
C318 C321 1.409 . S
C319 H311 0.930 . S
C319 C320 1.355 . S
C319 C321 1.415 . S
C320 C319 1.355 . S
C320 C322 1.419 1_565 S
C321 C316 1.425 1_565 S
C321 C318 1.409 . S
C321 C319 1.415 . S
C322 H312 0.930 . S
C322 C320 1.419 1_545 S
C322 C323 1.362 . S
C323 H313 0.930 . S
C323 C316 1.409 . S
C323 C322 1.362 . S
H324 C330 0.930 . S
H325 C333 0.930 . S
H326 C334 0.930 . S
H327 C335 0.930 . S
H328 C338 0.930 . S
H329 C339 0.930 . S
C330 H324 0.930 . S
C330 C331 1.355 . S
C330 C332 1.415 . S
C331 C330 1.355 . S
C331 C333 1.419 . S
C332 C330 1.415 . S
C332 C337 1.425 . S
C332 C339 1.409 . S
C333 H325 0.930 . S
C333 C331 1.419 . S
C333 C334 1.362 . S
C334 H326 0.930 . S
C334 C333 1.362 . S
C334 C337 1.409 . S
C335 H327 0.930 . S
C335 C336 1.355 . S
C335 C337 1.415 . S
C336 C335 1.355 . S
C336 C338 1.419 . S
C337 C332 1.425 . S
C337 C334 1.409 . S
C337 C335 1.415 . S
C338 H328 0.930 . S
C338 C336 1.419 . S
C338 C339 1.362 . S
C339 H329 0.930 . S
C339 C332 1.409 . S
C339 C338 1.362 . S
H340 C346 0.930 . S
H341 C349 0.930 . S
H342 C350 0.930 . S
H343 C351 0.930 . S
H344 C354 0.930 . S
H345 C355 0.930 . S
C346 H340 0.930 . S
C346 C347 1.355 . S
C346 C348 1.415 . S
C347 C346 1.355 . S
C347 C349 1.419 . S
C348 C346 1.415 . S
C348 C353 1.425 . S
C348 C355 1.409 . S
C349 H341 0.930 . S
C349 C347 1.419 . S
C349 C350 1.362 . S
C350 H342 0.930 . S
C350 C349 1.362 . S
C350 C353 1.409 . S
C351 H343 0.930 . S
C351 C352 1.355 . S
C351 C353 1.415 . S
C352 C351 1.355 . S
C352 C354 1.419 . S
C353 C348 1.425 . S
C353 C350 1.409 . S
C353 C351 1.415 . S
C354 H344 0.930 . S
C354 C352 1.419 . S
C354 C355 1.362 . S
C355 H345 0.930 . S
C355 C348 1.409 . S
C355 C354 1.362 . S
H356 C362 0.930 . S
H357 C365 0.930 . S
H358 C366 0.930 . S
H359 C367 0.930 . S
H360 C370 0.930 . S
H361 C371 0.930 . S
C362 H356 0.930 . S
C362 C363 1.355 1_456 S
C362 C364 1.415 . S
C363 C362 1.355 1_654 S
C363 C365 1.419 . S
C364 C362 1.415 . S
C364 C369 1.425 . S
C364 C371 1.409 . S
C365 H357 0.930 . S
C365 C363 1.419 . S
C365 C366 1.362 . S
C366 H358 0.930 . S
C366 C365 1.362 . S
C366 C369 1.409 1_654 S
C367 H359 0.930 . S
C367 C368 1.355 . S
C367 C369 1.415 . S
C368 C367 1.355 . S
C368 C370 1.419 . S
C369 C364 1.425 . S
C369 C366 1.409 1_456 S
C369 C367 1.415 . S
C370 H360 0.930 . S
C370 C368 1.419 . S
C370 C371 1.362 . S
C371 H361 0.930 . S
C371 C364 1.409 . S
C371 C370 1.362 . S
H372 C378 0.930 . S
H373 C381 0.930 . S
H374 C382 0.930 1_554 S
H375 C383 0.930 . S
H376 C386 0.930 . S
H377 C387 0.930 . S
C378 H372 0.930 . S
C378 C379 1.355 1_545 S
C378 C380 1.415 . S
C379 C378 1.355 1_565 S
C379 C381 1.419 1_556 S
C380 C378 1.415 . S
C380 C385 1.425 . S
C380 C387 1.409 . S
C381 H373 0.930 . S
C381 C379 1.419 1_554 S
C381 C382 1.362 1_554 S
C382 H374 0.930 1_556 S
C382 C381 1.362 1_556 S
C382 C385 1.409 1_565 S
C383 H375 0.930 . S
C383 C384 1.355 . S
C383 C385 1.415 . S
C384 C383 1.355 . S
C384 C386 1.419 . S
C385 C380 1.425 . S
C385 C382 1.409 1_545 S
C385 C383 1.415 . S
C386 H376 0.930 . S
C386 C384 1.419 . S
C386 C387 1.362 . S
C387 H377 0.930 . S
C387 C380 1.409 . S
C387 C386 1.362 . S
H388 C394 0.930 . S
H389 C397 0.930 . S
H390 C398 0.930 . S
H391 C399 0.930 . S
H392 C402 0.930 . S
H393 C403 0.930 . S
C394 H388 0.930 . S
C394 C395 1.355 . S
C394 C396 1.415 . S
C395 C394 1.355 . S
C395 C397 1.419 . S
C396 C394 1.415 . S
C396 C401 1.425 . S
C396 C403 1.409 . S
C397 H389 0.930 . S
C397 C395 1.419 . S
C397 C398 1.362 . S
C398 H390 0.930 . S
C398 C397 1.362 . S
C398 C401 1.409 . S
C399 H391 0.930 . S
C399 C400 1.355 . S
C399 C401 1.415 . S
C400 C399 1.355 . S
C400 C402 1.419 . S
C401 C396 1.425 . S
C401 C398 1.409 . S
C401 C399 1.415 . S
C402 H392 0.930 . S
C402 C400 1.419 . S
C402 C403 1.362 . S
C403 H393 0.930 . S
C403 C396 1.409 . S
C403 C402 1.362 . S
H404 C410 0.930 1_554 S
H405 C413 0.930 . S
H406 C414 0.930 . S
H407 C415 0.930 . S
H408 C418 0.930 . S
H409 C419 0.930 . S
C410 H404 0.930 1_556 S
C410 C411 1.355 . S
C410 C412 1.415 . S
C411 C410 1.355 . S
C411 C413 1.419 . S
C412 C410 1.415 . S
C412 C417 1.425 . S
C412 C419 1.409 . S
C413 H405 0.930 . S
C413 C411 1.419 . S
C413 C414 1.362 . S
C414 H406 0.930 . S
C414 C413 1.362 . S
C414 C417 1.409 . S
C415 H407 0.930 . S
C415 C416 1.355 . S
C415 C417 1.415 . S
C416 C415 1.355 . S
C416 C418 1.419 . S
C417 C412 1.425 . S
C417 C414 1.409 . S
C417 C415 1.415 . S
C418 H408 0.930 . S
C418 C416 1.419 . S
C418 C419 1.362 . S
C419 H409 0.930 . S
C419 C412 1.409 . S
C419 C418 1.362 . S
H420 C426 0.930 . S
H421 C429 0.930 . S
H422 C430 0.930 1_556 S
H423 C431 0.930 . S
H424 C434 0.930 . S
H425 C435 0.930 . S
C426 H420 0.930 . S
C426 C427 1.355 . S
C426 C428 1.415 . S
C427 C426 1.355 . S
C427 C429 1.419 . S
C428 C426 1.415 . S
C428 C433 1.425 . S
C428 C435 1.409 . S
C429 H421 0.930 . S
C429 C427 1.419 . S
C429 C430 1.362 . S
C430 H422 0.930 1_554 S
C430 C429 1.362 . S
C430 C433 1.409 . S
C431 H423 0.930 . S
C431 C432 1.355 . S
C431 C433 1.415 1_556 S
C432 C431 1.355 . S
C432 C434 1.419 1_556 S
C433 C428 1.425 . S
C433 C430 1.409 . S
C433 C431 1.415 1_554 S
C434 H424 0.930 . S
C434 C432 1.419 1_554 S
C434 C435 1.362 . S
C435 H425 0.930 . S
C435 C428 1.409 . S
C435 C434 1.362 . S
H436 C442 0.930 . S
H437 C445 0.930 . S
H438 C446 0.930 . S
H439 C447 0.930 1_554 S
H440 C450 0.930 . S
H441 C451 0.931 . S
C442 H436 0.930 . S
C442 C443 1.355 . S
C442 C444 1.415 1_554 S
C443 C442 1.355 . S
C443 C445 1.419 . S
C444 C442 1.415 1_556 S
C444 C449 1.425 1_556 S
C444 C451 1.409 1_565 S
C445 H437 0.930 . S
C445 C443 1.419 . S
C445 C446 1.362 . S
C446 H438 0.930 . S
C446 C445 1.362 . S
C446 C449 1.410 . S
C447 H439 0.930 1_556 S
C447 C448 1.355 . S
C447 C449 1.415 1_546 S
C448 C447 1.355 . S
C448 C450 1.419 . S
C449 C444 1.425 1_554 S
C449 C446 1.410 . S
C449 C447 1.415 1_564 S
C450 H440 0.930 . S
C450 C448 1.419 . S
C450 C451 1.362 . S
C451 H441 0.931 . S
C451 C444 1.409 1_545 S
C451 C450 1.362 . S
H452 C458 0.930 . S
H453 C461 0.929 1_556 S
H454 C462 0.930 . S
H455 C463 0.930 . S
H456 C466 0.930 . S
H457 C467 0.930 . S
C458 H452 0.930 . S
C458 C459 1.355 . S
C458 C460 1.415 . S
C459 C458 1.355 . S
C459 C461 1.424 . S
C460 C458 1.415 . S
C460 C465 1.425 1_554 S
C460 C467 1.409 . S
C461 H453 0.929 1_554 S
C461 C459 1.424 . S
C461 C462 1.358 1_554 S
C462 H454 0.930 . S
C462 C461 1.358 1_556 S
C462 C465 1.409 . S
C463 H455 0.930 . S
C463 C464 1.355 . S
C463 C465 1.415 . S
C464 C463 1.355 . S
C464 C466 1.419 . S
C465 C460 1.425 1_556 S
C465 C462 1.409 . S
C465 C463 1.415 . S
C466 H456 0.930 . S
C466 C464 1.419 . S
C466 C467 1.362 1_556 S
C467 H457 0.930 . S
C467 C460 1.409 . S
C467 C466 1.362 1_554 S
H468 C474 0.930 . S
H469 C477 0.930 . S
H470 C478 0.930 . S
H471 C479 0.930 . S
H472 C482 0.930 . S
H473 C483 0.930 1_554 S
C474 H468 0.930 . S
C474 C475 1.355 . S
C474 C476 1.415 . S
C475 C474 1.355 . S
C475 C477 1.419 . S
C476 C474 1.415 . S
C476 C481 1.425 1_554 S
C476 C483 1.409 1_554 S
C477 H469 0.930 . S
C477 C475 1.419 . S
C477 C478 1.362 1_554 S
C478 H470 0.930 . S
C478 C477 1.362 1_556 S
C478 C481 1.409 . S
C479 H471 0.930 . S
C479 C480 1.355 . S
C479 C481 1.415 . S
C480 C479 1.355 . S
C480 C482 1.419 . S
C481 C476 1.425 1_556 S
C481 C478 1.409 . S
C481 C479 1.415 . S
C482 H472 0.930 . S
C482 C480 1.419 . S
C482 C483 1.362 . S
C483 H473 0.930 1_556 S
C483 C476 1.409 1_556 S
C483 C482 1.362 . S
H484 C490 0.930 1_455 S
H485 C493 0.930 . S
H486 C494 0.930 . S
H487 C495 0.930 . S
H488 C498 0.930 1_455 S
H489 C499 0.930 . S
C490 H484 0.930 1_655 S
C490 C491 1.355 . S
C490 C492 1.415 . S
C491 C490 1.355 . S
C491 C493 1.419 . S
C492 C490 1.415 . S
C492 C497 1.425 . S
C492 C499 1.409 1_655 S
C493 H485 0.930 . S
C493 C491 1.419 . S
C493 C494 1.362 . S
C494 H486 0.930 . S
C494 C493 1.362 . S
C494 C497 1.409 . S
C495 H487 0.930 . S
C495 C496 1.355 . S
C495 C497 1.415 . S
C496 C495 1.355 . S
C496 C498 1.419 . S
C497 C492 1.425 . S
C497 C494 1.409 . S
C497 C495 1.415 . S
C498 H488 0.930 1_655 S
C498 C496 1.419 . S
C498 C499 1.362 1_655 S
C499 H489 0.930 . S
C499 C492 1.409 1_455 S
C499 C498 1.362 1_455 S
H500 C506 0.930 . S
H501 C509 0.930 . S
H502 C510 0.930 . S
H503 C511 0.930 . S
H504 C514 0.930 1_545 S
H505 C515 0.930 . S
C506 H500 0.930 . S
C506 C507 1.355 1_545 S
C506 C508 1.415 1_545 S
C507 C506 1.355 1_565 S
C507 C509 1.419 . S
C508 C506 1.415 1_565 S
C508 C513 1.425 . S
C508 C515 1.409 1_565 S
C509 H501 0.930 . S
C509 C507 1.419 . S
C509 C510 1.362 . S
C510 H502 0.930 . S
C510 C509 1.362 . S
C510 C513 1.409 . S
C511 H503 0.930 . S
C511 C512 1.355 . S
C511 C513 1.415 . S
C512 C511 1.355 . S
C512 C514 1.419 . S
C513 C508 1.425 . S
C513 C510 1.409 . S
C513 C511 1.415 . S
C514 H504 0.930 1_565 S
C514 C512 1.419 . S
C514 C515 1.362 1_565 S
C515 H505 0.930 . S
C515 C508 1.409 1_545 S
C515 C514 1.362 1_545 S
H516 C522 0.930 . S
H517 C525 0.930 . S
H518 C526 0.930 . S
H519 C527 0.930 . S
H520 C530 0.930 . S
H521 C531 0.930 . S
C522 H516 0.930 . S
C522 C523 1.355 . S
C522 C524 1.415 . S
C523 C522 1.355 . S
C523 C525 1.419 . S
C524 C522 1.415 . S
C524 C529 1.425 . S
C524 C531 1.409 . S
C525 H517 0.930 . S
C525 C523 1.419 . S
C525 C526 1.362 . S
C526 H518 0.930 . S
C526 C525 1.362 . S
C526 C529 1.409 . S
C527 H519 0.930 . S
C527 C528 1.355 . S
C527 C529 1.415 . S
C528 C527 1.355 . S
C528 C530 1.419 . S
C529 C524 1.425 . S
C529 C526 1.409 . S
C529 C527 1.415 . S
C530 H520 0.930 . S
C530 C528 1.419 . S
C530 C531 1.362 . S
C531 H521 0.930 . S
C531 C524 1.409 . S
C531 C530 1.362 . S
H532 C538 0.930 . S
H533 C541 0.930 . S
H534 C542 0.930 . S
H535 C543 0.930 . S
H536 C546 0.930 . S
H537 C547 0.930 . S
C538 H532 0.930 . S
C538 C539 1.355 . S
C538 C540 1.415 . S
C539 C538 1.355 . S
C539 C541 1.419 . S
C540 C538 1.415 . S
C540 C545 1.425 . S
C540 C547 1.409 . S
C541 H533 0.930 . S
C541 C539 1.419 . S
C541 C542 1.362 . S
C542 H534 0.930 . S
C542 C541 1.362 . S
C542 C545 1.409 . S
C543 H535 0.930 . S
C543 C544 1.355 . S
C543 C545 1.415 . S
C544 C543 1.355 . S
C544 C546 1.419 . S
C545 C540 1.425 . S
C545 C542 1.409 . S
C545 C543 1.415 . S
C546 H536 0.930 . S
C546 C544 1.419 . S
C546 C547 1.362 . S
C547 H537 0.930 . S
C547 C540 1.409 . S
C547 C546 1.362 . S
C171 C61 1.581 . S
C176 C88 1.589 . S
C192 C111 1.685 . S
C187 C70 1.678 . S
C208 C134 1.613 . S
C203 C43 1.604 . S
C224 C161 1.482 . S
C219 C52 1.547 . S
C240 C89 1.496 . S
C235 C25 1.474 1_545 S
C251 C34 1.459 1_556 S
C256 C112 1.488 . S
C267 C7 1.384 1_556 S
C272 C135 1.408 . S
C283 C16 1.535 . S
C288 C160 1.525 . S
C304 C90 0.394 . S
C299 C50 0.382 . S
C320 C113 0.342 . S
C315 C59 0.403 . S
C336 C136 0.393 . S
C331 C67 0.535 . S
C347 C41 0.479 . S
C352 C162 0.500 . S
C363 C14 0.687 . S
C368 C93 0.774 . S
C384 C116 0.763 . S
C379 C23 0.647 1_556 S
C400 C139 0.609 . S
C395 C31 0.659 . S
C411 C5 0.455 . S
C416 C159 0.363 . S
C427 C49 1.635 . S
C432 C91 1.642 . S
C443 C58 1.491 . S
C448 C114 1.515 . S
C464 C137 1.585 . S
C459 C68 1.570 . S
C480 C158 1.415 . S
C475 C40 1.373 . S
C491 C13 1.606 . S
C496 C92 1.535 . S
C512 C115 1.479 . S
C507 C22 1.549 . S
C528 C138 1.533 . S
C523 C32 1.547 . S
C539 C4 1.654 . S
C544 C157 1.690 . S
