# Generated by pormake.
# Topology ptr, (4,4)-cn, num edge types: 1
# Building blocks:
#     Node 0, Type 0, BuildingBlock: GALJAG_clean_sbu_0, # of connection points: 4
#     Node 1, Type 0, BuildingBlock: GALJAG_clean_sbu_0, # of connection points: 4
#     Node 2, Type 0, BuildingBlock: GALJAG_clean_sbu_0, # of connection points: 4
#     Node 3, Type 0, BuildingBlock: GALJAG_clean_sbu_0, # of connection points: 4
#     Node 4, Type 0, BuildingBlock: GALJAG_clean_sbu_0, # of connection points: 4
#     Node 5, Type 0, BuildingBlock: GALJAG_clean_sbu_0, # of connection points: 4
#     Node 6, Type 0, BuildingBlock: GALJAG_clean_sbu_0, # of connection points: 4
#     Node 7, Type 0, BuildingBlock: GALJAG_clean_sbu_0, # of connection points: 4
#     Node 8, Type 0, BuildingBlock: GALJAG_clean_sbu_0, # of connection points: 4
#     Node 9, Type 0, BuildingBlock: GALJAG_clean_sbu_0, # of connection points: 4
#     Node 10, Type 0, BuildingBlock: GALJAG_clean_sbu_0, # of connection points: 4
#     Node 11, Type 0, BuildingBlock: GALJAG_clean_sbu_0, # of connection points: 4
#     Node 12, Type 0, BuildingBlock: GALJAG_clean_sbu_0, # of connection points: 4
#     Node 13, Type 0, BuildingBlock: GALJAG_clean_sbu_0, # of connection points: 4
#     Node 14, Type 0, BuildingBlock: GALJAG_clean_sbu_0, # of connection points: 4
#     Node 15, Type 0, BuildingBlock: GALJAG_clean_sbu_0, # of connection points: 4
#     Node 16, Type 0, BuildingBlock: GALJAG_clean_sbu_0, # of connection points: 4
#     Node 17, Type 0, BuildingBlock: GALJAG_clean_sbu_0, # of connection points: 4
#     Node 18, Type 1, BuildingBlock: NAHDIM_clean_linker_0, # of connection points: 4
#     Node 19, Type 1, BuildingBlock: NAHDIM_clean_linker_0, # of connection points: 4
#     Node 20, Type 1, BuildingBlock: NAHDIM_clean_linker_0, # of connection points: 4
#     Node 21, Type 1, BuildingBlock: NAHDIM_clean_linker_0, # of connection points: 4
#     Node 22, Type 1, BuildingBlock: NAHDIM_clean_linker_0, # of connection points: 4
#     Node 23, Type 1, BuildingBlock: NAHDIM_clean_linker_0, # of connection points: 4
#     Node 24, Type 1, BuildingBlock: NAHDIM_clean_linker_0, # of connection points: 4
#     Node 25, Type 1, BuildingBlock: NAHDIM_clean_linker_0, # of connection points: 4
#     Node 26, Type 1, BuildingBlock: NAHDIM_clean_linker_0, # of connection points: 4
#     Node 27, Type 1, BuildingBlock: NAHDIM_clean_linker_0, # of connection points: 4
#     Node 28, Type 1, BuildingBlock: NAHDIM_clean_linker_0, # of connection points: 4
#     Node 29, Type 1, BuildingBlock: NAHDIM_clean_linker_0, # of connection points: 4
#     Node 30, Type 1, BuildingBlock: NAHDIM_clean_linker_0, # of connection points: 4
#     Node 31, Type 1, BuildingBlock: NAHDIM_clean_linker_0, # of connection points: 4
#     Node 32, Type 1, BuildingBlock: NAHDIM_clean_linker_0, # of connection points: 4
#     Node 33, Type 1, BuildingBlock: NAHDIM_clean_linker_0, # of connection points: 4
#     Node 34, Type 1, BuildingBlock: NAHDIM_clean_linker_0, # of connection points: 4
#     Node 35, Type 1, BuildingBlock: NAHDIM_clean_linker_0, # of connection points: 4
#     Edge 36, Type (0, 1), BuildingBlock: OJICUG_clean_linker_0, # of connection points: 2
#     Edge 37, Type (0, 1), BuildingBlock: OJICUG_clean_linker_0, # of connection points: 2
#     Edge 38, Type (0, 1), BuildingBlock: OJICUG_clean_linker_0, # of connection points: 2
#     Edge 39, Type (0, 1), BuildingBlock: OJICUG_clean_linker_0, # of connection points: 2
#     Edge 40, Type (0, 1), BuildingBlock: OJICUG_clean_linker_0, # of connection points: 2
#     Edge 41, Type (0, 1), BuildingBlock: OJICUG_clean_linker_0, # of connection points: 2
#     Edge 42, Type (0, 1), BuildingBlock: OJICUG_clean_linker_0, # of connection points: 2
#     Edge 43, Type (0, 1), BuildingBlock: OJICUG_clean_linker_0, # of connection points: 2
#     Edge 44, Type (0, 1), BuildingBlock: OJICUG_clean_linker_0, # of connection points: 2
#     Edge 45, Type (0, 1), BuildingBlock: OJICUG_clean_linker_0, # of connection points: 2
#     Edge 46, Type (0, 1), BuildingBlock: OJICUG_clean_linker_0, # of connection points: 2
#     Edge 47, Type (0, 1), BuildingBlock: OJICUG_clean_linker_0, # of connection points: 2
#     Edge 48, Type (0, 1), BuildingBlock: OJICUG_clean_linker_0, # of connection points: 2
#     Edge 49, Type (0, 1), BuildingBlock: OJICUG_clean_linker_0, # of connection points: 2
#     Edge 50, Type (0, 1), BuildingBlock: OJICUG_clean_linker_0, # of connection points: 2
#     Edge 51, Type (0, 1), BuildingBlock: OJICUG_clean_linker_0, # of connection points: 2
#     Edge 52, Type (0, 1), BuildingBlock: OJICUG_clean_linker_0, # of connection points: 2
#     Edge 53, Type (0, 1), BuildingBlock: OJICUG_clean_linker_0, # of connection points: 2
#     Edge 54, Type (0, 1), BuildingBlock: OJICUG_clean_linker_0, # of connection points: 2
#     Edge 55, Type (0, 1), BuildingBlock: OJICUG_clean_linker_0, # of connection points: 2
#     Edge 56, Type (0, 1), BuildingBlock: OJICUG_clean_linker_0, # of connection points: 2
#     Edge 57, Type (0, 1), BuildingBlock: OJICUG_clean_linker_0, # of connection points: 2
#     Edge 58, Type (0, 1), BuildingBlock: OJICUG_clean_linker_0, # of connection points: 2
#     Edge 59, Type (0, 1), BuildingBlock: OJICUG_clean_linker_0, # of connection points: 2
#     Edge 60, Type (0, 1), BuildingBlock: OJICUG_clean_linker_0, # of connection points: 2
#     Edge 61, Type (0, 1), BuildingBlock: OJICUG_clean_linker_0, # of connection points: 2
#     Edge 62, Type (0, 1), BuildingBlock: OJICUG_clean_linker_0, # of connection points: 2
#     Edge 63, Type (0, 1), BuildingBlock: OJICUG_clean_linker_0, # of connection points: 2
#     Edge 64, Type (0, 1), BuildingBlock: OJICUG_clean_linker_0, # of connection points: 2
#     Edge 65, Type (0, 1), BuildingBlock: OJICUG_clean_linker_0, # of connection points: 2
#     Edge 66, Type (0, 1), BuildingBlock: OJICUG_clean_linker_0, # of connection points: 2
#     Edge 67, Type (0, 1), BuildingBlock: OJICUG_clean_linker_0, # of connection points: 2
#     Edge 68, Type (0, 1), BuildingBlock: OJICUG_clean_linker_0, # of connection points: 2
#     Edge 69, Type (0, 1), BuildingBlock: OJICUG_clean_linker_0, # of connection points: 2
#     Edge 70, Type (0, 1), BuildingBlock: OJICUG_clean_linker_0, # of connection points: 2
#     Edge 71, Type (0, 1), BuildingBlock: OJICUG_clean_linker_0, # of connection points: 2
#     Edge 72, Type (0, 1), BuildingBlock: OJICUG_clean_linker_0, # of connection points: 2
#     Edge 73, Type (0, 1), BuildingBlock: OJICUG_clean_linker_0, # of connection points: 2
#     Edge 74, Type (0, 1), BuildingBlock: OJICUG_clean_linker_0, # of connection points: 2
#     Edge 75, Type (0, 1), BuildingBlock: OJICUG_clean_linker_0, # of connection points: 2
#     Edge 76, Type (0, 1), BuildingBlock: OJICUG_clean_linker_0, # of connection points: 2
#     Edge 77, Type (0, 1), BuildingBlock: OJICUG_clean_linker_0, # of connection points: 2
#     Edge 78, Type (0, 1), BuildingBlock: OJICUG_clean_linker_0, # of connection points: 2
#     Edge 79, Type (0, 1), BuildingBlock: OJICUG_clean_linker_0, # of connection points: 2
#     Edge 80, Type (0, 1), BuildingBlock: OJICUG_clean_linker_0, # of connection points: 2
#     Edge 81, Type (0, 1), BuildingBlock: OJICUG_clean_linker_0, # of connection points: 2
#     Edge 82, Type (0, 1), BuildingBlock: OJICUG_clean_linker_0, # of connection points: 2
#     Edge 83, Type (0, 1), BuildingBlock: OJICUG_clean_linker_0, # of connection points: 2
#     Edge 84, Type (0, 1), BuildingBlock: OJICUG_clean_linker_0, # of connection points: 2
#     Edge 85, Type (0, 1), BuildingBlock: OJICUG_clean_linker_0, # of connection points: 2
#     Edge 86, Type (0, 1), BuildingBlock: OJICUG_clean_linker_0, # of connection points: 2
#     Edge 87, Type (0, 1), BuildingBlock: OJICUG_clean_linker_0, # of connection points: 2
#     Edge 88, Type (0, 1), BuildingBlock: OJICUG_clean_linker_0, # of connection points: 2
#     Edge 89, Type (0, 1), BuildingBlock: OJICUG_clean_linker_0, # of connection points: 2
#     Edge 90, Type (0, 1), BuildingBlock: OJICUG_clean_linker_0, # of connection points: 2
#     Edge 91, Type (0, 1), BuildingBlock: OJICUG_clean_linker_0, # of connection points: 2
#     Edge 92, Type (0, 1), BuildingBlock: OJICUG_clean_linker_0, # of connection points: 2
#     Edge 93, Type (0, 1), BuildingBlock: OJICUG_clean_linker_0, # of connection points: 2
#     Edge 94, Type (0, 1), BuildingBlock: OJICUG_clean_linker_0, # of connection points: 2
#     Edge 95, Type (0, 1), BuildingBlock: OJICUG_clean_linker_0, # of connection points: 2
#     Edge 96, Type (0, 1), BuildingBlock: OJICUG_clean_linker_0, # of connection points: 2
#     Edge 97, Type (0, 1), BuildingBlock: OJICUG_clean_linker_0, # of connection points: 2
#     Edge 98, Type (0, 1), BuildingBlock: OJICUG_clean_linker_0, # of connection points: 2
#     Edge 99, Type (0, 1), BuildingBlock: OJICUG_clean_linker_0, # of connection points: 2
#     Edge 100, Type (0, 1), BuildingBlock: OJICUG_clean_linker_0, # of connection points: 2
#     Edge 101, Type (0, 1), BuildingBlock: OJICUG_clean_linker_0, # of connection points: 2
#     Edge 102, Type (0, 1), BuildingBlock: OJICUG_clean_linker_0, # of connection points: 2
#     Edge 103, Type (0, 1), BuildingBlock: OJICUG_clean_linker_0, # of connection points: 2
#     Edge 104, Type (0, 1), BuildingBlock: OJICUG_clean_linker_0, # of connection points: 2
#     Edge 105, Type (0, 1), BuildingBlock: OJICUG_clean_linker_0, # of connection points: 2
#     Edge 106, Type (0, 1), BuildingBlock: OJICUG_clean_linker_0, # of connection points: 2
#     Edge 107, Type (0, 1), BuildingBlock: OJICUG_clean_linker_0, # of connection points: 2
# Relax obj value: 0.026
# Max RMSD: 0.104
# Mean RMSD: 0.052
data_MOF--net-ptr--node1-GALJAG_clean_sbu_0--node2-NAHDIM_clean_linker_0--edge1-OJICUG_clean_linker_0
_symmetry_space_group_name_H-M    P1
_symmetry_Int_Tables_number       1
_symmetry_cell_setting            triclinic
loop_
_symmetry_equiv_pos_as_xyz
'x, y, z'
_cell_length_a     74.794004
_cell_length_b     74.507982
_cell_length_c     67.90079
_cell_angle_alpha  90.9532
_cell_angle_beta   90.54583
_cell_angle_gamma 120.00239
loop_
_atom_site_label
_atom_site_type_symbol
_atom_site_fract_x
_atom_site_fract_y
_atom_site_fract_z
_atom_type_partial_charge
In0 In 0.00072 0.34251 0.0044 0.0
O1 O 0.97864 0.34188 0.02794 0.0
O2 O 0.0086 0.36848 0.02673 0.0
C3 C 0.97791 0.30743 0.983 0.0
C4 C 0.02627 0.33245 0.02283 0.0
C5 C 0.00858 0.36883 0.97475 0.0
O6 O 0.96965 0.31611 0.99236 0.0
O7 O 0.99724 0.31607 0.98483 0.0
O8 O 0.02277 0.36723 0.98333 0.0
O9 O 0.9908 0.35759 0.98145 0.0
C10 C 0.99144 0.35955 0.03514 0.0
O11 O 0.03269 0.34695 0.01063 0.0
O12 O 0.00708 0.32334 0.02583 0.0
In13 In 0.65557 0.65417 0.01491 0.0
O14 O 0.65368 0.62662 0.03138 0.0
O15 O 0.63212 0.63632 0.0382 0.0
C16 C 0.69063 0.66711 0.99487 0.0
C17 C 0.6677 0.68711 0.03942 0.0
C18 C 0.62768 0.64089 0.98485 0.0
O19 O 0.68361 0.65168 0.00599 0.0
O20 O 0.67982 0.67575 0.99376 0.0
O21 O 0.63231 0.65703 0.995 0.0
O22 O 0.63701 0.63149 0.98995 0.0
C23 C 0.63865 0.62404 0.0417 0.0
O24 O 0.65095 0.67937 0.02963 0.0
O25 O 0.67832 0.67849 0.03671 0.0
In26 In 0.34087 0.00336 0.00573 0.0
O27 O 0.3482 0.037 0.00427 0.0
O28 O 0.31957 0.01356 0.99202 0.0
C29 C 0.36756 0.01022 0.03569 0.0
C30 C 0.35914 0.99753 0.97395 0.0
C31 C 0.30501 0.97311 0.01995 0.0
O32 O 0.36093 0.02245 0.03202 0.0
O33 O 0.36085 0.99464 0.02415 0.0
O34 O 0.30876 0.97476 0.00177 0.0
O35 O 0.3192 0.98676 0.03085 0.0
C36 C 0.33155 0.03264 0.99543 0.0
O37 O 0.34511 0.98267 0.98314 0.0
O38 O 0.36387 0.01521 0.98074 0.0
In39 In 0.99825 0.65372 0.01112 0.0
O40 O 0.02132 0.64841 0.99365 0.0
O41 O 0.9898 0.63169 0.98455 0.0
C42 C 0.0237 0.6916 0.02716 0.0
C43 C 0.97433 0.66675 0.99379 0.0
C44 C 0.98699 0.6272 0.04133 0.0
O45 O 0.02976 0.6832 0.01459 0.0
O46 O 0.00517 0.68052 0.03215 0.0
O47 O 0.97417 0.62659 0.02874 0.0
O48 O 0.00548 0.6408 0.03839 0.0
C49 C 0.008 0.63574 0.98139 0.0
O50 O 0.96779 0.65364 0.00733 0.0
O51 O 0.99255 0.67261 0.98864 0.0
In52 In 0.35119 0.35387 0.0037 0.0
O53 O 0.35488 0.3829 0.98896 0.0
O54 O 0.36894 0.36733 0.9755 0.0
C55 C 0.31494 0.34133 0.02155 0.0
C56 C 0.33758 0.31634 0.98636 0.0
C57 C 0.37975 0.36846 0.03334 0.0
O58 O 0.32163 0.35514 0.00867 0.0
O59 O 0.32681 0.33443 0.02575 0.0
O60 O 0.38028 0.35763 0.01912 0.0
O61 O 0.3655 0.37277 0.03205 0.0
C62 C 0.36508 0.38194 0.97471 0.0
O63 O 0.35273 0.32432 0.99838 0.0
O64 O 0.32997 0.32767 0.98252 0.0
In65 In 0.65439 0.00273 0.01012 0.0
O66 O 0.65247 0.02606 0.03106 0.0
O67 O 0.6318 0.99402 0.03527 0.0
C68 C 0.69137 0.0261 0.99359 0.0
C69 C 0.66584 0.97704 0.02602 0.0
C70 C 0.62815 0.99532 0.97944 0.0
O71 O 0.68481 0.0332 0.00699 0.0
O72 O 0.67903 0.00758 0.98826 0.0
O73 O 0.62776 0.98091 0.98928 0.0
O74 O 0.64123 0.01334 0.98551 0.0
C75 C 0.63826 0.01242 0.0412 0.0
O76 O 0.65163 0.97088 0.01302 0.0
O77 O 0.67362 0.99582 0.03132 0.0
In78 In 0.6639 0.68352 0.3336 0.0
O79 O 0.63714 0.68054 0.35208 0.0
O80 O 0.66779 0.70283 0.36119 0.0
C81 C 0.64251 0.65271 0.3068 0.0
C82 C 0.68565 0.66983 0.35381 0.0
C83 C 0.68081 0.71694 0.31052 0.0
O84 O 0.63382 0.66013 0.31728 0.0
O85 O 0.66162 0.66069 0.30983 0.0
O86 O 0.69009 0.70739 0.31508 0.0
O87 O 0.66307 0.70977 0.31751 0.0
C88 C 0.64874 0.69461 0.3644 0.0
O89 O 0.69408 0.68688 0.34507 0.0
O90 O 0.66617 0.65979 0.35262 0.0
In91 In 0.31636 0.98373 0.35081 0.0
O92 O 0.31594 0.95963 0.37152 0.0
O93 O 0.29161 0.96639 0.37342 0.0
C94 C 0.34942 0.98912 0.33081 0.0
C95 C 0.33109 0.01878 0.37295 0.0
C96 C 0.28915 0.97246 0.32026 0.0
O97 O 0.33873 0.97321 0.34084 0.0
O98 O 0.34331 0.00216 0.33081 0.0
O99 O 0.29644 0.98983 0.32906 0.0
O100 O 0.29531 0.96083 0.32705 0.0
C101 C 0.29965 0.95627 0.37997 0.0
O102 O 0.31286 0.00943 0.36606 0.0
O103 O 0.34187 0.01073 0.36851 0.0
In104 In 0.01292 0.33521 0.33883 0.0
O105 O 0.00448 0.36072 0.34037 0.0
O106 O 0.02075 0.35935 0.31538 0.0
C107 C 0.03768 0.34752 0.37147 0.0
C108 C 0.02799 0.32147 0.30992 0.0
C109 C 0.97433 0.3064 0.34915 0.0
O110 O 0.03302 0.35931 0.36252 0.0
O111 O 0.02988 0.32951 0.36401 0.0
O112 O 0.97778 0.32058 0.3373 0.0
O113 O 0.99028 0.30654 0.3555 0.0
C114 C 0.01278 0.36857 0.32424 0.0
O115 O 0.00904 0.31231 0.31385 0.0
O116 O 0.03918 0.33722 0.32065 0.0
In117 In 0.67068 0.9823 0.33822 0.0
O118 O 0.6864 0.98681 0.30889 0.0
O119 O 0.68752 0.96505 0.32778 0.0
C120 C 0.69082 0.02159 0.35302 0.0
C121 C 0.63862 0.97545 0.31488 0.0
C122 C 0.65793 0.95928 0.37094 0.0
O123 O 0.70006 0.01306 0.34531 0.0
O124 O 0.67147 0.0102 0.35357 0.0
O125 O 0.64568 0.95862 0.3577 0.0
O126 O 0.67679 0.97127 0.36754 0.0
C127 C 0.69213 0.97375 0.31134 0.0
O128 O 0.64008 0.96082 0.32233 0.0
O129 O 0.65294 0.99344 0.31955 0.0
In130 In 0.02044 0.69227 0.34082 0.0
O131 O 0.02659 0.72284 0.32726 0.0
O132 O 0.03521 0.704 0.31098 0.0
C133 C 0.98255 0.67981 0.35508 0.0
C134 C 0.01128 0.65494 0.32548 0.0
C135 C 0.04737 0.7069 0.37195 0.0
O136 O 0.99101 0.69432 0.34302 0.0
O137 O 0.99329 0.67185 0.36006 0.0
O138 O 0.03096 0.70769 0.3713 0.0
O139 O 0.05081 0.69963 0.35647 0.0
C140 C 0.03395 0.72023 0.31156 0.0
O141 O 0.02626 0.66508 0.33738 0.0
O142 O 0.0013 0.66386 0.32098 0.0
In143 In 0.31767 0.33688 0.34678 0.0
O144 O 0.31542 0.30547 0.35086 0.0
O145 O 0.3375 0.33101 0.36844 0.0
C146 C 0.28944 0.32253 0.31683 0.0
C147 C 0.30291 0.35139 0.37547 0.0
C148 C 0.35463 0.36101 0.3303 0.0
O149 O 0.2883 0.31157 0.33124 0.0
O150 O 0.30427 0.3409 0.31796 0.0
O151 O 0.34753 0.36784 0.34341 0.0
O152 O 0.34287 0.34228 0.32525 0.0
C153 C 0.32977 0.31209 0.3637 0.0
O154 O 0.31298 0.36223 0.3612 0.0
O155 O 0.29978 0.33313 0.37494 0.0
In156 In 0.33431 0.01981 0.67114 0.0
O157 O 0.36361 0.02784 0.68877 0.0
O158 O 0.33811 0.99704 0.69019 0.0
C159 C 0.35147 0.05148 0.64595 0.0
C160 C 0.316 0.02962 0.70003 0.0
C161 C 0.31359 0.98716 0.64613 0.0
O162 O 0.36 0.04116 0.65044 0.0
O163 O 0.33449 0.04591 0.65403 0.0
O164 O 0.30506 0.9963 0.6541 0.0
O165 O 0.33234 0.99437 0.65076 0.0
C166 C 0.35624 0.01003 0.69587 0.0
O167 O 0.30564 0.01506 0.68768 0.0
O168 O 0.33521 0.03914 0.69753 0.0
In169 In 0.98444 0.31922 0.67725 0.0
O170 O 0.99253 0.35311 0.6761 0.0
O171 O 0.97426 0.33514 0.69973 0.0
C172 C 0.95964 0.30512 0.64465 0.0
C173 C 0.97057 0.29189 0.7068 0.0
C174 C 0.02312 0.32938 0.66666 0.0
O175 O 0.96524 0.32251 0.65272 0.0
O176 O 0.96658 0.29478 0.65292 0.0
O177 O 0.01954 0.34019 0.67876 0.0
O178 O 0.00725 0.31327 0.66022 0.0
C179 C 0.98272 0.35239 0.69139 0.0
O180 O 0.98951 0.30245 0.70294 0.0
O181 O 0.95882 0.29487 0.69562 0.0
In182 In 0.67986 0.66421 0.67029 0.0
O183 O 0.68362 0.69519 0.66089 0.0
O184 O 0.662 0.66807 0.64489 0.0
C185 C 0.70659 0.67873 0.70124 0.0
C186 C 0.6969 0.64838 0.64568 0.0
C187 C 0.6442 0.64264 0.68961 0.0
O188 O 0.70608 0.69044 0.68829 0.0
O189 O 0.69371 0.65972 0.69849 0.0
O190 O 0.6524 0.63385 0.68033 0.0
O191 O 0.65411 0.66216 0.68927 0.0
C192 C 0.67006 0.68741 0.64731 0.0
O193 O 0.67821 0.63831 0.65036 0.0
O194 O 0.70694 0.66639 0.65314 0.0
In195 In 0.33212 0.31628 0.68007 0.0
O196 O 0.35609 0.30973 0.66618 0.0
O197 O 0.32626 0.29591 0.65267 0.0
C198 C 0.35862 0.35378 0.69636 0.0
C199 C 0.31075 0.33119 0.66092 0.0
C200 C 0.31542 0.288 0.70865 0.0
O201 O 0.36445 0.34447 0.68465 0.0
O202 O 0.33975 0.34374 0.70049 0.0
O203 O 0.30527 0.28775 0.6936 0.0
O204 O 0.33411 0.30209 0.70897 0.0
C205 C 0.34434 0.29874 0.65211 0.0
O206 O 0.30408 0.32062 0.67624 0.0
O207 O 0.32767 0.33348 0.65499 0.0
In208 In 0.68959 0.02238 0.66822 0.0
O209 O 0.69919 0.05366 0.65435 0.0
O210 O 0.70237 0.03141 0.63728 0.0
C211 C 0.65396 0.01715 0.68285 0.0
C212 C 0.67514 0.98333 0.65413 0.0
C213 C 0.71781 0.03476 0.69825 0.0
O214 O 0.66519 0.03199 0.67187 0.0
O215 O 0.66084 0.00516 0.68657 0.0
O216 O 0.70087 0.03437 0.69956 0.0
O217 O 0.72103 0.02955 0.68146 0.0
C218 C 0.70396 0.04906 0.63804 0.0
O219 O 0.69056 0.99221 0.66578 0.0
O220 O 0.66743 0.99433 0.64927 0.0
In221 In 0.98021 0.67212 0.67649 0.0
O222 O 0.97241 0.63844 0.67881 0.0
O223 O 0.99737 0.66127 0.69641 0.0
C224 C 0.95307 0.66049 0.64574 0.0
C225 C 0.96754 0.68801 0.70585 0.0
C226 C 0.01884 0.69577 0.66313 0.0
O227 O 0.94938 0.64991 0.66102 0.0
O228 O 0.97002 0.6773 0.64633 0.0
O229 O 0.01115 0.70238 0.67582 0.0
O230 O 0.00686 0.67751 0.65685 0.0
C231 C 0.98671 0.64243 0.69118 0.0
O232 O 0.97491 0.69747 0.69011 0.0
O233 O 0.96595 0.6704 0.70643 0.0
C234 C 0.21869 0.28278 0.03025 0.0
C235 C 0.22986 0.2999 0.04598 0.0
C236 C 0.21719 0.29488 0.07934 0.0
C237 C 0.22231 0.31517 0.08466 0.0
C238 C 0.21108 0.31885 0.09901 0.0
C239 C 0.19421 0.30183 0.10791 0.0
C240 C 0.18972 0.28137 0.10322 0.0
C241 C 0.20164 0.27822 0.08924 0.0
C242 C 0.21667 0.34087 0.104 0.0
C243 C 0.17166 0.26276 0.1121 0.0
C244 C 0.08591 0.29493 0.03826 0.0
C245 C 0.07857 0.30294 0.05557 0.0
C246 C 0.10755 0.31591 0.07951 0.0
C247 C 0.10403 0.29633 0.08518 0.0
C248 C 0.11746 0.29456 0.0985 0.0
C249 C 0.13482 0.31268 0.10628 0.0
C250 C 0.13826 0.33239 0.10093 0.0
C251 C 0.12449 0.33373 0.08765 0.0
C252 C 0.11338 0.27327 0.1039 0.0
C253 C 0.15671 0.35199 0.10892 0.0
C254 C 0.09645 0.30768 0.23308 0.0
C255 C 0.09177 0.28887 0.22358 0.0
C256 C 0.10704 0.28693 0.21348 0.0
C257 C 0.12725 0.30421 0.21262 0.0
C258 C 0.13199 0.3231 0.2222 0.0
C259 C 0.11652 0.32452 0.23241 0.0
C260 C 0.10157 0.26647 0.2036 0.0
C261 C 0.15335 0.34186 0.2215 0.0
C262 C 0.25282 0.2696 0.23782 0.0
C263 C 0.24575 0.28504 0.24333 0.0
C264 C 0.2119 0.2805 0.23494 0.0
C265 C 0.19236 0.26509 0.22832 0.0
C266 C 0.17926 0.27012 0.21785 0.0
C267 C 0.1858 0.29116 0.21433 0.0
C268 C 0.20515 0.30692 0.22187 0.0
C269 C 0.21804 0.30143 0.23209 0.0
C270 C 0.15861 0.25295 0.21022 0.0
C271 C 0.21228 0.32952 0.21888 0.0
C272 C 0.17952 0.30524 0.11969 0.0
C273 C 0.16549 0.30884 0.10924 0.0
C274 C 0.15014 0.31083 0.1188 0.0
C275 C 0.14873 0.30945 0.1395 0.0
C276 C 0.13346 0.31141 0.14958 0.0
C277 C 0.13186 0.30948 0.16992 0.0
C278 C 0.14533 0.30527 0.18091 0.0
C279 C 0.14342 0.30263 0.20151 0.0
C280 C 0.15696 0.29832 0.21197 0.0
C281 C 0.17252 0.29659 0.20242 0.0
C282 C 0.1748 0.29934 0.18184 0.0
C283 C 0.19038 0.29783 0.17176 0.0
C284 C 0.19224 0.30017 0.15145 0.0
C285 C 0.17839 0.30376 0.14042 0.0
C286 C 0.16282 0.30573 0.15033 0.0
C287 C 0.16105 0.30354 0.17106 0.0
C288 C 0.05024 0.29738 0.22528 0.0
C289 C 0.06122 0.297 0.24432 0.0
O290 O 0.2266 0.29094 0.0643 0.0
O291 O 0.22438 0.27462 0.24392 0.0
O292 O 0.0823 0.31047 0.24301 0.0
O293 O 0.09533 0.31838 0.06612 0.0
H294 H 0.22312 0.31027 0.04515 0.0
H295 H 0.20189 0.27405 0.03322 0.0
H296 H 0.22464 0.27177 0.03032 0.0
H297 H 0.22083 0.28956 0.01541 0.0
H298 H 0.23485 0.32808 0.07733 0.0
H299 H 0.19807 0.26264 0.08514 0.0
H300 H 0.20529 0.34422 0.09684 0.0
H301 H 0.2323 0.35224 0.09884 0.0
H302 H 0.21609 0.34304 0.12016 0.0
H303 H 0.16931 0.2479 0.10568 0.0
H304 H 0.15728 0.26342 0.10979 0.0
H305 H 0.17428 0.26287 0.12822 0.0
H306 H 0.06907 0.28981 0.06533 0.0
H307 H 0.07244 0.28299 0.0295 0.0
H308 H 0.09483 0.28772 0.04371 0.0
H309 H 0.09599 0.3078 0.0285 0.0
H310 H 0.09105 0.28229 0.07913 0.0
H311 H 0.12711 0.34876 0.08326 0.0
H312 H 0.12598 0.27091 0.09832 0.0
H313 H 0.09845 0.26071 0.09768 0.0
H314 H 0.11327 0.27196 0.12017 0.0
H315 H 0.15685 0.36615 0.10383 0.0
H316 H 0.17112 0.3525 0.10417 0.0
H317 H 0.15675 0.35206 0.12527 0.0
H318 H 0.05813 0.281 0.24683 0.0
H319 H 0.07632 0.27566 0.22393 0.0
H320 H 0.11998 0.33894 0.2398 0.0
H321 H 0.10287 0.26833 0.1874 0.0
H322 H 0.08563 0.25408 0.20689 0.0
H323 H 0.11259 0.26147 0.20844 0.0
H324 H 0.15428 0.3557 0.22895 0.0
H325 H 0.15798 0.34558 0.20594 0.0
H326 H 0.16462 0.3384 0.22873 0.0
H327 H 0.25135 0.29664 0.23144 0.0
H328 H 0.26995 0.27759 0.23743 0.0
H329 H 0.24657 0.26267 0.22297 0.0
H330 H 0.24723 0.25688 0.24853 0.0
H331 H 0.18766 0.24902 0.23086 0.0
H332 H 0.23285 0.31348 0.23787 0.0
H333 H 0.15757 0.25388 0.19398 0.0
H334 H 0.14606 0.25483 0.21669 0.0
H335 H 0.15602 0.23734 0.21382 0.0
H336 H 0.22716 0.33994 0.2267 0.0
H337 H 0.20041 0.33314 0.22418 0.0
H338 H 0.21422 0.3328 0.20291 0.0
H339 H 0.16617 0.30952 0.09328 0.0
H340 H 0.12254 0.31443 0.14184 0.0
H341 H 0.11979 0.31113 0.1769 0.0
H342 H 0.15528 0.29614 0.22775 0.0
H343 H 0.20129 0.29479 0.17945 0.0
H344 H 0.20451 0.2989 0.14444 0.0
H345 H 0.05298 0.31326 0.22277 0.0
H346 H 0.03336 0.2865 0.22609 0.0
H347 H 0.05608 0.29255 0.21246 0.0
C348 C 0.72145 0.93551 0.02954 0.0
C349 C 0.70553 0.92981 0.0457 0.0
C350 C 0.71148 0.92135 0.07862 0.0
C351 C 0.69114 0.90708 0.08359 0.0
C352 C 0.68708 0.89192 0.09756 0.0
C353 C 0.70372 0.8909 0.1065 0.0
C354 C 0.7243 0.90603 0.10227 0.0
C355 C 0.72789 0.92135 0.0886 0.0
C356 C 0.66496 0.87636 0.10207 0.0
C357 C 0.74244 0.9053 0.11128 0.0
C358 C 0.68857 0.74183 0.05674 0.0
C359 C 0.69705 0.76169 0.06818 0.0
C360 C 0.68723 0.78704 0.07841 0.0
C361 C 0.70502 0.79931 0.0901 0.0
C362 C 0.70658 0.81553 0.10212 0.0
C363 C 0.68972 0.81914 0.103 0.0
C364 C 0.67176 0.80678 0.09129 0.0
C365 C 0.67088 0.79105 0.07893 0.0
C366 C 0.72638 0.82889 0.11374 0.0
C367 C 0.65349 0.81016 0.09182 0.0
C368 C 0.68423 0.78028 0.22982 0.0
C369 C 0.70349 0.79418 0.22192 0.0
C370 C 0.70626 0.81151 0.21161 0.0
C371 C 0.68947 0.81506 0.20921 0.0
C372 C 0.66998 0.8009 0.2168 0.0
C373 C 0.6676 0.78361 0.22696 0.0
C374 C 0.72714 0.82601 0.20324 0.0
C375 C 0.65172 0.80409 0.21421 0.0
C376 C 0.75883 0.97769 0.25069 0.0
C377 C 0.73697 0.95896 0.2498 0.0
C378 C 0.72946 0.92446 0.23946 0.0
C379 C 0.74118 0.91553 0.23378 0.0
C380 C 0.73309 0.89842 0.22068 0.0
C381 C 0.71235 0.88946 0.21378 0.0
C382 C 0.70017 0.8981 0.22001 0.0
C383 C 0.70899 0.91577 0.23256 0.0
C384 C 0.7467 0.88977 0.21461 0.0
C385 C 0.67778 0.88845 0.21371 0.0
C386 C 0.69953 0.87231 0.11768 0.0
C387 C 0.69559 0.85468 0.10662 0.0
C388 C 0.69131 0.83633 0.11568 0.0
C389 C 0.69036 0.83524 0.13642 0.0
C390 C 0.68504 0.81669 0.14597 0.0
C391 C 0.68529 0.81603 0.16641 0.0
C392 C 0.69098 0.83393 0.17806 0.0
C393 C 0.69244 0.83367 0.19878 0.0
C394 C 0.69842 0.85177 0.20996 0.0
C395 C 0.70334 0.87042 0.201 0.0
C396 C 0.70169 0.87094 0.18024 0.0
C397 C 0.7063 0.88931 0.17062 0.0
C398 C 0.70497 0.88968 0.15015 0.0
C399 C 0.69983 0.87191 0.1385 0.0
C400 C 0.69512 0.85323 0.14788 0.0
C401 C 0.69568 0.85265 0.16875 0.0
C402 C 0.68952 0.74531 0.26416 0.0
C403 C 0.69659 0.76043 0.248 0.0
O404 O 0.7157 0.93486 0.06389 0.0
O405 O 0.73818 0.94115 0.25196 0.0
O406 O 0.68119 0.76374 0.24047 0.0
O407 O 0.68527 0.77124 0.06656 0.0
H408 H 0.69471 0.91277 0.04421 0.0
H409 H 0.72985 0.92686 0.03147 0.0
H410 H 0.73284 0.95239 0.03021 0.0
H411 H 0.7137 0.93134 0.01478 0.0
H412 H 0.67846 0.90757 0.07626 0.0
H413 H 0.74354 0.93269 0.0848 0.0
H414 H 0.66075 0.86124 0.09487 0.0
H415 H 0.65407 0.88132 0.09666 0.0
H416 H 0.6631 0.87397 0.11819 0.0
H417 H 0.75746 0.91806 0.10623 0.0
H418 H 0.7414 0.89026 0.1074 0.0
H419 H 0.7421 0.9064 0.12757 0.0
H420 H 0.7139 0.7725 0.0663 0.0
H421 H 0.70056 0.74462 0.04544 0.0
H422 H 0.67711 0.74164 0.0457 0.0
H423 H 0.68026 0.7195 0.07856 0.0
H424 H 0.71789 0.79654 0.08973 0.0
H425 H 0.65724 0.78154 0.06984 0.0
H426 H 0.73137 0.84556 0.11231 0.0
H427 H 0.73911 0.82637 0.10886 0.0
H428 H 0.72378 0.82515 0.12957 0.0
H429 H 0.63969 0.79744 0.08409 0.0
H430 H 0.65756 0.82494 0.0846 0.0
H431 H 0.6495 0.81143 0.1073 0.0
H432 H 0.70557 0.75794 0.23632 0.0
H433 H 0.71641 0.79161 0.22376 0.0
H434 H 0.65279 0.77274 0.23301 0.0
H435 H 0.72574 0.82641 0.18699 0.0
H436 H 0.73874 0.82132 0.20676 0.0
H437 H 0.73288 0.84197 0.20914 0.0
H438 H 0.63744 0.79137 0.22055 0.0
H439 H 0.64888 0.8051 0.19829 0.0
H440 H 0.65516 0.81899 0.22143 0.0
H441 H 0.73023 0.95883 0.23504 0.0
H442 H 0.75843 0.99224 0.2485 0.0
H443 H 0.76818 0.9762 0.23884 0.0
H444 H 0.76644 0.97871 0.26514 0.0
H445 H 0.75691 0.92229 0.2394 0.0
H446 H 0.69981 0.92249 0.23741 0.0
H447 H 0.74432 0.88505 0.19878 0.0
H448 H 0.74268 0.87585 0.22337 0.0
H449 H 0.76332 0.90113 0.21735 0.0
H450 H 0.6699 0.89577 0.22139 0.0
H451 H 0.66948 0.87161 0.21674 0.0
H452 H 0.67666 0.8901 0.19761 0.0
H453 H 0.69626 0.85538 0.09066 0.0
H454 H 0.68078 0.8025 0.13773 0.0
H455 H 0.68125 0.80136 0.17295 0.0
H456 H 0.70005 0.85152 0.22584 0.0
H457 H 0.71093 0.9036 0.17882 0.0
H458 H 0.70852 0.90418 0.14352 0.0
H459 H 0.69106 0.73194 0.25826 0.0
H460 H 0.67212 0.73654 0.26335 0.0
H461 H 0.70637 0.76327 0.28901 0.0
C462 C 0.22648 0.88494 0.04177 0.0
C463 C 0.22969 0.90529 0.05098 0.0
C464 C 0.21416 0.8953 0.08307 0.0
C465 C 0.19913 0.90126 0.08301 0.0
C466 C 0.18187 0.89145 0.09511 0.0
C467 C 0.17955 0.87516 0.10724 0.0
C468 C 0.19496 0.86939 0.1075 0.0
C469 C 0.21232 0.8799 0.09569 0.0
C470 C 0.166 0.8983 0.09472 0.0
C471 C 0.19282 0.85174 0.11978 0.0
C472 C 0.06224 0.78826 0.02517 0.0
C473 C 0.06878 0.78011 0.04272 0.0
C474 C 0.07704 0.79674 0.07526 0.0
C475 C 0.09148 0.79121 0.08161 0.0
C476 C 0.10618 0.80292 0.09639 0.0
C477 C 0.10658 0.82068 0.10471 0.0
C478 C 0.09136 0.82567 0.09894 0.0
C479 C 0.0765 0.81332 0.08452 0.0
C480 C 0.12177 0.79677 0.10256 0.0
C481 C 0.09144 0.84463 0.10724 0.0
C482 C 0.06787 0.79963 0.23303 0.0
C483 C 0.08266 0.79409 0.22792 0.0
C484 C 0.10018 0.80764 0.21735 0.0
C485 C 0.10296 0.82709 0.21181 0.0
C486 C 0.08838 0.83293 0.21745 0.0
C487 C 0.0711 0.81916 0.22817 0.0
C488 C 0.11576 0.80119 0.21209 0.0
C489 C 0.09098 0.85364 0.21197 0.0
C490 C 0.24574 0.96147 0.2345 0.0
C491 C 0.23385 0.9481 0.25188 0.0
C492 C 0.20928 0.91422 0.23618 0.0
C493 C 0.20545 0.89403 0.23297 0.0
C494 C 0.18837 0.87955 0.22163 0.0
C495 C 0.17468 0.88543 0.21341 0.0
C496 C 0.17832 0.90581 0.21671 0.0
C497 C 0.19566 0.92007 0.22799 0.0
C498 C 0.18501 0.85798 0.21834 0.0
C499 C 0.16393 0.9125 0.20819 0.0
C500 C 0.16032 0.86308 0.11842 0.0
C501 C 0.1428 0.84841 0.10789 0.0
C502 C 0.12439 0.83542 0.11735 0.0
C503 C 0.12338 0.83682 0.13806 0.0
C504 C 0.10539 0.82344 0.14819 0.0
C505 C 0.10461 0.82498 0.1686 0.0
C506 C 0.12182 0.83992 0.17965 0.0
C507 C 0.1213 0.84146 0.20042 0.0
C508 C 0.13862 0.85662 0.21089 0.0
C509 C 0.15667 0.87027 0.20124 0.0
C510 C 0.1576 0.86885 0.18052 0.0
C511 C 0.17563 0.88216 0.17039 0.0
C512 C 0.17651 0.88045 0.15003 0.0
C513 C 0.15942 0.8653 0.13905 0.0
C514 C 0.14094 0.85195 0.14892 0.0
C515 C 0.14009 0.85362 0.16971 0.0
C516 C 0.01704 0.75799 0.23583 0.0
C517 C 0.03964 0.76521 0.24096 0.0
O518 O 0.23076 0.90439 0.07131 0.0
O519 O 0.22631 0.92733 0.24717 0.0
O520 O 0.05046 0.78666 0.24276 0.0
O521 O 0.06376 0.78668 0.05995 0.0
H522 H 0.21644 0.90728 0.04648 0.0
H523 H 0.21209 0.87168 0.04734 0.0
H524 H 0.23967 0.88266 0.04563 0.0
H525 H 0.22494 0.8849 0.02548 0.0
H526 H 0.20098 0.91367 0.07363 0.0
H527 H 0.22421 0.87563 0.0957 0.0
H528 H 0.15175 0.88621 0.08704 0.0
H529 H 0.17157 0.91312 0.08695 0.0
H530 H 0.16183 0.9002 0.10996 0.0
H531 H 0.20496 0.84772 0.1166 0.0
H532 H 0.17746 0.83774 0.11705 0.0
H533 H 0.19397 0.85609 0.13564 0.0
H534 H 0.08583 0.78682 0.04187 0.0
H535 H 0.06639 0.78354 0.01111 0.0
H536 H 0.07031 0.80546 0.02605 0.0
H537 H 0.04531 0.7822 0.02513 0.0
H538 H 0.09142 0.7779 0.07484 0.0
H539 H 0.06505 0.81722 0.07963 0.0
H540 H 0.1239 0.79798 0.11883 0.0
H541 H 0.1369 0.8075 0.09604 0.0
H542 H 0.11709 0.78071 0.09757 0.0
H543 H 0.07916 0.8469 0.10045 0.0
H544 H 0.10664 0.85866 0.10481 0.0
H545 H 0.08909 0.84319 0.12337 0.0
H546 H 0.04545 0.75983 0.22845 0.0
H547 H 0.08066 0.77931 0.23234 0.0
H548 H 0.05975 0.8234 0.23244 0.0
H549 H 0.11655 0.80016 0.19582 0.0
H550 H 0.11186 0.78597 0.21826 0.0
H551 H 0.13134 0.81307 0.21766 0.0
H552 H 0.0778 0.85548 0.2167 0.0
H553 H 0.09251 0.85543 0.19577 0.0
H554 H 0.10539 0.86628 0.21894 0.0
H555 H 0.22087 0.95075 0.25553 0.0
H556 H 0.25178 0.97814 0.23816 0.0
H557 H 0.23543 0.9573 0.22131 0.0
H558 H 0.25887 0.9591 0.23082 0.0
H559 H 0.21604 0.88968 0.23933 0.0
H560 H 0.19842 0.93565 0.23025 0.0
H561 H 0.1841 0.85439 0.2023 0.0
H562 H 0.17009 0.8465 0.22473 0.0
H563 H 0.19753 0.8561 0.22511 0.0
H564 H 0.16834 0.92858 0.21282 0.0
H565 H 0.14789 0.90183 0.21287 0.0
H566 H 0.164 0.91158 0.19186 0.0
H567 H 0.14357 0.84695 0.09203 0.0
H568 H 0.09175 0.81159 0.14042 0.0
H569 H 0.09035 0.81428 0.17562 0.0
H570 H 0.13814 0.85766 0.22682 0.0
H571 H 0.18931 0.89404 0.17808 0.0
H572 H 0.19077 0.89111 0.14299 0.0
H573 H 0.01007 0.76319 0.24736 0.0
H574 H 0.008 0.7408 0.23435 0.0
H575 H 0.01604 0.76457 0.22157 0.0
C576 C 0.31873 0.11306 0.9832 0.0
C577 C 0.31216 0.09475 0.96865 0.0
C578 C 0.31584 0.11035 0.93641 0.0
C579 C 0.295 0.10365 0.93203 0.0
C580 C 0.28955 0.11381 0.91805 0.0
C581 C 0.30523 0.13092 0.90818 0.0
C582 C 0.32618 0.13691 0.91168 0.0
C583 C 0.33119 0.12636 0.92564 0.0
C584 C 0.26703 0.10669 0.91425 0.0
C585 C 0.34328 0.15501 0.90128 0.0
C586 C 0.27734 0.22018 0.98698 0.0
C587 C 0.29225 0.2281 0.96983 0.0
C588 C 0.28411 0.21177 0.93722 0.0
C589 C 0.30405 0.21703 0.93143 0.0
C590 C 0.30701 0.20511 0.91701 0.0
C591 C 0.28964 0.18744 0.9085 0.0
C592 C 0.26948 0.18273 0.91368 0.0
C593 C 0.267 0.19529 0.92774 0.0
C594 C 0.3287 0.21092 0.91147 0.0
C595 C 0.25058 0.16384 0.90519 0.0
C596 C 0.26832 0.20662 0.78294 0.0
C597 C 0.28888 0.21186 0.78678 0.0
C598 C 0.29343 0.19792 0.79612 0.0
C599 C 0.2771 0.17841 0.80175 0.0
C600 C 0.25644 0.17274 0.79705 0.0
C601 C 0.25235 0.1869 0.7875 0.0
C602 C 0.31567 0.20417 0.80035 0.0
C603 C 0.23868 0.15196 0.80261 0.0
C604 C 0.27558 0.03907 0.78107 0.0
C605 C 0.28109 0.05409 0.76405 0.0
C606 C 0.29277 0.08823 0.78035 0.0
C607 C 0.31014 0.10758 0.78441 0.0
C608 C 0.30862 0.12307 0.79495 0.0
C609 C 0.28916 0.11899 0.80173 0.0
C610 C 0.27143 0.09948 0.79761 0.0
C611 C 0.27337 0.08427 0.78689 0.0
C612 C 0.32783 0.14375 0.79899 0.0
C613 C 0.25047 0.09467 0.80469 0.0
C614 C 0.29985 0.14406 0.89618 0.0
C615 C 0.2976 0.15926 0.90624 0.0
C616 C 0.29261 0.17246 0.8963 0.0
C617 C 0.29004 0.17073 0.87559 0.0
C618 C 0.28562 0.18416 0.86504 0.0
C619 C 0.28278 0.18208 0.84467 0.0
C620 C 0.28439 0.16657 0.83407 0.0
C621 C 0.28157 0.16435 0.81335 0.0
C622 C 0.28308 0.14866 0.8033 0.0
C623 C 0.28747 0.13506 0.81339 0.0
C624 C 0.29053 0.13712 0.83407 0.0
C625 C 0.29516 0.12381 0.84466 0.0
C626 C 0.2983 0.12608 0.865 0.0
C627 C 0.29678 0.14164 0.87553 0.0
C628 C 0.29195 0.15511 0.86519 0.0
C629 C 0.28896 0.15293 0.84443 0.0
C630 C 0.25955 0.24923 0.78327 0.0
C631 C 0.27441 0.24157 0.77768 0.0
O632 O 0.32177 0.10182 0.95079 0.0
O633 O 0.29566 0.074 0.77031 0.0
O634 O 0.26333 0.22021 0.77502 0.0
O635 O 0.28092 0.22193 0.95228 0.0
H636 H 0.29512 0.08714 0.96695 0.0
H637 H 0.31229 0.12283 0.97817 0.0
H638 H 0.33579 0.12296 0.98413 0.0
H639 H 0.31273 0.1074 0.99809 0.0
H640 H 0.28286 0.09052 0.9394 0.0
H641 H 0.34721 0.13114 0.9288 0.0
H642 H 0.26356 0.11861 0.9201 0.0
H643 H 0.25666 0.09175 0.92134 0.0
H644 H 0.26359 0.10491 0.89816 0.0
H645 H 0.35874 0.15716 0.90499 0.0
H646 H 0.34316 0.16943 0.90543 0.0
H647 H 0.34067 0.15267 0.88509 0.0
H648 H 0.30218 0.22091 0.97109 0.0
H649 H 0.28602 0.22467 0.00127 0.0
H650 H 0.26792 0.20299 0.98601 0.0
H651 H 0.26675 0.2266 0.98658 0.0
H652 H 0.31729 0.23024 0.93839 0.0
H653 H 0.25168 0.1916 0.9322 0.0
H654 H 0.32974 0.20957 0.89526 0.0
H655 H 0.33287 0.20009 0.9184 0.0
H656 H 0.34015 0.22696 0.91649 0.0
H657 H 0.23608 0.16167 0.91172 0.0
H658 H 0.25167 0.14974 0.90776 0.0
H659 H 0.24966 0.16532 0.88903 0.0
H660 H 0.28553 0.24604 0.79035 0.0
H661 H 0.30137 0.22682 0.78255 0.0
H662 H 0.23656 0.1829 0.78416 0.0
H663 H 0.31862 0.20585 0.81651 0.0
H664 H 0.32662 0.21905 0.79348 0.0
H665 H 0.3188 0.19191 0.79484 0.0
H666 H 0.22347 0.15002 0.79814 0.0
H667 H 0.23894 0.15016 0.8188 0.0
H668 H 0.24037 0.13938 0.79549 0.0
H669 H 0.26695 0.05388 0.75847 0.0
H670 H 0.26403 0.02308 0.77601 0.0
H671 H 0.26881 0.04361 0.79331 0.0
H672 H 0.28956 0.03912 0.78681 0.0
H673 H 0.32502 0.11048 0.77928 0.0
H674 H 0.25975 0.06937 0.78388 0.0
H675 H 0.33071 0.14641 0.81513 0.0
H676 H 0.32558 0.1564 0.79332 0.0
H677 H 0.34169 0.14472 0.79209 0.0
H678 H 0.23818 0.07868 0.80048 0.0
H679 H 0.24635 0.10584 0.79843 0.0
H680 H 0.25094 0.09654 0.82098 0.0
H681 H 0.29961 0.16074 0.92216 0.0
H682 H 0.28427 0.1964 0.87244 0.0
H683 H 0.27929 0.19279 0.83735 0.0
H684 H 0.28092 0.14707 0.78741 0.0
H685 H 0.29645 0.11151 0.83732 0.0
H686 H 0.30186 0.11545 0.87241 0.0
H687 H 0.24734 0.24478 0.77172 0.0
H688 H 0.26808 0.26637 0.78533 0.0
H689 H 0.252 0.24225 0.79733 0.0
C690 C 0.78731 0.06094 0.98657 0.0
C691 C 0.77712 0.06789 0.97118 0.0
C692 C 0.78926 0.07587 0.93772 0.0
C693 C 0.78314 0.09033 0.93327 0.0
C694 C 0.79361 0.10543 0.91916 0.0
C695 C 0.81079 0.10628 0.90965 0.0
C696 C 0.81628 0.09099 0.91345 0.0
C697 C 0.80507 0.07566 0.92718 0.0
C698 C 0.78694 0.12109 0.91512 0.0
C699 C 0.8347 0.09154 0.90393 0.0
C700 C 0.94217 0.25257 0.96503 0.0
C701 C 0.93087 0.23308 0.95297 0.0
C702 C 0.89638 0.20909 0.93987 0.0
C703 C 0.90224 0.19669 0.929 0.0
C704 C 0.88823 0.18097 0.91605 0.0
C705 C 0.86811 0.17798 0.91338 0.0
C706 C 0.86223 0.19058 0.92413 0.0
C707 C 0.8764 0.20581 0.93744 0.0
C708 C 0.89489 0.16732 0.9055 0.0
C709 C 0.84093 0.18786 0.9217 0.0
C710 C 0.90496 0.21396 0.78645 0.0
C711 C 0.91029 0.20071 0.79615 0.0
C712 C 0.89536 0.18345 0.80621 0.0
C713 C 0.87482 0.1796 0.80686 0.0
C714 C 0.86948 0.193 0.79725 0.0
C715 C 0.88463 0.20993 0.78708 0.0
C716 C 0.90153 0.16931 0.81612 0.0
C717 C 0.84779 0.18945 0.79777 0.0
C718 C 0.76097 0.01709 0.77021 0.0
C719 C 0.76495 0.03921 0.7682 0.0
C720 C 0.79664 0.07049 0.77879 0.0
C721 C 0.81675 0.07654 0.785 0.0
C722 C 0.82814 0.09423 0.79711 0.0
C723 C 0.81931 0.10647 0.80267 0.0
C724 C 0.79923 0.10088 0.79577 0.0
C725 C 0.78803 0.08285 0.78397 0.0
C726 C 0.84957 0.09979 0.80404 0.0
C727 C 0.78965 0.11397 0.80084 0.0
C728 C 0.82485 0.12489 0.89842 0.0
C729 C 0.83845 0.14263 0.90946 0.0
C730 C 0.85289 0.16071 0.90042 0.0
C731 C 0.85371 0.16136 0.87964 0.0
C732 C 0.86771 0.17949 0.87001 0.0
C733 C 0.86921 0.17965 0.8496 0.0
C734 C 0.85677 0.16167 0.83806 0.0
C735 C 0.85887 0.1614 0.8174 0.0
C736 C 0.84614 0.14335 0.80634 0.0
C737 C 0.83135 0.12534 0.81534 0.0
C738 C 0.82905 0.12525 0.83601 0.0
C739 C 0.81439 0.1074 0.84561 0.0
C740 C 0.81261 0.10736 0.86602 0.0
C741 C 0.82573 0.12503 0.87763 0.0
C742 C 0.84035 0.14333 0.86822 0.0
C743 C 0.84194 0.14346 0.8474 0.0
C744 C 0.95119 0.25138 0.79307 0.0
C745 C 0.93979 0.23862 0.7745 0.0
O746 O 0.78064 0.06245 0.95258 0.0
O747 O 0.78606 0.05274 0.76777 0.0
O748 O 0.91872 0.23075 0.77635 0.0
O749 O 0.90957 0.2243 0.95273 0.0
H750 H 0.7845 0.08507 0.97289 0.0
H751 H 0.80417 0.06854 0.984 0.0
H752 H 0.78071 0.04386 0.98563 0.0
H753 H 0.78502 0.06539 0.00163 0.0
H754 H 0.77044 0.09002 0.94111 0.0
H755 H 0.80943 0.06419 0.93062 0.0
H756 H 0.79775 0.13596 0.92283 0.0
H757 H 0.77111 0.11588 0.9204 0.0
H758 H 0.78743 0.12406 0.8991 0.0
H759 H 0.83768 0.07931 0.90947 0.0
H760 H 0.84872 0.10688 0.90673 0.0
H761 H 0.83209 0.08931 0.88775 0.0
H762 H 0.93606 0.22164 0.95556 0.0
H763 H 0.95015 0.24892 0.97714 0.0
H764 H 0.93047 0.25309 0.97501 0.0
H765 H 0.95845 0.27524 0.94407 0.0
H766 H 0.9176 0.19892 0.93078 0.0
H767 H 0.872 0.21543 0.94587 0.0
H768 H 0.88301 0.15072 0.90682 0.0
H769 H 0.90984 0.16965 0.91138 0.0
H770 H 0.89665 0.1709 0.88961 0.0
H771 H 0.83986 0.20089 0.92863 0.0
H772 H 0.82954 0.17327 0.92869 0.0
H773 H 0.83661 0.18659 0.90584 0.0
H774 H 0.94309 0.22574 0.7723 0.0
H775 H 0.92597 0.20362 0.79595 0.0
H776 H 0.88067 0.22025 0.7796 0.0
H777 H 0.90009 0.17022 0.83231 0.0
H778 H 0.91766 0.17344 0.81291 0.0
H779 H 0.89101 0.15299 0.81123 0.0
H780 H 0.84645 0.20207 0.79069 0.0
H781 H 0.84275 0.18824 0.81327 0.0
H782 H 0.83707 0.17455 0.79004 0.0
H783 H 0.7583 0.0424 0.78153 0.0
H784 H 0.7441 0.00592 0.7705 0.0
H785 H 0.76807 0.01588 0.7842 0.0
H786 H 0.76777 0.01278 0.7578 0.0
H787 H 0.82332 0.06701 0.7807 0.0
H788 H 0.77268 0.07858 0.77864 0.0
H789 H 0.85099 0.10209 0.82031 0.0
H790 H 0.86105 0.11461 0.79746 0.0
H791 H 0.85346 0.08768 0.79989 0.0
H792 H 0.7745 0.10832 0.79322 0.0
H793 H 0.8002 0.1303 0.79678 0.0
H794 H 0.78739 0.11386 0.81698 0.0
H795 H 0.83814 0.14217 0.92544 0.0
H796 H 0.87779 0.1937 0.87819 0.0
H797 H 0.88041 0.19398 0.843 0.0
H798 H 0.848 0.14321 0.79052 0.0
H799 H 0.80416 0.09322 0.83746 0.0
H800 H 0.80106 0.09322 0.87265 0.0
H801 H 0.96806 0.25747 0.79198 0.0
H802 H 0.94572 0.24158 0.80626 0.0
H803 H 0.94839 0.26459 0.79516 0.0
C804 C 0.78698 0.71199 0.97648 0.0
C805 C 0.77123 0.7024 0.95935 0.0
C806 C 0.78925 0.69135 0.9362 0.0
C807 C 0.804 0.71136 0.93032 0.0
C808 C 0.81998 0.71435 0.91774 0.0
C809 C 0.82122 0.69702 0.91079 0.0
C810 C 0.80616 0.67684 0.91625 0.0
C811 C 0.79033 0.67429 0.92887 0.0
C812 C 0.83582 0.73608 0.91216 0.0
C813 C 0.80702 0.65804 0.90902 0.0
C814 C 0.93985 0.72835 0.98729 0.0
C815 C 0.93237 0.71111 0.9715 0.0
C816 C 0.92329 0.71648 0.93863 0.0
C817 C 0.90794 0.69631 0.93317 0.0
C818 C 0.89258 0.69296 0.91918 0.0
C819 C 0.89245 0.71018 0.9108 0.0
C820 C 0.90844 0.73054 0.9158 0.0
C821 C 0.92395 0.73338 0.92938 0.0
C822 C 0.87611 0.67103 0.91388 0.0
C823 C 0.90863 0.74932 0.90754 0.0
C824 C 0.9311 0.73205 0.78372 0.0
C825 C 0.91756 0.71107 0.78758 0.0
C826 C 0.89918 0.70497 0.79769 0.0
C827 C 0.89437 0.72019 0.80416 0.0
C828 C 0.90768 0.74124 0.79971 0.0
C829 C 0.92577 0.74685 0.78931 0.0
C830 C 0.88497 0.68231 0.80161 0.0
C831 C 0.90292 0.75786 0.80618 0.0
C832 C 0.75254 0.7131 0.78618 0.0
C833 C 0.76334 0.70972 0.76862 0.0
C834 C 0.78683 0.69909 0.7833 0.0
C835 C 0.79003 0.68232 0.78571 0.0
C836 C 0.80735 0.68458 0.79611 0.0
C837 C 0.82185 0.7042 0.80431 0.0
C838 C 0.81884 0.72133 0.80184 0.0
C839 C 0.80133 0.71861 0.79141 0.0
C840 C 0.81007 0.66599 0.79854 0.0
C841 C 0.83406 0.74246 0.81042 0.0
C842 C 0.839 0.70018 0.8988 0.0
C843 C 0.8566 0.70292 0.90881 0.0
C844 C 0.87438 0.70694 0.89874 0.0
C845 C 0.87472 0.70832 0.87798 0.0
C846 C 0.89235 0.71245 0.86734 0.0
C847 C 0.89271 0.71447 0.84697 0.0
C848 C 0.8753 0.712 0.83643 0.0
C849 C 0.87555 0.7142 0.81575 0.0
C850 C 0.85789 0.71142 0.80574 0.0
C851 C 0.83992 0.70669 0.81584 0.0
C852 C 0.83943 0.70465 0.83652 0.0
C853 C 0.82164 0.70012 0.84714 0.0
C854 C 0.82143 0.69857 0.86753 0.0
C855 C 0.83894 0.70135 0.87806 0.0
C856 C 0.85693 0.70559 0.86763 0.0
C857 C 0.85719 0.70733 0.84684 0.0
C858 C 0.98394 0.74656 0.7808 0.0
C859 C 0.96167 0.72958 0.77626 0.0
O860 O 0.77401 0.68777 0.94905 0.0
O861 O 0.76952 0.69556 0.77323 0.0
O862 O 0.94938 0.73856 0.77467 0.0
O863 O 0.93732 0.72002 0.95313 0.0
H864 H 0.77321 0.71486 0.94928 0.0
H865 H 0.80296 0.72036 0.97092 0.0
H866 H 0.78572 0.69979 0.98651 0.0
H867 H 0.78434 0.72329 0.985 0.0
H868 H 0.80341 0.7248 0.93563 0.0
H869 H 0.77887 0.65892 0.93336 0.0
H870 H 0.85134 0.73968 0.91758 0.0
H871 H 0.8324 0.74792 0.91833 0.0
H872 H 0.83644 0.73724 0.89587 0.0
H873 H 0.7936 0.64333 0.91385 0.0
H874 H 0.82142 0.65889 0.91466 0.0
H875 H 0.80746 0.65782 0.89268 0.0
H876 H 0.91529 0.70138 0.97289 0.0
H877 H 0.9358 0.72165 0.00219 0.0
H878 H 0.93233 0.73777 0.98487 0.0
H879 H 0.95686 0.7387 0.98668 0.0
H880 H 0.90785 0.68325 0.94005 0.0
H881 H 0.93607 0.74887 0.93363 0.0
H882 H 0.87322 0.66913 0.89769 0.0
H883 H 0.86147 0.66764 0.92098 0.0
H884 H 0.88038 0.65951 0.91886 0.0
H885 H 0.92126 0.76405 0.9141 0.0
H886 H 0.89366 0.74857 0.91028 0.0
H887 H 0.91063 0.74955 0.89137 0.0
H888 H 0.95694 0.71903 0.789 0.0
H889 H 0.92127 0.69944 0.78263 0.0
H890 H 0.93619 0.76295 0.78599 0.0
H891 H 0.88434 0.67982 0.81772 0.0
H892 H 0.89011 0.67225 0.79433 0.0
H893 H 0.86906 0.67748 0.79633 0.0
H894 H 0.91542 0.77365 0.80251 0.0
H895 H 0.90058 0.75726 0.82233 0.0
H896 H 0.88835 0.75502 0.79889 0.0
H897 H 0.77698 0.72476 0.76474 0.0
H898 H 0.7474 0.7243 0.78243 0.0
H899 H 0.76328 0.71949 0.7991 0.0
H900 H 0.73891 0.69823 0.79038 0.0
H901 H 0.77877 0.66732 0.77943 0.0
H902 H 0.7991 0.73178 0.78985 0.0
H903 H 0.81075 0.66313 0.81445 0.0
H904 H 0.82493 0.66913 0.7921 0.0
H905 H 0.79734 0.65176 0.79135 0.0
H906 H 0.82993 0.7544 0.80661 0.0
H907 H 0.84976 0.74738 0.80497 0.0
H908 H 0.83468 0.74169 0.82671 0.0
H909 H 0.85655 0.70219 0.92477 0.0
H910 H 0.90614 0.71439 0.87469 0.0
H911 H 0.90682 0.71797 0.8396 0.0
H912 H 0.8582 0.71316 0.78989 0.0
H913 H 0.80772 0.69785 0.83982 0.0
H914 H 0.80737 0.69518 0.87495 0.0
H915 H 0.99414 0.73973 0.78201 0.0
H916 H 0.9847 0.75449 0.79504 0.0
H917 H 0.98978 0.75832 0.76911 0.0
C918 C 0.88435 0.63015 0.36269 0.0
C919 C 0.89752 0.64612 0.37874 0.0
C920 C 0.88156 0.63803 0.41076 0.0
C921 C 0.8847 0.65736 0.41727 0.0
C922 C 0.87137 0.65869 0.43086 0.0
C923 C 0.85452 0.64027 0.43792 0.0
C924 C 0.8519 0.62077 0.432 0.0
C925 C 0.86574 0.61995 0.4187 0.0
C926 C 0.87493 0.67974 0.43722 0.0
C927 C 0.83402 0.60082 0.43908 0.0
C928 C 0.73958 0.62702 0.37258 0.0
C929 C 0.73338 0.63652 0.38955 0.0
C930 C 0.7636 0.64955 0.4121 0.0
C931 C 0.75983 0.63008 0.41836 0.0
C932 C 0.77402 0.62843 0.43077 0.0
C933 C 0.7922 0.6466 0.4372 0.0
C934 C 0.79579 0.66622 0.43134 0.0
C935 C 0.7814 0.66742 0.41886 0.0
C936 C 0.76977 0.60726 0.43677 0.0
C937 C 0.81498 0.68589 0.43805 0.0
C938 C 0.75797 0.64446 0.56536 0.0
C939 C 0.75439 0.62498 0.55859 0.0
C940 C 0.7694 0.6232 0.54783 0.0
C941 C 0.78833 0.64123 0.54381 0.0
C942 C 0.79193 0.66085 0.55054 0.0
C943 C 0.77663 0.66219 0.56118 0.0
C944 C 0.76503 0.60207 0.5407 0.0
C945 C 0.81193 0.68038 0.54647 0.0
C946 C 0.9163 0.60947 0.56638 0.0
C947 C 0.90903 0.62469 0.57206 0.0
C948 C 0.8748 0.61957 0.56422 0.0
C949 C 0.85517 0.6039 0.55814 0.0
C950 C 0.84159 0.60855 0.54805 0.0
C951 C 0.84773 0.62947 0.54437 0.0
C952 C 0.86721 0.64549 0.55136 0.0
C953 C 0.88059 0.64038 0.56122 0.0
C954 C 0.82082 0.59108 0.54102 0.0
C955 C 0.87396 0.66797 0.54814 0.0
C956 C 0.8385 0.6414 0.44973 0.0
C957 C 0.82356 0.64375 0.43946 0.0
C958 C 0.80788 0.64494 0.44931 0.0
C959 C 0.80704 0.64395 0.47006 0.0
C960 C 0.79164 0.64544 0.48043 0.0
C961 C 0.79079 0.64417 0.50084 0.0
C962 C 0.80523 0.64124 0.51165 0.0
C963 C 0.80429 0.63961 0.53237 0.0
C964 C 0.81855 0.63617 0.54262 0.0
C965 C 0.83394 0.63444 0.53273 0.0
C966 C 0.83547 0.63654 0.51205 0.0
C967 C 0.85105 0.63533 0.50166 0.0
C968 C 0.85229 0.63725 0.48128 0.0
C969 C 0.83775 0.63999 0.47048 0.0
C970 C 0.82194 0.64129 0.48066 0.0
C971 C 0.82093 0.63977 0.50148 0.0
C972 C 0.71718 0.63839 0.59942 0.0
C973 C 0.72589 0.63105 0.58368 0.0
O974 O 0.8935 0.63644 0.39674 0.0
O975 O 0.88767 0.61399 0.57288 0.0
O976 O 0.74399 0.64683 0.57607 0.0
O977 O 0.75078 0.65191 0.39941 0.0
H978 H 0.8932 0.65843 0.37883 0.0
H979 H 0.86772 0.62343 0.36601 0.0
H980 H 0.88796 0.61739 0.3619 0.0
H981 H 0.88717 0.63759 0.34812 0.0
H982 H 0.89746 0.67137 0.41158 0.0
H983 H 0.8637 0.60513 0.41374 0.0
H984 H 0.86278 0.68221 0.43046 0.0
H985 H 0.89025 0.69245 0.43271 0.0
H986 H 0.87379 0.6806 0.45347 0.0
H987 H 0.8339 0.58693 0.4327 0.0
H988 H 0.81923 0.60007 0.43508 0.0
H989 H 0.83483 0.60036 0.45537 0.0
H990 H 0.72362 0.62421 0.39998 0.0
H991 H 0.7256 0.61504 0.36443 0.0
H992 H 0.74809 0.61947 0.37823 0.0
H993 H 0.74967 0.63916 0.36218 0.0
H994 H 0.74603 0.61607 0.4135 0.0
H995 H 0.78413 0.68237 0.41405 0.0
H996 H 0.78242 0.60469 0.43172 0.0
H997 H 0.75489 0.59461 0.43055 0.0
H998 H 0.76941 0.60636 0.45308 0.0
H999 H 0.81493 0.7 0.43311 0.0
H1000 H 0.8288 0.68597 0.43213 0.0
H1001 H 0.81639 0.68649 0.45438 0.0
H1002 H 0.71464 0.62069 0.57207 0.0
H1003 H 0.73993 0.61113 0.56159 0.0
H1004 H 0.77923 0.67714 0.56644 0.0
H1005 H 0.76649 0.60193 0.52445 0.0
H1006 H 0.74935 0.58959 0.54462 0.0
H1007 H 0.77661 0.59862 0.54725 0.0
H1008 H 0.81254 0.69441 0.55312 0.0
H1009 H 0.81388 0.68236 0.53032 0.0
H1010 H 0.82513 0.6791 0.5524 0.0
H1011 H 0.91435 0.63635 0.56023 0.0
H1012 H 0.93342 0.61767 0.56559 0.0
H1013 H 0.90974 0.60228 0.55168 0.0
H1014 H 0.91119 0.59693 0.57726 0.0
H1015 H 0.85075 0.58792 0.56081 0.0
H1016 H 0.89549 0.65263 0.5666 0.0
H1017 H 0.81919 0.59177 0.52481 0.0
H1018 H 0.80837 0.59283 0.54792 0.0
H1019 H 0.81859 0.57561 0.54462 0.0
H1020 H 0.88903 0.67864 0.55554 0.0
H1021 H 0.86213 0.67149 0.55376 0.0
H1022 H 0.87537 0.67098 0.53211 0.0
H1023 H 0.82406 0.64453 0.42351 0.0
H1024 H 0.78007 0.6476 0.47286 0.0
H1025 H 0.77857 0.64539 0.50803 0.0
H1026 H 0.81752 0.6346 0.55849 0.0
H1027 H 0.86251 0.63297 0.50917 0.0
H1028 H 0.86466 0.63633 0.47406 0.0
H1029 H 0.70186 0.63534 0.59324 0.0
H1030 H 0.72483 0.65575 0.59822 0.0
H1031 H 0.71976 0.62403 0.6248 0.0
C1032 C 0.3871 0.27256 0.36913 0.0
C1033 C 0.36983 0.26541 0.38409 0.0
C1034 C 0.37408 0.25438 0.41636 0.0
C1035 C 0.35371 0.2389 0.4198 0.0
C1036 C 0.34959 0.22271 0.43255 0.0
C1037 C 0.36622 0.22191 0.44178 0.0
C1038 C 0.38675 0.23805 0.43895 0.0
C1039 C 0.39035 0.25435 0.42653 0.0
C1040 C 0.3275 0.20608 0.4356 0.0
C1041 C 0.40491 0.23762 0.4483 0.0
C1042 C 0.35163 0.07429 0.38771 0.0
C1043 C 0.36086 0.09481 0.39812 0.0
C1044 C 0.35042 0.1189 0.41092 0.0
C1045 C 0.36918 0.13206 0.42094 0.0
C1046 C 0.37117 0.1481 0.43353 0.0
C1047 C 0.35391 0.15072 0.43656 0.0
C1048 C 0.335 0.1375 0.4265 0.0
C1049 C 0.33359 0.12189 0.41362 0.0
C1050 C 0.39179 0.16232 0.44349 0.0
C1051 C 0.31629 0.13985 0.42936 0.0
C1052 C 0.35256 0.11167 0.5637 0.0
C1053 C 0.37175 0.12651 0.55636 0.0
C1054 C 0.37377 0.14365 0.54617 0.0
C1055 C 0.35624 0.14588 0.54314 0.0
C1056 C 0.33684 0.13075 0.55016 0.0
C1057 C 0.33527 0.1138 0.56034 0.0
C1058 C 0.39466 0.15946 0.53873 0.0
C1059 C 0.31783 0.13258 0.54701 0.0
C1060 C 0.39387 0.3052 0.5747 0.0
C1061 C 0.3773 0.28361 0.58094 0.0
C1062 C 0.38041 0.25342 0.57216 0.0
C1063 C 0.39577 0.24907 0.5665 0.0
C1064 C 0.39099 0.23158 0.55465 0.0
C1065 C 0.37024 0.2179 0.54871 0.0
C1066 C 0.35448 0.2217 0.55518 0.0
C1067 C 0.35973 0.23945 0.56686 0.0
C1068 C 0.40815 0.22784 0.54825 0.0
C1069 C 0.33214 0.20709 0.54959 0.0
C1070 C 0.3623 0.20309 0.45244 0.0
C1071 C 0.35913 0.18593 0.44104 0.0
C1072 C 0.3559 0.16774 0.44974 0.0
C1073 C 0.35569 0.16644 0.4705 0.0
C1074 C 0.3522 0.14826 0.47975 0.0
C1075 C 0.35286 0.14742 0.50018 0.0
C1076 C 0.35694 0.16471 0.51213 0.0
C1077 C 0.35829 0.16423 0.53287 0.0
C1078 C 0.36229 0.18164 0.54434 0.0
C1079 C 0.36511 0.19972 0.53564 0.0
C1080 C 0.36383 0.20054 0.5149 0.0
C1081 C 0.36658 0.21848 0.50564 0.0
C1082 C 0.3657 0.21924 0.48519 0.0
C1083 C 0.36239 0.20223 0.47323 0.0
C1084 C 0.35922 0.18386 0.48227 0.0
C1085 C 0.35988 0.18299 0.50312 0.0
C1086 C 0.35906 0.07771 0.5983 0.0
C1087 C 0.3657 0.09212 0.58152 0.0
O1088 O 0.37845 0.26921 0.40294 0.0
O1089 O 0.38607 0.27114 0.58276 0.0
O1090 O 0.3501 0.09532 0.57434 0.0
O1091 O 0.34793 0.10315 0.39869 0.0
H1092 H 0.3594 0.24846 0.3813 0.0
H1093 H 0.3955 0.26391 0.3711 0.0
H1094 H 0.39828 0.2894 0.37116 0.0
H1095 H 0.38058 0.26951 0.35387 0.0
H1096 H 0.34109 0.23936 0.41231 0.0
H1097 H 0.406 0.26658 0.42389 0.0
H1098 H 0.32438 0.19175 0.42742 0.0
H1099 H 0.31637 0.21075 0.43025 0.0
H1100 H 0.32481 0.20236 0.45145 0.0
H1101 H 0.41993 0.25072 0.44366 0.0
H1102 H 0.40438 0.22283 0.44433 0.0
H1103 H 0.40413 0.23841 0.46458 0.0
H1104 H 0.37692 0.10618 0.3938 0.0
H1105 H 0.36168 0.07691 0.37459 0.0
H1106 H 0.33809 0.07259 0.37871 0.0
H1107 H 0.3485 0.05386 0.41012 0.0
H1108 H 0.3824 0.13005 0.41885 0.0
H1109 H 0.3192 0.1117 0.40581 0.0
H1110 H 0.39626 0.17877 0.44131 0.0
H1111 H 0.40424 0.15975 0.43783 0.0
H1112 H 0.39061 0.15967 0.45958 0.0
H1113 H 0.30216 0.12688 0.4223 0.0
H1114 H 0.3191 0.15459 0.42286 0.0
H1115 H 0.31354 0.14063 0.44532 0.0
H1116 H 0.37401 0.08895 0.56964 0.0
H1117 H 0.38519 0.12486 0.55862 0.0
H1118 H 0.32053 0.10223 0.56599 0.0
H1119 H 0.39384 0.1604 0.52247 0.0
H1120 H 0.40684 0.15565 0.54251 0.0
H1121 H 0.39918 0.175 0.54512 0.0
H1122 H 0.30373 0.11914 0.55281 0.0
H1123 H 0.3154 0.1338 0.53104 0.0
H1124 H 0.32006 0.14696 0.55446 0.0
H1125 H 0.36529 0.27764 0.56896 0.0
H1126 H 0.38726 0.31559 0.57348 0.0
H1127 H 0.39984 0.30407 0.56008 0.0
H1128 H 0.40704 0.31215 0.58545 0.0
H1129 H 0.41163 0.25979 0.57095 0.0
H1130 H 0.34767 0.24231 0.57193 0.0
H1131 H 0.4081 0.22659 0.53192 0.0
H1132 H 0.40555 0.21293 0.55413 0.0
H1133 H 0.42359 0.24041 0.55345 0.0
H1134 H 0.3216 0.21163 0.55666 0.0
H1135 H 0.32765 0.19109 0.55393 0.0
H1136 H 0.33005 0.20683 0.53336 0.0
H1137 H 0.35951 0.18686 0.4251 0.0
H1138 H 0.34908 0.13451 0.47129 0.0
H1139 H 0.35026 0.13308 0.50649 0.0
H1140 H 0.36349 0.18121 0.56024 0.0
H1141 H 0.36948 0.23215 0.51409 0.0
H1142 H 0.36791 0.23343 0.47885 0.0
H1143 H 0.37717 0.09649 0.62223 0.0
H1144 H 0.36001 0.0639 0.5927 0.0
H1145 H 0.34166 0.06925 0.59821 0.0
C1146 C 0.88037 0.23188 0.36197 0.0
C1147 C 0.89236 0.24922 0.37739 0.0
C1148 C 0.87793 0.23004 0.40763 0.0
C1149 C 0.86197 0.23452 0.4105 0.0
C1150 C 0.84573 0.22268 0.42319 0.0
C1151 C 0.84525 0.20581 0.43295 0.0
C1152 C 0.86151 0.20151 0.43037 0.0
C1153 C 0.87785 0.21398 0.41802 0.0
C1154 C 0.82891 0.22803 0.42595 0.0
C1155 C 0.86135 0.18342 0.44022 0.0
C1156 C 0.72391 0.11863 0.35506 0.0
C1157 C 0.73159 0.10979 0.37109 0.0
C1158 C 0.7416 0.1252 0.40397 0.0
C1159 C 0.75665 0.1199 0.40862 0.0
C1160 C 0.77232 0.13161 0.42263 0.0
C1161 C 0.77307 0.14915 0.43191 0.0
C1162 C 0.7574 0.15401 0.42776 0.0
C1163 C 0.74158 0.14165 0.41409 0.0
C1164 C 0.78844 0.12563 0.42705 0.0
C1165 C 0.75784 0.17278 0.43706 0.0
C1166 C 0.73632 0.12657 0.55926 0.0
C1167 C 0.75093 0.12063 0.55467 0.0
C1168 C 0.76893 0.13402 0.54461 0.0
C1169 C 0.77233 0.1537 0.53907 0.0
C1170 C 0.75798 0.15998 0.54431 0.0
C1171 C 0.74022 0.14635 0.55452 0.0
C1172 C 0.78424 0.12711 0.53972 0.0
C1173 C 0.76127 0.18095 0.53884 0.0
C1174 C 0.91726 0.28637 0.55751 0.0
C1175 C 0.90501 0.2752 0.57567 0.0
C1176 C 0.87931 0.24063 0.56227 0.0
C1177 C 0.87488 0.22014 0.56007 0.0
C1178 C 0.85769 0.2055 0.54893 0.0
C1179 C 0.84439 0.21151 0.54001 0.0
C1180 C 0.8485 0.23214 0.54246 0.0
C1181 C 0.86606 0.24657 0.55335 0.0
C1182 C 0.85382 0.18366 0.54659 0.0
C1183 C 0.83436 0.23894 0.5335 0.0
C1184 C 0.82703 0.19185 0.4447 0.0
C1185 C 0.80927 0.17725 0.4344 0.0
C1186 C 0.79137 0.16359 0.44423 0.0
C1187 C 0.79113 0.16426 0.46504 0.0
C1188 C 0.77354 0.15048 0.47544 0.0
C1189 C 0.77335 0.15156 0.49592 0.0
C1190 C 0.79082 0.16634 0.50678 0.0
C1191 C 0.79077 0.16763 0.52759 0.0
C1192 C 0.80839 0.1825 0.53792 0.0
C1193 C 0.82624 0.19622 0.52804 0.0
C1194 C 0.82663 0.19519 0.50724 0.0
C1195 C 0.84435 0.20874 0.49682 0.0
C1196 C 0.84449 0.20779 0.47634 0.0
C1197 C 0.82702 0.19304 0.4655 0.0
C1198 C 0.809 0.17915 0.4757 0.0
C1199 C 0.80882 0.18022 0.49659 0.0
C1200 C 0.68483 0.08478 0.56267 0.0
C1201 C 0.70765 0.09225 0.56688 0.0
O1202 O 0.89363 0.2408 0.39508 0.0
O1203 O 0.89646 0.25395 0.57304 0.0
O1204 O 0.71836 0.11372 0.56827 0.0
O1205 O 0.7273 0.11509 0.3894 0.0
H1206 H 0.88431 0.25821 0.37948 0.0
H1207 H 0.86437 0.22153 0.36692 0.0
H1208 H 0.888 0.2225 0.35972 0.0
H1209 H 0.87948 0.2385 0.3477 0.0
H1210 H 0.86213 0.24732 0.4031 0.0
H1211 H 0.89034 0.21078 0.41586 0.0
H1212 H 0.81446 0.2159 0.41859 0.0
H1213 H 0.833 0.24324 0.41965 0.0
H1214 H 0.82575 0.22838 0.44186 0.0
H1215 H 0.87429 0.18119 0.43545 0.0
H1216 H 0.84654 0.16895 0.43684 0.0
H1217 H 0.86255 0.18598 0.45644 0.0
H1218 H 0.74861 0.11706 0.36924 0.0
H1219 H 0.72718 0.11456 0.34023 0.0
H1220 H 0.73199 0.13579 0.35669 0.0
H1221 H 0.70703 0.11253 0.35619 0.0
H1222 H 0.75626 0.10675 0.40112 0.0
H1223 H 0.72972 0.14543 0.41048 0.0
H1224 H 0.79127 0.1262 0.4432 0.0
H1225 H 0.8032 0.13689 0.42025 0.0
H1226 H 0.78383 0.10986 0.4212 0.0
H1227 H 0.74531 0.1752 0.4312 0.0
H1228 H 0.77293 0.18688 0.43443 0.0
H1229 H 0.75614 0.17092 0.45323 0.0
H1230 H 0.71305 0.08674 0.55412 0.0
H1231 H 0.74839 0.10562 0.55899 0.0
H1232 H 0.72899 0.15088 0.5584 0.0
H1233 H 0.78536 0.12619 0.52349 0.0
H1234 H 0.77983 0.11174 0.54585 0.0
H1235 H 0.79979 0.13869 0.5456 0.0
H1236 H 0.74847 0.18336 0.54371 0.0
H1237 H 0.76263 0.18261 0.52261 0.0
H1238 H 0.77595 0.19332 0.54563 0.0
H1239 H 0.8926 0.27902 0.57812 0.0
H1240 H 0.92415 0.30341 0.55953 0.0
H1241 H 0.90696 0.28138 0.54424 0.0
H1242 H 0.92981 0.28278 0.55492 0.0
H1243 H 0.88515 0.21568 0.56701 0.0
H1244 H 0.86919 0.26236 0.55478 0.0
H1245 H 0.85212 0.17911 0.53073 0.0
H1246 H 0.83914 0.17279 0.55378 0.0
H1247 H 0.86646 0.18187 0.55322 0.0
H1248 H 0.83847 0.25486 0.53846 0.0
H1249 H 0.81811 0.22806 0.53742 0.0
H1250 H 0.83526 0.23863 0.5172 0.0
H1251 H 0.80933 0.1766 0.41842 0.0
H1252 H 0.75969 0.13876 0.46784 0.0
H1253 H 0.75932 0.14065 0.50313 0.0
H1254 H 0.8082 0.18342 0.55388 0.0
H1255 H 0.85831 0.22031 0.50438 0.0
H1256 H 0.85848 0.21875 0.46911 0.0
H1257 H 0.67588 0.06758 0.56138 0.0
H1258 H 0.68314 0.09116 0.54855 0.0
H1259 H 0.67829 0.09001 0.5746 0.0
C1260 C 0.04131 0.46381 0.31254 0.0
C1261 C 0.02372 0.44753 0.29944 0.0
C1262 C 0.02135 0.4597 0.267 0.0
C1263 C 7e-05 0.45222 0.26526 0.0
C1264 C 0.99238 0.46154 0.25253 0.0
C1265 C 0.00633 0.47873 0.24145 0.0
C1266 C 0.02774 0.48571 0.24261 0.0
C1267 C 0.03493 0.47583 0.25517 0.0
C1268 C 0.96942 0.45336 0.25127 0.0
C1269 C 0.04308 0.5041 0.23117 0.0
C1270 C 0.96675 0.55687 0.32258 0.0
C1271 C 0.98143 0.56843 0.30592 0.0
C1272 C 0.97523 0.55231 0.27323 0.0
C1273 C 0.99563 0.5595 0.26752 0.0
C1274 C 9e-05 0.54872 0.25305 0.0
C1275 C 0.98381 0.53031 0.24432 0.0
C1276 C 0.96313 0.52356 0.24951 0.0
C1277 C 0.95911 0.53495 0.26367 0.0
C1278 C 0.02225 0.55668 0.24752 0.0
C1279 C 0.94535 0.50383 0.24081 0.0
C1280 C 0.95724 0.54855 0.1197 0.0
C1281 C 0.97827 0.55492 0.12214 0.0
C1282 C 0.98445 0.54202 0.13117 0.0
C1283 C 0.96929 0.52237 0.13779 0.0
C1284 C 0.94812 0.51556 0.13451 0.0
C1285 C 0.94238 0.52872 0.12533 0.0
C1286 C 0.00717 0.5495 0.13396 0.0
C1287 C 0.93157 0.49459 0.14115 0.0
C1288 C 0.97809 0.3879 0.12161 0.0
C1289 C 0.97479 0.39727 0.10295 0.0
C1290 C 0.98597 0.43317 0.11401 0.0
C1291 C 0.00235 0.45359 0.11383 0.0
C1292 C 0.00177 0.46944 0.12474 0.0
C1293 C 0.98416 0.46474 0.13591 0.0
C1294 C 0.96732 0.44418 0.13589 0.0
C1295 C 0.96845 0.42856 0.12509 0.0
C1296 C 0.02004 0.49117 0.12449 0.0
C1297 C 0.94813 0.43869 0.14738 0.0
C1298 C 0.99877 0.49063 0.23023 0.0
C1299 C 0.9952 0.50468 0.24088 0.0
C1300 C 0.98852 0.5169 0.23155 0.0
C1301 C 0.98571 0.51547 0.21085 0.0
C1302 C 0.97985 0.52815 0.20087 0.0
C1303 C 0.97665 0.52627 0.18053 0.0
C1304 C 0.97914 0.51157 0.16941 0.0
C1305 C 0.97556 0.50927 0.14878 0.0
C1306 C 0.9776 0.49412 0.13828 0.0
C1307 C 0.98339 0.48124 0.1478 0.0
C1308 C 0.98764 0.48372 0.16832 0.0
C1309 C 0.99409 0.47145 0.17828 0.0
C1310 C 0.99783 0.47372 0.19854 0.0
C1311 C 0.99522 0.48832 0.20962 0.0
C1312 C 0.98879 0.5009 0.19989 0.0
C1313 C 0.98525 0.49878 0.17918 0.0
C1314 C 0.94575 0.58856 0.12342 0.0
C1315 C 0.96062 0.58246 0.11423 0.0
O1316 O 0.02921 0.4516 0.27988 0.0
O1317 O 0.98787 0.41859 0.10337 0.0
O1318 O 0.95072 0.56106 0.11199 0.0
O1319 O 0.97066 0.56162 0.28809 0.0
H1320 H 0.00974 0.44869 0.30254 0.0
H1321 H 0.04419 0.47951 0.30894 0.0
H1322 H 0.05574 0.46331 0.31017 0.0
H1323 H 0.03721 0.4611 0.32832 0.0
H1324 H 0.98949 0.43915 0.27387 0.0
H1325 H 0.05131 0.48121 0.25644 0.0
H1326 H 0.9659 0.46468 0.25851 0.0
H1327 H 0.96049 0.43824 0.25858 0.0
H1328 H 0.9642 0.45151 0.23563 0.0
H1329 H 0.05927 0.50801 0.23421 0.0
H1330 H 0.04158 0.51785 0.23494 0.0
H1331 H 0.03974 0.50078 0.21514 0.0
H1332 H 0.9941 0.56468 0.30666 0.0
H1333 H 0.97504 0.56186 0.33705 0.0
H1334 H 0.96054 0.53993 0.32055 0.0
H1335 H 0.95358 0.55983 0.32265 0.0
H1336 H 0.00805 0.57341 0.2745 0.0
H1337 H 0.9434 0.52976 0.26805 0.0
H1338 H 0.0277 0.54663 0.25397 0.0
H1339 H 0.03258 0.57284 0.25299 0.0
H1340 H 0.02353 0.55607 0.23126 0.0
H1341 H 0.93039 0.49994 0.24753 0.0
H1342 H 0.94817 0.49068 0.24292 0.0
H1343 H 0.94408 0.50547 0.22473 0.0
H1344 H 0.97393 0.58824 0.12481 0.0
H1345 H 0.98988 0.56991 0.11699 0.0
H1346 H 0.9262 0.52381 0.12305 0.0
H1347 H 0.01113 0.55125 0.14994 0.0
H1348 H 0.01704 0.56461 0.12691 0.0
H1349 H 0.01079 0.53786 0.12766 0.0
H1350 H 0.91577 0.4916 0.13754 0.0
H1351 H 0.933 0.49349 0.15732 0.0
H1352 H 0.93365 0.48226 0.134 0.0
H1353 H 0.95845 0.39359 0.10189 0.0
H1354 H 0.96775 0.3708 0.12126 0.0
H1355 H 0.97451 0.39429 0.13491 0.0
H1356 H 0.99439 0.39148 0.12288 0.0
H1357 H 0.01579 0.45702 0.10523 0.0
H1358 H 0.95559 0.41289 0.12544 0.0
H1359 H 0.0255 0.49693 0.1398 0.0
H1360 H 0.01528 0.50167 0.11779 0.0
H1361 H 0.03307 0.49203 0.11602 0.0
H1362 H 0.93556 0.42254 0.14421 0.0
H1363 H 0.9424 0.44946 0.1439 0.0
H1364 H 0.95191 0.44038 0.1634 0.0
H1365 H 0.99752 0.50601 0.25676 0.0
H1366 H 0.97765 0.53966 0.2087 0.0
H1367 H 0.97205 0.53638 0.17366 0.0
H1368 H 0.97444 0.49218 0.12253 0.0
H1369 H 0.99632 0.45994 0.1705 0.0
H1370 H 0.00266 0.4638 0.20545 0.0
H1371 H 0.95326 0.6057 0.12503 0.0
H1372 H 0.9414 0.58185 0.13828 0.0
H1373 H 0.93143 0.58267 0.11427 0.0
C1374 C 0.45137 0.4008 0.32218 0.0
C1375 C 0.44008 0.40658 0.30689 0.0
C1376 C 0.45341 0.41499 0.27383 0.0
C1377 C 0.44834 0.43019 0.26922 0.0
C1378 C 0.45959 0.44519 0.25524 0.0
C1379 C 0.47644 0.44511 0.24596 0.0
C1380 C 0.48099 0.42922 0.25004 0.0
C1381 C 0.46908 0.41407 0.26367 0.0
C1382 C 0.45391 0.46152 0.25089 0.0
C1383 C 0.499 0.42874 0.24071 0.0
C1384 C 0.61052 0.59841 0.28821 0.0
C1385 C 0.59948 0.57875 0.27641 0.0
C1386 C 0.5646 0.5508 0.26853 0.0
C1387 C 0.57008 0.53733 0.25917 0.0
C1388 C 0.55546 0.51998 0.24814 0.0
C1389 C 0.5351 0.51645 0.24579 0.0
C1390 C 0.52953 0.52997 0.25526 0.0
C1391 C 0.54431 0.54678 0.26679 0.0
C1392 C 0.5618 0.50538 0.23913 0.0
C1393 C 0.50799 0.52669 0.25321 0.0
C1394 C 0.57016 0.54332 0.11811 0.0
C1395 C 0.57376 0.52828 0.12655 0.0
C1396 C 0.55833 0.51199 0.13718 0.0
C1397 C 0.53892 0.5107 0.13938 0.0
C1398 C 0.53519 0.52568 0.13077 0.0
C1399 C 0.5509 0.54181 0.12024 0.0
C1400 C 0.56277 0.49621 0.1462 0.0
C1401 C 0.51468 0.52474 0.13286 0.0
C1402 C 0.41276 0.35029 0.11213 0.0
C1403 C 0.4204 0.37303 0.10762 0.0
C1404 C 0.45409 0.40218 0.1176 0.0
C1405 C 0.47356 0.4064 0.12425 0.0
C1406 C 0.4866 0.42464 0.13508 0.0
C1407 C 0.48007 0.43916 0.13901 0.0
C1408 C 0.46069 0.43537 0.13166 0.0
C1409 C 0.44788 0.41691 0.121 0.0
C1410 C 0.50729 0.42833 0.14248 0.0
C1411 C 0.45354 0.45082 0.13517 0.0
C1412 C 0.49065 0.4629 0.23386 0.0
C1413 C 0.50506 0.48101 0.24395 0.0
C1414 C 0.51956 0.4983 0.23389 0.0
C1415 C 0.51978 0.49763 0.21308 0.0
C1416 C 0.53402 0.51482 0.20245 0.0
C1417 C 0.53489 0.51364 0.18205 0.0
C1418 C 0.52135 0.49531 0.17147 0.0
C1419 C 0.5226 0.49371 0.15081 0.0
C1420 C 0.50873 0.47539 0.14069 0.0
C1421 C 0.49363 0.45838 0.15068 0.0
C1422 C 0.49223 0.45958 0.17138 0.0
C1423 C 0.47731 0.44272 0.18193 0.0
C1424 C 0.47648 0.44388 0.20237 0.0
C1425 C 0.49069 0.46185 0.21304 0.0
C1426 C 0.5055 0.47922 0.20265 0.0
C1427 C 0.50626 0.47808 0.18181 0.0
C1428 C 0.61842 0.57514 0.12306 0.0
C1429 C 0.60495 0.56479 0.10457 0.0
O1430 O 0.4437 0.4013 0.28827 0.0
O1431 O 0.44179 0.38381 0.10799 0.0
O1432 O 0.58468 0.55958 0.10796 0.0
O1433 O 0.57838 0.56766 0.27942 0.0
H1434 H 0.44649 0.42366 0.30843 0.0
H1435 H 0.4682 0.40929 0.31936 0.0
H1436 H 0.44575 0.38389 0.3214 0.0
H1437 H 0.44894 0.40511 0.33726 0.0
H1438 H 0.43574 0.43043 0.27673 0.0
H1439 H 0.47262 0.40205 0.26722 0.0
H1440 H 0.46539 0.47639 0.25817 0.0
H1441 H 0.43836 0.45726 0.25637 0.0
H1442 H 0.45424 0.46407 0.23479 0.0
H1443 H 0.50146 0.41633 0.24669 0.0
H1444 H 0.51336 0.44389 0.24315 0.0
H1445 H 0.49623 0.42607 0.22457 0.0
H1446 H 0.60704 0.56912 0.27685 0.0
H1447 H 0.62135 0.59633 0.29831 0.0
H1448 H 0.59982 0.59731 0.30031 0.0
H1449 H 0.62104 0.62144 0.26691 0.0
H1450 H 0.58561 0.53996 0.26072 0.0
H1451 H 0.54019 0.55718 0.27418 0.0
H1452 H 0.54987 0.489 0.24156 0.0
H1453 H 0.57679 0.5081 0.24532 0.0
H1454 H 0.56341 0.50763 0.223 0.0
H1455 H 0.50701 0.54023 0.25893 0.0
H1456 H 0.49721 0.51288 0.26159 0.0
H1457 H 0.50276 0.52373 0.23753 0.0
H1458 H 0.60562 0.55063 0.10043 0.0
H1459 H 0.58854 0.52912 0.12502 0.0
H1460 H 0.54824 0.55346 0.11367 0.0
H1461 H 0.56123 0.49644 0.16243 0.0
H1462 H 0.57852 0.49916 0.14288 0.0
H1463 H 0.55131 0.48044 0.1406 0.0
H1464 H 0.51426 0.53768 0.12538 0.0
H1465 H 0.51143 0.52531 0.14871 0.0
H1466 H 0.50217 0.50982 0.12651 0.0
H1467 H 0.41435 0.37883 0.11958 0.0
H1468 H 0.39561 0.34125 0.11164 0.0
H1469 H 0.41815 0.34919 0.12712 0.0
H1470 H 0.4188 0.34331 0.1014 0.0
H1471 H 0.47831 0.39507 0.1213 0.0
H1472 H 0.43313 0.41411 0.11524 0.0
H1473 H 0.50859 0.43096 0.1587 0.0
H1474 H 0.5198 0.44251 0.13581 0.0
H1475 H 0.50972 0.41511 0.13887 0.0
H1476 H 0.43832 0.44589 0.12796 0.0
H1477 H 0.46509 0.46614 0.12948 0.0
H1478 H 0.45231 0.45286 0.15124 0.0
H1479 H 0.50523 0.48153 0.25994 0.0
H1480 H 0.54485 0.52932 0.20981 0.0
H1481 H 0.54639 0.52725 0.17468 0.0
H1482 H 0.50991 0.47423 0.12486 0.0
H1483 H 0.46618 0.42839 0.17451 0.0
H1484 H 0.46472 0.43043 0.20975 0.0
H1485 H 0.6347 0.5795 0.12027 0.0
H1486 H 0.61297 0.56439 0.13556 0.0
H1487 H 0.61785 0.58929 0.12741 0.0
C1488 C 0.43979 0.00445 0.31053 0.0
C1489 C 0.42583 0.00547 0.29441 0.0
C1490 C 0.43692 0.99341 0.26567 0.0
C1491 C 0.45423 0.0126 0.26124 0.0
C1492 C 0.46918 0.0137 0.24828 0.0
C1493 C 0.46695 0.99526 0.23968 0.0
C1494 C 0.44918 0.97602 0.24342 0.0
C1495 C 0.43426 0.97539 0.25624 0.0
C1496 C 0.48777 0.03455 0.24428 0.0
C1497 C 0.44635 0.95612 0.23438 0.0
C1498 C 0.5897 0.97153 0.29625 0.0
C1499 C 0.57127 0.96805 0.28459 0.0
C1500 C 0.55782 0.98837 0.269 0.0
C1501 C 0.54319 0.97195 0.25692 0.0
C1502 C 0.53039 0.97496 0.24382 0.0
C1503 C 0.53223 0.99476 0.24278 0.0
C1504 C 0.54713 0.01139 0.25468 0.0
C1505 C 0.55975 0.00794 0.26767 0.0
C1506 C 0.51456 0.95689 0.23136 0.0
C1507 C 0.54944 0.03267 0.25393 0.0
C1508 C 0.58915 0.03721 0.1243 0.0
C1509 C 0.57356 0.01625 0.12352 0.0
C1510 C 0.55411 0.00998 0.13151 0.0
C1511 C 0.55019 0.02498 0.14032 0.0
C1512 C 0.56558 0.04618 0.14034 0.0
C1513 C 0.58483 0.05202 0.13216 0.0
C1514 C 0.53782 0.98732 0.13078 0.0
C1515 C 0.5618 0.06261 0.14935 0.0
C1516 C 0.40835 0.01699 0.1216 0.0
C1517 C 0.42144 0.02295 0.10305 0.0
C1518 C 0.44701 0.01267 0.11201 0.0
C1519 C 0.45054 0.99596 0.1113 0.0
C1520 C 0.4664 0.99612 0.12263 0.0
C1521 C 0.47937 0.01373 0.1346 0.0
C1522 C 0.47642 0.03106 0.13484 0.0
C1523 C 0.46009 0.03026 0.12376 0.0
C1524 C 0.46908 0.97734 0.12207 0.0
C1525 C 0.49037 0.05035 0.147 0.0
C1526 C 0.48427 0.99611 0.22851 0.0
C1527 C 0.49941 0.99456 0.23925 0.0
C1528 C 0.51742 0.99753 0.2304 0.0
C1529 C 0.52076 0.00267 0.21031 0.0
C1530 C 0.53922 0.00691 0.20121 0.0
C1531 C 0.54244 0.01226 0.18149 0.0
C1532 C 0.52711 0.0131 0.17001 0.0
C1533 C 0.53021 0.01853 0.14996 0.0
C1534 C 0.51442 0.0186 0.13885 0.0
C1535 C 0.4956 0.01373 0.14732 0.0
C1536 C 0.49245 0.00894 0.16752 0.0
C1537 C 0.47394 0.00461 0.17667 0.0
C1538 C 0.47127 0.00055 0.19668 0.0
C1539 C 0.48672 3e-05 0.20815 0.0
C1540 C 0.50521 0.00366 0.19909 0.0
C1541 C 0.50824 0.00853 0.17885 0.0
C1542 C 0.63943 0.04534 0.12891 0.0
C1543 C 0.61871 0.03254 0.11793 0.0
O1544 O 0.42273 0.99157 0.27912 0.0
O1545 O 0.43087 0.01105 0.10116 0.0
O1546 O 0.60845 0.04371 0.11761 0.0
O1547 O 0.57028 0.98597 0.2821 0.0
H1548 H 0.43339 0.02152 0.28892 0.0
H1549 H 0.45538 0.00952 0.30469 0.0
H1550 H 0.43328 0.98837 0.31581 0.0
H1551 H 0.44152 0.01488 0.3232 0.0
H1552 H 0.45642 0.02684 0.26788 0.0
H1553 H 0.42078 0.96068 0.25954 0.0
H1554 H 0.50195 0.03502 0.25004 0.0
H1555 H 0.48668 0.04756 0.25122 0.0
H1556 H 0.48949 0.03692 0.22816 0.0
H1557 H 0.431 0.94261 0.23757 0.0
H1558 H 0.45853 0.95316 0.24023 0.0
H1559 H 0.44812 0.95755 0.21817 0.0
H1560 H 0.55631 0.95461 0.28907 0.0
H1561 H 0.58329 0.96226 0.30994 0.0
H1562 H 0.59595 0.98701 0.30414 0.0
H1563 H 0.60696 0.96524 0.27586 0.0
H1564 H 0.5415 0.95669 0.2578 0.0
H1565 H 0.57111 0.02052 0.27699 0.0
H1566 H 0.51684 0.96086 0.21555 0.0
H1567 H 0.49882 0.95365 0.23513 0.0
H1568 H 0.51544 0.9426 0.23348 0.0
H1569 H 0.56279 0.04432 0.263 0.0
H1570 H 0.53518 0.032 0.25939 0.0
H1571 H 0.55143 0.03788 0.23847 0.0
H1572 H 0.61004 0.01816 0.12649 0.0
H1573 H 0.5765 0.00479 0.11664 0.0
H1574 H 0.59685 0.06818 0.13237 0.0
H1575 H 0.53388 0.98159 0.14601 0.0
H1576 H 0.54296 0.97767 0.12268 0.0
H1577 H 0.52352 0.98529 0.12356 0.0
H1578 H 0.57536 0.07844 0.14817 0.0
H1579 H 0.55807 0.05941 0.16515 0.0
H1580 H 0.5483 0.06218 0.14191 0.0
H1581 H 0.43332 0.03967 0.10399 0.0
H1582 H 0.40057 0.02632 0.12309 0.0
H1583 H 0.41826 0.02002 0.13493 0.0
H1584 H 0.39645 0.00027 0.12093 0.0
H1585 H 0.44046 0.98251 0.10213 0.0
H1586 H 0.45778 0.04346 0.12439 0.0
H1587 H 0.46848 0.97172 0.13723 0.0
H1588 H 0.48447 0.98166 0.11615 0.0
H1589 H 0.45703 0.96447 0.11277 0.0
H1590 H 0.48762 0.06335 0.14378 0.0
H1591 H 0.50681 0.05539 0.14419 0.0
H1592 H 0.48771 0.04689 0.16288 0.0
H1593 H 0.49727 0.99126 0.25484 0.0
H1594 H 0.55149 0.0064 0.20932 0.0
H1595 H 0.55705 0.0156 0.17531 0.0
H1596 H 0.51685 0.02263 0.12344 0.0
H1597 H 0.46141 0.00457 0.16853 0.0
H1598 H 0.45685 0.99762 0.20304 0.0
H1599 H 0.64814 0.03687 0.12895 0.0
H1600 H 0.63671 0.04813 0.14443 0.0
H1601 H 0.64895 0.06062 0.12202 0.0
C1602 C 0.558 0.98749 0.6941 0.0
C1603 C 0.57412 0.00159 0.70963 0.0
C1604 C 0.55859 0.99515 0.74191 0.0
C1605 C 0.5636 0.01519 0.74814 0.0
C1606 C 0.55154 0.01818 0.76208 0.0
C1607 C 0.53419 0.00074 0.76987 0.0
C1608 C 0.52975 0.9805 0.7643 0.0
C1609 C 0.54227 0.978 0.75056 0.0
C1610 C 0.55698 0.03994 0.76807 0.0
C1611 C 0.51131 0.96155 0.77223 0.0
C1612 C 0.39551 0.99829 0.717 0.0
C1613 C 0.40801 0.99244 0.72967 0.0
C1614 C 0.44243 0.00777 0.74494 0.0
C1615 C 0.43839 0.99005 0.75541 0.0
C1616 C 0.45351 0.99014 0.76786 0.0
C1617 C 0.47287 0.00854 0.77038 0.0
C1618 C 0.47677 0.02656 0.76027 0.0
C1619 C 0.46153 0.02586 0.74752 0.0
C1620 C 0.4489 0.97038 0.77791 0.0
C1621 C 0.49715 0.04647 0.76267 0.0
C1622 C 0.43582 -3e-05 0.89676 0.0
C1623 C 0.43269 0.98269 0.88531 0.0
C1624 C 0.44908 0.9828 0.87534 0.0
C1625 C 0.46892 0.00072 0.87644 0.0
C1626 C 0.47218 0.01809 0.888 0.0
C1627 C 0.45558 0.01741 0.89811 0.0
C1628 C 0.44509 0.96379 0.86344 0.0
C1629 C 0.49312 0.03744 0.88946 0.0
C1630 C 0.59336 0.96584 0.89139 0.0
C1631 C 0.58708 0.97952 0.90302 0.0
C1632 C 0.55367 0.97643 0.89514 0.0
C1633 C 0.53444 0.96167 0.88727 0.0
C1634 C 0.52169 0.96766 0.87755 0.0
C1635 C 0.52829 0.98899 0.87597 0.0
C1636 C 0.54734 0.00401 0.8847 0.0
C1637 C 0.55983 0.99757 0.89429 0.0
C1638 C 0.50131 0.95121 0.86869 0.0
C1639 C 0.55454 0.02683 0.88368 0.0
C1640 C 0.51946 0.00364 0.78208 0.0
C1641 C 0.50458 0.00632 0.77212 0.0
C1642 C 0.4895 0.0083 0.78228 0.0
C1643 C 0.48945 0.00804 0.80309 0.0
C1644 C 0.47494 0.0107 0.81384 0.0
C1645 C 0.47415 0.00904 0.83423 0.0
C1646 C 0.48775 0.00453 0.84461 0.0
C1647 C 0.4861 0.00131 0.86513 0.0
C1648 C 0.49991 0.99693 0.87501 0.0
C1649 C 0.51534 0.99548 0.86489 0.0
C1650 C 0.51723 0.9986 0.84434 0.0
C1651 C 0.53255 0.99721 0.83367 0.0
C1652 C 0.53365 0.99935 0.81331 0.0
C1653 C 0.51929 0.00266 0.80284 0.0
C1654 C 0.50411 0.00474 0.81337 0.0
C1655 C 0.50318 0.00285 0.83415 0.0
C1656 C 0.38911 0.98756 0.88746 0.0
C1657 C 0.39956 0.98585 0.9063 0.0
O1658 O 0.56925 0.9919 0.72763 0.0
O1659 O 0.56573 0.96969 0.90357 0.0
O1660 O 0.4204 0.00063 0.90664 0.0
O1661 O 0.42845 0.00798 0.73212 0.0
H1662 H 0.5738 0.01636 0.71037 0.0
H1663 H 0.54249 0.98457 0.69837 0.0
H1664 H 0.55753 0.97237 0.69277 0.0
H1665 H 0.56163 0.99498 0.67954 0.0
H1666 H 0.57684 0.02849 0.74207 0.0
H1667 H 0.53882 0.96261 0.74586 0.0
H1668 H 0.54511 0.04324 0.762 0.0
H1669 H 0.57231 0.05173 0.76263 0.0
H1670 H 0.55699 0.04147 0.78437 0.0
H1671 H 0.50981 0.94691 0.76615 0.0
H1672 H 0.49696 0.96186 0.76858 0.0
H1673 H 0.51264 0.96158 0.78852 0.0
H1674 H 0.40618 0.97695 0.72602 0.0
H1675 H 0.39066 0.98735 0.70384 0.0
H1676 H 0.40678 0.01226 0.7086 0.0
H1677 H 0.37415 0.99889 0.73647 0.0
H1678 H 0.42364 0.97594 0.75366 0.0
H1679 H 0.46449 0.03948 0.73946 0.0
H1680 H 0.4475 0.97217 0.79398 0.0
H1681 H 0.4617 0.96709 0.77576 0.0
H1682 H 0.43431 0.95681 0.7723 0.0
H1683 H 0.4966 0.05984 0.75632 0.0
H1684 H 0.50931 0.04472 0.7551 0.0
H1685 H 0.50169 0.04991 0.7785 0.0
H1686 H 0.39761 0.97006 0.90692 0.0
H1687 H 0.41756 0.96904 0.88397 0.0
H1688 H 0.45789 0.03066 0.90698 0.0
H1689 H 0.44577 0.9671 0.84751 0.0
H1690 H 0.42971 0.9502 0.86638 0.0
H1691 H 0.45715 0.95968 0.86676 0.0
H1692 H 0.49285 0.05005 0.89817 0.0
H1693 H 0.49873 0.04309 0.87448 0.0
H1694 H 0.50435 0.0338 0.89652 0.0
H1695 H 0.59354 0.99426 0.8949 0.0
H1696 H 0.61046 0.97319 0.89122 0.0
H1697 H 0.58756 0.96385 0.87593 0.0
H1698 H 0.58677 0.95025 0.89786 0.0
H1699 H 0.52968 0.94539 0.88834 0.0
H1700 H 0.57427 0.00906 0.90119 0.0
H1701 H 0.50101 0.9534 0.85258 0.0
H1702 H 0.48854 0.95273 0.87516 0.0
H1703 H 0.49841 0.93528 0.87121 0.0
H1704 H 0.56951 0.03658 0.89163 0.0
H1705 H 0.54277 0.02999 0.89013 0.0
H1706 H 0.55628 0.03145 0.86804 0.0
H1707 H 0.50437 0.00628 0.75612 0.0
H1708 H 0.4639 0.01385 0.80655 0.0
H1709 H 0.4625 0.011 0.84172 0.0
H1710 H 0.49825 0.99401 0.89067 0.0
H1711 H 0.54376 0.99429 0.84092 0.0
H1712 H 0.54565 0.998 0.80582 0.0
H1713 H 0.37236 0.97589 0.88728 0.0
H1714 H 0.39602 0.98465 0.87427 0.0
H1715 H 0.39101 0.0033 0.88648 0.0
C1716 C 0.02517 0.58348 0.6952 0.0
C1717 C 0.01032 0.58178 0.71135 0.0
C1718 C 0.01499 0.57155 0.74395 0.0
C1719 C 0.99434 0.55882 0.74914 0.0
C1720 C 0.98901 0.54339 0.76314 0.0
C1721 C 0.00466 0.54056 0.77188 0.0
C1722 C 0.02561 0.55406 0.76726 0.0
C1723 C 0.0305 0.56969 0.75361 0.0
C1724 C 0.9666 0.52968 0.7681 0.0
C1725 C 0.04275 0.55139 0.77599 0.0
C1726 C 0.94765 0.41402 0.69724 0.0
C1727 C 0.96491 0.41761 0.71181 0.0
C1728 C 0.96579 0.43235 0.74444 0.0
C1729 C 0.9871 0.44603 0.74667 0.0
C1730 C 0.99474 0.46288 0.76011 0.0
C1731 C 0.98074 0.46607 0.77146 0.0
C1732 C 0.95932 0.45171 0.76987 0.0
C1733 C 0.95215 0.43482 0.75654 0.0
C1734 C 0.01772 0.47757 0.76184 0.0
C1735 C 0.94395 0.45465 0.78169 0.0
C1736 C 0.00689 0.44114 0.8957 0.0
C1737 C 0.02383 0.455 0.88459 0.0
C1738 C 0.02361 0.47134 0.87483 0.0
C1739 C 0.00602 0.47372 0.87601 0.0
C1740 C 0.98895 0.4598 0.88713 0.0
C1741 C 0.98965 0.4437 0.89687 0.0
C1742 C 0.04215 0.48601 0.86316 0.0
C1743 C 0.96993 0.46185 0.88858 0.0
C1744 C 0.04723 0.63533 0.89855 0.0
C1745 C 0.03165 0.6146 0.90733 0.0
C1746 C 0.03341 0.58348 0.89932 0.0
C1747 C 0.0478 0.57829 0.89239 0.0
C1748 C 0.04144 0.55972 0.88169 0.0
C1749 C 0.02012 0.54587 0.87825 0.0
C1750 C 0.00543 0.55059 0.88606 0.0
C1751 C 0.01223 0.56936 0.89655 0.0
C1752 C 0.05751 0.55504 0.87382 0.0
C1753 C 0.98257 0.53584 0.88317 0.0
C1754 C 0.99904 0.52208 0.78388 0.0
C1755 C 0.992 0.50321 0.77374 0.0
C1756 C 0.98831 0.48539 0.78353 0.0
C1757 C 0.99207 0.48639 0.80405 0.0
C1758 C 0.98958 0.46904 0.81422 0.0
C1759 C 0.99384 0.47036 0.83436 0.0
C1760 C 0.00057 0.48904 0.8451 0.0
C1761 C 0.00554 0.49072 0.86543 0.0
C1762 C 0.01149 0.50926 0.87583 0.0
C1763 C 0.01321 0.52654 0.86635 0.0
C1764 C 0.00909 0.52544 0.84584 0.0
C1765 C 0.01146 0.54276 0.83565 0.0
C1766 C 0.00798 0.54167 0.81537 0.0
C1767 C 0.00189 0.52319 0.80456 0.0
C1768 C 0.99874 0.50535 0.81462 0.0
C1769 C 0.00266 0.50657 0.83523 0.0
C1770 C 0.0205 0.40698 0.88801 0.0
C1771 C 0.02149 0.41956 0.90649 0.0
O1772 O 0.02039 0.58555 0.72949 0.0
O1773 O 0.04048 0.60215 0.90866 0.0
O1774 O 0.00634 0.42507 0.90541 0.0
O1775 O 0.95788 0.41662 0.73082 0.0
H1776 H 0.99686 0.56571 0.7103 0.0
H1777 H 0.03017 0.57191 0.69754 0.0
H1778 H 0.03908 0.59921 0.69545 0.0
H1779 H 0.01742 0.58033 0.68048 0.0
H1780 H 0.98241 0.56083 0.74212 0.0
H1781 H 0.04642 0.57987 0.74964 0.0
H1782 H 0.96073 0.51417 0.76098 0.0
H1783 H 0.95689 0.53614 0.76289 0.0
H1784 H 0.96489 0.52755 0.78426 0.0
H1785 H 0.05796 0.562 0.7695 0.0
H1786 H 0.03931 0.53517 0.77363 0.0
H1787 H 0.04395 0.55454 0.79212 0.0
H1788 H 0.97823 0.43327 0.70895 0.0
H1789 H 0.95293 0.41504 0.68185 0.0
H1790 H 0.94322 0.42605 0.69967 0.0
H1791 H 0.93382 0.39852 0.69926 0.0
H1792 H 0.99775 0.4436 0.73788 0.0
H1793 H 0.93575 0.42392 0.75492 0.0
H1794 H 0.02148 0.49265 0.75546 0.0
H1795 H 0.02665 0.4715 0.75401 0.0
H1796 H 0.02273 0.48051 0.77758 0.0
H1797 H 0.92777 0.44223 0.77854 0.0
H1798 H 0.94537 0.46986 0.77836 0.0
H1799 H 0.94734 0.4548 0.79766 0.0
H1800 H 0.037 0.4337 0.9079 0.0
H1801 H 0.03726 0.45322 0.88335 0.0
H1802 H 0.97664 0.43291 0.90543 0.0
H1803 H 0.03778 0.4843 0.84728 0.0
H1804 H 0.05524 0.48307 0.86497 0.0
H1805 H 0.04741 0.50229 0.86779 0.0
H1806 H 0.9576 0.44924 0.89716 0.0
H1807 H 0.96375 0.46163 0.87358 0.0
H1808 H 0.97407 0.47697 0.89575 0.0
H1809 H 0.01815 0.60767 0.8969 0.0
H1810 H 0.04063 0.64576 0.89777 0.0
H1811 H 0.05099 0.63267 0.88338 0.0
H1812 H 0.06179 0.6431 0.90748 0.0
H1813 H 0.06409 0.58914 0.89492 0.0
H1814 H 0.001 0.57291 0.90266 0.0
H1815 H 0.05538 0.55224 0.85763 0.0
H1816 H 0.05556 0.54068 0.88049 0.0
H1817 H 0.0735 0.56783 0.87704 0.0
H1818 H 0.97311 0.54122 0.8911 0.0
H1819 H 0.97855 0.52025 0.88843 0.0
H1820 H 0.97847 0.53419 0.86723 0.0
H1821 H 0.98971 0.50246 0.75786 0.0
H1822 H 0.98454 0.45432 0.80667 0.0
H1823 H 0.9918 0.45655 0.84141 0.0
H1824 H 0.01525 0.51039 0.89145 0.0
H1825 H 0.01626 0.55743 0.8432 0.0
H1826 H 0.01017 0.5555 0.80823 0.0
H1827 H 0.03255 0.40244 0.8889 0.0
H1828 H 0.02324 0.41633 0.87466 0.0
H1829 H 0.00509 0.39277 0.88639 0.0
C1830 C 0.54792 0.58949 0.70886 0.0
C1831 C 0.564 0.59768 0.72579 0.0
C1832 C 0.54707 0.57001 0.74986 0.0
C1833 C 0.53191 0.5749 0.75551 0.0
C1834 C 0.51593 0.56194 0.76796 0.0
C1835 C 0.51511 0.54378 0.77496 0.0
C1836 C 0.53069 0.53918 0.76988 0.0
C1837 C 0.54653 0.55243 0.75744 0.0
C1838 C 0.49958 0.56733 0.77322 0.0
C1839 C 0.53027 0.51995 0.77717 0.0
C1840 C 0.40077 0.45049 0.69213 0.0
C1841 C 0.40675 0.4424 0.71011 0.0
C1842 C 0.4153 0.4601 0.74225 0.0
C1843 C 0.43019 0.45514 0.74855 0.0
C1844 C 0.44478 0.46715 0.7633 0.0
C1845 C 0.44451 0.4845 0.77177 0.0
C1846 C 0.42884 0.48886 0.7661 0.0
C1847 C 0.41419 0.47633 0.7516 0.0
C1848 C 0.46095 0.46174 0.76934 0.0
C1849 C 0.42815 0.50733 0.77466 0.0
C1850 C 0.40198 0.461 0.89702 0.0
C1851 C 0.41724 0.4556 0.89371 0.0
C1852 C 0.43571 0.46935 0.88452 0.0
C1853 C 0.43898 0.48887 0.8786 0.0
C1854 C 0.424 0.49465 0.88264 0.0
C1855 C 0.40574 0.48066 0.89198 0.0
C1856 C 0.45164 0.46296 0.88088 0.0
C1857 C 0.42712 0.51545 0.87675 0.0
C1858 C 0.57966 0.6248 0.90099 0.0
C1859 C 0.56889 0.61195 0.91901 0.0
C1860 C 0.5448 0.57742 0.9043 0.0
C1861 C 0.54172 0.55749 0.90114 0.0
C1862 C 0.52482 0.54255 0.8899 0.0
C1863 C 0.51057 0.5477 0.88171 0.0
C1864 C 0.51336 0.56775 0.88508 0.0
C1865 C 0.5305 0.58246 0.89628 0.0
C1866 C 0.52233 0.52134 0.88655 0.0
C1867 C 0.49831 0.57365 0.87665 0.0
C1868 C 0.497 0.52877 0.78618 0.0
C1869 C 0.47995 0.51376 0.77537 0.0
C1870 C 0.46197 0.49942 0.78464 0.0
C1871 C 0.46086 0.49995 0.8054 0.0
C1872 C 0.44302 0.48575 0.81524 0.0
C1873 C 0.44196 0.48674 0.83566 0.0
C1874 C 0.45879 0.50183 0.84702 0.0
C1875 C 0.45784 0.50307 0.86777 0.0
C1876 C 0.47488 0.51817 0.8786 0.0
C1877 C 0.49299 0.53223 0.86927 0.0
C1878 C 0.49423 0.53135 0.84854 0.0
C1879 C 0.51221 0.54534 0.83869 0.0
C1880 C 0.51318 0.54452 0.81827 0.0
C1881 C 0.49627 0.5296 0.80694 0.0
C1882 C 0.47807 0.51518 0.81657 0.0
C1883 C 0.47704 0.5161 0.8374 0.0
C1884 C 0.35089 0.41858 0.8964 0.0
C1885 C 0.37321 0.42627 0.90307 0.0
O1886 O 0.56218 0.58146 0.73696 0.0
O1887 O 0.56181 0.59113 0.91502 0.0
O1888 O 0.38352 0.4477 0.90499 0.0
O1889 O 0.40203 0.4498 0.727 0.0
H1890 H 0.56167 0.60863 0.73528 0.0
H1891 H 0.53204 0.58177 0.71466 0.0
H1892 H 0.54957 0.57807 0.69946 0.0
H1893 H 0.54984 0.60249 0.69962 0.0
H1894 H 0.53215 0.58856 0.75006 0.0
H1895 H 0.55834 0.54885 0.75316 0.0
H1896 H 0.48442 0.55528 0.76694 0.0
H1897 H 0.50307 0.58264 0.76758 0.0
H1898 H 0.4981 0.56752 0.78946 0.0
H1899 H 0.54408 0.5191 0.77271 0.0
H1900 H 0.51624 0.50599 0.77121 0.0
H1901 H 0.5294 0.51959 0.79348 0.0
H1902 H 0.4237 0.44848 0.70936 0.0
H1903 H 0.40464 0.44505 0.67833 0.0
H1904 H 0.40944 0.46771 0.69255 0.0
H1905 H 0.38397 0.44509 0.69194 0.0
H1906 H 0.43055 0.44205 0.7418 0.0
H1907 H 0.40239 0.47977 0.74679 0.0
H1908 H 0.46261 0.46229 0.78565 0.0
H1909 H 0.47609 0.47334 0.7634 0.0
H1910 H 0.45718 0.44612 0.76374 0.0
H1911 H 0.41529 0.5089 0.76826 0.0
H1912 H 0.44294 0.52175 0.77197 0.0
H1913 H 0.42626 0.50585 0.79085 0.0
H1914 H 0.38005 0.42123 0.89122 0.0
H1915 H 0.41479 0.44071 0.89833 0.0
H1916 H 0.39401 0.48478 0.89488 0.0
H1917 H 0.45366 0.46208 0.86478 0.0
H1918 H 0.44725 0.44768 0.88723 0.0
H1919 H 0.46679 0.47481 0.88737 0.0
H1920 H 0.41392 0.51755 0.88084 0.0
H1921 H 0.42917 0.51709 0.86057 0.0
H1922 H 0.4414 0.52802 0.88396 0.0
H1923 H 0.55574 0.61419 0.92301 0.0
H1924 H 0.58548 0.64151 0.90422 0.0
H1925 H 0.5687 0.61998 0.88824 0.0
H1926 H 0.59283 0.62269 0.8968 0.0
H1927 H 0.5528 0.55374 0.90741 0.0
H1928 H 0.53259 0.59779 0.89858 0.0
H1929 H 0.52196 0.51803 0.8705 0.0
H1930 H 0.5074 0.50939 0.89256 0.0
H1931 H 0.535 0.5199 0.89362 0.0
H1932 H 0.50201 0.58948 0.88145 0.0
H1933 H 0.4824 0.56239 0.8812 0.0
H1934 H 0.49851 0.57297 0.86031 0.0
H1935 H 0.4806 0.51337 0.75941 0.0
H1936 H 0.42965 0.47379 0.80723 0.0
H1937 H 0.42777 0.47551 0.84242 0.0
H1938 H 0.47404 0.519 0.89451 0.0
H1939 H 0.52572 0.55715 0.84665 0.0
H1940 H 0.52736 0.55573 0.81145 0.0
H1941 H 0.34223 0.40139 0.89491 0.0
H1942 H 0.35069 0.42505 0.88183 0.0
H1943 H 0.34294 0.42354 0.90707 0.0
C1944 C 0.62406 0.73752 0.63053 0.0
C1945 C 0.63447 0.73343 0.613 0.0
C1946 C 0.64508 0.76452 0.59329 0.0
C1947 C 0.62508 0.75963 0.58713 0.0
C1948 C 0.62194 0.77364 0.57616 0.0
C1949 C 0.63912 0.79274 0.57091 0.0
C1950 C 0.65928 0.79744 0.57655 0.0
C1951 C 0.66196 0.78326 0.58772 0.0
C1952 C 0.60022 0.76821 0.57041 0.0
C1953 C 0.67794 0.81757 0.571 0.0
C1954 C 0.6183 0.88571 0.65436 0.0
C1955 C 0.63333 0.89488 0.6374 0.0
C1956 C 0.62498 0.878 0.60488 0.0
C1957 C 0.6447 0.88209 0.59949 0.0
C1958 C 0.64706 0.86987 0.58494 0.0
C1959 C 0.62931 0.85318 0.57575 0.0
C1960 C 0.60945 0.84963 0.58061 0.0
C1961 C 0.60759 0.86238 0.59491 0.0
C1962 C 0.66848 0.87445 0.57977 0.0
C1963 C 0.59015 0.83188 0.57128 0.0
C1964 C 0.61668 0.88527 0.45225 0.0
C1965 C 0.63647 0.88768 0.45448 0.0
C1966 C 0.63912 0.87205 0.46288 0.0
C1967 C 0.62162 0.85357 0.4689 0.0
C1968 C 0.60163 0.85067 0.4657 0.0
C1969 C 0.59943 0.86657 0.45731 0.0
C1970 C 0.66063 0.8754 0.46567 0.0
C1971 C 0.58263 0.83099 0.4716 0.0
C1972 C 0.6149 0.71159 0.44652 0.0
C1973 C 0.61869 0.72473 0.42823 0.0
C1974 C 0.63102 0.75982 0.44255 0.0
C1975 C 0.64863 0.77916 0.44598 0.0
C1976 C 0.64775 0.79484 0.45687 0.0
C1977 C 0.62867 0.79104 0.46447 0.0
C1978 C 0.61063 0.77167 0.46069 0.0
C1979 C 0.61197 0.75621 0.44978 0.0
C1980 C 0.66727 0.81532 0.46062 0.0
C1981 C 0.59003 0.7672 0.46853 0.0
C1982 C 0.63594 0.80816 0.56025 0.0
C1983 C 0.63444 0.82321 0.57146 0.0
C1984 C 0.63143 0.83828 0.56256 0.0
C1985 C 0.62996 0.83851 0.5418 0.0
C1986 C 0.6274 0.85371 0.5323 0.0
C1987 C 0.6256 0.85354 0.51186 0.0
C1988 C 0.62631 0.83815 0.50014 0.0
C1989 C 0.62431 0.83772 0.47936 0.0
C1990 C 0.62497 0.82215 0.46817 0.0
C1991 C 0.6278 0.80698 0.47717 0.0
C1992 C 0.63005 0.80727 0.4979 0.0
C1993 C 0.63324 0.79243 0.5074 0.0
C1994 C 0.63532 0.79277 0.5278 0.0
C1995 C 0.63416 0.80788 0.5395 0.0
C1996 C 0.63111 0.82309 0.53025 0.0
C1997 C 0.62915 0.82284 0.50941 0.0
C1998 C 0.61642 0.93268 0.45475 0.0
C1999 C 0.62741 0.92165 0.44642 0.0
O2000 O 0.64884 0.75192 0.60478 0.0
O2001 O 0.63335 0.74525 0.43243 0.0
O2002 O 0.61356 0.90051 0.44531 0.0
O2003 O 0.62219 0.88871 0.61973 0.0
H2004 H 0.62251 0.72362 0.60169 0.0
H2005 H 0.61527 0.74509 0.62572 0.0
H2006 H 0.63576 0.74781 0.64179 0.0
H2007 H 0.61305 0.72267 0.63743 0.0
H2008 H 0.6118 0.74509 0.591 0.0
H2009 H 0.67732 0.78686 0.5924 0.0
H2010 H 0.59696 0.78022 0.57641 0.0
H2011 H 0.58844 0.75287 0.57589 0.0
H2012 H 0.59867 0.76802 0.55413 0.0
H2013 H 0.69265 0.81831 0.57538 0.0
H2014 H 0.67737 0.83072 0.5783 0.0
H2015 H 0.67782 0.8196 0.55485 0.0
H2016 H 0.64408 0.88864 0.63846 0.0
H2017 H 0.62682 0.89021 0.66873 0.0
H2018 H 0.60974 0.86852 0.65293 0.0
H2019 H 0.60695 0.89121 0.65417 0.0
H2020 H 0.65822 0.89472 0.60673 0.0
H2021 H 0.59247 0.85962 0.59901 0.0
H2022 H 0.66998 0.8741 0.56353 0.0
H2023 H 0.67124 0.86232 0.58592 0.0
H2024 H 0.6806 0.88978 0.58578 0.0
H2025 H 0.57586 0.83053 0.57751 0.0
H2026 H 0.59 0.81707 0.57343 0.0
H2027 H 0.58999 0.83413 0.55518 0.0
H2028 H 0.64032 0.92528 0.45698 0.0
H2029 H 0.64988 0.90171 0.44972 0.0
H2030 H 0.58421 0.8647 0.45518 0.0
H2031 H 0.66388 0.87498 0.48159 0.0
H2032 H 0.67263 0.89044 0.45984 0.0
H2033 H 0.66175 0.86268 0.45812 0.0
H2034 H 0.56813 0.83071 0.46725 0.0
H2035 H 0.58289 0.82941 0.48782 0.0
H2036 H 0.58261 0.81736 0.46468 0.0
H2037 H 0.60397 0.72369 0.42326 0.0
H2038 H 0.6034 0.69511 0.44304 0.0
H2039 H 0.60878 0.71704 0.45861 0.0
H2040 H 0.6295 0.71262 0.4518 0.0
H2041 H 0.66323 0.78184 0.44028 0.0
H2042 H 0.59814 0.74138 0.44718 0.0
H2043 H 0.67036 0.81818 0.47672 0.0
H2044 H 0.66529 0.82807 0.45481 0.0
H2045 H 0.68089 0.81585 0.45363 0.0
H2046 H 0.57722 0.75184 0.46336 0.0
H2047 H 0.58658 0.7794 0.46388 0.0
H2048 H 0.59066 0.76756 0.48488 0.0
H2049 H 0.63553 0.8231 0.58741 0.0
H2050 H 0.62672 0.86589 0.54059 0.0
H2051 H 0.62357 0.8656 0.50538 0.0
H2052 H 0.62339 0.8219 0.45225 0.0
H2053 H 0.63416 0.78036 0.49917 0.0
H2054 H 0.63775 0.78097 0.53429 0.0
H2055 H 0.62716 0.9497 0.45566 0.0
H2056 H 0.61101 0.92718 0.46982 0.0
H2057 H 0.6028 0.92942 0.44539 0.0
C2058 C 0.11511 0.73037 0.66418 0.0
C2059 C 0.10657 0.73857 0.64835 0.0
C2060 C 0.12125 0.74872 0.61585 0.0
C2061 C 0.11582 0.76385 0.61207 0.0
C2062 C 0.12669 0.7793 0.59834 0.0
C2063 C 0.1435 0.77975 0.58846 0.0
C2064 C 0.14845 0.76399 0.59174 0.0
C2065 C 0.13691 0.7484 0.60513 0.0
C2066 C 0.12062 0.7955 0.59485 0.0
C2067 C 0.16645 0.76408 0.58177 0.0
C2068 C 0.27901 0.93211 0.63068 0.0
C2069 C 0.26734 0.9117 0.62011 0.0
C2070 C 0.23194 0.88581 0.6106 0.0
C2071 C 0.23707 0.87238 0.60059 0.0
C2072 C 0.22206 0.85507 0.58979 0.0
C2073 C 0.20162 0.85149 0.58836 0.0
C2074 C 0.1964 0.86499 0.59841 0.0
C2075 C 0.21161 0.88183 0.60961 0.0
C2076 C 0.2281 0.8406 0.57994 0.0
C2077 C 0.1748 0.86168 0.59726 0.0
C2078 C 0.23304 0.88093 0.46065 0.0
C2079 C 0.2377 0.86719 0.47035 0.0
C2080 C 0.22253 0.85054 0.48082 0.0
C2081 C 0.20243 0.84779 0.4819 0.0
C2082 C 0.1977 0.86159 0.47221 0.0
C2083 C 0.21309 0.87794 0.46164 0.0
C2084 C 0.22804 0.83594 0.49081 0.0
C2085 C 0.17646 0.85916 0.47318 0.0
C2086 C 0.0806 0.68746 0.44955 0.0
C2087 C 0.0873 0.71023 0.44637 0.0
C2088 C 0.12015 0.73962 0.45802 0.0
C2089 C 0.13976 0.74422 0.46461 0.0
C2090 C 0.15216 0.762 0.47629 0.0
C2091 C 0.14483 0.7757 0.48117 0.0
C2092 C 0.12522 0.77146 0.47406 0.0
C2093 C 0.11306 0.75344 0.46252 0.0
C2094 C 0.1731 0.76618 0.48341 0.0
C2095 C 0.11723 0.78605 0.47856 0.0
C2096 C 0.1572 0.79785 0.57645 0.0
C2097 C 0.17174 0.81588 0.58659 0.0
C2098 C 0.18572 0.83347 0.57656 0.0
C2099 C 0.18519 0.83323 0.55573 0.0
C2100 C 0.19875 0.8508 0.54515 0.0
C2101 C 0.19897 0.85006 0.52469 0.0
C2102 C 0.18556 0.83174 0.51403 0.0
C2103 C 0.18642 0.83051 0.4933 0.0
C2104 C 0.17267 0.81222 0.48309 0.0
C2105 C 0.15808 0.79486 0.49304 0.0
C2106 C 0.15711 0.79566 0.51383 0.0
C2107 C 0.14276 0.77845 0.52437 0.0
C2108 C 0.14243 0.77924 0.54488 0.0
C2109 C 0.15665 0.79717 0.55561 0.0
C2110 C 0.17087 0.81489 0.54524 0.0
C2111 C 0.17107 0.81414 0.52434 0.0
C2112 C 0.28053 0.91622 0.46592 0.0
C2113 C 0.26784 0.90364 0.44777 0.0
O2114 O 0.11193 0.73451 0.63 0.0
O2115 O 0.10866 0.72184 0.44724 0.0
O2116 O 0.24715 0.89726 0.45029 0.0
O2117 O 0.24606 0.90267 0.62131 0.0
H2118 H 0.11387 0.75562 0.65114 0.0
H2119 H 0.13219 0.73811 0.66319 0.0
H2120 H 0.1086 0.71337 0.66221 0.0
H2121 H 0.11129 0.73368 0.6791 0.0
H2122 H 0.10323 0.76368 0.61997 0.0
H2123 H 0.14075 0.73645 0.60804 0.0
H2124 H 0.13223 0.81035 0.60207 0.0
H2125 H 0.10523 0.79099 0.60092 0.0
H2126 H 0.12037 0.79821 0.57884 0.0
H2127 H 0.16927 0.7517 0.58717 0.0
H2128 H 0.1807 0.77931 0.58429 0.0
H2129 H 0.16342 0.76176 0.56564 0.0
H2130 H 0.27308 0.90078 0.62318 0.0
H2131 H 0.28799 0.92967 0.64271 0.0
H2132 H 0.26787 0.93319 0.64104 0.0
H2133 H 0.29341 0.9531 0.60799 0.0
H2134 H 0.2527 0.87513 0.60131 0.0
H2135 H 0.20776 0.89222 0.61742 0.0
H2136 H 0.21642 0.8242 0.58263 0.0
H2137 H 0.24343 0.84347 0.58524 0.0
H2138 H 0.2288 0.84282 0.56379 0.0
H2139 H 0.17389 0.87497 0.60379 0.0
H2140 H 0.16423 0.84752 0.60532 0.0
H2141 H 0.16925 0.85928 0.58169 0.0
H2142 H 0.26982 0.88993 0.44544 0.0
H2143 H 0.25307 0.86928 0.46991 0.0
H2144 H 0.20964 0.88862 0.45414 0.0
H2145 H 0.22756 0.83769 0.50703 0.0
H2146 H 0.24368 0.83894 0.48694 0.0
H2147 H 0.21659 0.81963 0.48666 0.0
H2148 H 0.17558 0.87188 0.46576 0.0
H2149 H 0.17204 0.85882 0.4888 0.0
H2150 H 0.165 0.84417 0.46606 0.0
H2151 H 0.08052 0.71483 0.45865 0.0
H2152 H 0.06349 0.67778 0.44881 0.0
H2153 H 0.08602 0.68576 0.46432 0.0
H2154 H 0.08727 0.68166 0.43826 0.0
H2155 H 0.14518 0.73359 0.46083 0.0
H2156 H 0.09819 0.75037 0.45685 0.0
H2157 H 0.17441 0.76837 0.49969 0.0
H2158 H 0.18529 0.78074 0.47699 0.0
H2159 H 0.17604 0.75341 0.4793 0.0
H2160 H 0.10174 0.78068 0.47176 0.0
H2161 H 0.12817 0.8017 0.47308 0.0
H2162 H 0.11625 0.78757 0.49475 0.0
H2163 H 0.17243 0.8161 0.60258 0.0
H2164 H 0.20953 0.86527 0.55259 0.0
H2165 H 0.20993 0.86399 0.51735 0.0
H2166 H 0.17361 0.81135 0.46719 0.0
H2167 H 0.1317 0.76413 0.51688 0.0
H2168 H 0.13109 0.76553 0.55225 0.0
H2169 H 0.29713 0.92141 0.46394 0.0
H2170 H 0.2753 0.90663 0.47924 0.0
H2171 H 0.27878 0.93005 0.46839 0.0
C2172 C 0.1177 0.35109 0.65277 0.0
C2173 C 0.10526 0.35554 0.63753 0.0
C2174 C 0.11984 0.35068 0.60692 0.0
C2175 C 0.13639 0.37104 0.60528 0.0
C2176 C 0.15243 0.37557 0.59218 0.0
C2177 C 0.15222 0.35937 0.58081 0.0
C2178 C 0.13544 0.3389 0.58222 0.0
C2179 C 0.11927 0.33493 0.595 0.0
C2180 C 0.16981 0.39768 0.5908 0.0
C2181 C 0.1348 0.32116 0.57057 0.0
C2182 C 0.29524 0.40381 0.63411 0.0
C2183 C 0.27854 0.38136 0.62928 0.0
C2184 C 0.25811 0.37645 0.59966 0.0
C2185 C 0.24552 0.35844 0.58854 0.0
C2186 C 0.22799 0.35599 0.57836 0.0
C2187 C 0.22362 0.37242 0.5787 0.0
C2188 C 0.23664 0.39088 0.58964 0.0
C2189 C 0.25363 0.39257 0.60022 0.0
C2190 C 0.21421 0.33589 0.56727 0.0
C2191 C 0.23273 0.40888 0.59006 0.0
C2192 C 0.25991 0.39294 0.45207 0.0
C2193 C 0.24511 0.37245 0.45635 0.0
C2194 C 0.22729 0.36813 0.46671 0.0
C2195 C 0.22426 0.38464 0.4729 0.0
C2196 C 0.23876 0.4052 0.4679 0.0
C2197 C 0.25633 0.40905 0.45734 0.0
C2198 C 0.21181 0.34595 0.47127 0.0
C2199 C 0.2359 0.42313 0.47408 0.0
C2200 C 0.08031 0.37505 0.45862 0.0
C2201 C 0.09215 0.37456 0.44053 0.0
C2202 C 0.11714 0.36508 0.45367 0.0
C2203 C 0.12122 0.3488 0.4552 0.0
C2204 C 0.13865 0.35134 0.46561 0.0
C2205 C 0.15245 0.3708 0.47455 0.0
C2206 C 0.1486 0.38748 0.4729 0.0
C2207 C 0.13088 0.38442 0.46262 0.0
C2208 C 0.14224 0.3332 0.46715 0.0
C2209 C 0.16318 0.40849 0.4821 0.0
C2210 C 0.17018 0.36372 0.56844 0.0
C2211 C 0.18773 0.36561 0.57794 0.0
C2212 C 0.20553 0.37039 0.56752 0.0
C2213 C 0.20596 0.37333 0.54698 0.0
C2214 C 0.22377 0.37857 0.53612 0.0
C2215 C 0.22391 0.38098 0.51585 0.0
C2216 C 0.20629 0.37838 0.50565 0.0
C2217 C 0.20616 0.38042 0.48498 0.0
C2218 C 0.18849 0.37805 0.47536 0.0
C2219 C 0.17078 0.37359 0.48582 0.0
C2220 C 0.17054 0.37134 0.50647 0.0
C2221 C 0.15296 0.3668 0.51744 0.0
C2222 C 0.15287 0.36454 0.53775 0.0
C2223 C 0.17022 0.36637 0.54785 0.0
C2224 C 0.18816 0.37109 0.53709 0.0
C2225 C 0.18835 0.37365 0.51639 0.0
C2226 C 0.31089 0.40396 0.45314 0.0
C2227 C 0.28921 0.38794 0.44564 0.0
O2228 O 0.1042 0.34555 0.61973 0.0
O2229 O 0.09979 0.36126 0.44351 0.0
O2230 O 0.27773 0.39768 0.44285 0.0
O2231 O 0.27497 0.3783 0.60913 0.0
H2232 H 0.11282 0.37253 0.63552 0.0
H2233 H 0.13372 0.35706 0.64769 0.0
H2234 H 0.11048 0.33414 0.65497 0.0
H2235 H 0.1185 0.35891 0.6671 0.0
H2236 H 0.13692 0.38357 0.61399 0.0
H2237 H 0.10638 0.3193 0.59624 0.0
H2238 H 0.18369 0.39932 0.59852 0.0
H2239 H 0.16588 0.40888 0.59766 0.0
H2240 H 0.17381 0.40181 0.57518 0.0
H2241 H 0.12147 0.30594 0.57447 0.0
H2242 H 0.14927 0.32076 0.57319 0.0
H2243 H 0.1337 0.32345 0.5546 0.0
H2244 H 0.26414 0.37826 0.63687 0.0
H2245 H 0.29915 0.40581 0.65012 0.0
H2246 H 0.28973 0.41466 0.63037 0.0
H2247 H 0.30946 0.40811 0.62572 0.0
H2248 H 0.24927 0.34615 0.58816 0.0
H2249 H 0.26364 0.40666 0.60852 0.0
H2250 H 0.21559 0.33862 0.5512 0.0
H2251 H 0.19781 0.32998 0.57107 0.0
H2252 H 0.21828 0.32379 0.57051 0.0
H2253 H 0.24588 0.42311 0.59681 0.0
H2254 H 0.21876 0.40469 0.59877 0.0
H2255 H 0.2298 0.41235 0.57491 0.0
H2256 H 0.28248 0.37621 0.45736 0.0
H2257 H 0.24741 0.35983 0.45155 0.0
H2258 H 0.2677 0.42477 0.45367 0.0
H2259 H 0.21132 0.3439 0.48745 0.0
H2260 H 0.21564 0.33477 0.4642 0.0
H2261 H 0.19614 0.34221 0.4662 0.0
H2262 H 0.24882 0.43827 0.46941 0.0
H2263 H 0.2347 0.42354 0.49036 0.0
H2264 H 0.22125 0.42097 0.46758 0.0
H2265 H 0.10507 0.39046 0.43778 0.0
H2266 H 0.07416 0.3857 0.4563 0.0
H2267 H 0.09071 0.38068 0.47183 0.0
H2268 H 0.06727 0.35928 0.46151 0.0
H2269 H 0.11055 0.33395 0.44827 0.0
H2270 H 0.12795 0.3972 0.46175 0.0
H2271 H 0.14386 0.33029 0.48288 0.0
H2272 H 0.15688 0.33691 0.45986 0.0
H2273 H 0.12949 0.31881 0.4602 0.0
H2274 H 0.1588 0.42026 0.47837 0.0
H2275 H 0.17915 0.41395 0.47712 0.0
H2276 H 0.16328 0.40727 0.49837 0.0
H2277 H 0.18758 0.36348 0.59372 0.0
H2278 H 0.2378 0.38078 0.54315 0.0
H2279 H 0.23803 0.38489 0.50826 0.0
H2280 H 0.18846 0.37955 0.45949 0.0
H2281 H 0.13906 0.36497 0.51044 0.0
H2282 H 0.13895 0.36116 0.54544 0.0
H2283 H 0.32045 0.39654 0.45528 0.0
H2284 H 0.30987 0.41068 0.46753 0.0
H2285 H 0.31863 0.41677 0.44261 0.0
C2286 C 0.003 0.38727 0.06128 0.0
C2287 C 0.98703 0.36911 0.05226 0.0
H2288 H 0.01185 0.41017 0.0844 0.0
C2289 C 0.96707 0.36022 0.05987 0.0
H2290 H 0.01861 0.39436 0.05588 0.0
C2291 C 0.96313 0.36949 0.07607 0.0
C2292 C 0.97906 0.3878 0.08496 0.0
H2293 H 0.95451 0.34615 0.05329 0.0
H2294 H 0.94764 0.36231 0.08174 0.0
C2295 C 0.99912 0.39639 0.07757 0.0
C2296 C 0.6153 0.60879 0.07008 0.0
C2297 C 0.62975 0.60849 0.05722 0.0
H2298 H 0.59646 0.59561 0.09517 0.0
C2299 C 0.6359 0.59367 0.05975 0.0
H2300 H 0.61044 0.62019 0.06864 0.0
C2301 C 0.62765 0.57936 0.07485 0.0
C2302 C 0.61309 0.5796 0.08765 0.0
H2303 H 0.64713 0.59319 0.05013 0.0
H2304 H 0.63273 0.56818 0.07664 0.0
C2305 C 0.60723 0.59467 0.08524 0.0
C2306 C 0.38529 0.99767 0.0583 0.0
C2307 C 0.38156 0.01354 0.05254 0.0
H2308 H 0.40038 0.98792 0.07889 0.0
C2309 C 0.39095 0.03241 0.06328 0.0
H2310 H 0.37804 0.98286 0.05043 0.0
C2311 C 0.404 0.03544 0.07938 0.0
C2312 C 0.4079 0.01965 0.08509 0.0
H2313 H 0.38823 0.04486 0.05924 0.0
H2314 H 0.41099 0.0501 0.0875 0.0
C2315 C 0.39813 0.00059 0.07456 0.0
C2316 C 0.36403 0.97453 0.95001 0.0
C2317 C 0.36938 0.99455 0.95675 0.0
H2318 H 0.36938 0.95617 0.92883 0.0
C2319 C 0.38468 0.01177 0.94693 0.0
H2320 H 0.35221 0.96097 0.95723 0.0
C2321 C 0.3945 0.00902 0.93072 0.0
C2322 C 0.3894 0.98899 0.92416 0.0
H2323 H 0.38904 0.02739 0.95172 0.0
H2324 H 0.40609 0.02255 0.92329 0.0
C2325 C 0.37388 0.97178 0.93383 0.0
C2326 C 0.99514 0.38061 0.94712 0.0
C2327 C 0.01209 0.38212 0.95769 0.0
H2328 H 0.98475 0.39085 0.9226 0.0
C2329 C 0.03216 0.39592 0.95146 0.0
H2330 H 0.97947 0.36991 0.95142 0.0
C2331 C 0.03518 0.40814 0.93503 0.0
C2332 C 0.0182 0.40677 0.92458 0.0
H2333 H 0.04549 0.39725 0.95925 0.0
H2334 H 0.05078 0.41861 0.93042 0.0
C2335 C 0.99815 0.39264 0.93063 0.0
C2336 C 0.61101 0.61783 0.95531 0.0
C2337 C 0.61271 0.63358 0.96818 0.0
H2338 H 0.59628 0.59895 0.9296 0.0
C2339 C 0.60012 0.6423 0.96485 0.0
H2340 H 0.6207 0.61099 0.95738 0.0
C2341 C 0.58586 0.63516 0.9491 0.0
C2342 C 0.58394 0.61919 0.93637 0.0
H2343 H 0.6012 0.65457 0.97447 0.0
H2344 H 0.57632 0.64213 0.9468 0.0
C2345 C 0.59696 0.61087 0.93945 0.0
C2346 C 0.03377 0.63201 0.96101 0.0
C2347 C 0.0135 0.62801 0.9636 0.0
H2348 H 0.05528 0.63047 0.94138 0.0
C2349 C 0.99883 0.61799 0.94829 0.0
H2350 H 0.04537 0.63962 0.9726 0.0
C2351 C 0.00457 0.61307 0.93037 0.0
C2352 C 0.02504 0.61787 0.92746 0.0
H2353 H 0.98307 0.61468 0.94985 0.0
H2354 H 0.9931 0.60602 0.91859 0.0
C2355 C 0.03945 0.62683 0.94316 0.0
C2356 C 0.37743 0.39068 0.94024 0.0
C2357 C 0.36992 0.39523 0.95738 0.0
H2358 H 0.38428 0.39689 0.9097 0.0
C2359 C 0.36528 0.41132 0.95714 0.0
H2360 H 0.38111 0.37834 0.93996 0.0
C2361 C 0.36725 0.42203 0.93984 0.0
C2362 C 0.37377 0.41676 0.92242 0.0
H2363 H 0.35948 0.41518 0.97014 0.0
H2364 H 0.36297 0.43394 0.93986 0.0
C2365 C 0.37922 0.40127 0.9229 0.0
C2366 C 0.60057 0.97134 0.95533 0.0
C2367 C 0.61589 0.99151 0.96107 0.0
H2368 H 0.57912 0.95182 0.93269 0.0
C2369 C 0.62055 0.00791 0.94835 0.0
H2370 H 0.59659 0.95843 0.96489 0.0
C2371 C 0.61082 0.00408 0.92985 0.0
C2372 C 0.59608 0.98381 0.92377 0.0
H2373 H 0.63229 0.02363 0.95236 0.0
H2374 H 0.61521 0.01692 0.92009 0.0
C2375 C 0.59063 0.96755 0.93691 0.0
C2376 C 0.63755 0.03805 0.06504 0.0
C2377 C 0.63123 0.01741 0.05968 0.0
H2378 H 0.63812 0.05896 0.08745 0.0
C2379 C 0.6194 0.00164 0.07286 0.0
H2380 H 0.64659 0.05051 0.05513 0.0
C2381 C 0.61486 0.0065 0.09143 0.0
C2382 C 0.62187 0.02721 0.09711 0.0
H2383 H 0.6143 0.98557 0.06913 0.0
H2384 H 0.60632 0.99409 0.10154 0.0
C2385 C 0.63276 0.04289 0.08353 0.0
C2386 C 0.96018 0.59834 0.06105 0.0
C2387 C 0.98071 0.61428 0.059 0.0
H2388 H 0.93786 0.5755 0.07994 0.0
C2389 C 0.99493 0.61869 0.07458 0.0
H2390 H 0.9489 0.59454 0.04927 0.0
C2391 C 0.98855 0.608 0.09218 0.0
C2392 C 0.96788 0.59253 0.09449 0.0
H2393 H 0.01087 0.6309 0.07343 0.0
H2394 H -0.0003 0.61217 0.10416 0.0
C2395 C 0.95386 0.58747 0.07859 0.0
C2396 C 0.38771 0.38024 0.06858 0.0
C2397 C 0.39262 0.37296 0.0514 0.0
H2398 H 0.39256 0.38583 0.09975 0.0
C2399 C 0.40827 0.36779 0.05234 0.0
H2400 H 0.3757 0.38433 0.06833 0.0
C2401 C 0.41806 0.36885 0.07033 0.0
C2402 C 0.41218 0.37484 0.08774 0.0
H2403 H 0.41241 0.36219 0.03933 0.0
H2404 H 0.42962 0.36415 0.0708 0.0
C2405 C 0.39731 0.38105 0.08659 0.0
C2406 C 0.65456 0.71523 0.39551 0.0
C2407 C 0.64081 0.70149 0.38099 0.0
H2408 H 0.65837 0.73302 0.42187 0.0
C2409 C 0.61969 0.6949 0.38226 0.0
H2410 H 0.6709 0.7204 0.39504 0.0
C2411 C 0.61254 0.70238 0.39751 0.0
C2412 C 0.62639 0.71659 0.41174 0.0
H2413 H 0.60873 0.68422 0.37131 0.0
H2414 H 0.5962 0.69721 0.39813 0.0
C2415 C 0.64741 0.72253 0.41082 0.0
C2416 C 0.29917 0.9297 0.40233 0.0
C2417 C 0.29112 0.94236 0.39676 0.0
H2418 H 0.29798 0.90749 0.42275 0.0
C2419 C 0.27527 0.9422 0.40782 0.0
H2420 H 0.31151 0.92965 0.39415 0.0
C2421 C 0.2677 0.92972 0.42423 0.0
C2422 C 0.2755 0.91676 0.42966 0.0
H2423 H 0.26896 0.95201 0.40401 0.0
H2424 H 0.25579 0.93027 0.43272 0.0
C2425 C 0.29143 0.91702 0.41864 0.0
C2426 C 0.06258 0.37537 0.39476 0.0
C2427 C 0.05131 0.35429 0.38915 0.0
H2428 H 0.08439 0.39818 0.41528 0.0
C2429 C 0.05318 0.33975 0.40054 0.0
H2430 H 0.06134 0.38691 0.38629 0.0
C2431 C 0.06619 0.34617 0.4172 0.0
C2432 C 0.07798 0.36735 0.42252 0.0
H2433 H 0.04447 0.32337 0.39668 0.0
H2434 H 0.06709 0.33456 0.42586 0.0
C2435 C 0.0758 0.38183 0.41128 0.0
C2436 C 0.05564 0.32925 0.28579 0.0
C2437 C 0.03645 0.31502 0.29349 0.0
H2438 H 0.07826 0.33517 0.2641 0.0
C2439 C 0.02541 0.29494 0.28512 0.0
H2440 H 0.06435 0.34493 0.2918 0.0
C2441 C 0.03363 0.28912 0.26947 0.0
C2442 C 0.05288 0.30335 0.26173 0.0
H2443 H 0.01053 0.28371 0.29076 0.0
H2444 H 0.0249 0.27352 0.26328 0.0
C2445 C 0.06363 0.3236 0.26991 0.0
C2446 C 0.71364 0.74171 0.28566 0.0
C2447 C 0.68986 0.73494 0.29792 0.0
H2448 H 0.7381 0.76621 0.26055 0.0
C2449 C 0.67729 0.75013 0.29571 0.0
H2450 H 0.72105 0.7326 0.28791 0.0
C2451 C 0.68736 0.772 0.27982 0.0
C2452 C 0.70823 0.77438 0.2634 0.0
H2453 H 0.66347 0.74599 0.30389 0.0
H2454 H 0.67906 0.78018 0.27715 0.0
C2455 C 0.72497 0.76324 0.26937 0.0
C2456 C 0.26481 0.97726 0.29829 0.0
C2457 C 0.275 0.96632 0.303 0.0
H2458 H 0.24364 0.97981 0.27856 0.0
C2459 C 0.27183 0.94949 0.29089 0.0
H2460 H 0.2671 0.99039 0.30733 0.0
C2461 C 0.25873 0.94368 0.27435 0.0
C2462 C 0.24802 0.9542 0.26987 0.0
H2463 H 0.27972 0.94097 0.29401 0.0
H2464 H 0.25699 0.93088 0.26513 0.0
C2465 C 0.25138 0.9712 0.2819 0.0
C2466 C 0.70367 0.97633 0.27673 0.0
C2467 C 0.70293 0.96899 0.2958 0.0
H2468 H 0.71469 0.97855 0.2474 0.0
C2469 C 0.71267 0.95744 0.2997 0.0
H2470 H 0.69627 0.98524 0.27325 0.0
C2471 C 0.72336 0.95372 0.28482 0.0
C2472 C 0.72406 0.96108 0.26571 0.0
H2473 H 0.7124 0.95168 0.3143 0.0
H2474 H 0.73129 0.94533 0.28834 0.0
C2475 C 0.71408 0.9724 0.26187 0.0
C2476 C 0.03541 0.75082 0.29516 0.0
C2477 C 0.03837 0.73362 0.29434 0.0
H2478 H 0.0337 0.77442 0.27897 0.0
C2479 C 0.0437 0.72814 0.27634 0.0
H2480 H 0.03127 0.7554 0.30882 0.0
C2481 C 0.04498 0.73894 0.25929 0.0
C2482 C 0.04116 0.75558 0.25992 0.0
H2483 H 0.04606 0.71495 0.27523 0.0
H2484 H 0.04829 0.73384 0.24547 0.0
C2485 C 0.03681 0.7617 0.27811 0.0
C2486 C 0.25993 0.29322 0.29822 0.0
C2487 C 0.2762 0.31386 0.29894 0.0
H2488 H 0.23732 0.26803 0.28013 0.0
C2489 C 0.28108 0.32555 0.28177 0.0
H2490 H 0.25581 0.28385 0.31123 0.0
C2491 C 0.27068 0.31643 0.26398 0.0
C2492 C 0.25504 0.29553 0.26305 0.0
H2493 H 0.29356 0.34149 0.28185 0.0
H2494 H 0.27532 0.32556 0.2508 0.0
C2495 C 0.24938 0.28416 0.28045 0.0
C2496 C 0.28916 0.34822 0.40943 0.0
C2497 C 0.29703 0.35993 0.39242 0.0
H2498 H 0.28057 0.3479 0.43948 0.0
C2499 C 0.30069 0.38036 0.39238 0.0
H2500 H 0.28619 0.33243 0.40991 0.0
C2501 C 0.29729 0.38915 0.40929 0.0
C2502 C 0.29033 0.37772 0.42659 0.0
H2503 H 0.30672 0.38975 0.37947 0.0
H2504 H 0.30076 0.4051 0.40907 0.0
C2505 C 0.28594 0.35705 0.42636 0.0
C2506 C 0.66428 0.95223 0.4055 0.0
C2507 C 0.65056 0.94805 0.38953 0.0
H2508 H 0.66767 0.94717 0.43598 0.0
C2509 C 0.62942 0.93404 0.39189 0.0
H2510 H 0.68064 0.96301 0.40413 0.0
C2511 C 0.62205 0.92489 0.41004 0.0
C2512 C 0.63566 0.92963 0.42623 0.0
H2513 H 0.61847 0.93049 0.37984 0.0
H2514 H 0.60562 0.91455 0.4116 0.0
C2515 C 0.65687 0.94319 0.42371 0.0
C2516 C 0.05296 0.71573 0.40796 0.0
C2517 C 0.05978 0.71123 0.39033 0.0
H2518 H 0.05631 0.71892 0.4394 0.0
C2519 C 0.07712 0.70859 0.39093 0.0
H2520 H 0.03963 0.71782 0.40799 0.0
C2521 C 0.08675 0.70936 0.40895 0.0
C2522 C 0.07915 0.71267 0.42669 0.0
H2523 H 0.08272 0.7051 0.37758 0.0
H2524 H 0.09959 0.70649 0.40912 0.0
C2525 C 0.06248 0.71634 0.42596 0.0
C2526 C 0.28544 0.02804 0.7167 0.0
C2527 C 0.30673 0.03522 0.71638 0.0
H2528 H 0.26069 0.02858 0.732 0.0
C2529 C 0.31945 0.04808 0.73191 0.0
H2530 H 0.27528 0.01798 0.70497 0.0
C2531 C 0.31115 0.0539 0.74735 0.0
C2532 C 0.28997 0.04744 0.74739 0.0
H2533 H 0.33588 0.0536 0.7322 0.0
H2534 H 0.32137 0.06365 0.7592 0.0
C2535 C 0.27713 0.03414 0.73208 0.0
C2536 C 0.94322 0.27248 0.73116 0.0
C2537 C 0.9627 0.278 0.72369 0.0
H2538 H 0.92092 0.25643 0.75312 0.0
C2539 C 0.97458 0.27057 0.73278 0.0
H2540 H 0.93385 0.27821 0.72458 0.0
C2541 C 0.96695 0.2576 0.74894 0.0
C2542 C 0.94747 0.25211 0.75652 0.0
H2543 H 0.98968 0.27466 0.72733 0.0
H2544 H 0.97634 0.25196 0.75567 0.0
C2545 C 0.9358 0.25994 0.74755 0.0
C2546 C 0.71995 0.67307 0.73301 0.0
C2547 C 0.72103 0.68662 0.71833 0.0
H2548 H 0.73226 0.66974 0.76043 0.0
C2549 C 0.73591 0.70776 0.72022 0.0
H2550 H 0.70852 0.65673 0.73203 0.0
C2551 C 0.7496 0.71518 0.73641 0.0
C2552 C 0.74872 0.70158 0.75096 0.0
H2553 H 0.73701 0.71859 0.70919 0.0
H2554 H 0.76089 0.73155 0.73757 0.0
C2555 C 0.73356 0.6805 0.74923 0.0
C2556 C 0.69049 0.61462 0.62114 0.0
C2557 C 0.70648 0.63968 0.63296 0.0
H2558 H 0.69204 0.58923 0.5969 0.0
C2559 C 0.73422 0.65371 0.63087 0.0
H2560 H 0.67401 0.60635 0.6234 0.0
C2561 C 0.74694 0.64375 0.61558 0.0
C2562 C 0.72921 0.62109 0.59951 0.0
H2563 H 0.74332 0.66826 0.63887 0.0
H2564 H 0.76334 0.65276 0.61301 0.0
C2565 C 0.70167 0.6033 0.60545 0.0
C2566 C 0.38353 0.07424 0.61939 0.0
C2567 C 0.36046 0.06871 0.6324 0.0
H2568 H 0.40727 0.09716 0.59296 0.0
C2569 C 0.34847 0.08443 0.62999 0.0
H2570 H 0.39065 0.06487 0.62177 0.0
C2571 C 0.35835 0.10553 0.61322 0.0
C2572 C 0.37823 0.10654 0.59626 0.0
H2573 H 0.33513 0.08109 0.63862 0.0
H2574 H 0.35032 0.11398 0.61051 0.0
C2575 C 0.39464 0.09498 0.60217 0.0
C2576 C 0.94285 0.27974 0.61653 0.0
C2577 C 0.94589 0.29747 0.62706 0.0
H2578 H 0.92797 0.25901 0.5919 0.0
C2579 C 0.93567 0.30787 0.62064 0.0
H2580 H 0.95071 0.27156 0.62103 0.0
C2581 C 0.92239 0.3005 0.60419 0.0
C2582 C 0.91908 0.28261 0.59377 0.0
H2583 H 0.93781 0.32164 0.62843 0.0
H2584 H 0.91468 0.3088 0.59955 0.0
C2585 C 0.92976 0.27252 0.5999 0.0
C2586 C 0.37205 0.29536 0.6349 0.0
C2587 C 0.35182 0.29201 0.63501 0.0
H2588 H 0.39583 0.29495 0.61782 0.0
C2589 C 0.3394 0.28404 0.61786 0.0
H2590 H 0.38195 0.30145 0.64791 0.0
C2591 C 0.34742 0.28061 0.60063 0.0
C2592 C 0.36795 0.28487 0.60023 0.0
H2593 H 0.32375 0.2813 0.61748 0.0
H2594 H 0.33776 0.27524 0.58742 0.0
C2595 C 0.38 0.2917 0.6177 0.0
C2596 C 0.70708 0.08019 0.62139 0.0
C2597 C 0.70827 0.06196 0.62048 0.0
H2598 H 0.70601 0.1041 0.60517 0.0
C2599 C 0.71136 0.05496 0.60217 0.0
H2600 H 0.70462 0.08592 0.63527 0.0
C2601 C 0.71215 0.06537 0.58498 0.0
C2602 C 0.71004 0.08307 0.58576 0.0
H2603 H 0.71227 0.04093 0.60099 0.0
H2604 H 0.71365 0.05914 0.57096 0.0
C2605 C 0.70789 0.09061 0.60418 0.0
C2606 C 0.92222 0.63287 0.62712 0.0
C2607 C 0.93996 0.65264 0.62769 0.0
H2608 H 0.89847 0.60858 0.60911 0.0
C2609 C 0.94628 0.66396 0.61029 0.0
H2610 H 0.91702 0.62377 0.64029 0.0
C2611 C 0.93569 0.65524 0.59248 0.0
C2612 C 0.91849 0.63513 0.59174 0.0
H2613 H 0.95992 0.67921 0.61026 0.0
H2614 H 0.94139 0.66396 0.57915 0.0
C2615 C 0.9116 0.62418 0.60931 0.0
C2616 C 0.96586 0.71757 0.72211 0.0
C2617 C 0.9633 0.6976 0.72308 0.0
H2618 H 0.96705 0.74323 0.73813 0.0
C2619 C 0.95839 0.68751 0.74119 0.0
H2620 H 0.96963 0.72572 0.70835 0.0
C2621 C 0.95711 0.69758 0.75819 0.0
C2622 C 0.96049 0.71787 0.75741 0.0
H2623 H 0.95633 0.67211 0.74241 0.0
H2624 H 0.95407 0.68973 0.77208 0.0
C2625 C 0.9644 0.72759 0.73912 0.0
C2626 C 0.31663 0.27809 0.74342 0.0
C2627 C 0.30569 0.27433 0.72546 0.0
H2628 H 0.31528 0.27072 0.77393 0.0
C2629 C 0.2849 0.25854 0.72426 0.0
H2630 H 0.33267 0.29018 0.74479 0.0
C2631 C 0.27501 0.2473 0.74091 0.0
C2632 C 0.28569 0.25175 0.7591 0.0
H2633 H 0.27609 0.25527 0.7106 0.0
H2634 H 0.25881 0.2356 0.73976 0.0
C2635 C 0.30669 0.26699 0.7601 0.0
C2636 C 0.74974 0.03779 0.71402 0.0
C2637 C 0.7315 0.03873 0.7156 0.0
H2638 H 0.77479 0.03751 0.72941 0.0
C2639 C 0.72541 0.04173 0.73432 0.0
H2640 H 0.75481 0.03551 0.69979 0.0
C2641 C 0.7367 0.04269 0.75119 0.0
C2642 C 0.75445 0.0409 0.74972 0.0
H2643 H 0.71143 0.04253 0.73604 0.0
H2644 H 0.73118 0.04421 0.76547 0.0
C2645 C 0.76114 0.03893 0.73093 0.0
C2646 C 0.03129 0.30764 0.04309 0.0
C2647 C 0.03985 0.32578 0.03207 0.0
H2648 H 0.03675 0.28622 0.05897 0.0
C2649 C 0.06129 0.33689 0.02936 0.0
H2650 H 0.01481 0.29871 0.04536 0.0
C2651 C 0.07389 0.32982 0.03733 0.0
C2652 C 0.06526 0.31144 0.04804 0.0
H2653 H 0.0683 0.35092 0.02092 0.0
H2654 H 0.09035 0.33851 0.03487 0.0
C2655 C 0.04385 0.30049 0.05089 0.0
C2656 C 0.70065 0.71751 0.06247 0.0
C2657 C 0.67428 0.70449 0.05337 0.0
H2658 H 0.72591 0.74783 0.08413 0.0
C2659 C 0.65555 0.71102 0.06234 0.0
H2660 H 0.71117 0.71254 0.05732 0.0
C2661 C 0.66303 0.73206 0.07992 0.0
C2662 C 0.69148 0.74845 0.08424 0.0
H2663 H 0.63967 0.70221 0.05717 0.0
H2664 H 0.65237 0.73715 0.08426 0.0
C2665 C 0.70973 0.73878 0.07996 0.0
C2666 C 0.26804 0.94527 0.01591 0.0
C2667 C 0.28576 0.95628 0.02796 0.0
H2668 H 0.2364 0.92099 0.01402 0.0
C2669 C 0.28509 0.95091 0.04776 0.0
H2670 H 0.26814 0.94917 0.0006 0.0
C2671 C 0.26714 0.93454 0.05532 0.0
C2672 C 0.24926 0.92352 0.04334 0.0
H2673 H 0.2986 0.9591 0.05733 0.0
H2674 H 0.2674 0.93056 0.07054 0.0
C2675 C 0.24991 0.9292 0.02359 0.0
C2676 C 0.30703 0.0427 0.98117 0.0
C2677 C 0.32665 0.04857 0.98911 0.0
H2678 H 0.28719 0.05267 0.96865 0.0
C2679 C 0.34164 0.0697 0.99045 0.0
H2680 H 0.29523 0.0265 0.97979 0.0
C2681 C 0.33711 0.08469 0.98387 0.0
C2682 C 0.3173 0.07886 0.97631 0.0
H2683 H 0.35698 0.07464 0.99629 0.0
H2684 H 0.34915 0.1008 0.98464 0.0
C2685 C 0.30242 0.05767 0.97484 0.0
C2686 C 0.97914 0.27551 0.9619 0.0
C2687 C 0.96646 0.28955 0.96967 0.0
H2688 H 0.97393 0.24519 0.94032 0.0
C2689 C 0.94223 0.28458 0.95879 0.0
H2690 H 0.99418 0.27972 0.96802 0.0
C2691 C 0.92903 0.26416 0.94048 0.0
C2692 C 0.94002 0.24665 0.93739 0.0
H2693 H 0.93575 0.29416 0.96303 0.0
H2694 H 0.91384 0.26004 0.93485 0.0
C2695 C 0.96726 0.25479 0.94382 0.0
C2696 C 0.72206 0.6651 0.98609 0.0
C2697 C 0.7105 0.6752 0.98475 0.0
H2698 H 0.75023 0.66569 0.979 0.0
C2699 C 0.7185 0.69368 0.97431 0.0
H2700 H 0.7163 0.65085 0.99409 0.0
C2701 C 0.73787 0.70216 0.96575 0.0
C2702 C 0.74958 0.69223 0.96726 0.0
H2703 H 0.70998 0.70186 0.97309 0.0
H2704 H 0.74386 0.71669 0.95821 0.0
C2705 C 0.74143 0.67354 0.97743 0.0
C2706 C 0.94253 0.66987 0.99254 0.0
C2707 C 0.96257 0.67628 0.98606 0.0
H2708 H 0.9173 0.67582 0.99279 0.0
C2709 C 0.97205 0.69318 0.97345 0.0
H2710 H 0.93489 0.65697 0.00235 0.0
C2711 C 0.96205 0.70401 0.96808 0.0
C2712 C 0.94221 0.69793 0.97496 0.0
H2713 H 0.98756 0.69858 0.96833 0.0
H2714 H 0.9701 0.71751 0.95905 0.0
C2715 C 0.93246 0.68061 0.98705 0.0
C2716 C 0.30891 0.28553 0.96877 0.0
C2717 C 0.32772 0.2945 0.97945 0.0
H2718 H 0.2829 0.25754 0.95744 0.0
C2719 C 0.33575 0.28189 0.98526 0.0
H2720 H 0.30227 0.29484 0.9642 0.0
C2721 C 0.3247 0.26054 0.98127 0.0
C2722 C 0.30547 0.25144 0.97132 0.0
H2723 H 0.35016 0.28836 0.99358 0.0
H2724 H 0.3308 0.25101 0.9866 0.0
C2725 C 0.29782 0.26418 0.96487 0.0
C2726 C 0.7262 0.05809 0.99266 0.0
C2727 C 0.71254 0.03769 0.98604 0.0
H2728 H 0.75728 0.0836 0.99295 0.0
C2729 C 0.71977 0.02777 0.97328 0.0
H2730 H 0.72108 0.06607 0.00257 0.0
C2731 C 0.74045 0.03773 0.96787 0.0
C2732 C 0.75425 0.05797 0.97485 0.0
H2733 H 0.70964 0.01199 0.96803 0.0
H2734 H 0.74577 0.02939 0.95869 0.0
C2735 C 0.74687 0.06811 0.98713 0.0
C2736 C 0.69212 0.97294 0.04526 0.0
C2737 C 0.67432 0.96411 0.03305 0.0
H2738 H 0.716 0.96918 0.05872 0.0
C2739 C 0.6659 0.94347 0.02635 0.0
H2740 H 0.69905 0.98887 0.05055 0.0
C2741 C 0.67553 0.93213 0.03121 0.0
C2742 C 0.69371 0.94118 0.0429 0.0
H2743 H 0.65227 0.93629 0.01685 0.0
H2744 H 0.66916 0.91647 0.02531 0.0
C2745 C 0.70181 0.96166 0.05 0.0
C2746 C 0.02731 0.72302 0.04464 0.0
C2747 C 0.0363 0.71354 0.03363 0.0
H2748 H 0.03037 0.75141 0.05603 0.0
C2749 C 0.05662 0.72572 0.0272 0.0
H2750 H 0.0116 0.71406 0.04968 0.0
C2751 C 0.06744 0.74711 0.03102 0.0
C2752 C 0.05816 0.75671 0.04137 0.0
H2753 H 0.0639 0.71886 0.0186 0.0
H2754 H 0.08281 0.7563 0.02527 0.0
C2755 C 0.03805 0.74441 0.04833 0.0
C2756 C 0.28648 0.315 0.04173 0.0
C2757 C 0.29405 0.33236 0.02968 0.0
H2758 H 0.26033 0.29106 0.05622 0.0
C2759 C 0.28092 0.33991 0.02423 0.0
H2760 H 0.29621 0.30874 0.04606 0.0
C2761 C 0.2604 0.32987 0.03021 0.0
C2762 C 0.25267 0.31216 0.0418 0.0
H2763 H 0.2863 0.3532 0.01486 0.0
H2764 H 0.25037 0.33558 0.0253 0.0
C2765 C 0.26596 0.3049 0.0476 0.0
C2766 C 0.68779 0.64254 0.37297 0.0
C2767 C 0.69775 0.66185 0.36387 0.0
H2768 H 0.69127 0.61947 0.38821 0.0
C2769 C 0.71943 0.67314 0.36374 0.0
H2770 H 0.67109 0.63345 0.37318 0.0
C2771 C 0.73093 0.66514 0.37232 0.0
C2772 C 0.72099 0.6458 0.3814 0.0
H2773 H 0.72753 0.688 0.35672 0.0
H2774 H 0.74761 0.67396 0.37164 0.0
C2775 C 0.69931 0.63456 0.3816 0.0
C2776 C 0.32117 0.04299 0.39803 0.0
C2777 C 0.33908 0.03717 0.38584 0.0
H2778 H 0.31994 0.06956 0.42095 0.0
C2779 C 0.36655 0.052 0.39071 0.0
H2780 H 0.30475 0.03311 0.39542 0.0
C2781 C 0.37735 0.07435 0.40703 0.0
C2782 C 0.35888 0.08287 0.4146 0.0
H2783 H 0.37666 0.04744 0.38375 0.0
H2784 H 0.39388 0.08439 0.40864 0.0
C2785 C 0.33037 0.06501 0.41469 0.0
C2786 C 0.95014 0.27448 0.36714 0.0
C2787 C 0.95341 0.29139 0.35574 0.0
H2788 H 0.92839 0.24773 0.38264 0.0
C2789 C 0.93661 0.29417 0.35119 0.0
H2790 H 0.96278 0.27185 0.37072 0.0
C2791 C 0.91701 0.28058 0.3583 0.0
C2792 C 0.9138 0.26393 0.37009 0.0
H2793 H 0.93866 0.30702 0.34237 0.0
H2794 H 0.90432 0.28311 0.35465 0.0
C2795 C 0.93048 0.26074 0.37406 0.0
C2796 C 0.00354 0.39652 0.32608 0.0
C2797 C 0.01429 0.38781 0.31692 0.0
H2798 H 0.99799 0.42208 0.32747 0.0
C2799 C 0.02741 0.39823 0.30132 0.0
H2800 H 0.9934 0.38886 0.3382 0.0
C2801 C 0.03017 0.41727 0.29532 0.0
C2802 C 0.01949 0.42607 0.30452 0.0
H2803 H 0.03605 0.39197 0.2941 0.0
H2804 H 0.04095 0.42528 0.28372 0.0
C2805 C 0.00611 0.41546 0.31991 0.0
C2806 C 0.64556 0.62487 0.28069 0.0
C2807 C 0.63151 0.63595 0.29221 0.0
H2808 H 0.64085 0.596 0.25726 0.0
C2809 C 0.60508 0.62778 0.2854 0.0
H2810 H 0.6616 0.63071 0.28466 0.0
C2811 C 0.59118 0.60694 0.26763 0.0
C2812 C 0.60465 0.59242 0.26073 0.0
H2813 H 0.59748 0.63539 0.29208 0.0
H2814 H 0.5749 0.6008 0.26458 0.0
C2815 C 0.63311 0.60395 0.26285 0.0
C2816 C 0.37306 0.97687 0.31849 0.0
C2817 C 0.36822 0.99275 0.32061 0.0
H2818 H 0.3949 0.96834 0.30821 0.0
C2819 C 0.38186 0.01246 0.31344 0.0
H2820 H 0.36275 0.96151 0.32384 0.0
C2821 C 0.40025 0.0164 0.30475 0.0
C2822 C 0.40528 0.00064 0.30279 0.0
H2823 H 0.37857 0.02501 0.31495 0.0
H2824 H 0.4107 0.03189 0.29977 0.0
C2825 C 0.39139 0.98076 0.30955 0.0
C2826 C 0.60069 0.94588 0.29715 0.0
C2827 C 0.62219 0.97185 0.30086 0.0
H2828 H 0.56658 0.92555 0.27852 0.0
C2829 C 0.62519 0.99321 0.28633 0.0
H2830 H 0.59994 0.93334 0.30558 0.0
C2831 C 0.60581 0.98961 0.26834 0.0
C2832 C 0.58148 0.96414 0.26933 0.0
H2833 H 0.6388 0.00833 0.28837 0.0
H2834 H 0.60666 0.00259 0.26062 0.0
C2835 C 0.5804 0.94063 0.27958 0.0
C2836 C 0.01633 0.62419 0.32408 0.0
C2837 C 0.00483 0.6336 0.31864 0.0
H2838 H 0.01794 0.59627 0.32413 0.0
C2839 C 0.9863 0.62194 0.30778 0.0
H2840 H 0.03063 0.63278 0.33252 0.0
C2841 C 0.97903 0.60107 0.30306 0.0
C2842 C 0.99032 0.59153 0.30883 0.0
H2843 H 0.97704 0.62874 0.3035 0.0
H2844 H 0.96431 0.59225 0.29534 0.0
C2845 C 0.00912 0.60335 0.31925 0.0
C2846 C 0.38848 0.39406 0.3288 0.0
C2847 C 0.37569 0.37332 0.32264 0.0
H2848 H 0.4188 0.4208 0.32846 0.0
C2849 C 0.38368 0.36393 0.31013 0.0
H2850 H 0.38277 0.40167 0.3385 0.0
C2851 C 0.40427 0.37483 0.30445 0.0
C2852 C 0.4172 0.39547 0.31092 0.0
H2853 H 0.37422 0.34791 0.30524 0.0
H2854 H 0.41023 0.36695 0.29544 0.0
C2855 C 0.40906 0.40502 0.32302 0.0
C2856 C 0.35611 0.30833 0.38331 0.0
C2857 C 0.33837 0.29936 0.37103 0.0
H2858 H 0.37998 0.30468 0.39704 0.0
C2859 C 0.33007 0.27869 0.36444 0.0
H2860 H 0.36293 0.32427 0.38853 0.0
C2861 C 0.33979 0.26748 0.3694 0.0
C2862 C 0.35791 0.27666 0.38114 0.0
H2863 H 0.31647 0.2714 0.3549 0.0
H2864 H 0.3335 0.25181 0.36355 0.0
C2865 C 0.36586 0.29713 0.38822 0.0
C2866 C 0.69058 0.05238 0.36803 0.0
C2867 C 0.70161 0.0436 0.35955 0.0
H2868 H 0.69147 0.08014 0.37851 0.0
C2869 C 0.7228 0.05634 0.35626 0.0
H2870 H 0.67423 0.04293 0.37075 0.0
C2871 C 0.7326 0.07759 0.36063 0.0
C2872 C 0.72146 0.08649 0.36856 0.0
H2873 H 0.7317 0.05001 0.34973 0.0
H2874 H 0.74881 0.08717 0.35735 0.0
C2875 C 0.70042 0.07363 0.3725 0.0
C2876 C 0.95026 0.68193 0.35712 0.0
C2877 C 0.96137 0.67201 0.36214 0.0
H2878 H 0.92146 0.68156 0.35862 0.0
C2879 C 0.95178 0.654 0.37334 0.0
H2880 H 0.95723 0.69578 0.34841 0.0
C2881 C 0.93133 0.64585 0.3791 0.0
C2882 C 0.92017 0.65574 0.37405 0.0
H2883 H 0.95991 0.64592 0.3773 0.0
H2884 H 0.92414 0.63161 0.38722 0.0
C2885 C 0.92985 0.67385 0.363 0.0
C2886 C 0.38835 0.02602 0.72452 0.0
C2887 C 0.36735 0.00509 0.71063 0.0
H2888 H 0.41537 0.03305 0.751 0.0
C2889 C 0.35799 0.97824 0.71601 0.0
H2890 H 0.39281 0.0419 0.72148 0.0
C2891 C 0.37044 0.97124 0.7347 0.0
C2892 C 0.39532 0.99307 0.74442 0.0
H2893 H 0.34477 0.96619 0.70795 0.0
H2894 H 0.36612 0.95522 0.73682 0.0
C2895 C 0.40183 0.02069 0.74358 0.0
C2896 C 0.9653 0.36653 0.71256 0.0
C2897 C 0.97982 0.3697 0.69807 0.0
H2898 H 0.949 0.37895 0.72812 0.0
C2899 C 0.99039 0.38905 0.68912 0.0
H2900 H 0.95678 0.35171 0.7196 0.0
C2901 C 0.98613 0.40477 0.69423 0.0
C2902 C 0.97122 0.40144 0.70834 0.0
H2903 H 0.0016 0.3919 0.67786 0.0
H2904 H 0.99407 0.41937 0.68673 0.0
C2905 C 0.96088 0.38216 0.7175 0.0
C2906 C 0.61545 0.64183 0.70866 0.0
C2907 C 0.62428 0.63109 0.6996 0.0
H2908 H 0.58957 0.6397 0.72394 0.0
C2909 C 0.61361 0.60933 0.69971 0.0
H2910 H 0.62327 0.65861 0.70873 0.0
C2911 C 0.59434 0.59851 0.70852 0.0
C2912 C 0.58544 0.60927 0.71746 0.0
H2913 H 0.62001 0.60065 0.69277 0.0
H2914 H 0.58623 0.58172 0.70811 0.0
C2915 C 0.59619 0.63103 0.71741 0.0
C2916 C 0.67197 0.72109 0.63987 0.0
C2917 C 0.66259 0.69956 0.63662 0.0
H2918 H 0.67054 0.74866 0.63482 0.0
C2919 C 0.64486 0.68947 0.62438 0.0
H2920 H 0.68562 0.72927 0.64928 0.0
C2921 C 0.63618 0.70053 0.61623 0.0
C2922 C 0.6452 0.72196 0.61994 0.0
H2923 H 0.63723 0.67287 0.62169 0.0
H2924 H 0.62208 0.69223 0.60745 0.0
C2925 C 0.66337 0.73218 0.63161 0.0
C2926 C 0.31551 0.95538 0.62514 0.0
C2927 C 0.30268 0.96941 0.6325 0.0
H2928 H 0.30975 0.92367 0.60553 0.0
C2929 C 0.27763 0.96302 0.62262 0.0
H2930 H 0.33084 0.96018 0.63083 0.0
C2931 C 0.26375 0.94116 0.60589 0.0
C2932 C 0.2752 0.92401 0.60348 0.0
H2933 H 0.27085 0.97234 0.62679 0.0
H2934 H 0.24809 0.93619 0.60109 0.0
C2935 C 0.30297 0.93326 0.60858 0.0
C2936 C 0.06072 0.3554 0.66463 0.0
C2937 C 0.04409 0.3356 0.65984 0.0
H2938 H 0.09289 0.37712 0.66115 0.0
C2939 C 0.04756 0.32205 0.64796 0.0
H2940 H 0.05854 0.36615 0.67382 0.0
C2941 C 0.06725 0.3283 0.64081 0.0
C2942 C 0.08376 0.3484 0.64503 0.0
H2943 H 0.03505 0.30662 0.64417 0.0
H2944 H 0.0695 0.31745 0.63185 0.0
C2945 C 0.08034 0.36173 0.6573 0.0
C2946 C 0.28449 0.34269 0.66099 0.0
C2947 C 0.30087 0.34196 0.65178 0.0
H2948 H 0.26467 0.35581 0.66117 0.0
C2949 C 0.30902 0.35319 0.63457 0.0
H2950 H 0.278 0.33427 0.67434 0.0
C2951 C 0.3014 0.36541 0.62706 0.0
C2952 C 0.28546 0.36669 0.63658 0.0
H2953 H 0.32168 0.35297 0.62718 0.0
H2954 H 0.3083 0.3743 0.61403 0.0
C2955 C 0.27691 0.35503 0.6535 0.0
C2956 C 0.64693 0.95157 0.63723 0.0
C2957 C 0.6657 0.96129 0.64798 0.0
H2958 H 0.62194 0.92303 0.62553 0.0
C2959 C 0.67451 0.94942 0.65398 0.0
H2960 H 0.6397 0.96029 0.63251 0.0
C2961 C 0.66441 0.9281 0.64982 0.0
C2962 C 0.64536 0.91827 0.63952 0.0
H2963 H 0.68892 0.95648 0.66236 0.0
H2964 H 0.67119 0.91917 0.65514 0.0
C2965 C 0.63678 0.93025 0.63317 0.0
C2966 C 0.05368 0.72775 0.66512 0.0
C2967 C 0.04069 0.70764 0.65742 0.0
H2968 H 0.08465 0.75327 0.6681 0.0
C2969 C 0.04912 0.6983 0.64541 0.0
H2970 H 0.04763 0.7353 0.67448 0.0
C2971 C 0.07028 0.70855 0.64181 0.0
C2972 C 0.08338 0.72847 0.64993 0.0
H2973 H 0.0395 0.68276 0.63935 0.0
H2974 H 0.07649 0.70066 0.63318 0.0
C2975 C 0.07483 0.73804 0.66144 0.0
C2976 C 0.00954 0.63255 0.70937 0.0
C2977 C 0.99162 0.62664 0.69791 0.0
H2978 H 0.02959 0.62312 0.72248 0.0
C2979 C 0.97923 0.60577 0.69192 0.0
H2980 H 0.01947 0.64856 0.71408 0.0
C2981 C 0.98494 0.59118 0.69691 0.0
C2982 C 0.00309 0.59716 0.70801 0.0
H2983 H 0.96539 0.6008 0.68301 0.0
H2984 H 0.97543 0.57528 0.69167 0.0
C2985 C 0.01531 0.61799 0.71424 0.0
C2986 C 0.36347 0.38614 0.71284 0.0
C2987 C 0.37195 0.3757 0.70261 0.0
H2988 H 0.36768 0.41534 0.72313 0.0
C2989 C 0.39251 0.38694 0.69655 0.0
H2990 H 0.3476 0.37792 0.71758 0.0
C2991 C 0.40407 0.40838 0.69989 0.0
C2992 C 0.3953 0.41896 0.7094 0.0
H2993 H 0.39942 0.37931 0.68853 0.0
H2994 H 0.41962 0.41685 0.69437 0.0
C2995 C 0.37496 0.40758 0.71606 0.0
C2996 C 0.62121 0.99561 0.70065 0.0
C2997 C 0.63404 0.01364 0.69031 0.0
H2998 H 0.59221 0.97758 0.71467 0.0
C2999 C 0.6274 0.02792 0.68673 0.0
H3000 H 0.62585 0.98425 0.70348 0.0
C3001 C 0.60822 0.02418 0.69331 0.0
C3002 C 0.59537 0.00614 0.70365 0.0
H3003 H 0.63694 0.04189 0.6787 0.0
H3004 H 0.6033 0.03528 0.69015 0.0
C3005 C 0.60199 0.99182 0.70712 0.0
loop_
_geom_bond_atom_site_label_1
_geom_bond_atom_site_label_2
_geom_bond_distance
_geom_bond_site_symmetry_2
_ccdc_geom_bond_type
In0 O1 2.294 1_455 S
In0 O2 2.326 . S
In0 O6 2.266 1_454 S
In0 O7 2.326 1_454 S
In0 O8 2.266 1_554 S
In0 O9 2.326 1_454 S
In0 O11 2.294 . S
In0 O12 2.326 . S
O1 In0 2.294 1_655 S
O1 C10 1.259 . S
O2 In0 2.326 . S
O2 C10 1.215 1_455 S
C3 O6 1.252 . S
C3 O7 1.260 . S
C4 O11 1.240 . S
C4 O12 1.252 . S
C5 O8 1.252 . S
C5 O9 1.260 1_455 S
O6 In0 2.266 1_656 S
O6 C3 1.252 . S
O7 In0 2.326 1_656 S
O7 C3 1.260 . S
O8 In0 2.266 1_556 S
O8 C5 1.252 . S
O9 In0 2.326 1_656 S
O9 C5 1.260 1_655 S
C10 O1 1.259 . S
C10 O2 1.215 1_655 S
O11 In0 2.294 . S
O11 C4 1.240 . S
O12 In0 2.326 . S
O12 C4 1.252 . S
In13 O14 2.294 . S
In13 O15 2.326 . S
In13 O19 2.266 . S
In13 O20 2.326 1_554 S
In13 O21 2.266 1_554 S
In13 O22 2.326 1_554 S
In13 O24 2.294 . S
In13 O25 2.326 . S
O14 In13 2.294 . S
O14 C23 1.240 . S
O15 In13 2.326 . S
O15 C23 1.252 . S
C16 O19 1.252 1_556 S
C16 O20 1.260 . S
C17 O24 1.240 . S
C17 O25 1.252 . S
C18 O21 1.252 . S
C18 O22 1.260 . S
O19 In13 2.266 . S
O19 C16 1.252 1_554 S
O20 In13 2.326 1_556 S
O20 C16 1.260 . S
O21 In13 2.266 1_556 S
O21 C18 1.252 . S
O22 In13 2.326 1_556 S
O22 C18 1.260 . S
C23 O14 1.240 . S
C23 O15 1.252 . S
O24 In13 2.294 . S
O24 C17 1.240 . S
O25 In13 2.326 . S
O25 C17 1.252 . S
In26 O27 2.294 1_554 S
In26 O28 2.326 1_554 S
In26 O32 2.266 . S
In26 O33 2.326 1_545 S
In26 O34 2.266 1_545 S
In26 O35 2.326 1_545 S
In26 O37 2.294 1_544 S
In26 O38 2.326 1_554 S
O27 In26 2.294 1_556 S
O27 C36 1.240 . S
O28 In26 2.326 1_556 S
O28 C36 1.252 . S
C29 O32 1.252 . S
C29 O33 1.260 1_545 S
C30 O37 1.240 . S
C30 O38 1.252 1_565 S
C31 O34 1.252 . S
C31 O35 1.260 . S
O32 In26 2.266 . S
O32 C29 1.252 . S
O33 In26 2.326 1_565 S
O33 C29 1.260 1_565 S
O34 In26 2.266 1_565 S
O34 C31 1.252 . S
O35 In26 2.326 1_565 S
O35 C31 1.260 . S
C36 O27 1.240 . S
C36 O28 1.252 . S
O37 In26 2.294 1_566 S
O37 C30 1.240 . S
O38 In26 2.326 1_556 S
O38 C30 1.252 1_545 S
In39 O40 2.293 1_554 S
In39 O41 2.326 1_454 S
In39 O45 2.265 . S
In39 O46 2.326 . S
In39 O47 2.267 1_455 S
In39 O48 2.324 . S
In39 O50 2.296 1_455 S
In39 O51 2.327 1_454 S
O40 In39 2.293 1_556 S
O40 C49 1.240 . S
O41 In39 2.326 1_656 S
O41 C49 1.252 1_655 S
C42 O45 1.252 . S
C42 O46 1.260 . S
C43 O50 1.240 1_556 S
C43 O51 1.252 . S
C44 O47 1.252 . S
C44 O48 1.260 1_655 S
O45 In39 2.265 . S
O45 C42 1.252 . S
O46 In39 2.326 . S
O46 C42 1.260 . S
O47 In39 2.267 1_655 S
O47 C44 1.252 . S
O48 In39 2.324 . S
O48 C44 1.260 1_455 S
C49 O40 1.240 . S
C49 O41 1.252 1_455 S
O50 In39 2.296 1_655 S
O50 C43 1.240 1_554 S
O51 In39 2.327 1_656 S
O51 C43 1.252 . S
In52 O53 2.294 1_554 S
In52 O54 2.326 1_554 S
In52 O58 2.266 . S
In52 O59 2.326 . S
In52 O60 2.266 . S
In52 O61 2.326 . S
In52 O63 2.294 1_554 S
In52 O64 2.326 1_554 S
O53 In52 2.294 1_556 S
O53 C62 1.240 . S
O54 In52 2.326 1_556 S
O54 C62 1.252 . S
C55 O58 1.252 . S
C55 O59 1.260 . S
C56 O63 1.240 . S
C56 O64 1.252 . S
C57 O60 1.252 . S
C57 O61 1.260 . S
O58 In52 2.266 . S
O58 C55 1.252 . S
O59 In52 2.326 . S
O59 C55 1.260 . S
O60 In52 2.266 . S
O60 C57 1.252 . S
O61 In52 2.326 . S
O61 C57 1.260 . S
C62 O53 1.240 . S
C62 O54 1.252 . S
O63 In52 2.294 1_556 S
O63 C56 1.240 . S
O64 In52 2.326 1_556 S
O64 C56 1.252 . S
In65 O66 2.293 . S
In65 O67 2.326 1_545 S
In65 O71 2.265 . S
In65 O72 2.326 1_554 S
In65 O73 2.267 1_544 S
In65 O74 2.324 1_554 S
In65 O76 2.296 1_545 S
In65 O77 2.327 1_545 S
O66 In65 2.293 . S
O66 C75 1.240 . S
O67 In65 2.326 1_565 S
O67 C75 1.252 1_565 S
C68 O71 1.252 1_556 S
C68 O72 1.260 . S
C69 O76 1.240 . S
C69 O77 1.252 . S
C70 O73 1.252 . S
C70 O74 1.260 1_565 S
O71 In65 2.265 . S
O71 C68 1.252 1_554 S
O72 In65 2.326 1_556 S
O72 C68 1.260 . S
O73 In65 2.267 1_566 S
O73 C70 1.252 . S
O74 In65 2.324 1_556 S
O74 C70 1.260 1_545 S
C75 O66 1.240 . S
C75 O67 1.252 1_545 S
O76 In65 2.296 1_565 S
O76 C69 1.240 . S
O77 In65 2.327 1_565 S
O77 C69 1.252 . S
In78 O79 2.294 . S
In78 O80 2.326 . S
In78 O84 2.266 . S
In78 O85 2.326 . S
In78 O86 2.266 . S
In78 O87 2.326 . S
In78 O89 2.294 . S
In78 O90 2.326 . S
O79 In78 2.294 . S
O79 C88 1.240 . S
O80 In78 2.326 . S
O80 C88 1.252 . S
C81 O84 1.252 . S
C81 O85 1.260 . S
C82 O89 1.240 . S
C82 O90 1.252 . S
C83 O86 1.252 . S
C83 O87 1.260 . S
O84 In78 2.266 . S
O84 C81 1.252 . S
O85 In78 2.326 . S
O85 C81 1.260 . S
O86 In78 2.266 . S
O86 C83 1.252 . S
O87 In78 2.326 . S
O87 C83 1.260 . S
C88 O79 1.240 . S
C88 O80 1.252 . S
O89 In78 2.294 . S
O89 C82 1.240 . S
O90 In78 2.326 . S
O90 C82 1.252 . S
In91 O92 2.294 . S
In91 O93 2.326 . S
In91 O97 2.266 . S
In91 O98 2.326 . S
In91 O99 2.266 . S
In91 O100 2.326 . S
In91 O102 2.294 1_565 S
In91 O103 2.326 1_565 S
O92 In91 2.294 . S
O92 C101 1.240 . S
O93 In91 2.326 . S
O93 C101 1.252 . S
C94 O97 1.252 . S
C94 O98 1.260 . S
C95 O102 1.240 . S
C95 O103 1.252 . S
C96 O99 1.252 . S
C96 O100 1.260 . S
O97 In91 2.266 . S
O97 C94 1.252 . S
O98 In91 2.326 . S
O98 C94 1.260 . S
O99 In91 2.266 . S
O99 C96 1.252 . S
O100 In91 2.326 . S
O100 C96 1.260 . S
C101 O92 1.240 . S
C101 O93 1.252 . S
O102 In91 2.294 1_545 S
O102 C95 1.240 . S
O103 In91 2.326 1_545 S
O103 C95 1.252 . S
In104 O105 2.294 . S
In104 O106 2.326 . S
In104 O110 2.266 . S
In104 O111 2.326 . S
In104 O112 2.266 1_455 S
In104 O113 2.353 . S
In104 O115 2.294 . S
In104 O116 2.326 . S
O105 In104 2.294 . S
O105 C114 1.240 . S
O106 In104 2.326 . S
O106 C114 1.252 . S
C107 O110 1.252 . S
C107 O111 1.260 . S
C108 O115 1.240 . S
C108 O116 1.252 . S
C109 O112 1.252 . S
C109 O113 1.259 1_655 S
O110 In104 2.266 . S
O110 C107 1.252 . S
O111 In104 2.326 . S
O111 C107 1.260 . S
O112 In104 2.266 1_655 S
O112 C109 1.252 . S
O113 In104 2.353 . S
O113 C109 1.259 1_455 S
C114 O105 1.240 . S
C114 O106 1.252 . S
O115 In104 2.294 . S
O115 C108 1.240 . S
O116 In104 2.326 . S
O116 C108 1.252 . S
In117 O118 2.294 . S
In117 O119 2.326 . S
In117 O123 2.266 1_565 S
In117 O124 2.326 1_565 S
In117 O125 2.266 . S
In117 O126 2.326 . S
In117 O128 2.294 . S
In117 O129 2.326 . S
O118 In117 2.294 . S
O118 C127 1.240 . S
O119 In117 2.326 . S
O119 C127 1.252 . S
C120 O123 1.252 . S
C120 O124 1.260 . S
C121 O128 1.240 . S
C121 O129 1.252 . S
C122 O125 1.252 . S
C122 O126 1.260 . S
O123 In117 2.266 1_545 S
O123 C120 1.252 . S
O124 In117 2.326 1_545 S
O124 C120 1.260 . S
O125 In117 2.266 . S
O125 C122 1.252 . S
O126 In117 2.326 . S
O126 C122 1.260 . S
C127 O118 1.240 . S
C127 O119 1.252 . S
O128 In117 2.294 . S
O128 C121 1.240 . S
O129 In117 2.326 . S
O129 C121 1.252 . S
In130 O131 2.294 . S
In130 O132 2.326 . S
In130 O136 2.266 1_455 S
In130 O137 2.326 1_455 S
In130 O138 2.266 . S
In130 O139 2.326 . S
In130 O141 2.294 . S
In130 O142 2.326 . S
O131 In130 2.294 . S
O131 C140 1.240 . S
O132 In130 2.326 . S
O132 C140 1.252 . S
C133 O136 1.252 . S
C133 O137 1.260 . S
C134 O141 1.240 . S
C134 O142 1.252 . S
C135 O138 1.252 . S
C135 O139 1.260 . S
O136 In130 2.266 1_655 S
O136 C133 1.252 . S
O137 In130 2.326 1_655 S
O137 C133 1.260 . S
O138 In130 2.266 . S
O138 C135 1.252 . S
O139 In130 2.326 . S
O139 C135 1.260 . S
C140 O131 1.240 . S
C140 O132 1.252 . S
O141 In130 2.294 . S
O141 C134 1.240 . S
O142 In130 2.326 . S
O142 C134 1.252 . S
In143 O144 2.294 . S
In143 O145 2.326 . S
In143 O149 2.266 . S
In143 O150 2.326 . S
In143 O151 2.266 . S
In143 O152 2.326 . S
In143 O154 2.294 . S
In143 O155 2.326 . S
O144 In143 2.294 . S
O144 C153 1.240 . S
O145 In143 2.326 . S
O145 C153 1.252 . S
C146 O149 1.252 . S
C146 O150 1.260 . S
C147 O154 1.240 . S
C147 O155 1.252 . S
C148 O151 1.252 . S
C148 O152 1.260 . S
O149 In143 2.266 . S
O149 C146 1.252 . S
O150 In143 2.326 . S
O150 C146 1.260 . S
O151 In143 2.266 . S
O151 C148 1.252 . S
O152 In143 2.326 . S
O152 C148 1.260 . S
C153 O144 1.240 . S
C153 O145 1.252 . S
O154 In143 2.294 . S
O154 C147 1.240 . S
O155 In143 2.326 . S
O155 C147 1.252 . S
In156 O157 2.294 . S
In156 O158 2.326 . S
In156 O162 2.266 . S
In156 O163 2.326 . S
In156 O164 2.266 1_545 S
In156 O165 2.326 1_545 S
In156 O167 2.294 . S
In156 O168 2.326 . S
O157 In156 2.294 . S
O157 C166 1.240 . S
O158 In156 2.326 . S
O158 C166 1.252 . S
C159 O162 1.252 . S
C159 O163 1.260 . S
C160 O167 1.240 . S
C160 O168 1.252 . S
C161 O164 1.252 . S
C161 O165 1.260 . S
O162 In156 2.266 . S
O162 C159 1.252 . S
O163 In156 2.326 . S
O163 C159 1.260 . S
O164 In156 2.266 1_565 S
O164 C161 1.252 . S
O165 In156 2.326 1_565 S
O165 C161 1.260 . S
C166 O157 1.240 . S
C166 O158 1.252 . S
O167 In156 2.294 . S
O167 C160 1.240 . S
O168 In156 2.326 . S
O168 C160 1.252 . S
In169 O170 2.294 . S
In169 O171 2.326 . S
In169 O175 2.266 . S
In169 O176 2.326 . S
In169 O177 2.266 1_655 S
In169 O178 2.326 1_655 S
In169 O180 2.294 . S
In169 O181 2.326 . S
O170 In169 2.294 . S
O170 C179 1.240 . S
O171 In169 2.326 . S
O171 C179 1.252 . S
C172 O175 1.252 . S
C172 O176 1.260 . S
C173 O180 1.240 . S
C173 O181 1.252 . S
C174 O177 1.252 . S
C174 O178 1.260 . S
O175 In169 2.266 . S
O175 C172 1.252 . S
O176 In169 2.326 . S
O176 C172 1.260 . S
O177 In169 2.266 1_455 S
O177 C174 1.252 . S
O178 In169 2.326 1_455 S
O178 C174 1.260 . S
C179 O170 1.240 . S
C179 O171 1.252 . S
O180 In169 2.294 . S
O180 C173 1.240 . S
O181 In169 2.326 . S
O181 C173 1.252 . S
In182 O183 2.294 . S
In182 O184 2.326 . S
In182 O188 2.266 . S
In182 O189 2.326 . S
In182 O190 2.266 . S
In182 O191 2.326 . S
In182 O193 2.294 . S
In182 O194 2.326 . S
O183 In182 2.294 . S
O183 C192 1.240 . S
O184 In182 2.326 . S
O184 C192 1.252 . S
C185 O188 1.252 . S
C185 O189 1.260 . S
C186 O193 1.240 . S
C186 O194 1.252 . S
C187 O190 1.252 . S
C187 O191 1.260 . S
O188 In182 2.266 . S
O188 C185 1.252 . S
O189 In182 2.326 . S
O189 C185 1.260 . S
O190 In182 2.266 . S
O190 C187 1.252 . S
O191 In182 2.326 . S
O191 C187 1.260 . S
C192 O183 1.240 . S
C192 O184 1.252 . S
O193 In182 2.294 . S
O193 C186 1.240 . S
O194 In182 2.326 . S
O194 C186 1.252 . S
In195 O196 2.294 . S
In195 O197 2.326 . S
In195 O201 2.266 . S
In195 O202 2.326 . S
In195 O203 2.266 . S
In195 O204 2.326 . S
In195 O206 2.294 . S
In195 O207 2.326 . S
O196 In195 2.294 . S
O196 C205 1.240 . S
O197 In195 2.326 . S
O197 C205 1.252 . S
C198 O201 1.252 . S
C198 O202 1.260 . S
C199 O206 1.240 . S
C199 O207 1.252 . S
C200 O203 1.252 . S
C200 O204 1.260 . S
O201 In195 2.266 . S
O201 C198 1.252 . S
O202 In195 2.326 . S
O202 C198 1.260 . S
O203 In195 2.266 . S
O203 C200 1.252 . S
O204 In195 2.326 . S
O204 C200 1.260 . S
C205 O196 1.240 . S
C205 O197 1.252 . S
O206 In195 2.294 . S
O206 C199 1.240 . S
O207 In195 2.326 . S
O207 C199 1.252 . S
In208 O209 2.294 . S
In208 O210 2.326 . S
In208 O214 2.266 . S
In208 O215 2.326 . S
In208 O216 2.266 . S
In208 O217 2.326 . S
In208 O219 2.294 1_545 S
In208 O220 2.314 1_545 S
O209 In208 2.294 . S
O209 C218 1.240 . S
O210 In208 2.326 . S
O210 C218 1.252 . S
C211 O214 1.252 . S
C211 O215 1.260 . S
C212 O219 1.240 . S
C212 O220 1.281 . S
C213 O216 1.252 . S
C213 O217 1.260 . S
O214 In208 2.266 . S
O214 C211 1.252 . S
O215 In208 2.326 . S
O215 C211 1.260 . S
O216 In208 2.266 . S
O216 C213 1.252 . S
O217 In208 2.326 . S
O217 C213 1.260 . S
C218 O209 1.240 . S
C218 O210 1.252 . S
O219 In208 2.294 1_565 S
O219 C212 1.240 . S
O220 In208 2.314 1_565 S
O220 C212 1.281 . S
In221 O222 2.294 . S
In221 O223 2.326 . S
In221 O227 2.266 . S
In221 O228 2.326 . S
In221 O229 2.266 1_655 S
In221 O230 2.295 1_655 S
In221 O232 2.294 . S
In221 O233 2.326 . S
O222 In221 2.294 . S
O222 C231 1.240 . S
O223 In221 2.326 . S
O223 C231 1.252 . S
C224 O227 1.252 . S
C224 O228 1.260 . S
C225 O232 1.240 . S
C225 O233 1.252 . S
C226 O229 1.252 . S
C226 O230 1.264 . S
O227 In221 2.266 . S
O227 C224 1.252 . S
O228 In221 2.326 . S
O228 C224 1.260 . S
O229 In221 2.266 1_455 S
O229 C226 1.252 . S
O230 In221 2.295 1_455 S
O230 C226 1.264 . S
C231 O222 1.240 . S
C231 O223 1.252 . S
O232 In221 2.294 . S
O232 C225 1.240 . S
O233 In221 2.326 . S
O233 C225 1.252 . S
C234 C235 1.560 . S
C234 H295 0.959 . S
C234 H296 0.959 . S
C234 H297 0.960 . S
C235 C234 1.560 . S
C235 O290 1.426 . S
C235 H294 0.980 . S
C236 C237 1.407 . S
C236 C241 1.418 . S
C236 O290 1.334 . S
C237 C236 1.407 . S
C237 C238 1.360 . S
C237 H298 0.929 . S
C238 C237 1.360 . S
C238 C239 1.401 . S
C238 C242 1.527 . S
C239 C238 1.401 . S
C239 C240 1.405 . S
C239 C272 1.587 . S
C240 C239 1.405 . S
C240 C241 1.332 . S
C240 C243 1.496 . S
C241 C236 1.418 . S
C241 C240 1.332 . S
C241 H299 0.929 . S
C242 C238 1.527 . S
C242 H300 0.959 . S
C242 H301 0.961 . S
C242 H302 0.961 . S
C243 C240 1.496 . S
C243 H303 0.960 . S
C243 H304 0.960 . S
C243 H305 0.961 . S
C244 C245 1.517 . S
C244 H307 0.961 . S
C244 H308 0.960 . S
C244 H309 0.959 . S
C245 C244 1.517 . S
C245 O293 1.468 . S
C245 H306 0.980 . S
C246 C247 1.349 . S
C246 C251 1.367 . S
C246 O293 1.408 . S
C247 C246 1.349 . S
C247 C248 1.407 . S
C247 H310 0.930 . S
C248 C247 1.407 . S
C248 C249 1.449 . S
C248 C252 1.535 . S
C249 C248 1.449 . S
C249 C250 1.384 . S
C249 C274 1.553 . S
C250 C249 1.384 . S
C250 C251 1.364 . S
C250 C253 1.450 . S
C251 C246 1.367 . S
C251 C250 1.364 . S
C251 H311 0.931 . S
C252 C248 1.535 . S
C252 H312 0.959 . S
C252 H313 0.961 . S
C252 H314 0.959 . S
C253 C250 1.450 . S
C253 H315 0.960 . S
C253 H316 0.960 . S
C253 H317 0.960 . S
C254 C255 1.309 . S
C254 C259 1.304 . S
C254 O292 1.435 . S
C255 C254 1.309 . S
C255 C256 1.476 . S
C255 H319 0.930 . S
C256 C255 1.476 . S
C256 C257 1.400 . S
C256 C260 1.567 . S
C257 C256 1.400 . S
C257 C258 1.373 . S
C257 C279 1.432 . S
C258 C257 1.373 . S
C258 C259 1.339 . S
C258 C261 1.530 . S
C259 C254 1.304 . S
C259 C258 1.339 . S
C259 H320 0.930 . S
C260 C256 1.567 . S
C260 H321 0.961 . S
C260 H322 0.960 . S
C260 H323 0.958 . S
C261 C258 1.530 . S
C261 H324 0.961 . S
C261 H325 0.960 . S
C261 H326 0.960 . S
C262 C263 1.530 . S
C262 H328 0.961 . S
C262 H329 0.961 . S
C262 H330 0.959 . S
C263 C262 1.530 . S
C263 O291 1.412 . S
C263 H327 0.980 . S
C264 C265 1.288 . S
C264 C269 1.377 . S
C264 O291 1.393 . S
C265 C264 1.288 . S
C265 C266 1.369 . S
C265 H331 0.932 . S
C266 C265 1.369 . S
C266 C267 1.398 . S
C266 C270 1.527 . S
C267 C266 1.398 . S
C267 C268 1.380 . S
C267 C281 1.497 . S
C268 C267 1.380 . S
C268 C269 1.383 . S
C268 C271 1.603 . S
C269 C264 1.377 . S
C269 C268 1.383 . S
C269 H332 0.929 . S
C270 C266 1.527 . S
C270 H333 0.961 . S
C270 H334 0.959 . S
C270 H335 0.959 . S
C271 C268 1.603 . S
C271 H336 0.960 . S
C271 H337 0.962 . S
C271 H338 0.961 . S
C272 C239 1.587 . S
C272 C273 1.360 . S
C272 C285 1.412 . S
C273 C272 1.360 . S
C273 C274 1.365 . S
C273 H339 0.929 . S
C274 C249 1.553 . S
C274 C273 1.365 . S
C274 C275 1.404 . S
C275 C274 1.404 . S
C275 C276 1.395 . S
C275 C286 1.451 . S
C276 C275 1.395 . S
C276 C277 1.322 . S
C276 H340 0.930 . S
C277 C276 1.322 . S
C277 C278 1.459 . S
C277 H341 0.929 . S
C278 C277 1.459 . S
C278 C279 1.445 . S
C278 C287 1.395 . S
C279 C257 1.432 . S
C279 C278 1.445 . S
C279 C280 1.370 . S
C280 C279 1.370 . S
C280 C281 1.438 . S
C280 H342 0.930 . S
C281 C267 1.497 . S
C281 C280 1.438 . S
C281 C282 1.360 . S
C282 C281 1.360 . S
C282 C283 1.401 . S
C282 C287 1.446 . S
C283 C282 1.401 . S
C283 C284 1.347 . S
C283 H343 0.929 . S
C284 C283 1.347 . S
C284 C285 1.455 . S
C284 H344 0.930 . S
C285 C272 1.412 . S
C285 C284 1.455 . S
C285 C286 1.331 . S
C286 C275 1.451 . S
C286 C285 1.331 . S
C286 C287 1.497 . S
C287 C278 1.395 . S
C287 C282 1.446 . S
C287 C286 1.497 . S
C288 C289 1.582 . S
C288 H345 0.962 . S
C288 H346 0.959 . S
C288 H347 0.958 . S
C289 C288 1.582 . S
C289 O292 1.458 . S
C289 H318 0.980 . S
O290 C235 1.426 . S
O290 C236 1.334 . S
O291 C263 1.412 . S
O291 C264 1.393 . S
O292 C254 1.435 . S
O292 C289 1.458 . S
O293 C245 1.468 . S
O293 C246 1.408 . S
H294 C235 0.980 . S
H295 C234 0.959 . S
H296 C234 0.959 . S
H297 C234 0.960 . S
H298 C237 0.929 . S
H299 C241 0.929 . S
H300 C242 0.959 . S
H301 C242 0.961 . S
H302 C242 0.961 . S
H303 C243 0.960 . S
H304 C243 0.960 . S
H305 C243 0.961 . S
H306 C245 0.980 . S
H307 C244 0.961 . S
H308 C244 0.960 . S
H309 C244 0.959 . S
H310 C247 0.930 . S
H311 C251 0.931 . S
H312 C252 0.959 . S
H313 C252 0.961 . S
H314 C252 0.959 . S
H315 C253 0.960 . S
H316 C253 0.960 . S
H317 C253 0.960 . S
H318 C289 0.980 . S
H319 C255 0.930 . S
H320 C259 0.930 . S
H321 C260 0.961 . S
H322 C260 0.960 . S
H323 C260 0.958 . S
H324 C261 0.961 . S
H325 C261 0.960 . S
H326 C261 0.960 . S
H327 C263 0.980 . S
H328 C262 0.961 . S
H329 C262 0.961 . S
H330 C262 0.959 . S
H331 C265 0.932 . S
H332 C269 0.929 . S
H333 C270 0.961 . S
H334 C270 0.959 . S
H335 C270 0.959 . S
H336 C271 0.960 . S
H337 C271 0.962 . S
H338 C271 0.961 . S
H339 C273 0.929 . S
H340 C276 0.930 . S
H341 C277 0.929 . S
H342 C280 0.930 . S
H343 C283 0.929 . S
H344 C284 0.930 . S
H345 C288 0.962 . S
H346 C288 0.959 . S
H347 C288 0.958 . S
C348 C349 1.560 . S
C348 H409 0.959 . S
C348 H410 0.959 . S
C348 H411 0.960 . S
C349 C348 1.560 . S
C349 O404 1.426 . S
C349 H408 0.980 . S
C350 C351 1.407 . S
C350 C355 1.418 . S
C350 O404 1.334 . S
C351 C350 1.407 . S
C351 C352 1.360 . S
C351 H412 0.929 . S
C352 C351 1.360 . S
C352 C353 1.401 . S
C352 C356 1.527 . S
C353 C352 1.401 . S
C353 C354 1.405 . S
C353 C386 1.587 . S
C354 C353 1.405 . S
C354 C355 1.332 . S
C354 C357 1.496 . S
C355 C350 1.418 . S
C355 C354 1.332 . S
C355 H413 0.929 . S
C356 C352 1.527 . S
C356 H414 0.959 . S
C356 H415 0.961 . S
C356 H416 0.961 . S
C357 C354 1.496 . S
C357 H417 0.960 . S
C357 H418 0.960 . S
C357 H419 0.961 . S
C358 C359 1.517 . S
C358 H421 0.961 . S
C358 H422 0.960 . S
C358 H423 0.959 . S
C359 C358 1.517 . S
C359 O407 1.468 . S
C359 H420 0.980 . S
C360 C361 1.349 . S
C360 C365 1.367 . S
C360 O407 1.408 . S
C361 C360 1.349 . S
C361 C362 1.407 . S
C361 H424 0.930 . S
C362 C361 1.407 . S
C362 C363 1.449 . S
C362 C366 1.535 . S
C363 C362 1.449 . S
C363 C364 1.384 . S
C363 C388 1.553 . S
C364 C363 1.384 . S
C364 C365 1.364 . S
C364 C367 1.450 . S
C365 C360 1.367 . S
C365 C364 1.364 . S
C365 H425 0.931 . S
C366 C362 1.535 . S
C366 H426 0.959 . S
C366 H427 0.961 . S
C366 H428 0.959 . S
C367 C364 1.450 . S
C367 H429 0.960 . S
C367 H430 0.960 . S
C367 H431 0.960 . S
C368 C369 1.309 . S
C368 C373 1.304 . S
C368 O406 1.435 . S
C369 C368 1.309 . S
C369 C370 1.476 . S
C369 H433 0.930 . S
C370 C369 1.476 . S
C370 C371 1.400 . S
C370 C374 1.567 . S
C371 C370 1.400 . S
C371 C372 1.373 . S
C371 C393 1.432 . S
C372 C371 1.373 . S
C372 C373 1.339 . S
C372 C375 1.530 . S
C373 C368 1.304 . S
C373 C372 1.339 . S
C373 H434 0.930 . S
C374 C370 1.567 . S
C374 H435 0.961 . S
C374 H436 0.960 . S
C374 H437 0.958 . S
C375 C372 1.530 . S
C375 H438 0.961 . S
C375 H439 0.960 . S
C375 H440 0.960 . S
C376 C377 1.530 . S
C376 H442 0.961 . S
C376 H443 0.961 . S
C376 H444 0.959 . S
C377 C376 1.530 . S
C377 O405 1.412 . S
C377 H441 0.980 . S
C378 C379 1.288 . S
C378 C383 1.377 . S
C378 O405 1.393 . S
C379 C378 1.288 . S
C379 C380 1.369 . S
C379 H445 0.932 . S
C380 C379 1.369 . S
C380 C381 1.398 . S
C380 C384 1.527 . S
C381 C380 1.398 . S
C381 C382 1.380 . S
C381 C395 1.497 . S
C382 C381 1.380 . S
C382 C383 1.383 . S
C382 C385 1.603 . S
C383 C378 1.377 . S
C383 C382 1.383 . S
C383 H446 0.929 . S
C384 C380 1.527 . S
C384 H447 0.961 . S
C384 H448 0.959 . S
C384 H449 0.959 . S
C385 C382 1.603 . S
C385 H450 0.960 . S
C385 H451 0.962 . S
C385 H452 0.961 . S
C386 C353 1.587 . S
C386 C387 1.360 . S
C386 C399 1.412 . S
C387 C386 1.360 . S
C387 C388 1.365 . S
C387 H453 0.929 . S
C388 C363 1.553 . S
C388 C387 1.365 . S
C388 C389 1.404 . S
C389 C388 1.404 . S
C389 C390 1.395 . S
C389 C400 1.451 . S
C390 C389 1.395 . S
C390 C391 1.322 . S
C390 H454 0.930 . S
C391 C390 1.322 . S
C391 C392 1.459 . S
C391 H455 0.929 . S
C392 C391 1.459 . S
C392 C393 1.445 . S
C392 C401 1.395 . S
C393 C371 1.432 . S
C393 C392 1.445 . S
C393 C394 1.370 . S
C394 C393 1.370 . S
C394 C395 1.438 . S
C394 H456 0.930 . S
C395 C381 1.497 . S
C395 C394 1.438 . S
C395 C396 1.360 . S
C396 C395 1.360 . S
C396 C397 1.401 . S
C396 C401 1.446 . S
C397 C396 1.401 . S
C397 C398 1.347 . S
C397 H457 0.929 . S
C398 C397 1.347 . S
C398 C399 1.455 . S
C398 H458 0.930 . S
C399 C386 1.412 . S
C399 C398 1.455 . S
C399 C400 1.331 . S
C400 C389 1.451 . S
C400 C399 1.331 . S
C400 C401 1.497 . S
C401 C392 1.395 . S
C401 C396 1.446 . S
C401 C400 1.497 . S
C402 C403 1.582 . S
C402 H459 0.962 . S
C402 H460 0.959 . S
C402 H461 0.958 . S
C403 C402 1.582 . S
C403 O406 1.458 . S
C403 H432 0.980 . S
O404 C349 1.426 . S
O404 C350 1.334 . S
O405 C377 1.412 . S
O405 C378 1.393 . S
O406 C368 1.435 . S
O406 C403 1.458 . S
O407 C359 1.468 . S
O407 C360 1.408 . S
H408 C349 0.980 . S
H409 C348 0.959 . S
H410 C348 0.959 . S
H411 C348 0.960 . S
H412 C351 0.929 . S
H413 C355 0.929 . S
H414 C356 0.959 . S
H415 C356 0.961 . S
H416 C356 0.961 . S
H417 C357 0.960 . S
H418 C357 0.960 . S
H419 C357 0.961 . S
H420 C359 0.980 . S
H421 C358 0.961 . S
H422 C358 0.960 . S
H423 C358 0.959 . S
H424 C361 0.930 . S
H425 C365 0.931 . S
H426 C366 0.959 . S
H427 C366 0.961 . S
H428 C366 0.959 . S
H429 C367 0.960 . S
H430 C367 0.960 . S
H431 C367 0.960 . S
H432 C403 0.980 . S
H433 C369 0.930 . S
H434 C373 0.930 . S
H435 C374 0.961 . S
H436 C374 0.960 . S
H437 C374 0.958 . S
H438 C375 0.961 . S
H439 C375 0.960 . S
H440 C375 0.960 . S
H441 C377 0.980 . S
H442 C376 0.961 . S
H443 C376 0.961 . S
H444 C376 0.959 . S
H445 C379 0.932 . S
H446 C383 0.929 . S
H447 C384 0.961 . S
H448 C384 0.959 . S
H449 C384 0.959 . S
H450 C385 0.960 . S
H451 C385 0.962 . S
H452 C385 0.961 . S
H453 C387 0.929 . S
H454 C390 0.930 . S
H455 C391 0.929 . S
H456 C394 0.930 . S
H457 C397 0.929 . S
H458 C398 0.930 . S
H459 C402 0.962 . S
H460 C402 0.959 . S
H461 C402 0.958 . S
C462 C463 1.560 . S
C462 H523 0.959 . S
C462 H524 0.959 . S
C462 H525 0.960 . S
C463 C462 1.560 . S
C463 O518 1.426 . S
C463 H522 0.980 . S
C464 C465 1.407 . S
C464 C469 1.418 . S
C464 O518 1.334 . S
C465 C464 1.407 . S
C465 C466 1.360 . S
C465 H526 0.929 . S
C466 C465 1.360 . S
C466 C467 1.401 . S
C466 C470 1.527 . S
C467 C466 1.401 . S
C467 C468 1.405 . S
C467 C500 1.587 . S
C468 C467 1.405 . S
C468 C469 1.332 . S
C468 C471 1.496 . S
C469 C464 1.418 . S
C469 C468 1.332 . S
C469 H527 0.929 . S
C470 C466 1.527 . S
C470 H528 0.959 . S
C470 H529 0.961 . S
C470 H530 0.961 . S
C471 C468 1.496 . S
C471 H531 0.960 . S
C471 H532 0.960 . S
C471 H533 0.961 . S
C472 C473 1.517 . S
C472 H535 0.961 . S
C472 H536 0.960 . S
C472 H537 0.959 . S
C473 C472 1.517 . S
C473 O521 1.468 . S
C473 H534 0.980 . S
C474 C475 1.349 . S
C474 C479 1.367 . S
C474 O521 1.408 . S
C475 C474 1.349 . S
C475 C476 1.407 . S
C475 H538 0.930 . S
C476 C475 1.407 . S
C476 C477 1.449 . S
C476 C480 1.535 . S
C477 C476 1.449 . S
C477 C478 1.384 . S
C477 C502 1.553 . S
C478 C477 1.384 . S
C478 C479 1.364 . S
C478 C481 1.450 . S
C479 C474 1.367 . S
C479 C478 1.364 . S
C479 H539 0.931 . S
C480 C476 1.535 . S
C480 H540 0.959 . S
C480 H541 0.961 . S
C480 H542 0.959 . S
C481 C478 1.450 . S
C481 H543 0.960 . S
C481 H544 0.960 . S
C481 H545 0.960 . S
C482 C483 1.309 . S
C482 C487 1.304 . S
C482 O520 1.435 . S
C483 C482 1.309 . S
C483 C484 1.476 . S
C483 H547 0.930 . S
C484 C483 1.476 . S
C484 C485 1.400 . S
C484 C488 1.567 . S
C485 C484 1.400 . S
C485 C486 1.373 . S
C485 C507 1.432 . S
C486 C485 1.373 . S
C486 C487 1.339 . S
C486 C489 1.530 . S
C487 C482 1.304 . S
C487 C486 1.339 . S
C487 H548 0.930 . S
C488 C484 1.567 . S
C488 H549 0.961 . S
C488 H550 0.960 . S
C488 H551 0.958 . S
C489 C486 1.530 . S
C489 H552 0.961 . S
C489 H553 0.960 . S
C489 H554 0.960 . S
C490 C491 1.530 . S
C490 H556 0.961 . S
C490 H557 0.961 . S
C490 H558 0.959 . S
C491 C490 1.530 . S
C491 O519 1.412 . S
C491 H555 0.980 . S
C492 C493 1.288 . S
C492 C497 1.377 . S
C492 O519 1.393 . S
C493 C492 1.288 . S
C493 C494 1.369 . S
C493 H559 0.932 . S
C494 C493 1.369 . S
C494 C495 1.398 . S
C494 C498 1.527 . S
C495 C494 1.398 . S
C495 C496 1.380 . S
C495 C509 1.497 . S
C496 C495 1.380 . S
C496 C497 1.383 . S
C496 C499 1.603 . S
C497 C492 1.377 . S
C497 C496 1.383 . S
C497 H560 0.929 . S
C498 C494 1.527 . S
C498 H561 0.961 . S
C498 H562 0.959 . S
C498 H563 0.959 . S
C499 C496 1.603 . S
C499 H564 0.960 . S
C499 H565 0.962 . S
C499 H566 0.961 . S
C500 C467 1.587 . S
C500 C501 1.360 . S
C500 C513 1.412 . S
C501 C500 1.360 . S
C501 C502 1.365 . S
C501 H567 0.929 . S
C502 C477 1.553 . S
C502 C501 1.365 . S
C502 C503 1.404 . S
C503 C502 1.404 . S
C503 C504 1.395 . S
C503 C514 1.451 . S
C504 C503 1.395 . S
C504 C505 1.322 . S
C504 H568 0.930 . S
C505 C504 1.322 . S
C505 C506 1.459 . S
C505 H569 0.929 . S
C506 C505 1.459 . S
C506 C507 1.445 . S
C506 C515 1.395 . S
C507 C485 1.432 . S
C507 C506 1.445 . S
C507 C508 1.370 . S
C508 C507 1.370 . S
C508 C509 1.438 . S
C508 H570 0.930 . S
C509 C495 1.497 . S
C509 C508 1.438 . S
C509 C510 1.360 . S
C510 C509 1.360 . S
C510 C511 1.401 . S
C510 C515 1.446 . S
C511 C510 1.401 . S
C511 C512 1.347 . S
C511 H571 0.929 . S
C512 C511 1.347 . S
C512 C513 1.455 . S
C512 H572 0.930 . S
C513 C500 1.412 . S
C513 C512 1.455 . S
C513 C514 1.331 . S
C514 C503 1.451 . S
C514 C513 1.331 . S
C514 C515 1.497 . S
C515 C506 1.395 . S
C515 C510 1.446 . S
C515 C514 1.497 . S
C516 C517 1.582 . S
C516 H573 0.962 . S
C516 H574 0.959 . S
C516 H575 0.958 . S
C517 C516 1.582 . S
C517 O520 1.458 . S
C517 H546 0.980 . S
O518 C463 1.426 . S
O518 C464 1.334 . S
O519 C491 1.412 . S
O519 C492 1.393 . S
O520 C482 1.435 . S
O520 C517 1.458 . S
O521 C473 1.468 . S
O521 C474 1.408 . S
H522 C463 0.980 . S
H523 C462 0.959 . S
H524 C462 0.959 . S
H525 C462 0.960 . S
H526 C465 0.929 . S
H527 C469 0.929 . S
H528 C470 0.959 . S
H529 C470 0.961 . S
H530 C470 0.961 . S
H531 C471 0.960 . S
H532 C471 0.960 . S
H533 C471 0.961 . S
H534 C473 0.980 . S
H535 C472 0.961 . S
H536 C472 0.960 . S
H537 C472 0.959 . S
H538 C475 0.930 . S
H539 C479 0.931 . S
H540 C480 0.959 . S
H541 C480 0.961 . S
H542 C480 0.959 . S
H543 C481 0.960 . S
H544 C481 0.960 . S
H545 C481 0.960 . S
H546 C517 0.980 . S
H547 C483 0.930 . S
H548 C487 0.930 . S
H549 C488 0.961 . S
H550 C488 0.960 . S
H551 C488 0.958 . S
H552 C489 0.961 . S
H553 C489 0.960 . S
H554 C489 0.960 . S
H555 C491 0.980 . S
H556 C490 0.961 . S
H557 C490 0.961 . S
H558 C490 0.959 . S
H559 C493 0.932 . S
H560 C497 0.929 . S
H561 C498 0.961 . S
H562 C498 0.959 . S
H563 C498 0.959 . S
H564 C499 0.960 . S
H565 C499 0.962 . S
H566 C499 0.961 . S
H567 C501 0.929 . S
H568 C504 0.930 . S
H569 C505 0.929 . S
H570 C508 0.930 . S
H571 C511 0.929 . S
H572 C512 0.930 . S
H573 C516 0.962 . S
H574 C516 0.959 . S
H575 C516 0.958 . S
C576 C577 1.560 . S
C576 H637 0.959 . S
C576 H638 0.959 . S
C576 H639 0.960 . S
C577 C576 1.560 . S
C577 O632 1.426 . S
C577 H636 0.980 . S
C578 C579 1.407 . S
C578 C583 1.418 . S
C578 O632 1.334 . S
C579 C578 1.407 . S
C579 C580 1.360 . S
C579 H640 0.929 . S
C580 C579 1.360 . S
C580 C581 1.401 . S
C580 C584 1.527 . S
C581 C580 1.401 . S
C581 C582 1.405 . S
C581 C614 1.587 . S
C582 C581 1.405 . S
C582 C583 1.332 . S
C582 C585 1.496 . S
C583 C578 1.418 . S
C583 C582 1.332 . S
C583 H641 0.929 . S
C584 C580 1.527 . S
C584 H642 0.959 . S
C584 H643 0.961 . S
C584 H644 0.961 . S
C585 C582 1.496 . S
C585 H645 0.960 . S
C585 H646 0.960 . S
C585 H647 0.961 . S
C586 C587 1.517 . S
C586 H649 0.961 . S
C586 H650 0.960 . S
C586 H651 0.959 . S
C587 C586 1.517 . S
C587 O635 1.468 . S
C587 H648 0.980 . S
C588 C589 1.349 . S
C588 C593 1.367 . S
C588 O635 1.408 . S
C589 C588 1.349 . S
C589 C590 1.407 . S
C589 H652 0.930 . S
C590 C589 1.407 . S
C590 C591 1.449 . S
C590 C594 1.535 . S
C591 C590 1.449 . S
C591 C592 1.384 . S
C591 C616 1.553 . S
C592 C591 1.384 . S
C592 C593 1.364 . S
C592 C595 1.450 . S
C593 C588 1.367 . S
C593 C592 1.364 . S
C593 H653 0.931 . S
C594 C590 1.535 . S
C594 H654 0.959 . S
C594 H655 0.961 . S
C594 H656 0.959 . S
C595 C592 1.450 . S
C595 H657 0.960 . S
C595 H658 0.960 . S
C595 H659 0.960 . S
C596 C597 1.309 . S
C596 C601 1.304 . S
C596 O634 1.435 . S
C597 C596 1.309 . S
C597 C598 1.476 . S
C597 H661 0.930 . S
C598 C597 1.476 . S
C598 C599 1.400 . S
C598 C602 1.567 . S
C599 C598 1.400 . S
C599 C600 1.373 . S
C599 C621 1.432 . S
C600 C599 1.373 . S
C600 C601 1.339 . S
C600 C603 1.530 . S
C601 C596 1.304 . S
C601 C600 1.339 . S
C601 H662 0.930 . S
C602 C598 1.567 . S
C602 H663 0.961 . S
C602 H664 0.960 . S
C602 H665 0.958 . S
C603 C600 1.530 . S
C603 H666 0.961 . S
C603 H667 0.960 . S
C603 H668 0.960 . S
C604 C605 1.530 . S
C604 H670 0.961 . S
C604 H671 0.961 . S
C604 H672 0.959 . S
C605 C604 1.530 . S
C605 O633 1.412 . S
C605 H669 0.980 . S
C606 C607 1.288 . S
C606 C611 1.377 . S
C606 O633 1.393 . S
C607 C606 1.288 . S
C607 C608 1.369 . S
C607 H673 0.932 . S
C608 C607 1.369 . S
C608 C609 1.398 . S
C608 C612 1.527 . S
C609 C608 1.398 . S
C609 C610 1.380 . S
C609 C623 1.497 . S
C610 C609 1.380 . S
C610 C611 1.383 . S
C610 C613 1.603 . S
C611 C606 1.377 . S
C611 C610 1.383 . S
C611 H674 0.929 . S
C612 C608 1.527 . S
C612 H675 0.961 . S
C612 H676 0.959 . S
C612 H677 0.959 . S
C613 C610 1.603 . S
C613 H678 0.960 . S
C613 H679 0.962 . S
C613 H680 0.961 . S
C614 C581 1.587 . S
C614 C615 1.360 . S
C614 C627 1.412 . S
C615 C614 1.360 . S
C615 C616 1.365 . S
C615 H681 0.929 . S
C616 C591 1.553 . S
C616 C615 1.365 . S
C616 C617 1.404 . S
C617 C616 1.404 . S
C617 C618 1.395 . S
C617 C628 1.451 . S
C618 C617 1.395 . S
C618 C619 1.322 . S
C618 H682 0.930 . S
C619 C618 1.322 . S
C619 C620 1.459 . S
C619 H683 0.929 . S
C620 C619 1.459 . S
C620 C621 1.445 . S
C620 C629 1.395 . S
C621 C599 1.432 . S
C621 C620 1.445 . S
C621 C622 1.370 . S
C622 C621 1.370 . S
C622 C623 1.438 . S
C622 H684 0.930 . S
C623 C609 1.497 . S
C623 C622 1.438 . S
C623 C624 1.360 . S
C624 C623 1.360 . S
C624 C625 1.401 . S
C624 C629 1.446 . S
C625 C624 1.401 . S
C625 C626 1.347 . S
C625 H685 0.929 . S
C626 C625 1.347 . S
C626 C627 1.455 . S
C626 H686 0.930 . S
C627 C614 1.412 . S
C627 C626 1.455 . S
C627 C628 1.331 . S
C628 C617 1.451 . S
C628 C627 1.331 . S
C628 C629 1.497 . S
C629 C620 1.395 . S
C629 C624 1.446 . S
C629 C628 1.497 . S
C630 C631 1.582 . S
C630 H687 0.962 . S
C630 H688 0.959 . S
C630 H689 0.958 . S
C631 C630 1.582 . S
C631 O634 1.458 . S
C631 H660 0.980 . S
O632 C577 1.426 . S
O632 C578 1.334 . S
O633 C605 1.412 . S
O633 C606 1.393 . S
O634 C596 1.435 . S
O634 C631 1.458 . S
O635 C587 1.468 . S
O635 C588 1.408 . S
H636 C577 0.980 . S
H637 C576 0.959 . S
H638 C576 0.959 . S
H639 C576 0.960 . S
H640 C579 0.929 . S
H641 C583 0.929 . S
H642 C584 0.959 . S
H643 C584 0.961 . S
H644 C584 0.961 . S
H645 C585 0.960 . S
H646 C585 0.960 . S
H647 C585 0.961 . S
H648 C587 0.980 . S
H649 C586 0.961 . S
H650 C586 0.960 . S
H651 C586 0.959 . S
H652 C589 0.930 . S
H653 C593 0.931 . S
H654 C594 0.959 . S
H655 C594 0.961 . S
H656 C594 0.959 . S
H657 C595 0.960 . S
H658 C595 0.960 . S
H659 C595 0.960 . S
H660 C631 0.980 . S
H661 C597 0.930 . S
H662 C601 0.930 . S
H663 C602 0.961 . S
H664 C602 0.960 . S
H665 C602 0.958 . S
H666 C603 0.961 . S
H667 C603 0.960 . S
H668 C603 0.960 . S
H669 C605 0.980 . S
H670 C604 0.961 . S
H671 C604 0.961 . S
H672 C604 0.959 . S
H673 C607 0.932 . S
H674 C611 0.929 . S
H675 C612 0.961 . S
H676 C612 0.959 . S
H677 C612 0.959 . S
H678 C613 0.960 . S
H679 C613 0.962 . S
H680 C613 0.961 . S
H681 C615 0.929 . S
H682 C618 0.930 . S
H683 C619 0.929 . S
H684 C622 0.930 . S
H685 C625 0.929 . S
H686 C626 0.930 . S
H687 C630 0.962 . S
H688 C630 0.959 . S
H689 C630 0.958 . S
C690 C691 1.560 . S
C690 H751 0.959 . S
C690 H752 0.959 . S
C690 H753 0.960 . S
C691 C690 1.560 . S
C691 O746 1.426 . S
C691 H750 0.980 . S
C692 C693 1.407 . S
C692 C697 1.418 . S
C692 O746 1.334 . S
C693 C692 1.407 . S
C693 C694 1.360 . S
C693 H754 0.929 . S
C694 C693 1.360 . S
C694 C695 1.401 . S
C694 C698 1.527 . S
C695 C694 1.401 . S
C695 C696 1.405 . S
C695 C728 1.587 . S
C696 C695 1.405 . S
C696 C697 1.332 . S
C696 C699 1.496 . S
C697 C692 1.418 . S
C697 C696 1.332 . S
C697 H755 0.929 . S
C698 C694 1.527 . S
C698 H756 0.959 . S
C698 H757 0.961 . S
C698 H758 0.961 . S
C699 C696 1.496 . S
C699 H759 0.960 . S
C699 H760 0.960 . S
C699 H761 0.961 . S
C700 C701 1.517 . S
C700 H763 0.961 . S
C700 H764 0.960 . S
C700 H765 0.959 . S
C701 C700 1.517 . S
C701 O749 1.468 . S
C701 H762 0.980 . S
C702 C703 1.349 . S
C702 C707 1.367 . S
C702 O749 1.408 . S
C703 C702 1.349 . S
C703 C704 1.407 . S
C703 H766 0.930 . S
C704 C703 1.407 . S
C704 C705 1.449 . S
C704 C708 1.535 . S
C705 C704 1.449 . S
C705 C706 1.384 . S
C705 C730 1.553 . S
C706 C705 1.384 . S
C706 C707 1.364 . S
C706 C709 1.450 . S
C707 C702 1.367 . S
C707 C706 1.364 . S
C707 H767 0.931 . S
C708 C704 1.535 . S
C708 H768 0.959 . S
C708 H769 0.961 . S
C708 H770 0.959 . S
C709 C706 1.450 . S
C709 H771 0.960 . S
C709 H772 0.960 . S
C709 H773 0.960 . S
C710 C711 1.309 . S
C710 C715 1.304 . S
C710 O748 1.435 . S
C711 C710 1.309 . S
C711 C712 1.476 . S
C711 H775 0.930 . S
C712 C711 1.476 . S
C712 C713 1.400 . S
C712 C716 1.567 . S
C713 C712 1.400 . S
C713 C714 1.373 . S
C713 C735 1.432 . S
C714 C713 1.373 . S
C714 C715 1.339 . S
C714 C717 1.530 . S
C715 C710 1.304 . S
C715 C714 1.339 . S
C715 H776 0.930 . S
C716 C712 1.567 . S
C716 H777 0.961 . S
C716 H778 0.960 . S
C716 H779 0.958 . S
C717 C714 1.530 . S
C717 H780 0.961 . S
C717 H781 0.960 . S
C717 H782 0.960 . S
C718 C719 1.530 . S
C718 H784 0.961 . S
C718 H785 0.961 . S
C718 H786 0.959 . S
C719 C718 1.530 . S
C719 O747 1.412 . S
C719 H783 0.980 . S
C720 C721 1.288 . S
C720 C725 1.377 . S
C720 O747 1.393 . S
C721 C720 1.288 . S
C721 C722 1.369 . S
C721 H787 0.932 . S
C722 C721 1.369 . S
C722 C723 1.398 . S
C722 C726 1.527 . S
C723 C722 1.398 . S
C723 C724 1.380 . S
C723 C737 1.497 . S
C724 C723 1.380 . S
C724 C725 1.383 . S
C724 C727 1.603 . S
C725 C720 1.377 . S
C725 C724 1.383 . S
C725 H788 0.929 . S
C726 C722 1.527 . S
C726 H789 0.961 . S
C726 H790 0.959 . S
C726 H791 0.959 . S
C727 C724 1.603 . S
C727 H792 0.960 . S
C727 H793 0.962 . S
C727 H794 0.961 . S
C728 C695 1.587 . S
C728 C729 1.360 . S
C728 C741 1.412 . S
C729 C728 1.360 . S
C729 C730 1.365 . S
C729 H795 0.929 . S
C730 C705 1.553 . S
C730 C729 1.365 . S
C730 C731 1.404 . S
C731 C730 1.404 . S
C731 C732 1.395 . S
C731 C742 1.451 . S
C732 C731 1.395 . S
C732 C733 1.322 . S
C732 H796 0.930 . S
C733 C732 1.322 . S
C733 C734 1.459 . S
C733 H797 0.929 . S
C734 C733 1.459 . S
C734 C735 1.445 . S
C734 C743 1.395 . S
C735 C713 1.432 . S
C735 C734 1.445 . S
C735 C736 1.370 . S
C736 C735 1.370 . S
C736 C737 1.438 . S
C736 H798 0.930 . S
C737 C723 1.497 . S
C737 C736 1.438 . S
C737 C738 1.360 . S
C738 C737 1.360 . S
C738 C739 1.401 . S
C738 C743 1.446 . S
C739 C738 1.401 . S
C739 C740 1.347 . S
C739 H799 0.929 . S
C740 C739 1.347 . S
C740 C741 1.455 . S
C740 H800 0.930 . S
C741 C728 1.412 . S
C741 C740 1.455 . S
C741 C742 1.331 . S
C742 C731 1.451 . S
C742 C741 1.331 . S
C742 C743 1.497 . S
C743 C734 1.395 . S
C743 C738 1.446 . S
C743 C742 1.497 . S
C744 C745 1.582 . S
C744 H801 0.962 . S
C744 H802 0.959 . S
C744 H803 0.958 . S
C745 C744 1.582 . S
C745 O748 1.458 . S
C745 H774 0.980 . S
O746 C691 1.426 . S
O746 C692 1.334 . S
O747 C719 1.412 . S
O747 C720 1.393 . S
O748 C710 1.435 . S
O748 C745 1.458 . S
O749 C701 1.468 . S
O749 C702 1.408 . S
H750 C691 0.980 . S
H751 C690 0.959 . S
H752 C690 0.959 . S
H753 C690 0.960 . S
H754 C693 0.929 . S
H755 C697 0.929 . S
H756 C698 0.959 . S
H757 C698 0.961 . S
H758 C698 0.961 . S
H759 C699 0.960 . S
H760 C699 0.960 . S
H761 C699 0.961 . S
H762 C701 0.980 . S
H763 C700 0.961 . S
H764 C700 0.960 . S
H765 C700 0.959 . S
H766 C703 0.930 . S
H767 C707 0.931 . S
H768 C708 0.959 . S
H769 C708 0.961 . S
H770 C708 0.959 . S
H771 C709 0.960 . S
H772 C709 0.960 . S
H773 C709 0.960 . S
H774 C745 0.980 . S
H775 C711 0.930 . S
H776 C715 0.930 . S
H777 C716 0.961 . S
H778 C716 0.960 . S
H779 C716 0.958 . S
H780 C717 0.961 . S
H781 C717 0.960 . S
H782 C717 0.960 . S
H783 C719 0.980 . S
H784 C718 0.961 . S
H785 C718 0.961 . S
H786 C718 0.959 . S
H787 C721 0.932 . S
H788 C725 0.929 . S
H789 C726 0.961 . S
H790 C726 0.959 . S
H791 C726 0.959 . S
H792 C727 0.960 . S
H793 C727 0.962 . S
H794 C727 0.961 . S
H795 C729 0.929 . S
H796 C732 0.930 . S
H797 C733 0.929 . S
H798 C736 0.930 . S
H799 C739 0.929 . S
H800 C740 0.930 . S
H801 C744 0.962 . S
H802 C744 0.959 . S
H803 C744 0.958 . S
C804 C805 1.560 . S
C804 H865 0.959 . S
C804 H866 0.959 . S
C804 H867 0.960 . S
C805 C804 1.560 . S
C805 O860 1.426 . S
C805 H864 0.980 . S
C806 C807 1.407 . S
C806 C811 1.418 . S
C806 O860 1.334 . S
C807 C806 1.407 . S
C807 C808 1.360 . S
C807 H868 0.929 . S
C808 C807 1.360 . S
C808 C809 1.401 . S
C808 C812 1.527 . S
C809 C808 1.401 . S
C809 C810 1.405 . S
C809 C842 1.587 . S
C810 C809 1.405 . S
C810 C811 1.332 . S
C810 C813 1.496 . S
C811 C806 1.418 . S
C811 C810 1.332 . S
C811 H869 0.929 . S
C812 C808 1.527 . S
C812 H870 0.959 . S
C812 H871 0.961 . S
C812 H872 0.961 . S
C813 C810 1.496 . S
C813 H873 0.960 . S
C813 H874 0.960 . S
C813 H875 0.961 . S
C814 C815 1.517 . S
C814 H877 0.961 . S
C814 H878 0.960 . S
C814 H879 0.959 . S
C815 C814 1.517 . S
C815 O863 1.468 . S
C815 H876 0.980 . S
C816 C817 1.349 . S
C816 C821 1.367 . S
C816 O863 1.408 . S
C817 C816 1.349 . S
C817 C818 1.407 . S
C817 H880 0.930 . S
C818 C817 1.407 . S
C818 C819 1.449 . S
C818 C822 1.535 . S
C819 C818 1.449 . S
C819 C820 1.384 . S
C819 C844 1.553 . S
C820 C819 1.384 . S
C820 C821 1.364 . S
C820 C823 1.450 . S
C821 C816 1.367 . S
C821 C820 1.364 . S
C821 H881 0.931 . S
C822 C818 1.535 . S
C822 H882 0.959 . S
C822 H883 0.961 . S
C822 H884 0.959 . S
C823 C820 1.450 . S
C823 H885 0.960 . S
C823 H886 0.960 . S
C823 H887 0.960 . S
C824 C825 1.309 . S
C824 C829 1.304 . S
C824 O862 1.435 . S
C825 C824 1.309 . S
C825 C826 1.476 . S
C825 H889 0.930 . S
C826 C825 1.476 . S
C826 C827 1.400 . S
C826 C830 1.567 . S
C827 C826 1.400 . S
C827 C828 1.373 . S
C827 C849 1.432 . S
C828 C827 1.373 . S
C828 C829 1.339 . S
C828 C831 1.530 . S
C829 C824 1.304 . S
C829 C828 1.339 . S
C829 H890 0.930 . S
C830 C826 1.567 . S
C830 H891 0.961 . S
C830 H892 0.960 . S
C830 H893 0.958 . S
C831 C828 1.530 . S
C831 H894 0.961 . S
C831 H895 0.960 . S
C831 H896 0.960 . S
C832 C833 1.530 . S
C832 H898 0.961 . S
C832 H899 0.961 . S
C832 H900 0.959 . S
C833 C832 1.530 . S
C833 O861 1.412 . S
C833 H897 0.980 . S
C834 C835 1.288 . S
C834 C839 1.377 . S
C834 O861 1.393 . S
C835 C834 1.288 . S
C835 C836 1.369 . S
C835 H901 0.932 . S
C836 C835 1.369 . S
C836 C837 1.398 . S
C836 C840 1.527 . S
C837 C836 1.398 . S
C837 C838 1.380 . S
C837 C851 1.497 . S
C838 C837 1.380 . S
C838 C839 1.383 . S
C838 C841 1.603 . S
C839 C834 1.377 . S
C839 C838 1.383 . S
C839 H902 0.929 . S
C840 C836 1.527 . S
C840 H903 0.961 . S
C840 H904 0.959 . S
C840 H905 0.959 . S
C841 C838 1.603 . S
C841 H906 0.960 . S
C841 H907 0.962 . S
C841 H908 0.961 . S
C842 C809 1.587 . S
C842 C843 1.360 . S
C842 C855 1.412 . S
C843 C842 1.360 . S
C843 C844 1.365 . S
C843 H909 0.929 . S
C844 C819 1.553 . S
C844 C843 1.365 . S
C844 C845 1.404 . S
C845 C844 1.404 . S
C845 C846 1.395 . S
C845 C856 1.451 . S
C846 C845 1.395 . S
C846 C847 1.322 . S
C846 H910 0.930 . S
C847 C846 1.322 . S
C847 C848 1.459 . S
C847 H911 0.929 . S
C848 C847 1.459 . S
C848 C849 1.445 . S
C848 C857 1.395 . S
C849 C827 1.432 . S
C849 C848 1.445 . S
C849 C850 1.370 . S
C850 C849 1.370 . S
C850 C851 1.438 . S
C850 H912 0.930 . S
C851 C837 1.497 . S
C851 C850 1.438 . S
C851 C852 1.360 . S
C852 C851 1.360 . S
C852 C853 1.401 . S
C852 C857 1.446 . S
C853 C852 1.401 . S
C853 C854 1.347 . S
C853 H913 0.929 . S
C854 C853 1.347 . S
C854 C855 1.455 . S
C854 H914 0.930 . S
C855 C842 1.412 . S
C855 C854 1.455 . S
C855 C856 1.331 . S
C856 C845 1.451 . S
C856 C855 1.331 . S
C856 C857 1.497 . S
C857 C848 1.395 . S
C857 C852 1.446 . S
C857 C856 1.497 . S
C858 C859 1.582 . S
C858 H915 0.962 . S
C858 H916 0.959 . S
C858 H917 0.958 . S
C859 C858 1.582 . S
C859 O862 1.458 . S
C859 H888 0.980 . S
O860 C805 1.426 . S
O860 C806 1.334 . S
O861 C833 1.412 . S
O861 C834 1.393 . S
O862 C824 1.435 . S
O862 C859 1.458 . S
O863 C815 1.468 . S
O863 C816 1.408 . S
H864 C805 0.980 . S
H865 C804 0.959 . S
H866 C804 0.959 . S
H867 C804 0.960 . S
H868 C807 0.929 . S
H869 C811 0.929 . S
H870 C812 0.959 . S
H871 C812 0.961 . S
H872 C812 0.961 . S
H873 C813 0.960 . S
H874 C813 0.960 . S
H875 C813 0.961 . S
H876 C815 0.980 . S
H877 C814 0.961 . S
H878 C814 0.960 . S
H879 C814 0.959 . S
H880 C817 0.930 . S
H881 C821 0.931 . S
H882 C822 0.959 . S
H883 C822 0.961 . S
H884 C822 0.959 . S
H885 C823 0.960 . S
H886 C823 0.960 . S
H887 C823 0.960 . S
H888 C859 0.980 . S
H889 C825 0.930 . S
H890 C829 0.930 . S
H891 C830 0.961 . S
H892 C830 0.960 . S
H893 C830 0.958 . S
H894 C831 0.961 . S
H895 C831 0.960 . S
H896 C831 0.960 . S
H897 C833 0.980 . S
H898 C832 0.961 . S
H899 C832 0.961 . S
H900 C832 0.959 . S
H901 C835 0.932 . S
H902 C839 0.929 . S
H903 C840 0.961 . S
H904 C840 0.959 . S
H905 C840 0.959 . S
H906 C841 0.960 . S
H907 C841 0.962 . S
H908 C841 0.961 . S
H909 C843 0.929 . S
H910 C846 0.930 . S
H911 C847 0.929 . S
H912 C850 0.930 . S
H913 C853 0.929 . S
H914 C854 0.930 . S
H915 C858 0.962 . S
H916 C858 0.959 . S
H917 C858 0.958 . S
C918 C919 1.560 . S
C918 H979 0.959 . S
C918 H980 0.959 . S
C918 H981 0.960 . S
C919 C918 1.560 . S
C919 O974 1.426 . S
C919 H978 0.980 . S
C920 C921 1.407 . S
C920 C925 1.418 . S
C920 O974 1.334 . S
C921 C920 1.407 . S
C921 C922 1.360 . S
C921 H982 0.929 . S
C922 C921 1.360 . S
C922 C923 1.401 . S
C922 C926 1.527 . S
C923 C922 1.401 . S
C923 C924 1.405 . S
C923 C956 1.587 . S
C924 C923 1.405 . S
C924 C925 1.332 . S
C924 C927 1.496 . S
C925 C920 1.418 . S
C925 C924 1.332 . S
C925 H983 0.929 . S
C926 C922 1.527 . S
C926 H984 0.959 . S
C926 H985 0.961 . S
C926 H986 0.961 . S
C927 C924 1.496 . S
C927 H987 0.960 . S
C927 H988 0.960 . S
C927 H989 0.961 . S
C928 C929 1.517 . S
C928 H991 0.961 . S
C928 H992 0.960 . S
C928 H993 0.959 . S
C929 C928 1.517 . S
C929 O977 1.468 . S
C929 H990 0.980 . S
C930 C931 1.349 . S
C930 C935 1.367 . S
C930 O977 1.408 . S
C931 C930 1.349 . S
C931 C932 1.407 . S
C931 H994 0.930 . S
C932 C931 1.407 . S
C932 C933 1.449 . S
C932 C936 1.535 . S
C933 C932 1.449 . S
C933 C934 1.384 . S
C933 C958 1.553 . S
C934 C933 1.384 . S
C934 C935 1.364 . S
C934 C937 1.450 . S
C935 C930 1.367 . S
C935 C934 1.364 . S
C935 H995 0.931 . S
C936 C932 1.535 . S
C936 H996 0.959 . S
C936 H997 0.961 . S
C936 H998 0.959 . S
C937 C934 1.450 . S
C937 H999 0.960 . S
C937 H1000 0.960 . S
C937 H1001 0.960 . S
C938 C939 1.309 . S
C938 C943 1.304 . S
C938 O976 1.435 . S
C939 C938 1.309 . S
C939 C940 1.476 . S
C939 H1003 0.930 . S
C940 C939 1.476 . S
C940 C941 1.400 . S
C940 C944 1.567 . S
C941 C940 1.400 . S
C941 C942 1.373 . S
C941 C963 1.432 . S
C942 C941 1.373 . S
C942 C943 1.339 . S
C942 C945 1.530 . S
C943 C938 1.304 . S
C943 C942 1.339 . S
C943 H1004 0.930 . S
C944 C940 1.567 . S
C944 H1005 0.961 . S
C944 H1006 0.960 . S
C944 H1007 0.958 . S
C945 C942 1.530 . S
C945 H1008 0.961 . S
C945 H1009 0.960 . S
C945 H1010 0.960 . S
C946 C947 1.530 . S
C946 H1012 0.961 . S
C946 H1013 0.961 . S
C946 H1014 0.959 . S
C947 C946 1.530 . S
C947 O975 1.412 . S
C947 H1011 0.980 . S
C948 C949 1.288 . S
C948 C953 1.377 . S
C948 O975 1.393 . S
C949 C948 1.288 . S
C949 C950 1.369 . S
C949 H1015 0.932 . S
C950 C949 1.369 . S
C950 C951 1.398 . S
C950 C954 1.527 . S
C951 C950 1.398 . S
C951 C952 1.380 . S
C951 C965 1.497 . S
C952 C951 1.380 . S
C952 C953 1.383 . S
C952 C955 1.603 . S
C953 C948 1.377 . S
C953 C952 1.383 . S
C953 H1016 0.929 . S
C954 C950 1.527 . S
C954 H1017 0.961 . S
C954 H1018 0.959 . S
C954 H1019 0.959 . S
C955 C952 1.603 . S
C955 H1020 0.960 . S
C955 H1021 0.962 . S
C955 H1022 0.961 . S
C956 C923 1.587 . S
C956 C957 1.360 . S
C956 C969 1.412 . S
C957 C956 1.360 . S
C957 C958 1.365 . S
C957 H1023 0.929 . S
C958 C933 1.553 . S
C958 C957 1.365 . S
C958 C959 1.404 . S
C959 C958 1.404 . S
C959 C960 1.395 . S
C959 C970 1.451 . S
C960 C959 1.395 . S
C960 C961 1.322 . S
C960 H1024 0.930 . S
C961 C960 1.322 . S
C961 C962 1.459 . S
C961 H1025 0.929 . S
C962 C961 1.459 . S
C962 C963 1.445 . S
C962 C971 1.395 . S
C963 C941 1.432 . S
C963 C962 1.445 . S
C963 C964 1.370 . S
C964 C963 1.370 . S
C964 C965 1.438 . S
C964 H1026 0.930 . S
C965 C951 1.497 . S
C965 C964 1.438 . S
C965 C966 1.360 . S
C966 C965 1.360 . S
C966 C967 1.401 . S
C966 C971 1.446 . S
C967 C966 1.401 . S
C967 C968 1.347 . S
C967 H1027 0.929 . S
C968 C967 1.347 . S
C968 C969 1.455 . S
C968 H1028 0.930 . S
C969 C956 1.412 . S
C969 C968 1.455 . S
C969 C970 1.331 . S
C970 C959 1.451 . S
C970 C969 1.331 . S
C970 C971 1.497 . S
C971 C962 1.395 . S
C971 C966 1.446 . S
C971 C970 1.497 . S
C972 C973 1.582 . S
C972 H1029 0.962 . S
C972 H1030 0.959 . S
C972 H1031 0.958 . S
C973 C972 1.582 . S
C973 O976 1.458 . S
C973 H1002 0.980 . S
O974 C919 1.426 . S
O974 C920 1.334 . S
O975 C947 1.412 . S
O975 C948 1.393 . S
O976 C938 1.435 . S
O976 C973 1.458 . S
O977 C929 1.468 . S
O977 C930 1.408 . S
H978 C919 0.980 . S
H979 C918 0.959 . S
H980 C918 0.959 . S
H981 C918 0.960 . S
H982 C921 0.929 . S
H983 C925 0.929 . S
H984 C926 0.959 . S
H985 C926 0.961 . S
H986 C926 0.961 . S
H987 C927 0.960 . S
H988 C927 0.960 . S
H989 C927 0.961 . S
H990 C929 0.980 . S
H991 C928 0.961 . S
H992 C928 0.960 . S
H993 C928 0.959 . S
H994 C931 0.930 . S
H995 C935 0.931 . S
H996 C936 0.959 . S
H997 C936 0.961 . S
H998 C936 0.959 . S
H999 C937 0.960 . S
H1000 C937 0.960 . S
H1001 C937 0.960 . S
H1002 C973 0.980 . S
H1003 C939 0.930 . S
H1004 C943 0.930 . S
H1005 C944 0.961 . S
H1006 C944 0.960 . S
H1007 C944 0.958 . S
H1008 C945 0.961 . S
H1009 C945 0.960 . S
H1010 C945 0.960 . S
H1011 C947 0.980 . S
H1012 C946 0.961 . S
H1013 C946 0.961 . S
H1014 C946 0.959 . S
H1015 C949 0.932 . S
H1016 C953 0.929 . S
H1017 C954 0.961 . S
H1018 C954 0.959 . S
H1019 C954 0.959 . S
H1020 C955 0.960 . S
H1021 C955 0.962 . S
H1022 C955 0.961 . S
H1023 C957 0.929 . S
H1024 C960 0.930 . S
H1025 C961 0.929 . S
H1026 C964 0.930 . S
H1027 C967 0.929 . S
H1028 C968 0.930 . S
H1029 C972 0.962 . S
H1030 C972 0.959 . S
H1031 C972 0.958 . S
C1032 C1033 1.560 . S
C1032 H1093 0.959 . S
C1032 H1094 0.959 . S
C1032 H1095 0.960 . S
C1033 C1032 1.560 . S
C1033 O1088 1.426 . S
C1033 H1092 0.980 . S
C1034 C1035 1.407 . S
C1034 C1039 1.418 . S
C1034 O1088 1.334 . S
C1035 C1034 1.407 . S
C1035 C1036 1.360 . S
C1035 H1096 0.929 . S
C1036 C1035 1.360 . S
C1036 C1037 1.401 . S
C1036 C1040 1.527 . S
C1037 C1036 1.401 . S
C1037 C1038 1.405 . S
C1037 C1070 1.587 . S
C1038 C1037 1.405 . S
C1038 C1039 1.332 . S
C1038 C1041 1.496 . S
C1039 C1034 1.418 . S
C1039 C1038 1.332 . S
C1039 H1097 0.929 . S
C1040 C1036 1.527 . S
C1040 H1098 0.959 . S
C1040 H1099 0.961 . S
C1040 H1100 0.961 . S
C1041 C1038 1.496 . S
C1041 H1101 0.960 . S
C1041 H1102 0.960 . S
C1041 H1103 0.961 . S
C1042 C1043 1.517 . S
C1042 H1105 0.961 . S
C1042 H1106 0.960 . S
C1042 H1107 0.959 . S
C1043 C1042 1.517 . S
C1043 O1091 1.468 . S
C1043 H1104 0.980 . S
C1044 C1045 1.349 . S
C1044 C1049 1.367 . S
C1044 O1091 1.408 . S
C1045 C1044 1.349 . S
C1045 C1046 1.407 . S
C1045 H1108 0.930 . S
C1046 C1045 1.407 . S
C1046 C1047 1.449 . S
C1046 C1050 1.535 . S
C1047 C1046 1.449 . S
C1047 C1048 1.384 . S
C1047 C1072 1.553 . S
C1048 C1047 1.384 . S
C1048 C1049 1.364 . S
C1048 C1051 1.450 . S
C1049 C1044 1.367 . S
C1049 C1048 1.364 . S
C1049 H1109 0.931 . S
C1050 C1046 1.535 . S
C1050 H1110 0.959 . S
C1050 H1111 0.961 . S
C1050 H1112 0.959 . S
C1051 C1048 1.450 . S
C1051 H1113 0.960 . S
C1051 H1114 0.960 . S
C1051 H1115 0.960 . S
C1052 C1053 1.309 . S
C1052 C1057 1.304 . S
C1052 O1090 1.435 . S
C1053 C1052 1.309 . S
C1053 C1054 1.476 . S
C1053 H1117 0.930 . S
C1054 C1053 1.476 . S
C1054 C1055 1.400 . S
C1054 C1058 1.567 . S
C1055 C1054 1.400 . S
C1055 C1056 1.373 . S
C1055 C1077 1.432 . S
C1056 C1055 1.373 . S
C1056 C1057 1.339 . S
C1056 C1059 1.530 . S
C1057 C1052 1.304 . S
C1057 C1056 1.339 . S
C1057 H1118 0.930 . S
C1058 C1054 1.567 . S
C1058 H1119 0.961 . S
C1058 H1120 0.960 . S
C1058 H1121 0.958 . S
C1059 C1056 1.530 . S
C1059 H1122 0.961 . S
C1059 H1123 0.960 . S
C1059 H1124 0.960 . S
C1060 C1061 1.530 . S
C1060 H1126 0.961 . S
C1060 H1127 0.961 . S
C1060 H1128 0.959 . S
C1061 C1060 1.530 . S
C1061 O1089 1.412 . S
C1061 H1125 0.980 . S
C1062 C1063 1.288 . S
C1062 C1067 1.377 . S
C1062 O1089 1.393 . S
C1063 C1062 1.288 . S
C1063 C1064 1.369 . S
C1063 H1129 0.932 . S
C1064 C1063 1.369 . S
C1064 C1065 1.398 . S
C1064 C1068 1.527 . S
C1065 C1064 1.398 . S
C1065 C1066 1.380 . S
C1065 C1079 1.497 . S
C1066 C1065 1.380 . S
C1066 C1067 1.383 . S
C1066 C1069 1.603 . S
C1067 C1062 1.377 . S
C1067 C1066 1.383 . S
C1067 H1130 0.929 . S
C1068 C1064 1.527 . S
C1068 H1131 0.961 . S
C1068 H1132 0.959 . S
C1068 H1133 0.959 . S
C1069 C1066 1.603 . S
C1069 H1134 0.960 . S
C1069 H1135 0.962 . S
C1069 H1136 0.961 . S
C1070 C1037 1.587 . S
C1070 C1071 1.360 . S
C1070 C1083 1.412 . S
C1071 C1070 1.360 . S
C1071 C1072 1.365 . S
C1071 H1137 0.929 . S
C1072 C1047 1.553 . S
C1072 C1071 1.365 . S
C1072 C1073 1.404 . S
C1073 C1072 1.404 . S
C1073 C1074 1.395 . S
C1073 C1084 1.451 . S
C1074 C1073 1.395 . S
C1074 C1075 1.322 . S
C1074 H1138 0.930 . S
C1075 C1074 1.322 . S
C1075 C1076 1.459 . S
C1075 H1139 0.929 . S
C1076 C1075 1.459 . S
C1076 C1077 1.445 . S
C1076 C1085 1.395 . S
C1077 C1055 1.432 . S
C1077 C1076 1.445 . S
C1077 C1078 1.370 . S
C1078 C1077 1.370 . S
C1078 C1079 1.438 . S
C1078 H1140 0.930 . S
C1079 C1065 1.497 . S
C1079 C1078 1.438 . S
C1079 C1080 1.360 . S
C1080 C1079 1.360 . S
C1080 C1081 1.401 . S
C1080 C1085 1.446 . S
C1081 C1080 1.401 . S
C1081 C1082 1.347 . S
C1081 H1141 0.929 . S
C1082 C1081 1.347 . S
C1082 C1083 1.455 . S
C1082 H1142 0.930 . S
C1083 C1070 1.412 . S
C1083 C1082 1.455 . S
C1083 C1084 1.331 . S
C1084 C1073 1.451 . S
C1084 C1083 1.331 . S
C1084 C1085 1.497 . S
C1085 C1076 1.395 . S
C1085 C1080 1.446 . S
C1085 C1084 1.497 . S
C1086 C1087 1.582 . S
C1086 H1143 0.962 . S
C1086 H1144 0.959 . S
C1086 H1145 0.958 . S
C1087 C1086 1.582 . S
C1087 O1090 1.458 . S
C1087 H1116 0.980 . S
O1088 C1033 1.426 . S
O1088 C1034 1.334 . S
O1089 C1061 1.412 . S
O1089 C1062 1.393 . S
O1090 C1052 1.435 . S
O1090 C1087 1.458 . S
O1091 C1043 1.468 . S
O1091 C1044 1.408 . S
H1092 C1033 0.980 . S
H1093 C1032 0.959 . S
H1094 C1032 0.959 . S
H1095 C1032 0.960 . S
H1096 C1035 0.929 . S
H1097 C1039 0.929 . S
H1098 C1040 0.959 . S
H1099 C1040 0.961 . S
H1100 C1040 0.961 . S
H1101 C1041 0.960 . S
H1102 C1041 0.960 . S
H1103 C1041 0.961 . S
H1104 C1043 0.980 . S
H1105 C1042 0.961 . S
H1106 C1042 0.960 . S
H1107 C1042 0.959 . S
H1108 C1045 0.930 . S
H1109 C1049 0.931 . S
H1110 C1050 0.959 . S
H1111 C1050 0.961 . S
H1112 C1050 0.959 . S
H1113 C1051 0.960 . S
H1114 C1051 0.960 . S
H1115 C1051 0.960 . S
H1116 C1087 0.980 . S
H1117 C1053 0.930 . S
H1118 C1057 0.930 . S
H1119 C1058 0.961 . S
H1120 C1058 0.960 . S
H1121 C1058 0.958 . S
H1122 C1059 0.961 . S
H1123 C1059 0.960 . S
H1124 C1059 0.960 . S
H1125 C1061 0.980 . S
H1126 C1060 0.961 . S
H1127 C1060 0.961 . S
H1128 C1060 0.959 . S
H1129 C1063 0.932 . S
H1130 C1067 0.929 . S
H1131 C1068 0.961 . S
H1132 C1068 0.959 . S
H1133 C1068 0.959 . S
H1134 C1069 0.960 . S
H1135 C1069 0.962 . S
H1136 C1069 0.961 . S
H1137 C1071 0.929 . S
H1138 C1074 0.930 . S
H1139 C1075 0.929 . S
H1140 C1078 0.930 . S
H1141 C1081 0.929 . S
H1142 C1082 0.930 . S
H1143 C1086 0.962 . S
H1144 C1086 0.959 . S
H1145 C1086 0.958 . S
C1146 C1147 1.560 . S
C1146 H1207 0.959 . S
C1146 H1208 0.959 . S
C1146 H1209 0.960 . S
C1147 C1146 1.560 . S
C1147 O1202 1.426 . S
C1147 H1206 0.980 . S
C1148 C1149 1.407 . S
C1148 C1153 1.418 . S
C1148 O1202 1.334 . S
C1149 C1148 1.407 . S
C1149 C1150 1.360 . S
C1149 H1210 0.929 . S
C1150 C1149 1.360 . S
C1150 C1151 1.401 . S
C1150 C1154 1.527 . S
C1151 C1150 1.401 . S
C1151 C1152 1.405 . S
C1151 C1184 1.587 . S
C1152 C1151 1.405 . S
C1152 C1153 1.332 . S
C1152 C1155 1.496 . S
C1153 C1148 1.418 . S
C1153 C1152 1.332 . S
C1153 H1211 0.929 . S
C1154 C1150 1.527 . S
C1154 H1212 0.959 . S
C1154 H1213 0.961 . S
C1154 H1214 0.961 . S
C1155 C1152 1.496 . S
C1155 H1215 0.960 . S
C1155 H1216 0.960 . S
C1155 H1217 0.961 . S
C1156 C1157 1.517 . S
C1156 H1219 0.961 . S
C1156 H1220 0.960 . S
C1156 H1221 0.959 . S
C1157 C1156 1.517 . S
C1157 O1205 1.468 . S
C1157 H1218 0.980 . S
C1158 C1159 1.349 . S
C1158 C1163 1.367 . S
C1158 O1205 1.408 . S
C1159 C1158 1.349 . S
C1159 C1160 1.407 . S
C1159 H1222 0.930 . S
C1160 C1159 1.407 . S
C1160 C1161 1.449 . S
C1160 C1164 1.535 . S
C1161 C1160 1.449 . S
C1161 C1162 1.384 . S
C1161 C1186 1.553 . S
C1162 C1161 1.384 . S
C1162 C1163 1.364 . S
C1162 C1165 1.450 . S
C1163 C1158 1.367 . S
C1163 C1162 1.364 . S
C1163 H1223 0.931 . S
C1164 C1160 1.535 . S
C1164 H1224 0.959 . S
C1164 H1225 0.961 . S
C1164 H1226 0.959 . S
C1165 C1162 1.450 . S
C1165 H1227 0.960 . S
C1165 H1228 0.960 . S
C1165 H1229 0.960 . S
C1166 C1167 1.309 . S
C1166 C1171 1.304 . S
C1166 O1204 1.435 . S
C1167 C1166 1.309 . S
C1167 C1168 1.476 . S
C1167 H1231 0.930 . S
C1168 C1167 1.476 . S
C1168 C1169 1.400 . S
C1168 C1172 1.567 . S
C1169 C1168 1.400 . S
C1169 C1170 1.373 . S
C1169 C1191 1.432 . S
C1170 C1169 1.373 . S
C1170 C1171 1.339 . S
C1170 C1173 1.530 . S
C1171 C1166 1.304 . S
C1171 C1170 1.339 . S
C1171 H1232 0.930 . S
C1172 C1168 1.567 . S
C1172 H1233 0.961 . S
C1172 H1234 0.960 . S
C1172 H1235 0.958 . S
C1173 C1170 1.530 . S
C1173 H1236 0.961 . S
C1173 H1237 0.960 . S
C1173 H1238 0.960 . S
C1174 C1175 1.530 . S
C1174 H1240 0.961 . S
C1174 H1241 0.961 . S
C1174 H1242 0.959 . S
C1175 C1174 1.530 . S
C1175 O1203 1.412 . S
C1175 H1239 0.980 . S
C1176 C1177 1.288 . S
C1176 C1181 1.377 . S
C1176 O1203 1.393 . S
C1177 C1176 1.288 . S
C1177 C1178 1.369 . S
C1177 H1243 0.932 . S
C1178 C1177 1.369 . S
C1178 C1179 1.398 . S
C1178 C1182 1.527 . S
C1179 C1178 1.398 . S
C1179 C1180 1.380 . S
C1179 C1193 1.497 . S
C1180 C1179 1.380 . S
C1180 C1181 1.383 . S
C1180 C1183 1.603 . S
C1181 C1176 1.377 . S
C1181 C1180 1.383 . S
C1181 H1244 0.929 . S
C1182 C1178 1.527 . S
C1182 H1245 0.961 . S
C1182 H1246 0.959 . S
C1182 H1247 0.959 . S
C1183 C1180 1.603 . S
C1183 H1248 0.960 . S
C1183 H1249 0.962 . S
C1183 H1250 0.961 . S
C1184 C1151 1.587 . S
C1184 C1185 1.360 . S
C1184 C1197 1.412 . S
C1185 C1184 1.360 . S
C1185 C1186 1.365 . S
C1185 H1251 0.929 . S
C1186 C1161 1.553 . S
C1186 C1185 1.365 . S
C1186 C1187 1.404 . S
C1187 C1186 1.404 . S
C1187 C1188 1.395 . S
C1187 C1198 1.451 . S
C1188 C1187 1.395 . S
C1188 C1189 1.322 . S
C1188 H1252 0.930 . S
C1189 C1188 1.322 . S
C1189 C1190 1.459 . S
C1189 H1253 0.929 . S
C1190 C1189 1.459 . S
C1190 C1191 1.445 . S
C1190 C1199 1.395 . S
C1191 C1169 1.432 . S
C1191 C1190 1.445 . S
C1191 C1192 1.370 . S
C1192 C1191 1.370 . S
C1192 C1193 1.438 . S
C1192 H1254 0.930 . S
C1193 C1179 1.497 . S
C1193 C1192 1.438 . S
C1193 C1194 1.360 . S
C1194 C1193 1.360 . S
C1194 C1195 1.401 . S
C1194 C1199 1.446 . S
C1195 C1194 1.401 . S
C1195 C1196 1.347 . S
C1195 H1255 0.929 . S
C1196 C1195 1.347 . S
C1196 C1197 1.455 . S
C1196 H1256 0.930 . S
C1197 C1184 1.412 . S
C1197 C1196 1.455 . S
C1197 C1198 1.331 . S
C1198 C1187 1.451 . S
C1198 C1197 1.331 . S
C1198 C1199 1.497 . S
C1199 C1190 1.395 . S
C1199 C1194 1.446 . S
C1199 C1198 1.497 . S
C1200 C1201 1.582 . S
C1200 H1257 0.962 . S
C1200 H1258 0.959 . S
C1200 H1259 0.958 . S
C1201 C1200 1.582 . S
C1201 O1204 1.458 . S
C1201 H1230 0.980 . S
O1202 C1147 1.426 . S
O1202 C1148 1.334 . S
O1203 C1175 1.412 . S
O1203 C1176 1.393 . S
O1204 C1166 1.435 . S
O1204 C1201 1.458 . S
O1205 C1157 1.468 . S
O1205 C1158 1.408 . S
H1206 C1147 0.980 . S
H1207 C1146 0.959 . S
H1208 C1146 0.959 . S
H1209 C1146 0.960 . S
H1210 C1149 0.929 . S
H1211 C1153 0.929 . S
H1212 C1154 0.959 . S
H1213 C1154 0.961 . S
H1214 C1154 0.961 . S
H1215 C1155 0.960 . S
H1216 C1155 0.960 . S
H1217 C1155 0.961 . S
H1218 C1157 0.980 . S
H1219 C1156 0.961 . S
H1220 C1156 0.960 . S
H1221 C1156 0.959 . S
H1222 C1159 0.930 . S
H1223 C1163 0.931 . S
H1224 C1164 0.959 . S
H1225 C1164 0.961 . S
H1226 C1164 0.959 . S
H1227 C1165 0.960 . S
H1228 C1165 0.960 . S
H1229 C1165 0.960 . S
H1230 C1201 0.980 . S
H1231 C1167 0.930 . S
H1232 C1171 0.930 . S
H1233 C1172 0.961 . S
H1234 C1172 0.960 . S
H1235 C1172 0.958 . S
H1236 C1173 0.961 . S
H1237 C1173 0.960 . S
H1238 C1173 0.960 . S
H1239 C1175 0.980 . S
H1240 C1174 0.961 . S
H1241 C1174 0.961 . S
H1242 C1174 0.959 . S
H1243 C1177 0.932 . S
H1244 C1181 0.929 . S
H1245 C1182 0.961 . S
H1246 C1182 0.959 . S
H1247 C1182 0.959 . S
H1248 C1183 0.960 . S
H1249 C1183 0.962 . S
H1250 C1183 0.961 . S
H1251 C1185 0.929 . S
H1252 C1188 0.930 . S
H1253 C1189 0.929 . S
H1254 C1192 0.930 . S
H1255 C1195 0.929 . S
H1256 C1196 0.930 . S
H1257 C1200 0.962 . S
H1258 C1200 0.959 . S
H1259 C1200 0.958 . S
C1260 C1261 1.560 . S
C1260 H1321 0.959 . S
C1260 H1322 0.959 . S
C1260 H1323 0.960 . S
C1261 C1260 1.560 . S
C1261 O1316 1.426 . S
C1261 H1320 0.980 . S
C1262 C1263 1.407 1_455 S
C1262 C1267 1.418 . S
C1262 O1316 1.334 . S
C1263 C1262 1.407 1_655 S
C1263 C1264 1.360 . S
C1263 H1324 0.929 . S
C1264 C1263 1.360 . S
C1264 C1265 1.401 1_655 S
C1264 C1268 1.527 . S
C1265 C1264 1.401 1_455 S
C1265 C1266 1.405 . S
C1265 C1298 1.587 1_455 S
C1266 C1265 1.405 . S
C1266 C1267 1.332 . S
C1266 C1269 1.496 . S
C1267 C1262 1.418 . S
C1267 C1266 1.332 . S
C1267 H1325 0.929 . S
C1268 C1264 1.527 . S
C1268 H1326 0.959 . S
C1268 H1327 0.961 . S
C1268 H1328 0.961 . S
C1269 C1266 1.496 . S
C1269 H1329 0.960 . S
C1269 H1330 0.960 . S
C1269 H1331 0.961 . S
C1270 C1271 1.517 . S
C1270 H1333 0.957 1_655 S
C1270 H1334 0.960 . S
C1270 H1335 0.959 . S
C1271 C1270 1.517 . S
C1271 O1319 1.468 . S
C1271 H1332 0.980 1_655 S
C1272 C1273 1.349 . S
C1272 C1277 1.367 . S
C1272 O1319 1.408 . S
C1273 C1272 1.349 . S
C1273 C1274 1.407 1_655 S
C1273 H1336 0.930 1_655 S
C1274 C1273 1.407 1_455 S
C1274 C1275 1.449 1_455 S
C1274 C1278 1.535 . S
C1275 C1274 1.449 1_655 S
C1275 C1276 1.384 . S
C1275 C1300 1.553 . S
C1276 C1275 1.384 . S
C1276 C1277 1.364 . S
C1276 C1279 1.450 . S
C1277 C1272 1.367 . S
C1277 C1276 1.364 . S
C1277 H1337 0.931 . S
C1278 C1274 1.535 . S
C1278 H1338 0.959 . S
C1278 H1339 0.961 . S
C1278 H1340 0.959 . S
C1279 C1276 1.450 . S
C1279 H1341 0.960 . S
C1279 H1342 0.960 . S
C1279 H1343 0.960 . S
C1280 C1281 1.309 . S
C1280 C1285 1.304 . S
C1280 O1318 1.435 . S
C1281 C1280 1.309 . S
C1281 C1282 1.466 1_655 S
C1281 H1345 0.930 1_655 S
C1282 C1281 1.466 1_455 S
C1282 C1283 1.394 1_455 S
C1282 C1286 1.582 . S
C1283 C1282 1.394 1_655 S
C1283 C1284 1.373 . S
C1283 C1305 1.432 . S
C1284 C1283 1.373 . S
C1284 C1285 1.339 . S
C1284 C1287 1.530 . S
C1285 C1280 1.304 . S
C1285 C1284 1.339 . S
C1285 H1346 0.930 . S
C1286 C1282 1.582 . S
C1286 H1347 0.961 . S
C1286 H1348 0.960 . S
C1286 H1349 0.958 . S
C1287 C1284 1.530 . S
C1287 H1350 0.961 . S
C1287 H1351 0.960 . S
C1287 H1352 0.960 . S
C1288 C1289 1.474 1_455 S
C1288 H1354 0.961 . S
C1288 H1355 0.961 . S
C1288 H1356 0.959 . S
C1289 C1288 1.474 1_655 S
C1289 O1317 1.400 1_655 S
C1289 H1353 0.999 . S
C1290 C1291 1.288 . S
C1290 C1295 1.377 1_455 S
C1290 O1317 1.393 . S
C1291 C1290 1.288 . S
C1291 C1292 1.369 . S
C1291 H1357 0.932 . S
C1292 C1291 1.369 . S
C1292 C1293 1.398 1_455 S
C1292 C1296 1.527 . S
C1293 C1292 1.398 1_655 S
C1293 C1294 1.380 . S
C1293 C1307 1.497 . S
C1294 C1293 1.380 . S
C1294 C1295 1.383 . S
C1294 C1297 1.603 . S
C1295 C1290 1.377 1_655 S
C1295 C1294 1.383 . S
C1295 H1358 0.929 . S
C1296 C1292 1.527 . S
C1296 H1359 0.961 . S
C1296 H1360 0.959 . S
C1296 H1361 0.959 . S
C1297 C1294 1.603 . S
C1297 H1362 0.960 . S
C1297 H1363 0.962 . S
C1297 H1364 0.961 . S
C1298 C1265 1.587 1_655 S
C1298 C1299 1.360 . S
C1298 C1311 1.412 . S
C1299 C1298 1.360 . S
C1299 C1300 1.365 . S
C1299 H1365 0.929 . S
C1300 C1275 1.553 . S
C1300 C1299 1.365 . S
C1300 C1301 1.404 . S
C1301 C1300 1.404 . S
C1301 C1302 1.395 . S
C1301 C1312 1.451 . S
C1302 C1301 1.395 . S
C1302 C1303 1.322 . S
C1302 H1366 0.930 . S
C1303 C1302 1.322 . S
C1303 C1304 1.459 . S
C1303 H1367 0.929 . S
C1304 C1303 1.459 . S
C1304 C1305 1.445 . S
C1304 C1313 1.395 . S
C1305 C1283 1.432 . S
C1305 C1304 1.445 . S
C1305 C1306 1.370 . S
C1306 C1305 1.370 . S
C1306 C1307 1.438 . S
C1306 H1368 0.930 . S
C1307 C1293 1.497 . S
C1307 C1306 1.438 . S
C1307 C1308 1.360 . S
C1308 C1307 1.360 . S
C1308 C1309 1.401 . S
C1308 C1313 1.446 . S
C1309 C1308 1.401 . S
C1309 C1310 1.347 . S
C1309 H1369 0.929 . S
C1310 C1309 1.347 . S
C1310 C1311 1.455 . S
C1310 H1370 0.930 . S
C1311 C1298 1.412 . S
C1311 C1310 1.455 . S
C1311 C1312 1.331 . S
C1312 C1301 1.451 . S
C1312 C1311 1.331 . S
C1312 C1313 1.497 . S
C1313 C1304 1.395 . S
C1313 C1308 1.446 . S
C1313 C1312 1.497 . S
C1314 C1315 1.582 . S
C1314 H1371 0.962 . S
C1314 H1372 0.959 . S
C1314 H1373 0.958 . S
C1315 C1314 1.582 . S
C1315 O1318 1.458 . S
C1315 H1344 0.980 . S
O1316 C1261 1.426 . S
O1316 C1262 1.334 . S
O1317 C1289 1.400 1_455 S
O1317 C1290 1.393 . S
O1318 C1280 1.435 . S
O1318 C1315 1.458 . S
O1319 C1271 1.468 . S
O1319 C1272 1.408 . S
H1320 C1261 0.980 . S
H1321 C1260 0.959 . S
H1322 C1260 0.959 . S
H1323 C1260 0.960 . S
H1324 C1263 0.929 . S
H1325 C1267 0.929 . S
H1326 C1268 0.959 . S
H1327 C1268 0.961 . S
H1328 C1268 0.961 . S
H1329 C1269 0.960 . S
H1330 C1269 0.960 . S
H1331 C1269 0.961 . S
H1332 C1271 0.980 1_455 S
H1333 C1270 0.957 1_455 S
H1334 C1270 0.960 . S
H1335 C1270 0.959 . S
H1336 C1273 0.930 1_455 S
H1337 C1277 0.931 . S
H1338 C1278 0.959 . S
H1339 C1278 0.961 . S
H1340 C1278 0.959 . S
H1341 C1279 0.960 . S
H1342 C1279 0.960 . S
H1343 C1279 0.960 . S
H1344 C1315 0.980 . S
H1345 C1281 0.930 1_455 S
H1346 C1285 0.930 . S
H1347 C1286 0.961 . S
H1348 C1286 0.960 . S
H1349 C1286 0.958 . S
H1350 C1287 0.961 . S
H1351 C1287 0.960 . S
H1352 C1287 0.960 . S
H1353 C1289 0.999 . S
H1354 C1288 0.961 . S
H1355 C1288 0.961 . S
H1356 C1288 0.959 . S
H1357 C1291 0.932 . S
H1358 C1295 0.929 . S
H1359 C1296 0.961 . S
H1360 C1296 0.959 . S
H1361 C1296 0.959 . S
H1362 C1297 0.960 . S
H1363 C1297 0.962 . S
H1364 C1297 0.961 . S
H1365 C1299 0.929 . S
H1366 C1302 0.930 . S
H1367 C1303 0.929 . S
H1368 C1306 0.930 . S
H1369 C1309 0.929 . S
H1370 C1310 0.930 . S
H1371 C1314 0.962 . S
H1372 C1314 0.959 . S
H1373 C1314 0.958 . S
C1374 C1375 1.560 . S
C1374 H1435 0.959 . S
C1374 H1436 0.959 . S
C1374 H1437 0.960 . S
C1375 C1374 1.560 . S
C1375 O1430 1.426 . S
C1375 H1434 0.980 . S
C1376 C1377 1.407 . S
C1376 C1381 1.418 . S
C1376 O1430 1.334 . S
C1377 C1376 1.407 . S
C1377 C1378 1.360 . S
C1377 H1438 0.929 . S
C1378 C1377 1.360 . S
C1378 C1379 1.401 . S
C1378 C1382 1.527 . S
C1379 C1378 1.401 . S
C1379 C1380 1.405 . S
C1379 C1412 1.587 . S
C1380 C1379 1.405 . S
C1380 C1381 1.332 . S
C1380 C1383 1.496 . S
C1381 C1376 1.418 . S
C1381 C1380 1.332 . S
C1381 H1439 0.929 . S
C1382 C1378 1.527 . S
C1382 H1440 0.959 . S
C1382 H1441 0.961 . S
C1382 H1442 0.961 . S
C1383 C1380 1.496 . S
C1383 H1443 0.960 . S
C1383 H1444 0.960 . S
C1383 H1445 0.961 . S
C1384 C1385 1.517 . S
C1384 H1447 0.961 . S
C1384 H1448 0.960 . S
C1384 H1449 0.959 . S
C1385 C1384 1.517 . S
C1385 O1433 1.468 . S
C1385 H1446 0.980 . S
C1386 C1387 1.349 . S
C1386 C1391 1.367 . S
C1386 O1433 1.408 . S
C1387 C1386 1.349 . S
C1387 C1388 1.407 . S
C1387 H1450 0.930 . S
C1388 C1387 1.407 . S
C1388 C1389 1.449 . S
C1388 C1392 1.535 . S
C1389 C1388 1.449 . S
C1389 C1390 1.384 . S
C1389 C1414 1.553 . S
C1390 C1389 1.384 . S
C1390 C1391 1.364 . S
C1390 C1393 1.450 . S
C1391 C1386 1.367 . S
C1391 C1390 1.364 . S
C1391 H1451 0.931 . S
C1392 C1388 1.535 . S
C1392 H1452 0.959 . S
C1392 H1453 0.961 . S
C1392 H1454 0.959 . S
C1393 C1390 1.450 . S
C1393 H1455 0.960 . S
C1393 H1456 0.960 . S
C1393 H1457 0.960 . S
C1394 C1395 1.309 . S
C1394 C1399 1.304 . S
C1394 O1432 1.435 . S
C1395 C1394 1.309 . S
C1395 C1396 1.476 . S
C1395 H1459 0.930 . S
C1396 C1395 1.476 . S
C1396 C1397 1.400 . S
C1396 C1400 1.567 . S
C1397 C1396 1.400 . S
C1397 C1398 1.373 . S
C1397 C1419 1.432 . S
C1398 C1397 1.373 . S
C1398 C1399 1.339 . S
C1398 C1401 1.530 . S
C1399 C1394 1.304 . S
C1399 C1398 1.339 . S
C1399 H1460 0.930 . S
C1400 C1396 1.567 . S
C1400 H1461 0.961 . S
C1400 H1462 0.960 . S
C1400 H1463 0.958 . S
C1401 C1398 1.530 . S
C1401 H1464 0.961 . S
C1401 H1465 0.960 . S
C1401 H1466 0.960 . S
C1402 C1403 1.530 . S
C1402 H1468 0.961 . S
C1402 H1469 0.961 . S
C1402 H1470 0.959 . S
C1403 C1402 1.530 . S
C1403 O1431 1.412 . S
C1403 H1467 0.980 . S
C1404 C1405 1.288 . S
C1404 C1409 1.377 . S
C1404 O1431 1.393 . S
C1405 C1404 1.288 . S
C1405 C1406 1.369 . S
C1405 H1471 0.932 . S
C1406 C1405 1.369 . S
C1406 C1407 1.398 . S
C1406 C1410 1.527 . S
C1407 C1406 1.398 . S
C1407 C1408 1.380 . S
C1407 C1421 1.497 . S
C1408 C1407 1.380 . S
C1408 C1409 1.383 . S
C1408 C1411 1.603 . S
C1409 C1404 1.377 . S
C1409 C1408 1.383 . S
C1409 H1472 0.929 . S
C1410 C1406 1.527 . S
C1410 H1473 0.961 . S
C1410 H1474 0.959 . S
C1410 H1475 0.959 . S
C1411 C1408 1.603 . S
C1411 H1476 0.960 . S
C1411 H1477 0.962 . S
C1411 H1478 0.961 . S
C1412 C1379 1.587 . S
C1412 C1413 1.360 . S
C1412 C1425 1.412 . S
C1413 C1412 1.360 . S
C1413 C1414 1.365 . S
C1413 H1479 0.929 . S
C1414 C1389 1.553 . S
C1414 C1413 1.365 . S
C1414 C1415 1.404 . S
C1415 C1414 1.404 . S
C1415 C1416 1.395 . S
C1415 C1426 1.451 . S
C1416 C1415 1.395 . S
C1416 C1417 1.322 . S
C1416 H1480 0.930 . S
C1417 C1416 1.322 . S
C1417 C1418 1.459 . S
C1417 H1481 0.929 . S
C1418 C1417 1.459 . S
C1418 C1419 1.445 . S
C1418 C1427 1.395 . S
C1419 C1397 1.432 . S
C1419 C1418 1.445 . S
C1419 C1420 1.370 . S
C1420 C1419 1.370 . S
C1420 C1421 1.438 . S
C1420 H1482 0.930 . S
C1421 C1407 1.497 . S
C1421 C1420 1.438 . S
C1421 C1422 1.360 . S
C1422 C1421 1.360 . S
C1422 C1423 1.401 . S
C1422 C1427 1.446 . S
C1423 C1422 1.401 . S
C1423 C1424 1.347 . S
C1423 H1483 0.929 . S
C1424 C1423 1.347 . S
C1424 C1425 1.455 . S
C1424 H1484 0.930 . S
C1425 C1412 1.412 . S
C1425 C1424 1.455 . S
C1425 C1426 1.331 . S
C1426 C1415 1.451 . S
C1426 C1425 1.331 . S
C1426 C1427 1.497 . S
C1427 C1418 1.395 . S
C1427 C1422 1.446 . S
C1427 C1426 1.497 . S
C1428 C1429 1.582 . S
C1428 H1485 0.962 . S
C1428 H1486 0.959 . S
C1428 H1487 0.958 . S
C1429 C1428 1.582 . S
C1429 O1432 1.458 . S
C1429 H1458 0.980 . S
O1430 C1375 1.426 . S
O1430 C1376 1.334 . S
O1431 C1403 1.412 . S
O1431 C1404 1.393 . S
O1432 C1394 1.435 . S
O1432 C1429 1.458 . S
O1433 C1385 1.468 . S
O1433 C1386 1.408 . S
H1434 C1375 0.980 . S
H1435 C1374 0.959 . S
H1436 C1374 0.959 . S
H1437 C1374 0.960 . S
H1438 C1377 0.929 . S
H1439 C1381 0.929 . S
H1440 C1382 0.959 . S
H1441 C1382 0.961 . S
H1442 C1382 0.961 . S
H1443 C1383 0.960 . S
H1444 C1383 0.960 . S
H1445 C1383 0.961 . S
H1446 C1385 0.980 . S
H1447 C1384 0.961 . S
H1448 C1384 0.960 . S
H1449 C1384 0.959 . S
H1450 C1387 0.930 . S
H1451 C1391 0.931 . S
H1452 C1392 0.959 . S
H1453 C1392 0.961 . S
H1454 C1392 0.959 . S
H1455 C1393 0.960 . S
H1456 C1393 0.960 . S
H1457 C1393 0.960 . S
H1458 C1429 0.980 . S
H1459 C1395 0.930 . S
H1460 C1399 0.930 . S
H1461 C1400 0.961 . S
H1462 C1400 0.960 . S
H1463 C1400 0.958 . S
H1464 C1401 0.961 . S
H1465 C1401 0.960 . S
H1466 C1401 0.960 . S
H1467 C1403 0.980 . S
H1468 C1402 0.961 . S
H1469 C1402 0.961 . S
H1470 C1402 0.959 . S
H1471 C1405 0.932 . S
H1472 C1409 0.929 . S
H1473 C1410 0.961 . S
H1474 C1410 0.959 . S
H1475 C1410 0.959 . S
H1476 C1411 0.960 . S
H1477 C1411 0.962 . S
H1478 C1411 0.961 . S
H1479 C1413 0.929 . S
H1480 C1416 0.930 . S
H1481 C1417 0.929 . S
H1482 C1420 0.930 . S
H1483 C1423 0.929 . S
H1484 C1424 0.930 . S
H1485 C1428 0.962 . S
H1486 C1428 0.959 . S
H1487 C1428 0.958 . S
C1488 C1489 1.560 . S
C1488 H1549 0.959 . S
C1488 H1550 0.959 . S
C1488 H1551 0.960 . S
C1489 C1488 1.560 . S
C1489 O1544 1.426 . S
C1489 H1548 0.980 . S
C1490 C1491 1.407 1_565 S
C1490 C1495 1.418 . S
C1490 O1544 1.334 . S
C1491 C1490 1.407 1_545 S
C1491 C1492 1.360 . S
C1491 H1552 0.929 . S
C1492 C1491 1.360 . S
C1492 C1493 1.401 1_545 S
C1492 C1496 1.527 . S
C1493 C1492 1.401 1_565 S
C1493 C1494 1.405 . S
C1493 C1526 1.587 1_565 S
C1494 C1493 1.405 . S
C1494 C1495 1.332 . S
C1494 C1497 1.496 . S
C1495 C1490 1.418 . S
C1495 C1494 1.332 . S
C1495 H1553 0.929 . S
C1496 C1492 1.527 . S
C1496 H1554 0.959 . S
C1496 H1555 0.961 . S
C1496 H1556 0.961 . S
C1497 C1494 1.496 . S
C1497 H1557 0.960 . S
C1497 H1558 0.960 . S
C1497 H1559 0.961 . S
C1498 C1499 1.517 . S
C1498 H1561 0.907 1_545 S
C1498 H1562 0.960 . S
C1498 H1563 0.959 . S
C1499 C1498 1.517 . S
C1499 O1547 1.468 . S
C1499 H1560 0.980 1_545 S
C1500 C1501 1.349 . S
C1500 C1505 1.367 . S
C1500 O1547 1.408 . S
C1501 C1500 1.349 . S
C1501 C1502 1.407 1_545 S
C1501 H1564 0.930 1_545 S
C1502 C1501 1.407 1_565 S
C1502 C1503 1.449 1_565 S
C1502 C1506 1.535 . S
C1503 C1502 1.449 1_545 S
C1503 C1504 1.384 . S
C1503 C1528 1.553 . S
C1504 C1503 1.384 . S
C1504 C1505 1.364 . S
C1504 C1507 1.450 . S
C1505 C1500 1.367 . S
C1505 C1504 1.364 . S
C1505 H1565 0.931 . S
C1506 C1502 1.535 . S
C1506 H1566 0.959 . S
C1506 H1567 0.961 . S
C1506 H1568 0.959 . S
C1507 C1504 1.450 . S
C1507 H1569 0.960 . S
C1507 H1570 0.960 . S
C1507 H1571 0.960 . S
C1508 C1509 1.309 . S
C1508 C1513 1.304 . S
C1508 O1546 1.435 . S
C1509 C1508 1.309 . S
C1509 C1510 1.490 1_545 S
C1509 H1573 0.930 1_545 S
C1510 C1509 1.490 1_565 S
C1510 C1511 1.354 1_565 S
C1510 C1514 1.599 . S
C1511 C1510 1.354 1_545 S
C1511 C1512 1.373 . S
C1511 C1533 1.432 . S
C1512 C1511 1.373 . S
C1512 C1513 1.339 . S
C1512 C1515 1.530 . S
C1513 C1508 1.304 . S
C1513 C1512 1.339 . S
C1513 H1574 0.930 . S
C1514 C1510 1.599 . S
C1514 H1575 0.961 . S
C1514 H1576 0.960 . S
C1514 H1577 0.958 . S
C1515 C1512 1.530 . S
C1515 H1578 0.961 . S
C1515 H1579 0.960 . S
C1515 H1580 0.960 . S
C1516 C1517 1.530 1_565 S
C1516 H1582 0.961 . S
C1516 H1583 0.961 . S
C1516 H1584 0.959 . S
C1517 C1516 1.530 1_545 S
C1517 O1545 1.412 1_545 S
C1517 H1581 0.980 . S
C1518 C1519 1.288 . S
C1518 C1523 1.377 1_565 S
C1518 O1545 1.393 . S
C1519 C1518 1.288 . S
C1519 C1520 1.369 . S
C1519 H1585 0.932 . S
C1520 C1519 1.369 . S
C1520 C1521 1.398 1_565 S
C1520 C1524 1.527 . S
C1521 C1520 1.398 1_545 S
C1521 C1522 1.380 . S
C1521 C1535 1.497 . S
C1522 C1521 1.380 . S
C1522 C1523 1.383 . S
C1522 C1525 1.603 . S
C1523 C1518 1.377 1_545 S
C1523 C1522 1.383 . S
C1523 H1586 0.929 . S
C1524 C1520 1.527 . S
C1524 H1587 0.961 . S
C1524 H1588 0.959 . S
C1524 H1589 0.959 . S
C1525 C1522 1.603 . S
C1525 H1590 0.960 . S
C1525 H1591 0.962 . S
C1525 H1592 0.961 . S
C1526 C1493 1.587 1_545 S
C1526 C1527 1.360 . S
C1526 C1539 1.412 . S
C1527 C1526 1.360 . S
C1527 C1528 1.365 . S
C1527 H1593 0.929 . S
C1528 C1503 1.553 . S
C1528 C1527 1.365 . S
C1528 C1529 1.404 . S
C1529 C1528 1.404 . S
C1529 C1530 1.395 . S
C1529 C1540 1.451 . S
C1530 C1529 1.395 . S
C1530 C1531 1.322 . S
C1530 H1594 0.930 . S
C1531 C1530 1.322 . S
C1531 C1532 1.459 . S
C1531 H1595 0.929 . S
C1532 C1531 1.459 . S
C1532 C1533 1.445 . S
C1532 C1541 1.395 . S
C1533 C1511 1.432 . S
C1533 C1532 1.445 . S
C1533 C1534 1.370 . S
C1534 C1533 1.370 . S
C1534 C1535 1.438 . S
C1534 H1596 0.930 . S
C1535 C1521 1.497 . S
C1535 C1534 1.438 . S
C1535 C1536 1.360 . S
C1536 C1535 1.360 . S
C1536 C1537 1.401 . S
C1536 C1541 1.446 . S
C1537 C1536 1.401 . S
C1537 C1538 1.347 . S
C1537 H1597 0.929 . S
C1538 C1537 1.347 . S
C1538 C1539 1.455 . S
C1538 H1598 0.930 . S
C1539 C1526 1.412 . S
C1539 C1538 1.455 . S
C1539 C1540 1.331 . S
C1540 C1529 1.451 . S
C1540 C1539 1.331 . S
C1540 C1541 1.497 . S
C1541 C1532 1.395 . S
C1541 C1536 1.446 . S
C1541 C1540 1.497 . S
C1542 C1543 1.582 . S
C1542 H1599 0.962 . S
C1542 H1600 0.959 . S
C1542 H1601 0.958 . S
C1543 C1542 1.582 . S
C1543 O1546 1.458 . S
C1543 H1572 0.980 . S
O1544 C1489 1.426 . S
O1544 C1490 1.334 . S
O1545 C1517 1.412 1_565 S
O1545 C1518 1.393 . S
O1546 C1508 1.435 . S
O1546 C1543 1.458 . S
O1547 C1499 1.468 . S
O1547 C1500 1.408 . S
H1548 C1489 0.980 . S
H1549 C1488 0.959 . S
H1550 C1488 0.959 . S
H1551 C1488 0.960 . S
H1552 C1491 0.929 . S
H1553 C1495 0.929 . S
H1554 C1496 0.959 . S
H1555 C1496 0.961 . S
H1556 C1496 0.961 . S
H1557 C1497 0.960 . S
H1558 C1497 0.960 . S
H1559 C1497 0.961 . S
H1560 C1499 0.980 1_565 S
H1561 C1498 0.907 1_565 S
H1562 C1498 0.960 . S
H1563 C1498 0.959 . S
H1564 C1501 0.930 1_565 S
H1565 C1505 0.931 . S
H1566 C1506 0.959 . S
H1567 C1506 0.961 . S
H1568 C1506 0.959 . S
H1569 C1507 0.960 . S
H1570 C1507 0.960 . S
H1571 C1507 0.960 . S
H1572 C1543 0.980 . S
H1573 C1509 0.930 1_565 S
H1574 C1513 0.930 . S
H1575 C1514 0.961 . S
H1576 C1514 0.960 . S
H1577 C1514 0.958 . S
H1578 C1515 0.961 . S
H1579 C1515 0.960 . S
H1580 C1515 0.960 . S
H1581 C1517 0.980 . S
H1582 C1516 0.961 . S
H1583 C1516 0.961 . S
H1584 C1516 0.959 . S
H1585 C1519 0.932 . S
H1586 C1523 0.929 . S
H1587 C1524 0.961 . S
H1588 C1524 0.959 . S
H1589 C1524 0.959 . S
H1590 C1525 0.960 . S
H1591 C1525 0.962 . S
H1592 C1525 0.961 . S
H1593 C1527 0.929 . S
H1594 C1530 0.930 . S
H1595 C1531 0.929 . S
H1596 C1534 0.930 . S
H1597 C1537 0.929 . S
H1598 C1538 0.930 . S
H1599 C1542 0.962 . S
H1600 C1542 0.959 . S
H1601 C1542 0.958 . S
C1602 C1603 1.560 . S
C1602 H1663 0.959 . S
C1602 H1664 0.959 . S
C1602 H1665 0.960 . S
C1603 C1602 1.560 . S
C1603 O1658 1.426 . S
C1603 H1662 0.980 1_565 S
C1604 C1605 1.407 1_565 S
C1604 C1609 1.418 . S
C1604 O1658 1.334 . S
C1605 C1604 1.407 1_545 S
C1605 C1606 1.360 . S
C1605 H1666 0.929 . S
C1606 C1605 1.360 . S
C1606 C1607 1.401 . S
C1606 C1610 1.527 . S
C1607 C1606 1.401 . S
C1607 C1608 1.405 1_545 S
C1607 C1640 1.587 . S
C1608 C1607 1.405 1_565 S
C1608 C1609 1.332 . S
C1608 C1611 1.496 . S
C1609 C1604 1.418 . S
C1609 C1608 1.332 . S
C1609 H1667 0.929 . S
C1610 C1606 1.527 . S
C1610 H1668 0.959 . S
C1610 H1669 0.961 . S
C1610 H1670 0.961 . S
C1611 C1608 1.496 . S
C1611 H1671 0.960 . S
C1611 H1672 0.960 . S
C1611 H1673 0.961 . S
C1612 C1613 1.517 . S
C1612 H1675 0.961 . S
C1612 H1676 0.960 . S
C1612 H1677 0.959 . S
C1613 C1612 1.517 . S
C1613 O1661 1.468 . S
C1613 H1674 0.980 . S
C1614 C1615 1.349 . S
C1614 C1619 1.367 . S
C1614 O1661 1.408 . S
C1615 C1614 1.349 . S
C1615 C1616 1.407 . S
C1615 H1678 0.927 1_545 S
C1616 C1615 1.407 . S
C1616 C1617 1.449 . S
C1616 C1620 1.535 1_545 S
C1617 C1616 1.449 . S
C1617 C1618 1.384 . S
C1617 C1642 1.553 . S
C1618 C1617 1.384 . S
C1618 C1619 1.364 . S
C1618 C1621 1.450 . S
C1619 C1614 1.367 . S
C1619 C1618 1.364 . S
C1619 H1679 0.931 . S
C1620 C1616 1.535 1_565 S
C1620 H1680 0.959 . S
C1620 H1681 0.961 . S
C1620 H1682 0.959 . S
C1621 C1618 1.450 . S
C1621 H1683 0.960 . S
C1621 H1684 0.960 . S
C1621 H1685 0.960 . S
C1622 C1623 1.309 1_545 S
C1622 C1627 1.304 . S
C1622 O1660 1.435 . S
C1623 C1622 1.309 1_565 S
C1623 C1624 1.476 . S
C1623 H1687 0.930 . S
C1624 C1623 1.476 . S
C1624 C1625 1.400 1_565 S
C1624 C1628 1.567 . S
C1625 C1624 1.400 1_545 S
C1625 C1626 1.373 . S
C1625 C1647 1.432 . S
C1626 C1625 1.373 . S
C1626 C1627 1.339 . S
C1626 C1629 1.530 . S
C1627 C1622 1.304 . S
C1627 C1626 1.339 . S
C1627 H1688 0.930 . S
C1628 C1624 1.567 . S
C1628 H1689 0.961 . S
C1628 H1690 0.960 . S
C1628 H1691 0.958 . S
C1629 C1626 1.530 . S
C1629 H1692 0.961 . S
C1629 H1693 0.960 . S
C1629 H1694 0.960 . S
C1630 C1631 1.530 . S
C1630 H1696 0.961 . S
C1630 H1697 0.961 . S
C1630 H1698 0.959 . S
C1631 C1630 1.530 . S
C1631 O1659 1.412 . S
C1631 H1695 0.996 . S
C1632 C1633 1.288 . S
C1632 C1637 1.377 1_565 S
C1632 O1659 1.393 . S
C1633 C1632 1.288 . S
C1633 C1634 1.369 . S
C1633 H1699 0.932 . S
C1634 C1633 1.369 . S
C1634 C1635 1.398 . S
C1634 C1638 1.527 . S
C1635 C1634 1.398 . S
C1635 C1636 1.380 1_565 S
C1635 C1649 1.497 1_565 S
C1636 C1635 1.380 1_545 S
C1636 C1637 1.383 . S
C1636 C1639 1.603 . S
C1637 C1632 1.377 1_545 S
C1637 C1636 1.383 . S
C1637 H1700 0.929 . S
C1638 C1634 1.527 . S
C1638 H1701 0.961 . S
C1638 H1702 0.959 . S
C1638 H1703 0.959 . S
C1639 C1636 1.603 . S
C1639 H1704 0.960 . S
C1639 H1705 0.962 . S
C1639 H1706 0.961 . S
C1640 C1607 1.587 . S
C1640 C1641 1.360 . S
C1640 C1653 1.412 . S
C1641 C1640 1.360 . S
C1641 C1642 1.365 . S
C1641 H1707 0.929 . S
C1642 C1617 1.553 . S
C1642 C1641 1.365 . S
C1642 C1643 1.404 . S
C1643 C1642 1.404 . S
C1643 C1644 1.395 . S
C1643 C1654 1.451 . S
C1644 C1643 1.395 . S
C1644 C1645 1.322 . S
C1644 H1708 0.930 . S
C1645 C1644 1.322 . S
C1645 C1646 1.459 . S
C1645 H1709 0.929 . S
C1646 C1645 1.459 . S
C1646 C1647 1.445 . S
C1646 C1655 1.395 . S
C1647 C1625 1.432 . S
C1647 C1646 1.445 . S
C1647 C1648 1.370 . S
C1648 C1647 1.370 . S
C1648 C1649 1.438 . S
C1648 H1710 0.930 . S
C1649 C1635 1.497 1_545 S
C1649 C1648 1.438 . S
C1649 C1650 1.360 . S
C1650 C1649 1.360 . S
C1650 C1651 1.401 . S
C1650 C1655 1.446 . S
C1651 C1650 1.401 . S
C1651 C1652 1.347 . S
C1651 H1711 0.969 . S
C1652 C1651 1.347 . S
C1652 C1653 1.455 . S
C1652 H1712 0.930 . S
C1653 C1640 1.412 . S
C1653 C1652 1.455 . S
C1653 C1654 1.331 . S
C1654 C1643 1.451 . S
C1654 C1653 1.331 . S
C1654 C1655 1.497 . S
C1655 C1646 1.395 . S
C1655 C1650 1.446 . S
C1655 C1654 1.497 . S
C1656 C1657 1.618 . S
C1656 H1713 0.962 . S
C1656 H1714 0.959 . S
C1656 H1715 0.958 . S
C1657 C1656 1.618 . S
C1657 O1660 1.473 . S
C1657 H1686 0.980 1_545 S
O1658 C1603 1.426 . S
O1658 C1604 1.334 . S
O1659 C1631 1.412 . S
O1659 C1632 1.393 . S
O1660 C1622 1.435 . S
O1660 C1657 1.473 . S
O1661 C1613 1.468 . S
O1661 C1614 1.408 . S
H1662 C1603 0.980 1_545 S
H1663 C1602 0.959 . S
H1664 C1602 0.959 . S
H1665 C1602 0.960 . S
H1666 C1605 0.929 . S
H1667 C1609 0.929 . S
H1668 C1610 0.959 . S
H1669 C1610 0.961 . S
H1670 C1610 0.961 . S
H1671 C1611 0.960 . S
H1672 C1611 0.960 . S
H1673 C1611 0.961 . S
H1674 C1613 0.980 . S
H1675 C1612 0.961 . S
H1676 C1612 0.960 . S
H1677 C1612 0.959 . S
H1678 C1615 0.927 1_565 S
H1679 C1619 0.931 . S
H1680 C1620 0.959 . S
H1681 C1620 0.961 . S
H1682 C1620 0.959 . S
H1683 C1621 0.960 . S
H1684 C1621 0.960 . S
H1685 C1621 0.960 . S
H1686 C1657 0.980 1_565 S
H1687 C1623 0.930 . S
H1688 C1627 0.930 . S
H1689 C1628 0.961 . S
H1690 C1628 0.960 . S
H1691 C1628 0.958 . S
H1692 C1629 0.961 . S
H1693 C1629 0.960 . S
H1694 C1629 0.960 . S
H1695 C1631 0.996 . S
H1696 C1630 0.961 . S
H1697 C1630 0.961 . S
H1698 C1630 0.959 . S
H1699 C1633 0.932 . S
H1700 C1637 0.929 . S
H1701 C1638 0.961 . S
H1702 C1638 0.959 . S
H1703 C1638 0.959 . S
H1704 C1639 0.960 . S
H1705 C1639 0.962 . S
H1706 C1639 0.961 . S
H1707 C1641 0.929 . S
H1708 C1644 0.930 . S
H1709 C1645 0.929 . S
H1710 C1648 0.930 . S
H1711 C1651 0.969 . S
H1712 C1652 0.930 . S
H1713 C1656 0.962 . S
H1714 C1656 0.959 . S
H1715 C1656 0.958 . S
C1716 C1717 1.560 . S
C1716 H1777 0.959 . S
C1716 H1778 0.959 . S
C1716 H1779 0.960 . S
C1717 C1716 1.560 . S
C1717 O1772 1.426 . S
C1717 H1776 0.980 1_455 S
C1718 C1719 1.407 1_455 S
C1718 C1723 1.418 . S
C1718 O1772 1.334 . S
C1719 C1718 1.407 1_655 S
C1719 C1720 1.360 . S
C1719 H1780 0.929 . S
C1720 C1719 1.360 . S
C1720 C1721 1.401 . S
C1720 C1724 1.527 . S
C1721 C1720 1.401 . S
C1721 C1722 1.405 1_655 S
C1721 C1754 1.587 . S
C1722 C1721 1.405 1_455 S
C1722 C1723 1.332 . S
C1722 C1725 1.496 . S
C1723 C1718 1.418 . S
C1723 C1722 1.332 . S
C1723 H1781 0.929 . S
C1724 C1720 1.527 . S
C1724 H1782 0.959 . S
C1724 H1783 0.961 . S
C1724 H1784 0.961 . S
C1725 C1722 1.496 . S
C1725 H1785 0.960 . S
C1725 H1786 0.960 . S
C1725 H1787 0.961 . S
C1726 C1727 1.517 . S
C1726 H1789 0.961 . S
C1726 H1790 0.960 . S
C1726 H1791 0.959 . S
C1727 C1726 1.517 . S
C1727 O1775 1.468 . S
C1727 H1788 0.980 . S
C1728 C1729 1.349 . S
C1728 C1733 1.367 . S
C1728 O1775 1.408 . S
C1729 C1728 1.349 . S
C1729 C1730 1.407 . S
C1729 H1792 0.926 1_655 S
C1730 C1729 1.407 . S
C1730 C1731 1.449 . S
C1730 C1734 1.535 1_655 S
C1731 C1730 1.449 . S
C1731 C1732 1.384 . S
C1731 C1756 1.553 . S
C1732 C1731 1.384 . S
C1732 C1733 1.364 . S
C1732 C1735 1.450 . S
C1733 C1728 1.367 . S
C1733 C1732 1.364 . S
C1733 H1793 0.931 . S
C1734 C1730 1.535 1_455 S
C1734 H1794 0.959 . S
C1734 H1795 0.961 . S
C1734 H1796 0.959 . S
C1735 C1732 1.450 . S
C1735 H1797 0.960 . S
C1735 H1798 0.960 . S
C1735 H1799 0.960 . S
C1736 C1737 1.309 1_655 S
C1736 C1741 1.304 . S
C1736 O1774 1.435 . S
C1737 C1736 1.309 1_455 S
C1737 C1738 1.476 . S
C1737 H1801 0.930 . S
C1738 C1737 1.476 . S
C1738 C1739 1.400 1_455 S
C1738 C1742 1.567 . S
C1739 C1738 1.400 1_655 S
C1739 C1740 1.373 . S
C1739 C1761 1.432 . S
C1740 C1739 1.373 . S
C1740 C1741 1.339 . S
C1740 C1743 1.530 . S
C1741 C1736 1.304 . S
C1741 C1740 1.339 . S
C1741 H1802 0.930 . S
C1742 C1738 1.567 . S
C1742 H1803 0.961 . S
C1742 H1804 0.960 . S
C1742 H1805 0.958 . S
C1743 C1740 1.530 . S
C1743 H1806 0.961 . S
C1743 H1807 0.960 . S
C1743 H1808 0.960 . S
C1744 C1745 1.530 . S
C1744 H1810 0.961 . S
C1744 H1811 0.961 . S
C1744 H1812 0.959 . S
C1745 C1744 1.530 . S
C1745 O1773 1.412 . S
C1745 H1809 0.994 . S
C1746 C1747 1.288 . S
C1746 C1751 1.377 1_455 S
C1746 O1773 1.393 . S
C1747 C1746 1.288 . S
C1747 C1748 1.369 . S
C1747 H1813 0.932 . S
C1748 C1747 1.369 . S
C1748 C1749 1.398 . S
C1748 C1752 1.527 . S
C1749 C1748 1.398 . S
C1749 C1750 1.380 1_455 S
C1749 C1763 1.497 1_455 S
C1750 C1749 1.380 1_655 S
C1750 C1751 1.383 . S
C1750 C1753 1.603 . S
C1751 C1746 1.377 1_655 S
C1751 C1750 1.383 . S
C1751 H1814 0.929 . S
C1752 C1748 1.527 . S
C1752 H1815 0.961 . S
C1752 H1816 0.959 . S
C1752 H1817 0.959 . S
C1753 C1750 1.603 . S
C1753 H1818 0.960 . S
C1753 H1819 0.962 . S
C1753 H1820 0.961 . S
C1754 C1721 1.587 . S
C1754 C1755 1.360 . S
C1754 C1767 1.412 . S
C1755 C1754 1.360 . S
C1755 C1756 1.365 . S
C1755 H1821 0.929 . S
C1756 C1731 1.553 . S
C1756 C1755 1.365 . S
C1756 C1757 1.404 . S
C1757 C1756 1.404 . S
C1757 C1758 1.395 . S
C1757 C1768 1.451 . S
C1758 C1757 1.395 . S
C1758 C1759 1.322 . S
C1758 H1822 0.930 . S
C1759 C1758 1.322 . S
C1759 C1760 1.459 . S
C1759 H1823 0.929 . S
C1760 C1759 1.459 . S
C1760 C1761 1.445 . S
C1760 C1769 1.395 . S
C1761 C1739 1.432 . S
C1761 C1760 1.445 . S
C1761 C1762 1.370 . S
C1762 C1761 1.370 . S
C1762 C1763 1.438 . S
C1762 H1824 0.930 . S
C1763 C1749 1.497 1_655 S
C1763 C1762 1.438 . S
C1763 C1764 1.360 . S
C1764 C1763 1.360 . S
C1764 C1765 1.401 . S
C1764 C1769 1.446 . S
C1765 C1764 1.401 . S
C1765 C1766 1.347 . S
C1765 H1825 0.929 . S
C1766 C1765 1.347 . S
C1766 C1767 1.455 . S
C1766 H1826 0.930 . S
C1767 C1754 1.412 . S
C1767 C1766 1.455 . S
C1767 C1768 1.331 . S
C1768 C1757 1.451 . S
C1768 C1767 1.331 . S
C1768 C1769 1.497 . S
C1769 C1760 1.395 . S
C1769 C1764 1.446 . S
C1769 C1768 1.497 . S
C1770 C1771 1.581 1_655 S
C1770 H1827 0.989 . S
C1770 H1828 0.959 . S
C1770 H1829 0.958 . S
C1771 C1770 1.581 1_455 S
C1771 O1774 1.427 1_455 S
C1771 H1800 0.993 . S
O1772 C1717 1.426 . S
O1772 C1718 1.334 . S
O1773 C1745 1.412 . S
O1773 C1746 1.393 . S
O1774 C1736 1.435 . S
O1774 C1771 1.427 1_655 S
O1775 C1727 1.468 . S
O1775 C1728 1.408 . S
H1776 C1717 0.980 1_655 S
H1777 C1716 0.959 . S
H1778 C1716 0.959 . S
H1779 C1716 0.960 . S
H1780 C1719 0.929 . S
H1781 C1723 0.929 . S
H1782 C1724 0.959 . S
H1783 C1724 0.961 . S
H1784 C1724 0.961 . S
H1785 C1725 0.960 . S
H1786 C1725 0.960 . S
H1787 C1725 0.961 . S
H1788 C1727 0.980 . S
H1789 C1726 0.961 . S
H1790 C1726 0.960 . S
H1791 C1726 0.959 . S
H1792 C1729 0.926 1_455 S
H1793 C1733 0.931 . S
H1794 C1734 0.959 . S
H1795 C1734 0.961 . S
H1796 C1734 0.959 . S
H1797 C1735 0.960 . S
H1798 C1735 0.960 . S
H1799 C1735 0.960 . S
H1800 C1771 0.993 . S
H1801 C1737 0.930 . S
H1802 C1741 0.930 . S
H1803 C1742 0.961 . S
H1804 C1742 0.960 . S
H1805 C1742 0.958 . S
H1806 C1743 0.961 . S
H1807 C1743 0.960 . S
H1808 C1743 0.960 . S
H1809 C1745 0.994 . S
H1810 C1744 0.961 . S
H1811 C1744 0.961 . S
H1812 C1744 0.959 . S
H1813 C1747 0.932 . S
H1814 C1751 0.929 . S
H1815 C1752 0.961 . S
H1816 C1752 0.959 . S
H1817 C1752 0.959 . S
H1818 C1753 0.960 . S
H1819 C1753 0.962 . S
H1820 C1753 0.961 . S
H1821 C1755 0.929 . S
H1822 C1758 0.930 . S
H1823 C1759 0.929 . S
H1824 C1762 0.930 . S
H1825 C1765 0.929 . S
H1826 C1766 0.930 . S
H1827 C1770 0.989 . S
H1828 C1770 0.959 . S
H1829 C1770 0.958 . S
C1830 C1831 1.560 . S
C1830 H1891 0.959 . S
C1830 H1892 0.959 . S
C1830 H1893 0.960 . S
C1831 C1830 1.560 . S
C1831 O1886 1.426 . S
C1831 H1890 0.980 . S
C1832 C1833 1.407 . S
C1832 C1837 1.418 . S
C1832 O1886 1.334 . S
C1833 C1832 1.407 . S
C1833 C1834 1.360 . S
C1833 H1894 0.929 . S
C1834 C1833 1.360 . S
C1834 C1835 1.401 . S
C1834 C1838 1.527 . S
C1835 C1834 1.401 . S
C1835 C1836 1.405 . S
C1835 C1868 1.587 . S
C1836 C1835 1.405 . S
C1836 C1837 1.332 . S
C1836 C1839 1.496 . S
C1837 C1832 1.418 . S
C1837 C1836 1.332 . S
C1837 H1895 0.929 . S
C1838 C1834 1.527 . S
C1838 H1896 0.959 . S
C1838 H1897 0.961 . S
C1838 H1898 0.961 . S
C1839 C1836 1.496 . S
C1839 H1899 0.960 . S
C1839 H1900 0.960 . S
C1839 H1901 0.961 . S
C1840 C1841 1.517 . S
C1840 H1903 0.961 . S
C1840 H1904 0.960 . S
C1840 H1905 0.959 . S
C1841 C1840 1.517 . S
C1841 O1889 1.468 . S
C1841 H1902 0.980 . S
C1842 C1843 1.349 . S
C1842 C1847 1.367 . S
C1842 O1889 1.408 . S
C1843 C1842 1.349 . S
C1843 C1844 1.407 . S
C1843 H1906 0.930 . S
C1844 C1843 1.407 . S
C1844 C1845 1.449 . S
C1844 C1848 1.535 . S
C1845 C1844 1.449 . S
C1845 C1846 1.384 . S
C1845 C1870 1.553 . S
C1846 C1845 1.384 . S
C1846 C1847 1.364 . S
C1846 C1849 1.450 . S
C1847 C1842 1.367 . S
C1847 C1846 1.364 . S
C1847 H1907 0.931 . S
C1848 C1844 1.535 . S
C1848 H1908 0.959 . S
C1848 H1909 0.961 . S
C1848 H1910 0.959 . S
C1849 C1846 1.450 . S
C1849 H1911 0.960 . S
C1849 H1912 0.960 . S
C1849 H1913 0.960 . S
C1850 C1851 1.309 . S
C1850 C1855 1.304 . S
C1850 O1888 1.435 . S
C1851 C1850 1.309 . S
C1851 C1852 1.476 . S
C1851 H1915 0.930 . S
C1852 C1851 1.476 . S
C1852 C1853 1.400 . S
C1852 C1856 1.567 . S
C1853 C1852 1.400 . S
C1853 C1854 1.373 . S
C1853 C1875 1.432 . S
C1854 C1853 1.373 . S
C1854 C1855 1.339 . S
C1854 C1857 1.530 . S
C1855 C1850 1.304 . S
C1855 C1854 1.339 . S
C1855 H1916 0.930 . S
C1856 C1852 1.567 . S
C1856 H1917 0.961 . S
C1856 H1918 0.960 . S
C1856 H1919 0.958 . S
C1857 C1854 1.530 . S
C1857 H1920 0.961 . S
C1857 H1921 0.960 . S
C1857 H1922 0.960 . S
C1858 C1859 1.530 . S
C1858 H1924 0.961 . S
C1858 H1925 0.961 . S
C1858 H1926 0.959 . S
C1859 C1858 1.530 . S
C1859 O1887 1.412 . S
C1859 H1923 0.980 . S
C1860 C1861 1.288 . S
C1860 C1865 1.377 . S
C1860 O1887 1.393 . S
C1861 C1860 1.288 . S
C1861 C1862 1.369 . S
C1861 H1927 0.932 . S
C1862 C1861 1.369 . S
C1862 C1863 1.398 . S
C1862 C1866 1.527 . S
C1863 C1862 1.398 . S
C1863 C1864 1.380 . S
C1863 C1877 1.497 . S
C1864 C1863 1.380 . S
C1864 C1865 1.383 . S
C1864 C1867 1.603 . S
C1865 C1860 1.377 . S
C1865 C1864 1.383 . S
C1865 H1928 0.929 . S
C1866 C1862 1.527 . S
C1866 H1929 0.961 . S
C1866 H1930 0.959 . S
C1866 H1931 0.959 . S
C1867 C1864 1.603 . S
C1867 H1932 0.960 . S
C1867 H1933 0.962 . S
C1867 H1934 0.961 . S
C1868 C1835 1.587 . S
C1868 C1869 1.360 . S
C1868 C1881 1.412 . S
C1869 C1868 1.360 . S
C1869 C1870 1.365 . S
C1869 H1935 0.929 . S
C1870 C1845 1.553 . S
C1870 C1869 1.365 . S
C1870 C1871 1.404 . S
C1871 C1870 1.404 . S
C1871 C1872 1.395 . S
C1871 C1882 1.451 . S
C1872 C1871 1.395 . S
C1872 C1873 1.322 . S
C1872 H1936 0.930 . S
C1873 C1872 1.322 . S
C1873 C1874 1.459 . S
C1873 H1937 0.929 . S
C1874 C1873 1.459 . S
C1874 C1875 1.445 . S
C1874 C1883 1.395 . S
C1875 C1853 1.432 . S
C1875 C1874 1.445 . S
C1875 C1876 1.370 . S
C1876 C1875 1.370 . S
C1876 C1877 1.438 . S
C1876 H1938 0.930 . S
C1877 C1863 1.497 . S
C1877 C1876 1.438 . S
C1877 C1878 1.360 . S
C1878 C1877 1.360 . S
C1878 C1879 1.401 . S
C1878 C1883 1.446 . S
C1879 C1878 1.401 . S
C1879 C1880 1.347 . S
C1879 H1939 0.929 . S
C1880 C1879 1.347 . S
C1880 C1881 1.455 . S
C1880 H1940 0.930 . S
C1881 C1868 1.412 . S
C1881 C1880 1.455 . S
C1881 C1882 1.331 . S
C1882 C1871 1.451 . S
C1882 C1881 1.331 . S
C1882 C1883 1.497 . S
C1883 C1874 1.395 . S
C1883 C1878 1.446 . S
C1883 C1882 1.497 . S
C1884 C1885 1.582 . S
C1884 H1941 0.962 . S
C1884 H1942 0.959 . S
C1884 H1943 0.958 . S
C1885 C1884 1.582 . S
C1885 O1888 1.458 . S
C1885 H1914 0.980 . S
O1886 C1831 1.426 . S
O1886 C1832 1.334 . S
O1887 C1859 1.412 . S
O1887 C1860 1.393 . S
O1888 C1850 1.435 . S
O1888 C1885 1.458 . S
O1889 C1841 1.468 . S
O1889 C1842 1.408 . S
H1890 C1831 0.980 . S
H1891 C1830 0.959 . S
H1892 C1830 0.959 . S
H1893 C1830 0.960 . S
H1894 C1833 0.929 . S
H1895 C1837 0.929 . S
H1896 C1838 0.959 . S
H1897 C1838 0.961 . S
H1898 C1838 0.961 . S
H1899 C1839 0.960 . S
H1900 C1839 0.960 . S
H1901 C1839 0.961 . S
H1902 C1841 0.980 . S
H1903 C1840 0.961 . S
H1904 C1840 0.960 . S
H1905 C1840 0.959 . S
H1906 C1843 0.930 . S
H1907 C1847 0.931 . S
H1908 C1848 0.959 . S
H1909 C1848 0.961 . S
H1910 C1848 0.959 . S
H1911 C1849 0.960 . S
H1912 C1849 0.960 . S
H1913 C1849 0.960 . S
H1914 C1885 0.980 . S
H1915 C1851 0.930 . S
H1916 C1855 0.930 . S
H1917 C1856 0.961 . S
H1918 C1856 0.960 . S
H1919 C1856 0.958 . S
H1920 C1857 0.961 . S
H1921 C1857 0.960 . S
H1922 C1857 0.960 . S
H1923 C1859 0.980 . S
H1924 C1858 0.961 . S
H1925 C1858 0.961 . S
H1926 C1858 0.959 . S
H1927 C1861 0.932 . S
H1928 C1865 0.929 . S
H1929 C1866 0.961 . S
H1930 C1866 0.959 . S
H1931 C1866 0.959 . S
H1932 C1867 0.960 . S
H1933 C1867 0.962 . S
H1934 C1867 0.961 . S
H1935 C1869 0.929 . S
H1936 C1872 0.930 . S
H1937 C1873 0.929 . S
H1938 C1876 0.930 . S
H1939 C1879 0.929 . S
H1940 C1880 0.930 . S
H1941 C1884 0.962 . S
H1942 C1884 0.959 . S
H1943 C1884 0.958 . S
C1944 C1945 1.560 . S
C1944 H2005 0.959 . S
C1944 H2006 0.959 . S
C1944 H2007 0.960 . S
C1945 C1944 1.560 . S
C1945 O2000 1.426 . S
C1945 H2004 0.980 . S
C1946 C1947 1.407 . S
C1946 C1951 1.418 . S
C1946 O2000 1.334 . S
C1947 C1946 1.407 . S
C1947 C1948 1.360 . S
C1947 H2008 0.929 . S
C1948 C1947 1.360 . S
C1948 C1949 1.401 . S
C1948 C1952 1.527 . S
C1949 C1948 1.401 . S
C1949 C1950 1.405 . S
C1949 C1982 1.587 . S
C1950 C1949 1.405 . S
C1950 C1951 1.332 . S
C1950 C1953 1.496 . S
C1951 C1946 1.418 . S
C1951 C1950 1.332 . S
C1951 H2009 0.929 . S
C1952 C1948 1.527 . S
C1952 H2010 0.959 . S
C1952 H2011 0.961 . S
C1952 H2012 0.961 . S
C1953 C1950 1.496 . S
C1953 H2013 0.960 . S
C1953 H2014 0.960 . S
C1953 H2015 0.961 . S
C1954 C1955 1.517 . S
C1954 H2017 0.961 . S
C1954 H2018 0.960 . S
C1954 H2019 0.959 . S
C1955 C1954 1.517 . S
C1955 O2003 1.468 . S
C1955 H2016 0.980 . S
C1956 C1957 1.349 . S
C1956 C1961 1.367 . S
C1956 O2003 1.408 . S
C1957 C1956 1.349 . S
C1957 C1958 1.407 . S
C1957 H2020 0.930 . S
C1958 C1957 1.407 . S
C1958 C1959 1.449 . S
C1958 C1962 1.535 . S
C1959 C1958 1.449 . S
C1959 C1960 1.384 . S
C1959 C1984 1.553 . S
C1960 C1959 1.384 . S
C1960 C1961 1.364 . S
C1960 C1963 1.450 . S
C1961 C1956 1.367 . S
C1961 C1960 1.364 . S
C1961 H2021 0.931 . S
C1962 C1958 1.535 . S
C1962 H2022 0.959 . S
C1962 H2023 0.961 . S
C1962 H2024 0.959 . S
C1963 C1960 1.450 . S
C1963 H2025 0.960 . S
C1963 H2026 0.960 . S
C1963 H2027 0.960 . S
C1964 C1965 1.309 . S
C1964 C1969 1.304 . S
C1964 O2002 1.435 . S
C1965 C1964 1.309 . S
C1965 C1966 1.476 . S
C1965 H2029 0.930 . S
C1966 C1965 1.476 . S
C1966 C1967 1.400 . S
C1966 C1970 1.567 . S
C1967 C1966 1.400 . S
C1967 C1968 1.373 . S
C1967 C1989 1.432 . S
C1968 C1967 1.373 . S
C1968 C1969 1.339 . S
C1968 C1971 1.530 . S
C1969 C1964 1.304 . S
C1969 C1968 1.339 . S
C1969 H2030 0.930 . S
C1970 C1966 1.567 . S
C1970 H2031 0.961 . S
C1970 H2032 0.960 . S
C1970 H2033 0.958 . S
C1971 C1968 1.530 . S
C1971 H2034 0.961 . S
C1971 H2035 0.960 . S
C1971 H2036 0.960 . S
C1972 C1973 1.530 . S
C1972 H2038 0.961 . S
C1972 H2039 0.961 . S
C1972 H2040 0.959 . S
C1973 C1972 1.530 . S
C1973 O2001 1.412 . S
C1973 H2037 0.980 . S
C1974 C1975 1.288 . S
C1974 C1979 1.377 . S
C1974 O2001 1.393 . S
C1975 C1974 1.288 . S
C1975 C1976 1.369 . S
C1975 H2041 0.932 . S
C1976 C1975 1.369 . S
C1976 C1977 1.398 . S
C1976 C1980 1.527 . S
C1977 C1976 1.398 . S
C1977 C1978 1.380 . S
C1977 C1991 1.497 . S
C1978 C1977 1.380 . S
C1978 C1979 1.383 . S
C1978 C1981 1.603 . S
C1979 C1974 1.377 . S
C1979 C1978 1.383 . S
C1979 H2042 0.929 . S
C1980 C1976 1.527 . S
C1980 H2043 0.961 . S
C1980 H2044 0.959 . S
C1980 H2045 0.959 . S
C1981 C1978 1.603 . S
C1981 H2046 0.960 . S
C1981 H2047 0.962 . S
C1981 H2048 0.961 . S
C1982 C1949 1.587 . S
C1982 C1983 1.360 . S
C1982 C1995 1.412 . S
C1983 C1982 1.360 . S
C1983 C1984 1.365 . S
C1983 H2049 0.929 . S
C1984 C1959 1.553 . S
C1984 C1983 1.365 . S
C1984 C1985 1.404 . S
C1985 C1984 1.404 . S
C1985 C1986 1.395 . S
C1985 C1996 1.451 . S
C1986 C1985 1.395 . S
C1986 C1987 1.322 . S
C1986 H2050 0.930 . S
C1987 C1986 1.322 . S
C1987 C1988 1.459 . S
C1987 H2051 0.929 . S
C1988 C1987 1.459 . S
C1988 C1989 1.445 . S
C1988 C1997 1.395 . S
C1989 C1967 1.432 . S
C1989 C1988 1.445 . S
C1989 C1990 1.370 . S
C1990 C1989 1.370 . S
C1990 C1991 1.438 . S
C1990 H2052 0.930 . S
C1991 C1977 1.497 . S
C1991 C1990 1.438 . S
C1991 C1992 1.360 . S
C1992 C1991 1.360 . S
C1992 C1993 1.401 . S
C1992 C1997 1.446 . S
C1993 C1992 1.401 . S
C1993 C1994 1.347 . S
C1993 H2053 0.929 . S
C1994 C1993 1.347 . S
C1994 C1995 1.455 . S
C1994 H2054 0.930 . S
C1995 C1982 1.412 . S
C1995 C1994 1.455 . S
C1995 C1996 1.331 . S
C1996 C1985 1.451 . S
C1996 C1995 1.331 . S
C1996 C1997 1.497 . S
C1997 C1988 1.395 . S
C1997 C1992 1.446 . S
C1997 C1996 1.497 . S
C1998 C1999 1.582 . S
C1998 H2055 0.962 . S
C1998 H2056 0.959 . S
C1998 H2057 0.958 . S
C1999 C1998 1.582 . S
C1999 O2002 1.458 . S
C1999 H2028 0.980 . S
O2000 C1945 1.426 . S
O2000 C1946 1.334 . S
O2001 C1973 1.412 . S
O2001 C1974 1.393 . S
O2002 C1964 1.435 . S
O2002 C1999 1.458 . S
O2003 C1955 1.468 . S
O2003 C1956 1.408 . S
H2004 C1945 0.980 . S
H2005 C1944 0.959 . S
H2006 C1944 0.959 . S
H2007 C1944 0.960 . S
H2008 C1947 0.929 . S
H2009 C1951 0.929 . S
H2010 C1952 0.959 . S
H2011 C1952 0.961 . S
H2012 C1952 0.961 . S
H2013 C1953 0.960 . S
H2014 C1953 0.960 . S
H2015 C1953 0.961 . S
H2016 C1955 0.980 . S
H2017 C1954 0.961 . S
H2018 C1954 0.960 . S
H2019 C1954 0.959 . S
H2020 C1957 0.930 . S
H2021 C1961 0.931 . S
H2022 C1962 0.959 . S
H2023 C1962 0.961 . S
H2024 C1962 0.959 . S
H2025 C1963 0.960 . S
H2026 C1963 0.960 . S
H2027 C1963 0.960 . S
H2028 C1999 0.980 . S
H2029 C1965 0.930 . S
H2030 C1969 0.930 . S
H2031 C1970 0.961 . S
H2032 C1970 0.960 . S
H2033 C1970 0.958 . S
H2034 C1971 0.961 . S
H2035 C1971 0.960 . S
H2036 C1971 0.960 . S
H2037 C1973 0.980 . S
H2038 C1972 0.961 . S
H2039 C1972 0.961 . S
H2040 C1972 0.959 . S
H2041 C1975 0.932 . S
H2042 C1979 0.929 . S
H2043 C1980 0.961 . S
H2044 C1980 0.959 . S
H2045 C1980 0.959 . S
H2046 C1981 0.960 . S
H2047 C1981 0.962 . S
H2048 C1981 0.961 . S
H2049 C1983 0.929 . S
H2050 C1986 0.930 . S
H2051 C1987 0.929 . S
H2052 C1990 0.930 . S
H2053 C1993 0.929 . S
H2054 C1994 0.930 . S
H2055 C1998 0.962 . S
H2056 C1998 0.959 . S
H2057 C1998 0.958 . S
C2058 C2059 1.560 . S
C2058 H2119 0.959 . S
C2058 H2120 0.959 . S
C2058 H2121 0.960 . S
C2059 C2058 1.560 . S
C2059 O2114 1.426 . S
C2059 H2118 0.980 . S
C2060 C2061 1.407 . S
C2060 C2065 1.418 . S
C2060 O2114 1.334 . S
C2061 C2060 1.407 . S
C2061 C2062 1.360 . S
C2061 H2122 0.929 . S
C2062 C2061 1.360 . S
C2062 C2063 1.401 . S
C2062 C2066 1.527 . S
C2063 C2062 1.401 . S
C2063 C2064 1.405 . S
C2063 C2096 1.587 . S
C2064 C2063 1.405 . S
C2064 C2065 1.332 . S
C2064 C2067 1.496 . S
C2065 C2060 1.418 . S
C2065 C2064 1.332 . S
C2065 H2123 0.929 . S
C2066 C2062 1.527 . S
C2066 H2124 0.959 . S
C2066 H2125 0.961 . S
C2066 H2126 0.961 . S
C2067 C2064 1.496 . S
C2067 H2127 0.960 . S
C2067 H2128 0.960 . S
C2067 H2129 0.961 . S
C2068 C2069 1.517 . S
C2068 H2131 0.961 . S
C2068 H2132 0.960 . S
C2068 H2133 0.959 . S
C2069 C2068 1.517 . S
C2069 O2117 1.468 . S
C2069 H2130 0.980 . S
C2070 C2071 1.349 . S
C2070 C2075 1.367 . S
C2070 O2117 1.408 . S
C2071 C2070 1.349 . S
C2071 C2072 1.407 . S
C2071 H2134 0.930 . S
C2072 C2071 1.407 . S
C2072 C2073 1.449 . S
C2072 C2076 1.535 . S
C2073 C2072 1.449 . S
C2073 C2074 1.384 . S
C2073 C2098 1.553 . S
C2074 C2073 1.384 . S
C2074 C2075 1.364 . S
C2074 C2077 1.450 . S
C2075 C2070 1.367 . S
C2075 C2074 1.364 . S
C2075 H2135 0.931 . S
C2076 C2072 1.535 . S
C2076 H2136 0.959 . S
C2076 H2137 0.961 . S
C2076 H2138 0.959 . S
C2077 C2074 1.450 . S
C2077 H2139 0.960 . S
C2077 H2140 0.960 . S
C2077 H2141 0.960 . S
C2078 C2079 1.309 . S
C2078 C2083 1.304 . S
C2078 O2116 1.435 . S
C2079 C2078 1.309 . S
C2079 C2080 1.476 . S
C2079 H2143 0.930 . S
C2080 C2079 1.476 . S
C2080 C2081 1.400 . S
C2080 C2084 1.567 . S
C2081 C2080 1.400 . S
C2081 C2082 1.373 . S
C2081 C2103 1.432 . S
C2082 C2081 1.373 . S
C2082 C2083 1.339 . S
C2082 C2085 1.530 . S
C2083 C2078 1.304 . S
C2083 C2082 1.339 . S
C2083 H2144 0.930 . S
C2084 C2080 1.567 . S
C2084 H2145 0.961 . S
C2084 H2146 0.960 . S
C2084 H2147 0.958 . S
C2085 C2082 1.530 . S
C2085 H2148 0.961 . S
C2085 H2149 0.960 . S
C2085 H2150 0.960 . S
C2086 C2087 1.530 . S
C2086 H2152 0.961 . S
C2086 H2153 0.961 . S
C2086 H2154 0.959 . S
C2087 C2086 1.530 . S
C2087 O2115 1.412 . S
C2087 H2151 0.980 . S
C2088 C2089 1.288 . S
C2088 C2093 1.377 . S
C2088 O2115 1.393 . S
C2089 C2088 1.288 . S
C2089 C2090 1.369 . S
C2089 H2155 0.932 . S
C2090 C2089 1.369 . S
C2090 C2091 1.398 . S
C2090 C2094 1.527 . S
C2091 C2090 1.398 . S
C2091 C2092 1.380 . S
C2091 C2105 1.497 . S
C2092 C2091 1.380 . S
C2092 C2093 1.383 . S
C2092 C2095 1.603 . S
C2093 C2088 1.377 . S
C2093 C2092 1.383 . S
C2093 H2156 0.929 . S
C2094 C2090 1.527 . S
C2094 H2157 0.961 . S
C2094 H2158 0.959 . S
C2094 H2159 0.959 . S
C2095 C2092 1.603 . S
C2095 H2160 0.960 . S
C2095 H2161 0.962 . S
C2095 H2162 0.961 . S
C2096 C2063 1.587 . S
C2096 C2097 1.360 . S
C2096 C2109 1.412 . S
C2097 C2096 1.360 . S
C2097 C2098 1.365 . S
C2097 H2163 0.929 . S
C2098 C2073 1.553 . S
C2098 C2097 1.365 . S
C2098 C2099 1.404 . S
C2099 C2098 1.404 . S
C2099 C2100 1.395 . S
C2099 C2110 1.451 . S
C2100 C2099 1.395 . S
C2100 C2101 1.322 . S
C2100 H2164 0.930 . S
C2101 C2100 1.322 . S
C2101 C2102 1.459 . S
C2101 H2165 0.929 . S
C2102 C2101 1.459 . S
C2102 C2103 1.445 . S
C2102 C2111 1.395 . S
C2103 C2081 1.432 . S
C2103 C2102 1.445 . S
C2103 C2104 1.370 . S
C2104 C2103 1.370 . S
C2104 C2105 1.438 . S
C2104 H2166 0.930 . S
C2105 C2091 1.497 . S
C2105 C2104 1.438 . S
C2105 C2106 1.360 . S
C2106 C2105 1.360 . S
C2106 C2107 1.401 . S
C2106 C2111 1.446 . S
C2107 C2106 1.401 . S
C2107 C2108 1.347 . S
C2107 H2167 0.929 . S
C2108 C2107 1.347 . S
C2108 C2109 1.455 . S
C2108 H2168 0.930 . S
C2109 C2096 1.412 . S
C2109 C2108 1.455 . S
C2109 C2110 1.331 . S
C2110 C2099 1.451 . S
C2110 C2109 1.331 . S
C2110 C2111 1.497 . S
C2111 C2102 1.395 . S
C2111 C2106 1.446 . S
C2111 C2110 1.497 . S
C2112 C2113 1.582 . S
C2112 H2169 0.962 . S
C2112 H2170 0.959 . S
C2112 H2171 0.958 . S
C2113 C2112 1.582 . S
C2113 O2116 1.458 . S
C2113 H2142 0.980 . S
O2114 C2059 1.426 . S
O2114 C2060 1.334 . S
O2115 C2087 1.412 . S
O2115 C2088 1.393 . S
O2116 C2078 1.435 . S
O2116 C2113 1.458 . S
O2117 C2069 1.468 . S
O2117 C2070 1.408 . S
H2118 C2059 0.980 . S
H2119 C2058 0.959 . S
H2120 C2058 0.959 . S
H2121 C2058 0.960 . S
H2122 C2061 0.929 . S
H2123 C2065 0.929 . S
H2124 C2066 0.959 . S
H2125 C2066 0.961 . S
H2126 C2066 0.961 . S
H2127 C2067 0.960 . S
H2128 C2067 0.960 . S
H2129 C2067 0.961 . S
H2130 C2069 0.980 . S
H2131 C2068 0.961 . S
H2132 C2068 0.960 . S
H2133 C2068 0.959 . S
H2134 C2071 0.930 . S
H2135 C2075 0.931 . S
H2136 C2076 0.959 . S
H2137 C2076 0.961 . S
H2138 C2076 0.959 . S
H2139 C2077 0.960 . S
H2140 C2077 0.960 . S
H2141 C2077 0.960 . S
H2142 C2113 0.980 . S
H2143 C2079 0.930 . S
H2144 C2083 0.930 . S
H2145 C2084 0.961 . S
H2146 C2084 0.960 . S
H2147 C2084 0.958 . S
H2148 C2085 0.961 . S
H2149 C2085 0.960 . S
H2150 C2085 0.960 . S
H2151 C2087 0.980 . S
H2152 C2086 0.961 . S
H2153 C2086 0.961 . S
H2154 C2086 0.959 . S
H2155 C2089 0.932 . S
H2156 C2093 0.929 . S
H2157 C2094 0.961 . S
H2158 C2094 0.959 . S
H2159 C2094 0.959 . S
H2160 C2095 0.960 . S
H2161 C2095 0.962 . S
H2162 C2095 0.961 . S
H2163 C2097 0.929 . S
H2164 C2100 0.930 . S
H2165 C2101 0.929 . S
H2166 C2104 0.930 . S
H2167 C2107 0.929 . S
H2168 C2108 0.930 . S
H2169 C2112 0.962 . S
H2170 C2112 0.959 . S
H2171 C2112 0.958 . S
C2172 C2173 1.560 . S
C2172 H2233 0.959 . S
C2172 H2234 0.959 . S
C2172 H2235 0.960 . S
C2173 C2172 1.560 . S
C2173 O2228 1.426 . S
C2173 H2232 0.980 . S
C2174 C2175 1.407 . S
C2174 C2179 1.418 . S
C2174 O2228 1.334 . S
C2175 C2174 1.407 . S
C2175 C2176 1.360 . S
C2175 H2236 0.929 . S
C2176 C2175 1.360 . S
C2176 C2177 1.401 . S
C2176 C2180 1.527 . S
C2177 C2176 1.401 . S
C2177 C2178 1.405 . S
C2177 C2210 1.587 . S
C2178 C2177 1.405 . S
C2178 C2179 1.332 . S
C2178 C2181 1.496 . S
C2179 C2174 1.418 . S
C2179 C2178 1.332 . S
C2179 H2237 0.929 . S
C2180 C2176 1.527 . S
C2180 H2238 0.959 . S
C2180 H2239 0.961 . S
C2180 H2240 0.961 . S
C2181 C2178 1.496 . S
C2181 H2241 0.960 . S
C2181 H2242 0.960 . S
C2181 H2243 0.961 . S
C2182 C2183 1.517 . S
C2182 H2245 0.961 . S
C2182 H2246 0.960 . S
C2182 H2247 0.959 . S
C2183 C2182 1.517 . S
C2183 O2231 1.468 . S
C2183 H2244 0.980 . S
C2184 C2185 1.349 . S
C2184 C2189 1.367 . S
C2184 O2231 1.408 . S
C2185 C2184 1.349 . S
C2185 C2186 1.407 . S
C2185 H2248 0.930 . S
C2186 C2185 1.407 . S
C2186 C2187 1.449 . S
C2186 C2190 1.535 . S
C2187 C2186 1.449 . S
C2187 C2188 1.384 . S
C2187 C2212 1.553 . S
C2188 C2187 1.384 . S
C2188 C2189 1.364 . S
C2188 C2191 1.450 . S
C2189 C2184 1.367 . S
C2189 C2188 1.364 . S
C2189 H2249 0.931 . S
C2190 C2186 1.535 . S
C2190 H2250 0.959 . S
C2190 H2251 0.961 . S
C2190 H2252 0.959 . S
C2191 C2188 1.450 . S
C2191 H2253 0.960 . S
C2191 H2254 0.960 . S
C2191 H2255 0.960 . S
C2192 C2193 1.309 . S
C2192 C2197 1.304 . S
C2192 O2230 1.435 . S
C2193 C2192 1.309 . S
C2193 C2194 1.476 . S
C2193 H2257 0.930 . S
C2194 C2193 1.476 . S
C2194 C2195 1.400 . S
C2194 C2198 1.567 . S
C2195 C2194 1.400 . S
C2195 C2196 1.373 . S
C2195 C2217 1.432 . S
C2196 C2195 1.373 . S
C2196 C2197 1.339 . S
C2196 C2199 1.530 . S
C2197 C2192 1.304 . S
C2197 C2196 1.339 . S
C2197 H2258 0.930 . S
C2198 C2194 1.567 . S
C2198 H2259 0.961 . S
C2198 H2260 0.960 . S
C2198 H2261 0.958 . S
C2199 C2196 1.530 . S
C2199 H2262 0.961 . S
C2199 H2263 0.960 . S
C2199 H2264 0.960 . S
C2200 C2201 1.530 . S
C2200 H2266 0.961 . S
C2200 H2267 0.961 . S
C2200 H2268 0.959 . S
C2201 C2200 1.530 . S
C2201 O2229 1.412 . S
C2201 H2265 0.980 . S
C2202 C2203 1.288 . S
C2202 C2207 1.377 . S
C2202 O2229 1.393 . S
C2203 C2202 1.288 . S
C2203 C2204 1.369 . S
C2203 H2269 0.932 . S
C2204 C2203 1.369 . S
C2204 C2205 1.398 . S
C2204 C2208 1.527 . S
C2205 C2204 1.398 . S
C2205 C2206 1.380 . S
C2205 C2219 1.497 . S
C2206 C2205 1.380 . S
C2206 C2207 1.383 . S
C2206 C2209 1.603 . S
C2207 C2202 1.377 . S
C2207 C2206 1.383 . S
C2207 H2270 0.929 . S
C2208 C2204 1.527 . S
C2208 H2271 0.961 . S
C2208 H2272 0.959 . S
C2208 H2273 0.959 . S
C2209 C2206 1.603 . S
C2209 H2274 0.960 . S
C2209 H2275 0.962 . S
C2209 H2276 0.961 . S
C2210 C2177 1.587 . S
C2210 C2211 1.360 . S
C2210 C2223 1.412 . S
C2211 C2210 1.360 . S
C2211 C2212 1.365 . S
C2211 H2277 0.929 . S
C2212 C2187 1.553 . S
C2212 C2211 1.365 . S
C2212 C2213 1.404 . S
C2213 C2212 1.404 . S
C2213 C2214 1.395 . S
C2213 C2224 1.451 . S
C2214 C2213 1.395 . S
C2214 C2215 1.322 . S
C2214 H2278 0.930 . S
C2215 C2214 1.322 . S
C2215 C2216 1.459 . S
C2215 H2279 0.929 . S
C2216 C2215 1.459 . S
C2216 C2217 1.445 . S
C2216 C2225 1.395 . S
C2217 C2195 1.432 . S
C2217 C2216 1.445 . S
C2217 C2218 1.370 . S
C2218 C2217 1.370 . S
C2218 C2219 1.438 . S
C2218 H2280 0.930 . S
C2219 C2205 1.497 . S
C2219 C2218 1.438 . S
C2219 C2220 1.360 . S
C2220 C2219 1.360 . S
C2220 C2221 1.401 . S
C2220 C2225 1.446 . S
C2221 C2220 1.401 . S
C2221 C2222 1.347 . S
C2221 H2281 0.929 . S
C2222 C2221 1.347 . S
C2222 C2223 1.455 . S
C2222 H2282 0.930 . S
C2223 C2210 1.412 . S
C2223 C2222 1.455 . S
C2223 C2224 1.331 . S
C2224 C2213 1.451 . S
C2224 C2223 1.331 . S
C2224 C2225 1.497 . S
C2225 C2216 1.395 . S
C2225 C2220 1.446 . S
C2225 C2224 1.497 . S
C2226 C2227 1.582 . S
C2226 H2283 0.962 . S
C2226 H2284 0.959 . S
C2226 H2285 0.958 . S
C2227 C2226 1.582 . S
C2227 O2230 1.458 . S
C2227 H2256 0.980 . S
O2228 C2173 1.426 . S
O2228 C2174 1.334 . S
O2229 C2201 1.412 . S
O2229 C2202 1.393 . S
O2230 C2192 1.435 . S
O2230 C2227 1.458 . S
O2231 C2183 1.468 . S
O2231 C2184 1.408 . S
H2232 C2173 0.980 . S
H2233 C2172 0.959 . S
H2234 C2172 0.959 . S
H2235 C2172 0.960 . S
H2236 C2175 0.929 . S
H2237 C2179 0.929 . S
H2238 C2180 0.959 . S
H2239 C2180 0.961 . S
H2240 C2180 0.961 . S
H2241 C2181 0.960 . S
H2242 C2181 0.960 . S
H2243 C2181 0.961 . S
H2244 C2183 0.980 . S
H2245 C2182 0.961 . S
H2246 C2182 0.960 . S
H2247 C2182 0.959 . S
H2248 C2185 0.930 . S
H2249 C2189 0.931 . S
H2250 C2190 0.959 . S
H2251 C2190 0.961 . S
H2252 C2190 0.959 . S
H2253 C2191 0.960 . S
H2254 C2191 0.960 . S
H2255 C2191 0.960 . S
H2256 C2227 0.980 . S
H2257 C2193 0.930 . S
H2258 C2197 0.930 . S
H2259 C2198 0.961 . S
H2260 C2198 0.960 . S
H2261 C2198 0.958 . S
H2262 C2199 0.961 . S
H2263 C2199 0.960 . S
H2264 C2199 0.960 . S
H2265 C2201 0.980 . S
H2266 C2200 0.961 . S
H2267 C2200 0.961 . S
H2268 C2200 0.959 . S
H2269 C2203 0.932 . S
H2270 C2207 0.929 . S
H2271 C2208 0.961 . S
H2272 C2208 0.959 . S
H2273 C2208 0.959 . S
H2274 C2209 0.960 . S
H2275 C2209 0.962 . S
H2276 C2209 0.961 . S
H2277 C2211 0.929 . S
H2278 C2214 0.930 . S
H2279 C2215 0.929 . S
H2280 C2218 0.930 . S
H2281 C2221 0.929 . S
H2282 C2222 0.930 . S
H2283 C2226 0.962 . S
H2284 C2226 0.959 . S
H2285 C2226 0.958 . S
C2286 C2287 1.387 . S
C2286 H2290 0.950 . S
C2286 C2295 1.390 . S
C2287 C2286 1.387 . S
C2287 C2289 1.387 1_655 S
H2288 C2295 0.950 . S
C2289 C2287 1.387 1_455 S
C2289 C2291 1.390 . S
C2289 H2293 0.950 . S
H2290 C2286 0.950 . S
C2291 C2289 1.390 . S
C2291 C2292 1.387 1_455 S
C2291 H2294 0.950 . S
C2292 C2291 1.387 1_655 S
C2292 C2295 1.387 . S
H2293 C2289 0.950 . S
H2294 C2291 0.950 . S
C2295 C2286 1.390 . S
C2295 H2288 0.950 . S
C2295 C2292 1.387 . S
C2296 C2297 1.387 . S
C2296 H2300 0.950 . S
C2296 C2305 1.390 . S
C2297 C2296 1.387 . S
C2297 C2299 1.387 . S
H2298 C2305 0.950 . S
C2299 C2297 1.387 . S
C2299 C2301 1.390 . S
C2299 H2303 0.950 . S
H2300 C2296 0.950 . S
C2301 C2299 1.390 . S
C2301 C2302 1.387 . S
C2301 H2304 0.950 . S
C2302 C2301 1.387 . S
C2302 C2305 1.387 . S
H2303 C2299 0.950 . S
H2304 C2301 0.950 . S
C2305 C2296 1.390 . S
C2305 H2298 0.950 . S
C2305 C2302 1.387 . S
C2306 C2307 1.387 1_565 S
C2306 H2310 0.950 . S
C2306 C2315 1.390 . S
C2307 C2306 1.387 1_545 S
C2307 C2309 1.387 . S
H2308 C2315 0.950 . S
C2309 C2307 1.387 . S
C2309 C2311 1.390 . S
C2309 H2313 0.950 . S
H2310 C2306 0.950 . S
C2311 C2309 1.390 . S
C2311 C2312 1.387 . S
C2311 H2314 0.950 . S
C2312 C2311 1.387 . S
C2312 C2315 1.387 1_545 S
H2313 C2309 0.950 . S
H2314 C2311 0.950 . S
C2315 C2306 1.390 . S
C2315 H2308 0.950 . S
C2315 C2312 1.387 1_565 S
C2316 C2317 1.387 . S
C2316 H2320 0.950 . S
C2316 C2325 1.390 . S
C2317 C2316 1.387 . S
C2317 C2319 1.387 1_565 S
H2318 C2325 0.950 . S
C2319 C2317 1.387 1_545 S
C2319 C2321 1.390 . S
C2319 H2323 0.950 . S
H2320 C2316 0.950 . S
C2321 C2319 1.390 . S
C2321 C2322 1.387 1_545 S
C2321 H2324 0.950 . S
C2322 C2321 1.387 1_565 S
C2322 C2325 1.387 . S
H2323 C2319 0.950 . S
H2324 C2321 0.950 . S
C2325 C2316 1.390 . S
C2325 H2318 0.950 . S
C2325 C2322 1.387 . S
C2326 C2327 1.387 1_655 S
C2326 H2330 0.950 . S
C2326 C2335 1.390 . S
C2327 C2326 1.387 1_455 S
C2327 C2329 1.387 . S
H2328 C2335 0.950 . S
C2329 C2327 1.387 . S
C2329 C2331 1.390 . S
C2329 H2333 0.950 . S
H2330 C2326 0.950 . S
C2331 C2329 1.390 . S
C2331 C2332 1.387 . S
C2331 H2334 0.950 . S
C2332 C2331 1.387 . S
C2332 C2335 1.387 1_455 S
H2333 C2329 0.950 . S
H2334 C2331 0.950 . S
C2335 C2326 1.390 . S
C2335 H2328 0.950 . S
C2335 C2332 1.387 1_655 S
C2336 C2337 1.387 . S
C2336 H2340 0.950 . S
C2336 C2345 1.390 . S
C2337 C2336 1.387 . S
C2337 C2339 1.387 . S
H2338 C2345 0.950 . S
C2339 C2337 1.387 . S
C2339 C2341 1.390 . S
C2339 H2343 0.950 . S
H2340 C2336 0.950 . S
C2341 C2339 1.390 . S
C2341 C2342 1.387 . S
C2341 H2344 0.950 . S
C2342 C2341 1.387 . S
C2342 C2345 1.387 . S
H2343 C2339 0.950 . S
H2344 C2341 0.950 . S
C2345 C2336 1.390 . S
C2345 H2338 0.950 . S
C2345 C2342 1.387 . S
C2346 C2347 1.387 . S
C2346 H2350 0.950 . S
C2346 C2355 1.390 . S
C2347 C2346 1.387 . S
C2347 C2349 1.387 . S
H2348 C2355 0.950 . S
C2349 C2347 1.387 . S
C2349 C2351 1.390 . S
C2349 H2353 0.950 . S
H2350 C2346 0.950 . S
C2351 C2349 1.390 . S
C2351 C2352 1.387 . S
C2351 H2354 0.950 . S
C2352 C2351 1.387 . S
C2352 C2355 1.387 . S
H2353 C2349 0.950 . S
H2354 C2351 0.950 . S
C2355 C2346 1.390 . S
C2355 H2348 0.950 . S
C2355 C2352 1.387 . S
C2356 C2357 1.387 . S
C2356 H2360 0.950 . S
C2356 C2365 1.390 . S
C2357 C2356 1.387 . S
C2357 C2359 1.387 . S
H2358 C2365 0.950 . S
C2359 C2357 1.387 . S
C2359 C2361 1.390 . S
C2359 H2363 0.950 . S
H2360 C2356 0.950 . S
C2361 C2359 1.390 . S
C2361 C2362 1.387 . S
C2361 H2364 0.950 . S
C2362 C2361 1.387 . S
C2362 C2365 1.387 . S
H2363 C2359 0.950 . S
H2364 C2361 0.950 . S
C2365 C2356 1.390 . S
C2365 H2358 0.950 . S
C2365 C2362 1.387 . S
C2366 C2367 1.387 . S
C2366 H2370 0.950 . S
C2366 C2375 1.390 . S
C2367 C2366 1.387 . S
C2367 C2369 1.387 1_565 S
H2368 C2375 0.950 . S
C2369 C2367 1.387 1_545 S
C2369 C2371 1.390 . S
C2369 H2373 0.950 . S
H2370 C2366 0.950 . S
C2371 C2369 1.390 . S
C2371 C2372 1.387 1_545 S
C2371 H2374 0.950 . S
C2372 C2371 1.387 1_565 S
C2372 C2375 1.387 . S
H2373 C2369 0.950 . S
H2374 C2371 0.950 . S
C2375 C2366 1.390 . S
C2375 H2368 0.950 . S
C2375 C2372 1.387 . S
C2376 C2377 1.387 . S
C2376 H2380 0.950 . S
C2376 C2385 1.390 . S
C2377 C2376 1.387 . S
C2377 C2379 1.387 1_545 S
H2378 C2385 0.950 . S
C2379 C2377 1.387 1_565 S
C2379 C2381 1.390 . S
C2379 H2383 0.950 . S
H2380 C2376 0.950 . S
C2381 C2379 1.390 . S
C2381 C2382 1.387 1_565 S
C2381 H2384 0.950 . S
C2382 C2381 1.387 1_545 S
C2382 C2385 1.387 . S
H2383 C2379 0.950 . S
H2384 C2381 0.950 . S
C2385 C2376 1.390 . S
C2385 H2378 0.950 . S
C2385 C2382 1.387 . S
C2386 C2387 1.387 . S
C2386 H2390 0.950 . S
C2386 C2395 1.390 . S
C2387 C2386 1.387 . S
C2387 C2389 1.387 1_655 S
H2388 C2395 0.950 . S
C2389 C2387 1.387 1_455 S
C2389 C2391 1.390 . S
C2389 H2393 0.950 . S
H2390 C2386 0.950 . S
C2391 C2389 1.390 . S
C2391 C2392 1.387 1_455 S
C2391 H2394 0.950 . S
C2392 C2391 1.387 1_655 S
C2392 C2395 1.387 . S
H2393 C2389 0.950 . S
H2394 C2391 0.950 . S
C2395 C2386 1.390 . S
C2395 H2388 0.950 . S
C2395 C2392 1.387 . S
C2396 C2397 1.387 . S
C2396 H2400 0.950 . S
C2396 C2405 1.390 . S
C2397 C2396 1.387 . S
C2397 C2399 1.387 . S
H2398 C2405 0.950 . S
C2399 C2397 1.387 . S
C2399 C2401 1.390 . S
C2399 H2403 0.950 . S
H2400 C2396 0.950 . S
C2401 C2399 1.390 . S
C2401 C2402 1.387 . S
C2401 H2404 0.950 . S
C2402 C2401 1.387 . S
C2402 C2405 1.387 . S
H2403 C2399 0.950 . S
H2404 C2401 0.950 . S
C2405 C2396 1.390 . S
C2405 H2398 0.950 . S
C2405 C2402 1.387 . S
C2406 C2407 1.387 . S
C2406 H2410 0.950 . S
C2406 C2415 1.390 . S
C2407 C2406 1.387 . S
C2407 C2409 1.387 . S
H2408 C2415 0.950 . S
C2409 C2407 1.387 . S
C2409 C2411 1.390 . S
C2409 H2413 0.950 . S
H2410 C2406 0.950 . S
C2411 C2409 1.390 . S
C2411 C2412 1.387 . S
C2411 H2414 0.950 . S
C2412 C2411 1.387 . S
C2412 C2415 1.387 . S
H2413 C2409 0.950 . S
H2414 C2411 0.950 . S
C2415 C2406 1.390 . S
C2415 H2408 0.950 . S
C2415 C2412 1.387 . S
C2416 C2417 1.387 . S
C2416 H2420 0.950 . S
C2416 C2425 1.390 . S
C2417 C2416 1.387 . S
C2417 C2419 1.387 . S
H2418 C2425 0.950 . S
C2419 C2417 1.387 . S
C2419 C2421 1.390 . S
C2419 H2423 0.950 . S
H2420 C2416 0.950 . S
C2421 C2419 1.390 . S
C2421 C2422 1.387 . S
C2421 H2424 0.950 . S
C2422 C2421 1.387 . S
C2422 C2425 1.387 . S
H2423 C2419 0.950 . S
H2424 C2421 0.950 . S
C2425 C2416 1.390 . S
C2425 H2418 0.950 . S
C2425 C2422 1.387 . S
C2426 C2427 1.387 . S
C2426 H2430 0.950 . S
C2426 C2435 1.390 . S
C2427 C2426 1.387 . S
C2427 C2429 1.387 . S
H2428 C2435 0.950 . S
C2429 C2427 1.387 . S
C2429 C2431 1.390 . S
C2429 H2433 0.950 . S
H2430 C2426 0.950 . S
C2431 C2429 1.390 . S
C2431 C2432 1.387 . S
C2431 H2434 0.950 . S
C2432 C2431 1.387 . S
C2432 C2435 1.387 . S
H2433 C2429 0.950 . S
H2434 C2431 0.950 . S
C2435 C2426 1.390 . S
C2435 H2428 0.950 . S
C2435 C2432 1.387 . S
C2436 C2437 1.387 . S
C2436 H2440 0.950 . S
C2436 C2445 1.390 . S
C2437 C2436 1.387 . S
C2437 C2439 1.387 . S
H2438 C2445 0.950 . S
C2439 C2437 1.387 . S
C2439 C2441 1.390 . S
C2439 H2443 0.950 . S
H2440 C2436 0.950 . S
C2441 C2439 1.390 . S
C2441 C2442 1.387 . S
C2441 H2444 0.950 . S
C2442 C2441 1.387 . S
C2442 C2445 1.387 . S
H2443 C2439 0.950 . S
H2444 C2441 0.950 . S
C2445 C2436 1.390 . S
C2445 H2438 0.950 . S
C2445 C2442 1.387 . S
C2446 C2447 1.387 . S
C2446 H2450 0.950 . S
C2446 C2455 1.390 . S
C2447 C2446 1.387 . S
C2447 C2449 1.387 . S
H2448 C2455 0.950 . S
C2449 C2447 1.387 . S
C2449 C2451 1.390 . S
C2449 H2453 0.950 . S
H2450 C2446 0.950 . S
C2451 C2449 1.390 . S
C2451 C2452 1.387 . S
C2451 H2454 0.950 . S
C2452 C2451 1.387 . S
C2452 C2455 1.387 . S
H2453 C2449 0.950 . S
H2454 C2451 0.950 . S
C2455 C2446 1.390 . S
C2455 H2448 0.950 . S
C2455 C2452 1.387 . S
C2456 C2457 1.387 . S
C2456 H2460 0.950 . S
C2456 C2465 1.390 . S
C2457 C2456 1.387 . S
C2457 C2459 1.387 . S
H2458 C2465 0.950 . S
C2459 C2457 1.387 . S
C2459 C2461 1.390 . S
C2459 H2463 0.950 . S
H2460 C2456 0.950 . S
C2461 C2459 1.390 . S
C2461 C2462 1.387 . S
C2461 H2464 0.950 . S
C2462 C2461 1.387 . S
C2462 C2465 1.387 . S
H2463 C2459 0.950 . S
H2464 C2461 0.950 . S
C2465 C2456 1.390 . S
C2465 H2458 0.950 . S
C2465 C2462 1.387 . S
C2466 C2467 1.387 . S
C2466 H2470 0.950 . S
C2466 C2475 1.390 . S
C2467 C2466 1.387 . S
C2467 C2469 1.387 . S
H2468 C2475 0.950 . S
C2469 C2467 1.387 . S
C2469 C2471 1.390 . S
C2469 H2473 0.950 . S
H2470 C2466 0.950 . S
C2471 C2469 1.390 . S
C2471 C2472 1.387 . S
C2471 H2474 0.950 . S
C2472 C2471 1.387 . S
C2472 C2475 1.387 . S
H2473 C2469 0.950 . S
H2474 C2471 0.950 . S
C2475 C2466 1.390 . S
C2475 H2468 0.950 . S
C2475 C2472 1.387 . S
C2476 C2477 1.387 . S
C2476 H2480 0.950 . S
C2476 C2485 1.390 . S
C2477 C2476 1.387 . S
C2477 C2479 1.387 . S
H2478 C2485 0.950 . S
C2479 C2477 1.387 . S
C2479 C2481 1.390 . S
C2479 H2483 0.950 . S
H2480 C2476 0.950 . S
C2481 C2479 1.390 . S
C2481 C2482 1.387 . S
C2481 H2484 0.950 . S
C2482 C2481 1.387 . S
C2482 C2485 1.387 . S
H2483 C2479 0.950 . S
H2484 C2481 0.950 . S
C2485 C2476 1.390 . S
C2485 H2478 0.950 . S
C2485 C2482 1.387 . S
C2486 C2487 1.387 . S
C2486 H2490 0.950 . S
C2486 C2495 1.390 . S
C2487 C2486 1.387 . S
C2487 C2489 1.387 . S
H2488 C2495 0.950 . S
C2489 C2487 1.387 . S
C2489 C2491 1.390 . S
C2489 H2493 0.950 . S
H2490 C2486 0.950 . S
C2491 C2489 1.390 . S
C2491 C2492 1.387 . S
C2491 H2494 0.950 . S
C2492 C2491 1.387 . S
C2492 C2495 1.387 . S
H2493 C2489 0.950 . S
H2494 C2491 0.950 . S
C2495 C2486 1.390 . S
C2495 H2488 0.950 . S
C2495 C2492 1.387 . S
C2496 C2497 1.387 . S
C2496 H2500 0.950 . S
C2496 C2505 1.390 . S
C2497 C2496 1.387 . S
C2497 C2499 1.387 . S
H2498 C2505 0.950 . S
C2499 C2497 1.387 . S
C2499 C2501 1.390 . S
C2499 H2503 0.950 . S
H2500 C2496 0.950 . S
C2501 C2499 1.390 . S
C2501 C2502 1.387 . S
C2501 H2504 0.950 . S
C2502 C2501 1.387 . S
C2502 C2505 1.387 . S
H2503 C2499 0.950 . S
H2504 C2501 0.950 . S
C2505 C2496 1.390 . S
C2505 H2498 0.950 . S
C2505 C2502 1.387 . S
C2506 C2507 1.387 . S
C2506 H2510 0.950 . S
C2506 C2515 1.390 . S
C2507 C2506 1.387 . S
C2507 C2509 1.387 . S
H2508 C2515 0.950 . S
C2509 C2507 1.387 . S
C2509 C2511 1.390 . S
C2509 H2513 0.950 . S
H2510 C2506 0.950 . S
C2511 C2509 1.390 . S
C2511 C2512 1.387 . S
C2511 H2514 0.950 . S
C2512 C2511 1.387 . S
C2512 C2515 1.387 . S
H2513 C2509 0.950 . S
H2514 C2511 0.950 . S
C2515 C2506 1.390 . S
C2515 H2508 0.950 . S
C2515 C2512 1.387 . S
C2516 C2517 1.387 . S
C2516 H2520 0.950 . S
C2516 C2525 1.390 . S
C2517 C2516 1.387 . S
C2517 C2519 1.387 . S
H2518 C2525 0.950 . S
C2519 C2517 1.387 . S
C2519 C2521 1.390 . S
C2519 H2523 0.950 . S
H2520 C2516 0.950 . S
C2521 C2519 1.390 . S
C2521 C2522 1.387 . S
C2521 H2524 0.950 . S
C2522 C2521 1.387 . S
C2522 C2525 1.387 . S
H2523 C2519 0.950 . S
H2524 C2521 0.950 . S
C2525 C2516 1.390 . S
C2525 H2518 0.950 . S
C2525 C2522 1.387 . S
C2526 C2527 1.387 . S
C2526 H2530 0.950 . S
C2526 C2535 1.390 . S
C2527 C2526 1.387 . S
C2527 C2529 1.387 . S
H2528 C2535 0.950 . S
C2529 C2527 1.387 . S
C2529 C2531 1.390 . S
C2529 H2533 0.950 . S
H2530 C2526 0.950 . S
C2531 C2529 1.390 . S
C2531 C2532 1.387 . S
C2531 H2534 0.950 . S
C2532 C2531 1.387 . S
C2532 C2535 1.387 . S
H2533 C2529 0.950 . S
H2534 C2531 0.950 . S
C2535 C2526 1.390 . S
C2535 H2528 0.950 . S
C2535 C2532 1.387 . S
C2536 C2537 1.387 . S
C2536 H2540 0.950 . S
C2536 C2545 1.390 . S
C2537 C2536 1.387 . S
C2537 C2539 1.387 . S
H2538 C2545 0.950 . S
C2539 C2537 1.387 . S
C2539 C2541 1.390 . S
C2539 H2543 0.950 . S
H2540 C2536 0.950 . S
C2541 C2539 1.390 . S
C2541 C2542 1.387 . S
C2541 H2544 0.950 . S
C2542 C2541 1.387 . S
C2542 C2545 1.387 . S
H2543 C2539 0.950 . S
H2544 C2541 0.950 . S
C2545 C2536 1.390 . S
C2545 H2538 0.950 . S
C2545 C2542 1.387 . S
C2546 C2547 1.387 . S
C2546 H2550 0.950 . S
C2546 C2555 1.390 . S
C2547 C2546 1.387 . S
C2547 C2549 1.387 . S
H2548 C2555 0.950 . S
C2549 C2547 1.387 . S
C2549 C2551 1.390 . S
C2549 H2553 0.950 . S
H2550 C2546 0.950 . S
C2551 C2549 1.390 . S
C2551 C2552 1.387 . S
C2551 H2554 0.950 . S
C2552 C2551 1.387 . S
C2552 C2555 1.387 . S
H2553 C2549 0.950 . S
H2554 C2551 0.950 . S
C2555 C2546 1.390 . S
C2555 H2548 0.950 . S
C2555 C2552 1.387 . S
C2556 C2557 1.387 . S
C2556 H2560 0.950 . S
C2556 C2565 1.390 . S
C2557 C2556 1.387 . S
C2557 C2559 1.387 . S
H2558 C2565 0.950 . S
C2559 C2557 1.387 . S
C2559 C2561 1.390 . S
C2559 H2563 0.950 . S
H2560 C2556 0.950 . S
C2561 C2559 1.390 . S
C2561 C2562 1.387 . S
C2561 H2564 0.950 . S
C2562 C2561 1.387 . S
C2562 C2565 1.387 . S
H2563 C2559 0.950 . S
H2564 C2561 0.950 . S
C2565 C2556 1.390 . S
C2565 H2558 0.950 . S
C2565 C2562 1.387 . S
C2566 C2567 1.387 . S
C2566 H2570 0.950 . S
C2566 C2575 1.390 . S
C2567 C2566 1.387 . S
C2567 C2569 1.387 . S
H2568 C2575 0.950 . S
C2569 C2567 1.387 . S
C2569 C2571 1.390 . S
C2569 H2573 0.950 . S
H2570 C2566 0.950 . S
C2571 C2569 1.390 . S
C2571 C2572 1.387 . S
C2571 H2574 0.950 . S
C2572 C2571 1.387 . S
C2572 C2575 1.387 . S
H2573 C2569 0.950 . S
H2574 C2571 0.950 . S
C2575 C2566 1.390 . S
C2575 H2568 0.950 . S
C2575 C2572 1.387 . S
C2576 C2577 1.387 . S
C2576 H2580 0.950 . S
C2576 C2585 1.390 . S
C2577 C2576 1.387 . S
C2577 C2579 1.387 . S
H2578 C2585 0.950 . S
C2579 C2577 1.387 . S
C2579 C2581 1.390 . S
C2579 H2583 0.950 . S
H2580 C2576 0.950 . S
C2581 C2579 1.390 . S
C2581 C2582 1.387 . S
C2581 H2584 0.950 . S
C2582 C2581 1.387 . S
C2582 C2585 1.387 . S
H2583 C2579 0.950 . S
H2584 C2581 0.950 . S
C2585 C2576 1.390 . S
C2585 H2578 0.950 . S
C2585 C2582 1.387 . S
C2586 C2587 1.387 . S
C2586 H2590 0.950 . S
C2586 C2595 1.390 . S
C2587 C2586 1.387 . S
C2587 C2589 1.387 . S
H2588 C2595 0.950 . S
C2589 C2587 1.387 . S
C2589 C2591 1.390 . S
C2589 H2593 0.950 . S
H2590 C2586 0.950 . S
C2591 C2589 1.390 . S
C2591 C2592 1.387 . S
C2591 H2594 0.950 . S
C2592 C2591 1.387 . S
C2592 C2595 1.387 . S
H2593 C2589 0.950 . S
H2594 C2591 0.950 . S
C2595 C2586 1.390 . S
C2595 H2588 0.950 . S
C2595 C2592 1.387 . S
C2596 C2597 1.387 . S
C2596 H2600 0.950 . S
C2596 C2605 1.390 . S
C2597 C2596 1.387 . S
C2597 C2599 1.387 . S
H2598 C2605 0.950 . S
C2599 C2597 1.387 . S
C2599 C2601 1.390 . S
C2599 H2603 0.950 . S
H2600 C2596 0.950 . S
C2601 C2599 1.390 . S
C2601 C2602 1.387 . S
C2601 H2604 0.950 . S
C2602 C2601 1.387 . S
C2602 C2605 1.387 . S
H2603 C2599 0.950 . S
H2604 C2601 0.950 . S
C2605 C2596 1.390 . S
C2605 H2598 0.950 . S
C2605 C2602 1.387 . S
C2606 C2607 1.387 . S
C2606 H2610 0.950 . S
C2606 C2615 1.390 . S
C2607 C2606 1.387 . S
C2607 C2609 1.387 . S
H2608 C2615 0.950 . S
C2609 C2607 1.387 . S
C2609 C2611 1.390 . S
C2609 H2613 0.950 . S
H2610 C2606 0.950 . S
C2611 C2609 1.390 . S
C2611 C2612 1.387 . S
C2611 H2614 0.950 . S
C2612 C2611 1.387 . S
C2612 C2615 1.387 . S
H2613 C2609 0.950 . S
H2614 C2611 0.950 . S
C2615 C2606 1.390 . S
C2615 H2608 0.950 . S
C2615 C2612 1.387 . S
C2616 C2617 1.387 . S
C2616 H2620 0.950 . S
C2616 C2625 1.390 . S
C2617 C2616 1.387 . S
C2617 C2619 1.387 . S
H2618 C2625 0.950 . S
C2619 C2617 1.387 . S
C2619 C2621 1.390 . S
C2619 H2623 0.950 . S
H2620 C2616 0.950 . S
C2621 C2619 1.390 . S
C2621 C2622 1.387 . S
C2621 H2624 0.950 . S
C2622 C2621 1.387 . S
C2622 C2625 1.387 . S
H2623 C2619 0.950 . S
H2624 C2621 0.950 . S
C2625 C2616 1.390 . S
C2625 H2618 0.950 . S
C2625 C2622 1.387 . S
C2626 C2627 1.387 . S
C2626 H2630 0.950 . S
C2626 C2635 1.390 . S
C2627 C2626 1.387 . S
C2627 C2629 1.387 . S
H2628 C2635 0.950 . S
C2629 C2627 1.387 . S
C2629 C2631 1.390 . S
C2629 H2633 0.950 . S
H2630 C2626 0.950 . S
C2631 C2629 1.390 . S
C2631 C2632 1.387 . S
C2631 H2634 0.950 . S
C2632 C2631 1.387 . S
C2632 C2635 1.387 . S
H2633 C2629 0.950 . S
H2634 C2631 0.950 . S
C2635 C2626 1.390 . S
C2635 H2628 0.950 . S
C2635 C2632 1.387 . S
C2636 C2637 1.387 . S
C2636 H2640 0.950 . S
C2636 C2645 1.390 . S
C2637 C2636 1.387 . S
C2637 C2639 1.387 . S
H2638 C2645 0.950 . S
C2639 C2637 1.387 . S
C2639 C2641 1.390 . S
C2639 H2643 0.950 . S
H2640 C2636 0.950 . S
C2641 C2639 1.390 . S
C2641 C2642 1.387 . S
C2641 H2644 0.950 . S
C2642 C2641 1.387 . S
C2642 C2645 1.387 . S
H2643 C2639 0.950 . S
H2644 C2641 0.950 . S
C2645 C2636 1.390 . S
C2645 H2638 0.950 . S
C2645 C2642 1.387 . S
C2646 C2647 1.387 . S
C2646 H2650 0.950 . S
C2646 C2655 1.390 . S
C2647 C2646 1.387 . S
C2647 C2649 1.387 . S
H2648 C2655 0.950 . S
C2649 C2647 1.387 . S
C2649 C2651 1.390 . S
C2649 H2653 0.950 . S
H2650 C2646 0.950 . S
C2651 C2649 1.390 . S
C2651 C2652 1.387 . S
C2651 H2654 0.950 . S
C2652 C2651 1.387 . S
C2652 C2655 1.387 . S
H2653 C2649 0.950 . S
H2654 C2651 0.950 . S
C2655 C2646 1.390 . S
C2655 H2648 0.950 . S
C2655 C2652 1.387 . S
C2656 C2657 1.387 . S
C2656 H2660 0.950 . S
C2656 C2665 1.390 . S
C2657 C2656 1.387 . S
C2657 C2659 1.387 . S
H2658 C2665 0.950 . S
C2659 C2657 1.387 . S
C2659 C2661 1.390 . S
C2659 H2663 0.950 . S
H2660 C2656 0.950 . S
C2661 C2659 1.390 . S
C2661 C2662 1.387 . S
C2661 H2664 0.950 . S
C2662 C2661 1.387 . S
C2662 C2665 1.387 . S
H2663 C2659 0.950 . S
H2664 C2661 0.950 . S
C2665 C2656 1.390 . S
C2665 H2658 0.950 . S
C2665 C2662 1.387 . S
C2666 C2667 1.387 . S
C2666 H2670 0.950 . S
C2666 C2675 1.390 . S
C2667 C2666 1.387 . S
C2667 C2669 1.387 . S
H2668 C2675 0.950 . S
C2669 C2667 1.387 . S
C2669 C2671 1.390 . S
C2669 H2673 0.950 . S
H2670 C2666 0.950 . S
C2671 C2669 1.390 . S
C2671 C2672 1.387 . S
C2671 H2674 0.950 . S
C2672 C2671 1.387 . S
C2672 C2675 1.387 . S
H2673 C2669 0.950 . S
H2674 C2671 0.950 . S
C2675 C2666 1.390 . S
C2675 H2668 0.950 . S
C2675 C2672 1.387 . S
C2676 C2677 1.387 . S
C2676 H2680 0.950 . S
C2676 C2685 1.390 . S
C2677 C2676 1.387 . S
C2677 C2679 1.387 . S
H2678 C2685 0.950 . S
C2679 C2677 1.387 . S
C2679 C2681 1.390 . S
C2679 H2683 0.950 . S
H2680 C2676 0.950 . S
C2681 C2679 1.390 . S
C2681 C2682 1.387 . S
C2681 H2684 0.950 . S
C2682 C2681 1.387 . S
C2682 C2685 1.387 . S
H2683 C2679 0.950 . S
H2684 C2681 0.950 . S
C2685 C2676 1.390 . S
C2685 H2678 0.950 . S
C2685 C2682 1.387 . S
C2686 C2687 1.387 . S
C2686 H2690 0.950 . S
C2686 C2695 1.390 . S
C2687 C2686 1.387 . S
C2687 C2689 1.387 . S
H2688 C2695 0.950 . S
C2689 C2687 1.387 . S
C2689 C2691 1.390 . S
C2689 H2693 0.950 . S
H2690 C2686 0.950 . S
C2691 C2689 1.390 . S
C2691 C2692 1.387 . S
C2691 H2694 0.950 . S
C2692 C2691 1.387 . S
C2692 C2695 1.387 . S
H2693 C2689 0.950 . S
H2694 C2691 0.950 . S
C2695 C2686 1.390 . S
C2695 H2688 0.950 . S
C2695 C2692 1.387 . S
C2696 C2697 1.387 . S
C2696 H2700 0.950 . S
C2696 C2705 1.390 . S
C2697 C2696 1.387 . S
C2697 C2699 1.387 . S
H2698 C2705 0.950 . S
C2699 C2697 1.387 . S
C2699 C2701 1.390 . S
C2699 H2703 0.950 . S
H2700 C2696 0.950 . S
C2701 C2699 1.390 . S
C2701 C2702 1.387 . S
C2701 H2704 0.950 . S
C2702 C2701 1.387 . S
C2702 C2705 1.387 . S
H2703 C2699 0.950 . S
H2704 C2701 0.950 . S
C2705 C2696 1.390 . S
C2705 H2698 0.950 . S
C2705 C2702 1.387 . S
C2706 C2707 1.387 . S
C2706 H2710 0.950 . S
C2706 C2715 1.390 . S
C2707 C2706 1.387 . S
C2707 C2709 1.387 . S
H2708 C2715 0.950 . S
C2709 C2707 1.387 . S
C2709 C2711 1.390 . S
C2709 H2713 0.950 . S
H2710 C2706 0.950 . S
C2711 C2709 1.390 . S
C2711 C2712 1.387 . S
C2711 H2714 0.950 . S
C2712 C2711 1.387 . S
C2712 C2715 1.387 . S
H2713 C2709 0.950 . S
H2714 C2711 0.950 . S
C2715 C2706 1.390 . S
C2715 H2708 0.950 . S
C2715 C2712 1.387 . S
C2716 C2717 1.387 . S
C2716 H2720 0.950 . S
C2716 C2725 1.390 . S
C2717 C2716 1.387 . S
C2717 C2719 1.387 . S
H2718 C2725 0.950 . S
C2719 C2717 1.387 . S
C2719 C2721 1.390 . S
C2719 H2723 0.950 . S
H2720 C2716 0.950 . S
C2721 C2719 1.390 . S
C2721 C2722 1.387 . S
C2721 H2724 0.950 . S
C2722 C2721 1.387 . S
C2722 C2725 1.387 . S
H2723 C2719 0.950 . S
H2724 C2721 0.950 . S
C2725 C2716 1.390 . S
C2725 H2718 0.950 . S
C2725 C2722 1.387 . S
C2726 C2727 1.387 . S
C2726 H2730 0.950 . S
C2726 C2735 1.390 . S
C2727 C2726 1.387 . S
C2727 C2729 1.387 . S
H2728 C2735 0.950 . S
C2729 C2727 1.387 . S
C2729 C2731 1.390 . S
C2729 H2733 0.950 . S
H2730 C2726 0.950 . S
C2731 C2729 1.390 . S
C2731 C2732 1.387 . S
C2731 H2734 0.950 . S
C2732 C2731 1.387 . S
C2732 C2735 1.387 . S
H2733 C2729 0.950 . S
H2734 C2731 0.950 . S
C2735 C2726 1.390 . S
C2735 H2728 0.950 . S
C2735 C2732 1.387 . S
C2736 C2737 1.387 . S
C2736 H2740 0.950 . S
C2736 C2745 1.390 . S
C2737 C2736 1.387 . S
C2737 C2739 1.387 . S
H2738 C2745 0.950 . S
C2739 C2737 1.387 . S
C2739 C2741 1.390 . S
C2739 H2743 0.950 . S
H2740 C2736 0.950 . S
C2741 C2739 1.390 . S
C2741 C2742 1.387 . S
C2741 H2744 0.950 . S
C2742 C2741 1.387 . S
C2742 C2745 1.387 . S
H2743 C2739 0.950 . S
H2744 C2741 0.950 . S
C2745 C2736 1.390 . S
C2745 H2738 0.950 . S
C2745 C2742 1.387 . S
C2746 C2747 1.387 . S
C2746 H2750 0.950 . S
C2746 C2755 1.390 . S
C2747 C2746 1.387 . S
C2747 C2749 1.387 . S
H2748 C2755 0.950 . S
C2749 C2747 1.387 . S
C2749 C2751 1.390 . S
C2749 H2753 0.950 . S
H2750 C2746 0.950 . S
C2751 C2749 1.390 . S
C2751 C2752 1.387 . S
C2751 H2754 0.950 . S
C2752 C2751 1.387 . S
C2752 C2755 1.387 . S
H2753 C2749 0.950 . S
H2754 C2751 0.950 . S
C2755 C2746 1.390 . S
C2755 H2748 0.950 . S
C2755 C2752 1.387 . S
C2756 C2757 1.387 . S
C2756 H2760 0.950 . S
C2756 C2765 1.390 . S
C2757 C2756 1.387 . S
C2757 C2759 1.387 . S
H2758 C2765 0.950 . S
C2759 C2757 1.387 . S
C2759 C2761 1.390 . S
C2759 H2763 0.950 . S
H2760 C2756 0.950 . S
C2761 C2759 1.390 . S
C2761 C2762 1.387 . S
C2761 H2764 0.950 . S
C2762 C2761 1.387 . S
C2762 C2765 1.387 . S
H2763 C2759 0.950 . S
H2764 C2761 0.950 . S
C2765 C2756 1.390 . S
C2765 H2758 0.950 . S
C2765 C2762 1.387 . S
C2766 C2767 1.387 . S
C2766 H2770 0.950 . S
C2766 C2775 1.390 . S
C2767 C2766 1.387 . S
C2767 C2769 1.387 . S
H2768 C2775 0.950 . S
C2769 C2767 1.387 . S
C2769 C2771 1.390 . S
C2769 H2773 0.950 . S
H2770 C2766 0.950 . S
C2771 C2769 1.390 . S
C2771 C2772 1.387 . S
C2771 H2774 0.950 . S
C2772 C2771 1.387 . S
C2772 C2775 1.387 . S
H2773 C2769 0.950 . S
H2774 C2771 0.950 . S
C2775 C2766 1.390 . S
C2775 H2768 0.950 . S
C2775 C2772 1.387 . S
C2776 C2777 1.387 . S
C2776 H2780 0.950 . S
C2776 C2785 1.390 . S
C2777 C2776 1.387 . S
C2777 C2779 1.387 . S
H2778 C2785 0.950 . S
C2779 C2777 1.387 . S
C2779 C2781 1.390 . S
C2779 H2783 0.950 . S
H2780 C2776 0.950 . S
C2781 C2779 1.390 . S
C2781 C2782 1.387 . S
C2781 H2784 0.950 . S
C2782 C2781 1.387 . S
C2782 C2785 1.387 . S
H2783 C2779 0.950 . S
H2784 C2781 0.950 . S
C2785 C2776 1.390 . S
C2785 H2778 0.950 . S
C2785 C2782 1.387 . S
C2786 C2787 1.387 . S
C2786 H2790 0.950 . S
C2786 C2795 1.390 . S
C2787 C2786 1.387 . S
C2787 C2789 1.387 . S
H2788 C2795 0.950 . S
C2789 C2787 1.387 . S
C2789 C2791 1.390 . S
C2789 H2793 0.950 . S
H2790 C2786 0.950 . S
C2791 C2789 1.390 . S
C2791 C2792 1.387 . S
C2791 H2794 0.950 . S
C2792 C2791 1.387 . S
C2792 C2795 1.387 . S
H2793 C2789 0.950 . S
H2794 C2791 0.950 . S
C2795 C2786 1.390 . S
C2795 H2788 0.950 . S
C2795 C2792 1.387 . S
C2796 C2797 1.387 . S
C2796 H2800 0.950 . S
C2796 C2805 1.390 . S
C2797 C2796 1.387 . S
C2797 C2799 1.387 . S
H2798 C2805 0.950 . S
C2799 C2797 1.387 . S
C2799 C2801 1.390 . S
C2799 H2803 0.950 1_455 S
H2800 C2796 0.950 . S
C2801 C2799 1.390 . S
C2801 C2802 1.387 . S
C2801 H2804 0.950 1_455 S
C2802 C2801 1.387 . S
C2802 C2805 1.387 . S
H2803 C2799 0.950 1_655 S
H2804 C2801 0.950 1_655 S
C2805 C2796 1.390 . S
C2805 H2798 0.950 . S
C2805 C2802 1.387 . S
C2806 C2807 1.387 . S
C2806 H2810 0.950 . S
C2806 C2815 1.390 . S
C2807 C2806 1.387 . S
C2807 C2809 1.387 . S
H2808 C2815 0.950 . S
C2809 C2807 1.387 . S
C2809 C2811 1.390 . S
C2809 H2813 0.950 . S
H2810 C2806 0.950 . S
C2811 C2809 1.390 . S
C2811 C2812 1.387 . S
C2811 H2814 0.950 . S
C2812 C2811 1.387 . S
C2812 C2815 1.387 . S
H2813 C2809 0.950 . S
H2814 C2811 0.950 . S
C2815 C2806 1.390 . S
C2815 H2808 0.950 . S
C2815 C2812 1.387 . S
C2816 C2817 1.387 . S
C2816 H2820 0.950 . S
C2816 C2825 1.390 . S
C2817 C2816 1.387 . S
C2817 C2819 1.387 1_565 S
H2818 C2825 0.950 . S
C2819 C2817 1.387 1_545 S
C2819 C2821 1.390 . S
C2819 H2823 0.950 . S
H2820 C2816 0.950 . S
C2821 C2819 1.390 . S
C2821 C2822 1.387 1_545 S
C2821 H2824 0.950 . S
C2822 C2821 1.387 1_565 S
C2822 C2825 1.387 . S
H2823 C2819 0.950 . S
H2824 C2821 0.950 . S
C2825 C2816 1.390 . S
C2825 H2818 0.950 . S
C2825 C2822 1.387 . S
C2826 C2827 1.387 . S
C2826 H2830 0.950 . S
C2826 C2835 1.390 . S
C2827 C2826 1.387 . S
C2827 C2829 1.387 1_565 S
H2828 C2835 0.950 . S
C2829 C2827 1.387 1_545 S
C2829 C2831 1.390 . S
C2829 H2833 0.950 . S
H2830 C2826 0.950 . S
C2831 C2829 1.390 . S
C2831 C2832 1.387 1_545 S
C2831 H2834 0.950 . S
C2832 C2831 1.387 1_565 S
C2832 C2835 1.387 . S
H2833 C2829 0.950 . S
H2834 C2831 0.950 . S
C2835 C2826 1.390 . S
C2835 H2828 0.950 . S
C2835 C2832 1.387 . S
C2836 C2837 1.387 . S
C2836 H2840 0.950 . S
C2836 C2845 1.390 . S
C2837 C2836 1.387 . S
C2837 C2839 1.387 1_455 S
H2838 C2845 0.950 . S
C2839 C2837 1.387 1_655 S
C2839 C2841 1.390 . S
C2839 H2843 0.950 . S
H2840 C2836 0.950 . S
C2841 C2839 1.390 . S
C2841 C2842 1.387 1_655 S
C2841 H2844 0.950 . S
C2842 C2841 1.387 1_455 S
C2842 C2845 1.387 . S
H2843 C2839 0.950 . S
H2844 C2841 0.950 . S
C2845 C2836 1.390 . S
C2845 H2838 0.950 . S
C2845 C2842 1.387 . S
C2846 C2847 1.387 . S
C2846 H2850 0.950 . S
C2846 C2855 1.390 . S
C2847 C2846 1.387 . S
C2847 C2849 1.387 . S
H2848 C2855 0.950 . S
C2849 C2847 1.387 . S
C2849 C2851 1.390 . S
C2849 H2853 0.950 . S
H2850 C2846 0.950 . S
C2851 C2849 1.390 . S
C2851 C2852 1.387 . S
C2851 H2854 0.950 . S
C2852 C2851 1.387 . S
C2852 C2855 1.387 . S
H2853 C2849 0.950 . S
H2854 C2851 0.950 . S
C2855 C2846 1.390 . S
C2855 H2848 0.950 . S
C2855 C2852 1.387 . S
C2856 C2857 1.387 . S
C2856 H2860 0.950 . S
C2856 C2865 1.390 . S
C2857 C2856 1.387 . S
C2857 C2859 1.387 . S
H2858 C2865 0.950 . S
C2859 C2857 1.387 . S
C2859 C2861 1.390 . S
C2859 H2863 0.950 . S
H2860 C2856 0.950 . S
C2861 C2859 1.390 . S
C2861 C2862 1.387 . S
C2861 H2864 0.950 . S
C2862 C2861 1.387 . S
C2862 C2865 1.387 . S
H2863 C2859 0.950 . S
H2864 C2861 0.950 . S
C2865 C2856 1.390 . S
C2865 H2858 0.950 . S
C2865 C2862 1.387 . S
C2866 C2867 1.387 . S
C2866 H2870 0.950 . S
C2866 C2875 1.390 . S
C2867 C2866 1.387 . S
C2867 C2869 1.387 . S
H2868 C2875 0.950 . S
C2869 C2867 1.387 . S
C2869 C2871 1.390 . S
C2869 H2873 0.950 . S
H2870 C2866 0.950 . S
C2871 C2869 1.390 . S
C2871 C2872 1.387 . S
C2871 H2874 0.950 . S
C2872 C2871 1.387 . S
C2872 C2875 1.387 . S
H2873 C2869 0.950 . S
H2874 C2871 0.950 . S
C2875 C2866 1.390 . S
C2875 H2868 0.950 . S
C2875 C2872 1.387 . S
C2876 C2877 1.387 . S
C2876 H2880 0.950 . S
C2876 C2885 1.390 . S
C2877 C2876 1.387 . S
C2877 C2879 1.387 . S
H2878 C2885 0.950 . S
C2879 C2877 1.387 . S
C2879 C2881 1.390 . S
C2879 H2883 0.950 . S
H2880 C2876 0.950 . S
C2881 C2879 1.390 . S
C2881 C2882 1.387 . S
C2881 H2884 0.950 . S
C2882 C2881 1.387 . S
C2882 C2885 1.387 . S
H2883 C2879 0.950 . S
H2884 C2881 0.950 . S
C2885 C2876 1.390 . S
C2885 H2878 0.950 . S
C2885 C2882 1.387 . S
C2886 C2887 1.387 . S
C2886 H2890 0.950 . S
C2886 C2895 1.390 . S
C2887 C2886 1.387 . S
C2887 C2889 1.387 1_545 S
H2888 C2895 0.950 . S
C2889 C2887 1.387 1_565 S
C2889 C2891 1.390 . S
C2889 H2893 0.950 . S
H2890 C2886 0.950 . S
C2891 C2889 1.390 . S
C2891 C2892 1.387 1_565 S
C2891 H2894 0.950 . S
C2892 C2891 1.387 1_545 S
C2892 C2895 1.387 . S
H2893 C2889 0.950 . S
H2894 C2891 0.950 . S
C2895 C2886 1.390 . S
C2895 H2888 0.950 . S
C2895 C2892 1.387 . S
C2896 C2897 1.387 . S
C2896 H2900 0.950 . S
C2896 C2905 1.390 . S
C2897 C2896 1.387 . S
C2897 C2899 1.387 . S
H2898 C2905 0.950 . S
C2899 C2897 1.387 . S
C2899 C2901 1.390 . S
C2899 H2903 0.957 . S
H2900 C2896 0.950 . S
C2901 C2899 1.390 . S
C2901 C2902 1.387 . S
C2901 H2904 0.953 1_655 S
C2902 C2901 1.387 . S
C2902 C2905 1.387 . S
H2903 C2899 0.957 . S
H2904 C2901 0.953 1_455 S
C2905 C2896 1.390 . S
C2905 H2898 0.950 . S
C2905 C2902 1.387 . S
C2906 C2907 1.387 . S
C2906 H2910 0.950 . S
C2906 C2915 1.390 . S
C2907 C2906 1.387 . S
C2907 C2909 1.387 . S
H2908 C2915 0.950 . S
C2909 C2907 1.387 . S
C2909 C2911 1.390 . S
C2909 H2913 0.950 . S
H2910 C2906 0.950 . S
C2911 C2909 1.390 . S
C2911 C2912 1.387 . S
C2911 H2914 0.950 . S
C2912 C2911 1.387 . S
C2912 C2915 1.387 . S
H2913 C2909 0.950 . S
H2914 C2911 0.950 . S
C2915 C2906 1.390 . S
C2915 H2908 0.950 . S
C2915 C2912 1.387 . S
C2916 C2917 1.387 . S
C2916 H2920 0.950 . S
C2916 C2925 1.390 . S
C2917 C2916 1.387 . S
C2917 C2919 1.387 . S
H2918 C2925 0.950 . S
C2919 C2917 1.387 . S
C2919 C2921 1.390 . S
C2919 H2923 0.950 . S
H2920 C2916 0.950 . S
C2921 C2919 1.390 . S
C2921 C2922 1.387 . S
C2921 H2924 0.950 . S
C2922 C2921 1.387 . S
C2922 C2925 1.387 . S
H2923 C2919 0.950 . S
H2924 C2921 0.950 . S
C2925 C2916 1.390 . S
C2925 H2918 0.950 . S
C2925 C2922 1.387 . S
C2926 C2927 1.387 . S
C2926 H2930 0.950 . S
C2926 C2935 1.390 . S
C2927 C2926 1.387 . S
C2927 C2929 1.387 . S
H2928 C2935 0.950 . S
C2929 C2927 1.387 . S
C2929 C2931 1.390 . S
C2929 H2933 0.950 . S
H2930 C2926 0.950 . S
C2931 C2929 1.390 . S
C2931 C2932 1.387 . S
C2931 H2934 0.950 . S
C2932 C2931 1.387 . S
C2932 C2935 1.387 . S
H2933 C2929 0.950 . S
H2934 C2931 0.950 . S
C2935 C2926 1.390 . S
C2935 H2928 0.950 . S
C2935 C2932 1.387 . S
C2936 C2937 1.387 . S
C2936 H2940 0.950 . S
C2936 C2945 1.390 . S
C2937 C2936 1.387 . S
C2937 C2939 1.387 . S
H2938 C2945 0.950 . S
C2939 C2937 1.387 . S
C2939 C2941 1.390 . S
C2939 H2943 0.950 . S
H2940 C2936 0.950 . S
C2941 C2939 1.390 . S
C2941 C2942 1.387 . S
C2941 H2944 0.950 . S
C2942 C2941 1.387 . S
C2942 C2945 1.387 . S
H2943 C2939 0.950 . S
H2944 C2941 0.950 . S
C2945 C2936 1.390 . S
C2945 H2938 0.950 . S
C2945 C2942 1.387 . S
C2946 C2947 1.387 . S
C2946 H2950 0.950 . S
C2946 C2955 1.390 . S
C2947 C2946 1.387 . S
C2947 C2949 1.387 . S
H2948 C2955 0.950 . S
C2949 C2947 1.387 . S
C2949 C2951 1.390 . S
C2949 H2953 0.950 . S
H2950 C2946 0.950 . S
C2951 C2949 1.390 . S
C2951 C2952 1.387 . S
C2951 H2954 0.950 . S
C2952 C2951 1.387 . S
C2952 C2955 1.387 . S
H2953 C2949 0.950 . S
H2954 C2951 0.950 . S
C2955 C2946 1.390 . S
C2955 H2948 0.950 . S
C2955 C2952 1.387 . S
C2956 C2957 1.387 . S
C2956 H2960 0.950 . S
C2956 C2965 1.390 . S
C2957 C2956 1.387 . S
C2957 C2959 1.387 . S
H2958 C2965 0.950 . S
C2959 C2957 1.387 . S
C2959 C2961 1.390 . S
C2959 H2963 0.950 . S
H2960 C2956 0.950 . S
C2961 C2959 1.390 . S
C2961 C2962 1.387 . S
C2961 H2964 0.950 . S
C2962 C2961 1.387 . S
C2962 C2965 1.387 . S
H2963 C2959 0.950 . S
H2964 C2961 0.950 . S
C2965 C2956 1.390 . S
C2965 H2958 0.950 . S
C2965 C2962 1.387 . S
C2966 C2967 1.387 . S
C2966 H2970 0.950 . S
C2966 C2975 1.390 . S
C2967 C2966 1.387 . S
C2967 C2969 1.387 . S
H2968 C2975 0.950 . S
C2969 C2967 1.387 . S
C2969 C2971 1.390 . S
C2969 H2973 0.950 . S
H2970 C2966 0.950 . S
C2971 C2969 1.390 . S
C2971 C2972 1.387 . S
C2971 H2974 0.950 . S
C2972 C2971 1.387 . S
C2972 C2975 1.387 . S
H2973 C2969 0.950 . S
H2974 C2971 0.950 . S
C2975 C2966 1.390 . S
C2975 H2968 0.950 . S
C2975 C2972 1.387 . S
C2976 C2977 1.387 . S
C2976 H2980 0.950 . S
C2976 C2985 1.390 . S
C2977 C2976 1.387 . S
C2977 C2979 1.387 . S
H2978 C2985 0.950 . S
C2979 C2977 1.387 . S
C2979 C2981 1.390 . S
C2979 H2983 0.950 . S
H2980 C2976 0.950 . S
C2981 C2979 1.390 . S
C2981 C2982 1.387 . S
C2981 H2984 0.950 . S
C2982 C2981 1.387 . S
C2982 C2985 1.387 . S
H2983 C2979 0.950 . S
H2984 C2981 0.950 . S
C2985 C2976 1.390 . S
C2985 H2978 0.950 . S
C2985 C2982 1.387 . S
C2986 C2987 1.387 . S
C2986 H2990 0.950 . S
C2986 C2995 1.390 . S
C2987 C2986 1.387 . S
C2987 C2989 1.387 . S
H2988 C2995 0.950 . S
C2989 C2987 1.387 . S
C2989 C2991 1.390 . S
C2989 H2993 0.950 . S
H2990 C2986 0.950 . S
C2991 C2989 1.390 . S
C2991 C2992 1.387 . S
C2991 H2994 0.950 . S
C2992 C2991 1.387 . S
C2992 C2995 1.387 . S
H2993 C2989 0.950 . S
H2994 C2991 0.950 . S
C2995 C2986 1.390 . S
C2995 H2988 0.950 . S
C2995 C2992 1.387 . S
C2996 C2997 1.387 1_565 S
C2996 H3000 0.950 . S
C2996 C3005 1.390 . S
C2997 C2996 1.387 1_545 S
C2997 C2999 1.387 . S
H2998 C3005 0.950 . S
C2999 C2997 1.387 . S
C2999 C3001 1.390 . S
C2999 H3003 0.950 . S
H3000 C2996 0.950 . S
C3001 C2999 1.390 . S
C3001 C3002 1.387 . S
C3001 H3004 0.950 . S
C3002 C3001 1.387 . S
C3002 C3005 1.387 1_545 S
H3003 C2999 0.950 . S
H3004 C3001 0.950 . S
C3005 C2996 1.390 . S
C3005 H2998 0.950 . S
C3005 C3002 1.387 1_565 S
C2287 C10 1.463 . S
C2292 C1289 1.174 . S
C2297 C23 1.769 . S
C2302 C1429 1.163 . S
C2312 C1517 1.230 . S
C2307 C29 1.483 . S
C2317 C30 1.570 . S
C2322 C1657 1.166 1_565 S
C2327 C5 1.532 . S
C2332 C1771 1.168 . S
C2337 C18 1.771 . S
C2342 C1859 1.321 . S
C2347 C49 1.410 . S
C2352 C1745 1.176 . S
C2362 C1885 1.461 . S
C2357 C62 1.665 . S
C2372 C1631 1.255 . S
C2367 C70 1.473 . S
C2377 C75 1.541 . S
C2382 C1543 1.206 . S
C2392 C1315 1.195 . S
C2387 C44 1.520 . S
C2397 C57 1.661 . S
C2402 C1403 1.539 . S
C2407 C88 1.791 . S
C2412 C1973 1.311 . S
C2417 C101 1.857 . S
C2422 C2113 1.234 . S
C2432 C2201 1.327 . S
C2427 C107 1.778 . S
C2437 C108 1.839 . S
C2442 C289 1.238 . S
C2447 C83 1.845 . S
C2452 C403 1.215 . S
C2457 C96 1.827 . S
C2462 C491 1.367 . S
C2467 C127 1.596 . S
C2472 C377 1.475 . S
C2477 C140 1.720 . S
C2482 C517 1.540 . S
C2492 C263 1.543 . S
C2487 C146 1.663 . S
C2502 C2227 1.618 . S
C2497 C147 1.813 . S
C2512 C1999 1.558 . S
C2507 C122 1.740 . S
C2522 C2087 1.643 . S
C2517 C135 1.742 . S
C2527 C160 1.713 . S
C2532 C605 1.237 . S
C2537 C173 1.829 . S
C2542 C745 1.214 . S
C2547 C185 1.774 . S
C2552 C833 1.329 . S
C2557 C186 1.915 . S
C2562 C973 1.300 . S
C2572 C1087 1.216 . S
C2567 C159 1.853 . S
C2582 C1175 1.400 . S
C2577 C172 1.858 . S
C2592 C1061 1.551 . S
C2587 C205 1.678 . S
C2602 C1201 1.571 . S
C2597 C218 1.748 . S
C2607 C224 1.662 . S
C2612 C947 1.552 . S
C2622 C859 1.551 . S
C2617 C225 1.730 . S
C2627 C200 1.735 . S
C2632 C631 1.540 . S
C2642 C719 1.612 . S
C2637 C213 1.711 . S
C2652 C245 0.919 . S
C2647 C4 1.733 . S
C2657 C17 1.603 . S
C2662 C359 0.877 . S
C2672 C463 1.195 . S
C2667 C31 1.656 . S
C2682 C577 1.189 . S
C2677 C36 1.614 . S
C2692 C701 0.925 . S
C2687 C3 1.701 . S
C2702 C805 1.181 . S
C2697 C16 1.616 . S
C2707 C43 1.838 . S
C2712 C815 1.397 . S
C2717 C56 1.707 . S
C2722 C587 1.343 . S
C2727 C68 1.765 . S
C2732 C691 1.583 . S
C2737 C69 1.729 . S
C2742 C349 1.574 . S
C2752 C473 1.425 . S
C2747 C42 1.805 . S
C2757 C55 1.722 . S
C2762 C235 1.545 . S
C2772 C929 0.938 . S
C2767 C82 1.697 . S
C2777 C95 1.695 . S
C2782 C1043 0.964 . S
C2787 C109 1.690 . S
C2792 C1147 1.272 . S
C2802 C1261 1.150 . S
C2797 C114 1.376 . S
C2807 C81 1.659 . S
C2812 C1385 0.928 . S
C2817 C94 1.452 . S
C2822 C1489 1.183 . S
C2827 C121 1.537 . S
C2832 C1499 0.989 1_565 S
C2837 C134 1.454 . S
C2842 C1271 0.977 1_455 S
C2852 C1375 1.540 . S
C2847 C148 1.726 . S
C2857 C153 1.707 . S
C2862 C1033 1.562 . S
C2867 C120 1.818 . S
C2872 C1157 1.433 . S
C2882 C919 1.610 . S
C2877 C133 1.805 . S
C2892 C1613 0.972 . S
C2887 C166 1.524 . S
C2897 C179 1.431 . S
C2902 C1727 0.946 . S
C2907 C187 1.623 . S
C2912 C1831 1.195 . S
C2922 C1945 1.204 . S
C2917 C192 1.592 . S
C2932 C2069 0.999 . S
C2927 C161 1.723 . S
C2937 C174 1.704 . S
C2942 C2173 1.265 . S
C2947 C199 1.800 . S
C2952 C2183 1.375 . S
C2957 C212 1.795 . S
C2962 C1955 1.400 . S
C2972 C2059 1.607 . S
C2967 C226 1.788 . S
C2982 C1717 1.185 1_655 S
C2977 C231 1.389 . S
C2992 C1841 1.370 . S
C2987 C198 1.760 . S
C2997 C211 1.476 . S
C3002 C1603 1.226 1_545 S
