# Generated by pormake.
# Topology dag, (6,3)-cn, num edge types: 1
# Building blocks:
#     Node 0, Type 0, BuildingBlock: MIDCAF_clean_sbu_0, # of connection points: 6
#     Node 1, Type 0, BuildingBlock: MIDCAF_clean_sbu_0, # of connection points: 6
#     Node 2, Type 0, BuildingBlock: MIDCAF_clean_sbu_0, # of connection points: 6
#     Node 3, Type 0, BuildingBlock: MIDCAF_clean_sbu_0, # of connection points: 6
#     Node 4, Type 1, BuildingBlock: KAKCAD_clean_linker_0, # of connection points: 3
#     Node 5, Type 1, BuildingBlock: KAKCAD_clean_linker_0, # of connection points: 3
#     Node 6, Type 1, BuildingBlock: KAKCAD_clean_linker_0, # of connection points: 3
#     Node 7, Type 1, BuildingBlock: KAKCAD_clean_linker_0, # of connection points: 3
#     Node 8, Type 1, BuildingBlock: KAKCAD_clean_linker_0, # of connection points: 3
#     Node 9, Type 1, BuildingBlock: KAKCAD_clean_linker_0, # of connection points: 3
#     Node 10, Type 1, BuildingBlock: KAKCAD_clean_linker_0, # of connection points: 3
#     Node 11, Type 1, BuildingBlock: KAKCAD_clean_linker_0, # of connection points: 3
#     Edge 12, Type (0, 1), BuildingBlock: EZIPEK_clean_linker_0, # of connection points: 2
#     Edge 13, Type (0, 1), BuildingBlock: EZIPEK_clean_linker_0, # of connection points: 2
#     Edge 14, Type (0, 1), BuildingBlock: EZIPEK_clean_linker_0, # of connection points: 2
#     Edge 15, Type (0, 1), BuildingBlock: EZIPEK_clean_linker_0, # of connection points: 2
#     Edge 16, Type (0, 1), BuildingBlock: EZIPEK_clean_linker_0, # of connection points: 2
#     Edge 17, Type (0, 1), BuildingBlock: EZIPEK_clean_linker_0, # of connection points: 2
#     Edge 18, Type (0, 1), BuildingBlock: EZIPEK_clean_linker_0, # of connection points: 2
#     Edge 19, Type (0, 1), BuildingBlock: EZIPEK_clean_linker_0, # of connection points: 2
#     Edge 20, Type (0, 1), BuildingBlock: EZIPEK_clean_linker_0, # of connection points: 2
#     Edge 21, Type (0, 1), BuildingBlock: EZIPEK_clean_linker_0, # of connection points: 2
#     Edge 22, Type (0, 1), BuildingBlock: EZIPEK_clean_linker_0, # of connection points: 2
#     Edge 23, Type (0, 1), BuildingBlock: EZIPEK_clean_linker_0, # of connection points: 2
#     Edge 24, Type (0, 1), BuildingBlock: EZIPEK_clean_linker_0, # of connection points: 2
#     Edge 25, Type (0, 1), BuildingBlock: EZIPEK_clean_linker_0, # of connection points: 2
#     Edge 26, Type (0, 1), BuildingBlock: EZIPEK_clean_linker_0, # of connection points: 2
#     Edge 27, Type (0, 1), BuildingBlock: EZIPEK_clean_linker_0, # of connection points: 2
#     Edge 28, Type (0, 1), BuildingBlock: EZIPEK_clean_linker_0, # of connection points: 2
#     Edge 29, Type (0, 1), BuildingBlock: EZIPEK_clean_linker_0, # of connection points: 2
#     Edge 30, Type (0, 1), BuildingBlock: EZIPEK_clean_linker_0, # of connection points: 2
#     Edge 31, Type (0, 1), BuildingBlock: EZIPEK_clean_linker_0, # of connection points: 2
#     Edge 32, Type (0, 1), BuildingBlock: EZIPEK_clean_linker_0, # of connection points: 2
#     Edge 33, Type (0, 1), BuildingBlock: EZIPEK_clean_linker_0, # of connection points: 2
#     Edge 34, Type (0, 1), BuildingBlock: EZIPEK_clean_linker_0, # of connection points: 2
#     Edge 35, Type (0, 1), BuildingBlock: EZIPEK_clean_linker_0, # of connection points: 2
# Relax obj value: 0.303
# Max RMSD: 0.192
# Mean RMSD: 0.180
data_MOF--net-dag--node1-MIDCAF_clean_sbu_0--node2-KAKCAD_clean_linker_0--edge1-EZIPEK_clean_linker_0
_symmetry_space_group_name_H-M    P1
_symmetry_Int_Tables_number       1
_symmetry_cell_setting            triclinic
loop_
_symmetry_equiv_pos_as_xyz
'x, y, z'
_cell_length_a     37.957014
_cell_length_b     39.003179
_cell_length_c     28.663822
_cell_angle_alpha  93.450439
_cell_angle_beta   90.068888
_cell_angle_gamma 90.201888
loop_
_atom_site_label
_atom_site_type_symbol
_atom_site_fract_x
_atom_site_fract_y
_atom_site_fract_z
_atom_type_partial_charge
Zn0 Zn 0.15011 0.81595 0.16164 0.0
Zn1 Zn 0.20574 0.84217 0.99535 0.0
Zn2 Zn 0.18155 0.83198 0.08357 0.0
C3 C 0.20093 0.90591 0.04856 0.0
C4 C 0.13917 0.81544 0.98501 0.0
O5 O 0.21431 0.79338 0.11617 0.0
O6 O 0.18277 0.77903 0.177 0.0
C7 C 0.1764 0.88508 0.17234 0.0
O8 O 0.19313 0.88687 0.08228 0.0
O9 O 0.20737 0.89282 0.00809 0.0
O10 O 0.16481 0.82252 0.95929 0.0
O11 O 0.14174 0.81876 0.02988 0.0
O12 O 0.15969 0.8621 0.19235 0.0
O13 O 0.18549 0.87941 0.12925 0.0
O14 O 0.12554 0.81693 0.07319 0.0
O15 O 0.1014 0.80509 0.14062 0.0
C16 C 0.09868 0.80813 0.09724 0.0
O17 O 0.22797 0.79891 0.0715 0.0
O18 O 0.24805 0.81349 1.00282 0.0
C19 C 0.21025 0.77581 0.15242 0.0
C20 C 0.25073 0.79593 0.03827 0.0
Zn21 Zn 0.62017 0.67399 0.37364 0.0
Zn22 Zn 0.73061 0.65073 0.55693 0.0
Zn23 Zn 0.68876 0.66702 0.48684 0.0
C24 C 0.71428 0.59123 0.49771 0.0
C25 C 0.66702 0.67487 0.5963 0.0
O26 O 0.71316 0.70255 0.44027 0.0
O27 O 0.66116 0.69191 0.41358 0.0
C28 C 0.65424 0.60792 0.4012 0.0
O29 O 0.696 0.61259 0.47561 0.0
O30 O 0.73285 0.60135 0.53256 0.0
O31 O 0.69616 0.66292 0.60912 0.0
O32 O 0.66092 0.67901 0.55286 0.0
O33 O 0.63393 0.62351 0.3736 0.0
O34 O 0.67082 0.62289 0.43673 0.0
O35 O 0.64 0.68714 0.51659 0.0
O36 O 0.63092 0.68468 0.44268 0.0
C37 C 0.61802 0.68878 0.48333 0.0
O38 O 0.73476 0.70026 0.47917 0.0
O39 O 0.76661 0.68536 0.53942 0.0
C40 C 0.69117 0.70485 0.40708 0.0
C41 C 0.76234 0.70382 0.50504 0.0
Zn42 Zn 0.85568 0.16833 0.91862 0.0
Zn43 Zn 0.7631 0.15597 0.07062 0.0
Zn44 Zn 0.80786 0.16396 0.99267 0.0
C45 C 0.83098 0.17683 0.10198 0.0
C46 C 0.7703 0.09251 0.01968 0.0
O47 O 0.7851 0.19891 0.94341 0.0
O48 O 0.82331 0.19851 0.88474 0.0
C49 C 0.88845 0.19093 1.00323 0.0
O50 O 0.83645 0.17688 0.05768 0.0
O51 O 0.80112 0.16889 0.11772 0.0
O52 O 0.75389 0.10599 0.05441 0.0
O53 O 0.7905 0.11065 0.9948 0.0
O54 O 0.89402 0.18841 0.95972 0.0
O55 O 0.85852 0.18253 0.02015 0.0
O56 O 0.8143 0.11311 0.95803 0.0
O57 O 0.85515 0.11744 0.90341 0.0
C58 C 0.83385 0.09941 0.92545 0.0
O59 O 0.76418 0.19917 0.98391 0.0
O60 O 0.73158 0.19182 0.04683 0.0
C61 C 0.79447 0.20832 0.90293 0.0
C62 C 0.73716 0.20662 0.00946 0.0
Zn63 Zn 0.35406 0.32226 0.63955 0.0
Zn64 Zn 0.27305 0.33313 0.49412 0.0
Zn65 Zn 0.31039 0.32427 0.57113 0.0
C66 C 0.34131 0.31422 0.46665 0.0
C67 C 0.27058 0.39467 0.54108 0.0
O68 O 0.27912 0.29752 0.62291 0.0
O69 O 0.31745 0.30451 0.68036 0.0
C70 C 0.39196 0.295 0.56998 0.0
O71 O 0.34335 0.30967 0.5107 0.0
O72 O 0.31381 0.32684 0.4497 0.0
O73 O 0.25359 0.38021 0.50748 0.0
O74 O 0.29211 0.37732 0.56509 0.0
O75 O 0.39389 0.29456 0.61386 0.0
O76 O 0.36373 0.30565 0.55054 0.0
O77 O 0.31547 0.37642 0.60265 0.0
O78 O 0.3616 0.37299 0.64925 0.0
C79 C 0.33825 0.39081 0.63081 0.0
O80 O 0.27108 0.28252 0.57482 0.0
O81 O 0.24724 0.29044 0.5058 0.0
C82 C 0.28621 0.29845 0.66696 0.0
C83 C 0.25118 0.27209 0.54035 0.0
C84 C 0.98893 0.18659 0.19509 0.0
C85 C 0.95621 0.18434 0.21722 0.0
C86 C 0.01988 0.17966 0.21912 0.0
C87 C 0.01854 0.17052 0.2658 0.0
C88 C 0.9859 0.17097 0.28899 0.0
C89 C 0.9549 0.17769 0.26476 0.0
C90 C 0.0501 0.15621 0.28808 0.0
C91 C 0.0596 0.16637 0.33435 0.0
C92 C 0.08813 0.15071 0.35592 0.0
C93 C 0.10668 0.1245 0.33097 0.0
C94 C 0.09796 0.11429 0.28459 0.0
C95 C 0.06973 0.13054 0.26335 0.0
C96 C 0.11722 0.08532 0.25986 0.0
C97 C 0.15321 0.07988 0.26899 0.0
C98 C 0.09905 0.06096 0.23054 0.0
C99 C 0.11569 0.03078 0.21389 0.0
C100 C 0.15049 0.02412 0.22701 0.0
C101 C 0.10166 0.16351 0.40242 0.0
C102 C 0.10866 0.19869 0.41088 0.0
C103 C 0.11435 0.1403 0.4343 0.0
C104 C 0.13747 0.15149 0.47012 0.0
C105 C 0.14784 0.18604 0.47463 0.0
C106 C 0.13167 0.20985 0.44673 0.0
C107 C 0.16951 0.04928 0.25341 0.0
H108 H 0.99029 0.19167 0.15853 0.0
H109 H 0.04472 0.17986 0.20057 0.0
H110 H 0.98407 0.16381 0.32484 0.0
H111 H 0.92976 0.17562 0.28224 0.0
H112 H 0.04499 0.18653 0.35336 0.0
H113 H 0.06245 0.12275 0.22771 0.0
H114 H 0.12837 0.11218 0.34785 0.0
H115 H 0.16845 0.09855 0.29002 0.0
H116 H 0.07134 0.06397 0.22288 0.0
H117 H 0.10059 0.01144 0.19375 0.0
H118 H 0.0994 0.21716 0.38696 0.0
H119 H 0.10887 0.11307 0.429 0.0
H120 H 0.19641 0.04452 0.26382 0.0
H121 H 0.1396 0.23662 0.44962 0.0
H122 H 0.14985 0.13276 0.49118 0.0
C123 C 0.35751 0.56241 0.66074 0.0
C124 C 0.3503 0.53415 0.68732 0.0
C125 C 0.3683 0.59365 0.68291 0.0
C126 C 0.37153 0.59709 0.73191 0.0
C127 C 0.36186 0.56935 0.75834 0.0
C128 C 0.35141 0.53814 0.7362 0.0
C129 C 0.38827 0.62793 0.75543 0.0
C130 C 0.37486 0.64236 0.79775 0.0
C131 C 0.39323 0.66862 0.82323 0.0
C132 C 0.42548 0.68046 0.80619 0.0
C133 C 0.43863 0.667 0.76314 0.0
C134 C 0.4198 0.64092 0.73792 0.0
C135 C 0.47304 0.67828 0.74518 0.0
C136 C 0.47616 0.68709 0.69853 0.0
C137 C 0.50353 0.67654 0.77278 0.0
C138 C 0.53679 0.68094 0.75297 0.0
C139 C 0.53983 0.68757 0.70556 0.0
C140 C 0.37796 0.6841 0.86697 0.0
C141 C 0.34334 0.69652 0.86678 0.0
C142 C 0.39732 0.68625 0.90893 0.0
C143 C 0.3821 0.7006 0.95014 0.0
C144 C 0.34773 0.71376 0.94937 0.0
C145 C 0.32846 0.71136 0.9075 0.0
C146 C 0.50934 0.69202 0.67901 0.0
H147 H 0.3566 0.55971 0.62293 0.0
H148 H 0.37521 0.61475 0.66173 0.0
H149 H 0.36435 0.57109 0.79606 0.0
H150 H 0.34592 0.51654 0.75717 0.0
H151 H 0.35032 0.63274 0.81135 0.0
H152 H 0.43083 0.62939 0.70583 0.0
H153 H 0.43986 0.70063 0.82579 0.0
H154 H 0.45299 0.68883 0.67671 0.0
H155 H 0.50176 0.6696 0.80873 0.0
H156 H 0.56015 0.67729 0.77381 0.0
H157 H 0.32794 0.69522 0.83485 0.0
H158 H 0.42398 0.67649 0.90989 0.0
H159 H 0.51131 0.69748 0.64252 0.0
H160 H 0.30186 0.72129 0.90629 0.0
H161 H 0.39719 0.70197 0.98229 0.0
C162 C 0.93132 0.80749 0.01603 0.0
C163 C 0.95256 0.80095 0.05449 0.0
C164 C 0.89464 0.80778 0.02045 0.0
C165 C 0.87864 0.80234 0.06377 0.0
C166 C 0.90023 0.7947 0.10171 0.0
C167 C 0.93678 0.79381 0.09697 0.0
C168 C 0.84024 0.80844 0.07104 0.0
C169 C 0.82098 0.78998 0.10322 0.0
C170 C 0.78645 0.79962 0.116 0.0
C171 C 0.7708 0.82743 0.09487 0.0
C172 C 0.78944 0.84576 0.06215 0.0
C173 C 0.8239 0.83592 0.0502 0.0
C174 C 0.77571 0.8785 0.04599 0.0
C175 C 0.76426 0.90405 0.07908 0.0
C176 C 0.77913 0.88645 0.99894 0.0
C177 C 0.77353 0.92 0.98593 0.0
C178 C 0.76523 0.94598 0.02002 0.0
C179 C 0.76795 0.78249 0.15414 0.0
C180 C 0.77106 0.74707 0.15875 0.0
C181 C 0.74903 0.80194 0.18827 0.0
C182 C 0.73244 0.78616 0.22486 0.0
C183 C 0.73271 0.75004 0.2279 0.0
C184 C 0.75469 0.73133 0.1956 0.0
C185 C 0.75928 0.9376 0.06621 0.0
H186 H 0.94309 0.81401 0.9834 0.0
H187 H 0.87891 0.81343 0.99034 0.0
H188 H 0.88918 0.79112 0.13588 0.0
H189 H 0.95288 0.78898 0.1271 0.0
H190 H 0.83351 0.76908 0.12001 0.0
H191 H 0.83897 0.85164 0.02745 0.0
H192 H 0.74435 0.83541 0.10461 0.0
H193 H 0.76178 0.89874 0.1156 0.0
H194 H 0.78786 0.86714 0.97278 0.0
H195 H 0.77793 0.92616 0.95007 0.0
H196 H 0.78653 0.73135 0.13406 0.0
H197 H 0.74789 0.82965 0.18765 0.0
H198 H 0.75286 0.95746 0.09287 0.0
H199 H 0.76088 0.70469 0.19837 0.0
H200 H 0.72019 0.80296 0.2514 0.0
C201 C 0.54514 0.28198 0.57715 0.0
C202 C 0.53435 0.27977 0.53035 0.0
C203 C 0.58037 0.28778 0.5886 0.0
C204 C 0.60561 0.2915 0.55339 0.0
C205 C 0.59509 0.28697 0.50626 0.0
C206 C 0.55962 0.28089 0.49478 0.0
C207 C 0.64147 0.30401 0.56657 0.0
C208 C 0.65804 0.29244 0.60646 0.0
C209 C 0.68827 0.30889 0.62512 0.0
C210 C 0.70297 0.33642 0.6023 0.0
C211 C 0.68689 0.34826 0.56198 0.0
C212 C 0.65647 0.33152 0.54403 0.0
C213 C 0.69807 0.38118 0.54283 0.0
C214 C 0.70449 0.41005 0.57344 0.0
C215 C 0.69832 0.3852 0.49428 0.0
C216 C 0.7033 0.41769 0.47694 0.0
C217 C 0.70773 0.44658 0.50796 0.0
C218 C 0.70221 0.29903 0.67076 0.0
C219 C 0.67912 0.29588 0.70866 0.0
C220 C 0.73812 0.29183 0.67656 0.0
C221 C 0.75038 0.28016 0.71886 0.0
C222 C 0.727 0.27597 0.75607 0.0
C223 C 0.69146 0.28467 0.75105 0.0
C224 C 0.70915 0.44242 0.55614 0.0
H225 H 0.5259 0.28128 0.60499 0.0
H226 H 0.58733 0.29161 0.62521 0.0
H227 H 0.61403 0.28941 0.47841 0.0
H228 H 0.55167 0.27905 0.45845 0.0
H229 H 0.64661 0.27128 0.62416 0.0
H230 H 0.64268 0.34186 0.51489 0.0
H231 H 0.72586 0.34969 0.61725 0.0
H232 H 0.7039 0.40803 0.61095 0.0
H233 H 0.69362 0.36338 0.46985 0.0
H234 H 0.70243 0.4205 0.43961 0.0
H235 H 0.65141 0.30183 0.70533 0.0
H236 H 0.75641 0.29413 0.64793 0.0
H237 H 0.71243 0.46453 0.58053 0.0
H238 H 0.67312 0.28182 0.77951 0.0
H239 H 0.77795 0.27365 0.72226 0.0
C240 C 0.63992 0.46147 0.2979 0.0
C241 C 0.64485 0.46503 0.3464 0.0
C242 C 0.62947 0.42996 0.27661 0.0
C243 C 0.62388 0.40152 0.3036 0.0
C244 C 0.63104 0.40474 0.3519 0.0
C245 C 0.64134 0.43635 0.37318 0.0
C246 C 0.60753 0.36973 0.28222 0.0
C247 C 0.61711 0.35681 0.23735 0.0
C248 C 0.60014 0.32779 0.2164 0.0
C249 C 0.57342 0.31137 0.24074 0.0
C250 C 0.56308 0.32435 0.28547 0.0
C251 C 0.58038 0.35351 0.30574 0.0
C252 C 0.53236 0.30998 0.30997 0.0
C253 C 0.50122 0.30106 0.28536 0.0
C254 C 0.53229 0.3097 0.35908 0.0
C255 C 0.50101 0.30451 0.38311 0.0
C256 C 0.46948 0.29861 0.35856 0.0
C257 C 0.61161 0.31418 0.16972 0.0
C258 C 0.62378 0.28034 0.1637 0.0
C259 C 0.61354 0.33576 0.13217 0.0
C260 C 0.62889 0.32404 0.08982 0.0
C261 C 0.64346 0.29101 0.08524 0.0
C262 C 0.63979 0.26893 0.12188 0.0
C263 C 0.46999 0.29518 0.30956 0.0
H264 H 0.64238 0.48354 0.27689 0.0
H265 H 0.62389 0.42845 0.23948 0.0
H266 H 0.62747 0.38314 0.37348 0.0
H267 H 0.64478 0.43889 0.41071 0.0
H268 H 0.63821 0.369 0.2189 0.0
H269 H 0.57147 0.36479 0.33911 0.0
H270 H 0.56046 0.28887 0.22457 0.0
H271 H 0.50026 0.30115 0.24761 0.0
H272 H 0.55602 0.31554 0.37908 0.0
H273 H 0.50099 0.30705 0.42088 0.0
H274 H 0.62265 0.26334 0.19219 0.0
H275 H 0.60402 0.36193 0.1361 0.0
H276 H 0.44574 0.29068 0.29014 0.0
H277 H 0.65066 0.24324 0.11877 0.0
H278 H 0.63112 0.34123 0.06166 0.0
C279 C 0.03487 0.22512 0.00763 0.0
C280 C 0.02531 0.22004 0.05387 0.0
C281 C 0.06992 0.22286 0.99397 0.0
C282 C 0.09619 0.21524 0.02632 0.0
C283 C 0.08702 0.21364 0.07374 0.0
C284 C 0.0517 0.21649 0.08759 0.0
C285 C 0.13075 0.20276 0.00828 0.0
C286 C 0.14625 0.21787 0.9701 0.0
C287 C 0.17153 0.20017 0.94201 0.0
C288 C 0.18324 0.16794 0.95556 0.0
C289 C 0.17001 0.15384 0.99605 0.0
C290 C 0.14381 0.1714 0.02216 0.0
C291 C 0.18003 0.11884 0.00824 0.0
C292 C 0.17792 0.09132 0.9744 0.0
C293 C 0.18891 0.11225 0.05451 0.0
C294 C 0.19503 0.07864 0.06684 0.0
C295 C 0.19161 0.05118 0.03324 0.0
C296 C 0.18382 0.2145 0.89745 0.0
C297 C 0.16206 0.23666 0.87302 0.0
C298 C 0.21737 0.2065 0.87888 0.0
C299 C 0.22899 0.22083 0.83806 0.0
C300 C 0.20797 0.24452 0.81581 0.0
C301 C 0.17436 0.25216 0.83351 0.0
C302 C 0.1835 0.05774 0.98689 0.0
H303 H 0.01485 0.22821 0.98121 0.0
H304 H 0.07586 0.22398 0.95714 0.0
H305 H 0.1068 0.20814 0.09948 0.0
H306 H 0.04477 0.21313 0.12363 0.0
H307 H 0.13699 0.24286 0.96124 0.0
H308 H 0.13139 0.15901 0.05079 0.0
H309 H 0.20185 0.15312 0.93415 0.0
H310 H 0.17067 0.09565 0.93868 0.0
H311 H 0.19069 0.13309 0.08117 0.0
H312 H 0.20151 0.07393 0.1027 0.0
H313 H 0.13548 0.24252 0.88437 0.0
H314 H 0.23531 0.19007 0.89646 0.0
H315 H 0.18096 0.03675 0.96056 0.0
H316 H 0.15778 0.2705 0.81702 0.0
H317 H 0.25525 0.21492 0.82522 0.0
C318 C 0.44402 0.71037 0.51336 0.0
C319 C 0.46693 0.68304 0.50127 0.0
C320 C 0.4076 0.7059 0.50829 0.0
C321 C 0.39386 0.67378 0.49272 0.0
C322 C 0.41668 0.64606 0.48325 0.0
C323 C 0.45296 0.65073 0.48706 0.0
C324 C 0.35638 0.66955 0.48073 0.0
C325 C 0.34358 0.68415 0.44073 0.0
C326 C 0.31065 0.67436 0.42203 0.0
C327 C 0.28968 0.65104 0.44534 0.0
C328 C 0.30234 0.63606 0.48559 0.0
C329 C 0.33575 0.64574 0.50315 0.0
C330 C 0.28449 0.60574 0.50399 0.0
C331 C 0.28506 0.60022 0.55213 0.0
C332 C 0.27222 0.57931 0.47252 0.0
C333 C 0.26414 0.54711 0.48819 0.0
C334 C 0.26807 0.54078 0.53548 0.0
C335 C 0.30025 0.68539 0.37542 0.0
C336 C 0.32452 0.68318 0.33823 0.0
C337 C 0.26621 0.69775 0.36752 0.0
C338 C 0.25699 0.70869 0.32362 0.0
C339 C 0.28154 0.70717 0.28697 0.0
C340 C 0.31517 0.69384 0.29426 0.0
C341 C 0.27683 0.56786 0.56784 0.0
H342 H 0.45444 0.7354 0.52464 0.0
H343 H 0.39025 0.72757 0.51541 0.0
H344 H 0.40648 0.6212 0.47069 0.0
H345 H 0.47024 0.62937 0.47767 0.0
H346 H 0.36031 0.70151 0.42244 0.0
H347 H 0.34699 0.6329 0.53218 0.0
H348 H 0.26457 0.64285 0.43041 0.0
H349 H 0.29409 0.62021 0.57724 0.0
H350 H 0.27182 0.58244 0.43524 0.0
H351 H 0.25751 0.52634 0.46284 0.0
H352 H 0.35071 0.67305 0.34312 0.0
H353 H 0.24704 0.69959 0.3955 0.0
H354 H 0.2801 0.56324 0.60448 0.0
H355 H 0.33428 0.69227 0.26618 0.0
H356 H 0.23084 0.71885 0.31837 0.0
C357 C 0.01309 0.79458 0.83817 0.0
C358 C 0.01031 0.78645 0.88499 0.0
C359 C 0.98276 0.7994 0.81187 0.0
C360 C 0.94942 0.79668 0.83246 0.0
C361 C 0.94671 0.78545 0.87799 0.0
C362 C 0.97715 0.77976 0.90388 0.0
C363 C 0.91867 0.81143 0.80952 0.0
C364 C 0.90936 0.8005 0.7637 0.0
C365 C 0.88361 0.81822 0.7397 0.0
C366 C 0.86718 0.84698 0.76178 0.0
C367 C 0.87638 0.85838 0.80765 0.0
C368 C 0.90188 0.84006 0.83144 0.0
C369 C 0.86214 0.89115 0.82906 0.0
C370 C 0.85783 0.91961 0.80166 0.0
C371 C 0.85557 0.89523 0.87745 0.0
C372 C 0.84673 0.92742 0.89818 0.0
C373 C 0.84391 0.95585 0.87077 0.0
C374 C 0.87364 0.8067 0.69152 0.0
C375 C 0.87436 0.82963 0.65549 0.0
C376 C 0.8617 0.77298 0.68191 0.0
C377 C 0.84892 0.76283 0.63761 0.0
C378 C 0.84832 0.78606 0.60207 0.0
C379 C 0.86227 0.81919 0.61071 0.0
C380 C 0.84867 0.9516 0.82235 0.0
H381 H 0.0386 0.79985 0.82322 0.0
H382 H 0.98542 0.80823 0.77692 0.0
H383 H 0.92118 0.78309 0.89437 0.0
H384 H 0.97492 0.77279 0.93972 0.0
H385 H 0.92279 0.7788 0.74635 0.0
H386 H 0.91058 0.84942 0.86595 0.0
H387 H 0.84714 0.86041 0.74311 0.0
H388 H 0.86321 0.91767 0.76452 0.0
H389 H 0.85818 0.87378 0.89949 0.0
H390 H 0.84344 0.93043 0.9357 0.0
H391 H 0.88385 0.8557 0.66221 0.0
H392 H 0.86093 0.75492 0.70918 0.0
H393 H 0.84685 0.97344 0.80083 0.0
H394 H 0.86235 0.83727 0.58348 0.0
H395 H 0.83843 0.73707 0.63141 0.0
C396 C 0.20123 0.94578 0.17775 0.0
C397 C 0.18077 0.91983 0.19711 0.0
C398 C 0.15064 0.96283 0.24767 0.0
C399 C 0.16455 0.98877 0.22017 0.0
N400 N 0.20741 0.00643 0.16427 0.0
N401 N 0.15693 0.90469 0.2711 0.0
C402 C 0.19176 0.98082 0.18734 0.0
C403 C 0.16154 0.92844 0.23848 0.0
N404 N 0.23125 0.93683 0.15399 0.0
N405 N 0.12677 0.97096 0.28226 0.0
H406 H 0.16995 0.88116 0.26902 0.0
H407 H 0.14517 0.91018 0.30348 0.0
H408 H 0.1204 -0.00383 0.29316 0.0
H409 H 0.11217 0.95256 0.29879 0.0
H410 H 0.24951 0.95452 0.14284 0.0
H411 H 0.23985 0.91141 0.15055 0.0
H412 H 0.22599 0.00211 0.13797 0.0
H413 H 0.20069 0.03223 0.17013 0.0
C414 C 0.62004 0.6486 0.6435 0.0
C415 C 0.63732 0.67867 0.62953 0.0
C416 C 0.59334 0.71477 0.67138 0.0
C417 C 0.57447 0.68474 0.68175 0.0
N418 N 0.56683 0.62322 0.67311 0.0
N419 N 0.63966 0.74018 0.62611 0.0
C420 C 0.58718 0.65165 0.66698 0.0
C421 C 0.62379 0.71175 0.64243 0.0
N422 N 0.63473 0.61699 0.63364 0.0
N423 N 0.58238 0.74603 0.68994 0.0
H424 H 0.66299 0.73896 0.60687 0.0
H425 H 0.62891 0.76471 0.62946 0.0
H426 H 0.55996 0.74898 0.71082 0.0
H427 H 0.59669 0.76867 0.68764 0.0
H428 H 0.62584 0.59461 0.64788 0.0
H429 H 0.65734 0.61308 0.61348 0.0
H430 H 0.57222 0.59896 0.65773 0.0
H431 H 0.54278 0.62412 0.69068 0.0
C432 C 0.80104 0.03617 0.02202 0.0
C433 C 0.77019 0.05478 0.01177 0.0
C434 C 0.73687 0.00112 0.99912 0.0
C435 C 0.76765 0.98265 0.00976 0.0
N436 N 0.83077 0.98129 0.01938 0.0
N437 N 0.71147 0.05569 0.98018 0.0
C438 C 0.80036 -0.00019 0.01698 0.0
C439 C 0.73888 0.03743 0.997 0.0
N440 N 0.83034 0.05308 0.0394 0.0
N441 N 0.70562 0.98399 0.99257 0.0
H442 H 0.71245 0.0823 0.97804 0.0
H443 H 0.6891 0.04439 0.96478 0.0
H444 H 0.70376 0.95726 0.99185 0.0
H445 H 0.68141 -0.00382 0.99001 0.0
H446 H 0.85205 0.0407 0.0528 0.0
H447 H 0.83224 0.07974 0.04371 0.0
H448 H 0.85578 0.99232 0.01887 0.0
H449 H 0.83123 0.95452 0.01768 0.0
C450 C 0.44338 0.31727 0.52687 0.0
C451 C 0.42437 0.28867 0.54233 0.0
C452 C 0.47532 0.25156 0.52597 0.0
C453 C 0.49605 0.28127 0.52064 0.0
N454 N 0.50058 0.34222 0.51217 0.0
N455 N 0.41938 0.22794 0.55061 0.0
C456 C 0.48008 0.31395 0.51846 0.0
C457 C 0.43936 0.2554 0.53922 0.0
N458 N 0.42669 0.34783 0.52176 0.0
N459 N 0.49055 0.21999 0.51914 0.0
H460 H 0.39251 0.23015 0.55792 0.0
H461 H 0.4292 0.20331 0.55359 0.0
H462 H 0.51687 0.21717 0.50912 0.0
H463 H 0.47686 0.19688 0.51976 0.0
H464 H 0.43808 0.36837 0.50571 0.0
H465 H 0.40029 0.352 0.52989 0.0
H466 H 0.49169 0.3674 0.51677 0.0
H467 H 0.52729 0.34062 0.50396 0.0
C468 C 0.62328 0.5521 0.40507 0.0
C469 C 0.6546 0.57014 0.39536 0.0
C470 C 0.68259 0.51643 0.36717 0.0
C471 C 0.64944 0.49979 0.36914 0.0
N472 N 0.58736 0.50163 0.38772 0.0
N473 N 0.71428 0.57054 0.3669 0.0
C474 C 0.6196 0.51742 0.38812 0.0
C475 C 0.68455 0.55256 0.37683 0.0
N476 N 0.59731 0.56808 0.43122 0.0
N477 N 0.71205 0.49753 0.35656 0.0
H478 H 0.71683 0.59685 0.37497 0.0
H479 H 0.73566 0.55983 0.34866 0.0
H480 H 0.71117 0.47097 0.34956 0.0
H481 H 0.73751 0.50752 0.35887 0.0
H482 H 0.57547 0.55526 0.4437 0.0
H483 H 0.59936 0.59351 0.44456 0.0
H484 H 0.56397 0.51454 0.39574 0.0
H485 H 0.58345 0.47602 0.37628 0.0
C486 C 0.93906 0.17279 0.05047 0.0
C487 C 0.91826 0.19977 0.03464 0.0
C488 C 0.96386 0.24138 0.05914 0.0
C489 C 0.98752 0.21381 0.06337 0.0
N490 N -0.00224 0.15296 0.0674 0.0
N491 N 0.90765 0.26007 0.02903 0.0
C492 C 0.97491 0.17941 0.06187 0.0
C493 C 0.92942 0.23435 0.04151 0.0
N494 N 0.92478 0.14074 0.05306 0.0
N495 N 0.9751 0.27408 0.07066 0.0
H496 H 0.88176 0.25536 0.01799 0.0
H497 H 0.91529 0.28569 0.02853 0.0
H498 H 0.00044 0.27912 0.08364 0.0
H499 H 0.95881 0.2955 0.0712 0.0
H500 H 0.93748 0.1207 0.06852 0.0
H501 H 0.89874 0.13506 0.04375 0.0
H502 H 0.99127 0.12722 0.06039 0.0
H503 H 0.02392 0.15669 0.07747 0.0
C504 C 0.23949 0.45033 0.56111 0.0
C505 C 0.27067 0.43253 0.54747 0.0
C506 C 0.30199 0.48711 0.54249 0.0
C507 C 0.26955 0.50465 0.54833 0.0
N508 N 0.20723 0.50413 0.5633 0.0
N509 N 0.33099 0.43368 0.52025 0.0
C510 C 0.23823 0.48662 0.55822 0.0
C511 C 0.30194 0.45081 0.53747 0.0
N512 N 0.21148 0.43256 0.57751 0.0
N513 N 0.33287 0.50521 0.54123 0.0
H514 H 0.33245 0.40705 0.51578 0.0
H515 H 0.35289 0.44591 0.50693 0.0
H516 H 0.33398 0.53195 0.54349 0.0
H517 H 0.3576 0.49379 0.5424 0.0
H518 H 0.18912 0.44428 0.59202 0.0
H519 H 0.21191 0.40599 0.58016 0.0
H520 H 0.18274 0.49223 0.56527 0.0
H521 H 0.20598 0.53087 0.56346 0.0
C522 C 0.09875 0.77315 0.94291 0.0
C523 C 0.10482 0.80667 0.96344 0.0
C524 C 0.04707 0.82555 0.93722 0.0
C525 C 0.04115 0.79211 0.91612 0.0
N526 N 0.05706 0.73256 0.90575 0.0
N527 N 0.08385 0.86344 0.98687 0.0
C528 C 0.06572 0.76537 0.92116 0.0
C529 C 0.07856 0.83241 0.96287 0.0
N530 N 0.12483 0.74908 0.94367 0.0
N531 N 0.02315 0.85109 0.93095 0.0
H532 H 0.10731 0.87019 0.00407 0.0
H533 H 0.06435 0.88187 0.99266 0.0
H534 H -0.00096 0.84692 0.91405 0.0
H535 H 0.02759 0.87691 0.94032 0.0
H536 H 0.12373 0.72527 0.92532 0.0
H537 H 0.14865 0.75354 0.96124 0.0
H538 H 0.07223 0.71114 0.91192 0.0
H539 H 0.03305 0.72636 0.88952 0.0
C540 C 0.80443 0.04359 0.89938 0.0
C541 C 0.8345 0.06167 0.91731 0.0
C542 C 0.86953 0.00912 0.91058 0.0
C543 C 0.83955 0.99097 0.89256 0.0
N544 N 0.77682 0.98815 0.88079 0.0
N545 N 0.89186 0.06003 0.95339 0.0
C546 C 0.80637 0.00736 0.8906 0.0
C547 C 0.86592 0.04391 0.92706 0.0
N548 N 0.77465 0.06117 0.88888 0.0
N549 N 0.90179 0.99359 0.9101 0.0
H550 H 0.88979 0.08538 0.96694 0.0
H551 H 0.91371 0.04732 0.96584 0.0
H552 H 0.90558 0.96787 0.8993 0.0
H553 H 0.92522 0.00684 0.91739 0.0
H554 H 0.75314 0.04991 0.87129 0.0
H555 H 0.77224 0.08768 0.89509 0.0
H556 H 0.75137 -0.00207 0.88353 0.0
H557 H 0.77766 0.96157 0.87406 0.0
C558 C 0.38809 0.33809 0.41621 0.0
C559 C 0.37322 0.30932 0.43722 0.0
C560 C 0.42265 0.27347 0.4085 0.0
C561 C 0.43561 0.30147 0.38416 0.0
N562 N 0.42911 0.35951 0.36035 0.0
N563 N 0.37393 0.24876 0.44987 0.0
C564 C 0.4177 0.33341 0.38644 0.0
C565 C 0.38988 0.27673 0.43247 0.0
N566 N 0.37556 0.3704 0.42736 0.0
N567 N 0.44207 0.24405 0.40944 0.0
H568 H 0.3503 0.25032 0.46829 0.0
H569 H 0.38271 0.22367 0.4435 0.0
H570 H 0.46542 0.24032 0.3907 0.0
H571 H 0.43637 0.22424 0.43103 0.0
H572 H 0.38814 0.39274 0.41805 0.0
H573 H 0.35447 0.37538 0.44988 0.0
H574 H 0.41442 0.38153 0.35562 0.0
H575 H 0.45221 0.35841 0.34069 0.0
C576 C 0.16814 0.96109 0.06532 0.0
C577 C 0.20033 0.9438 0.05497 0.0
C578 C 0.22822 -0.00202 0.03595 0.0
C579 C 0.19602 0.01519 0.04603 0.0
N580 N 0.13823 0.01539 0.08095 0.0
N581 N 0.26288 0.94623 0.04188 0.0
C582 C 0.16697 -0.00254 0.06444 0.0
C583 C 0.23099 0.96247 0.04379 0.0
N584 N 0.13809 0.94273 0.07272 0.0
N585 N 0.25581 0.01546 0.01786 0.0
H586 H 0.2657 0.92037 0.04861 0.0
H587 H 0.28681 0.95887 0.03817 0.0
H588 H 0.25536 0.0419 0.01413 0.0
H589 H 0.27846 0.00363 0.00439 0.0
H590 H 0.1131 0.95363 0.07476 0.0
H591 H 0.13746 0.91607 0.0734 0.0
H592 H 0.11813 0.00447 0.09986 0.0
H593 H 0.13585 0.04191 0.07931 0.0
C594 C 0.5636 0.66573 0.52042 0.0
C595 C 0.5796 0.6896 0.49137 0.0
C596 C 0.52145 0.70949 0.46838 0.0
C597 C 0.50569 0.68805 0.50094 0.0
N598 N 0.5123 0.65183 0.56567 0.0
N599 N 0.57413 0.73949 0.44604 0.0
C600 C 0.52702 0.66827 0.52966 0.0
C601 C 0.55863 0.71318 0.46796 0.0
N602 N 0.58253 0.63904 0.53633 0.0
N603 N 0.50128 0.72472 0.43599 0.0
H604 H 0.60133 0.74342 0.44569 0.0
H605 H 0.55985 0.75934 0.43235 0.0
H606 H 0.47401 0.72189 0.43378 0.0
H607 H 0.51199 0.73748 0.40839 0.0
H608 H 0.57113 0.61917 0.55387 0.0
H609 H 0.60876 0.63441 0.52752 0.0
H610 H 0.52718 0.63953 0.5902 0.0
H611 H 0.48557 0.65364 0.57391 0.0
C612 C 0.30963 0.44679 0.6578 0.0
C613 C 0.33919 0.42864 0.63881 0.0
C614 C 0.37508 0.48085 0.64667 0.0
C615 C 0.34541 0.49923 0.66478 0.0
N616 N 0.28267 0.50233 0.67595 0.0
N617 N 0.39596 0.4307 0.60133 0.0
C618 C 0.31202 0.48301 0.66645 0.0
C619 C 0.37068 0.44642 0.62891 0.0
N620 N 0.28002 0.42936 0.66983 0.0
N621 N 0.40784 0.49556 0.64852 0.0
H622 H 0.39314 0.40577 0.58645 0.0
H623 H 0.41783 0.44362 0.58904 0.0
H624 H 0.41253 0.52075 0.66126 0.0
H625 H 0.43083 0.48184 0.64086 0.0
H626 H 0.25909 0.44089 0.68815 0.0
H627 H 0.27736 0.40279 0.66473 0.0
H628 H 0.25714 0.49256 0.67294 0.0
H629 H 0.28381 0.52894 0.68237 0.0
C630 C 0.04916 0.77621 0.05605 0.0
C631 C 0.06329 0.80741 0.0759 0.0
C632 C 0.00713 0.83643 0.06434 0.0
C633 C 0.99146 0.80404 0.0525 0.0
N634 N -0.00333 0.74342 0.03308 0.0
N635 N 0.05741 0.86784 0.09748 0.0
C636 C 0.01238 0.77404 0.04639 0.0
C637 C 0.04288 0.83786 0.07892 0.0
N638 N 0.07101 0.74891 0.04656 0.0
N639 N 0.98768 0.8657 0.06176 0.0
H640 H 0.08402 0.87031 0.10627 0.0
H641 H 0.04301 0.88996 0.10609 0.0
H642 H 0.96119 0.86543 0.05209 0.0
H643 H -0.00172 0.89035 0.0653 0.0
H644 H 0.06323 0.72622 0.02845 0.0
H645 H 0.09798 0.75005 0.05361 0.0
H646 H 0.00938 0.71981 0.03261 0.0
H647 H 0.97013 0.74156 0.02366 0.0
C648 C 0.73972 0.53393 0.47318 0.0
C649 C 0.71009 0.55381 0.4877 0.0
C650 C 0.67605 0.50123 0.49677 0.0
C651 C 0.70745 0.48193 0.49147 0.0
N652 N 0.76922 0.47874 0.47306 0.0
N653 N 0.65029 0.55675 0.51669 0.0
C654 C 0.73925 0.49785 0.47837 0.0
C655 C 0.67803 0.5376 0.49953 0.0
N656 N 0.76809 0.54968 0.45432 0.0
N657 N 0.64442 0.48468 0.49974 0.0
H658 H 0.65038 0.5835 0.51944 0.0
H659 H 0.62792 0.54609 0.53115 0.0
H660 H 0.64229 0.45796 0.4984 0.0
H661 H 0.62027 0.49721 0.49876 0.0
H662 H 0.78937 0.53642 0.43923 0.0
H663 H 0.76874 0.57605 0.44994 0.0
H664 H 0.79415 0.48931 0.46882 0.0
H665 H 0.7693 0.45212 0.47504 0.0
C666 C 0.87787 0.21205 0.14473 0.0
C667 C 0.86165 0.17971 0.13388 0.0
C668 C 0.90876 0.15073 0.17462 0.0
C669 C 0.92347 0.18321 0.18876 0.0
N670 N 0.92144 0.24496 0.19105 0.0
N671 N 0.85905 0.11844 0.14206 0.0
C672 C 0.90788 0.21399 0.17478 0.0
C673 C 0.87622 0.14914 0.15017 0.0
N674 N 0.86485 0.2407 0.12564 0.0
N675 N 0.92687 0.12133 0.18246 0.0
H676 H 0.8363 0.11549 0.1218 0.0
H677 H 0.86593 0.09612 0.158 0.0
H678 H 0.95079 0.12118 0.20037 0.0
H679 H 0.9199 0.09719 0.16781 0.0
H680 H 0.87746 0.26447 0.12782 0.0
H681 H 0.84218 0.24025 0.10499 0.0
H682 H 0.9096 0.26846 0.18597 0.0
H683 H 0.9437 0.2471 0.21244 0.0
C684 C 0.26796 0.76929 0.19154 0.0
C685 C 0.23831 0.75346 0.16925 0.0
C686 C 0.24821 0.70166 0.21156 0.0
C687 C 0.27186 0.72068 0.24145 0.0
N688 N 0.30569 0.77227 0.2599 0.0
N689 N 0.20256 0.70339 0.15219 0.0
C690 C 0.28292 0.75411 0.23074 0.0
C691 C 0.22972 0.71887 0.17677 0.0
N692 N 0.28103 0.79925 0.17613 0.0
N693 N 0.24327 0.66743 0.21712 0.0
H694 H 0.18996 0.71521 0.12504 0.0
H695 H 0.19194 0.67963 0.15926 0.0
H696 H 0.25668 0.65445 0.2425 0.0
H697 H 0.22831 0.65136 0.19453 0.0
H698 H 0.30442 0.81056 0.18839 0.0
H699 H 0.27048 0.81094 0.14758 0.0
H700 H 0.31129 0.79823 0.25729 0.0
H701 H 0.3175 0.76197 0.28875 0.0
C702 C 0.82351 0.7252 0.50262 0.0
C703 C 0.78718 0.7327 0.50077 0.0
C704 C 0.7959 0.78572 0.54855 0.0
C705 C 0.83097 0.7752 0.5572 0.0
N706 N 0.8817 0.74303 0.5307 0.0
N707 N 0.7433 0.77686 0.501 0.0
C708 C 0.84613 0.74785 0.52941 0.0
C709 C 0.77511 0.76566 0.51601 0.0
N710 N 0.8353 0.69506 0.4817 0.0
N711 N 0.78151 0.81282 0.57416 0.0
H712 H 0.72831 0.76254 0.47633 0.0
H713 H 0.73393 0.80163 0.50864 0.0
H714 H 0.79591 0.82847 0.59797 0.0
H715 H 0.7548 0.81879 0.57349 0.0
H716 H 0.86078 0.68581 0.48518 0.0
H717 H 0.81858 0.67906 0.46111 0.0
H718 H 0.89492 0.72451 0.50983 0.0
H719 H 0.89825 0.75971 0.55048 0.0
C720 C 0.72475 0.26836 0.01553 0.0
C721 C 0.71361 0.23522 0.99952 0.0
C722 C 0.65249 0.25107 0.01536 0.0
C723 C 0.66498 0.2793 0.04417 0.0
N724 N 0.71251 0.31802 0.06765 0.0
N725 N 0.66742 0.19714 0.97273 0.0
C726 C 0.70081 0.28972 0.0417 0.0
C727 C 0.67735 0.22776 0.99443 0.0
N728 N 0.75866 0.27827 0.00789 0.0
N729 N 0.61705 0.24609 0.01027 0.0
H730 H 0.68592 0.18064 0.95648 0.0
H731 H 0.64162 0.18805 0.97122 0.0
H732 H 0.59889 0.2633 0.02577 0.0
H733 H 0.60581 0.22679 0.98838 0.0
H734 H 0.76809 0.30302 0.01589 0.0
H735 H 0.77628 0.26233 0.98911 0.0
H736 H 0.73903 0.32439 0.07185 0.0
H737 H 0.69572 0.33462 0.08669 0.0
C738 C 0.22512 0.28016 0.69615 0.0
C739 C 0.25927 0.29368 0.70458 0.0
C740 C 0.25169 0.28709 0.78837 0.0
C741 C 0.22302 0.26443 0.77782 0.0
N742 N 0.17965 0.24187 0.72201 0.0
N743 N 0.28931 0.33176 0.7609 0.0
C744 C 0.20842 0.26215 0.73192 0.0
C745 C 0.26821 0.30368 0.75158 0.0
N746 N 0.20727 0.28787 0.65686 0.0
N747 N 0.26314 0.29279 0.83343 0.0
H748 H 0.29724 0.34766 0.73481 0.0
H749 H 0.29467 0.3422 0.79445 0.0
H750 H 0.24933 0.28453 0.86214 0.0
H751 H 0.28698 0.30482 0.84222 0.0
H752 H 0.18093 0.28135 0.65096 0.0
H753 H 0.2175 0.30451 0.63316 0.0
H754 H 0.16901 0.23808 0.68861 0.0
H755 H 0.16759 0.22713 0.74662 0.0
C756 C 0.68476 0.74555 0.34368 0.0
C757 C 0.70095 0.71597 0.36046 0.0
C758 C 0.72157 0.70018 0.28139 0.0
C759 C 0.7136 0.73365 0.26786 0.0
N760 N 0.6656 0.77368 0.27513 0.0
N761 N 0.73526 0.66446 0.34473 0.0
C762 C 0.68866 0.75253 0.29585 0.0
C763 C 0.71982 0.69323 0.32928 0.0
N764 N 0.6665 0.7675 0.37363 0.0
N765 N 0.7229 0.67352 0.24848 0.0
H766 H 0.73395 0.65783 0.37939 0.0
H767 H 0.75159 0.64876 0.32349 0.0
H768 H 0.71467 0.67652 0.2142 0.0
H769 H 0.72574 0.648 0.25678 0.0
H770 H 0.65723 0.79123 0.36421 0.0
H771 H 0.66325 0.76325 0.40897 0.0
H772 H 0.64458 0.78574 0.29264 0.0
H773 H 0.66504 0.7754 0.23891 0.0
C774 C 0.78006 0.26316 0.86627 0.0
C775 C 0.77077 0.22886 0.87476 0.0
C776 C 0.73006 0.22653 0.80841 0.0
C777 C 0.73955 0.2608 0.79945 0.0
N778 N 0.76651 0.31451 0.82589 0.0
N779 N 0.73069 0.18114 0.86266 0.0
C780 C 0.76231 0.28005 0.83045 0.0
C781 C 0.74341 0.21178 0.84894 0.0
N782 N 0.80663 0.27909 0.89156 0.0
N783 N 0.71025 0.20728 0.77663 0.0
H784 H 0.74048 0.16924 0.89157 0.0
H785 H 0.70835 0.16913 0.84816 0.0
H786 H 0.70033 0.21679 0.74606 0.0
H787 H 0.70597 0.18101 0.7785 0.0
H788 H 0.81769 0.30247 0.88356 0.0
H789 H 0.81874 0.268 0.91966 0.0
H790 H 0.78017 0.33068 0.84985 0.0
H791 H 0.75371 0.32755 0.80006 0.0
C792 C 0.21316 0.22305 0.56491 0.0
C793 C 0.23721 0.23637 0.53353 0.0
C794 C 0.21193 0.19912 0.47038 0.0
C795 C 0.18136 0.19604 0.49834 0.0
N796 N 0.15458 0.19986 0.57474 0.0
N797 N 0.2688 0.22708 0.46158 0.0
C798 C 0.18266 0.20579 0.54673 0.0
C799 C 0.23996 0.22033 0.488 0.0
N800 N 0.2215 0.22361 0.61096 0.0
N801 N 0.21339 0.18264 0.42694 0.0
H802 H 0.29002 0.24127 0.47575 0.0
H803 H 0.27202 0.21892 0.42666 0.0
H804 H 0.19312 0.16678 0.41359 0.0
H805 H 0.23518 0.18281 0.40505 0.0
H806 H 0.20693 0.21028 0.63481 0.0
H807 H 0.24568 0.23343 0.62305 0.0
H808 H 0.1533 0.20943 0.60945 0.0
H809 H 0.13221 0.18657 0.56236 0.0
C810 C 0.31444 0.78481 0.03276 0.0
C811 C 0.28026 0.77139 0.03896 0.0
C812 C 0.30069 0.71478 0.00977 0.0
C813 C 0.33084 0.73065 0.99141 0.0
N814 N 0.36874 0.78031 0.9886 0.0
N815 N 0.24107 0.72263 0.03867 0.0
C816 C 0.33906 0.76531 0.00511 0.0
C817 C 0.27374 0.73575 0.0306 0.0
N818 N 0.32245 0.81678 0.0519 0.0
N819 N 0.29759 0.67986 0.00552 0.0
H820 H 0.22101 0.73725 0.05455 0.0
H821 H 0.23338 0.69772 0.02809 0.0
H822 H 0.31728 0.6644 0.99003 0.0
H823 H 0.27751 0.66627 0.02097 0.0
H824 H 0.34766 0.82739 0.0517 0.0
H825 H 0.30419 0.83118 0.07199 0.0
H826 H 0.37391 0.80655 0.99274 0.0
H827 H 0.38762 0.76669 0.9688 0.0
loop_
_geom_bond_atom_site_label_1
_geom_bond_atom_site_label_2
_geom_bond_distance
_geom_bond_site_symmetry_2
_ccdc_geom_bond_type
Zn0 O6 1.920 . S
Zn0 O12 1.898 . S
Zn0 O15 1.905 . S
Zn1 O9 1.905 . S
Zn1 O10 1.898 . S
Zn1 O18 1.920 . S
Zn2 O5 2.080 . S
Zn2 O8 2.114 . S
Zn2 O11 2.120 1_554 S
Zn2 O13 2.120 . S
Zn2 O14 2.114 . S
Zn2 O17 2.080 . S
C3 O8 1.166 1_556 S
C3 O9 1.182 . S
C4 O10 1.167 . S
C4 O11 1.299 . S
O5 Zn2 2.080 . S
O5 C19 1.305 . S
O6 Zn0 1.920 . S
O6 C19 1.234 . S
C7 O12 1.167 . S
C7 O13 1.299 . S
O8 Zn2 2.114 . S
O8 C3 1.166 1_554 S
O9 Zn1 1.905 . S
O9 C3 1.182 . S
O10 Zn1 1.898 . S
O10 C4 1.167 . S
O11 Zn2 2.120 1_556 S
O11 C4 1.299 . S
O12 Zn0 1.898 . S
O12 C7 1.167 . S
O13 Zn2 2.120 . S
O13 C7 1.299 . S
O14 Zn2 2.114 . S
O14 C16 1.166 . S
O15 Zn0 1.905 . S
O15 C16 1.182 . S
C16 O14 1.166 . S
C16 O15 1.182 . S
O17 Zn2 2.080 . S
O17 C20 1.294 1_554 S
O18 Zn1 1.920 . S
O18 C20 1.250 . S
C19 O5 1.305 . S
C19 O6 1.234 . S
C20 O17 1.294 1_556 S
C20 O18 1.250 . S
Zn21 O27 1.920 . S
Zn21 O33 1.898 . S
Zn21 O36 1.905 . S
Zn22 O30 1.905 . S
Zn22 O31 1.898 . S
Zn22 O39 1.920 . S
Zn23 O26 2.080 . S
Zn23 O29 2.114 . S
Zn23 O32 2.120 . S
Zn23 O34 2.120 . S
Zn23 O35 2.114 . S
Zn23 O38 2.080 . S
C24 O29 1.166 . S
C24 O30 1.182 . S
C25 O31 1.167 . S
C25 O32 1.299 . S
O26 Zn23 2.080 . S
O26 C40 1.305 . S
O27 Zn21 1.920 . S
O27 C40 1.234 . S
C28 O33 1.167 . S
C28 O34 1.299 . S
O29 Zn23 2.114 . S
O29 C24 1.166 . S
O30 Zn22 1.905 . S
O30 C24 1.182 . S
O31 Zn22 1.898 . S
O31 C25 1.167 . S
O32 Zn23 2.120 . S
O32 C25 1.299 . S
O33 Zn21 1.898 . S
O33 C28 1.167 . S
O34 Zn23 2.120 . S
O34 C28 1.299 . S
O35 Zn23 2.114 . S
O35 C37 1.166 . S
O36 Zn21 1.905 . S
O36 C37 1.182 . S
C37 O35 1.166 . S
C37 O36 1.182 . S
O38 Zn23 2.080 . S
O38 C41 1.305 . S
O39 Zn22 1.920 . S
O39 C41 1.234 . S
C40 O26 1.305 . S
C40 O27 1.234 . S
C41 O38 1.305 . S
C41 O39 1.234 . S
Zn42 O48 1.920 . S
Zn42 O54 1.898 . S
Zn42 O57 1.905 . S
Zn43 O51 1.905 . S
Zn43 O52 1.898 . S
Zn43 O60 1.920 . S
Zn44 O47 2.080 1_554 S
Zn44 O50 2.114 . S
Zn44 O53 2.120 . S
Zn44 O55 2.120 1_554 S
Zn44 O56 2.114 1_554 S
Zn44 O59 2.080 . S
C45 O50 1.166 . S
C45 O51 1.182 . S
C46 O52 1.167 . S
C46 O53 1.299 . S
O47 Zn44 2.080 1_556 S
O47 C61 1.305 . S
O48 Zn42 1.920 . S
O48 C61 1.234 . S
C49 O54 1.167 . S
C49 O55 1.299 . S
O50 Zn44 2.114 . S
O50 C45 1.166 . S
O51 Zn43 1.905 . S
O51 C45 1.182 . S
O52 Zn43 1.898 . S
O52 C46 1.167 . S
O53 Zn44 2.120 . S
O53 C46 1.299 . S
O54 Zn42 1.898 . S
O54 C49 1.167 . S
O55 Zn44 2.120 1_556 S
O55 C49 1.299 . S
O56 Zn44 2.114 1_556 S
O56 C58 1.166 . S
O57 Zn42 1.905 . S
O57 C58 1.182 . S
C58 O56 1.166 . S
C58 O57 1.182 . S
O59 Zn44 2.080 . S
O59 C62 1.305 . S
O60 Zn43 1.920 . S
O60 C62 1.234 . S
C61 O47 1.305 . S
C61 O48 1.234 . S
C62 O59 1.305 . S
C62 O60 1.234 . S
Zn63 O69 1.920 . S
Zn63 O75 1.898 . S
Zn63 O78 1.905 . S
Zn64 O72 1.905 . S
Zn64 O73 1.898 . S
Zn64 O81 1.920 . S
Zn65 O68 2.080 . S
Zn65 O71 2.114 . S
Zn65 O74 2.120 . S
Zn65 O76 2.120 . S
Zn65 O77 2.114 . S
Zn65 O80 2.080 . S
C66 O71 1.166 . S
C66 O72 1.182 . S
C67 O73 1.167 . S
C67 O74 1.299 . S
O68 Zn65 2.080 . S
O68 C82 1.305 . S
O69 Zn63 1.920 . S
O69 C82 1.234 . S
C70 O75 1.167 . S
C70 O76 1.299 . S
O71 Zn65 2.114 . S
O71 C66 1.166 . S
O72 Zn64 1.905 . S
O72 C66 1.182 . S
O73 Zn64 1.898 . S
O73 C67 1.167 . S
O74 Zn65 2.120 . S
O74 C67 1.299 . S
O75 Zn63 1.898 . S
O75 C70 1.167 . S
O76 Zn65 2.120 . S
O76 C70 1.299 . S
O77 Zn65 2.114 . S
O77 C79 1.166 . S
O78 Zn63 1.905 . S
O78 C79 1.182 . S
C79 O77 1.166 . S
C79 O78 1.182 . S
O80 Zn65 2.080 . S
O80 C83 1.305 . S
O81 Zn64 1.920 . S
O81 C83 1.234 . S
C82 O68 1.305 . S
C82 O69 1.234 . S
C83 O80 1.305 . S
C83 O81 1.234 . S
C84 C85 1.386 1_455 S
C84 C86 1.397 . S
C84 H108 0.931 . S
C85 C84 1.386 1_655 S
C85 C89 1.398 . S
C86 C84 1.397 . S
C86 C87 1.384 . S
C86 H109 0.930 . S
C87 C86 1.384 . S
C87 C88 1.377 . S
C87 C90 1.481 . S
C88 C87 1.377 . S
C88 C89 1.376 1_455 S
C88 H110 0.929 . S
C89 C85 1.398 . S
C89 C88 1.376 1_655 S
C89 H111 0.943 . S
C90 C87 1.481 . S
C90 C91 1.387 . S
C90 C95 1.390 . S
C91 C90 1.387 . S
C91 C92 1.401 . S
C91 H112 0.930 . S
C92 C91 1.401 . S
C92 C93 1.376 . S
C92 C101 1.511 . S
C93 C92 1.376 . S
C93 C94 1.392 . S
C93 H114 0.931 . S
C94 C93 1.392 . S
C94 C95 1.361 . S
C94 C96 1.500 . S
C95 C90 1.390 . S
C95 C94 1.361 . S
C95 H113 0.931 . S
C96 C94 1.500 . S
C96 C97 1.371 . S
C96 C98 1.365 . S
C97 C96 1.371 . S
C97 C107 1.390 1_545 S
C97 H115 0.931 . S
C98 C96 1.365 . S
C98 C99 1.409 1_545 S
C98 H116 0.929 . S
C99 C98 1.409 1_565 S
C99 C100 1.380 . S
C99 H117 0.930 . S
C100 C99 1.380 . S
C100 C107 1.355 . S
C101 C92 1.511 . S
C101 C102 1.341 . S
C101 C103 1.371 . S
C102 C101 1.341 . S
C102 C106 1.394 . S
C102 H118 0.930 . S
C103 C101 1.371 . S
C103 C104 1.392 . S
C103 H119 0.931 . S
C104 C103 1.392 . S
C104 C105 1.331 . S
C104 H122 0.932 . S
C105 C104 1.331 . S
C105 C106 1.336 . S
C106 C102 1.394 . S
C106 C105 1.336 . S
C106 H121 0.929 . S
C107 C97 1.390 1_565 S
C107 C100 1.355 . S
C107 H120 0.927 . S
H108 C84 0.931 . S
H109 C86 0.930 . S
H110 C88 0.929 . S
H111 C89 0.943 . S
H112 C91 0.930 . S
H113 C95 0.931 . S
H114 C93 0.931 . S
H115 C97 0.931 . S
H116 C98 0.929 . S
H117 C99 0.930 . S
H118 C102 0.930 . S
H119 C103 0.931 . S
H120 C107 0.927 . S
H121 C106 0.929 . S
H122 C104 0.932 . S
C123 C124 1.386 . S
C123 C125 1.397 . S
C123 H147 0.931 . S
C124 C123 1.386 . S
C124 C128 1.397 . S
C125 C123 1.397 . S
C125 C126 1.384 . S
C125 H148 0.930 . S
C126 C125 1.384 . S
C126 C127 1.377 . S
C126 C129 1.481 . S
C127 C126 1.377 . S
C127 C128 1.389 . S
C127 H149 0.929 . S
C128 C124 1.397 . S
C128 C127 1.389 . S
C128 H150 0.931 . S
C129 C126 1.481 . S
C129 C130 1.387 . S
C129 C134 1.390 . S
C130 C129 1.387 . S
C130 C131 1.401 . S
C130 H151 0.930 . S
C131 C130 1.401 . S
C131 C132 1.376 . S
C131 C140 1.511 . S
C132 C131 1.376 . S
C132 C133 1.392 . S
C132 H153 0.931 . S
C133 C132 1.392 . S
C133 C134 1.361 . S
C133 C135 1.500 . S
C134 C129 1.390 . S
C134 C133 1.361 . S
C134 H152 0.931 . S
C135 C133 1.500 . S
C135 C136 1.371 . S
C135 C137 1.365 . S
C136 C135 1.371 . S
C136 C146 1.386 . S
C136 H154 0.931 . S
C137 C135 1.365 . S
C137 C138 1.409 . S
C137 H155 0.929 . S
C138 C137 1.409 . S
C138 C139 1.380 . S
C138 H156 0.930 . S
C139 C138 1.380 . S
C139 C146 1.357 . S
C140 C131 1.511 . S
C140 C141 1.341 . S
C140 C142 1.371 . S
C141 C140 1.341 . S
C141 C145 1.394 . S
C141 H157 0.930 . S
C142 C140 1.371 . S
C142 C143 1.392 . S
C142 H158 0.931 . S
C143 C142 1.392 . S
C143 C144 1.331 . S
C143 H161 0.932 . S
C144 C143 1.331 . S
C144 C145 1.336 . S
C145 C141 1.394 . S
C145 C144 1.336 . S
C145 H160 0.929 . S
C146 C136 1.386 . S
C146 C139 1.357 . S
C146 H159 0.928 . S
H147 C123 0.931 . S
H148 C125 0.930 . S
H149 C127 0.929 . S
H150 C128 0.931 . S
H151 C130 0.930 . S
H152 C134 0.931 . S
H153 C132 0.931 . S
H154 C136 0.931 . S
H155 C137 0.929 . S
H156 C138 0.930 . S
H157 C141 0.930 . S
H158 C142 0.931 . S
H159 C146 0.928 . S
H160 C145 0.929 . S
H161 C143 0.932 . S
C162 C163 1.386 . S
C162 C164 1.397 . S
C162 H186 0.931 . S
C163 C162 1.386 . S
C163 C167 1.397 . S
C164 C162 1.397 . S
C164 C165 1.384 . S
C164 H187 0.930 . S
C165 C164 1.384 . S
C165 C166 1.377 . S
C165 C168 1.481 . S
C166 C165 1.377 . S
C166 C167 1.389 . S
C166 H188 0.929 . S
C167 C163 1.397 . S
C167 C166 1.389 . S
C167 H189 0.931 . S
C168 C165 1.481 . S
C168 C169 1.387 . S
C168 C173 1.390 . S
C169 C168 1.387 . S
C169 C170 1.401 . S
C169 H190 0.930 . S
C170 C169 1.401 . S
C170 C171 1.376 . S
C170 C179 1.511 . S
C171 C170 1.376 . S
C171 C172 1.392 . S
C171 H192 0.931 . S
C172 C171 1.392 . S
C172 C173 1.361 . S
C172 C174 1.500 . S
C173 C168 1.390 . S
C173 C172 1.361 . S
C173 H191 0.931 . S
C174 C172 1.500 . S
C174 C175 1.371 . S
C174 C176 1.365 . S
C175 C174 1.371 . S
C175 C185 1.386 . S
C175 H193 0.931 . S
C176 C174 1.365 . S
C176 C177 1.409 . S
C176 H194 0.929 . S
C177 C176 1.409 . S
C177 C178 1.380 . S
C177 H195 0.930 1_565 S
C178 C177 1.380 . S
C178 C185 1.357 . S
C179 C170 1.511 . S
C179 C180 1.341 . S
C179 C181 1.371 . S
C180 C179 1.341 . S
C180 C184 1.394 . S
C180 H196 0.930 . S
C181 C179 1.371 . S
C181 C182 1.392 . S
C181 H197 0.931 . S
C182 C181 1.392 . S
C182 C183 1.331 . S
C182 H200 0.932 . S
C183 C182 1.331 . S
C183 C184 1.336 . S
C184 C180 1.394 . S
C184 C183 1.336 . S
C184 H199 0.929 . S
C185 C175 1.386 . S
C185 C178 1.357 . S
C185 H198 0.928 . S
H186 C162 0.931 . S
H187 C164 0.930 . S
H188 C166 0.929 . S
H189 C167 0.931 . S
H190 C169 0.930 . S
H191 C173 0.931 . S
H192 C171 0.931 . S
H193 C175 0.931 . S
H194 C176 0.929 . S
H195 C177 0.930 1_545 S
H196 C180 0.930 . S
H197 C181 0.931 . S
H198 C185 0.928 . S
H199 C184 0.929 . S
H200 C182 0.932 . S
C201 C202 1.386 . S
C201 C203 1.397 . S
C201 H225 0.931 . S
C202 C201 1.386 . S
C202 C206 1.397 . S
C203 C201 1.397 . S
C203 C204 1.384 . S
C203 H226 0.930 . S
C204 C203 1.384 . S
C204 C205 1.377 . S
C204 C207 1.481 . S
C205 C204 1.377 . S
C205 C206 1.389 . S
C205 H227 0.929 . S
C206 C202 1.397 . S
C206 C205 1.389 . S
C206 H228 0.931 . S
C207 C204 1.481 . S
C207 C208 1.387 . S
C207 C212 1.390 . S
C208 C207 1.387 . S
C208 C209 1.401 . S
C208 H229 0.930 . S
C209 C208 1.401 . S
C209 C210 1.376 . S
C209 C218 1.511 . S
C210 C209 1.376 . S
C210 C211 1.392 . S
C210 H231 0.931 . S
C211 C210 1.392 . S
C211 C212 1.361 . S
C211 C213 1.500 . S
C212 C207 1.390 . S
C212 C211 1.361 . S
C212 H230 0.931 . S
C213 C211 1.500 . S
C213 C214 1.371 . S
C213 C215 1.365 . S
C214 C213 1.371 . S
C214 C224 1.386 . S
C214 H232 0.931 . S
C215 C213 1.365 . S
C215 C216 1.409 . S
C215 H233 0.929 . S
C216 C215 1.409 . S
C216 C217 1.380 . S
C216 H234 0.930 . S
C217 C216 1.380 . S
C217 C224 1.357 . S
C218 C209 1.511 . S
C218 C219 1.341 . S
C218 C220 1.371 . S
C219 C218 1.341 . S
C219 C223 1.394 . S
C219 H235 0.930 . S
C220 C218 1.371 . S
C220 C221 1.392 . S
C220 H236 0.931 . S
C221 C220 1.392 . S
C221 C222 1.331 . S
C221 H239 0.932 . S
C222 C221 1.331 . S
C222 C223 1.336 . S
C223 C219 1.394 . S
C223 C222 1.336 . S
C223 H238 0.929 . S
C224 C214 1.386 . S
C224 C217 1.357 . S
C224 H237 0.928 . S
H225 C201 0.931 . S
H226 C203 0.930 . S
H227 C205 0.929 . S
H228 C206 0.931 . S
H229 C208 0.930 . S
H230 C212 0.931 . S
H231 C210 0.931 . S
H232 C214 0.931 . S
H233 C215 0.929 . S
H234 C216 0.930 . S
H235 C219 0.930 . S
H236 C220 0.931 . S
H237 C224 0.928 . S
H238 C223 0.929 . S
H239 C221 0.932 . S
C240 C241 1.386 . S
C240 C242 1.397 . S
C240 H264 0.931 . S
C241 C240 1.386 . S
C241 C245 1.397 . S
C242 C240 1.397 . S
C242 C243 1.384 . S
C242 H265 0.930 . S
C243 C242 1.384 . S
C243 C244 1.377 . S
C243 C246 1.481 . S
C244 C243 1.377 . S
C244 C245 1.389 . S
C244 H266 0.929 . S
C245 C241 1.397 . S
C245 C244 1.389 . S
C245 H267 0.931 . S
C246 C243 1.481 . S
C246 C247 1.387 . S
C246 C251 1.390 . S
C247 C246 1.387 . S
C247 C248 1.401 . S
C247 H268 0.930 . S
C248 C247 1.401 . S
C248 C249 1.376 . S
C248 C257 1.511 . S
C249 C248 1.376 . S
C249 C250 1.392 . S
C249 H270 0.931 . S
C250 C249 1.392 . S
C250 C251 1.361 . S
C250 C252 1.500 . S
C251 C246 1.390 . S
C251 C250 1.361 . S
C251 H269 0.931 . S
C252 C250 1.500 . S
C252 C253 1.371 . S
C252 C254 1.365 . S
C253 C252 1.371 . S
C253 C263 1.386 . S
C253 H271 0.931 . S
C254 C252 1.365 . S
C254 C255 1.409 . S
C254 H272 0.929 . S
C255 C254 1.409 . S
C255 C256 1.380 . S
C255 H273 0.930 . S
C256 C255 1.380 . S
C256 C263 1.357 . S
C257 C248 1.511 . S
C257 C258 1.341 . S
C257 C259 1.371 . S
C258 C257 1.341 . S
C258 C262 1.394 . S
C258 H274 0.930 . S
C259 C257 1.371 . S
C259 C260 1.392 . S
C259 H275 0.931 . S
C260 C259 1.392 . S
C260 C261 1.331 . S
C260 H278 0.932 . S
C261 C260 1.331 . S
C261 C262 1.336 . S
C262 C258 1.394 . S
C262 C261 1.336 . S
C262 H277 0.929 . S
C263 C253 1.386 . S
C263 C256 1.357 . S
C263 H276 0.928 . S
H264 C240 0.931 . S
H265 C242 0.930 . S
H266 C244 0.929 . S
H267 C245 0.931 . S
H268 C247 0.930 . S
H269 C251 0.931 . S
H270 C249 0.931 . S
H271 C253 0.931 . S
H272 C254 0.929 . S
H273 C255 0.930 . S
H274 C258 0.930 . S
H275 C259 0.931 . S
H276 C263 0.928 . S
H277 C262 0.929 . S
H278 C260 0.932 . S
C279 C280 1.386 . S
C279 C281 1.397 . S
C279 H303 0.931 . S
C280 C279 1.386 . S
C280 C284 1.383 1_556 S
C281 C279 1.397 . S
C281 C282 1.384 . S
C281 H304 0.930 . S
C282 C281 1.384 . S
C282 C283 1.377 . S
C282 C285 1.481 . S
C283 C282 1.377 . S
C283 C284 1.384 1_556 S
C283 H305 0.929 1_556 S
C284 C280 1.383 1_554 S
C284 C283 1.384 1_554 S
C284 H306 0.950 . S
C285 C282 1.481 . S
C285 C286 1.387 . S
C285 C290 1.390 . S
C286 C285 1.387 . S
C286 C287 1.401 . S
C286 H307 0.930 . S
C287 C286 1.401 . S
C287 C288 1.376 . S
C287 C296 1.511 . S
C288 C287 1.376 . S
C288 C289 1.392 . S
C288 H309 0.931 . S
C289 C288 1.392 . S
C289 C290 1.361 . S
C289 C291 1.500 . S
C290 C285 1.390 . S
C290 C289 1.361 . S
C290 H308 0.931 . S
C291 C289 1.500 . S
C291 C292 1.371 . S
C291 C293 1.365 . S
C292 C291 1.371 . S
C292 C302 1.386 . S
C292 H310 0.931 . S
C293 C291 1.365 . S
C293 C294 1.409 1_556 S
C293 H311 0.929 1_556 S
C294 C293 1.409 1_554 S
C294 C295 1.380 1_554 S
C294 H312 0.930 . S
C295 C294 1.380 1_556 S
C295 C302 1.357 . S
C296 C287 1.511 . S
C296 C297 1.341 . S
C296 C298 1.371 . S
C297 C296 1.341 . S
C297 C301 1.394 . S
C297 H313 0.930 . S
C298 C296 1.371 . S
C298 C299 1.392 . S
C298 H314 0.931 . S
C299 C298 1.392 . S
C299 C300 1.331 . S
C299 H317 0.932 . S
C300 C299 1.331 . S
C300 C301 1.336 . S
C301 C297 1.394 . S
C301 C300 1.336 . S
C301 H316 0.929 . S
C302 C292 1.386 . S
C302 C295 1.357 . S
C302 H315 0.928 . S
H303 C279 0.931 . S
H304 C281 0.930 . S
H305 C283 0.929 1_554 S
H306 C284 0.950 . S
H307 C286 0.930 . S
H308 C290 0.931 . S
H309 C288 0.931 . S
H310 C292 0.931 . S
H311 C293 0.929 1_554 S
H312 C294 0.930 . S
H313 C297 0.930 . S
H314 C298 0.931 . S
H315 C302 0.928 . S
H316 C301 0.929 . S
H317 C299 0.932 . S
C318 C319 1.386 . S
C318 C320 1.397 . S
C318 H342 0.931 . S
C319 C318 1.386 . S
C319 C323 1.397 . S
C320 C318 1.397 . S
C320 C321 1.384 . S
C320 H343 0.930 . S
C321 C320 1.384 . S
C321 C322 1.377 . S
C321 C324 1.481 . S
C322 C321 1.377 . S
C322 C323 1.389 . S
C322 H344 0.929 . S
C323 C319 1.397 . S
C323 C322 1.389 . S
C323 H345 0.931 . S
C324 C321 1.481 . S
C324 C325 1.387 . S
C324 C329 1.390 . S
C325 C324 1.387 . S
C325 C326 1.401 . S
C325 H346 0.930 . S
C326 C325 1.401 . S
C326 C327 1.376 . S
C326 C335 1.511 . S
C327 C326 1.376 . S
C327 C328 1.392 . S
C327 H348 0.931 . S
C328 C327 1.392 . S
C328 C329 1.361 . S
C328 C330 1.500 . S
C329 C324 1.390 . S
C329 C328 1.361 . S
C329 H347 0.931 . S
C330 C328 1.500 . S
C330 C331 1.371 . S
C330 C332 1.365 . S
C331 C330 1.371 . S
C331 C341 1.386 . S
C331 H349 0.931 . S
C332 C330 1.365 . S
C332 C333 1.409 . S
C332 H350 0.929 . S
C333 C332 1.409 . S
C333 C334 1.380 . S
C333 H351 0.930 . S
C334 C333 1.380 . S
C334 C341 1.357 . S
C335 C326 1.511 . S
C335 C336 1.341 . S
C335 C337 1.371 . S
C336 C335 1.341 . S
C336 C340 1.394 . S
C336 H352 0.930 . S
C337 C335 1.371 . S
C337 C338 1.392 . S
C337 H353 0.931 . S
C338 C337 1.392 . S
C338 C339 1.331 . S
C338 H356 0.932 . S
C339 C338 1.331 . S
C339 C340 1.336 . S
C340 C336 1.394 . S
C340 C339 1.336 . S
C340 H355 0.929 . S
C341 C331 1.386 . S
C341 C334 1.357 . S
C341 H354 0.928 . S
H342 C318 0.931 . S
H343 C320 0.930 . S
H344 C322 0.929 . S
H345 C323 0.931 . S
H346 C325 0.930 . S
H347 C329 0.931 . S
H348 C327 0.931 . S
H349 C331 0.931 . S
H350 C332 0.929 . S
H351 C333 0.930 . S
H352 C336 0.930 . S
H353 C337 0.931 . S
H354 C341 0.928 . S
H355 C340 0.929 . S
H356 C338 0.932 . S
C357 C358 1.386 . S
C357 C359 1.397 . S
C357 H381 0.931 . S
C358 C357 1.386 . S
C358 C362 1.397 . S
C359 C357 1.397 . S
C359 C360 1.384 1_455 S
C359 H382 0.930 . S
C360 C359 1.384 1_655 S
C360 C361 1.377 1_655 S
C360 C363 1.481 . S
C361 C360 1.377 1_455 S
C361 C362 1.389 . S
C361 H383 0.929 1_455 S
C362 C358 1.397 . S
C362 C361 1.389 . S
C362 H384 0.931 . S
C363 C360 1.481 . S
C363 C364 1.387 . S
C363 C368 1.390 . S
C364 C363 1.387 . S
C364 C365 1.401 . S
C364 H385 0.930 . S
C365 C364 1.401 . S
C365 C366 1.376 . S
C365 C374 1.511 . S
C366 C365 1.376 . S
C366 C367 1.392 . S
C366 H387 0.931 . S
C367 C366 1.392 . S
C367 C368 1.361 . S
C367 C369 1.500 . S
C368 C363 1.390 . S
C368 C367 1.361 . S
C368 H386 0.931 . S
C369 C367 1.500 . S
C369 C370 1.371 . S
C369 C371 1.365 . S
C370 C369 1.371 . S
C370 C380 1.386 . S
C370 H388 0.931 . S
C371 C369 1.365 . S
C371 C372 1.409 . S
C371 H389 0.929 . S
C372 C371 1.409 . S
C372 C373 1.380 . S
C372 H390 0.930 . S
C373 C372 1.380 . S
C373 C380 1.357 . S
C374 C365 1.511 . S
C374 C375 1.341 . S
C374 C376 1.371 . S
C375 C374 1.341 . S
C375 C379 1.394 . S
C375 H391 0.930 . S
C376 C374 1.371 . S
C376 C377 1.392 . S
C376 H392 0.931 . S
C377 C376 1.392 . S
C377 C378 1.331 . S
C377 H395 0.932 . S
C378 C377 1.331 . S
C378 C379 1.336 . S
C379 C375 1.394 . S
C379 C378 1.336 . S
C379 H394 0.929 . S
C380 C370 1.386 . S
C380 C373 1.357 . S
C380 H393 0.928 . S
H381 C357 0.931 . S
H382 C359 0.930 . S
H383 C361 0.929 1_655 S
H384 C362 0.931 . S
H385 C364 0.930 . S
H386 C368 0.931 . S
H387 C366 0.931 . S
H388 C370 0.931 . S
H389 C371 0.929 . S
H390 C372 0.930 . S
H391 C375 0.930 . S
H392 C376 0.931 . S
H393 C380 0.928 . S
H394 C379 0.929 . S
H395 C377 0.932 . S
C396 C397 1.363 . S
C396 C402 1.379 . S
C396 N404 1.356 . S
C397 C396 1.363 . S
C397 C403 1.363 . S
C398 C399 1.363 . S
C398 C403 1.379 . S
C398 N405 1.356 . S
C399 C398 1.363 . S
C399 C402 1.363 . S
N400 C402 1.356 . S
N400 H412 0.984 1_565 S
N400 H413 0.985 1_565 S
N401 C403 1.356 . S
N401 H406 0.984 . S
N401 H407 0.985 . S
C402 C396 1.379 . S
C402 C399 1.363 . S
C402 N400 1.356 . S
C403 C397 1.363 . S
C403 C398 1.379 . S
C403 N401 1.356 . S
N404 C396 1.356 . S
N404 H410 0.984 . S
N404 H411 0.984 . S
N405 C398 1.356 . S
N405 H408 0.984 . S
N405 H409 0.985 . S
H406 N401 0.984 . S
H407 N401 0.985 . S
H408 N405 0.984 . S
H409 N405 0.985 . S
H410 N404 0.984 . S
H411 N404 0.984 . S
H412 N400 0.984 1_545 S
H413 N400 0.985 1_545 S
C414 C415 1.363 . S
C414 C420 1.379 . S
C414 N422 1.356 . S
C415 C414 1.363 . S
C415 C421 1.363 . S
C416 C417 1.363 . S
C416 C421 1.379 . S
C416 N423 1.356 . S
C417 C416 1.363 . S
C417 C420 1.363 . S
N418 C420 1.356 . S
N418 H430 0.984 . S
N418 H431 0.985 . S
N419 C421 1.356 . S
N419 H424 0.984 . S
N419 H425 0.985 . S
C420 C414 1.379 . S
C420 C417 1.363 . S
C420 N418 1.356 . S
C421 C415 1.363 . S
C421 C416 1.379 . S
C421 N419 1.356 . S
N422 C414 1.356 . S
N422 H428 0.984 . S
N422 H429 0.984 . S
N423 C416 1.356 . S
N423 H426 0.984 . S
N423 H427 0.985 . S
H424 N419 0.984 . S
H425 N419 0.985 . S
H426 N423 0.984 . S
H427 N423 0.985 . S
H428 N422 0.984 . S
H429 N422 0.984 . S
H430 N418 0.984 . S
H431 N418 0.985 . S
C432 C433 1.363 . S
C432 C438 1.379 . S
C432 N440 1.356 . S
C433 C432 1.363 . S
C433 C439 1.363 . S
C434 C435 1.363 . S
C434 C439 1.379 . S
C434 N441 1.356 . S
C435 C434 1.363 . S
C435 C438 1.363 . S
N436 C438 1.356 1_565 S
N436 H448 0.984 . S
N436 H449 0.985 . S
N437 C439 1.356 1_556 S
N437 H442 0.984 . S
N437 H443 0.985 . S
C438 C432 1.379 . S
C438 C435 1.363 . S
C438 N436 1.356 1_545 S
C439 C433 1.363 . S
C439 C434 1.379 . S
C439 N437 1.356 1_554 S
N440 C432 1.356 . S
N440 H446 0.984 . S
N440 H447 0.984 . S
N441 C434 1.356 . S
N441 H444 0.984 . S
N441 H445 0.985 1_554 S
H442 N437 0.984 . S
H443 N437 0.985 . S
H444 N441 0.984 . S
H445 N441 0.985 1_556 S
H446 N440 0.984 . S
H447 N440 0.984 . S
H448 N436 0.984 . S
H449 N436 0.985 . S
C450 C451 1.363 . S
C450 C456 1.379 . S
C450 N458 1.356 . S
C451 C450 1.363 . S
C451 C457 1.363 . S
C452 C453 1.363 . S
C452 C457 1.379 . S
C452 N459 1.356 . S
C453 C452 1.363 . S
C453 C456 1.363 . S
N454 C456 1.356 . S
N454 H466 0.984 . S
N454 H467 0.985 . S
N455 C457 1.356 . S
N455 H460 0.984 . S
N455 H461 0.985 . S
C456 C450 1.379 . S
C456 C453 1.363 . S
C456 N454 1.356 . S
C457 C451 1.363 . S
C457 C452 1.379 . S
C457 N455 1.356 . S
N458 C450 1.356 . S
N458 H464 0.984 . S
N458 H465 0.984 . S
N459 C452 1.356 . S
N459 H462 0.984 . S
N459 H463 0.985 . S
H460 N455 0.984 . S
H461 N455 0.985 . S
H462 N459 0.984 . S
H463 N459 0.985 . S
H464 N458 0.984 . S
H465 N458 0.984 . S
H466 N454 0.984 . S
H467 N454 0.985 . S
C468 C469 1.363 . S
C468 C474 1.379 . S
C468 N476 1.356 . S
C469 C468 1.363 . S
C469 C475 1.363 . S
C470 C471 1.363 . S
C470 C475 1.379 . S
C470 N477 1.356 . S
C471 C470 1.363 . S
C471 C474 1.363 . S
N472 C474 1.356 . S
N472 H484 0.984 . S
N472 H485 0.985 . S
N473 C475 1.356 . S
N473 H478 0.984 . S
N473 H479 0.985 . S
C474 C468 1.379 . S
C474 C471 1.363 . S
C474 N472 1.356 . S
C475 C469 1.363 . S
C475 C470 1.379 . S
C475 N473 1.356 . S
N476 C468 1.356 . S
N476 H482 0.984 . S
N476 H483 0.984 . S
N477 C470 1.356 . S
N477 H480 0.984 . S
N477 H481 0.985 . S
H478 N473 0.984 . S
H479 N473 0.985 . S
H480 N477 0.984 . S
H481 N477 0.985 . S
H482 N476 0.984 . S
H483 N476 0.984 . S
H484 N472 0.984 . S
H485 N472 0.985 . S
C486 C487 1.363 . S
C486 C492 1.393 . S
C486 N494 1.356 . S
C487 C486 1.363 . S
C487 C493 1.363 1_556 S
C488 C489 1.363 1_654 S
C488 C493 1.379 . S
C488 N495 1.356 . S
C489 C488 1.363 1_456 S
C489 C492 1.360 1_455 S
N490 C492 1.343 1_455 S
N490 H502 0.984 . S
N490 H503 0.985 . S
N491 C493 1.356 . S
N491 H496 0.984 . S
N491 H497 0.985 . S
C492 C486 1.393 . S
C492 C489 1.360 1_655 S
C492 N490 1.343 1_655 S
C493 C487 1.363 1_554 S
C493 C488 1.379 . S
C493 N491 1.356 . S
N494 C486 1.356 . S
N494 H500 0.984 . S
N494 H501 0.984 . S
N495 C488 1.356 . S
N495 H498 0.984 1_655 S
N495 H499 0.985 . S
H496 N491 0.984 . S
H497 N491 0.985 . S
H498 N495 0.984 1_455 S
H499 N495 0.985 . S
H500 N494 0.984 . S
H501 N494 0.984 . S
H502 N490 0.984 . S
H503 N490 0.985 . S
C504 C505 1.363 . S
C504 C510 1.379 . S
C504 N512 1.356 . S
C505 C504 1.363 . S
C505 C511 1.363 . S
C506 C507 1.363 . S
C506 C511 1.379 . S
C506 N513 1.356 . S
C507 C506 1.363 . S
C507 C510 1.363 . S
N508 C510 1.356 . S
N508 H520 0.984 . S
N508 H521 0.985 . S
N509 C511 1.356 . S
N509 H514 0.984 . S
N509 H515 0.985 . S
C510 C504 1.379 . S
C510 C507 1.363 . S
C510 N508 1.356 . S
C511 C505 1.363 . S
C511 C506 1.379 . S
C511 N509 1.356 . S
N512 C504 1.356 . S
N512 H518 0.984 . S
N512 H519 0.984 . S
N513 C506 1.356 . S
N513 H516 0.984 . S
N513 H517 0.985 . S
H514 N509 0.984 . S
H515 N509 0.985 . S
H516 N513 0.984 . S
H517 N513 0.985 . S
H518 N512 0.984 . S
H519 N512 0.984 . S
H520 N508 0.984 . S
H521 N508 0.985 . S
C522 C523 1.363 . S
C522 C528 1.379 . S
C522 N530 1.356 . S
C523 C522 1.363 . S
C523 C529 1.363 . S
C524 C525 1.363 . S
C524 C529 1.379 . S
C524 N531 1.356 . S
C525 C524 1.363 . S
C525 C528 1.363 . S
N526 C528 1.356 . S
N526 H538 0.984 . S
N526 H539 0.985 . S
N527 C529 1.356 . S
N527 H532 0.984 . S
N527 H533 0.985 . S
C528 C522 1.379 . S
C528 C525 1.363 . S
C528 N526 1.356 . S
C529 C523 1.363 . S
C529 C524 1.379 . S
C529 N527 1.356 . S
N530 C522 1.356 . S
N530 H536 0.984 . S
N530 H537 0.984 . S
N531 C524 1.356 . S
N531 H534 0.984 . S
N531 H535 0.985 . S
H532 N527 0.984 . S
H533 N527 0.985 . S
H534 N531 0.984 . S
H535 N531 0.985 . S
H536 N530 0.984 . S
H537 N530 0.984 . S
H538 N526 0.984 . S
H539 N526 0.985 . S
C540 C541 1.363 . S
C540 C546 1.379 . S
C540 N548 1.356 . S
C541 C540 1.363 . S
C541 C547 1.363 . S
C542 C543 1.363 . S
C542 C547 1.379 . S
C542 N549 1.356 1_545 S
C543 C542 1.363 . S
C543 C546 1.363 . S
N544 C546 1.356 . S
N544 H556 0.984 . S
N544 H557 0.985 . S
N545 C547 1.356 . S
N545 H550 0.984 . S
N545 H551 0.985 . S
C546 C540 1.379 . S
C546 C543 1.363 . S
C546 N544 1.356 . S
C547 C541 1.363 . S
C547 C542 1.379 . S
C547 N545 1.356 . S
N548 C540 1.356 . S
N548 H554 0.984 . S
N548 H555 0.984 . S
N549 C542 1.356 1_565 S
N549 H552 0.984 . S
N549 H553 0.985 . S
H550 N545 0.984 . S
H551 N545 0.985 . S
H552 N549 0.984 . S
H553 N549 0.985 . S
H554 N548 0.984 . S
H555 N548 0.984 . S
H556 N544 0.984 . S
H557 N544 0.985 . S
C558 C559 1.363 . S
C558 C564 1.379 . S
C558 N566 1.356 . S
C559 C558 1.363 . S
C559 C565 1.363 . S
C560 C561 1.363 . S
C560 C565 1.379 . S
C560 N567 1.356 . S
C561 C560 1.363 . S
C561 C564 1.363 . S
N562 C564 1.356 . S
N562 H574 0.984 . S
N562 H575 0.985 . S
N563 C565 1.356 . S
N563 H568 0.984 . S
N563 H569 0.985 . S
C564 C558 1.379 . S
C564 C561 1.363 . S
C564 N562 1.356 . S
C565 C559 1.363 . S
C565 C560 1.379 . S
C565 N563 1.356 . S
N566 C558 1.356 . S
N566 H572 0.984 . S
N566 H573 0.984 . S
N567 C560 1.356 . S
N567 H570 0.984 . S
N567 H571 0.985 . S
H568 N563 0.984 . S
H569 N563 0.985 . S
H570 N567 0.984 . S
H571 N567 0.985 . S
H572 N566 0.984 . S
H573 N566 0.984 . S
H574 N562 0.984 . S
H575 N562 0.985 . S
C576 C577 1.366 . S
C576 C582 1.379 1_565 S
C576 N584 1.356 . S
C577 C576 1.366 . S
C577 C583 1.359 1_554 S
C578 C579 1.363 1_565 S
C578 C583 1.379 . S
C578 N585 1.356 1_565 S
C579 C578 1.363 1_545 S
C579 C582 1.363 1_556 S
N580 C582 1.356 . S
N580 H592 0.984 . S
N580 H593 0.985 . S
N581 C583 1.356 . S
N581 H586 0.984 . S
N581 H587 0.985 . S
C582 C576 1.379 1_545 S
C582 C579 1.363 1_554 S
C582 N580 1.356 . S
C583 C577 1.359 1_556 S
C583 C578 1.379 . S
C583 N581 1.356 . S
N584 C576 1.356 . S
N584 H590 0.984 . S
N584 H591 0.984 . S
N585 C578 1.356 1_545 S
N585 H588 0.984 . S
N585 H589 0.991 . S
H586 N581 0.984 . S
H587 N581 0.985 . S
H588 N585 0.984 . S
H589 N585 0.991 . S
H590 N584 0.984 . S
H591 N584 0.984 . S
H592 N580 0.984 . S
H593 N580 0.985 . S
C594 C595 1.363 . S
C594 C600 1.379 . S
C594 N602 1.356 . S
C595 C594 1.363 . S
C595 C601 1.363 . S
C596 C597 1.363 . S
C596 C601 1.379 . S
C596 N603 1.356 . S
C597 C596 1.363 . S
C597 C600 1.363 . S
N598 C600 1.356 . S
N598 H610 0.984 . S
N598 H611 0.985 . S
N599 C601 1.356 . S
N599 H604 0.984 . S
N599 H605 0.985 . S
C600 C594 1.379 . S
C600 C597 1.363 . S
C600 N598 1.356 . S
C601 C595 1.363 . S
C601 C596 1.379 . S
C601 N599 1.356 . S
N602 C594 1.356 . S
N602 H608 0.984 . S
N602 H609 0.984 . S
N603 C596 1.356 . S
N603 H606 0.984 . S
N603 H607 0.985 . S
H604 N599 0.984 . S
H605 N599 0.985 . S
H606 N603 0.984 . S
H607 N603 0.985 . S
H608 N602 0.984 . S
H609 N602 0.984 . S
H610 N598 0.984 . S
H611 N598 0.985 . S
C612 C613 1.363 . S
C612 C618 1.379 . S
C612 N620 1.356 . S
C613 C612 1.363 . S
C613 C619 1.363 . S
C614 C615 1.363 . S
C614 C619 1.379 . S
C614 N621 1.356 . S
C615 C614 1.363 . S
C615 C618 1.363 . S
N616 C618 1.356 . S
N616 H628 0.984 . S
N616 H629 0.985 . S
N617 C619 1.356 . S
N617 H622 0.984 . S
N617 H623 0.985 . S
C618 C612 1.379 . S
C618 C615 1.363 . S
C618 N616 1.356 . S
C619 C613 1.363 . S
C619 C614 1.379 . S
C619 N617 1.356 . S
N620 C612 1.356 . S
N620 H626 0.984 . S
N620 H627 0.984 . S
N621 C614 1.356 . S
N621 H624 0.984 . S
N621 H625 0.985 . S
H622 N617 0.984 . S
H623 N617 0.985 . S
H624 N621 0.984 . S
H625 N621 0.985 . S
H626 N620 0.984 . S
H627 N620 0.984 . S
H628 N616 0.984 . S
H629 N616 0.985 . S
C630 C631 1.363 . S
C630 C636 1.379 1_455 S
C630 N638 1.356 . S
C631 C630 1.363 . S
C631 C637 1.363 . S
C632 C633 1.363 . S
C632 C637 1.379 1_655 S
C632 N639 1.356 . S
C633 C632 1.363 . S
C633 C636 1.363 . S
N634 C636 1.356 . S
N634 H646 0.984 . S
N634 H647 0.985 . S
N635 C637 1.356 . S
N635 H640 0.984 . S
N635 H641 0.985 . S
C636 C630 1.379 1_655 S
C636 C633 1.363 . S
C636 N634 1.356 . S
C637 C631 1.363 . S
C637 C632 1.379 1_455 S
C637 N635 1.356 . S
N638 C630 1.356 . S
N638 H644 0.984 . S
N638 H645 0.984 . S
N639 C632 1.356 . S
N639 H642 0.984 . S
N639 H643 0.985 . S
H640 N635 0.984 . S
H641 N635 0.985 . S
H642 N639 0.984 . S
H643 N639 0.985 . S
H644 N638 0.984 . S
H645 N638 0.984 . S
H646 N634 0.984 . S
H647 N634 0.985 . S
C648 C649 1.363 . S
C648 C654 1.379 . S
C648 N656 1.356 . S
C649 C648 1.363 . S
C649 C655 1.363 . S
C650 C651 1.363 . S
C650 C655 1.379 . S
C650 N657 1.356 . S
C651 C650 1.363 . S
C651 C654 1.363 . S
N652 C654 1.356 . S
N652 H664 0.984 . S
N652 H665 0.985 . S
N653 C655 1.356 . S
N653 H658 0.984 . S
N653 H659 0.985 . S
C654 C648 1.379 . S
C654 C651 1.363 . S
C654 N652 1.356 . S
C655 C649 1.363 . S
C655 C650 1.379 . S
C655 N653 1.356 . S
N656 C648 1.356 . S
N656 H662 0.984 . S
N656 H663 0.984 . S
N657 C650 1.356 . S
N657 H660 0.984 . S
N657 H661 0.985 . S
H658 N653 0.984 . S
H659 N653 0.985 . S
H660 N657 0.984 . S
H661 N657 0.985 . S
H662 N656 0.984 . S
H663 N656 0.984 . S
H664 N652 0.984 . S
H665 N652 0.985 . S
C666 C667 1.363 . S
C666 C672 1.379 . S
C666 N674 1.356 . S
C667 C666 1.363 . S
C667 C673 1.363 . S
C668 C669 1.363 . S
C668 C673 1.379 . S
C668 N675 1.356 . S
C669 C668 1.363 . S
C669 C672 1.363 . S
N670 C672 1.356 . S
N670 H682 0.984 . S
N670 H683 0.985 . S
N671 C673 1.356 . S
N671 H676 0.984 . S
N671 H677 0.985 . S
C672 C666 1.379 . S
C672 C669 1.363 . S
C672 N670 1.356 . S
C673 C667 1.363 . S
C673 C668 1.379 . S
C673 N671 1.356 . S
N674 C666 1.356 . S
N674 H680 0.984 . S
N674 H681 0.984 . S
N675 C668 1.356 . S
N675 H678 0.984 1_655 S
N675 H679 0.981 1_655 S
H676 N671 0.984 . S
H677 N671 0.985 . S
H678 N675 0.984 1_455 S
H679 N675 0.981 1_455 S
H680 N674 0.984 . S
H681 N674 0.984 . S
H682 N670 0.984 . S
H683 N670 0.985 . S
C684 C685 1.363 . S
C684 C690 1.379 . S
C684 N692 1.356 . S
C685 C684 1.363 . S
C685 C691 1.363 . S
C686 C687 1.363 . S
C686 C691 1.379 . S
C686 N693 1.356 . S
C687 C686 1.363 . S
C687 C690 1.363 . S
N688 C690 1.356 . S
N688 H700 0.984 . S
N688 H701 0.985 . S
N689 C691 1.356 . S
N689 H694 0.984 . S
N689 H695 0.985 . S
C690 C684 1.379 . S
C690 C687 1.363 . S
C690 N688 1.356 . S
C691 C685 1.363 . S
C691 C686 1.379 . S
C691 N689 1.356 . S
N692 C684 1.356 . S
N692 H698 0.984 . S
N692 H699 0.984 . S
N693 C686 1.356 . S
N693 H696 0.984 . S
N693 H697 0.985 . S
H694 N689 0.984 . S
H695 N689 0.985 . S
H696 N693 0.984 . S
H697 N693 0.985 . S
H698 N692 0.984 . S
H699 N692 0.984 . S
H700 N688 0.984 . S
H701 N688 0.985 . S
C702 C703 1.363 . S
C702 C708 1.379 . S
C702 N710 1.356 . S
C703 C702 1.363 . S
C703 C709 1.363 . S
C704 C705 1.363 . S
C704 C709 1.379 . S
C704 N711 1.356 . S
C705 C704 1.363 . S
C705 C708 1.363 . S
N706 C708 1.356 . S
N706 H718 0.984 . S
N706 H719 0.985 . S
N707 C709 1.356 . S
N707 H712 0.984 . S
N707 H713 0.985 . S
C708 C702 1.379 . S
C708 C705 1.363 . S
C708 N706 1.356 . S
C709 C703 1.363 . S
C709 C704 1.379 . S
C709 N707 1.356 . S
N710 C702 1.356 . S
N710 H716 0.984 . S
N710 H717 0.984 . S
N711 C704 1.356 . S
N711 H714 0.984 . S
N711 H715 0.985 . S
H712 N707 0.984 . S
H713 N707 0.985 . S
H714 N711 0.984 . S
H715 N711 0.985 . S
H716 N710 0.984 . S
H717 N710 0.984 . S
H718 N706 0.984 . S
H719 N706 0.985 . S
C720 C721 1.363 . S
C720 C726 1.379 . S
C720 N728 1.356 . S
C721 C720 1.363 . S
C721 C727 1.363 . S
C722 C723 1.363 . S
C722 C727 1.379 . S
C722 N729 1.356 . S
C723 C722 1.363 . S
C723 C726 1.363 . S
N724 C726 1.356 . S
N724 H736 0.984 . S
N724 H737 0.985 . S
N725 C727 1.356 . S
N725 H730 0.984 . S
N725 H731 0.985 . S
C726 C720 1.379 . S
C726 C723 1.363 . S
C726 N724 1.356 . S
C727 C721 1.363 . S
C727 C722 1.379 . S
C727 N725 1.356 . S
N728 C720 1.356 . S
N728 H734 0.984 1_554 S
N728 H735 0.984 . S
N729 C722 1.356 . S
N729 H732 0.984 . S
N729 H733 0.985 . S
H730 N725 0.984 . S
H731 N725 0.985 . S
H732 N729 0.984 . S
H733 N729 0.985 . S
H734 N728 0.984 1_556 S
H735 N728 0.984 . S
H736 N724 0.984 . S
H737 N724 0.985 . S
C738 C739 1.363 . S
C738 C744 1.379 . S
C738 N746 1.356 . S
C739 C738 1.363 . S
C739 C745 1.363 . S
C740 C741 1.363 . S
C740 C745 1.379 . S
C740 N747 1.356 . S
C741 C740 1.363 . S
C741 C744 1.363 . S
N742 C744 1.356 . S
N742 H754 0.984 . S
N742 H755 0.985 . S
N743 C745 1.356 . S
N743 H748 0.984 . S
N743 H749 0.985 . S
C744 C738 1.379 . S
C744 C741 1.363 . S
C744 N742 1.356 . S
C745 C739 1.363 . S
C745 C740 1.379 . S
C745 N743 1.356 . S
N746 C738 1.356 . S
N746 H752 0.984 . S
N746 H753 0.984 . S
N747 C740 1.356 . S
N747 H750 0.984 . S
N747 H751 0.985 . S
H748 N743 0.984 . S
H749 N743 0.985 . S
H750 N747 0.984 . S
H751 N747 0.985 . S
H752 N746 0.984 . S
H753 N746 0.984 . S
H754 N742 0.984 . S
H755 N742 0.985 . S
C756 C757 1.363 . S
C756 C762 1.379 . S
C756 N764 1.356 . S
C757 C756 1.363 . S
C757 C763 1.363 . S
C758 C759 1.363 . S
C758 C763 1.379 . S
C758 N765 1.356 . S
C759 C758 1.363 . S
C759 C762 1.363 . S
N760 C762 1.356 . S
N760 H772 0.984 . S
N760 H773 0.985 . S
N761 C763 1.356 . S
N761 H766 0.984 . S
N761 H767 0.985 . S
C762 C756 1.379 . S
C762 C759 1.363 . S
C762 N760 1.356 . S
C763 C757 1.363 . S
C763 C758 1.379 . S
C763 N761 1.356 . S
N764 C756 1.356 . S
N764 H770 0.984 . S
N764 H771 0.984 . S
N765 C758 1.356 . S
N765 H768 0.984 . S
N765 H769 0.985 . S
H766 N761 0.984 . S
H767 N761 0.985 . S
H768 N765 0.984 . S
H769 N765 0.985 . S
H770 N764 0.984 . S
H771 N764 0.984 . S
H772 N760 0.984 . S
H773 N760 0.985 . S
C774 C775 1.363 . S
C774 C780 1.379 . S
C774 N782 1.356 . S
C775 C774 1.363 . S
C775 C781 1.363 . S
C776 C777 1.363 . S
C776 C781 1.379 . S
C776 N783 1.356 . S
C777 C776 1.363 . S
C777 C780 1.363 . S
N778 C780 1.356 . S
N778 H790 0.984 . S
N778 H791 0.985 . S
N779 C781 1.356 . S
N779 H784 0.984 . S
N779 H785 0.985 . S
C780 C774 1.379 . S
C780 C777 1.363 . S
C780 N778 1.356 . S
C781 C775 1.363 . S
C781 C776 1.379 . S
C781 N779 1.356 . S
N782 C774 1.356 . S
N782 H788 0.984 . S
N782 H789 0.984 . S
N783 C776 1.356 . S
N783 H786 0.984 . S
N783 H787 0.985 . S
H784 N779 0.984 . S
H785 N779 0.985 . S
H786 N783 0.984 . S
H787 N783 0.985 . S
H788 N782 0.984 . S
H789 N782 0.984 . S
H790 N778 0.984 . S
H791 N778 0.985 . S
C792 C793 1.363 . S
C792 C798 1.379 . S
C792 N800 1.356 . S
C793 C792 1.363 . S
C793 C799 1.363 . S
C794 C795 1.363 . S
C794 C799 1.379 . S
C794 N801 1.356 . S
C795 C794 1.363 . S
C795 C798 1.363 . S
N796 C798 1.356 . S
N796 H808 0.984 . S
N796 H809 0.985 . S
N797 C799 1.356 . S
N797 H802 0.984 . S
N797 H803 0.985 . S
C798 C792 1.379 . S
C798 C795 1.363 . S
C798 N796 1.356 . S
C799 C793 1.363 . S
C799 C794 1.379 . S
C799 N797 1.356 . S
N800 C792 1.356 . S
N800 H806 0.984 . S
N800 H807 0.984 . S
N801 C794 1.356 . S
N801 H804 0.984 . S
N801 H805 0.985 . S
H802 N797 0.984 . S
H803 N797 0.985 . S
H804 N801 0.984 . S
H805 N801 0.985 . S
H806 N800 0.984 . S
H807 N800 0.984 . S
H808 N796 0.984 . S
H809 N796 0.985 . S
C810 C811 1.363 1_556 S
C810 C816 1.379 . S
C810 N818 1.356 . S
C811 C810 1.363 1_554 S
C811 C817 1.363 . S
C812 C813 1.363 1_554 S
C812 C817 1.379 . S
C812 N819 1.356 . S
C813 C812 1.363 1_556 S
C813 C816 1.363 . S
N814 C816 1.356 . S
N814 H826 0.984 . S
N814 H827 0.985 . S
N815 C817 1.356 . S
N815 H820 0.984 . S
N815 H821 0.985 . S
C816 C810 1.379 . S
C816 C813 1.363 . S
C816 N814 1.356 . S
C817 C811 1.363 . S
C817 C812 1.379 . S
C817 N815 1.356 . S
N818 C810 1.356 . S
N818 H824 0.984 . S
N818 H825 0.984 . S
N819 C812 1.356 . S
N819 H822 0.984 . S
N819 H823 0.985 . S
H820 N815 0.984 . S
H821 N815 0.985 . S
H822 N819 0.984 . S
H823 N819 0.985 . S
H824 N818 0.984 . S
H825 N818 0.984 . S
H826 N814 0.984 . S
H827 N814 0.985 . S
C397 C7 1.017 . S
C399 C100 1.092 . S
C415 C25 1.254 . S
C417 C139 1.281 . S
C433 C46 1.465 . S
C435 C178 1.350 1_545 S
C453 C202 1.198 . S
C451 C70 1.292 . S
C471 C241 1.085 . S
C469 C28 1.008 . S
C487 C49 1.299 . S
C489 C280 1.202 . S
C505 C67 1.454 . S
C507 C334 1.343 . S
C523 C4 1.247 . S
C525 C358 1.281 . S
C541 C58 1.713 . S
C543 C373 1.863 1_545 S
C561 C256 1.705 . S
C559 C66 1.632 . S
C579 C295 2.013 . S
C577 C3 2.083 1_554 S
C595 C37 1.836 . S
C597 C319 1.868 . S
C615 C124 1.864 . S
C613 C79 1.713 . S
C631 C16 1.845 . S
C633 C163 1.873 . S
C651 C217 2.003 . S
C649 C24 2.073 . S
C669 C85 1.711 . S
C667 C45 1.634 . S
C687 C339 1.638 . S
C685 C19 1.329 . S
C705 C378 1.437 . S
C703 C41 1.391 . S
C721 C62 1.238 . S
C723 C261 1.267 . S
C741 C300 1.475 . S
C739 C82 1.225 . S
C759 C183 1.646 . S
C757 C40 1.335 . S
C775 C61 1.216 . S
C777 C222 1.464 . S
C795 C105 1.263 . S
C793 C83 1.249 . S
C813 C144 1.430 . S
C811 C20 1.384 1_554 S
