# Generated by pormake.
# Topology zzz, (3,6)-cn, num edge types: 1
# Building blocks:
#     Node 0, Type 0, BuildingBlock: QEWDON_clean_linker_0, # of connection points: 3
#     Node 1, Type 0, BuildingBlock: QEWDON_clean_linker_0, # of connection points: 3
#     Node 2, Type 0, BuildingBlock: QEWDON_clean_linker_0, # of connection points: 3
#     Node 3, Type 0, BuildingBlock: QEWDON_clean_linker_0, # of connection points: 3
#     Node 4, Type 0, BuildingBlock: QEWDON_clean_linker_0, # of connection points: 3
#     Node 5, Type 0, BuildingBlock: QEWDON_clean_linker_0, # of connection points: 3
#     Node 6, Type 0, BuildingBlock: QEWDON_clean_linker_0, # of connection points: 3
#     Node 7, Type 0, BuildingBlock: QEWDON_clean_linker_0, # of connection points: 3
#     Node 8, Type 1, BuildingBlock: PAMTUU_clean_sbu_0, # of connection points: 6
#     Node 9, Type 1, BuildingBlock: PAMTUU_clean_sbu_0, # of connection points: 6
#     Node 10, Type 1, BuildingBlock: PAMTUU_clean_sbu_0, # of connection points: 6
#     Node 11, Type 1, BuildingBlock: PAMTUU_clean_sbu_0, # of connection points: 6
#     Edge 12, Type (0, 1), BuildingBlock: OJICUG_clean_linker_0, # of connection points: 2
#     Edge 13, Type (0, 1), BuildingBlock: OJICUG_clean_linker_0, # of connection points: 2
#     Edge 14, Type (0, 1), BuildingBlock: OJICUG_clean_linker_0, # of connection points: 2
#     Edge 15, Type (0, 1), BuildingBlock: OJICUG_clean_linker_0, # of connection points: 2
#     Edge 16, Type (0, 1), BuildingBlock: OJICUG_clean_linker_0, # of connection points: 2
#     Edge 17, Type (0, 1), BuildingBlock: OJICUG_clean_linker_0, # of connection points: 2
#     Edge 18, Type (0, 1), BuildingBlock: OJICUG_clean_linker_0, # of connection points: 2
#     Edge 19, Type (0, 1), BuildingBlock: OJICUG_clean_linker_0, # of connection points: 2
#     Edge 20, Type (0, 1), BuildingBlock: OJICUG_clean_linker_0, # of connection points: 2
#     Edge 21, Type (0, 1), BuildingBlock: OJICUG_clean_linker_0, # of connection points: 2
#     Edge 22, Type (0, 1), BuildingBlock: OJICUG_clean_linker_0, # of connection points: 2
#     Edge 23, Type (0, 1), BuildingBlock: OJICUG_clean_linker_0, # of connection points: 2
#     Edge 24, Type (0, 1), BuildingBlock: OJICUG_clean_linker_0, # of connection points: 2
#     Edge 25, Type (0, 1), BuildingBlock: OJICUG_clean_linker_0, # of connection points: 2
#     Edge 26, Type (0, 1), BuildingBlock: OJICUG_clean_linker_0, # of connection points: 2
#     Edge 27, Type (0, 1), BuildingBlock: OJICUG_clean_linker_0, # of connection points: 2
#     Edge 28, Type (0, 1), BuildingBlock: OJICUG_clean_linker_0, # of connection points: 2
#     Edge 29, Type (0, 1), BuildingBlock: OJICUG_clean_linker_0, # of connection points: 2
#     Edge 30, Type (0, 1), BuildingBlock: OJICUG_clean_linker_0, # of connection points: 2
#     Edge 31, Type (0, 1), BuildingBlock: OJICUG_clean_linker_0, # of connection points: 2
#     Edge 32, Type (0, 1), BuildingBlock: OJICUG_clean_linker_0, # of connection points: 2
#     Edge 33, Type (0, 1), BuildingBlock: OJICUG_clean_linker_0, # of connection points: 2
#     Edge 34, Type (0, 1), BuildingBlock: OJICUG_clean_linker_0, # of connection points: 2
#     Edge 35, Type (0, 1), BuildingBlock: OJICUG_clean_linker_0, # of connection points: 2
# Relax obj value: 0.183
# Max RMSD: 0.228
# Mean RMSD: 0.080
data_MOF--net-zzz--node1-PAMTUU_clean_sbu_0--node2-QEWDON_clean_linker_0--edge1-OJICUG_clean_linker_0
_symmetry_space_group_name_H-M    P1
_symmetry_Int_Tables_number       1
_symmetry_cell_setting            triclinic
loop_
_symmetry_equiv_pos_as_xyz
'x, y, z'
_cell_length_a     39.05357
_cell_length_b     43.098292
_cell_length_c     11.733504
_cell_angle_alpha  103.22515
_cell_angle_beta   90.373701
_cell_angle_gamma 90.391864
loop_
_atom_site_label
_atom_site_type_symbol
_atom_site_fract_x
_atom_site_fract_y
_atom_site_fract_z
_atom_type_partial_charge
H0 H 0.77423 0.46962 0.36423 0.0
C1 C 0.79291 0.47876 0.43189 0.0
C2 C 0.8214 0.45959 0.43901 0.0
C3 C 0.78951 0.50926 0.50751 0.0
H4 H 0.86845 0.45537 0.53071 0.0
C5 C 0.84598 0.46983 0.52726 0.0
C6 C 0.84442 0.49987 0.60299 0.0
C7 C 0.81663 0.51988 0.59111 0.0
C8 C 0.75854 0.52996 0.49664 0.0
H9 H 0.81688 0.54358 0.6468 0.0
C10 C 0.73536 0.52339 0.39821 0.0
C11 C 0.70746 0.5438 0.39011 0.0
C12 C 0.75147 0.55687 0.58715 0.0
H13 H 0.76628 0.56254 0.66726 0.0
C14 C 0.72467 0.57733 0.5776 0.0
H15 H 0.73888 0.50318 0.32584 0.0
C16 C 0.70334 0.57124 0.47953 0.0
H17 H 0.68309 0.58786 0.47476 0.0
H18 H 0.72027 0.59812 0.64746 0.0
H19 H 0.07344 0.75664 0.394 0.0
C20 C 0.05988 0.77621 0.44937 0.0
C21 C 0.06419 0.80706 0.43142 0.0
C22 C 1.03925 0.77112 0.54235 0.0
H23 H 0.05136 0.85643 0.49021 0.0
C24 C 1.04734 0.83252 0.50336 0.0
C25 C 1.02774 0.82828 0.59739 0.0
C26 C 1.02368 0.79762 0.61737 0.0
C27 C 1.03522 0.73852 0.56426 0.0
H28 H 1.00855 0.79461 0.69119 0.0
C29 C 1.03223 0.71157 0.47035 0.0
C30 C 1.02924 0.68062 0.49053 0.0
C31 C 1.03473 0.73407 0.67938 0.0
H32 H 1.03767 0.75407 0.75383 0.0
C33 C 1.03124 0.70358 0.70001 0.0
H34 H 1.0318 0.71471 0.38135 0.0
C35 C 1.02859 0.67702 0.60657 0.0
H36 H 1.0269 0.6536 0.62534 0.0
H37 H 1.03111 0.70048 0.78899 0.0
H38 H 0.81956 0.07102 0.46179 0.0
C39 C 0.80012 0.06131 0.50945 0.0
C40 C 0.76812 0.076 0.52409 0.0
C41 C 0.80706 0.03472 0.55657 0.0
H42 H 0.71723 0.07508 0.59299 0.0
C43 C 0.74241 0.06429 0.5862 0.0
C44 C 0.74743 0.03752 0.63206 0.0
C45 C 0.78004 0.02265 0.61752 0.0
C46 C 0.84291 0.02113 0.54618 0.0
H47 H 0.78402 1.00161 0.65144 0.0
C48 C 0.86499 0.02205 0.44966 0.0
C49 C 0.89959 1.01148 0.44745 0.0
C50 C 0.85631 1.00924 0.63894 0.0
H51 H 0.84107 1.00882 0.7153 0.0
C52 C 0.89009 0.99897 0.63764 0.0
H53 H 0.85525 0.03049 0.37579 0.0
C54 C 0.91145 1.00021 0.54406 0.0
H55 H 0.93771 0.99277 0.54912 0.0
H56 H 0.90004 0.99042 0.71109 0.0
H57 H 0.53906 0.74456 0.03106 0.0
C58 C 0.54579 0.74248 0.11872 0.0
C59 C 0.53588 0.71483 0.15694 0.0
C60 C 0.56718 0.76596 0.19002 0.0
H61 H 0.54035 0.69018 0.29632 0.0
C62 C 0.54628 0.71192 0.26831 0.0
C63 C 0.56991 0.73298 0.33473 0.0
C64 C 0.58013 0.76019 0.29639 0.0
C65 C 0.58302 0.79215 0.14267 0.0
H66 H 0.59958 0.77585 0.34565 0.0
C67 C 0.56443 0.81845 0.11986 0.0
C68 C 0.5818 0.84293 0.07901 0.0
C69 C 0.61848 0.79079 0.123 0.0
H70 H 0.63329 0.77102 0.13918 0.0
C71 C 0.63535 0.81463 0.0823 0.0
H72 H 0.53708 0.81997 0.13451 0.0
C73 C 0.61726 0.84043 0.06063 0.0
H74 H 0.63107 0.85865 0.02906 0.0
H75 H 0.66268 0.81313 0.06757 0.0
H76 H 0.31179 0.46623 0.38135 0.0
C77 C 0.29258 0.47291 0.32467 0.0
C78 C 0.25863 0.46443 0.33939 0.0
C79 C 0.30109 0.4928 0.24922 0.0
H80 H 0.20714 0.46406 0.27183 0.0
C81 C 0.23354 0.47083 0.26185 0.0
C82 C 0.24033 0.49047 0.18471 0.0
C83 C 0.27446 0.50162 0.17834 0.0
C84 C 0.33747 0.50502 0.25137 0.0
H85 H 0.27974 0.51809 0.1234 0.0
C86 C 0.35853 0.50973 0.35437 0.0
C87 C 0.39383 0.51783 0.35296 0.0
C88 C 0.35215 0.5102 0.14851 0.0
H89 H 0.3374 0.50653 0.06803 0.0
C90 C 0.3865 0.51907 0.14671 0.0
H91 H 0.34741 0.5074 0.43612 0.0
C92 C 0.4071 0.52256 0.24662 0.0
H93 H 0.43375 0.52836 0.23853 0.0
H94 H 0.39754 0.52259 0.06615 0.0
H95 H 1.00076 0.27667 0.43528 0.0
C96 C 1.01503 0.2576 0.37992 0.0
C97 C 1.01088 0.22648 0.39412 0.0
C98 C 1.03673 0.26379 0.29159 0.0
H99 H 1.0256 0.17764 0.33551 0.0
C100 C 1.02904 0.20172 0.32349 0.0
C101 C 0.05062 0.20706 0.23565 0.0
C102 C 0.05412 0.23812 0.21809 0.0
C103 C 1.04024 0.29689 0.27502 0.0
H104 H 0.0706 0.24226 0.14905 0.0
C105 C 1.04266 0.32293 0.37257 0.0
C106 C 1.04391 0.35453 0.35838 0.0
C107 C 1.0399 0.30278 0.16211 0.0
H108 H 1.03762 0.28335 0.0854 0.0
C109 C 1.04142 0.33397 0.14712 0.0
H110 H 1.044 0.31848 0.45968 0.0
C111 C 1.04323 0.35968 0.24416 0.0
H112 H 1.0435 0.38358 0.22945 0.0
H113 H 1.04071 0.33828 0.05979 0.0
H114 H 0.27667 0.96244 0.3401 0.0
C115 C 0.29532 0.97219 0.28981 0.0
C116 C 0.32582 0.95544 0.26036 0.0
C117 C 0.28899 1.00083 0.25473 0.0
H118 H 0.37427 0.9541 0.17301 0.0
C119 C 0.35027 0.96669 0.19234 0.0
C120 C 0.34599 0.99526 0.15722 0.0
C121 C 0.31537 1.01269 0.19018 0.0
C122 C 0.25433 0.01685 0.28064 0.0
H123 H 0.3123 0.03515 0.16509 0.0
C124 C 0.23272 1.01279 0.37518 0.0
C125 C 0.19886 0.02534 0.38839 0.0
C126 C 0.24128 0.03461 0.20358 0.0
H127 H 0.25576 0.03775 0.12874 0.0
C128 C 0.20867 0.04777 0.21839 0.0
H129 H 0.24168 0.99955 0.43728 0.0
C130 C 0.18773 0.04317 0.30885 0.0
H131 H 0.16258 0.05384 0.31662 0.0
H132 H 0.19926 0.06132 0.15774 0.0
H133 H 0.57872 0.29152 0.72784 0.0
C134 C 0.56457 0.29473 0.65169 0.0
C135 C 0.55639 0.32573 0.64081 0.0
C136 C 0.556 0.26802 0.56015 0.0
H137 H 0.53263 0.35388 0.53465 0.0
C138 C 0.53879 0.32983 0.54215 0.0
C139 C 0.53141 0.30439 0.44867 0.0
C140 C 0.54019 0.27325 0.45668 0.0
C141 C 0.57065 0.23614 0.56119 0.0
H142 H 0.53606 0.25351 0.38193 0.0
C143 C 0.55511 0.21398 0.61881 0.0
C144 C 0.57131 0.18445 0.61813 0.0
C145 C 0.60195 0.22832 0.50409 0.0
H146 H 0.61429 0.24479 0.45969 0.0
C147 C 0.61801 0.19964 0.50532 0.0
H148 H 0.5309 0.21957 0.66294 0.0
C149 C 0.60299 0.17812 0.56263 0.0
H150 H 0.61627 0.15637 0.56475 0.0
H151 H 0.64238 0.19413 0.46226 0.0
Tb152 Tb 1.01948 0.02788 0.83503 0.0
Tb153 Tb 0.07862 1.00722 0.9999 0.0
C154 C 1.00224 0.01683 0.08503 0.0
C155 C 0.97255 0.07891 0.68074 0.0
C156 C 0.9693 0.1404 0.63689 0.0
C157 C 0.9393 0.12196 0.63477 0.0
C158 C 0.94092 0.09143 0.65721 0.0
C159 C 1.00244 0.09711 0.68203 0.0
C160 C 1.00087 0.12747 0.66028 0.0
C161 C 0.97427 0.04862 0.717 0.0
O162 O 0.05141 0.06991 0.89331 0.0
O163 O 0.07438 0.05882 0.06 0.0
O164 O 0.10696 0.02243 0.86173 0.0
O165 O 0.06453 0.01382 0.72213 0.0
O166 O 0.09847 1.00554 0.16512 0.0
O167 O 0.12464 0.98279 0.00731 0.0
O168 O 0.06078 0.96382 0.88121 0.0
O169 O 1.00771 0.97812 0.82652 0.0
O170 O 0.99846 0.03576 0.01261 0.0
O171 O 1.02948 0.99873 0.07811 0.0
C172 C 0.0666 0.07915 0.99557 0.0
O173 O 0.99841 0.02915 0.67045 0.0
O174 O 0.97305 0.05164 0.82952 0.0
C175 C 0.09729 0.01792 0.75158 0.0
C176 C 0.12013 0.95405 0.15207 0.0
C177 C 0.11591 0.89231 0.19515 0.0
C178 C 0.14763 0.90854 0.20289 0.0
C179 C 0.14972 0.93921 0.18113 0.0
C180 C 0.08863 0.93791 0.14406 0.0
C181 C 0.0865 0.90755 0.1657 0.0
C182 C 0.12181 0.98495 0.11931 0.0
C183 C 1.02989 0.95639 0.83868 0.0
H184 H 0.91466 0.13116 0.61613 0.0
H185 H 0.91752 0.07778 0.65753 0.0
H186 H 1.02708 0.08791 0.70065 0.0
H187 H 1.02463 0.14047 0.65894 0.0
H188 H 0.17078 0.89757 0.22563 0.0
H189 H 0.17435 0.95119 0.18617 0.0
H190 H 0.06551 0.94877 0.12043 0.0
H191 H 0.06145 0.89642 0.16221 0.0
Tb192 Tb 0.534 0.99761 0.75042 0.0
Tb193 Tb 0.55508 0.03699 0.01018 0.0
C194 C 0.54881 0.96182 0.95316 0.0
C195 C 0.49024 0.93916 0.51627 0.0
C196 C 0.42813 0.90689 0.44832 0.0
C197 C 0.4391 0.91298 0.56591 0.0
C198 C 0.4699 0.92929 0.59985 0.0
C199 C 0.48192 0.92915 0.3976 0.0
C200 C 0.45119 0.91294 0.36357 0.0
C201 C 0.51606 0.96428 0.55292 0.0
O202 O 0.48794 0.99568 0.85618 0.0
O203 O 0.49882 0.03828 0.00882 0.0
O204 O 0.56135 0.0714 0.90097 0.0
O205 O 0.52833 0.04779 0.74257 0.0
O206 O 0.58029 0.03969 0.17026 0.0
O207 O 0.55088 0.07934 0.1398 0.0
O208 O 0.60473 0.02385 0.92347 0.0
O209 O 0.58738 1.01119 0.73074 0.0
O210 O 0.55178 0.96196 0.84194 0.0
O211 O 0.54436 0.98855 0.032 0.0
C212 C 0.47751 0.01658 0.94969 0.0
O213 O 0.50362 0.99224 0.59941 0.0
O214 O 0.54194 0.9575 0.61291 0.0
C215 C 0.54492 0.07281 0.80432 0.0
C216 C 0.60219 0.09055 0.24712 0.0
C217 C 0.66671 0.11786 0.3157 0.0
C218 C 0.65534 0.1142 0.19952 0.0
C219 C 0.62325 0.10049 0.16527 0.0
C220 C 0.61229 0.0964 0.36437 0.0
C221 C 0.64438 0.10969 0.39822 0.0
C222 C 0.57271 0.06966 0.20835 0.0
C223 C 0.6119 0.01746 0.81056 0.0
H224 H 0.42235 0.90811 0.63305 0.0
H225 H 0.47633 0.93657 0.69215 0.0
H226 H 0.49756 0.93639 0.33206 0.0
H227 H 0.44391 0.90877 0.2721 0.0
H228 H 0.67219 0.11976 0.13384 0.0
H229 H 0.61585 0.09576 0.0737 0.0
H230 H 0.59649 0.08853 0.42814 0.0
H231 H 0.65274 0.11101 0.48744 0.0
Tb232 Tb 0.51962 0.51213 0.98034 0.0
Tb233 Tb 0.57348 0.52817 0.78761 0.0
C234 C 0.49328 0.51929 0.73254 0.0
C235 C 0.4906 0.45922 0.16014 0.0
C236 C 0.49888 0.39765 0.20714 0.0
C237 C 0.47234 0.4182 0.25965 0.0
C238 C 0.46798 0.44838 0.23501 0.0
C239 C 0.51757 0.43951 0.11083 0.0
C240 C 0.52118 0.40897 0.13124 0.0
C241 C 0.48562 0.49002 0.1269 0.0
O242 O 0.52914 0.46911 0.84988 0.0
O243 O 0.58315 0.47809 0.79231 0.0
O244 O 0.59699 0.54416 0.9607 0.0
O245 O 0.57246 0.50606 0.03845 0.0
O246 O 0.58445 0.53072 0.61419 0.0
O247 O 0.6219 0.54519 0.75107 0.0
O248 O 0.54535 0.57204 0.84875 0.0
O249 O 0.52008 0.5644 0.01807 0.0
O250 O 0.48587 0.52327 0.84465 0.0
O251 O 0.52495 0.51488 0.69426 0.0
C252 C 0.55911 0.45834 0.81184 0.0
O253 O 0.51026 0.51099 0.1562 0.0
O254 O 0.47598 0.48765 0.01879 0.0
C255 C 0.59747 0.52659 0.03823 0.0
C256 C 0.61534 0.57801 0.61509 0.0
C257 C 0.6133 0.63815 0.55596 0.0
C258 C 0.61332 0.60974 0.46811 0.0
C259 C 0.61396 0.58001 0.49747 0.0
C260 C 0.61612 0.60643 0.70294 0.0
C261 C 0.61481 0.63616 0.67368 0.0
C262 C 0.61281 0.54647 0.64531 0.0
C263 C 0.52903 0.58292 0.94728 0.0
H264 H 0.45506 0.41144 0.32156 0.0
H265 H 0.44706 0.46326 0.27488 0.0
H266 H 0.5357 0.44763 0.0544 0.0
H267 H 0.54155 0.3944 0.08616 0.0
H268 H 0.61159 0.61049 0.37658 0.0
H269 H 0.61286 0.55853 0.42822 0.0
H270 H 0.61671 0.60573 0.79461 0.0
H271 H 0.61453 0.6576 0.74311 0.0
Tb272 Tb 0.05269 0.538 0.8498 0.0
Tb273 Tb 1.02773 0.4939 0.02472 0.0
C274 C 1.03198 0.56781 0.10988 0.0
C275 C 0.11465 0.56057 0.67785 0.0
C276 C 0.16951 0.51781 0.6272 0.0
C277 C 0.16956 0.54133 0.7317 0.0
C278 C 0.14257 0.56276 0.75634 0.0
C279 C 0.11694 0.53975 0.56718 0.0
C280 C 0.14401 0.51843 0.54238 0.0
C281 C 0.0804 0.5702 0.72501 0.0
O282 O 0.0989 0.51438 0.89417 0.0
O283 O 0.0807 0.50913 0.07245 0.0
O284 O 1.03485 0.45971 0.85887 0.0
O285 O 0.05393 0.4909 0.73645 0.0
O286 O 0.9989 0.48651 0.16587 0.0
O287 O 1.03596 0.45184 0.08317 0.0
O288 O 0.98281 0.49591 0.91433 0.0
O289 O 0.99648 0.53989 0.84232 0.0
O290 O 0.05337 0.56802 0.02486 0.0
O291 O 1.01412 0.54222 0.11371 0.0
C292 C 0.10581 0.51075 0.99988 0.0
O293 O 0.05582 0.54979 0.6856 0.0
O294 O 0.07907 0.57988 0.83854 0.0
C295 C 1.0453 0.46322 0.75636 0.0
C296 C 0.98488 0.43325 0.1519 0.0
C297 C 0.92123 0.40413 0.1696 0.0
C298 C 0.93191 0.4097 0.06153 0.0
C299 C 0.96343 0.42458 0.05317 0.0
C300 C 0.97684 0.42316 0.25352 0.0
C301 C 0.94533 0.40851 0.26229 0.0
C302 C 1.01109 0.45805 0.15818 0.0
C303 C 0.97424 0.51805 0.85832 0.0
H304 H 0.18944 0.54213 0.79712 0.0
H305 H 0.14203 0.57884 0.84203 0.0
H306 H 0.09616 0.53775 0.50417 0.0
H307 H 0.14438 0.50176 0.45787 0.0
H308 H 0.91448 0.40582 0.98737 0.0
H309 H 0.96955 0.43196 0.97329 0.0
H310 H 0.99334 0.42944 0.33015 0.0
H311 H 0.9385 0.40449 0.34703 0.0
C312 C 0.13901 0.01431 0.45381 0.0
C313 C 0.17406 0.02018 0.48166 0.0
H314 H 0.08795 1.00906 0.51359 0.0
C315 C 0.18388 0.02366 0.59974 0.0
H316 H 0.13025 1.01102 0.36445 0.0
C317 C 0.15923 0.02259 0.68685 0.0
C318 C 0.12399 0.01781 0.65868 0.0
H319 H 0.21041 0.02837 0.62563 0.0
H320 H 0.16782 0.02606 0.77685 0.0
C321 C 0.11452 0.01317 0.54012 0.0
C322 C 0.5416 0.13171 0.60381 0.0
C323 C 0.55692 0.15928 0.67392 0.0
H324 H 0.52545 0.08315 0.58917 0.0
C325 C 0.56615 0.1588 0.78948 0.0
H326 H 0.53532 0.13092 0.51311 0.0
C327 C 0.56117 0.13121 0.8327 0.0
C328 C 0.54688 0.10316 0.76147 0.0
H329 H 0.57902 0.17923 0.84443 0.0
H330 H 0.56963 0.13158 0.92109 0.0
C331 C 0.53634 0.10415 0.6472 0.0
C332 C 0.4476 0.53911 0.471 0.0
C333 C 0.41737 0.52034 0.45875 0.0
H334 H 0.49485 0.55288 0.56382 0.0
C335 C 0.41134 0.50279 0.54516 0.0
H336 H 0.45323 0.55411 0.41108 0.0
C337 C 0.43503 0.50338 0.63738 0.0
C338 C 0.46586 0.52084 0.64425 0.0
H339 H 0.3889 0.48768 0.53996 0.0
H340 H 0.42991 0.48909 0.7003 0.0
C341 C 0.47159 0.53883 0.56031 0.0
C342 C 0.06425 0.40973 0.45923 0.0
C343 C 1.0453 0.38203 0.46225 0.0
H344 H 0.07929 0.45687 0.54925 0.0
C345 C 1.02721 0.38105 0.56483 0.0
H346 H 0.07901 0.41124 0.38286 0.0
C347 C 1.02789 0.40707 0.66128 0.0
C348 C 1.04632 0.4349 0.65712 0.0
H349 H 1.01181 0.36044 0.56999 0.0
H350 H 1.01324 0.40564 0.738 0.0
C351 C 0.06461 0.43588 0.55513 0.0
C352 C 0.92402 0.03693 0.28717 0.0
C353 C 0.92413 1.0122 0.34799 0.0
H354 H 0.94818 0.05797 0.15793 0.0
C355 C 0.94969 0.98872 0.31762 0.0
H356 H 0.90522 0.05568 0.30777 0.0
C357 C 0.97476 0.99043 0.23374 0.0
C358 C 0.97507 0.01536 0.1746 0.0
H359 H 0.95052 0.96871 0.35896 0.0
H360 H 0.99389 0.97192 0.21482 0.0
C361 C 0.94898 0.03839 0.20155 0.0
C362 C 0.56089 0.8728 0.93331 0.0
C363 C 0.56466 0.87127 0.05105 0.0
H364 H 0.55281 0.90196 0.81056 0.0
C365 C 0.56035 0.89949 0.13793 0.0
H366 H 0.5649 0.85169 0.86432 0.0
C367 C 0.55381 0.92874 0.10726 0.0
C368 C 0.55184 0.93053 0.98879 0.0
H369 H 0.56402 0.89927 0.22933 0.0
H370 H 0.55184 0.95014 0.1763 0.0
C371 C 0.55444 0.90187 0.90265 0.0
C372 C 0.66101 0.50976 0.26829 0.0
C373 C 0.68191 0.53728 0.29074 0.0
H374 H 0.61768 0.48498 0.17364 0.0
C375 C 0.67516 0.56072 0.22754 0.0
H376 H 0.66501 0.49155 0.317 0.0
C377 C 0.64832 0.5569 0.14487 0.0
C378 C 0.62675 0.52982 0.12431 0.0
H379 H 0.6904 0.5824 0.24361 0.0
H380 H 0.64396 0.57568 0.09902 0.0
C381 C 0.63361 0.5062 0.18699 0.0
C382 C 0.04948 0.65088 0.29362 0.0
C383 C 1.02838 0.65208 0.39099 0.0
H384 H 0.06705 0.6237 0.12956 0.0
C385 C 1.00759 0.62543 0.39394 0.0
H386 H 0.06626 0.67066 0.28906 0.0
C387 C 1.00828 0.59811 0.30231 0.0
C388 C 1.02975 0.59688 0.20578 0.0
H389 H 0.99074 0.62568 0.46706 0.0
H390 H 0.9922 0.57792 0.30766 0.0
C391 C 0.0501 0.62372 0.20229 0.0
C392 C 0.96059 0.19732 0.44095 0.0
C393 C 0.98827 0.21791 0.48197 0.0
H394 H 0.93291 0.15579 0.45831 0.0
C395 C 1.00203 0.21882 0.59321 0.0
H396 H 0.94983 0.19616 0.35467 0.0
C397 C 0.99232 0.1957 0.65318 0.0
C398 C 0.96906 0.17133 0.60153 0.0
H399 H 1.02351 0.23443 0.62614 0.0
H400 H 1.00579 0.1948 0.73336 0.0
C401 C 0.95112 0.17398 0.50009 0.0
C402 C 0.34107 0.93818 0.4399 0.0
C403 C 0.33628 0.9299 0.31819 0.0
H404 H 0.37493 0.93622 0.58037 0.0
C405 C 0.35325 0.90308 0.2528 0.0
H406 H 0.32779 0.95836 0.49285 0.0
C407 C 0.38043 0.88997 0.30339 0.0
C408 C 0.39097 0.90413 0.41853 0.0
H409 H 0.34925 0.89569 0.15899 0.0
H410 H 0.39637 0.87249 0.24728 0.0
C411 C 0.36841 0.92532 0.49021 0.0
C412 C 0.59316 0.37413 0.69723 0.0
C413 C 0.56589 0.35562 0.72538 0.0
H414 H 0.6127 0.4213 0.70177 0.0
C415 C 0.53961 0.37111 0.79609 0.0
H416 H 0.6132 0.3628 0.63928 0.0
C417 C 0.53825 0.4043 0.8254 0.0
C418 C 0.56396 0.42314 0.78967 0.0
H419 H 0.51775 0.35766 0.8157 0.0
H420 H 0.51562 0.41502 0.86999 0.0
C421 C 0.59239 0.40766 0.73015 0.0
C422 C 0.21566 0.44617 0.46478 0.0
C423 C 0.24718 0.46142 0.45683 0.0
H424 H 0.16407 0.45394 0.52446 0.0
C425 C 0.25677 0.48692 0.55014 0.0
H426 H 0.20836 0.42511 0.39896 0.0
C427 C 0.23139 0.50401 0.61987 0.0
C428 C 0.19715 0.49406 0.60102 0.0
H429 H 0.2818 0.49807 0.55271 0.0
H430 H 0.23801 0.5271 0.67468 0.0
C431 C 0.19009 0.4631 0.53463 0.0
C432 C 0.0743 0.81639 0.23458 0.0
C433 C 0.08764 0.8151 0.34448 0.0
H434 H 0.07399 0.84148 0.09701 0.0
C435 C 0.11688 0.83338 0.38704 0.0
H436 H 0.0516 0.80268 0.20053 0.0
C437 C 0.1289 0.85651 0.33065 0.0
C438 C 0.11208 0.86131 0.22992 0.0
H439 H 0.1273 0.83298 0.47253 0.0
H440 H 0.14863 0.8729 0.37378 0.0
C441 C 0.08669 0.83915 0.17694 0.0
C442 C 0.74041 0.12697 0.5163 0.0
C443 C 0.75815 0.09979 0.45788 0.0
H444 H 0.69631 0.15579 0.5118 0.0
C445 C 0.75396 0.0891 0.3364 0.0
H446 H 0.74375 0.13595 0.60983 0.0
C447 C 0.72655 0.10019 0.28044 0.0
C448 C 0.70353 0.12197 0.34642 0.0
H449 H 0.76776 0.06844 0.28917 0.0
H450 H 0.72026 0.08766 0.1917 0.0
C451 C 0.71315 0.13823 0.46017 0.0
C452 C 0.50074 0.66438 0.11952 0.0
C453 C 0.52323 0.68477 0.0765 0.0
H454 H 0.48584 0.61611 0.1162 0.0
C455 C 0.5419 0.67181 0.97513 0.0
H456 H 0.48565 0.67365 0.19683 0.0
C457 C 0.54159 0.63884 0.92792 0.0
C458 C 0.52305 0.61798 0.98194 0.0
H459 H 0.55957 0.68657 0.93957 0.0
H460 H 0.55811 0.62959 0.85459 0.0
C461 C 0.50118 0.6313 0.07441 0.0
C462 C 0.84658 0.4058 0.36358 0.0
C463 C 0.83078 0.43294 0.34035 0.0
H464 H 0.88804 0.37315 0.32029 0.0
C465 C 0.83587 0.44005 0.23086 0.0
H466 H 0.84228 0.3992 0.4461 0.0
C467 C 0.8625 0.4256 0.15985 0.0
C468 C 0.88407 0.40384 0.19796 0.0
H469 H 0.82352 0.46042 0.20919 0.0
H470 H 0.86928 0.43554 0.08618 0.0
C471 C 0.87304 0.39108 0.29183 0.0
C472 C 0.08424 0.15726 0.21143 0.0
C473 C 0.06624 0.17865 0.15929 0.0
H474 H 0.09846 0.10882 0.20069 0.0
C475 C 0.05458 0.16827 0.04352 0.0
H476 H 0.09334 0.16475 0.30105 0.0
C477 C 0.05729 0.13614 0.98603 0.0
C478 C 0.07154 0.11388 0.04384 0.0
H479 H 1.0403 0.18419 1.00194 0.0
H480 H 1.04573 0.12842 0.9 0.0
C481 C 0.08678 0.12513 0.15444 0.0
C482 C 0.39691 0.03145 0.14343 0.0
C483 C 0.37533 1.00576 0.09088 0.0
H484 H 0.44563 0.05508 0.14157 0.0
C485 C 0.38667 0.98538 0.98628 0.0
H486 H 0.38962 0.04713 0.22548 0.0
C487 C 0.4189 0.98969 0.93833 0.0
C488 C 0.44135 0.01439 0.99381 0.0
H489 H 0.37118 0.96494 0.94445 0.0
H490 H 0.42676 0.97272 0.85997 0.0
C491 C 0.42937 0.03571 0.09572 0.0
C492 C 0.54484 0.32616 0.27856 0.0
C493 C 0.5197 0.31378 0.34109 0.0
H494 H 0.55918 0.36299 0.1953 0.0
C495 C 0.48594 0.32455 0.33693 0.0
H496 H 0.57126 0.31891 0.2826 0.0
C497 C 0.47847 0.34995 0.28445 0.0
C498 C 0.50478 0.36581 0.23749 0.0
H499 H 0.46607 0.31581 0.38583 0.0
H500 H 0.45237 0.35831 0.28801 0.0
C501 C 0.53773 0.35215 0.22952 0.0
C502 C 0.20239 0.49344 0.009 0.0
C503 C 0.20946 0.50236 0.13013 0.0
H504 H 0.16422 0.48917 0.872 0.0
C505 C 0.18299 0.5168 0.20452 0.0
H506 H 0.22185 0.48175 0.9493 0.0
C507 C 0.14998 0.52006 0.16129 0.0
C508 C 0.14221 0.50969 0.04139 0.0
H509 H 0.18732 0.5238 0.29828 0.0
H510 H 0.1302 0.53007 0.22287 0.0
C511 C 0.1692 0.49737 0.96498 0.0
C512 C 0.9969 0.87985 0.64388 0.0
C513 C 1.01728 0.85739 0.68223 0.0
H514 H 0.98466 0.92925 0.66464 0.0
C515 C 1.03663 0.86708 0.7854 0.0
H516 H 0.98223 0.8729 0.56323 0.0
C517 C 1.03888 0.89932 0.84118 0.0
C518 C 1.02132 0.92227 0.79575 0.0
H519 H 0.05297 0.85029 0.81544 0.0
H520 H 0.05613 0.90647 0.91528 0.0
C521 C 0.99865 0.9121 0.70101 0.0
C522 C 0.6902 1.00971 0.60972 0.0
C523 C 0.71648 0.02521 0.68462 0.0
H524 H 0.63745 0.99511 0.58938 0.0
C525 C 0.70863 0.03631 0.80414 0.0
H526 H 0.69486 1.00182 0.51669 0.0
C527 C 0.6753 0.03267 0.84656 0.0
C528 C 0.64858 0.01839 0.77018 0.0
H529 H 0.72777 0.04941 0.86371 0.0
H530 H 0.67009 0.04248 0.93824 0.0
C531 C 0.65696 1.00633 0.65154 0.0
C532 C 0.61884 0.70271 0.38539 0.0
C533 C 0.58918 0.72028 0.42313 0.0
H534 H 0.64946 0.66234 0.39671 0.0
C535 C 0.57171 0.71449 0.52071 0.0
H536 H 0.63227 0.70612 0.30857 0.0
C537 C 0.58157 0.68941 0.57136 0.0
C538 C 0.60868 0.66935 0.52381 0.0
H539 H 0.54826 0.72707 0.54945 0.0
H540 H 0.56596 0.68387 0.64022 0.0
C541 C 0.62827 0.67723 0.4343 0.0
C542 C 0.89652 0.53442 0.67774 0.0
C543 C 0.87389 0.50957 0.68719 0.0
H544 H 0.94581 0.55668 0.72326 0.0
C545 C 0.88338 0.48964 0.76172 0.0
H546 H 0.89039 0.54979 0.61937 0.0
C547 C 0.9151 0.49335 0.82059 0.0
C548 C 0.93871 0.51705 0.80651 0.0
H549 H 0.8668 0.47003 0.77008 0.0
H550 H 0.92159 0.4767 0.87372 0.0
C551 C 0.92851 0.5381 0.73655 0.0
loop_
_geom_bond_atom_site_label_1
_geom_bond_atom_site_label_2
_geom_bond_distance
_geom_bond_site_symmetry_2
_ccdc_geom_bond_type
H0 C1 0.949 . S
C1 H0 0.949 . S
C1 C2 1.395 . S
C1 C3 1.391 . S
C2 C1 1.395 . S
C2 C5 1.390 . S
C3 C1 1.391 . S
C3 C7 1.387 . S
C3 C8 1.491 . S
H4 C5 0.950 . S
C5 C2 1.390 . S
C5 H4 0.950 . S
C5 C6 1.378 . S
C6 C5 1.378 . S
C6 C7 1.409 . S
C7 C3 1.387 . S
C7 C6 1.409 . S
C7 H9 0.951 . S
C8 C3 1.491 . S
C8 C10 1.382 . S
C8 C12 1.404 . S
H9 C7 0.951 . S
C10 C8 1.382 . S
C10 C11 1.390 . S
C10 H15 0.949 . S
C11 C10 1.390 . S
C11 C16 1.399 . S
C12 C8 1.404 . S
C12 H13 0.950 . S
C12 C14 1.375 . S
H13 C12 0.950 . S
C14 C12 1.375 . S
C14 C16 1.382 . S
C14 H18 0.950 . S
H15 C10 0.949 . S
C16 C11 1.399 . S
C16 C14 1.382 . S
C16 H17 0.952 . S
H17 C16 0.952 . S
H18 C14 0.950 . S
H19 C20 0.949 . S
C20 H19 0.949 . S
C20 C21 1.395 . S
C20 C22 1.391 . S
C21 C20 1.395 . S
C21 C24 1.390 1_655 S
C22 C20 1.391 . S
C22 C26 1.387 . S
C22 C27 1.491 . S
H23 C24 0.950 . S
C24 C21 1.390 1_455 S
C24 H23 0.950 . S
C24 C25 1.377 1_455 S
C25 C24 1.377 1_655 S
C25 C26 1.412 . S
C26 C22 1.387 . S
C26 C25 1.412 . S
C26 H28 0.951 . S
C27 C22 1.491 . S
C27 C29 1.382 . S
C27 C31 1.404 . S
H28 C26 0.951 . S
C29 C27 1.382 . S
C29 C30 1.390 . S
C29 H34 0.949 1_655 S
C30 C29 1.390 . S
C30 C35 1.399 . S
C31 C27 1.404 . S
C31 H32 0.950 . S
C31 C33 1.375 . S
H32 C31 0.950 . S
C33 C31 1.375 . S
C33 C35 1.382 . S
C33 H37 0.950 . S
H34 C29 0.949 1_455 S
C35 C30 1.399 . S
C35 C33 1.382 . S
C35 H36 0.952 . S
H36 C35 0.952 . S
H37 C33 0.950 . S
H38 C39 0.949 . S
C39 H38 0.949 . S
C39 C40 1.395 . S
C39 C41 1.391 . S
C40 C39 1.395 . S
C40 C43 1.391 1_565 S
C41 C39 1.391 . S
C41 C45 1.387 . S
C41 C46 1.491 . S
H42 C43 0.950 . S
C43 C40 1.391 1_545 S
C43 H42 0.950 . S
C43 C44 1.372 1_545 S
C44 C43 1.372 1_565 S
C44 C45 1.412 . S
C45 C41 1.387 . S
C45 C44 1.412 . S
C45 H47 0.951 . S
C46 C41 1.491 . S
C46 C48 1.382 . S
C46 C50 1.404 . S
H47 C45 0.951 . S
C48 C46 1.382 . S
C48 C49 1.390 . S
C48 H53 0.949 1_565 S
C49 C48 1.390 . S
C49 C54 1.399 . S
C50 C46 1.404 . S
C50 H51 0.950 . S
C50 C52 1.375 . S
H51 C50 0.950 . S
C52 C50 1.375 . S
C52 C54 1.382 . S
C52 H56 0.950 . S
H53 C48 0.949 1_545 S
C54 C49 1.399 . S
C54 C52 1.382 . S
C54 H55 0.952 . S
H55 C54 0.952 . S
H56 C52 0.950 . S
H57 C58 0.949 . S
C58 H57 0.949 . S
C58 C59 1.395 . S
C58 C60 1.391 1_556 S
C59 C58 1.395 . S
C59 C62 1.390 1_556 S
C60 C58 1.391 1_554 S
C60 C64 1.387 . S
C60 C65 1.491 . S
H61 C62 0.950 . S
C62 C59 1.390 1_554 S
C62 H61 0.950 . S
C62 C63 1.378 . S
C63 C62 1.378 . S
C63 C64 1.409 . S
C64 C60 1.387 . S
C64 C63 1.409 . S
C64 H66 0.951 . S
C65 C60 1.491 . S
C65 C67 1.382 1_554 S
C65 C69 1.404 . S
H66 C64 0.951 . S
C67 C65 1.382 1_556 S
C67 C68 1.390 . S
C67 H72 0.949 . S
C68 C67 1.390 . S
C68 C73 1.399 1_556 S
C69 C65 1.404 . S
C69 H70 0.950 . S
C69 C71 1.375 . S
H70 C69 0.950 . S
C71 C69 1.375 . S
C71 C73 1.382 . S
C71 H75 0.950 . S
H72 C67 0.949 . S
C73 C68 1.399 1_554 S
C73 C71 1.382 . S
C73 H74 0.952 . S
H74 C73 0.952 . S
H75 C71 0.950 . S
H76 C77 0.949 . S
C77 H76 0.949 . S
C77 C78 1.395 . S
C77 C79 1.391 . S
C78 C77 1.395 . S
C78 C81 1.390 . S
C79 C77 1.391 . S
C79 C83 1.387 . S
C79 C84 1.491 . S
H80 C81 0.950 . S
C81 C78 1.390 . S
C81 H80 0.950 . S
C81 C82 1.378 . S
C82 C81 1.378 . S
C82 C83 1.409 . S
C83 C79 1.387 . S
C83 C82 1.409 . S
C83 H85 0.951 . S
C84 C79 1.491 . S
C84 C86 1.382 . S
C84 C88 1.404 . S
H85 C83 0.951 . S
C86 C84 1.382 . S
C86 C87 1.390 . S
C86 H91 0.949 . S
C87 C86 1.390 . S
C87 C92 1.399 . S
C88 C84 1.404 . S
C88 H89 0.950 . S
C88 C90 1.375 . S
H89 C88 0.950 . S
C90 C88 1.375 . S
C90 C92 1.382 . S
C90 H94 0.950 . S
H91 C86 0.949 . S
C92 C87 1.399 . S
C92 C90 1.382 . S
C92 H93 0.952 . S
H93 C92 0.952 . S
H94 C90 0.950 . S
H95 C96 0.949 . S
C96 H95 0.949 . S
C96 C97 1.394 . S
C96 C98 1.391 . S
C97 C96 1.394 . S
C97 C100 1.390 1_655 S
C98 C96 1.391 . S
C98 C102 1.387 . S
C98 C103 1.491 . S
H99 C100 0.950 . S
C100 C97 1.390 1_455 S
C100 H99 0.950 . S
C100 C101 1.377 1_455 S
C101 C100 1.377 1_655 S
C101 C102 1.411 . S
C102 C98 1.387 . S
C102 C101 1.411 . S
C102 H104 0.951 . S
C103 C98 1.491 . S
C103 C105 1.382 . S
C103 C107 1.404 . S
H104 C102 0.951 . S
C105 C103 1.382 . S
C105 C106 1.390 . S
C105 H110 0.949 1_655 S
C106 C105 1.390 . S
C106 C111 1.399 . S
C107 C103 1.404 . S
C107 H108 0.950 . S
C107 C109 1.375 . S
H108 C107 0.950 . S
C109 C107 1.375 . S
C109 C111 1.382 . S
C109 H113 0.950 . S
H110 C105 0.949 1_455 S
C111 C106 1.399 . S
C111 C109 1.382 . S
C111 H112 0.952 . S
H112 C111 0.952 . S
H113 C109 0.950 . S
H114 C115 0.949 . S
C115 H114 0.949 . S
C115 C116 1.394 . S
C115 C117 1.391 . S
C116 C115 1.394 . S
C116 C119 1.391 1_565 S
C117 C115 1.391 . S
C117 C121 1.387 . S
C117 C122 1.491 . S
H118 C119 0.950 . S
C119 C116 1.391 1_545 S
C119 H118 0.950 . S
C119 C120 1.380 1_545 S
C120 C119 1.380 1_565 S
C120 C121 1.411 . S
C121 C117 1.387 . S
C121 C120 1.411 . S
C121 H123 0.951 . S
C122 C117 1.491 . S
C122 C124 1.382 . S
C122 C126 1.404 . S
H123 C121 0.951 . S
C124 C122 1.382 . S
C124 C125 1.390 . S
C124 H129 0.949 1_565 S
C125 C124 1.390 . S
C125 C130 1.399 . S
C126 C122 1.404 . S
C126 H127 0.950 . S
C126 C128 1.375 . S
H127 C126 0.950 . S
C128 C126 1.375 . S
C128 C130 1.382 . S
C128 H132 0.950 . S
H129 C124 0.949 1_545 S
C130 C125 1.399 . S
C130 C128 1.382 . S
C130 H131 0.952 . S
H131 C130 0.952 . S
H132 C128 0.950 . S
H133 C134 0.949 . S
C134 H133 0.949 . S
C134 C135 1.395 . S
C134 C136 1.391 . S
C135 C134 1.395 . S
C135 C138 1.390 . S
C136 C134 1.391 . S
C136 C140 1.387 . S
C136 C141 1.491 . S
H137 C138 0.950 . S
C138 C135 1.390 . S
C138 H137 0.950 . S
C138 C139 1.378 . S
C139 C138 1.378 . S
C139 C140 1.409 . S
C140 C136 1.387 . S
C140 C139 1.409 . S
C140 H142 0.951 . S
C141 C136 1.491 . S
C141 C143 1.382 . S
C141 C145 1.404 . S
H142 C140 0.951 . S
C143 C141 1.382 . S
C143 C144 1.390 . S
C143 H148 0.949 . S
C144 C143 1.390 . S
C144 C149 1.399 . S
C145 C141 1.404 . S
C145 H146 0.950 . S
C145 C147 1.375 . S
H146 C145 0.950 . S
C147 C145 1.375 . S
C147 C149 1.382 . S
C147 H151 0.950 . S
H148 C143 0.949 . S
C149 C144 1.399 . S
C149 C147 1.382 . S
C149 H150 0.952 . S
H150 C149 0.952 . S
H151 C147 0.950 . S
Tb152 C161 2.764 . S
Tb152 O162 2.325 . S
Tb152 O165 2.303 1_655 S
Tb152 O169 2.322 1_545 S
Tb152 O170 2.349 . S
Tb152 O173 2.415 . S
Tb152 O174 2.399 . S
Tb153 O163 2.322 1_565 S
Tb153 O164 2.349 1_554 S
Tb153 O166 2.415 . S
Tb153 O167 2.399 . S
Tb153 O168 2.325 1_554 S
Tb153 O171 2.303 1_454 S
Tb153 C182 2.764 . S
C154 O170 1.282 . S
C154 O171 1.251 1_545 S
C155 C158 1.358 . S
C155 C159 1.332 . S
C155 C161 1.504 . S
C156 C157 1.373 . S
C156 C160 1.308 . S
C157 C156 1.373 . S
C157 C158 1.429 . S
C157 H184 0.932 . S
C158 C155 1.358 . S
C158 C157 1.429 . S
C158 H185 0.930 . S
C159 C155 1.332 . S
C159 C160 1.394 . S
C159 H186 0.932 1_655 S
C160 C156 1.308 . S
C160 C159 1.394 . S
C160 H187 0.933 . S
C161 Tb152 2.764 . S
C161 C155 1.504 . S
C161 O173 1.239 . S
C161 O174 1.263 . S
O162 Tb152 2.325 . S
O162 C172 1.236 1_655 S
O163 Tb153 2.322 1_545 S
O163 C172 1.257 1_554 S
O164 Tb153 2.349 1_556 S
O164 C175 1.277 . S
O165 Tb152 2.303 1_455 S
O165 C175 1.253 1_545 S
O166 Tb153 2.415 . S
O166 C182 1.239 . S
O167 Tb153 2.399 . S
O167 C182 1.263 . S
O168 Tb153 2.325 1_556 S
O168 C183 1.236 1_455 S
O169 Tb152 2.322 1_565 S
O169 C183 1.257 . S
O170 Tb152 2.349 . S
O170 C154 1.282 . S
O171 Tb153 2.303 1_656 S
O171 C154 1.251 1_565 S
C172 O162 1.236 1_455 S
C172 O163 1.257 1_556 S
O173 Tb152 2.415 . S
O173 C161 1.239 . S
O174 Tb152 2.399 . S
O174 C161 1.263 . S
C175 O164 1.277 . S
C175 O165 1.253 1_565 S
C176 C179 1.358 . S
C176 C180 1.332 . S
C176 C182 1.504 . S
C177 C178 1.373 . S
C177 C181 1.308 . S
C178 C177 1.373 . S
C178 C179 1.429 . S
C178 H188 0.932 . S
C179 C176 1.358 . S
C179 C178 1.429 . S
C179 H189 0.930 . S
C180 C176 1.332 . S
C180 C181 1.394 . S
C180 H190 0.932 1_455 S
C181 C177 1.308 . S
C181 C180 1.394 . S
C181 H191 0.940 . S
C182 Tb153 2.764 . S
C182 O166 1.239 . S
C182 O167 1.263 . S
C182 C176 1.504 . S
C183 O168 1.236 1_655 S
C183 O169 1.257 . S
H184 C157 0.932 . S
H185 C158 0.930 . S
H186 C159 0.932 1_455 S
H187 C160 0.933 . S
H188 C178 0.932 . S
H189 C179 0.930 . S
H190 C180 0.932 1_655 S
H191 C181 0.940 . S
Tb192 C201 2.764 . S
Tb192 O202 2.325 . S
Tb192 O205 2.303 1_565 S
Tb192 O209 2.322 . S
Tb192 O210 2.349 . S
Tb192 O213 2.415 1_565 S
Tb192 O214 2.399 . S
Tb193 O203 2.322 . S
Tb193 O204 2.349 . S
Tb193 O206 2.415 1_545 S
Tb193 O207 2.399 . S
Tb193 O208 2.325 1_554 S
Tb193 O211 2.303 1_544 S
Tb193 C222 2.764 . S
C194 O210 1.261 . S
C194 O211 1.257 . S
C195 C198 1.358 . S
C195 C199 1.332 1_565 S
C195 C201 1.504 . S
C196 C197 1.373 . S
C196 C200 1.308 1_565 S
C197 C196 1.373 . S
C197 C198 1.429 . S
C197 H224 0.932 . S
C198 C195 1.358 . S
C198 C197 1.429 . S
C198 H225 0.930 . S
C199 C195 1.332 1_545 S
C199 C200 1.394 . S
C199 H226 0.932 . S
C200 C196 1.308 1_545 S
C200 C199 1.394 . S
C200 H227 0.929 . S
C201 Tb192 2.764 . S
C201 C195 1.504 . S
C201 O213 1.239 1_565 S
C201 O214 1.263 . S
O202 Tb192 2.325 . S
O202 C212 1.236 1_565 S
O203 Tb193 2.322 . S
O203 C212 1.257 1_554 S
O204 Tb193 2.349 . S
O204 C215 1.261 1_554 S
O205 Tb192 2.303 1_545 S
O205 C215 1.257 . S
O206 Tb193 2.415 1_565 S
O206 C222 1.239 1_565 S
O207 Tb193 2.399 . S
O207 C222 1.263 . S
O208 Tb193 2.325 1_556 S
O208 C223 1.236 1_545 S
O209 Tb192 2.322 . S
O209 C223 1.257 . S
O210 Tb192 2.349 . S
O210 C194 1.261 . S
O211 Tb193 2.303 1_566 S
O211 C194 1.257 . S
C212 O202 1.236 1_545 S
C212 O203 1.257 1_556 S
O213 Tb192 2.415 1_545 S
O213 C201 1.239 1_545 S
O214 Tb192 2.399 . S
O214 C201 1.263 . S
C215 O204 1.261 1_556 S
C215 O205 1.257 . S
C216 C219 1.358 . S
C216 C220 1.332 1_545 S
C216 C222 1.504 . S
C217 C218 1.373 . S
C217 C221 1.308 1_545 S
C218 C217 1.373 . S
C218 C219 1.429 . S
C218 H228 0.932 . S
C219 C216 1.358 . S
C219 C218 1.429 . S
C219 H229 0.930 . S
C220 C216 1.332 1_565 S
C220 C221 1.394 . S
C220 H230 0.932 . S
C221 C217 1.308 1_565 S
C221 C220 1.394 . S
C221 H231 0.929 . S
C222 Tb193 2.764 . S
C222 O206 1.239 1_545 S
C222 O207 1.263 . S
C222 C216 1.504 . S
C223 O208 1.236 1_565 S
C223 O209 1.257 . S
H224 C197 0.932 . S
H225 C198 0.930 . S
H226 C199 0.932 . S
H227 C200 0.929 . S
H228 C218 0.932 . S
H229 C219 0.930 . S
H230 C220 0.932 . S
H231 C221 0.929 . S
Tb232 C241 2.764 . S
Tb232 O242 2.325 1_554 S
Tb232 O245 2.303 1_554 S
Tb232 O249 2.322 . S
Tb232 O250 2.349 1_554 S
Tb232 O253 2.415 . S
Tb232 O254 2.399 . S
Tb233 O243 2.322 . S
Tb233 O244 2.349 . S
Tb233 O246 2.415 . S
Tb233 O247 2.399 . S
Tb233 O248 2.325 . S
Tb233 O251 2.303 . S
Tb233 C262 2.764 . S
C234 O250 1.261 . S
C234 O251 1.257 . S
C235 C238 1.358 . S
C235 C239 1.332 . S
C235 C241 1.504 . S
C236 C237 1.373 . S
C236 C240 1.308 . S
C237 C236 1.373 . S
C237 C238 1.429 . S
C237 H264 0.932 . S
C238 C235 1.358 . S
C238 C237 1.429 . S
C238 H265 0.930 . S
C239 C235 1.332 . S
C239 C240 1.394 . S
C239 H266 0.932 . S
C240 C236 1.308 . S
C240 C239 1.394 . S
C240 H267 0.929 . S
C241 Tb232 2.764 . S
C241 C235 1.504 . S
C241 O253 1.239 . S
C241 O254 1.263 . S
O242 Tb232 2.325 1_556 S
O242 C252 1.236 . S
O243 Tb233 2.322 . S
O243 C252 1.257 . S
O244 Tb233 2.349 . S
O244 C255 1.261 . S
O245 Tb232 2.303 1_556 S
O245 C255 1.257 . S
O246 Tb233 2.415 . S
O246 C262 1.239 . S
O247 Tb233 2.399 . S
O247 C262 1.263 . S
O248 Tb233 2.325 . S
O248 C263 1.236 . S
O249 Tb232 2.322 . S
O249 C263 1.257 1_554 S
O250 Tb232 2.349 1_556 S
O250 C234 1.261 . S
O251 Tb233 2.303 . S
O251 C234 1.257 . S
C252 O242 1.236 . S
C252 O243 1.257 . S
O253 Tb232 2.415 . S
O253 C241 1.239 . S
O254 Tb232 2.399 . S
O254 C241 1.263 . S
C255 O244 1.261 . S
C255 O245 1.257 . S
C256 C259 1.358 . S
C256 C260 1.332 . S
C256 C262 1.504 . S
C257 C258 1.373 . S
C257 C261 1.308 . S
C258 C257 1.373 . S
C258 C259 1.429 . S
C258 H268 0.932 . S
C259 C256 1.358 . S
C259 C258 1.429 . S
C259 H269 0.930 . S
C260 C256 1.332 . S
C260 C261 1.394 . S
C260 H270 0.932 . S
C261 C257 1.308 . S
C261 C260 1.394 . S
C261 H271 0.929 . S
C262 Tb233 2.764 . S
C262 O246 1.239 . S
C262 O247 1.263 . S
C262 C256 1.504 . S
C263 O248 1.236 . S
C263 O249 1.257 1_556 S
H264 C237 0.932 . S
H265 C238 0.930 . S
H266 C239 0.932 . S
H267 C240 0.929 . S
H268 C258 0.932 . S
H269 C259 0.930 . S
H270 C260 0.932 . S
H271 C261 0.929 . S
Tb272 C281 2.764 . S
Tb272 O282 2.325 . S
Tb272 O285 2.303 . S
Tb272 O289 2.322 1_455 S
Tb272 O290 2.349 . S
Tb272 O293 2.415 . S
Tb272 O294 2.399 . S
Tb273 O283 2.322 1_655 S
Tb273 O284 2.349 1_554 S
Tb273 O286 2.415 . S
Tb273 O287 2.399 . S
Tb273 O288 2.325 1_554 S
Tb273 O291 2.302 1_554 S
Tb273 C302 2.764 . S
C274 O290 1.261 . S
C274 O291 1.258 1_455 S
C275 C278 1.358 . S
C275 C279 1.332 . S
C275 C281 1.504 . S
C276 C277 1.373 . S
C276 C280 1.308 . S
C277 C276 1.373 . S
C277 C278 1.429 . S
C277 H304 0.932 . S
C278 C275 1.358 . S
C278 C277 1.429 . S
C278 H305 0.930 . S
C279 C275 1.332 . S
C279 C280 1.394 . S
C279 H306 0.932 . S
C280 C276 1.308 . S
C280 C279 1.394 . S
C280 H307 0.929 . S
C281 Tb272 2.764 . S
C281 C275 1.504 . S
C281 O293 1.239 . S
C281 O294 1.263 . S
O282 Tb272 2.325 . S
O282 C292 1.236 . S
O283 Tb273 2.322 1_455 S
O283 C292 1.257 1_554 S
O284 Tb273 2.349 1_556 S
O284 C295 1.261 . S
O285 Tb272 2.303 . S
O285 C295 1.257 1_455 S
O286 Tb273 2.415 . S
O286 C302 1.239 . S
O287 Tb273 2.399 . S
O287 C302 1.263 . S
O288 Tb273 2.325 1_556 S
O288 C303 1.236 . S
O289 Tb272 2.322 1_655 S
O289 C303 1.257 . S
O290 Tb272 2.349 . S
O290 C274 1.261 . S
O291 Tb273 2.302 1_556 S
O291 C274 1.258 1_655 S
C292 O282 1.236 . S
C292 O283 1.257 1_556 S
O293 Tb272 2.415 . S
O293 C281 1.239 . S
O294 Tb272 2.399 . S
O294 C281 1.263 . S
C295 O284 1.261 . S
C295 O285 1.257 1_655 S
C296 C299 1.358 . S
C296 C300 1.332 . S
C296 C302 1.504 . S
C297 C298 1.373 . S
C297 C301 1.308 . S
C298 C297 1.373 . S
C298 C299 1.429 . S
C298 H308 0.932 . S
C299 C296 1.358 . S
C299 C298 1.429 . S
C299 H309 0.930 . S
C300 C296 1.332 . S
C300 C301 1.394 . S
C300 H310 0.932 . S
C301 C297 1.308 . S
C301 C300 1.394 . S
C301 H311 0.929 . S
C302 Tb273 2.764 . S
C302 O286 1.239 . S
C302 O287 1.263 . S
C302 C296 1.504 . S
C303 O288 1.236 . S
C303 O289 1.257 . S
H304 C277 0.932 . S
H305 C278 0.930 . S
H306 C279 0.932 . S
H307 C280 0.929 . S
H308 C298 0.932 . S
H309 C299 0.930 . S
H310 C300 0.932 . S
H311 C301 0.929 . S
C312 C313 1.353 1_565 S
C312 H316 0.950 . S
C312 C321 1.390 . S
C313 C312 1.353 1_545 S
C313 C315 1.414 . S
H314 C321 0.950 . S
C315 C313 1.414 . S
C315 C317 1.390 . S
C315 H319 0.950 . S
H316 C312 0.950 . S
C317 C315 1.390 . S
C317 C318 1.387 . S
C317 H320 0.950 . S
C318 C317 1.387 . S
C318 C321 1.387 1_545 S
H319 C315 0.950 . S
H320 C317 0.950 . S
C321 C312 1.390 . S
C321 H314 0.950 . S
C321 C318 1.387 1_565 S
C322 C323 1.387 . S
C322 H326 0.950 . S
C322 C331 1.390 . S
C323 C322 1.387 . S
C323 C325 1.387 . S
H324 C331 0.950 . S
C325 C323 1.387 . S
C325 C327 1.390 . S
C325 H329 0.950 1_556 S
H326 C322 0.950 . S
C327 C325 1.390 . S
C327 C328 1.387 . S
C327 H330 0.950 1_556 S
C328 C327 1.387 . S
C328 C331 1.387 . S
H329 C325 0.950 1_554 S
H330 C327 0.950 1_554 S
C331 C322 1.390 . S
C331 H324 0.950 . S
C331 C328 1.387 . S
C332 C333 1.387 . S
C332 H336 0.950 . S
C332 C341 1.390 . S
C333 C332 1.387 . S
C333 C335 1.387 . S
H334 C341 0.950 . S
C335 C333 1.387 . S
C335 C337 1.390 . S
C335 H339 0.950 . S
H336 C332 0.950 . S
C337 C335 1.390 . S
C337 C338 1.387 . S
C337 H340 0.950 . S
C338 C337 1.387 . S
C338 C341 1.387 . S
H339 C335 0.950 . S
H340 C337 0.950 . S
C341 C332 1.390 . S
C341 H334 0.950 . S
C341 C338 1.387 . S
C342 C343 1.393 . S
C342 H346 0.950 . S
C342 C351 1.390 . S
C343 C342 1.393 . S
C343 C345 1.381 1_455 S
H344 C351 0.950 . S
C345 C343 1.381 1_655 S
C345 C347 1.390 . S
C345 H349 0.950 . S
H346 C342 0.950 . S
C347 C345 1.390 . S
C347 C348 1.361 1_655 S
C347 H350 0.950 . S
C348 C347 1.361 1_455 S
C348 C351 1.414 . S
H349 C345 0.950 . S
H350 C347 0.950 . S
C351 C342 1.390 . S
C351 H344 0.950 . S
C351 C348 1.414 . S
C352 C353 1.360 1_545 S
C352 H356 0.950 . S
C352 C361 1.390 . S
C353 C352 1.360 1_565 S
C353 C355 1.409 . S
H354 C361 0.950 . S
C355 C353 1.409 . S
C355 C357 1.390 . S
C355 H359 0.950 . S
H356 C352 0.950 . S
C357 C355 1.390 . S
C357 C358 1.387 . S
C357 H360 0.950 . S
C358 C357 1.387 . S
C358 C361 1.387 1_565 S
H359 C355 0.950 . S
H360 C357 0.950 . S
C361 C352 1.390 . S
C361 H354 0.950 . S
C361 C358 1.387 1_545 S
C362 C363 1.387 . S
C362 H366 0.950 . S
C362 C371 1.390 . S
C363 C362 1.387 . S
C363 C365 1.387 1_556 S
H364 C371 0.950 . S
C365 C363 1.387 1_554 S
C365 C367 1.390 1_554 S
C365 H369 0.950 . S
H366 C362 0.950 . S
C367 C365 1.390 1_556 S
C367 C368 1.387 . S
C367 H370 0.950 1_556 S
C368 C367 1.387 . S
C368 C371 1.387 . S
H369 C365 0.950 . S
H370 C367 0.950 1_554 S
C371 C362 1.390 . S
C371 H364 0.950 . S
C371 C368 1.387 . S
C372 C373 1.387 . S
C372 H376 0.950 . S
C372 C381 1.390 . S
C373 C372 1.387 . S
C373 C375 1.387 . S
H374 C381 0.950 . S
C375 C373 1.387 . S
C375 C377 1.390 . S
C375 H379 0.950 . S
H376 C372 0.950 . S
C377 C375 1.390 . S
C377 C378 1.387 . S
C377 H380 0.950 . S
C378 C377 1.387 . S
C378 C381 1.387 . S
H379 C375 0.950 . S
H380 C377 0.950 . S
C381 C372 1.390 . S
C381 H374 0.950 . S
C381 C378 1.387 . S
C382 C383 1.381 1_455 S
C382 H386 0.950 . S
C382 C391 1.390 . S
C383 C382 1.381 1_655 S
C383 C385 1.394 . S
H384 C391 0.950 . S
C385 C383 1.394 . S
C385 C387 1.390 . S
C385 H389 0.950 . S
H386 C382 0.950 . S
C387 C385 1.390 . S
C387 C388 1.414 . S
C387 H390 0.950 . S
C388 C387 1.414 . S
C388 C391 1.361 1_655 S
H389 C385 0.950 . S
H390 C387 0.950 . S
C391 C382 1.390 . S
C391 H384 0.950 . S
C391 C388 1.361 1_455 S
C392 C393 1.387 . S
C392 H396 0.950 . S
C392 C401 1.390 . S
C393 C392 1.387 . S
C393 C395 1.387 . S
H394 C401 0.950 . S
C395 C393 1.387 . S
C395 C397 1.390 . S
C395 H399 0.950 . S
H396 C392 0.950 . S
C397 C395 1.390 . S
C397 C398 1.387 . S
C397 H400 0.950 . S
C398 C397 1.387 . S
C398 C401 1.387 . S
H399 C395 0.950 . S
H400 C397 0.950 . S
C401 C392 1.390 . S
C401 H394 0.950 . S
C401 C398 1.387 . S
C402 C403 1.387 . S
C402 H406 0.950 . S
C402 C411 1.390 1_545 S
C403 C402 1.387 . S
C403 C405 1.387 1_545 S
H404 C411 0.950 1_545 S
C405 C403 1.387 1_565 S
C405 C407 1.390 . S
C405 H409 0.950 . S
H406 C402 0.950 . S
C407 C405 1.390 . S
C407 C408 1.387 . S
C407 H410 0.950 . S
C408 C407 1.387 . S
C408 C411 1.387 . S
H409 C405 0.950 . S
H410 C407 0.950 . S
C411 C402 1.390 1_565 S
C411 H404 0.950 1_565 S
C411 C408 1.387 . S
C412 C413 1.387 . S
C412 H416 0.950 . S
C412 C421 1.390 . S
C413 C412 1.387 . S
C413 C415 1.387 . S
H414 C421 0.950 . S
C415 C413 1.387 . S
C415 C417 1.390 . S
C415 H419 0.950 1_556 S
H416 C412 0.950 . S
C417 C415 1.390 . S
C417 C418 1.387 . S
C417 H420 0.950 1_556 S
C418 C417 1.387 . S
C418 C421 1.387 . S
H419 C415 0.950 1_554 S
H420 C417 0.950 1_554 S
C421 C412 1.390 . S
C421 H414 0.950 . S
C421 C418 1.387 . S
C422 C423 1.387 . S
C422 H426 0.950 . S
C422 C431 1.390 . S
C423 C422 1.387 . S
C423 C425 1.387 . S
H424 C431 0.950 . S
C425 C423 1.387 . S
C425 C427 1.390 . S
C425 H429 0.950 . S
H426 C422 0.950 . S
C427 C425 1.390 . S
C427 C428 1.387 . S
C427 H430 0.950 . S
C428 C427 1.387 . S
C428 C431 1.387 . S
H429 C425 0.950 . S
H430 C427 0.950 . S
C431 C422 1.390 . S
C431 H424 0.950 . S
C431 C428 1.387 . S
C432 C433 1.387 . S
C432 H436 0.959 . S
C432 C441 1.390 . S
C433 C432 1.387 . S
C433 C435 1.387 . S
H434 C441 0.950 . S
C435 C433 1.387 . S
C435 C437 1.390 . S
C435 H439 0.950 . S
H436 C432 0.959 . S
C437 C435 1.390 . S
C437 C438 1.387 . S
C437 H440 0.950 . S
C438 C437 1.387 . S
C438 C441 1.387 . S
H439 C435 0.950 . S
H440 C437 0.950 . S
C441 C432 1.390 . S
C441 H434 0.950 . S
C441 C438 1.387 . S
C442 C443 1.387 1_545 S
C442 H446 0.950 . S
C442 C451 1.390 . S
C443 C442 1.387 1_565 S
C443 C445 1.387 . S
H444 C451 0.950 . S
C445 C443 1.387 . S
C445 C447 1.390 . S
C445 H449 0.950 . S
H446 C442 0.950 . S
C447 C445 1.390 . S
C447 C448 1.387 1_565 S
C447 H450 0.950 . S
C448 C447 1.387 1_545 S
C448 C451 1.387 . S
H449 C445 0.950 . S
H450 C447 0.950 . S
C451 C442 1.390 . S
C451 H444 0.950 . S
C451 C448 1.387 . S
C452 C453 1.387 . S
C452 H456 0.950 . S
C452 C461 1.390 . S
C453 C452 1.387 . S
C453 C455 1.387 . S
H454 C461 0.950 . S
C455 C453 1.387 . S
C455 C457 1.390 1_556 S
C455 H459 0.950 1_556 S
H456 C452 0.950 . S
C457 C455 1.390 1_554 S
C457 C458 1.387 1_554 S
C457 H460 0.950 . S
C458 C457 1.387 1_556 S
C458 C461 1.387 . S
H459 C455 0.950 1_554 S
H460 C457 0.950 . S
C461 C452 1.390 . S
C461 H454 0.950 . S
C461 C458 1.387 . S
C462 C463 1.387 . S
C462 H466 0.950 . S
C462 C471 1.390 . S
C463 C462 1.387 . S
C463 C465 1.387 . S
H464 C471 0.950 . S
C465 C463 1.387 . S
C465 C467 1.390 . S
C465 H469 0.950 . S
H466 C462 0.950 . S
C467 C465 1.390 . S
C467 C468 1.387 . S
C467 H470 0.950 . S
C468 C467 1.387 . S
C468 C471 1.387 . S
H469 C465 0.950 . S
H470 C467 0.950 . S
C471 C462 1.390 . S
C471 H464 0.950 . S
C471 C468 1.387 . S
C472 C473 1.387 . S
C472 H476 0.950 . S
C472 C481 1.390 . S
C473 C472 1.387 . S
C473 C475 1.389 1_554 S
H474 C481 0.950 . S
C475 C473 1.389 1_556 S
C475 C477 1.392 . S
C475 H479 0.946 1_455 S
H476 C472 0.950 . S
C477 C475 1.392 . S
C477 C478 1.387 1_556 S
C477 H480 0.950 . S
C478 C477 1.387 1_554 S
C478 C481 1.387 . S
H479 C475 0.946 1_655 S
H480 C477 0.950 . S
C481 C472 1.390 . S
C481 H474 0.950 . S
C481 C478 1.387 . S
C482 C483 1.387 . S
C482 H486 0.950 . S
C482 C491 1.390 . S
C483 C482 1.387 . S
C483 C485 1.387 1_544 S
H484 C491 0.950 . S
C485 C483 1.387 1_566 S
C485 C487 1.390 . S
C485 H489 0.950 . S
H486 C482 0.950 . S
C487 C485 1.390 . S
C487 C488 1.387 1_566 S
C487 H490 0.950 . S
C488 C487 1.387 1_544 S
C488 C491 1.387 . S
H489 C485 0.950 . S
H490 C487 0.950 . S
C491 C482 1.390 . S
C491 H484 0.950 . S
C491 C488 1.387 . S
C492 C493 1.387 . S
C492 H496 0.950 . S
C492 C501 1.390 . S
C493 C492 1.387 . S
C493 C495 1.387 . S
H494 C501 0.950 . S
C495 C493 1.387 . S
C495 C497 1.390 . S
C495 H499 0.950 . S
H496 C492 0.950 . S
C497 C495 1.390 . S
C497 C498 1.387 . S
C497 H500 0.950 . S
C498 C497 1.387 . S
C498 C501 1.387 . S
H499 C495 0.950 . S
H500 C497 0.950 . S
C501 C492 1.390 . S
C501 H494 0.950 . S
C501 C498 1.387 . S
C502 C503 1.387 . S
C502 H506 0.950 . S
C502 C511 1.390 . S
C503 C502 1.387 . S
C503 C505 1.387 1_556 S
H504 C511 0.950 . S
C505 C503 1.387 1_554 S
C505 C507 1.390 . S
C505 H509 0.950 . S
H506 C502 0.950 . S
C507 C505 1.390 . S
C507 C508 1.387 1_554 S
C507 H510 0.950 . S
C508 C507 1.387 1_556 S
C508 C511 1.387 . S
H509 C505 0.950 . S
H510 C507 0.950 . S
C511 C502 1.390 . S
C511 H504 0.950 . S
C511 C508 1.387 . S
C512 C513 1.387 . S
C512 H516 0.950 . S
C512 C521 1.390 . S
C513 C512 1.387 . S
C513 C515 1.387 1_655 S
H514 C521 0.950 . S
C515 C513 1.387 1_455 S
C515 C517 1.390 . S
C515 H519 0.950 . S
H516 C512 0.950 . S
C517 C515 1.390 . S
C517 C518 1.387 1_455 S
C517 H520 0.950 . S
C518 C517 1.387 1_655 S
C518 C521 1.387 . S
H519 C515 0.950 . S
H520 C517 0.950 . S
C521 C512 1.390 . S
C521 H514 0.950 . S
C521 C518 1.387 . S
C522 C523 1.387 . S
C522 H526 0.950 . S
C522 C531 1.390 . S
C523 C522 1.387 . S
C523 C525 1.387 1_565 S
H524 C531 0.950 . S
C525 C523 1.387 1_545 S
C525 C527 1.390 . S
C525 H529 0.950 . S
H526 C522 0.950 . S
C527 C525 1.390 . S
C527 C528 1.387 1_545 S
C527 H530 0.950 . S
C528 C527 1.387 1_565 S
C528 C531 1.387 . S
H529 C525 0.950 . S
H530 C527 0.950 . S
C531 C522 1.390 . S
C531 H524 0.950 . S
C531 C528 1.387 . S
C532 C533 1.387 . S
C532 H536 0.950 . S
C532 C541 1.390 . S
C533 C532 1.387 . S
C533 C535 1.387 . S
H534 C541 0.950 . S
C535 C533 1.387 . S
C535 C537 1.390 . S
C535 H539 0.950 . S
H536 C532 0.950 . S
C537 C535 1.390 . S
C537 C538 1.387 . S
C537 H540 0.950 . S
C538 C537 1.387 . S
C538 C541 1.387 . S
H539 C535 0.950 . S
H540 C537 0.950 . S
C541 C532 1.390 . S
C541 H534 0.950 . S
C541 C538 1.387 . S
C542 C543 1.387 . S
C542 H546 0.950 . S
C542 C551 1.390 . S
C543 C542 1.387 . S
C543 C545 1.387 . S
H544 C551 0.950 . S
C545 C543 1.387 . S
C545 C547 1.390 . S
C545 H549 0.950 . S
H546 C542 0.950 . S
C547 C545 1.390 . S
C547 C548 1.387 . S
C547 H550 0.950 . S
C548 C547 1.387 . S
C548 C551 1.387 . S
H549 C545 0.950 . S
H550 C547 0.950 . S
C551 C542 1.390 . S
C551 H544 0.950 . S
C551 C548 1.387 . S
C313 C125 2.200 1_545 S
C318 C175 2.223 1_545 S
C328 C215 1.868 . S
C323 C144 1.678 . S
C338 C234 2.235 . S
C333 C87 2.131 . S
C348 C295 1.538 1_455 S
C343 C106 1.517 1_455 S
C358 C154 2.221 1_564 S
C353 C49 2.200 . S
C363 C68 1.771 . S
C368 C194 1.872 . S
C373 C11 2.242 . S
C378 C255 2.234 1_554 S
C383 C30 1.516 . S
C388 C274 1.539 1_654 S
C398 C156 1.140 . S
C393 C97 1.167 . S
C408 C196 0.618 . S
C403 C116 0.625 1_545 S
C418 C252 1.507 . S
C413 C135 1.262 . S
C423 C78 0.704 . S
C428 C276 0.698 . S
C433 C21 1.171 1_455 S
C438 C177 1.144 . S
C448 C217 0.618 . S
C443 C40 0.624 . S
C458 C263 1.508 . S
C453 C59 1.264 . S
C463 C2 0.703 . S
C468 C297 0.704 . S
C473 C101 1.597 1_455 S
C478 C172 1.791 1_554 S
C483 C120 2.316 1_545 S
C488 C212 2.555 1_554 S
C498 C236 1.560 . S
C493 C139 1.593 . S
C508 C292 2.550 . S
C503 C82 2.304 1_556 S
C513 C25 1.594 . S
C518 C183 1.799 . S
C528 C223 2.554 . S
C523 C44 2.314 . S
C538 C257 1.564 . S
C533 C63 1.589 . S
C543 C6 2.310 . S
C548 C303 2.554 . S
