# Generated by pormake.
# Topology wbl, (4,4)-cn, num edge types: 1
# Building blocks:
#     Node 0, Type 0, BuildingBlock: NAWXER_clean_linker_0, # of connection points: 4
#     Node 1, Type 0, BuildingBlock: NAWXER_clean_linker_0, # of connection points: 4
#     Node 2, Type 0, BuildingBlock: NAWXER_clean_linker_0, # of connection points: 4
#     Node 3, Type 0, BuildingBlock: NAWXER_clean_linker_0, # of connection points: 4
#     Node 4, Type 0, BuildingBlock: NAWXER_clean_linker_0, # of connection points: 4
#     Node 5, Type 0, BuildingBlock: NAWXER_clean_linker_0, # of connection points: 4
#     Node 6, Type 0, BuildingBlock: NAWXER_clean_linker_0, # of connection points: 4
#     Node 7, Type 0, BuildingBlock: NAWXER_clean_linker_0, # of connection points: 4
#     Node 8, Type 1, BuildingBlock: QUQFOY_clean_sbu_1, # of connection points: 4
#     Node 9, Type 1, BuildingBlock: QUQFOY_clean_sbu_1, # of connection points: 4
#     Node 10, Type 1, BuildingBlock: QUQFOY_clean_sbu_1, # of connection points: 4
#     Node 11, Type 1, BuildingBlock: QUQFOY_clean_sbu_1, # of connection points: 4
#     Node 12, Type 1, BuildingBlock: QUQFOY_clean_sbu_1, # of connection points: 4
#     Node 13, Type 1, BuildingBlock: QUQFOY_clean_sbu_1, # of connection points: 4
#     Node 14, Type 1, BuildingBlock: QUQFOY_clean_sbu_1, # of connection points: 4
#     Node 15, Type 1, BuildingBlock: QUQFOY_clean_sbu_1, # of connection points: 4
#     Edge 16, Type (0, 1), BuildingBlock: AJUNOK_clean_linker_0, # of connection points: 2
#     Edge 17, Type (0, 1), BuildingBlock: AJUNOK_clean_linker_0, # of connection points: 2
#     Edge 18, Type (0, 1), BuildingBlock: AJUNOK_clean_linker_0, # of connection points: 2
#     Edge 19, Type (0, 1), BuildingBlock: AJUNOK_clean_linker_0, # of connection points: 2
#     Edge 20, Type (0, 1), BuildingBlock: AJUNOK_clean_linker_0, # of connection points: 2
#     Edge 21, Type (0, 1), BuildingBlock: AJUNOK_clean_linker_0, # of connection points: 2
#     Edge 22, Type (0, 1), BuildingBlock: AJUNOK_clean_linker_0, # of connection points: 2
#     Edge 23, Type (0, 1), BuildingBlock: AJUNOK_clean_linker_0, # of connection points: 2
#     Edge 24, Type (0, 1), BuildingBlock: AJUNOK_clean_linker_0, # of connection points: 2
#     Edge 25, Type (0, 1), BuildingBlock: AJUNOK_clean_linker_0, # of connection points: 2
#     Edge 26, Type (0, 1), BuildingBlock: AJUNOK_clean_linker_0, # of connection points: 2
#     Edge 27, Type (0, 1), BuildingBlock: AJUNOK_clean_linker_0, # of connection points: 2
#     Edge 28, Type (0, 1), BuildingBlock: AJUNOK_clean_linker_0, # of connection points: 2
#     Edge 29, Type (0, 1), BuildingBlock: AJUNOK_clean_linker_0, # of connection points: 2
#     Edge 30, Type (0, 1), BuildingBlock: AJUNOK_clean_linker_0, # of connection points: 2
#     Edge 31, Type (0, 1), BuildingBlock: AJUNOK_clean_linker_0, # of connection points: 2
#     Edge 32, Type (0, 1), BuildingBlock: AJUNOK_clean_linker_0, # of connection points: 2
#     Edge 33, Type (0, 1), BuildingBlock: AJUNOK_clean_linker_0, # of connection points: 2
#     Edge 34, Type (0, 1), BuildingBlock: AJUNOK_clean_linker_0, # of connection points: 2
#     Edge 35, Type (0, 1), BuildingBlock: AJUNOK_clean_linker_0, # of connection points: 2
#     Edge 36, Type (0, 1), BuildingBlock: AJUNOK_clean_linker_0, # of connection points: 2
#     Edge 37, Type (0, 1), BuildingBlock: AJUNOK_clean_linker_0, # of connection points: 2
#     Edge 38, Type (0, 1), BuildingBlock: AJUNOK_clean_linker_0, # of connection points: 2
#     Edge 39, Type (0, 1), BuildingBlock: AJUNOK_clean_linker_0, # of connection points: 2
#     Edge 40, Type (0, 1), BuildingBlock: AJUNOK_clean_linker_0, # of connection points: 2
#     Edge 41, Type (0, 1), BuildingBlock: AJUNOK_clean_linker_0, # of connection points: 2
#     Edge 42, Type (0, 1), BuildingBlock: AJUNOK_clean_linker_0, # of connection points: 2
#     Edge 43, Type (0, 1), BuildingBlock: AJUNOK_clean_linker_0, # of connection points: 2
#     Edge 44, Type (0, 1), BuildingBlock: AJUNOK_clean_linker_0, # of connection points: 2
#     Edge 45, Type (0, 1), BuildingBlock: AJUNOK_clean_linker_0, # of connection points: 2
#     Edge 46, Type (0, 1), BuildingBlock: AJUNOK_clean_linker_0, # of connection points: 2
#     Edge 47, Type (0, 1), BuildingBlock: AJUNOK_clean_linker_0, # of connection points: 2
# Relax obj value: 0.183
# Max RMSD: 0.218
# Mean RMSD: 0.163
data_MOF--net-wbl--node1-QUQFOY_clean_sbu_1--node2-NAWXER_clean_linker_0--edge1-AJUNOK_clean_linker_0
_symmetry_space_group_name_H-M    P1
_symmetry_Int_Tables_number       1
_symmetry_cell_setting            triclinic
loop_
_symmetry_equiv_pos_as_xyz
'x, y, z'
_cell_length_a     35.147144
_cell_length_b     35.159924
_cell_length_c     62.564051
_cell_angle_alpha  93.413699
_cell_angle_beta   93.484324
_cell_angle_gamma 90.271216
loop_
_atom_site_label
_atom_site_type_symbol
_atom_site_fract_x
_atom_site_fract_y
_atom_site_fract_z
_atom_type_partial_charge
C0 C 0.21263 0.98225 0.41073 0.0
C1 C 0.23244 0.00088 0.42858 0.0
C2 C 0.1983 0.00303 0.39365 0.0
C3 C 0.20397 0.0427 0.39405 0.0
C4 C 0.24021 0.04006 0.42828 0.0
C5 C 0.22589 0.06078 0.41126 0.0
C6 C 0.18108 0.06628 0.37928 0.0
C7 C 0.25931 0.00226 0.33644 0.0
C8 C 0.24104 0.97508 0.32188 0.0
C9 C 0.23806 0.02896 0.34798 0.0
C10 C 0.19812 0.02903 0.34514 0.0
C11 C 0.20111 0.9751 0.31904 0.0
C12 C 0.17985 0.00221 0.33037 0.0
C13 C 0.17553 0.0579 0.35692 0.0
C14 C 0.06103 0.18096 0.33342 0.0
C15 C 0.03306 0.15797 0.32195 0.0
C16 C 0.09329 0.16445 0.34314 0.0
C17 C 0.09778 0.12466 0.34177 0.0
C18 C 0.03901 0.1185 0.31935 0.0
C19 C 0.07118 0.10202 0.32907 0.0
C20 C 0.12786 0.10605 0.35497 0.0
C21 C 0.04762 0.1563 0.40287 0.0
C22 C 0.06444 0.18329 0.41808 0.0
C23 C 0.07001 0.13516 0.3889 0.0
C24 C 0.10965 0.1409 0.38972 0.0
C25 C 0.10395 0.18981 0.41851 0.0
C26 C 0.1264 0.16858 0.40452 0.0
C27 C 0.13402 0.11481 0.37725 0.0
H28 H 0.20625 0.95206 0.41059 0.0
H29 H 0.18061 0.98846 0.38091 0.0
H30 H 0.25612 0.05495 0.44164 0.0
H31 H 0.23044 0.09135 0.41202 0.0
H32 H 0.29005 0.00249 0.33912 0.0
H33 H 0.25287 0.04978 0.35898 0.0
H34 H 0.18644 0.95429 0.30796 0.0
H35 H 0.14908 0.00189 0.32784 0.0
H36 H 0.05706 0.21142 0.33579 0.0
H37 H 0.11388 0.18258 0.35251 0.0
H38 H 0.01804 0.1002 0.31038 0.0
H39 H 0.07417 0.07133 0.32765 0.0
H40 H 0.01724 0.15058 0.40232 0.0
H41 H 0.05651 0.11319 0.37811 0.0
H42 H 0.1177 0.20988 0.43037 0.0
H43 H 0.15701 0.17296 0.40567 0.0
N44 N 0.16035 0.09463 0.38844 0.0
N45 N 0.14884 0.07789 0.34564 0.0
C46 C 0.93286 0.61144 0.6524 0.0
C47 C 0.93296 0.57165 0.65329 0.0
C48 C 0.95708 0.62931 0.63913 0.0
C49 C 0.98162 0.60774 0.62639 0.0
C50 C 0.9554 0.54985 0.63941 0.0
C51 C 0.9798 0.56776 0.62618 0.0
C52 C 0.01361 0.62727 0.61704 0.0
C53 C 0.00567 0.53253 0.55906 0.0
C54 C 0.96573 0.533 0.55591 0.0
C55 C 0.02501 0.56208 0.57107 0.0
C56 C 0.00475 0.5922 0.58054 0.0
C57 C 0.94576 0.56467 0.56412 0.0
C58 C 0.96513 0.59406 0.57635 0.0
C59 C 0.02506 0.61968 0.59598 0.0
C60 C 0.18257 0.6921 0.60138 0.0
C61 C 0.18042 0.71174 0.58245 0.0
C62 C 0.1503 0.67381 0.60804 0.0
C63 C 0.11518 0.67574 0.59614 0.0
C64 C 0.14605 0.7112 0.56977 0.0
C65 C 0.11371 0.69331 0.57655 0.0
C66 C 0.07975 0.65994 0.60391 0.0
C67 C 0.12225 0.74942 0.65607 0.0
C68 C 0.12658 0.73462 0.67643 0.0
C69 C 0.10352 0.72789 0.63894 0.0
C70 C 0.08992 0.69099 0.64195 0.0
C71 C 0.11328 0.69775 0.67929 0.0
C72 C 0.09514 0.67622 0.66226 0.0
C73 C 0.06792 0.66787 0.6249 0.0
H74 H 0.91565 0.62882 0.66289 0.0
H75 H 0.95819 0.66015 0.63972 0.0
H76 H 0.95625 0.51913 0.63999 0.0
H77 H 0.99915 0.5504 0.61702 0.0
H78 H 0.02185 0.50819 0.55344 0.0
H79 H 0.05561 0.56013 0.57412 0.0
H80 H 0.915 0.5659 0.56184 0.0
H81 H 0.94905 0.61749 0.5832 0.0
H82 H 0.20894 0.69176 0.61127 0.0
H83 H 0.15257 0.65907 0.62277 0.0
H84 H 0.1437 0.72625 0.55513 0.0
H85 H 0.08712 0.69459 0.56692 0.0
H86 H 0.13239 0.77788 0.6536 0.0
H87 H 0.09911 0.74024 0.62355 0.0
H88 H 0.11681 0.68562 0.6948 0.0
H89 H 0.08492 0.64789 0.66501 0.0
N90 N 0.03542 0.65113 0.63051 0.0
N91 N 0.05771 0.63631 0.59022 0.0
C92 C 0.5854 0.43383 0.88488 0.0
C93 C 0.61304 0.44993 0.89999 0.0
C94 C 0.56658 0.45672 0.87001 0.0
C95 C 0.57536 0.49574 0.87016 0.0
C96 C 0.62377 0.48825 0.89881 0.0
C97 C 0.60492 0.51099 0.88413 0.0
C98 C 0.54863 0.52225 0.85995 0.0
C99 C 0.63655 0.50109 0.81209 0.0
C100 C 0.62381 0.47422 0.79569 0.0
C101 C 0.6109 0.51827 0.82571 0.0
C102 C 0.57197 0.50915 0.82309 0.0
C103 C 0.58473 0.46531 0.79288 0.0
C104 C 0.55885 0.48304 0.8064 0.0
C105 C 0.54549 0.52756 0.8378 0.0
C106 C 0.45511 0.67274 0.83652 0.0
C107 C 0.4255 0.66367 0.82094 0.0
C108 C 0.48019 0.64458 0.8433 0.0
C109 C 0.47579 0.60678 0.83482 0.0
C110 C 0.4224 0.62624 0.81168 0.0
C111 C 0.44753 0.59807 0.81847 0.0
C112 C 0.49937 0.57614 0.84374 0.0
C113 C 0.42247 0.61548 0.89677 0.0
C114 C 0.44255 0.62748 0.9161 0.0
C115 C 0.44176 0.59764 0.88001 0.0
C116 C 0.48145 0.59242 0.88228 0.0
C117 C 0.48218 0.62296 0.91814 0.0
C118 C 0.5014 0.60558 0.90143 0.0
C119 C 0.50248 0.57041 0.86595 0.0
H120 H 0.57646 0.40444 0.88558 0.0
H121 H 0.5433 0.44468 0.85958 0.0
H122 H 0.64523 0.50123 0.91016 0.0
H123 H 0.61173 0.54113 0.88463 0.0
H124 H 0.66658 0.50818 0.81467 0.0
H125 H 0.62147 0.53871 0.83836 0.0
H126 H 0.57432 0.44469 0.7803 0.0
H127 H 0.5288 0.47591 0.80409 0.0
H128 H 0.45791 0.7012 0.8441 0.0
H129 H 0.5023 0.65206 0.85568 0.0
H130 H 0.39993 0.6186 0.79954 0.0
H131 H 0.4439 0.56917 0.8116 0.0
H132 H 0.39183 0.61865 0.89496 0.0
H133 H 0.42554 0.58691 0.86562 0.0
H134 H 0.49823 0.63241 0.93285 0.0
H135 H 0.53196 0.60188 0.9036 0.0
N136 N 0.52709 0.54379 0.87309 0.0
N137 N 0.52084 0.5543 0.83039 0.0
C138 C 0.52648 0.92183 0.08586 0.0
C139 C 0.49741 0.9329 0.07119 0.0
C140 C 0.55139 0.94878 0.09619 0.0
C141 C 0.54714 0.98757 0.09255 0.0
C142 C 0.49294 0.97169 0.06752 0.0
C143 C 0.51793 0.99886 0.07801 0.0
C144 C 0.57487 0.0156 0.1029 0.0
C145 C 0.512 0.96969 0.15723 0.0
C146 C 0.5352 0.95308 0.1732 0.0
C147 C 0.52835 0.9897 0.14129 0.0
C148 C 0.56823 0.993 0.14088 0.0
C149 C 0.57495 0.95734 0.17303 0.0
C150 C 0.5912 0.97678 0.15703 0.0
C151 C 0.58676 0.01554 0.12494 0.0
C152 C 0.69415 0.13819 0.14847 0.0
C153 C 0.72176 0.117 0.15968 0.0
C154 C 0.66833 0.11985 0.13329 0.0
C155 C 0.67007 0.08026 0.12925 0.0
C156 C 0.72589 0.07814 0.15384 0.0
C157 C 0.69994 0.05983 0.13889 0.0
C158 C 0.63683 0.05902 0.11932 0.0
C159 C 0.70113 0.09865 0.06516 0.0
C160 C 0.68488 0.13269 0.05831 0.0
C161 C 0.68089 0.07479 0.07759 0.0
C162 C 0.64376 0.08407 0.08297 0.0
C163 C 0.64701 0.14095 0.063 0.0
C164 C 0.62655 0.11669 0.07511 0.0
C165 C 0.62381 0.06087 0.09774 0.0
H166 H 0.53016 0.89215 0.08922 0.0
H167 H 0.57435 0.93915 0.10683 0.0
H168 H 0.47072 0.98082 0.05624 0.0
H169 H 0.51451 0.02862 0.07478 0.0
H170 H 0.48126 0.96726 0.15708 0.0
H171 H 0.50976 0.00307 0.12957 0.0
H172 H 0.59365 0.94617 0.18551 0.0
H173 H 0.62198 0.97935 0.15741 0.0
H174 H 0.69049 0.16822 0.15272 0.0
H175 H 0.64514 0.13595 0.12616 0.0
H176 H 0.74744 0.06141 0.16201 0.0
H177 H 0.70157 0.0292 0.13597 0.0
H178 H 0.72978 0.09084 0.06129 0.0
H179 H 0.69443 0.0494 0.08333 0.0
H180 H 0.63369 0.167 0.05806 0.0
H181 H 0.59788 0.12424 0.07912 0.0
N182 N 0.59342 0.03883 0.09016 0.0
N183 N 0.61762 0.03693 0.13209 0.0
C184 C 0.08837 0.71272 0.91345 0.0
C185 C 0.10963 0.6965 0.89692 0.0
C186 C 0.06937 0.68924 0.92682 0.0
C187 C 0.07142 0.6494 0.92373 0.0
C188 C 0.11356 0.65672 0.89495 0.0
C189 C 0.09444 0.63345 0.90809 0.0
C190 C 0.04524 0.62402 0.93393 0.0
C191 C 0.13949 0.64627 0.984 0.0
C192 C 0.13133 0.67961 0.9963 0.0
C193 C 0.11074 0.62693 0.97141 0.0
C194 C 0.0733 0.64039 0.97104 0.0
C195 C 0.09351 0.69247 0.99645 0.0
C196 C 0.06453 0.67274 0.98395 0.0
C197 C 0.04433 0.62122 0.95622 0.0
C198 C 0.95156 0.47735 0.96061 0.0
C199 C 0.92641 0.48832 0.97641 0.0
C200 C 0.97531 0.50435 0.95254 0.0
C201 C 0.97392 0.54286 0.95991 0.0
C202 C 0.9263 0.52656 0.98443 0.0
C203 C 0.95004 0.55353 0.97634 0.0
C204 C 0.99709 0.57207 0.95049 0.0
C205 C 0.91321 0.53088 0.89505 0.0
C206 C 0.93121 0.51656 0.87684 0.0
C207 C 0.93482 0.5487 0.91242 0.0
C208 C 0.97464 0.55185 0.91179 0.0
C209 C 0.97102 0.5186 0.87663 0.0
C210 C 0.99249 0.53608 0.89391 0.0
C211 C 0.9979 0.57525 0.92811 0.0
H212 H 0.0846 0.74327 0.91521 0.0
H213 H 0.05123 0.70209 0.93859 0.0
H214 H 0.1302 0.64347 0.88257 0.0
H215 H 0.09636 0.6028 0.90543 0.0
H216 H 0.16847 0.63606 0.9834 0.0
H217 H 0.11788 0.60195 0.9615 0.0
H218 H 0.08662 0.71809 0.00586 0.0
H219 H 0.03564 0.68338 0.98378 0.0
H220 H 0.95197 0.4482 0.95398 0.0
H221 H 0.9943 0.49522 0.94027 0.0
H222 H 0.90733 0.53569 0.99672 0.0
H223 H 0.94888 0.58296 0.98246 0.0
H224 H 0.88245 0.52984 0.8954 0.0
H225 H 0.92034 0.56139 0.92584 0.0
H226 H 0.98548 0.5075 0.8628 0.0
H227 H 0.02313 0.53824 0.89305 0.0
N228 N 0.02204 0.60096 0.9208 0.0
N229 N 0.02036 0.59532 0.96379 0.0
C230 C 0.46643 0.58863 0.15501 0.0
C231 C 0.48346 0.60539 0.13807 0.0
C232 C 0.48778 0.56514 0.16851 0.0
C233 C 0.52647 0.5582 0.16525 0.0
C234 C 0.52185 0.5977 0.13466 0.0
C235 C 0.54307 0.57457 0.1481 0.0
C236 C 0.54996 0.53248 0.17857 0.0
C237 C 0.52511 0.63133 0.22264 0.0
C238 C 0.49889 0.6235 0.23787 0.0
C239 C 0.54165 0.60178 0.21079 0.0
C240 C 0.53209 0.56377 0.21377 0.0
C241 C 0.48901 0.58552 0.24087 0.0
C242 C 0.50592 0.5557 0.22901 0.0
C243 C 0.55068 0.5331 0.2012 0.0
C244 C 0.69386 0.45379 0.22537 0.0
C245 C 0.6837 0.42038 0.23504 0.0
C246 C 0.6662 0.47527 0.21466 0.0
C247 C 0.62776 0.46404 0.21359 0.0
C248 C 0.64494 0.40961 0.2342 0.0
C249 C 0.61717 0.43151 0.22376 0.0
C250 C 0.59913 0.48564 0.20115 0.0
C251 C 0.64655 0.40652 0.14735 0.0
C252 C 0.66459 0.42753 0.13241 0.0
C253 C 0.62758 0.42548 0.16391 0.0
C254 C 0.6267 0.46548 0.16552 0.0
C255 C 0.66603 0.46734 0.13507 0.0
C256 C 0.64719 0.48615 0.15147 0.0
C257 C 0.59932 0.48628 0.17869 0.0
H258 H 0.43673 0.59375 0.15781 0.0
H259 H 0.4739 0.55201 0.18122 0.0
H260 H 0.53547 0.60919 0.12134 0.0
H261 H 0.57268 0.56945 0.14502 0.0
H262 H 0.53304 0.66044 0.22005 0.0
H263 H 0.56226 0.60864 0.19937 0.0
H264 H 0.46894 0.579 0.25263 0.0
H265 H 0.49845 0.52648 0.23162 0.0
H266 H 0.72335 0.46304 0.2258 0.0
H267 H 0.67484 0.50046 0.20697 0.0
H268 H 0.63616 0.38353 0.24092 0.0
H269 H 0.58763 0.42233 0.22295 0.0
H270 H 0.645 0.37572 0.14538 0.0
H271 H 0.61144 0.40905 0.17439 0.0
H272 H 0.67983 0.48394 0.12366 0.0
H273 H 0.64674 0.51703 0.15242 0.0
N274 N 0.57455 0.50929 0.16835 0.0
N275 N 0.57499 0.50934 0.21171 0.0
C276 C 0.53489 0.95117 0.41638 0.0
C277 C 0.50879 0.96038 0.39967 0.0
C278 C 0.55103 0.97995 0.43049 0.0
C279 C 0.54158 0.01822 0.42781 0.0
C280 C 0.49741 0.99829 0.39791 0.0
C281 C 0.51405 0.02711 0.41175 0.0
C282 C 0.56533 0.04888 0.43886 0.0
C283 C 0.48843 0.01325 0.48801 0.0
C284 C 0.50608 0.98799 0.502 0.0
C285 C 0.51012 0.03435 0.47494 0.0
C286 C 0.54991 0.03089 0.47576 0.0
C287 C 0.54595 0.98463 0.50296 0.0
C288 C 0.56782 0.00645 0.49013 0.0
C289 C 0.5723 0.0525 0.46128 0.0
C290 C 0.67853 0.1896 0.47122 0.0
C291 C 0.70877 0.17452 0.48363 0.0
C292 C 0.64796 0.1662 0.46337 0.0
C293 C 0.64741 0.12752 0.46787 0.0
C294 C 0.70691 0.13653 0.48926 0.0
C295 C 0.6763 0.11324 0.48153 0.0
C296 C 0.61846 0.10106 0.45733 0.0
C297 C 0.69253 0.13554 0.40458 0.0
C298 C 0.67255 0.1498 0.38673 0.0
C299 C 0.67278 0.11954 0.42065 0.0
C300 C 0.63265 0.11843 0.41936 0.0
C301 C 0.63261 0.14893 0.38541 0.0
C302 C 0.61284 0.13347 0.40161 0.0
C303 C 0.61113 0.09767 0.4348 0.0
H304 H 0.54421 0.92205 0.4178 0.0
H305 H 0.57287 0.97258 0.44248 0.0
H306 H 0.4776 0.00588 0.38493 0.0
H307 H 0.50681 0.05652 0.40929 0.0
H308 H 0.45768 0.01586 0.48678 0.0
H309 H 0.4958 0.05324 0.46405 0.0
H310 H 0.56004 0.96506 0.51353 0.0
H311 H 0.59852 0.00344 0.49096 0.0
H312 H 0.67942 0.21891 0.46682 0.0
H313 H 0.62548 0.17789 0.45317 0.0
H314 H 0.72977 0.12458 0.49909 0.0
H315 H 0.67619 0.08358 0.48533 0.0
H316 H 0.72341 0.13528 0.4056 0.0
H317 H 0.68896 0.10671 0.43358 0.0
H318 H 0.61678 0.15933 0.37157 0.0
H319 H 0.58197 0.13238 0.40003 0.0
N320 N 0.58476 0.07169 0.42652 0.0
N321 N 0.59883 0.07829 0.46977 0.0
C322 C 0.21421 0.05168 0.67367 0.0
C323 C 0.19735 0.03121 0.65546 0.0
C324 C 0.19181 0.0747 0.68697 0.0
C325 C 0.15233 0.07735 0.68223 0.0
C326 C 0.15768 0.03296 0.65138 0.0
C327 C 0.13552 0.05569 0.66458 0.0
C328 C 0.12868 0.1063 0.69315 0.0
C329 C 0.15112 0.0209 0.74242 0.0
C330 C 0.18082 0.03296 0.75734 0.0
C331 C 0.13352 0.0466 0.72895 0.0
C332 C 0.1451 0.08491 0.73025 0.0
C333 C 0.19236 0.0714 0.75874 0.0
C334 C 0.17416 0.0974 0.74546 0.0
C335 C 0.12645 0.11137 0.71559 0.0
C336 C 0.98353 0.20305 0.7195 0.0
C337 C 0.99437 0.23807 0.73007 0.0
C338 C 0.01113 0.1762 0.71429 0.0
C339 C 0.04989 0.18391 0.71969 0.0
C340 C 0.03293 0.24475 0.73664 0.0
C341 C 0.06054 0.21771 0.73157 0.0
C342 C 0.07913 0.15901 0.71051 0.0
C343 C 0.03551 0.23213 0.65655 0.0
C344 C 0.01774 0.21051 0.63909 0.0
C345 C 0.05542 0.21397 0.67308 0.0
C346 C 0.05749 0.174 0.67236 0.0
C347 C 0.01899 0.1706 0.6388 0.0
C348 C 0.03877 0.15256 0.65522 0.0
C349 C 0.08167 0.15394 0.68814 0.0
H350 H 0.24466 0.05046 0.67737 0.0
H351 H 0.20553 0.09166 0.7003 0.0
H352 H 0.14378 0.01789 0.63741 0.0
H353 H 0.10518 0.05739 0.66051 0.0
H354 H 0.1422 0.99127 0.74078 0.0
H355 H 0.11097 0.03653 0.71738 0.0
H356 H 0.21544 0.08118 0.77002 0.0
H357 H 0.18334 0.12694 0.74667 0.0
H358 H 0.95399 0.19727 0.71432 0.0
H359 H 0.00244 0.15013 0.70515 0.0
H360 H 0.04181 0.27141 0.74509 0.0
H361 H 0.09031 0.22411 0.73583 0.0
H362 H 0.0354 0.26297 0.65696 0.0
H363 H 0.07039 0.23113 0.68589 0.0
H364 H 0.00528 0.15332 0.62558 0.0
H365 H 0.04001 0.12171 0.65435 0.0
N366 N 0.1062 0.1278 0.68041 0.0
N367 N 0.1017 0.13764 0.72356 0.0
O368 O 0.36237 0.73166 0.99037 0.0
Cd369 Cd 0.33968 0.76173 0.01592 0.0
Cd370 Cd 0.3925 0.72063 0.0393 0.0
O371 O 0.39331 0.6906 0.01009 0.0
O372 O 0.28674 0.77462 0.00659 0.0
O373 O 0.3013 0.73416 0.03164 0.0
C374 C 0.27562 0.75047 0.01971 0.0
C375 C 0.41172 0.68778 0.06963 0.0
C376 C 0.38173 0.70136 0.9918 0.0
C377 C 0.401 0.80736 0.03762 0.0
O378 O 0.4147 0.77508 0.0417 0.0
O379 O 0.36781 0.80999 0.02874 0.0
O380 O 0.43521 0.69681 0.05581 0.0
O381 O 0.37624 0.6958 0.06597 0.0
O382 O 0.43241 0.84356 0.32352 0.0
Cd383 Cd 0.4007 0.82515 0.29605 0.0
Cd384 Cd 0.46251 0.85007 0.27687 0.0
O385 O 0.47465 0.87574 0.30692 0.0
O386 O 0.34673 0.83071 0.30334 0.0
O387 O 0.37477 0.86765 0.28135 0.0
C388 C 0.34567 0.86059 0.29225 0.0
C389 C 0.47971 0.88099 0.2467 0.0
C390 C 0.46033 0.86675 0.32411 0.0
C391 C 0.44467 0.76504 0.27517 0.0
O392 O 0.46823 0.79202 0.27354 0.0
O393 O 0.41177 0.77191 0.28178 0.0
O394 O 0.50472 0.86613 0.25949 0.0
O395 O 0.4445 0.87995 0.25145 0.0
O396 O 0.29549 0.89002 0.50299 0.0
Cd397 Cd 0.32783 0.86835 0.52776 0.0
Cd398 Cd 0.28143 0.9138 0.55389 0.0
O399 O 0.27066 0.93505 0.52375 0.0
O400 O 0.38108 0.86422 0.51904 0.0
O401 O 0.36209 0.90734 0.5434 0.0
C402 C 0.38852 0.89441 0.53146 0.0
C403 C 0.26494 0.95222 0.58371 0.0
C404 C 0.27642 0.92047 0.5051 0.0
C405 C 0.28181 0.82542 0.555 0.0
O406 O 0.26908 0.85825 0.55999 0.0
O407 O 0.30796 0.82134 0.54195 0.0
O408 O 0.23971 0.9366 0.57022 0.0
O409 O 0.30033 0.94837 0.57968 0.0
O410 O 0.23928 0.81028 0.75429 0.0
Cd411 Cd 0.26645 0.83464 0.78179 0.0
Cd412 Cd 0.21914 0.78816 0.80171 0.0
O413 O 0.19081 0.7921 0.77196 0.0
O414 O 0.28037 0.88741 0.77557 0.0
O415 O 0.23535 0.8734 0.79727 0.0
C416 C 0.25263 0.89859 0.787 0.0
C417 C 0.18084 0.77105 0.82928 0.0
C418 C 0.20532 0.79783 0.7543 0.0
C419 C 0.30491 0.77214 0.80216 0.0
O420 O 0.27095 0.76055 0.80377 0.0
O421 O 0.31091 0.80506 0.79567 0.0
O422 O 0.18662 0.74841 0.81295 0.0
O423 O 0.196 0.80461 0.82992 0.0
O424 O 0.91762 0.29459 0.5633 0.0
Cd425 Cd 0.8914 0.31836 0.53707 0.0
Cd426 Cd 0.93413 0.26481 0.51396 0.0
O427 O 0.95735 0.25972 0.54472 0.0
O428 O 0.87726 0.37056 0.54697 0.0
O429 O 0.92046 0.35817 0.52318 0.0
C430 C 0.90266 0.38288 0.53495 0.0
C431 C 0.97439 0.24575 0.48668 0.0
C432 C 0.94581 0.27223 0.56265 0.0
C433 C 0.84647 0.26083 0.51034 0.0
O434 O 0.87876 0.24704 0.50633 0.0
O435 O 0.84436 0.29136 0.52207 0.0
O436 O 0.96016 0.22196 0.49886 0.0
O437 O 0.96654 0.28129 0.49022 0.0
O438 O 0.84708 0.41837 0.79512 0.0
Cd439 Cd 0.82236 0.3943 0.76694 0.0
Cd440 Cd 0.86802 0.44409 0.74852 0.0
O441 O 0.86842 0.46799 0.77953 0.0
O442 O 0.77043 0.37771 0.77329 0.0
O443 O 0.78184 0.42587 0.75316 0.0
C444 C 0.75775 0.40628 0.76298 0.0
C445 C 0.87843 0.48676 0.7219 0.0
C446 C 0.86207 0.45138 0.79648 0.0
C447 C 0.88476 0.35883 0.74447 0.0
O448 O 0.8959 0.39308 0.74347 0.0
O449 O 0.85257 0.3518 0.75167 0.0
O450 O 0.90422 0.47972 0.73653 0.0
O451 O 0.84584 0.46988 0.72231 0.0
O452 O 0.75546 0.35573 0.05219 0.0
Cd453 Cd 0.7755 0.32628 0.02588 0.0
Cd454 Cd 0.72473 0.37034 0.00449 0.0
O455 O 0.70256 0.37124 0.03437 0.0
O456 O 0.79153 0.27638 0.03635 0.0
O457 O 0.74135 0.28358 0.0138 0.0
C458 C 0.76129 0.26193 0.02615 0.0
C459 C 0.68267 0.38378 0.97527 0.0
C460 C 0.72173 0.36845 0.05209 0.0
C461 C 0.81033 0.38471 0.0026 0.0
O462 O 0.77635 0.39692 0.00142 0.0
O463 O 0.81725 0.35234 0.00991 0.0
O464 O 0.6911 0.4084 0.99085 0.0
O465 O 0.69666 0.35009 0.97663 0.0
O466 O 0.81425 0.21637 0.23809 0.0
Cd467 Cd 0.82907 0.25304 0.26403 0.0
Cd468 Cd 0.79897 0.19884 0.28704 0.0
O469 O 0.77823 0.18074 0.25654 0.0
O470 O 0.82606 0.30485 0.25305 0.0
O471 O 0.78595 0.28326 0.27562 0.0
C472 C 0.79545 0.3096 0.26331 0.0
C473 C 0.75946 0.1888 0.31511 0.0
C474 C 0.79018 0.18952 0.2387 0.0
C475 C 0.88466 0.21385 0.2919 0.0
O476 O 0.85633 0.19261 0.29492 0.0
O477 O 0.87998 0.24312 0.28105 0.0
O478 O 0.77511 0.16099 0.30472 0.0
O479 O 0.76573 0.22285 0.30943 0.0
C480 C 0.25732 0.90695 0.31337 0.0
C481 C 0.26385 0.94573 0.31057 0.0
C482 C 0.28248 0.87905 0.30587 0.0
C483 C 0.31487 0.88889 0.29509 0.0
H484 H 0.23386 0.89832 0.32251 0.0
H485 H 0.27751 0.84977 0.30952 0.0
S486 S 0.34108 0.98634 0.28096 0.0
N487 N 0.30231 0.99237 0.29436 0.0
N488 N 0.34946 0.94012 0.28 0.0
C489 C 0.3199 0.92739 0.29073 0.0
C490 C 0.29449 0.95578 0.2986 0.0
C491 C 0.22678 0.73307 0.55654 0.0
C492 C 0.21224 0.73647 0.57704 0.0
C493 C 0.25227 0.76039 0.54999 0.0
C494 C 0.26323 0.79233 0.5636 0.0
H495 H 0.21721 0.70997 0.54523 0.0
H496 H 0.26131 0.75786 0.53372 0.0
S497 S 0.23524 0.81288 0.61932 0.0
N498 N 0.21262 0.77279 0.61132 0.0
N499 N 0.25987 0.82434 0.59896 0.0
C500 C 0.25039 0.79491 0.58449 0.0
C501 C 0.22503 0.76692 0.59123 0.0
C502 C 0.35731 0.68232 0.81681 0.0
C503 C 0.39587 0.69214 0.81572 0.0
C504 C 0.32846 0.70858 0.81266 0.0
C505 C 0.33686 0.74588 0.80713 0.0
H506 H 0.34931 0.65415 0.8212 0.0
H507 H 0.29926 0.6993 0.81375 0.0
S508 S 0.43374 0.78554 0.8018 0.0
N509 N 0.44131 0.74138 0.80855 0.0
N510 N 0.38703 0.79109 0.80071 0.0
C511 C 0.37546 0.75611 0.80598 0.0
C512 C 0.40495 0.72922 0.81032 0.0
C513 C 0.43253 0.90569 0.06023 0.0
C514 C 0.47244 0.90341 0.0597 0.0
C515 C 0.40898 0.87515 0.05204 0.0
C516 C 0.42481 0.84149 0.04328 0.0
H517 H 0.4196 0.93043 0.0679 0.0
H518 H 0.3785 0.87716 0.05355 0.0
S519 S 0.52699 0.82424 0.0348 0.0
N520 N 0.52618 0.86708 0.04708 0.0
N521 N 0.48219 0.80953 0.03216 0.0
C522 C 0.46443 0.83996 0.04146 0.0
C523 C 0.48819 0.871 0.04955 0.0
C524 C 0.19098 0.68429 0.02007 0.0
C525 C 0.16338 0.70222 0.00702 0.0
C526 C 0.22626 0.70182 0.02591 0.0
C527 C 0.23532 0.73767 0.01862 0.0
H528 H 0.18613 0.65554 0.0247 0.0
H529 H 0.2475 0.68584 0.0348 0.0
S530 S 0.17043 0.79879 0.98679 0.0
N531 N 0.14555 0.75945 0.98907 0.0
N532 N 0.21179 0.79263 1.00007 0.0
C533 C 0.20662 0.75729 0.00717 0.0
C534 C 0.17062 0.73949 0.00136 0.0
C535 C 0.44459 0.66469 0.24906 0.0
C536 C 0.48356 0.65562 0.25091 0.0
C537 C 0.4313 0.69938 0.25812 0.0
C538 C 0.45675 0.72587 0.26911 0.0
H539 H 0.42474 0.64592 0.23957 0.0
H540 H 0.40149 0.70642 0.25543 0.0
S541 S 0.56031 0.71215 0.28129 0.0
N542 N 0.54635 0.67335 0.26671 0.0
N543 N 0.52173 0.7383 0.28364 0.0
C544 C 0.49524 0.71563 0.27232 0.0
C545 C 0.50857 0.68053 0.26323 0.0
C546 C 0.48143 0.92384 0.5095 0.0
C547 C 0.48204 0.96341 0.51415 0.0
C548 C 0.45271 0.90093 0.5168 0.0
C549 C 0.42381 0.91678 0.52914 0.0
H550 H 0.50161 0.91093 0.49889 0.0
H551 H 0.45188 0.87097 0.51161 0.0
S552 S 0.41712 0.01832 0.54857 0.0
N553 N 0.4546 0.01695 0.53387 0.0
N554 N 0.4009 0.97408 0.54796 0.0
C555 C 0.4264 0.95588 0.53554 0.0
C556 C 0.45539 0.97918 0.52788 0.0
C557 C 0.23995 0.99729 0.76694 0.0
C558 C 0.20128 0.00428 0.76996 0.0
C559 C 0.25757 0.96444 0.77433 0.0
C560 C 0.23719 0.93757 0.7851 0.0
H561 H 0.25587 0.01581 0.75744 0.0
H562 H 0.28666 0.9589 0.77032 0.0
S563 S 0.13699 0.94692 0.80033 0.0
N564 N 0.14452 0.98487 0.7868 0.0
N565 N 0.17751 0.92331 0.80098 0.0
C566 C 0.19952 0.94635 0.79004 0.0
C567 C 0.18155 0.97962 0.78232 0.0
C568 C 0.67843 0.47608 0.77207 0.0
C569 C 0.65226 0.45453 0.78255 0.0
C570 C 0.71082 0.45923 0.76368 0.0
C571 C 0.71857 0.42035 0.76586 0.0
H572 H 0.67489 0.50659 0.7714 0.0
H573 H 0.73134 0.47752 0.75699 0.0
S574 S 0.65591 0.35064 0.78933 0.0
N575 N 0.63373 0.39171 0.79251 0.0
N576 N 0.6948 0.3599 0.77695 0.0
C577 C 0.69093 0.39793 0.77475 0.0
C578 C 0.65772 0.41508 0.78307 0.0
C579 C 0.69194 0.1801 0.03023 0.0
C580 C 0.70791 0.16108 0.04777 0.0
C581 C 0.71081 0.21095 0.02216 0.0
C582 C 0.74645 0.22405 0.0313 0.0
H583 H 0.66397 0.17194 0.02316 0.0
H584 H 0.69638 0.22578 0.00936 0.0
S585 S 0.80213 0.18185 0.07632 0.0
N586 N 0.76253 0.15622 0.07323 0.0
N587 N 0.79847 0.2132 0.05772 0.0
C588 C 0.7639 0.20358 0.0479 0.0
C589 C 0.74453 0.17239 0.05623 0.0
C590 C 0.96212 0.15711 0.32005 0.0
C591 C 0.99604 0.17418 0.31448 0.0
C592 C 0.92654 0.17095 0.31315 0.0
C593 C 0.9232 0.20247 0.30027 0.0
H594 H 0.96305 0.13278 0.32991 0.0
H595 H 0.90141 0.15634 0.31782 0.0
S596 S 0.0038 0.25772 0.28149 0.0
N597 N 0.0245 0.22452 0.29564 0.0
N598 N 0.95744 0.25081 0.28254 0.0
C599 C 0.95703 0.22034 0.2949 0.0
C600 C 0.99344 0.20616 0.30203 0.0
C601 C 0.91518 0.48388 0.55847 0.0
C602 C 0.94492 0.49813 0.54711 0.0
C603 C 0.8999 0.44748 0.55337 0.0
C604 C 0.91395 0.42366 0.5368 0.0
H605 H 0.90519 0.49994 0.57233 0.0
H606 H 0.87842 0.43723 0.56337 0.0
S607 S 0.98668 0.45032 0.49964 0.0
N608 N 0.98401 0.48796 0.51656 0.0
N609 N 0.95583 0.41895 0.50718 0.0
C610 C 0.94162 0.43865 0.52422 0.0
C611 C 0.95702 0.47598 0.52935 0.0
C612 C 0.74196 0.23198 0.50166 0.0
C613 C 0.7436 0.19733 0.48942 0.0
C614 C 0.77529 0.25283 0.50801 0.0
C615 C 0.81132 0.23985 0.50214 0.0
H616 H 0.71485 0.24254 0.50678 0.0
H617 H 0.77277 0.27895 0.51789 0.0
S618 S 0.82962 0.15234 0.468 0.0
N619 N 0.7831 0.15214 0.47026 0.0
N620 N 0.84578 0.19105 0.48191 0.0
C621 C 0.81289 0.20577 0.48913 0.0
C622 C 0.77902 0.18457 0.48285 0.0
C623 C 0.93231 0.26183 0.74324 0.0
C624 C 0.96586 0.26854 0.73287 0.0
C625 C 0.90545 0.29078 0.74629 0.0
C626 C 0.91116 0.32739 0.73896 0.0
H627 H 0.92721 0.23426 0.74944 0.0
H628 H 0.88062 0.28467 0.75497 0.0
S629 S 0.99221 0.35742 0.70816 0.0
N630 N 0.00174 0.31292 0.71348 0.0
N631 N 0.95154 0.36736 0.71907 0.0
C632 C 0.94394 0.33378 0.72771 0.0
C633 C 0.97123 0.30437 0.72472 0.0
C634 C 0.85951 0.47108 0.98288 0.0
C635 C 0.89808 0.46089 0.98332 0.0
C636 C 0.8317 0.44603 0.98893 0.0
C637 C 0.84118 0.40961 0.99582 0.0
H638 H 0.85059 0.4986 0.97755 0.0
H639 H 0.80243 0.45561 0.98823 0.0
S640 S 0.93866 0.36936 1.00011 0.0
N641 N 0.94479 0.41218 0.99129 0.0
N642 N 0.8924 0.36473 0.00273 0.0
C643 C 0.8798 0.39895 0.99631 0.0
C644 C 0.90823 0.42461 0.99002 0.0
C645 C 0.74657 0.38753 0.23292 0.0
C646 C 0.71382 0.39531 0.24426 0.0
C647 C 0.77385 0.36147 0.23999 0.0
C648 C 0.76946 0.34165 0.2586 0.0
H649 H 0.75048 0.40051 0.21793 0.0
H650 H 0.79767 0.35555 0.23013 0.0
S651 S 0.69151 0.35528 0.29569 0.0
N652 N 0.68071 0.38412 0.27637 0.0
N653 N 0.7315 0.33416 0.28933 0.0
C654 C 0.73781 0.35039 0.27067 0.0
C655 C 0.71011 0.37734 0.26357 0.0
C656 C 0.26268 0.94581 0.44675 0.0
C657 C 0.24251 0.98018 0.44813 0.0
C658 C 0.27287 0.92636 0.46518 0.0
C659 C 0.26301 0.94038 0.4857 0.0
H660 H 0.27126 0.93423 0.43135 0.0
H661 H 0.28908 0.90039 0.46329 0.0
S662 S 0.20687 0.02767 0.49748 0.0
N663 N 0.21072 0.0262 0.47128 0.0
N664 N 0.22979 0.98999 0.5059 0.0
C665 C 0.24181 0.97427 0.48713 0.0
C666 C 0.23161 0.99407 0.46838 0.0
C667 C 0.18296 0.76808 0.69544 0.0
C668 C 0.14449 0.75705 0.69512 0.0
C669 C 0.20213 0.78301 0.71448 0.0
C670 C 0.18337 0.78731 0.73377 0.0
H671 H 0.19881 0.76329 0.68122 0.0
H672 H 0.23224 0.78954 0.71425 0.0
S673 S 0.08072 0.76811 0.74006 0.0
N674 N 0.08709 0.75534 0.71472 0.0
N675 N 0.12268 0.78351 0.75045 0.0
C676 C 0.14411 0.77875 0.73313 0.0
C677 C 0.12478 0.76357 0.71381 0.0
C678 C 0.40249 0.67766 0.93353 0.0
C679 C 0.42262 0.64339 0.93469 0.0
C680 C 0.388 0.69559 0.95195 0.0
C681 C 0.39312 0.67974 0.97211 0.0
H682 H 0.39935 0.69148 0.91851 0.0
H683 H 0.37393 0.72273 0.95047 0.0
S684 S 0.43931 0.58721 0.98258 0.0
N685 N 0.44373 0.59221 0.95679 0.0
N686 N 0.41645 0.62538 0.99138 0.0
C687 C 0.41135 0.6442 0.97307 0.0
C688 C 0.42613 0.62618 0.95437 0.0
C689 C 0.48805 0.94814 0.20172 0.0
C690 C 0.51844 0.93237 0.19053 0.0
C691 C 0.4746 0.9308 0.21954 0.0
C692 C 0.4915 0.89747 0.22692 0.0
H693 H 0.47544 0.97474 0.19716 0.0
H694 H 0.45188 0.94433 0.22806 0.0
S695 S 0.56754 0.84161 0.20133 0.0
N696 N 0.56146 0.87875 0.18658 0.0
N697 N 0.5373 0.8472 0.22044 0.0
C698 C 0.52065 0.88056 0.21533 0.0
C699 C 0.53383 0.89773 0.19704 0.0
C700 C 0.11698 0.70801 0.85852 0.0
C701 C 0.12469 0.71982 0.88023 0.0
C702 C 0.13386 0.7262 0.84221 0.0
C703 C 0.15899 0.75722 0.84684 0.0
H704 H 0.09838 0.68379 0.8541 0.0
H705 H 0.12789 0.71509 0.82581 0.0
S706 S 0.18649 0.80118 0.90099 0.0
N707 N 0.15747 0.76584 0.90553 0.0
N708 N 0.18906 0.80057 0.87468 0.0
C709 C 0.16538 0.77082 0.86839 0.0
C710 C 0.14824 0.752 0.88513 0.0
C711 C 0.42664 0.61732 0.11296 0.0
C712 C 0.46158 0.62996 0.12328 0.0
C713 C 0.40905 0.63732 0.09625 0.0
C714 C 0.4262 0.67022 0.0893 0.0
H715 H 0.41385 0.59082 0.11704 0.0
H716 H 0.38315 0.62586 0.08798 0.0
S717 S 0.51368 0.71869 0.11356 0.0
N718 N 0.50944 0.68046 0.12735 0.0
N719 N 0.47721 0.71709 0.0956 0.0
C720 C 0.45968 0.68439 0.1004 0.0
C721 C 0.47716 0.66451 0.11751 0.0
C722 C 0.45957 0.92018 0.37839 0.0
C723 C 0.49774 0.9319 0.38215 0.0
C724 C 0.44802 0.8971 0.36006 0.0
C725 C 0.47414 0.88603 0.34471 0.0
H726 H 0.43845 0.92975 0.38938 0.0
H727 H 0.41812 0.88953 0.35737 0.0
S728 S 0.57764 0.90812 0.34789 0.0
N729 N 0.56192 0.92945 0.36984 0.0
N730 N 0.5401 0.88694 0.33508 0.0
C731 C 0.51257 0.89675 0.34868 0.0
C732 C 0.52441 0.91952 0.36751 0.0
C733 C 0.20675 0.97312 0.63158 0.0
C734 C 0.22017 0.00912 0.63983 0.0
C735 C 0.22244 0.95465 0.61384 0.0
C736 C 0.25275 0.97099 0.60385 0.0
H737 H 0.18279 0.95974 0.63837 0.0
H738 H 0.21016 0.9276 0.60759 0.0
S739 S 0.30077 0.06304 0.62013 0.0
N740 N 0.26708 0.05958 0.63724 0.0
N741 N 0.29765 0.02372 0.60425 0.0
C742 C 0.26833 0.00566 0.6127 0.0
C743 C 0.25182 0.02498 0.63064 0.0
C744 C 0.62379 0.44643 0.93942 0.0
C745 C 0.62719 0.42916 0.91879 0.0
C746 C 0.63996 0.43014 0.95761 0.0
C747 C 0.66027 0.39581 0.95601 0.0
H748 H 0.6092 0.47337 0.94148 0.0
H749 H 0.63752 0.44536 0.97304 0.0
S750 S 0.67472 0.3376 0.90572 0.0
N751 N 0.6501 0.37467 0.89775 0.0
N752 N 0.68078 0.3437 0.93211 0.0
C753 C 0.66213 0.37705 0.93557 0.0
C754 C 0.64552 0.39381 0.91691 0.0
C755 C 0.76196 0.1683 0.17955 0.0
C756 C 0.74174 0.13376 0.17955 0.0
C757 C 0.77853 0.18563 0.19868 0.0
C758 C 0.77487 0.16932 0.21851 0.0
H759 H 0.76467 0.18213 0.16469 0.0
H760 H 0.79344 0.21252 0.19797 0.0
S761 S 0.72441 0.07886 0.22693 0.0
N762 N 0.71882 0.0838 0.20087 0.0
N763 N 0.74999 0.11607 0.23675 0.0
C764 C 0.75504 0.13447 0.21861 0.0
C765 C 0.73847 0.11678 0.19915 0.0
C766 C 0.01977 0.17715 0.44701 0.0
C767 C 0.04142 0.20087 0.43505 0.0
C768 C 0.99853 0.19217 0.46363 0.0
C769 C 0.99775 0.23163 0.46896 0.0
H770 H 0.01969 0.14654 0.4437 0.0
H771 H 0.98245 0.17245 0.47231 0.0
S772 S 0.04916 0.30611 0.44216 0.0
N773 N 0.06075 0.26574 0.42938 0.0
N774 N 0.02043 0.29429 0.46068 0.0
C775 C 0.01911 0.25582 0.45702 0.0
C776 C 0.04111 0.24036 0.44011 0.0
C777 C 0.889 0.52271 0.66655 0.0
C778 C 0.91474 0.55339 0.67089 0.0
C779 C 0.87513 0.50262 0.68329 0.0
C780 C 0.88741 0.512 0.7048 0.0
H781 H 0.88026 0.51371 0.65012 0.0
H782 H 0.85634 0.47839 0.6793 0.0
S783 S 0.95331 0.59078 0.7246 0.0
N784 N 0.95063 0.59305 0.69827 0.0
N785 N 0.92522 0.55499 0.72955 0.0
C786 C 0.91219 0.54329 0.70931 0.0
C787 C 0.92572 0.56406 0.69239 0.0
C788 C 0.69582 0.13619 0.35041 0.0
C789 C 0.69332 0.16162 0.3684 0.0
C790 C 0.71683 0.14563 0.33313 0.0
C791 C 0.73555 0.18111 0.33308 0.0
H792 H 0.68199 0.10851 0.34988 0.0
H793 H 0.7185 0.12486 0.31972 0.0
S794 S 0.73704 0.25778 0.37652 0.0
N795 N 0.71089 0.22355 0.38538 0.0
N796 N 0.7498 0.24193 0.35262 0.0
C797 C 0.73254 0.20714 0.35086 0.0
C798 C 0.71161 0.19719 0.36863 0.0
C799 C 0.01109 0.21692 0.59969 0.0
C800 C 0.0003 0.2289 0.62025 0.0
C801 C 0.99383 0.23176 0.58134 0.0
C802 C 0.96486 0.25917 0.58272 0.0
H803 H 0.03298 0.1956 0.59776 0.0
H804 H 0.00301 0.22105 0.56591 0.0
S805 S 0.92739 0.30109 0.63313 0.0
N806 N 0.95987 0.27044 0.64123 0.0
N807 N 0.92717 0.29877 0.60667 0.0
C808 C 0.95443 0.27217 0.60331 0.0
C809 C 0.97225 0.257 0.62208 0.0
C810 C 0.91494 0.51834 0.83777 0.0
C811 C 0.90909 0.50192 0.85723 0.0
C812 C 0.89821 0.50268 0.81839 0.0
C813 C 0.87522 0.46966 0.81765 0.0
H814 H 0.93341 0.54306 0.83748 0.0
H815 H 0.90457 0.51593 0.80381 0.0
S816 S 0.8487 0.41775 0.86469 0.0
N817 N 0.87701 0.45261 0.87505 0.0
N818 N 0.84534 0.42267 0.83854 0.0
C819 C 0.86775 0.45394 0.83722 0.0
C820 C 0.88471 0.47022 0.85703 0.0
C821 C 0.71092 0.38825 0.11193 0.0
C822 C 0.67705 0.4091 0.11228 0.0
C823 C 0.72483 0.37452 0.09238 0.0
C824 C 0.70518 0.38109 0.07259 0.0
H825 H 0.72726 0.38354 0.12677 0.0
H826 H 0.7515 0.35921 0.0928 0.0
S827 S 0.61353 0.43255 0.06557 0.0
N828 N 0.62322 0.43443 0.09175 0.0
N829 N 0.64883 0.40865 0.05502 0.0
C830 C 0.67046 0.40093 0.07299 0.0
C831 C 0.65656 0.41496 0.09284 0.0
loop_
_geom_bond_atom_site_label_1
_geom_bond_atom_site_label_2
_geom_bond_distance
_geom_bond_site_symmetry_2
_ccdc_geom_bond_type
C0 C1 1.384 . S
C0 C2 1.384 . S
C0 H28 0.931 . S
C1 C0 1.384 . S
C1 C4 1.382 1_565 S
C2 C0 1.384 . S
C2 C3 1.381 1_565 S
C2 H29 0.930 . S
C3 C2 1.381 1_545 S
C3 C5 1.381 . S
C3 C6 1.487 . S
C4 C1 1.382 1_545 S
C4 C5 1.387 . S
C4 H30 0.930 . S
C5 C3 1.381 . S
C5 C4 1.387 . S
C5 H31 0.931 . S
C6 C3 1.487 . S
C6 C13 1.399 . S
C6 N44 1.343 . S
C7 C8 1.384 . S
C7 C9 1.384 . S
C7 H32 0.931 . S
C8 C7 1.384 . S
C8 C11 1.382 . S
C9 C7 1.384 . S
C9 C10 1.381 . S
C9 H33 0.930 1_565 S
C10 C9 1.381 . S
C10 C12 1.381 . S
C10 C13 1.487 1_565 S
C11 C8 1.382 . S
C11 C12 1.387 . S
C11 H34 0.930 . S
C12 C10 1.381 . S
C12 C11 1.387 . S
C12 H35 0.931 . S
C13 C6 1.399 . S
C13 C10 1.487 1_545 S
C13 N45 1.343 . S
C14 C15 1.384 . S
C14 C16 1.384 . S
C14 H36 0.931 . S
C15 C14 1.384 . S
C15 C18 1.382 . S
C16 C14 1.384 . S
C16 C17 1.381 . S
C16 H37 0.930 . S
C17 C16 1.381 . S
C17 C19 1.381 . S
C17 C20 1.487 . S
C18 C15 1.382 . S
C18 C19 1.387 . S
C18 H38 0.930 . S
C19 C17 1.381 . S
C19 C18 1.387 . S
C19 H39 0.931 . S
C20 C17 1.487 . S
C20 C27 1.399 . S
C20 N45 1.343 . S
C21 C22 1.384 1_655 S
C21 C23 1.384 1_655 S
C21 H40 0.931 . S
C22 C21 1.384 1_455 S
C22 C25 1.382 . S
C23 C21 1.384 1_455 S
C23 C24 1.381 . S
C23 H41 0.930 . S
C24 C23 1.381 . S
C24 C26 1.381 . S
C24 C27 1.487 . S
C25 C22 1.382 . S
C25 C26 1.387 . S
C25 H42 0.930 . S
C26 C24 1.381 . S
C26 C25 1.387 . S
C26 H43 0.931 . S
C27 C20 1.399 . S
C27 C24 1.487 . S
C27 N44 1.343 . S
H28 C0 0.931 . S
H29 C2 0.930 . S
H30 C4 0.930 . S
H31 C5 0.931 . S
H32 C7 0.931 . S
H33 C9 0.930 1_545 S
H34 C11 0.930 . S
H35 C12 0.931 . S
H36 C14 0.931 . S
H37 C16 0.930 . S
H38 C18 0.930 . S
H39 C19 0.931 . S
H40 C21 0.931 . S
H41 C23 0.930 . S
H42 C25 0.930 . S
H43 C26 0.931 . S
N44 C6 1.343 . S
N44 C27 1.343 . S
N45 C13 1.343 . S
N45 C20 1.343 . S
C46 C47 1.384 . S
C46 C48 1.384 . S
C46 H74 0.931 . S
C47 C46 1.384 . S
C47 C50 1.382 . S
C48 C46 1.384 . S
C48 C49 1.381 . S
C48 H75 0.930 . S
C49 C48 1.381 . S
C49 C51 1.381 1_655 S
C49 C52 1.487 1_655 S
C50 C47 1.382 . S
C50 C51 1.387 1_655 S
C50 H76 0.930 . S
C51 C49 1.381 1_455 S
C51 C50 1.387 1_455 S
C51 H77 0.931 . S
C52 C49 1.487 1_455 S
C52 C59 1.399 . S
C52 N90 1.343 . S
C53 C54 1.384 . S
C53 C55 1.384 1_655 S
C53 H78 0.931 . S
C54 C53 1.384 . S
C54 C57 1.382 . S
C55 C53 1.384 1_455 S
C55 C56 1.381 . S
C55 H79 0.930 . S
C56 C55 1.381 . S
C56 C58 1.381 1_455 S
C56 C59 1.487 . S
C57 C54 1.382 . S
C57 C58 1.387 . S
C57 H80 0.930 . S
C58 C56 1.381 1_655 S
C58 C57 1.387 . S
C58 H81 0.931 . S
C59 C52 1.399 . S
C59 C56 1.487 . S
C59 N91 1.343 . S
C60 C61 1.384 . S
C60 C62 1.384 . S
C60 H82 0.931 . S
C61 C60 1.384 . S
C61 C64 1.382 . S
C62 C60 1.384 . S
C62 C63 1.381 . S
C62 H83 0.930 . S
C63 C62 1.381 . S
C63 C65 1.381 . S
C63 C66 1.487 . S
C64 C61 1.382 . S
C64 C65 1.387 . S
C64 H84 0.930 . S
C65 C63 1.381 . S
C65 C64 1.387 . S
C65 H85 0.931 . S
C66 C63 1.487 . S
C66 C73 1.399 . S
C66 N91 1.343 . S
C67 C68 1.384 . S
C67 C69 1.384 . S
C67 H86 0.931 . S
C68 C67 1.384 . S
C68 C71 1.382 . S
C69 C67 1.384 . S
C69 C70 1.381 . S
C69 H87 0.930 . S
C70 C69 1.381 . S
C70 C72 1.381 . S
C70 C73 1.487 . S
C71 C68 1.382 . S
C71 C72 1.387 . S
C71 H88 0.930 . S
C72 C70 1.381 . S
C72 C71 1.387 . S
C72 H89 0.931 . S
C73 C66 1.399 . S
C73 C70 1.487 . S
C73 N90 1.343 . S
H74 C46 0.931 . S
H75 C48 0.930 . S
H76 C50 0.930 . S
H77 C51 0.931 . S
H78 C53 0.931 . S
H79 C55 0.930 . S
H80 C57 0.930 . S
H81 C58 0.931 . S
H82 C60 0.931 . S
H83 C62 0.930 . S
H84 C64 0.930 . S
H85 C65 0.931 . S
H86 C67 0.931 . S
H87 C69 0.930 . S
H88 C71 0.930 . S
H89 C72 0.931 . S
N90 C52 1.343 . S
N90 C73 1.343 . S
N91 C59 1.343 . S
N91 C66 1.343 . S
C92 C93 1.384 . S
C92 C94 1.384 . S
C92 H120 0.931 . S
C93 C92 1.384 . S
C93 C96 1.382 . S
C94 C92 1.384 . S
C94 C95 1.381 . S
C94 H121 0.930 . S
C95 C94 1.381 . S
C95 C97 1.381 . S
C95 C98 1.487 . S
C96 C93 1.382 . S
C96 C97 1.387 . S
C96 H122 0.930 . S
C97 C95 1.381 . S
C97 C96 1.387 . S
C97 H123 0.931 . S
C98 C95 1.487 . S
C98 C105 1.399 . S
C98 N136 1.343 . S
C99 C100 1.384 . S
C99 C101 1.384 . S
C99 H124 0.931 . S
C100 C99 1.384 . S
C100 C103 1.382 . S
C101 C99 1.384 . S
C101 C102 1.381 . S
C101 H125 0.930 . S
C102 C101 1.381 . S
C102 C104 1.381 . S
C102 C105 1.487 . S
C103 C100 1.382 . S
C103 C104 1.387 . S
C103 H126 0.930 . S
C104 C102 1.381 . S
C104 C103 1.387 . S
C104 H127 0.931 . S
C105 C98 1.399 . S
C105 C102 1.487 . S
C105 N137 1.343 . S
C106 C107 1.384 . S
C106 C108 1.384 . S
C106 H128 0.931 . S
C107 C106 1.384 . S
C107 C110 1.382 . S
C108 C106 1.384 . S
C108 C109 1.381 . S
C108 H129 0.930 . S
C109 C108 1.381 . S
C109 C111 1.381 . S
C109 C112 1.487 . S
C110 C107 1.382 . S
C110 C111 1.387 . S
C110 H130 0.930 . S
C111 C109 1.381 . S
C111 C110 1.387 . S
C111 H131 0.931 . S
C112 C109 1.487 . S
C112 C119 1.399 . S
C112 N137 1.343 . S
C113 C114 1.384 . S
C113 C115 1.384 . S
C113 H132 0.931 . S
C114 C113 1.384 . S
C114 C117 1.382 . S
C115 C113 1.384 . S
C115 C116 1.381 . S
C115 H133 0.930 . S
C116 C115 1.381 . S
C116 C118 1.381 . S
C116 C119 1.487 . S
C117 C114 1.382 . S
C117 C118 1.387 . S
C117 H134 0.930 . S
C118 C116 1.381 . S
C118 C117 1.387 . S
C118 H135 0.931 . S
C119 C112 1.399 . S
C119 C116 1.487 . S
C119 N136 1.343 . S
H120 C92 0.931 . S
H121 C94 0.930 . S
H122 C96 0.930 . S
H123 C97 0.931 . S
H124 C99 0.931 . S
H125 C101 0.930 . S
H126 C103 0.930 . S
H127 C104 0.931 . S
H128 C106 0.931 . S
H129 C108 0.930 . S
H130 C110 0.930 . S
H131 C111 0.931 . S
H132 C113 0.931 . S
H133 C115 0.930 . S
H134 C117 0.930 . S
H135 C118 0.931 . S
N136 C98 1.343 . S
N136 C119 1.343 . S
N137 C105 1.343 . S
N137 C112 1.343 . S
C138 C139 1.384 . S
C138 C140 1.384 . S
C138 H166 0.931 . S
C139 C138 1.384 . S
C139 C142 1.382 . S
C140 C138 1.384 . S
C140 C141 1.381 . S
C140 H167 0.930 . S
C141 C140 1.381 . S
C141 C143 1.381 . S
C141 C144 1.487 . S
C142 C139 1.382 . S
C142 C143 1.387 . S
C142 H168 0.930 . S
C143 C141 1.381 . S
C143 C142 1.387 . S
C143 H169 0.931 . S
C144 C141 1.487 . S
C144 C151 1.399 . S
C144 N182 1.343 1_565 S
C145 C146 1.384 . S
C145 C147 1.384 . S
C145 H170 0.931 . S
C146 C145 1.384 . S
C146 C149 1.382 . S
C147 C145 1.384 . S
C147 C148 1.381 . S
C147 H171 0.930 . S
C148 C147 1.381 . S
C148 C150 1.381 . S
C148 C151 1.487 . S
C149 C146 1.382 . S
C149 C150 1.387 . S
C149 H172 0.930 . S
C150 C148 1.381 . S
C150 C149 1.387 . S
C150 H173 0.931 . S
C151 C144 1.399 . S
C151 C148 1.487 . S
C151 N183 1.343 . S
C152 C153 1.384 . S
C152 C154 1.384 . S
C152 H174 0.931 . S
C153 C152 1.384 . S
C153 C156 1.382 . S
C154 C152 1.384 . S
C154 C155 1.381 . S
C154 H175 0.930 . S
C155 C154 1.381 . S
C155 C157 1.381 . S
C155 C158 1.487 . S
C156 C153 1.382 . S
C156 C157 1.387 . S
C156 H176 0.930 . S
C157 C155 1.381 . S
C157 C156 1.387 . S
C157 H177 0.931 . S
C158 C155 1.487 . S
C158 C165 1.399 . S
C158 N183 1.343 1_545 S
C159 C160 1.384 . S
C159 C161 1.384 . S
C159 H178 0.931 . S
C160 C159 1.384 . S
C160 C163 1.382 . S
C161 C159 1.384 . S
C161 C162 1.381 . S
C161 H179 0.930 . S
C162 C161 1.381 . S
C162 C164 1.381 . S
C162 C165 1.487 . S
C163 C160 1.382 . S
C163 C164 1.387 . S
C163 H180 0.930 . S
C164 C162 1.381 . S
C164 C163 1.387 . S
C164 H181 0.931 . S
C165 C158 1.399 . S
C165 C162 1.487 . S
C165 N182 1.343 . S
H166 C138 0.931 . S
H167 C140 0.930 . S
H168 C142 0.930 . S
H169 C143 0.931 . S
H170 C145 0.931 . S
H171 C147 0.930 . S
H172 C149 0.930 . S
H173 C150 0.931 . S
H174 C152 0.931 . S
H175 C154 0.930 . S
H176 C156 0.930 . S
H177 C157 0.931 . S
H178 C159 0.931 . S
H179 C161 0.930 . S
H180 C163 0.930 . S
H181 C164 0.931 . S
N182 C144 1.343 1_545 S
N182 C165 1.343 . S
N183 C151 1.343 . S
N183 C158 1.343 1_565 S
C184 C185 1.384 . S
C184 C186 1.384 . S
C184 H212 0.931 . S
C185 C184 1.384 . S
C185 C188 1.382 . S
C186 C184 1.384 . S
C186 C187 1.381 . S
C186 H213 0.930 . S
C187 C186 1.381 . S
C187 C189 1.381 . S
C187 C190 1.487 . S
C188 C185 1.382 . S
C188 C189 1.387 . S
C188 H214 0.930 . S
C189 C187 1.381 . S
C189 C188 1.387 . S
C189 H215 0.931 . S
C190 C187 1.487 . S
C190 C197 1.399 . S
C190 N228 1.332 1_455 S
C191 C192 1.384 1_556 S
C191 C193 1.384 . S
C191 H216 0.931 . S
C192 C191 1.384 1_554 S
C192 C195 1.382 . S
C193 C191 1.384 . S
C193 C194 1.381 . S
C193 H217 0.930 . S
C194 C193 1.381 . S
C194 C196 1.381 . S
C194 C197 1.487 . S
C195 C192 1.382 . S
C195 C196 1.387 1_554 S
C195 H218 0.930 . S
C196 C194 1.381 . S
C196 C195 1.387 1_556 S
C196 H219 0.927 1_556 S
C197 C190 1.399 . S
C197 C194 1.487 . S
C197 N229 1.361 . S
C198 C199 1.384 . S
C198 C200 1.384 . S
C198 H220 0.931 . S
C199 C198 1.384 . S
C199 C202 1.382 . S
C200 C198 1.384 . S
C200 C201 1.381 . S
C200 H221 0.930 . S
C201 C200 1.381 . S
C201 C203 1.381 . S
C201 C204 1.487 . S
C202 C199 1.382 . S
C202 C203 1.387 . S
C202 H222 0.930 1_556 S
C203 C201 1.381 . S
C203 C202 1.387 . S
C203 H223 0.931 . S
C204 C201 1.487 . S
C204 C211 1.399 . S
C204 N229 1.327 1_655 S
C205 C206 1.384 . S
C205 C207 1.384 . S
C205 H224 0.931 . S
C206 C205 1.384 . S
C206 C209 1.382 . S
C207 C205 1.384 . S
C207 C208 1.381 . S
C207 H225 0.930 . S
C208 C207 1.381 . S
C208 C210 1.381 . S
C208 C211 1.487 . S
C209 C206 1.382 . S
C209 C210 1.387 . S
C209 H226 0.930 . S
C210 C208 1.381 . S
C210 C209 1.387 . S
C210 H227 0.931 . S
C211 C204 1.399 . S
C211 C208 1.487 . S
C211 N228 1.356 . S
H212 C184 0.931 . S
H213 C186 0.930 . S
H214 C188 0.930 . S
H215 C189 0.931 . S
H216 C191 0.931 . S
H217 C193 0.930 . S
H218 C195 0.930 . S
H219 C196 0.927 1_554 S
H220 C198 0.931 . S
H221 C200 0.930 . S
H222 C202 0.930 1_554 S
H223 C203 0.931 . S
H224 C205 0.931 . S
H225 C207 0.930 . S
H226 C209 0.930 . S
H227 C210 0.931 . S
N228 C190 1.332 1_655 S
N228 C211 1.356 . S
N229 C197 1.361 . S
N229 C204 1.327 1_455 S
C230 C231 1.384 . S
C230 C232 1.384 . S
C230 H258 0.931 . S
C231 C230 1.384 . S
C231 C234 1.382 . S
C232 C230 1.384 . S
C232 C233 1.381 . S
C232 H259 0.930 . S
C233 C232 1.381 . S
C233 C235 1.381 . S
C233 C236 1.487 . S
C234 C231 1.382 . S
C234 C235 1.387 . S
C234 H260 0.930 . S
C235 C233 1.381 . S
C235 C234 1.387 . S
C235 H261 0.931 . S
C236 C233 1.487 . S
C236 C243 1.399 . S
C236 N274 1.343 . S
C237 C238 1.384 . S
C237 C239 1.384 . S
C237 H262 0.931 . S
C238 C237 1.384 . S
C238 C241 1.382 . S
C239 C237 1.384 . S
C239 C240 1.381 . S
C239 H263 0.930 . S
C240 C239 1.381 . S
C240 C242 1.381 . S
C240 C243 1.487 . S
C241 C238 1.382 . S
C241 C242 1.387 . S
C241 H264 0.930 . S
C242 C240 1.381 . S
C242 C241 1.387 . S
C242 H265 0.931 . S
C243 C236 1.399 . S
C243 C240 1.487 . S
C243 N275 1.343 . S
C244 C245 1.384 . S
C244 C246 1.384 . S
C244 H266 0.931 . S
C245 C244 1.384 . S
C245 C248 1.382 . S
C246 C244 1.384 . S
C246 C247 1.381 . S
C246 H267 0.930 . S
C247 C246 1.381 . S
C247 C249 1.381 . S
C247 C250 1.487 . S
C248 C245 1.382 . S
C248 C249 1.387 . S
C248 H268 0.930 . S
C249 C247 1.381 . S
C249 C248 1.387 . S
C249 H269 0.931 . S
C250 C247 1.487 . S
C250 C257 1.399 . S
C250 N275 1.343 . S
C251 C252 1.384 . S
C251 C253 1.384 . S
C251 H270 0.931 . S
C252 C251 1.384 . S
C252 C255 1.382 . S
C253 C251 1.384 . S
C253 C254 1.381 . S
C253 H271 0.930 . S
C254 C253 1.381 . S
C254 C256 1.381 . S
C254 C257 1.487 . S
C255 C252 1.382 . S
C255 C256 1.387 . S
C255 H272 0.930 . S
C256 C254 1.381 . S
C256 C255 1.387 . S
C256 H273 0.931 . S
C257 C250 1.399 . S
C257 C254 1.487 . S
C257 N274 1.343 . S
H258 C230 0.931 . S
H259 C232 0.930 . S
H260 C234 0.930 . S
H261 C235 0.931 . S
H262 C237 0.931 . S
H263 C239 0.930 . S
H264 C241 0.930 . S
H265 C242 0.931 . S
H266 C244 0.931 . S
H267 C246 0.930 . S
H268 C248 0.930 . S
H269 C249 0.931 . S
H270 C251 0.931 . S
H271 C253 0.930 . S
H272 C255 0.930 . S
H273 C256 0.931 . S
N274 C236 1.343 . S
N274 C257 1.343 . S
N275 C243 1.343 . S
N275 C250 1.343 . S
C276 C277 1.384 . S
C276 C278 1.384 . S
C276 H304 0.931 . S
C277 C276 1.384 . S
C277 C280 1.382 . S
C278 C276 1.384 . S
C278 C279 1.381 . S
C278 H305 0.930 . S
C279 C278 1.381 . S
C279 C281 1.381 . S
C279 C282 1.487 1_565 S
C280 C277 1.382 . S
C280 C281 1.387 . S
C280 H306 0.930 . S
C281 C279 1.381 . S
C281 C280 1.387 . S
C281 H307 0.931 1_565 S
C282 C279 1.487 1_545 S
C282 C289 1.399 . S
C282 N320 1.343 . S
C283 C284 1.384 . S
C283 C285 1.384 . S
C283 H308 0.931 . S
C284 C283 1.384 . S
C284 C287 1.382 . S
C285 C283 1.384 . S
C285 C286 1.381 . S
C285 H309 0.930 1_565 S
C286 C285 1.381 . S
C286 C288 1.381 . S
C286 C289 1.487 1_565 S
C287 C284 1.382 . S
C287 C288 1.387 . S
C287 H310 0.930 . S
C288 C286 1.381 . S
C288 C287 1.387 . S
C288 H311 0.931 . S
C289 C282 1.399 . S
C289 C286 1.487 1_545 S
C289 N321 1.343 . S
C290 C291 1.384 . S
C290 C292 1.384 . S
C290 H312 0.931 . S
C291 C290 1.384 . S
C291 C294 1.382 . S
C292 C290 1.384 . S
C292 C293 1.381 . S
C292 H313 0.930 . S
C293 C292 1.381 . S
C293 C295 1.381 . S
C293 C296 1.487 . S
C294 C291 1.382 . S
C294 C295 1.387 . S
C294 H314 0.930 . S
C295 C293 1.381 . S
C295 C294 1.387 . S
C295 H315 0.931 . S
C296 C293 1.487 . S
C296 C303 1.399 . S
C296 N321 1.343 . S
C297 C298 1.384 . S
C297 C299 1.384 . S
C297 H316 0.931 . S
C298 C297 1.384 . S
C298 C301 1.382 . S
C299 C297 1.384 . S
C299 C300 1.381 . S
C299 H317 0.930 . S
C300 C299 1.381 . S
C300 C302 1.381 . S
C300 C303 1.487 . S
C301 C298 1.382 . S
C301 C302 1.387 . S
C301 H318 0.930 . S
C302 C300 1.381 . S
C302 C301 1.387 . S
C302 H319 0.931 . S
C303 C296 1.399 . S
C303 C300 1.487 . S
C303 N320 1.343 . S
H304 C276 0.931 . S
H305 C278 0.930 . S
H306 C280 0.930 . S
H307 C281 0.931 1_545 S
H308 C283 0.931 . S
H309 C285 0.930 1_545 S
H310 C287 0.930 . S
H311 C288 0.931 . S
H312 C290 0.931 . S
H313 C292 0.930 . S
H314 C294 0.930 . S
H315 C295 0.931 . S
H316 C297 0.931 . S
H317 C299 0.930 . S
H318 C301 0.930 . S
H319 C302 0.931 . S
N320 C282 1.343 . S
N320 C303 1.343 . S
N321 C289 1.343 . S
N321 C296 1.343 . S
C322 C323 1.384 . S
C322 C324 1.384 . S
C322 H350 0.931 . S
C323 C322 1.384 . S
C323 C326 1.382 . S
C324 C322 1.384 . S
C324 C325 1.381 . S
C324 H351 0.930 . S
C325 C324 1.381 . S
C325 C327 1.381 . S
C325 C328 1.487 . S
C326 C323 1.382 . S
C326 C327 1.387 . S
C326 H352 0.930 . S
C327 C325 1.381 . S
C327 C326 1.387 . S
C327 H353 0.931 . S
C328 C325 1.487 . S
C328 C335 1.399 . S
C328 N366 1.343 . S
C329 C330 1.384 . S
C329 C331 1.384 . S
C329 H354 0.931 . S
C330 C329 1.384 . S
C330 C333 1.382 . S
C331 C329 1.384 . S
C331 C332 1.381 . S
C331 H355 0.930 . S
C332 C331 1.381 . S
C332 C334 1.381 . S
C332 C335 1.487 . S
C333 C330 1.382 . S
C333 C334 1.387 . S
C333 H356 0.930 . S
C334 C332 1.381 . S
C334 C333 1.387 . S
C334 H357 0.931 . S
C335 C328 1.399 . S
C335 C332 1.487 . S
C335 N367 1.343 . S
C336 C337 1.384 1_655 S
C336 C338 1.384 1_655 S
C336 H358 0.931 . S
C337 C336 1.384 1_455 S
C337 C340 1.382 . S
C338 C336 1.384 1_455 S
C338 C339 1.381 . S
C338 H359 0.930 . S
C339 C338 1.381 . S
C339 C341 1.381 . S
C339 C342 1.487 . S
C340 C337 1.382 . S
C340 C341 1.387 . S
C340 H360 0.930 . S
C341 C339 1.381 . S
C341 C340 1.387 . S
C341 H361 0.931 . S
C342 C339 1.487 . S
C342 C349 1.399 . S
C342 N367 1.343 . S
C343 C344 1.384 . S
C343 C345 1.384 . S
C343 H362 0.931 . S
C344 C343 1.384 . S
C344 C347 1.382 . S
C345 C343 1.384 . S
C345 C346 1.381 . S
C345 H363 0.930 . S
C346 C345 1.381 . S
C346 C348 1.381 . S
C346 C349 1.487 . S
C347 C344 1.382 . S
C347 C348 1.387 . S
C347 H364 0.930 . S
C348 C346 1.381 . S
C348 C347 1.387 . S
C348 H365 0.931 . S
C349 C342 1.399 . S
C349 C346 1.487 . S
C349 N366 1.343 . S
H350 C322 0.931 . S
H351 C324 0.930 . S
H352 C326 0.930 . S
H353 C327 0.931 . S
H354 C329 0.931 . S
H355 C331 0.930 . S
H356 C333 0.930 . S
H357 C334 0.931 . S
H358 C336 0.931 . S
H359 C338 0.930 . S
H360 C340 0.930 . S
H361 C341 0.931 . S
H362 C343 0.931 . S
H363 C345 0.930 . S
H364 C347 0.930 . S
H365 C348 0.931 . S
N366 C328 1.343 . S
N366 C349 1.343 . S
N367 C335 1.343 . S
N367 C342 1.343 . S
O368 Cd369 2.223 . S
O368 C376 1.315 . S
Cd369 O368 2.223 . S
Cd369 O372 2.297 . S
Cd369 O373 2.439 . S
Cd369 O379 2.240 . S
Cd370 O371 2.240 . S
Cd370 O378 2.223 . S
Cd370 O380 2.297 . S
Cd370 O381 2.439 . S
O371 Cd370 2.240 . S
O371 C376 1.279 . S
O372 Cd369 2.297 . S
O372 C374 1.247 . S
O373 Cd369 2.439 . S
O373 C374 1.208 . S
C374 O372 1.247 . S
C374 O373 1.208 . S
C375 O380 1.247 . S
C375 O381 1.208 . S
C376 O368 1.315 . S
C376 O371 1.279 . S
C377 O378 1.315 . S
C377 O379 1.279 . S
O378 Cd370 2.223 . S
O378 C377 1.315 . S
O379 Cd369 2.240 . S
O379 C377 1.279 . S
O380 Cd370 2.297 . S
O380 C375 1.247 . S
O381 Cd370 2.439 . S
O381 C375 1.208 . S
O382 Cd383 2.223 . S
O382 C390 1.315 . S
Cd383 O382 2.223 . S
Cd383 O386 2.297 . S
Cd383 O387 2.439 . S
Cd383 O393 2.240 . S
Cd384 O385 2.240 . S
Cd384 O392 2.223 . S
Cd384 O394 2.297 . S
Cd384 O395 2.439 . S
O385 Cd384 2.240 . S
O385 C390 1.279 . S
O386 Cd383 2.297 . S
O386 C388 1.247 . S
O387 Cd383 2.439 . S
O387 C388 1.208 . S
C388 O386 1.247 . S
C388 O387 1.208 . S
C389 O394 1.247 . S
C389 O395 1.208 . S
C390 O382 1.315 . S
C390 O385 1.279 . S
C391 O392 1.315 . S
C391 O393 1.279 . S
O392 Cd384 2.223 . S
O392 C391 1.315 . S
O393 Cd383 2.240 . S
O393 C391 1.279 . S
O394 Cd384 2.297 . S
O394 C389 1.247 . S
O395 Cd384 2.439 . S
O395 C389 1.208 . S
O396 Cd397 2.223 . S
O396 C404 1.315 . S
Cd397 O396 2.223 . S
Cd397 O400 2.297 . S
Cd397 O401 2.439 . S
Cd397 O407 2.240 . S
Cd398 O399 2.240 . S
Cd398 O406 2.223 . S
Cd398 O408 2.297 . S
Cd398 O409 2.439 . S
O399 Cd398 2.240 . S
O399 C404 1.279 . S
O400 Cd397 2.297 . S
O400 C402 1.247 . S
O401 Cd397 2.439 . S
O401 C402 1.208 . S
C402 O400 1.247 . S
C402 O401 1.208 . S
C403 O408 1.247 . S
C403 O409 1.208 . S
C404 O396 1.315 . S
C404 O399 1.279 . S
C405 O406 1.315 . S
C405 O407 1.279 . S
O406 Cd398 2.223 . S
O406 C405 1.315 . S
O407 Cd397 2.240 . S
O407 C405 1.279 . S
O408 Cd398 2.297 . S
O408 C403 1.247 . S
O409 Cd398 2.439 . S
O409 C403 1.208 . S
O410 Cd411 2.223 . S
O410 C418 1.315 . S
Cd411 O410 2.223 . S
Cd411 O414 2.297 . S
Cd411 O415 2.439 . S
Cd411 O421 2.240 . S
Cd412 O413 2.240 . S
Cd412 O420 2.223 . S
Cd412 O422 2.297 . S
Cd412 O423 2.439 . S
O413 Cd412 2.240 . S
O413 C418 1.279 . S
O414 Cd411 2.297 . S
O414 C416 1.247 . S
O415 Cd411 2.439 . S
O415 C416 1.208 . S
C416 O414 1.247 . S
C416 O415 1.208 . S
C417 O422 1.247 . S
C417 O423 1.208 . S
C418 O410 1.315 . S
C418 O413 1.279 . S
C419 O420 1.315 . S
C419 O421 1.279 . S
O420 Cd412 2.223 . S
O420 C419 1.315 . S
O421 Cd411 2.240 . S
O421 C419 1.279 . S
O422 Cd412 2.297 . S
O422 C417 1.247 . S
O423 Cd412 2.439 . S
O423 C417 1.208 . S
O424 Cd425 2.223 . S
O424 C432 1.315 . S
Cd425 O424 2.223 . S
Cd425 O428 2.297 . S
Cd425 O429 2.439 . S
Cd425 O435 2.240 . S
Cd426 O427 2.240 . S
Cd426 O434 2.223 . S
Cd426 O436 2.297 . S
Cd426 O437 2.439 . S
O427 Cd426 2.240 . S
O427 C432 1.279 . S
O428 Cd425 2.297 . S
O428 C430 1.247 . S
O429 Cd425 2.439 . S
O429 C430 1.208 . S
C430 O428 1.247 . S
C430 O429 1.208 . S
C431 O436 1.247 . S
C431 O437 1.208 . S
C432 O424 1.315 . S
C432 O427 1.279 . S
C433 O434 1.315 . S
C433 O435 1.279 . S
O434 Cd426 2.223 . S
O434 C433 1.315 . S
O435 Cd425 2.240 . S
O435 C433 1.279 . S
O436 Cd426 2.297 . S
O436 C431 1.247 . S
O437 Cd426 2.439 . S
O437 C431 1.208 . S
O438 Cd439 2.223 . S
O438 C446 1.315 . S
Cd439 O438 2.223 . S
Cd439 O442 2.297 . S
Cd439 O443 2.439 . S
Cd439 O449 2.240 . S
Cd440 O441 2.240 . S
Cd440 O448 2.223 . S
Cd440 O450 2.297 . S
Cd440 O451 2.439 . S
O441 Cd440 2.240 . S
O441 C446 1.279 . S
O442 Cd439 2.297 . S
O442 C444 1.247 . S
O443 Cd439 2.439 . S
O443 C444 1.208 . S
C444 O442 1.247 . S
C444 O443 1.208 . S
C445 O450 1.247 . S
C445 O451 1.208 . S
C446 O438 1.315 . S
C446 O441 1.279 . S
C447 O448 1.315 . S
C447 O449 1.279 . S
O448 Cd440 2.223 . S
O448 C447 1.315 . S
O449 Cd439 2.240 . S
O449 C447 1.279 . S
O450 Cd440 2.297 . S
O450 C445 1.247 . S
O451 Cd440 2.439 . S
O451 C445 1.208 . S
O452 Cd453 2.223 . S
O452 C460 1.315 . S
Cd453 O452 2.223 . S
Cd453 O456 2.297 . S
Cd453 O457 2.439 . S
Cd453 O463 2.240 1_554 S
Cd454 O455 2.240 1_556 S
Cd454 O462 2.223 1_556 S
Cd454 O464 2.297 . S
Cd454 O465 2.438 . S
O455 Cd454 2.240 1_554 S
O455 C460 1.279 . S
O456 Cd453 2.297 . S
O456 C458 1.247 . S
O457 Cd453 2.439 . S
O457 C458 1.208 . S
C458 O456 1.247 . S
C458 O457 1.208 . S
C459 O464 1.247 . S
C459 O465 1.208 . S
C460 O452 1.315 . S
C460 O455 1.279 . S
C461 O462 1.308 1_556 S
C461 O463 1.287 . S
O462 Cd454 2.223 1_554 S
O462 C461 1.308 1_554 S
O463 Cd453 2.240 1_556 S
O463 C461 1.287 . S
O464 Cd454 2.297 . S
O464 C459 1.247 . S
O465 Cd454 2.438 . S
O465 C459 1.208 . S
O466 Cd467 2.223 . S
O466 C474 1.315 . S
Cd467 O466 2.223 . S
Cd467 O470 2.297 . S
Cd467 O471 2.439 . S
Cd467 O477 2.240 . S
Cd468 O469 2.240 . S
Cd468 O476 2.223 . S
Cd468 O478 2.297 . S
Cd468 O479 2.439 . S
O469 Cd468 2.240 . S
O469 C474 1.279 . S
O470 Cd467 2.297 . S
O470 C472 1.247 . S
O471 Cd467 2.439 . S
O471 C472 1.208 . S
C472 O470 1.247 . S
C472 O471 1.208 . S
C473 O478 1.247 . S
C473 O479 1.208 . S
C474 O466 1.315 . S
C474 O469 1.279 . S
C475 O476 1.315 . S
C475 O477 1.279 . S
O476 Cd468 2.223 . S
O476 C475 1.315 . S
O477 Cd467 2.240 . S
O477 C475 1.279 . S
O478 Cd468 2.297 . S
O478 C473 1.247 . S
O479 Cd468 2.439 . S
O479 C473 1.208 . S
C480 C481 1.369 . S
C480 C482 1.419 . S
C480 H484 0.930 . S
C481 C480 1.369 . S
C481 C490 1.429 . S
C482 C480 1.419 . S
C482 C483 1.363 . S
C482 H485 0.929 . S
C483 C482 1.363 . S
C483 C489 1.428 . S
H484 C480 0.930 . S
H485 C482 0.929 . S
S486 N487 1.613 . S
S486 N488 1.610 . S
N487 S486 1.613 . S
N487 C490 1.350 . S
N488 S486 1.610 . S
N488 C489 1.351 . S
C489 C483 1.428 . S
C489 N488 1.351 . S
C489 C490 1.434 . S
C490 C481 1.429 . S
C490 N487 1.350 . S
C490 C489 1.434 . S
C491 C492 1.369 . S
C491 C493 1.419 . S
C491 H495 0.930 . S
C492 C491 1.369 . S
C492 C501 1.429 . S
C493 C491 1.419 . S
C493 C494 1.363 . S
C493 H496 0.929 . S
C494 C493 1.363 . S
C494 C500 1.428 . S
H495 C491 0.930 . S
H496 C493 0.929 . S
S497 N498 1.613 . S
S497 N499 1.610 . S
N498 S497 1.613 . S
N498 C501 1.350 . S
N499 S497 1.610 . S
N499 C500 1.351 . S
C500 C494 1.428 . S
C500 N499 1.351 . S
C500 C501 1.434 . S
C501 C492 1.429 . S
C501 N498 1.350 . S
C501 C500 1.434 . S
C502 C503 1.369 . S
C502 C504 1.419 . S
C502 H506 0.930 . S
C503 C502 1.369 . S
C503 C512 1.429 . S
C504 C502 1.419 . S
C504 C505 1.363 . S
C504 H507 0.929 . S
C505 C504 1.363 . S
C505 C511 1.428 . S
H506 C502 0.930 . S
H507 C504 0.929 . S
S508 N509 1.613 . S
S508 N510 1.610 . S
N509 S508 1.613 . S
N509 C512 1.350 . S
N510 S508 1.610 . S
N510 C511 1.351 . S
C511 C505 1.428 . S
C511 N510 1.351 . S
C511 C512 1.434 . S
C512 C503 1.429 . S
C512 N509 1.350 . S
C512 C511 1.434 . S
C513 C514 1.369 . S
C513 C515 1.419 . S
C513 H517 0.930 . S
C514 C513 1.369 . S
C514 C523 1.429 . S
C515 C513 1.419 . S
C515 C516 1.363 . S
C515 H518 0.929 . S
C516 C515 1.363 . S
C516 C522 1.428 . S
H517 C513 0.930 . S
H518 C515 0.929 . S
S519 N520 1.613 . S
S519 N521 1.610 . S
N520 S519 1.613 . S
N520 C523 1.350 . S
N521 S519 1.610 . S
N521 C522 1.351 . S
C522 C516 1.428 . S
C522 N521 1.351 . S
C522 C523 1.434 . S
C523 C514 1.429 . S
C523 N520 1.350 . S
C523 C522 1.434 . S
C524 C525 1.369 . S
C524 C526 1.419 . S
C524 H528 0.930 . S
C525 C524 1.369 . S
C525 C534 1.429 . S
C526 C524 1.419 . S
C526 C527 1.363 . S
C526 H529 0.929 . S
C527 C526 1.363 . S
C527 C533 1.428 . S
H528 C524 0.930 . S
H529 C526 0.929 . S
S530 N531 1.613 . S
S530 N532 1.610 . S
N531 S530 1.613 . S
N531 C534 1.350 . S
N532 S530 1.610 . S
N532 C533 1.351 . S
C533 C527 1.428 . S
C533 N532 1.351 . S
C533 C534 1.434 . S
C534 C525 1.429 . S
C534 N531 1.350 . S
C534 C533 1.434 . S
C535 C536 1.369 . S
C535 C537 1.419 . S
C535 H539 0.930 . S
C536 C535 1.369 . S
C536 C545 1.429 . S
C537 C535 1.419 . S
C537 C538 1.363 . S
C537 H540 0.929 . S
C538 C537 1.363 . S
C538 C544 1.428 . S
H539 C535 0.930 . S
H540 C537 0.929 . S
S541 N542 1.613 . S
S541 N543 1.610 . S
N542 S541 1.613 . S
N542 C545 1.350 . S
N543 S541 1.610 . S
N543 C544 1.351 . S
C544 C538 1.428 . S
C544 N543 1.351 . S
C544 C545 1.434 . S
C545 C536 1.429 . S
C545 N542 1.350 . S
C545 C544 1.434 . S
C546 C547 1.369 . S
C546 C548 1.419 . S
C546 H550 0.930 . S
C547 C546 1.369 . S
C547 C556 1.429 . S
C548 C546 1.419 . S
C548 C549 1.363 . S
C548 H551 0.929 . S
C549 C548 1.363 . S
C549 C555 1.428 . S
H550 C546 0.930 . S
H551 C548 0.929 . S
S552 N553 1.613 . S
S552 N554 1.610 1_545 S
N553 S552 1.613 . S
N553 C556 1.350 1_545 S
N554 S552 1.610 1_565 S
N554 C555 1.351 . S
C555 C549 1.428 . S
C555 N554 1.351 . S
C555 C556 1.434 . S
C556 C547 1.429 . S
C556 N553 1.350 1_565 S
C556 C555 1.434 . S
C557 C558 1.369 . S
C557 C559 1.419 1_545 S
C557 H561 0.930 . S
C558 C557 1.369 . S
C558 C567 1.429 . S
C559 C557 1.419 1_565 S
C559 C560 1.363 . S
C559 H562 0.929 . S
C560 C559 1.363 . S
C560 C566 1.428 . S
H561 C557 0.930 . S
H562 C559 0.929 . S
S563 N564 1.613 1_565 S
S563 N565 1.610 . S
N564 S563 1.613 1_545 S
N564 C567 1.350 . S
N565 S563 1.610 . S
N565 C566 1.351 . S
C566 C560 1.428 . S
C566 N565 1.351 . S
C566 C567 1.434 1_565 S
C567 C558 1.429 . S
C567 N564 1.350 . S
C567 C566 1.434 1_545 S
C568 C569 1.369 . S
C568 C570 1.419 . S
C568 H572 0.930 . S
C569 C568 1.369 . S
C569 C578 1.429 . S
C570 C568 1.419 . S
C570 C571 1.363 . S
C570 H573 0.929 . S
C571 C570 1.363 . S
C571 C577 1.428 . S
H572 C568 0.930 . S
H573 C570 0.929 . S
S574 N575 1.613 . S
S574 N576 1.610 . S
N575 S574 1.613 . S
N575 C578 1.350 . S
N576 S574 1.610 . S
N576 C577 1.351 . S
C577 C571 1.428 . S
C577 N576 1.351 . S
C577 C578 1.434 . S
C578 C569 1.429 . S
C578 N575 1.350 . S
C578 C577 1.434 . S
C579 C580 1.369 . S
C579 C581 1.419 . S
C579 H583 0.930 . S
C580 C579 1.369 . S
C580 C589 1.429 . S
C581 C579 1.419 . S
C581 C582 1.363 . S
C581 H584 0.922 1_554 S
C582 C581 1.363 . S
C582 C588 1.428 . S
H583 C579 0.930 . S
H584 C581 0.922 1_556 S
S585 N586 1.613 . S
S585 N587 1.610 . S
N586 S585 1.613 . S
N586 C589 1.350 . S
N587 S585 1.610 . S
N587 C588 1.351 . S
C588 C582 1.428 . S
C588 N587 1.351 . S
C588 C589 1.434 . S
C589 C580 1.429 . S
C589 N586 1.350 . S
C589 C588 1.434 . S
C590 C591 1.369 . S
C590 C592 1.419 . S
C590 H594 0.930 . S
C591 C590 1.369 . S
C591 C600 1.429 . S
C592 C590 1.419 . S
C592 C593 1.363 . S
C592 H595 0.929 . S
C593 C592 1.363 . S
C593 C599 1.428 . S
H594 C590 0.930 . S
H595 C592 0.929 . S
S596 N597 1.613 . S
S596 N598 1.610 1_455 S
N597 S596 1.613 . S
N597 C600 1.350 1_455 S
N598 S596 1.610 1_655 S
N598 C599 1.351 . S
C599 C593 1.428 . S
C599 N598 1.351 . S
C599 C600 1.434 . S
C600 C591 1.429 . S
C600 N597 1.350 1_655 S
C600 C599 1.434 . S
C601 C602 1.369 . S
C601 C603 1.419 . S
C601 H605 0.930 . S
C602 C601 1.369 . S
C602 C611 1.429 . S
C603 C601 1.419 . S
C603 C604 1.363 . S
C603 H606 0.929 . S
C604 C603 1.363 . S
C604 C610 1.428 . S
H605 C601 0.930 . S
H606 C603 0.929 . S
S607 N608 1.613 . S
S607 N609 1.610 1_455 S
N608 S607 1.613 . S
N608 C611 1.350 1_455 S
N609 S607 1.610 1_655 S
N609 C610 1.351 . S
C610 C604 1.428 . S
C610 N609 1.351 . S
C610 C611 1.434 . S
C611 C602 1.429 . S
C611 N608 1.350 1_655 S
C611 C610 1.434 . S
C612 C613 1.369 . S
C612 C614 1.419 . S
C612 H616 0.930 . S
C613 C612 1.369 . S
C613 C622 1.429 . S
C614 C612 1.419 . S
C614 C615 1.363 . S
C614 H617 0.929 . S
C615 C614 1.363 . S
C615 C621 1.428 . S
H616 C612 0.930 . S
H617 C614 0.929 . S
S618 N619 1.613 . S
S618 N620 1.610 . S
N619 S618 1.613 . S
N619 C622 1.350 . S
N620 S618 1.610 . S
N620 C621 1.351 . S
C621 C615 1.428 . S
C621 N620 1.351 . S
C621 C622 1.434 . S
C622 C613 1.429 . S
C622 N619 1.350 . S
C622 C621 1.434 . S
C623 C624 1.369 . S
C623 C625 1.419 . S
C623 H627 0.930 . S
C624 C623 1.369 . S
C624 C633 1.429 . S
C625 C623 1.419 . S
C625 C626 1.363 . S
C625 H628 0.929 . S
C626 C625 1.363 . S
C626 C632 1.428 . S
H627 C623 0.930 . S
H628 C625 0.929 . S
S629 N630 1.613 1_655 S
S629 N631 1.610 . S
N630 S629 1.613 1_455 S
N630 C633 1.350 1_455 S
N631 S629 1.610 . S
N631 C632 1.351 . S
C632 C626 1.428 . S
C632 N631 1.351 . S
C632 C633 1.434 . S
C633 C624 1.429 . S
C633 N630 1.350 1_655 S
C633 C632 1.434 . S
C634 C635 1.369 1_554 S
C634 C636 1.419 . S
C634 H638 0.930 . S
C635 C634 1.369 1_556 S
C635 C644 1.429 . S
C636 C634 1.419 . S
C636 C637 1.363 1_554 S
C636 H639 0.929 . S
C637 C636 1.363 1_556 S
C637 C643 1.428 . S
H638 C634 0.930 . S
H639 C636 0.929 . S
S640 N641 1.613 . S
S640 N642 1.610 . S
N641 S640 1.613 . S
N641 C644 1.350 . S
N642 S640 1.610 . S
N642 C643 1.351 . S
C643 C637 1.428 . S
C643 N642 1.351 . S
C643 C644 1.434 . S
C644 C635 1.429 . S
C644 N641 1.350 . S
C644 C643 1.434 . S
C645 C646 1.369 . S
C645 C647 1.419 . S
C645 H649 0.930 . S
C646 C645 1.369 . S
C646 C655 1.429 . S
C647 C645 1.419 . S
C647 C648 1.363 . S
C647 H650 0.929 . S
C648 C647 1.363 . S
C648 C654 1.428 . S
H649 C645 0.930 . S
H650 C647 0.929 . S
S651 N652 1.613 . S
S651 N653 1.610 . S
N652 S651 1.613 . S
N652 C655 1.350 . S
N653 S651 1.610 . S
N653 C654 1.351 . S
C654 C648 1.428 . S
C654 N653 1.351 . S
C654 C655 1.434 . S
C655 C646 1.429 . S
C655 N652 1.350 . S
C655 C654 1.434 . S
C656 C657 1.369 . S
C656 C658 1.419 . S
C656 H660 0.930 . S
C657 C656 1.369 . S
C657 C666 1.429 . S
C658 C656 1.419 . S
C658 C659 1.363 . S
C658 H661 0.929 . S
C659 C658 1.363 . S
C659 C665 1.428 . S
H660 C656 0.930 . S
H661 C658 0.929 . S
S662 N663 1.613 . S
S662 N664 1.610 . S
N663 S662 1.613 . S
N663 C666 1.350 . S
N664 S662 1.610 . S
N664 C665 1.351 . S
C665 C659 1.428 . S
C665 N664 1.351 . S
C665 C666 1.434 . S
C666 C657 1.429 . S
C666 N663 1.350 . S
C666 C665 1.434 . S
C667 C668 1.369 . S
C667 C669 1.419 . S
C667 H671 0.930 . S
C668 C667 1.369 . S
C668 C677 1.429 . S
C669 C667 1.419 . S
C669 C670 1.363 . S
C669 H672 0.929 . S
C670 C669 1.363 . S
C670 C676 1.428 . S
H671 C667 0.930 . S
H672 C669 0.929 . S
S673 N674 1.613 . S
S673 N675 1.610 . S
N674 S673 1.613 . S
N674 C677 1.350 . S
N675 S673 1.610 . S
N675 C676 1.351 . S
C676 C670 1.428 . S
C676 N675 1.351 . S
C676 C677 1.434 . S
C677 C668 1.429 . S
C677 N674 1.350 . S
C677 C676 1.434 . S
C678 C679 1.369 . S
C678 C680 1.419 . S
C678 H682 0.930 . S
C679 C678 1.369 . S
C679 C688 1.429 . S
C680 C678 1.419 . S
C680 C681 1.363 . S
C680 H683 0.929 . S
C681 C680 1.363 . S
C681 C687 1.428 . S
H682 C678 0.930 . S
H683 C680 0.929 . S
S684 N685 1.613 . S
S684 N686 1.610 . S
N685 S684 1.613 . S
N685 C688 1.350 . S
N686 S684 1.610 . S
N686 C687 1.351 . S
C687 C681 1.428 . S
C687 N686 1.351 . S
C687 C688 1.434 . S
C688 C679 1.429 . S
C688 N685 1.350 . S
C688 C687 1.434 . S
C689 C690 1.369 . S
C689 C691 1.419 . S
C689 H693 0.930 . S
C690 C689 1.369 . S
C690 C699 1.429 . S
C691 C689 1.419 . S
C691 C692 1.363 . S
C691 H694 0.929 . S
C692 C691 1.363 . S
C692 C698 1.428 . S
H693 C689 0.930 . S
H694 C691 0.929 . S
S695 N696 1.613 . S
S695 N697 1.610 . S
N696 S695 1.613 . S
N696 C699 1.350 . S
N697 S695 1.610 . S
N697 C698 1.351 . S
C698 C692 1.428 . S
C698 N697 1.351 . S
C698 C699 1.434 . S
C699 C690 1.429 . S
C699 N696 1.350 . S
C699 C698 1.434 . S
C700 C701 1.369 . S
C700 C702 1.419 . S
C700 H704 0.930 . S
C701 C700 1.369 . S
C701 C710 1.429 . S
C702 C700 1.419 . S
C702 C703 1.363 . S
C702 H705 0.929 . S
C703 C702 1.363 . S
C703 C709 1.428 . S
H704 C700 0.930 . S
H705 C702 0.929 . S
S706 N707 1.613 . S
S706 N708 1.610 . S
N707 S706 1.613 . S
N707 C710 1.350 . S
N708 S706 1.610 . S
N708 C709 1.351 . S
C709 C703 1.428 . S
C709 N708 1.351 . S
C709 C710 1.434 . S
C710 C701 1.429 . S
C710 N707 1.350 . S
C710 C709 1.434 . S
C711 C712 1.369 . S
C711 C713 1.419 . S
C711 H715 0.930 . S
C712 C711 1.369 . S
C712 C721 1.429 . S
C713 C711 1.419 . S
C713 C714 1.363 . S
C713 H716 0.929 . S
C714 C713 1.363 . S
C714 C720 1.428 . S
H715 C711 0.930 . S
H716 C713 0.929 . S
S717 N718 1.613 . S
S717 N719 1.610 . S
N718 S717 1.613 . S
N718 C721 1.350 . S
N719 S717 1.610 . S
N719 C720 1.351 . S
C720 C714 1.428 . S
C720 N719 1.351 . S
C720 C721 1.434 . S
C721 C712 1.429 . S
C721 N718 1.350 . S
C721 C720 1.434 . S
C722 C723 1.369 . S
C722 C724 1.419 . S
C722 H726 0.930 . S
C723 C722 1.369 . S
C723 C732 1.429 . S
C724 C722 1.419 . S
C724 C725 1.363 . S
C724 H727 0.929 . S
C725 C724 1.363 . S
C725 C731 1.428 . S
H726 C722 0.930 . S
H727 C724 0.929 . S
S728 N729 1.613 . S
S728 N730 1.610 . S
N729 S728 1.613 . S
N729 C732 1.350 . S
N730 S728 1.610 . S
N730 C731 1.351 . S
C731 C725 1.428 . S
C731 N730 1.351 . S
C731 C732 1.434 . S
C732 C723 1.429 . S
C732 N729 1.350 . S
C732 C731 1.434 . S
C733 C734 1.369 1_565 S
C733 C735 1.419 . S
C733 H737 0.930 . S
C734 C733 1.369 1_545 S
C734 C743 1.429 . S
C735 C733 1.419 . S
C735 C736 1.363 . S
C735 H738 0.929 . S
C736 C735 1.363 . S
C736 C742 1.428 1_565 S
H737 C733 0.930 . S
H738 C735 0.929 . S
S739 N740 1.613 . S
S739 N741 1.610 . S
N740 S739 1.613 . S
N740 C743 1.350 . S
N741 S739 1.610 . S
N741 C742 1.351 . S
C742 C736 1.428 1_545 S
C742 N741 1.351 . S
C742 C743 1.434 . S
C743 C734 1.429 . S
C743 N740 1.350 . S
C743 C742 1.434 . S
C744 C745 1.369 . S
C744 C746 1.419 . S
C744 H748 0.930 . S
C745 C744 1.369 . S
C745 C754 1.429 . S
C746 C744 1.419 . S
C746 C747 1.363 . S
C746 H749 0.929 . S
C747 C746 1.363 . S
C747 C753 1.428 . S
H748 C744 0.930 . S
H749 C746 0.929 . S
S750 N751 1.613 . S
S750 N752 1.610 . S
N751 S750 1.613 . S
N751 C754 1.350 . S
N752 S750 1.610 . S
N752 C753 1.351 . S
C753 C747 1.428 . S
C753 N752 1.351 . S
C753 C754 1.434 . S
C754 C745 1.429 . S
C754 N751 1.350 . S
C754 C753 1.434 . S
C755 C756 1.369 . S
C755 C757 1.419 . S
C755 H759 0.930 . S
C756 C755 1.369 . S
C756 C765 1.429 . S
C757 C755 1.419 . S
C757 C758 1.363 . S
C757 H760 0.929 . S
C758 C757 1.363 . S
C758 C764 1.428 . S
H759 C755 0.930 . S
H760 C757 0.929 . S
S761 N762 1.613 . S
S761 N763 1.610 . S
N762 S761 1.613 . S
N762 C765 1.350 . S
N763 S761 1.610 . S
N763 C764 1.351 . S
C764 C758 1.428 . S
C764 N763 1.351 . S
C764 C765 1.434 . S
C765 C756 1.429 . S
C765 N762 1.350 . S
C765 C764 1.434 . S
C766 C767 1.369 . S
C766 C768 1.419 . S
C766 H770 0.930 . S
C767 C766 1.369 . S
C767 C776 1.429 . S
C768 C766 1.419 . S
C768 C769 1.363 . S
C768 H771 0.929 . S
C769 C768 1.363 . S
C769 C775 1.428 . S
H770 C766 0.930 . S
H771 C768 0.929 . S
S772 N773 1.613 . S
S772 N774 1.610 . S
N773 S772 1.613 . S
N773 C776 1.350 . S
N774 S772 1.610 . S
N774 C775 1.351 . S
C775 C769 1.428 . S
C775 N774 1.351 . S
C775 C776 1.434 . S
C776 C767 1.429 . S
C776 N773 1.350 . S
C776 C775 1.434 . S
C777 C778 1.369 . S
C777 C779 1.419 . S
C777 H781 0.930 . S
C778 C777 1.369 . S
C778 C787 1.429 . S
C779 C777 1.419 . S
C779 C780 1.363 . S
C779 H782 0.929 . S
C780 C779 1.363 . S
C780 C786 1.428 . S
H781 C777 0.930 . S
H782 C779 0.929 . S
S783 N784 1.613 . S
S783 N785 1.610 . S
N784 S783 1.613 . S
N784 C787 1.350 . S
N785 S783 1.610 . S
N785 C786 1.351 . S
C786 C780 1.428 . S
C786 N785 1.351 . S
C786 C787 1.434 . S
C787 C778 1.429 . S
C787 N784 1.350 . S
C787 C786 1.434 . S
C788 C789 1.369 . S
C788 C790 1.419 . S
C788 H792 0.930 . S
C789 C788 1.369 . S
C789 C798 1.429 . S
C790 C788 1.419 . S
C790 C791 1.363 . S
C790 H793 0.929 . S
C791 C790 1.363 . S
C791 C797 1.428 . S
H792 C788 0.930 . S
H793 C790 0.929 . S
S794 N795 1.613 . S
S794 N796 1.610 . S
N795 S794 1.613 . S
N795 C798 1.350 . S
N796 S794 1.610 . S
N796 C797 1.351 . S
C797 C791 1.428 . S
C797 N796 1.351 . S
C797 C798 1.434 . S
C798 C789 1.429 . S
C798 N795 1.350 . S
C798 C797 1.434 . S
C799 C800 1.369 . S
C799 C801 1.419 1_455 S
C799 H803 0.930 . S
C800 C799 1.369 . S
C800 C809 1.429 1_455 S
C801 C799 1.419 1_655 S
C801 C802 1.363 . S
C801 H804 0.929 . S
C802 C801 1.363 . S
C802 C808 1.428 . S
H803 C799 0.930 . S
H804 C801 0.929 . S
S805 N806 1.613 . S
S805 N807 1.610 . S
N806 S805 1.613 . S
N806 C809 1.350 . S
N807 S805 1.610 . S
N807 C808 1.351 . S
C808 C802 1.428 . S
C808 N807 1.351 . S
C808 C809 1.434 . S
C809 C800 1.429 1_655 S
C809 N806 1.350 . S
C809 C808 1.434 . S
C810 C811 1.369 . S
C810 C812 1.419 . S
C810 H814 0.930 . S
C811 C810 1.369 . S
C811 C820 1.429 . S
C812 C810 1.419 . S
C812 C813 1.363 . S
C812 H815 0.929 . S
C813 C812 1.363 . S
C813 C819 1.428 . S
H814 C810 0.930 . S
H815 C812 0.929 . S
S816 N817 1.613 . S
S816 N818 1.610 . S
N817 S816 1.613 . S
N817 C820 1.350 . S
N818 S816 1.610 . S
N818 C819 1.351 . S
C819 C813 1.428 . S
C819 N818 1.351 . S
C819 C820 1.434 . S
C820 C811 1.429 . S
C820 N817 1.350 . S
C820 C819 1.434 . S
C821 C822 1.369 . S
C821 C823 1.419 . S
C821 H825 0.930 . S
C822 C821 1.369 . S
C822 C831 1.429 . S
C823 C821 1.419 . S
C823 C824 1.363 . S
C823 H826 0.929 . S
C824 C823 1.363 . S
C824 C830 1.428 . S
H825 C821 0.930 . S
H826 C823 0.929 . S
S827 N828 1.613 . S
S827 N829 1.610 . S
N828 S827 1.613 . S
N828 C831 1.350 . S
N829 S827 1.610 . S
N829 C830 1.351 . S
C830 C824 1.428 . S
C830 N829 1.351 . S
C830 C831 1.434 . S
C831 C822 1.429 . S
C831 N828 1.350 . S
C831 C830 1.434 . S
C483 C388 1.459 . S
C481 C8 1.409 . S
C494 C405 1.443 . S
C492 C61 1.464 . S
C505 C419 1.574 . S
C503 C107 1.581 . S
C514 C139 1.417 . S
C516 C377 1.425 . S
C525 C192 1.384 . S
C527 C374 1.448 . S
C536 C238 1.249 . S
C538 C391 1.258 . S
C549 C402 1.608 . S
C547 C284 1.569 . S
C560 C416 1.498 . S
C558 C330 1.445 . S
C569 C100 1.438 . S
C571 C444 1.495 . S
C582 C458 1.605 . S
C580 C160 1.549 . S
C591 C15 1.251 1_655 S
C593 C475 1.267 . S
C604 C430 1.454 . S
C602 C54 1.388 . S
C613 C291 1.430 . S
C615 C433 1.425 . S
C624 C337 1.582 1_655 S
C626 C447 1.567 . S
C637 C461 1.455 . S
C635 C199 1.465 . S
C646 C245 1.410 . S
C648 C472 1.456 . S
C659 C404 1.893 . S
C657 C1 1.907 . S
C670 C418 2.048 . S
C668 C68 2.034 . S
C679 C114 1.992 . S
C681 C376 2.003 1_556 S
C690 C146 1.868 . S
C692 C389 1.748 . S
C701 C185 1.648 . S
C703 C417 1.502 . S
C714 C375 1.517 . S
C712 C231 1.686 . S
C725 C390 1.827 . S
C723 C277 1.842 . S
C736 C403 1.593 . S
C734 C323 1.718 . S
C747 C459 1.598 . S
C745 C93 1.720 . S
C758 C474 1.826 . S
C756 C153 1.839 . S
C767 C22 1.665 1_655 S
C769 C431 1.523 . S
C780 C445 1.494 . S
C778 C47 1.647 . S
C791 C473 1.749 . S
C789 C298 1.842 . S
C800 C344 1.985 . S
C802 C432 2.008 . S
C813 C446 2.053 . S
C811 C206 2.027 . S
C824 C460 1.892 . S
C822 C252 1.898 . S
