# Generated by pormake.
# Topology pyr, (3,6)-cn, num edge types: 1
# Building blocks:
#     Node 0, Type 0, BuildingBlock: CUQRIR_clean_linker_1, # of connection points: 3
#     Node 1, Type 0, BuildingBlock: CUQRIR_clean_linker_1, # of connection points: 3
#     Node 2, Type 0, BuildingBlock: CUQRIR_clean_linker_1, # of connection points: 3
#     Node 3, Type 0, BuildingBlock: CUQRIR_clean_linker_1, # of connection points: 3
#     Node 4, Type 0, BuildingBlock: CUQRIR_clean_linker_1, # of connection points: 3
#     Node 5, Type 0, BuildingBlock: CUQRIR_clean_linker_1, # of connection points: 3
#     Node 6, Type 0, BuildingBlock: CUQRIR_clean_linker_1, # of connection points: 3
#     Node 7, Type 0, BuildingBlock: CUQRIR_clean_linker_1, # of connection points: 3
#     Node 8, Type 1, BuildingBlock: PAMTUU_clean_sbu_0, # of connection points: 6
#     Node 9, Type 1, BuildingBlock: PAMTUU_clean_sbu_0, # of connection points: 6
#     Node 10, Type 1, BuildingBlock: PAMTUU_clean_sbu_0, # of connection points: 6
#     Node 11, Type 1, BuildingBlock: PAMTUU_clean_sbu_0, # of connection points: 6
#     Edge 12, Type (0, 1), BuildingBlock: ZUJKAS_clean_linker_0, # of connection points: 2
#     Edge 13, Type (0, 1), BuildingBlock: ZUJKAS_clean_linker_0, # of connection points: 2
#     Edge 14, Type (0, 1), BuildingBlock: ZUJKAS_clean_linker_0, # of connection points: 2
#     Edge 15, Type (0, 1), BuildingBlock: ZUJKAS_clean_linker_0, # of connection points: 2
#     Edge 16, Type (0, 1), BuildingBlock: ZUJKAS_clean_linker_0, # of connection points: 2
#     Edge 17, Type (0, 1), BuildingBlock: ZUJKAS_clean_linker_0, # of connection points: 2
#     Edge 18, Type (0, 1), BuildingBlock: ZUJKAS_clean_linker_0, # of connection points: 2
#     Edge 19, Type (0, 1), BuildingBlock: ZUJKAS_clean_linker_0, # of connection points: 2
#     Edge 20, Type (0, 1), BuildingBlock: ZUJKAS_clean_linker_0, # of connection points: 2
#     Edge 21, Type (0, 1), BuildingBlock: ZUJKAS_clean_linker_0, # of connection points: 2
#     Edge 22, Type (0, 1), BuildingBlock: ZUJKAS_clean_linker_0, # of connection points: 2
#     Edge 23, Type (0, 1), BuildingBlock: ZUJKAS_clean_linker_0, # of connection points: 2
#     Edge 24, Type (0, 1), BuildingBlock: ZUJKAS_clean_linker_0, # of connection points: 2
#     Edge 25, Type (0, 1), BuildingBlock: ZUJKAS_clean_linker_0, # of connection points: 2
#     Edge 26, Type (0, 1), BuildingBlock: ZUJKAS_clean_linker_0, # of connection points: 2
#     Edge 27, Type (0, 1), BuildingBlock: ZUJKAS_clean_linker_0, # of connection points: 2
#     Edge 28, Type (0, 1), BuildingBlock: ZUJKAS_clean_linker_0, # of connection points: 2
#     Edge 29, Type (0, 1), BuildingBlock: ZUJKAS_clean_linker_0, # of connection points: 2
#     Edge 30, Type (0, 1), BuildingBlock: ZUJKAS_clean_linker_0, # of connection points: 2
#     Edge 31, Type (0, 1), BuildingBlock: ZUJKAS_clean_linker_0, # of connection points: 2
#     Edge 32, Type (0, 1), BuildingBlock: ZUJKAS_clean_linker_0, # of connection points: 2
#     Edge 33, Type (0, 1), BuildingBlock: ZUJKAS_clean_linker_0, # of connection points: 2
#     Edge 34, Type (0, 1), BuildingBlock: ZUJKAS_clean_linker_0, # of connection points: 2
#     Edge 35, Type (0, 1), BuildingBlock: ZUJKAS_clean_linker_0, # of connection points: 2
# Relax obj value: 0.145
# Max RMSD: 0.240
# Mean RMSD: 0.160
data_MOF--net-pyr--node1-PAMTUU_clean_sbu_0--node2-CUQRIR_clean_linker_1--edge1-ZUJKAS_clean_linker_0
_symmetry_space_group_name_H-M    P1
_symmetry_Int_Tables_number       1
_symmetry_cell_setting            triclinic
loop_
_symmetry_equiv_pos_as_xyz
'x, y, z'
_cell_length_a     46.952051
_cell_length_b     47.381315
_cell_length_c     44.357944
_cell_angle_alpha  89.180828
_cell_angle_beta   89.959304
_cell_angle_gamma 104.55965
loop_
_atom_site_label
_atom_site_type_symbol
_atom_site_fract_x
_atom_site_fract_y
_atom_site_fract_z
_atom_type_partial_charge
C0 C 0.32516 0.34521 0.23699 0.0
N1 N 0.33851 0.32473 0.24715 0.0
N2 N 0.32992 0.35029 0.20705 0.0
C3 C 0.30451 0.35781 0.25545 0.0
C4 C 0.34713 0.33237 0.19947 0.0
N5 N 0.35251 0.31702 0.22386 0.0
C6 C 0.35528 0.32699 0.16766 0.0
H7 H 0.30695 0.35404 0.27994 0.0
H8 H 0.2815 0.34771 0.24865 0.0
H9 H 0.30887 0.38161 0.25112 0.0
H10 H 0.3792 0.32857 0.16615 0.0
H11 H 0.34973 0.34292 0.15156 0.0
H12 H 0.34345 0.30455 0.16125 0.0
C13 C 0.19699 0.81445 0.71862 0.0
N14 N 0.19382 0.83553 0.73775 0.0
N15 N 0.21587 0.79969 0.73007 0.0
C16 C 0.18387 0.81018 0.68755 0.0
C17 C 0.22424 0.81269 0.7567 0.0
N18 N 0.21097 0.83449 0.76134 0.0
C19 C 0.2483 0.80651 0.7762 0.0
H20 H 0.15957 0.80298 0.6894 0.0
H21 H 0.1916 0.79355 0.67481 0.0
H22 H 0.18947 0.83123 0.67487 0.0
H23 H 0.26979 0.8151 0.76468 0.0
H24 H 0.24504 0.78266 0.7794 0.0
H25 H 0.24902 0.8167 0.79864 0.0
C26 C 0.63723 0.38124 0.86916 0.0
N27 N 0.65462 0.37863 0.89289 0.0
N28 N 0.64776 0.40705 0.85441 0.0
C29 C 0.60958 0.3589 0.86083 0.0
C30 C 0.67212 0.42007 0.87022 0.0
N31 N 0.67623 0.40289 0.89368 0.0
C32 C 0.69302 0.44868 0.86154 0.0
H33 H 0.61522 0.34374 0.84434 0.0
H34 H 0.59344 0.3695 0.85027 0.0
H35 H 0.59933 0.34589 0.88078 0.0
H36 H 0.68646 0.46652 0.87342 0.0
H37 H 0.69244 0.45284 0.8369 0.0
H38 H 0.71587 0.44898 0.86821 0.0
C39 C 0.84483 0.6898 0.35948 0.0
N40 N 0.8705 0.70942 0.35241 0.0
N41 N 0.83027 0.69994 0.38161 0.0
C42 C 0.83339 0.66125 0.34378 0.0
C43 C 0.84806 0.7265 0.38774 0.0
N44 N 0.87239 0.73239 0.36994 0.0
C45 C 0.84223 0.74631 0.41197 0.0
H46 H 0.8408 0.66281 0.31992 0.0
H47 H 0.809 0.6544 0.34458 0.0
H48 H 0.84214 0.64429 0.3553 0.0
H49 H 0.82847 0.73365 0.43033 0.0
H50 H 0.83038 0.76164 0.40191 0.0
H51 H 0.86305 0.75937 0.42172 0.0
C52 C 0.70706 0.83235 0.93076 0.0
N53 N 0.72499 0.82532 0.90985 0.0
N54 N 0.69204 0.85069 0.91878 0.0
C55 C 0.70378 0.82105 0.96274 0.0
C56 C 0.70154 0.85466 0.88982 0.0
N57 N 0.72141 0.839 0.88432 0.0
C58 C 0.69415 0.87647 0.86809 0.0
H59 H 0.68152 0.82045 0.97162 0.0
H60 H 0.72025 0.83581 0.97703 0.0
H61 H 0.70761 0.79889 0.96424 0.0
H62 H 0.71328 0.88655 0.85346 0.0
H63 H 0.68713 0.89398 0.88007 0.0
H64 H 0.67586 0.86501 0.85345 0.0
C65 C 0.84413 0.31285 0.43166 0.0
N66 N 0.85444 0.2963 0.41178 0.0
N67 N 0.82546 0.32652 0.41791 0.0
C68 C 0.85218 0.31585 0.46444 0.0
C69 C 0.82473 0.3176 0.389 0.0
N70 N 0.84252 0.29944 0.38519 0.0
C71 C 0.80338 0.32337 0.36578 0.0
H72 H 0.83677 0.29848 0.47764 0.0
H73 H 0.85037 0.33728 0.47287 0.0
H74 H 0.87489 0.31356 0.46801 0.0
H75 H 0.80847 0.34709 0.36067 0.0
H76 H 0.78067 0.31679 0.37506 0.0
H77 H 0.80428 0.31167 0.34448 0.0
C78 C 0.3399 0.69038 0.25736 0.0
N79 N 0.36371 0.71128 0.26616 0.0
N80 N 0.32633 0.7 0.23382 0.0
C81 C 0.3302 0.6604 0.27142 0.0
C82 C 0.3427 0.72755 0.22873 0.0
N83 N 0.3654 0.73443 0.24832 0.0
C84 C 0.33612 0.74804 0.20498 0.0
H85 H 0.34929 0.65297 0.28009 0.0
H86 H 0.31806 0.6444 0.25497 0.0
H87 H 0.31539 0.66115 0.29073 0.0
H88 H 0.31219 0.74312 0.20027 0.0
H89 H 0.34782 0.7454 0.18387 0.0
H90 H 0.34382 0.77109 0.21188 0.0
C91 C 0.13294 0.37456 0.74912 0.0
N92 N 0.15086 0.37034 0.7264 0.0
N93 N 0.14584 0.39856 0.76516 0.0
C94 C 0.10378 0.35412 0.75716 0.0
C95 C 0.17232 0.40875 0.75144 0.0
N96 N 0.17548 0.3916 0.72808 0.0
C97 C 0.19475 0.43603 0.76026 0.0
H98 H 0.08619 0.36053 0.74411 0.0
H99 H 0.09886 0.35522 0.78152 0.0
H100 H 0.10356 0.33132 0.75153 0.0
H101 H 0.2098 0.4302 0.77717 0.0
H102 H 0.18395 0.45192 0.77047 0.0
H103 H 0.20812 0.44639 0.74057 0.0
Tb104 Tb 0.06081 0.05737 0.51537 0.0
Tb105 Tb 1.00057 0.04607 0.5554 0.0
C106 C 1.00844 1.00213 0.50589 0.0
C107 C 0.13309 0.0886 0.47657 0.0
C108 C 0.1818 0.13361 0.4585 0.0
C109 C 0.1585 0.13996 0.47485 0.0
C110 C 0.13431 0.11757 0.48388 0.0
C111 C 0.15631 0.08214 0.46061 0.0
C112 C 0.18047 0.10442 0.45162 0.0
C113 C 0.10808 0.0647 0.48566 0.0
O114 O 0.03943 0.09095 0.50061 0.0
O115 O 0.99243 0.06584 0.51284 0.0
O116 O 0.02346 0.09163 0.56274 0.0
O117 O 0.07048 0.08878 0.55198 0.0
O118 O 0.95457 0.03014 0.55723 0.0
O119 O 0.979 0.05011 0.59591 0.0
O120 O 0.03272 0.03254 0.58358 0.0
O121 O 0.05985 1.0205 0.54539 0.0
O122 O 0.02796 1.02355 0.49265 0.0
O123 O 0.99959 1.0047 0.53365 0.0
C124 C 1.01082 0.08714 0.49832 0.0
O125 O 0.10575 0.05868 0.51444 0.0
O126 O 0.08274 0.06464 0.47361 0.0
C127 C 0.05216 0.10227 0.56434 0.0
C128 C 0.93668 1.01185 0.60499 0.0
C129 C 0.90357 0.96732 0.64281 0.0
C130 C 0.93427 0.97185 0.64058 0.0
C131 C 0.95071 0.99386 0.62166 0.0
C132 C 0.90607 1.00709 0.6068 0.0
C133 C 0.88962 0.98498 0.62549 0.0
C134 C 0.95348 0.03578 0.58578 0.0
C135 C 0.05195 1.01896 0.57382 0.0
H136 H 0.159 0.1622 0.48065 0.0
H137 H 0.11655 0.12282 0.49644 0.0
H138 H 0.15566 0.05983 0.45486 0.0
H139 H 0.19775 0.09884 0.43862 0.0
H140 H 0.94555 0.95841 0.65349 0.0
H141 H 0.97435 0.99701 0.62029 0.0
H142 H 0.8949 1.02073 0.59402 0.0
H143 H 0.86605 0.98227 0.62704 0.0
Tb144 Tb 0.54322 0.07487 0.12491 0.0
Tb145 Tb 0.48809 0.06271 0.07675 0.0
C146 C 0.54252 0.03796 0.06706 0.0
C147 C 0.61601 0.10127 0.16405 0.0
C148 C 0.67328 0.13499 0.17606 0.0
C149 C 0.66491 0.10528 0.18424 0.0
C150 C 0.63646 0.08862 0.17838 0.0
C151 C 0.62485 0.13048 0.15415 0.0
C152 C 0.65324 0.14723 0.16024 0.0
C153 C 0.58517 0.08434 0.16205 0.0
O154 O 0.55273 0.11393 0.09646 0.0
O155 O 0.52203 0.09786 0.05618 0.0
O156 O 0.48815 0.10056 0.1032 0.0
O157 O 0.50517 0.08486 0.1464 0.0
O158 O 0.47153 0.0562 1.03285 0.0
O159 O 0.44325 0.06062 0.07024 0.0
O160 O 0.4739 1.0297 0.11253 0.0
O161 O 0.51853 0.03059 0.13459 0.0
O162 O 0.55808 0.05941 0.08323 0.0
O163 O 0.51368 0.03192 0.06652 0.0
C164 C 0.54367 0.11722 0.06886 0.0
O165 O 0.56519 0.09909 0.16084 0.0
O166 O 0.57953 0.06246 0.14367 0.0
C167 C 0.49004 0.10087 0.13254 0.0
C168 C 0.4203 0.03484 1.02772 0.0
C169 C 0.37447 0.99836 0.99493 0.0
C170 C 0.37167 1.02534 1.00549 0.0
C171 C 0.39437 0.04338 1.02171 0.0
C172 C 0.42281 1.00737 1.0184 0.0
C173 C 0.39999 0.98921 1.00216 0.0
C174 C 0.44492 0.0562 0.0414 0.0
C175 C 0.49054 1.01817 0.13042 0.0
H176 H 0.67977 0.09533 0.19671 0.0
H177 H 0.63005 0.06611 0.18616 0.0
H178 H 0.60954 0.14066 0.14274 0.0
H179 H 0.65924 0.17002 0.15344 0.0
H180 H 0.35212 0.03279 1.00068 0.0
H181 H 0.39203 0.06449 1.02878 0.0
H182 H 0.4427 1.00038 1.02284 0.0
H183 H 0.40284 0.9686 0.99417 0.0
Tb184 Tb 0.50046 0.51743 0.53179 0.0
Tb185 Tb 0.50156 0.5753 0.57179 0.0
C186 C 0.4745 0.569 0.50779 0.0
C187 C 0.52852 0.45968 0.4984 0.0
C188 C 0.57698 0.43536 0.49062 0.0
C189 C 0.5519 0.42678 0.47227 0.0
C190 C 0.52787 0.43889 0.47612 0.0
C191 C 0.55322 0.46794 0.5171 0.0
C192 C 0.57722 0.4559 0.51327 0.0
C193 C 0.50439 0.47412 0.50105 0.0
O194 O 0.54618 0.54201 0.53395 0.0
O195 O 0.53838 0.58727 0.54005 0.0
O196 O 0.53134 0.55374 0.59476 0.0
O197 O 0.51238 0.50744 0.57752 0.0
O198 O 0.50622 0.62048 0.57316 0.0
O199 O 0.49918 0.59423 0.61391 0.0
O200 O 0.46295 0.54197 0.58699 0.0
O201 O 0.45495 0.51113 0.54649 0.0
O202 O 0.48985 0.55013 0.50138 0.0
O203 O 0.47039 0.57554 0.5358 0.0
C204 C 0.55519 0.57047 0.53142 0.0
O205 O 0.49153 0.47192 0.52732 0.0
O206 O 0.51036 0.50077 0.49057 0.0
C207 C 0.52796 0.52543 0.59714 0.0
C208 C 0.47604 0.63248 0.61036 0.0
C209 C 0.4294 0.65641 0.62727 0.0
C210 C 0.45777 0.66742 0.63909 0.0
C211 C 0.48093 0.65553 0.63065 0.0
C212 C 0.4478 0.62136 0.59853 0.0
C213 C 0.42467 0.63329 0.60684 0.0
C214 C 0.5002 0.61972 0.60189 0.0
C215 C 0.44613 0.52041 0.57183 0.0
H216 H 0.55086 0.41075 0.45488 0.0
H217 H 0.50899 0.43235 0.46145 0.0
H218 H 0.55417 0.48416 0.5343 0.0
H219 H 0.59629 0.46332 0.5275 0.0
H220 H 0.46212 0.68542 0.65462 0.0
H221 H 0.50263 0.6643 0.63997 0.0
H222 H 0.44364 0.60337 0.58297 0.0
H223 H 0.403 0.62413 0.59765 0.0
Tb224 Tb 1.00469 0.58053 0.03814 0.0
Tb225 Tb 1.00114 0.52249 0.08044 0.0
C226 C 0.0279 0.52833 1.01446 0.0
C227 C 0.98281 0.63905 0.99546 0.0
C228 C 0.93929 0.66673 0.97653 0.0
C229 C 0.96881 0.67783 0.96762 0.0
C230 C 0.99041 0.66407 0.97705 0.0
C231 C 0.95343 0.62779 1.00436 0.0
C232 C 0.93183 0.64152 0.99498 0.0
C233 C 1.00551 0.6247 1.00526 0.0
O234 O 0.96479 0.54834 1.02524 0.0
O235 O 0.95578 0.51957 0.06804 0.0
O236 O 0.99299 0.55604 0.11026 0.0
O237 O 0.97617 0.5845 0.07585 0.0
O238 O 0.98954 0.47692 0.08635 0.0
O239 O 1.01055 0.50507 0.12192 0.0
O240 O 0.04737 0.54495 0.07734 0.0
O241 O 0.04267 0.59116 0.06786 0.0
O242 O 0.03281 0.55685 1.01579 0.0
O243 O 1.01151 0.51122 1.03482 0.0
C244 C 0.94717 0.52834 0.04216 0.0
O245 O 1.01128 0.62592 1.034 0.0
O246 O 1.00288 0.59858 0.99493 0.0
C247 C 0.97965 0.57671 0.10391 0.0
C248 C 0.02655 0.46303 0.11414 0.0
C249 C 0.07576 0.43976 0.12141 0.0
C250 C 0.05311 0.43426 0.14318 0.0
C251 C 0.02869 0.44587 0.13957 0.0
C252 C 0.04867 0.46791 0.09197 0.0
C253 C 0.07301 0.4563 0.09551 0.0
C254 C 1.00314 0.47847 0.11212 0.0
C255 C 0.05798 0.57329 0.07782 0.0
H256 H 0.9753 0.6974 0.95374 0.0
H257 H 0.01304 0.67301 0.97006 0.0
H258 H 0.94724 0.60836 1.01851 0.0
H259 H 0.90925 0.63224 1.0019 0.0
H260 H 0.05448 0.42134 0.16322 0.0
H261 H 1.01193 0.44212 0.157 0.0
H262 H 0.0476 0.48152 0.07237 0.0
H263 H 0.09022 0.46127 0.07855 0.0
H264 H 0.3761 0.31597 0.2904 0.0
H265 H 0.36289 0.28563 0.3367 0.0
H266 H 0.27165 0.26494 0.31042 0.0
H267 H 0.2848 0.2947 0.26457 0.0
H268 H 0.30265 0.29052 0.38083 0.0
H269 H 0.31077 0.18673 0.32854 0.0
H270 H 0.33488 0.22167 0.31805 0.0
H271 H 0.29753 0.21216 0.30522 0.0
C272 C 0.3533 0.30504 0.29492 0.0
C273 C 0.33128 0.308 0.27462 0.0
C274 C 0.34581 0.28785 0.32112 0.0
C275 C 0.31631 0.2734 0.32684 0.0
C276 C 0.29447 0.27622 0.30639 0.0
H277 H 0.17913 0.18558 0.43291 0.0
H278 H 0.21876 0.22154 0.40799 0.0
C279 C 0.30191 0.29328 0.28044 0.0
C280 C 0.30743 0.25467 0.35371 0.0
H281 H 0.28056 0.18291 0.37225 0.0
C282 C 0.29859 0.267 0.37951 0.0
C283 C 0.30238 0.22413 0.3518 0.0
C284 C 0.31199 0.21021 0.32452 0.0
C285 C 0.28271 0.2493 0.40261 0.0
C286 C 0.27511 0.21866 0.39933 0.0
C287 C 0.28622 0.20641 0.37468 0.0
C288 C 0.25253 0.19916 0.4186 0.0
C289 C 0.27318 0.2636 0.42965 0.0
C290 C 0.25828 0.17456 0.43281 0.0
C291 C 0.23555 0.15384 0.44702 0.0
C292 C 0.20664 0.15728 0.44703 0.0
C293 C 0.20121 0.18251 0.43375 0.0
C294 C 0.22391 0.20316 0.41956 0.0
H295 H 0.28904 0.28477 0.43431 0.0
H296 H 0.2515 0.26808 0.42499 0.0
H297 H 0.27106 0.24938 0.45008 0.0
H298 H 0.28017 0.17096 0.43214 0.0
H299 H 0.24047 0.13478 0.45736 0.0
H300 H 0.25853 0.87933 0.76097 0.0
H301 H 0.27959 0.90827 0.80465 0.0
H302 H 0.20434 0.86443 0.85829 0.0
H303 H 0.18299 0.83597 0.81396 0.0
H304 H 0.2277 0.92602 0.87138 0.0
H305 H 0.31274 0.86333 0.87116 0.0
H306 H 0.30987 0.88124 0.83576 0.0
H307 H 0.27938 0.8528 0.84938 0.0
C308 C 0.24606 0.87689 0.78181 0.0
C309 C 0.21907 0.85601 0.78429 0.0
C310 C 0.25817 0.89305 0.80677 0.0
C311 C 0.24374 0.88806 0.83477 0.0
C312 C 0.2158 0.86853 0.83684 0.0
H313 H 0.3504 0.93922 0.99623 0.0
H314 H 0.31464 0.9107 0.96094 0.0
C315 C 0.20355 0.85249 0.81165 0.0
C316 C 0.25927 0.90124 0.86213 0.0
H317 H 0.32209 0.90528 0.90223 0.0
C318 C 0.24819 0.92133 0.87839 0.0
C319 C 0.28557 0.89446 0.87165 0.0
C320 C 0.29747 0.87155 0.85629 0.0
C321 C 0.2636 0.936 0.90308 0.0
C322 C 0.29101 0.93074 0.91123 0.0
C323 C 0.30125 0.90955 0.89584 0.0
C324 C 0.31039 0.94809 0.93432 0.0
C325 C 0.25039 0.95699 0.9201 0.0
C326 C 0.31999 0.97849 0.93099 0.0
C327 C 0.34029 0.99474 0.95108 0.0
C328 C 0.35173 0.9809 0.97474 0.0
C329 C 0.34206 0.95045 0.97815 0.0
C330 C 0.32154 0.93419 0.95811 0.0
H331 H 0.22602 0.95112 0.9182 0.0
H332 H 0.25636 0.95752 0.94434 0.0
H333 H 0.25874 0.97924 0.91032 0.0
H334 H 0.31253 0.98962 0.91226 0.0
H335 H 0.34778 1.0181 0.94746 0.0
H336 H 0.63519 0.45942 0.84868 0.0
H337 H 0.61554 0.47916 0.80399 0.0
H338 H 0.613 0.39975 0.75659 0.0
H339 H 0.63331 0.38032 0.80108 0.0
H340 H 0.64081 0.48601 0.74273 0.0
H341 H 0.52806 0.41245 0.74847 0.0
H342 H 0.55246 0.41853 0.78051 0.0
H343 H 0.55805 0.39521 0.75075 0.0
C344 C 0.63057 0.44632 0.82862 0.0
C345 C 0.63567 0.41835 0.82828 0.0
C346 C 0.61927 0.45753 0.80319 0.0
C347 C 0.61253 0.44082 0.77706 0.0
C348 C 0.61763 0.41285 0.77666 0.0
H349 H 0.53353 0.46956 0.60513 0.0
H350 H 0.55532 0.44954 0.64789 0.0
C351 C 0.62914 0.40174 0.80204 0.0
C352 C 0.60062 0.45287 0.7501 0.0
H353 H 0.53931 0.44422 0.70626 0.0
C354 C 0.61861 0.47694 0.73474 0.0
C355 C 0.57173 0.44088 0.73964 0.0
C356 C 0.55126 0.41547 0.75573 0.0
C357 C 0.60861 0.48912 0.70895 0.0
C358 C 0.5795 0.47743 0.6987 0.0
C359 C 0.56159 0.45324 0.71405 0.0
C360 C 0.56707 0.49003 0.67228 0.0
C361 C 0.62964 0.51394 0.69256 0.0
C362 C 0.56618 0.51946 0.6717 0.0
C363 C 0.55393 0.53106 0.64713 0.0
C364 C 0.54185 0.51337 0.62276 0.0
C365 C 0.54258 0.48385 0.62349 0.0
C366 C 0.55504 0.47233 0.64796 0.0
H367 H 0.65293 0.51422 0.6974 0.0
H368 H 0.62625 0.51254 0.6678 0.0
H369 H 0.6259 0.53492 0.70019 0.0
H370 H 0.57455 0.53343 0.69049 0.0
H371 H 0.55349 0.5538 0.64753 0.0
H372 H 0.87598 0.73212 0.29604 0.0
H373 H 0.89816 0.71303 0.25296 0.0
H374 H 0.931 0.65674 0.31358 0.0
H375 H 0.90831 0.67551 0.35627 0.0
H376 H 0.95437 0.70657 0.23587 0.0
H377 H 0.87671 0.59907 0.25831 0.0
H378 H 0.87332 0.63193 0.27641 0.0
H379 H 0.89963 0.61295 0.28985 0.0
C380 C 0.88899 0.71655 0.30011 0.0
C381 C 0.89092 0.7056 0.32942 0.0
C382 C 0.90137 0.70538 0.27552 0.0
C383 C 0.91572 0.68289 0.27984 0.0
C384 C 0.91957 0.67362 0.30948 0.0
H385 H 0.98251 0.56643 0.1648 0.0
H386 H 0.96754 0.59309 0.20622 0.0
C387 C 0.90709 0.68469 0.33395 0.0
C388 C 0.92465 0.66761 0.25345 0.0
H389 H 0.91301 0.60063 0.22077 0.0
C390 C 0.94525 0.68344 0.2325 0.0
C391 C 0.91262 0.6374 0.2488 0.0
C392 C 0.88914 0.61935 0.26933 0.0
C393 C 0.95475 0.66977 0.20768 0.0
C394 C 0.94298 0.63948 0.20327 0.0
C395 C 0.92219 0.62377 0.22409 0.0
C396 C 0.95218 0.62348 0.17757 0.0
C397 C 0.97794 0.68777 0.18685 0.0
C398 C 0.94814 0.63119 0.14742 0.0
C399 C 0.95666 0.61587 0.12354 0.0
C400 C 0.96932 0.59232 0.12918 0.0
C401 C 0.9729 0.5844 0.15942 0.0
C402 C 0.96435 0.59969 0.18324 0.0
H403 H 0.99007 0.70839 0.19747 0.0
H404 H 0.99401 0.67536 0.18007 0.0
H405 H 0.96722 0.69351 0.16618 0.0
H406 H 0.93819 0.64898 0.14231 0.0
H407 H 0.95344 0.62262 0.10063 0.0
H408 H 0.32568 0.26051 0.23565 0.0
H409 H 0.34776 0.21892 0.23316 0.0
H410 H 0.43033 0.27703 0.2055 0.0
H411 H 0.40861 0.31872 0.2102 0.0
H412 H 0.36657 0.19888 0.18604 0.0
H413 H 0.46052 0.22724 0.26376 0.0
H414 H 0.43181 0.24643 0.26352 0.0
H415 H 0.46234 0.25669 0.23748 0.0
C416 C 0.34878 0.26435 0.23002 0.0
C417 C 0.36569 0.29268 0.22348 0.0
C418 C 0.36135 0.24063 0.22839 0.0
C419 C 0.39094 0.2448 0.21973 0.0
C420 C 0.40779 0.27324 0.21323 0.0
H421 H 0.46687 0.14319 0.10889 0.0
H422 H 0.44147 0.17443 0.1349 0.0
C423 C 0.39533 0.29699 0.2154 0.0
C424 C 0.40323 0.21934 0.21412 0.0
H425 H 0.46518 0.19467 0.22283 0.0
C426 C 0.38784 0.19769 0.19468 0.0
C427 C 0.43069 0.21719 0.22585 0.0
C428 C 0.44707 0.23799 0.24909 0.0
C429 C 0.40007 0.17529 0.18494 0.0
C430 C 0.42885 0.17501 0.19411 0.0
C431 C 0.44335 0.19525 0.21533 0.0
C432 C 0.44523 0.15608 0.17922 0.0
C433 C 0.38229 0.15257 0.16422 0.0
C434 C 0.45702 0.13616 0.19571 0.0
C435 C 0.47204 0.11825 0.1808 0.0
C436 C 0.47546 0.12016 0.14927 0.0
C437 C 0.46428 0.14074 0.13313 0.0
C438 C 0.44956 0.15859 0.14795 0.0
H439 H 0.35831 0.14943 0.16813 0.0
H440 H 0.38701 0.15996 0.14047 0.0
H441 H 0.38779 0.13125 0.16732 0.0
H442 H 0.45421 0.13417 0.21995 0.0
H443 H 0.48054 0.10269 0.19383 0.0
H444 H 0.21701 0.89367 0.73275 0.0
H445 H 0.19191 0.93003 0.71481 0.0
H446 H 0.11144 0.86239 0.706 0.0
H447 H 0.13609 0.82671 0.72667 0.0
H448 H 0.1727 0.93296 0.66229 0.0
H449 H 0.07712 0.92388 0.73715 0.0
H450 H 0.10667 0.90738 0.74676 0.0
H451 H 0.07687 0.88861 0.72305 0.0
C452 C 0.19365 0.88694 0.72846 0.0
C453 C 0.17831 0.85755 0.73147 0.0
C454 C 0.17935 0.90762 0.71776 0.0
C455 C 0.14958 0.89916 0.70931 0.0
C456 C 0.1341 0.86982 0.71316 0.0
H457 H 0.07672 0.97444 0.56062 0.0
H458 H 0.10015 0.94689 0.59534 0.0
C459 C 0.14825 0.84932 0.72455 0.0
C460 C 0.13589 0.92001 0.69296 0.0
H461 H 0.07244 0.94243 0.68647 0.0
C462 C 0.15098 0.93538 0.66801 0.0
C463 C 0.10774 0.92374 0.7005 0.0
C464 C 0.09138 0.91025 0.72855 0.0
C465 C 0.13832 0.95327 0.64973 0.0
C466 C 0.10914 0.95487 0.65568 0.0
C467 C 0.09453 0.94068 0.68144 0.0
C468 C 0.09329 0.97056 0.635 0.0
C469 C 0.15654 0.97036 0.62435 0.0
C470 C 0.08009 0.99193 0.64593 0.0
C471 C 0.06594 1.00721 0.62617 0.0
C472 C 0.06503 1.00156 0.59511 0.0
C473 C 0.07752 0.97963 0.58436 0.0
C474 C 0.09113 0.96401 0.60417 0.0
H475 H 0.18043 0.97499 0.62941 0.0
H476 H 0.15263 0.95731 0.60349 0.0
H477 H 0.1508 0.99139 0.61999 0.0
H478 H 0.08121 0.99718 0.66966 0.0
H479 H 0.05644 1.02397 0.63509 0.0
H480 H 0.71853 0.3745 0.90379 0.0
H481 H 0.7624 0.39097 0.93526 0.0
H482 H 0.73187 0.4657 0.96155 0.0
H483 H 0.68753 0.44839 0.93108 0.0
H484 H 0.80386 0.43991 0.92631 0.0
H485 H 0.75955 0.44222 0.04147 0.0
H486 H 0.73751 0.42332 1.0111 0.0
H487 H 0.74285 0.46208 1.01506 0.0
C488 C 0.7207 0.39372 0.91733 0.0
C489 C 0.69952 0.40992 0.91557 0.0
C490 C 0.7459 0.40336 0.935 0.0
C491 C 0.75037 0.42942 0.95119 0.0
C492 C 0.7287 0.44516 0.95001 0.0
H493 H 0.91864 0.54548 0.99413 0.0
H494 H 0.87086 0.52073 0.97342 0.0
C495 C 0.70347 0.43541 0.93249 0.0
C496 C 0.77887 0.4417 0.96668 0.0
H497 H 0.80909 0.4708 1.03296 0.0
C498 C 0.80497 0.44634 0.94974 0.0
C499 C 0.78052 0.44988 0.99735 0.0
C500 C 0.75362 0.44384 1.01738 0.0
C501 C 0.83245 0.45967 0.96227 0.0
C502 C 0.83392 0.46936 0.99241 0.0
C503 C 0.80796 0.46384 1.00971 0.0
C504 C 0.86218 0.48532 1.00623 0.0
C505 C 0.85969 0.46299 0.94307 0.0
C506 C 0.8727 0.47444 1.03244 0.0
C507 C 0.89996 0.48878 0.04461 0.0
C508 C 0.91724 0.51431 1.0308 0.0
C509 C 0.90615 0.52567 1.00515 0.0
C510 C 0.87885 0.51144 0.99314 0.0
H511 H 0.85595 0.44703 0.92447 0.0
H512 H 0.8657 0.48519 0.93279 0.0
H513 H 0.87856 0.46003 0.95674 0.0
H514 H 0.86014 0.45446 0.04309 0.0
H515 H 0.90776 0.47942 0.06441 0.0
H516 H 0.81428 0.64594 0.40681 0.0
H517 H 0.76711 0.62266 0.43135 0.0
H518 H 0.73681 0.70005 0.41384 0.0
H519 H 0.78333 0.72258 0.38806 0.0
H520 H 0.74196 0.63797 0.4806 0.0
H521 H 0.66802 0.63893 0.38367 0.0
H522 H 0.70745 0.64669 0.37944 0.0
H523 H 0.69037 0.67461 0.39174 0.0
C524 C 0.79726 0.65766 0.40778 0.0
C525 C 0.80231 0.68596 0.39544 0.0
C526 C 0.77043 0.64448 0.42197 0.0
C527 C 0.74809 0.65936 0.42408 0.0
C528 C 0.75328 0.68776 0.4119 0.0
H529 H 0.57842 0.6276 0.51462 0.0
H530 H 0.6256 0.6487 0.48947 0.0
C531 C 0.77999 0.7008 0.3975 0.0
C532 C 0.71984 0.64563 0.43992 0.0
H533 H 0.64498 0.62863 0.43199 0.0
C534 C 0.72079 0.63573 0.46985 0.0
C535 C 0.69209 0.64259 0.42596 0.0
C536 C 0.68936 0.65099 0.39334 0.0
C537 C 0.69488 0.62355 0.48633 0.0
C538 C 0.66723 0.62107 0.47253 0.0
C539 C 0.66621 0.63076 0.4426 0.0
C540 C 0.63908 0.6083 0.48871 0.0
C541 C 0.69718 0.61394 0.5186 0.0
C542 C 0.63095 0.57855 0.49658 0.0
C543 C 0.60392 0.56636 0.51082 0.0
C544 C 0.58448 0.58371 0.5176 0.0
C545 C 0.59287 0.6136 0.50993 0.0
C546 C 0.6198 0.62571 0.49546 0.0
H547 H 0.7197 0.62242 0.52774 0.0
H548 H 0.68129 0.62136 0.53313 0.0
H549 H 0.6917 0.58976 0.51986 0.0
H550 H 0.64531 0.56463 0.49125 0.0
H551 H 0.5982 0.54325 0.51628 0.0
H552 H 0.32608 0.40592 0.20176 0.0
H553 H 0.28461 0.42179 0.17946 0.0
H554 H 0.24849 0.33482 0.14687 0.0
H555 H 0.28937 0.3189 0.16998 0.0
H556 H 0.25639 0.4192 0.12112 0.0
H557 H 0.18757 0.34863 0.20879 0.0
H558 H 0.22725 0.35788 0.20962 0.0
H559 H 0.20759 0.3303 0.18458 0.0
C560 C 0.30964 0.39056 0.18907 0.0
C561 C 0.31065 0.36129 0.18755 0.0
C562 C 0.28605 0.39955 0.17638 0.0
C563 C 0.26329 0.3793 0.16202 0.0
C564 C 0.26568 0.35065 0.1582 0.0
H565 H 0.10633 0.41582 0.08044 0.0
H566 H 0.15228 0.40126 0.08859 0.0
C567 C 0.28911 0.34165 0.17107 0.0
C568 C 0.23557 0.38716 0.15442 0.0
H569 H 0.16306 0.37259 0.1744 0.0
C570 C 0.23592 0.40897 0.1326 0.0
C571 C 0.20907 0.37407 0.16991 0.0
C572 C 0.20774 0.35161 0.19473 0.0
C573 C 0.21029 0.41796 0.12574 0.0
C574 C 0.1837 0.40447 0.14087 0.0
C575 C 0.18344 0.3827 0.16268 0.0
C576 C 0.15608 0.41342 0.13553 0.0
C577 C 0.21207 0.44235 0.10302 0.0
C578 C 0.14262 0.42434 0.15942 0.0
C579 C 0.11634 0.43248 0.1549 0.0
C580 C 0.10294 0.42976 0.1264 0.0
C581 C 0.11631 0.4185 0.10256 0.0
C582 C 0.1426 0.41028 0.10714 0.0
H583 H 0.23516 0.45479 0.09871 0.0
H584 H 0.20256 0.43303 0.08136 0.0
H585 H 0.19928 0.45768 0.1108 0.0
H586 H 0.15264 0.42685 0.18154 0.0
H587 H 0.10686 0.44148 0.1736 0.0
H588 H 0.67817 0.3324 0.8927 0.0
H589 H 0.66416 0.28879 0.92541 0.0
H590 H 0.60228 0.32662 0.97199 0.0
H591 H 0.61786 0.37086 0.94034 0.0
H592 H 0.62659 0.29775 1.01083 0.0
H593 H 0.59079 0.22683 0.91268 0.0
H594 H 0.62915 0.24505 0.91094 0.0
H595 H 0.60201 0.26599 0.90916 0.0
C596 C 0.66226 0.33157 0.91058 0.0
C597 C 0.64934 0.35491 0.9145 0.0
C598 C 0.65382 0.3065 0.92888 0.0
C599 C 0.63152 0.30395 0.95073 0.0
C600 C 0.61942 0.32788 0.95529 0.0
H601 H 0.52164 0.14078 1.02028 0.0
H602 H 0.54373 0.18619 0.99311 0.0
C603 C 0.6283 0.35314 0.93734 0.0
C604 C 0.62002 0.27615 0.96809 0.0
H605 H 0.59029 0.203 0.96004 0.0
C606 C 0.61863 0.27703 0.9997 0.0
C607 C 0.60904 0.24909 0.95365 0.0
C608 C 0.6075 0.24666 0.91975 0.0
C609 C 0.60666 0.25179 1.01721 0.0
C610 C 0.59671 0.22456 1.00282 0.0
C611 C 0.59816 0.22371 0.97121 0.0
C612 C 0.5835 0.19688 1.01981 0.0
C613 C 0.60387 0.2549 0.05082 0.0
C614 C 0.59851 0.18732 0.04377 0.0
C615 C 0.58563 0.16151 0.05975 0.0
C616 C 0.55777 0.14426 0.05161 0.0
C617 C 0.54316 0.15344 1.02711 0.0
C618 C 0.5558 0.17947 1.01152 0.0
H619 H 0.6039 0.27758 0.05687 0.0
H620 H 0.58335 0.24 0.05974 0.0
H621 H 0.62291 0.2495 0.06218 0.0
H622 H 0.62028 0.19973 0.05008 0.0
H623 H 0.59764 0.15493 0.07829 0.0
H624 H 0.87351 0.78385 0.34361 0.0
H625 H 0.90234 0.83136 0.36114 0.0
H626 H 0.94996 0.78773 0.42145 0.0
H627 H 0.92147 0.74041 0.40313 0.0
H628 H 0.89819 0.84793 0.41752 0.0
H629 H 0.01564 0.85545 0.39407 0.0
H630 H 0.9863 0.82919 0.37597 0.0
H631 H 0.99772 0.82226 0.41349 0.0
C632 C 0.89134 0.78462 0.35929 0.0
C633 C 0.89589 0.75859 0.37142 0.0
C634 C 0.9075 0.81172 0.36973 0.0
C635 C 0.92853 0.81338 0.39267 0.0
C636 C 0.93446 0.78731 0.40331 0.0
H637 H 0.97013 0.95151 0.52633 0.0
H638 H 0.9514 0.90617 0.49893 0.0
C639 C 0.91837 0.76021 0.39268 0.0
C640 C 0.9412 0.84174 0.408 0.0
H641 H 1.00549 0.88845 0.43059 0.0
C642 C 0.9217 0.85685 0.4201 0.0
C643 C 0.97185 0.85366 0.41142 0.0
C644 C 0.99411 0.83946 0.39779 0.0
C645 C 0.93184 0.88309 0.43577 0.0
C646 C 0.96244 0.89445 0.44019 0.0
C647 C 0.98202 0.87967 0.42761 0.0
C648 C 0.9745 0.92185 0.45732 0.0
C649 C 0.9096 0.89863 0.447 0.0
C650 C 0.99445 0.94568 0.44354 0.0
C651 C 1.00539 0.97162 0.45926 0.0
C652 C 0.99676 0.97441 0.48928 0.0
C653 C 0.9771 0.95036 0.5032 0.0
C654 C 0.96622 0.92438 0.48746 0.0
H655 H 0.88845 0.89184 0.43464 0.0
H656 H 0.905 0.89317 0.47121 0.0
H657 H 0.91802 0.92265 0.44462 0.0
H658 H 1.00132 0.94435 0.42039 0.0
H659 H 0.02056 0.98956 0.44775 0.0
H660 H 0.21604 0.74425 0.74361 0.0
H661 H 0.2495 0.71704 0.72252 0.0
H662 H 0.28399 0.78821 0.66019 0.0
H663 H 0.2511 0.81556 0.68192 0.0
H664 H 0.26064 0.69912 0.66349 0.0
H665 H 0.35574 0.78115 0.71027 0.0
H666 H 0.3182 0.77925 0.72091 0.0
H667 H 0.33269 0.79606 0.68566 0.0
C668 C 0.23045 0.75365 0.72503 0.0
C669 C 0.23122 0.78177 0.71423 0.0
C670 C 0.24946 0.73822 0.71302 0.0
C671 C 0.26949 0.75087 0.69015 0.0
C672 C 0.26897 0.77829 0.67812 0.0
H673 H 0.38763 0.67024 0.59104 0.0
H674 H 0.34763 0.69181 0.60595 0.0
C675 C 0.25009 0.79373 0.69025 0.0
C676 C 0.29239 0.73642 0.68053 0.0
H677 H 0.3667 0.7447 0.6798 0.0
C678 C 0.28385 0.70902 0.66699 0.0
C679 C 0.32258 0.74924 0.68569 0.0
C680 C 0.33294 0.77791 0.70168 0.0
C681 C 0.30482 0.69422 0.65807 0.0
C682 C 0.33506 0.70746 0.66246 0.0
C683 C 0.34351 0.73472 0.67627 0.0
C684 C 0.35842 0.6933 0.65343 0.0
C685 C 0.29443 0.66432 0.64464 0.0
C686 C 0.37808 0.68755 0.67508 0.0
C687 C 0.40104 0.67546 0.66661 0.0
C688 C 0.40479 0.66893 0.63629 0.0
C689 C 0.38501 0.67464 0.61463 0.0
C690 C 0.36212 0.68687 0.62312 0.0
H691 H 0.27093 0.65423 0.65008 0.0
H692 H 0.29667 0.66622 0.61974 0.0
H693 H 0.30786 0.64958 0.65287 0.0
H694 H 0.37565 0.69246 0.69859 0.0
H695 H 0.41574 0.67101 0.68383 0.0
H696 H 0.70403 0.82674 0.82719 0.0
H697 H 0.73505 0.8379 0.78169 0.0
H698 H 0.8113 0.87007 0.83742 0.0
H699 H 0.78025 0.85888 0.8826 0.0
H700 H 0.76541 0.89365 0.76726 0.0
H701 H 0.843 0.82313 0.77536 0.0
H702 H 0.80913 0.81595 0.7968 0.0
H703 H 0.84113 0.84272 0.80933 0.0
C704 C 0.72753 0.83557 0.82948 0.0
C705 C 0.73997 0.84182 0.8581 0.0
C706 C 0.74519 0.84187 0.80367 0.0
C707 C 0.77555 0.85439 0.8062 0.0
C708 C 0.7881 0.85968 0.83494 0.0
H709 H 0.91682 0.95726 0.70126 0.0
H710 H 0.88516 0.92562 0.73847 0.0
C711 C 0.77042 0.85339 0.8607 0.0
C712 C 0.7934 0.86555 0.77904 0.0
H713 H 0.85731 0.86518 0.74245 0.0
C714 C 0.78521 0.88704 0.76146 0.0
C715 C 0.81934 0.85704 0.77175 0.0
C716 C 0.82855 0.83324 0.78914 0.0
C717 C 0.80293 0.90126 0.7376 0.0
C718 C 0.82927 0.89328 0.73073 0.0
C719 C 0.83709 0.8712 0.74776 0.0
C720 C 0.84977 0.90906 0.70719 0.0
C721 C 0.79402 0.92569 0.72094 0.0
C722 C 0.84073 0.90942 0.67708 0.0
C723 C 0.85869 0.92758 0.65582 0.0
C724 C 0.88613 0.94541 0.66428 0.0
C725 C 0.89586 0.94366 0.69405 0.0
C726 C 0.87779 0.92564 0.71533 0.0
H727 H 0.77681 0.9333 0.73329 0.0
H728 H 0.81327 0.94456 0.71721 0.0
H729 H 0.78501 0.91787 0.69859 0.0
H730 H 0.81941 0.89632 0.67024 0.0
H731 H 0.85087 0.92812 0.63291 0.0
H732 H 0.80752 0.24576 0.38331 0.0
H733 H 0.7947 0.21597 0.3385 0.0
H734 H 0.85964 0.27901 0.28691 0.0
H735 H 0.87106 0.30955 0.33193 0.0
H736 H 0.81195 0.26947 0.25873 0.0
H737 H 0.82397 0.16084 0.28971 0.0
H738 H 0.80232 0.17128 0.31867 0.0
H739 H 0.83978 0.19219 0.31238 0.0
C740 C 0.8196 0.25257 0.36255 0.0
C741 C 0.8403 0.27953 0.36074 0.0
C742 C 0.81254 0.23551 0.33698 0.0
C743 C 0.82659 0.24483 0.30926 0.0
C744 C 0.84863 0.27118 0.30801 0.0
H745 H 0.72831 0.12471 0.17475 0.0
H746 H 0.77291 0.15317 0.19945 0.0
C747 C 0.85529 0.28853 0.33359 0.0
C748 C 0.81467 0.22949 0.28121 0.0
H749 H 0.78177 0.16149 0.256 0.0
C750 C 0.80617 0.24585 0.25775 0.0
C751 C 0.80782 0.19874 0.27904 0.0
C752 C 0.81935 0.1799 0.30121 0.0
C753 C 0.78843 0.23223 0.23406 0.0
C754 C 0.77789 0.2015 0.23449 0.0
C755 C 0.78902 0.1851 0.25604 0.0
C756 C 0.7526 0.18637 0.21572 0.0
C757 C 0.78041 0.25107 0.20941 0.0
C758 C 0.72643 0.19561 0.21639 0.0
C759 C 0.70122 0.17969 0.20204 0.0
C760 C 0.70135 0.15374 0.18723 0.0
C761 C 0.72764 0.14467 0.18601 0.0
C762 C 0.75309 0.1609 0.20007 0.0
H763 H 0.79896 0.27043 0.20476 0.0
H764 H 0.77457 0.2389 0.18816 0.0
H765 H 0.76141 0.25923 0.21688 0.0
H766 H 0.72501 0.21446 0.22926 0.0
H767 H 0.68113 0.18686 0.204 0.0
H768 H 0.35704 0.72267 0.32436 0.0
H769 H 0.38033 0.70386 0.36719 0.0
H770 H 0.43426 0.67038 0.30521 0.0
H771 H 0.41134 0.68997 0.26273 0.0
H772 H 0.37463 0.64705 0.37664 0.0
H773 H 0.49362 0.70083 0.36964 0.0
H774 H 0.46641 0.71448 0.34939 0.0
H775 H 0.47928 0.68465 0.33473 0.0
C776 C 0.37491 0.71255 0.32019 0.0
C777 C 0.38304 0.70835 0.2905 0.0
C778 C 0.38796 0.70146 0.34454 0.0
C779 C 0.40931 0.68582 0.33961 0.0
C780 C 0.41847 0.68296 0.30984 0.0
H781 H 0.48386 0.56663 0.4468 0.0
H782 H 0.46779 0.59502 0.40657 0.0
C783 C 0.40551 0.69424 0.28554 0.0
C784 C 0.41919 0.66957 0.36502 0.0
H785 H 0.47995 0.65739 0.40022 0.0
C786 C 0.39767 0.64961 0.38198 0.0
C787 C 0.44926 0.67259 0.37194 0.0
C788 C 0.47346 0.6945 0.35566 0.0
C789 C 0.40533 0.6323 0.40511 0.0
C790 C 0.43536 0.63513 0.41182 0.0
C791 C 0.45692 0.65512 0.395 0.0
C792 C 0.44475 0.61761 0.43632 0.0
C793 C 0.38118 0.61055 0.42167 0.0
C794 C 0.43721 0.62085 0.46649 0.0
C795 C 0.44632 0.60464 0.48955 0.0
C796 C 0.46326 0.58479 0.48301 0.0
C797 C 0.47068 0.58151 0.45271 0.0
C798 C 0.46164 0.59785 0.42966 0.0
H799 H 0.36005 0.60607 0.40919 0.0
H800 H 0.38735 0.58965 0.42552 0.0
H801 H 0.37758 0.61942 0.44398 0.0
H802 H 0.42458 0.63625 0.47227 0.0
H803 H 0.44035 0.60796 0.51258 0.0
H804 H 0.17014 0.40974 0.82035 0.0
H805 H 0.15024 0.43083 0.86342 0.0
H806 H 0.0753 0.43706 0.80992 0.0
H807 H 0.095 0.41533 0.76724 0.0
H808 H 0.13899 0.48212 0.87142 0.0
H809 H 0.03396 0.39787 0.8838 0.0
H810 H 0.06334 0.39314 0.85976 0.0
H811 H 0.03845 0.41403 0.84675 0.0
C812 C 0.14937 0.41555 0.81797 0.0
C813 C 0.13398 0.41076 0.79061 0.0
C814 C 0.13797 0.4276 0.84254 0.0
C815 C 0.11089 0.43515 0.84032 0.0
C816 C 0.09574 0.43071 0.81272 0.0
H817 H 0.05381 0.55463 0.96221 0.0
H818 H 0.07409 0.53237 0.92061 0.0
C819 C 0.10704 0.41843 0.78824 0.0
C820 C 0.09899 0.44833 0.86656 0.0
H821 H 0.03801 0.44164 0.91115 0.0
C822 C 0.11694 0.47314 0.88016 0.0
C823 C 0.07037 0.4365 0.87852 0.0
C824 C 0.05053 0.40875 0.86667 0.0
C825 C 0.10702 0.48663 0.9048 0.0
C826 C 0.07792 0.47558 0.91586 0.0
C827 C 0.06016 0.45047 0.9026 0.0
C828 C 0.06559 0.48939 0.94134 0.0
C829 C 0.12818 0.51219 0.91916 0.0
C830 C 0.05307 0.47265 0.96671 0.0
C831 C 0.04098 0.48526 0.99039 0.0
C832 C 0.04111 0.51502 0.9894 0.0
C833 C 0.05359 0.53175 0.96398 0.0
C834 C 0.06541 0.51904 0.94017 0.0
H835 H 0.15142 0.51205 0.91462 0.0
H836 H 0.1246 0.53276 0.90953 0.0
H837 H 0.12482 0.51216 0.94394 0.0
H838 H 0.05276 0.44973 0.96828 0.0
H839 H 0.03163 0.47165 1.00956 0.0
H840 H 0.71009 0.88631 0.96524 0.0
H841 H 0.68261 0.9174 0.98992 0.0
H842 H 0.60878 0.88398 0.93149 0.0
H843 H 0.63639 0.85272 0.90692 0.0
H844 H 0.65803 0.96051 0.95665 0.0
H845 H 0.57451 0.8764 1.02022 0.0
H846 H 0.60903 0.87018 1.00769 0.0
H847 H 0.5801 0.86953 0.98112 0.0
C848 C 0.68778 0.88529 0.95819 0.0
C849 C 0.67503 0.86708 0.93458 0.0
C850 C 0.67224 0.90309 0.97206 0.0
C851 C 0.64366 0.90274 0.96263 0.0
C852 C 0.6307 0.88423 0.93928 0.0
H853 H 0.51855 0.99623 1.02606 0.0
H854 H 0.54323 0.96454 0.99895 0.0
C855 C 0.64636 0.86652 0.92529 0.0
C856 C 0.62803 0.92278 0.97636 0.0
H857 H 0.57051 0.92494 1.02248 0.0
C858 C 0.63888 0.95282 0.97105 0.0
C859 C 0.603 0.91251 0.99488 0.0
C860 C 0.59094 0.88042 1.00159 0.0
C861 C 0.62521 0.973 0.98375 0.0
C862 C 0.60051 0.96281 1.00286 0.0
C863 C 0.58948 0.93269 1.00786 0.0
C864 C 0.58603 0.983 1.01831 0.0
C865 C 0.63706 1.00496 0.97616 0.0
C866 C 0.60192 1.00386 0.03824 0.0
C867 C 0.58795 1.02217 0.05362 0.0
C868 C 0.55771 1.01967 0.04964 0.0
C869 C 0.54187 0.99874 1.02964 0.0
C870 C 0.55591 0.98058 1.01414 0.0
H871 H 0.64986 1.00823 0.95475 0.0
H872 H 0.61901 1.01616 0.97411 0.0
H873 H 0.65202 1.01546 0.99439 0.0
H874 H 0.62504 1.00562 0.04234 0.0
H875 H 0.60073 0.03786 0.06907 0.0
H876 H 0.90327 0.29324 0.38167 0.0
H877 H 0.93395 0.25895 0.39125 0.0
H878 H 0.87698 0.22054 0.46523 0.0
H879 H 0.84606 0.25436 0.45519 0.0
H880 H 0.9401 0.23581 0.47779 0.0
H881 H 0.90962 0.16911 0.37495 0.0
H882 H 0.92129 0.20803 0.3695 0.0
H883 H 0.88756 0.19222 0.38922 0.0
C884 C 0.89739 0.27736 0.39986 0.0
C885 C 0.87267 0.27658 0.41798 0.0
C886 C 0.9148 0.25783 0.40529 0.0
C887 C 0.90763 0.23719 0.42888 0.0
C888 C 0.88293 0.23642 0.44701 0.0
H889 H 0.954 0.08127 0.48092 0.0
H890 H 0.93207 0.11912 0.46084 0.0
C891 C 0.86546 0.25583 0.44146 0.0
C892 C 0.92595 0.21649 0.435 0.0
H893 H 0.94428 0.15639 0.40751 0.0
C894 C 0.94127 0.21859 0.46234 0.0
C895 C 0.92719 0.194 0.41482 0.0
C896 C 0.91043 0.1904 0.38553 0.0
C897 C 0.95754 0.1985 0.47028 0.0
C898 C 0.95868 0.17588 0.45018 0.0
C899 C 0.94362 0.17398 0.42266 0.0
C900 C 0.97305 0.15248 0.45876 0.0
C901 C 0.97247 0.20092 0.5006 0.0
C902 C 1.00357 0.15847 0.46331 0.0
C903 C 0.01628 0.13678 0.47474 0.0
C904 C 0.99858 0.10883 0.48191 0.0
C905 C 0.96824 0.10261 0.47586 0.0
C906 C 0.95565 0.12419 0.4643 0.0
H907 H 0.96544 0.21666 0.51542 0.0
H908 H 0.96766 0.17933 0.51226 0.0
H909 H 0.99664 0.20842 0.49734 0.0
H910 H 0.01741 0.18012 0.45883 0.0
H911 H 0.0397 0.14228 0.47917 0.0
H912 H 0.32092 0.69183 0.17392 0.0
H913 H 0.2758 0.66951 0.14632 0.0
H914 H 0.2284 0.65034 0.23058 0.0
H915 H 0.2733 0.67398 0.25797 0.0
H916 H 0.24004 0.61542 0.14672 0.0
H917 H 0.17799 0.69369 0.18497 0.0
H918 H 0.21699 0.69941 0.19104 0.0
H919 H 0.19104 0.67524 0.21556 0.0
C920 C 0.30076 0.68298 0.1864 0.0
C921 C 0.30036 0.68483 0.21794 0.0
C922 C 0.27508 0.67011 0.17071 0.0
C923 C 0.24854 0.65876 0.18632 0.0
C924 C 0.24841 0.65959 0.21799 0.0
H925 H 0.09106 0.54412 0.11075 0.0
H926 H 0.13772 0.56454 0.13595 0.0
C927 C 0.27407 0.67272 0.23365 0.0
C928 C 0.22106 0.64629 0.16937 0.0
H929 H 0.15084 0.65238 0.15857 0.0
C930 C 0.22055 0.62355 0.14924 0.0
C931 C 0.1958 0.65726 0.17222 0.0
C932 C 0.19549 0.68293 0.19187 0.0
C933 C 0.19538 0.61123 0.13221 0.0
C934 C 0.16973 0.62141 0.13599 0.0
C935 C 0.17039 0.6444 0.15584 0.0
C936 C 0.14194 0.60869 0.1196 0.0
C937 C 0.1968 0.58788 0.10988 0.0
C938 C 0.12832 0.62675 0.1025 0.0
C939 C 0.10133 0.61521 0.08843 0.0
C940 C 0.08743 0.58531 0.0911 0.0
C941 C 0.1013 0.56719 0.10792 0.0
C942 C 0.12812 0.57882 0.12224 0.0
H943 H 0.21984 0.58911 0.10296 0.0
H944 H 0.18772 0.56613 0.12052 0.0
H945 H 0.18377 0.58963 0.08938 0.0
H946 H 0.1385 0.64989 0.10022 0.0
H947 H 0.09126 0.62978 0.07568 0.0
H948 H 0.2263 0.37567 0.7341 0.0
H949 H 0.27124 0.39362 0.70382 0.0
H950 H 0.22538 0.44216 0.64692 0.0
H951 H 0.18015 0.42274 0.67644 0.0
H952 H 0.26245 0.42252 0.61375 0.0
H953 H 0.32239 0.47343 0.71447 0.0
H954 H 0.30962 0.43464 0.71882 0.0
H955 H 0.28347 0.45656 0.71518 0.0
C956 C 0.22578 0.38943 0.71452 0.0
C957 C 0.19985 0.39752 0.70716 0.0
C958 C 0.25153 0.40014 0.69753 0.0
C959 C 0.25212 0.42003 0.6735 0.0
C960 C 0.2257 0.42701 0.66536 0.0
H961 H 0.41314 0.54256 0.61158 0.0
H962 H 0.36559 0.51828 0.63396 0.0
C963 C 0.19983 0.41584 0.68205 0.0
C964 C 0.28037 0.43453 0.65775 0.0
H965 H 0.35084 0.47438 0.67012 0.0
C966 C 0.28176 0.43391 0.62609 0.0
C967 C 0.30552 0.45007 0.67364 0.0
C968 C 0.30515 0.45403 0.70735 0.0
C969 C 0.30746 0.448 0.61004 0.0
C970 C 0.33302 0.46241 0.62605 0.0
C971 C 0.33151 0.46317 0.65768 0.0
C972 C 0.36134 0.47754 0.61071 0.0
C973 C 0.30652 0.44805 0.57604 0.0
C974 C 0.3751 0.46301 0.58993 0.0
C975 C 0.40217 0.47714 0.5766 0.0
C976 C 0.41652 0.5059 0.58432 0.0
C977 C 0.4028 0.52037 0.60517 0.0
C978 C 0.37554 0.50645 0.61805 0.0
H979 H 0.28364 0.44471 0.56762 0.0
H980 H 0.32007 0.46884 0.56634 0.0
H981 H 0.3152 0.42988 0.56764 0.0
H982 H 0.36528 0.44048 0.58446 0.0
H983 H 0.41228 0.46521 0.56094 0.0
H984 H 0.76752 0.83343 0.95183 0.0
H985 H 0.80385 0.80474 0.95904 0.0
H986 H 0.76675 0.75071 0.88419 0.0
H987 H 0.72992 0.77919 0.87749 0.0
H988 H 0.77693 0.71934 0.93647 0.0
H989 H 0.87513 0.80686 0.90382 0.0
H990 H 0.85262 0.81749 0.93208 0.0
H991 H 0.83807 0.80864 0.89495 0.0
C992 C 0.76699 0.81518 0.93726 0.0
C993 C 0.7459 0.80811 0.91439 0.0
C994 C 0.7879 0.7991 0.94108 0.0
C995 C 0.78815 0.77586 0.9219 0.0
C996 C 0.76695 0.76866 0.89911 0.0
H997 H 0.93225 0.68964 0.92082 0.0
H998 H 0.8948 0.71468 0.90536 0.0
C999 C 0.74604 0.78482 0.89528 0.0
C1000 C 0.81018 0.75873 0.92625 0.0
H1001 H 0.88412 0.76499 0.92886 0.0
C1002 C 0.80037 0.7292 0.93455 0.0
C1003 C 0.84067 0.7716 0.92324 0.0
C1004 C 0.85232 0.80282 0.91274 0.0
C1005 C 0.82037 0.71241 0.94109 0.0
C1006 C 0.8509 0.72572 0.93971 0.0
C1007 C 0.86068 0.75495 0.93024 0.0
C1008 C 0.87307 0.70995 0.94884 0.0
C1009 C 0.80864 0.68062 0.94944 0.0
C1010 C 0.87343 0.69936 0.97849 0.0
C1011 C 0.89481 0.68518 0.98741 0.0
C1012 C 0.9164 0.68153 0.96689 0.0
C1013 C 0.91609 0.69235 0.93722 0.0
C1014 C 0.89464 0.70651 0.92831 0.0
H1015 H 0.78585 0.67193 0.94112 0.0
H1016 H 0.82285 0.66727 0.94016 0.0
H1017 H 0.80822 0.67812 0.97436 0.0
H1018 H 0.85742 0.70246 0.99488 0.0
H1019 H 0.89479 0.67758 1.01056 0.0
H1020 H 0.41502 0.74871 0.21574 0.0
H1021 H 0.44122 0.79864 0.20104 0.0
H1022 H 0.3876 0.83224 0.26324 0.0
H1023 H 0.36219 0.78223 0.27828 0.0
H1024 H 0.41294 0.8335 0.17292 0.0
H1025 H 0.46572 0.88996 0.27452 0.0
H1026 H 0.45317 0.85075 0.27278 0.0
H1027 H 0.42754 0.87237 0.28038 0.0
C1028 C 0.41017 0.76688 0.22743 0.0
C1029 C 0.3872 0.76183 0.2486 0.0
C1030 C 0.42474 0.79538 0.21873 0.0
C1031 C 0.41648 0.81938 0.231 0.0
C1032 C 0.39492 0.81429 0.25385 0.0
H1033 H 0.43319 0.98437 0.13081 0.0
H1034 H 0.41413 0.93678 0.1558 0.0
C1035 C 0.38053 0.78573 0.26266 0.0
C1036 C 0.42745 0.84903 0.21712 0.0
H1037 H 0.45986 0.92034 0.23266 0.0
C1038 C 0.4234 0.85244 0.186 0.0
C1039 C 0.44111 0.87383 0.23406 0.0
C1040 C 0.44742 0.87156 0.26722 0.0
C1041 C 0.43247 0.87979 0.17141 0.0
C1042 C 0.44535 0.90475 0.18848 0.0
C1043 C 0.44962 0.90134 0.21958 0.0
C1044 C 0.45614 0.93425 0.17423 0.0
C1045 C 0.42883 0.8815 0.13768 0.0
C1046 C 0.48583 0.94918 0.17701 0.0
C1047 C 0.49667 0.97643 0.16309 0.0
C1048 C 0.4781 0.9896 0.14597 0.0
C1049 C 0.44818 0.97487 0.14362 0.0
C1050 C 0.43729 0.94754 0.15776 0.0
H1051 H 0.42586 0.85983 0.12711 0.0
H1052 H 0.409 0.88943 0.13265 0.0
H1053 H 0.44816 0.89688 0.12708 0.0
H1054 H 0.50085 0.93951 0.18958 0.0
H1055 H 0.51983 0.98696 0.16554 0.0
H1056 H 0.18411 0.33244 0.71528 0.0
H1057 H 0.1709 0.28884 0.68385 0.0
H1058 H 0.08913 0.30945 0.66069 0.0
H1059 H 0.10319 0.35371 0.69074 0.0
H1060 H 0.12686 0.24218 0.69117 0.0
H1061 H 0.11303 0.2896 0.57927 0.0
H1062 H 0.13027 0.31173 0.61021 0.0
H1063 H 0.09075 0.30079 0.60724 0.0
C1064 C 0.16383 0.32813 0.70262 0.0
C1065 C 0.14481 0.34661 0.70521 0.0
C1066 C 0.15607 0.30301 0.68493 0.0
C1067 C 0.12911 0.29581 0.6694 0.0
C1068 C 0.11036 0.31466 0.67165 0.0
H1069 H 0.02207 0.1415 0.5837 0.0
H1070 H 0.04186 0.18815 0.60858 0.0
C1071 C 0.11825 0.33986 0.68909 0.0
C1072 C 0.11965 0.26773 0.65269 0.0
H1073 H 0.09137 0.23826 0.58565 0.0
C1074 C 0.11947 0.24144 0.66797 0.0
C1075 C 0.10991 0.26648 0.62233 0.0
C1076 C 0.11128 0.29369 0.60373 0.0
C1077 C 0.10914 0.21419 0.65416 0.0
C1078 C 0.09869 0.21299 0.62418 0.0
C1079 C 0.09917 0.23916 0.60871 0.0
C1080 C 0.0869 0.1847 0.60869 0.0
C1081 C 0.10874 0.18672 0.67195 0.0
C1082 C 0.10566 0.16728 0.60016 0.0
C1083 C 0.09445 0.14063 0.58571 0.0
C1084 C 0.06415 0.13066 0.57964 0.0
C1085 C 0.04546 0.14828 0.58814 0.0
C1086 C 0.05675 0.17505 0.60231 0.0
H1087 H 0.11321 0.19105 0.69626 0.0
H1088 H 0.08709 0.1707 0.66966 0.0
H1089 H 0.12582 0.17662 0.66287 0.0
H1090 H 0.12904 0.17437 0.60459 0.0
H1091 H 0.10955 0.12777 0.57946 0.0
H1092 H 0.78557 0.30312 0.46073 0.0
H1093 H 0.74483 0.32272 0.47812 0.0
H1094 H 0.77677 0.39932 0.42205 0.0
H1095 H 0.81792 0.37989 0.40524 0.0
H1096 H 0.75552 0.41051 0.48053 0.0
H1097 H 0.67661 0.3232 0.41902 0.0
H1098 H 0.69966 0.31067 0.4457 0.0
H1099 H 0.71586 0.33124 0.41294 0.0
C1100 C 0.78428 0.3245 0.45289 0.0
C1101 C 0.80473 0.34013 0.43177 0.0
C1102 C 0.76089 0.33551 0.46251 0.0
C1103 C 0.75755 0.36223 0.45097 0.0
C1104 C 0.77891 0.3786 0.43111 0.0
H1105 H 0.60119 0.42581 0.43674 0.0
H1106 H 0.64513 0.40808 0.42844 0.0
C1107 C 0.80229 0.36757 0.42151 0.0
C1108 C 0.73085 0.37222 0.45798 0.0
H1109 H 0.65645 0.3552 0.44757 0.0
C1110 C 0.73383 0.39841 0.47346 0.0
C1111 C 0.70267 0.35656 0.44827 0.0
C1112 C 0.69837 0.32898 0.43033 0.0
C1113 C 0.70925 0.40928 0.4797 0.0
C1114 C 0.68101 0.39333 0.47045 0.0
C1115 C 0.6781 0.36724 0.45484 0.0
C1116 C 0.65427 0.40381 0.47584 0.0
C1117 C 0.71378 0.43807 0.49546 0.0
C1118 C 0.64457 0.4068 0.50526 0.0
C1119 C 0.61932 0.41674 0.5101 0.0
C1120 C 0.60321 0.42374 0.48558 0.0
C1121 C 0.61281 0.42027 0.45613 0.0
C1122 C 0.63803 0.41032 0.45133 0.0
H1123 H 0.7372 0.45063 0.49489 0.0
H1124 H 0.70015 0.45159 0.48499 0.0
H1125 H 0.70696 0.434 0.51941 0.0
H1126 H 0.65642 0.40128 0.52449 0.0
H1127 H 0.61227 0.41871 0.53306 0.0
loop_
_geom_bond_atom_site_label_1
_geom_bond_atom_site_label_2
_geom_bond_distance
_geom_bond_site_symmetry_2
_ccdc_geom_bond_type
C0 N1 1.317 . S
C0 N2 1.348 . S
C0 C3 1.485 . S
N1 C0 1.317 . S
N1 N5 1.370 . S
N2 C0 1.348 . S
N2 C4 1.346 . S
C3 C0 1.485 . S
C3 H7 0.960 . S
C3 H8 0.961 . S
C3 H9 0.960 . S
C4 N2 1.346 . S
C4 N5 1.307 . S
C4 C6 1.486 . S
N5 N1 1.370 . S
N5 C4 1.307 . S
C6 C4 1.486 . S
C6 H10 0.960 . S
C6 H11 0.960 . S
C6 H12 0.959 . S
H7 C3 0.960 . S
H8 C3 0.961 . S
H9 C3 0.960 . S
H10 C6 0.960 . S
H11 C6 0.960 . S
H12 C6 0.959 . S
C13 N14 1.317 . S
C13 N15 1.348 . S
C13 C16 1.485 . S
N14 C13 1.317 . S
N14 N18 1.370 . S
N15 C13 1.348 . S
N15 C17 1.346 . S
C16 C13 1.485 . S
C16 H20 0.960 . S
C16 H21 0.961 . S
C16 H22 0.960 . S
C17 N15 1.346 . S
C17 N18 1.307 . S
C17 C19 1.486 . S
N18 N14 1.370 . S
N18 C17 1.307 . S
C19 C17 1.486 . S
C19 H23 0.960 . S
C19 H24 0.960 . S
C19 H25 0.959 . S
H20 C16 0.960 . S
H21 C16 0.961 . S
H22 C16 0.960 . S
H23 C19 0.960 . S
H24 C19 0.960 . S
H25 C19 0.959 . S
C26 N27 1.317 . S
C26 N28 1.348 . S
C26 C29 1.485 . S
N27 C26 1.317 . S
N27 N31 1.370 . S
N28 C26 1.348 . S
N28 C30 1.346 . S
C29 C26 1.485 . S
C29 H33 0.960 . S
C29 H34 0.961 . S
C29 H35 0.960 . S
C30 N28 1.346 . S
C30 N31 1.307 . S
C30 C32 1.486 . S
N31 N27 1.370 . S
N31 C30 1.307 . S
C32 C30 1.486 . S
C32 H36 0.960 . S
C32 H37 0.960 . S
C32 H38 0.959 . S
H33 C29 0.960 . S
H34 C29 0.961 . S
H35 C29 0.960 . S
H36 C32 0.960 . S
H37 C32 0.960 . S
H38 C32 0.959 . S
C39 N40 1.317 . S
C39 N41 1.348 . S
C39 C42 1.485 . S
N40 C39 1.317 . S
N40 N44 1.370 . S
N41 C39 1.348 . S
N41 C43 1.346 . S
C42 C39 1.485 . S
C42 H46 0.960 . S
C42 H47 0.961 . S
C42 H48 0.960 . S
C43 N41 1.346 . S
C43 N44 1.307 . S
C43 C45 1.486 . S
N44 N40 1.370 . S
N44 C43 1.307 . S
C45 C43 1.486 . S
C45 H49 0.960 . S
C45 H50 0.960 . S
C45 H51 0.959 . S
H46 C42 0.960 . S
H47 C42 0.961 . S
H48 C42 0.960 . S
H49 C45 0.960 . S
H50 C45 0.960 . S
H51 C45 0.959 . S
C52 N53 1.317 . S
C52 N54 1.348 . S
C52 C55 1.485 . S
N53 C52 1.317 . S
N53 N57 1.370 . S
N54 C52 1.348 . S
N54 C56 1.346 . S
C55 C52 1.485 . S
C55 H59 0.960 . S
C55 H60 0.961 . S
C55 H61 0.960 . S
C56 N54 1.346 . S
C56 N57 1.307 . S
C56 C58 1.486 . S
N57 N53 1.370 . S
N57 C56 1.307 . S
C58 C56 1.486 . S
C58 H62 0.960 . S
C58 H63 0.960 . S
C58 H64 0.959 . S
H59 C55 0.960 . S
H60 C55 0.961 . S
H61 C55 0.960 . S
H62 C58 0.960 . S
H63 C58 0.960 . S
H64 C58 0.959 . S
C65 N66 1.317 . S
C65 N67 1.348 . S
C65 C68 1.485 . S
N66 C65 1.317 . S
N66 N70 1.370 . S
N67 C65 1.348 . S
N67 C69 1.346 . S
C68 C65 1.485 . S
C68 H72 0.960 . S
C68 H73 0.961 . S
C68 H74 0.960 . S
C69 N67 1.346 . S
C69 N70 1.307 . S
C69 C71 1.486 . S
N70 N66 1.370 . S
N70 C69 1.307 . S
C71 C69 1.486 . S
C71 H75 0.960 . S
C71 H76 0.960 . S
C71 H77 0.959 . S
H72 C68 0.960 . S
H73 C68 0.961 . S
H74 C68 0.960 . S
H75 C71 0.960 . S
H76 C71 0.960 . S
H77 C71 0.959 . S
C78 N79 1.317 . S
C78 N80 1.348 . S
C78 C81 1.485 . S
N79 C78 1.317 . S
N79 N83 1.370 . S
N80 C78 1.348 . S
N80 C82 1.346 . S
C81 C78 1.485 . S
C81 H85 0.960 . S
C81 H86 0.961 . S
C81 H87 0.960 . S
C82 N80 1.346 . S
C82 N83 1.307 . S
C82 C84 1.486 . S
N83 N79 1.370 . S
N83 C82 1.307 . S
C84 C82 1.486 . S
C84 H88 0.960 . S
C84 H89 0.960 . S
C84 H90 0.959 . S
H85 C81 0.960 . S
H86 C81 0.961 . S
H87 C81 0.960 . S
H88 C84 0.960 . S
H89 C84 0.960 . S
H90 C84 0.959 . S
C91 N92 1.317 . S
C91 N93 1.348 . S
C91 C94 1.485 . S
N92 C91 1.317 . S
N92 N96 1.370 . S
N93 C91 1.348 . S
N93 C95 1.346 . S
C94 C91 1.485 . S
C94 H98 0.960 . S
C94 H99 0.961 . S
C94 H100 0.960 . S
C95 N93 1.346 . S
C95 N96 1.307 . S
C95 C97 1.486 . S
N96 N92 1.370 . S
N96 C95 1.307 . S
C97 C95 1.486 . S
C97 H101 0.960 . S
C97 H102 0.960 . S
C97 H103 0.959 . S
H98 C94 0.960 . S
H99 C94 0.961 . S
H100 C94 0.960 . S
H101 C97 0.960 . S
H102 C97 0.960 . S
H103 C97 0.959 . S
Tb104 C113 2.764 . S
Tb104 O114 2.325 . S
Tb104 O117 2.303 . S
Tb104 O121 2.322 1_545 S
Tb104 O122 2.349 1_545 S
Tb104 O125 2.415 . S
Tb104 O126 2.399 . S
Tb105 O115 2.327 . S
Tb105 O116 2.349 . S
Tb105 O118 2.415 1_445 S
Tb105 O119 2.399 1_455 S
Tb105 O120 2.325 1_545 S
Tb105 O123 2.303 1_545 S
Tb105 C134 2.764 1_445 S
C106 O122 1.261 . S
C106 O123 1.257 . S
C107 C110 1.358 . S
C107 C111 1.332 . S
C107 C113 1.504 . S
C108 C109 1.373 . S
C108 C112 1.308 . S
C109 C108 1.373 . S
C109 C110 1.429 . S
C109 H136 0.932 . S
C110 C107 1.358 . S
C110 C109 1.429 . S
C110 H137 0.930 . S
C111 C107 1.332 . S
C111 C112 1.394 . S
C111 H138 0.932 . S
C112 C108 1.308 . S
C112 C111 1.394 . S
C112 H139 0.929 . S
C113 Tb104 2.764 . S
C113 C107 1.504 . S
C113 O125 1.239 . S
C113 O126 1.263 . S
O114 Tb104 2.325 . S
O114 C124 1.236 . S
O115 Tb105 2.327 . S
O115 C124 1.268 . S
O116 Tb105 2.349 . S
O116 C127 1.261 . S
O117 Tb104 2.303 . S
O117 C127 1.257 . S
O118 Tb105 2.415 1_665 S
O118 C134 1.239 . S
O119 Tb105 2.399 1_655 S
O119 C134 1.263 1_545 S
O120 Tb105 2.325 1_565 S
O120 C135 1.236 . S
O121 Tb104 2.322 1_565 S
O121 C135 1.257 . S
O122 Tb104 2.349 1_565 S
O122 C106 1.261 . S
O123 Tb105 2.303 1_565 S
O123 C106 1.257 . S
C124 O114 1.236 . S
C124 O115 1.268 . S
O125 Tb104 2.415 . S
O125 C113 1.239 . S
O126 Tb104 2.399 . S
O126 C113 1.263 . S
C127 O116 1.261 . S
C127 O117 1.257 . S
C128 C131 1.358 . S
C128 C132 1.332 . S
C128 C134 1.504 . S
C129 C130 1.373 . S
C129 C133 1.308 . S
C130 C129 1.373 . S
C130 C131 1.429 . S
C130 H140 0.932 . S
C131 C128 1.358 . S
C131 C130 1.429 . S
C131 H141 0.930 . S
C132 C128 1.332 . S
C132 C133 1.394 . S
C132 H142 0.932 . S
C133 C129 1.308 . S
C133 C132 1.394 . S
C133 H143 0.929 . S
C134 Tb105 2.764 1_665 S
C134 O118 1.239 . S
C134 O119 1.263 1_565 S
C134 C128 1.504 . S
C135 O120 1.236 . S
C135 O121 1.257 . S
H136 C109 0.932 . S
H137 C110 0.930 . S
H138 C111 0.932 . S
H139 C112 0.929 . S
H140 C130 0.932 . S
H141 C131 0.930 . S
H142 C132 0.932 . S
H143 C133 0.929 . S
Tb144 C153 2.764 . S
Tb144 O154 2.325 . S
Tb144 O157 2.303 . S
Tb144 O161 2.322 1_545 S
Tb144 O162 2.349 . S
Tb144 O165 2.415 . S
Tb144 O166 2.399 . S
Tb145 O155 2.322 . S
Tb145 O156 2.349 . S
Tb145 O158 2.415 1_545 S
Tb145 O159 2.409 . S
Tb145 O160 2.325 1_545 S
Tb145 O163 2.303 . S
Tb145 C174 2.769 1_545 S
C146 O162 1.261 1_565 S
C146 O163 1.255 1_565 S
C147 C150 1.358 . S
C147 C151 1.332 . S
C147 C153 1.504 . S
C148 C149 1.373 . S
C148 C152 1.308 . S
C149 C148 1.373 . S
C149 C150 1.429 . S
C149 H176 0.932 . S
C150 C147 1.358 . S
C150 C149 1.429 . S
C150 H177 0.930 . S
C151 C147 1.332 . S
C151 C152 1.394 . S
C151 H178 0.932 . S
C152 C148 1.308 . S
C152 C151 1.394 . S
C152 H179 0.929 . S
C153 Tb144 2.764 . S
C153 C147 1.504 . S
C153 O165 1.239 . S
C153 O166 1.263 . S
O154 Tb144 2.325 . S
O154 C164 1.236 . S
O155 Tb145 2.322 . S
O155 C164 1.257 . S
O156 Tb145 2.349 . S
O156 C167 1.261 . S
O157 Tb144 2.303 . S
O157 C167 1.257 . S
O158 Tb145 2.415 1_565 S
O158 C174 1.239 . S
O159 Tb145 2.409 . S
O159 C174 1.234 1_545 S
O160 Tb145 2.325 1_565 S
O160 C175 1.236 . S
O161 Tb144 2.322 1_565 S
O161 C175 1.257 . S
O162 Tb144 2.349 . S
O162 C146 1.261 1_545 S
O163 Tb145 2.303 . S
O163 C146 1.255 1_545 S
C164 O154 1.236 . S
C164 O155 1.257 . S
O165 Tb144 2.415 . S
O165 C153 1.239 . S
O166 Tb144 2.399 . S
O166 C153 1.263 . S
C167 O156 1.261 . S
C167 O157 1.257 . S
C168 C171 1.358 . S
C168 C172 1.332 . S
C168 C174 1.499 1_556 S
C169 C170 1.373 . S
C169 C173 1.308 . S
C170 C169 1.373 . S
C170 C171 1.429 . S
C170 H180 0.932 . S
C171 C168 1.358 . S
C171 C170 1.429 . S
C171 H181 0.930 . S
C172 C168 1.332 . S
C172 C173 1.394 . S
C172 H182 0.932 . S
C173 C169 1.308 . S
C173 C172 1.394 . S
C173 H183 0.929 . S
C174 Tb145 2.769 1_565 S
C174 O158 1.239 . S
C174 O159 1.234 1_565 S
C174 C168 1.499 1_554 S
C175 O160 1.236 . S
C175 O161 1.257 . S
H176 C149 0.932 . S
H177 C150 0.930 . S
H178 C151 0.932 . S
H179 C152 0.929 . S
H180 C170 0.932 . S
H181 C171 0.930 . S
H182 C172 0.932 . S
H183 C173 0.929 . S
Tb184 C193 2.764 . S
Tb184 O194 2.325 . S
Tb184 O197 2.303 . S
Tb184 O201 2.322 . S
Tb184 O202 2.349 . S
Tb184 O205 2.415 . S
Tb184 O206 2.399 . S
Tb185 O195 2.322 . S
Tb185 O196 2.349 . S
Tb185 O198 2.415 . S
Tb185 O199 2.399 . S
Tb185 O200 2.325 . S
Tb185 O203 2.303 . S
Tb185 C214 2.764 . S
C186 O202 1.261 . S
C186 O203 1.257 . S
C187 C190 1.358 . S
C187 C191 1.332 . S
C187 C193 1.504 . S
C188 C189 1.373 . S
C188 C192 1.308 . S
C189 C188 1.373 . S
C189 C190 1.429 . S
C189 H216 0.932 . S
C190 C187 1.358 . S
C190 C189 1.429 . S
C190 H217 0.930 . S
C191 C187 1.332 . S
C191 C192 1.394 . S
C191 H218 0.932 . S
C192 C188 1.308 . S
C192 C191 1.394 . S
C192 H219 0.929 . S
C193 Tb184 2.764 . S
C193 C187 1.504 . S
C193 O205 1.239 . S
C193 O206 1.263 . S
O194 Tb184 2.325 . S
O194 C204 1.236 . S
O195 Tb185 2.322 . S
O195 C204 1.257 . S
O196 Tb185 2.349 . S
O196 C207 1.261 . S
O197 Tb184 2.303 . S
O197 C207 1.257 . S
O198 Tb185 2.415 . S
O198 C214 1.239 . S
O199 Tb185 2.399 . S
O199 C214 1.263 . S
O200 Tb185 2.325 . S
O200 C215 1.236 . S
O201 Tb184 2.322 . S
O201 C215 1.257 . S
O202 Tb184 2.349 . S
O202 C186 1.261 . S
O203 Tb185 2.303 . S
O203 C186 1.257 . S
C204 O194 1.236 . S
C204 O195 1.257 . S
O205 Tb184 2.415 . S
O205 C193 1.239 . S
O206 Tb184 2.399 . S
O206 C193 1.263 . S
C207 O196 1.261 . S
C207 O197 1.257 . S
C208 C211 1.358 . S
C208 C212 1.332 . S
C208 C214 1.504 . S
C209 C210 1.373 . S
C209 C213 1.308 . S
C210 C209 1.373 . S
C210 C211 1.429 . S
C210 H220 0.932 . S
C211 C208 1.358 . S
C211 C210 1.429 . S
C211 H221 0.930 . S
C212 C208 1.332 . S
C212 C213 1.394 . S
C212 H222 0.932 . S
C213 C209 1.308 . S
C213 C212 1.394 . S
C213 H223 0.929 . S
C214 Tb185 2.764 . S
C214 O198 1.239 . S
C214 O199 1.263 . S
C214 C208 1.504 . S
C215 O200 1.236 . S
C215 O201 1.257 . S
H216 C189 0.932 . S
H217 C190 0.930 . S
H218 C191 0.932 . S
H219 C192 0.929 . S
H220 C210 0.932 . S
H221 C211 0.930 . S
H222 C212 0.932 . S
H223 C213 0.929 . S
Tb224 C233 2.765 1_455 S
Tb224 O234 2.326 1_455 S
Tb224 O237 2.303 1_456 S
Tb224 O241 2.321 1_556 S
Tb224 O242 2.349 . S
Tb224 O245 2.416 1_455 S
Tb224 O246 2.400 1_455 S
Tb225 O235 2.322 1_455 S
Tb225 O236 2.349 1_455 S
Tb225 O238 2.415 . S
Tb225 O239 2.399 . S
Tb225 O240 2.325 . S
Tb225 O243 2.303 1_554 S
Tb225 C254 2.764 . S
C226 O242 1.261 . S
C226 O243 1.257 . S
C227 C230 1.358 . S
C227 C231 1.332 . S
C227 C233 1.504 . S
C228 C229 1.373 . S
C228 C232 1.308 . S
C229 C228 1.373 . S
C229 C230 1.429 . S
C229 H256 0.932 . S
C230 C227 1.358 . S
C230 C229 1.429 . S
C230 H257 0.930 . S
C231 C227 1.332 . S
C231 C232 1.394 . S
C231 H258 0.932 . S
C232 C228 1.308 . S
C232 C231 1.394 . S
C232 H259 0.929 . S
C233 Tb224 2.765 1_655 S
C233 C227 1.504 . S
C233 O245 1.239 . S
C233 O246 1.263 . S
O234 Tb224 2.326 1_655 S
O234 C244 1.236 . S
O235 Tb225 2.322 1_655 S
O235 C244 1.257 1_554 S
O236 Tb225 2.349 1_655 S
O236 C247 1.261 . S
O237 Tb224 2.303 1_654 S
O237 C247 1.257 . S
O238 Tb225 2.415 . S
O238 C254 1.239 . S
O239 Tb225 2.399 . S
O239 C254 1.263 . S
O240 Tb225 2.325 . S
O240 C255 1.236 . S
O241 Tb224 2.321 1_554 S
O241 C255 1.257 . S
O242 Tb224 2.349 . S
O242 C226 1.261 . S
O243 Tb225 2.303 1_556 S
O243 C226 1.257 . S
C244 O234 1.236 . S
C244 O235 1.257 1_556 S
O245 Tb224 2.416 1_655 S
O245 C233 1.239 . S
O246 Tb224 2.400 1_655 S
O246 C233 1.263 . S
C247 O236 1.261 . S
C247 O237 1.257 . S
C248 C251 1.358 . S
C248 C252 1.332 . S
C248 C254 1.504 . S
C249 C250 1.373 . S
C249 C253 1.308 . S
C250 C249 1.373 . S
C250 C251 1.429 . S
C250 H260 0.932 . S
C251 C248 1.358 . S
C251 C250 1.429 . S
C251 H261 0.930 . S
C252 C248 1.332 . S
C252 C253 1.394 . S
C252 H262 0.932 . S
C253 C249 1.308 . S
C253 C252 1.394 . S
C253 H263 0.929 . S
C254 Tb225 2.764 . S
C254 O238 1.239 . S
C254 O239 1.263 . S
C254 C248 1.504 . S
C255 O240 1.236 . S
C255 O241 1.257 . S
H256 C229 0.932 . S
H257 C230 0.930 . S
H258 C231 0.932 . S
H259 C232 0.929 . S
H260 C250 0.932 . S
H261 C251 0.930 . S
H262 C252 0.932 . S
H263 C253 0.929 . S
H264 C272 0.929 . S
H265 C274 0.930 . S
H266 C276 0.930 . S
H267 C279 0.929 . S
H268 C282 0.930 . S
H269 C284 0.960 . S
H270 C284 0.960 . S
H271 C284 0.960 . S
C272 H264 0.929 . S
C272 C273 1.377 . S
C272 C274 1.384 . S
C273 C272 1.377 . S
C273 C279 1.390 . S
C274 H265 0.930 . S
C274 C272 1.384 . S
C274 C275 1.372 . S
C275 C274 1.372 . S
C275 C276 1.400 . S
C275 C280 1.490 . S
C276 H266 0.930 . S
C276 C275 1.400 . S
C276 C279 1.386 . S
H277 C293 0.930 . S
H278 C294 0.931 . S
C279 H267 0.929 . S
C279 C273 1.390 . S
C279 C276 1.386 . S
C280 C275 1.490 . S
C280 C282 1.395 . S
C280 C283 1.403 . S
H281 C287 0.930 . S
C282 H268 0.930 . S
C282 C280 1.395 . S
C282 C285 1.403 . S
C283 C280 1.403 . S
C283 C284 1.524 . S
C283 C287 1.400 . S
C284 H269 0.960 . S
C284 H270 0.960 . S
C284 H271 0.960 . S
C284 C283 1.524 . S
C285 C282 1.403 . S
C285 C286 1.392 . S
C285 C289 1.495 . S
C286 C285 1.392 . S
C286 C287 1.385 . S
C286 C288 1.478 . S
C287 H281 0.930 . S
C287 C283 1.400 . S
C287 C286 1.385 . S
C288 C286 1.478 . S
C288 C290 1.381 . S
C288 C294 1.383 . S
C289 C285 1.495 . S
C289 H295 0.959 . S
C289 H296 0.961 . S
C289 H297 0.960 . S
C290 C288 1.381 . S
C290 C291 1.394 . S
C290 H298 0.930 . S
C291 C290 1.394 . S
C291 C292 1.383 . S
C291 H299 0.929 . S
C292 C291 1.383 . S
C292 C293 1.377 . S
C293 H277 0.930 . S
C293 C292 1.377 . S
C293 C294 1.379 . S
C294 H278 0.931 . S
C294 C288 1.383 . S
C294 C293 1.379 . S
H295 C289 0.959 . S
H296 C289 0.961 . S
H297 C289 0.960 . S
H298 C290 0.930 . S
H299 C291 0.929 . S
H300 C308 0.929 . S
H301 C310 0.930 . S
H302 C312 0.930 . S
H303 C315 0.929 . S
H304 C318 0.930 . S
H305 C320 0.960 . S
H306 C320 0.960 . S
H307 C320 0.960 . S
C308 H300 0.929 . S
C308 C309 1.377 . S
C308 C310 1.384 . S
C309 C308 1.377 . S
C309 C315 1.390 . S
C310 H301 0.930 . S
C310 C308 1.384 . S
C310 C311 1.372 . S
C311 C310 1.372 . S
C311 C312 1.400 . S
C311 C316 1.490 . S
C312 H302 0.930 . S
C312 C311 1.400 . S
C312 C315 1.386 . S
H313 C329 0.930 . S
H314 C330 0.931 . S
C315 H303 0.929 . S
C315 C309 1.390 . S
C315 C312 1.386 . S
C316 C311 1.490 . S
C316 C318 1.395 . S
C316 C319 1.403 . S
H317 C323 0.930 . S
C318 H304 0.930 . S
C318 C316 1.395 . S
C318 C321 1.403 . S
C319 C316 1.403 . S
C319 C320 1.524 . S
C319 C323 1.400 . S
C320 H305 0.960 . S
C320 H306 0.960 . S
C320 H307 0.960 . S
C320 C319 1.524 . S
C321 C318 1.403 . S
C321 C322 1.392 . S
C321 C325 1.495 . S
C322 C321 1.392 . S
C322 C323 1.385 . S
C322 C324 1.478 . S
C323 H317 0.930 . S
C323 C319 1.400 . S
C323 C322 1.385 . S
C324 C322 1.478 . S
C324 C326 1.381 . S
C324 C330 1.383 . S
C325 C321 1.495 . S
C325 H331 0.959 . S
C325 H332 0.961 . S
C325 H333 0.960 . S
C326 C324 1.381 . S
C326 C327 1.394 . S
C326 H334 0.930 . S
C327 C326 1.394 . S
C327 C328 1.383 . S
C327 H335 0.929 . S
C328 C327 1.383 . S
C328 C329 1.377 . S
C329 H313 0.930 . S
C329 C328 1.377 . S
C329 C330 1.379 . S
C330 H314 0.931 . S
C330 C324 1.383 . S
C330 C329 1.379 . S
H331 C325 0.959 . S
H332 C325 0.961 . S
H333 C325 0.960 . S
H334 C326 0.930 . S
H335 C327 0.929 . S
H336 C344 0.929 . S
H337 C346 0.930 . S
H338 C348 0.930 . S
H339 C351 0.929 . S
H340 C354 0.930 . S
H341 C356 0.960 . S
H342 C356 0.960 . S
H343 C356 0.960 . S
C344 H336 0.929 . S
C344 C345 1.377 . S
C344 C346 1.384 . S
C345 C344 1.377 . S
C345 C351 1.390 . S
C346 H337 0.930 . S
C346 C344 1.384 . S
C346 C347 1.372 . S
C347 C346 1.372 . S
C347 C348 1.400 . S
C347 C352 1.490 . S
C348 H338 0.930 . S
C348 C347 1.400 . S
C348 C351 1.386 . S
H349 C365 0.930 . S
H350 C366 0.931 . S
C351 H339 0.929 . S
C351 C345 1.390 . S
C351 C348 1.386 . S
C352 C347 1.490 . S
C352 C354 1.395 . S
C352 C355 1.403 . S
H353 C359 0.930 . S
C354 H340 0.930 . S
C354 C352 1.395 . S
C354 C357 1.403 . S
C355 C352 1.403 . S
C355 C356 1.524 . S
C355 C359 1.400 . S
C356 H341 0.960 . S
C356 H342 0.960 . S
C356 H343 0.960 . S
C356 C355 1.524 . S
C357 C354 1.403 . S
C357 C358 1.392 . S
C357 C361 1.495 . S
C358 C357 1.392 . S
C358 C359 1.385 . S
C358 C360 1.478 . S
C359 H353 0.930 . S
C359 C355 1.400 . S
C359 C358 1.385 . S
C360 C358 1.478 . S
C360 C362 1.381 . S
C360 C366 1.383 . S
C361 C357 1.495 . S
C361 H367 0.959 . S
C361 H368 0.961 . S
C361 H369 0.960 . S
C362 C360 1.381 . S
C362 C363 1.394 . S
C362 H370 0.930 . S
C363 C362 1.394 . S
C363 C364 1.383 . S
C363 H371 0.929 . S
C364 C363 1.383 . S
C364 C365 1.377 . S
C365 H349 0.930 . S
C365 C364 1.377 . S
C365 C366 1.379 . S
C366 H350 0.931 . S
C366 C360 1.383 . S
C366 C365 1.379 . S
H367 C361 0.959 . S
H368 C361 0.961 . S
H369 C361 0.960 . S
H370 C362 0.930 . S
H371 C363 0.929 . S
H372 C380 0.929 . S
H373 C382 0.930 . S
H374 C384 0.930 . S
H375 C387 0.929 . S
H376 C390 0.930 . S
H377 C392 0.960 . S
H378 C392 0.960 . S
H379 C392 0.960 . S
C380 H372 0.929 . S
C380 C381 1.377 . S
C380 C382 1.384 . S
C381 C380 1.377 . S
C381 C387 1.390 . S
C382 H373 0.930 . S
C382 C380 1.384 . S
C382 C383 1.372 . S
C383 C382 1.372 . S
C383 C384 1.400 . S
C383 C388 1.490 . S
C384 H374 0.930 . S
C384 C383 1.400 . S
C384 C387 1.386 . S
H385 C401 0.930 . S
H386 C402 0.931 . S
C387 H375 0.929 . S
C387 C381 1.390 . S
C387 C384 1.386 . S
C388 C383 1.490 . S
C388 C390 1.395 . S
C388 C391 1.403 . S
H389 C395 0.930 . S
C390 H376 0.930 . S
C390 C388 1.395 . S
C390 C393 1.403 . S
C391 C388 1.403 . S
C391 C392 1.524 . S
C391 C395 1.400 . S
C392 H377 0.960 . S
C392 H378 0.960 . S
C392 H379 0.960 . S
C392 C391 1.524 . S
C393 C390 1.403 . S
C393 C394 1.392 . S
C393 C397 1.495 . S
C394 C393 1.392 . S
C394 C395 1.385 . S
C394 C396 1.478 . S
C395 H389 0.930 . S
C395 C391 1.400 . S
C395 C394 1.385 . S
C396 C394 1.478 . S
C396 C398 1.381 . S
C396 C402 1.383 . S
C397 C393 1.495 . S
C397 H403 0.959 . S
C397 H404 0.961 . S
C397 H405 0.960 . S
C398 C396 1.381 . S
C398 C399 1.394 . S
C398 H406 0.930 . S
C399 C398 1.394 . S
C399 C400 1.383 . S
C399 H407 0.929 . S
C400 C399 1.383 . S
C400 C401 1.377 . S
C401 H385 0.930 . S
C401 C400 1.377 . S
C401 C402 1.379 . S
C402 H386 0.931 . S
C402 C396 1.383 . S
C402 C401 1.379 . S
H403 C397 0.959 . S
H404 C397 0.961 . S
H405 C397 0.960 . S
H406 C398 0.930 . S
H407 C399 0.929 . S
H408 C416 0.929 . S
H409 C418 0.930 . S
H410 C420 0.930 . S
H411 C423 0.929 . S
H412 C426 0.930 . S
H413 C428 0.960 . S
H414 C428 0.960 . S
H415 C428 0.960 . S
C416 H408 0.929 . S
C416 C417 1.377 . S
C416 C418 1.384 . S
C417 C416 1.377 . S
C417 C423 1.390 . S
C418 H409 0.930 . S
C418 C416 1.384 . S
C418 C419 1.372 . S
C419 C418 1.372 . S
C419 C420 1.400 . S
C419 C424 1.490 . S
C420 H410 0.930 . S
C420 C419 1.400 . S
C420 C423 1.386 . S
H421 C437 0.930 . S
H422 C438 0.931 . S
C423 H411 0.929 . S
C423 C417 1.390 . S
C423 C420 1.386 . S
C424 C419 1.490 . S
C424 C426 1.395 . S
C424 C427 1.403 . S
H425 C431 0.930 . S
C426 H412 0.930 . S
C426 C424 1.395 . S
C426 C429 1.403 . S
C427 C424 1.403 . S
C427 C428 1.524 . S
C427 C431 1.400 . S
C428 H413 0.960 . S
C428 H414 0.960 . S
C428 H415 0.960 . S
C428 C427 1.524 . S
C429 C426 1.403 . S
C429 C430 1.392 . S
C429 C433 1.495 . S
C430 C429 1.392 . S
C430 C431 1.385 . S
C430 C432 1.478 . S
C431 H425 0.930 . S
C431 C427 1.400 . S
C431 C430 1.385 . S
C432 C430 1.478 . S
C432 C434 1.381 . S
C432 C438 1.383 . S
C433 C429 1.495 . S
C433 H439 0.959 . S
C433 H440 0.961 . S
C433 H441 0.960 . S
C434 C432 1.381 . S
C434 C435 1.394 . S
C434 H442 0.930 . S
C435 C434 1.394 . S
C435 C436 1.383 . S
C435 H443 0.929 . S
C436 C435 1.383 . S
C436 C437 1.377 . S
C437 H421 0.930 . S
C437 C436 1.377 . S
C437 C438 1.379 . S
C438 H422 0.931 . S
C438 C432 1.383 . S
C438 C437 1.379 . S
H439 C433 0.959 . S
H440 C433 0.961 . S
H441 C433 0.960 . S
H442 C434 0.930 . S
H443 C435 0.929 . S
H444 C452 0.929 . S
H445 C454 0.930 . S
H446 C456 0.930 . S
H447 C459 0.929 . S
H448 C462 0.930 . S
H449 C464 0.960 . S
H450 C464 0.960 . S
H451 C464 0.960 . S
C452 H444 0.929 . S
C452 C453 1.377 . S
C452 C454 1.384 . S
C453 C452 1.377 . S
C453 C459 1.390 . S
C454 H445 0.930 . S
C454 C452 1.384 . S
C454 C455 1.372 . S
C455 C454 1.372 . S
C455 C456 1.400 . S
C455 C460 1.490 . S
C456 H446 0.930 . S
C456 C455 1.400 . S
C456 C459 1.386 . S
H457 C473 0.930 . S
H458 C474 0.931 . S
C459 H447 0.929 . S
C459 C453 1.390 . S
C459 C456 1.386 . S
C460 C455 1.490 . S
C460 C462 1.395 . S
C460 C463 1.403 . S
H461 C467 0.930 . S
C462 H448 0.930 . S
C462 C460 1.395 . S
C462 C465 1.403 . S
C463 C460 1.403 . S
C463 C464 1.524 . S
C463 C467 1.400 . S
C464 H449 0.960 . S
C464 H450 0.960 . S
C464 H451 0.960 . S
C464 C463 1.524 . S
C465 C462 1.403 . S
C465 C466 1.392 . S
C465 C469 1.495 . S
C466 C465 1.392 . S
C466 C467 1.385 . S
C466 C468 1.478 . S
C467 H461 0.930 . S
C467 C463 1.400 . S
C467 C466 1.385 . S
C468 C466 1.478 . S
C468 C470 1.381 . S
C468 C474 1.383 . S
C469 C465 1.495 . S
C469 H475 0.959 . S
C469 H476 0.961 . S
C469 H477 0.960 . S
C470 C468 1.381 . S
C470 C471 1.394 . S
C470 H478 0.930 . S
C471 C470 1.394 . S
C471 C472 1.383 . S
C471 H479 0.929 . S
C472 C471 1.383 . S
C472 C473 1.377 . S
C473 H457 0.930 . S
C473 C472 1.377 . S
C473 C474 1.379 . S
C474 H458 0.931 . S
C474 C468 1.383 . S
C474 C473 1.379 . S
H475 C469 0.959 . S
H476 C469 0.961 . S
H477 C469 0.960 . S
H478 C470 0.930 . S
H479 C471 0.929 . S
H480 C488 0.929 . S
H481 C490 0.930 . S
H482 C492 0.930 . S
H483 C495 0.929 . S
H484 C498 0.930 . S
H485 C500 0.960 . S
H486 C500 0.960 . S
H487 C500 0.960 . S
C488 H480 0.929 . S
C488 C489 1.377 . S
C488 C490 1.384 . S
C489 C488 1.377 . S
C489 C495 1.390 . S
C490 H481 0.930 . S
C490 C488 1.384 . S
C490 C491 1.372 . S
C491 C490 1.372 . S
C491 C492 1.400 . S
C491 C496 1.490 . S
C492 H482 0.930 . S
C492 C491 1.400 . S
C492 C495 1.386 . S
H493 C509 0.930 . S
H494 C510 0.931 . S
C495 H483 0.929 . S
C495 C489 1.390 . S
C495 C492 1.386 . S
C496 C491 1.490 . S
C496 C498 1.395 . S
C496 C499 1.403 . S
H497 C503 0.930 . S
C498 H484 0.930 . S
C498 C496 1.395 . S
C498 C501 1.403 . S
C499 C496 1.403 . S
C499 C500 1.524 . S
C499 C503 1.400 . S
C500 H485 0.960 . S
C500 H486 0.960 . S
C500 H487 0.960 . S
C500 C499 1.524 . S
C501 C498 1.403 . S
C501 C502 1.392 . S
C501 C505 1.495 . S
C502 C501 1.392 . S
C502 C503 1.385 . S
C502 C504 1.478 . S
C503 H497 0.930 . S
C503 C499 1.400 . S
C503 C502 1.385 . S
C504 C502 1.478 . S
C504 C506 1.381 . S
C504 C510 1.383 . S
C505 C501 1.495 . S
C505 H511 0.959 . S
C505 H512 0.961 . S
C505 H513 0.960 . S
C506 C504 1.381 . S
C506 C507 1.394 . S
C506 H514 0.930 . S
C507 C506 1.394 . S
C507 C508 1.383 . S
C507 H515 0.929 . S
C508 C507 1.383 . S
C508 C509 1.377 . S
C509 H493 0.930 . S
C509 C508 1.377 . S
C509 C510 1.379 . S
C510 H494 0.931 . S
C510 C504 1.383 . S
C510 C509 1.379 . S
H511 C505 0.959 . S
H512 C505 0.961 . S
H513 C505 0.960 . S
H514 C506 0.930 . S
H515 C507 0.929 . S
H516 C524 0.929 . S
H517 C526 0.930 . S
H518 C528 0.930 . S
H519 C531 0.929 . S
H520 C534 0.930 . S
H521 C536 0.960 . S
H522 C536 0.960 . S
H523 C536 0.960 . S
C524 H516 0.929 . S
C524 C525 1.377 . S
C524 C526 1.384 . S
C525 C524 1.377 . S
C525 C531 1.390 . S
C526 H517 0.930 . S
C526 C524 1.384 . S
C526 C527 1.372 . S
C527 C526 1.372 . S
C527 C528 1.400 . S
C527 C532 1.490 . S
C528 H518 0.930 . S
C528 C527 1.400 . S
C528 C531 1.386 . S
H529 C545 0.930 . S
H530 C546 0.931 . S
C531 H519 0.929 . S
C531 C525 1.390 . S
C531 C528 1.386 . S
C532 C527 1.490 . S
C532 C534 1.395 . S
C532 C535 1.403 . S
H533 C539 0.930 . S
C534 H520 0.930 . S
C534 C532 1.395 . S
C534 C537 1.403 . S
C535 C532 1.403 . S
C535 C536 1.524 . S
C535 C539 1.400 . S
C536 H521 0.960 . S
C536 H522 0.960 . S
C536 H523 0.960 . S
C536 C535 1.524 . S
C537 C534 1.403 . S
C537 C538 1.392 . S
C537 C541 1.495 . S
C538 C537 1.392 . S
C538 C539 1.385 . S
C538 C540 1.478 . S
C539 H533 0.930 . S
C539 C535 1.400 . S
C539 C538 1.385 . S
C540 C538 1.478 . S
C540 C542 1.381 . S
C540 C546 1.383 . S
C541 C537 1.495 . S
C541 H547 0.959 . S
C541 H548 0.961 . S
C541 H549 0.960 . S
C542 C540 1.381 . S
C542 C543 1.394 . S
C542 H550 0.930 . S
C543 C542 1.394 . S
C543 C544 1.383 . S
C543 H551 0.929 . S
C544 C543 1.383 . S
C544 C545 1.377 . S
C545 H529 0.930 . S
C545 C544 1.377 . S
C545 C546 1.379 . S
C546 H530 0.931 . S
C546 C540 1.383 . S
C546 C545 1.379 . S
H547 C541 0.959 . S
H548 C541 0.961 . S
H549 C541 0.960 . S
H550 C542 0.930 . S
H551 C543 0.929 . S
H552 C560 0.929 . S
H553 C562 0.930 . S
H554 C564 0.930 . S
H555 C567 0.929 . S
H556 C570 0.930 . S
H557 C572 0.960 . S
H558 C572 0.960 . S
H559 C572 0.960 . S
C560 H552 0.929 . S
C560 C561 1.377 . S
C560 C562 1.384 . S
C561 C560 1.377 . S
C561 C567 1.390 . S
C562 H553 0.930 . S
C562 C560 1.384 . S
C562 C563 1.372 . S
C563 C562 1.372 . S
C563 C564 1.400 . S
C563 C568 1.490 . S
C564 H554 0.930 . S
C564 C563 1.400 . S
C564 C567 1.386 . S
H565 C581 0.930 . S
H566 C582 0.931 . S
C567 H555 0.929 . S
C567 C561 1.390 . S
C567 C564 1.386 . S
C568 C563 1.490 . S
C568 C570 1.395 . S
C568 C571 1.403 . S
H569 C575 0.930 . S
C570 H556 0.930 . S
C570 C568 1.395 . S
C570 C573 1.403 . S
C571 C568 1.403 . S
C571 C572 1.524 . S
C571 C575 1.400 . S
C572 H557 0.960 . S
C572 H558 0.960 . S
C572 H559 0.960 . S
C572 C571 1.524 . S
C573 C570 1.403 . S
C573 C574 1.392 . S
C573 C577 1.495 . S
C574 C573 1.392 . S
C574 C575 1.385 . S
C574 C576 1.478 . S
C575 H569 0.930 . S
C575 C571 1.400 . S
C575 C574 1.385 . S
C576 C574 1.478 . S
C576 C578 1.381 . S
C576 C582 1.383 . S
C577 C573 1.495 . S
C577 H583 0.959 . S
C577 H584 0.961 . S
C577 H585 0.960 . S
C578 C576 1.381 . S
C578 C579 1.394 . S
C578 H586 0.930 . S
C579 C578 1.394 . S
C579 C580 1.383 . S
C579 H587 0.929 . S
C580 C579 1.383 . S
C580 C581 1.377 . S
C581 H565 0.930 . S
C581 C580 1.377 . S
C581 C582 1.379 . S
C582 H566 0.931 . S
C582 C576 1.383 . S
C582 C581 1.379 . S
H583 C577 0.959 . S
H584 C577 0.961 . S
H585 C577 0.960 . S
H586 C578 0.930 . S
H587 C579 0.929 . S
H588 C596 0.929 . S
H589 C598 0.930 . S
H590 C600 0.930 . S
H591 C603 0.929 . S
H592 C606 0.930 . S
H593 C608 0.960 . S
H594 C608 0.960 . S
H595 C608 0.960 . S
C596 H588 0.929 . S
C596 C597 1.377 . S
C596 C598 1.384 . S
C597 C596 1.377 . S
C597 C603 1.390 . S
C598 H589 0.930 . S
C598 C596 1.384 . S
C598 C599 1.372 . S
C599 C598 1.372 . S
C599 C600 1.400 . S
C599 C604 1.490 . S
C600 H590 0.930 . S
C600 C599 1.400 . S
C600 C603 1.386 . S
H601 C617 0.930 . S
H602 C618 0.931 . S
C603 H591 0.929 . S
C603 C597 1.390 . S
C603 C600 1.386 . S
C604 C599 1.490 . S
C604 C606 1.395 . S
C604 C607 1.403 . S
H605 C611 0.930 . S
C606 H592 0.930 . S
C606 C604 1.395 . S
C606 C609 1.403 . S
C607 C604 1.403 . S
C607 C608 1.524 . S
C607 C611 1.400 . S
C608 H593 0.960 . S
C608 H594 0.960 . S
C608 H595 0.960 . S
C608 C607 1.524 . S
C609 C606 1.403 . S
C609 C610 1.392 . S
C609 C613 1.495 1_556 S
C610 C609 1.392 . S
C610 C611 1.385 . S
C610 C612 1.478 . S
C611 H605 0.930 . S
C611 C607 1.400 . S
C611 C610 1.385 . S
C612 C610 1.478 . S
C612 C614 1.381 . S
C612 C618 1.383 1_556 S
C613 C609 1.495 1_554 S
C613 H619 0.959 . S
C613 H620 0.961 . S
C613 H621 0.960 . S
C614 C612 1.381 . S
C614 C615 1.389 1_556 S
C614 H622 0.930 . S
C615 C614 1.389 1_554 S
C615 C616 1.391 . S
C615 H623 0.927 1_554 S
C616 C615 1.391 . S
C616 C617 1.377 . S
C617 H601 0.930 . S
C617 C616 1.377 . S
C617 C618 1.379 . S
C618 H602 0.931 . S
C618 C612 1.383 1_554 S
C618 C617 1.379 . S
H619 C613 0.959 . S
H620 C613 0.961 . S
H621 C613 0.960 . S
H622 C614 0.930 . S
H623 C615 0.927 1_556 S
H624 C632 0.929 . S
H625 C634 0.930 . S
H626 C636 0.930 . S
H627 C639 0.929 . S
H628 C642 0.930 . S
H629 C644 0.960 . S
H630 C644 0.960 . S
H631 C644 0.960 . S
C632 H624 0.929 . S
C632 C633 1.377 . S
C632 C634 1.384 . S
C633 C632 1.377 . S
C633 C639 1.390 . S
C634 H625 0.930 . S
C634 C632 1.384 . S
C634 C635 1.372 . S
C635 C634 1.372 . S
C635 C636 1.400 . S
C635 C640 1.490 . S
C636 H626 0.930 . S
C636 C635 1.400 . S
C636 C639 1.386 . S
H637 C653 0.930 1_455 S
H638 C654 0.931 . S
C639 H627 0.929 . S
C639 C633 1.390 . S
C639 C636 1.386 . S
C640 C635 1.490 . S
C640 C642 1.395 . S
C640 C643 1.403 . S
H641 C647 0.930 . S
C642 H628 0.930 . S
C642 C640 1.395 . S
C642 C645 1.403 . S
C643 C640 1.403 . S
C643 C644 1.524 . S
C643 C647 1.400 . S
C644 H629 0.960 . S
C644 H630 0.960 . S
C644 H631 0.960 . S
C644 C643 1.524 . S
C645 C642 1.403 . S
C645 C646 1.392 . S
C645 C649 1.495 . S
C646 C645 1.392 . S
C646 C647 1.385 . S
C646 C648 1.478 . S
C647 H641 0.930 . S
C647 C643 1.400 . S
C647 C646 1.385 . S
C648 C646 1.478 . S
C648 C650 1.381 . S
C648 C654 1.383 . S
C649 C645 1.495 . S
C649 H655 0.959 . S
C649 H656 0.961 . S
C649 H657 0.960 . S
C650 C648 1.381 . S
C650 C651 1.394 . S
C650 H658 0.930 . S
C651 C650 1.394 . S
C651 C652 1.383 . S
C651 H659 0.929 . S
C652 C651 1.383 . S
C652 C653 1.377 . S
C653 H637 0.930 1_655 S
C653 C652 1.377 . S
C653 C654 1.379 . S
C654 H638 0.931 . S
C654 C648 1.383 . S
C654 C653 1.379 . S
H655 C649 0.959 . S
H656 C649 0.961 . S
H657 C649 0.960 . S
H658 C650 0.930 . S
H659 C651 0.929 . S
H660 C668 0.929 . S
H661 C670 0.930 . S
H662 C672 0.930 . S
H663 C675 0.929 . S
H664 C678 0.930 . S
H665 C680 0.960 . S
H666 C680 0.960 . S
H667 C680 0.960 . S
C668 H660 0.929 . S
C668 C669 1.377 . S
C668 C670 1.384 . S
C669 C668 1.377 . S
C669 C675 1.390 . S
C670 H661 0.930 . S
C670 C668 1.384 . S
C670 C671 1.372 . S
C671 C670 1.372 . S
C671 C672 1.400 . S
C671 C676 1.490 . S
C672 H662 0.930 . S
C672 C671 1.400 . S
C672 C675 1.386 . S
H673 C689 0.930 . S
H674 C690 0.931 . S
C675 H663 0.929 . S
C675 C669 1.390 . S
C675 C672 1.386 . S
C676 C671 1.490 . S
C676 C678 1.395 . S
C676 C679 1.403 . S
H677 C683 0.930 . S
C678 H664 0.930 . S
C678 C676 1.395 . S
C678 C681 1.403 . S
C679 C676 1.403 . S
C679 C680 1.524 . S
C679 C683 1.400 . S
C680 H665 0.960 . S
C680 H666 0.960 . S
C680 H667 0.960 . S
C680 C679 1.524 . S
C681 C678 1.403 . S
C681 C682 1.392 . S
C681 C685 1.495 . S
C682 C681 1.392 . S
C682 C683 1.385 . S
C682 C684 1.478 . S
C683 H677 0.930 . S
C683 C679 1.400 . S
C683 C682 1.385 . S
C684 C682 1.478 . S
C684 C686 1.381 . S
C684 C690 1.383 . S
C685 C681 1.495 . S
C685 H691 0.959 . S
C685 H692 0.961 . S
C685 H693 0.960 . S
C686 C684 1.381 . S
C686 C687 1.394 . S
C686 H694 0.930 . S
C687 C686 1.394 . S
C687 C688 1.383 . S
C687 H695 0.929 . S
C688 C687 1.383 . S
C688 C689 1.377 . S
C689 H673 0.930 . S
C689 C688 1.377 . S
C689 C690 1.379 . S
C690 H674 0.931 . S
C690 C684 1.383 . S
C690 C689 1.379 . S
H691 C685 0.959 . S
H692 C685 0.961 . S
H693 C685 0.960 . S
H694 C686 0.930 . S
H695 C687 0.929 . S
H696 C704 0.929 . S
H697 C706 0.930 . S
H698 C708 0.930 . S
H699 C711 0.929 . S
H700 C714 0.930 . S
H701 C716 0.960 . S
H702 C716 0.960 . S
H703 C716 0.960 . S
C704 H696 0.929 . S
C704 C705 1.377 . S
C704 C706 1.384 . S
C705 C704 1.377 . S
C705 C711 1.390 . S
C706 H697 0.930 . S
C706 C704 1.384 . S
C706 C707 1.372 . S
C707 C706 1.372 . S
C707 C708 1.400 . S
C707 C712 1.490 . S
C708 H698 0.930 . S
C708 C707 1.400 . S
C708 C711 1.386 . S
H709 C725 0.930 . S
H710 C726 0.931 . S
C711 H699 0.929 . S
C711 C705 1.390 . S
C711 C708 1.386 . S
C712 C707 1.490 . S
C712 C714 1.395 . S
C712 C715 1.403 . S
H713 C719 0.930 . S
C714 H700 0.930 . S
C714 C712 1.395 . S
C714 C717 1.403 . S
C715 C712 1.403 . S
C715 C716 1.524 . S
C715 C719 1.400 . S
C716 H701 0.960 . S
C716 H702 0.960 . S
C716 H703 0.960 . S
C716 C715 1.524 . S
C717 C714 1.403 . S
C717 C718 1.392 . S
C717 C721 1.495 . S
C718 C717 1.392 . S
C718 C719 1.385 . S
C718 C720 1.478 . S
C719 H713 0.930 . S
C719 C715 1.400 . S
C719 C718 1.385 . S
C720 C718 1.478 . S
C720 C722 1.381 . S
C720 C726 1.383 . S
C721 C717 1.495 . S
C721 H727 0.959 . S
C721 H728 0.961 . S
C721 H729 0.960 . S
C722 C720 1.381 . S
C722 C723 1.394 . S
C722 H730 0.930 . S
C723 C722 1.394 . S
C723 C724 1.383 . S
C723 H731 0.929 . S
C724 C723 1.383 . S
C724 C725 1.377 . S
C725 H709 0.930 . S
C725 C724 1.377 . S
C725 C726 1.379 . S
C726 H710 0.931 . S
C726 C720 1.383 . S
C726 C725 1.379 . S
H727 C721 0.959 . S
H728 C721 0.961 . S
H729 C721 0.960 . S
H730 C722 0.930 . S
H731 C723 0.929 . S
H732 C740 0.929 . S
H733 C742 0.930 . S
H734 C744 0.930 . S
H735 C747 0.929 . S
H736 C750 0.930 . S
H737 C752 0.960 . S
H738 C752 0.960 . S
H739 C752 0.960 . S
C740 H732 0.929 . S
C740 C741 1.377 . S
C740 C742 1.384 . S
C741 C740 1.377 . S
C741 C747 1.390 . S
C742 H733 0.930 . S
C742 C740 1.384 . S
C742 C743 1.372 . S
C743 C742 1.372 . S
C743 C744 1.400 . S
C743 C748 1.490 . S
C744 H734 0.930 . S
C744 C743 1.400 . S
C744 C747 1.386 . S
H745 C761 0.930 . S
H746 C762 0.931 . S
C747 H735 0.929 . S
C747 C741 1.390 . S
C747 C744 1.386 . S
C748 C743 1.490 . S
C748 C750 1.395 . S
C748 C751 1.403 . S
H749 C755 0.930 . S
C750 H736 0.930 . S
C750 C748 1.395 . S
C750 C753 1.403 . S
C751 C748 1.403 . S
C751 C752 1.524 . S
C751 C755 1.400 . S
C752 H737 0.960 . S
C752 H738 0.960 . S
C752 H739 0.960 . S
C752 C751 1.524 . S
C753 C750 1.403 . S
C753 C754 1.392 . S
C753 C757 1.495 . S
C754 C753 1.392 . S
C754 C755 1.385 . S
C754 C756 1.478 . S
C755 H749 0.930 . S
C755 C751 1.400 . S
C755 C754 1.385 . S
C756 C754 1.478 . S
C756 C758 1.381 . S
C756 C762 1.383 . S
C757 C753 1.495 . S
C757 H763 0.959 . S
C757 H764 0.961 . S
C757 H765 0.960 . S
C758 C756 1.381 . S
C758 C759 1.394 . S
C758 H766 0.930 . S
C759 C758 1.394 . S
C759 C760 1.383 . S
C759 H767 0.929 . S
C760 C759 1.383 . S
C760 C761 1.377 . S
C761 H745 0.930 . S
C761 C760 1.377 . S
C761 C762 1.379 . S
C762 H746 0.931 . S
C762 C756 1.383 . S
C762 C761 1.379 . S
H763 C757 0.959 . S
H764 C757 0.961 . S
H765 C757 0.960 . S
H766 C758 0.930 . S
H767 C759 0.929 . S
H768 C776 0.929 . S
H769 C778 0.930 . S
H770 C780 0.930 . S
H771 C783 0.929 . S
H772 C786 0.930 . S
H773 C788 0.960 . S
H774 C788 0.960 . S
H775 C788 0.960 . S
C776 H768 0.929 . S
C776 C777 1.377 . S
C776 C778 1.384 . S
C777 C776 1.377 . S
C777 C783 1.390 . S
C778 H769 0.930 . S
C778 C776 1.384 . S
C778 C779 1.372 . S
C779 C778 1.372 . S
C779 C780 1.400 . S
C779 C784 1.490 . S
C780 H770 0.930 . S
C780 C779 1.400 . S
C780 C783 1.386 . S
H781 C797 0.930 . S
H782 C798 0.931 . S
C783 H771 0.929 . S
C783 C777 1.390 . S
C783 C780 1.386 . S
C784 C779 1.490 . S
C784 C786 1.395 . S
C784 C787 1.403 . S
H785 C791 0.930 . S
C786 H772 0.930 . S
C786 C784 1.395 . S
C786 C789 1.403 . S
C787 C784 1.403 . S
C787 C788 1.524 . S
C787 C791 1.400 . S
C788 H773 0.960 . S
C788 H774 0.960 . S
C788 H775 0.960 . S
C788 C787 1.524 . S
C789 C786 1.403 . S
C789 C790 1.392 . S
C789 C793 1.495 . S
C790 C789 1.392 . S
C790 C791 1.385 . S
C790 C792 1.478 . S
C791 H785 0.930 . S
C791 C787 1.400 . S
C791 C790 1.385 . S
C792 C790 1.478 . S
C792 C794 1.381 . S
C792 C798 1.383 . S
C793 C789 1.495 . S
C793 H799 0.959 . S
C793 H800 0.961 . S
C793 H801 0.960 . S
C794 C792 1.381 . S
C794 C795 1.394 . S
C794 H802 0.930 . S
C795 C794 1.394 . S
C795 C796 1.383 . S
C795 H803 0.929 . S
C796 C795 1.383 . S
C796 C797 1.377 . S
C797 H781 0.930 . S
C797 C796 1.377 . S
C797 C798 1.379 . S
C798 H782 0.931 . S
C798 C792 1.383 . S
C798 C797 1.379 . S
H799 C793 0.959 . S
H800 C793 0.961 . S
H801 C793 0.960 . S
H802 C794 0.930 . S
H803 C795 0.929 . S
H804 C812 0.929 . S
H805 C814 0.930 . S
H806 C816 0.930 . S
H807 C819 0.929 . S
H808 C822 0.930 . S
H809 C824 0.960 . S
H810 C824 0.960 . S
H811 C824 0.960 . S
C812 H804 0.929 . S
C812 C813 1.377 . S
C812 C814 1.384 . S
C813 C812 1.377 . S
C813 C819 1.390 . S
C814 H805 0.930 . S
C814 C812 1.384 . S
C814 C815 1.372 . S
C815 C814 1.372 . S
C815 C816 1.400 . S
C815 C820 1.490 . S
C816 H806 0.930 . S
C816 C815 1.400 . S
C816 C819 1.386 . S
H817 C833 0.930 . S
H818 C834 0.931 . S
C819 H807 0.929 . S
C819 C813 1.390 . S
C819 C816 1.386 . S
C820 C815 1.490 . S
C820 C822 1.395 . S
C820 C823 1.403 . S
H821 C827 0.930 . S
C822 H808 0.930 . S
C822 C820 1.395 . S
C822 C825 1.403 . S
C823 C820 1.403 . S
C823 C824 1.524 . S
C823 C827 1.400 . S
C824 H809 0.960 . S
C824 H810 0.960 . S
C824 H811 0.960 . S
C824 C823 1.524 . S
C825 C822 1.403 . S
C825 C826 1.392 . S
C825 C829 1.495 . S
C826 C825 1.392 . S
C826 C827 1.385 . S
C826 C828 1.478 . S
C827 H821 0.930 . S
C827 C823 1.400 . S
C827 C826 1.385 . S
C828 C826 1.478 . S
C828 C830 1.381 . S
C828 C834 1.383 . S
C829 C825 1.495 . S
C829 H835 0.959 . S
C829 H836 0.961 . S
C829 H837 0.960 . S
C830 C828 1.381 . S
C830 C831 1.394 . S
C830 H838 0.930 . S
C831 C830 1.394 . S
C831 C832 1.383 . S
C831 H839 0.929 . S
C832 C831 1.383 . S
C832 C833 1.377 . S
C833 H817 0.930 . S
C833 C832 1.377 . S
C833 C834 1.379 . S
C834 H818 0.931 . S
C834 C828 1.383 . S
C834 C833 1.379 . S
H835 C829 0.959 . S
H836 C829 0.961 . S
H837 C829 0.960 . S
H838 C830 0.930 . S
H839 C831 0.929 . S
H840 C848 0.929 . S
H841 C850 0.930 . S
H842 C852 0.930 . S
H843 C855 0.929 . S
H844 C858 0.930 . S
H845 C860 0.960 1_554 S
H846 C860 0.960 . S
H847 C860 0.960 . S
C848 H840 0.929 . S
C848 C849 1.377 . S
C848 C850 1.384 . S
C849 C848 1.377 . S
C849 C855 1.390 . S
C850 H841 0.930 . S
C850 C848 1.384 . S
C850 C851 1.372 . S
C851 C850 1.372 . S
C851 C852 1.400 . S
C851 C856 1.490 . S
C852 H842 0.930 . S
C852 C851 1.400 . S
C852 C855 1.386 . S
H853 C869 0.930 . S
H854 C870 0.935 . S
C855 H843 0.929 . S
C855 C849 1.390 . S
C855 C852 1.386 . S
C856 C851 1.490 . S
C856 C858 1.395 . S
C856 C859 1.403 . S
H857 C863 0.930 1_554 S
C858 H844 0.930 . S
C858 C856 1.395 . S
C858 C861 1.403 . S
C859 C856 1.403 . S
C859 C860 1.524 . S
C859 C863 1.400 . S
C860 H845 0.960 1_556 S
C860 H846 0.960 . S
C860 H847 0.960 . S
C860 C859 1.524 . S
C861 C858 1.403 . S
C861 C862 1.392 . S
C861 C865 1.495 . S
C862 C861 1.392 . S
C862 C863 1.385 . S
C862 C864 1.478 . S
C863 H857 0.930 1_556 S
C863 C859 1.400 . S
C863 C862 1.385 . S
C864 C862 1.478 . S
C864 C866 1.381 . S
C864 C870 1.388 . S
C865 C861 1.495 . S
C865 H871 0.959 . S
C865 H872 0.961 . S
C865 H873 0.960 . S
C866 C864 1.381 . S
C866 C867 1.394 1_556 S
C866 H874 0.930 . S
C867 C866 1.394 1_554 S
C867 C868 1.383 . S
C867 H875 0.929 1_565 S
C868 C867 1.383 . S
C868 C869 1.377 . S
C869 H853 0.930 . S
C869 C868 1.377 . S
C869 C870 1.371 1_554 S
C870 H854 0.935 . S
C870 C864 1.388 . S
C870 C869 1.371 1_556 S
H871 C865 0.959 . S
H872 C865 0.961 . S
H873 C865 0.960 . S
H874 C866 0.930 . S
H875 C867 0.929 1_545 S
H876 C884 0.929 . S
H877 C886 0.930 . S
H878 C888 0.930 . S
H879 C891 0.929 . S
H880 C894 0.930 . S
H881 C896 0.960 . S
H882 C896 0.960 . S
H883 C896 0.960 . S
C884 H876 0.929 . S
C884 C885 1.377 . S
C884 C886 1.384 . S
C885 C884 1.377 . S
C885 C891 1.390 . S
C886 H877 0.930 . S
C886 C884 1.384 . S
C886 C887 1.372 . S
C887 C886 1.372 . S
C887 C888 1.400 . S
C887 C892 1.490 . S
C888 H878 0.930 . S
C888 C887 1.400 . S
C888 C891 1.386 . S
H889 C905 0.930 . S
H890 C906 0.931 . S
C891 H879 0.929 . S
C891 C885 1.390 . S
C891 C888 1.386 . S
C892 C887 1.490 . S
C892 C894 1.395 . S
C892 C895 1.403 . S
H893 C899 0.930 . S
C894 H880 0.930 . S
C894 C892 1.395 . S
C894 C897 1.403 . S
C895 C892 1.403 . S
C895 C896 1.524 . S
C895 C899 1.400 . S
C896 H881 0.960 . S
C896 H882 0.960 . S
C896 H883 0.960 . S
C896 C895 1.524 . S
C897 C894 1.403 . S
C897 C898 1.392 . S
C897 C901 1.495 . S
C898 C897 1.392 . S
C898 C899 1.385 . S
C898 C900 1.478 . S
C899 H893 0.930 . S
C899 C895 1.400 . S
C899 C898 1.385 . S
C900 C898 1.478 . S
C900 C902 1.381 . S
C900 C906 1.383 . S
C901 C897 1.495 . S
C901 H907 0.959 . S
C901 H908 0.961 . S
C901 H909 0.960 . S
C902 C900 1.381 . S
C902 C903 1.394 . S
C902 H910 0.930 . S
C903 C902 1.394 . S
C903 C904 1.383 . S
C903 H911 0.929 1_655 S
C904 C903 1.383 . S
C904 C905 1.377 . S
C905 H889 0.930 . S
C905 C904 1.377 . S
C905 C906 1.379 . S
C906 H890 0.931 . S
C906 C900 1.383 . S
C906 C905 1.379 . S
H907 C901 0.959 . S
H908 C901 0.961 . S
H909 C901 0.960 . S
H910 C902 0.930 . S
H911 C903 0.929 1_455 S
H912 C920 0.929 . S
H913 C922 0.930 . S
H914 C924 0.930 . S
H915 C927 0.929 . S
H916 C930 0.930 . S
H917 C932 0.960 . S
H918 C932 0.960 . S
H919 C932 0.960 . S
C920 H912 0.929 . S
C920 C921 1.377 . S
C920 C922 1.384 . S
C921 C920 1.377 . S
C921 C927 1.390 . S
C922 H913 0.930 . S
C922 C920 1.384 . S
C922 C923 1.372 . S
C923 C922 1.372 . S
C923 C924 1.400 . S
C923 C928 1.490 . S
C924 H914 0.930 . S
C924 C923 1.400 . S
C924 C927 1.386 . S
H925 C941 0.930 . S
H926 C942 0.931 . S
C927 H915 0.929 . S
C927 C921 1.390 . S
C927 C924 1.386 . S
C928 C923 1.490 . S
C928 C930 1.395 . S
C928 C931 1.403 . S
H929 C935 0.930 . S
C930 H916 0.930 . S
C930 C928 1.395 . S
C930 C933 1.403 . S
C931 C928 1.403 . S
C931 C932 1.524 . S
C931 C935 1.400 . S
C932 H917 0.960 . S
C932 H918 0.960 . S
C932 H919 0.960 . S
C932 C931 1.524 . S
C933 C930 1.403 . S
C933 C934 1.392 . S
C933 C937 1.495 . S
C934 C933 1.392 . S
C934 C935 1.385 . S
C934 C936 1.478 . S
C935 H929 0.930 . S
C935 C931 1.400 . S
C935 C934 1.385 . S
C936 C934 1.478 . S
C936 C938 1.381 . S
C936 C942 1.383 . S
C937 C933 1.495 . S
C937 H943 0.959 . S
C937 H944 0.961 . S
C937 H945 0.960 . S
C938 C936 1.381 . S
C938 C939 1.394 . S
C938 H946 0.930 . S
C939 C938 1.394 . S
C939 C940 1.383 . S
C939 H947 0.948 . S
C940 C939 1.383 . S
C940 C941 1.377 . S
C941 H925 0.930 . S
C941 C940 1.377 . S
C941 C942 1.379 . S
C942 H926 0.931 . S
C942 C936 1.383 . S
C942 C941 1.379 . S
H943 C937 0.959 . S
H944 C937 0.961 . S
H945 C937 0.960 . S
H946 C938 0.930 . S
H947 C939 0.948 . S
H948 C956 0.929 . S
H949 C958 0.930 . S
H950 C960 0.930 . S
H951 C963 0.929 . S
H952 C966 0.930 . S
H953 C968 0.960 . S
H954 C968 0.960 . S
H955 C968 0.960 . S
C956 H948 0.929 . S
C956 C957 1.377 . S
C956 C958 1.384 . S
C957 C956 1.377 . S
C957 C963 1.390 . S
C958 H949 0.930 . S
C958 C956 1.384 . S
C958 C959 1.372 . S
C959 C958 1.372 . S
C959 C960 1.400 . S
C959 C964 1.490 . S
C960 H950 0.930 . S
C960 C959 1.400 . S
C960 C963 1.386 . S
H961 C977 0.930 . S
H962 C978 0.931 . S
C963 H951 0.929 . S
C963 C957 1.390 . S
C963 C960 1.386 . S
C964 C959 1.490 . S
C964 C966 1.395 . S
C964 C967 1.403 . S
H965 C971 0.930 . S
C966 H952 0.930 . S
C966 C964 1.395 . S
C966 C969 1.403 . S
C967 C964 1.403 . S
C967 C968 1.524 . S
C967 C971 1.400 . S
C968 H953 0.960 . S
C968 H954 0.960 . S
C968 H955 0.960 . S
C968 C967 1.524 . S
C969 C966 1.403 . S
C969 C970 1.392 . S
C969 C973 1.495 . S
C970 C969 1.392 . S
C970 C971 1.385 . S
C970 C972 1.478 . S
C971 H965 0.930 . S
C971 C967 1.400 . S
C971 C970 1.385 . S
C972 C970 1.478 . S
C972 C974 1.381 . S
C972 C978 1.383 . S
C973 C969 1.495 . S
C973 H979 0.959 . S
C973 H980 0.961 . S
C973 H981 0.960 . S
C974 C972 1.381 . S
C974 C975 1.394 . S
C974 H982 0.930 . S
C975 C974 1.394 . S
C975 C976 1.383 . S
C975 H983 0.929 . S
C976 C975 1.383 . S
C976 C977 1.377 . S
C977 H961 0.930 . S
C977 C976 1.377 . S
C977 C978 1.379 . S
C978 H962 0.931 . S
C978 C972 1.383 . S
C978 C977 1.379 . S
H979 C973 0.959 . S
H980 C973 0.961 . S
H981 C973 0.960 . S
H982 C974 0.930 . S
H983 C975 0.929 . S
H984 C992 0.929 . S
H985 C994 0.930 . S
H986 C996 0.930 . S
H987 C999 0.929 . S
H988 C1002 0.930 . S
H989 C1004 0.960 . S
H990 C1004 0.960 . S
H991 C1004 0.960 . S
C992 H984 0.929 . S
C992 C993 1.377 . S
C992 C994 1.384 . S
C993 C992 1.377 . S
C993 C999 1.390 . S
C994 H985 0.930 . S
C994 C992 1.384 . S
C994 C995 1.372 . S
C995 C994 1.372 . S
C995 C996 1.400 . S
C995 C1000 1.490 . S
C996 H986 0.930 . S
C996 C995 1.400 . S
C996 C999 1.386 . S
H997 C1013 0.930 . S
H998 C1014 0.931 . S
C999 H987 0.929 . S
C999 C993 1.390 . S
C999 C996 1.386 . S
C1000 C995 1.490 . S
C1000 C1002 1.395 . S
C1000 C1003 1.403 . S
H1001 C1007 0.930 . S
C1002 H988 0.930 . S
C1002 C1000 1.395 . S
C1002 C1005 1.403 . S
C1003 C1000 1.403 . S
C1003 C1004 1.524 . S
C1003 C1007 1.400 . S
C1004 H989 0.960 . S
C1004 H990 0.960 . S
C1004 H991 0.960 . S
C1004 C1003 1.524 . S
C1005 C1002 1.403 . S
C1005 C1006 1.392 . S
C1005 C1009 1.495 . S
C1006 C1005 1.392 . S
C1006 C1007 1.385 . S
C1006 C1008 1.478 . S
C1007 H1001 0.930 . S
C1007 C1003 1.400 . S
C1007 C1006 1.385 . S
C1008 C1006 1.478 . S
C1008 C1010 1.381 . S
C1008 C1014 1.383 . S
C1009 C1005 1.495 . S
C1009 H1015 0.959 . S
C1009 H1016 0.961 . S
C1009 H1017 0.960 . S
C1010 C1008 1.381 . S
C1010 C1011 1.394 . S
C1010 H1018 0.930 . S
C1011 C1010 1.394 . S
C1011 C1012 1.383 . S
C1011 H1019 0.929 . S
C1012 C1011 1.383 . S
C1012 C1013 1.377 . S
C1013 H997 0.930 . S
C1013 C1012 1.377 . S
C1013 C1014 1.379 . S
C1014 H998 0.931 . S
C1014 C1008 1.383 . S
C1014 C1013 1.379 . S
H1015 C1009 0.959 . S
H1016 C1009 0.961 . S
H1017 C1009 0.960 . S
H1018 C1010 0.930 . S
H1019 C1011 0.929 . S
H1020 C1028 0.929 . S
H1021 C1030 0.930 . S
H1022 C1032 0.930 . S
H1023 C1035 0.929 . S
H1024 C1038 0.930 . S
H1025 C1040 0.960 . S
H1026 C1040 0.960 . S
H1027 C1040 0.960 . S
C1028 H1020 0.929 . S
C1028 C1029 1.377 . S
C1028 C1030 1.384 . S
C1029 C1028 1.377 . S
C1029 C1035 1.390 . S
C1030 H1021 0.930 . S
C1030 C1028 1.384 . S
C1030 C1031 1.372 . S
C1031 C1030 1.372 . S
C1031 C1032 1.400 . S
C1031 C1036 1.490 . S
C1032 H1022 0.930 . S
C1032 C1031 1.400 . S
C1032 C1035 1.386 . S
H1033 C1049 0.930 . S
H1034 C1050 0.931 . S
C1035 H1023 0.929 . S
C1035 C1029 1.390 . S
C1035 C1032 1.386 . S
C1036 C1031 1.490 . S
C1036 C1038 1.395 . S
C1036 C1039 1.403 . S
H1037 C1043 0.930 . S
C1038 H1024 0.930 . S
C1038 C1036 1.395 . S
C1038 C1041 1.403 . S
C1039 C1036 1.403 . S
C1039 C1040 1.524 . S
C1039 C1043 1.400 . S
C1040 H1025 0.960 . S
C1040 H1026 0.960 . S
C1040 H1027 0.960 . S
C1040 C1039 1.524 . S
C1041 C1038 1.403 . S
C1041 C1042 1.392 . S
C1041 C1045 1.495 . S
C1042 C1041 1.392 . S
C1042 C1043 1.385 . S
C1042 C1044 1.478 . S
C1043 H1037 0.930 . S
C1043 C1039 1.400 . S
C1043 C1042 1.385 . S
C1044 C1042 1.478 . S
C1044 C1046 1.381 . S
C1044 C1050 1.383 . S
C1045 C1041 1.495 . S
C1045 H1051 0.959 . S
C1045 H1052 0.961 . S
C1045 H1053 0.960 . S
C1046 C1044 1.381 . S
C1046 C1047 1.394 . S
C1046 H1054 0.930 . S
C1047 C1046 1.394 . S
C1047 C1048 1.383 . S
C1047 H1055 0.929 . S
C1048 C1047 1.383 . S
C1048 C1049 1.377 . S
C1049 H1033 0.930 . S
C1049 C1048 1.377 . S
C1049 C1050 1.379 . S
C1050 H1034 0.931 . S
C1050 C1044 1.383 . S
C1050 C1049 1.379 . S
H1051 C1045 0.959 . S
H1052 C1045 0.961 . S
H1053 C1045 0.960 . S
H1054 C1046 0.930 . S
H1055 C1047 0.929 . S
H1056 C1064 0.929 . S
H1057 C1066 0.930 . S
H1058 C1068 0.930 . S
H1059 C1071 0.929 . S
H1060 C1074 0.930 . S
H1061 C1076 0.960 . S
H1062 C1076 0.960 . S
H1063 C1076 0.960 . S
C1064 H1056 0.929 . S
C1064 C1065 1.377 . S
C1064 C1066 1.384 . S
C1065 C1064 1.377 . S
C1065 C1071 1.390 . S
C1066 H1057 0.930 . S
C1066 C1064 1.384 . S
C1066 C1067 1.372 . S
C1067 C1066 1.372 . S
C1067 C1068 1.400 . S
C1067 C1072 1.490 . S
C1068 H1058 0.930 . S
C1068 C1067 1.400 . S
C1068 C1071 1.386 . S
H1069 C1085 0.930 . S
H1070 C1086 0.931 . S
C1071 H1059 0.929 . S
C1071 C1065 1.390 . S
C1071 C1068 1.386 . S
C1072 C1067 1.490 . S
C1072 C1074 1.395 . S
C1072 C1075 1.403 . S
H1073 C1079 0.930 . S
C1074 H1060 0.930 . S
C1074 C1072 1.395 . S
C1074 C1077 1.403 . S
C1075 C1072 1.403 . S
C1075 C1076 1.524 . S
C1075 C1079 1.400 . S
C1076 H1061 0.960 . S
C1076 H1062 0.960 . S
C1076 H1063 0.960 . S
C1076 C1075 1.524 . S
C1077 C1074 1.403 . S
C1077 C1078 1.392 . S
C1077 C1081 1.495 . S
C1078 C1077 1.392 . S
C1078 C1079 1.385 . S
C1078 C1080 1.478 . S
C1079 H1073 0.930 . S
C1079 C1075 1.400 . S
C1079 C1078 1.385 . S
C1080 C1078 1.478 . S
C1080 C1082 1.381 . S
C1080 C1086 1.383 . S
C1081 C1077 1.495 . S
C1081 H1087 0.959 . S
C1081 H1088 0.961 . S
C1081 H1089 0.960 . S
C1082 C1080 1.381 . S
C1082 C1083 1.394 . S
C1082 H1090 0.930 . S
C1083 C1082 1.394 . S
C1083 C1084 1.383 . S
C1083 H1091 0.929 . S
C1084 C1083 1.383 . S
C1084 C1085 1.377 . S
C1085 H1069 0.930 . S
C1085 C1084 1.377 . S
C1085 C1086 1.379 . S
C1086 H1070 0.931 . S
C1086 C1080 1.383 . S
C1086 C1085 1.379 . S
H1087 C1081 0.959 . S
H1088 C1081 0.961 . S
H1089 C1081 0.960 . S
H1090 C1082 0.930 . S
H1091 C1083 0.929 . S
H1092 C1100 0.929 . S
H1093 C1102 0.930 . S
H1094 C1104 0.930 . S
H1095 C1107 0.929 . S
H1096 C1110 0.930 . S
H1097 C1112 0.960 . S
H1098 C1112 0.960 . S
H1099 C1112 0.960 . S
C1100 H1092 0.929 . S
C1100 C1101 1.377 . S
C1100 C1102 1.384 . S
C1101 C1100 1.377 . S
C1101 C1107 1.390 . S
C1102 H1093 0.930 . S
C1102 C1100 1.384 . S
C1102 C1103 1.372 . S
C1103 C1102 1.372 . S
C1103 C1104 1.400 . S
C1103 C1108 1.490 . S
C1104 H1094 0.930 . S
C1104 C1103 1.400 . S
C1104 C1107 1.386 . S
H1105 C1121 0.930 . S
H1106 C1122 0.931 . S
C1107 H1095 0.929 . S
C1107 C1101 1.390 . S
C1107 C1104 1.386 . S
C1108 C1103 1.490 . S
C1108 C1110 1.395 . S
C1108 C1111 1.403 . S
H1109 C1115 0.930 . S
C1110 H1096 0.930 . S
C1110 C1108 1.395 . S
C1110 C1113 1.403 . S
C1111 C1108 1.403 . S
C1111 C1112 1.524 . S
C1111 C1115 1.400 . S
C1112 H1097 0.960 . S
C1112 H1098 0.960 . S
C1112 H1099 0.960 . S
C1112 C1111 1.524 . S
C1113 C1110 1.403 . S
C1113 C1114 1.392 . S
C1113 C1117 1.495 . S
C1114 C1113 1.392 . S
C1114 C1115 1.385 . S
C1114 C1116 1.478 . S
C1115 H1109 0.930 . S
C1115 C1111 1.400 . S
C1115 C1114 1.385 . S
C1116 C1114 1.478 . S
C1116 C1118 1.381 . S
C1116 C1122 1.383 . S
C1117 C1113 1.495 . S
C1117 H1123 0.959 . S
C1117 H1124 0.961 . S
C1117 H1125 0.960 . S
C1118 C1116 1.381 . S
C1118 C1119 1.394 . S
C1118 H1126 0.930 . S
C1119 C1118 1.394 . S
C1119 C1120 1.383 . S
C1119 H1127 0.929 . S
C1120 C1119 1.383 . S
C1120 C1121 1.377 . S
C1121 H1105 0.930 . S
C1121 C1120 1.377 . S
C1121 C1122 1.379 . S
C1122 H1106 0.931 . S
C1122 C1116 1.383 . S
C1122 C1121 1.379 . S
H1123 C1117 0.959 . S
H1124 C1117 0.961 . S
H1125 C1117 0.960 . S
H1126 C1118 0.930 . S
H1127 C1119 0.929 . S
C273 N1 0.707 . S
C292 C108 0.708 . S
C309 N18 1.262 . S
C328 C169 1.315 . S
C364 C207 1.973 . S
C345 N28 2.025 . S
C381 N40 2.547 . S
C400 C247 2.555 . S
C436 C167 1.563 . S
C417 N5 1.616 . S
C472 C135 1.810 . S
C453 N14 1.735 . S
C508 C244 1.715 . S
C489 N31 1.724 . S
C544 C204 1.497 . S
C525 N41 1.501 . S
C561 N2 0.817 . S
C580 C249 0.800 . S
C616 C164 2.603 . S
C597 N27 2.586 . S
C633 N44 2.347 . S
C652 C106 2.374 1_655 S
C669 N15 1.050 . S
C688 C209 1.056 . S
C724 C129 1.340 . S
C705 N57 1.348 . S
C741 N70 0.848 . S
C760 C148 0.879 . S
C777 N79 2.330 . S
C796 C186 2.334 . S
C813 N93 2.207 . S
C832 C226 2.184 . S
C849 N54 1.084 . S
C868 C146 1.110 . S
C904 C124 2.492 1_655 S
C885 N66 2.479 . S
C940 C255 1.112 . S
C921 N80 1.107 . S
C976 C215 1.830 . S
C957 N96 1.828 . S
C993 N53 0.978 . S
C1012 C228 0.964 . S
C1048 C175 2.050 . S
C1029 N83 2.000 . S
C1084 C127 2.374 . S
C1065 N92 2.429 . S
C1101 N67 1.234 . S
C1120 C188 1.237 . S
