# Generated by pormake.
# Topology pyr, (3,6)-cn, num edge types: 1
# Building blocks:
#     Node 0, Type 0, BuildingBlock: VETTIZ_charged_linker_0, # of connection points: 3
#     Node 1, Type 0, BuildingBlock: VETTIZ_charged_linker_0, # of connection points: 3
#     Node 2, Type 0, BuildingBlock: VETTIZ_charged_linker_0, # of connection points: 3
#     Node 3, Type 0, BuildingBlock: VETTIZ_charged_linker_0, # of connection points: 3
#     Node 4, Type 0, BuildingBlock: VETTIZ_charged_linker_0, # of connection points: 3
#     Node 5, Type 0, BuildingBlock: VETTIZ_charged_linker_0, # of connection points: 3
#     Node 6, Type 0, BuildingBlock: VETTIZ_charged_linker_0, # of connection points: 3
#     Node 7, Type 0, BuildingBlock: VETTIZ_charged_linker_0, # of connection points: 3
#     Node 8, Type 1, BuildingBlock: BETDIP_clean_sbu_0, # of connection points: 6
#     Node 9, Type 1, BuildingBlock: BETDIP_clean_sbu_0, # of connection points: 6
#     Node 10, Type 1, BuildingBlock: BETDIP_clean_sbu_0, # of connection points: 6
#     Node 11, Type 1, BuildingBlock: BETDIP_clean_sbu_0, # of connection points: 6
#     Edge 12, Type (0, 1), None
#     Edge 13, Type (0, 1), None
#     Edge 14, Type (0, 1), None
#     Edge 15, Type (0, 1), None
#     Edge 16, Type (0, 1), None
#     Edge 17, Type (0, 1), None
#     Edge 18, Type (0, 1), None
#     Edge 19, Type (0, 1), None
#     Edge 20, Type (0, 1), None
#     Edge 21, Type (0, 1), None
#     Edge 22, Type (0, 1), None
#     Edge 23, Type (0, 1), None
#     Edge 24, Type (0, 1), None
#     Edge 25, Type (0, 1), None
#     Edge 26, Type (0, 1), None
#     Edge 27, Type (0, 1), None
#     Edge 28, Type (0, 1), None
#     Edge 29, Type (0, 1), None
#     Edge 30, Type (0, 1), None
#     Edge 31, Type (0, 1), None
#     Edge 32, Type (0, 1), None
#     Edge 33, Type (0, 1), None
#     Edge 34, Type (0, 1), None
#     Edge 35, Type (0, 1), None
# Relax obj value: 0.244
# Max RMSD: 0.222
# Mean RMSD: 0.105
data_MOF--net-pyr--node1-BETDIP_clean_sbu_0--node2-VETTIZ_charged_linker_0--edge1-none
_symmetry_space_group_name_H-M    P1
_symmetry_Int_Tables_number       1
_symmetry_cell_setting            triclinic
loop_
_symmetry_equiv_pos_as_xyz
'x, y, z'
_cell_length_a     24.427895
_cell_length_b     25.467791
_cell_length_c     23.799007
_cell_angle_alpha  88.848216
_cell_angle_beta   93.127816
_cell_angle_gamma 104.91072
loop_
_atom_site_label
_atom_site_type_symbol
_atom_site_fract_x
_atom_site_fract_y
_atom_site_fract_z
_atom_type_partial_charge
C0 C 0.42405 0.26066 0.52989 0.0
C1 C 0.38084 0.27397 0.55922 0.0
C2 C 0.37342 0.32688 0.55294 0.0
C3 C 0.43084 0.34059 0.47188 0.0
C4 C 0.44726 0.2937 0.48471 0.0
C5 C 0.4796 0.27795 0.4383 0.0
H6 H 0.47119 0.23484 0.17031 0.0
C7 C 0.44204 0.35468 0.41255 0.0
C8 C 0.47326 0.31992 0.39301 0.0
H9 H 0.58565 0.19044 0.29628 0.0
H10 H 0.57106 0.26128 0.35882 0.0
H11 H 0.51882 0.36929 0.19784 0.0
H12 H 0.37638 0.24016 0.24375 0.0
H13 H 0.35073 0.29728 0.22852 0.0
H14 H 0.38286 0.26923 0.17431 0.0
H15 H 0.45858 0.34427 0.15026 0.0
H16 H 0.46066 0.39786 0.19965 0.0
C17 C 0.54196 0.28409 0.45978 0.0
C18 C 0.44983 0.21913 0.41949 0.0
C19 C 0.30038 0.44254 0.31172 0.0
C20 C 0.27467 0.43503 0.25728 0.0
C21 C 0.30249 0.41501 0.21532 0.0
C22 C 0.35188 0.39794 0.22905 0.0
C23 C 0.372 0.39845 0.28565 0.0
C24 C 0.3467 0.42132 0.32564 0.0
C25 C 0.36787 0.41235 0.38447 0.0
C26 C 0.41199 0.38145 0.37335 0.0
C27 C 0.41394 0.37344 0.31528 0.0
C28 C 0.39561 0.46852 0.41058 0.0
C29 C 0.31674 0.37797 0.41711 0.0
C30 C 0.4934 0.24037 0.21131 0.0
C31 C 0.52779 0.20626 0.22959 0.0
C32 C 0.55777 0.21549 0.28223 0.0
C33 C 0.54814 0.25462 0.31879 0.0
C34 C 0.5068 0.28216 0.30281 0.0
C35 C 0.4842 0.27868 0.24835 0.0
C36 C 0.44533 0.31535 0.2378 0.0
C37 C 0.44684 0.33966 0.29588 0.0
C38 C 0.48028 0.31723 0.3344 0.0
C39 C 0.47166 0.35889 0.19382 0.0
C40 C 0.38569 0.27916 0.21979 0.0
H41 H 0.39128 0.39994 0.5049 0.0
H42 H 0.43345 0.22172 0.53687 0.0
H43 H 0.40434 0.21529 0.4074 0.0
H44 H 0.46938 0.20628 0.3833 0.0
H45 H 0.45246 0.18946 0.45369 0.0
H46 H 0.57069 0.32158 0.44291 0.0
H47 H 0.54692 0.28612 0.50646 0.0
H48 H 0.55743 0.24859 0.44845 0.0
H49 H 0.28157 0.45976 0.34463 0.0
H50 H 0.28433 0.40922 0.17268 0.0
H51 H 0.36994 0.38125 0.19577 0.0
H52 H 0.42327 0.4954 0.38034 0.0
H53 H 0.3626 0.48868 0.42202 0.0
H54 H 0.42312 0.46577 0.44823 0.0
H55 H 0.27531 0.3712 0.39299 0.0
H56 H 0.32105 0.33639 0.42679 0.0
H57 H 0.31095 0.39811 0.45645 0.0
H58 H 0.34265 0.3399 0.57653 0.0
C59 C 0.39969 0.36086 0.50996 0.0
C60 C 0.05383 0.90793 0.70097 0.0
C61 C 0.0135 0.93452 0.71676 0.0
C62 C 0.98245 0.9168 0.76456 0.0
C63 C 0.04415 0.85804 0.78866 0.0
C64 C 0.06826 0.8694 0.73735 0.0
C65 C 0.11435 0.84122 0.72997 0.0
H66 H 0.32361 0.74997 0.85248 0.0
C67 C 0.0776 0.82706 0.82257 0.0
C68 C 0.11694 0.81456 0.78758 0.0
H69 H 0.2846 0.76561 0.67437 0.0
H70 H 0.19422 0.78092 0.6945 0.0
H71 H 0.30198 0.82642 0.90425 0.0
H72 H 0.19148 0.67735 0.87353 0.0
H73 H 0.17345 0.6975 0.93872 0.0
H74 H 0.24638 0.6982 0.92774 0.0
H75 H 0.27222 0.79007 0.96402 0.0
H76 H 0.24352 0.84319 0.93288 0.0
C77 C 0.16969 0.88528 0.71856 0.0
C78 C 0.09479 0.79886 0.68221 0.0
C79 C 0.10973 0.86842 1.02827 0.0
C80 C 0.1581 0.86578 1.062 0.0
C81 C 0.18155 0.82133 1.05505 0.0
C82 C 0.16616 0.7888 1.00729 0.0
C83 C 0.1293 0.80271 0.9659 0.0
C84 C 0.09733 0.83794 0.97857 0.0
C85 C 0.06189 0.84902 0.92794 0.0
C86 C 0.0845 0.82105 0.88182 0.0
C87 C 0.12502 0.79505 0.90457 0.0
C88 C 0.074 0.91155 0.91961 0.0
C89 C 0.99923 0.82044 0.93706 0.0
C90 C 0.29578 0.75698 0.81773 0.0
C91 C 0.31222 0.75871 0.76194 0.0
C92 C 0.27398 0.76637 0.71789 0.0
C93 C 0.22152 0.77505 0.72948 0.0
C94 C 0.20777 0.77756 0.78559 0.0
C95 C 0.24343 0.76644 0.8285 0.0
C96 C 0.21901 0.76562 0.88519 0.0
C97 C 0.16383 0.78109 0.86902 0.0
C98 C 0.15865 0.78944 0.81072 0.0
C99 C 0.26096 0.80827 0.92369 0.0
C100 C 0.20719 0.70673 0.90817 0.0
H101 H 0.97486 0.86782 0.83831 0.0
H102 H 0.07624 0.91966 0.66279 0.0
H103 H 0.04852 0.79077 0.67122 0.0
H104 H 0.10165 0.75873 0.6947 0.0
H105 H 0.11718 0.81288 0.64311 0.0
H106 H 0.1777 0.91791 0.75067 0.0
H107 H 0.16673 0.90422 0.67644 0.0
H108 H 0.20776 0.86976 0.71989 0.0
H109 H 0.08884 0.90019 1.03529 0.0
H110 H 0.21715 0.81612 1.0817 0.0
H111 H 0.1877 0.75781 1.00164 0.0
H112 H 0.1205 0.93036 0.92107 0.0
H113 H 0.05523 0.9301 0.95302 0.0
H114 H 0.05722 0.92448 0.87965 0.0
H115 H 0.99596 0.78272 0.96235 0.0
H116 H 0.97481 0.8059 0.89747 0.0
H117 H 0.97824 0.84746 0.95895 0.0
H118 H 0.95023 0.93619 0.77648 0.0
C119 C 0.99717 0.87768 0.80044 0.0
C120 C 0.59032 0.22012 1.02329 0.0
C121 C 0.53237 0.19479 1.01797 0.0
C122 C 0.49818 0.21975 0.98163 0.0
C123 C 0.57952 0.29562 0.96074 0.0
C124 C 0.61219 0.27076 0.99667 0.0
C125 C 0.66802 0.30876 1.01309 0.0
H126 H 0.85538 0.55324 1.01716 0.0
C127 C 0.61456 0.3522 0.94682 0.0
C128 C 0.66491 0.35984 0.98111 0.0
H129 H 0.85182 0.41377 1.12429 0.0
H130 H 0.77311 0.36155 1.06956 0.0
H131 H 0.71517 0.54202 1.01127 0.0
H132 H 0.82554 0.4882 0.90406 0.0
H133 H 0.76815 0.49632 0.86004 0.0
H134 H 0.8137 0.55457 0.89597 0.0
H135 H 0.77248 0.58515 0.97472 0.0
H136 H 0.7032 0.56088 0.94054 0.0
C137 C 0.6705 0.31613 1.07818 0.0
C138 C 0.71512 0.28623 0.98938 0.0
C139 C 0.56296 0.47539 0.7846 0.0
C140 C 0.59337 0.52653 0.76249 0.0
C141 C 0.6469 0.55109 0.78863 0.0
C142 C 0.66965 0.52703 0.83477 0.0
C143 C 0.63932 0.47698 0.85657 0.0
C144 C 0.58699 0.45118 0.83156 0.0
C145 C 0.56167 0.39789 0.86263 0.0
C146 C 0.60904 0.39471 0.90709 0.0
C147 C 0.65379 0.44269 0.9039 0.0
C148 C 0.50788 0.4033 0.89038 0.0
C149 C 0.54937 0.3502 0.82119 0.0
C150 C 0.83572 0.51218 1.03031 0.0
C151 C 0.85815 0.48872 1.07777 0.0
C152 C 0.83375 0.43386 1.09032 0.0
C153 C 0.78696 0.40355 1.05865 0.0
C154 C 0.76129 0.42851 1.01516 0.0
C155 C 0.78635 0.48156 1.00044 0.0
C156 C 0.75366 0.49986 0.95109 0.0
C157 C 0.70281 0.4505 0.94188 0.0
C158 C 0.70816 0.40908 0.97962 0.0
C159 C 0.735 0.54986 0.96992 0.0
C160 C 0.79205 0.51071 0.90008 0.0
H161 H 0.49327 0.28639 0.92617 0.0
H162 H 0.61694 0.20429 1.05336 0.0
H163 H 0.7065 0.27833 0.94351 0.0
H164 H 0.75773 0.31446 0.99365 0.0
H165 H 0.71693 0.24744 1.00922 0.0
H166 H 0.62796 0.30311 1.09617 0.0
H167 H 0.69721 0.29193 1.09989 0.0
H168 H 0.68548 0.35923 1.09093 0.0
H169 H 0.52155 0.45516 0.76627 0.0
H170 H 0.67168 0.5899 0.77353 0.0
H171 H 0.71039 0.54879 0.85204 0.0
H172 H 0.51677 0.44187 0.91438 0.0
H173 H 0.47334 0.40352 0.85805 0.0
H174 H 0.49232 0.37012 0.92056 0.0
H175 H 0.58861 0.34893 0.80028 0.0
H176 H 0.53357 0.31079 0.84277 0.0
H177 H 0.51687 0.35448 0.7881 0.0
H178 H 0.45285 0.20195 0.97742 0.0
C179 C 0.5215 0.26909 0.95224 0.0
C180 C 0.99037 0.92752 0.48645 0.0
C181 C 0.9697 0.95956 0.52432 0.0
C182 C 0.91298 0.94217 0.53827 0.0
C183 C 0.90049 0.85884 0.48535 0.0
C184 C 0.95428 0.87788 0.4661 0.0
C185 C 0.96561 0.83963 0.42218 0.0
H186 H 0.87904 0.58759 0.29471 0.0
C187 C 0.87583 0.80346 0.46281 0.0
C188 C 0.91284 0.79156 0.42447 0.0
H189 H 0.0179 0.72138 0.24901 0.0
H190 H 0.99803 0.77607 0.32424 0.0
H191 H 0.89499 0.59478 0.42207 0.0
H192 H 0.78883 0.66547 0.31126 0.0
H193 H 0.74997 0.63188 0.36807 0.0
H194 H 0.78136 0.59397 0.32225 0.0
H195 H 0.82282 0.55935 0.40445 0.0
H196 H 0.84093 0.60424 0.46389 0.0
C197 C 0.02029 0.82272 0.43996 0.0
C198 C 0.96847 0.8691 0.36461 0.0
C199 C 0.70019 0.68968 0.55228 0.0
C200 C 0.66948 0.63505 0.54782 0.0
C201 C 0.68808 0.60098 0.51125 0.0
C202 C 0.73561 0.62142 0.47879 0.0
C203 C 0.76506 0.67665 0.48295 0.0
C204 C 0.74755 0.7093 0.52009 0.0
C205 C 0.78484 0.76611 0.52169 0.0
C206 C 0.8277 0.76267 0.47885 0.0
C207 C 0.81582 0.71041 0.4557 0.0
C208 C 0.81219 0.77599 0.5822 0.0
C209 C 0.74835 0.80565 0.50255 0.0
C210 C 0.90498 0.6287 0.30081 0.0
C211 C 0.95008 0.65011 0.2656 0.0
C212 C 0.98262 0.70403 0.27507 0.0
C213 C 0.97081 0.73595 0.31852 0.0
C214 C 0.9247 0.71468 0.35242 0.0
C215 C 0.89248 0.66178 0.34296 0.0
C216 C 0.84344 0.6465 0.38115 0.0
C217 C 0.85081 0.69884 0.41404 0.0
C218 C 0.89897 0.73907 0.39785 0.0
C219 C 0.85057 0.59863 0.41978 0.0
C220 C 0.7877 0.63345 0.34399 0.0
H221 H 0.83619 0.88087 0.53368 0.0
H222 H 0.03356 0.94073 0.47339 0.0
H223 H 0.93645 0.89328 0.36032 0.0
H224 H 0.95846 0.84077 0.32887 0.0
H225 H 0.01095 0.89742 0.35979 0.0
H226 H 0.01837 0.80717 0.48401 0.0
H227 H 0.05805 0.85787 0.43764 0.0
H228 H 0.02668 0.79006 0.41328 0.0
H229 H 0.68758 0.71708 0.58016 0.0
H230 H 0.66535 0.55875 0.50704 0.0
H231 H 0.7475 0.59362 0.45151 0.0
H232 H 0.82848 0.74083 0.59691 0.0
H233 H 0.78061 0.78104 0.61213 0.0
H234 H 0.84888 0.81161 0.58592 0.0
H235 H 0.70907 0.78458 0.47793 0.0
H236 H 0.77085 0.83781 0.47375 0.0
H237 H 0.73515 0.82494 0.53917 0.0
H238 H 0.89635 0.96592 0.56649 0.0
C239 C 0.87845 0.89221 0.51945 0.0
C240 C 0.71001 0.74695 1.03843 0.0
C241 C 0.74329 0.71551 1.01596 0.0
C242 C 0.72493 0.6875 0.96507 0.0
C243 C 0.64992 0.73209 0.95334 0.0
C244 C 0.66192 0.7534 1.00647 0.0
C245 C 0.61922 0.78399 1.0211 0.0
H246 H 0.4887 0.96597 0.93943 0.0
C247 C 0.60822 0.7559 0.92425 0.0
C248 C 0.58468 0.78165 0.96454 0.0
H249 H 0.48503 0.88877 1.10284 0.0
H250 H 0.5094 0.81096 1.06094 0.0
H251 H 0.42769 0.83495 0.87872 0.0
H252 H 0.55993 0.96699 0.87915 0.0
H253 H 0.60403 0.92516 0.86017 0.0
H254 H 0.54725 0.93588 0.81308 0.0
H255 H 0.44375 0.90001 0.84373 0.0
H256 H 0.45868 0.84148 0.81281 0.0
C257 C 0.58399 0.75342 1.06954 0.0
C258 C 0.65098 0.84279 1.03726 0.0
C259 C 0.67067 0.83574 0.7361 0.0
C260 C 0.65329 0.87472 0.70169 0.0
C261 C 0.59817 0.88147 0.70752 0.0
C262 C 0.56597 0.85726 0.75267 0.0
C263 C 0.5892 0.82663 0.79224 0.0
C264 C 0.63805 0.81222 0.78101 0.0
C265 C 0.65485 0.7766 0.82622 0.0
C266 C 0.60772 0.77319 0.86729 0.0
C267 C 0.57243 0.80662 0.84888 0.0
C268 C 0.65483 0.72117 0.80043 0.0
C269 C 0.71409 0.80664 0.85209 0.0
C270 C 0.49401 0.93257 0.96621 0.0
C271 C 0.48769 0.93406 1.02441 0.0
C272 C 0.49139 0.88888 1.05812 0.0
C273 C 0.50785 0.84547 1.03503 0.0
C274 C 0.52242 0.84879 0.97883 0.0
C275 C 0.51067 0.88873 0.944 0.0
C276 C 0.51845 0.87811 0.88316 0.0
C277 C 0.5434 0.82868 0.88903 0.0
C278 C 0.54749 0.8138 0.94612 0.0
C279 C 0.45909 0.86307 0.85261 0.0
C280 C 0.55958 0.92879 0.85743 0.0
H281 H 0.66223 0.67129 0.89676 0.0
H282 H 0.72209 0.76691 1.07862 0.0
H283 H 0.67678 0.86333 1.00219 0.0
H284 H 0.62129 0.86717 1.0472 0.0
H285 H 0.67971 0.84321 1.07516 0.0
H286 H 0.60539 0.72515 1.09249 0.0
H287 H 0.57798 0.78179 1.10203 0.0
H288 H 0.54182 0.72877 1.05346 0.0
H289 H 0.71144 0.82741 0.73215 0.0
H290 H 0.5813 0.90804 0.67938 0.0
H291 H 0.52504 0.8645 0.75651 0.0
H292 H 0.65671 0.72322 0.75384 0.0
H293 H 0.69262 0.70739 0.81561 0.0
H294 H 0.61597 0.68935 0.81033 0.0
H295 H 0.71297 0.84644 0.86975 0.0
H296 H 0.72965 0.78318 0.88595 0.0
H297 H 0.7467 0.81408 0.82014 0.0
H298 H 0.74976 0.66316 0.94718 0.0
C299 C 0.67676 0.69415 0.93457 0.0
C300 C 0.97295 0.24742 0.54844 0.0
C301 C 0.01099 0.21829 0.53224 0.0
C302 C 0.04113 0.23372 0.48337 0.0
C303 C 0.98268 0.2954 0.45975 0.0
C304 C 0.95992 0.28648 0.51177 0.0
C305 C 0.91729 0.31867 0.51985 0.0
H306 H 0.71059 0.41498 0.40184 0.0
C307 C 0.9509 0.32768 0.42594 0.0
C308 C 0.91475 0.34446 0.46162 0.0
H309 H 0.75781 0.40587 0.57896 0.0
H310 H 0.84664 0.38895 0.55563 0.0
H311 H 0.72609 0.33762 0.35215 0.0
H312 H 0.85145 0.48259 0.37033 0.0
H313 H 0.85408 0.45602 0.30303 0.0
H314 H 0.78762 0.46452 0.32572 0.0
H315 H 0.75456 0.3695 0.2898 0.0
H316 H 0.78034 0.31506 0.32243 0.0
C317 C 0.86033 0.27819 0.53366 0.0
C318 C 0.94119 0.36154 0.56638 0.0
C319 C 0.90373 0.27079 0.22514 0.0
C320 C 0.85561 0.27466 0.1919 0.0
C321 C 0.83494 0.32106 0.19735 0.0
C322 C 0.85459 0.35654 0.2424 0.0
C323 C 0.8918 0.34302 0.28368 0.0
C324 C 0.91943 0.30367 0.2728 0.0
C325 C 0.95524 0.29272 0.3229 0.0
C326 C 0.94087 0.32953 0.36674 0.0
C327 C 0.9012 0.3566 0.34385 0.0
C328 C 0.93438 0.2316 0.33882 0.0
C329 C 0.01845 0.30979 0.30842 0.0
C330 C 0.73997 0.40937 0.43576 0.0
C331 C 0.72568 0.40908 0.49231 0.0
C332 C 0.76626 0.4035 0.535 0.0
C333 C 0.81782 0.39376 0.52158 0.0
C334 C 0.82843 0.38801 0.46507 0.0
C335 C 0.79152 0.39869 0.42316 0.0
C336 C 0.81247 0.3947 0.36544 0.0
C337 C 0.86645 0.37625 0.38008 0.0
C338 C 0.87446 0.37145 0.43867 0.0
C339 C 0.76642 0.35228 0.33048 0.0
C340 C 0.8269 0.45238 0.33924 0.0
H341 H 0.04962 0.28259 0.40904 0.0
H342 H 0.9516 0.23773 0.58749 0.0
H343 H 0.98682 0.36523 0.57775 0.0
H344 H 0.93904 0.40286 0.55246 0.0
H345 H 0.91804 0.351 0.60564 0.0
H346 H 0.84802 0.2456 0.50147 0.0
H347 H 0.86377 0.25872 0.57542 0.0
H348 H 0.82477 0.29715 0.53486 0.0
H349 H 0.92247 0.23726 0.21933 0.0
H350 H 0.79914 0.32663 0.17126 0.0
H351 H 0.83625 0.39007 0.24641 0.0
H352 H 0.88808 0.22052 0.3455 0.0
H353 H 0.94236 0.20528 0.30525 0.0
H354 H 0.95571 0.22022 0.3772 0.0
H355 H 0.02488 0.3308 0.26695 0.0
H356 H 0.04417 0.33872 0.33976 0.0
H357 H 0.03658 0.2741 0.3067 0.0
H358 H 0.07195 0.21269 0.47129 0.0
C359 C 0.02758 0.2732 0.44713 0.0
C360 C 0.45989 0.67323 0.47076 0.0
C361 C 0.4304 0.62268 0.49469 0.0
C362 C 0.37682 0.59675 0.46926 0.0
C363 C 0.38301 0.66802 0.39825 0.0
C364 C 0.43505 0.69542 0.42287 0.0
C365 C 0.45909 0.74819 0.39061 0.0
H366 H 0.39828 0.93707 0.19759 0.0
C367 C 0.36715 0.70089 0.35028 0.0
C368 C 0.41094 0.74966 0.3465 0.0
H369 H 0.56391 0.94241 0.27153 0.0
H370 H 0.52525 0.85872 0.32468 0.0
H371 H 0.31669 0.87481 0.30805 0.0
H372 H 0.38606 0.83594 0.1571 0.0
H373 H 0.32728 0.78142 0.16442 0.0
H374 H 0.31773 0.84926 0.15446 0.0
H375 H 0.29336 0.88999 0.23888 0.0
H376 H 0.26227 0.82644 0.27201 0.0
C377 C 0.47107 0.79669 0.43102 0.0
C378 C 0.51281 0.74302 0.36253 0.0
C379 C 0.18485 0.62925 0.22268 0.0
C380 C 0.15937 0.65534 0.17905 0.0
C381 C 0.18148 0.71123 0.17023 0.0
C382 C 0.22874 0.7405 0.2017 0.0
C383 C 0.25698 0.71382 0.2414 0.0
C384 C 0.23423 0.65955 0.25326 0.0
C385 C 0.26787 0.64113 0.30228 0.0
C386 C 0.31751 0.69184 0.31274 0.0
C387 C 0.31027 0.73358 0.27629 0.0
C388 C 0.2294 0.62776 0.35317 0.0
C389 C 0.28883 0.59245 0.28312 0.0
C390 C 0.42569 0.922 0.22744 0.0
C391 C 0.48349 0.94795 0.23178 0.0
C392 C 0.51866 0.92406 0.26808 0.0
C393 C 0.49636 0.87514 0.29854 0.0
C394 C 0.4384 0.84798 0.29115 0.0
C395 C 0.40485 0.87184 0.25521 0.0
C396 C 0.34857 0.83368 0.24114 0.0
C397 C 0.35268 0.78335 0.27407 0.0
C398 C 0.40392 0.79168 0.30686 0.0
C399 C 0.30251 0.85733 0.2656 0.0
C400 C 0.34397 0.82461 0.17616 0.0
H401 H 0.31338 0.59542 0.40428 0.0
H402 H 0.50116 0.69461 0.48849 0.0
H403 H 0.50438 0.70382 0.33972 0.0
H404 H 0.52723 0.77541 0.33121 0.0
H405 H 0.548 0.74436 0.39455 0.0
H406 H 0.43195 0.79766 0.45231 0.0
H407 H 0.50427 0.79367 0.46386 0.0
H408 H 0.48581 0.83576 0.40856 0.0
H409 H 0.16728 0.58666 0.23216 0.0
H410 H 0.16128 0.73291 0.13932 0.0
H411 H 0.24114 0.7832 0.19356 0.0
H412 H 0.19262 0.64601 0.34834 0.0
H413 H 0.21207 0.58322 0.35848 0.0
H414 H 0.25213 0.64481 0.39295 0.0
H415 H 0.31087 0.60229 0.2431 0.0
H416 H 0.31924 0.58127 0.31419 0.0
H417 H 0.25256 0.5563 0.27583 0.0
H418 H 0.35238 0.55862 0.48613 0.0
C419 C 0.35364 0.61841 0.42158 0.0
C420 C 0.03559 0.22411 0.76925 0.0
C421 C 0.05468 0.19504 0.7272 0.0
C422 C 0.10878 0.21672 0.70724 0.0
C423 C 0.1227 0.29628 0.76673 0.0
C424 C 0.07084 0.27436 0.78919 0.0
C425 C 0.05983 0.31102 0.83496 0.0
H426 H 0.13465 0.56467 0.95941 0.0
C427 C 0.14677 0.35122 0.79087 0.0
C428 C 0.11066 0.3609 0.83135 0.0
H429 H 1.00595 0.42461 1.01127 0.0
H430 H 0.02861 0.37108 0.93661 0.0
H431 H 0.116 0.53576 0.8126 0.0
H432 H 0.22895 0.50363 0.94833 0.0
H433 H 0.2668 0.52231 0.88726 0.0
H434 H 0.23676 0.57097 0.92003 0.0
H435 H 0.16119 0.58838 0.85502 0.0
H436 H 0.18834 0.56038 0.7972 0.0
C437 C 1.00313 0.32543 0.82049 0.0
C438 C 0.06098 0.28103 0.89191 0.0
C439 C 0.32383 0.46533 0.70508 0.0
C440 C 0.35535 0.51956 0.71011 0.0
C441 C 0.33665 0.55378 0.74662 0.0
C442 C 0.28813 0.53374 0.7782 0.0
C443 C 0.25762 0.47876 0.77328 0.0
C444 C 0.2757 0.44618 0.73639 0.0
C445 C 0.23803 0.38976 0.7336 0.0
C446 C 0.19441 0.39288 0.77552 0.0
C447 C 0.20595 0.44472 0.79976 0.0
C448 C 0.21199 0.38001 0.67231 0.0
C449 C 0.27394 0.35024 0.75423 0.0
C450 C 0.11119 0.52257 0.95451 0.0
C451 C 0.06806 0.4992 0.99152 0.0
C452 C 0.03943 0.4438 0.98382 0.0
C453 C 0.05276 0.41257 0.94048 0.0
C454 C 0.09656 0.43605 0.90453 0.0
C455 C 0.12536 0.4902 0.91236 0.0
C456 C 0.17342 0.5074 0.87299 0.0
C457 C 0.17033 0.45476 0.84202 0.0
C458 C 0.12353 0.41299 0.85883 0.0
C459 C 0.15956 0.55057 0.83219 0.0
C460 C 0.22962 0.52754 0.90861 0.0
H461 H 0.18283 0.28093 0.70817 0.0
H462 H 0.99399 0.20833 0.78559 0.0
H463 H 0.09481 0.25889 0.89396 0.0
H464 H 0.07099 0.30898 0.92799 0.0
H465 H 0.01987 0.25084 0.89799 0.0
H466 H 1.00238 0.34163 0.77679 0.0
H467 H 0.96687 0.28894 0.82359 0.0
H468 H 0.9962 0.35682 0.84855 0.0
H469 H 0.33622 0.43781 0.67715 0.0
H470 H 0.35999 0.59583 0.75145 0.0
H471 H 0.27642 0.56169 0.80545 0.0
H472 H 0.21288 0.41882 0.64957 0.0
H473 H 0.23551 0.35745 0.64735 0.0
H474 H 0.16654 0.35803 0.67065 0.0
H475 H 0.30458 0.36842 0.78927 0.0
H476 H 0.24821 0.31188 0.77185 0.0
H477 H 0.29877 0.34078 0.71987 0.0
H478 H 0.12356 0.1968 0.67381 0.0
C479 C 0.14271 0.26667 0.72667 0.0
Tb480 Tb 0.94896 1.06935 0.63476 0.0
Tb481 Tb 0.07523 0.08472 0.61802 0.0
C482 C 0.84247 1.04367 0.63659 0.0
C483 C 0.79164 0.9984 0.64082 0.0
C484 C 0.79366 0.94396 0.63969 0.0
C485 C 0.74591 0.90256 0.65254 0.0
C486 C 0.69636 0.91512 0.66983 0.0
C487 C 0.6938 0.96978 0.66689 0.0
C488 C 0.7408 1.01076 0.65214 0.0
C489 C 0.01592 0.14694 0.69855 0.0
C490 C 0.01146 0.98535 0.6882 0.0
C491 C 0.18187 0.1091 0.61849 0.0
C492 C 0.23407 0.15154 0.60796 0.0
C493 C 0.25205 0.19977 0.63917 0.0
C494 C 0.30191 0.23875 0.62609 0.0
C495 C 0.33467 0.22979 0.582 0.0
C496 C 0.31726 0.18021 0.55286 0.0
C497 C 0.26795 0.14171 0.56588 0.0
C498 C 1.00818 1.00702 0.55426 0.0
C499 C 0.01259 0.16813 0.56258 0.0
O500 O 0.86973 1.04911 0.59006 0.0
O501 O 0.87658 1.05349 0.68169 0.0
O502 O 0.02664 0.10301 0.68397 0.0
O503 O 0.96457 0.14551 0.68154 0.0
O504 O 0.96229 0.99371 0.6703 0.0
O505 O 0.06056 1.02035 0.67994 0.0
O506 O 0.15383 0.11205 0.66323 0.0
O507 O 0.14842 0.09146 0.57427 0.0
O508 O 0.99759 1.05106 0.56874 0.0
O509 O 0.05927 1.00807 0.57197 0.0
O510 O 0.0619 0.15866 0.57824 0.0
O511 O 0.96323 0.13476 0.57378 0.0
H512 H 0.83264 0.9334 0.63196 0.0
H513 H 0.74934 0.86107 0.65229 0.0
H514 H 0.65732 0.98198 0.6803 0.0
H515 H 0.73853 1.05268 0.65325 0.0
H516 H 0.22747 0.20773 0.67294 0.0
H517 H 0.31411 0.27625 0.64958 0.0
H518 H 0.33993 0.17188 0.51765 0.0
H519 H 0.25552 0.1044 0.54188 0.0
Tb520 Tb 0.56682 1.07364 1.12814 0.0
Tb521 Tb 0.44716 1.06843 1.12066 0.0
C522 C 0.67335 0.09173 0.12939 0.0
C523 C 0.72475 0.13615 0.13916 0.0
C524 C 0.73472 0.18366 1.10662 0.0
C525 C 0.781 0.22758 1.11984 0.0
C526 C 0.81756 0.2247 0.16673 0.0
C527 C 0.80951 0.17526 0.19689 0.0
C528 C 0.76374 0.13141 0.18298 0.0
C529 C 0.50805 0.99188 0.19015 0.0
C530 C 0.52305 0.15647 0.19774 0.0
C531 C 0.34055 1.04964 1.11842 0.0
C532 C 0.28867 1.00523 1.11144 0.0
C533 C 0.27985 0.95817 0.1447 0.0
C534 C 0.23309 0.91412 0.13313 0.0
C535 C 0.19498 0.91636 1.08732 0.0
C536 C 0.20162 0.96567 1.05713 0.0
C537 C 0.24791 1.00959 1.06925 0.0
C538 C 0.50661 0.15043 1.05884 0.0
C539 C 0.49076 0.98576 1.05184 0.0
O540 O 0.6414 0.09415 1.08395 0.0
O541 O 0.6434 0.07594 0.1733 0.0
O542 O 0.49866 1.03873 0.18429 0.0
O543 O 0.55173 0.99125 0.16258 0.0
O544 O 0.56668 0.14851 0.17202 0.0
O545 O 0.47195 0.1239 0.19009 0.0
O546 O 0.37238 1.0504 0.16461 0.0
O547 O 0.37055 1.06188 1.07395 0.0
O548 O 0.51541 0.10341 1.06468 0.0
O549 O 0.4623 0.15076 1.08547 0.0
O550 O 0.4486 0.99191 1.08107 0.0
O551 O 0.54092 1.02042 1.05655 0.0
H552 H 0.7052 0.18698 1.07251 0.0
H553 H 0.78655 0.26465 1.09531 0.0
H554 H 0.83597 0.17136 0.23394 0.0
H555 H 0.75726 0.09467 0.20828 0.0
H556 H 0.31056 0.9551 0.17793 0.0
H557 H 0.22852 0.87716 0.15766 0.0
H558 H 0.17389 0.96925 1.021 0.0
H559 H 0.25346 1.04605 1.04359 0.0
Tb560 Tb 0.52366 0.62643 0.65551 0.0
Tb561 Tb 0.50257 0.52615 0.60295 0.0
C562 C 0.51744 0.71619 0.69294 0.0
C563 C 0.47081 0.73287 0.71759 0.0
C564 C 0.45001 0.77385 0.69088 0.0
C565 C 0.39946 0.78356 0.7067 0.0
C566 C 0.36867 0.75216 0.74932 0.0
C567 C 0.39136 0.71335 0.77834 0.0
C568 C 0.44206 0.70378 0.76263 0.0
C569 C 0.5718 0.55748 0.71442 0.0
C570 C 0.40847 0.53871 0.67917 0.0
C571 C 0.51457 0.4383 0.56578 0.0
C572 C 0.56354 0.42513 0.54116 0.0
C573 C 0.58973 0.38854 0.56937 0.0
C574 C 0.64158 0.38242 0.55256 0.0
C575 C 0.66847 0.41288 0.50716 0.0
C576 C 0.64044 0.44706 0.47681 0.0
C577 C 0.58846 0.45312 0.49362 0.0
C578 C 0.45298 0.5934 0.54373 0.0
C579 C 0.61698 0.61529 0.57908 0.0
O580 O 0.50826 0.70273 0.64 0.0
O581 O 0.53936 0.68196 0.72204 0.0
O582 O 0.52258 0.54634 0.69032 0.0
O583 O 0.59541 0.60821 0.70413 0.0
O584 O 0.43553 0.59075 0.67859 0.0
O585 O 0.4298 0.50287 0.65486 0.0
O586 O 0.52176 0.45128 0.61894 0.0
O587 O 0.49007 0.47068 0.53673 0.0
O588 O 0.50249 0.60584 0.5678 0.0
O589 O 0.43046 0.5424 0.55402 0.0
O590 O 0.5904 0.56322 0.57977 0.0
O591 O 0.59545 0.65067 0.60335 0.0
H592 H 0.4718 0.79694 0.65627 0.0
H593 H 0.38385 0.81487 0.68471 0.0
H594 H 0.36859 0.68844 0.8113 0.0
H595 H 0.45705 0.67173 0.78388 0.0
H596 H 0.571 0.366 0.6057 0.0
H597 H 0.66092 0.35419 0.57566 0.0
H598 H 0.65977 0.47111 0.44164 0.0
H599 H 0.56928 0.48167 0.47087 0.0
Tb600 Tb 1.00631 0.61994 1.09295 0.0
Tb601 Tb 1.00986 0.52808 0.16559 0.0
C602 C 0.96659 0.69159 1.04488 0.0
C603 C 0.91074 0.70248 1.05182 0.0
C604 C 0.86472 0.66002 1.06744 0.0
C605 C 0.80942 0.66586 1.06132 0.0
C606 C 0.79961 0.71481 1.04098 0.0
C607 C 0.84602 0.75956 1.03283 0.0
C608 C 0.90143 0.7535 1.03893 0.0
C609 C 0.10831 0.62767 0.14363 0.0
C610 C 0.96404 0.61769 0.21893 0.0
C611 C 0.04709 0.45997 0.22334 0.0
C612 C 0.10362 0.44997 0.22926 0.0
C613 C 0.14169 0.46283 0.18582 0.0
C614 C 0.19747 0.4586 0.19467 0.0
C615 C 0.21598 0.44115 0.24706 0.0
C616 C 0.17712 0.42779 0.29007 0.0
C617 C 0.12206 0.43328 0.28151 0.0
C618 C 0.90805 0.51833 1.11367 0.0
C619 C 0.05242 0.5308 1.03849 0.0
O620 O 0.96452 0.64473 1.02213 0.0
O621 O 1.00279 0.70182 1.08817 0.0
O622 O 0.06061 0.60932 0.16405 0.0
O623 O 0.09892 0.64603 1.09356 0.0
O624 O 0.96125 0.63553 0.16659 0.0
O625 O 0.98497 0.57572 0.23053 0.0
O626 O 0.04503 0.50705 0.24213 0.0
O627 O 0.01893 0.44837 0.17498 0.0
O628 O 0.95587 0.53796 1.09399 0.0
O629 O 0.91733 0.50081 0.16405 0.0
O630 O 0.05374 0.51172 1.09081 0.0
O631 O 0.03236 0.57366 1.02709 0.0
H632 H 0.87132 0.6214 1.08145 0.0
H633 H 0.77419 0.63115 1.06886 0.0
H634 H 0.83931 0.79795 1.01773 0.0
H635 H 0.93652 0.78798 1.03133 0.0
H636 H 0.12892 0.4773 0.14549 0.0
H637 H 0.22621 0.46989 0.16084 0.0
H638 H 0.18893 0.41285 0.33064 0.0
H639 H 0.09407 0.42546 0.31614 0.0
loop_
_geom_bond_atom_site_label_1
_geom_bond_atom_site_label_2
_geom_bond_distance
_geom_bond_site_symmetry_2
_ccdc_geom_bond_type
C0 C1 1.391 . S
C0 C4 1.391 . S
C0 H42 0.948 . S
C1 C0 1.391 . S
C1 C2 1.391 . S
C2 C1 1.391 . S
C2 H58 0.947 . S
C2 C59 1.392 . S
C3 C4 1.391 . S
C3 C7 1.397 . S
C3 C59 1.419 . S
C4 C0 1.391 . S
C4 C3 1.391 . S
C4 C5 1.399 . S
C5 C4 1.399 . S
C5 C8 1.396 . S
C5 C17 1.453 . S
C5 C18 1.684 . S
H6 C30 0.948 . S
C7 C3 1.397 . S
C7 C8 1.394 . S
C7 C26 1.723 . S
C8 C5 1.396 . S
C8 C7 1.394 . S
C8 C38 1.723 . S
H9 C32 0.947 . S
H10 C33 0.948 . S
H11 C39 0.982 . S
H12 C40 0.979 . S
H13 C40 0.980 . S
H14 C40 0.983 . S
H15 C39 0.979 . S
H16 C39 0.977 . S
C17 C5 1.453 . S
C17 H46 0.982 . S
C17 H47 0.979 . S
C17 H48 0.977 . S
C18 C5 1.684 . S
C18 H43 0.979 . S
C18 H44 0.980 . S
C18 H45 0.983 . S
C19 C20 1.391 . S
C19 C24 1.391 . S
C19 H49 0.948 . S
C20 C19 1.391 . S
C20 C21 1.391 . S
C21 C20 1.391 . S
C21 C22 1.392 . S
C21 H50 0.947 . S
C22 C21 1.392 . S
C22 C23 1.419 . S
C22 H51 0.948 . S
C23 C22 1.419 . S
C23 C24 1.391 . S
C23 C27 1.397 . S
C24 C19 1.391 . S
C24 C23 1.391 . S
C24 C25 1.399 . S
C25 C24 1.399 . S
C25 C26 1.396 . S
C25 C28 1.453 . S
C25 C29 1.684 . S
C26 C7 1.723 . S
C26 C25 1.396 . S
C26 C27 1.394 . S
C27 C23 1.397 . S
C27 C26 1.394 . S
C27 C37 1.723 . S
C28 C25 1.453 . S
C28 H52 0.982 . S
C28 H53 0.979 . S
C28 H54 0.977 . S
C29 C25 1.684 . S
C29 H55 0.979 . S
C29 H56 0.980 . S
C29 H57 0.983 . S
C30 H6 0.948 . S
C30 C31 1.391 . S
C30 C35 1.391 . S
C31 C30 1.391 . S
C31 C32 1.391 . S
C32 H9 0.947 . S
C32 C31 1.391 . S
C32 C33 1.392 . S
C33 H10 0.948 . S
C33 C32 1.392 . S
C33 C34 1.419 . S
C34 C33 1.419 . S
C34 C35 1.391 . S
C34 C38 1.397 . S
C35 C30 1.391 . S
C35 C34 1.391 . S
C35 C36 1.399 . S
C36 C35 1.399 . S
C36 C37 1.396 . S
C36 C39 1.453 . S
C36 C40 1.684 . S
C37 C27 1.723 . S
C37 C36 1.396 . S
C37 C38 1.394 . S
C38 C8 1.723 . S
C38 C34 1.397 . S
C38 C37 1.394 . S
C39 H11 0.982 . S
C39 H15 0.979 . S
C39 H16 0.977 . S
C39 C36 1.453 . S
C40 H12 0.979 . S
C40 H13 0.980 . S
C40 H14 0.983 . S
C40 C36 1.684 . S
H41 C59 0.948 . S
H42 C0 0.948 . S
H43 C18 0.979 . S
H44 C18 0.980 . S
H45 C18 0.983 . S
H46 C17 0.982 . S
H47 C17 0.979 . S
H48 C17 0.977 . S
H49 C19 0.948 . S
H50 C21 0.947 . S
H51 C22 0.948 . S
H52 C28 0.982 . S
H53 C28 0.979 . S
H54 C28 0.977 . S
H55 C29 0.979 . S
H56 C29 0.980 . S
H57 C29 0.983 . S
H58 C2 0.947 . S
C59 C2 1.392 . S
C59 C3 1.419 . S
C59 H41 0.948 . S
C60 C61 1.391 . S
C60 C64 1.391 . S
C60 H102 0.948 . S
C61 C60 1.391 . S
C61 C62 1.391 . S
C62 C61 1.391 . S
C62 H118 0.947 . S
C62 C119 1.392 . S
C63 C64 1.391 . S
C63 C67 1.397 1_655 S
C63 C119 1.419 . S
C64 C60 1.391 . S
C64 C63 1.391 . S
C64 C65 1.399 . S
C65 C64 1.399 . S
C65 C68 1.396 1_655 S
C65 C77 1.453 1_655 S
C65 C78 1.684 . S
H66 C90 0.948 . S
C67 C63 1.397 1_455 S
C67 C68 1.394 . S
C67 C86 1.723 . S
C68 C65 1.396 1_455 S
C68 C67 1.394 . S
C68 C98 1.723 . S
H69 C92 0.947 . S
H70 C93 0.948 . S
H71 C99 0.982 . S
H72 C100 0.979 . S
H73 C100 0.980 . S
H74 C100 0.983 . S
H75 C99 0.979 . S
H76 C99 0.977 . S
C77 C65 1.453 1_455 S
C77 H106 0.982 . S
C77 H107 0.979 1_455 S
C77 H108 0.977 . S
C78 C65 1.684 . S
C78 H103 0.979 . S
C78 H104 0.980 . S
C78 H105 0.983 . S
C79 C80 1.391 . S
C79 C84 1.391 . S
C79 H109 0.948 . S
C80 C79 1.391 . S
C80 C81 1.391 . S
C81 C80 1.391 . S
C81 C82 1.392 . S
C81 H110 0.947 . S
C82 C81 1.392 . S
C82 C83 1.419 . S
C82 H111 0.948 . S
C83 C82 1.419 . S
C83 C84 1.391 . S
C83 C87 1.397 . S
C84 C79 1.391 . S
C84 C83 1.391 . S
C84 C85 1.399 . S
C85 C84 1.399 . S
C85 C86 1.396 . S
C85 C88 1.453 . S
C85 C89 1.684 . S
C86 C67 1.723 . S
C86 C85 1.396 . S
C86 C87 1.394 . S
C87 C83 1.397 . S
C87 C86 1.394 . S
C87 C97 1.723 . S
C88 C85 1.453 . S
C88 H112 0.982 . S
C88 H113 0.979 . S
C88 H114 0.977 . S
C89 C85 1.684 . S
C89 H115 0.979 1_455 S
C89 H116 0.980 1_455 S
C89 H117 0.983 . S
C90 H66 0.948 . S
C90 C91 1.391 . S
C90 C95 1.391 . S
C91 C90 1.391 . S
C91 C92 1.391 . S
C92 H69 0.947 . S
C92 C91 1.391 . S
C92 C93 1.392 . S
C93 H70 0.948 . S
C93 C92 1.392 . S
C93 C94 1.419 . S
C94 C93 1.419 . S
C94 C95 1.391 . S
C94 C98 1.397 . S
C95 C90 1.391 . S
C95 C94 1.391 . S
C95 C96 1.399 . S
C96 C95 1.399 . S
C96 C97 1.396 . S
C96 C99 1.453 . S
C96 C100 1.684 . S
C97 C87 1.723 . S
C97 C96 1.396 . S
C97 C98 1.394 . S
C98 C68 1.723 . S
C98 C94 1.397 . S
C98 C97 1.394 . S
C99 H71 0.982 . S
C99 H75 0.979 . S
C99 H76 0.977 . S
C99 C96 1.453 . S
C100 H72 0.979 . S
C100 H73 0.980 . S
C100 H74 0.983 . S
C100 C96 1.684 . S
H101 C119 0.948 . S
H102 C60 0.948 . S
H103 C78 0.979 . S
H104 C78 0.980 . S
H105 C78 0.983 . S
H106 C77 0.982 . S
H107 C77 0.979 1_655 S
H108 C77 0.977 . S
H109 C79 0.948 . S
H110 C81 0.947 . S
H111 C82 0.948 . S
H112 C88 0.982 . S
H113 C88 0.979 . S
H114 C88 0.977 . S
H115 C89 0.979 1_655 S
H116 C89 0.980 1_655 S
H117 C89 0.983 . S
H118 C62 0.947 . S
C119 C62 1.392 . S
C119 C63 1.419 . S
C119 H101 0.948 . S
C120 C121 1.391 . S
C120 C124 1.391 . S
C120 H162 0.948 . S
C121 C120 1.391 . S
C121 C122 1.391 . S
C122 C121 1.391 . S
C122 H178 0.947 . S
C122 C179 1.392 . S
C123 C124 1.391 . S
C123 C127 1.397 . S
C123 C179 1.419 . S
C124 C120 1.391 . S
C124 C123 1.391 . S
C124 C125 1.399 . S
C125 C124 1.399 . S
C125 C128 1.396 . S
C125 C137 1.453 . S
C125 C138 1.684 . S
H126 C150 0.948 . S
C127 C123 1.397 . S
C127 C128 1.394 . S
C127 C146 1.723 . S
C128 C125 1.396 . S
C128 C127 1.394 . S
C128 C158 1.723 . S
H129 C152 0.947 . S
H130 C153 0.948 . S
H131 C159 0.982 . S
H132 C160 0.979 . S
H133 C160 0.980 . S
H134 C160 0.983 . S
H135 C159 0.979 . S
H136 C159 0.977 . S
C137 C125 1.453 . S
C137 H166 0.982 . S
C137 H167 0.979 . S
C137 H168 0.977 . S
C138 C125 1.684 . S
C138 H163 0.979 . S
C138 H164 0.980 . S
C138 H165 0.983 . S
C139 C140 1.391 . S
C139 C144 1.391 . S
C139 H169 0.948 . S
C140 C139 1.391 . S
C140 C141 1.391 . S
C141 C140 1.391 . S
C141 C142 1.392 . S
C141 H170 0.947 . S
C142 C141 1.392 . S
C142 C143 1.419 . S
C142 H171 0.948 . S
C143 C142 1.419 . S
C143 C144 1.391 . S
C143 C147 1.397 . S
C144 C139 1.391 . S
C144 C143 1.391 . S
C144 C145 1.399 . S
C145 C144 1.399 . S
C145 C146 1.396 . S
C145 C148 1.453 . S
C145 C149 1.684 . S
C146 C127 1.723 . S
C146 C145 1.396 . S
C146 C147 1.394 . S
C147 C143 1.397 . S
C147 C146 1.394 . S
C147 C157 1.723 . S
C148 C145 1.453 . S
C148 H172 0.982 . S
C148 H173 0.979 . S
C148 H174 0.977 . S
C149 C145 1.684 . S
C149 H175 0.979 . S
C149 H176 0.980 . S
C149 H177 0.983 . S
C150 H126 0.948 . S
C150 C151 1.391 . S
C150 C155 1.391 . S
C151 C150 1.391 . S
C151 C152 1.391 . S
C152 H129 0.947 . S
C152 C151 1.391 . S
C152 C153 1.392 . S
C153 H130 0.948 . S
C153 C152 1.392 . S
C153 C154 1.419 . S
C154 C153 1.419 . S
C154 C155 1.391 . S
C154 C158 1.397 . S
C155 C150 1.391 . S
C155 C154 1.391 . S
C155 C156 1.399 . S
C156 C155 1.399 . S
C156 C157 1.396 . S
C156 C159 1.453 . S
C156 C160 1.684 . S
C157 C147 1.723 . S
C157 C156 1.396 . S
C157 C158 1.394 . S
C158 C128 1.723 . S
C158 C154 1.397 . S
C158 C157 1.394 . S
C159 H131 0.982 . S
C159 H135 0.979 . S
C159 H136 0.977 . S
C159 C156 1.453 . S
C160 H132 0.979 . S
C160 H133 0.980 . S
C160 H134 0.983 . S
C160 C156 1.684 . S
H161 C179 0.948 . S
H162 C120 0.948 . S
H163 C138 0.979 . S
H164 C138 0.980 . S
H165 C138 0.983 . S
H166 C137 0.982 . S
H167 C137 0.979 . S
H168 C137 0.977 . S
H169 C139 0.948 . S
H170 C141 0.947 . S
H171 C142 0.948 . S
H172 C148 0.982 . S
H173 C148 0.979 . S
H174 C148 0.977 . S
H175 C149 0.979 . S
H176 C149 0.980 . S
H177 C149 0.983 . S
H178 C122 0.947 . S
C179 C122 1.392 . S
C179 C123 1.419 . S
C179 H161 0.948 . S
C180 C181 1.391 . S
C180 C184 1.391 . S
C180 H222 0.948 . S
C181 C180 1.391 . S
C181 C182 1.391 . S
C182 C181 1.391 . S
C182 H238 0.947 . S
C182 C239 1.392 . S
C183 C184 1.391 . S
C183 C187 1.397 . S
C183 C239 1.419 . S
C184 C180 1.391 . S
C184 C183 1.391 . S
C184 C185 1.399 . S
C185 C184 1.399 . S
C185 C188 1.396 . S
C185 C197 1.453 . S
C185 C198 1.684 . S
H186 C210 0.948 . S
C187 C183 1.397 . S
C187 C188 1.394 . S
C187 C206 1.723 . S
C188 C185 1.396 . S
C188 C187 1.394 . S
C188 C218 1.723 . S
H189 C212 0.947 . S
H190 C213 0.948 . S
H191 C219 0.982 . S
H192 C220 0.979 . S
H193 C220 0.980 . S
H194 C220 0.983 . S
H195 C219 0.979 . S
H196 C219 0.977 . S
C197 C185 1.453 . S
C197 H226 0.982 . S
C197 H227 0.979 1_655 S
C197 H228 0.977 . S
C198 C185 1.684 . S
C198 H223 0.979 . S
C198 H224 0.980 . S
C198 H225 0.983 . S
C199 C200 1.391 . S
C199 C204 1.391 . S
C199 H229 0.948 . S
C200 C199 1.391 . S
C200 C201 1.391 . S
C201 C200 1.391 . S
C201 C202 1.392 . S
C201 H230 0.947 . S
C202 C201 1.392 . S
C202 C203 1.419 . S
C202 H231 0.948 . S
C203 C202 1.419 . S
C203 C204 1.391 . S
C203 C207 1.397 . S
C204 C199 1.391 . S
C204 C203 1.391 . S
C204 C205 1.399 . S
C205 C204 1.399 . S
C205 C206 1.396 . S
C205 C208 1.453 . S
C205 C209 1.684 . S
C206 C187 1.723 . S
C206 C205 1.396 . S
C206 C207 1.394 . S
C207 C203 1.397 . S
C207 C206 1.394 . S
C207 C217 1.723 . S
C208 C205 1.453 . S
C208 H232 0.982 . S
C208 H233 0.979 . S
C208 H234 0.977 . S
C209 C205 1.684 . S
C209 H235 0.979 . S
C209 H236 0.980 . S
C209 H237 0.983 . S
C210 H186 0.948 . S
C210 C211 1.391 . S
C210 C215 1.391 . S
C211 C210 1.391 . S
C211 C212 1.391 . S
C212 H189 0.947 . S
C212 C211 1.391 . S
C212 C213 1.392 . S
C213 H190 0.948 . S
C213 C212 1.392 . S
C213 C214 1.419 . S
C214 C213 1.419 . S
C214 C215 1.391 . S
C214 C218 1.397 . S
C215 C210 1.391 . S
C215 C214 1.391 . S
C215 C216 1.399 . S
C216 C215 1.399 . S
C216 C217 1.396 . S
C216 C219 1.453 . S
C216 C220 1.684 . S
C217 C207 1.723 . S
C217 C216 1.396 . S
C217 C218 1.394 . S
C218 C188 1.723 . S
C218 C214 1.397 . S
C218 C217 1.394 . S
C219 H191 0.982 . S
C219 H195 0.979 . S
C219 H196 0.977 . S
C219 C216 1.453 . S
C220 H192 0.979 . S
C220 H193 0.980 . S
C220 H194 0.983 . S
C220 C216 1.684 . S
H221 C239 0.948 . S
H222 C180 0.948 . S
H223 C198 0.979 . S
H224 C198 0.980 . S
H225 C198 0.983 . S
H226 C197 0.982 . S
H227 C197 0.979 1_455 S
H228 C197 0.977 . S
H229 C199 0.948 . S
H230 C201 0.947 . S
H231 C202 0.948 . S
H232 C208 0.982 . S
H233 C208 0.979 . S
H234 C208 0.977 . S
H235 C209 0.979 . S
H236 C209 0.980 . S
H237 C209 0.983 . S
H238 C182 0.947 . S
C239 C182 1.392 . S
C239 C183 1.419 . S
C239 H221 0.948 . S
C240 C241 1.391 . S
C240 C244 1.391 . S
C240 H282 0.948 . S
C241 C240 1.391 . S
C241 C242 1.391 . S
C242 C241 1.391 . S
C242 H298 0.947 . S
C242 C299 1.392 . S
C243 C244 1.391 . S
C243 C247 1.397 . S
C243 C299 1.419 . S
C244 C240 1.391 . S
C244 C243 1.391 . S
C244 C245 1.399 . S
C245 C244 1.399 . S
C245 C248 1.396 . S
C245 C257 1.453 . S
C245 C258 1.684 . S
H246 C270 0.948 . S
C247 C243 1.397 . S
C247 C248 1.394 . S
C247 C266 1.723 . S
C248 C245 1.396 . S
C248 C247 1.394 . S
C248 C278 1.723 . S
H249 C272 0.947 . S
H250 C273 0.948 . S
H251 C279 0.982 . S
H252 C280 0.979 . S
H253 C280 0.980 . S
H254 C280 0.983 . S
H255 C279 0.979 . S
H256 C279 0.977 . S
C257 C245 1.453 . S
C257 H286 0.982 . S
C257 H287 0.979 . S
C257 H288 0.977 . S
C258 C245 1.684 . S
C258 H283 0.979 . S
C258 H284 0.980 . S
C258 H285 0.983 . S
C259 C260 1.391 . S
C259 C264 1.391 . S
C259 H289 0.948 . S
C260 C259 1.391 . S
C260 C261 1.391 . S
C261 C260 1.391 . S
C261 C262 1.392 . S
C261 H290 0.947 . S
C262 C261 1.392 . S
C262 C263 1.419 . S
C262 H291 0.948 . S
C263 C262 1.419 . S
C263 C264 1.391 . S
C263 C267 1.397 . S
C264 C259 1.391 . S
C264 C263 1.391 . S
C264 C265 1.399 . S
C265 C264 1.399 . S
C265 C266 1.396 . S
C265 C268 1.453 . S
C265 C269 1.684 . S
C266 C247 1.723 . S
C266 C265 1.396 . S
C266 C267 1.394 . S
C267 C263 1.397 . S
C267 C266 1.394 . S
C267 C277 1.723 . S
C268 C265 1.453 . S
C268 H292 0.982 . S
C268 H293 0.979 . S
C268 H294 0.977 . S
C269 C265 1.684 . S
C269 H295 0.979 . S
C269 H296 0.980 . S
C269 H297 0.983 . S
C270 H246 0.948 . S
C270 C271 1.391 . S
C270 C275 1.391 . S
C271 C270 1.391 . S
C271 C272 1.391 . S
C272 H249 0.947 . S
C272 C271 1.391 . S
C272 C273 1.392 . S
C273 H250 0.948 . S
C273 C272 1.392 . S
C273 C274 1.419 . S
C274 C273 1.419 . S
C274 C275 1.391 . S
C274 C278 1.397 . S
C275 C270 1.391 . S
C275 C274 1.391 . S
C275 C276 1.399 . S
C276 C275 1.399 . S
C276 C277 1.396 . S
C276 C279 1.453 . S
C276 C280 1.684 . S
C277 C267 1.723 . S
C277 C276 1.396 . S
C277 C278 1.394 . S
C278 C248 1.723 . S
C278 C274 1.397 . S
C278 C277 1.394 . S
C279 H251 0.982 . S
C279 H255 0.979 . S
C279 H256 0.977 . S
C279 C276 1.453 . S
C280 H252 0.979 . S
C280 H253 0.980 . S
C280 H254 0.983 . S
C280 C276 1.684 . S
H281 C299 0.948 . S
H282 C240 0.948 . S
H283 C258 0.979 . S
H284 C258 0.980 . S
H285 C258 0.983 . S
H286 C257 0.982 . S
H287 C257 0.979 . S
H288 C257 0.977 . S
H289 C259 0.948 . S
H290 C261 0.947 . S
H291 C262 0.948 . S
H292 C268 0.982 . S
H293 C268 0.979 . S
H294 C268 0.977 . S
H295 C269 0.979 . S
H296 C269 0.980 . S
H297 C269 0.983 . S
H298 C242 0.947 . S
C299 C242 1.392 . S
C299 C243 1.419 . S
C299 H281 0.948 . S
C300 C301 1.391 . S
C300 C304 1.391 . S
C300 H342 0.948 . S
C301 C300 1.391 . S
C301 C302 1.391 . S
C302 C301 1.391 . S
C302 H358 0.947 . S
C302 C359 1.392 . S
C303 C304 1.391 . S
C303 C307 1.397 1_455 S
C303 C359 1.419 . S
C304 C300 1.391 . S
C304 C303 1.391 . S
C304 C305 1.399 . S
C305 C304 1.399 . S
C305 C308 1.396 1_455 S
C305 C317 1.453 1_455 S
C305 C318 1.684 . S
H306 C330 0.948 . S
C307 C303 1.397 1_655 S
C307 C308 1.394 . S
C307 C326 1.723 . S
C308 C305 1.396 1_655 S
C308 C307 1.394 . S
C308 C338 1.723 . S
H309 C332 0.947 . S
H310 C333 0.948 . S
H311 C339 0.982 . S
H312 C340 0.979 . S
H313 C340 0.980 . S
H314 C340 0.983 . S
H315 C339 0.979 . S
H316 C339 0.977 . S
C317 C305 1.453 1_655 S
C317 H346 0.982 . S
C317 H347 0.979 1_655 S
C317 H348 0.977 . S
C318 C305 1.684 . S
C318 H343 0.979 . S
C318 H344 0.980 . S
C318 H345 0.983 . S
C319 C320 1.391 . S
C319 C324 1.391 . S
C319 H349 0.948 . S
C320 C319 1.391 . S
C320 C321 1.391 . S
C321 C320 1.391 . S
C321 C322 1.392 . S
C321 H350 0.947 . S
C322 C321 1.392 . S
C322 C323 1.419 . S
C322 H351 0.948 . S
C323 C322 1.419 . S
C323 C324 1.391 . S
C323 C327 1.397 . S
C324 C319 1.391 . S
C324 C323 1.391 . S
C324 C325 1.399 . S
C325 C324 1.399 . S
C325 C326 1.396 . S
C325 C328 1.453 . S
C325 C329 1.684 . S
C326 C307 1.723 . S
C326 C325 1.396 . S
C326 C327 1.394 . S
C327 C323 1.397 . S
C327 C326 1.394 . S
C327 C337 1.723 . S
C328 C325 1.453 . S
C328 H352 0.982 . S
C328 H353 0.979 . S
C328 H354 0.977 . S
C329 C325 1.684 . S
C329 H355 0.979 1_655 S
C329 H356 0.980 1_655 S
C329 H357 0.983 . S
C330 H306 0.948 . S
C330 C331 1.391 . S
C330 C335 1.391 . S
C331 C330 1.391 . S
C331 C332 1.391 . S
C332 H309 0.947 . S
C332 C331 1.391 . S
C332 C333 1.392 . S
C333 H310 0.948 . S
C333 C332 1.392 . S
C333 C334 1.419 . S
C334 C333 1.419 . S
C334 C335 1.391 . S
C334 C338 1.397 . S
C335 C330 1.391 . S
C335 C334 1.391 . S
C335 C336 1.399 . S
C336 C335 1.399 . S
C336 C337 1.396 . S
C336 C339 1.453 . S
C336 C340 1.684 . S
C337 C327 1.723 . S
C337 C336 1.396 . S
C337 C338 1.394 . S
C338 C308 1.723 . S
C338 C334 1.397 . S
C338 C337 1.394 . S
C339 H311 0.982 . S
C339 H315 0.979 . S
C339 H316 0.977 . S
C339 C336 1.453 . S
C340 H312 0.979 . S
C340 H313 0.980 . S
C340 H314 0.983 . S
C340 C336 1.684 . S
H341 C359 0.948 . S
H342 C300 0.948 . S
H343 C318 0.979 . S
H344 C318 0.980 . S
H345 C318 0.983 . S
H346 C317 0.982 . S
H347 C317 0.979 1_455 S
H348 C317 0.977 . S
H349 C319 0.948 . S
H350 C321 0.947 . S
H351 C322 0.948 . S
H352 C328 0.982 . S
H353 C328 0.979 . S
H354 C328 0.977 . S
H355 C329 0.979 1_455 S
H356 C329 0.980 1_455 S
H357 C329 0.983 . S
H358 C302 0.947 . S
C359 C302 1.392 . S
C359 C303 1.419 . S
C359 H341 0.948 . S
C360 C361 1.391 . S
C360 C364 1.391 . S
C360 H402 0.948 . S
C361 C360 1.391 . S
C361 C362 1.391 . S
C362 C361 1.391 . S
C362 H418 0.947 . S
C362 C419 1.392 . S
C363 C364 1.391 . S
C363 C367 1.397 . S
C363 C419 1.419 . S
C364 C360 1.391 . S
C364 C363 1.391 . S
C364 C365 1.399 . S
C365 C364 1.399 . S
C365 C368 1.396 . S
C365 C377 1.453 . S
C365 C378 1.684 . S
H366 C390 0.948 . S
C367 C363 1.397 . S
C367 C368 1.394 . S
C367 C386 1.723 . S
C368 C365 1.396 . S
C368 C367 1.394 . S
C368 C398 1.723 . S
H369 C392 0.947 . S
H370 C393 0.948 . S
H371 C399 0.982 . S
H372 C400 0.979 . S
H373 C400 0.980 . S
H374 C400 0.983 . S
H375 C399 0.979 . S
H376 C399 0.977 . S
C377 C365 1.453 . S
C377 H406 0.982 . S
C377 H407 0.979 . S
C377 H408 0.977 . S
C378 C365 1.684 . S
C378 H403 0.979 . S
C378 H404 0.980 . S
C378 H405 0.983 . S
C379 C380 1.391 . S
C379 C384 1.391 . S
C379 H409 0.948 . S
C380 C379 1.391 . S
C380 C381 1.391 . S
C381 C380 1.391 . S
C381 C382 1.392 . S
C381 H410 0.947 . S
C382 C381 1.392 . S
C382 C383 1.419 . S
C382 H411 0.948 . S
C383 C382 1.419 . S
C383 C384 1.391 . S
C383 C387 1.397 . S
C384 C379 1.391 . S
C384 C383 1.391 . S
C384 C385 1.399 . S
C385 C384 1.399 . S
C385 C386 1.396 . S
C385 C388 1.453 . S
C385 C389 1.684 . S
C386 C367 1.723 . S
C386 C385 1.396 . S
C386 C387 1.394 . S
C387 C383 1.397 . S
C387 C386 1.394 . S
C387 C397 1.723 . S
C388 C385 1.453 . S
C388 H412 0.982 . S
C388 H413 0.979 . S
C388 H414 0.977 . S
C389 C385 1.684 . S
C389 H415 0.979 . S
C389 H416 0.980 . S
C389 H417 0.983 . S
C390 H366 0.948 . S
C390 C391 1.391 . S
C390 C395 1.391 . S
C391 C390 1.391 . S
C391 C392 1.391 . S
C392 H369 0.947 . S
C392 C391 1.391 . S
C392 C393 1.392 . S
C393 H370 0.948 . S
C393 C392 1.392 . S
C393 C394 1.419 . S
C394 C393 1.419 . S
C394 C395 1.391 . S
C394 C398 1.397 . S
C395 C390 1.391 . S
C395 C394 1.391 . S
C395 C396 1.399 . S
C396 C395 1.399 . S
C396 C397 1.396 . S
C396 C399 1.453 . S
C396 C400 1.684 . S
C397 C387 1.723 . S
C397 C396 1.396 . S
C397 C398 1.394 . S
C398 C368 1.723 . S
C398 C394 1.397 . S
C398 C397 1.394 . S
C399 H371 0.982 . S
C399 H375 0.979 . S
C399 H376 0.977 . S
C399 C396 1.453 . S
C400 H372 0.979 . S
C400 H373 0.980 . S
C400 H374 0.983 . S
C400 C396 1.684 . S
H401 C419 0.948 . S
H402 C360 0.948 . S
H403 C378 0.979 . S
H404 C378 0.980 . S
H405 C378 0.983 . S
H406 C377 0.982 . S
H407 C377 0.979 . S
H408 C377 0.977 . S
H409 C379 0.948 . S
H410 C381 0.947 . S
H411 C382 0.948 . S
H412 C388 0.982 . S
H413 C388 0.979 . S
H414 C388 0.977 . S
H415 C389 0.979 . S
H416 C389 0.980 . S
H417 C389 0.983 . S
H418 C362 0.947 . S
C419 C362 1.392 . S
C419 C363 1.419 . S
C419 H401 0.948 . S
C420 C421 1.391 . S
C420 C424 1.391 . S
C420 H462 0.948 . S
C421 C420 1.391 . S
C421 C422 1.391 . S
C422 C421 1.391 . S
C422 H478 0.947 . S
C422 C479 1.392 . S
C423 C424 1.391 . S
C423 C427 1.397 . S
C423 C479 1.419 . S
C424 C420 1.391 . S
C424 C423 1.391 . S
C424 C425 1.399 . S
C425 C424 1.399 . S
C425 C428 1.396 . S
C425 C437 1.453 . S
C425 C438 1.684 . S
H426 C450 0.948 . S
C427 C423 1.397 . S
C427 C428 1.394 . S
C427 C446 1.723 . S
C428 C425 1.396 . S
C428 C427 1.394 . S
C428 C458 1.723 . S
H429 C452 0.947 . S
H430 C453 0.948 . S
H431 C459 0.982 . S
H432 C460 0.979 . S
H433 C460 0.980 . S
H434 C460 0.983 . S
H435 C459 0.979 . S
H436 C459 0.977 . S
C437 C425 1.453 . S
C437 H466 0.982 . S
C437 H467 0.979 1_455 S
C437 H468 0.977 . S
C438 C425 1.684 . S
C438 H463 0.979 . S
C438 H464 0.980 . S
C438 H465 0.983 . S
C439 C440 1.391 . S
C439 C444 1.391 . S
C439 H469 0.948 . S
C440 C439 1.391 . S
C440 C441 1.391 . S
C441 C440 1.391 . S
C441 C442 1.392 . S
C441 H470 0.947 . S
C442 C441 1.392 . S
C442 C443 1.419 . S
C442 H471 0.948 . S
C443 C442 1.419 . S
C443 C444 1.391 . S
C443 C447 1.397 . S
C444 C439 1.391 . S
C444 C443 1.391 . S
C444 C445 1.399 . S
C445 C444 1.399 . S
C445 C446 1.396 . S
C445 C448 1.453 . S
C445 C449 1.684 . S
C446 C427 1.723 . S
C446 C445 1.396 . S
C446 C447 1.394 . S
C447 C443 1.397 . S
C447 C446 1.394 . S
C447 C457 1.723 . S
C448 C445 1.453 . S
C448 H472 0.982 . S
C448 H473 0.979 . S
C448 H474 0.977 . S
C449 C445 1.684 . S
C449 H475 0.979 . S
C449 H476 0.980 . S
C449 H477 0.983 . S
C450 H426 0.948 . S
C450 C451 1.391 . S
C450 C455 1.391 . S
C451 C450 1.391 . S
C451 C452 1.391 . S
C452 H429 0.947 . S
C452 C451 1.391 . S
C452 C453 1.392 . S
C453 H430 0.948 . S
C453 C452 1.392 . S
C453 C454 1.419 . S
C454 C453 1.419 . S
C454 C455 1.391 . S
C454 C458 1.397 . S
C455 C450 1.391 . S
C455 C454 1.391 . S
C455 C456 1.399 . S
C456 C455 1.399 . S
C456 C457 1.396 . S
C456 C459 1.453 . S
C456 C460 1.684 . S
C457 C447 1.723 . S
C457 C456 1.396 . S
C457 C458 1.394 . S
C458 C428 1.723 . S
C458 C454 1.397 . S
C458 C457 1.394 . S
C459 H431 0.982 . S
C459 H435 0.979 . S
C459 H436 0.977 . S
C459 C456 1.453 . S
C460 H432 0.979 . S
C460 H433 0.980 . S
C460 H434 0.983 . S
C460 C456 1.684 . S
H461 C479 0.948 . S
H462 C420 0.948 . S
H463 C438 0.979 . S
H464 C438 0.980 . S
H465 C438 0.983 . S
H466 C437 0.982 . S
H467 C437 0.979 1_655 S
H468 C437 0.977 . S
H469 C439 0.948 . S
H470 C441 0.947 . S
H471 C442 0.948 . S
H472 C448 0.982 . S
H473 C448 0.979 . S
H474 C448 0.977 . S
H475 C449 0.979 . S
H476 C449 0.980 . S
H477 C449 0.983 . S
H478 C422 0.947 . S
C479 C422 1.392 . S
C479 C423 1.419 . S
C479 H461 0.948 . S
Tb480 C482 2.820 . S
Tb480 O500 2.503 . S
Tb480 O501 2.442 . S
Tb480 O502 2.652 1_665 S
Tb480 O503 2.394 1_565 S
Tb480 O504 2.392 . S
Tb480 O508 2.341 . S
Tb480 O511 2.328 1_565 S
Tb481 C491 2.809 . S
Tb481 O502 2.325 . S
Tb481 O505 2.341 1_545 S
Tb481 O506 2.484 . S
Tb481 O507 2.440 . S
Tb481 O508 2.658 1_445 S
Tb481 O509 2.409 1_545 S
Tb481 O510 2.378 . S
C482 Tb480 2.820 . S
C482 C483 1.514 . S
C482 O500 1.248 . S
C482 O501 1.266 . S
C483 C482 1.514 . S
C483 C484 1.359 . S
C483 C488 1.348 . S
C484 C483 1.359 . S
C484 C485 1.380 . S
C484 H512 0.929 . S
C485 C484 1.380 . S
C485 C486 1.347 . S
C485 H513 0.931 . S
C486 C485 1.347 . S
C486 C487 1.369 . S
C487 C486 1.369 . S
C487 C488 1.408 . S
C487 H514 0.930 . S
C488 C483 1.348 . S
C488 C487 1.408 . S
C488 H515 0.930 . S
C489 O502 1.281 . S
C489 O503 1.254 1_455 S
C490 O504 1.236 1_455 S
C490 O505 1.266 . S
C491 Tb481 2.809 . S
C491 C492 1.514 . S
C491 O506 1.248 . S
C491 O507 1.266 . S
C492 C491 1.514 . S
C492 C493 1.359 . S
C492 C497 1.348 . S
C493 C492 1.359 . S
C493 C494 1.380 . S
C493 H516 0.929 . S
C494 C493 1.380 . S
C494 C495 1.347 . S
C494 H517 0.931 . S
C495 C494 1.347 . S
C495 C496 1.369 . S
C496 C495 1.369 . S
C496 C497 1.408 . S
C496 H518 0.930 . S
C497 C492 1.348 . S
C497 C496 1.408 . S
C497 H519 0.930 . S
C498 O508 1.281 . S
C498 O509 1.254 1_655 S
C499 O510 1.236 1_655 S
C499 O511 1.266 . S
O500 Tb480 2.503 . S
O500 C482 1.248 . S
O501 Tb480 2.442 . S
O501 C482 1.266 . S
O502 Tb480 2.652 1_445 S
O502 Tb481 2.325 . S
O502 C489 1.281 . S
O503 Tb480 2.394 1_545 S
O503 C489 1.254 1_655 S
O504 Tb480 2.392 . S
O504 C490 1.236 1_655 S
O505 Tb481 2.341 1_565 S
O505 C490 1.266 . S
O506 Tb481 2.484 . S
O506 C491 1.248 . S
O507 Tb481 2.440 . S
O507 C491 1.266 . S
O508 Tb480 2.341 . S
O508 Tb481 2.658 1_665 S
O508 C498 1.281 . S
O509 Tb481 2.409 1_565 S
O509 C498 1.254 1_455 S
O510 Tb481 2.378 . S
O510 C499 1.236 1_455 S
O511 Tb480 2.328 1_545 S
O511 C499 1.266 . S
H512 C484 0.929 . S
H513 C485 0.931 . S
H514 C487 0.930 . S
H515 C488 0.930 . S
H516 C493 0.929 . S
H517 C494 0.931 . S
H518 C496 0.930 . S
H519 C497 0.930 . S
Tb520 C522 2.809 . S
Tb520 O540 2.484 . S
Tb520 O541 2.440 . S
Tb520 O542 2.658 1_545 S
Tb520 O543 2.409 1_545 S
Tb520 O544 2.378 . S
Tb520 O548 2.325 1_554 S
Tb520 O551 2.341 1_544 S
Tb521 C531 2.809 . S
Tb521 O542 2.325 1_556 S
Tb521 O545 2.341 1_566 S
Tb521 O546 2.484 . S
Tb521 O547 2.440 . S
Tb521 O548 2.658 1_565 S
Tb521 O549 2.409 1_565 S
Tb521 O550 2.378 . S
C522 Tb520 2.809 . S
C522 C523 1.514 . S
C522 O540 1.248 . S
C522 O541 1.266 . S
C523 C522 1.514 . S
C523 C524 1.359 . S
C523 C528 1.348 . S
C524 C523 1.359 . S
C524 C525 1.380 . S
C524 H552 0.929 . S
C525 C524 1.380 . S
C525 C526 1.347 . S
C525 H553 0.931 . S
C526 C525 1.347 . S
C526 C527 1.369 . S
C527 C526 1.369 . S
C527 C528 1.408 . S
C527 H554 0.930 . S
C528 C523 1.348 . S
C528 C527 1.408 . S
C528 H555 0.930 . S
C529 O542 1.281 . S
C529 O543 1.254 . S
C530 O544 1.236 . S
C530 O545 1.266 . S
C531 Tb521 2.809 . S
C531 C532 1.514 . S
C531 O546 1.248 . S
C531 O547 1.266 . S
C532 C531 1.514 . S
C532 C533 1.359 . S
C532 C537 1.348 . S
C533 C532 1.359 . S
C533 C534 1.380 . S
C533 H556 0.929 . S
C534 C533 1.380 . S
C534 C535 1.347 . S
C534 H557 0.931 . S
C535 C534 1.347 . S
C535 C536 1.369 . S
C536 C535 1.369 . S
C536 C537 1.408 . S
C536 H558 0.930 . S
C537 C532 1.348 . S
C537 C536 1.408 . S
C537 H559 0.930 . S
C538 O548 1.281 . S
C538 O549 1.254 . S
C539 O550 1.236 . S
C539 O551 1.266 . S
O540 Tb520 2.484 . S
O540 C522 1.248 . S
O541 Tb520 2.440 . S
O541 C522 1.266 . S
O542 Tb520 2.658 1_565 S
O542 Tb521 2.325 1_554 S
O542 C529 1.281 . S
O543 Tb520 2.409 1_565 S
O543 C529 1.254 . S
O544 Tb520 2.378 . S
O544 C530 1.236 . S
O545 Tb521 2.341 1_544 S
O545 C530 1.266 . S
O546 Tb521 2.484 . S
O546 C531 1.248 . S
O547 Tb521 2.440 . S
O547 C531 1.266 . S
O548 Tb520 2.325 1_556 S
O548 Tb521 2.658 1_545 S
O548 C538 1.281 . S
O549 Tb521 2.409 1_545 S
O549 C538 1.254 . S
O550 Tb521 2.378 . S
O550 C539 1.236 . S
O551 Tb520 2.341 1_566 S
O551 C539 1.266 . S
H552 C524 0.929 . S
H553 C525 0.931 . S
H554 C527 0.930 . S
H555 C528 0.930 . S
H556 C533 0.929 . S
H557 C534 0.931 . S
H558 C536 0.930 . S
H559 C537 0.930 . S
Tb560 C562 2.809 . S
Tb560 O580 2.484 . S
Tb560 O581 2.440 . S
Tb560 O582 2.658 . S
Tb560 O583 2.409 . S
Tb560 O584 2.378 . S
Tb560 O588 2.325 . S
Tb560 O591 2.341 . S
Tb561 C571 2.809 . S
Tb561 O582 2.325 . S
Tb561 O585 2.341 . S
Tb561 O586 2.484 . S
Tb561 O587 2.440 . S
Tb561 O588 2.658 . S
Tb561 O589 2.409 . S
Tb561 O590 2.378 . S
C562 Tb560 2.809 . S
C562 C563 1.514 . S
C562 O580 1.248 . S
C562 O581 1.266 . S
C563 C562 1.514 . S
C563 C564 1.359 . S
C563 C568 1.348 . S
C564 C563 1.359 . S
C564 C565 1.380 . S
C564 H592 0.929 . S
C565 C564 1.380 . S
C565 C566 1.347 . S
C565 H593 0.931 . S
C566 C565 1.347 . S
C566 C567 1.369 . S
C567 C566 1.369 . S
C567 C568 1.408 . S
C567 H594 0.930 . S
C568 C563 1.348 . S
C568 C567 1.408 . S
C568 H595 0.930 . S
C569 O582 1.281 . S
C569 O583 1.254 . S
C570 O584 1.236 . S
C570 O585 1.266 . S
C571 Tb561 2.809 . S
C571 C572 1.514 . S
C571 O586 1.248 . S
C571 O587 1.266 . S
C572 C571 1.514 . S
C572 C573 1.359 . S
C572 C577 1.348 . S
C573 C572 1.359 . S
C573 C574 1.380 . S
C573 H596 0.929 . S
C574 C573 1.380 . S
C574 C575 1.347 . S
C574 H597 0.931 . S
C575 C574 1.347 . S
C575 C576 1.369 . S
C576 C575 1.369 . S
C576 C577 1.408 . S
C576 H598 0.930 . S
C577 C572 1.348 . S
C577 C576 1.408 . S
C577 H599 0.930 . S
C578 O588 1.281 . S
C578 O589 1.254 . S
C579 O590 1.236 . S
C579 O591 1.266 . S
O580 Tb560 2.484 . S
O580 C562 1.248 . S
O581 Tb560 2.440 . S
O581 C562 1.266 . S
O582 Tb560 2.658 . S
O582 Tb561 2.325 . S
O582 C569 1.281 . S
O583 Tb560 2.409 . S
O583 C569 1.254 . S
O584 Tb560 2.378 . S
O584 C570 1.236 . S
O585 Tb561 2.341 . S
O585 C570 1.266 . S
O586 Tb561 2.484 . S
O586 C571 1.248 . S
O587 Tb561 2.440 . S
O587 C571 1.266 . S
O588 Tb560 2.325 . S
O588 Tb561 2.658 . S
O588 C578 1.281 . S
O589 Tb561 2.409 . S
O589 C578 1.254 . S
O590 Tb561 2.378 . S
O590 C579 1.236 . S
O591 Tb560 2.341 . S
O591 C579 1.266 . S
H592 C564 0.929 . S
H593 C565 0.931 . S
H594 C567 0.930 . S
H595 C568 0.930 . S
H596 C573 0.929 . S
H597 C574 0.931 . S
H598 C576 0.930 . S
H599 C577 0.930 . S
Tb600 C602 2.809 . S
Tb600 O620 2.484 . S
Tb600 O621 2.440 . S
Tb600 O622 2.658 1_656 S
Tb600 O623 2.409 1_656 S
Tb600 O624 2.378 1_556 S
Tb600 O628 2.325 . S
Tb600 O631 2.341 1_655 S
Tb601 C611 2.809 . S
Tb601 O622 2.325 . S
Tb601 O625 2.341 1_455 S
Tb601 O626 2.484 . S
Tb601 O627 2.440 . S
Tb601 O628 2.658 1_454 S
Tb601 O629 2.409 1_454 S
Tb601 O630 2.378 1_554 S
C602 Tb600 2.809 . S
C602 C603 1.514 . S
C602 O620 1.248 . S
C602 O621 1.266 . S
C603 C602 1.514 . S
C603 C604 1.359 . S
C603 C608 1.348 . S
C604 C603 1.359 . S
C604 C605 1.380 . S
C604 H632 0.929 . S
C605 C604 1.380 . S
C605 C606 1.347 . S
C605 H633 0.931 . S
C606 C605 1.347 . S
C606 C607 1.369 . S
C607 C606 1.369 . S
C607 C608 1.408 . S
C607 H634 0.930 . S
C608 C603 1.348 . S
C608 C607 1.408 . S
C608 H635 0.930 . S
C609 O622 1.281 . S
C609 O623 1.254 . S
C610 O624 1.236 . S
C610 O625 1.266 . S
C611 Tb601 2.809 . S
C611 C612 1.514 . S
C611 O626 1.248 . S
C611 O627 1.266 . S
C612 C611 1.514 . S
C612 C613 1.359 . S
C612 C617 1.348 . S
C613 C612 1.359 . S
C613 C614 1.380 . S
C613 H636 0.929 . S
C614 C613 1.380 . S
C614 C615 1.347 . S
C614 H637 0.931 . S
C615 C614 1.347 . S
C615 C616 1.369 . S
C616 C615 1.369 . S
C616 C617 1.408 . S
C616 H638 0.930 . S
C617 C612 1.348 . S
C617 C616 1.408 . S
C617 H639 0.930 . S
C618 O628 1.281 . S
C618 O629 1.254 . S
C619 O630 1.236 . S
C619 O631 1.266 . S
O620 Tb600 2.484 . S
O620 C602 1.248 . S
O621 Tb600 2.440 . S
O621 C602 1.266 . S
O622 Tb600 2.658 1_454 S
O622 Tb601 2.325 . S
O622 C609 1.281 . S
O623 Tb600 2.409 1_454 S
O623 C609 1.254 . S
O624 Tb600 2.378 1_554 S
O624 C610 1.236 . S
O625 Tb601 2.341 1_655 S
O625 C610 1.266 . S
O626 Tb601 2.484 . S
O626 C611 1.248 . S
O627 Tb601 2.440 . S
O627 C611 1.266 . S
O628 Tb600 2.325 . S
O628 Tb601 2.658 1_656 S
O628 C618 1.281 . S
O629 Tb601 2.409 1_656 S
O629 C618 1.254 . S
O630 Tb601 2.378 1_556 S
O630 C619 1.236 . S
O631 Tb600 2.341 1_455 S
O631 C619 1.266 . S
H632 C604 0.929 . S
H633 C605 0.931 . S
H634 C607 0.930 . S
H635 C608 0.930 . S
H636 C613 0.929 . S
H637 C614 0.931 . S
H638 C616 0.930 . S
H639 C617 0.930 . S
C1 C495 1.970 . S
C80 C535 2.687 . S
C569 C140 3.515 . S
C211 C610 3.852 . S
C530 C31 2.861 . S
C490 C61 4.304 1_455 S
C618 C151 2.333 . S
C579 C200 2.872 . S
C20 C615 3.709 . S
C538 C121 2.990 . S
C181 C498 3.345 . S
C91 C566 3.508 . S
C486 C260 2.359 . S
C320 C526 2.688 . S
C361 C578 3.458 . S
C451 C619 3.853 . S
C271 C539 3.022 . S
C499 C301 4.304 1_655 S
C609 C380 2.251 . S
C570 C440 2.872 . S
C241 C606 3.560 . S
C529 C391 2.951 . S
C489 C421 3.344 . S
C331 C575 3.508 . S
