# Generated by pormake.
# Topology cml, (3,6)-cn, num edge types: 1
# Building blocks:
#     Node 0, Type 0, BuildingBlock: VETTIZ_charged_linker_0, # of connection points: 3
#     Node 1, Type 0, BuildingBlock: VETTIZ_charged_linker_0, # of connection points: 3
#     Node 2, Type 0, BuildingBlock: VETTIZ_charged_linker_0, # of connection points: 3
#     Node 3, Type 0, BuildingBlock: VETTIZ_charged_linker_0, # of connection points: 3
#     Node 4, Type 0, BuildingBlock: VETTIZ_charged_linker_0, # of connection points: 3
#     Node 5, Type 0, BuildingBlock: VETTIZ_charged_linker_0, # of connection points: 3
#     Node 6, Type 0, BuildingBlock: VETTIZ_charged_linker_0, # of connection points: 3
#     Node 7, Type 0, BuildingBlock: VETTIZ_charged_linker_0, # of connection points: 3
#     Node 8, Type 1, BuildingBlock: IZENUY_clean_sbu_0, # of connection points: 6
#     Node 9, Type 1, BuildingBlock: IZENUY_clean_sbu_0, # of connection points: 6
#     Node 10, Type 1, BuildingBlock: IZENUY_clean_sbu_0, # of connection points: 6
#     Node 11, Type 1, BuildingBlock: IZENUY_clean_sbu_0, # of connection points: 6
#     Edge 12, Type (0, 1), BuildingBlock: UVAHIK_clean_linker_0, # of connection points: 2
#     Edge 13, Type (0, 1), BuildingBlock: UVAHIK_clean_linker_0, # of connection points: 2
#     Edge 14, Type (0, 1), BuildingBlock: UVAHIK_clean_linker_0, # of connection points: 2
#     Edge 15, Type (0, 1), BuildingBlock: UVAHIK_clean_linker_0, # of connection points: 2
#     Edge 16, Type (0, 1), BuildingBlock: UVAHIK_clean_linker_0, # of connection points: 2
#     Edge 17, Type (0, 1), BuildingBlock: UVAHIK_clean_linker_0, # of connection points: 2
#     Edge 18, Type (0, 1), BuildingBlock: UVAHIK_clean_linker_0, # of connection points: 2
#     Edge 19, Type (0, 1), BuildingBlock: UVAHIK_clean_linker_0, # of connection points: 2
#     Edge 20, Type (0, 1), BuildingBlock: UVAHIK_clean_linker_0, # of connection points: 2
#     Edge 21, Type (0, 1), BuildingBlock: UVAHIK_clean_linker_0, # of connection points: 2
#     Edge 22, Type (0, 1), BuildingBlock: UVAHIK_clean_linker_0, # of connection points: 2
#     Edge 23, Type (0, 1), BuildingBlock: UVAHIK_clean_linker_0, # of connection points: 2
#     Edge 24, Type (0, 1), BuildingBlock: UVAHIK_clean_linker_0, # of connection points: 2
#     Edge 25, Type (0, 1), BuildingBlock: UVAHIK_clean_linker_0, # of connection points: 2
#     Edge 26, Type (0, 1), BuildingBlock: UVAHIK_clean_linker_0, # of connection points: 2
#     Edge 27, Type (0, 1), BuildingBlock: UVAHIK_clean_linker_0, # of connection points: 2
#     Edge 28, Type (0, 1), BuildingBlock: UVAHIK_clean_linker_0, # of connection points: 2
#     Edge 29, Type (0, 1), BuildingBlock: UVAHIK_clean_linker_0, # of connection points: 2
#     Edge 30, Type (0, 1), BuildingBlock: UVAHIK_clean_linker_0, # of connection points: 2
#     Edge 31, Type (0, 1), BuildingBlock: UVAHIK_clean_linker_0, # of connection points: 2
#     Edge 32, Type (0, 1), BuildingBlock: UVAHIK_clean_linker_0, # of connection points: 2
#     Edge 33, Type (0, 1), BuildingBlock: UVAHIK_clean_linker_0, # of connection points: 2
#     Edge 34, Type (0, 1), BuildingBlock: UVAHIK_clean_linker_0, # of connection points: 2
#     Edge 35, Type (0, 1), BuildingBlock: UVAHIK_clean_linker_0, # of connection points: 2
# Relax obj value: 0.059
# Max RMSD: 0.074
# Mean RMSD: 0.071
data_MOF--net-cml--node1-IZENUY_clean_sbu_0--node2-VETTIZ_charged_linker_0--edge1-UVAHIK_clean_linker_0
_symmetry_space_group_name_H-M    P1
_symmetry_Int_Tables_number       1
_symmetry_cell_setting            triclinic
loop_
_symmetry_equiv_pos_as_xyz
'x, y, z'
_cell_length_a     53.199872
_cell_length_b     62.021592
_cell_length_c     57.664448
_cell_angle_alpha  89.995355
_cell_angle_beta   90.01778
_cell_angle_gamma 90.109989
loop_
_atom_site_label
_atom_site_type_symbol
_atom_site_fract_x
_atom_site_fract_y
_atom_site_fract_z
_atom_type_partial_charge
C0 C 0.29378 0.37124 0.08633 0.0
C1 C 0.31091 0.3841 0.09881 0.0
C2 C 0.31853 0.40404 0.08939 0.0
C3 C 0.29319 0.39762 0.05519 0.0
C4 C 0.28512 0.37834 0.06466 0.0
C5 C 0.26699 0.36668 0.04896 0.0
H6 H 0.21144 0.35883 0.9437 0.0
C7 C 0.28169 0.39986 0.03201 0.0
C8 C 0.26617 0.38186 0.02827 0.0
H9 H 0.20139 0.31705 0.00319 0.0
H10 H 0.2291 0.33957 0.02563 0.0
H11 H 0.20429 0.4019 0.97243 0.0
H12 H 0.2705 0.36802 0.95009 0.0
H13 H 0.27537 0.39564 0.94484 0.0
H14 H 0.2499 0.3819 0.93048 0.0
H15 H 0.21535 0.4033 0.94309 0.0
H16 H 0.22656 0.42166 0.96511 0.0
C17 C 0.24122 0.36518 0.0614 0.0
C18 C 0.27861 0.3446 0.0426 0.0
C19 C 0.30715 0.46256 0.98034 0.0
C20 C 0.30127 0.46811 0.95733 0.0
C21 C 0.28382 0.45535 0.94501 0.0
C22 C 0.27286 0.43713 0.95525 0.0
C23 C 0.27945 0.43147 0.97806 0.0
C24 C 0.2961 0.44426 0.99029 0.0
C25 C 0.3012 0.43564 0.0142 0.0
C26 C 0.28483 0.41556 0.01431 0.0
C27 C 0.27226 0.41316 0.99307 0.0
C28 C 0.29209 0.45256 0.03209 0.0
C29 C 0.32957 0.4301 0.01578 0.0
C30 C 0.21488 0.35454 0.96162 0.0
C31 C 0.20427 0.33582 0.97143 0.0
C32 C 0.20969 0.33098 0.99485 0.0
C33 C 0.22566 0.34421 0.008 0.0
C34 C 0.23628 0.36264 0.99778 0.0
C35 C 0.23045 0.36774 0.9751 0.0
C36 C 0.24241 0.38853 0.96744 0.0
C37 C 0.25661 0.39495 0.9892 0.0
C38 C 0.25328 0.37956 0.00681 0.0
C39 C 0.22122 0.40476 0.96151 0.0
C40 C 0.26041 0.38347 0.94704 0.0
H41 H 0.31655 0.42607 0.06144 0.0
H42 H 0.2873 0.35598 0.09326 0.0
H43 H 0.29886 0.34647 0.03819 0.0
H44 H 0.26985 0.33708 0.02727 0.0
H45 H 0.27721 0.33316 0.05737 0.0
H46 H 0.23849 0.37885 0.07363 0.0
H47 H 0.23958 0.35001 0.07154 0.0
H48 H 0.2252 0.36633 0.04922 0.0
H49 H 0.32074 0.47181 0.9902 0.0
H50 H 0.27873 0.45942 0.92736 0.0
H51 H 0.25993 0.42798 0.94488 0.0
H52 H 0.27531 0.46135 0.02556 0.0
H53 H 0.30695 0.4647 0.03572 0.0
H54 H 0.28588 0.44522 0.04859 0.0
H55 H 0.33658 0.4236 0.99901 0.0
H56 H 0.33376 0.41737 0.02857 0.0
H57 H 0.3409 0.44464 0.02 0.0
H58 H 0.33188 0.41416 0.09852 0.0
C59 C 0.30975 0.41087 0.06773 0.0
C60 C 0.7858 0.64951 0.46005 0.0
C61 C 0.79398 0.66914 0.46971 0.0
C62 C 0.78543 0.67495 0.49201 0.0
C63 C 0.76097 0.64204 0.49447 0.0
C64 C 0.76934 0.63632 0.47264 0.0
C65 C 0.75844 0.61521 0.46464 0.0
H66 H 0.67931 0.53166 0.48392 0.0
C67 C 0.74379 0.62495 0.50273 0.0
C68 C 0.74222 0.60918 0.48529 0.0
H69 H 0.72547 0.54331 0.42344 0.0
H70 H 0.74251 0.57534 0.44136 0.0
H71 H 0.72244 0.5427 0.52105 0.0
H72 H 0.66213 0.57961 0.49145 0.0
H73 H 0.66327 0.58605 0.52108 0.0
H74 H 0.65705 0.55864 0.51238 0.0
H75 H 0.6904 0.53928 0.53004 0.0
H76 H 0.71076 0.559 0.54343 0.0
C77 C 0.78032 0.59908 0.4611 0.0
C78 C 0.74254 0.61953 0.4426 0.0
C79 C 0.70193 0.6314 0.58186 0.0
C80 C 0.68498 0.61804 0.59393 0.0
C81 C 0.67701 0.59861 0.58352 0.0
C82 C 0.68568 0.59257 0.56157 0.0
C83 C 0.7025 0.60608 0.5497 0.0
C84 C 0.71047 0.62508 0.55987 0.0
C85 C 0.72843 0.63733 0.54456 0.0
C86 C 0.72987 0.62251 0.5236 0.0
C87 C 0.71456 0.60431 0.52673 0.0
C88 C 0.75399 0.639 0.55732 0.0
C89 C 0.71632 0.65933 0.53851 0.0
C90 C 0.69338 0.54088 0.47463 0.0
C91 C 0.70099 0.5349 0.45217 0.0
C92 C 0.71902 0.54768 0.44061 0.0
C93 C 0.72896 0.56625 0.45109 0.0
C94 C 0.72073 0.57221 0.47336 0.0
C95 C 0.70346 0.55944 0.48482 0.0
C96 C 0.69686 0.56815 0.50836 0.0
C97 C 0.71277 0.58846 0.50904 0.0
C98 C 0.72664 0.59081 0.48849 0.0
C99 C 0.70531 0.55147 0.52681 0.0
C100 C 0.66834 0.5733 0.50858 0.0
H101 H 0.7632 0.66692 0.52125 0.0
H102 H 0.79218 0.64438 0.4431 0.0
H103 H 0.73285 0.63538 0.44378 0.0
H104 H 0.72727 0.60769 0.44011 0.0
H105 H 0.75453 0.61982 0.42684 0.0
H106 H 0.79522 0.60155 0.47439 0.0
H107 H 0.78911 0.60117 0.44377 0.0
H108 H 0.77445 0.58211 0.46317 0.0
H109 H 0.70855 0.64636 0.58941 0.0
H110 H 0.66361 0.58819 0.59218 0.0
H111 H 0.67874 0.57766 0.55464 0.0
H112 H 0.75808 0.62388 0.56699 0.0
H113 H 0.75392 0.65245 0.57004 0.0
H114 H 0.77005 0.64108 0.54542 0.0
H115 H 0.69557 0.65777 0.53676 0.0
H116 H 0.72264 0.6658 0.52165 0.0
H117 H 0.72011 0.67146 0.55225 0.0
H118 H 0.79108 0.69011 0.49977 0.0
C119 C 0.76906 0.66152 0.50443 0.0
C120 C 0.70838 0.45704 0.961 0.0
C121 C 0.69041 0.47109 0.97058 0.0
C122 C 0.6815 0.46711 0.99322 0.0
C123 C 0.7074 0.43517 0.99594 0.0
C124 C 0.71656 0.43924 0.97395 0.0
C125 C 0.73507 0.42236 0.96623 0.0
H126 H 0.79041 0.32589 0.98519 0.0
C127 C 0.71872 0.4149 0.00431 0.0
C128 C 0.73501 0.4073 0.98703 0.0
H129 H 0.80168 0.36943 0.92737 0.0
H130 H 0.77347 0.39499 0.94477 0.0
H131 H 0.79598 0.36298 0.02349 0.0
H132 H 0.73099 0.33343 0.99209 0.0
H133 H 0.72573 0.33529 0.02216 0.0
H134 H 0.75153 0.31933 0.01159 0.0
H135 H 0.78555 0.33647 0.03148 0.0
H136 H 0.77316 0.36033 0.04527 0.0
C137 C 0.76099 0.43335 0.96272 0.0
C138 C 0.72438 0.41134 0.94423 0.0
C139 C 0.69234 0.38472 0.08236 0.0
C140 C 0.6986 0.3659 0.09467 0.0
C141 C 0.71583 0.35131 0.08474 0.0
C142 C 0.7266 0.35544 0.06295 0.0
C143 C 0.72005 0.37434 0.05089 0.0
C144 C 0.70325 0.38861 0.06072 0.0
C145 C 0.69825 0.40778 0.04549 0.0
C146 C 0.71503 0.40282 0.02494 0.0
C147 C 0.72766 0.38318 0.0281 0.0
C148 C 0.70696 0.4283 0.05858 0.0
C149 C 0.66999 0.40753 0.03882 0.0
C150 C 0.78709 0.34098 0.97629 0.0
C151 C 0.79818 0.34535 0.9546 0.0
C152 C 0.79298 0.36526 0.94374 0.0
C153 C 0.77671 0.38023 0.95397 0.0
C154 C 0.76552 0.37542 0.97541 0.0
C155 C 0.77115 0.35625 0.98641 0.0
C156 C 0.75854 0.35436 0.00968 0.0
C157 C 0.74402 0.37537 0.01058 0.0
C158 C 0.74793 0.38751 0.99032 0.0
C159 C 0.77922 0.35332 0.02858 0.0
C160 C 0.74083 0.33452 0.00908 0.0
H161 H 0.68214 0.44712 0.02291 0.0
H162 H 0.71582 0.45975 0.94376 0.0
H163 H 0.7039 0.40816 0.94625 0.0
H164 H 0.73287 0.39549 0.94066 0.0
H165 H 0.72691 0.42176 0.92874 0.0
H166 H 0.76326 0.44752 0.97438 0.0
H167 H 0.76331 0.43912 0.94461 0.0
H168 H 0.77686 0.42263 0.96722 0.0
H169 H 0.67879 0.39608 0.08918 0.0
H170 H 0.72113 0.33677 0.0939 0.0
H171 H 0.73953 0.34372 0.0563 0.0
H172 H 0.72403 0.42497 0.06915 0.0
H173 H 0.69212 0.4342 0.07053 0.0
H174 H 0.71258 0.44153 0.04683 0.0
H175 H 0.66281 0.39073 0.03728 0.0
H176 H 0.66625 0.41481 0.02169 0.0
H177 H 0.65844 0.41586 0.05211 0.0
H178 H 0.66739 0.47744 0.00093 0.0
C179 C 0.68992 0.44933 0.00592 0.0
C180 C 0.21396 0.64173 0.46179 0.0
C181 C 0.20524 0.66093 0.472 0.0
C182 C 0.21265 0.66583 0.49491 0.0
C183 C 0.23776 0.63331 0.49657 0.0
C184 C 0.23003 0.6282 0.47436 0.0
C185 C 0.24114 0.60732 0.46598 0.0
H186 H 0.32039 0.52381 0.48436 0.0
C187 C 0.255 0.61621 0.50458 0.0
C188 C 0.25686 0.6008 0.4868 0.0
H189 H 0.27564 0.53669 0.42334 0.0
H190 H 0.25756 0.5679 0.44201 0.0
H191 H 0.33734 0.57087 0.49221 0.0
H192 H 0.27655 0.53461 0.52211 0.0
H193 H 0.28951 0.5502 0.54457 0.0
H194 H 0.30876 0.53038 0.5301 0.0
H195 H 0.34229 0.55068 0.51401 0.0
H196 H 0.33593 0.57837 0.52147 0.0
C197 C 0.2576 0.61223 0.44444 0.0
C198 C 0.21936 0.59124 0.46147 0.0
C199 C 0.30072 0.62407 0.58171 0.0
C200 C 0.31901 0.61137 0.59283 0.0
C201 C 0.3257 0.59137 0.583 0.0
C202 C 0.31508 0.58447 0.56208 0.0
C203 C 0.29763 0.59771 0.55067 0.0
C204 C 0.29037 0.61696 0.56067 0.0
C205 C 0.27155 0.62885 0.54595 0.0
C206 C 0.26921 0.61376 0.52528 0.0
C207 C 0.28463 0.59563 0.52815 0.0
C208 C 0.28321 0.65086 0.53909 0.0
C209 C 0.24661 0.63052 0.55971 0.0
C210 C 0.30631 0.53308 0.47517 0.0
C211 C 0.2994 0.52774 0.45236 0.0
C212 C 0.28143 0.54057 0.44086 0.0
C213 C 0.27094 0.55867 0.45175 0.0
C214 C 0.27864 0.56415 0.47434 0.0
C215 C 0.29583 0.55126 0.48572 0.0
C216 C 0.30245 0.5598 0.50933 0.0
C217 C 0.2864 0.57996 0.51029 0.0
C218 C 0.27252 0.58248 0.48975 0.0
C219 C 0.33097 0.56512 0.50953 0.0
C220 C 0.29413 0.54292 0.52761 0.0
H221 H 0.23382 0.65688 0.5245 0.0
H222 H 0.20883 0.63749 0.44419 0.0
H223 H 0.20408 0.59339 0.47443 0.0
H224 H 0.22515 0.57423 0.46327 0.0
H225 H 0.21108 0.5937 0.44399 0.0
H226 H 0.26749 0.62795 0.44643 0.0
H227 H 0.24598 0.61314 0.42847 0.0
H228 H 0.27273 0.60035 0.44178 0.0
H229 H 0.29522 0.63953 0.58879 0.0
H230 H 0.33935 0.58109 0.59146 0.0
H231 H 0.32123 0.56923 0.55542 0.0
H232 H 0.30346 0.64899 0.53472 0.0
H233 H 0.28182 0.66261 0.55357 0.0
H234 H 0.27458 0.658 0.5235 0.0
H235 H 0.24402 0.61637 0.57134 0.0
H236 H 0.22987 0.6304 0.54836 0.0
H237 H 0.24629 0.64522 0.57071 0.0
H238 H 0.20584 0.68024 0.50344 0.0
C239 C 0.2288 0.65216 0.50721 0.0
C240 C 0.79903 0.87162 0.08513 0.0
C241 C 0.81552 0.88525 0.09735 0.0
C242 C 0.82285 0.90499 0.08727 0.0
C243 C 0.79822 0.89697 0.05303 0.0
C244 C 0.79048 0.87787 0.06313 0.0
C245 C 0.77259 0.86554 0.04781 0.0
H246 H 0.71312 0.85578 0.94448 0.0
C247 C 0.78664 0.89843 0.02981 0.0
C248 C 0.7714 0.88018 0.02669 0.0
H249 H 0.70787 0.8138 0.00425 0.0
H250 H 0.73611 0.83692 0.02542 0.0
H251 H 0.70835 0.89991 0.97354 0.0
H252 H 0.77248 0.86484 0.94805 0.0
H253 H 0.77784 0.89237 0.94282 0.0
H254 H 0.75147 0.87918 0.92922 0.0
H255 H 0.71656 0.8994 0.94335 0.0
H256 H 0.73004 0.91891 0.96299 0.0
C257 C 0.74689 0.86395 0.06039 0.0
C258 C 0.78473 0.8435 0.04206 0.0
C259 C 0.81075 0.96013 0.97647 0.0
C260 C 0.80428 0.96549 0.95354 0.0
C261 C 0.78675 0.95243 0.94166 0.0
C262 C 0.77618 0.93421 0.95234 0.0
C263 C 0.78322 0.92891 0.97515 0.0
C264 C 0.80005 0.94193 0.98686 0.0
C265 C 0.80549 0.93389 0.01092 0.0
C266 C 0.7893 0.91376 0.01169 0.0
C267 C 0.77637 0.91085 0.9907 0.0
C268 C 0.79649 0.95117 0.02848 0.0
C269 C 0.83391 0.92852 0.01236 0.0
C270 C 0.71783 0.85164 0.9622 0.0
C271 C 0.70831 0.83277 0.97257 0.0
C272 C 0.71526 0.82797 0.99562 0.0
C273 C 0.73154 0.84152 0.00799 0.0
C274 C 0.74104 0.86017 0.9973 0.0
C275 C 0.73398 0.86507 0.97485 0.0
C276 C 0.7456 0.88578 0.96643 0.0
C277 C 0.76075 0.89249 0.98755 0.0
C278 C 0.75816 0.87733 0.00551 0.0
C279 C 0.72417 0.90192 0.96109 0.0
C280 C 0.76266 0.88048 0.94543 0.0
H281 H 0.82085 0.926 0.05845 0.0
H282 H 0.79282 0.85648 0.09259 0.0
H283 H 0.80513 0.84549 0.03835 0.0
H284 H 0.77677 0.83587 0.02642 0.0
H285 H 0.78285 0.83214 0.05685 0.0
H286 H 0.74374 0.87811 0.07187 0.0
H287 H 0.74582 0.84925 0.07135 0.0
H288 H 0.7308 0.86413 0.04825 0.0
H289 H 0.82442 0.96956 0.98603 0.0
H290 H 0.78119 0.95631 0.92408 0.0
H291 H 0.76308 0.92488 0.94235 0.0
H292 H 0.78024 0.96042 0.02153 0.0
H293 H 0.81168 0.96292 0.03246 0.0
H294 H 0.78948 0.94408 0.04485 0.0
H295 H 0.84054 0.92105 0.99592 0.0
H296 H 0.83845 0.91665 0.02595 0.0
H297 H 0.84526 0.94332 0.01533 0.0
H298 H 0.83572 0.91567 0.09625 0.0
C299 C 0.81432 0.9109 0.06523 0.0
C300 C 0.28967 0.14829 0.4622 0.0
C301 C 0.30138 0.16623 0.4726 0.0
C302 C 0.29682 0.17033 0.49632 0.0
C303 C 0.26873 0.13959 0.49841 0.0
C304 C 0.27377 0.13516 0.47541 0.0
C305 C 0.2605 0.11519 0.46706 0.0
H306 H 0.17717 0.03506 0.48738 0.0
C307 C 0.25097 0.12307 0.50699 0.0
C308 C 0.24638 0.10856 0.48877 0.0
H309 H 0.21924 0.04734 0.42462 0.0
H310 H 0.2406 0.0771 0.44322 0.0
H311 H 0.22263 0.04117 0.52196 0.0
H312 H 0.16508 0.08468 0.49873 0.0
H313 H 0.16833 0.08822 0.5288 0.0
H314 H 0.15902 0.06229 0.51767 0.0
H315 H 0.19133 0.04027 0.53348 0.0
H316 H 0.21526 0.05748 0.54587 0.0
C317 C 0.28062 0.09834 0.46006 0.0
C318 C 0.24243 0.12177 0.44721 0.0
C319 C 0.21253 0.13007 0.58748 0.0
C320 C 0.19493 0.11747 0.59969 0.0
C321 C 0.18599 0.09824 0.58957 0.0
C322 C 0.19389 0.09192 0.56746 0.0
C323 C 0.2109 0.10497 0.55519 0.0
C324 C 0.22032 0.12347 0.56536 0.0
C325 C 0.23882 0.13492 0.54988 0.0
C326 C 0.23834 0.12054 0.52853 0.0
C327 C 0.22177 0.10315 0.53172 0.0
C328 C 0.26488 0.13482 0.56192 0.0
C329 C 0.22841 0.15771 0.5447 0.0
C330 C 0.19092 0.04423 0.47762 0.0
C331 C 0.19638 0.03901 0.45445 0.0
C332 C 0.21479 0.05102 0.44252 0.0
C333 C 0.22706 0.06836 0.45332 0.0
C334 C 0.22089 0.07372 0.47633 0.0
C335 C 0.20336 0.06152 0.48817 0.0
C336 C 0.19933 0.06935 0.51254 0.0
C337 C 0.21723 0.0884 0.51336 0.0
C338 C 0.22962 0.091 0.49206 0.0
C339 C 0.20733 0.05118 0.52948 0.0
C340 C 0.1715 0.07642 0.5148 0.0
H341 H 0.27777 0.16123 0.52711 0.0
H342 H 0.29246 0.1446 0.44403 0.0
H343 H 0.23296 0.13729 0.45131 0.0
H344 H 0.22705 0.11011 0.44443 0.0
H345 H 0.2528 0.12392 0.43065 0.0
H346 H 0.29803 0.10024 0.47057 0.0
H347 H 0.28594 0.10006 0.44152 0.0
H348 H 0.27448 0.08157 0.46333 0.0
H349 H 0.22001 0.14477 0.59495 0.0
H350 H 0.17227 0.08835 0.5985 0.0
H351 H 0.1861 0.07728 0.56064 0.0
H352 H 0.26701 0.12058 0.57349 0.0
H353 H 0.26762 0.14948 0.57269 0.0
H354 H 0.28057 0.13345 0.54943 0.0
H355 H 0.20799 0.1569 0.54063 0.0
H356 H 0.23725 0.16541 0.52952 0.0
H357 H 0.23083 0.16851 0.55992 0.0
H358 H 0.30599 0.18364 0.50507 0.0
C359 C 0.28054 0.15718 0.50922 0.0
C360 C 0.2051 0.95605 0.96388 0.0
C361 C 0.18905 0.97106 0.97458 0.0
C362 C 0.18207 0.96785 0.99791 0.0
C363 C 0.20615 0.93477 0.99921 0.0
C364 C 0.21347 0.93815 0.97651 0.0
C365 C 0.23049 0.92058 0.96778 0.0
H366 H 0.29402 0.82795 0.98819 0.0
C367 C 0.21756 0.91438 0.0072 0.0
C368 C 0.23201 0.90606 0.98895 0.0
H369 H 0.29068 0.86478 0.92468 0.0
H370 H 0.26274 0.89043 0.94278 0.0
H371 H 0.29617 0.86878 0.02462 0.0
H372 H 0.23542 0.83027 0.99747 0.0
H373 H 0.22825 0.83586 0.02653 0.0
H374 H 0.25598 0.82038 0.01972 0.0
H375 H 0.29194 0.8408 0.03164 0.0
H376 H 0.27605 0.86164 0.04767 0.0
C377 C 0.25626 0.93087 0.96186 0.0
C378 C 0.21735 0.90927 0.94707 0.0
C379 C 0.19589 0.88551 0.08698 0.0
C380 C 0.20257 0.86673 0.09917 0.0
C381 C 0.21989 0.85236 0.08901 0.0
C382 C 0.2301 0.85652 0.06698 0.0
C383 C 0.2228 0.8752 0.05489 0.0
C384 C 0.20614 0.88939 0.06506 0.0
C385 C 0.20025 0.90832 0.04975 0.0
C386 C 0.21572 0.90296 0.02846 0.0
C387 C 0.22891 0.88358 0.03151 0.0
C388 C 0.20975 0.92907 0.06199 0.0
C389 C 0.17166 0.90803 0.04453 0.0
C390 C 0.28739 0.84169 0.97834 0.0
C391 C 0.29463 0.84458 0.95512 0.0
C392 C 0.28526 0.86232 0.9426 0.0
C393 C 0.26913 0.87719 0.95317 0.0
C394 C 0.26205 0.87416 0.97643 0.0
C395 C 0.27092 0.85651 0.98855 0.0
C396 C 0.26017 0.85522 0.01266 0.0
C397 C 0.24399 0.87535 0.01322 0.0
C398 C 0.24533 0.88644 0.99201 0.0
C399 C 0.28212 0.85653 0.03022 0.0
C400 C 0.24423 0.83433 0.01443 0.0
H401 H 0.18426 0.9482 0.02784 0.0
H402 H 0.21101 0.95817 0.94605 0.0
H403 H 0.19656 0.90934 0.94921 0.0
H404 H 0.22231 0.89203 0.9456 0.0
H405 H 0.22173 0.91751 0.93045 0.0
H406 H 0.26142 0.94333 0.97492 0.0
H407 H 0.25577 0.93882 0.94461 0.0
H408 H 0.27189 0.9192 0.96219 0.0
H409 H 0.18234 0.89675 0.09403 0.0
H410 H 0.22557 0.83789 0.0981 0.0
H411 H 0.24313 0.84497 0.06015 0.0
H412 H 0.22637 0.92567 0.07312 0.0
H413 H 0.19495 0.93611 0.07325 0.0
H414 H 0.21638 0.94146 0.04963 0.0
H415 H 0.16486 0.89122 0.04193 0.0
H416 H 0.16666 0.91656 0.02839 0.0
H417 H 0.1608 0.9151 0.0591 0.0
H418 H 0.16951 0.97903 0.00648 0.0
C419 C 0.19053 0.94983 0.01026 0.0
C420 C 0.71649 0.1446 0.46136 0.0
C421 C 0.70656 0.16334 0.47162 0.0
C422 C 0.71269 0.16797 0.49491 0.0
C423 C 0.73866 0.13596 0.49698 0.0
C424 C 0.73231 0.13118 0.47432 0.0
C425 C 0.74436 0.11065 0.46603 0.0
H426 H 0.82311 0.02723 0.48696 0.0
C427 C 0.75578 0.11895 0.50545 0.0
C428 C 0.75902 0.10395 0.48743 0.0
H429 H 0.7821 0.04084 0.42391 0.0
H430 H 0.76305 0.07193 0.442 0.0
H431 H 0.83947 0.07429 0.49656 0.0
H432 H 0.77707 0.0373 0.52224 0.0
H433 H 0.78839 0.05249 0.54573 0.0
H434 H 0.80873 0.03307 0.53193 0.0
H435 H 0.84308 0.0539 0.51836 0.0
H436 H 0.83598 0.08147 0.52577 0.0
C437 C 0.76191 0.11624 0.44544 0.0
C438 C 0.72323 0.09433 0.4601 0.0
C439 C 0.79512 0.12483 0.58579 0.0
C440 C 0.81228 0.11172 0.59788 0.0
C441 C 0.8205 0.09238 0.58751 0.0
C442 C 0.81211 0.08631 0.56548 0.0
C443 C 0.79538 0.09972 0.55344 0.0
C444 C 0.78692 0.1185 0.56367 0.0
C445 C 0.76905 0.13061 0.54817 0.0
C446 C 0.76862 0.11617 0.52686 0.0
C447 C 0.78416 0.09817 0.53008 0.0
C448 C 0.78076 0.15296 0.54289 0.0
C449 C 0.74307 0.13152 0.5603 0.0
C450 C 0.80966 0.03664 0.47716 0.0
C451 C 0.80407 0.03151 0.45398 0.0
C452 C 0.78689 0.04455 0.44173 0.0
C453 C 0.77581 0.06257 0.45228 0.0
C454 C 0.78206 0.06774 0.47533 0.0
C455 C 0.79857 0.05472 0.48739 0.0
C456 C 0.80357 0.06286 0.51149 0.0
C457 C 0.78733 0.08292 0.51197 0.0
C458 C 0.77479 0.08575 0.49076 0.0
C459 C 0.83198 0.06832 0.5134 0.0
C460 C 0.79418 0.04558 0.5289 0.0
H461 H 0.7326 0.1589 0.5252 0.0
H462 H 0.7124 0.14058 0.44347 0.0
H463 H 0.7072 0.09595 0.47236 0.0
H464 H 0.72929 0.07738 0.46175 0.0
H465 H 0.71588 0.09704 0.4423 0.0
H466 H 0.77139 0.13203 0.4483 0.0
H467 H 0.75118 0.11737 0.42896 0.0
H468 H 0.77737 0.10459 0.44321 0.0
H469 H 0.78824 0.13968 0.59333 0.0
H470 H 0.83402 0.08213 0.59618 0.0
H471 H 0.81933 0.07152 0.55855 0.0
H472 H 0.80133 0.1515 0.5398 0.0
H473 H 0.77802 0.16422 0.55766 0.0
H474 H 0.7732 0.16048 0.52702 0.0
H475 H 0.73982 0.11692 0.5711 0.0
H476 H 0.72725 0.13167 0.54787 0.0
H477 H 0.74166 0.14579 0.57185 0.0
H478 H 0.70495 0.18201 0.50346 0.0
C479 C 0.72864 0.15443 0.5076 0.0
Fe480 Fe 0.00365 0.81726 0.31956 0.0
Fe481 Fe 0.00653 0.84145 0.36599 0.0
O482 O 0.00519 0.84182 0.33534 0.0
Fe483 Fe 0.00529 0.86679 0.32053 0.0
O484 O 0.97514 0.86106 0.30749 0.0
O485 O 0.98412 0.82822 0.29591 0.0
O486 O 0.9746 0.80948 0.3339 0.0
C487 C 0.97206 0.808 0.3556 0.0
C488 C 0.03651 0.84044 0.29279 0.0
O489 O 0.98768 0.81688 0.36914 0.0
C490 C 0.04008 0.87514 0.35407 0.0
O491 O 0.02293 0.80194 0.34042 0.0
O492 O 0.03558 0.82637 0.3655 0.0
O493 O 0.02243 0.8567 0.29525 0.0
O494 O 0.03258 0.82335 0.30412 0.0
C495 C 0.97374 0.87468 0.35905 0.0
O496 O 0.02576 0.86591 0.36853 0.0
O497 O 0.0355 0.87426 0.33265 0.0
C498 C 0.03827 0.80828 0.35586 0.0
O499 O 0.97744 0.85657 0.3684 0.0
O500 O 0.98811 0.88144 0.34313 0.0
C501 C 0.97025 0.84481 0.29517 0.0
Fe502 Fe 0.00166 0.15914 0.86561 0.0
Fe503 Fe 0.00414 0.13222 0.82112 0.0
O504 O 0.00253 0.15772 0.83492 0.0
Fe505 Fe 0.00188 0.18167 0.81797 0.0
O506 O 0.03035 0.19183 0.83147 0.0
O507 O 0.01949 0.18436 0.86743 0.0
O508 O 0.03147 0.14531 0.86827 0.0
C509 C 0.03616 0.12701 0.85991 0.0
C510 C 0.9677 0.19054 0.85462 0.0
O511 O 0.02241 0.11913 0.84413 0.0
C512 C 0.97066 0.15564 0.79266 0.0
O513 O 0.98359 0.13409 0.8693 0.0
O514 O 0.97462 0.12372 0.8338 0.0
O515 O 0.98179 0.19672 0.83818 0.0
O516 O 0.97194 0.17319 0.86526 0.0
C517 C 0.03722 0.15517 0.79458 0.0
O518 O 0.98614 0.14042 0.79556 0.0
O519 O 0.9733 0.17329 0.80324 0.0
C520 C 0.96998 0.12358 0.85523 0.0
O521 O 0.03374 0.13907 0.80755 0.0
O522 O 0.02198 0.17088 0.79472 0.0
C523 C 0.03378 0.19367 0.85303 0.0
Fe524 Fe 0.50405 0.31717 0.31763 0.0
Fe525 Fe 0.50483 0.34146 0.36417 0.0
O526 O 0.50448 0.34176 0.33345 0.0
Fe527 Fe 0.5045 0.36674 0.31856 0.0
O528 O 0.47485 0.36052 0.30474 0.0
O529 O 0.48499 0.3278 0.29353 0.0
O530 O 0.47486 0.30874 0.33111 0.0
C531 C 0.47126 0.30763 0.35269 0.0
C532 C 0.53706 0.34085 0.29162 0.0
O533 O 0.48593 0.31687 0.36683 0.0
C534 C 0.53832 0.37546 0.35293 0.0
O535 O 0.52292 0.30213 0.33893 0.0
O536 O 0.53403 0.32652 0.36467 0.0
O537 O 0.52256 0.35688 0.29373 0.0
O538 O 0.53329 0.32377 0.30299 0.0
C539 C 0.4718 0.37437 0.35632 0.0
O540 O 0.52384 0.36603 0.36712 0.0
O541 O 0.53419 0.37463 0.33143 0.0
C542 C 0.53742 0.30853 0.35499 0.0
O543 O 0.47558 0.35635 0.36578 0.0
O544 O 0.4864 0.38125 0.34064 0.0
C545 C 0.47067 0.34411 0.29243 0.0
Fe546 Fe 0.49966 0.65908 0.86601 0.0
Fe547 Fe 0.5 0.63307 0.82092 0.0
O548 O 0.50033 0.6583 0.83531 0.0
Fe549 Fe 0.50137 0.68263 0.819 0.0
O550 O 0.52015 0.69757 0.84051 0.0
O551 O 0.52931 0.67335 0.86703 0.0
O552 O 0.51776 0.63421 0.86993 0.0
C553 C 0.53252 0.6244 0.85635 0.0
C554 C 0.46777 0.69354 0.85297 0.0
O555 O 0.52905 0.6248 0.83472 0.0
C556 C 0.46785 0.65597 0.79343 0.0
O557 O 0.4699 0.6448 0.86713 0.0
O558 O 0.48084 0.6193 0.8428 0.0
O559 O 0.4721 0.69204 0.83153 0.0
O560 O 0.48153 0.68409 0.86769 0.0
C561 C 0.53423 0.6577 0.79431 0.0
O562 O 0.47099 0.63968 0.80619 0.0
O563 O 0.48266 0.67199 0.79466 0.0
C564 C 0.46604 0.62661 0.85804 0.0
O565 O 0.51908 0.64208 0.79639 0.0
O566 O 0.53079 0.67508 0.8052 0.0
C567 C 0.53382 0.69102 0.85707 0.0
C568 C 0.17193 0.32995 0.94004 0.0
C569 C 0.18775 0.32143 0.95732 0.0
C570 C 0.15682 0.31642 0.92654 0.0
C571 C 0.14763 0.2584 0.91075 0.0
H572 H 0.08184 0.27837 0.89139 0.0
C573 C 0.06513 0.20333 0.88335 0.0
C574 C 0.05369 0.20801 0.86198 0.0
C575 C 0.08321 0.21719 0.89263 0.0
C576 C 0.1003 0.27272 0.89648 0.0
H577 H 0.19995 0.2917 0.97368 0.0
H578 H 0.17249 0.2684 0.9514 0.0
H579 H 0.10947 0.30254 0.91295 0.0
H580 H 0.05223 0.23071 0.83344 0.0
H581 H 0.08341 0.2555 0.85023 0.0
H582 H 0.13754 0.22811 0.89534 0.0
C583 C 0.17232 0.28551 0.94766 0.0
C584 C 0.11624 0.28657 0.90876 0.0
C585 C 0.18779 0.29899 0.96085 0.0
C586 C 0.06085 0.22672 0.84991 0.0
C587 C 0.07854 0.24089 0.8595 0.0
C588 C 0.13147 0.24445 0.89891 0.0
C589 C 0.15669 0.294 0.93022 0.0
C590 C 0.14008 0.27955 0.91625 0.0
C591 C 0.0898 0.23622 0.88096 0.0
C592 C 0.10764 0.25146 0.89181 0.0
H593 H 0.17098 0.34715 0.93697 0.0
H594 H 0.14536 0.32363 0.91311 0.0
H595 H 0.16603 0.25251 0.91564 0.0
H596 H 0.06006 0.18894 0.89293 0.0
H597 H 0.09157 0.21333 0.90926 0.0
C598 C 0.80841 0.68641 0.43252 0.0
C599 C 0.81122 0.68357 0.4566 0.0
C600 C 0.82447 0.7002 0.4203 0.0
C601 C 0.8664 0.74672 0.4286 0.0
H602 H 0.89683 0.72875 0.37064 0.0
C603 C 0.95066 0.79146 0.3898 0.0
C604 C 0.95202 0.79426 0.36564 0.0
C605 C 0.93209 0.77849 0.39962 0.0
C606 C 0.88818 0.73415 0.38661 0.0
H607 H 0.8336 0.69261 0.48654 0.0
H608 H 0.86133 0.71684 0.46528 0.0
H609 H 0.86701 0.70489 0.39025 0.0
H610 H 0.9347 0.78567 0.33284 0.0
H611 H 0.90193 0.76308 0.35014 0.0
H612 H 0.88745 0.77591 0.4251 0.0
C613 C 0.84649 0.7086 0.45592 0.0
C614 C 0.87116 0.72046 0.39786 0.0
C615 C 0.83056 0.69474 0.46811 0.0
C616 C 0.93423 0.7838 0.35151 0.0
C617 C 0.91553 0.77079 0.3614 0.0
C618 C 0.88326 0.76041 0.41733 0.0
C619 C 0.84356 0.71154 0.43191 0.0
C620 C 0.86043 0.72648 0.41917 0.0
C621 C 0.91425 0.76804 0.3856 0.0
C622 C 0.89471 0.75415 0.39642 0.0
H623 H 0.7935 0.6783 0.42315 0.0
H624 H 0.82164 0.7023 0.40183 0.0
H625 H 0.85803 0.75198 0.44476 0.0
H626 H 0.96408 0.79918 0.40125 0.0
H627 H 0.93198 0.77641 0.41827 0.0
C628 C 0.81526 0.32685 0.91904 0.0
C629 C 0.81495 0.32922 0.94333 0.0
C630 C 0.83086 0.31163 0.9085 0.0
C631 C 0.86126 0.26025 0.91809 0.0
H632 H 0.90889 0.27788 0.87086 0.0
C633 C 0.93935 0.20336 0.88629 0.0
C634 C 0.94791 0.20514 0.86333 0.0
C635 C 0.92195 0.21805 0.89511 0.0
C636 C 0.89538 0.27252 0.88366 0.0
H637 H 0.83141 0.31748 0.97544 0.0
H638 H 0.85773 0.29033 0.95699 0.0
H639 H 0.88061 0.30444 0.88782 0.0
H640 H 0.94425 0.22315 0.83132 0.0
H641 H 0.91302 0.24824 0.84634 0.0
H642 H 0.87526 0.22828 0.91364 0.0
C643 C 0.84585 0.30038 0.94623 0.0
C644 C 0.87932 0.28781 0.89347 0.0
C645 C 0.83063 0.31587 0.95677 0.0
C646 C 0.93816 0.22152 0.84916 0.0
C647 C 0.92038 0.236 0.85786 0.0
C648 C 0.87696 0.24486 0.908 0.0
C649 C 0.84612 0.29817 0.92203 0.0
C650 C 0.86237 0.28184 0.91096 0.0
C651 C 0.9123 0.23466 0.88107 0.0
C652 C 0.8945 0.25082 0.89085 0.0
H653 H 0.80314 0.33648 0.9081 0.0
H654 H 0.83065 0.31008 0.88979 0.0
H655 H 0.84809 0.25524 0.93138 0.0
H656 H 0.94667 0.19102 0.89772 0.0
H657 H 0.91665 0.21668 0.91317 0.0
C658 C 0.19198 0.69839 0.46088 0.0
C659 C 0.18879 0.67595 0.45881 0.0
C660 C 0.17645 0.71256 0.44872 0.0
C661 C 0.13447 0.71648 0.39815 0.0
H662 H 0.10708 0.76561 0.43106 0.0
C663 C 0.05662 0.77117 0.35974 0.0
C664 C 0.05749 0.79329 0.36505 0.0
C665 C 0.07353 0.75683 0.37006 0.0
C666 C 0.11485 0.75218 0.42147 0.0
H667 H 0.16664 0.65089 0.44224 0.0
H668 H 0.13971 0.67571 0.42078 0.0
H669 H 0.13471 0.74065 0.45125 0.0
H670 H 0.07762 0.81781 0.38447 0.0
H671 H 0.1074 0.79295 0.40198 0.0
H672 H 0.11473 0.72809 0.3683 0.0
C673 C 0.15439 0.68227 0.43174 0.0
C674 C 0.13065 0.73783 0.43309 0.0
C675 C 0.16985 0.66806 0.44402 0.0
C676 C 0.07623 0.80084 0.38022 0.0
C677 C 0.09322 0.78654 0.39038 0.0
C678 C 0.11876 0.73092 0.38645 0.0
C679 C 0.15744 0.70467 0.43407 0.0
C680 C 0.14064 0.71983 0.42158 0.0
C681 C 0.09181 0.76431 0.38578 0.0
C682 C 0.10878 0.74897 0.39798 0.0
H683 H 0.20671 0.70505 0.47171 0.0
H684 H 0.17952 0.72975 0.45059 0.0
H685 H 0.14211 0.70286 0.38875 0.0
H686 H 0.04238 0.76482 0.34816 0.0
H687 H 0.07174 0.7398 0.36626 0.0
C688 C 0.69321 0.79563 0.96199 0.0
C689 C 0.69127 0.81813 0.95948 0.0
C690 C 0.67697 0.78186 0.95001 0.0
C691 C 0.63544 0.77863 0.8992 0.0
H692 H 0.60392 0.73186 0.93312 0.0
C693 C 0.55456 0.72723 0.86082 0.0
C694 C 0.5536 0.70526 0.86671 0.0
C695 C 0.5722 0.7409 0.87121 0.0
C696 C 0.61284 0.74461 0.92326 0.0
H697 H 0.67057 0.84371 0.94234 0.0
H698 H 0.6425 0.81958 0.92115 0.0
H699 H 0.63312 0.75583 0.95297 0.0
H700 H 0.57113 0.68021 0.88738 0.0
H701 H 0.60224 0.70387 0.90501 0.0
H702 H 0.61537 0.7673 0.86941 0.0
C703 C 0.65674 0.81267 0.93232 0.0
C704 C 0.62952 0.75839 0.93468 0.0
C705 C 0.67286 0.82648 0.94444 0.0
C706 C 0.57117 0.69712 0.88266 0.0
C707 C 0.58892 0.71073 0.89288 0.0
C708 C 0.61888 0.76473 0.8877 0.0
C709 C 0.65853 0.79023 0.9351 0.0
C710 C 0.64097 0.77556 0.9228 0.0
C711 C 0.58942 0.73286 0.88758 0.0
C712 C 0.60735 0.74755 0.8996 0.0
H713 H 0.70747 0.78861 0.97305 0.0
H714 H 0.67902 0.76461 0.95224 0.0
H715 H 0.6442 0.7916 0.88955 0.0
H716 H 0.54124 0.73403 0.84864 0.0
H717 H 0.57184 0.75789 0.86689 0.0
C718 C 0.33306 0.17233 0.44076 0.0
C719 C 0.31803 0.18065 0.45873 0.0
C720 C 0.34812 0.18595 0.42735 0.0
C721 C 0.35802 0.24412 0.413 0.0
H722 H 0.42268 0.22363 0.39121 0.0
C723 C 0.44019 0.29864 0.3835 0.0
C724 C 0.45111 0.29375 0.36196 0.0
C725 C 0.42212 0.285 0.39316 0.0
C726 C 0.40453 0.22944 0.39699 0.0
H727 H 0.30724 0.21009 0.47649 0.0
H728 H 0.33463 0.2335 0.45426 0.0
H729 H 0.39541 0.19943 0.41308 0.0
H730 H 0.45158 0.27094 0.33348 0.0
H731 H 0.42041 0.24659 0.35088 0.0
H732 H 0.36807 0.27453 0.39787 0.0
C733 C 0.3342 0.21652 0.44996 0.0
C734 C 0.38881 0.21558 0.40945 0.0
C735 C 0.31878 0.20296 0.46308 0.0
C736 C 0.44337 0.2751 0.35007 0.0
C737 C 0.42569 0.26117 0.36002 0.0
C738 C 0.37399 0.25807 0.40094 0.0
C739 C 0.34897 0.20824 0.43179 0.0
C740 C 0.36538 0.22277 0.41778 0.0
C741 C 0.41503 0.266 0.38168 0.0
C742 C 0.3974 0.25086 0.39295 0.0
H743 H 0.33338 0.15522 0.43707 0.0
H744 H 0.35893 0.17894 0.41336 0.0
H745 H 0.33992 0.25014 0.41858 0.0
H746 H 0.44574 0.31298 0.39295 0.0
H747 H 0.41424 0.28897 0.40994 0.0
C748 C 0.30506 0.81902 0.92302 0.0
C749 C 0.31183 0.82909 0.94389 0.0
C750 C 0.3212 0.80415 0.91258 0.0
C751 C 0.37738 0.77017 0.92527 0.0
H752 H 0.3792 0.76463 0.85835 0.0
C753 C 0.43568 0.70344 0.88246 0.0
C754 C 0.44784 0.70803 0.86145 0.0
C755 C 0.41793 0.71765 0.89153 0.0
C756 C 0.37921 0.76611 0.87706 0.0
H757 H 0.34084 0.83213 0.96998 0.0
H758 H 0.36963 0.80703 0.95132 0.0
H759 H 0.35188 0.79129 0.87603 0.0
H760 H 0.45083 0.73089 0.8332 0.0
H761 H 0.42072 0.75634 0.84951 0.0
H762 H 0.40578 0.746 0.92634 0.0
C763 C 0.35151 0.80983 0.94334 0.0
C764 C 0.36315 0.78121 0.88727 0.0
C765 C 0.33513 0.82434 0.954 0.0
C766 C 0.44159 0.72693 0.84939 0.0
C767 C 0.42421 0.74145 0.85874 0.0
C768 C 0.39376 0.7554 0.91507 0.0
C769 C 0.34471 0.79936 0.92256 0.0
C770 C 0.36194 0.78341 0.91154 0.0
C771 C 0.41234 0.73712 0.8801 0.0
C772 C 0.39482 0.75302 0.89082 0.0
H773 H 0.28704 0.82235 0.91503 0.0
H774 H 0.31501 0.79619 0.89688 0.0
H775 H 0.37677 0.77102 0.94401 0.0
H776 H 0.43991 0.68879 0.89193 0.0
H777 H 0.40869 0.71334 0.9076 0.0
C778 C 0.69185 0.20053 0.46087 0.0
C779 C 0.68999 0.17805 0.45814 0.0
C780 C 0.6762 0.21437 0.44838 0.0
C781 C 0.61608 0.21542 0.4159 0.0
H782 H 0.64166 0.27015 0.39338 0.0
C783 C 0.55706 0.27187 0.35785 0.0
C784 C 0.55669 0.2937 0.36444 0.0
C785 C 0.5742 0.25759 0.3679 0.0
C786 C 0.63423 0.25497 0.39968 0.0
H787 H 0.67002 0.15256 0.44004 0.0
H788 H 0.6433 0.17671 0.41771 0.0
H789 H 0.66985 0.24539 0.41342 0.0
H790 H 0.57462 0.31776 0.38624 0.0
H791 H 0.60457 0.29283 0.40367 0.0
H792 H 0.58049 0.22502 0.40201 0.0
C793 C 0.65661 0.18364 0.42983 0.0
C794 C 0.65035 0.24079 0.41123 0.0
C795 C 0.67218 0.16979 0.44243 0.0
C796 C 0.57432 0.30104 0.38083 0.0
C797 C 0.59159 0.28679 0.39073 0.0
C798 C 0.60003 0.22953 0.4042 0.0
C799 C 0.65836 0.20612 0.4327 0.0
C800 C 0.64143 0.2209 0.41967 0.0
C801 C 0.5915 0.26486 0.38459 0.0
C802 C 0.60888 0.24952 0.39612 0.0
H803 H 0.70557 0.2075 0.47256 0.0
H804 H 0.67788 0.23157 0.45128 0.0
H805 H 0.60844 0.20043 0.42248 0.0
H806 H 0.54378 0.26568 0.34525 0.0
H807 H 0.57388 0.24083 0.36264 0.0
C808 C 0.31905 0.5057 0.95779 0.0
C809 C 0.31441 0.48633 0.94582 0.0
C810 C 0.33317 0.52216 0.94749 0.0
C811 C 0.38194 0.52983 0.90338 0.0
H812 H 0.36535 0.59052 0.90831 0.0
C813 C 0.43939 0.59357 0.85488 0.0
C814 C 0.44577 0.61249 0.86695 0.0
C815 C 0.42158 0.57931 0.86382 0.0
C816 C 0.37034 0.57365 0.90698 0.0
H817 H 0.32058 0.46925 0.91351 0.0
H818 H 0.34486 0.49803 0.89546 0.0
H819 H 0.33722 0.56349 0.92519 0.0
H820 H 0.43773 0.63167 0.89751 0.0
H821 H 0.40686 0.60646 0.91341 0.0
H822 H 0.41517 0.53978 0.88559 0.0
C823 C 0.33776 0.50042 0.91287 0.0
C824 C 0.35423 0.55819 0.91661 0.0
C825 C 0.32361 0.48403 0.92312 0.0
C826 C 0.43327 0.6172 0.88782 0.0
C827 C 0.4155 0.6028 0.89687 0.0
C828 C 0.39805 0.54522 0.89387 0.0
C829 C 0.34304 0.51952 0.92507 0.0
C830 C 0.35983 0.53611 0.9148 0.0
C831 C 0.40978 0.58351 0.88515 0.0
C832 C 0.39242 0.56731 0.89543 0.0
H833 H 0.312 0.50803 0.97523 0.0
H834 H 0.33702 0.53665 0.95736 0.0
H835 H 0.38706 0.51297 0.90213 0.0
H836 H 0.44837 0.58962 0.83857 0.0
H837 H 0.41718 0.56487 0.85406 0.0
C838 C 0.68223 0.51689 0.41713 0.0
C839 C 0.68926 0.51595 0.44063 0.0
C840 C 0.66897 0.49988 0.40692 0.0
C841 C 0.62543 0.45678 0.42276 0.0
H842 H 0.6378 0.43528 0.36067 0.0
C843 C 0.56628 0.38764 0.38522 0.0
C844 C 0.55868 0.38941 0.36197 0.0
C845 C 0.58449 0.40151 0.39428 0.0
C846 C 0.63395 0.44125 0.37795 0.0
H847 H 0.68919 0.4958 0.4714 0.0
H848 H 0.66577 0.46628 0.45364 0.0
H849 H 0.66591 0.46239 0.37734 0.0
H850 H 0.56473 0.40677 0.32979 0.0
H851 H 0.59602 0.43142 0.34577 0.0
H852 H 0.59315 0.43632 0.4233 0.0
C853 C 0.67023 0.48032 0.44324 0.0
C854 C 0.6501 0.45672 0.3875 0.0
C855 C 0.68359 0.49725 0.4534 0.0
C856 C 0.57018 0.405 0.34779 0.0
C857 C 0.58824 0.41905 0.35693 0.0
C858 C 0.60921 0.44149 0.41318 0.0
C859 C 0.66236 0.48163 0.42003 0.0
C860 C 0.64597 0.46464 0.41 0.0
C861 C 0.59536 0.41767 0.38039 0.0
C862 C 0.61321 0.43353 0.39065 0.0
H863 H 0.68604 0.53115 0.40686 0.0
H864 H 0.66296 0.50141 0.38905 0.0
H865 H 0.62148 0.46288 0.43998 0.0
H866 H 0.55806 0.37559 0.39652 0.0
H867 H 0.58993 0.39963 0.41227 0.0
C868 C 0.67341 0.48637 0.93339 0.0
C869 C 0.67989 0.48922 0.95685 0.0
C870 C 0.66075 0.5026 0.92128 0.0
C871 C 0.61745 0.54688 0.9325 0.0
H872 H 0.63065 0.56364 0.86887 0.0
C873 C 0.56014 0.61386 0.8894 0.0
C874 C 0.55253 0.61073 0.86632 0.0
C875 C 0.57801 0.60037 0.8995 0.0
C876 C 0.62658 0.55898 0.88657 0.0
H877 H 0.67978 0.51194 0.98545 0.0
H878 H 0.65747 0.54012 0.96439 0.0
H879 H 0.65829 0.53767 0.88807 0.0
H880 H 0.55826 0.59137 0.83547 0.0
H881 H 0.58898 0.56732 0.85333 0.0
H882 H 0.58543 0.56747 0.93102 0.0
C883 C 0.66182 0.5252 0.9555 0.0
C884 C 0.64246 0.54417 0.89756 0.0
C885 C 0.67455 0.50905 0.96756 0.0
C886 C 0.56373 0.59416 0.85332 0.0
C887 C 0.58144 0.58046 0.86353 0.0
C888 C 0.60152 0.56148 0.9215 0.0
C889 C 0.65425 0.52195 0.93242 0.0
C890 C 0.63807 0.53804 0.92067 0.0
C891 C 0.58851 0.58321 0.88687 0.0
C892 C 0.60588 0.56779 0.89842 0.0
H893 H 0.67705 0.47123 0.92468 0.0
H894 H 0.65501 0.4996 0.90355 0.0
H895 H 0.61327 0.54211 0.95016 0.0
H896 H 0.5522 0.62672 0.89977 0.0
H897 H 0.58346 0.60334 0.91731 0.0
C898 C 0.31746 0.49035 0.45183 0.0
C899 C 0.31229 0.50978 0.44022 0.0
C900 C 0.33208 0.47443 0.44128 0.0
C901 C 0.38182 0.46912 0.39788 0.0
H902 H 0.36859 0.40778 0.40274 0.0
C903 C 0.44513 0.40731 0.35248 0.0
C904 C 0.45139 0.38852 0.36479 0.0
C905 C 0.42646 0.42114 0.36062 0.0
C906 C 0.37267 0.42485 0.40143 0.0
H907 H 0.31774 0.52744 0.40815 0.0
H908 H 0.34303 0.49956 0.38964 0.0
H909 H 0.33837 0.43352 0.41856 0.0
H910 H 0.4425 0.36927 0.39512 0.0
H911 H 0.41024 0.39372 0.40967 0.0
H912 H 0.41629 0.46064 0.38131 0.0
C913 C 0.33594 0.49673 0.40699 0.0
C914 C 0.35532 0.43958 0.41043 0.0
C915 C 0.32123 0.5126 0.41749 0.0
C916 C 0.43816 0.38364 0.38524 0.0
C917 C 0.41955 0.39759 0.3935 0.0
C918 C 0.39918 0.45444 0.38902 0.0
C919 C 0.34196 0.47767 0.41894 0.0
C920 C 0.35973 0.46188 0.40874 0.0
C921 C 0.41367 0.41663 0.3814 0.0
C922 C 0.39485 0.43212 0.39067 0.0
H923 H 0.31061 0.48764 0.46928 0.0
H924 H 0.33648 0.45996 0.45097 0.0
H925 H 0.38602 0.48618 0.39673 0.0
H926 H 0.45469 0.41141 0.33648 0.0
H927 H 0.42205 0.4354 0.35059 0.0
C928 C 0.8247 0.98261 0.91876 0.0
C929 C 0.81662 0.98412 0.94193 0.0
C930 C 0.83851 0.99934 0.90861 0.0
C931 C 0.88156 0.04268 0.92482 0.0
H932 H 0.87139 0.0631 0.86197 0.0
C933 C 0.94186 0.11135 0.88744 0.0
C934 C 0.94991 0.10935 0.86434 0.0
C935 C 0.92362 0.09744 0.89641 0.0
C936 C 0.87465 0.05742 0.87947 0.0
H937 H 0.81543 0.00501 0.9721 0.0
H938 H 0.83984 0.034 0.95449 0.0
H939 H 0.84269 0.0363 0.87831 0.0
H940 H 0.94473 0.09142 0.83238 0.0
H941 H 0.91345 0.06676 0.8482 0.0
H942 H 0.91385 0.06313 0.92593 0.0
C943 C 0.83576 0.01974 0.94431 0.0
C944 C 0.85815 0.04213 0.88883 0.0
C945 C 0.82183 0.0031 0.95439 0.0
C946 C 0.93894 0.0934 0.85026 0.0
C947 C 0.92086 0.07933 0.8593 0.0
C948 C 0.89815 0.05778 0.91543 0.0
C949 C 0.84464 0.01786 0.92147 0.0
C950 C 0.86147 0.0346 0.9116 0.0
C951 C 0.91315 0.08104 0.88257 0.0
C952 C 0.89496 0.06535 0.89263 0.0
H953 H 0.82127 0.96813 0.90874 0.0
H954 H 0.84528 0.99738 0.89103 0.0
H955 H 0.88486 0.03688 0.94228 0.0
H956 H 0.94968 0.12365 0.89867 0.0
H957 H 0.91775 0.09955 0.91424 0.0
C958 C 0.15612 0.02006 0.44532 0.0
C959 C 0.18231 0.02151 0.4427 0.0
C960 C 0.1427 0.00336 0.43487 0.0
C961 C 0.14603 0.96179 0.38898 0.0
H962 H 0.09134 0.93666 0.42432 0.0
C963 C 0.07063 0.90561 0.34868 0.0
C964 C 0.06034 0.88933 0.36275 0.0
C965 C 0.08794 0.92033 0.35784 0.0
C966 C 0.10676 0.94323 0.41428 0.0
H967 H 0.21498 0.00679 0.42688 0.0
H968 H 0.19151 0.97727 0.4088 0.0
H969 H 0.1168 0.9649 0.44152 0.0
H970 H 0.06142 0.87477 0.39693 0.0
H971 H 0.09203 0.89999 0.41269 0.0
H972 H 0.13617 0.9397 0.36189 0.0
C973 C 0.18133 0.98925 0.4187 0.0
C974 C 0.12113 0.95971 0.42404 0.0
C975 C 0.19478 0.0061 0.42907 0.0
C976 C 0.06868 0.88737 0.38577 0.0
C977 C 0.08615 0.9019 0.39483 0.0
C978 C 0.13167 0.94517 0.37922 0.0
C979 C 0.15515 0.98759 0.42167 0.0
C980 C 0.14074 0.96938 0.41144 0.0
C981 C 0.09549 0.91891 0.38118 0.0
C982 C 0.11174 0.93581 0.39172 0.0
H983 H 0.14595 0.03196 0.45535 0.0
H984 H 0.12249 0.00288 0.43706 0.0
H985 H 0.16091 0.96898 0.37875 0.0
H986 H 0.06459 0.90752 0.33086 0.0
H987 H 0.09459 0.93331 0.34688 0.0
C988 C 0.17698 0.01005 0.97154 0.0
C989 C 0.1787 0.98953 0.96134 0.0
C990 C 0.16537 0.02701 0.95975 0.0
C991 C 0.14245 0.04424 0.90172 0.0
H992 H 0.09584 0.07868 0.9377 0.0
C993 C 0.06207 0.09337 0.86072 0.0
C994 C 0.05626 0.11362 0.87026 0.0
C995 C 0.08007 0.08015 0.87111 0.0
C996 C 0.10908 0.06947 0.92746 0.0
H997 H 0.17004 0.9708 0.93061 0.0
H998 H 0.14958 0.00029 0.91012 0.0
H999 H 0.12199 0.05208 0.95714 0.0
H1000 H 0.06546 0.13615 0.8978 0.0
H1001 H 0.09687 0.11299 0.91595 0.0
H1002 H 0.1289 0.06128 0.87193 0.0
C1003 C 0.15756 0.00342 0.92706 0.0
C1004 C 0.12411 0.05421 0.9386 0.0
C1005 C 0.16926 0.98649 0.93882 0.0
C1006 C 0.06935 0.12059 0.89009 0.0
C1007 C 0.08728 0.10731 0.90054 0.0
C1008 C 0.12734 0.05946 0.89056 0.0
C1009 C 0.15513 0.0238 0.93753 0.0
C1010 C 0.14073 0.04121 0.92584 0.0
C1011 C 0.09263 0.08685 0.8913 0.0
C1012 C 0.11024 0.07202 0.90327 0.0
H1013 H 0.18445 0.01295 0.98874 0.0
H1014 H 0.16423 0.0426 0.96814 0.0
H1015 H 0.15536 0.03475 0.89142 0.0
H1016 H 0.05244 0.08753 0.8454 0.0
H1017 H 0.08356 0.06439 0.86371 0.0
C1018 C 0.82724 0.01603 0.41999 0.0
C1019 C 0.81731 0.01341 0.4424 0.0
C1020 C 0.84197 0.99989 0.41001 0.0
C1021 C 0.85956 0.9423 0.41415 0.0
H1022 H 0.92143 0.96193 0.3855 0.0
C1023 C 0.94078 0.88449 0.38854 0.0
C1024 C 0.95381 0.88916 0.36792 0.0
C1025 C 0.9227 0.89882 0.3971 0.0
C1026 C 0.90408 0.95614 0.39312 0.0
H1027 H 0.81401 0.99133 0.47141 0.0
H1028 H 0.83997 0.96321 0.45405 0.0
H1029 H 0.89185 0.98818 0.4007 0.0
H1030 H 0.95727 0.91209 0.33965 0.0
H1031 H 0.92565 0.93672 0.35431 0.0
H1032 H 0.87193 0.91019 0.40657 0.0
C1033 C 0.8363 0.97774 0.44419 0.0
C1034 C 0.88711 0.97122 0.40184 0.0
C1035 C 0.82163 0.99393 0.45422 0.0
C1036 C 0.94788 0.90813 0.35577 0.0
C1037 C 0.92979 0.92233 0.36423 0.0
C1038 C 0.87655 0.92716 0.40533 0.0
C1039 C 0.84706 0.98073 0.42217 0.0
C1040 C 0.86464 0.9645 0.41243 0.0
C1041 C 0.91721 0.91804 0.38516 0.0
C1042 C 0.899 0.93393 0.39467 0.0
H1043 H 0.82443 0.0309 0.4105 0.0
H1044 H 0.84973 0.00255 0.39288 0.0
H1045 H 0.84232 0.93663 0.42209 0.0
H1046 H 0.94487 0.86999 0.39829 0.0
H1047 H 0.9135 0.89509 0.41337 0.0
C1048 C 0.32491 0.39094 0.13969 0.0
C1049 C 0.32179 0.37655 0.12108 0.0
C1050 C 0.33749 0.38451 0.15979 0.0
C1051 C 0.38567 0.34638 0.17897 0.0
H1052 H 0.36655 0.36585 0.24036 0.0
C1053 C 0.44633 0.32757 0.25955 0.0
C1054 C 0.45043 0.34494 0.27477 0.0
C1055 C 0.42809 0.32893 0.24213 0.0
C1056 C 0.37221 0.36038 0.22332 0.0
H1057 H 0.3287 0.34391 0.10926 0.0
H1058 H 0.35052 0.3326 0.14451 0.0
H1059 H 0.33868 0.37259 0.20754 0.0
H1060 H 0.43798 0.37715 0.28398 0.0
H1061 H 0.40658 0.37961 0.2535 0.0
H1062 H 0.41951 0.33472 0.19454 0.0
C1063 C 0.3434 0.34892 0.14344 0.0
C1064 C 0.35622 0.36421 0.20453 0.0
C1065 C 0.33069 0.35533 0.12336 0.0
C1066 C 0.43541 0.36346 0.27254 0.0
C1067 C 0.41722 0.36482 0.25515 0.0
C1068 C 0.40169 0.34259 0.19774 0.0
C1069 C 0.34732 0.36356 0.16172 0.0
C1070 C 0.36297 0.35758 0.18207 0.0
C1071 C 0.41351 0.34768 0.23956 0.0
C1072 C 0.39536 0.34988 0.22007 0.0
H1073 H 0.31802 0.40732 0.13854 0.0
H1074 H 0.34036 0.39624 0.17346 0.0
H1075 H 0.39159 0.34131 0.16185 0.0
H1076 H 0.45744 0.313 0.26087 0.0
H1077 H 0.42548 0.31533 0.2306 0.0
C1078 C 0.6672 0.64558 0.62147 0.0
C1079 C 0.67496 0.6243 0.61702 0.0
C1080 C 0.65518 0.65076 0.64234 0.0
C1081 C 0.61566 0.62499 0.68586 0.0
H1082 H 0.62809 0.67561 0.72368 0.0
C1083 C 0.56407 0.63535 0.7716 0.0
C1084 C 0.55458 0.65583 0.77702 0.0
C1085 C 0.58129 0.63274 0.75364 0.0
C1086 C 0.62423 0.66152 0.71316 0.0
H1087 H 0.67792 0.5922 0.6317 0.0
H1088 H 0.65673 0.60118 0.66785 0.0
H1089 H 0.65393 0.669 0.68919 0.0
H1090 H 0.55647 0.68984 0.76861 0.0
H1091 H 0.58617 0.68522 0.73651 0.0
H1092 H 0.58568 0.61764 0.70906 0.0
C1093 C 0.65954 0.61376 0.65507 0.0
C1094 C 0.63907 0.65773 0.69348 0.0
C1095 C 0.67161 0.60861 0.63434 0.0
C1096 C 0.56351 0.67386 0.76476 0.0
C1097 C 0.58056 0.6712 0.74644 0.0
C1098 C 0.60077 0.62884 0.70528 0.0
C1099 C 0.65063 0.63474 0.65906 0.0
C1100 C 0.63506 0.63928 0.67981 0.0
C1101 C 0.58915 0.65049 0.74031 0.0
C1102 C 0.60502 0.64699 0.71938 0.0
H1103 H 0.66939 0.65801 0.60843 0.0
H1104 H 0.64841 0.66704 0.64493 0.0
H1105 H 0.61172 0.61091 0.67534 0.0
H1106 H 0.55786 0.62121 0.78106 0.0
H1107 H 0.58809 0.61666 0.74993 0.0
C1108 C 0.6823 0.37845 0.13314 0.0
C1109 C 0.68661 0.36149 0.11747 0.0
C1110 C 0.66859 0.37496 0.15341 0.0
C1111 C 0.64534 0.33423 0.19435 0.0
H1112 H 0.59102 0.37498 0.20328 0.0
C1113 C 0.56673 0.32305 0.26362 0.0
C1114 C 0.55716 0.34182 0.27398 0.0
C1115 C 0.58424 0.32451 0.24552 0.0
C1116 C 0.60633 0.36364 0.20135 0.0
H1117 H 0.68087 0.3273 0.11143 0.0
H1118 H 0.65717 0.32117 0.1472 0.0
H1119 H 0.61917 0.3792 0.17047 0.0
H1120 H 0.55958 0.37672 0.27462 0.0
H1121 H 0.59054 0.37925 0.24384 0.0
H1122 H 0.63262 0.31881 0.2255 0.0
C1123 C 0.66442 0.33716 0.14364 0.0
C1124 C 0.62241 0.36604 0.18246 0.0
C1125 C 0.67802 0.34068 0.12319 0.0
C1126 C 0.56625 0.36197 0.26667 0.0
C1127 C 0.58392 0.36342 0.24891 0.0
C1128 C 0.62934 0.33193 0.21349 0.0
C1129 C 0.65904 0.35441 0.15862 0.0
C1130 C 0.64215 0.35146 0.17881 0.0
C1131 C 0.59268 0.34476 0.23767 0.0
C1132 C 0.60972 0.34673 0.2173 0.0
H1133 H 0.68917 0.39456 0.12956 0.0
H1134 H 0.66511 0.38847 0.16489 0.0
H1135 H 0.66047 0.32279 0.19192 0.0
H1136 H 0.56005 0.30729 0.26892 0.0
H1137 H 0.59047 0.30981 0.2372 0.0
C1138 C 0.31856 0.62892 0.6322 0.0
C1139 C 0.33199 0.61917 0.61402 0.0
C1140 C 0.33105 0.63584 0.65226 0.0
C1141 C 0.36086 0.63507 0.69779 0.0
H1142 H 0.4265 0.66195 0.69249 0.0
C1143 C 0.43291 0.63698 0.7725 0.0
C1144 C 0.44861 0.65512 0.77485 0.0
C1145 C 0.41614 0.63536 0.75393 0.0
C1146 C 0.40805 0.65475 0.69434 0.0
H1147 H 0.36908 0.60964 0.60232 0.0
H1148 H 0.39072 0.62139 0.63727 0.0
H1149 H 0.40213 0.65454 0.65764 0.0
H1150 H 0.45811 0.68625 0.76003 0.0
H1151 H 0.42871 0.68346 0.7277 0.0
H1152 H 0.36691 0.63516 0.73453 0.0
C1153 C 0.37061 0.62381 0.63606 0.0
C1154 C 0.3942 0.65028 0.67433 0.0
C1155 C 0.35815 0.61682 0.61615 0.0
C1156 C 0.44645 0.67197 0.75866 0.0
C1157 C 0.42968 0.67034 0.74006 0.0
C1158 C 0.37476 0.63951 0.71784 0.0
C1159 C 0.35723 0.63333 0.65439 0.0
C1160 C 0.37068 0.64001 0.67579 0.0
C1161 C 0.41464 0.65185 0.73727 0.0
C1162 C 0.3987 0.64906 0.7163 0.0
H1163 H 0.29837 0.63088 0.63108 0.0
H1164 H 0.32026 0.64323 0.66604 0.0
H1165 H 0.34285 0.62706 0.69949 0.0
H1166 H 0.43397 0.62372 0.7847 0.0
H1167 H 0.40503 0.6208 0.75218 0.0
C1168 C 0.827 0.89386 0.1384 0.0
C1169 C 0.82589 0.87887 0.12019 0.0
C1170 C 0.83923 0.88874 0.15908 0.0
C1171 C 0.86663 0.84371 0.19341 0.0
H1172 H 0.90927 0.88928 0.21747 0.0
C1173 C 0.94662 0.8304 0.26069 0.0
C1174 C 0.95 0.84648 0.27761 0.0
C1175 C 0.92894 0.83311 0.24293 0.0
C1176 C 0.89721 0.87646 0.2112 0.0
H1177 H 0.83589 0.84649 0.1096 0.0
H1178 H 0.8577 0.8376 0.14564 0.0
H1179 H 0.88279 0.89625 0.18404 0.0
H1180 H 0.9364 0.87745 0.28987 0.0
H1181 H 0.90564 0.88204 0.25909 0.0
H1182 H 0.88172 0.8238 0.22046 0.0
C1183 C 0.84878 0.85321 0.1441 0.0
C1184 C 0.88195 0.88046 0.19202 0.0
C1185 C 0.83633 0.8583 0.12344 0.0
C1186 C 0.93457 0.86485 0.27696 0.0
C1187 C 0.91697 0.86755 0.25926 0.0
C1188 C 0.88204 0.83966 0.21261 0.0
C1189 C 0.85087 0.86857 0.16197 0.0
C1190 C 0.86644 0.86417 0.18287 0.0
C1191 C 0.91433 0.85195 0.24177 0.0
C1192 C 0.89747 0.85603 0.22172 0.0
H1193 H 0.81872 0.90971 0.1365 0.0
H1194 H 0.83994 0.90075 0.17269 0.0
H1195 H 0.85475 0.83085 0.18692 0.0
H1196 H 0.95813 0.81602 0.26072 0.0
H1197 H 0.92742 0.82085 0.22963 0.0
C1198 C 0.17683 0.14604 0.62549 0.0
C1199 C 0.18483 0.12466 0.62238 0.0
C1200 C 0.16459 0.15218 0.64589 0.0
C1201 C 0.15158 0.13557 0.70646 0.0
H1202 H 0.08881 0.16611 0.69738 0.0
C1203 C 0.07265 0.13599 0.77475 0.0
C1204 C 0.05766 0.15451 0.77714 0.0
C1205 C 0.09089 0.13479 0.75739 0.0
C1206 C 0.1065 0.15795 0.70035 0.0
H1207 H 0.18759 0.09326 0.63868 0.0
H1208 H 0.16611 0.10392 0.67422 0.0
H1209 H 0.11652 0.15994 0.66449 0.0
H1210 H 0.05087 0.18666 0.76371 0.0
H1211 H 0.08297 0.18466 0.73361 0.0
H1212 H 0.14136 0.13327 0.74227 0.0
C1213 C 0.16931 0.11596 0.66094 0.0
C1214 C 0.12239 0.1544 0.68146 0.0
C1215 C 0.18139 0.1098 0.6405 0.0
C1216 C 0.06192 0.17207 0.76222 0.0
C1217 C 0.08025 0.17089 0.74489 0.0
C1218 C 0.13574 0.1392 0.72539 0.0
C1219 C 0.16028 0.1371 0.66366 0.0
C1220 C 0.14488 0.14283 0.68422 0.0
C1221 C 0.09471 0.15212 0.74206 0.0
C1222 C 0.11277 0.15008 0.72248 0.0
H1223 H 0.1791 0.15782 0.61176 0.0
H1224 H 0.15806 0.16864 0.64759 0.0
H1225 H 0.16896 0.12686 0.70918 0.0
H1226 H 0.06993 0.12216 0.78595 0.0
H1227 H 0.10143 0.11997 0.75554 0.0
C1228 C 0.18198 0.84107 0.12721 0.0
C1229 C 0.19055 0.86198 0.12188 0.0
C1230 C 0.16784 0.83729 0.14729 0.0
C1231 C 0.12429 0.86571 0.18497 0.0
H1232 H 0.13302 0.8183 0.22806 0.0
C1233 C 0.06575 0.86149 0.2678 0.0
C1234 C 0.05658 0.84135 0.27508 0.0
C1235 C 0.0837 0.86291 0.25028 0.0
C1236 C 0.13014 0.83147 0.21602 0.0
H1237 H 0.19264 0.89492 0.13441 0.0
H1238 H 0.16768 0.88838 0.16913 0.0
H1239 H 0.16212 0.82251 0.19541 0.0
H1240 H 0.05958 0.80682 0.27014 0.0
H1241 H 0.09053 0.80929 0.23882 0.0
H1242 H 0.09209 0.87447 0.20481 0.0
C1243 C 0.17158 0.875 0.1576 0.0
C1244 C 0.14686 0.8339 0.19741 0.0
C1245 C 0.18581 0.87874 0.13769 0.0
C1246 C 0.0663 0.82256 0.26485 0.0
C1247 C 0.0841 0.824 0.24699 0.0
C1248 C 0.10749 0.86317 0.20331 0.0
C1249 C 0.16191 0.85438 0.16231 0.0
C1250 C 0.14424 0.85123 0.1819 0.0
C1251 C 0.09271 0.84424 0.23924 0.0
C1252 C 0.11035 0.8462 0.21929 0.0
H1253 H 0.18514 0.82783 0.11533 0.0
H1254 H 0.16053 0.82125 0.15048 0.0
H1255 H 0.12146 0.87893 0.17297 0.0
H1256 H 0.059 0.87626 0.27565 0.0
H1257 H 0.09041 0.87874 0.2453 0.0
C1258 C 0.82689 0.1028 0.63808 0.0
C1259 C 0.82263 0.11832 0.62076 0.0
C1260 C 0.83984 0.10823 0.65829 0.0
C1261 C 0.86162 0.15239 0.69572 0.0
H1262 H 0.91745 0.11388 0.70778 0.0
C1263 C 0.9401 0.17063 0.76354 0.0
C1264 C 0.95056 0.1529 0.77522 0.0
C1265 C 0.92253 0.16742 0.74574 0.0
C1266 C 0.90171 0.12463 0.70501 0.0
H1267 H 0.82735 0.15206 0.61177 0.0
H1268 H 0.84973 0.1616 0.64742 0.0
H1269 H 0.88932 0.10652 0.67562 0.0
H1270 H 0.94963 0.1181 0.7786 0.0
H1271 H 0.91852 0.11255 0.7484 0.0
H1272 H 0.87392 0.17037 0.72541 0.0
C1273 C 0.84306 0.14522 0.64519 0.0
C1274 C 0.88564 0.12042 0.68647 0.0
C1275 C 0.83021 0.13975 0.62482 0.0
C1276 C 0.94227 0.13206 0.76957 0.0
C1277 C 0.92452 0.12888 0.75214 0.0
C1278 C 0.87761 0.1565 0.71454 0.0
C1279 C 0.84865 0.12933 0.66177 0.0
C1280 C 0.86536 0.13415 0.68169 0.0
C1281 C 0.91487 0.14644 0.73955 0.0
C1282 C 0.89779 0.14256 0.71949 0.0
H1283 H 0.82076 0.08628 0.63576 0.0
H1284 H 0.8435 0.09576 0.67101 0.0
H1285 H 0.8461 0.16323 0.69237 0.0
H1286 H 0.94614 0.18689 0.76757 0.0
H1287 H 0.91561 0.18132 0.73635 0.0
loop_
_geom_bond_atom_site_label_1
_geom_bond_atom_site_label_2
_geom_bond_distance
_geom_bond_site_symmetry_2
_ccdc_geom_bond_type
C0 C1 1.391 . S
C0 C4 1.391 . S
C0 H42 0.948 . S
C1 C0 1.391 . S
C1 C2 1.391 . S
C2 C1 1.391 . S
C2 H58 0.947 . S
C2 C59 1.392 . S
C3 C4 1.391 . S
C3 C7 1.397 . S
C3 C59 1.419 . S
C4 C0 1.391 . S
C4 C3 1.391 . S
C4 C5 1.399 . S
C5 C4 1.399 . S
C5 C8 1.396 . S
C5 C17 1.453 . S
C5 C18 1.684 . S
H6 C30 0.948 . S
C7 C3 1.397 . S
C7 C8 1.394 . S
C7 C26 1.723 . S
C8 C5 1.396 . S
C8 C7 1.394 . S
C8 C38 1.723 . S
H9 C32 0.947 1_554 S
H10 C33 0.948 . S
H11 C39 0.982 . S
H12 C40 0.979 . S
H13 C40 0.980 . S
H14 C40 0.983 . S
H15 C39 0.979 . S
H16 C39 0.977 . S
C17 C5 1.453 . S
C17 H46 0.982 . S
C17 H47 0.979 . S
C17 H48 0.977 . S
C18 C5 1.684 . S
C18 H43 0.979 . S
C18 H44 0.980 . S
C18 H45 0.983 . S
C19 C20 1.391 . S
C19 C24 1.391 . S
C19 H49 0.948 . S
C20 C19 1.391 . S
C20 C21 1.391 . S
C21 C20 1.391 . S
C21 C22 1.392 . S
C21 H50 0.947 . S
C22 C21 1.392 . S
C22 C23 1.419 . S
C22 H51 0.948 . S
C23 C22 1.419 . S
C23 C24 1.391 . S
C23 C27 1.397 . S
C24 C19 1.391 . S
C24 C23 1.391 . S
C24 C25 1.399 1_556 S
C25 C24 1.399 1_554 S
C25 C26 1.396 . S
C25 C28 1.453 . S
C25 C29 1.684 . S
C26 C7 1.723 . S
C26 C25 1.396 . S
C26 C27 1.394 1_554 S
C27 C23 1.397 . S
C27 C26 1.394 1_556 S
C27 C37 1.723 . S
C28 C25 1.453 . S
C28 H52 0.982 . S
C28 H53 0.979 . S
C28 H54 0.977 . S
C29 C25 1.684 . S
C29 H55 0.979 . S
C29 H56 0.980 . S
C29 H57 0.983 . S
C30 H6 0.948 . S
C30 C31 1.391 . S
C30 C35 1.391 . S
C31 C30 1.391 . S
C31 C32 1.391 . S
C32 H9 0.947 1_556 S
C32 C31 1.391 . S
C32 C33 1.392 1_556 S
C33 H10 0.948 . S
C33 C32 1.392 1_554 S
C33 C34 1.419 1_554 S
C34 C33 1.419 1_556 S
C34 C35 1.391 . S
C34 C38 1.397 1_556 S
C35 C30 1.391 . S
C35 C34 1.391 . S
C35 C36 1.399 . S
C36 C35 1.399 . S
C36 C37 1.396 . S
C36 C39 1.453 . S
C36 C40 1.684 . S
C37 C27 1.723 . S
C37 C36 1.396 . S
C37 C38 1.394 1_556 S
C38 C8 1.723 . S
C38 C34 1.397 1_554 S
C38 C37 1.394 1_554 S
C39 H11 0.982 . S
C39 H15 0.979 . S
C39 H16 0.977 . S
C39 C36 1.453 . S
C40 H12 0.979 . S
C40 H13 0.980 . S
C40 H14 0.983 . S
C40 C36 1.684 . S
H41 C59 0.948 . S
H42 C0 0.948 . S
H43 C18 0.979 . S
H44 C18 0.980 . S
H45 C18 0.983 . S
H46 C17 0.982 . S
H47 C17 0.979 . S
H48 C17 0.977 . S
H49 C19 0.948 . S
H50 C21 0.947 . S
H51 C22 0.948 . S
H52 C28 0.982 . S
H53 C28 0.979 . S
H54 C28 0.977 . S
H55 C29 0.979 . S
H56 C29 0.980 . S
H57 C29 0.983 . S
H58 C2 0.947 . S
C59 C2 1.392 . S
C59 C3 1.419 . S
C59 H41 0.948 . S
C60 C61 1.391 . S
C60 C64 1.391 . S
C60 H102 0.948 . S
C61 C60 1.391 . S
C61 C62 1.391 . S
C62 C61 1.391 . S
C62 H118 0.947 . S
C62 C119 1.392 . S
C63 C64 1.391 . S
C63 C67 1.397 . S
C63 C119 1.419 . S
C64 C60 1.391 . S
C64 C63 1.391 . S
C64 C65 1.399 . S
C65 C64 1.399 . S
C65 C68 1.396 . S
C65 C77 1.453 . S
C65 C78 1.684 . S
H66 C90 0.948 . S
C67 C63 1.397 . S
C67 C68 1.394 . S
C67 C86 1.723 . S
C68 C65 1.396 . S
C68 C67 1.394 . S
C68 C98 1.723 . S
H69 C92 0.947 . S
H70 C93 0.948 . S
H71 C99 0.982 . S
H72 C100 0.979 . S
H73 C100 0.980 . S
H74 C100 0.983 . S
H75 C99 0.979 . S
H76 C99 0.977 . S
C77 C65 1.453 . S
C77 H106 0.982 . S
C77 H107 0.979 . S
C77 H108 0.977 . S
C78 C65 1.684 . S
C78 H103 0.979 . S
C78 H104 0.980 . S
C78 H105 0.983 . S
C79 C80 1.391 . S
C79 C84 1.391 . S
C79 H109 0.948 . S
C80 C79 1.391 . S
C80 C81 1.391 . S
C81 C80 1.391 . S
C81 C82 1.392 . S
C81 H110 0.947 . S
C82 C81 1.392 . S
C82 C83 1.419 . S
C82 H111 0.948 . S
C83 C82 1.419 . S
C83 C84 1.391 . S
C83 C87 1.397 . S
C84 C79 1.391 . S
C84 C83 1.391 . S
C84 C85 1.399 . S
C85 C84 1.399 . S
C85 C86 1.396 . S
C85 C88 1.453 . S
C85 C89 1.684 . S
C86 C67 1.723 . S
C86 C85 1.396 . S
C86 C87 1.394 . S
C87 C83 1.397 . S
C87 C86 1.394 . S
C87 C97 1.723 . S
C88 C85 1.453 . S
C88 H112 0.982 . S
C88 H113 0.979 . S
C88 H114 0.977 . S
C89 C85 1.684 . S
C89 H115 0.979 . S
C89 H116 0.980 . S
C89 H117 0.983 . S
C90 H66 0.948 . S
C90 C91 1.391 . S
C90 C95 1.391 . S
C91 C90 1.391 . S
C91 C92 1.391 . S
C92 H69 0.947 . S
C92 C91 1.391 . S
C92 C93 1.392 . S
C93 H70 0.948 . S
C93 C92 1.392 . S
C93 C94 1.419 . S
C94 C93 1.419 . S
C94 C95 1.391 . S
C94 C98 1.397 . S
C95 C90 1.391 . S
C95 C94 1.391 . S
C95 C96 1.399 . S
C96 C95 1.399 . S
C96 C97 1.396 . S
C96 C99 1.453 . S
C96 C100 1.684 . S
C97 C87 1.723 . S
C97 C96 1.396 . S
C97 C98 1.394 . S
C98 C68 1.723 . S
C98 C94 1.397 . S
C98 C97 1.394 . S
C99 H71 0.982 . S
C99 H75 0.979 . S
C99 H76 0.977 . S
C99 C96 1.453 . S
C100 H72 0.979 . S
C100 H73 0.980 . S
C100 H74 0.983 . S
C100 C96 1.684 . S
H101 C119 0.948 . S
H102 C60 0.948 . S
H103 C78 0.979 . S
H104 C78 0.980 . S
H105 C78 0.983 . S
H106 C77 0.982 . S
H107 C77 0.979 . S
H108 C77 0.977 . S
H109 C79 0.948 . S
H110 C81 0.947 . S
H111 C82 0.948 . S
H112 C88 0.982 . S
H113 C88 0.979 . S
H114 C88 0.977 . S
H115 C89 0.979 . S
H116 C89 0.980 . S
H117 C89 0.983 . S
H118 C62 0.947 . S
C119 C62 1.392 . S
C119 C63 1.419 . S
C119 H101 0.948 . S
C120 C121 1.391 . S
C120 C124 1.391 . S
C120 H162 0.948 . S
C121 C120 1.391 . S
C121 C122 1.391 . S
C122 C121 1.391 . S
C122 H178 0.947 . S
C122 C179 1.392 . S
C123 C124 1.391 . S
C123 C127 1.417 . S
C123 C179 1.419 . S
C124 C120 1.391 . S
C124 C123 1.391 . S
C124 C125 1.399 . S
C125 C124 1.399 . S
C125 C128 1.396 . S
C125 C137 1.453 . S
C125 C138 1.684 . S
H126 C150 0.948 . S
C127 C123 1.417 . S
C127 C128 1.422 . S
C127 C146 1.683 1_556 S
C128 C125 1.396 . S
C128 C127 1.422 . S
C128 C158 1.723 . S
H129 C152 0.947 . S
H130 C153 0.948 . S
H131 C159 0.982 . S
H132 C160 0.979 . S
H133 C160 0.980 . S
H134 C160 0.983 . S
H135 C159 0.979 . S
H136 C159 0.977 . S
C137 C125 1.453 . S
C137 H166 0.982 . S
C137 H167 0.979 . S
C137 H168 0.977 . S
C138 C125 1.684 . S
C138 H163 0.979 . S
C138 H164 0.980 . S
C138 H165 0.983 . S
C139 C140 1.391 . S
C139 C144 1.391 . S
C139 H169 0.948 . S
C140 C139 1.391 . S
C140 C141 1.391 . S
C141 C140 1.391 . S
C141 C142 1.392 . S
C141 H170 0.947 . S
C142 C141 1.392 . S
C142 C143 1.419 . S
C142 H171 0.948 . S
C143 C142 1.419 . S
C143 C144 1.391 . S
C143 C147 1.397 . S
C144 C139 1.391 . S
C144 C143 1.391 . S
C144 C145 1.399 . S
C145 C144 1.399 . S
C145 C146 1.396 . S
C145 C148 1.453 . S
C145 C149 1.684 . S
C146 C127 1.683 1_554 S
C146 C145 1.396 . S
C146 C147 1.394 . S
C147 C143 1.397 . S
C147 C146 1.394 . S
C147 C157 1.723 . S
C148 C145 1.453 . S
C148 H172 0.982 . S
C148 H173 0.979 . S
C148 H174 0.977 . S
C149 C145 1.684 . S
C149 H175 0.979 . S
C149 H176 0.980 . S
C149 H177 0.983 . S
C150 H126 0.948 . S
C150 C151 1.391 . S
C150 C155 1.391 . S
C151 C150 1.391 . S
C151 C152 1.391 . S
C152 H129 0.947 . S
C152 C151 1.391 . S
C152 C153 1.392 . S
C153 H130 0.948 . S
C153 C152 1.392 . S
C153 C154 1.419 . S
C154 C153 1.419 . S
C154 C155 1.391 . S
C154 C158 1.397 . S
C155 C150 1.391 . S
C155 C154 1.391 . S
C155 C156 1.399 1_556 S
C156 C155 1.399 1_554 S
C156 C157 1.396 . S
C156 C159 1.453 . S
C156 C160 1.684 . S
C157 C147 1.723 . S
C157 C156 1.396 . S
C157 C158 1.394 1_554 S
C158 C128 1.723 . S
C158 C154 1.397 . S
C158 C157 1.394 1_556 S
C159 H131 0.982 . S
C159 H135 0.979 . S
C159 H136 0.977 . S
C159 C156 1.453 . S
C160 H132 0.979 . S
C160 H133 0.980 . S
C160 H134 0.983 . S
C160 C156 1.684 . S
H161 C179 0.948 1_554 S
H162 C120 0.948 . S
H163 C138 0.979 . S
H164 C138 0.980 . S
H165 C138 0.983 . S
H166 C137 0.982 . S
H167 C137 0.979 . S
H168 C137 0.977 . S
H169 C139 0.948 . S
H170 C141 0.947 . S
H171 C142 0.948 . S
H172 C148 0.982 . S
H173 C148 0.979 . S
H174 C148 0.977 . S
H175 C149 0.979 . S
H176 C149 0.980 . S
H177 C149 0.983 . S
H178 C122 0.947 . S
C179 C122 1.392 . S
C179 C123 1.419 . S
C179 H161 0.948 1_556 S
C180 C181 1.391 . S
C180 C184 1.391 . S
C180 H222 0.948 . S
C181 C180 1.391 . S
C181 C182 1.391 . S
C182 C181 1.391 . S
C182 H238 0.947 . S
C182 C239 1.392 . S
C183 C184 1.391 . S
C183 C187 1.397 . S
C183 C239 1.419 . S
C184 C180 1.391 . S
C184 C183 1.391 . S
C184 C185 1.399 . S
C185 C184 1.399 . S
C185 C188 1.396 . S
C185 C197 1.453 . S
C185 C198 1.684 . S
H186 C210 0.948 . S
C187 C183 1.397 . S
C187 C188 1.394 . S
C187 C206 1.723 . S
C188 C185 1.396 . S
C188 C187 1.394 . S
C188 C218 1.723 . S
H189 C212 0.947 . S
H190 C213 0.948 . S
H191 C219 0.982 . S
H192 C220 0.979 . S
H193 C220 0.980 . S
H194 C220 0.983 . S
H195 C219 0.979 . S
H196 C219 0.977 . S
C197 C185 1.453 . S
C197 H226 0.982 . S
C197 H227 0.979 . S
C197 H228 0.977 . S
C198 C185 1.684 . S
C198 H223 0.979 . S
C198 H224 0.980 . S
C198 H225 0.983 . S
C199 C200 1.391 . S
C199 C204 1.391 . S
C199 H229 0.948 . S
C200 C199 1.391 . S
C200 C201 1.391 . S
C201 C200 1.391 . S
C201 C202 1.392 . S
C201 H230 0.947 . S
C202 C201 1.392 . S
C202 C203 1.419 . S
C202 H231 0.948 . S
C203 C202 1.419 . S
C203 C204 1.391 . S
C203 C207 1.397 . S
C204 C199 1.391 . S
C204 C203 1.391 . S
C204 C205 1.399 . S
C205 C204 1.399 . S
C205 C206 1.396 . S
C205 C208 1.453 . S
C205 C209 1.684 . S
C206 C187 1.723 . S
C206 C205 1.396 . S
C206 C207 1.394 . S
C207 C203 1.397 . S
C207 C206 1.394 . S
C207 C217 1.723 . S
C208 C205 1.453 . S
C208 H232 0.982 . S
C208 H233 0.979 . S
C208 H234 0.977 . S
C209 C205 1.684 . S
C209 H235 0.979 . S
C209 H236 0.980 . S
C209 H237 0.983 . S
C210 H186 0.948 . S
C210 C211 1.391 . S
C210 C215 1.391 . S
C211 C210 1.391 . S
C211 C212 1.391 . S
C212 H189 0.947 . S
C212 C211 1.391 . S
C212 C213 1.392 . S
C213 H190 0.948 . S
C213 C212 1.392 . S
C213 C214 1.419 . S
C214 C213 1.419 . S
C214 C215 1.391 . S
C214 C218 1.397 . S
C215 C210 1.391 . S
C215 C214 1.391 . S
C215 C216 1.399 . S
C216 C215 1.399 . S
C216 C217 1.396 . S
C216 C219 1.453 . S
C216 C220 1.684 . S
C217 C207 1.723 . S
C217 C216 1.396 . S
C217 C218 1.394 . S
C218 C188 1.723 . S
C218 C214 1.397 . S
C218 C217 1.394 . S
C219 H191 0.982 . S
C219 H195 0.979 . S
C219 H196 0.977 . S
C219 C216 1.453 . S
C220 H192 0.979 . S
C220 H193 0.980 . S
C220 H194 0.983 . S
C220 C216 1.684 . S
H221 C239 0.948 . S
H222 C180 0.948 . S
H223 C198 0.979 . S
H224 C198 0.980 . S
H225 C198 0.983 . S
H226 C197 0.982 . S
H227 C197 0.979 . S
H228 C197 0.977 . S
H229 C199 0.948 . S
H230 C201 0.947 . S
H231 C202 0.948 . S
H232 C208 0.982 . S
H233 C208 0.979 . S
H234 C208 0.977 . S
H235 C209 0.979 . S
H236 C209 0.980 . S
H237 C209 0.983 . S
H238 C182 0.947 . S
C239 C182 1.392 . S
C239 C183 1.419 . S
C239 H221 0.948 . S
C240 C241 1.391 . S
C240 C244 1.391 . S
C240 H282 0.948 . S
C241 C240 1.391 . S
C241 C242 1.391 . S
C242 C241 1.391 . S
C242 H298 0.947 . S
C242 C299 1.392 . S
C243 C244 1.391 . S
C243 C247 1.397 . S
C243 C299 1.419 . S
C244 C240 1.391 . S
C244 C243 1.391 . S
C244 C245 1.399 . S
C245 C244 1.399 . S
C245 C248 1.396 . S
C245 C257 1.453 . S
C245 C258 1.684 . S
H246 C270 0.948 . S
C247 C243 1.397 . S
C247 C248 1.394 . S
C247 C266 1.723 . S
C248 C245 1.396 . S
C248 C247 1.394 . S
C248 C278 1.723 . S
H249 C272 0.947 1_554 S
H250 C273 0.948 . S
H251 C279 0.982 . S
H252 C280 0.979 . S
H253 C280 0.980 . S
H254 C280 0.983 . S
H255 C279 0.979 . S
H256 C279 0.977 . S
C257 C245 1.453 . S
C257 H286 0.982 . S
C257 H287 0.979 . S
C257 H288 0.977 . S
C258 C245 1.684 . S
C258 H283 0.979 . S
C258 H284 0.980 . S
C258 H285 0.983 . S
C259 C260 1.391 . S
C259 C264 1.391 . S
C259 H289 0.948 . S
C260 C259 1.391 . S
C260 C261 1.391 . S
C261 C260 1.391 . S
C261 C262 1.392 . S
C261 H290 0.947 . S
C262 C261 1.392 . S
C262 C263 1.419 . S
C262 H291 0.948 . S
C263 C262 1.419 . S
C263 C264 1.391 . S
C263 C267 1.397 . S
C264 C259 1.391 . S
C264 C263 1.391 . S
C264 C265 1.399 1_556 S
C265 C264 1.399 1_554 S
C265 C266 1.396 . S
C265 C268 1.453 . S
C265 C269 1.684 . S
C266 C247 1.723 . S
C266 C265 1.396 . S
C266 C267 1.394 1_554 S
C267 C263 1.397 . S
C267 C266 1.394 1_556 S
C267 C277 1.723 . S
C268 C265 1.453 . S
C268 H292 0.982 . S
C268 H293 0.979 . S
C268 H294 0.977 . S
C269 C265 1.684 . S
C269 H295 0.979 . S
C269 H296 0.980 . S
C269 H297 0.983 . S
C270 H246 0.948 . S
C270 C271 1.391 . S
C270 C275 1.391 . S
C271 C270 1.391 . S
C271 C272 1.391 . S
C272 H249 0.947 1_556 S
C272 C271 1.391 . S
C272 C273 1.392 1_556 S
C273 H250 0.948 . S
C273 C272 1.392 1_554 S
C273 C274 1.419 1_554 S
C274 C273 1.419 1_556 S
C274 C275 1.391 . S
C274 C278 1.397 1_556 S
C275 C270 1.391 . S
C275 C274 1.391 . S
C275 C276 1.399 . S
C276 C275 1.399 . S
C276 C277 1.396 . S
C276 C279 1.453 . S
C276 C280 1.684 . S
C277 C267 1.723 . S
C277 C276 1.396 . S
C277 C278 1.394 1_556 S
C278 C248 1.723 . S
C278 C274 1.397 1_554 S
C278 C277 1.394 1_554 S
C279 H251 0.982 . S
C279 H255 0.979 . S
C279 H256 0.977 . S
C279 C276 1.453 . S
C280 H252 0.979 . S
C280 H253 0.980 . S
C280 H254 0.983 . S
C280 C276 1.684 . S
H281 C299 0.948 . S
H282 C240 0.948 . S
H283 C258 0.979 . S
H284 C258 0.980 . S
H285 C258 0.983 . S
H286 C257 0.982 . S
H287 C257 0.979 . S
H288 C257 0.977 . S
H289 C259 0.948 . S
H290 C261 0.947 . S
H291 C262 0.948 . S
H292 C268 0.982 . S
H293 C268 0.979 . S
H294 C268 0.977 . S
H295 C269 0.979 . S
H296 C269 0.980 . S
H297 C269 0.983 . S
H298 C242 0.947 . S
C299 C242 1.392 . S
C299 C243 1.419 . S
C299 H281 0.948 . S
C300 C301 1.391 . S
C300 C304 1.391 . S
C300 H342 0.948 . S
C301 C300 1.391 . S
C301 C302 1.391 . S
C302 C301 1.391 . S
C302 H358 0.947 . S
C302 C359 1.392 . S
C303 C304 1.391 . S
C303 C307 1.397 . S
C303 C359 1.419 . S
C304 C300 1.391 . S
C304 C303 1.391 . S
C304 C305 1.399 . S
C305 C304 1.399 . S
C305 C308 1.396 . S
C305 C317 1.453 . S
C305 C318 1.684 . S
H306 C330 0.948 . S
C307 C303 1.397 . S
C307 C308 1.394 . S
C307 C326 1.723 . S
C308 C305 1.396 . S
C308 C307 1.394 . S
C308 C338 1.723 . S
H309 C332 0.947 . S
H310 C333 0.948 . S
H311 C339 0.982 . S
H312 C340 0.979 . S
H313 C340 0.980 . S
H314 C340 0.983 . S
H315 C339 0.979 . S
H316 C339 0.977 . S
C317 C305 1.453 . S
C317 H346 0.982 . S
C317 H347 0.979 . S
C317 H348 0.977 . S
C318 C305 1.684 . S
C318 H343 0.979 . S
C318 H344 0.980 . S
C318 H345 0.983 . S
C319 C320 1.391 . S
C319 C324 1.391 . S
C319 H349 0.948 . S
C320 C319 1.391 . S
C320 C321 1.391 . S
C321 C320 1.391 . S
C321 C322 1.392 . S
C321 H350 0.947 . S
C322 C321 1.392 . S
C322 C323 1.419 . S
C322 H351 0.948 . S
C323 C322 1.419 . S
C323 C324 1.391 . S
C323 C327 1.397 . S
C324 C319 1.391 . S
C324 C323 1.391 . S
C324 C325 1.399 . S
C325 C324 1.399 . S
C325 C326 1.396 . S
C325 C328 1.453 . S
C325 C329 1.684 . S
C326 C307 1.723 . S
C326 C325 1.396 . S
C326 C327 1.394 . S
C327 C323 1.397 . S
C327 C326 1.394 . S
C327 C337 1.723 . S
C328 C325 1.453 . S
C328 H352 0.982 . S
C328 H353 0.979 . S
C328 H354 0.977 . S
C329 C325 1.684 . S
C329 H355 0.979 . S
C329 H356 0.980 . S
C329 H357 0.983 . S
C330 H306 0.948 . S
C330 C331 1.391 . S
C330 C335 1.391 . S
C331 C330 1.391 . S
C331 C332 1.391 . S
C332 H309 0.947 . S
C332 C331 1.391 . S
C332 C333 1.392 . S
C333 H310 0.948 . S
C333 C332 1.392 . S
C333 C334 1.419 . S
C334 C333 1.419 . S
C334 C335 1.391 . S
C334 C338 1.397 . S
C335 C330 1.391 . S
C335 C334 1.391 . S
C335 C336 1.399 . S
C336 C335 1.399 . S
C336 C337 1.396 . S
C336 C339 1.453 . S
C336 C340 1.684 . S
C337 C327 1.723 . S
C337 C336 1.396 . S
C337 C338 1.394 . S
C338 C308 1.723 . S
C338 C334 1.397 . S
C338 C337 1.394 . S
C339 H311 0.982 . S
C339 H315 0.979 . S
C339 H316 0.977 . S
C339 C336 1.453 . S
C340 H312 0.979 . S
C340 H313 0.980 . S
C340 H314 0.983 . S
C340 C336 1.684 . S
H341 C359 0.948 . S
H342 C300 0.948 . S
H343 C318 0.979 . S
H344 C318 0.980 . S
H345 C318 0.983 . S
H346 C317 0.982 . S
H347 C317 0.979 . S
H348 C317 0.977 . S
H349 C319 0.948 . S
H350 C321 0.947 . S
H351 C322 0.948 . S
H352 C328 0.982 . S
H353 C328 0.979 . S
H354 C328 0.977 . S
H355 C329 0.979 . S
H356 C329 0.980 . S
H357 C329 0.983 . S
H358 C302 0.947 . S
C359 C302 1.392 . S
C359 C303 1.419 . S
C359 H341 0.948 . S
C360 C361 1.391 . S
C360 C364 1.391 . S
C360 H402 0.948 . S
C361 C360 1.391 . S
C361 C362 1.391 . S
C362 C361 1.391 . S
C362 H418 0.947 . S
C362 C419 1.392 . S
C363 C364 1.391 . S
C363 C367 1.416 . S
C363 C419 1.419 . S
C364 C360 1.391 . S
C364 C363 1.391 . S
C364 C365 1.399 . S
C365 C364 1.399 . S
C365 C368 1.396 . S
C365 C377 1.453 . S
C365 C378 1.684 . S
H366 C390 0.948 . S
C367 C363 1.416 . S
C367 C368 1.422 . S
C367 C386 1.683 1_556 S
C368 C365 1.396 . S
C368 C367 1.422 . S
C368 C398 1.723 . S
H369 C392 0.947 . S
H370 C393 0.948 . S
H371 C399 0.982 . S
H372 C400 0.979 . S
H373 C400 0.980 . S
H374 C400 0.983 . S
H375 C399 0.979 . S
H376 C399 0.977 . S
C377 C365 1.453 . S
C377 H406 0.982 . S
C377 H407 0.979 . S
C377 H408 0.977 . S
C378 C365 1.684 . S
C378 H403 0.979 . S
C378 H404 0.980 . S
C378 H405 0.983 . S
C379 C380 1.391 . S
C379 C384 1.391 . S
C379 H409 0.948 . S
C380 C379 1.391 . S
C380 C381 1.391 . S
C381 C380 1.391 . S
C381 C382 1.392 . S
C381 H410 0.947 . S
C382 C381 1.392 . S
C382 C383 1.419 . S
C382 H411 0.948 . S
C383 C382 1.419 . S
C383 C384 1.391 . S
C383 C387 1.397 . S
C384 C379 1.391 . S
C384 C383 1.391 . S
C384 C385 1.399 . S
C385 C384 1.399 . S
C385 C386 1.396 . S
C385 C388 1.453 . S
C385 C389 1.684 . S
C386 C367 1.683 1_554 S
C386 C385 1.396 . S
C386 C387 1.394 . S
C387 C383 1.397 . S
C387 C386 1.394 . S
C387 C397 1.723 . S
C388 C385 1.453 . S
C388 H412 0.982 . S
C388 H413 0.979 . S
C388 H414 0.977 . S
C389 C385 1.684 . S
C389 H415 0.979 . S
C389 H416 0.980 . S
C389 H417 0.983 . S
C390 H366 0.948 . S
C390 C391 1.391 . S
C390 C395 1.391 . S
C391 C390 1.391 . S
C391 C392 1.391 . S
C392 H369 0.947 . S
C392 C391 1.391 . S
C392 C393 1.392 . S
C393 H370 0.948 . S
C393 C392 1.392 . S
C393 C394 1.419 . S
C394 C393 1.419 . S
C394 C395 1.391 . S
C394 C398 1.397 . S
C395 C390 1.391 . S
C395 C394 1.391 . S
C395 C396 1.399 1_556 S
C396 C395 1.399 1_554 S
C396 C397 1.396 . S
C396 C399 1.453 . S
C396 C400 1.684 . S
C397 C387 1.723 . S
C397 C396 1.396 . S
C397 C398 1.394 1_554 S
C398 C368 1.723 . S
C398 C394 1.397 . S
C398 C397 1.394 1_556 S
C399 H371 0.982 . S
C399 H375 0.979 . S
C399 H376 0.977 . S
C399 C396 1.453 . S
C400 H372 0.979 . S
C400 H373 0.980 . S
C400 H374 0.983 . S
C400 C396 1.684 . S
H401 C419 0.948 1_554 S
H402 C360 0.948 . S
H403 C378 0.979 . S
H404 C378 0.980 . S
H405 C378 0.983 . S
H406 C377 0.982 . S
H407 C377 0.979 . S
H408 C377 0.977 . S
H409 C379 0.948 . S
H410 C381 0.947 . S
H411 C382 0.948 . S
H412 C388 0.982 . S
H413 C388 0.979 . S
H414 C388 0.977 . S
H415 C389 0.979 . S
H416 C389 0.980 . S
H417 C389 0.983 . S
H418 C362 0.947 . S
C419 C362 1.392 . S
C419 C363 1.419 . S
C419 H401 0.948 1_556 S
C420 C421 1.391 . S
C420 C424 1.391 . S
C420 H462 0.948 . S
C421 C420 1.391 . S
C421 C422 1.391 . S
C422 C421 1.391 . S
C422 H478 0.947 . S
C422 C479 1.392 . S
C423 C424 1.391 . S
C423 C427 1.397 . S
C423 C479 1.419 . S
C424 C420 1.391 . S
C424 C423 1.391 . S
C424 C425 1.399 . S
C425 C424 1.399 . S
C425 C428 1.396 . S
C425 C437 1.453 . S
C425 C438 1.684 . S
H426 C450 0.948 . S
C427 C423 1.397 . S
C427 C428 1.394 . S
C427 C446 1.723 . S
C428 C425 1.396 . S
C428 C427 1.394 . S
C428 C458 1.723 . S
H429 C452 0.947 . S
H430 C453 0.948 . S
H431 C459 0.982 . S
H432 C460 0.979 . S
H433 C460 0.980 . S
H434 C460 0.983 . S
H435 C459 0.979 . S
H436 C459 0.977 . S
C437 C425 1.453 . S
C437 H466 0.982 . S
C437 H467 0.979 . S
C437 H468 0.977 . S
C438 C425 1.684 . S
C438 H463 0.979 . S
C438 H464 0.980 . S
C438 H465 0.983 . S
C439 C440 1.391 . S
C439 C444 1.391 . S
C439 H469 0.948 . S
C440 C439 1.391 . S
C440 C441 1.391 . S
C441 C440 1.391 . S
C441 C442 1.392 . S
C441 H470 0.947 . S
C442 C441 1.392 . S
C442 C443 1.419 . S
C442 H471 0.948 . S
C443 C442 1.419 . S
C443 C444 1.391 . S
C443 C447 1.397 . S
C444 C439 1.391 . S
C444 C443 1.391 . S
C444 C445 1.399 . S
C445 C444 1.399 . S
C445 C446 1.396 . S
C445 C448 1.453 . S
C445 C449 1.684 . S
C446 C427 1.723 . S
C446 C445 1.396 . S
C446 C447 1.394 . S
C447 C443 1.397 . S
C447 C446 1.394 . S
C447 C457 1.723 . S
C448 C445 1.453 . S
C448 H472 0.982 . S
C448 H473 0.979 . S
C448 H474 0.977 . S
C449 C445 1.684 . S
C449 H475 0.979 . S
C449 H476 0.980 . S
C449 H477 0.983 . S
C450 H426 0.948 . S
C450 C451 1.391 . S
C450 C455 1.391 . S
C451 C450 1.391 . S
C451 C452 1.391 . S
C452 H429 0.947 . S
C452 C451 1.391 . S
C452 C453 1.392 . S
C453 H430 0.948 . S
C453 C452 1.392 . S
C453 C454 1.419 . S
C454 C453 1.419 . S
C454 C455 1.391 . S
C454 C458 1.397 . S
C455 C450 1.391 . S
C455 C454 1.391 . S
C455 C456 1.399 . S
C456 C455 1.399 . S
C456 C457 1.396 . S
C456 C459 1.453 . S
C456 C460 1.684 . S
C457 C447 1.723 . S
C457 C456 1.396 . S
C457 C458 1.394 . S
C458 C428 1.723 . S
C458 C454 1.397 . S
C458 C457 1.394 . S
C459 H431 0.982 . S
C459 H435 0.979 . S
C459 H436 0.977 . S
C459 C456 1.453 . S
C460 H432 0.979 . S
C460 H433 0.980 . S
C460 H434 0.983 . S
C460 C456 1.684 . S
H461 C479 0.948 . S
H462 C420 0.948 . S
H463 C438 0.979 . S
H464 C438 0.980 . S
H465 C438 0.983 . S
H466 C437 0.982 . S
H467 C437 0.979 . S
H468 C437 0.977 . S
H469 C439 0.948 . S
H470 C441 0.947 . S
H471 C442 0.948 . S
H472 C448 0.982 . S
H473 C448 0.979 . S
H474 C448 0.977 . S
H475 C449 0.979 . S
H476 C449 0.980 . S
H477 C449 0.983 . S
H478 C422 0.947 . S
C479 C422 1.392 . S
C479 C423 1.419 . S
C479 H461 0.948 . S
Fe480 O482 1.918 . S
Fe480 O485 1.997 1_455 S
Fe480 O486 2.002 1_455 S
Fe480 O491 1.976 . S
Fe480 O494 1.996 . S
Fe481 O482 1.918 . S
Fe481 O489 1.997 1_455 S
Fe481 O492 1.996 . S
Fe481 O496 1.976 . S
Fe481 O499 2.002 1_455 S
O482 Fe480 1.918 . S
O482 Fe481 1.918 . S
O482 Fe483 1.918 . S
Fe483 O482 1.918 . S
Fe483 O484 2.002 1_455 S
Fe483 O493 1.976 . S
Fe483 O497 1.996 . S
Fe483 O500 1.997 1_455 S
O484 Fe483 2.002 1_655 S
O484 C501 1.295 . S
O485 Fe480 1.997 1_655 S
O485 C501 1.235 . S
O486 Fe480 2.002 1_655 S
O486 C487 1.295 . S
C487 O486 1.295 . S
C487 O489 1.235 . S
C488 O493 1.287 . S
C488 O494 1.255 . S
O489 Fe481 1.997 1_655 S
O489 C487 1.235 . S
C490 O496 1.287 . S
C490 O497 1.255 . S
O491 Fe480 1.976 . S
O491 C498 1.287 . S
O492 Fe481 1.996 . S
O492 C498 1.255 . S
O493 Fe483 1.976 . S
O493 C488 1.287 . S
O494 Fe480 1.996 . S
O494 C488 1.255 . S
C495 O499 1.295 . S
C495 O500 1.235 . S
O496 Fe481 1.976 . S
O496 C490 1.287 . S
O497 Fe483 1.996 . S
O497 C490 1.255 . S
C498 O491 1.287 . S
C498 O492 1.255 . S
O499 Fe481 2.002 1_655 S
O499 C495 1.295 . S
O500 Fe483 1.997 1_655 S
O500 C495 1.235 . S
C501 O484 1.295 . S
C501 O485 1.235 . S
Fe502 O504 1.919 . S
Fe502 O507 1.983 1_655 S
Fe502 O508 1.988 1_655 S
Fe502 O513 1.989 . S
Fe502 O516 2.009 . S
Fe503 O504 1.919 . S
Fe503 O511 1.983 1_655 S
Fe503 O514 2.009 . S
Fe503 O518 1.989 . S
Fe503 O521 1.989 1_655 S
O504 Fe502 1.919 . S
O504 Fe503 1.919 . S
O504 Fe505 1.918 . S
Fe505 O504 1.918 . S
Fe505 O506 1.989 1_655 S
Fe505 O515 1.989 . S
Fe505 O519 2.008 . S
Fe505 O522 1.984 1_655 S
O506 Fe505 1.989 1_455 S
O506 C523 1.295 . S
O507 Fe502 1.983 1_455 S
O507 C523 1.235 . S
O508 Fe502 1.988 1_455 S
O508 C509 1.295 . S
C509 O508 1.295 . S
C509 O511 1.235 . S
C510 O515 1.287 . S
C510 O516 1.255 . S
O511 Fe503 1.983 1_455 S
O511 C509 1.235 . S
C512 O518 1.287 . S
C512 O519 1.255 . S
O513 Fe502 1.989 . S
O513 C520 1.287 . S
O514 Fe503 2.009 . S
O514 C520 1.255 . S
O515 Fe505 1.989 . S
O515 C510 1.287 . S
O516 Fe502 2.009 . S
O516 C510 1.255 . S
C517 O521 1.295 . S
C517 O522 1.235 . S
O518 Fe503 1.989 . S
O518 C512 1.287 . S
O519 Fe505 2.008 . S
O519 C512 1.255 . S
C520 O513 1.287 . S
C520 O514 1.255 . S
O521 Fe503 1.989 1_455 S
O521 C517 1.295 . S
O522 Fe505 1.984 1_455 S
O522 C517 1.235 . S
C523 O506 1.295 . S
C523 O507 1.235 . S
Fe524 O526 1.918 . S
Fe524 O529 1.997 . S
Fe524 O530 2.002 . S
Fe524 O535 1.976 . S
Fe524 O538 1.996 . S
Fe525 O526 1.918 . S
Fe525 O533 1.997 . S
Fe525 O536 1.996 . S
Fe525 O540 1.976 . S
Fe525 O543 2.002 . S
O526 Fe524 1.918 . S
O526 Fe525 1.918 . S
O526 Fe527 1.918 . S
Fe527 O526 1.918 . S
Fe527 O528 2.002 . S
Fe527 O537 1.976 . S
Fe527 O541 1.996 . S
Fe527 O544 1.997 . S
O528 Fe527 2.002 . S
O528 C545 1.295 . S
O529 Fe524 1.997 . S
O529 C545 1.235 . S
O530 Fe524 2.002 . S
O530 C531 1.295 . S
C531 O530 1.295 . S
C531 O533 1.235 . S
C532 O537 1.287 . S
C532 O538 1.255 . S
O533 Fe525 1.997 . S
O533 C531 1.235 . S
C534 O540 1.287 . S
C534 O541 1.255 . S
O535 Fe524 1.976 . S
O535 C542 1.287 . S
O536 Fe525 1.996 . S
O536 C542 1.255 . S
O537 Fe527 1.976 . S
O537 C532 1.287 . S
O538 Fe524 1.996 . S
O538 C532 1.255 . S
C539 O543 1.295 . S
C539 O544 1.235 . S
O540 Fe525 1.976 . S
O540 C534 1.287 . S
O541 Fe527 1.996 . S
O541 C534 1.255 . S
C542 O535 1.287 . S
C542 O536 1.255 . S
O543 Fe525 2.002 . S
O543 C539 1.295 . S
O544 Fe527 1.997 . S
O544 C539 1.235 . S
C545 O528 1.295 . S
C545 O529 1.235 . S
Fe546 O548 1.918 . S
Fe546 O551 1.997 . S
Fe546 O552 2.002 . S
Fe546 O557 1.976 . S
Fe546 O560 1.996 . S
Fe547 O548 1.918 . S
Fe547 O555 1.997 . S
Fe547 O558 1.996 . S
Fe547 O562 1.976 . S
Fe547 O565 2.002 . S
O548 Fe546 1.918 . S
O548 Fe547 1.918 . S
O548 Fe549 1.918 . S
Fe549 O548 1.918 . S
Fe549 O550 2.002 . S
Fe549 O559 1.976 . S
Fe549 O563 1.996 . S
Fe549 O566 1.997 . S
O550 Fe549 2.002 . S
O550 C567 1.295 . S
O551 Fe546 1.997 . S
O551 C567 1.235 . S
O552 Fe546 2.002 . S
O552 C553 1.295 . S
C553 O552 1.295 . S
C553 O555 1.235 . S
C554 O559 1.287 . S
C554 O560 1.255 . S
O555 Fe547 1.997 . S
O555 C553 1.235 . S
C556 O562 1.287 . S
C556 O563 1.255 . S
O557 Fe546 1.976 . S
O557 C564 1.287 . S
O558 Fe547 1.996 . S
O558 C564 1.255 . S
O559 Fe549 1.976 . S
O559 C554 1.287 . S
O560 Fe546 1.996 . S
O560 C554 1.255 . S
C561 O565 1.295 . S
C561 O566 1.235 . S
O562 Fe547 1.976 . S
O562 C556 1.287 . S
O563 Fe549 1.996 . S
O563 C556 1.255 . S
C564 O557 1.287 . S
C564 O558 1.255 . S
O565 Fe547 2.002 . S
O565 C561 1.295 . S
O566 Fe549 1.997 . S
O566 C561 1.235 . S
C567 O550 1.295 . S
C567 O551 1.235 . S
C568 C569 1.349 . S
C568 C570 1.327 . S
C568 H593 0.950 . S
C569 C568 1.349 . S
C569 C585 1.349 . S
C570 C568 1.327 . S
C570 C589 1.429 . S
C570 H594 0.950 . S
C571 C588 1.574 . S
C571 C590 1.368 . S
C571 H595 0.949 . S
H572 C576 0.949 . S
C573 C574 1.349 . S
C573 C575 1.327 . S
C573 H596 0.950 . S
C574 C573 1.349 . S
C574 C586 1.349 . S
C575 C573 1.327 . S
C575 C591 1.429 . S
C575 H597 0.950 . S
C576 H572 0.949 . S
C576 C584 1.574 . S
C576 C592 1.368 . S
H577 C585 0.950 . S
H578 C583 0.950 . S
H579 C584 0.949 . S
H580 C586 0.950 . S
H581 C587 0.950 . S
H582 C588 0.949 . S
C583 H578 0.950 . S
C583 C585 1.327 . S
C583 C589 1.429 . S
C584 C576 1.574 . S
C584 H579 0.949 . S
C584 C590 1.368 . S
C585 C569 1.349 . S
C585 H577 0.950 . S
C585 C583 1.327 . S
C586 C574 1.349 . S
C586 H580 0.950 . S
C586 C587 1.327 . S
C587 H581 0.950 . S
C587 C586 1.327 . S
C587 C591 1.429 . S
C588 C571 1.574 . S
C588 H582 0.949 . S
C588 C592 1.368 . S
C589 C570 1.429 . S
C589 C583 1.429 . S
C589 C590 1.523 . S
C590 C571 1.368 . S
C590 C584 1.368 . S
C590 C589 1.523 . S
C591 C575 1.429 . S
C591 C587 1.429 . S
C591 C592 1.523 . S
C592 C576 1.368 . S
C592 C588 1.368 . S
C592 C591 1.523 . S
H593 C568 0.950 . S
H594 C570 0.950 . S
H595 C571 0.949 . S
H596 C573 0.950 . S
H597 C575 0.950 . S
C598 C599 1.349 . S
C598 C600 1.327 . S
C598 H623 0.950 . S
C599 C598 1.349 . S
C599 C615 1.349 . S
C600 C598 1.327 . S
C600 C619 1.429 . S
C600 H624 0.950 . S
C601 C618 1.574 . S
C601 C620 1.368 . S
C601 H625 0.949 . S
H602 C606 0.949 . S
C603 C604 1.349 . S
C603 C605 1.327 . S
C603 H626 0.950 . S
C604 C603 1.349 . S
C604 C616 1.349 . S
C605 C603 1.327 . S
C605 C621 1.429 . S
C605 H627 0.950 . S
C606 H602 0.949 . S
C606 C614 1.574 . S
C606 C622 1.368 . S
H607 C615 0.950 . S
H608 C613 0.950 . S
H609 C614 0.949 . S
H610 C616 0.950 . S
H611 C617 0.950 . S
H612 C618 0.949 . S
C613 H608 0.950 . S
C613 C615 1.327 . S
C613 C619 1.429 . S
C614 C606 1.574 . S
C614 H609 0.949 . S
C614 C620 1.368 . S
C615 C599 1.349 . S
C615 H607 0.950 . S
C615 C613 1.327 . S
C616 C604 1.349 . S
C616 H610 0.950 . S
C616 C617 1.327 . S
C617 H611 0.950 . S
C617 C616 1.327 . S
C617 C621 1.429 . S
C618 C601 1.574 . S
C618 H612 0.949 . S
C618 C622 1.368 . S
C619 C600 1.429 . S
C619 C613 1.429 . S
C619 C620 1.523 . S
C620 C601 1.368 . S
C620 C614 1.368 . S
C620 C619 1.523 . S
C621 C605 1.429 . S
C621 C617 1.429 . S
C621 C622 1.523 . S
C622 C606 1.368 . S
C622 C618 1.368 . S
C622 C621 1.523 . S
H623 C598 0.950 . S
H624 C600 0.950 . S
H625 C601 0.949 . S
H626 C603 0.950 . S
H627 C605 0.950 . S
C628 C629 1.349 . S
C628 C630 1.327 . S
C628 H653 0.950 . S
C629 C628 1.349 . S
C629 C645 1.349 . S
C630 C628 1.327 . S
C630 C649 1.429 . S
C630 H654 0.950 . S
C631 C648 1.574 . S
C631 C650 1.368 . S
C631 H655 0.949 . S
H632 C636 0.949 . S
C633 C634 1.349 . S
C633 C635 1.327 . S
C633 H656 0.950 . S
C634 C633 1.349 . S
C634 C646 1.349 . S
C635 C633 1.327 . S
C635 C651 1.429 . S
C635 H657 0.950 . S
C636 H632 0.949 . S
C636 C644 1.574 . S
C636 C652 1.368 . S
H637 C645 0.950 . S
H638 C643 0.950 . S
H639 C644 0.949 . S
H640 C646 0.950 . S
H641 C647 0.950 . S
H642 C648 0.949 . S
C643 H638 0.950 . S
C643 C645 1.327 . S
C643 C649 1.429 . S
C644 C636 1.574 . S
C644 H639 0.949 . S
C644 C650 1.368 . S
C645 C629 1.349 . S
C645 H637 0.950 . S
C645 C643 1.327 . S
C646 C634 1.349 . S
C646 H640 0.950 . S
C646 C647 1.327 . S
C647 H641 0.950 . S
C647 C646 1.327 . S
C647 C651 1.429 . S
C648 C631 1.574 . S
C648 H642 0.949 . S
C648 C652 1.368 . S
C649 C630 1.429 . S
C649 C643 1.429 . S
C649 C650 1.523 . S
C650 C631 1.368 . S
C650 C644 1.368 . S
C650 C649 1.523 . S
C651 C635 1.429 . S
C651 C647 1.429 . S
C651 C652 1.523 . S
C652 C636 1.368 . S
C652 C648 1.368 . S
C652 C651 1.523 . S
H653 C628 0.950 . S
H654 C630 0.950 . S
H655 C631 0.949 . S
H656 C633 0.950 . S
H657 C635 0.950 . S
C658 C659 1.349 . S
C658 C660 1.327 . S
C658 H683 0.950 . S
C659 C658 1.349 . S
C659 C675 1.349 . S
C660 C658 1.327 . S
C660 C679 1.429 . S
C660 H684 0.950 . S
C661 C678 1.574 . S
C661 C680 1.368 . S
C661 H685 0.949 . S
H662 C666 0.949 . S
C663 C664 1.349 . S
C663 C665 1.327 . S
C663 H686 0.950 . S
C664 C663 1.349 . S
C664 C676 1.349 . S
C665 C663 1.327 . S
C665 C681 1.429 . S
C665 H687 0.950 . S
C666 H662 0.949 . S
C666 C674 1.574 . S
C666 C682 1.368 . S
H667 C675 0.950 . S
H668 C673 0.950 . S
H669 C674 0.949 . S
H670 C676 0.950 . S
H671 C677 0.950 . S
H672 C678 0.949 . S
C673 H668 0.950 . S
C673 C675 1.327 . S
C673 C679 1.429 . S
C674 C666 1.574 . S
C674 H669 0.949 . S
C674 C680 1.368 . S
C675 C659 1.349 . S
C675 H667 0.950 . S
C675 C673 1.327 . S
C676 C664 1.349 . S
C676 H670 0.950 . S
C676 C677 1.327 . S
C677 H671 0.950 . S
C677 C676 1.327 . S
C677 C681 1.429 . S
C678 C661 1.574 . S
C678 H672 0.949 . S
C678 C682 1.368 . S
C679 C660 1.429 . S
C679 C673 1.429 . S
C679 C680 1.523 . S
C680 C661 1.368 . S
C680 C674 1.368 . S
C680 C679 1.523 . S
C681 C665 1.429 . S
C681 C677 1.429 . S
C681 C682 1.523 . S
C682 C666 1.368 . S
C682 C678 1.368 . S
C682 C681 1.523 . S
H683 C658 0.950 . S
H684 C660 0.950 . S
H685 C661 0.949 . S
H686 C663 0.950 . S
H687 C665 0.950 . S
C688 C689 1.349 . S
C688 C690 1.327 . S
C688 H713 0.950 . S
C689 C688 1.349 . S
C689 C705 1.349 . S
C690 C688 1.327 . S
C690 C709 1.429 . S
C690 H714 0.950 . S
C691 C708 1.574 . S
C691 C710 1.368 . S
C691 H715 0.949 . S
H692 C696 0.949 . S
C693 C694 1.349 . S
C693 C695 1.327 . S
C693 H716 0.950 . S
C694 C693 1.349 . S
C694 C706 1.349 . S
C695 C693 1.327 . S
C695 C711 1.429 . S
C695 H717 0.950 . S
C696 H692 0.949 . S
C696 C704 1.574 . S
C696 C712 1.368 . S
H697 C705 0.950 . S
H698 C703 0.950 . S
H699 C704 0.949 . S
H700 C706 0.950 . S
H701 C707 0.950 . S
H702 C708 0.949 . S
C703 H698 0.950 . S
C703 C705 1.327 . S
C703 C709 1.429 . S
C704 C696 1.574 . S
C704 H699 0.949 . S
C704 C710 1.368 . S
C705 C689 1.349 . S
C705 H697 0.950 . S
C705 C703 1.327 . S
C706 C694 1.349 . S
C706 H700 0.950 . S
C706 C707 1.327 . S
C707 H701 0.950 . S
C707 C706 1.327 . S
C707 C711 1.429 . S
C708 C691 1.574 . S
C708 H702 0.949 . S
C708 C712 1.368 . S
C709 C690 1.429 . S
C709 C703 1.429 . S
C709 C710 1.523 . S
C710 C691 1.368 . S
C710 C704 1.368 . S
C710 C709 1.523 . S
C711 C695 1.429 . S
C711 C707 1.429 . S
C711 C712 1.523 . S
C712 C696 1.368 . S
C712 C708 1.368 . S
C712 C711 1.523 . S
H713 C688 0.950 . S
H714 C690 0.950 . S
H715 C691 0.949 . S
H716 C693 0.950 . S
H717 C695 0.950 . S
C718 C719 1.349 . S
C718 C720 1.327 . S
C718 H743 0.950 . S
C719 C718 1.349 . S
C719 C735 1.349 . S
C720 C718 1.327 . S
C720 C739 1.429 . S
C720 H744 0.950 . S
C721 C738 1.574 . S
C721 C740 1.368 . S
C721 H745 0.949 . S
H722 C726 0.949 . S
C723 C724 1.349 . S
C723 C725 1.327 . S
C723 H746 0.950 . S
C724 C723 1.349 . S
C724 C736 1.349 . S
C725 C723 1.327 . S
C725 C741 1.429 . S
C725 H747 0.950 . S
C726 H722 0.949 . S
C726 C734 1.574 . S
C726 C742 1.368 . S
H727 C735 0.950 . S
H728 C733 0.950 . S
H729 C734 0.949 . S
H730 C736 0.950 . S
H731 C737 0.950 . S
H732 C738 0.949 . S
C733 H728 0.950 . S
C733 C735 1.327 . S
C733 C739 1.429 . S
C734 C726 1.574 . S
C734 H729 0.949 . S
C734 C740 1.368 . S
C735 C719 1.349 . S
C735 H727 0.950 . S
C735 C733 1.327 . S
C736 C724 1.349 . S
C736 H730 0.950 . S
C736 C737 1.327 . S
C737 H731 0.950 . S
C737 C736 1.327 . S
C737 C741 1.429 . S
C738 C721 1.574 . S
C738 H732 0.949 . S
C738 C742 1.368 . S
C739 C720 1.429 . S
C739 C733 1.429 . S
C739 C740 1.523 . S
C740 C721 1.368 . S
C740 C734 1.368 . S
C740 C739 1.523 . S
C741 C725 1.429 . S
C741 C737 1.429 . S
C741 C742 1.523 . S
C742 C726 1.368 . S
C742 C738 1.368 . S
C742 C741 1.523 . S
H743 C718 0.950 . S
H744 C720 0.950 . S
H745 C721 0.949 . S
H746 C723 0.950 . S
H747 C725 0.950 . S
C748 C749 1.349 . S
C748 C750 1.327 . S
C748 H773 0.950 . S
C749 C748 1.349 . S
C749 C765 1.349 . S
C750 C748 1.327 . S
C750 C769 1.429 . S
C750 H774 0.950 . S
C751 C768 1.574 . S
C751 C770 1.368 . S
C751 H775 0.949 . S
H752 C756 0.949 . S
C753 C754 1.349 . S
C753 C755 1.327 . S
C753 H776 0.950 . S
C754 C753 1.349 . S
C754 C766 1.349 . S
C755 C753 1.327 . S
C755 C771 1.429 . S
C755 H777 0.950 . S
C756 H752 0.949 . S
C756 C764 1.574 . S
C756 C772 1.368 . S
H757 C765 0.950 . S
H758 C763 0.950 . S
H759 C764 0.949 . S
H760 C766 0.950 . S
H761 C767 0.950 . S
H762 C768 0.949 . S
C763 H758 0.950 . S
C763 C765 1.327 . S
C763 C769 1.429 . S
C764 C756 1.574 . S
C764 H759 0.949 . S
C764 C770 1.368 . S
C765 C749 1.349 . S
C765 H757 0.950 . S
C765 C763 1.327 . S
C766 C754 1.349 . S
C766 H760 0.950 . S
C766 C767 1.327 . S
C767 H761 0.950 . S
C767 C766 1.327 . S
C767 C771 1.429 . S
C768 C751 1.574 . S
C768 H762 0.949 . S
C768 C772 1.368 . S
C769 C750 1.429 . S
C769 C763 1.429 . S
C769 C770 1.523 . S
C770 C751 1.368 . S
C770 C764 1.368 . S
C770 C769 1.523 . S
C771 C755 1.429 . S
C771 C767 1.429 . S
C771 C772 1.523 . S
C772 C756 1.368 . S
C772 C768 1.368 . S
C772 C771 1.523 . S
H773 C748 0.950 . S
H774 C750 0.950 . S
H775 C751 0.949 . S
H776 C753 0.950 . S
H777 C755 0.950 . S
C778 C779 1.349 . S
C778 C780 1.327 . S
C778 H803 0.950 . S
C779 C778 1.349 . S
C779 C795 1.349 . S
C780 C778 1.327 . S
C780 C799 1.429 . S
C780 H804 0.950 . S
C781 C798 1.574 . S
C781 C800 1.368 . S
C781 H805 0.949 . S
H782 C786 0.949 . S
C783 C784 1.349 . S
C783 C785 1.327 . S
C783 H806 0.950 . S
C784 C783 1.349 . S
C784 C796 1.349 . S
C785 C783 1.327 . S
C785 C801 1.429 . S
C785 H807 0.950 . S
C786 H782 0.949 . S
C786 C794 1.574 . S
C786 C802 1.368 . S
H787 C795 0.950 . S
H788 C793 0.950 . S
H789 C794 0.949 . S
H790 C796 0.950 . S
H791 C797 0.950 . S
H792 C798 0.949 . S
C793 H788 0.950 . S
C793 C795 1.327 . S
C793 C799 1.429 . S
C794 C786 1.574 . S
C794 H789 0.949 . S
C794 C800 1.368 . S
C795 C779 1.349 . S
C795 H787 0.950 . S
C795 C793 1.327 . S
C796 C784 1.349 . S
C796 H790 0.950 . S
C796 C797 1.327 . S
C797 H791 0.950 . S
C797 C796 1.327 . S
C797 C801 1.429 . S
C798 C781 1.574 . S
C798 H792 0.949 . S
C798 C802 1.368 . S
C799 C780 1.429 . S
C799 C793 1.429 . S
C799 C800 1.523 . S
C800 C781 1.368 . S
C800 C794 1.368 . S
C800 C799 1.523 . S
C801 C785 1.429 . S
C801 C797 1.429 . S
C801 C802 1.523 . S
C802 C786 1.368 . S
C802 C798 1.368 . S
C802 C801 1.523 . S
H803 C778 0.950 . S
H804 C780 0.950 . S
H805 C781 0.949 . S
H806 C783 0.950 . S
H807 C785 0.950 . S
C808 C809 1.349 . S
C808 C810 1.327 . S
C808 H833 0.950 . S
C809 C808 1.349 . S
C809 C825 1.349 . S
C810 C808 1.327 . S
C810 C829 1.429 . S
C810 H834 0.950 . S
C811 C828 1.574 . S
C811 C830 1.368 . S
C811 H835 0.949 . S
H812 C816 0.949 . S
C813 C814 1.349 . S
C813 C815 1.327 . S
C813 H836 0.950 . S
C814 C813 1.349 . S
C814 C826 1.349 . S
C815 C813 1.327 . S
C815 C831 1.429 . S
C815 H837 0.950 . S
C816 H812 0.949 . S
C816 C824 1.574 . S
C816 C832 1.368 . S
H817 C825 0.950 . S
H818 C823 0.950 . S
H819 C824 0.949 . S
H820 C826 0.950 . S
H821 C827 0.950 . S
H822 C828 0.949 . S
C823 H818 0.950 . S
C823 C825 1.327 . S
C823 C829 1.429 . S
C824 C816 1.574 . S
C824 H819 0.949 . S
C824 C830 1.368 . S
C825 C809 1.349 . S
C825 H817 0.950 . S
C825 C823 1.327 . S
C826 C814 1.349 . S
C826 H820 0.950 . S
C826 C827 1.327 . S
C827 H821 0.950 . S
C827 C826 1.327 . S
C827 C831 1.429 . S
C828 C811 1.574 . S
C828 H822 0.949 . S
C828 C832 1.368 . S
C829 C810 1.429 . S
C829 C823 1.429 . S
C829 C830 1.523 . S
C830 C811 1.368 . S
C830 C824 1.368 . S
C830 C829 1.523 . S
C831 C815 1.429 . S
C831 C827 1.429 . S
C831 C832 1.523 . S
C832 C816 1.368 . S
C832 C828 1.368 . S
C832 C831 1.523 . S
H833 C808 0.950 . S
H834 C810 0.950 . S
H835 C811 0.949 . S
H836 C813 0.950 . S
H837 C815 0.950 . S
C838 C839 1.349 . S
C838 C840 1.327 . S
C838 H863 0.950 . S
C839 C838 1.349 . S
C839 C855 1.349 . S
C840 C838 1.327 . S
C840 C859 1.429 . S
C840 H864 0.950 . S
C841 C858 1.574 . S
C841 C860 1.368 . S
C841 H865 0.949 . S
H842 C846 0.949 . S
C843 C844 1.349 . S
C843 C845 1.327 . S
C843 H866 0.950 . S
C844 C843 1.349 . S
C844 C856 1.349 . S
C845 C843 1.327 . S
C845 C861 1.429 . S
C845 H867 0.950 . S
C846 H842 0.949 . S
C846 C854 1.574 . S
C846 C862 1.368 . S
H847 C855 0.950 . S
H848 C853 0.950 . S
H849 C854 0.949 . S
H850 C856 0.950 . S
H851 C857 0.950 . S
H852 C858 0.949 . S
C853 H848 0.950 . S
C853 C855 1.327 . S
C853 C859 1.429 . S
C854 C846 1.574 . S
C854 H849 0.949 . S
C854 C860 1.368 . S
C855 C839 1.349 . S
C855 H847 0.950 . S
C855 C853 1.327 . S
C856 C844 1.349 . S
C856 H850 0.950 . S
C856 C857 1.327 . S
C857 H851 0.950 . S
C857 C856 1.327 . S
C857 C861 1.429 . S
C858 C841 1.574 . S
C858 H852 0.949 . S
C858 C862 1.368 . S
C859 C840 1.429 . S
C859 C853 1.429 . S
C859 C860 1.523 . S
C860 C841 1.368 . S
C860 C854 1.368 . S
C860 C859 1.523 . S
C861 C845 1.429 . S
C861 C857 1.429 . S
C861 C862 1.523 . S
C862 C846 1.368 . S
C862 C858 1.368 . S
C862 C861 1.523 . S
H863 C838 0.950 . S
H864 C840 0.950 . S
H865 C841 0.949 . S
H866 C843 0.950 . S
H867 C845 0.950 . S
C868 C869 1.349 . S
C868 C870 1.327 . S
C868 H893 0.950 . S
C869 C868 1.349 . S
C869 C885 1.349 . S
C870 C868 1.327 . S
C870 C889 1.429 . S
C870 H894 0.950 . S
C871 C888 1.574 . S
C871 C890 1.368 . S
C871 H895 0.949 . S
H872 C876 0.949 . S
C873 C874 1.349 . S
C873 C875 1.327 . S
C873 H896 0.950 . S
C874 C873 1.349 . S
C874 C886 1.349 . S
C875 C873 1.327 . S
C875 C891 1.429 . S
C875 H897 0.950 . S
C876 H872 0.949 . S
C876 C884 1.574 . S
C876 C892 1.368 . S
H877 C885 0.950 . S
H878 C883 0.950 . S
H879 C884 0.949 . S
H880 C886 0.950 . S
H881 C887 0.950 . S
H882 C888 0.949 . S
C883 H878 0.950 . S
C883 C885 1.327 . S
C883 C889 1.429 . S
C884 C876 1.574 . S
C884 H879 0.949 . S
C884 C890 1.368 . S
C885 C869 1.349 . S
C885 H877 0.950 . S
C885 C883 1.327 . S
C886 C874 1.349 . S
C886 H880 0.950 . S
C886 C887 1.327 . S
C887 H881 0.950 . S
C887 C886 1.327 . S
C887 C891 1.429 . S
C888 C871 1.574 . S
C888 H882 0.949 . S
C888 C892 1.368 . S
C889 C870 1.429 . S
C889 C883 1.429 . S
C889 C890 1.523 . S
C890 C871 1.368 . S
C890 C884 1.368 . S
C890 C889 1.523 . S
C891 C875 1.429 . S
C891 C887 1.429 . S
C891 C892 1.523 . S
C892 C876 1.368 . S
C892 C888 1.368 . S
C892 C891 1.523 . S
H893 C868 0.950 . S
H894 C870 0.950 . S
H895 C871 0.949 . S
H896 C873 0.950 . S
H897 C875 0.950 . S
C898 C899 1.349 . S
C898 C900 1.327 . S
C898 H923 0.950 . S
C899 C898 1.349 . S
C899 C915 1.349 . S
C900 C898 1.327 . S
C900 C919 1.429 . S
C900 H924 0.950 . S
C901 C918 1.574 . S
C901 C920 1.368 . S
C901 H925 0.949 . S
H902 C906 0.949 . S
C903 C904 1.349 . S
C903 C905 1.327 . S
C903 H926 0.950 . S
C904 C903 1.349 . S
C904 C916 1.349 . S
C905 C903 1.327 . S
C905 C921 1.429 . S
C905 H927 0.950 . S
C906 H902 0.949 . S
C906 C914 1.574 . S
C906 C922 1.368 . S
H907 C915 0.950 . S
H908 C913 0.950 . S
H909 C914 0.949 . S
H910 C916 0.950 . S
H911 C917 0.950 . S
H912 C918 0.949 . S
C913 H908 0.950 . S
C913 C915 1.327 . S
C913 C919 1.429 . S
C914 C906 1.574 . S
C914 H909 0.949 . S
C914 C920 1.368 . S
C915 C899 1.349 . S
C915 H907 0.950 . S
C915 C913 1.327 . S
C916 C904 1.349 . S
C916 H910 0.950 . S
C916 C917 1.327 . S
C917 H911 0.950 . S
C917 C916 1.327 . S
C917 C921 1.429 . S
C918 C901 1.574 . S
C918 H912 0.949 . S
C918 C922 1.368 . S
C919 C900 1.429 . S
C919 C913 1.429 . S
C919 C920 1.523 . S
C920 C901 1.368 . S
C920 C914 1.368 . S
C920 C919 1.523 . S
C921 C905 1.429 . S
C921 C917 1.429 . S
C921 C922 1.523 . S
C922 C906 1.368 . S
C922 C918 1.368 . S
C922 C921 1.523 . S
H923 C898 0.950 . S
H924 C900 0.950 . S
H925 C901 0.949 . S
H926 C903 0.950 . S
H927 C905 0.950 . S
C928 C929 1.349 . S
C928 C930 1.327 1_565 S
C928 H953 0.950 . S
C929 C928 1.349 . S
C929 C945 1.349 . S
C930 C928 1.327 1_545 S
C930 C949 1.429 . S
C930 H954 0.950 . S
C931 C948 1.574 . S
C931 C950 1.368 . S
C931 H955 0.949 . S
H932 C936 0.949 . S
C933 C934 1.349 . S
C933 C935 1.327 . S
C933 H956 0.950 . S
C934 C933 1.349 . S
C934 C946 1.349 . S
C935 C933 1.327 . S
C935 C951 1.429 . S
C935 H957 0.950 . S
C936 H932 0.949 . S
C936 C944 1.574 . S
C936 C952 1.368 . S
H937 C945 0.950 . S
H938 C943 0.950 . S
H939 C944 0.949 . S
H940 C946 0.950 . S
H941 C947 0.950 . S
H942 C948 0.949 . S
C943 H938 0.950 . S
C943 C945 1.327 1_545 S
C943 C949 1.429 . S
C944 C936 1.574 . S
C944 H939 0.949 . S
C944 C950 1.368 . S
C945 C929 1.349 . S
C945 H937 0.950 . S
C945 C943 1.327 1_565 S
C946 C934 1.349 . S
C946 H940 0.950 . S
C946 C947 1.327 . S
C947 H941 0.950 . S
C947 C946 1.327 . S
C947 C951 1.429 . S
C948 C931 1.574 . S
C948 H942 0.949 . S
C948 C952 1.368 . S
C949 C930 1.429 . S
C949 C943 1.429 . S
C949 C950 1.523 . S
C950 C931 1.368 . S
C950 C944 1.368 . S
C950 C949 1.523 . S
C951 C935 1.429 . S
C951 C947 1.429 . S
C951 C952 1.523 . S
C952 C936 1.368 . S
C952 C948 1.368 . S
C952 C951 1.523 . S
H953 C928 0.950 . S
H954 C930 0.950 . S
H955 C931 0.949 . S
H956 C933 0.950 . S
H957 C935 0.950 . S
C958 C959 1.349 . S
C958 C960 1.346 . S
C958 H983 0.950 . S
C959 C958 1.349 . S
C959 C975 1.346 . S
C960 C958 1.346 . S
C960 C979 1.409 1_545 S
C960 H984 0.951 . S
C961 C978 1.574 . S
C961 C980 1.368 . S
C961 H985 0.949 . S
H962 C966 0.949 . S
C963 C964 1.349 . S
C963 C965 1.327 . S
C963 H986 0.950 . S
C964 C963 1.349 . S
C964 C976 1.349 . S
C965 C963 1.327 . S
C965 C981 1.429 . S
C965 H987 0.950 . S
C966 H962 0.949 . S
C966 C974 1.574 . S
C966 C982 1.368 . S
H967 C975 0.950 . S
H968 C973 0.950 . S
H969 C974 0.949 . S
H970 C976 0.950 . S
H971 C977 0.950 . S
H972 C978 0.949 . S
C973 H968 0.950 . S
C973 C975 1.330 1_565 S
C973 C979 1.429 . S
C974 C966 1.574 . S
C974 H969 0.949 . S
C974 C980 1.368 . S
C975 C959 1.346 . S
C975 H967 0.950 . S
C975 C973 1.330 1_545 S
C976 C964 1.349 . S
C976 H970 0.950 . S
C976 C977 1.327 . S
C977 H971 0.950 . S
C977 C976 1.327 . S
C977 C981 1.429 . S
C978 C961 1.574 . S
C978 H972 0.949 . S
C978 C982 1.368 . S
C979 C960 1.409 1_565 S
C979 C973 1.429 . S
C979 C980 1.523 . S
C980 C961 1.368 . S
C980 C974 1.368 . S
C980 C979 1.523 . S
C981 C965 1.429 . S
C981 C977 1.429 . S
C981 C982 1.523 . S
C982 C966 1.368 . S
C982 C978 1.368 . S
C982 C981 1.523 . S
H983 C958 0.950 . S
H984 C960 0.951 . S
H985 C961 0.949 . S
H986 C963 0.950 . S
H987 C965 0.950 . S
C988 C989 1.349 1_545 S
C988 C990 1.327 . S
C988 H1013 0.950 . S
C989 C988 1.349 1_565 S
C989 C1005 1.349 . S
C990 C988 1.327 . S
C990 C1009 1.429 . S
C990 H1014 0.950 . S
C991 C1008 1.574 . S
C991 C1010 1.368 . S
C991 H1015 0.949 . S
H992 C996 0.949 . S
C993 C994 1.349 . S
C993 C995 1.327 . S
C993 H1016 0.950 . S
C994 C993 1.349 . S
C994 C1006 1.349 . S
C995 C993 1.327 . S
C995 C1011 1.429 . S
C995 H1017 0.950 . S
C996 H992 0.949 . S
C996 C1004 1.574 . S
C996 C1012 1.368 . S
H997 C1005 0.950 . S
H998 C1003 0.950 . S
H999 C1004 0.949 . S
H1000 C1006 0.950 . S
H1001 C1007 0.950 . S
H1002 C1008 0.949 . S
C1003 H998 0.950 . S
C1003 C1005 1.327 . S
C1003 C1009 1.429 1_565 S
C1004 C996 1.574 . S
C1004 H999 0.949 . S
C1004 C1010 1.368 . S
C1005 C989 1.349 . S
C1005 H997 0.950 . S
C1005 C1003 1.327 . S
C1006 C994 1.349 . S
C1006 H1000 0.950 . S
C1006 C1007 1.327 . S
C1007 H1001 0.950 . S
C1007 C1006 1.327 . S
C1007 C1011 1.429 . S
C1008 C991 1.574 . S
C1008 H1002 0.949 . S
C1008 C1012 1.368 . S
C1009 C990 1.429 . S
C1009 C1003 1.429 1_545 S
C1009 C1010 1.523 . S
C1010 C991 1.368 . S
C1010 C1004 1.368 . S
C1010 C1009 1.523 . S
C1011 C995 1.429 . S
C1011 C1007 1.429 . S
C1011 C1012 1.523 . S
C1012 C996 1.368 . S
C1012 C1008 1.368 . S
C1012 C1011 1.523 . S
H1013 C988 0.950 . S
H1014 C990 0.950 . S
H1015 C991 0.949 . S
H1016 C993 0.950 . S
H1017 C995 0.950 . S
C1018 C1019 1.349 . S
C1018 C1020 1.327 . S
C1018 H1043 0.950 . S
C1019 C1018 1.349 . S
C1019 C1035 1.349 1_545 S
C1020 C1018 1.327 . S
C1020 C1039 1.429 1_545 S
C1020 H1044 0.950 . S
C1021 C1038 1.574 . S
C1021 C1040 1.368 . S
C1021 H1045 0.949 . S
H1022 C1026 0.949 . S
C1023 C1024 1.349 . S
C1023 C1025 1.327 . S
C1023 H1046 0.950 . S
C1024 C1023 1.349 . S
C1024 C1036 1.349 . S
C1025 C1023 1.327 . S
C1025 C1041 1.429 . S
C1025 H1047 0.950 . S
C1026 H1022 0.949 . S
C1026 C1034 1.574 . S
C1026 C1042 1.368 . S
H1027 C1035 0.950 . S
H1028 C1033 0.950 . S
H1029 C1034 0.949 . S
H1030 C1036 0.950 . S
H1031 C1037 0.950 . S
H1032 C1038 0.949 . S
C1033 H1028 0.950 . S
C1033 C1035 1.327 . S
C1033 C1039 1.429 . S
C1034 C1026 1.574 . S
C1034 H1029 0.949 . S
C1034 C1040 1.368 . S
C1035 C1019 1.349 1_565 S
C1035 H1027 0.950 . S
C1035 C1033 1.327 . S
C1036 C1024 1.349 . S
C1036 H1030 0.950 . S
C1036 C1037 1.327 . S
C1037 H1031 0.950 . S
C1037 C1036 1.327 . S
C1037 C1041 1.429 . S
C1038 C1021 1.574 . S
C1038 H1032 0.949 . S
C1038 C1042 1.368 . S
C1039 C1020 1.429 1_565 S
C1039 C1033 1.429 . S
C1039 C1040 1.523 . S
C1040 C1021 1.368 . S
C1040 C1034 1.368 . S
C1040 C1039 1.523 . S
C1041 C1025 1.429 . S
C1041 C1037 1.429 . S
C1041 C1042 1.523 . S
C1042 C1026 1.368 . S
C1042 C1038 1.368 . S
C1042 C1041 1.523 . S
H1043 C1018 0.950 . S
H1044 C1020 0.950 . S
H1045 C1021 0.949 . S
H1046 C1023 0.950 . S
H1047 C1025 0.950 . S
C1048 C1049 1.349 . S
C1048 C1050 1.327 . S
C1048 H1073 0.950 . S
C1049 C1048 1.349 . S
C1049 C1065 1.349 . S
C1050 C1048 1.327 . S
C1050 C1069 1.429 . S
C1050 H1074 0.950 . S
C1051 C1068 1.574 . S
C1051 C1070 1.368 . S
C1051 H1075 0.949 . S
H1052 C1056 0.949 . S
C1053 C1054 1.349 . S
C1053 C1055 1.327 . S
C1053 H1076 0.950 . S
C1054 C1053 1.349 . S
C1054 C1066 1.349 . S
C1055 C1053 1.327 . S
C1055 C1071 1.429 . S
C1055 H1077 0.950 . S
C1056 H1052 0.949 . S
C1056 C1064 1.574 . S
C1056 C1072 1.368 . S
H1057 C1065 0.950 . S
H1058 C1063 0.950 . S
H1059 C1064 0.949 . S
H1060 C1066 0.950 . S
H1061 C1067 0.950 . S
H1062 C1068 0.949 . S
C1063 H1058 0.950 . S
C1063 C1065 1.327 . S
C1063 C1069 1.429 . S
C1064 C1056 1.574 . S
C1064 H1059 0.949 . S
C1064 C1070 1.368 . S
C1065 C1049 1.349 . S
C1065 H1057 0.950 . S
C1065 C1063 1.327 . S
C1066 C1054 1.349 . S
C1066 H1060 0.950 . S
C1066 C1067 1.327 . S
C1067 H1061 0.950 . S
C1067 C1066 1.327 . S
C1067 C1071 1.429 . S
C1068 C1051 1.574 . S
C1068 H1062 0.949 . S
C1068 C1072 1.368 . S
C1069 C1050 1.429 . S
C1069 C1063 1.429 . S
C1069 C1070 1.523 . S
C1070 C1051 1.368 . S
C1070 C1064 1.368 . S
C1070 C1069 1.523 . S
C1071 C1055 1.429 . S
C1071 C1067 1.429 . S
C1071 C1072 1.523 . S
C1072 C1056 1.368 . S
C1072 C1068 1.368 . S
C1072 C1071 1.523 . S
H1073 C1048 0.950 . S
H1074 C1050 0.950 . S
H1075 C1051 0.949 . S
H1076 C1053 0.950 . S
H1077 C1055 0.950 . S
C1078 C1079 1.349 . S
C1078 C1080 1.327 . S
C1078 H1103 0.950 . S
C1079 C1078 1.349 . S
C1079 C1095 1.349 . S
C1080 C1078 1.327 . S
C1080 C1099 1.429 . S
C1080 H1104 0.950 . S
C1081 C1098 1.574 . S
C1081 C1100 1.368 . S
C1081 H1105 0.949 . S
H1082 C1086 0.949 . S
C1083 C1084 1.349 . S
C1083 C1085 1.327 . S
C1083 H1106 0.950 . S
C1084 C1083 1.349 . S
C1084 C1096 1.349 . S
C1085 C1083 1.327 . S
C1085 C1101 1.429 . S
C1085 H1107 0.950 . S
C1086 H1082 0.949 . S
C1086 C1094 1.574 . S
C1086 C1102 1.368 . S
H1087 C1095 0.950 . S
H1088 C1093 0.950 . S
H1089 C1094 0.949 . S
H1090 C1096 0.950 . S
H1091 C1097 0.950 . S
H1092 C1098 0.949 . S
C1093 H1088 0.950 . S
C1093 C1095 1.327 . S
C1093 C1099 1.429 . S
C1094 C1086 1.574 . S
C1094 H1089 0.949 . S
C1094 C1100 1.368 . S
C1095 C1079 1.349 . S
C1095 H1087 0.950 . S
C1095 C1093 1.327 . S
C1096 C1084 1.349 . S
C1096 H1090 0.950 . S
C1096 C1097 1.327 . S
C1097 H1091 0.950 . S
C1097 C1096 1.327 . S
C1097 C1101 1.429 . S
C1098 C1081 1.574 . S
C1098 H1092 0.949 . S
C1098 C1102 1.368 . S
C1099 C1080 1.429 . S
C1099 C1093 1.429 . S
C1099 C1100 1.523 . S
C1100 C1081 1.368 . S
C1100 C1094 1.368 . S
C1100 C1099 1.523 . S
C1101 C1085 1.429 . S
C1101 C1097 1.429 . S
C1101 C1102 1.523 . S
C1102 C1086 1.368 . S
C1102 C1098 1.368 . S
C1102 C1101 1.523 . S
H1103 C1078 0.950 . S
H1104 C1080 0.950 . S
H1105 C1081 0.949 . S
H1106 C1083 0.950 . S
H1107 C1085 0.950 . S
C1108 C1109 1.349 . S
C1108 C1110 1.327 . S
C1108 H1133 0.950 . S
C1109 C1108 1.349 . S
C1109 C1125 1.349 . S
C1110 C1108 1.327 . S
C1110 C1129 1.429 . S
C1110 H1134 0.950 . S
C1111 C1128 1.574 . S
C1111 C1130 1.368 . S
C1111 H1135 0.949 . S
H1112 C1116 0.949 . S
C1113 C1114 1.349 . S
C1113 C1115 1.327 . S
C1113 H1136 0.950 . S
C1114 C1113 1.349 . S
C1114 C1126 1.349 . S
C1115 C1113 1.327 . S
C1115 C1131 1.429 . S
C1115 H1137 0.950 . S
C1116 H1112 0.949 . S
C1116 C1124 1.574 . S
C1116 C1132 1.368 . S
H1117 C1125 0.950 . S
H1118 C1123 0.950 . S
H1119 C1124 0.949 . S
H1120 C1126 0.950 . S
H1121 C1127 0.950 . S
H1122 C1128 0.949 . S
C1123 H1118 0.950 . S
C1123 C1125 1.327 . S
C1123 C1129 1.429 . S
C1124 C1116 1.574 . S
C1124 H1119 0.949 . S
C1124 C1130 1.368 . S
C1125 C1109 1.349 . S
C1125 H1117 0.950 . S
C1125 C1123 1.327 . S
C1126 C1114 1.349 . S
C1126 H1120 0.950 . S
C1126 C1127 1.327 . S
C1127 H1121 0.950 . S
C1127 C1126 1.327 . S
C1127 C1131 1.429 . S
C1128 C1111 1.574 . S
C1128 H1122 0.949 . S
C1128 C1132 1.368 . S
C1129 C1110 1.429 . S
C1129 C1123 1.429 . S
C1129 C1130 1.523 . S
C1130 C1111 1.368 . S
C1130 C1124 1.368 . S
C1130 C1129 1.523 . S
C1131 C1115 1.429 . S
C1131 C1127 1.429 . S
C1131 C1132 1.523 . S
C1132 C1116 1.368 . S
C1132 C1128 1.368 . S
C1132 C1131 1.523 . S
H1133 C1108 0.950 . S
H1134 C1110 0.950 . S
H1135 C1111 0.949 . S
H1136 C1113 0.950 . S
H1137 C1115 0.950 . S
C1138 C1139 1.349 . S
C1138 C1140 1.327 . S
C1138 H1163 0.950 . S
C1139 C1138 1.349 . S
C1139 C1155 1.349 . S
C1140 C1138 1.327 . S
C1140 C1159 1.429 . S
C1140 H1164 0.950 . S
C1141 C1158 1.574 . S
C1141 C1160 1.368 . S
C1141 H1165 0.949 . S
H1142 C1146 0.949 . S
C1143 C1144 1.349 . S
C1143 C1145 1.327 . S
C1143 H1166 0.950 . S
C1144 C1143 1.349 . S
C1144 C1156 1.349 . S
C1145 C1143 1.327 . S
C1145 C1161 1.429 . S
C1145 H1167 0.950 . S
C1146 H1142 0.949 . S
C1146 C1154 1.574 . S
C1146 C1162 1.368 . S
H1147 C1155 0.950 . S
H1148 C1153 0.950 . S
H1149 C1154 0.949 . S
H1150 C1156 0.950 . S
H1151 C1157 0.950 . S
H1152 C1158 0.949 . S
C1153 H1148 0.950 . S
C1153 C1155 1.327 . S
C1153 C1159 1.429 . S
C1154 C1146 1.574 . S
C1154 H1149 0.949 . S
C1154 C1160 1.368 . S
C1155 C1139 1.349 . S
C1155 H1147 0.950 . S
C1155 C1153 1.327 . S
C1156 C1144 1.349 . S
C1156 H1150 0.950 . S
C1156 C1157 1.327 . S
C1157 H1151 0.950 . S
C1157 C1156 1.327 . S
C1157 C1161 1.429 . S
C1158 C1141 1.574 . S
C1158 H1152 0.949 . S
C1158 C1162 1.368 . S
C1159 C1140 1.429 . S
C1159 C1153 1.429 . S
C1159 C1160 1.523 . S
C1160 C1141 1.368 . S
C1160 C1154 1.368 . S
C1160 C1159 1.523 . S
C1161 C1145 1.429 . S
C1161 C1157 1.429 . S
C1161 C1162 1.523 . S
C1162 C1146 1.368 . S
C1162 C1158 1.368 . S
C1162 C1161 1.523 . S
H1163 C1138 0.950 . S
H1164 C1140 0.950 . S
H1165 C1141 0.949 . S
H1166 C1143 0.950 . S
H1167 C1145 0.950 . S
C1168 C1169 1.349 . S
C1168 C1170 1.327 . S
C1168 H1193 0.950 . S
C1169 C1168 1.349 . S
C1169 C1185 1.349 . S
C1170 C1168 1.327 . S
C1170 C1189 1.429 . S
C1170 H1194 0.950 . S
C1171 C1188 1.574 . S
C1171 C1190 1.368 . S
C1171 H1195 0.949 . S
H1172 C1176 0.949 . S
C1173 C1174 1.349 . S
C1173 C1175 1.327 . S
C1173 H1196 0.950 . S
C1174 C1173 1.349 . S
C1174 C1186 1.349 . S
C1175 C1173 1.327 . S
C1175 C1191 1.429 . S
C1175 H1197 0.950 . S
C1176 H1172 0.949 . S
C1176 C1184 1.574 . S
C1176 C1192 1.368 . S
H1177 C1185 0.950 . S
H1178 C1183 0.950 . S
H1179 C1184 0.949 . S
H1180 C1186 0.950 . S
H1181 C1187 0.950 . S
H1182 C1188 0.949 . S
C1183 H1178 0.950 . S
C1183 C1185 1.327 . S
C1183 C1189 1.429 . S
C1184 C1176 1.574 . S
C1184 H1179 0.949 . S
C1184 C1190 1.368 . S
C1185 C1169 1.349 . S
C1185 H1177 0.950 . S
C1185 C1183 1.327 . S
C1186 C1174 1.349 . S
C1186 H1180 0.950 . S
C1186 C1187 1.327 . S
C1187 H1181 0.950 . S
C1187 C1186 1.327 . S
C1187 C1191 1.429 . S
C1188 C1171 1.574 . S
C1188 H1182 0.949 . S
C1188 C1192 1.368 . S
C1189 C1170 1.429 . S
C1189 C1183 1.429 . S
C1189 C1190 1.523 . S
C1190 C1171 1.368 . S
C1190 C1184 1.368 . S
C1190 C1189 1.523 . S
C1191 C1175 1.429 . S
C1191 C1187 1.429 . S
C1191 C1192 1.523 . S
C1192 C1176 1.368 . S
C1192 C1188 1.368 . S
C1192 C1191 1.523 . S
H1193 C1168 0.950 . S
H1194 C1170 0.950 . S
H1195 C1171 0.949 . S
H1196 C1173 0.950 . S
H1197 C1175 0.950 . S
C1198 C1199 1.349 . S
C1198 C1200 1.327 . S
C1198 H1223 0.950 . S
C1199 C1198 1.349 . S
C1199 C1215 1.349 . S
C1200 C1198 1.327 . S
C1200 C1219 1.429 . S
C1200 H1224 0.950 . S
C1201 C1218 1.574 . S
C1201 C1220 1.368 . S
C1201 H1225 0.949 . S
H1202 C1206 0.949 . S
C1203 C1204 1.349 . S
C1203 C1205 1.327 . S
C1203 H1226 0.950 . S
C1204 C1203 1.349 . S
C1204 C1216 1.349 . S
C1205 C1203 1.327 . S
C1205 C1221 1.429 . S
C1205 H1227 0.950 . S
C1206 H1202 0.949 . S
C1206 C1214 1.574 . S
C1206 C1222 1.368 . S
H1207 C1215 0.950 . S
H1208 C1213 0.950 . S
H1209 C1214 0.949 . S
H1210 C1216 0.950 . S
H1211 C1217 0.950 . S
H1212 C1218 0.949 . S
C1213 H1208 0.950 . S
C1213 C1215 1.327 . S
C1213 C1219 1.429 . S
C1214 C1206 1.574 . S
C1214 H1209 0.949 . S
C1214 C1220 1.368 . S
C1215 C1199 1.349 . S
C1215 H1207 0.950 . S
C1215 C1213 1.327 . S
C1216 C1204 1.349 . S
C1216 H1210 0.950 . S
C1216 C1217 1.327 . S
C1217 H1211 0.950 . S
C1217 C1216 1.327 . S
C1217 C1221 1.429 . S
C1218 C1201 1.574 . S
C1218 H1212 0.949 . S
C1218 C1222 1.368 . S
C1219 C1200 1.429 . S
C1219 C1213 1.429 . S
C1219 C1220 1.523 . S
C1220 C1201 1.368 . S
C1220 C1214 1.368 . S
C1220 C1219 1.523 . S
C1221 C1205 1.429 . S
C1221 C1217 1.429 . S
C1221 C1222 1.523 . S
C1222 C1206 1.368 . S
C1222 C1218 1.368 . S
C1222 C1221 1.523 . S
H1223 C1198 0.950 . S
H1224 C1200 0.950 . S
H1225 C1201 0.949 . S
H1226 C1203 0.950 . S
H1227 C1205 0.950 . S
C1228 C1229 1.349 . S
C1228 C1230 1.327 . S
C1228 H1253 0.950 . S
C1229 C1228 1.349 . S
C1229 C1245 1.349 . S
C1230 C1228 1.327 . S
C1230 C1249 1.429 . S
C1230 H1254 0.950 . S
C1231 C1248 1.574 . S
C1231 C1250 1.368 . S
C1231 H1255 0.949 . S
H1232 C1236 0.949 . S
C1233 C1234 1.349 . S
C1233 C1235 1.327 . S
C1233 H1256 0.950 . S
C1234 C1233 1.349 . S
C1234 C1246 1.349 . S
C1235 C1233 1.327 . S
C1235 C1251 1.429 . S
C1235 H1257 0.950 . S
C1236 H1232 0.949 . S
C1236 C1244 1.574 . S
C1236 C1252 1.368 . S
H1237 C1245 0.950 . S
H1238 C1243 0.950 . S
H1239 C1244 0.949 . S
H1240 C1246 0.950 . S
H1241 C1247 0.950 . S
H1242 C1248 0.949 . S
C1243 H1238 0.950 . S
C1243 C1245 1.327 . S
C1243 C1249 1.429 . S
C1244 C1236 1.574 . S
C1244 H1239 0.949 . S
C1244 C1250 1.368 . S
C1245 C1229 1.349 . S
C1245 H1237 0.950 . S
C1245 C1243 1.327 . S
C1246 C1234 1.349 . S
C1246 H1240 0.950 . S
C1246 C1247 1.327 . S
C1247 H1241 0.950 . S
C1247 C1246 1.327 . S
C1247 C1251 1.429 . S
C1248 C1231 1.574 . S
C1248 H1242 0.949 . S
C1248 C1252 1.368 . S
C1249 C1230 1.429 . S
C1249 C1243 1.429 . S
C1249 C1250 1.523 . S
C1250 C1231 1.368 . S
C1250 C1244 1.368 . S
C1250 C1249 1.523 . S
C1251 C1235 1.429 . S
C1251 C1247 1.429 . S
C1251 C1252 1.523 . S
C1252 C1236 1.368 . S
C1252 C1248 1.368 . S
C1252 C1251 1.523 . S
H1253 C1228 0.950 . S
H1254 C1230 0.950 . S
H1255 C1231 0.949 . S
H1256 C1233 0.950 . S
H1257 C1235 0.950 . S
C1258 C1259 1.349 . S
C1258 C1260 1.327 . S
C1258 H1283 0.950 . S
C1259 C1258 1.349 . S
C1259 C1275 1.349 . S
C1260 C1258 1.327 . S
C1260 C1279 1.429 . S
C1260 H1284 0.950 . S
C1261 C1278 1.574 . S
C1261 C1280 1.368 . S
C1261 H1285 0.949 . S
H1262 C1266 0.949 . S
C1263 C1264 1.349 . S
C1263 C1265 1.327 . S
C1263 H1286 0.950 . S
C1264 C1263 1.349 . S
C1264 C1276 1.349 . S
C1265 C1263 1.327 . S
C1265 C1281 1.429 . S
C1265 H1287 0.950 . S
C1266 H1262 0.949 . S
C1266 C1274 1.574 . S
C1266 C1282 1.368 . S
H1267 C1275 0.950 . S
H1268 C1273 0.950 . S
H1269 C1274 0.949 . S
H1270 C1276 0.950 . S
H1271 C1277 0.950 . S
H1272 C1278 0.949 . S
C1273 H1268 0.950 . S
C1273 C1275 1.327 . S
C1273 C1279 1.429 . S
C1274 C1266 1.574 . S
C1274 H1269 0.949 . S
C1274 C1280 1.368 . S
C1275 C1259 1.349 . S
C1275 H1267 0.950 . S
C1275 C1273 1.327 . S
C1276 C1264 1.349 . S
C1276 H1270 0.950 . S
C1276 C1277 1.327 . S
C1277 H1271 0.950 . S
C1277 C1276 1.327 . S
C1277 C1281 1.429 . S
C1278 C1261 1.574 . S
C1278 H1272 0.949 . S
C1278 C1282 1.368 . S
C1279 C1260 1.429 . S
C1279 C1273 1.429 . S
C1279 C1280 1.523 . S
C1280 C1261 1.368 . S
C1280 C1274 1.368 . S
C1280 C1279 1.523 . S
C1281 C1265 1.429 . S
C1281 C1277 1.429 . S
C1281 C1282 1.523 . S
C1282 C1266 1.368 . S
C1282 C1278 1.368 . S
C1282 C1281 1.523 . S
H1283 C1258 0.950 . S
H1284 C1260 0.950 . S
H1285 C1261 0.949 . S
H1286 C1263 0.950 . S
H1287 C1265 0.950 . S
C569 C31 1.506 . S
C574 C523 1.529 . S
C604 C487 1.529 . S
C599 C61 1.506 . S
C634 C510 1.515 . S
C629 C151 1.474 . S
C664 C498 1.516 . S
C659 C181 1.512 . S
C694 C567 1.528 . S
C689 C271 1.506 . S
C724 C531 1.528 . S
C719 C301 1.506 . S
C749 C391 1.474 . S
C754 C554 1.516 . S
C784 C542 1.516 . S
C779 C421 1.512 . S
C809 C20 1.474 . S
C814 C564 1.500 . S
C844 C534 1.500 . S
C839 C91 1.474 . S
C869 C121 1.457 . S
C874 C553 1.531 . S
C899 C211 1.540 . S
C904 C539 1.531 . S
C934 C520 1.500 . S
C929 C260 1.474 . S
C959 C331 1.474 . S
C964 C490 1.500 . S
C994 C509 1.531 . S
C989 C361 1.457 . S
C1024 C495 1.531 . S
C1019 C451 1.540 . S
C1054 C545 1.500 . S
C1049 C1 1.433 . S
C1084 C561 1.500 . S
C1079 C80 1.433 . S
C1109 C140 1.435 . S
C1114 C532 1.467 . S
C1144 C556 1.467 . S
C1139 C200 1.424 . S
C1174 C501 1.499 . S
C1169 C241 1.433 . S
C1199 C320 1.433 . S
C1204 C517 1.499 . S
C1229 C380 1.435 . S
C1234 C488 1.467 . S
C1259 C440 1.425 . S
C1264 C512 1.467 . S
