# Generated by pormake.
# Topology zzz, (3,6)-cn, num edge types: 1
# Building blocks:
#     Node 0, Type 0, BuildingBlock: MIDCAF_clean_linker_0, # of connection points: 3
#     Node 1, Type 0, BuildingBlock: MIDCAF_clean_linker_0, # of connection points: 3
#     Node 2, Type 0, BuildingBlock: MIDCAF_clean_linker_0, # of connection points: 3
#     Node 3, Type 0, BuildingBlock: MIDCAF_clean_linker_0, # of connection points: 3
#     Node 4, Type 0, BuildingBlock: MIDCAF_clean_linker_0, # of connection points: 3
#     Node 5, Type 0, BuildingBlock: MIDCAF_clean_linker_0, # of connection points: 3
#     Node 6, Type 0, BuildingBlock: MIDCAF_clean_linker_0, # of connection points: 3
#     Node 7, Type 0, BuildingBlock: MIDCAF_clean_linker_0, # of connection points: 3
#     Node 8, Type 1, BuildingBlock: BETDAH_clean_sbu_0, # of connection points: 6
#     Node 9, Type 1, BuildingBlock: BETDAH_clean_sbu_0, # of connection points: 6
#     Node 10, Type 1, BuildingBlock: BETDAH_clean_sbu_0, # of connection points: 6
#     Node 11, Type 1, BuildingBlock: BETDAH_clean_sbu_0, # of connection points: 6
#     Edge 12, Type (0, 1), BuildingBlock: OJICUG_clean_linker_0, # of connection points: 2
#     Edge 13, Type (0, 1), BuildingBlock: OJICUG_clean_linker_0, # of connection points: 2
#     Edge 14, Type (0, 1), BuildingBlock: OJICUG_clean_linker_0, # of connection points: 2
#     Edge 15, Type (0, 1), BuildingBlock: OJICUG_clean_linker_0, # of connection points: 2
#     Edge 16, Type (0, 1), BuildingBlock: OJICUG_clean_linker_0, # of connection points: 2
#     Edge 17, Type (0, 1), BuildingBlock: OJICUG_clean_linker_0, # of connection points: 2
#     Edge 18, Type (0, 1), BuildingBlock: OJICUG_clean_linker_0, # of connection points: 2
#     Edge 19, Type (0, 1), BuildingBlock: OJICUG_clean_linker_0, # of connection points: 2
#     Edge 20, Type (0, 1), BuildingBlock: OJICUG_clean_linker_0, # of connection points: 2
#     Edge 21, Type (0, 1), BuildingBlock: OJICUG_clean_linker_0, # of connection points: 2
#     Edge 22, Type (0, 1), BuildingBlock: OJICUG_clean_linker_0, # of connection points: 2
#     Edge 23, Type (0, 1), BuildingBlock: OJICUG_clean_linker_0, # of connection points: 2
#     Edge 24, Type (0, 1), BuildingBlock: OJICUG_clean_linker_0, # of connection points: 2
#     Edge 25, Type (0, 1), BuildingBlock: OJICUG_clean_linker_0, # of connection points: 2
#     Edge 26, Type (0, 1), BuildingBlock: OJICUG_clean_linker_0, # of connection points: 2
#     Edge 27, Type (0, 1), BuildingBlock: OJICUG_clean_linker_0, # of connection points: 2
#     Edge 28, Type (0, 1), BuildingBlock: OJICUG_clean_linker_0, # of connection points: 2
#     Edge 29, Type (0, 1), BuildingBlock: OJICUG_clean_linker_0, # of connection points: 2
#     Edge 30, Type (0, 1), BuildingBlock: OJICUG_clean_linker_0, # of connection points: 2
#     Edge 31, Type (0, 1), BuildingBlock: OJICUG_clean_linker_0, # of connection points: 2
#     Edge 32, Type (0, 1), BuildingBlock: OJICUG_clean_linker_0, # of connection points: 2
#     Edge 33, Type (0, 1), BuildingBlock: OJICUG_clean_linker_0, # of connection points: 2
#     Edge 34, Type (0, 1), BuildingBlock: OJICUG_clean_linker_0, # of connection points: 2
#     Edge 35, Type (0, 1), BuildingBlock: OJICUG_clean_linker_0, # of connection points: 2
# Relax obj value: 0.504
# Max RMSD: 0.267
# Mean RMSD: 0.257
data_MOF--net-zzz--node1-BETDAH_clean_sbu_0--node2-MIDCAF_clean_linker_0--edge1-OJICUG_clean_linker_0
_symmetry_space_group_name_H-M    P1
_symmetry_Int_Tables_number       1
_symmetry_cell_setting            triclinic
loop_
_symmetry_equiv_pos_as_xyz
'x, y, z'
_cell_length_a     45.538813
_cell_length_b     45.497718
_cell_length_c     14.123873
_cell_angle_alpha  89.44132
_cell_angle_beta   89.816446
_cell_angle_gamma 90.105294
loop_
_atom_site_label
_atom_site_type_symbol
_atom_site_fract_x
_atom_site_fract_y
_atom_site_fract_z
_atom_type_partial_charge
C0 C 0.80922 0.5447 0.62869 0.0
C1 C 0.82537 0.51852 0.64329 0.0
C2 C 0.81113 0.49185 0.62154 0.0
C3 C 0.78316 0.49158 0.57906 0.0
H4 H 0.66629 0.56141 0.38144 0.0
H5 H 0.62404 0.56376 0.27564 0.0
H6 H 0.62987 0.47009 0.23361 0.0
H7 H 0.6713 0.46795 0.3418 0.0
H8 H 0.73573 0.47785 0.16367 0.0
H9 H 0.77004 0.46008 0.04335 0.0
H10 H 0.83434 0.52352 0.13617 0.0
H11 H 0.80053 0.54073 0.25642 0.0
H12 H 0.77125 0.56513 0.56624 0.0
H13 H 0.81867 0.56579 0.64619 0.0
H14 H 0.82245 0.4711 0.6301 0.0
H15 H 0.77452 0.47081 0.55449 0.0
N16 N 0.71878 0.51725 0.47141 0.0
N17 N 0.71989 0.51388 0.30465 0.0
N18 N 0.76373 0.51714 0.38814 0.0
C19 C 0.70426 0.51532 0.38588 0.0
C20 C 0.74934 0.51511 0.30531 0.0
C21 C 0.74911 0.51811 0.47135 0.0
C22 C 0.6719 0.5144 0.37256 0.0
C23 C 0.65727 0.54106 0.35482 0.0
C24 C 0.63348 0.54246 0.2914 0.0
C25 C 0.62372 0.51725 0.24292 0.0
C26 C 0.63634 0.49008 0.26893 0.0
C27 C 0.66 0.48873 0.33272 0.0
C28 C 0.7659 0.51039 0.21884 0.0
C29 C 0.75679 0.4887 0.15524 0.0
C30 C 0.77626 0.47854 0.08686 0.0
C31 C 0.80451 0.49058 0.08073 0.0
C32 C 0.8124 0.51427 0.13851 0.0
C33 C 0.79325 0.52397 0.20773 0.0
C34 C 0.76829 0.51788 0.55675 0.0
C35 C 0.78135 0.54438 0.58532 0.0
C36 C 0.98104 0.8187 0.55009 0.0
C37 C 0.99911 0.82791 0.6257 0.0
C38 C 0.01789 0.80653 0.66601 0.0
C39 C 0.02017 0.77812 0.62764 0.0
H40 H 0.03868 0.64805 0.41145 0.0
H41 H 0.03333 0.60972 0.29389 0.0
H42 H 0.95774 0.65495 0.17967 0.0
H43 H 0.96434 0.69392 0.29513 0.0
H44 H 0.0485 0.72944 0.17819 0.0
H45 H 0.05771 0.76949 0.06636 0.0
H46 H 0.10321 0.81734 0.2837 0.0
H47 H 0.09352 0.77773 0.39655 0.0
H48 H 0.97077 0.785 0.44946 0.0
H49 H 0.96656 0.83406 0.51477 0.0
H50 H 0.03183 0.81191 0.72525 0.0
H51 H 0.03682 0.76341 0.65531 0.0
N52 N 1.0016 0.72026 0.46454 0.0
N53 N 0.03832 0.71114 0.35027 0.0
N54 N 0.0395 0.75451 0.436 0.0
C55 C 1.01424 0.70198 0.39843 0.0
C56 C 0.05094 0.73725 0.36811 0.0
C57 C 1.01523 0.74654 0.48519 0.0
C58 C 1.00155 0.67387 0.36447 0.0
C59 C 0.01997 0.64899 0.36428 0.0
C60 C 0.0171 0.62705 0.29542 0.0
C61 C 0.9956 0.62926 0.22414 0.0
C62 C 0.97525 0.65265 0.23081 0.0
C63 C 0.97834 0.67473 0.29934 0.0
C64 C 0.06973 0.75104 0.29645 0.0
C65 C 0.06213 0.74762 0.20062 0.0
C66 C 0.06719 0.77054 0.13655 0.0
C67 C 0.08043 0.79636 0.16822 0.0
C68 C 0.09264 0.79748 0.25907 0.0
C69 C 0.08733 0.7748 0.32321 0.0
C70 C 1.0033 0.76963 0.54906 0.0
C71 C 0.98309 0.79012 0.51271 0.0
C72 C 0.71286 0.98079 0.55906 0.0
C73 C 0.70335 0.9992 0.63338 0.0
C74 C 0.72457 0.01829 0.67229 0.0
C75 C 0.75302 0.02063 0.63328 0.0
H76 H 0.88163 0.04026 0.42181 0.0
H77 H 0.92176 0.03676 0.30777 0.0
H78 H 0.87959 0.96164 0.18215 0.0
H79 H 0.83958 0.96527 0.29731 0.0
H80 H 0.79979 0.0441 0.1751 0.0
H81 H 0.75999 0.05271 0.06328 0.0
H82 H 0.71251 0.10059 0.27663 0.0
H83 H 0.75182 0.09154 0.38946 0.0
H84 H 0.74683 0.97017 0.45913 0.0
H85 H 0.69774 0.96608 0.52445 0.0
H86 H 0.71904 0.03249 0.73064 0.0
H87 H 0.76757 0.03759 0.65927 0.0
N88 N 0.81118 1.00236 0.47111 0.0
N89 N 0.81893 0.03706 0.34817 0.0
N90 N 0.77561 0.03828 0.43568 0.0
C91 C 0.82889 1.01432 0.40125 0.0
C92 C 0.79249 0.04909 0.36476 0.0
C93 C 0.78444 1.0153 0.48966 0.0
C94 C 0.85772 1.00253 0.37079 0.0
C95 C 0.88188 0.02185 0.3737 0.0
C96 C 0.90457 0.02028 0.30643 0.0
C97 C 0.90384 0.99925 0.23395 0.0
C98 C 0.88118 0.97804 0.23692 0.0
C99 C 0.85835 0.97976 0.30422 0.0
C100 C 0.77836 0.06672 0.29121 0.0
C101 C 0.78175 0.05809 0.19637 0.0
C102 C 0.75901 0.06284 0.13236 0.0
C103 C 0.73342 0.07675 0.16309 0.0
C104 C 0.73228 0.08967 0.25266 0.0
C105 C 0.75474 0.08465 0.3168 0.0
C106 C 0.76172 1.00341 0.55584 0.0
C107 C 0.7415 0.98279 0.52152 0.0
C108 C 0.45415 0.73074 0.19268 0.0
C109 C 0.47256 0.73076 0.11301 0.0
C110 C 0.49277 0.75346 0.09778 0.0
C111 C 0.49631 0.77479 0.16674 0.0
H112 H 0.47619 0.87481 0.38763 0.0
H113 H 0.48113 0.914 0.27113 0.0
H114 H 0.57304 0.89266 0.23835 0.0
H115 H 0.5671 0.85205 0.35069 0.0
H116 H 0.47028 0.75901 0.60192 0.0
H117 H 0.47428 0.71079 0.67529 0.0
H118 H 0.5678 0.71171 0.62194 0.0
H119 H 0.56301 0.75959 0.54358 0.0
H120 H 0.446 0.74946 0.32827 0.0
H121 H 0.4389 0.7128 0.20564 0.0
H122 H 0.50749 0.75314 0.03737 0.0
H123 H 0.51371 0.79089 0.15821 0.0
N124 N 0.49972 0.81588 0.3273 0.0
N125 N 0.52003 0.81328 0.48084 0.0
N126 N 0.49635 0.7723 0.41417 0.0
C127 C 0.5136 0.82917 0.39956 0.0
C128 C 0.51076 0.78439 0.4877 0.0
C129 C 0.49095 0.7878 0.33444 0.0
C130 C 0.52136 0.86039 0.38026 0.0
C131 C 0.49788 0.87955 0.35951 0.0
C132 C 0.50068 0.90197 0.29081 0.0
C133 C 0.5273 0.90634 0.24131 0.0
C134 C 0.55177 0.88954 0.27129 0.0
C135 C 0.54875 0.86673 0.33883 0.0
C136 C 0.51642 0.7638 0.5687 0.0
C137 C 0.49197 0.74956 0.61008 0.0
C138 C 0.49429 0.72142 0.65163 0.0
C139 C 0.5213 0.70628 0.65377 0.0
C140 C 0.54632 0.72179 0.61991 0.0
C141 C 0.54385 0.74992 0.57727 0.0
C142 C 0.48029 0.77263 0.25167 0.0
C143 C 0.45828 0.75144 0.26263 0.0
C144 C 0.2168 0.54356 0.92408 0.0
C145 C 0.20414 0.51877 0.8807 0.0
C146 C 0.22157 0.49319 0.87536 0.0
C147 C 0.24936 0.49164 0.9189 0.0
H148 H 0.37107 0.47322 0.11772 0.0
H149 H 0.4147 0.47279 0.21796 0.0
H150 H 0.39134 0.55824 0.32421 0.0
H151 H 0.34813 0.55864 0.22226 0.0
H152 H 0.29367 0.5172 0.38306 0.0
H153 H 0.25598 0.53558 0.48962 0.0
H154 H 0.19038 0.4856 0.34138 0.0
H155 H 0.22775 0.46768 0.23263 0.0
H156 H 0.25208 0.56046 1.00902 0.0
H157 H 0.20426 0.56363 0.93096 0.0
H158 H 0.21312 0.47368 0.84154 0.0
H159 H 0.26058 0.47067 0.921 0.0
N160 N 0.31023 0.51552 0.05632 0.0
N161 N 0.30967 0.50019 0.21659 0.0
N162 N 0.26652 0.49893 0.129 0.0
C163 C 0.32485 0.5102 0.14043 0.0
C164 C 0.28073 0.49438 0.21148 0.0
C165 C 0.28056 0.5093 0.05121 0.0
C166 C 0.35647 0.51641 0.1588 0.0
C167 C 0.37626 0.49271 0.15789 0.0
C168 C 0.40095 0.49217 0.21782 0.0
C169 C 0.40659 0.51522 0.28153 0.0
C170 C 0.38819 0.5401 0.27626 0.0
C171 C 0.36349 0.54058 0.21625 0.0
C172 C 0.26329 0.49174 0.29819 0.0
C173 C 0.27156 0.50863 0.37662 0.0
C174 C 0.25009 0.51927 0.43755 0.0
C175 C 0.22069 0.51209 0.42192 0.0
C176 C 0.21319 0.49113 0.35413 0.0
C177 C 0.23451 0.4809 0.2922 0.0
C178 C 0.261 0.51563 0.9687 0.0
C179 C 0.24464 0.54194 0.9678 0.0
C180 C 0.99106 0.21722 0.9336 0.0
C181 C 1.01528 0.20372 0.88906 0.0
C182 C 0.04154 0.2201 0.88259 0.0
C183 C 0.04424 0.24778 0.92557 0.0
H184 H 0.06274 0.37207 0.12536 0.0
H185 H 0.06163 0.41461 0.22946 0.0
H186 H 0.97635 0.3878 0.33263 0.0
H187 H 0.97764 0.34535 0.22768 0.0
H188 H 0.02922 0.29383 0.38838 0.0
H189 H 1.01153 0.25496 0.49311 0.0
H190 H 0.06002 0.19112 0.33254 0.0
H191 H 0.07719 0.22972 0.22545 0.0
H192 H 0.97572 0.25308 0.01926 0.0
H193 H 0.97051 0.2054 0.94113 0.0
H194 H 0.06065 0.21088 0.84811 0.0
H195 H 0.06562 0.25825 0.9262 0.0
N196 N 0.02023 0.30942 0.0637 0.0
N197 N 0.04073 0.31017 0.21709 0.0
N198 N 0.04186 0.26702 0.13024 0.0
C199 C 0.02739 0.32452 0.14493 0.0
C200 C 0.04805 0.28161 0.21052 0.0
C201 C 0.02821 0.28024 0.05652 0.0
C202 C 0.01984 0.35567 0.1651 0.0
C203 C 0.04295 0.37625 0.16579 0.0
C204 C 0.04261 0.40031 0.22773 0.0
C205 C 0.01914 0.40461 0.29146 0.0
C206 C 0.99478 0.38555 0.2846 0.0
C207 C 0.99524 0.36135 0.22284 0.0
C208 C 0.05354 0.2644 0.29672 0.0
C209 C 0.0378 0.27186 0.37891 0.0
C210 C 0.02756 0.24967 0.43906 0.0
C211 C 0.03415 0.22043 0.41882 0.0
C212 C 0.05485 0.21378 0.34867 0.0
C213 C 0.06468 0.23584 0.28761 0.0
C214 C 0.0208 0.2603 0.97641 0.0
C215 C 0.99387 0.24495 0.97728 0.0
C216 C 0.3123 0.99203 0.92115 0.0
C217 C 0.3255 0.01637 0.87503 0.0
C218 C 0.30883 0.04242 0.86824 0.0
C219 C 0.28123 0.04484 0.91281 0.0
H220 H 0.15891 0.06416 0.11629 0.0
H221 H 0.11519 0.06372 0.21704 0.0
H222 H 0.13993 0.97856 0.32736 0.0
H223 H 0.18337 0.9791 0.22523 0.0
H224 H 0.23666 0.02629 0.38165 0.0
H225 H 0.27444 1.00872 0.48939 0.0
H226 H 0.34029 0.0553 0.32699 0.0
H227 H 0.3028 0.0724 0.21708 0.0
H228 H 0.27678 0.97633 1.00923 0.0
H229 H 0.32431 0.97164 0.92913 0.0
H230 H 0.31778 0.06161 0.83244 0.0
H231 H 0.27059 0.06612 0.91348 0.0
N232 N 0.22019 0.02155 0.05528 0.0
N233 N 0.22071 0.03944 0.21169 0.0
N234 N 0.26363 0.04034 0.12193 0.0
C235 C 0.20563 0.02788 0.1386 0.0
C236 C 0.24952 0.0458 0.20403 0.0
C237 C 0.24965 0.02844 0.04729 0.0
C238 C 0.17423 0.02118 0.15944 0.0
C239 C 0.15405 0.04455 0.15764 0.0
C240 C 0.1293 0.0446 0.21771 0.0
C241 C 0.12396 0.02132 0.28233 0.0
C242 C 0.14287 0.99682 0.27848 0.0
C243 C 0.16768 0.99687 0.21845 0.0
C244 C 0.26712 0.04985 0.28942 0.0
C245 C 0.25887 0.03438 0.37203 0.0
C246 C 0.2804 0.02421 0.43377 0.0
C247 C 0.30987 0.03051 0.41469 0.0
C248 C 0.31745 0.05043 0.3424 0.0
C249 C 0.29603 0.06019 0.27975 0.0
C250 C 0.26907 0.0213 0.96525 0.0
C251 C 0.28464 0.99453 0.96605 0.0
C252 C 0.49629 0.31505 0.36587 0.0
C253 C 0.519 0.30887 0.42986 0.0
C254 C 0.53037 0.28041 0.43713 0.0
C255 C 0.52149 0.25914 0.37313 0.0
H256 H 0.5615 0.17749 0.20417 0.0
H257 H 0.55978 0.13427 0.30788 0.0
H258 H 0.46978 0.11926 0.22648 0.0
H259 H 0.47165 0.16283 0.12418 0.0
H260 H 0.4707 0.27113 0.92883 0.0
H261 H 0.47287 0.31867 0.84712 0.0
H262 H 0.56512 0.32524 0.91206 0.0
H263 H 0.56276 0.2774 0.99257 0.0
H264 H 0.47291 0.30024 0.24442 0.0
H265 H 0.48758 0.33712 0.35874 0.0
H266 H 0.54812 0.27554 0.48571 0.0
H267 H 0.53268 0.23814 0.37362 0.0
N268 N 0.50687 0.22066 0.21635 0.0
N269 N 0.51641 0.22014 0.05191 0.0
N270 N 0.50549 0.26442 0.12973 0.0
C271 C 0.51318 0.2054 0.13732 0.0
C272 C 0.51227 0.25021 0.04905 0.0
C273 C 0.50272 0.2499 0.21295 0.0
C274 C 0.51701 0.17327 0.153 0.0
C275 C 0.54196 0.16387 0.20369 0.0
C276 C 0.54076 0.13922 0.26479 0.0
C277 C 0.51442 0.12331 0.2778 0.0
C278 C 0.49034 0.13112 0.22019 0.0
C279 C 0.49161 0.15573 0.15904 0.0
C280 C 0.51676 0.26967 0.96453 0.0
C281 C 0.49183 0.28186 0.9207 0.0
C282 C 0.49297 0.30964 0.87583 0.0
C283 C 0.51909 0.32642 0.87387 0.0
C284 C 0.54462 0.31315 0.91093 0.0
C285 C 0.54341 0.28533 0.95604 0.0
C286 C 0.50198 0.26672 0.30008 0.0
C287 C 0.48798 0.29408 0.30041 0.0
Ho288 Ho 0.03735 1.01406 0.79271 0.0
Ho289 Ho 0.98172 0.01976 0.6941 0.0
C290 C 1.00337 0.95397 0.72104 0.0
C291 C 0.07938 0.99715 0.89886 0.0
C292 C 0.07901 0.96926 0.94978 0.0
C293 C 0.0519 0.95799 0.98144 0.0
C294 C 0.04948 0.92881 1.00916 0.0
C295 C 0.07412 0.91049 1.00563 0.0
C296 C 0.10138 0.92191 0.97616 0.0
C297 C 0.10378 0.95121 0.94802 0.0
C298 C 0.04514 0.03105 0.60917 0.0
C299 C 1.01145 0.07837 0.78615 0.0
C300 C 0.94632 0.03339 0.56035 0.0
C301 C 0.95028 0.05928 0.49942 0.0
C302 C 0.97844 0.06498 0.46238 0.0
C303 C 0.98737 0.09369 0.44549 0.0
C304 C 0.96816 0.11689 0.46385 0.0
C305 C 0.93892 0.11125 0.48882 0.0
C306 C 0.92994 0.08237 0.50639 0.0
C307 C 0.96628 1.00936 0.87702 0.0
O308 O 0.02555 0.96562 0.76887 0.0
O309 O 0.98287 0.97081 0.68364 0.0
O310 O 0.08011 0.99421 0.80703 0.0
O311 O 0.05983 0.01623 0.92682 0.0
O312 O 0.05806 0.04286 0.68088 0.0
O313 O 0.02721 1.01181 0.64006 0.0
O314 O 0.99457 0.06792 0.71789 0.0
O315 O 0.0283 0.06044 0.83525 0.0
O316 O 0.94141 0.04009 0.64866 0.0
O317 O 0.96591 1.01254 0.55171 0.0
O318 O 0.94803 1.0118 0.80788 0.0
O319 O 0.99237 1.01108 0.84616 0.0
H320 H 0.03218 0.97131 0.98033 0.0
H321 H 0.02822 0.9204 0.03116 0.0
H322 H 0.12077 0.90817 0.97465 0.0
H323 H 0.12459 0.95943 0.92126 0.0
H324 H 0.99474 0.04777 0.45649 0.0
H325 H 1.00994 0.09792 0.42472 0.0
H326 H 0.92389 0.12917 0.50226 0.0
H327 H 0.90827 0.07846 0.53588 0.0
Ho328 Ho 0.51627 0.03499 0.79717 0.0
Ho329 Ho 0.5118 0.9832 0.69723 0.0
C330 C 0.57688 1.00414 0.72177 0.0
C331 C 0.53191 0.07533 0.91135 0.0
C332 C 0.55968 0.07502 0.96172 0.0
C333 C 0.57124 0.04785 0.99157 0.0
C334 C 0.6005 0.04561 0.01683 0.0
C335 C 0.61858 0.07052 1.01308 0.0
C336 C 0.6068 0.09788 0.98647 0.0
C337 C 0.57744 0.1001 0.96056 0.0
C338 C 0.50306 0.04683 0.61249 0.0
C339 C 0.45129 1.01329 0.7772 0.0
C340 C 0.49582 0.94394 0.57898 0.0
C341 C 0.46916 0.94655 0.52171 0.0
C342 C 0.46427 0.97297 0.47152 0.0
C343 C 0.43589 0.98198 0.45192 0.0
C344 C 0.41213 0.96456 0.48069 0.0
C345 C 0.41684 0.93661 0.51994 0.0
C346 C 0.44543 0.92757 0.54041 0.0
C347 C 0.52676 0.97153 0.88032 0.0
O348 O 0.56492 0.02238 0.78339 0.0
O349 O 0.55994 0.98712 0.67096 0.0
O350 O 0.5349 0.07802 0.81983 0.0
O351 O 0.51353 0.05453 0.93565 0.0
O352 O 0.49029 0.05858 0.68471 0.0
O353 O 0.52157 0.02814 0.64207 0.0
O354 O 0.46308 0.99557 0.71362 0.0
O355 O 0.46838 0.03039 0.82708 0.0
O356 O 0.49084 0.94145 0.6698 0.0
O357 O 0.51641 0.96312 0.55991 0.0
O358 O 0.53786 0.95882 0.80701 0.0
O359 O 0.50773 0.99005 0.853 0.0
H360 H 0.55815 0.02793 0.99039 0.0
H361 H 0.60917 0.02427 0.03671 0.0
H362 H 0.62034 0.11748 0.98506 0.0
H363 H 0.56897 0.121 0.93551 0.0
H364 H 0.48197 0.98825 0.45607 0.0
H365 H 0.4324 1.00351 0.42035 0.0
H366 H 0.39846 0.92294 0.54159 0.0
H367 H 0.44871 0.90726 0.57959 0.0
Ho368 Ho 0.49078 0.51585 0.79795 0.0
Ho369 Ho 0.54636 0.5143 0.69848 0.0
C370 C 0.52241 0.57859 0.73501 0.0
C371 C 0.44854 0.5282 0.90963 0.0
C372 C 0.45048 0.55373 0.97035 0.0
C373 C 0.47868 0.56246 0.99904 0.0
C374 C 0.48439 0.59161 0.01878 0.0
C375 C 0.46178 0.6124 1.01344 0.0
C376 C 0.43289 0.60301 0.99502 0.0
C377 C 0.42732 0.5738 0.9724 0.0
C378 C 0.48352 0.50271 0.61173 0.0
C379 C 0.51901 0.45292 0.7811 0.0
C380 C 0.58301 0.50512 0.56372 0.0
C381 C 0.58184 0.47959 0.50167 0.0
C382 C 0.55448 0.47147 0.46417 0.0
C383 C 0.54809 0.44207 0.4499 0.0
C384 C 0.56898 0.42053 0.47211 0.0
C385 C 0.59769 0.42887 0.49532 0.0
C386 C 0.60417 0.45846 0.5095 0.0
C387 C 0.56177 0.52044 0.88293 0.0
O388 O 0.50129 0.56527 0.7847 0.0
O389 O 0.54286 0.56313 0.69241 0.0
O390 O 0.44803 0.53515 0.81968 0.0
O391 O 0.46733 0.50733 0.92887 0.0
O392 O 0.47092 0.48904 0.68154 0.0
O393 O 0.50073 0.52186 0.64554 0.0
O394 O 0.53533 0.46527 0.71372 0.0
O395 O 0.5019 0.4693 0.83376 0.0
O396 O 0.5883 0.49805 0.65179 0.0
O397 O 0.56145 0.52395 0.55584 0.0
O398 O 0.57968 0.52184 0.81224 0.0
O399 O 0.53558 0.51874 0.85312 0.0
H400 H 0.49716 0.54751 0.99614 0.0
H401 H 0.50693 0.59799 0.03171 0.0
H402 H 0.41481 0.61843 0.99374 0.0
H403 H 0.40559 0.5675 0.94896 0.0
H404 H 0.5368 0.48721 0.45669 0.0
H405 H 0.52605 0.43601 0.42867 0.0
H406 H 0.61423 0.41246 0.51101 0.0
H407 H 0.62539 0.46431 0.5384 0.0
Ho408 Ho 1.01412 0.49248 0.8069 0.0
Ho409 Ho 0.01628 0.54393 0.70183 0.0
C410 C 0.95218 0.51917 0.72744 0.0
C411 C 1.00263 0.44937 0.92126 0.0
C412 C 0.97497 0.44281 0.97057 0.0
C413 C 0.96407 0.46282 0.03711 0.0
C414 C 0.93417 0.46411 0.05487 0.0
C415 C 0.91502 0.44528 1.00717 0.0
C416 C 0.9261 0.42249 0.95196 0.0
C417 C 0.95618 0.42114 0.93407 0.0
C418 C 0.02778 0.48133 0.62179 0.0
C419 C 0.07801 0.51771 0.78591 0.0
C420 C 0.02996 0.58429 0.58092 0.0
C421 C 0.05735 0.58515 0.52597 0.0
C422 C 0.06469 0.56091 0.46955 0.0
C423 C 0.09384 0.555 0.4491 0.0
C424 C 0.11589 0.5734 0.48345 0.0
C425 C 0.10866 0.59948 0.52952 0.0
C426 C 0.07931 0.60546 0.55036 0.0
C427 C 0.99975 0.55641 0.88228 0.0
O428 O 0.96476 0.50205 0.79215 0.0
O429 O 0.96855 0.53669 0.67481 0.0
O430 O 1.00133 0.44721 0.82938 0.0
O431 O 0.01618 0.47327 0.94713 0.0
O432 O 0.04177 0.4709 0.69415 0.0
O433 O 1.00825 0.49869 0.65142 0.0
O434 O 0.06561 0.53435 0.71975 0.0
O435 O 0.06152 0.5002 0.83779 0.0
O436 O 0.03346 0.5874 0.67196 0.0
O437 O 1.01211 0.5627 0.56147 0.0
O438 O 0.98817 0.56724 0.80621 0.0
O439 O 0.01978 0.53832 0.85916 0.0
H440 H 0.97799 0.47952 0.06783 0.0
H441 H 0.92573 0.48154 0.09908 0.0
H442 H 0.9114 0.40767 0.91564 0.0
H443 H 0.96424 0.40527 0.88355 0.0
H444 H 0.0484 0.54479 0.44926 0.0
H445 H 0.09934 0.53482 0.41291 0.0
H446 H 0.12571 0.61385 0.55587 0.0
H447 H 0.07413 0.62424 0.59389 0.0
C448 C 0.09663 0.05107 0.40553 0.0
C449 C 0.10096 0.02403 0.35946 0.0
H450 H 0.07569 0.07433 0.51884 0.0
C451 C 0.08448 0.99961 0.39228 0.0
H452 H 0.10911 0.07032 0.38435 0.0
C453 C 0.06484 1.00212 0.46948 0.0
C454 C 0.06146 0.029 0.51708 0.0
H455 H 0.08702 0.97841 0.35909 0.0
H456 H 0.05333 0.98268 0.49455 0.0
C457 C 0.07742 0.05342 0.48322 0.0
C458 C 0.534 0.08216 0.38526 0.0
C459 C 0.51101 0.10122 0.35789 0.0
H460 H 0.54948 0.04956 0.48508 0.0
C461 C 0.48497 0.1004 0.41221 0.0
H462 H 0.5544 0.082 0.34565 0.0
C463 C 0.48226 0.08194 0.49208 0.0
C464 C 0.5053 0.06333 0.5203 0.0
H465 H 0.46691 0.11497 0.39544 0.0
H466 H 0.46219 0.08274 0.53339 0.0
C467 C 0.5311 0.06332 0.4649 0.0
C468 C 0.44564 0.53599 0.39328 0.0
C469 C 0.42921 0.51189 0.35948 0.0
H470 H 0.47622 0.55207 0.49719 0.0
C471 C 0.43313 0.48453 0.40561 0.0
H472 H 0.44346 0.55742 0.36011 0.0
C473 C 0.45184 0.48155 0.4841 0.0
C474 C 0.46767 0.50565 0.51908 0.0
H475 H 0.42069 0.46547 0.38388 0.0
H476 H 0.45326 0.46036 0.51947 0.0
C477 C 0.46475 0.53287 0.47149 0.0
C478 C 0.04821 0.42991 0.42033 0.0
C479 C 0.02155 0.42658 0.37083 0.0
H480 H 0.07092 0.44952 0.53707 0.0
C481 C 0.99722 0.44313 0.4019 0.0
H482 H 0.06737 0.41734 0.40026 0.0
C483 C 0.99946 0.46205 0.48031 0.0
C484 C 0.02594 0.46451 0.53113 0.0
H485 H 0.97633 0.44131 0.36598 0.0
H486 H 0.98014 0.4739 0.50323 0.0
C487 C 0.05027 0.44834 0.49941 0.0
C488 C 0.93086 0.02944 0.1097 0.0
C489 C 0.92422 1.00168 0.14991 0.0
H490 H 0.94972 0.05346 0.99253 0.0
C491 C 0.93514 0.97655 0.10394 0.0
H492 H 0.92246 0.04933 0.14128 0.0
C493 C 0.95108 0.97908 0.01857 0.0
C494 C 0.95655 1.00677 0.97719 0.0
H495 H 0.93066 0.95483 0.13257 0.0
H496 H 0.9579 0.95931 0.98253 0.0
C497 C 0.94659 0.03189 0.02429 0.0
C498 C 0.50967 0.94975 0.13826 0.0
C499 C 0.52867 0.9255 0.15277 0.0
H500 H 0.49407 0.98342 0.04215 0.0
C501 C 0.5478 0.91823 0.07784 0.0
H502 H 0.49475 0.95657 0.1936 0.0
C503 C 0.54765 0.93396 0.99202 0.0
C504 C 0.52814 0.95743 0.97657 0.0
H505 H 0.56233 0.89952 0.08328 0.0
H506 H 0.56243 0.92707 0.93628 0.0
C507 C 0.50938 0.96544 0.05137 0.0
C508 C 0.58392 0.49715 0.13274 0.0
C509 C 0.60366 0.5198 0.15784 0.0
H510 H 0.55439 0.47992 0.02745 0.0
C511 C 0.6062 0.54405 0.09527 0.0
H512 H 0.58115 0.47809 0.17841 0.0
C513 C 0.59088 0.54497 1.00918 0.0
C514 C 0.57198 0.52204 0.98305 0.0
H515 H 0.62142 0.56173 0.1098 0.0
H516 H 0.59475 0.56323 0.96087 0.0
C517 C 0.56818 0.49834 0.04668 0.0
C518 C 1.00661 0.58007 0.14253 0.0
C519 C 0.99619 0.6094 0.13852 0.0
H520 H 0.01615 0.54024 0.06585 0.0
C521 C 0.98759 0.62044 0.04937 0.0
H522 H 1.01344 0.57047 0.20929 0.0
C523 C 0.98865 0.60299 0.9684 0.0
C524 C 0.99895 0.57383 0.972 0.0
H525 H 0.98053 0.64301 0.04086 0.0
H526 H 0.9818 0.61279 0.90187 0.0
C527 C 1.00813 0.56258 0.06024 0.0
C528 C 0.99005 0.19182 0.38211 0.0
C529 C 1.01315 0.19762 0.44501 0.0
H530 H 0.95705 0.16099 0.33999 0.0
C531 C 0.01833 0.17902 0.52221 0.0
H532 H 0.98619 0.20604 0.32139 0.0
C533 C 1.00175 0.15346 0.53256 0.0
C534 C 0.98007 0.14659 0.46565 0.0
H535 H 0.03621 0.18332 0.57059 0.0
H536 H 1.00706 0.13813 0.58906 0.0
C537 C 0.97346 0.16632 0.39252 0.0
C538 C 0.33721 0.98451 0.39647 0.0
C539 C 0.33239 1.01034 0.44796 0.0
H540 H 0.36696 0.9492 0.36772 0.0
C541 C 0.35192 0.01877 0.51859 0.0
H542 H 0.32241 0.97823 0.34018 0.0
C543 C 0.37719 1.00232 0.53386 0.0
C544 C 0.38291 0.97748 0.47846 0.0
H545 H 0.34849 0.03886 0.55766 0.0
H546 H 0.39316 1.00994 0.58474 0.0
C547 C 0.36246 0.96803 0.41188 0.0
C548 C 0.56323 0.33978 0.42562 0.0
C549 C 0.53567 0.33364 0.46635 0.0
H550 H 0.5954 0.37291 0.39447 0.0
C551 C 0.52148 0.35479 0.52092 0.0
H552 H 0.57412 0.32375 0.38145 0.0
C553 C 0.53353 0.38273 0.52789 0.0
C554 C 0.55964 0.38978 0.47924 0.0
H555 H 0.50011 0.35034 0.55191 0.0
H556 H 0.52158 0.39934 0.56665 0.0
C557 C 0.57521 0.36783 0.43207 0.0
C558 C 0.19142 0.55672 0.39804 0.0
C559 C 0.1978 0.53187 0.45409 0.0
H560 H 0.15966 0.58996 0.36465 0.0
C561 C 0.17916 0.52348 0.52813 0.0
H562 H 0.20551 0.56287 0.33906 0.0
C563 C 0.15318 0.53885 0.54228 0.0
C564 C 0.14592 0.56259 0.48262 0.0
H565 H 0.18373 0.50406 0.5705 0.0
H566 H 0.13776 0.53093 0.59512 0.0
C567 C 0.16545 0.5721 0.41233 0.0
C568 C 0.08764 0.82925 0.02834 0.0
C569 C 0.07544 0.82395 0.11779 0.0
H570 H 0.09647 0.86167 0.92102 0.0
C571 C 0.05926 0.84587 0.16346 0.0
H572 H 0.09961 0.81219 0.9918 0.0
C573 C 0.05752 0.87377 0.12404 0.0
C574 C 0.07185 0.87996 0.03824 0.0
H575 H 0.04903 0.84171 0.23174 0.0
H576 H 0.04642 0.89082 0.16338 0.0
C577 C 0.08594 0.85734 0.98862 0.0
C578 C 0.69977 0.0848 0.02727 0.0
C579 C 0.70585 0.07148 0.1145 0.0
H580 H 0.6665 0.09457 0.92504 0.0
C581 C 0.68447 0.05446 0.16113 0.0
H582 H 0.7164 0.09754 0.99021 0.0
C583 C 0.65631 0.05292 0.12515 0.0
C584 C 0.64932 0.06828 0.0418 0.0
H585 H 0.68924 0.04356 0.22794 0.0
H586 H 0.63967 0.04118 0.16551 0.0
C587 C 0.67143 0.08324 0.99088 0.0
C588 C 0.49412 0.68208 0.10839 0.0
C589 C 0.47607 0.70304 0.06488 0.0
H590 H 0.50254 0.63671 0.13059 0.0
C591 C 0.45621 0.69486 0.99493 0.0
H592 H 0.50921 0.68832 0.16398 0.0
C593 C 0.45282 0.66527 0.97361 0.0
C594 C 0.46855 0.64379 0.02476 0.0
H595 H 0.44204 0.71103 0.96178 0.0
H596 H 0.43692 0.6592 0.9204 0.0
C597 C 0.49012 0.65256 0.0895 0.0
C598 C 0.83445 0.44608 0.05762 0.0
C599 C 0.82795 0.47521 0.03085 0.0
H600 H 0.8682 0.41342 0.07066 0.0
C601 C 0.8485 0.49181 0.97948 0.0
H602 H 0.81893 0.43311 0.09872 0.0
C603 C 0.87663 0.48101 0.96702 0.0
C604 C 0.88407 0.45314 1.00255 0.0
H605 H 0.84383 0.51431 0.95866 0.0
H606 H 0.89321 0.49533 0.9364 0.0
C607 C 0.86258 0.43497 0.04298 0.0
C608 C 0.03807 0.15296 0.8766 0.0
C609 C 1.01425 0.17191 0.85782 0.0
H610 H 0.05579 0.10935 0.86985 0.0
C611 C 0.98951 0.15973 0.81243 0.0
H612 H 0.05739 0.16108 0.91243 0.0
C613 C 0.98873 0.12973 0.78679 0.0
C614 C 1.0124 0.11079 0.80754 0.0
H615 H 0.97075 0.17344 0.79625 0.0
H616 H 0.96932 0.12123 0.75231 0.0
C617 C 0.03706 0.12302 0.85266 0.0
C618 C 0.37011 0.99061 0.80168 0.0
C619 C 0.35733 1.01572 0.84302 0.0
H620 H 0.40928 0.97021 0.74649 0.0
C621 C 0.37578 0.04016 0.85811 0.0
H622 H 0.35681 0.97135 0.78832 0.0
C623 C 0.40582 0.03936 0.83496 0.0
C624 C 0.41866 1.01427 0.79454 0.0
H625 H 0.36724 0.05978 0.89096 0.0
H626 H 0.41914 0.05852 0.84974 0.0
C627 C 0.40025 0.98998 0.77711 0.0
C628 C 0.54255 0.37168 0.79391 0.0
C629 C 0.51883 0.35845 0.84325 0.0
H630 H 0.56116 0.41139 0.73372 0.0
C631 C 0.49505 0.37665 0.86804 0.0
H632 H 0.56125 0.35857 0.77297 0.0
C633 C 0.49517 0.40687 0.84644 0.0
C634 C 0.51891 0.42018 0.79816 0.0
H635 H 0.47653 0.36776 0.9072 0.0
H636 H 0.47653 0.4199 0.86852 0.0
C637 C 0.54247 0.40203 0.77094 0.0
C638 C 0.15457 0.49336 0.86579 0.0
C639 C 0.17217 0.5185 0.84994 0.0
H640 H 0.11189 0.47347 0.85858 0.0
C641 C 0.15839 0.54339 0.80907 0.0
H642 H 0.16381 0.47386 0.8985 0.0
C643 C 0.12818 0.54307 0.78552 0.0
C644 C 0.11068 0.51801 0.80317 0.0
H645 H 0.17096 0.56319 0.79511 0.0
H646 H 0.11841 0.56268 0.75512 0.0
C647 C 0.12448 0.4932 0.84346 0.0
C648 C 0.02509 0.8727 0.69743 0.0
C649 C 0.99963 0.85982 0.65775 0.0
H650 H 0.04623 0.9117 0.74957 0.0
C651 C 0.97506 0.87834 0.6452 0.0
H652 H 0.04482 0.85988 0.70769 0.0
C653 C 0.97622 0.90842 0.66743 0.0
C654 C 1.00182 0.92129 0.70479 0.0
H655 H 0.95467 0.86976 0.6177 0.0
H656 H 0.9569 0.92169 0.65451 0.0
C657 C 0.02607 0.90278 0.72114 0.0
C658 C 0.65849 0.02504 0.7062 0.0
C659 C 0.67129 0.99979 0.66491 0.0
H660 H 0.61931 0.04611 0.75821 0.0
C661 C 0.65251 0.97555 0.64964 0.0
H662 H 0.67144 0.04454 0.71874 0.0
C663 C 0.62229 0.97699 0.66958 0.0
C664 C 0.60957 1.00238 0.70826 0.0
H665 H 0.66092 0.95521 0.62154 0.0
H666 H 0.60878 0.95801 0.65426 0.0
C667 C 0.62825 0.02615 0.7285 0.0
C668 C 0.50209 0.66081 0.74525 0.0
C669 C 0.52274 0.67391 0.68237 0.0
H670 H 0.48549 0.62111 0.81106 0.0
C671 C 0.54381 0.65511 0.64169 0.0
H672 H 0.48567 0.67409 0.77994 0.0
C673 C 0.54398 0.62475 0.66129 0.0
C674 C 0.5229 0.61158 0.72165 0.0
H675 H 0.5598 0.6635 0.59146 0.0
H676 H 0.56042 0.61145 0.62651 0.0
C677 C 0.50208 0.6302 0.76411 0.0
C678 C 0.87096 0.49569 0.72175 0.0
C679 C 0.85756 0.5192 0.67183 0.0
H680 H 0.91085 0.47698 0.77796 0.0
C681 C 0.87585 0.54284 0.64386 0.0
H682 H 0.858 0.47709 0.74578 0.0
C683 C 0.90609 0.54287 0.66371 0.0
C684 C 0.91946 0.51927 0.71232 0.0
H685 H 0.86712 0.56115 0.60351 0.0
H686 H 0.91911 0.56144 0.63963 0.0
C687 C 0.90139 0.4957 0.74134 0.0
loop_
_geom_bond_atom_site_label_1
_geom_bond_atom_site_label_2
_geom_bond_distance
_geom_bond_site_symmetry_2
_ccdc_geom_bond_type
C0 C1 1.384 . S
C0 H13 0.947 . S
C0 C35 1.382 . S
C1 C0 1.384 . S
C1 C2 1.378 . S
C2 C1 1.378 . S
C2 C3 1.378 . S
C2 H14 0.952 . S
C3 C2 1.378 . S
C3 H15 0.950 . S
C3 C34 1.383 . S
H4 C23 0.947 . S
H5 C24 0.946 . S
H6 C26 0.953 . S
H7 C27 0.945 . S
H8 C29 0.952 . S
H9 C30 0.949 . S
H10 C32 0.950 . S
H11 C33 0.948 . S
H12 C35 0.951 . S
H13 C0 0.947 . S
H14 C2 0.952 . S
H15 C3 0.950 . S
N16 C19 1.382 . S
N16 C21 1.363 . S
N17 C19 1.371 . S
N17 C20 1.372 . S
N18 C20 1.361 . S
N18 C21 1.377 . S
C19 N16 1.382 . S
C19 N17 1.371 . S
C19 C22 1.480 . S
C20 N17 1.372 . S
C20 N18 1.361 . S
C20 C28 1.457 . S
C21 N16 1.363 . S
C21 N18 1.377 . S
C21 C34 1.479 . S
C22 C19 1.480 . S
C22 C23 1.383 . S
C22 C27 1.385 . S
C23 H4 0.947 . S
C23 C22 1.383 . S
C23 C24 1.388 . S
C24 H5 0.946 . S
C24 C23 1.388 . S
C24 C25 1.384 . S
C25 C24 1.384 . S
C25 C26 1.377 . S
C26 H6 0.953 . S
C26 C25 1.377 . S
C26 C27 1.369 . S
C27 H7 0.945 . S
C27 C22 1.385 . S
C27 C26 1.369 . S
C28 C20 1.457 . S
C28 C29 1.372 . S
C28 C33 1.364 . S
C29 H8 0.952 . S
C29 C28 1.372 . S
C29 C30 1.389 . S
C30 H9 0.949 . S
C30 C29 1.389 . S
C30 C31 1.387 . S
C31 C30 1.387 . S
C31 C32 1.372 . S
C32 H10 0.950 . S
C32 C31 1.372 . S
C32 C33 1.379 . S
C33 H11 0.948 . S
C33 C28 1.364 . S
C33 C32 1.379 . S
C34 C3 1.383 . S
C34 C21 1.479 . S
C34 C35 1.398 . S
C35 C0 1.382 . S
C35 H12 0.951 . S
C35 C34 1.398 . S
C36 C37 1.384 1_655 S
C36 H49 0.948 . S
C36 C71 1.382 1_655 S
C37 C36 1.384 1_455 S
C37 C38 1.378 . S
C38 C37 1.378 . S
C38 C39 1.378 . S
C38 H50 0.952 . S
C39 C38 1.378 . S
C39 H51 0.950 . S
C39 C70 1.383 . S
H40 C59 0.947 . S
H41 C60 0.952 . S
H42 C62 0.953 . S
H43 C63 0.945 . S
H44 C65 0.949 1_655 S
H45 C66 0.949 . S
H46 C68 0.950 . S
H47 C69 0.948 . S
H48 C71 0.951 1_655 S
H49 C36 0.948 . S
H50 C38 0.952 . S
H51 C39 0.950 . S
N52 C55 1.382 . S
N52 C57 1.363 . S
N53 C55 1.371 . S
N53 C56 1.372 . S
N54 C56 1.361 . S
N54 C57 1.377 . S
C55 N52 1.382 . S
C55 N53 1.371 . S
C55 C58 1.480 . S
C56 N53 1.372 . S
C56 N54 1.361 . S
C56 C64 1.457 . S
C57 N52 1.363 . S
C57 N54 1.377 . S
C57 C70 1.479 . S
C58 C55 1.480 . S
C58 C59 1.383 . S
C58 C63 1.385 . S
C59 H40 0.947 . S
C59 C58 1.383 . S
C59 C60 1.386 1_455 S
C60 H41 0.952 . S
C60 C59 1.386 1_655 S
C60 C61 1.381 1_655 S
C61 C60 1.381 1_455 S
C61 C62 1.377 . S
C62 H42 0.953 . S
C62 C61 1.377 . S
C62 C63 1.369 . S
C63 H43 0.945 . S
C63 C58 1.385 . S
C63 C62 1.369 . S
C64 C56 1.457 . S
C64 C65 1.377 . S
C64 C69 1.364 . S
C65 H44 0.949 1_455 S
C65 C64 1.377 . S
C65 C66 1.387 1_455 S
C66 H45 0.949 . S
C66 C65 1.387 1_655 S
C66 C67 1.387 1_655 S
C67 C66 1.387 1_455 S
C67 C68 1.372 . S
C68 H46 0.950 . S
C68 C67 1.372 . S
C68 C69 1.379 . S
C69 H47 0.948 . S
C69 C64 1.364 . S
C69 C68 1.379 . S
C70 C39 1.383 . S
C70 C57 1.479 . S
C70 C71 1.398 . S
C71 C36 1.382 1_455 S
C71 H48 0.951 1_455 S
C71 C70 1.398 . S
C72 C73 1.384 1_565 S
C72 H85 0.948 . S
C72 C107 1.382 1_565 S
C73 C72 1.384 1_545 S
C73 C74 1.378 . S
C74 C73 1.378 . S
C74 C75 1.378 . S
C74 H86 0.952 . S
C75 C74 1.378 . S
C75 H87 0.950 . S
C75 C106 1.383 . S
H76 C95 0.947 . S
H77 C96 0.952 . S
H78 C98 0.953 . S
H79 C99 0.945 . S
H80 C101 0.949 1_565 S
H81 C102 0.949 . S
H82 C104 0.950 . S
H83 C105 0.948 . S
H84 C107 0.951 1_565 S
H85 C72 0.948 . S
H86 C74 0.952 . S
H87 C75 0.950 . S
N88 C91 1.382 . S
N88 C93 1.363 . S
N89 C91 1.371 . S
N89 C92 1.372 . S
N90 C92 1.361 . S
N90 C93 1.377 . S
C91 N88 1.382 . S
C91 N89 1.371 . S
C91 C94 1.480 . S
C92 N89 1.372 . S
C92 N90 1.361 . S
C92 C100 1.457 . S
C93 N88 1.363 . S
C93 N90 1.377 . S
C93 C106 1.479 . S
C94 C91 1.480 . S
C94 C95 1.383 . S
C94 C99 1.385 . S
C95 H76 0.947 . S
C95 C94 1.383 . S
C95 C96 1.386 1_545 S
C96 H77 0.952 . S
C96 C95 1.386 1_565 S
C96 C97 1.382 1_565 S
C97 C96 1.382 1_545 S
C97 C98 1.377 . S
C98 H78 0.953 . S
C98 C97 1.377 . S
C98 C99 1.369 . S
C99 H79 0.945 . S
C99 C94 1.385 . S
C99 C98 1.369 . S
C100 C92 1.457 . S
C100 C101 1.377 . S
C100 C105 1.364 . S
C101 H80 0.949 1_545 S
C101 C100 1.377 . S
C101 C102 1.387 1_545 S
C102 H81 0.949 . S
C102 C101 1.387 1_565 S
C102 C103 1.387 1_565 S
C103 C102 1.387 1_545 S
C103 C104 1.372 . S
C104 H82 0.950 . S
C104 C103 1.372 . S
C104 C105 1.379 . S
C105 H83 0.948 . S
C105 C100 1.364 . S
C105 C104 1.379 . S
C106 C75 1.383 . S
C106 C93 1.479 . S
C106 C107 1.398 . S
C107 C72 1.382 1_545 S
C107 H84 0.951 1_545 S
C107 C106 1.398 . S
C108 C109 1.384 . S
C108 H121 0.947 . S
C108 C143 1.382 . S
C109 C108 1.384 . S
C109 C110 1.378 . S
C110 C109 1.378 . S
C110 C111 1.378 . S
C110 H122 0.952 . S
C111 C110 1.378 . S
C111 H123 0.950 . S
C111 C142 1.383 . S
H112 C131 0.947 . S
H113 C132 0.946 . S
H114 C134 0.953 . S
H115 C135 0.945 . S
H116 C137 0.952 . S
H117 C138 0.949 . S
H118 C140 0.950 . S
H119 C141 0.948 . S
H120 C143 0.951 . S
H121 C108 0.947 . S
H122 C110 0.952 . S
H123 C111 0.950 . S
N124 C127 1.382 . S
N124 C129 1.363 . S
N125 C127 1.371 . S
N125 C128 1.372 . S
N126 C128 1.361 . S
N126 C129 1.377 . S
C127 N124 1.382 . S
C127 N125 1.371 . S
C127 C130 1.480 . S
C128 N125 1.372 . S
C128 N126 1.361 . S
C128 C136 1.457 . S
C129 N124 1.363 . S
C129 N126 1.377 . S
C129 C142 1.479 . S
C130 C127 1.480 . S
C130 C131 1.383 . S
C130 C135 1.385 . S
C131 H112 0.947 . S
C131 C130 1.383 . S
C131 C132 1.388 . S
C132 H113 0.946 . S
C132 C131 1.388 . S
C132 C133 1.384 . S
C133 C132 1.384 . S
C133 C134 1.377 . S
C134 H114 0.953 . S
C134 C133 1.377 . S
C134 C135 1.369 . S
C135 H115 0.945 . S
C135 C130 1.385 . S
C135 C134 1.369 . S
C136 C128 1.457 . S
C136 C137 1.372 . S
C136 C141 1.364 . S
C137 H116 0.952 . S
C137 C136 1.372 . S
C137 C138 1.389 . S
C138 H117 0.949 . S
C138 C137 1.389 . S
C138 C139 1.387 . S
C139 C138 1.387 . S
C139 C140 1.372 . S
C140 H118 0.950 . S
C140 C139 1.372 . S
C140 C141 1.379 . S
C141 H119 0.948 . S
C141 C136 1.364 . S
C141 C140 1.379 . S
C142 C111 1.383 . S
C142 C129 1.479 . S
C142 C143 1.398 . S
C143 C108 1.382 . S
C143 H120 0.951 . S
C143 C142 1.398 . S
C144 C145 1.384 . S
C144 H157 0.947 . S
C144 C179 1.382 . S
C145 C144 1.384 . S
C145 C146 1.378 . S
C146 C145 1.378 . S
C146 C147 1.378 . S
C146 H158 0.952 . S
C147 C146 1.378 . S
C147 H159 0.950 . S
C147 C178 1.383 . S
H148 C167 0.947 1_556 S
H149 C168 0.946 1_556 S
H150 C170 0.953 . S
H151 C171 0.945 . S
H152 C173 0.952 . S
H153 C174 0.949 . S
H154 C176 0.950 . S
H155 C177 0.948 . S
H156 C179 0.951 . S
H157 C144 0.947 . S
H158 C146 0.952 . S
H159 C147 0.950 . S
N160 C163 1.382 1_556 S
N160 C165 1.363 . S
N161 C163 1.371 . S
N161 C164 1.372 . S
N162 C164 1.361 . S
N162 C165 1.377 1_554 S
C163 N160 1.382 1_554 S
C163 N161 1.371 . S
C163 C166 1.480 . S
C164 N161 1.372 . S
C164 N162 1.361 . S
C164 C172 1.457 . S
C165 N160 1.363 . S
C165 N162 1.377 1_556 S
C165 C178 1.479 . S
C166 C163 1.480 . S
C166 C167 1.383 . S
C166 C171 1.385 . S
C167 H148 0.947 1_554 S
C167 C166 1.383 . S
C167 C168 1.388 . S
C168 H149 0.946 1_554 S
C168 C167 1.388 . S
C168 C169 1.384 . S
C169 C168 1.384 . S
C169 C170 1.377 . S
C170 H150 0.953 . S
C170 C169 1.377 . S
C170 C171 1.369 . S
C171 H151 0.945 . S
C171 C166 1.385 . S
C171 C170 1.369 . S
C172 C164 1.457 . S
C172 C173 1.372 . S
C172 C177 1.364 . S
C173 H152 0.952 . S
C173 C172 1.372 . S
C173 C174 1.389 . S
C174 H153 0.949 . S
C174 C173 1.389 . S
C174 C175 1.387 . S
C175 C174 1.387 . S
C175 C176 1.372 . S
C176 H154 0.950 . S
C176 C175 1.372 . S
C176 C177 1.379 . S
C177 H155 0.948 . S
C177 C172 1.364 . S
C177 C176 1.379 . S
C178 C147 1.383 . S
C178 C165 1.479 . S
C178 C179 1.398 . S
C179 C144 1.382 . S
C179 H156 0.951 . S
C179 C178 1.398 . S
C180 C181 1.384 1_655 S
C180 H193 0.947 . S
C180 C215 1.382 1_655 S
C181 C180 1.384 1_455 S
C181 C182 1.378 . S
C182 C181 1.378 . S
C182 C183 1.378 . S
C182 H194 0.952 . S
C183 C182 1.378 . S
C183 H195 0.950 . S
C183 C214 1.383 . S
H184 C203 0.947 1_556 S
H185 C204 0.950 1_556 S
H186 C206 0.953 . S
H187 C207 0.945 . S
H188 C209 0.947 1_655 S
H189 C210 0.954 . S
H190 C212 0.950 . S
H191 C213 0.948 . S
H192 C215 0.950 1_655 S
H193 C180 0.947 . S
H194 C182 0.952 . S
H195 C183 0.950 . S
N196 C199 1.382 1_556 S
N196 C201 1.363 . S
N197 C199 1.371 . S
N197 C200 1.372 . S
N198 C200 1.361 . S
N198 C201 1.377 1_554 S
C199 N196 1.382 1_554 S
C199 N197 1.371 . S
C199 C202 1.480 . S
C200 N197 1.372 . S
C200 N198 1.361 . S
C200 C208 1.457 . S
C201 N196 1.363 . S
C201 N198 1.377 1_556 S
C201 C214 1.479 . S
C202 C199 1.480 . S
C202 C203 1.383 . S
C202 C207 1.385 . S
C203 H184 0.947 1_554 S
C203 C202 1.383 . S
C203 C204 1.387 1_455 S
C204 H185 0.950 1_554 S
C204 C203 1.387 1_655 S
C204 C205 1.382 1_655 S
C205 C204 1.382 1_455 S
C205 C206 1.377 . S
C206 H186 0.953 . S
C206 C205 1.377 . S
C206 C207 1.369 . S
C207 H187 0.945 . S
C207 C202 1.385 . S
C207 C206 1.369 . S
C208 C200 1.457 . S
C208 C209 1.379 . S
C208 C213 1.364 . S
C209 H188 0.947 1_455 S
C209 C208 1.379 . S
C209 C210 1.387 1_455 S
C210 H189 0.954 . S
C210 C209 1.387 1_655 S
C210 C211 1.383 1_655 S
C211 C210 1.383 1_455 S
C211 C212 1.372 . S
C212 H190 0.950 . S
C212 C211 1.372 . S
C212 C213 1.379 . S
C213 H191 0.948 . S
C213 C208 1.364 . S
C213 C212 1.379 . S
C214 C183 1.383 . S
C214 C201 1.479 . S
C214 C215 1.399 . S
C215 C180 1.382 1_455 S
C215 H192 0.950 1_455 S
C215 C214 1.399 . S
C216 C217 1.384 1_565 S
C216 H229 0.947 . S
C216 C251 1.382 1_565 S
C217 C216 1.384 1_545 S
C217 C218 1.378 . S
C218 C217 1.378 . S
C218 C219 1.378 . S
C218 H230 0.952 . S
C219 C218 1.378 . S
C219 H231 0.950 . S
C219 C250 1.383 . S
H220 C239 0.947 1_556 S
H221 C240 0.950 1_556 S
H222 C242 0.953 . S
H223 C243 0.945 . S
H224 C245 0.948 1_565 S
H225 C246 0.954 . S
H226 C248 0.950 . S
H227 C249 0.948 . S
H228 C251 0.950 1_565 S
H229 C216 0.947 . S
H230 C218 0.952 . S
H231 C219 0.950 . S
N232 C235 1.382 1_556 S
N232 C237 1.363 . S
N233 C235 1.371 . S
N233 C236 1.372 . S
N234 C236 1.361 . S
N234 C237 1.377 1_554 S
C235 N232 1.382 1_554 S
C235 N233 1.371 . S
C235 C238 1.480 . S
C236 N233 1.372 . S
C236 N234 1.361 . S
C236 C244 1.457 . S
C237 N232 1.363 . S
C237 N234 1.377 1_556 S
C237 C250 1.479 . S
C238 C235 1.480 . S
C238 C239 1.383 . S
C238 C243 1.385 . S
C239 H220 0.947 1_554 S
C239 C238 1.383 . S
C239 C240 1.387 1_545 S
C240 H221 0.950 1_554 S
C240 C239 1.387 1_565 S
C240 C241 1.382 1_565 S
C241 C240 1.382 1_545 S
C241 C242 1.377 . S
C242 H222 0.953 . S
C242 C241 1.377 . S
C242 C243 1.369 . S
C243 H223 0.945 . S
C243 C238 1.385 . S
C243 C242 1.369 . S
C244 C236 1.457 . S
C244 C245 1.379 . S
C244 C249 1.364 . S
C245 H224 0.948 1_545 S
C245 C244 1.379 . S
C245 C246 1.387 1_545 S
C246 H225 0.954 . S
C246 C245 1.387 1_565 S
C246 C247 1.384 1_565 S
C247 C246 1.384 1_545 S
C247 C248 1.372 . S
C248 H226 0.950 . S
C248 C247 1.372 . S
C248 C249 1.379 . S
C249 H227 0.948 . S
C249 C244 1.364 . S
C249 C248 1.379 . S
C250 C219 1.383 . S
C250 C237 1.479 . S
C250 C251 1.399 . S
C251 C216 1.382 1_545 S
C251 H228 0.950 1_545 S
C251 C250 1.399 . S
C252 C253 1.384 . S
C252 H265 0.947 . S
C252 C287 1.382 . S
C253 C252 1.384 . S
C253 C254 1.378 . S
C254 C253 1.378 . S
C254 C255 1.378 . S
C254 H266 0.952 . S
C255 C254 1.378 . S
C255 H267 0.950 . S
C255 C286 1.383 . S
H256 C275 0.947 . S
H257 C276 0.946 . S
H258 C278 0.953 1_556 S
H259 C279 0.945 1_556 S
H260 C281 0.952 . S
H261 C282 0.949 . S
H262 C284 0.950 . S
H263 C285 0.948 . S
H264 C287 0.951 . S
H265 C252 0.947 . S
H266 C254 0.952 . S
H267 C255 0.950 . S
N268 C271 1.382 . S
N268 C273 1.363 . S
N269 C271 1.371 1_556 S
N269 C272 1.372 . S
N270 C272 1.361 1_554 S
N270 C273 1.377 . S
C271 N268 1.382 . S
C271 N269 1.371 1_554 S
C271 C274 1.480 . S
C272 N269 1.372 . S
C272 N270 1.361 1_556 S
C272 C280 1.457 . S
C273 N268 1.363 . S
C273 N270 1.377 . S
C273 C286 1.479 . S
C274 C271 1.480 . S
C274 C275 1.383 . S
C274 C279 1.385 . S
C275 H256 0.947 . S
C275 C274 1.383 . S
C275 C276 1.388 . S
C276 H257 0.946 . S
C276 C275 1.388 . S
C276 C277 1.384 . S
C277 C276 1.384 . S
C277 C278 1.377 . S
C278 H258 0.953 1_554 S
C278 C277 1.377 . S
C278 C279 1.369 . S
C279 H259 0.945 1_554 S
C279 C274 1.385 . S
C279 C278 1.369 . S
C280 C272 1.457 . S
C280 C281 1.372 . S
C280 C285 1.364 . S
C281 H260 0.952 . S
C281 C280 1.372 . S
C281 C282 1.389 . S
C282 H261 0.949 . S
C282 C281 1.389 . S
C282 C283 1.387 . S
C283 C282 1.387 . S
C283 C284 1.372 . S
C284 H262 0.950 . S
C284 C283 1.372 . S
C284 C285 1.379 . S
C285 H263 0.948 . S
C285 C280 1.364 . S
C285 C284 1.379 . S
C286 C255 1.383 . S
C286 C273 1.479 . S
C286 C287 1.398 . S
C287 C252 1.382 . S
C287 H264 0.951 . S
C287 C286 1.398 . S
Ho288 C291 2.811 . S
Ho288 O308 2.322 . S
Ho288 O310 2.378 . S
Ho288 O311 2.524 . S
Ho288 O312 2.381 . S
Ho288 O313 2.669 1_565 S
Ho288 O315 2.346 1_565 S
Ho288 O319 2.305 1_455 S
Ho289 C300 2.811 . S
Ho289 O309 2.346 1_545 S
Ho289 O313 2.305 1_655 S
Ho289 O314 2.322 . S
Ho289 O316 2.378 . S
Ho289 O317 2.524 . S
Ho289 O318 2.381 . S
Ho289 O319 2.669 1_545 S
C290 O308 1.259 1_655 S
C290 O309 1.268 . S
C291 Ho288 2.811 . S
C291 C292 1.488 . S
C291 O310 1.215 . S
C291 O311 1.289 . S
C292 C291 1.488 . S
C292 C293 1.348 1_556 S
C292 C297 1.413 . S
C293 C292 1.348 1_554 S
C293 C294 1.442 . S
C293 H320 0.930 1_455 S
C294 C293 1.442 . S
C294 C295 1.381 . S
C294 H321 0.931 . S
C295 C294 1.381 . S
C295 C296 1.321 . S
C296 C295 1.321 . S
C296 C297 1.403 1_554 S
C296 H322 0.934 . S
C297 C292 1.413 . S
C297 C296 1.403 1_556 S
C297 H323 0.930 . S
C298 O312 1.275 . S
C298 O313 1.256 1_565 S
C299 O314 1.259 1_455 S
C299 O315 1.268 . S
C300 Ho289 2.811 . S
C300 C301 1.488 . S
C300 O316 1.215 . S
C300 O317 1.289 . S
C301 C300 1.488 . S
C301 C302 1.348 . S
C301 C306 1.413 . S
C302 C301 1.348 . S
C302 C303 1.442 . S
C302 H324 0.930 1_655 S
C303 C302 1.442 . S
C303 C304 1.381 . S
C303 H325 0.931 . S
C304 C303 1.381 . S
C304 C305 1.321 . S
C305 C304 1.321 . S
C305 C306 1.403 . S
C305 H326 0.934 . S
C306 C301 1.413 . S
C306 C305 1.403 . S
C306 H327 0.930 . S
C307 O318 1.275 . S
C307 O319 1.256 1_545 S
O308 Ho288 2.322 . S
O308 C290 1.259 1_455 S
O309 Ho289 2.346 1_565 S
O309 C290 1.268 . S
O310 Ho288 2.378 . S
O310 C291 1.215 . S
O311 Ho288 2.524 . S
O311 C291 1.289 . S
O312 Ho288 2.381 . S
O312 C298 1.275 . S
O313 Ho288 2.669 1_545 S
O313 Ho289 2.305 1_455 S
O313 C298 1.256 1_545 S
O314 Ho289 2.322 . S
O314 C299 1.259 1_655 S
O315 Ho288 2.346 1_545 S
O315 C299 1.268 . S
O316 Ho289 2.378 . S
O316 C300 1.215 . S
O317 Ho289 2.524 . S
O317 C300 1.289 . S
O318 Ho289 2.381 . S
O318 C307 1.275 . S
O319 Ho288 2.305 1_655 S
O319 Ho289 2.669 1_565 S
O319 C307 1.256 1_565 S
H320 C293 0.930 1_655 S
H321 C294 0.931 . S
H322 C296 0.934 . S
H323 C297 0.930 . S
H324 C302 0.930 1_455 S
H325 C303 0.931 . S
H326 C305 0.934 . S
H327 C306 0.930 . S
Ho328 C331 2.811 . S
Ho328 O348 2.322 . S
Ho328 O350 2.378 . S
Ho328 O351 2.524 . S
Ho328 O352 2.381 . S
Ho328 O353 2.669 . S
Ho328 O355 2.346 . S
Ho328 O359 2.305 1_545 S
Ho329 C340 2.811 . S
Ho329 O349 2.346 . S
Ho329 O353 2.305 1_565 S
Ho329 O354 2.322 . S
Ho329 O356 2.378 . S
Ho329 O357 2.524 . S
Ho329 O358 2.381 . S
Ho329 O359 2.669 . S
C330 O348 1.259 1_565 S
C330 O349 1.268 . S
C331 Ho328 2.811 . S
C331 C332 1.488 . S
C331 O350 1.215 . S
C331 O351 1.289 . S
C332 C331 1.488 . S
C332 C333 1.348 1_556 S
C332 C337 1.413 . S
C333 C332 1.348 1_554 S
C333 C334 1.442 . S
C333 H360 0.930 1_545 S
C334 C333 1.442 . S
C334 C335 1.381 . S
C334 H361 0.931 . S
C335 C334 1.381 . S
C335 C336 1.321 . S
C336 C335 1.321 . S
C336 C337 1.403 1_554 S
C336 H362 0.934 . S
C337 C332 1.413 . S
C337 C336 1.403 1_556 S
C337 H363 0.930 . S
C338 O352 1.275 . S
C338 O353 1.256 . S
C339 O354 1.259 1_545 S
C339 O355 1.268 . S
C340 Ho329 2.811 . S
C340 C341 1.488 . S
C340 O356 1.215 . S
C340 O357 1.289 . S
C341 C340 1.488 . S
C341 C342 1.348 . S
C341 C346 1.413 . S
C342 C341 1.348 . S
C342 C343 1.442 . S
C342 H364 0.930 1_565 S
C343 C342 1.442 . S
C343 C344 1.381 . S
C343 H365 0.931 . S
C344 C343 1.381 . S
C344 C345 1.321 . S
C345 C344 1.321 . S
C345 C346 1.403 . S
C345 H366 0.934 . S
C346 C341 1.413 . S
C346 C345 1.403 . S
C346 H367 0.930 . S
C347 O358 1.275 . S
C347 O359 1.256 . S
O348 Ho328 2.322 . S
O348 C330 1.259 1_545 S
O349 Ho329 2.346 . S
O349 C330 1.268 . S
O350 Ho328 2.378 . S
O350 C331 1.215 . S
O351 Ho328 2.524 . S
O351 C331 1.289 . S
O352 Ho328 2.381 . S
O352 C338 1.275 . S
O353 Ho328 2.669 . S
O353 Ho329 2.305 1_545 S
O353 C338 1.256 . S
O354 Ho329 2.322 . S
O354 C339 1.259 1_565 S
O355 Ho328 2.346 . S
O355 C339 1.268 . S
O356 Ho329 2.378 . S
O356 C340 1.215 . S
O357 Ho329 2.524 . S
O357 C340 1.289 . S
O358 Ho329 2.381 . S
O358 C347 1.275 . S
O359 Ho328 2.305 1_565 S
O359 Ho329 2.669 . S
O359 C347 1.256 . S
H360 C333 0.930 1_565 S
H361 C334 0.931 . S
H362 C336 0.934 . S
H363 C337 0.930 . S
H364 C342 0.930 1_545 S
H365 C343 0.931 . S
H366 C345 0.934 . S
H367 C346 0.930 . S
Ho368 C371 2.811 . S
Ho368 O388 2.322 . S
Ho368 O390 2.378 . S
Ho368 O391 2.524 . S
Ho368 O392 2.381 . S
Ho368 O393 2.669 . S
Ho368 O395 2.346 . S
Ho368 O399 2.305 . S
Ho369 C380 2.811 . S
Ho369 O389 2.346 . S
Ho369 O393 2.305 . S
Ho369 O394 2.322 . S
Ho369 O396 2.378 . S
Ho369 O397 2.524 . S
Ho369 O398 2.381 . S
Ho369 O399 2.669 . S
C370 O388 1.259 . S
C370 O389 1.268 . S
C371 Ho368 2.811 . S
C371 C372 1.488 . S
C371 O390 1.215 . S
C371 O391 1.289 . S
C372 C371 1.488 . S
C372 C373 1.348 1_556 S
C372 C377 1.413 . S
C373 C372 1.348 1_554 S
C373 C374 1.442 . S
C373 H400 0.930 . S
C374 C373 1.442 . S
C374 C375 1.381 . S
C374 H401 0.931 . S
C375 C374 1.381 . S
C375 C376 1.321 . S
C376 C375 1.321 . S
C376 C377 1.403 1_554 S
C376 H402 0.934 . S
C377 C372 1.413 . S
C377 C376 1.403 1_556 S
C377 H403 0.930 . S
C378 O392 1.275 . S
C378 O393 1.256 . S
C379 O394 1.259 . S
C379 O395 1.268 . S
C380 Ho369 2.811 . S
C380 C381 1.488 . S
C380 O396 1.215 . S
C380 O397 1.289 . S
C381 C380 1.488 . S
C381 C382 1.348 . S
C381 C386 1.413 . S
C382 C381 1.348 . S
C382 C383 1.442 . S
C382 H404 0.930 . S
C383 C382 1.442 . S
C383 C384 1.381 . S
C383 H405 0.931 . S
C384 C383 1.381 . S
C384 C385 1.321 . S
C385 C384 1.321 . S
C385 C386 1.403 . S
C385 H406 0.934 . S
C386 C381 1.413 . S
C386 C385 1.403 . S
C386 H407 0.930 . S
C387 O398 1.275 . S
C387 O399 1.256 . S
O388 Ho368 2.322 . S
O388 C370 1.259 . S
O389 Ho369 2.346 . S
O389 C370 1.268 . S
O390 Ho368 2.378 . S
O390 C371 1.215 . S
O391 Ho368 2.524 . S
O391 C371 1.289 . S
O392 Ho368 2.381 . S
O392 C378 1.275 . S
O393 Ho368 2.669 . S
O393 Ho369 2.305 . S
O393 C378 1.256 . S
O394 Ho369 2.322 . S
O394 C379 1.259 . S
O395 Ho368 2.346 . S
O395 C379 1.268 . S
O396 Ho369 2.378 . S
O396 C380 1.215 . S
O397 Ho369 2.524 . S
O397 C380 1.289 . S
O398 Ho369 2.381 . S
O398 C387 1.275 . S
O399 Ho368 2.305 . S
O399 Ho369 2.669 . S
O399 C387 1.256 . S
H400 C373 0.930 . S
H401 C374 0.931 . S
H402 C376 0.934 . S
H403 C377 0.930 . S
H404 C382 0.930 . S
H405 C383 0.931 . S
H406 C385 0.934 . S
H407 C386 0.930 . S
Ho408 C411 2.811 . S
Ho408 O428 2.322 . S
Ho408 O430 2.378 . S
Ho408 O431 2.524 . S
Ho408 O432 2.381 . S
Ho408 O433 2.669 1_655 S
Ho408 O435 2.346 1_655 S
Ho408 O439 2.305 . S
Ho409 C420 2.811 . S
Ho409 O429 2.346 1_455 S
Ho409 O433 2.305 . S
Ho409 O434 2.322 . S
Ho409 O436 2.378 . S
Ho409 O437 2.524 . S
Ho409 O438 2.381 . S
Ho409 O439 2.669 1_455 S
C410 O428 1.259 . S
C410 O429 1.268 . S
C411 Ho408 2.811 . S
C411 C412 1.488 . S
C411 O430 1.215 . S
C411 O431 1.289 . S
C412 C411 1.488 . S
C412 C413 1.348 1_556 S
C412 C417 1.413 . S
C413 C412 1.348 1_554 S
C413 C414 1.442 . S
C413 H440 0.930 . S
C414 C413 1.442 . S
C414 C415 1.381 . S
C414 H441 0.931 . S
C415 C414 1.381 . S
C415 C416 1.321 . S
C416 C415 1.321 . S
C416 C417 1.403 1_554 S
C416 H442 0.934 . S
C417 C412 1.413 . S
C417 C416 1.403 1_556 S
C417 H443 0.930 . S
C418 O432 1.280 . S
C418 O433 1.253 1_655 S
C419 O434 1.259 . S
C419 O435 1.268 . S
C420 Ho409 2.811 . S
C420 C421 1.488 . S
C420 O436 1.215 . S
C420 O437 1.289 . S
C421 C420 1.488 . S
C421 C422 1.348 . S
C421 C426 1.413 . S
C422 C421 1.348 . S
C422 C423 1.442 . S
C422 H444 0.930 . S
C423 C422 1.442 . S
C423 C424 1.381 . S
C423 H445 0.931 . S
C424 C423 1.381 . S
C424 C425 1.321 . S
C425 C424 1.321 . S
C425 C426 1.403 . S
C425 H446 0.934 . S
C426 C421 1.413 . S
C426 C425 1.403 . S
C426 H447 0.930 . S
C427 O438 1.285 . S
C427 O439 1.251 1_455 S
O428 Ho408 2.322 . S
O428 C410 1.259 . S
O429 Ho409 2.346 1_655 S
O429 C410 1.268 . S
O430 Ho408 2.378 . S
O430 C411 1.215 . S
O431 Ho408 2.524 . S
O431 C411 1.289 . S
O432 Ho408 2.381 . S
O432 C418 1.280 . S
O433 Ho408 2.669 1_455 S
O433 Ho409 2.305 . S
O433 C418 1.253 1_455 S
O434 Ho409 2.322 . S
O434 C419 1.259 . S
O435 Ho408 2.346 1_455 S
O435 C419 1.268 . S
O436 Ho409 2.378 . S
O436 C420 1.215 . S
O437 Ho409 2.524 . S
O437 C420 1.289 . S
O438 Ho409 2.381 . S
O438 C427 1.285 . S
O439 Ho408 2.305 . S
O439 Ho409 2.669 1_655 S
O439 C427 1.251 1_655 S
H440 C413 0.930 . S
H441 C414 0.931 . S
H442 C416 0.934 . S
H443 C417 0.930 . S
H444 C422 0.930 . S
H445 C423 0.931 . S
H446 C425 0.934 . S
H447 C426 0.930 . S
C448 C449 1.404 . S
C448 H452 0.950 . S
C448 C457 1.390 . S
C449 C448 1.404 . S
C449 C451 1.372 1_545 S
H450 C457 0.950 . S
C451 C449 1.372 1_565 S
C451 C453 1.390 . S
C451 H455 0.950 . S
H452 C448 0.950 . S
C453 C451 1.390 . S
C453 C454 1.387 1_565 S
C453 H456 0.950 . S
C454 C453 1.387 1_545 S
C454 C457 1.387 . S
H455 C451 0.950 . S
H456 C453 0.950 . S
C457 C448 1.390 . S
C457 H450 0.950 . S
C457 C454 1.387 . S
C458 C459 1.387 . S
C458 H462 0.950 . S
C458 C467 1.390 . S
C459 C458 1.387 . S
C459 C461 1.387 . S
H460 C467 0.950 . S
C461 C459 1.387 . S
C461 C463 1.390 . S
C461 H465 0.950 . S
H462 C458 0.950 . S
C463 C461 1.390 . S
C463 C464 1.387 . S
C463 H466 0.950 . S
C464 C463 1.387 . S
C464 C467 1.387 . S
H465 C461 0.950 . S
H466 C463 0.950 . S
C467 C458 1.390 . S
C467 H460 0.950 . S
C467 C464 1.387 . S
C468 C469 1.387 . S
C468 H472 0.950 . S
C468 C477 1.390 . S
C469 C468 1.387 . S
C469 C471 1.387 . S
H470 C477 0.950 . S
C471 C469 1.387 . S
C471 C473 1.390 . S
C471 H475 0.950 . S
H472 C468 0.950 . S
C473 C471 1.390 . S
C473 C474 1.387 . S
C473 H476 0.950 . S
C474 C473 1.387 . S
C474 C477 1.387 . S
H475 C471 0.950 . S
H476 C473 0.950 . S
C477 C468 1.390 . S
C477 H470 0.950 . S
C477 C474 1.387 . S
C478 C479 1.417 . S
C478 H482 0.950 . S
C478 C487 1.390 . S
C479 C478 1.417 . S
C479 C481 1.359 1_455 S
H480 C487 0.950 . S
C481 C479 1.359 1_655 S
C481 C483 1.390 . S
C481 H485 0.950 . S
H482 C478 0.950 . S
C483 C481 1.390 . S
C483 C484 1.387 1_655 S
C483 H486 0.950 . S
C484 C483 1.387 1_455 S
C484 C487 1.387 . S
H485 C481 0.950 . S
H486 C483 0.950 . S
C487 C478 1.390 . S
C487 H480 0.950 . S
C487 C484 1.387 . S
C488 C489 1.377 1_545 S
C488 H492 0.950 . S
C488 C497 1.390 . S
C489 C488 1.377 1_565 S
C489 C491 1.399 . S
H490 C497 0.950 . S
C491 C489 1.399 . S
C491 C493 1.390 . S
C491 H495 0.950 . S
H492 C488 0.950 . S
C493 C491 1.390 . S
C493 C494 1.417 . S
C493 H496 0.950 . S
C494 C493 1.417 . S
C494 C497 1.357 1_565 S
H495 C491 0.950 . S
H496 C493 0.950 . S
C497 C488 1.390 . S
C497 H490 0.950 . S
C497 C494 1.357 1_545 S
C498 C499 1.387 . S
C498 H502 0.950 . S
C498 C507 1.390 . S
C499 C498 1.387 . S
C499 C501 1.387 . S
H500 C507 0.950 . S
C501 C499 1.387 . S
C501 C503 1.390 . S
C501 H505 0.950 . S
H502 C498 0.950 . S
C503 C501 1.390 . S
C503 C504 1.387 . S
C503 H506 0.950 . S
C504 C503 1.387 . S
C504 C507 1.387 . S
H505 C501 0.950 . S
H506 C503 0.950 . S
C507 C498 1.390 . S
C507 H500 0.950 . S
C507 C504 1.387 . S
C508 C509 1.387 . S
C508 H512 0.950 . S
C508 C517 1.390 . S
C509 C508 1.387 . S
C509 C511 1.387 . S
H510 C517 0.950 . S
C511 C509 1.387 . S
C511 C513 1.390 . S
C511 H515 0.950 . S
H512 C508 0.950 . S
C513 C511 1.390 . S
C513 C514 1.387 . S
C513 H516 0.950 . S
C514 C513 1.387 . S
C514 C517 1.387 . S
H515 C511 0.950 . S
H516 C513 0.950 . S
C517 C508 1.390 . S
C517 H510 0.950 . S
C517 C514 1.387 . S
C518 C519 1.401 . S
C518 H522 0.950 . S
C518 C527 1.390 . S
C519 C518 1.401 . S
C519 C521 1.375 1_655 S
H520 C527 0.950 . S
C521 C519 1.375 1_455 S
C521 C523 1.390 . S
C521 H525 0.950 . S
H522 C518 0.950 . S
C523 C521 1.390 . S
C523 C524 1.387 1_455 S
C523 H526 0.950 . S
C524 C523 1.387 1_655 S
C524 C527 1.387 . S
H525 C521 0.950 . S
H526 C523 0.950 . S
C527 C518 1.390 . S
C527 H520 0.950 . S
C527 C524 1.387 . S
C528 C529 1.387 . S
C528 H532 0.950 . S
C528 C537 1.390 . S
C529 C528 1.387 . S
C529 C531 1.387 . S
H530 C537 0.950 . S
C531 C529 1.387 . S
C531 C533 1.390 . S
C531 H535 0.953 . S
H532 C528 0.950 . S
C533 C531 1.390 . S
C533 C534 1.387 . S
C533 H536 0.950 . S
C534 C533 1.387 . S
C534 C537 1.387 . S
H535 C531 0.953 . S
H536 C533 0.950 . S
C537 C528 1.390 . S
C537 H530 0.950 . S
C537 C534 1.387 . S
C538 C539 1.387 . S
C538 H542 0.950 . S
C538 C547 1.390 . S
C539 C538 1.387 . S
C539 C541 1.387 . S
H540 C547 0.950 . S
C541 C539 1.387 . S
C541 C543 1.390 . S
C541 H545 0.950 1_565 S
H542 C538 0.950 . S
C543 C541 1.390 . S
C543 C544 1.387 . S
C543 H546 0.950 . S
C544 C543 1.387 . S
C544 C547 1.387 . S
H545 C541 0.950 1_545 S
H546 C543 0.950 . S
C547 C538 1.390 . S
C547 H540 0.950 . S
C547 C544 1.387 . S
C548 C549 1.387 . S
C548 H552 0.950 . S
C548 C557 1.390 . S
C549 C548 1.387 . S
C549 C551 1.387 . S
H550 C557 0.950 . S
C551 C549 1.387 . S
C551 C553 1.390 . S
C551 H555 0.950 . S
H552 C548 0.950 . S
C553 C551 1.390 . S
C553 C554 1.387 . S
C553 H556 0.950 . S
C554 C553 1.387 . S
C554 C557 1.387 . S
H555 C551 0.950 . S
H556 C553 0.950 . S
C557 C548 1.390 . S
C557 H550 0.950 . S
C557 C554 1.387 . S
C558 C559 1.387 . S
C558 H562 0.950 . S
C558 C567 1.390 . S
C559 C558 1.387 . S
C559 C561 1.387 . S
H560 C567 0.950 . S
C561 C559 1.387 . S
C561 C563 1.390 . S
C561 H565 0.950 . S
H562 C558 0.950 . S
C563 C561 1.390 . S
C563 C564 1.387 . S
C563 H566 0.950 . S
C564 C563 1.387 . S
C564 C567 1.387 . S
H565 C561 0.950 . S
H566 C563 0.950 . S
C567 C558 1.390 . S
C567 H560 0.950 . S
C567 C564 1.387 . S
C568 C569 1.387 . S
C568 H572 0.950 1_554 S
C568 C577 1.390 . S
C569 C568 1.387 . S
C569 C571 1.387 . S
H570 C577 0.950 1_556 S
C571 C569 1.387 . S
C571 C573 1.390 . S
C571 H575 0.950 . S
H572 C568 0.950 1_556 S
C573 C571 1.390 . S
C573 C574 1.387 . S
C573 H576 0.950 . S
C574 C573 1.387 . S
C574 C577 1.387 . S
H575 C571 0.950 . S
H576 C573 0.950 . S
C577 C568 1.390 . S
C577 H570 0.950 1_554 S
C577 C574 1.387 . S
C578 C579 1.387 . S
C578 H582 0.950 1_554 S
C578 C587 1.390 . S
C579 C578 1.387 . S
C579 C581 1.387 . S
H580 C587 0.950 1_556 S
C581 C579 1.387 . S
C581 C583 1.390 . S
C581 H585 0.950 . S
H582 C578 0.950 1_556 S
C583 C581 1.390 . S
C583 C584 1.387 . S
C583 H586 0.950 . S
C584 C583 1.387 . S
C584 C587 1.387 . S
H585 C581 0.950 . S
H586 C583 0.950 . S
C587 C578 1.390 . S
C587 H580 0.950 1_554 S
C587 C584 1.387 . S
C588 C589 1.387 . S
C588 H592 0.950 . S
C588 C597 1.390 . S
C589 C588 1.387 . S
C589 C591 1.387 . S
H590 C597 0.950 . S
C591 C589 1.387 . S
C591 C593 1.390 . S
C591 H595 0.950 . S
H592 C588 0.950 . S
C593 C591 1.390 . S
C593 C594 1.387 . S
C593 H596 0.950 . S
C594 C593 1.387 . S
C594 C597 1.387 . S
H595 C591 0.950 . S
H596 C593 0.950 . S
C597 C588 1.390 . S
C597 H590 0.950 . S
C597 C594 1.387 . S
C598 C599 1.387 . S
C598 H602 0.950 . S
C598 C607 1.390 . S
C599 C598 1.387 . S
C599 C601 1.387 . S
H600 C607 0.950 . S
C601 C599 1.387 . S
C601 C603 1.390 . S
C601 H605 0.950 1_554 S
H602 C598 0.950 . S
C603 C601 1.390 . S
C603 C604 1.387 . S
C603 H606 0.950 1_554 S
C604 C603 1.387 . S
C604 C607 1.387 . S
H605 C601 0.950 1_556 S
H606 C603 0.950 1_556 S
C607 C598 1.390 . S
C607 H600 0.950 . S
C607 C604 1.387 . S
C608 C609 1.387 . S
C608 H612 0.950 . S
C608 C617 1.390 . S
C609 C608 1.387 . S
C609 C611 1.387 1_455 S
H610 C617 0.950 . S
C611 C609 1.387 1_655 S
C611 C613 1.390 . S
C611 H615 0.950 . S
H612 C608 0.950 . S
C613 C611 1.390 . S
C613 C614 1.387 1_655 S
C613 H616 0.950 . S
C614 C613 1.387 1_455 S
C614 C617 1.387 . S
H615 C611 0.950 . S
H616 C613 0.950 . S
C617 C608 1.390 . S
C617 H610 0.950 . S
C617 C614 1.387 . S
C618 C619 1.387 1_565 S
C618 H622 0.950 . S
C618 C627 1.390 . S
C619 C618 1.387 1_545 S
C619 C621 1.387 . S
H620 C627 0.950 . S
C621 C619 1.387 . S
C621 C623 1.390 . S
C621 H625 0.950 . S
H622 C618 0.950 . S
C623 C621 1.390 . S
C623 C624 1.387 . S
C623 H626 0.950 . S
C624 C623 1.387 . S
C624 C627 1.387 1_545 S
H625 C621 0.950 . S
H626 C623 0.950 . S
C627 C618 1.390 . S
C627 H620 0.950 . S
C627 C624 1.387 1_565 S
C628 C629 1.387 . S
C628 H632 0.950 . S
C628 C637 1.390 . S
C629 C628 1.387 . S
C629 C631 1.387 . S
H630 C637 0.950 . S
C631 C629 1.387 . S
C631 C633 1.390 . S
C631 H635 0.950 . S
H632 C628 0.950 . S
C633 C631 1.390 . S
C633 C634 1.387 . S
C633 H636 0.950 . S
C634 C633 1.387 . S
C634 C637 1.387 . S
H635 C631 0.950 . S
H636 C633 0.950 . S
C637 C628 1.390 . S
C637 H630 0.950 . S
C637 C634 1.387 . S
C638 C639 1.387 . S
C638 H642 0.950 . S
C638 C647 1.390 . S
C639 C638 1.387 . S
C639 C641 1.387 . S
H640 C647 0.950 . S
C641 C639 1.387 . S
C641 C643 1.390 . S
C641 H645 0.950 . S
H642 C638 0.950 . S
C643 C641 1.390 . S
C643 C644 1.387 . S
C643 H646 0.950 . S
C644 C643 1.387 . S
C644 C647 1.387 . S
H645 C641 0.950 . S
H646 C643 0.950 . S
C647 C638 1.390 . S
C647 H640 0.950 . S
C647 C644 1.387 . S
C648 C649 1.387 1_455 S
C648 H652 0.950 . S
C648 C657 1.390 . S
C649 C648 1.387 1_655 S
C649 C651 1.387 . S
H650 C657 0.950 . S
C651 C649 1.387 . S
C651 C653 1.390 . S
C651 H655 0.950 . S
H652 C648 0.950 . S
C653 C651 1.390 . S
C653 C654 1.387 . S
C653 H656 0.950 . S
C654 C653 1.387 . S
C654 C657 1.387 1_655 S
H655 C651 0.950 . S
H656 C653 0.950 . S
C657 C648 1.390 . S
C657 H650 0.950 . S
C657 C654 1.387 1_455 S
C658 C659 1.387 1_545 S
C658 H662 0.950 . S
C658 C667 1.390 . S
C659 C658 1.387 1_565 S
C659 C661 1.387 . S
H660 C667 0.950 . S
C661 C659 1.387 . S
C661 C663 1.390 . S
C661 H665 0.950 . S
H662 C658 0.950 . S
C663 C661 1.390 . S
C663 C664 1.387 . S
C663 H666 0.950 . S
C664 C663 1.387 . S
C664 C667 1.387 1_565 S
H665 C661 0.950 . S
H666 C663 0.950 . S
C667 C658 1.390 . S
C667 H660 0.950 . S
C667 C664 1.387 1_545 S
C668 C669 1.387 . S
C668 H672 0.950 . S
C668 C677 1.390 . S
C669 C668 1.387 . S
C669 C671 1.387 . S
H670 C677 0.950 . S
C671 C669 1.387 . S
C671 C673 1.390 . S
C671 H675 0.950 . S
H672 C668 0.950 . S
C673 C671 1.390 . S
C673 C674 1.387 . S
C673 H676 0.950 . S
C674 C673 1.387 . S
C674 C677 1.387 . S
H675 C671 0.950 . S
H676 C673 0.950 . S
C677 C668 1.390 . S
C677 H670 0.950 . S
C677 C674 1.387 . S
C678 C679 1.387 . S
C678 H682 0.950 . S
C678 C687 1.390 . S
C679 C678 1.387 . S
C679 C681 1.387 . S
H680 C687 0.950 . S
C681 C679 1.387 . S
C681 C683 1.390 . S
C681 H685 0.950 . S
H682 C678 0.950 . S
C683 C681 1.390 . S
C683 C684 1.387 . S
C683 H686 0.950 . S
C684 C683 1.387 . S
C684 C687 1.387 . S
H685 C681 0.950 . S
H686 C683 0.950 . S
C687 C678 1.390 . S
C687 H680 0.950 . S
C687 C684 1.387 . S
C449 C241 2.444 . S
C454 C298 2.825 1_545 S
C464 C338 2.863 . S
C459 C277 2.569 . S
C474 C378 2.845 . S
C469 C169 2.462 . S
C484 C418 2.837 1_455 S
C479 C205 2.457 . S
C494 C307 2.825 1_564 S
C489 C97 2.445 1_565 S
C499 C133 2.558 . S
C504 C347 2.864 1_554 S
C509 C25 2.474 . S
C514 C387 2.844 1_554 S
C519 C61 2.460 1_655 S
C524 C427 2.839 1_654 S
C534 C304 0.808 . S
C529 C211 0.826 1_655 S
C544 C344 0.808 . S
C539 C247 0.826 1_565 S
C554 C384 0.777 . S
C549 C253 0.780 . S
C559 C175 0.799 . S
C564 C424 0.781 . S
C569 C67 0.805 . S
C574 C295 0.811 . S
C584 C335 0.807 . S
C579 C103 0.802 . S
C594 C375 0.784 . S
C589 C109 0.793 . S
C599 C31 0.790 . S
C604 C415 0.797 . S
C609 C181 3.256 . S
C614 C299 3.747 . S
C619 C217 3.219 . S
C624 C339 3.717 . S
C634 C379 3.720 . S
C629 C283 3.157 . S
C644 C419 3.737 . S
C639 C145 3.234 . S
C649 C37 3.269 1_655 S
C654 C290 3.755 . S
C664 C330 3.718 . S
C659 C73 3.234 1_565 S
C674 C370 3.720 . S
C669 C139 3.133 . S
C679 C1 3.258 . S
C684 C410 3.741 . S
