# Generated by pormake.
# Topology eea, (3,6)-cn, num edge types: 1
# Building blocks:
#     Node 0, Type 0, BuildingBlock: BELTOD_clean_linker_0, # of connection points: 3
#     Node 1, Type 0, BuildingBlock: BELTOD_clean_linker_0, # of connection points: 3
#     Node 2, Type 0, BuildingBlock: BELTOD_clean_linker_0, # of connection points: 3
#     Node 3, Type 0, BuildingBlock: BELTOD_clean_linker_0, # of connection points: 3
#     Node 4, Type 0, BuildingBlock: BELTOD_clean_linker_0, # of connection points: 3
#     Node 5, Type 0, BuildingBlock: BELTOD_clean_linker_0, # of connection points: 3
#     Node 6, Type 0, BuildingBlock: BELTOD_clean_linker_0, # of connection points: 3
#     Node 7, Type 0, BuildingBlock: BELTOD_clean_linker_0, # of connection points: 3
#     Node 8, Type 0, BuildingBlock: BELTOD_clean_linker_0, # of connection points: 3
#     Node 9, Type 0, BuildingBlock: BELTOD_clean_linker_0, # of connection points: 3
#     Node 10, Type 0, BuildingBlock: BELTOD_clean_linker_0, # of connection points: 3
#     Node 11, Type 0, BuildingBlock: BELTOD_clean_linker_0, # of connection points: 3
#     Node 12, Type 0, BuildingBlock: BELTOD_clean_linker_0, # of connection points: 3
#     Node 13, Type 0, BuildingBlock: BELTOD_clean_linker_0, # of connection points: 3
#     Node 14, Type 0, BuildingBlock: BELTOD_clean_linker_0, # of connection points: 3
#     Node 15, Type 0, BuildingBlock: BELTOD_clean_linker_0, # of connection points: 3
#     Node 16, Type 0, BuildingBlock: BELTOD_clean_linker_0, # of connection points: 3
#     Node 17, Type 0, BuildingBlock: BELTOD_clean_linker_0, # of connection points: 3
#     Node 18, Type 1, BuildingBlock: KUMJIN_clean_sbu_0, # of connection points: 6
#     Node 19, Type 1, BuildingBlock: KUMJIN_clean_sbu_0, # of connection points: 6
#     Node 20, Type 1, BuildingBlock: KUMJIN_clean_sbu_0, # of connection points: 6
#     Node 21, Type 1, BuildingBlock: KUMJIN_clean_sbu_0, # of connection points: 6
#     Node 22, Type 1, BuildingBlock: KUMJIN_clean_sbu_0, # of connection points: 6
#     Node 23, Type 1, BuildingBlock: KUMJIN_clean_sbu_0, # of connection points: 6
#     Node 24, Type 1, BuildingBlock: KUMJIN_clean_sbu_0, # of connection points: 6
#     Node 25, Type 1, BuildingBlock: KUMJIN_clean_sbu_0, # of connection points: 6
#     Node 26, Type 1, BuildingBlock: KUMJIN_clean_sbu_0, # of connection points: 6
#     Edge 27, Type (0, 1), None
#     Edge 28, Type (0, 1), None
#     Edge 29, Type (0, 1), None
#     Edge 30, Type (0, 1), None
#     Edge 31, Type (0, 1), None
#     Edge 32, Type (0, 1), None
#     Edge 33, Type (0, 1), None
#     Edge 34, Type (0, 1), None
#     Edge 35, Type (0, 1), None
#     Edge 36, Type (0, 1), None
#     Edge 37, Type (0, 1), None
#     Edge 38, Type (0, 1), None
#     Edge 39, Type (0, 1), None
#     Edge 40, Type (0, 1), None
#     Edge 41, Type (0, 1), None
#     Edge 42, Type (0, 1), None
#     Edge 43, Type (0, 1), None
#     Edge 44, Type (0, 1), None
#     Edge 45, Type (0, 1), None
#     Edge 46, Type (0, 1), None
#     Edge 47, Type (0, 1), None
#     Edge 48, Type (0, 1), None
#     Edge 49, Type (0, 1), None
#     Edge 50, Type (0, 1), None
#     Edge 51, Type (0, 1), None
#     Edge 52, Type (0, 1), None
#     Edge 53, Type (0, 1), None
#     Edge 54, Type (0, 1), None
#     Edge 55, Type (0, 1), None
#     Edge 56, Type (0, 1), None
#     Edge 57, Type (0, 1), None
#     Edge 58, Type (0, 1), None
#     Edge 59, Type (0, 1), None
#     Edge 60, Type (0, 1), None
#     Edge 61, Type (0, 1), None
#     Edge 62, Type (0, 1), None
#     Edge 63, Type (0, 1), None
#     Edge 64, Type (0, 1), None
#     Edge 65, Type (0, 1), None
#     Edge 66, Type (0, 1), None
#     Edge 67, Type (0, 1), None
#     Edge 68, Type (0, 1), None
#     Edge 69, Type (0, 1), None
#     Edge 70, Type (0, 1), None
#     Edge 71, Type (0, 1), None
#     Edge 72, Type (0, 1), None
#     Edge 73, Type (0, 1), None
#     Edge 74, Type (0, 1), None
#     Edge 75, Type (0, 1), None
#     Edge 76, Type (0, 1), None
#     Edge 77, Type (0, 1), None
#     Edge 78, Type (0, 1), None
#     Edge 79, Type (0, 1), None
#     Edge 80, Type (0, 1), None
# Relax obj value: 0.005
# Max RMSD: 0.132
# Mean RMSD: 0.105
data_MOF--net-eea--node1-KUMJIN_clean_sbu_0--node2-BELTOD_clean_linker_0--edge1-none
_symmetry_space_group_name_H-M    P1
_symmetry_Int_Tables_number       1
_symmetry_cell_setting            triclinic
loop_
_symmetry_equiv_pos_as_xyz
'x, y, z'
_cell_length_a     29.049393
_cell_length_b     30.096389
_cell_length_c     48.140977
_cell_angle_alpha  90.038386
_cell_angle_beta   90.107248
_cell_angle_gamma 119.95966
loop_
_atom_site_label
_atom_site_type_symbol
_atom_site_fract_x
_atom_site_fract_y
_atom_site_fract_z
_atom_type_partial_charge
P0 P 0.31202 0.13988 0.39984 0.0
H1 H 0.27513 0.09006 0.34659 0.0
H2 H 0.22069 0.00071 0.33296 0.0
H3 H 0.19765 0.95551 0.41911 0.0
H4 H 0.25142 0.04556 0.43286 0.0
H5 H 0.34981 0.24895 0.40133 0.0
H6 H 0.30985 0.30004 0.38736 0.0
H7 H 0.16283 0.1615 0.36815 0.0
H8 H 0.20235 0.11052 0.38291 0.0
H9 H 0.3742 0.10115 0.42644 0.0
H10 H 0.30113 0.18964 0.45049 0.0
O11 O 0.36489 0.16266 0.37907 0.0
H12 H 0.40741 0.10703 0.47365 0.0
H13 H 0.33633 0.19794 0.49749 0.0
C14 C 0.26858 0.07409 0.39063 0.0
C15 C 0.25771 0.06095 0.36255 0.0
C16 C 0.2256 0.00989 0.35476 0.0
C17 C 0.20434 0.97121 0.37492 0.0
C18 C 0.21333 0.98477 0.40316 0.0
C19 C 0.24469 0.03607 0.411 0.0
C20 C 0.27937 0.17609 0.39308 0.0
C21 C 0.30874 0.2296 0.39454 0.0
C22 C 0.28581 0.2587 0.38651 0.0
C23 C 0.23333 0.23467 0.37646 0.0
C24 C 0.20356 0.18096 0.3755 0.0
C25 C 0.22627 0.15183 0.38402 0.0
C26 C 0.33559 0.14522 0.43494 0.0
C27 C 0.36575 0.12227 0.4419 0.0
C28 C 0.38504 0.12602 0.46887 0.0
C29 C 0.37499 0.15334 0.48942 0.0
C30 C 0.34439 0.17613 0.48232 0.0
C31 C 0.3246 0.17185 0.45533 0.0
P32 P 0.91894 0.10183 0.42201 0.0
H33 H 0.91717 0.02383 0.38579 0.0
H34 H 0.8454 0.95341 0.36013 0.0
H35 H 0.74182 0.01404 0.37863 0.0
H36 H 0.81486 0.08593 0.40352 0.0
H37 H 0.01952 0.12608 0.39707 0.0
H38 H 0.09042 0.20341 0.37624 0.0
H39 H 0.99678 0.27767 0.38471 0.0
H40 H 0.92495 0.19913 0.40587 0.0
H41 H 0.81774 0.03999 0.45037 0.0
H42 H 0.95438 0.19157 0.45871 0.0
O43 O 0.94922 0.07239 0.43594 0.0
H44 H 0.77526 0.05714 0.48941 0.0
H45 H 0.9124 0.20786 0.49873 0.0
C46 C 0.87042 0.05854 0.39758 0.0
C47 C 0.87944 0.02267 0.38381 0.0
C48 C 0.83846 0.98265 0.36896 0.0
C49 C 0.78785 0.97793 0.36788 0.0
C50 C 0.7803 0.01651 0.37961 0.0
C51 C 0.82187 0.05734 0.39388 0.0
C52 C 0.96784 0.15759 0.40384 0.0
C53 C 0.0139 0.15877 0.3943 0.0
C54 C 0.05429 0.20294 0.38203 0.0
C55 C 0.04891 0.24645 0.37853 0.0
C56 C 1.00166 0.24445 0.38702 0.0
C57 C 0.96091 0.19989 0.39921 0.0
C58 C 0.88784 0.1157 0.45045 0.0
C59 C 0.83812 0.07742 0.4601 0.0
C60 C 0.81405 0.08692 0.48256 0.0
C61 C 0.84036 0.13405 0.49651 0.0
C62 C 0.89124 0.17154 0.48786 0.0
C63 C 0.91491 0.16237 0.46493 0.0
P64 P 0.85203 0.71068 0.40062 0.0
H65 H 0.74315 0.6765 0.38492 0.0
H66 H 0.69303 0.71938 0.37449 0.0
H67 H 0.83282 0.86599 0.38918 0.0
H68 H 0.88326 0.8225 0.40107 0.0
H69 H 0.91432 0.6616 0.40485 0.0
H70 H 0.00328 0.68297 0.39118 0.0
H71 H 0.03455 0.83173 0.36328 0.0
H72 H 0.94278 0.80857 0.37571 0.0
H73 H 0.75264 0.6405 0.42782 0.0
H74 H 0.91682 0.73181 0.45235 0.0
O75 O 0.82049 0.65743 0.38145 0.0
H76 H 0.72973 0.6035 0.47403 0.0
H77 H 0.8942 0.69331 0.49897 0.0
C78 C 0.81814 0.74618 0.39241 0.0
C79 C 0.76374 0.71796 0.38569 0.0
C80 C 0.73492 0.74246 0.37941 0.0
C81 C 0.75977 0.79603 0.37939 0.0
C82 C 0.81338 0.82458 0.38782 0.0
C83 C 0.84235 0.7998 0.39443 0.0
C84 C 0.92159 0.73365 0.39208 0.0
C85 C 0.94001 0.699 0.39585 0.0
C86 C 0.99111 0.71121 0.38778 0.0
C87 C 0.02631 0.75898 0.3759 0.0
C88 C 0.00831 0.79431 0.37205 0.0
C89 C 0.95597 0.78138 0.37966 0.0
C90 C 0.83656 0.68862 0.43632 0.0
C91 C 0.78388 0.65297 0.44321 0.0
C92 C 0.77083 0.63138 0.46973 0.0
C93 C 0.81019 0.64458 0.49023 0.0
C94 C 0.86282 0.6822 0.48375 0.0
C95 C 0.87588 0.70405 0.45701 0.0
P96 P 0.14794 0.28946 0.63165 0.0
H97 H 0.08849 0.33872 0.64873 0.0
H98 H 0.99728 0.30847 0.66236 0.0
H99 H 0.96451 0.15223 0.65942 0.0
H100 H 0.05759 0.18301 0.64523 0.0
H101 H 0.24778 0.33065 0.66304 0.0
H102 H 0.30926 0.29959 0.67221 0.0
H103 H 0.2021 0.15623 0.63237 0.0
H104 H 0.13986 0.18774 0.62257 0.0
H105 H 0.09726 0.32977 0.59488 0.0
H106 H 0.20657 0.27309 0.58567 0.0
O107 O 0.18075 0.34959 0.64361 0.0
H108 H 0.11614 0.36224 0.54728 0.0
H109 H 0.22423 0.30444 0.53774 0.0
C110 C 0.08079 0.26345 0.64586 0.0
C111 C 0.06259 0.29789 0.65152 0.0
C112 C 0.01009 0.28056 0.6595 0.0
C113 C 0.97363 0.22805 0.66243 0.0
C114 C 0.9919 0.19307 0.65797 0.0
C115 C 0.04506 0.21065 0.64958 0.0
C116 C 0.18799 0.26121 0.64256 0.0
C117 C 0.23631 0.29203 0.65664 0.0
C118 C 0.27182 0.27433 0.66199 0.0
C119 C 0.25951 0.22481 0.65406 0.0
C120 C 0.21148 0.19383 0.63977 0.0
C121 C 0.17587 0.21177 0.63418 0.0
C122 C 0.14958 0.29797 0.5941 0.0
C123 C 0.12363 0.32232 0.5824 0.0
C124 C 0.13458 0.34112 0.55513 0.0
C125 C 0.17138 0.33557 0.5387 0.0
C126 C 0.19505 0.30853 0.54974 0.0
C127 C 0.18474 0.29044 0.57727 0.0
P128 P 0.81229 0.89875 0.59137 0.0
H129 H 0.89903 0.98441 0.62115 0.0
H130 H 0.90258 0.05065 0.65215 0.0
H131 H 0.73425 0.98983 0.64013 0.0
H132 H 0.73035 0.92239 0.61034 0.0
H133 H 0.75846 0.78596 0.58546 0.0
H134 H 0.76193 0.71977 0.61308 0.0
H135 H 0.86823 0.83575 0.67102 0.0
H136 H 0.86273 0.90067 0.64427 0.0
H137 H 0.81066 0.92094 0.53228 0.0
H138 H 0.6966 0.82843 0.59466 0.0
O139 O 0.86971 0.92344 0.57421 0.0
H140 H 0.73971 0.89165 0.4977 0.0
H141 H 0.62519 0.79857 0.56004 0.0
C142 C 0.81452 0.94869 0.61312 0.0
C143 C 0.86276 0.98506 0.62538 0.0
C144 C 0.86474 0.0226 0.64328 0.0
C145 C 0.81868 0.02519 0.64859 0.0
C146 C 0.77038 0.98863 0.6364 0.0
C147 C 0.76818 0.95024 0.61915 0.0
C148 C 0.80888 0.84839 0.61314 0.0
C149 C 0.78105 0.79693 0.6046 0.0
C150 C 0.78343 0.75904 0.62039 0.0
C151 C 0.81494 0.77219 0.64457 0.0
C152 C 0.84268 0.8238 0.65294 0.0
C153 C 0.83957 0.86133 0.63746 0.0
C154 C 0.75911 0.87629 0.56601 0.0
C155 C 0.77038 0.89396 0.53853 0.0
C156 C 0.72974 0.87701 0.5187 0.0
C157 C 0.67676 0.84242 0.52601 0.0
C158 C 0.6655 0.82539 0.55372 0.0
C159 C 0.7063 0.84219 0.57351 0.0
P160 P 0.15107 0.84377 0.6343 0.0
H161 H 0.17663 0.89248 0.68869 0.0
H162 H 0.21829 0.98247 0.70309 0.0
H163 H 0.21048 0.02542 0.61827 0.0
H164 H 0.16851 0.93568 0.60422 0.0
H165 H 0.09713 0.73578 0.64752 0.0
H166 H 0.0051 0.67364 0.65887 0.0
H167 H 0.96366 0.79253 0.65368 0.0
H168 H 0.05668 0.85535 0.64239 0.0
H169 H 0.24863 0.8884 0.60266 0.0
H170 H 0.08135 0.79354 0.58531 0.0
O171 O 0.18963 0.82636 0.65134 0.0
H172 H 0.26931 0.87797 0.55474 0.0
H173 H 0.10201 0.78296 0.53702 0.0
C174 C 0.17101 0.90787 0.64531 0.0
C175 C 0.18287 0.9213 0.67338 0.0
C176 C 0.20635 0.97264 0.68161 0.0
C177 C 0.21845 0.01104 0.66173 0.0
C178 C 0.20231 -0.00329 0.63401 0.0
C179 C 0.17851 0.94542 0.62589 0.0
C180 C 0.08368 0.80007 0.64428 0.0
C181 C 0.06862 0.74883 0.64933 0.0
C182 C 0.01623 0.7135 0.65601 0.0
C183 C 0.97799 0.72881 0.65788 0.0
C184 C 0.99301 0.78036 0.65323 0.0
C185 C 0.0458 0.81593 0.64645 0.0
C186 C 0.16359 0.84116 0.5977 0.0
C187 C 0.21628 0.86588 0.58841 0.0
C188 C 0.22805 0.85996 0.56101 0.0
C189 C 0.18729 0.82935 0.54217 0.0
C190 C 0.13418 0.80699 0.55103 0.0
C191 C 0.1224 0.81272 0.57867 0.0
P192 P 0.97869 0.47322 0.73317 0.0
H193 H 0.9418 0.42339 0.67992 0.0
H194 H 0.88736 0.33404 0.66629 0.0
H195 H 0.86432 0.28885 0.75245 0.0
H196 H 0.91809 0.37889 0.7662 0.0
H197 H 0.01648 0.58229 0.73467 0.0
H198 H 0.97652 0.63337 0.72069 0.0
H199 H 0.8295 0.49483 0.70148 0.0
H200 H 0.86902 0.44385 0.71624 0.0
H201 H 0.04087 0.43449 0.75978 0.0
H202 H 0.96779 0.52298 0.78383 0.0
O203 O 0.03156 0.496 0.71241 0.0
H204 H 0.07408 0.44037 0.80699 0.0
H205 H 1.00299 0.53127 0.83082 0.0
C206 C 0.93525 0.40743 0.72397 0.0
C207 C 0.92438 0.39428 0.69589 0.0
C208 C 0.89227 0.34323 0.68809 0.0
C209 C 0.87101 0.30454 0.70825 0.0
C210 C 0.88 0.31811 0.73649 0.0
C211 C 0.91136 0.36941 0.74433 0.0
C212 C 0.94604 0.50943 0.72641 0.0
C213 C 0.97541 0.56294 0.72787 0.0
C214 C 0.95248 0.59203 0.71984 0.0
C215 C 0.9 0.568 0.70979 0.0
C216 C 0.87023 0.51429 0.70883 0.0
C217 C 0.89294 0.48517 0.71735 0.0
C218 C 1.00225 0.47856 0.76828 0.0
C219 C 0.03242 0.45561 0.77523 0.0
C220 C 0.05171 0.45935 0.80221 0.0
C221 C 0.04166 0.48667 0.82276 0.0
C222 C 0.01106 0.50947 0.81566 0.0
C223 C 0.99127 0.50518 0.78866 0.0
P224 P 0.58561 0.43516 0.75534 0.0
H225 H 0.58384 0.35716 0.71912 0.0
H226 H 0.51207 0.28674 0.69346 0.0
H227 H 0.40849 0.34737 0.71197 0.0
H228 H 0.48153 0.41926 0.73685 0.0
H229 H 0.68619 0.45942 0.7304 0.0
H230 H 0.75709 0.53674 0.70957 0.0
H231 H 0.66344 0.611 0.71804 0.0
H232 H 0.59162 0.53246 0.73921 0.0
H233 H 0.48441 0.37332 0.78371 0.0
H234 H 0.62104 0.5249 0.79205 0.0
O235 O 0.61589 0.40572 0.76927 0.0
H236 H 0.44193 0.39047 0.82274 0.0
H237 H 0.57907 0.54119 0.83207 0.0
C238 C 0.53708 0.39187 0.73092 0.0
C239 C 0.5461 0.356 0.71714 0.0
C240 C 0.50513 0.31598 0.7023 0.0
C241 C 0.45452 0.31127 0.70122 0.0
C242 C 0.44697 0.34985 0.71294 0.0
C243 C 0.48854 0.39068 0.72721 0.0
C244 C 0.63451 0.49093 0.73717 0.0
C245 C 0.68056 0.4921 0.72763 0.0
C246 C 0.72096 0.53628 0.71536 0.0
C247 C 0.71557 0.57978 0.71186 0.0
C248 C 0.66833 0.57778 0.72035 0.0
C249 C 0.62758 0.53322 0.73255 0.0
C250 C 0.55451 0.44903 0.78379 0.0
C251 C 0.50479 0.41076 0.79343 0.0
C252 C 0.48072 0.42025 0.8159 0.0
C253 C 0.50702 0.46738 0.82984 0.0
C254 C 0.55791 0.50488 0.82119 0.0
C255 C 0.58158 0.49571 0.79826 0.0
P256 P 0.5187 0.04402 0.73395 0.0
H257 H 0.40982 0.00983 0.71825 0.0
H258 H 0.35969 0.05271 0.70782 0.0
H259 H 0.49949 0.19933 0.72251 0.0
H260 H 0.54993 0.15584 0.7344 0.0
H261 H 0.58099 0.99494 0.73818 0.0
H262 H 0.66995 0.0163 0.72452 0.0
H263 H 0.70122 0.16507 0.69662 0.0
H264 H 0.60944 0.14191 0.70904 0.0
H265 H 0.41931 0.97383 0.76115 0.0
H266 H 0.58349 0.06515 0.78568 0.0
O267 O 0.48716 0.99077 0.71478 0.0
H268 H 0.3964 0.93683 0.80736 0.0
H269 H 0.56087 0.02664 0.8323 0.0
C270 C 0.4848 0.07951 0.72574 0.0
C271 C 0.43041 0.05129 0.71903 0.0
C272 C 0.40159 0.07579 0.71274 0.0
C273 C 0.42644 0.12936 0.71272 0.0
C274 C 0.48004 0.15791 0.72116 0.0
C275 C 0.50902 0.13314 0.72776 0.0
C276 C 0.58826 0.06699 0.72542 0.0
C277 C 0.60667 0.03233 0.72918 0.0
C278 C 0.65778 0.04454 0.72112 0.0
C279 C 0.69298 0.09231 0.70924 0.0
C280 C 0.67498 0.12764 0.70539 0.0
C281 C 0.62264 0.11472 0.71299 0.0
C282 C 0.50323 0.02195 0.76966 0.0
C283 C 0.45055 0.98631 0.77654 0.0
C284 C 0.4375 0.96471 0.80306 0.0
C285 C 0.47686 0.97791 0.82356 0.0
C286 C 0.52949 0.01553 0.81708 0.0
C287 C 0.54255 0.03739 0.79034 0.0
P288 P 0.8146 0.62279 0.96498 0.0
H289 H 0.75516 0.67205 0.98206 0.0
H290 H 0.66394 0.6418 0.99569 0.0
H291 H 0.63117 0.48556 0.99276 0.0
H292 H 0.72425 0.51634 0.97857 0.0
H293 H 0.91445 0.66398 0.99637 0.0
H294 H 0.97592 0.63292 1.00554 0.0
H295 H 0.86877 0.48956 0.9657 0.0
H296 H 0.80652 0.52107 0.95591 0.0
H297 H 0.76392 0.66309 0.92821 0.0
H298 H 0.87324 0.60642 0.919 0.0
O299 O 0.84742 0.68292 0.97694 0.0
H300 H 0.78279 0.69557 0.88061 0.0
H301 H 0.8909 0.63778 0.87107 0.0
C302 C 0.74745 0.59678 0.97919 0.0
C303 C 0.72926 0.63122 0.98485 0.0
C304 C 0.67675 0.61389 0.99283 0.0
C305 C 0.64029 0.56138 0.99576 0.0
C306 C 0.65857 0.5264 0.9913 0.0
C307 C 0.71172 0.54398 0.98291 0.0
C308 C 0.85465 0.59454 0.97589 0.0
C309 C 0.90298 0.62536 0.98998 0.0
C310 C 0.93848 0.60766 0.99532 0.0
C311 C 0.92618 0.55814 0.9874 0.0
C312 C 0.87815 0.52717 0.9731 0.0
C313 C 0.84253 0.5451 0.96752 0.0
C314 C 0.81624 0.6313 0.92743 0.0
C315 C 0.79028 0.65564 0.91574 0.0
C316 C 0.80124 0.67445 0.88846 0.0
C317 C 0.83804 0.6689 0.87203 0.0
C318 C 0.86171 0.64186 0.88307 0.0
C319 C 0.8514 0.62377 0.9106 0.0
P320 P 0.47895 0.23209 0.9247 0.0
H321 H 0.56569 0.31775 0.95449 0.0
H322 H 0.56924 0.38398 0.98549 0.0
H323 H 0.40092 0.32316 0.97346 0.0
H324 H 0.39701 0.25572 0.94368 0.0
H325 H 0.42512 0.1193 0.91879 0.0
H326 H 0.42859 0.0531 0.94642 0.0
H327 H 0.53491 0.16909 1.00434 0.0
H328 H 0.52941 0.23401 0.97759 0.0
H329 H 0.47732 0.25428 0.86561 0.0
H330 H 0.36327 0.16176 0.92799 0.0
O331 O 0.53638 0.25678 0.90754 0.0
H332 H 0.40637 0.22498 0.83104 0.0
H333 H 0.29186 0.1319 0.89338 0.0
C334 C 0.48119 0.28202 0.94645 0.0
C335 C 0.52943 0.31839 0.95871 0.0
C336 C 0.53141 0.35593 0.97662 0.0
C337 C 0.48535 0.35852 0.98192 0.0
C338 C 0.43705 0.32195 0.96974 0.0
C339 C 0.43485 0.28358 0.95248 0.0
C340 C 0.47555 0.18172 0.94647 0.0
C341 C 0.44772 0.13027 0.93794 0.0
C342 C 0.4501 0.09237 0.95372 0.0
C343 C 0.48162 0.10553 0.9779 0.0
C344 C 0.50936 0.15714 0.98627 0.0
C345 C 0.50625 0.19466 0.97079 0.0
C346 C 0.42578 0.20963 0.89934 0.0
C347 C 0.43704 0.2273 0.87186 0.0
C348 C 0.3964 0.21035 0.85203 0.0
C349 C 0.34343 0.17576 0.85934 0.0
C350 C 0.33217 0.15872 0.88705 0.0
C351 C 0.37297 0.17553 0.90684 0.0
P352 P 0.81774 0.1771 0.96763 0.0
H353 H 0.8433 0.22581 0.02202 0.0
H354 H 0.88496 0.3158 0.03642 0.0
H355 H 0.87715 0.35876 0.9516 0.0
H356 H 0.83518 0.26901 0.93756 0.0
H357 H 0.7638 0.06911 0.98086 0.0
H358 H 0.67177 0.00697 0.9922 0.0
H359 H 0.63033 0.12587 0.98701 0.0
H360 H 0.72335 0.18869 0.97572 0.0
H361 H 0.9153 0.22173 0.93599 0.0
H362 H 0.74802 0.12687 0.91865 0.0
O363 O 0.8563 0.15969 0.98467 0.0
H364 H 0.93598 0.21131 0.88807 0.0
H365 H 0.76868 0.1163 0.87035 0.0
C366 C 0.83768 0.2412 0.97865 0.0
C367 C 0.84954 0.25464 1.00671 0.0
C368 C 0.87302 0.30597 0.01494 0.0
C369 C 0.88512 0.34437 0.99506 0.0
C370 C 0.86898 0.33004 0.96734 0.0
C371 C 0.84518 0.27876 0.95922 0.0
C372 C 0.75035 0.1334 0.97762 0.0
C373 C 0.73529 0.08217 0.98266 0.0
C374 C 0.6829 0.04683 0.98934 0.0
C375 C 0.64466 0.06215 0.99121 0.0
C376 C 0.65968 0.11369 0.98656 0.0
C377 C 0.71247 0.14926 0.97978 0.0
C378 C 0.83026 0.17449 0.93103 0.0
C379 C 0.88295 0.19921 0.92174 0.0
C380 C 0.89472 0.19329 0.89434 0.0
C381 C 0.85396 0.16269 0.87551 0.0
C382 C 0.80085 0.14033 0.88436 0.0
C383 C 0.78907 0.14606 0.91201 0.0
P384 P 0.64535 0.80655 0.06651 0.0
H385 H 0.60846 0.75672 0.01326 0.0
H386 H 0.55402 0.66737 0.99963 0.0
H387 H 0.53098 0.62218 0.08578 0.0
H388 H 0.58476 0.71222 0.09953 0.0
H389 H 0.68314 0.91562 0.068 0.0
H390 H 0.64318 0.96671 0.05403 0.0
H391 H 0.49616 0.82816 0.03481 0.0
H392 H 0.53568 0.77718 0.04958 0.0
H393 H 0.70753 0.76782 0.09311 0.0
H394 H 0.63446 0.85631 0.11716 0.0
O395 O 0.69822 0.82932 0.04574 0.0
H396 H 0.74074 0.77369 0.14032 0.0
H397 H 0.66965 0.8646 0.16416 0.0
C398 C 0.60191 0.74076 0.0573 0.0
C399 C 0.59104 0.72761 0.02922 0.0
C400 C 0.55893 0.67656 0.02143 0.0
C401 C 0.53767 0.63787 0.04159 0.0
C402 C 0.54666 0.65144 0.06983 0.0
C403 C 0.57802 0.70273 0.07767 0.0
C404 C 0.6127 0.84276 0.05975 0.0
C405 C 0.64207 0.89627 0.06121 0.0
C406 C 0.61914 0.92537 0.05318 0.0
C407 C 0.56666 0.90133 0.04312 0.0
C408 C 0.5369 0.84763 0.04216 0.0
C409 C 0.5596 0.8185 0.05069 0.0
C410 C 0.66892 0.81189 0.10161 0.0
C411 C 0.69908 0.78894 0.10857 0.0
C412 C 0.71837 0.79268 0.13554 0.0
C413 C 0.70832 0.82 0.15609 0.0
C414 C 0.67772 0.8428 0.14899 0.0
C415 C 0.65793 0.83851 0.122 0.0
P416 P 0.25228 0.7685 0.08867 0.0
H417 H 0.25051 0.6905 0.05245 0.0
H418 H 0.17874 0.62008 0.02679 0.0
H419 H 0.07515 0.6807 0.0453 0.0
H420 H 0.1482 0.7526 0.07019 0.0
H421 H 0.35286 0.79275 0.06373 0.0
H422 H 0.42375 0.87008 0.0429 0.0
H423 H 0.33011 0.94433 0.05137 0.0
H424 H 0.25828 0.8658 0.07253 0.0
H425 H 0.15108 0.70666 0.11704 0.0
H426 H 0.28771 0.85824 0.12538 0.0
O427 O 0.28256 0.73906 0.1026 0.0
H428 H 0.10861 0.72381 0.15608 0.0
H429 H 0.24574 0.87454 0.1654 0.0
C430 C 0.20375 0.72521 0.06425 0.0
C431 C 0.21277 0.68934 0.05047 0.0
C432 C 0.1718 0.64932 0.03563 0.0
C433 C 0.12119 0.6446 0.03455 0.0
C434 C 0.11363 0.68318 0.04627 0.0
C435 C 0.15521 0.72401 0.06055 0.0
C436 C 0.30118 0.82426 0.0705 0.0
C437 C 0.34723 0.82544 0.06096 0.0
C438 C 0.38763 0.86961 0.0487 0.0
C439 C 0.38224 0.91312 0.04519 0.0
C440 C 0.33499 0.91112 0.05368 0.0
C441 C 0.29425 0.86655 0.06588 0.0
C442 C 0.22118 0.78237 0.11712 0.0
C443 C 0.17146 0.7441 0.12677 0.0
C444 C 0.14739 0.75359 0.14923 0.0
C445 C 0.1737 0.80073 0.16317 0.0
C446 C 0.22458 0.83822 0.15452 0.0
C447 C 0.24825 0.82905 0.13159 0.0
P448 P 0.18537 0.37735 0.06729 0.0
H449 H 0.07649 0.34316 0.05158 0.0
H450 H 0.02636 0.38605 0.04115 0.0
H451 H 0.16616 0.53266 0.05584 0.0
H452 H 0.21659 0.48917 0.06774 0.0
H453 H 0.24766 0.32827 0.07151 0.0
H454 H 0.33661 0.34963 0.05785 0.0
H455 H 0.36788 0.4984 0.02995 0.0
H456 H 0.27611 0.47524 0.04238 0.0
H457 H 0.08597 0.30719 0.09449 0.0
H458 H 0.25016 0.39846 0.11901 0.0
O459 O 0.15382 0.3241 0.04812 0.0
H460 H 0.06306 0.27019 0.1407 0.0
H461 H 0.22753 0.35996 0.16563 0.0
C462 C 0.15147 0.41284 0.05907 0.0
C463 C 0.09708 0.38462 0.05236 0.0
C464 C 0.06826 0.40913 0.04608 0.0
C465 C 0.09311 0.4627 0.04605 0.0
C466 C 0.14671 0.49125 0.05449 0.0
C467 C 0.17568 0.46647 0.0611 0.0
C468 C 0.25492 0.40032 0.05875 0.0
C469 C 0.27334 0.36566 0.06251 0.0
C470 C 0.32444 0.37787 0.05445 0.0
C471 C 0.35965 0.42564 0.04257 0.0
C472 C 0.34164 0.46097 0.03872 0.0
C473 C 0.2893 0.44805 0.04633 0.0
C474 C 0.16989 0.35529 0.10299 0.0
C475 C 0.11721 0.31966 0.10988 0.0
C476 C 0.10416 0.29806 0.1364 0.0
C477 C 0.14352 0.31125 0.1569 0.0
C478 C 0.19615 0.34886 0.15041 0.0
C479 C 0.20922 0.37071 0.12367 0.0
P480 P 0.48127 0.95612 0.29831 0.0
H481 H 0.42182 0.00538 0.31539 0.0
H482 H 0.33061 0.97514 0.32903 0.0
H483 H 0.29784 0.8189 0.32609 0.0
H484 H 0.39092 0.84968 0.3119 0.0
H485 H 0.58111 -0.00269 0.3297 0.0
H486 H 0.64259 0.96625 0.33887 0.0
H487 H 0.53543 0.82289 0.29904 0.0
H488 H 0.47319 0.8544 0.28924 0.0
H489 H 0.43058 -0.00357 0.26154 0.0
H490 H 0.5399 0.93976 0.25234 0.0
O491 O 0.51408 0.01626 0.31027 0.0
H492 H 0.44946 0.0289 0.21394 0.0
H493 H 0.55757 0.97111 0.20441 0.0
C494 C 0.41412 0.93011 0.31253 0.0
C495 C 0.39592 0.96456 0.31818 0.0
C496 C 0.34342 0.94722 0.32617 0.0
C497 C 0.30696 0.89472 0.32909 0.0
C498 C 0.32523 0.85974 0.32463 0.0
C499 C 0.37839 0.87731 0.31624 0.0
C500 C 0.52132 0.92787 0.30923 0.0
C501 C 0.56964 0.95869 0.32331 0.0
C502 C 0.60515 0.94099 0.32865 0.0
C503 C 0.59284 0.89147 0.32073 0.0
C504 C 0.54481 0.8605 0.30644 0.0
C505 C 0.5092 0.87844 0.30085 0.0
C506 C 0.48291 0.96463 0.26077 0.0
C507 C 0.45695 0.98898 0.24907 0.0
C508 C 0.46791 0.00778 0.22179 0.0
C509 C 0.50471 0.00223 0.20537 0.0
C510 C 0.52838 0.9752 0.21641 0.0
C511 C 0.51807 0.95711 0.24393 0.0
P512 P 0.14562 0.56542 0.25803 0.0
H513 H 0.23236 0.65108 0.28782 0.0
H514 H 0.23591 0.71732 0.31882 0.0
H515 H 0.06759 0.6565 0.30679 0.0
H516 H 0.06368 0.58906 0.27701 0.0
H517 H 0.09179 0.45263 0.25213 0.0
H518 H 0.09526 0.38644 0.27975 0.0
H519 H 0.20157 0.50242 0.33768 0.0
H520 H 0.19608 0.56734 0.31093 0.0
H521 H 0.14399 0.58761 0.19894 0.0
H522 H 0.02994 0.49509 0.26133 0.0
O523 O 0.20304 0.59011 0.24088 0.0
H524 H 0.07304 0.55831 0.16437 0.0
H525 H 0.95853 0.46524 0.22671 0.0
C526 C 0.14785 0.61536 0.27978 0.0
C527 C 0.19609 0.65172 0.29204 0.0
C528 C 0.19807 0.68927 0.30995 0.0
C529 C 0.15201 0.69185 0.31525 0.0
C530 C 0.10372 0.65529 0.30307 0.0
C531 C 0.10152 0.61691 0.28581 0.0
C532 C 0.14221 0.51506 0.27981 0.0
C533 C 0.11439 0.4636 0.27127 0.0
C534 C 0.11676 0.42571 0.28706 0.0
C535 C 0.14828 0.43886 0.31124 0.0
C536 C 0.17602 0.49047 0.3196 0.0
C537 C 0.17291 0.528 0.30412 0.0
C538 C 0.09245 0.54296 0.23268 0.0
C539 C 0.10371 0.56063 0.20519 0.0
C540 C 0.06307 0.54368 0.18536 0.0
C541 C 0.0101 0.50909 0.19268 0.0
C542 C 0.99883 0.49205 0.22039 0.0
C543 C 0.03963 0.50886 0.24018 0.0
P544 P 0.4844 0.51043 0.30096 0.0
H545 H 0.50996 0.55914 0.35536 0.0
H546 H 0.55163 0.64914 0.36976 0.0
H547 H 0.54381 0.69209 0.28494 0.0
H548 H 0.50185 0.60234 0.27089 0.0
H549 H 0.43047 0.40244 0.31419 0.0
H550 H 0.33844 0.34031 0.32554 0.0
H551 H 0.297 0.4592 0.32035 0.0
H552 H 0.39001 0.52202 0.30906 0.0
H553 H 0.58196 0.55507 0.26933 0.0
H554 H 0.41468 0.46021 0.25198 0.0
O555 O 0.52297 0.49303 0.31801 0.0
H556 H 0.60264 0.54464 0.22141 0.0
H557 H 0.43534 0.44963 0.20369 0.0
C558 C 0.50435 0.57453 0.31198 0.0
C559 C 0.51621 0.58797 0.34005 0.0
C560 C 0.53968 0.6393 0.34827 0.0
C561 C 0.55178 0.6777 0.3284 0.0
C562 C 0.53564 0.66337 0.30067 0.0
C563 C 0.51184 0.61209 0.29256 0.0
C564 C 0.41701 0.46674 0.31095 0.0
C565 C 0.40196 0.4155 0.316 0.0
C566 C 0.34956 0.38016 0.32268 0.0
C567 C 0.31132 0.39548 0.32455 0.0
C568 C 0.32634 0.44702 0.31989 0.0
C569 C 0.37914 0.4826 0.31311 0.0
C570 C 0.49692 0.50783 0.26436 0.0
C571 C 0.54961 0.53255 0.25508 0.0
C572 C 0.56138 0.52663 0.22767 0.0
C573 C 0.52062 0.49602 0.20884 0.0
C574 C 0.46751 0.47366 0.2177 0.0
C575 C 0.45573 0.47939 0.24534 0.0
Eu576 Eu 0.484 0.95514 0.98207 0.0
C577 C 0.59066 0.15696 0.05528 0.0
C578 C 0.68566 0.19012 0.05444 0.0
C579 C 0.65147 0.24876 0.05924 0.0
C580 C 0.63311 0.1486 0.05293 0.0
C581 C 0.59931 0.20699 0.05898 0.0
C582 C 0.6946 0.24033 0.05698 0.0
C583 C 0.50435 0.17052 0.06379 0.0
N584 N 0.54078 0.11584 0.05502 0.0
C585 C 0.49781 0.12164 0.06009 0.0
C586 C 0.55526 0.21335 0.06286 0.0
Eu587 Eu 0.53262 0.03465 0.04722 0.0
N588 N 0.62304 0.09963 0.05068 0.0
C589 C 0.66362 0.08918 0.05206 0.0
C590 C 0.72756 0.17979 0.05419 0.0
C591 C 0.71644 0.12901 0.05338 0.0
H592 H 0.4583 0.08875 0.06061 0.0
H593 H 0.7485 0.1205 0.05372 0.0
H594 H 0.73468 0.27276 0.05786 0.0
H595 H 0.47017 0.17515 0.06721 0.0
H596 H 0.65557 0.05019 0.05149 0.0
H597 H 0.27249 0.89464 0.98628 0.0
H598 H 0.76844 0.21059 0.05538 0.0
H599 H 0.53924 0.88435 0.96491 0.0
H600 H 0.36812 0.95596 0.98135 0.0
H601 H 0.51432 0.79272 0.96291 0.0
H602 H 0.65892 0.28758 0.06177 0.0
H603 H 0.24062 0.80181 0.99076 0.0
H604 H 0.26195 0.73043 0.99104 0.0
H605 H 0.56016 0.25099 0.06558 0.0
H606 H 0.32803 0.70265 0.98459 0.0
N607 N 0.39066 0.89867 0.98288 0.0
C608 C 0.35492 0.9156 0.98278 0.0
C609 C 0.28268 0.82856 0.98822 0.0
C610 C 0.31925 0.81128 0.98671 0.0
C611 C 0.30052 0.8809 0.98566 0.0
C612 C 0.37355 0.84775 0.98353 0.0
H613 H 0.42184 0.72537 0.97306 0.0
N614 N 0.46176 0.8685 0.97607 0.0
C615 C 0.48472 0.80329 0.96788 0.0
C616 C 0.41041 0.83215 0.98009 0.0
C617 C 0.49861 0.855 0.96883 0.0
C618 C 0.43251 0.76538 0.97371 0.0
C619 C 0.39439 0.77959 0.97951 0.0
O620 O 0.52108 0.96213 0.94155 0.0
O621 O 0.54985 0.02284 1.00325 0.0
O622 O 0.52389 0.08255 0.01379 0.0
O623 O 0.46183 0.01823 0.98472 0.0
O624 O 0.57101 0.98328 0.97528 0.0
O625 O 0.45608 0.97706 0.94507 0.0
O626 O 0.48829 0.01381 0.08624 0.0
O627 O 0.46953 0.9651 0.02618 0.0
O628 O 0.5067 0.91319 0.01367 0.0
O629 O 0.5644 0.97955 0.04357 0.0
O630 O 0.4434 0.00224 0.05179 0.0
O631 O 0.5659 0.02111 0.08521 0.0
C632 C 0.58868 0.02202 0.99188 0.0
C633 C 0.46812 0.94749 0.90158 0.0
C634 C 0.46274 0.94981 0.85072 0.0
C635 C 0.48338 0.9751 0.87634 0.0
C636 C 0.42745 0.89642 0.851 0.0
C637 C 0.43264 0.89454 0.90114 0.0
C638 C 0.41261 0.86922 0.87596 0.0
C639 C 0.489 0.06671 0.99313 0.0
C640 C 0.48953 0.97391 0.92829 0.0
C641 C 0.34085 0.7431 0.98424 0.0
C642 C 0.3033 0.75893 0.98789 0.0
C643 C 0.42839 0.96214 0.03649 0.0
C644 C 0.53637 0.03717 0.12828 0.0
C645 C 0.51794 0.00754 0.15285 0.0
C646 C 0.52432 0.03167 0.17892 0.0
C647 C 0.54995 0.08548 0.18001 0.0
C648 C 0.56222 0.09078 0.13012 0.0
C649 C 0.56904 0.1147 0.15585 0.0
C650 C 0.54377 0.93247 0.03335 0.0
C651 C 0.52531 0.01217 0.1007 0.0
H652 H 0.5105 0.01614 0.87672 0.0
H653 H 0.41157 0.8754 0.83181 0.0
H654 H 0.42057 0.87279 0.92029 0.0
H655 H 0.38544 0.82824 0.87575 0.0
H656 H 0.49759 0.96605 0.15162 0.0
H657 H 0.55556 0.105 0.19971 0.0
H658 H 0.57648 0.11413 0.1116 0.0
H659 H 0.58882 0.15612 0.15704 0.0
Eu660 Eu 0.03006 0.50065 0.97981 0.0
C661 C 0.89092 0.53784 0.04996 0.0
C662 C 0.93335 0.61652 0.07686 0.0
C663 C 0.84875 0.58977 0.05408 0.0
C664 C 0.93388 0.57374 0.06532 0.0
C665 C 0.847 0.54461 0.04504 0.0
C666 C 0.8914 0.6253 0.07035 0.0
C667 C 0.8025 0.46112 0.0232 0.0
N668 N 0.89161 0.49585 0.04021 0.0
C669 C 0.84772 0.45685 0.02777 0.0
C670 C 0.80272 0.50584 0.03116 0.0
Eu671 Eu 0.97102 0.49402 0.04741 0.0
N672 N 0.9748 0.56528 0.07033 0.0
C673 C 0.01221 0.59334 0.09004 0.0
C674 C 0.97436 0.64843 0.09508 0.0
C675 C 0.01323 0.63601 0.10225 0.0
H676 H 0.84751 0.42264 0.021 0.0
H677 H 0.04406 0.65937 0.11703 0.0
H678 H 0.89111 0.65892 0.07817 0.0
H679 H 0.76807 0.43053 1.01291 0.0
H680 H 0.04251 0.58387 0.09533 0.0
H681 H 0.03147 0.31937 0.98154 0.0
H682 H 0.97533 0.68164 0.10445 0.0
H683 H 0.13328 0.61425 0.95785 0.0
H684 H 0.99153 0.37435 0.97728 0.0
H685 H 0.2316 0.65832 0.95763 0.0
H686 H 0.81711 0.59724 0.04872 0.0
H687 H 0.1283 0.35836 0.98953 0.0
H688 H 0.21643 0.43824 0.99784 0.0
H689 H 0.76835 0.50979 0.02678 0.0
H690 H 0.27107 0.53233 0.99418 0.0
N691 N 0.06472 0.44418 0.9823 0.0
C692 C 0.03371 0.39207 0.98055 0.0
C693 C 0.11097 0.38274 0.98712 0.0
C694 C 0.1426 0.43617 0.98828 0.0
C695 C 0.05633 0.36063 0.98275 0.0
C696 C 0.11822 0.46619 0.98464 0.0
H697 H 0.27767 0.61354 0.97563 0.0
N698 N 0.12435 0.54569 0.97572 0.0
C699 C 0.20885 0.61948 0.96529 0.0
C700 C 0.14887 0.51878 0.98214 0.0
C701 C 0.15328 0.59426 0.96511 0.0
C702 C 0.23468 0.5942 0.97551 0.0
C703 C 0.20465 0.5428 0.98344 0.0
O704 O 0.03818 0.53513 0.93888 0.0
O705 O 0.96285 0.50305 1.00164 0.0
O706 O 0.92774 0.41418 0.0281 0.0
O707 O 0.95006 0.42849 0.98124 0.0
O708 O 0.00762 0.56179 0.97343 0.0
O709 O 0.00503 0.45336 0.94228 0.0
O710 O 0.90841 0.44319 0.07635 0.0
O711 O 0.02237 0.47122 0.02343 0.0
O712 O 0.08522 0.57071 1.00527 0.0
O713 O 0.03068 0.57761 0.03832 0.0
O714 O 0.05321 0.51167 0.06045 0.0
O715 O 0.99042 0.47186 0.08696 0.0
C716 C 0.96736 0.54291 0.98992 0.0
C717 C 0.05294 0.49316 0.90165 0.0
C718 C 0.06307 0.49123 0.8514 0.0
C719 C 0.03292 0.48942 0.8747 0.0
C720 C 0.11381 0.49708 0.85568 0.0
C721 C 0.10316 0.49817 0.90546 0.0
C722 C 0.13348 0.50031 0.88254 0.0
C723 C 0.92155 0.39878 1.00191 0.0
C724 C 0.02105 0.49214 0.9255 0.0
C725 C 0.22849 0.51398 0.99114 0.0
C726 C 0.19753 0.4605 0.99308 0.0
C727 C 0.06127 0.48786 0.04041 0.0
C728 C 0.93345 0.46218 0.12424 0.0
C729 C 0.97389 0.47793 0.14449 0.0
C730 C 0.96681 0.49146 0.17154 0.0
C731 C 0.91829 0.48858 0.17819 0.0
C732 C 0.88541 0.45972 0.13148 0.0
C733 C 0.87803 0.47286 0.15828 0.0
C734 C 0.07583 0.59649 0.02446 0.0
C735 C 0.94183 0.44816 0.09587 0.0
H736 H 0.99354 0.4844 0.87199 0.0
H737 H 0.13858 0.49964 0.83828 0.0
H738 H 0.11895 0.50046 0.92605 0.0
H739 H 0.17244 0.5046 0.8856 0.0
H740 H 0.01081 0.4792 0.13927 0.0
H741 H 0.91172 0.49922 0.19867 0.0
H742 H 0.85351 0.44771 0.11648 0.0
H743 H 0.84093 0.47102 0.16362 0.0
Eu744 Eu 0.52122 0.47765 0.05019 0.0
C745 C 0.39929 0.54247 0.96093 0.0
C746 C 0.31047 0.4696 0.95707 0.0
C747 C 0.32893 0.55273 0.93983 0.0
C748 C 0.36384 0.49136 0.96589 0.0
C749 C 0.38224 0.57384 0.9479 0.0
C750 C 0.29344 0.50044 0.94382 0.0
C751 C 0.47363 0.64184 0.94654 0.0
N752 N 0.4514 0.56024 0.96629 0.0
C753 C 0.48874 0.60834 0.95797 0.0
C754 C 0.41998 0.62464 0.94168 0.0
Eu755 Eu 0.47641 0.50129 0.98313 0.0
N756 N 0.38264 0.46186 0.97674 0.0
C757 C 0.34955 0.41008 0.97936 0.0
C758 C 0.27635 0.41699 0.96061 0.0
C759 C 0.29592 0.3872 0.97203 0.0
H760 H 0.53044 0.62078 0.95997 0.0
H761 H 0.27002 0.3463 0.97456 0.0
H762 H 0.25284 0.48421 0.93655 0.0
H763 H 0.50347 0.68036 0.94071 0.0
H764 H 0.36387 0.38566 0.9871 0.0
H765 H 0.71758 0.64338 0.07007 0.0
H766 H 0.23512 0.39887 0.95415 0.0
H767 H 0.47885 0.35358 0.05908 0.0
H768 H 0.62457 0.59983 0.05569 0.0
H769 H 0.51531 0.2976 0.0714 0.0
H770 H 0.31519 0.57604 0.92958 0.0
H771 H 0.76044 0.59319 0.08249 0.0
H772 H 0.75506 0.50777 0.08632 0.0
H773 H 0.40842 0.65006 0.93195 0.0
H774 H 0.70138 0.41387 0.08448 0.0
N775 N 0.61442 0.5245 0.05761 0.0
C776 C 0.64259 0.57681 0.05985 0.0
C777 C 0.72013 0.57359 0.07463 0.0
C778 C 0.69159 0.52019 0.07204 0.0
C779 C 0.69579 0.60203 0.06808 0.0
C780 C 0.63802 0.4963 0.06332 0.0
H781 H 0.61224 0.33569 0.07958 0.0
N782 N 0.55441 0.42143 0.058 0.0
C783 C 0.54183 0.33832 0.06872 0.0
C784 C 0.60736 0.44323 0.06295 0.0
C785 C 0.52126 0.36999 0.06172 0.0
C786 C 0.5964 0.35985 0.07313 0.0
C787 C 0.62971 0.4129 0.07087 0.0
O788 O 0.48075 0.43888 0.08854 0.0
O789 O 0.45361 0.47922 0.02789 0.0
O790 O 0.48751 0.56731 1.0102 0.0
O791 O 0.53339 0.5581 0.0479 0.0
O792 O 0.43528 0.4148 0.05136 0.0
O793 O 0.53633 0.52033 0.08926 0.0
O794 O 0.52022 0.5262 0.94396 0.0
O795 O 0.54456 0.50391 1.00669 0.0
O796 O 0.52457 0.42512 0.01718 0.0
O797 O 0.45604 0.4187 0.98998 0.0
O798 O 0.56287 0.56466 0.98071 0.0
O799 O 0.45772 0.44769 0.94866 0.0
C800 C 0.41548 0.43766 0.03716 0.0
C801 C 0.52698 0.47409 0.13078 0.0
C802 C 0.53445 0.48261 0.18151 0.0
C803 C 0.51248 0.48729 0.15619 0.0
C804 C 0.5704 0.46417 0.181 0.0
C805 C 0.56233 0.45517 0.13116 0.0
C806 C 0.58399 0.4504 0.15603 0.0
C807 C 0.51608 0.58412 0.03329 0.0
C808 C 0.50536 0.47989 0.10401 0.0
C809 C 0.6836 0.43657 0.07829 0.0
C810 C 0.7142 0.49007 0.07931 0.0
C811 C 0.5827 0.54547 0.99761 0.0
C812 C 0.47309 0.48287 0.90361 0.0
C813 C 0.50035 0.47848 0.88072 0.0
C814 C 0.48124 0.47653 0.85368 0.0
C815 C 0.4353 0.47998 0.84959 0.0
C816 C 0.4273 0.48647 0.89922 0.0
C817 C 0.40874 0.4854 0.87232 0.0
C818 C 0.4883 0.40198 0.99758 0.0
C819 C 0.49202 0.48204 0.93182 0.0
H820 H 0.48491 0.50166 0.15622 0.0
H821 H 0.58744 0.45961 0.20009 0.0
H822 H 0.57304 0.44369 0.1123 0.0
H823 H 0.61129 0.43576 0.15594 0.0
H824 H 0.53539 0.47502 0.88395 0.0
H825 H 0.41992 0.47819 0.82885 0.0
H826 H 0.40549 0.48934 0.91648 0.0
H827 H 0.37327 0.48801 0.86913 0.0
Eu828 Eu 0.15066 0.28847 0.3154 0.0
C829 C 0.25733 0.49029 0.38862 0.0
C830 C 0.35232 0.52345 0.38778 0.0
C831 C 0.31814 0.58209 0.39257 0.0
C832 C 0.29978 0.48193 0.38627 0.0
C833 C 0.26598 0.54032 0.39232 0.0
C834 C 0.36127 0.57366 0.39032 0.0
C835 C 0.17102 0.50385 0.39713 0.0
N836 N 0.20745 0.44917 0.38835 0.0
C837 C 0.16448 0.45497 0.39343 0.0
C838 C 0.22192 0.54668 0.3962 0.0
Eu839 Eu 0.19928 0.36798 0.38055 0.0
N840 N 0.2897 0.43296 0.38402 0.0
C841 C 0.33029 0.42252 0.3854 0.0
C842 C 0.39423 0.51312 0.38752 0.0
C843 C 0.38311 0.46235 0.38672 0.0
H844 H 0.12497 0.42208 0.39395 0.0
H845 H 0.41516 0.45384 0.38705 0.0
H846 H 0.40134 0.60609 0.3912 0.0
H847 H 0.13684 0.50848 0.40055 0.0
H848 H 0.32224 0.38352 0.38482 0.0
H849 H 0.93916 0.22798 0.31962 0.0
H850 H 0.43511 0.54392 0.38871 0.0
H851 H 0.2059 0.21768 0.29825 0.0
H852 H 0.03479 0.2893 0.31469 0.0
H853 H 0.18097 0.12605 0.29625 0.0
H854 H 0.32558 0.62091 0.3951 0.0
H855 H 0.90728 0.13515 0.32409 0.0
H856 H 0.92861 0.06377 0.32437 0.0
H857 H 0.22682 0.58432 0.39892 0.0
H858 H 0.99469 0.03599 0.31793 0.0
N859 N 0.05732 0.232 0.31621 0.0
C860 C 0.02158 0.24894 0.31612 0.0
C861 C 0.94934 0.1619 0.32155 0.0
C862 C 0.98591 0.14462 0.32004 0.0
C863 C 0.96718 0.21424 0.31899 0.0
C864 C 0.04021 0.18108 0.31687 0.0
H865 H 0.08849 0.0587 0.3064 0.0
N866 N 0.12842 0.20183 0.30941 0.0
C867 C 0.15137 0.13662 0.30122 0.0
C868 C 0.07706 0.16548 0.31343 0.0
C869 C 0.16527 0.18833 0.30217 0.0
C870 C 0.09917 0.09871 0.30704 0.0
C871 C 0.06104 0.11292 0.31285 0.0
O872 O 0.18773 0.29545 0.27489 0.0
O873 O 0.21651 0.35617 0.33658 0.0
O874 O 0.19055 0.41589 0.34712 0.0
O875 O 0.1285 0.35156 0.31806 0.0
O876 O 0.23767 0.31661 0.30862 0.0
O877 O 0.12275 0.31041 0.2784 0.0
O878 O 0.15495 0.34714 0.41958 0.0
O879 O 0.1362 0.29843 0.35952 0.0
O880 O 0.17337 0.24652 0.34701 0.0
O881 O 0.23106 0.31288 0.37691 0.0
O882 O 0.11007 0.33557 0.38513 0.0
O883 O 0.23256 0.35444 0.41855 0.0
C884 C 0.25535 0.35535 0.32522 0.0
C885 C 0.13478 0.28082 0.23492 0.0
C886 C 0.12939 0.28314 0.18406 0.0
C887 C 0.15005 0.30844 0.20967 0.0
C888 C 0.0941 0.22976 0.18433 0.0
C889 C 0.09928 0.22788 0.23448 0.0
C890 C 0.07925 0.20256 0.20929 0.0
C891 C 0.15566 0.40004 0.32647 0.0
C892 C 0.1562 0.30725 0.26163 0.0
C893 C 0.0075 0.07644 0.31757 0.0
C894 C 0.96995 0.09226 0.32122 0.0
C895 C 0.09505 0.29547 0.36983 0.0
C896 C 0.20304 0.3705 0.46162 0.0
C897 C 0.18461 0.34087 0.48619 0.0
C898 C 0.19099 0.365 0.51226 0.0
C899 C 0.21662 0.41882 0.51335 0.0
C900 C 0.22889 0.42412 0.46345 0.0
C901 C 0.23571 0.44804 0.48918 0.0
C902 C 0.21044 0.26581 0.36669 0.0
C903 C 0.19198 0.34551 0.43403 0.0
H904 H 0.17717 0.34947 0.21006 0.0
H905 H 0.0782 0.20874 0.16514 0.0
H906 H 0.08721 0.20613 0.25362 0.0
H907 H 0.05207 0.16158 0.20909 0.0
H908 H 0.16426 0.29938 0.48496 0.0
H909 H 0.22223 0.43834 0.53305 0.0
H910 H 0.24315 0.44746 0.44494 0.0
H911 H 0.25549 0.48945 0.49038 0.0
Eu912 Eu 0.69673 0.83399 0.31314 0.0
C913 C 0.55759 0.87118 0.38329 0.0
C914 C 0.60002 0.94986 0.4102 0.0
C915 C 0.51542 0.9231 0.38741 0.0
C916 C 0.60055 0.90707 0.39866 0.0
C917 C 0.51367 0.87795 0.37838 0.0
C918 C 0.55807 0.95864 0.40369 0.0
C919 C 0.46917 0.79446 0.35653 0.0
N920 N 0.55828 0.82919 0.37354 0.0
C921 C 0.51438 0.79018 0.3611 0.0
C922 C 0.46938 0.83918 0.36449 0.0
Eu923 Eu 0.63768 0.82735 0.38075 0.0
N924 N 0.64147 0.89862 0.40366 0.0
C925 C 0.67888 0.92668 0.42338 0.0
C926 C 0.64103 0.98177 0.42842 0.0
C927 C 0.6799 0.96934 0.43558 0.0
H928 H 0.51417 0.75598 0.35433 0.0
H929 H 0.71073 0.99271 0.45036 0.0
H930 H 0.55778 0.99226 0.41151 0.0
H931 H 0.43474 0.76386 0.34624 0.0
H932 H 0.70918 0.9172 0.42866 0.0
H933 H 0.69813 0.6527 0.31488 0.0
H934 H 0.642 0.01497 0.43778 0.0
H935 H 0.79995 0.94758 0.29118 0.0
H936 H 0.65819 0.70768 0.31062 0.0
H937 H 0.89827 0.99165 0.29096 0.0
H938 H 0.48379 0.93058 0.38206 0.0
H939 H 0.79496 0.69169 0.32286 0.0
H940 H 0.88309 0.77157 0.33118 0.0
H941 H 0.43502 0.84313 0.36011 0.0
H942 H 0.93773 0.86566 0.32751 0.0
N943 N 0.73139 0.77751 0.31564 0.0
C944 C 0.70037 0.7254 0.31388 0.0
C945 C 0.77763 0.71607 0.32045 0.0
C946 C 0.80926 0.7695 0.32161 0.0
C947 C 0.72299 0.69396 0.31609 0.0
C948 C 0.78489 0.79952 0.31798 0.0
H949 H 0.94433 0.94687 0.30896 0.0
N950 N 0.79102 0.87902 0.30905 0.0
C951 C 0.87551 0.95281 0.29862 0.0
C952 C 0.81553 0.85211 0.31548 0.0
C953 C 0.81995 0.92759 0.29845 0.0
C954 C 0.90135 0.92753 0.30884 0.0
C955 C 0.87132 0.87613 0.31677 0.0
O956 O 0.70484 0.86846 0.27221 0.0
O957 O 0.62952 0.83638 0.33497 0.0
O958 O 0.5944 0.74751 0.36143 0.0
O959 O 0.61672 0.76182 0.31458 0.0
O960 O 0.67428 0.89512 0.30676 0.0
O961 O 0.67169 0.78669 0.27561 0.0
O962 O 0.57508 0.77653 0.40969 0.0
O963 O 0.68904 0.80456 0.35676 0.0
O964 O 0.75189 0.90404 0.3386 0.0
O965 O 0.69735 0.91094 0.37165 0.0
O966 O 0.71988 0.845 0.39378 0.0
O967 O 0.65709 0.80519 0.42029 0.0
C968 C 0.63403 0.87624 0.32325 0.0
C969 C 0.7196 0.82649 0.23498 0.0
C970 C 0.72973 0.82456 0.18473 0.0
C971 C 0.69958 0.82275 0.20803 0.0
C972 C 0.78047 0.83041 0.18901 0.0
C973 C 0.76983 0.8315 0.23879 0.0
C974 C 0.80015 0.83364 0.21587 0.0
C975 C 0.58821 0.73212 0.33524 0.0
C976 C 0.68771 0.82547 0.25884 0.0
C977 C 0.89515 0.84731 0.32448 0.0
C978 C 0.8642 0.79383 0.32641 0.0
C979 C 0.72793 0.82119 0.37374 0.0
C980 C 0.60012 0.79551 0.45757 0.0
C981 C 0.64056 0.81127 0.47782 0.0
C982 C 0.63347 0.8248 0.50487 0.0
C983 C 0.58495 0.82192 0.51152 0.0
C984 C 0.55207 0.79306 0.46482 0.0
C985 C 0.54469 0.8062 0.49161 0.0
C986 C 0.7425 0.92982 0.35779 0.0
C987 C 0.6085 0.78149 0.4292 0.0
H988 H 0.6602 0.81773 0.20532 0.0
H989 H 0.80524 0.83297 0.17162 0.0
H990 H 0.78561 0.83379 0.25938 0.0
H991 H 0.8391 0.83793 0.21893 0.0
H992 H 0.67747 0.81254 0.4726 0.0
H993 H 0.57838 0.83255 0.53201 0.0
H994 H 0.52017 0.78104 0.44982 0.0
H995 H 0.5076 0.80435 0.49696 0.0
Eu996 Eu 0.18789 0.81098 0.38352 0.0
C997 C 0.06596 0.87581 0.29426 0.0
C998 C 0.97714 0.80294 0.2904 0.0
C999 C 0.9956 0.88607 0.27317 0.0
C1000 C 0.03051 0.8247 0.29922 0.0
C1001 C 0.04891 0.90718 0.28124 0.0
C1002 C 0.96011 0.83378 0.27715 0.0
C1003 C 0.1403 0.97518 0.27988 0.0
N1004 N 0.11807 0.89358 0.29962 0.0
C1005 C 0.15541 0.94168 0.29131 0.0
C1006 C 0.08666 0.95798 0.27501 0.0
Eu1007 Eu 0.14308 0.83463 0.31646 0.0
N1008 N 0.04931 0.7952 0.31007 0.0
C1009 C 0.01622 0.74342 0.31269 0.0
C1010 C 0.94302 0.75033 0.29394 0.0
C1011 C 0.96259 0.72054 0.30536 0.0
H1012 H 0.19711 0.95412 0.2933 0.0
H1013 H 0.93669 0.67964 0.30789 0.0
H1014 H 0.9195 0.81755 0.26989 0.0
H1015 H 0.17014 0.0137 0.27404 0.0
H1016 H 0.03054 0.719 0.32043 0.0
H1017 H 0.38424 0.97672 0.40341 0.0
H1018 H 0.90179 0.73221 0.28749 0.0
H1019 H 0.14552 0.68692 0.39241 0.0
H1020 H 0.29124 0.93316 0.38902 0.0
H1021 H 0.18197 0.63094 0.40473 0.0
H1022 H 0.98186 0.90938 0.26291 0.0
H1023 H 0.42711 0.92653 0.41582 0.0
H1024 H 0.42173 0.84111 0.41966 0.0
H1025 H 0.07509 0.9834 0.26528 0.0
H1026 H 0.36805 0.74721 0.41781 0.0
N1027 N 0.28108 0.85783 0.39094 0.0
C1028 C 0.30926 0.91014 0.39318 0.0
C1029 C 0.3868 0.90692 0.40797 0.0
C1030 C 0.35826 0.85352 0.40538 0.0
C1031 C 0.36245 0.93536 0.40142 0.0
C1032 C 0.30469 0.82964 0.39665 0.0
H1033 H 0.27891 0.66902 0.41291 0.0
N1034 N 0.22108 0.75476 0.39133 0.0
C1035 C 0.2085 0.67166 0.40205 0.0
C1036 C 0.27402 0.77656 0.39628 0.0
C1037 C 0.18793 0.70332 0.39505 0.0
C1038 C 0.26307 0.69318 0.40646 0.0
C1039 C 0.29638 0.74624 0.4042 0.0
O1040 O 0.14742 0.77221 0.42187 0.0
O1041 O 0.12028 0.81255 0.36122 0.0
O1042 O 0.15418 0.90064 0.34353 0.0
O1043 O 0.20006 0.89144 0.38124 0.0
O1044 O 0.10195 0.74813 0.38469 0.0
O1045 O 0.203 0.85367 0.42259 0.0
O1046 O 0.18689 0.85953 0.27729 0.0
O1047 O 0.21123 0.83724 0.34002 0.0
O1048 O 0.19123 0.75845 0.35051 0.0
O1049 O 0.12271 0.75204 0.32331 0.0
O1050 O 0.22953 0.89799 0.31404 0.0
O1051 O 0.12438 0.78103 0.28199 0.0
C1052 C 0.08215 0.771 0.37049 0.0
C1053 C 0.19365 0.80742 0.46412 0.0
C1054 C 0.20112 0.81594 0.51484 0.0
C1055 C 0.17915 0.82063 0.48952 0.0
C1056 C 0.23706 0.7975 0.51434 0.0
C1057 C 0.229 0.7885 0.46449 0.0
C1058 C 0.25065 0.78374 0.48936 0.0
C1059 C 0.18275 0.91745 0.36662 0.0
C1060 C 0.17202 0.81323 0.43734 0.0
C1061 C 0.35027 0.76991 0.41162 0.0
C1062 C 0.38087 0.82341 0.41264 0.0
C1063 C 0.24937 0.8788 0.33094 0.0
C1064 C 0.13976 0.81622 0.23694 0.0
C1065 C 0.16702 0.81183 0.21405 0.0
C1066 C 0.14792 0.80988 0.18702 0.0
C1067 C 0.10198 0.81334 0.18292 0.0
C1068 C 0.09398 0.81982 0.23255 0.0
C1069 C 0.07542 0.81876 0.20565 0.0
C1070 C 0.15496 0.73532 0.33091 0.0
C1071 C 0.15868 0.81538 0.26515 0.0
H1072 H 0.15157 0.835 0.48955 0.0
H1073 H 0.25411 0.79295 0.53342 0.0
H1074 H 0.23971 0.77702 0.44563 0.0
H1075 H 0.27795 0.76909 0.48927 0.0
H1076 H 0.20206 0.80835 0.21728 0.0
H1077 H 0.08661 0.81156 0.16218 0.0
H1078 H 0.07217 0.8227 0.24981 0.0
H1079 H 0.03996 0.82137 0.20246 0.0
Eu1080 Eu 0.81733 0.62181 0.64873 0.0
C1081 C 0.92399 0.82362 0.72195 0.0
C1082 C 0.01899 0.85679 0.72111 0.0
C1083 C 0.9848 0.91542 0.72591 0.0
C1084 C 0.96644 0.81526 0.7196 0.0
C1085 C 0.93264 0.87365 0.72565 0.0
C1086 C 0.02793 0.907 0.72365 0.0
C1087 C 0.83768 0.83718 0.73046 0.0
N1088 N 0.87411 0.7825 0.72169 0.0
C1089 C 0.83114 0.7883 0.72677 0.0
C1090 C 0.88859 0.88001 0.72953 0.0
Eu1091 Eu 0.86595 0.70131 0.71389 0.0
N1092 N 0.95637 0.76629 0.71735 0.0
C1093 C 0.99695 0.75585 0.71873 0.0
C1094 C 0.06089 0.84645 0.72085 0.0
C1095 C 0.04977 0.79568 0.72005 0.0
H1096 H 0.79163 0.75541 0.72728 0.0
H1097 H 0.08183 0.78717 0.72038 0.0
H1098 H 0.06801 0.93942 0.72454 0.0
H1099 H 0.8035 0.84181 0.73389 0.0
H1100 H 0.98891 0.71686 0.71815 0.0
H1101 H 0.60582 0.56131 0.65296 0.0
H1102 H 0.10178 0.87725 0.72205 0.0
H1103 H 0.87258 0.55102 0.63158 0.0
H1104 H 0.70145 0.62262 0.64802 0.0
H1105 H 0.84765 0.45939 0.62958 0.0
H1106 H 0.99225 0.95424 0.72844 0.0
H1107 H 0.57395 0.46847 0.65743 0.0
H1108 H 0.59528 0.39709 0.65771 0.0
H1109 H 0.89349 0.91765 0.73225 0.0
H1110 H 0.66137 0.36932 0.65126 0.0
N1111 N 0.72399 0.56533 0.64955 0.0
C1112 C 0.68825 0.58227 0.64945 0.0
C1113 C 0.61601 0.49522 0.65488 0.0
C1114 C 0.65258 0.47795 0.65338 0.0
C1115 C 0.63385 0.54757 0.65233 0.0
C1116 C 0.70688 0.51441 0.6502 0.0
H1117 H 0.75517 0.39203 0.63973 0.0
N1118 N 0.79509 0.53517 0.64274 0.0
C1119 C 0.81805 0.46996 0.63455 0.0
C1120 C 0.74374 0.49881 0.64676 0.0
C1121 C 0.83194 0.52167 0.6355 0.0
C1122 C 0.76585 0.43205 0.64037 0.0
C1123 C 0.72772 0.44625 0.64618 0.0
O1124 O 0.85441 0.6288 0.60822 0.0
O1125 O 0.88318 0.68951 0.66991 0.0
O1126 O 0.85721 0.74922 0.68046 0.0
O1127 O 0.79516 0.68489 0.65139 0.0
O1128 O 0.90434 0.64994 0.64195 0.0
O1129 O 0.78941 0.64373 0.61173 0.0
O1130 O 0.82162 0.68047 0.75291 0.0
O1131 O 0.80286 0.63176 0.69285 0.0
O1132 O 0.84004 0.57985 0.68034 0.0
O1133 O 0.89773 0.64621 0.71024 0.0
O1134 O 0.77674 0.6689 0.71846 0.0
O1135 O 0.89923 0.68777 0.75188 0.0
C1136 C 0.92201 0.68868 0.65855 0.0
C1137 C 0.80145 0.61416 0.56825 0.0
C1138 C 0.79607 0.61647 0.51739 0.0
C1139 C 0.81671 0.64177 0.54301 0.0
C1140 C 0.76078 0.56309 0.51767 0.0
C1141 C 0.76596 0.5612 0.56781 0.0
C1142 C 0.74594 0.53588 0.54262 0.0
C1143 C 0.82233 0.73337 0.6598 0.0
C1144 C 0.82286 0.64058 0.59496 0.0
C1145 C 0.67418 0.40977 0.65091 0.0
C1146 C 0.63663 0.42559 0.65455 0.0
C1147 C 0.76172 0.6288 0.70316 0.0
C1148 C 0.8697 0.70383 0.79495 0.0
C1149 C 0.85127 0.6742 0.81952 0.0
C1150 C 0.85765 0.69833 0.84559 0.0
C1151 C 0.88329 0.75214 0.84668 0.0
C1152 C 0.89555 0.75745 0.79679 0.0
C1153 C 0.90237 0.78136 0.82251 0.0
C1154 C 0.87711 0.59914 0.70002 0.0
C1155 C 0.85865 0.67884 0.76736 0.0
H1156 H 0.84383 0.68281 0.54339 0.0
H1157 H 0.7449 0.54207 0.49847 0.0
H1158 H 0.7539 0.53946 0.58695 0.0
H1159 H 0.71877 0.49491 0.54242 0.0
H1160 H 0.83092 0.63271 0.81829 0.0
H1161 H 0.88889 0.77166 0.86638 0.0
H1162 H 0.90982 0.78079 0.77827 0.0
H1163 H 0.92216 0.82278 0.82371 0.0
Eu1164 Eu 0.36339 0.16732 0.64648 0.0
C1165 C 0.22426 0.20451 0.71663 0.0
C1166 C 0.26669 0.28319 0.74353 0.0
C1167 C 0.18209 0.25644 0.72074 0.0
C1168 C 0.26722 0.24041 0.73199 0.0
C1169 C 0.18033 0.21129 0.71171 0.0
C1170 C 0.22474 0.29197 0.73702 0.0
C1171 C 0.13584 0.1278 0.68986 0.0
N1172 N 0.22494 0.16252 0.70688 0.0
C1173 C 0.18105 0.12352 0.69443 0.0
C1174 C 0.13605 0.17252 0.69783 0.0
Eu1175 Eu 0.30435 0.16068 0.71408 0.0
N1176 N 0.30814 0.23195 0.737 0.0
C1177 C 0.34555 0.26001 0.75671 0.0
C1178 C 0.3077 0.3151 0.76175 0.0
C1179 C 0.34657 0.30268 0.76892 0.0
H1180 H 0.18084 0.08931 0.68766 0.0
H1181 H 0.37739 0.32604 0.78369 0.0
H1182 H 0.22446 0.3256 0.74484 0.0
H1183 H 0.10141 0.0972 0.67958 0.0
H1184 H 0.37585 0.25053 0.762 0.0
H1185 H 0.3648 0.98603 0.64821 0.0
H1186 H 0.30867 0.34831 0.77112 0.0
H1187 H 0.46662 0.28091 0.62451 0.0
H1188 H 0.32486 0.04102 0.64395 0.0
H1189 H 0.56494 0.32498 0.62429 0.0
H1190 H 0.15046 0.26391 0.71539 0.0
H1191 H 0.46162 0.02502 0.6562 0.0
H1192 H 0.54976 0.1049 0.66451 0.0
H1193 H 0.10169 0.17647 0.69344 0.0
H1194 H 0.6044 0.19899 0.66084 0.0
N1195 N 0.39806 0.11084 0.64897 0.0
C1196 C 0.36704 0.05874 0.64722 0.0
C1197 C 0.44429 0.0494 0.65379 0.0
C1198 C 0.47593 0.10283 0.65495 0.0
C1199 C 0.38966 0.0273 0.64942 0.0
C1200 C 0.45155 0.13285 0.65131 0.0
H1201 H 0.611 0.2802 0.6423 0.0
N1202 N 0.45769 0.21235 0.64239 0.0
C1203 C 0.54218 0.28614 0.63195 0.0
C1204 C 0.4822 0.18544 0.64881 0.0
C1205 C 0.48662 0.26092 0.63178 0.0
C1206 C 0.56802 0.26086 0.64218 0.0
C1207 C 0.53799 0.20946 0.65011 0.0
O1208 O 0.37151 0.20179 0.60555 0.0
O1209 O 0.29619 0.16972 0.66831 0.0
O1210 O 0.26107 0.08084 0.69477 0.0
O1211 O 0.28339 0.09516 0.64791 0.0
O1212 O 0.34095 0.22846 0.64009 0.0
O1213 O 0.33836 0.12002 0.60894 0.0
O1214 O 0.24175 0.10986 0.74302 0.0
O1215 O 0.35571 0.13789 0.6901 0.0
O1216 O 0.41856 0.23737 0.67194 0.0
O1217 O 0.36402 0.24428 0.70498 0.0
O1218 O 0.38655 0.17833 0.72712 0.0
O1219 O 0.32376 0.13852 0.75362 0.0
C1220 C 0.3007 0.20957 0.65659 0.0
C1221 C 0.38627 0.15983 0.56832 0.0
C1222 C 0.3964 0.15789 0.51806 0.0
C1223 C 0.36625 0.15608 0.54136 0.0
C1224 C 0.44714 0.16374 0.52234 0.0
C1225 C 0.43649 0.16484 0.57213 0.0
C1226 C 0.46682 0.16697 0.54921 0.0
C1227 C 0.25488 0.06545 0.66857 0.0
C1228 C 0.35438 0.1588 0.59217 0.0
C1229 C 0.56182 0.18065 0.65781 0.0
C1230 C 0.53086 0.12716 0.65974 0.0
C1231 C 0.3946 0.15452 0.70707 0.0
C1232 C 0.26679 0.12885 0.79091 0.0
C1233 C 0.30722 0.1446 0.81115 0.0
C1234 C 0.30014 0.15813 0.83821 0.0
C1235 C 0.25162 0.15525 0.84485 0.0
C1236 C 0.21874 0.12639 0.79815 0.0
C1237 C 0.21136 0.13953 0.82494 0.0
C1238 C 0.40917 0.26315 0.69112 0.0
C1239 C 0.27516 0.11482 0.76254 0.0
H1240 H 0.32687 0.15106 0.53866 0.0
H1241 H 0.47191 0.1663 0.50495 0.0
H1242 H 0.45228 0.16712 0.59272 0.0
H1243 H 0.50577 0.17126 0.55227 0.0
H1244 H 0.34414 0.14587 0.80593 0.0
H1245 H 0.24505 0.16589 0.86534 0.0
H1246 H 0.18684 0.11437 0.78315 0.0
H1247 H 0.17427 0.13768 0.83029 0.0
Eu1248 Eu 0.85456 0.14432 0.71686 0.0
C1249 C 0.73263 0.20914 0.6276 0.0
C1250 C 0.64381 0.13628 0.62373 0.0
C1251 C 0.66227 0.2194 0.6065 0.0
C1252 C 0.69717 0.15804 0.63255 0.0
C1253 C 0.71558 0.24052 0.61457 0.0
C1254 C 0.62677 0.16712 0.61049 0.0
C1255 C 0.80697 0.30852 0.61321 0.0
N1256 N 0.78473 0.22692 0.63295 0.0
C1257 C 0.82208 0.27501 0.62464 0.0
C1258 C 0.75332 0.29131 0.60835 0.0
Eu1259 Eu 0.80974 0.16796 0.6498 0.0
N1260 N 0.71598 0.12853 0.64341 0.0
C1261 C 0.68289 0.07675 0.64602 0.0
C1262 C 0.60969 0.08366 0.62728 0.0
C1263 C 0.62926 0.05387 0.63869 0.0
H1264 H 0.86378 0.28746 0.62663 0.0
H1265 H 0.60336 0.01297 0.64122 0.0
H1266 H 0.58617 0.15088 0.60322 0.0
H1267 H 0.83681 0.34703 0.60738 0.0
H1268 H 0.69721 0.05233 0.65377 0.0
H1269 H 0.05091 0.31005 0.73674 0.0
H1270 H 0.56846 0.06555 0.62082 0.0
H1271 H 0.81219 0.02025 0.72575 0.0
H1272 H 0.95791 0.2665 0.72235 0.0
H1273 H 0.84864 0.96427 0.73806 0.0
H1274 H 0.64853 0.24271 0.59625 0.0
H1275 H 0.09378 0.25986 0.74916 0.0
H1276 H 0.0884 0.17444 0.75299 0.0
H1277 H 0.74176 0.31673 0.59862 0.0
H1278 H 0.03472 0.08054 0.75114 0.0
N1279 N 0.94775 0.19117 0.72428 0.0
C1280 C 0.97593 0.24348 0.72651 0.0
C1281 C 0.05347 0.24025 0.7413 0.0
C1282 C 0.02493 0.18686 0.73871 0.0
C1283 C 0.02912 0.2687 0.73475 0.0
C1284 C 0.97136 0.16297 0.72999 0.0
H1285 H 0.94558 0.00235 0.74625 0.0
N1286 N 0.88775 0.08809 0.72467 0.0
C1287 C 0.87517 0.00499 0.73538 0.0
C1288 C 0.94069 0.1099 0.72961 0.0
C1289 C 0.8546 0.03666 0.72838 0.0
C1290 C 0.92974 0.02652 0.73979 0.0
C1291 C 0.96305 0.07957 0.73754 0.0
O1292 O 0.81409 0.10555 0.75521 0.0
O1293 O 0.78695 0.14589 0.69455 0.0
O1294 O 0.82085 0.23398 0.67687 0.0
O1295 O 0.86673 0.22477 0.71457 0.0
O1296 O 0.76862 0.08147 0.71802 0.0
O1297 O 0.86967 0.187 0.75592 0.0
O1298 O 0.85355 0.19287 0.61062 0.0
O1299 O 0.8779 0.17058 0.67335 0.0
O1300 O 0.8579 0.09179 0.68384 0.0
O1301 O 0.78938 0.08537 0.65665 0.0
O1302 O 0.8962 0.23133 0.64738 0.0
O1303 O 0.79106 0.11436 0.61533 0.0
C1304 C 0.74882 0.10433 0.70383 0.0
C1305 C 0.86032 0.14076 0.79745 0.0
C1306 C 0.86779 0.14927 0.84818 0.0
C1307 C 0.84582 0.15396 0.82285 0.0
C1308 C 0.90373 0.13084 0.84767 0.0
C1309 C 0.89567 0.12184 0.79782 0.0
C1310 C 0.91732 0.11707 0.82269 0.0
C1311 C 0.84942 0.25079 0.69996 0.0
C1312 C 0.83869 0.14656 0.77067 0.0
C1313 C 0.01694 0.10324 0.74495 0.0
C1314 C 0.04754 0.15674 0.74597 0.0
C1315 C 0.91604 0.21214 0.66427 0.0
C1316 C 0.80642 0.14954 0.57027 0.0
C1317 C 0.83369 0.14516 0.54739 0.0
C1318 C 0.81458 0.1432 0.52035 0.0
C1319 C 0.76863 0.14665 0.51626 0.0
C1320 C 0.76063 0.15314 0.56589 0.0
C1321 C 0.74208 0.15207 0.53899 0.0
C1322 C 0.82163 0.06865 0.66425 0.0
C1323 C 0.82535 0.14871 0.59848 0.0
H1324 H 0.81824 0.16833 0.82288 0.0
H1325 H 0.92078 0.12628 0.86675 0.0
H1326 H 0.90638 0.11035 0.77896 0.0
H1327 H 0.94462 0.10243 0.8226 0.0
H1328 H 0.86873 0.14169 0.55062 0.0
H1329 H 0.75326 0.14486 0.49551 0.0
H1330 H 0.73882 0.15601 0.58315 0.0
H1331 H 0.7066 0.15467 0.53579 0.0
loop_
_geom_bond_atom_site_label_1
_geom_bond_atom_site_label_2
_geom_bond_distance
_geom_bond_site_symmetry_2
_ccdc_geom_bond_type
P0 O11 1.490 . S
P0 C14 1.812 . S
P0 C20 1.803 . S
P0 C26 1.819 . S
H1 C15 0.941 . S
H2 C16 0.939 . S
H3 C18 0.940 1_565 S
H4 C19 0.940 . S
H5 C21 0.939 . S
H6 C22 0.942 . S
H7 C24 0.940 . S
H8 C25 0.939 . S
H9 C27 0.941 . S
H10 C31 0.939 . S
O11 P0 1.490 . S
H12 C28 0.939 . S
H13 C30 0.940 . S
C14 P0 1.812 . S
C14 C15 1.389 . S
C14 C19 1.391 . S
C15 H1 0.941 . S
C15 C14 1.389 . S
C15 C16 1.397 . S
C16 H2 0.939 . S
C16 C15 1.397 . S
C16 C17 1.378 1_545 S
C17 C16 1.378 1_565 S
C17 C18 1.378 1_565 S
C18 H3 0.940 1_545 S
C18 C17 1.378 1_545 S
C18 C19 1.396 . S
C19 H4 0.940 . S
C19 C14 1.391 . S
C19 C18 1.396 . S
C20 P0 1.803 . S
C20 C21 1.378 . S
C20 C25 1.400 . S
C21 H5 0.939 . S
C21 C20 1.378 . S
C21 C22 1.361 . S
C22 H6 0.942 . S
C22 C21 1.361 . S
C22 C23 1.369 . S
C23 C22 1.369 . S
C23 C24 1.404 . S
C24 H7 0.940 . S
C24 C23 1.404 . S
C24 C25 1.389 . S
C25 H8 0.939 . S
C25 C20 1.400 . S
C25 C24 1.389 . S
C26 P0 1.819 . S
C26 C27 1.391 . S
C26 C31 1.391 . S
C27 H9 0.941 . S
C27 C26 1.391 . S
C27 C28 1.396 . S
C28 H12 0.939 . S
C28 C27 1.396 . S
C28 C29 1.397 . S
C29 C28 1.397 . S
C29 C30 1.385 . S
C30 H13 0.940 . S
C30 C29 1.385 . S
C30 C31 1.388 . S
C31 H10 0.939 . S
C31 C26 1.391 . S
C31 C30 1.388 . S
P32 O43 1.490 . S
P32 C46 1.812 . S
P32 C52 1.803 . S
P32 C58 1.819 . S
H33 C47 0.936 1_565 S
H34 C48 0.939 . S
H35 C50 0.940 . S
H36 C51 0.940 . S
H37 C53 0.939 . S
H38 C54 0.942 . S
H39 C56 0.940 . S
H40 C57 0.939 . S
H41 C59 0.941 . S
H42 C63 0.939 . S
O43 P32 1.490 . S
H44 C60 0.939 . S
H45 C62 0.940 . S
C46 P32 1.812 . S
C46 C47 1.389 . S
C46 C51 1.391 . S
C47 H33 0.936 1_545 S
C47 C46 1.389 . S
C47 C48 1.397 1_545 S
C48 H34 0.939 . S
C48 C47 1.397 1_565 S
C48 C49 1.378 . S
C49 C48 1.378 . S
C49 C50 1.378 1_565 S
C50 H35 0.940 . S
C50 C49 1.378 1_545 S
C50 C51 1.396 . S
C51 H36 0.940 . S
C51 C46 1.391 . S
C51 C50 1.396 . S
C52 P32 1.803 . S
C52 C53 1.378 1_655 S
C52 C57 1.400 . S
C53 H37 0.939 . S
C53 C52 1.378 1_455 S
C53 C54 1.361 . S
C54 H38 0.942 . S
C54 C53 1.361 . S
C54 C55 1.369 . S
C55 C54 1.369 . S
C55 C56 1.404 1_455 S
C56 H39 0.940 . S
C56 C55 1.404 1_655 S
C56 C57 1.389 . S
C57 H40 0.939 . S
C57 C52 1.400 . S
C57 C56 1.389 . S
C58 P32 1.819 . S
C58 C59 1.391 . S
C58 C63 1.391 . S
C59 H41 0.941 . S
C59 C58 1.391 . S
C59 C60 1.396 . S
C60 H44 0.939 . S
C60 C59 1.396 . S
C60 C61 1.397 . S
C61 C60 1.397 . S
C61 C62 1.385 . S
C62 H45 0.940 . S
C62 C61 1.385 . S
C62 C63 1.388 . S
C63 H42 0.939 . S
C63 C58 1.391 . S
C63 C62 1.388 . S
P64 O75 1.490 . S
P64 C78 1.812 . S
P64 C84 1.803 . S
P64 C90 1.819 . S
H65 C79 0.941 . S
H66 C80 0.939 . S
H67 C82 0.940 . S
H68 C83 0.940 . S
H69 C85 0.939 . S
H70 C86 0.942 1_455 S
H71 C88 0.940 . S
H72 C89 0.939 . S
H73 C91 0.941 . S
H74 C95 0.939 . S
O75 P64 1.490 . S
H76 C92 0.939 . S
H77 C94 0.940 . S
C78 P64 1.812 . S
C78 C79 1.389 . S
C78 C83 1.391 . S
C79 H65 0.941 . S
C79 C78 1.389 . S
C79 C80 1.397 . S
C80 H66 0.939 . S
C80 C79 1.397 . S
C80 C81 1.378 . S
C81 C80 1.378 . S
C81 C82 1.378 . S
C82 H67 0.940 . S
C82 C81 1.378 . S
C82 C83 1.396 . S
C83 H68 0.940 . S
C83 C78 1.391 . S
C83 C82 1.396 . S
C84 P64 1.803 . S
C84 C85 1.378 . S
C84 C89 1.400 . S
C85 H69 0.939 . S
C85 C84 1.378 . S
C85 C86 1.361 . S
C86 H70 0.942 1_655 S
C86 C85 1.361 . S
C86 C87 1.369 1_655 S
C87 C86 1.369 1_455 S
C87 C88 1.416 . S
C88 H71 0.940 . S
C88 C87 1.416 . S
C88 C89 1.377 1_455 S
C89 H72 0.939 . S
C89 C84 1.400 . S
C89 C88 1.377 1_655 S
C90 P64 1.819 . S
C90 C91 1.391 . S
C90 C95 1.391 . S
C91 H73 0.941 . S
C91 C90 1.391 . S
C91 C92 1.396 . S
C92 H76 0.939 . S
C92 C91 1.396 . S
C92 C93 1.397 . S
C93 C92 1.397 . S
C93 C94 1.385 . S
C94 H77 0.940 . S
C94 C93 1.385 . S
C94 C95 1.388 . S
C95 H74 0.939 . S
C95 C90 1.391 . S
C95 C94 1.388 . S
P96 O107 1.490 . S
P96 C110 1.812 . S
P96 C116 1.803 . S
P96 C122 1.819 . S
H97 C111 0.941 . S
H98 C112 0.939 . S
H99 C114 0.940 . S
H100 C115 0.940 . S
H101 C117 0.939 . S
H102 C118 0.942 . S
H103 C120 0.940 . S
H104 C121 0.939 . S
H105 C123 0.941 . S
H106 C127 0.939 . S
O107 P96 1.490 . S
H108 C124 0.939 . S
H109 C126 0.940 . S
C110 P96 1.812 . S
C110 C111 1.389 . S
C110 C115 1.391 . S
C111 H97 0.941 . S
C111 C110 1.389 . S
C111 C112 1.397 . S
C112 H98 0.939 . S
C112 C111 1.397 . S
C112 C113 1.378 1_455 S
C113 C112 1.378 1_655 S
C113 C114 1.378 . S
C114 H99 0.940 . S
C114 C113 1.378 . S
C114 C115 1.396 1_655 S
C115 H100 0.940 . S
C115 C110 1.391 . S
C115 C114 1.396 1_455 S
C116 P96 1.803 . S
C116 C117 1.378 . S
C116 C121 1.400 . S
C117 H101 0.939 . S
C117 C116 1.378 . S
C117 C118 1.361 . S
C118 H102 0.942 . S
C118 C117 1.361 . S
C118 C119 1.369 . S
C119 C118 1.369 . S
C119 C120 1.404 . S
C120 H103 0.940 . S
C120 C119 1.404 . S
C120 C121 1.389 . S
C121 H104 0.939 . S
C121 C116 1.400 . S
C121 C120 1.389 . S
C122 P96 1.819 . S
C122 C123 1.391 . S
C122 C127 1.391 . S
C123 H105 0.941 . S
C123 C122 1.391 . S
C123 C124 1.396 . S
C124 H108 0.939 . S
C124 C123 1.396 . S
C124 C125 1.397 . S
C125 C124 1.397 . S
C125 C126 1.385 . S
C126 H109 0.940 . S
C126 C125 1.385 . S
C126 C127 1.388 . S
C127 H106 0.939 . S
C127 C122 1.391 . S
C127 C126 1.388 . S
P128 O139 1.490 . S
P128 C142 1.812 . S
P128 C148 1.803 . S
P128 C154 1.819 . S
H129 C143 0.936 . S
H130 C144 0.939 . S
H131 C146 0.940 . S
H132 C147 0.940 . S
H133 C149 0.939 . S
H134 C150 0.942 . S
H135 C152 0.940 . S
H136 C153 0.939 . S
H137 C155 0.941 . S
H138 C159 0.939 . S
O139 P128 1.490 . S
H140 C156 0.939 . S
H141 C158 0.940 . S
C142 P128 1.812 . S
C142 C143 1.389 . S
C142 C147 1.391 . S
C143 H129 0.936 . S
C143 C142 1.389 . S
C143 C144 1.397 1_565 S
C144 H130 0.939 . S
C144 C143 1.397 1_545 S
C144 C145 1.378 . S
C145 C144 1.378 . S
C145 C146 1.378 1_545 S
C146 H131 0.940 . S
C146 C145 1.378 1_565 S
C146 C147 1.396 . S
C147 H132 0.940 . S
C147 C142 1.391 . S
C147 C146 1.396 . S
C148 P128 1.803 . S
C148 C149 1.378 . S
C148 C153 1.400 . S
C149 H133 0.939 . S
C149 C148 1.378 . S
C149 C150 1.361 . S
C150 H134 0.942 . S
C150 C149 1.361 . S
C150 C151 1.369 . S
C151 C150 1.369 . S
C151 C152 1.404 . S
C152 H135 0.940 . S
C152 C151 1.404 . S
C152 C153 1.389 . S
C153 H136 0.939 . S
C153 C148 1.400 . S
C153 C152 1.389 . S
C154 P128 1.819 . S
C154 C155 1.391 . S
C154 C159 1.391 . S
C155 H137 0.941 . S
C155 C154 1.391 . S
C155 C156 1.396 . S
C156 H140 0.939 . S
C156 C155 1.396 . S
C156 C157 1.397 . S
C157 C156 1.397 . S
C157 C158 1.385 . S
C158 H141 0.940 . S
C158 C157 1.385 . S
C158 C159 1.388 . S
C159 H138 0.939 . S
C159 C154 1.391 . S
C159 C158 1.388 . S
P160 O171 1.490 . S
P160 C174 1.812 . S
P160 C180 1.803 . S
P160 C186 1.819 . S
H161 C175 0.941 . S
H162 C176 0.939 . S
H163 C178 0.923 1_545 S
H164 C179 0.940 . S
H165 C181 0.939 . S
H166 C182 0.942 1_655 S
H167 C184 0.940 1_655 S
H168 C185 0.939 . S
H169 C187 0.941 . S
H170 C191 0.939 . S
O171 P160 1.490 . S
H172 C188 0.939 . S
H173 C190 0.940 . S
C174 P160 1.812 . S
C174 C175 1.389 . S
C174 C179 1.391 . S
C175 H161 0.941 . S
C175 C174 1.389 . S
C175 C176 1.397 . S
C176 H162 0.939 . S
C176 C175 1.397 . S
C176 C177 1.378 1_565 S
C177 C176 1.378 1_545 S
C177 C178 1.379 1_545 S
C178 H163 0.923 1_565 S
C178 C177 1.379 1_565 S
C178 C179 1.412 . S
C179 H164 0.940 . S
C179 C174 1.391 . S
C179 C178 1.412 . S
C180 P160 1.803 . S
C180 C181 1.378 . S
C180 C185 1.400 . S
C181 H165 0.939 . S
C181 C180 1.378 . S
C181 C182 1.361 . S
C182 H166 0.942 1_455 S
C182 C181 1.361 . S
C182 C183 1.369 1_455 S
C183 C182 1.369 1_655 S
C183 C184 1.404 1_655 S
C184 H167 0.940 1_455 S
C184 C183 1.404 1_455 S
C184 C185 1.389 . S
C185 H168 0.939 . S
C185 C180 1.400 . S
C185 C184 1.389 . S
C186 P160 1.819 . S
C186 C187 1.391 . S
C186 C191 1.391 . S
C187 H169 0.941 . S
C187 C186 1.391 . S
C187 C188 1.396 . S
C188 H172 0.939 . S
C188 C187 1.396 . S
C188 C189 1.397 . S
C189 C188 1.397 . S
C189 C190 1.385 . S
C190 H173 0.940 . S
C190 C189 1.385 . S
C190 C191 1.388 . S
C191 H170 0.939 . S
C191 C186 1.391 . S
C191 C190 1.388 . S
P192 O203 1.490 1_655 S
P192 C206 1.812 . S
P192 C212 1.803 . S
P192 C218 1.819 . S
H193 C207 0.941 . S
H194 C208 0.939 . S
H195 C210 0.940 . S
H196 C211 0.940 . S
H197 C213 0.939 1_455 S
H198 C214 0.942 . S
H199 C216 0.940 . S
H200 C217 0.939 . S
H201 C219 0.941 . S
H202 C223 0.939 . S
O203 P192 1.490 1_455 S
H204 C220 0.919 1_455 S
H205 C222 0.940 . S
C206 P192 1.812 . S
C206 C207 1.389 . S
C206 C211 1.391 . S
C207 H193 0.941 . S
C207 C206 1.389 . S
C207 C208 1.397 . S
C208 H194 0.939 . S
C208 C207 1.397 . S
C208 C209 1.378 . S
C209 C208 1.378 . S
C209 C210 1.378 . S
C210 H195 0.940 . S
C210 C209 1.378 . S
C210 C211 1.396 . S
C211 H196 0.940 . S
C211 C206 1.391 . S
C211 C210 1.396 . S
C212 P192 1.803 . S
C212 C213 1.378 . S
C212 C217 1.400 . S
C213 H197 0.939 1_655 S
C213 C212 1.378 . S
C213 C214 1.361 . S
C214 H198 0.942 . S
C214 C213 1.361 . S
C214 C215 1.369 . S
C215 C214 1.369 . S
C215 C216 1.404 . S
C216 H199 0.940 . S
C216 C215 1.404 . S
C216 C217 1.389 . S
C217 H200 0.939 . S
C217 C212 1.400 . S
C217 C216 1.389 . S
C218 P192 1.819 . S
C218 C219 1.391 1_655 S
C218 C223 1.391 . S
C219 H201 0.941 . S
C219 C218 1.391 1_455 S
C219 C220 1.395 1_455 S
C220 H204 0.919 1_655 S
C220 C219 1.395 1_655 S
C220 C221 1.420 . S
C221 C220 1.420 . S
C221 C222 1.385 . S
C222 H205 0.940 . S
C222 C221 1.385 . S
C222 C223 1.388 . S
C223 H202 0.939 . S
C223 C218 1.391 . S
C223 C222 1.388 . S
P224 O235 1.490 . S
P224 C238 1.812 . S
P224 C244 1.803 . S
P224 C250 1.819 . S
H225 C239 0.941 . S
H226 C240 0.939 . S
H227 C242 0.940 . S
H228 C243 0.940 . S
H229 C245 0.939 . S
H230 C246 0.942 . S
H231 C248 0.940 . S
H232 C249 0.939 . S
H233 C251 0.941 . S
H234 C255 0.939 . S
O235 P224 1.490 . S
H236 C252 0.939 . S
H237 C254 0.940 . S
C238 P224 1.812 . S
C238 C239 1.389 . S
C238 C243 1.391 . S
C239 H225 0.941 . S
C239 C238 1.389 . S
C239 C240 1.397 . S
C240 H226 0.939 . S
C240 C239 1.397 . S
C240 C241 1.378 . S
C241 C240 1.378 . S
C241 C242 1.378 . S
C242 H227 0.940 . S
C242 C241 1.378 . S
C242 C243 1.396 . S
C243 H228 0.940 . S
C243 C238 1.391 . S
C243 C242 1.396 . S
C244 P224 1.803 . S
C244 C245 1.378 . S
C244 C249 1.400 . S
C245 H229 0.939 . S
C245 C244 1.378 . S
C245 C246 1.361 . S
C246 H230 0.942 . S
C246 C245 1.361 . S
C246 C247 1.369 . S
C247 C246 1.369 . S
C247 C248 1.404 . S
C248 H231 0.940 . S
C248 C247 1.404 . S
C248 C249 1.389 . S
C249 H232 0.939 . S
C249 C244 1.400 . S
C249 C248 1.389 . S
C250 P224 1.819 . S
C250 C251 1.391 . S
C250 C255 1.391 . S
C251 H233 0.941 . S
C251 C250 1.391 . S
C251 C252 1.396 . S
C252 H236 0.939 . S
C252 C251 1.396 . S
C252 C253 1.397 . S
C253 C252 1.397 . S
C253 C254 1.385 . S
C254 H237 0.940 . S
C254 C253 1.385 . S
C254 C255 1.388 . S
C255 H234 0.939 . S
C255 C250 1.391 . S
C255 C254 1.388 . S
P256 O267 1.490 1_545 S
P256 C270 1.812 . S
P256 C276 1.803 . S
P256 C282 1.819 . S
H257 C271 0.941 . S
H258 C272 0.939 . S
H259 C274 0.940 . S
H260 C275 0.940 . S
H261 C277 0.939 . S
H262 C278 0.942 . S
H263 C280 0.940 . S
H264 C281 0.939 . S
H265 C283 0.941 1_565 S
H266 C287 0.939 . S
O267 P256 1.490 1_565 S
H268 C284 0.939 . S
H269 C286 0.940 . S
C270 P256 1.812 . S
C270 C271 1.389 . S
C270 C275 1.391 . S
C271 H257 0.941 . S
C271 C270 1.389 . S
C271 C272 1.397 . S
C272 H258 0.939 . S
C272 C271 1.397 . S
C272 C273 1.378 . S
C273 C272 1.378 . S
C273 C274 1.378 . S
C274 H259 0.940 . S
C274 C273 1.378 . S
C274 C275 1.396 . S
C275 H260 0.940 . S
C275 C270 1.391 . S
C275 C274 1.396 . S
C276 P256 1.803 . S
C276 C277 1.378 . S
C276 C281 1.400 . S
C277 H261 0.939 . S
C277 C276 1.378 . S
C277 C278 1.361 . S
C278 H262 0.942 . S
C278 C277 1.361 . S
C278 C279 1.369 . S
C279 C278 1.369 . S
C279 C280 1.404 . S
C280 H263 0.940 . S
C280 C279 1.404 . S
C280 C281 1.389 . S
C281 H264 0.939 . S
C281 C276 1.400 . S
C281 C280 1.389 . S
C282 P256 1.819 . S
C282 C283 1.391 . S
C282 C287 1.391 . S
C283 H265 0.941 1_545 S
C283 C282 1.391 . S
C283 C284 1.396 . S
C284 H268 0.939 . S
C284 C283 1.396 . S
C284 C285 1.397 . S
C285 C284 1.397 . S
C285 C286 1.385 . S
C286 H269 0.940 . S
C286 C285 1.385 . S
C286 C287 1.388 . S
C287 H266 0.939 . S
C287 C282 1.391 . S
C287 C286 1.388 . S
P288 O299 1.490 . S
P288 C302 1.812 . S
P288 C308 1.803 . S
P288 C314 1.819 . S
H289 C303 0.941 . S
H290 C304 0.939 1_554 S
H291 C306 0.940 . S
H292 C307 0.940 . S
H293 C309 0.939 . S
H294 C310 0.942 . S
H295 C312 0.940 . S
H296 C313 0.939 . S
H297 C315 0.941 . S
H298 C319 0.939 . S
O299 P288 1.490 . S
H300 C316 0.939 . S
H301 C318 0.940 . S
C302 P288 1.812 . S
C302 C303 1.389 . S
C302 C307 1.391 . S
C303 H289 0.941 . S
C303 C302 1.389 . S
C303 C304 1.397 . S
C304 H290 0.939 1_556 S
C304 C303 1.397 . S
C304 C305 1.378 . S
C305 C304 1.378 . S
C305 C306 1.378 . S
C306 H291 0.940 . S
C306 C305 1.378 . S
C306 C307 1.396 . S
C307 H292 0.940 . S
C307 C302 1.391 . S
C307 C306 1.396 . S
C308 P288 1.803 . S
C308 C309 1.378 . S
C308 C313 1.400 . S
C309 H293 0.939 . S
C309 C308 1.378 . S
C309 C310 1.361 . S
C310 H294 0.942 . S
C310 C309 1.361 . S
C310 C311 1.369 . S
C311 C310 1.369 . S
C311 C312 1.404 . S
C312 H295 0.940 . S
C312 C311 1.404 . S
C312 C313 1.389 . S
C313 H296 0.939 . S
C313 C308 1.400 . S
C313 C312 1.389 . S
C314 P288 1.819 . S
C314 C315 1.391 . S
C314 C319 1.391 . S
C315 H297 0.941 . S
C315 C314 1.391 . S
C315 C316 1.396 . S
C316 H300 0.939 . S
C316 C315 1.396 . S
C316 C317 1.397 . S
C317 C316 1.397 . S
C317 C318 1.385 . S
C318 H301 0.940 . S
C318 C317 1.385 . S
C318 C319 1.388 . S
C319 H298 0.939 . S
C319 C314 1.391 . S
C319 C318 1.388 . S
P320 O331 1.490 . S
P320 C334 1.812 . S
P320 C340 1.803 . S
P320 C346 1.819 . S
H321 C335 0.941 . S
H322 C336 0.939 . S
H323 C338 0.940 . S
H324 C339 0.940 . S
H325 C341 0.939 . S
H326 C342 0.942 . S
H327 C344 0.940 . S
H328 C345 0.939 . S
H329 C347 0.941 . S
H330 C351 0.939 . S
O331 P320 1.490 . S
H332 C348 0.939 . S
H333 C350 0.940 . S
C334 P320 1.812 . S
C334 C335 1.389 . S
C334 C339 1.391 . S
C335 H321 0.941 . S
C335 C334 1.389 . S
C335 C336 1.397 . S
C336 H322 0.939 . S
C336 C335 1.397 . S
C336 C337 1.378 . S
C337 C336 1.378 . S
C337 C338 1.378 . S
C338 H323 0.940 . S
C338 C337 1.378 . S
C338 C339 1.396 . S
C339 H324 0.940 . S
C339 C334 1.391 . S
C339 C338 1.396 . S
C340 P320 1.803 . S
C340 C341 1.378 . S
C340 C345 1.400 . S
C341 H325 0.939 . S
C341 C340 1.378 . S
C341 C342 1.361 . S
C342 H326 0.942 . S
C342 C341 1.361 . S
C342 C343 1.369 . S
C343 C342 1.369 . S
C343 C344 1.404 . S
C344 H327 0.940 . S
C344 C343 1.404 . S
C344 C345 1.389 . S
C345 H328 0.939 . S
C345 C340 1.400 . S
C345 C344 1.389 . S
C346 P320 1.819 . S
C346 C347 1.391 . S
C346 C351 1.391 . S
C347 H329 0.941 . S
C347 C346 1.391 . S
C347 C348 1.396 . S
C348 H332 0.939 . S
C348 C347 1.396 . S
C348 C349 1.397 . S
C349 C348 1.397 . S
C349 C350 1.385 . S
C350 H333 0.940 . S
C350 C349 1.385 . S
C350 C351 1.388 . S
C351 H330 0.939 . S
C351 C346 1.391 . S
C351 C350 1.388 . S
P352 O363 1.490 . S
P352 C366 1.812 . S
P352 C372 1.803 . S
P352 C378 1.819 . S
H353 C367 0.941 . S
H354 C368 0.939 1_554 S
H355 C370 0.940 . S
H356 C371 0.940 . S
H357 C373 0.939 . S
H358 C374 0.942 . S
H359 C376 0.940 . S
H360 C377 0.939 . S
H361 C379 0.941 . S
H362 C383 0.939 . S
O363 P352 1.490 . S
H364 C380 0.939 . S
H365 C382 0.940 . S
C366 P352 1.812 . S
C366 C367 1.389 . S
C366 C371 1.391 . S
C367 H353 0.941 . S
C367 C366 1.389 . S
C367 C368 1.397 . S
C368 H354 0.939 1_556 S
C368 C367 1.397 . S
C368 C369 1.378 . S
C369 C368 1.378 . S
C369 C370 1.378 . S
C370 H355 0.940 . S
C370 C369 1.378 . S
C370 C371 1.396 . S
C371 H356 0.940 . S
C371 C366 1.391 . S
C371 C370 1.396 . S
C372 P352 1.803 . S
C372 C373 1.378 . S
C372 C377 1.400 . S
C373 H357 0.939 . S
C373 C372 1.378 . S
C373 C374 1.361 . S
C374 H358 0.942 . S
C374 C373 1.361 . S
C374 C375 1.369 . S
C375 C374 1.369 . S
C375 C376 1.404 . S
C376 H359 0.940 . S
C376 C375 1.404 . S
C376 C377 1.389 . S
C377 H360 0.939 . S
C377 C372 1.400 . S
C377 C376 1.389 . S
C378 P352 1.819 . S
C378 C379 1.391 . S
C378 C383 1.391 . S
C379 H361 0.941 . S
C379 C378 1.391 . S
C379 C380 1.396 . S
C380 H364 0.939 . S
C380 C379 1.396 . S
C380 C381 1.397 . S
C381 C380 1.397 . S
C381 C382 1.385 . S
C382 H365 0.940 . S
C382 C381 1.385 . S
C382 C383 1.388 . S
C383 H362 0.939 . S
C383 C378 1.391 . S
C383 C382 1.388 . S
P384 O395 1.490 . S
P384 C398 1.812 . S
P384 C404 1.803 . S
P384 C410 1.819 . S
H385 C399 0.941 . S
H386 C400 0.939 1_556 S
H387 C402 0.940 . S
H388 C403 0.940 . S
H389 C405 0.939 . S
H390 C406 0.942 . S
H391 C408 0.940 . S
H392 C409 0.939 . S
H393 C411 0.941 . S
H394 C415 0.939 . S
O395 P384 1.490 . S
H396 C412 0.939 . S
H397 C414 0.940 . S
C398 P384 1.812 . S
C398 C399 1.389 . S
C398 C403 1.391 . S
C399 H385 0.941 . S
C399 C398 1.389 . S
C399 C400 1.397 . S
C400 H386 0.939 1_554 S
C400 C399 1.397 . S
C400 C401 1.378 . S
C401 C400 1.378 . S
C401 C402 1.378 . S
C402 H387 0.940 . S
C402 C401 1.378 . S
C402 C403 1.396 . S
C403 H388 0.940 . S
C403 C398 1.391 . S
C403 C402 1.396 . S
C404 P384 1.803 . S
C404 C405 1.378 . S
C404 C409 1.400 . S
C405 H389 0.939 . S
C405 C404 1.378 . S
C405 C406 1.361 . S
C406 H390 0.942 . S
C406 C405 1.361 . S
C406 C407 1.369 . S
C407 C406 1.369 . S
C407 C408 1.404 . S
C408 H391 0.940 . S
C408 C407 1.404 . S
C408 C409 1.389 . S
C409 H392 0.939 . S
C409 C404 1.400 . S
C409 C408 1.389 . S
C410 P384 1.819 . S
C410 C411 1.391 . S
C410 C415 1.391 . S
C411 H393 0.941 . S
C411 C410 1.391 . S
C411 C412 1.396 . S
C412 H396 0.939 . S
C412 C411 1.396 . S
C412 C413 1.397 . S
C413 C412 1.397 . S
C413 C414 1.385 . S
C414 H397 0.940 . S
C414 C413 1.385 . S
C414 C415 1.388 . S
C415 H394 0.939 . S
C415 C410 1.391 . S
C415 C414 1.388 . S
P416 O427 1.490 . S
P416 C430 1.812 . S
P416 C436 1.803 . S
P416 C442 1.819 . S
H417 C431 0.941 . S
H418 C432 0.939 . S
H419 C434 0.940 . S
H420 C435 0.940 . S
H421 C437 0.939 . S
H422 C438 0.942 . S
H423 C440 0.940 . S
H424 C441 0.939 . S
H425 C443 0.941 . S
H426 C447 0.939 . S
O427 P416 1.490 . S
H428 C444 0.939 . S
H429 C446 0.940 . S
C430 P416 1.812 . S
C430 C431 1.389 . S
C430 C435 1.391 . S
C431 H417 0.941 . S
C431 C430 1.389 . S
C431 C432 1.397 . S
C432 H418 0.939 . S
C432 C431 1.397 . S
C432 C433 1.378 . S
C433 C432 1.378 . S
C433 C434 1.378 . S
C434 H419 0.940 . S
C434 C433 1.378 . S
C434 C435 1.396 . S
C435 H420 0.940 . S
C435 C430 1.391 . S
C435 C434 1.396 . S
C436 P416 1.803 . S
C436 C437 1.378 . S
C436 C441 1.400 . S
C437 H421 0.939 . S
C437 C436 1.378 . S
C437 C438 1.361 . S
C438 H422 0.942 . S
C438 C437 1.361 . S
C438 C439 1.369 . S
C439 C438 1.369 . S
C439 C440 1.404 . S
C440 H423 0.940 . S
C440 C439 1.404 . S
C440 C441 1.389 . S
C441 H424 0.939 . S
C441 C436 1.400 . S
C441 C440 1.389 . S
C442 P416 1.819 . S
C442 C443 1.391 . S
C442 C447 1.391 . S
C443 H425 0.941 . S
C443 C442 1.391 . S
C443 C444 1.396 . S
C444 H428 0.939 . S
C444 C443 1.396 . S
C444 C445 1.397 . S
C445 C444 1.397 . S
C445 C446 1.385 . S
C446 H429 0.940 . S
C446 C445 1.385 . S
C446 C447 1.388 . S
C447 H426 0.939 . S
C447 C442 1.391 . S
C447 C446 1.388 . S
P448 O459 1.490 . S
P448 C462 1.812 . S
P448 C468 1.803 . S
P448 C474 1.819 . S
H449 C463 0.941 . S
H450 C464 0.937 1_556 S
H451 C466 0.940 . S
H452 C467 0.940 . S
H453 C469 0.939 . S
H454 C470 0.942 . S
H455 C472 0.940 . S
H456 C473 0.939 . S
H457 C475 0.941 . S
H458 C479 0.939 . S
O459 P448 1.490 . S
H460 C476 0.939 . S
H461 C478 0.940 . S
C462 P448 1.812 . S
C462 C463 1.389 . S
C462 C467 1.391 . S
C463 H449 0.941 . S
C463 C462 1.389 . S
C463 C464 1.397 . S
C464 H450 0.937 1_554 S
C464 C463 1.397 . S
C464 C465 1.378 . S
C465 C464 1.378 . S
C465 C466 1.378 . S
C466 H451 0.940 . S
C466 C465 1.378 . S
C466 C467 1.396 . S
C467 H452 0.940 . S
C467 C462 1.391 . S
C467 C466 1.396 . S
C468 P448 1.803 . S
C468 C469 1.378 . S
C468 C473 1.400 . S
C469 H453 0.939 . S
C469 C468 1.378 . S
C469 C470 1.361 . S
C470 H454 0.942 . S
C470 C469 1.361 . S
C470 C471 1.369 . S
C471 C470 1.369 . S
C471 C472 1.404 . S
C472 H455 0.940 . S
C472 C471 1.404 . S
C472 C473 1.389 . S
C473 H456 0.939 . S
C473 C468 1.400 . S
C473 C472 1.389 . S
C474 P448 1.819 . S
C474 C475 1.391 . S
C474 C479 1.391 . S
C475 H457 0.941 . S
C475 C474 1.391 . S
C475 C476 1.396 . S
C476 H460 0.939 . S
C476 C475 1.396 . S
C476 C477 1.397 . S
C477 C476 1.397 . S
C477 C478 1.385 . S
C478 H461 0.940 . S
C478 C477 1.385 . S
C478 C479 1.388 . S
C479 H458 0.939 . S
C479 C474 1.391 . S
C479 C478 1.388 . S
P480 O491 1.490 1_565 S
P480 C494 1.812 . S
P480 C500 1.803 . S
P480 C506 1.819 . S
H481 C495 0.941 . S
H482 C496 0.939 . S
H483 C498 0.940 . S
H484 C499 0.940 . S
H485 C501 0.939 . S
H486 C502 0.942 . S
H487 C504 0.940 . S
H488 C505 0.939 . S
H489 C507 0.941 1_545 S
H490 C511 0.939 . S
O491 P480 1.490 1_545 S
H492 C508 0.946 . S
H493 C510 0.940 . S
C494 P480 1.812 . S
C494 C495 1.389 . S
C494 C499 1.391 . S
C495 H481 0.941 . S
C495 C494 1.389 . S
C495 C496 1.397 . S
C496 H482 0.939 . S
C496 C495 1.397 . S
C496 C497 1.378 . S
C497 C496 1.378 . S
C497 C498 1.378 . S
C498 H483 0.940 . S
C498 C497 1.378 . S
C498 C499 1.396 . S
C499 H484 0.940 . S
C499 C494 1.391 . S
C499 C498 1.396 . S
C500 P480 1.803 . S
C500 C501 1.378 . S
C500 C505 1.400 . S
C501 H485 0.939 . S
C501 C500 1.378 . S
C501 C502 1.361 . S
C502 H486 0.942 . S
C502 C501 1.361 . S
C502 C503 1.369 . S
C503 C502 1.369 . S
C503 C504 1.404 . S
C504 H487 0.940 . S
C504 C503 1.404 . S
C504 C505 1.389 . S
C505 H488 0.939 . S
C505 C500 1.400 . S
C505 C504 1.389 . S
C506 P480 1.819 . S
C506 C507 1.391 . S
C506 C511 1.391 . S
C507 H489 0.941 1_565 S
C507 C506 1.391 . S
C507 C508 1.396 . S
C508 H492 0.946 . S
C508 C507 1.396 . S
C508 C509 1.397 . S
C509 C508 1.397 . S
C509 C510 1.385 . S
C510 H493 0.940 . S
C510 C509 1.385 . S
C510 C511 1.388 . S
C511 H490 0.939 . S
C511 C506 1.391 . S
C511 C510 1.388 . S
P512 O523 1.490 . S
P512 C526 1.812 . S
P512 C532 1.803 . S
P512 C538 1.819 . S
H513 C527 0.941 . S
H514 C528 0.939 . S
H515 C530 0.940 . S
H516 C531 0.940 . S
H517 C533 0.939 . S
H518 C534 0.942 . S
H519 C536 0.940 . S
H520 C537 0.939 . S
H521 C539 0.941 . S
H522 C543 0.939 . S
O523 P512 1.490 . S
H524 C540 0.939 . S
H525 C542 0.940 . S
C526 P512 1.812 . S
C526 C527 1.389 . S
C526 C531 1.391 . S
C527 H513 0.941 . S
C527 C526 1.389 . S
C527 C528 1.397 . S
C528 H514 0.939 . S
C528 C527 1.397 . S
C528 C529 1.378 . S
C529 C528 1.378 . S
C529 C530 1.378 . S
C530 H515 0.940 . S
C530 C529 1.378 . S
C530 C531 1.396 . S
C531 H516 0.940 . S
C531 C526 1.391 . S
C531 C530 1.396 . S
C532 P512 1.803 . S
C532 C533 1.378 . S
C532 C537 1.400 . S
C533 H517 0.939 . S
C533 C532 1.378 . S
C533 C534 1.361 . S
C534 H518 0.942 . S
C534 C533 1.361 . S
C534 C535 1.369 . S
C535 C534 1.369 . S
C535 C536 1.404 . S
C536 H519 0.940 . S
C536 C535 1.404 . S
C536 C537 1.389 . S
C537 H520 0.939 . S
C537 C532 1.400 . S
C537 C536 1.389 . S
C538 P512 1.819 . S
C538 C539 1.391 . S
C538 C543 1.391 . S
C539 H521 0.941 . S
C539 C538 1.391 . S
C539 C540 1.396 . S
C540 H524 0.939 . S
C540 C539 1.396 . S
C540 C541 1.397 . S
C541 C540 1.397 . S
C541 C542 1.385 . S
C542 H525 0.940 . S
C542 C541 1.385 . S
C542 C543 1.388 . S
C543 H522 0.939 . S
C543 C538 1.391 . S
C543 C542 1.388 . S
P544 O555 1.490 . S
P544 C558 1.812 . S
P544 C564 1.803 . S
P544 C570 1.819 . S
H545 C559 0.941 . S
H546 C560 0.939 . S
H547 C562 0.940 . S
H548 C563 0.940 . S
H549 C565 0.939 . S
H550 C566 0.942 . S
H551 C568 0.940 . S
H552 C569 0.939 . S
H553 C571 0.941 . S
H554 C575 0.939 . S
O555 P544 1.490 . S
H556 C572 0.939 . S
H557 C574 0.940 . S
C558 P544 1.812 . S
C558 C559 1.389 . S
C558 C563 1.391 . S
C559 H545 0.941 . S
C559 C558 1.389 . S
C559 C560 1.397 . S
C560 H546 0.939 . S
C560 C559 1.397 . S
C560 C561 1.378 . S
C561 C560 1.378 . S
C561 C562 1.378 . S
C562 H547 0.940 . S
C562 C561 1.378 . S
C562 C563 1.396 . S
C563 H548 0.940 . S
C563 C558 1.391 . S
C563 C562 1.396 . S
C564 P544 1.803 . S
C564 C565 1.378 . S
C564 C569 1.400 . S
C565 H549 0.939 . S
C565 C564 1.378 . S
C565 C566 1.361 . S
C566 H550 0.942 . S
C566 C565 1.361 . S
C566 C567 1.369 . S
C567 C566 1.369 . S
C567 C568 1.404 . S
C568 H551 0.940 . S
C568 C567 1.404 . S
C568 C569 1.389 . S
C569 H552 0.939 . S
C569 C564 1.400 . S
C569 C568 1.389 . S
C570 P544 1.819 . S
C570 C571 1.391 . S
C570 C575 1.391 . S
C571 H553 0.941 . S
C571 C570 1.391 . S
C571 C572 1.396 . S
C572 H556 0.939 . S
C572 C571 1.396 . S
C572 C573 1.397 . S
C573 C572 1.397 . S
C573 C574 1.385 . S
C574 H557 0.940 . S
C574 C573 1.385 . S
C574 C575 1.388 . S
C575 H554 0.939 . S
C575 C570 1.391 . S
C575 C574 1.388 . S
Eu576 N607 2.657 . S
Eu576 N614 2.609 . S
Eu576 O620 2.558 . S
Eu576 O621 2.612 1_565 S
Eu576 O623 2.339 1_565 S
Eu576 O624 2.563 1_565 S
Eu576 O625 2.419 . S
Eu576 O627 2.380 1_556 S
Eu576 O628 2.432 . S
Eu576 C640 2.848 . S
C577 C580 1.429 . S
C577 C581 1.411 . S
C577 N584 1.377 . S
C578 C580 1.420 . S
C578 C582 1.423 . S
C578 C590 1.392 . S
C579 C581 1.420 . S
C579 C582 1.351 . S
C579 H602 0.931 . S
C580 C577 1.429 . S
C580 C578 1.420 . S
C580 N588 1.362 . S
C581 C577 1.411 . S
C581 C579 1.420 . S
C581 C586 1.395 . S
C582 C578 1.423 . S
C582 C579 1.351 . S
C582 H594 0.930 . S
C583 C585 1.400 . S
C583 C586 1.386 . S
C583 H595 0.930 . S
N584 C577 1.377 . S
N584 C585 1.321 . S
N584 Eu587 2.609 . S
C585 C583 1.400 . S
C585 N584 1.321 . S
C585 H592 0.930 . S
C586 C581 1.395 . S
C586 C583 1.386 . S
C586 H605 0.930 . S
Eu587 N584 2.609 . S
Eu587 N588 2.657 . S
Eu587 O621 2.380 1_554 S
Eu587 O622 2.432 . S
Eu587 O626 2.558 . S
Eu587 O627 2.612 1_545 S
Eu587 O629 2.339 1_545 S
Eu587 O630 2.563 1_545 S
Eu587 O631 2.419 . S
Eu587 C651 2.848 . S
N588 C580 1.362 . S
N588 Eu587 2.657 . S
N588 C589 1.334 . S
C589 N588 1.334 . S
C589 C591 1.413 . S
C589 H596 0.929 . S
C590 C578 1.392 . S
C590 C591 1.367 . S
C590 H598 0.930 . S
C591 C589 1.413 . S
C591 C590 1.367 . S
C591 H593 0.930 . S
H592 C585 0.930 . S
H593 C591 0.930 . S
H594 C582 0.930 . S
H595 C583 0.930 . S
H596 C589 0.929 . S
H597 C611 0.930 . S
H598 C590 0.930 . S
H599 C617 0.930 . S
H600 C608 0.929 . S
H601 C615 0.930 . S
H602 C579 0.931 . S
H603 C609 0.930 . S
H604 C642 0.930 . S
H605 C586 0.930 . S
H606 C641 0.931 . S
N607 Eu576 2.657 . S
N607 C608 1.334 . S
N607 C612 1.362 . S
C608 H600 0.929 . S
C608 N607 1.334 . S
C608 C611 1.413 . S
C609 H603 0.930 . S
C609 C610 1.392 . S
C609 C611 1.367 . S
C610 C609 1.392 . S
C610 C612 1.420 . S
C610 C642 1.423 . S
C611 H597 0.930 . S
C611 C608 1.413 . S
C611 C609 1.367 . S
C612 N607 1.362 . S
C612 C610 1.420 . S
C612 C616 1.429 . S
H613 C618 0.930 . S
N614 Eu576 2.609 . S
N614 C616 1.377 . S
N614 C617 1.321 . S
C615 H601 0.930 . S
C615 C617 1.400 . S
C615 C618 1.386 . S
C616 C612 1.429 . S
C616 N614 1.377 . S
C616 C619 1.411 . S
C617 H599 0.930 . S
C617 N614 1.321 . S
C617 C615 1.400 . S
C618 H613 0.930 . S
C618 C615 1.386 . S
C618 C619 1.395 . S
C619 C616 1.411 . S
C619 C618 1.395 . S
C619 C641 1.420 . S
O620 Eu576 2.558 . S
O620 C640 1.257 . S
O621 Eu576 2.612 1_545 S
O621 Eu587 2.380 1_556 S
O621 C632 1.276 . S
O622 Eu587 2.432 . S
O622 C639 1.264 1_554 S
O623 Eu576 2.339 1_545 S
O623 C639 1.254 . S
O624 Eu576 2.563 1_545 S
O624 C632 1.235 . S
O625 Eu576 2.419 . S
O625 C640 1.249 . S
O626 Eu587 2.558 . S
O626 C651 1.257 . S
O627 Eu576 2.380 1_554 S
O627 Eu587 2.612 1_565 S
O627 C643 1.276 . S
O628 Eu576 2.432 . S
O628 C650 1.264 1_556 S
O629 Eu587 2.339 1_565 S
O629 C650 1.254 . S
O630 Eu587 2.563 1_565 S
O630 C643 1.235 . S
O631 Eu587 2.419 . S
O631 C651 1.249 . S
C632 O621 1.276 . S
C632 O624 1.235 . S
C633 C635 1.393 1_565 S
C633 C637 1.395 . S
C633 C640 1.492 . S
C634 C635 1.392 . S
C634 C636 1.386 1_545 S
C635 C633 1.393 1_545 S
C635 C634 1.392 . S
C635 H652 0.930 . S
C636 C634 1.386 1_565 S
C636 C638 1.395 . S
C636 H653 0.930 . S
C637 C633 1.395 . S
C637 C638 1.379 . S
C637 H654 0.930 . S
C638 C636 1.395 . S
C638 C637 1.379 . S
C638 H655 0.930 . S
C639 O622 1.264 1_556 S
C639 O623 1.254 . S
C640 Eu576 2.848 . S
C640 O620 1.257 . S
C640 O625 1.249 . S
C640 C633 1.492 . S
C641 H606 0.931 . S
C641 C619 1.420 . S
C641 C642 1.351 . S
C642 H604 0.930 . S
C642 C610 1.423 . S
C642 C641 1.351 . S
C643 O627 1.276 . S
C643 O630 1.235 . S
C644 C645 1.393 1_545 S
C644 C648 1.395 . S
C644 C651 1.492 . S
C645 C644 1.393 1_565 S
C645 C646 1.392 . S
C645 H656 0.930 . S
C646 C645 1.392 . S
C646 C647 1.386 1_565 S
C647 C646 1.386 1_545 S
C647 C649 1.395 . S
C647 H657 0.930 . S
C648 C644 1.395 . S
C648 C649 1.379 . S
C648 H658 0.930 . S
C649 C647 1.395 . S
C649 C648 1.379 . S
C649 H659 0.930 . S
C650 O628 1.264 1_554 S
C650 O629 1.254 . S
C651 Eu587 2.848 . S
C651 O626 1.257 . S
C651 O631 1.249 . S
C651 C644 1.492 . S
H652 C635 0.930 . S
H653 C636 0.930 . S
H654 C637 0.930 . S
H655 C638 0.930 . S
H656 C645 0.930 . S
H657 C647 0.930 . S
H658 C648 0.930 . S
H659 C649 0.930 . S
Eu660 N691 2.657 . S
Eu660 N698 2.609 . S
Eu660 O704 2.558 . S
Eu660 O705 2.612 1_455 S
Eu660 O707 2.339 1_455 S
Eu660 O708 2.563 1_455 S
Eu660 O709 2.419 . S
Eu660 O711 2.380 1_556 S
Eu660 O712 2.432 . S
Eu660 C724 2.848 . S
C661 C664 1.429 . S
C661 C665 1.411 . S
C661 N668 1.377 . S
C662 C664 1.420 . S
C662 C666 1.423 . S
C662 C674 1.392 . S
C663 C665 1.420 . S
C663 C666 1.351 . S
C663 H686 0.931 . S
C664 C661 1.429 . S
C664 C662 1.420 . S
C664 N672 1.362 . S
C665 C661 1.411 . S
C665 C663 1.420 . S
C665 C670 1.395 . S
C666 C662 1.423 . S
C666 C663 1.351 . S
C666 H678 0.930 . S
C667 C669 1.400 . S
C667 C670 1.386 . S
C667 H679 0.930 . S
N668 C661 1.377 . S
N668 C669 1.321 . S
N668 Eu671 2.609 . S
C669 C667 1.400 . S
C669 N668 1.321 . S
C669 H676 0.930 . S
C670 C665 1.395 . S
C670 C667 1.386 . S
C670 H689 0.930 . S
Eu671 N668 2.609 . S
Eu671 N672 2.657 . S
Eu671 O705 2.380 1_554 S
Eu671 O706 2.432 . S
Eu671 O710 2.558 . S
Eu671 O711 2.612 1_655 S
Eu671 O713 2.339 1_655 S
Eu671 O714 2.563 1_655 S
Eu671 O715 2.419 . S
Eu671 C735 2.848 . S
N672 C664 1.362 . S
N672 Eu671 2.657 . S
N672 C673 1.334 . S
C673 N672 1.334 . S
C673 C675 1.413 . S
C673 H680 0.929 . S
C674 C662 1.392 . S
C674 C675 1.367 . S
C674 H682 0.930 . S
C675 C673 1.413 . S
C675 C674 1.367 . S
C675 H677 0.930 . S
H676 C669 0.930 . S
H677 C675 0.930 . S
H678 C666 0.930 . S
H679 C667 0.930 . S
H680 C673 0.929 . S
H681 C695 0.930 . S
H682 C674 0.930 . S
H683 C701 0.930 . S
H684 C692 0.929 . S
H685 C699 0.930 . S
H686 C663 0.931 . S
H687 C693 0.930 . S
H688 C726 0.930 . S
H689 C670 0.930 . S
H690 C725 0.931 . S
N691 Eu660 2.657 . S
N691 C692 1.334 . S
N691 C696 1.362 . S
C692 H684 0.929 . S
C692 N691 1.334 . S
C692 C695 1.413 . S
C693 H687 0.930 . S
C693 C694 1.392 . S
C693 C695 1.367 . S
C694 C693 1.392 . S
C694 C696 1.420 . S
C694 C726 1.423 . S
C695 H681 0.930 . S
C695 C692 1.413 . S
C695 C693 1.367 . S
C696 N691 1.362 . S
C696 C694 1.420 . S
C696 C700 1.429 . S
H697 C702 0.930 . S
N698 Eu660 2.609 . S
N698 C700 1.377 . S
N698 C701 1.321 . S
C699 H685 0.930 . S
C699 C701 1.400 . S
C699 C702 1.386 . S
C700 C696 1.429 . S
C700 N698 1.377 . S
C700 C703 1.411 . S
C701 H683 0.930 . S
C701 N698 1.321 . S
C701 C699 1.400 . S
C702 H697 0.930 . S
C702 C699 1.386 . S
C702 C703 1.395 . S
C703 C700 1.411 . S
C703 C702 1.395 . S
C703 C725 1.420 . S
O704 Eu660 2.558 . S
O704 C724 1.257 . S
O705 Eu660 2.612 1_655 S
O705 Eu671 2.380 1_556 S
O705 C716 1.276 . S
O706 Eu671 2.432 . S
O706 C723 1.264 1_554 S
O707 Eu660 2.339 1_655 S
O707 C723 1.254 . S
O708 Eu660 2.563 1_655 S
O708 C716 1.235 . S
O709 Eu660 2.419 . S
O709 C724 1.249 . S
O710 Eu671 2.558 . S
O710 C735 1.257 . S
O711 Eu660 2.380 1_554 S
O711 Eu671 2.612 1_455 S
O711 C727 1.276 . S
O712 Eu660 2.432 . S
O712 C734 1.264 1_556 S
O713 Eu671 2.339 1_455 S
O713 C734 1.254 . S
O714 Eu671 2.563 1_455 S
O714 C727 1.235 . S
O715 Eu671 2.419 . S
O715 C735 1.249 . S
C716 O705 1.276 . S
C716 O708 1.235 . S
C717 C719 1.393 1_455 S
C717 C721 1.395 . S
C717 C724 1.492 . S
C718 C719 1.392 . S
C718 C720 1.386 1_655 S
C719 C717 1.393 1_655 S
C719 C718 1.392 . S
C719 H736 0.930 . S
C720 C718 1.386 1_455 S
C720 C722 1.395 . S
C720 H737 0.930 . S
C721 C717 1.395 . S
C721 C722 1.379 . S
C721 H738 0.930 . S
C722 C720 1.395 . S
C722 C721 1.379 . S
C722 H739 0.930 . S
C723 O706 1.264 1_556 S
C723 O707 1.254 . S
C724 Eu660 2.848 . S
C724 O704 1.257 . S
C724 O709 1.249 . S
C724 C717 1.492 . S
C725 H690 0.931 . S
C725 C703 1.420 . S
C725 C726 1.351 . S
C726 H688 0.930 . S
C726 C694 1.423 . S
C726 C725 1.351 . S
C727 O711 1.276 . S
C727 O714 1.235 . S
C728 C729 1.393 1_655 S
C728 C732 1.395 . S
C728 C735 1.492 . S
C729 C728 1.393 1_455 S
C729 C730 1.392 . S
C729 H740 0.930 . S
C730 C729 1.392 . S
C730 C731 1.386 1_455 S
C731 C730 1.386 1_655 S
C731 C733 1.395 . S
C731 H741 0.930 . S
C732 C728 1.395 . S
C732 C733 1.379 . S
C732 H742 0.930 . S
C733 C731 1.395 . S
C733 C732 1.379 . S
C733 H743 0.930 . S
C734 O712 1.264 1_554 S
C734 O713 1.254 . S
C735 Eu671 2.848 . S
C735 O710 1.257 . S
C735 O715 1.249 . S
C735 C728 1.492 . S
H736 C719 0.930 . S
H737 C720 0.930 . S
H738 C721 0.930 . S
H739 C722 0.930 . S
H740 C729 0.930 . S
H741 C731 0.930 . S
H742 C732 0.930 . S
H743 C733 0.930 . S
Eu744 N775 2.657 . S
Eu744 N782 2.609 . S
Eu744 O788 2.558 . S
Eu744 O789 2.612 . S
Eu744 O791 2.339 . S
Eu744 O792 2.563 . S
Eu744 O793 2.419 . S
Eu744 O795 2.380 1_554 S
Eu744 O796 2.432 . S
Eu744 C808 2.848 . S
C745 C748 1.429 . S
C745 C749 1.411 . S
C745 N752 1.377 . S
C746 C748 1.420 . S
C746 C750 1.423 . S
C746 C758 1.392 . S
C747 C749 1.420 . S
C747 C750 1.351 . S
C747 H770 0.931 . S
C748 C745 1.429 . S
C748 C746 1.420 . S
C748 N756 1.362 . S
C749 C745 1.411 . S
C749 C747 1.420 . S
C749 C754 1.395 . S
C750 C746 1.423 . S
C750 C747 1.351 . S
C750 H762 0.930 . S
C751 C753 1.400 . S
C751 C754 1.386 . S
C751 H763 0.930 . S
N752 C745 1.377 . S
N752 C753 1.321 . S
N752 Eu755 2.609 . S
C753 C751 1.400 . S
C753 N752 1.321 . S
C753 H760 0.930 . S
C754 C749 1.395 . S
C754 C751 1.386 . S
C754 H773 0.930 . S
Eu755 N752 2.609 . S
Eu755 N756 2.657 . S
Eu755 O789 2.380 1_556 S
Eu755 O790 2.432 . S
Eu755 O794 2.558 . S
Eu755 O795 2.612 . S
Eu755 O797 2.339 . S
Eu755 O798 2.563 . S
Eu755 O799 2.419 . S
Eu755 C819 2.848 . S
N756 C748 1.362 . S
N756 Eu755 2.657 . S
N756 C757 1.334 . S
C757 N756 1.334 . S
C757 C759 1.413 . S
C757 H764 0.929 . S
C758 C746 1.392 . S
C758 C759 1.367 . S
C758 H766 0.930 . S
C759 C757 1.413 . S
C759 C758 1.367 . S
C759 H761 0.930 . S
H760 C753 0.930 . S
H761 C759 0.930 . S
H762 C750 0.930 . S
H763 C751 0.930 . S
H764 C757 0.929 . S
H765 C779 0.930 . S
H766 C758 0.930 . S
H767 C785 0.930 . S
H768 C776 0.929 . S
H769 C783 0.930 . S
H770 C747 0.931 . S
H771 C777 0.930 . S
H772 C810 0.930 . S
H773 C754 0.930 . S
H774 C809 0.931 . S
N775 Eu744 2.657 . S
N775 C776 1.334 . S
N775 C780 1.362 . S
C776 H768 0.929 . S
C776 N775 1.334 . S
C776 C779 1.413 . S
C777 H771 0.930 . S
C777 C778 1.392 . S
C777 C779 1.367 . S
C778 C777 1.392 . S
C778 C780 1.420 . S
C778 C810 1.423 . S
C779 H765 0.930 . S
C779 C776 1.413 . S
C779 C777 1.367 . S
C780 N775 1.362 . S
C780 C778 1.420 . S
C780 C784 1.429 . S
H781 C786 0.930 . S
N782 Eu744 2.609 . S
N782 C784 1.377 . S
N782 C785 1.321 . S
C783 H769 0.930 . S
C783 C785 1.400 . S
C783 C786 1.386 . S
C784 C780 1.429 . S
C784 N782 1.377 . S
C784 C787 1.411 . S
C785 H767 0.930 . S
C785 N782 1.321 . S
C785 C783 1.400 . S
C786 H781 0.930 . S
C786 C783 1.386 . S
C786 C787 1.395 . S
C787 C784 1.411 . S
C787 C786 1.395 . S
C787 C809 1.420 . S
O788 Eu744 2.558 . S
O788 C808 1.257 . S
O789 Eu744 2.612 . S
O789 Eu755 2.380 1_554 S
O789 C800 1.276 . S
O790 Eu755 2.432 . S
O790 C807 1.264 1_556 S
O791 Eu744 2.339 . S
O791 C807 1.254 . S
O792 Eu744 2.563 . S
O792 C800 1.235 . S
O793 Eu744 2.419 . S
O793 C808 1.249 . S
O794 Eu755 2.558 . S
O794 C819 1.257 . S
O795 Eu744 2.380 1_556 S
O795 Eu755 2.612 . S
O795 C811 1.276 . S
O796 Eu744 2.432 . S
O796 C818 1.264 1_554 S
O797 Eu755 2.339 . S
O797 C818 1.254 . S
O798 Eu755 2.563 . S
O798 C811 1.235 . S
O799 Eu755 2.419 . S
O799 C819 1.249 . S
C800 O789 1.276 . S
C800 O792 1.235 . S
C801 C803 1.393 . S
C801 C805 1.395 . S
C801 C808 1.492 . S
C802 C803 1.392 . S
C802 C804 1.386 . S
C803 C801 1.393 . S
C803 C802 1.392 . S
C803 H820 0.930 . S
C804 C802 1.386 . S
C804 C806 1.395 . S
C804 H821 0.930 . S
C805 C801 1.395 . S
C805 C806 1.379 . S
C805 H822 0.930 . S
C806 C804 1.395 . S
C806 C805 1.379 . S
C806 H823 0.930 . S
C807 O790 1.264 1_554 S
C807 O791 1.254 . S
C808 Eu744 2.848 . S
C808 O788 1.257 . S
C808 O793 1.249 . S
C808 C801 1.492 . S
C809 H774 0.931 . S
C809 C787 1.420 . S
C809 C810 1.351 . S
C810 H772 0.930 . S
C810 C778 1.423 . S
C810 C809 1.351 . S
C811 O795 1.276 . S
C811 O798 1.235 . S
C812 C813 1.393 . S
C812 C816 1.395 . S
C812 C819 1.492 . S
C813 C812 1.393 . S
C813 C814 1.392 . S
C813 H824 0.930 . S
C814 C813 1.392 . S
C814 C815 1.386 . S
C815 C814 1.386 . S
C815 C817 1.395 . S
C815 H825 0.930 . S
C816 C812 1.395 . S
C816 C817 1.379 . S
C816 H826 0.930 . S
C817 C815 1.395 . S
C817 C816 1.379 . S
C817 H827 0.930 . S
C818 O796 1.264 1_556 S
C818 O797 1.254 . S
C819 Eu755 2.848 . S
C819 O794 1.257 . S
C819 O799 1.249 . S
C819 C812 1.492 . S
H820 C803 0.930 . S
H821 C804 0.930 . S
H822 C805 0.930 . S
H823 C806 0.930 . S
H824 C813 0.930 . S
H825 C815 0.930 . S
H826 C816 0.930 . S
H827 C817 0.930 . S
Eu828 N859 2.657 . S
Eu828 N866 2.609 . S
Eu828 O872 2.558 . S
Eu828 O873 2.612 . S
Eu828 O875 2.339 . S
Eu828 O876 2.563 . S
Eu828 O877 2.419 . S
Eu828 O879 2.380 . S
Eu828 O880 2.432 . S
Eu828 C892 2.848 . S
C829 C832 1.429 . S
C829 C833 1.411 . S
C829 N836 1.377 . S
C830 C832 1.420 . S
C830 C834 1.423 . S
C830 C842 1.392 . S
C831 C833 1.420 . S
C831 C834 1.351 . S
C831 H854 0.931 . S
C832 C829 1.429 . S
C832 C830 1.420 . S
C832 N840 1.362 . S
C833 C829 1.411 . S
C833 C831 1.420 . S
C833 C838 1.395 . S
C834 C830 1.423 . S
C834 C831 1.351 . S
C834 H846 0.930 . S
C835 C837 1.400 . S
C835 C838 1.386 . S
C835 H847 0.930 . S
N836 C829 1.377 . S
N836 C837 1.321 . S
N836 Eu839 2.609 . S
C837 C835 1.400 . S
C837 N836 1.321 . S
C837 H844 0.930 . S
C838 C833 1.395 . S
C838 C835 1.386 . S
C838 H857 0.930 . S
Eu839 N836 2.609 . S
Eu839 N840 2.657 . S
Eu839 O873 2.380 . S
Eu839 O874 2.432 . S
Eu839 O878 2.558 . S
Eu839 O879 2.612 . S
Eu839 O881 2.339 . S
Eu839 O882 2.563 . S
Eu839 O883 2.419 . S
Eu839 C903 2.848 . S
N840 C832 1.362 . S
N840 Eu839 2.657 . S
N840 C841 1.334 . S
C841 N840 1.334 . S
C841 C843 1.413 . S
C841 H848 0.929 . S
C842 C830 1.392 . S
C842 C843 1.367 . S
C842 H850 0.930 . S
C843 C841 1.413 . S
C843 C842 1.367 . S
C843 H845 0.930 . S
H844 C837 0.930 . S
H845 C843 0.930 . S
H846 C834 0.930 . S
H847 C835 0.930 . S
H848 C841 0.929 . S
H849 C863 0.930 . S
H850 C842 0.930 . S
H851 C869 0.930 . S
H852 C860 0.929 . S
H853 C867 0.930 . S
H854 C831 0.931 . S
H855 C861 0.930 . S
H856 C894 0.930 . S
H857 C838 0.930 . S
H858 C893 0.931 . S
N859 Eu828 2.657 . S
N859 C860 1.334 . S
N859 C864 1.362 . S
C860 H852 0.929 . S
C860 N859 1.334 . S
C860 C863 1.413 1_455 S
C861 H855 0.930 . S
C861 C862 1.392 . S
C861 C863 1.367 . S
C862 C861 1.392 . S
C862 C864 1.420 1_655 S
C862 C894 1.423 . S
C863 H849 0.930 . S
C863 C860 1.413 1_655 S
C863 C861 1.367 . S
C864 N859 1.362 . S
C864 C862 1.420 1_455 S
C864 C868 1.429 . S
H865 C870 0.930 . S
N866 Eu828 2.609 . S
N866 C868 1.377 . S
N866 C869 1.321 . S
C867 H853 0.930 . S
C867 C869 1.400 . S
C867 C870 1.386 . S
C868 C864 1.429 . S
C868 N866 1.377 . S
C868 C871 1.411 . S
C869 H851 0.930 . S
C869 N866 1.321 . S
C869 C867 1.400 . S
C870 H865 0.930 . S
C870 C867 1.386 . S
C870 C871 1.395 . S
C871 C868 1.411 . S
C871 C870 1.395 . S
C871 C893 1.420 1_455 S
O872 Eu828 2.558 . S
O872 C892 1.257 . S
O873 Eu828 2.612 . S
O873 Eu839 2.380 . S
O873 C884 1.276 . S
O874 Eu839 2.432 . S
O874 C891 1.264 . S
O875 Eu828 2.339 . S
O875 C891 1.254 . S
O876 Eu828 2.563 . S
O876 C884 1.235 . S
O877 Eu828 2.419 . S
O877 C892 1.249 . S
O878 Eu839 2.558 . S
O878 C903 1.257 . S
O879 Eu828 2.380 . S
O879 Eu839 2.612 . S
O879 C895 1.276 . S
O880 Eu828 2.432 . S
O880 C902 1.264 . S
O881 Eu839 2.339 . S
O881 C902 1.254 . S
O882 Eu839 2.563 . S
O882 C895 1.235 . S
O883 Eu839 2.419 . S
O883 C903 1.249 . S
C884 O873 1.276 . S
C884 O876 1.235 . S
C885 C887 1.393 . S
C885 C889 1.395 . S
C885 C892 1.492 . S
C886 C887 1.392 . S
C886 C888 1.386 . S
C887 C885 1.393 . S
C887 C886 1.392 . S
C887 H904 0.930 . S
C888 C886 1.386 . S
C888 C890 1.395 . S
C888 H905 0.930 . S
C889 C885 1.395 . S
C889 C890 1.379 . S
C889 H906 0.930 . S
C890 C888 1.395 . S
C890 C889 1.379 . S
C890 H907 0.930 . S
C891 O874 1.264 . S
C891 O875 1.254 . S
C892 Eu828 2.848 . S
C892 O872 1.257 . S
C892 O877 1.249 . S
C892 C885 1.492 . S
C893 H858 0.931 . S
C893 C871 1.420 1_655 S
C893 C894 1.351 . S
C894 H856 0.930 . S
C894 C862 1.423 . S
C894 C893 1.351 . S
C895 O879 1.276 . S
C895 O882 1.235 . S
C896 C897 1.393 . S
C896 C900 1.395 . S
C896 C903 1.492 . S
C897 C896 1.393 . S
C897 C898 1.392 . S
C897 H908 0.930 . S
C898 C897 1.392 . S
C898 C899 1.386 . S
C899 C898 1.386 . S
C899 C901 1.395 . S
C899 H909 0.930 . S
C900 C896 1.395 . S
C900 C901 1.379 . S
C900 H910 0.930 . S
C901 C899 1.395 . S
C901 C900 1.379 . S
C901 H911 0.930 . S
C902 O880 1.264 . S
C902 O881 1.254 . S
C903 Eu839 2.848 . S
C903 O878 1.257 . S
C903 O883 1.249 . S
C903 C896 1.492 . S
H904 C887 0.930 . S
H905 C888 0.930 . S
H906 C889 0.930 . S
H907 C890 0.930 . S
H908 C897 0.930 . S
H909 C899 0.930 . S
H910 C900 0.930 . S
H911 C901 0.930 . S
Eu912 N943 2.657 . S
Eu912 N950 2.609 . S
Eu912 O956 2.558 . S
Eu912 O957 2.612 . S
Eu912 O959 2.339 . S
Eu912 O960 2.563 . S
Eu912 O961 2.419 . S
Eu912 O963 2.380 . S
Eu912 O964 2.432 . S
Eu912 C976 2.848 . S
C913 C916 1.429 . S
C913 C917 1.411 . S
C913 N920 1.377 . S
C914 C916 1.420 . S
C914 C918 1.423 . S
C914 C926 1.392 . S
C915 C917 1.420 . S
C915 C918 1.351 . S
C915 H938 0.931 . S
C916 C913 1.429 . S
C916 C914 1.420 . S
C916 N924 1.362 . S
C917 C913 1.411 . S
C917 C915 1.420 . S
C917 C922 1.395 . S
C918 C914 1.423 . S
C918 C915 1.351 . S
C918 H930 0.930 . S
C919 C921 1.400 . S
C919 C922 1.386 . S
C919 H931 0.930 . S
N920 C913 1.377 . S
N920 C921 1.321 . S
N920 Eu923 2.609 . S
C921 C919 1.400 . S
C921 N920 1.321 . S
C921 H928 0.930 . S
C922 C917 1.395 . S
C922 C919 1.386 . S
C922 H941 0.930 . S
Eu923 N920 2.609 . S
Eu923 N924 2.657 . S
Eu923 O957 2.380 . S
Eu923 O958 2.432 . S
Eu923 O962 2.558 . S
Eu923 O963 2.612 . S
Eu923 O965 2.339 . S
Eu923 O966 2.563 . S
Eu923 O967 2.419 . S
Eu923 C987 2.848 . S
N924 C916 1.362 . S
N924 Eu923 2.657 . S
N924 C925 1.334 . S
C925 N924 1.334 . S
C925 C927 1.413 . S
C925 H932 0.929 . S
C926 C914 1.392 . S
C926 C927 1.367 . S
C926 H934 0.930 . S
C927 C925 1.413 . S
C927 C926 1.367 . S
C927 H929 0.930 . S
H928 C921 0.930 . S
H929 C927 0.930 . S
H930 C918 0.930 . S
H931 C919 0.930 . S
H932 C925 0.929 . S
H933 C947 0.930 . S
H934 C926 0.930 . S
H935 C953 0.930 . S
H936 C944 0.929 . S
H937 C951 0.930 1_545 S
H938 C915 0.931 . S
H939 C945 0.930 . S
H940 C978 0.930 . S
H941 C922 0.930 . S
H942 C977 0.931 . S
N943 Eu912 2.657 . S
N943 C944 1.334 . S
N943 C948 1.362 . S
C944 H936 0.929 . S
C944 N943 1.334 . S
C944 C947 1.413 . S
C945 H939 0.930 . S
C945 C946 1.392 . S
C945 C947 1.367 . S
C946 C945 1.392 . S
C946 C948 1.420 . S
C946 C978 1.423 . S
C947 H933 0.930 . S
C947 C944 1.413 . S
C947 C945 1.367 . S
C948 N943 1.362 . S
C948 C946 1.420 . S
C948 C952 1.429 . S
H949 C954 0.930 . S
N950 Eu912 2.609 . S
N950 C952 1.377 . S
N950 C953 1.321 . S
C951 H937 0.930 1_565 S
C951 C953 1.400 . S
C951 C954 1.386 . S
C952 C948 1.429 . S
C952 N950 1.377 . S
C952 C955 1.411 . S
C953 H935 0.930 . S
C953 N950 1.321 . S
C953 C951 1.400 . S
C954 H949 0.930 . S
C954 C951 1.386 . S
C954 C955 1.395 . S
C955 C952 1.411 . S
C955 C954 1.395 . S
C955 C977 1.420 . S
O956 Eu912 2.558 . S
O956 C976 1.257 . S
O957 Eu912 2.612 . S
O957 Eu923 2.380 . S
O957 C968 1.276 . S
O958 Eu923 2.432 . S
O958 C975 1.264 . S
O959 Eu912 2.339 . S
O959 C975 1.254 . S
O960 Eu912 2.563 . S
O960 C968 1.235 . S
O961 Eu912 2.419 . S
O961 C976 1.249 . S
O962 Eu923 2.558 . S
O962 C987 1.257 . S
O963 Eu912 2.380 . S
O963 Eu923 2.612 . S
O963 C979 1.276 . S
O964 Eu912 2.432 . S
O964 C986 1.264 . S
O965 Eu923 2.339 . S
O965 C986 1.254 . S
O966 Eu923 2.563 . S
O966 C979 1.235 . S
O967 Eu923 2.419 . S
O967 C987 1.249 . S
C968 O957 1.276 . S
C968 O960 1.235 . S
C969 C971 1.393 . S
C969 C973 1.395 . S
C969 C976 1.492 . S
C970 C971 1.392 . S
C970 C972 1.386 . S
C971 C969 1.393 . S
C971 C970 1.392 . S
C971 H988 0.930 . S
C972 C970 1.386 . S
C972 C974 1.395 . S
C972 H989 0.930 . S
C973 C969 1.395 . S
C973 C974 1.379 . S
C973 H990 0.930 . S
C974 C972 1.395 . S
C974 C973 1.379 . S
C974 H991 0.930 . S
C975 O958 1.264 . S
C975 O959 1.254 . S
C976 Eu912 2.848 . S
C976 O956 1.257 . S
C976 O961 1.249 . S
C976 C969 1.492 . S
C977 H942 0.931 . S
C977 C955 1.420 . S
C977 C978 1.351 . S
C978 H940 0.930 . S
C978 C946 1.423 . S
C978 C977 1.351 . S
C979 O963 1.276 . S
C979 O966 1.235 . S
C980 C981 1.393 . S
C980 C984 1.395 . S
C980 C987 1.492 . S
C981 C980 1.393 . S
C981 C982 1.392 . S
C981 H992 0.930 . S
C982 C981 1.392 . S
C982 C983 1.386 . S
C983 C982 1.386 . S
C983 C985 1.395 . S
C983 H993 0.930 . S
C984 C980 1.395 . S
C984 C985 1.379 . S
C984 H994 0.930 . S
C985 C983 1.395 . S
C985 C984 1.379 . S
C985 H995 0.930 . S
C986 O964 1.264 . S
C986 O965 1.254 . S
C987 Eu923 2.848 . S
C987 O962 1.257 . S
C987 O967 1.249 . S
C987 C980 1.492 . S
H988 C971 0.930 . S
H989 C972 0.930 . S
H990 C973 0.930 . S
H991 C974 0.930 . S
H992 C981 0.930 . S
H993 C983 0.930 . S
H994 C984 0.930 . S
H995 C985 0.930 . S
Eu996 N1027 2.657 . S
Eu996 N1034 2.609 . S
Eu996 O1040 2.558 . S
Eu996 O1041 2.612 . S
Eu996 O1043 2.339 . S
Eu996 O1044 2.563 . S
Eu996 O1045 2.419 . S
Eu996 O1047 2.380 . S
Eu996 O1048 2.432 . S
Eu996 C1060 2.848 . S
C997 C1000 1.429 . S
C997 C1001 1.411 . S
C997 N1004 1.377 . S
C998 C1000 1.420 1_655 S
C998 C1002 1.423 . S
C998 C1010 1.392 . S
C999 C1001 1.420 1_655 S
C999 C1002 1.351 . S
C999 H1022 0.931 . S
C1000 C997 1.429 . S
C1000 C998 1.420 1_455 S
C1000 N1008 1.362 . S
C1001 C997 1.411 . S
C1001 C999 1.420 1_455 S
C1001 C1006 1.395 . S
C1002 C998 1.423 . S
C1002 C999 1.351 . S
C1002 H1014 0.930 . S
C1003 C1005 1.400 . S
C1003 C1006 1.386 . S
C1003 H1015 0.930 1_565 S
N1004 C997 1.377 . S
N1004 C1005 1.321 . S
N1004 Eu1007 2.609 . S
C1005 C1003 1.400 . S
C1005 N1004 1.321 . S
C1005 H1012 0.930 . S
C1006 C1001 1.395 . S
C1006 C1003 1.386 . S
C1006 H1025 0.930 . S
Eu1007 N1004 2.609 . S
Eu1007 N1008 2.657 . S
Eu1007 O1041 2.380 . S
Eu1007 O1042 2.432 . S
Eu1007 O1046 2.558 . S
Eu1007 O1047 2.612 . S
Eu1007 O1049 2.339 . S
Eu1007 O1050 2.563 . S
Eu1007 O1051 2.419 . S
Eu1007 C1071 2.848 . S
N1008 C1000 1.362 . S
N1008 Eu1007 2.657 . S
N1008 C1009 1.334 . S
C1009 N1008 1.334 . S
C1009 C1011 1.413 1_455 S
C1009 H1016 0.929 . S
C1010 C998 1.392 . S
C1010 C1011 1.367 . S
C1010 H1018 0.930 . S
C1011 C1009 1.413 1_655 S
C1011 C1010 1.367 . S
C1011 H1013 0.930 . S
H1012 C1005 0.930 . S
H1013 C1011 0.930 . S
H1014 C1002 0.930 . S
H1015 C1003 0.930 1_545 S
H1016 C1009 0.929 . S
H1017 C1031 0.930 . S
H1018 C1010 0.930 . S
H1019 C1037 0.930 . S
H1020 C1028 0.929 . S
H1021 C1035 0.930 . S
H1022 C999 0.931 . S
H1023 C1029 0.930 . S
H1024 C1062 0.930 . S
H1025 C1006 0.930 . S
H1026 C1061 0.931 . S
N1027 Eu996 2.657 . S
N1027 C1028 1.334 . S
N1027 C1032 1.362 . S
C1028 H1020 0.929 . S
C1028 N1027 1.334 . S
C1028 C1031 1.413 . S
C1029 H1023 0.930 . S
C1029 C1030 1.392 . S
C1029 C1031 1.367 . S
C1030 C1029 1.392 . S
C1030 C1032 1.420 . S
C1030 C1062 1.423 . S
C1031 H1017 0.930 . S
C1031 C1028 1.413 . S
C1031 C1029 1.367 . S
C1032 N1027 1.362 . S
C1032 C1030 1.420 . S
C1032 C1036 1.429 . S
H1033 C1038 0.930 . S
N1034 Eu996 2.609 . S
N1034 C1036 1.377 . S
N1034 C1037 1.321 . S
C1035 H1021 0.930 . S
C1035 C1037 1.400 . S
C1035 C1038 1.386 . S
C1036 C1032 1.429 . S
C1036 N1034 1.377 . S
C1036 C1039 1.411 . S
C1037 H1019 0.930 . S
C1037 N1034 1.321 . S
C1037 C1035 1.400 . S
C1038 H1033 0.930 . S
C1038 C1035 1.386 . S
C1038 C1039 1.395 . S
C1039 C1036 1.411 . S
C1039 C1038 1.395 . S
C1039 C1061 1.420 . S
O1040 Eu996 2.558 . S
O1040 C1060 1.257 . S
O1041 Eu996 2.612 . S
O1041 Eu1007 2.380 . S
O1041 C1052 1.276 . S
O1042 Eu1007 2.432 . S
O1042 C1059 1.264 . S
O1043 Eu996 2.339 . S
O1043 C1059 1.254 . S
O1044 Eu996 2.563 . S
O1044 C1052 1.235 . S
O1045 Eu996 2.419 . S
O1045 C1060 1.249 . S
O1046 Eu1007 2.558 . S
O1046 C1071 1.257 . S
O1047 Eu996 2.380 . S
O1047 Eu1007 2.612 . S
O1047 C1063 1.276 . S
O1048 Eu996 2.432 . S
O1048 C1070 1.264 . S
O1049 Eu1007 2.339 . S
O1049 C1070 1.254 . S
O1050 Eu1007 2.563 . S
O1050 C1063 1.235 . S
O1051 Eu1007 2.419 . S
O1051 C1071 1.249 . S
C1052 O1041 1.276 . S
C1052 O1044 1.235 . S
C1053 C1055 1.393 . S
C1053 C1057 1.395 . S
C1053 C1060 1.492 . S
C1054 C1055 1.392 . S
C1054 C1056 1.386 . S
C1055 C1053 1.393 . S
C1055 C1054 1.392 . S
C1055 H1072 0.930 . S
C1056 C1054 1.386 . S
C1056 C1058 1.395 . S
C1056 H1073 0.930 . S
C1057 C1053 1.395 . S
C1057 C1058 1.379 . S
C1057 H1074 0.930 . S
C1058 C1056 1.395 . S
C1058 C1057 1.379 . S
C1058 H1075 0.930 . S
C1059 O1042 1.264 . S
C1059 O1043 1.254 . S
C1060 Eu996 2.848 . S
C1060 O1040 1.257 . S
C1060 O1045 1.249 . S
C1060 C1053 1.492 . S
C1061 H1026 0.931 . S
C1061 C1039 1.420 . S
C1061 C1062 1.351 . S
C1062 H1024 0.930 . S
C1062 C1030 1.423 . S
C1062 C1061 1.351 . S
C1063 O1047 1.276 . S
C1063 O1050 1.235 . S
C1064 C1065 1.393 . S
C1064 C1068 1.395 . S
C1064 C1071 1.492 . S
C1065 C1064 1.393 . S
C1065 C1066 1.392 . S
C1065 H1076 0.930 . S
C1066 C1065 1.392 . S
C1066 C1067 1.386 . S
C1067 C1066 1.386 . S
C1067 C1069 1.395 . S
C1067 H1077 0.930 . S
C1068 C1064 1.395 . S
C1068 C1069 1.379 . S
C1068 H1078 0.930 . S
C1069 C1067 1.395 . S
C1069 C1068 1.379 . S
C1069 H1079 0.930 . S
C1070 O1048 1.264 . S
C1070 O1049 1.254 . S
C1071 Eu1007 2.848 . S
C1071 O1046 1.257 . S
C1071 O1051 1.249 . S
C1071 C1064 1.492 . S
H1072 C1055 0.930 . S
H1073 C1056 0.930 . S
H1074 C1057 0.930 . S
H1075 C1058 0.930 . S
H1076 C1065 0.930 . S
H1077 C1067 0.930 . S
H1078 C1068 0.930 . S
H1079 C1069 0.930 . S
Eu1080 N1111 2.657 . S
Eu1080 N1118 2.609 . S
Eu1080 O1124 2.558 . S
Eu1080 O1125 2.612 . S
Eu1080 O1127 2.339 . S
Eu1080 O1128 2.563 . S
Eu1080 O1129 2.419 . S
Eu1080 O1131 2.380 . S
Eu1080 O1132 2.432 . S
Eu1080 C1144 2.848 . S
C1081 C1084 1.429 . S
C1081 C1085 1.411 . S
C1081 N1088 1.377 . S
C1082 C1084 1.420 1_455 S
C1082 C1086 1.423 . S
C1082 C1094 1.392 . S
C1083 C1085 1.420 1_455 S
C1083 C1086 1.351 . S
C1083 H1106 0.931 . S
C1084 C1081 1.429 . S
C1084 C1082 1.420 1_655 S
C1084 N1092 1.362 . S
C1085 C1081 1.411 . S
C1085 C1083 1.420 1_655 S
C1085 C1090 1.395 . S
C1086 C1082 1.423 . S
C1086 C1083 1.351 . S
C1086 H1098 0.930 . S
C1087 C1089 1.400 . S
C1087 C1090 1.386 . S
C1087 H1099 0.930 . S
N1088 C1081 1.377 . S
N1088 C1089 1.321 . S
N1088 Eu1091 2.609 . S
C1089 C1087 1.400 . S
C1089 N1088 1.321 . S
C1089 H1096 0.930 . S
C1090 C1085 1.395 . S
C1090 C1087 1.386 . S
C1090 H1109 0.930 . S
Eu1091 N1088 2.609 . S
Eu1091 N1092 2.657 . S
Eu1091 O1125 2.380 . S
Eu1091 O1126 2.432 . S
Eu1091 O1130 2.558 . S
Eu1091 O1131 2.612 . S
Eu1091 O1133 2.339 . S
Eu1091 O1134 2.563 . S
Eu1091 O1135 2.419 . S
Eu1091 C1155 2.848 . S
N1092 C1084 1.362 . S
N1092 Eu1091 2.657 . S
N1092 C1093 1.334 . S
C1093 N1092 1.334 . S
C1093 C1095 1.413 1_655 S
C1093 H1100 0.929 . S
C1094 C1082 1.392 . S
C1094 C1095 1.367 . S
C1094 H1102 0.930 . S
C1095 C1093 1.413 1_455 S
C1095 C1094 1.367 . S
C1095 H1097 0.930 . S
H1096 C1089 0.930 . S
H1097 C1095 0.930 . S
H1098 C1086 0.930 . S
H1099 C1087 0.930 . S
H1100 C1093 0.929 . S
H1101 C1115 0.930 . S
H1102 C1094 0.930 . S
H1103 C1121 0.930 . S
H1104 C1112 0.929 . S
H1105 C1119 0.930 . S
H1106 C1083 0.931 . S
H1107 C1113 0.930 . S
H1108 C1146 0.930 . S
H1109 C1090 0.930 . S
H1110 C1145 0.931 . S
N1111 Eu1080 2.657 . S
N1111 C1112 1.334 . S
N1111 C1116 1.362 . S
C1112 H1104 0.929 . S
C1112 N1111 1.334 . S
C1112 C1115 1.413 . S
C1113 H1107 0.930 . S
C1113 C1114 1.392 . S
C1113 C1115 1.367 . S
C1114 C1113 1.392 . S
C1114 C1116 1.420 . S
C1114 C1146 1.423 . S
C1115 H1101 0.930 . S
C1115 C1112 1.413 . S
C1115 C1113 1.367 . S
C1116 N1111 1.362 . S
C1116 C1114 1.420 . S
C1116 C1120 1.429 . S
H1117 C1122 0.930 . S
N1118 Eu1080 2.609 . S
N1118 C1120 1.377 . S
N1118 C1121 1.321 . S
C1119 H1105 0.930 . S
C1119 C1121 1.400 . S
C1119 C1122 1.386 . S
C1120 C1116 1.429 . S
C1120 N1118 1.377 . S
C1120 C1123 1.411 . S
C1121 H1103 0.930 . S
C1121 N1118 1.321 . S
C1121 C1119 1.400 . S
C1122 H1117 0.930 . S
C1122 C1119 1.386 . S
C1122 C1123 1.395 . S
C1123 C1120 1.411 . S
C1123 C1122 1.395 . S
C1123 C1145 1.420 . S
O1124 Eu1080 2.558 . S
O1124 C1144 1.257 . S
O1125 Eu1080 2.612 . S
O1125 Eu1091 2.380 . S
O1125 C1136 1.276 . S
O1126 Eu1091 2.432 . S
O1126 C1143 1.264 . S
O1127 Eu1080 2.339 . S
O1127 C1143 1.254 . S
O1128 Eu1080 2.563 . S
O1128 C1136 1.235 . S
O1129 Eu1080 2.419 . S
O1129 C1144 1.249 . S
O1130 Eu1091 2.558 . S
O1130 C1155 1.257 . S
O1131 Eu1080 2.380 . S
O1131 Eu1091 2.612 . S
O1131 C1147 1.276 . S
O1132 Eu1080 2.432 . S
O1132 C1154 1.264 . S
O1133 Eu1091 2.339 . S
O1133 C1154 1.254 . S
O1134 Eu1091 2.563 . S
O1134 C1147 1.235 . S
O1135 Eu1091 2.419 . S
O1135 C1155 1.249 . S
C1136 O1125 1.276 . S
C1136 O1128 1.235 . S
C1137 C1139 1.393 . S
C1137 C1141 1.395 . S
C1137 C1144 1.492 . S
C1138 C1139 1.392 . S
C1138 C1140 1.386 . S
C1139 C1137 1.393 . S
C1139 C1138 1.392 . S
C1139 H1156 0.930 . S
C1140 C1138 1.386 . S
C1140 C1142 1.395 . S
C1140 H1157 0.930 . S
C1141 C1137 1.395 . S
C1141 C1142 1.379 . S
C1141 H1158 0.930 . S
C1142 C1140 1.395 . S
C1142 C1141 1.379 . S
C1142 H1159 0.930 . S
C1143 O1126 1.264 . S
C1143 O1127 1.254 . S
C1144 Eu1080 2.848 . S
C1144 O1124 1.257 . S
C1144 O1129 1.249 . S
C1144 C1137 1.492 . S
C1145 H1110 0.931 . S
C1145 C1123 1.420 . S
C1145 C1146 1.351 . S
C1146 H1108 0.930 . S
C1146 C1114 1.423 . S
C1146 C1145 1.351 . S
C1147 O1131 1.276 . S
C1147 O1134 1.235 . S
C1148 C1149 1.393 . S
C1148 C1152 1.395 . S
C1148 C1155 1.492 . S
C1149 C1148 1.393 . S
C1149 C1150 1.392 . S
C1149 H1160 0.930 . S
C1150 C1149 1.392 . S
C1150 C1151 1.386 . S
C1151 C1150 1.386 . S
C1151 C1153 1.395 . S
C1151 H1161 0.930 . S
C1152 C1148 1.395 . S
C1152 C1153 1.379 . S
C1152 H1162 0.930 . S
C1153 C1151 1.395 . S
C1153 C1152 1.379 . S
C1153 H1163 0.930 . S
C1154 O1132 1.264 . S
C1154 O1133 1.254 . S
C1155 Eu1091 2.848 . S
C1155 O1130 1.257 . S
C1155 O1135 1.249 . S
C1155 C1148 1.492 . S
H1156 C1139 0.930 . S
H1157 C1140 0.930 . S
H1158 C1141 0.930 . S
H1159 C1142 0.930 . S
H1160 C1149 0.930 . S
H1161 C1151 0.930 . S
H1162 C1152 0.930 . S
H1163 C1153 0.930 . S
Eu1164 N1195 2.657 . S
Eu1164 N1202 2.609 . S
Eu1164 O1208 2.558 . S
Eu1164 O1209 2.612 . S
Eu1164 O1211 2.339 . S
Eu1164 O1212 2.563 . S
Eu1164 O1213 2.419 . S
Eu1164 O1215 2.380 . S
Eu1164 O1216 2.432 . S
Eu1164 C1228 2.848 . S
C1165 C1168 1.429 . S
C1165 C1169 1.411 . S
C1165 N1172 1.377 . S
C1166 C1168 1.420 . S
C1166 C1170 1.423 . S
C1166 C1178 1.392 . S
C1167 C1169 1.420 . S
C1167 C1170 1.351 . S
C1167 H1190 0.931 . S
C1168 C1165 1.429 . S
C1168 C1166 1.420 . S
C1168 N1176 1.362 . S
C1169 C1165 1.411 . S
C1169 C1167 1.420 . S
C1169 C1174 1.395 . S
C1170 C1166 1.423 . S
C1170 C1167 1.351 . S
C1170 H1182 0.930 . S
C1171 C1173 1.400 . S
C1171 C1174 1.386 . S
C1171 H1183 0.930 1_545 S
N1172 C1165 1.377 . S
N1172 C1173 1.321 . S
N1172 Eu1175 2.609 . S
C1173 C1171 1.400 . S
C1173 N1172 1.321 . S
C1173 H1180 0.930 . S
C1174 C1169 1.395 . S
C1174 C1171 1.386 . S
C1174 H1193 0.930 . S
Eu1175 N1172 2.609 . S
Eu1175 N1176 2.657 . S
Eu1175 O1209 2.380 . S
Eu1175 O1210 2.432 . S
Eu1175 O1214 2.558 . S
Eu1175 O1215 2.612 . S
Eu1175 O1217 2.339 . S
Eu1175 O1218 2.563 . S
Eu1175 O1219 2.419 . S
Eu1175 C1239 2.848 . S
N1176 C1168 1.362 . S
N1176 Eu1175 2.657 . S
N1176 C1177 1.334 . S
C1177 N1176 1.334 . S
C1177 C1179 1.413 . S
C1177 H1184 0.929 . S
C1178 C1166 1.392 . S
C1178 C1179 1.367 . S
C1178 H1186 0.930 . S
C1179 C1177 1.413 . S
C1179 C1178 1.367 . S
C1179 H1181 0.930 . S
H1180 C1173 0.930 . S
H1181 C1179 0.930 . S
H1182 C1170 0.930 . S
H1183 C1171 0.930 1_565 S
H1184 C1177 0.929 . S
H1185 C1199 0.930 . S
H1186 C1178 0.930 . S
H1187 C1205 0.930 . S
H1188 C1196 0.929 . S
H1189 C1203 0.930 . S
H1190 C1167 0.931 . S
H1191 C1197 0.930 . S
H1192 C1230 0.930 . S
H1193 C1174 0.930 . S
H1194 C1229 0.931 . S
N1195 Eu1164 2.657 . S
N1195 C1196 1.334 . S
N1195 C1200 1.362 . S
C1196 H1188 0.929 . S
C1196 N1195 1.334 . S
C1196 C1199 1.413 . S
C1197 H1191 0.930 . S
C1197 C1198 1.392 . S
C1197 C1199 1.367 . S
C1198 C1197 1.392 . S
C1198 C1200 1.420 . S
C1198 C1230 1.423 . S
C1199 H1185 0.930 . S
C1199 C1196 1.413 . S
C1199 C1197 1.367 . S
C1200 N1195 1.362 . S
C1200 C1198 1.420 . S
C1200 C1204 1.429 . S
H1201 C1206 0.930 . S
N1202 Eu1164 2.609 . S
N1202 C1204 1.377 . S
N1202 C1205 1.321 . S
C1203 H1189 0.930 . S
C1203 C1205 1.400 . S
C1203 C1206 1.386 . S
C1204 C1200 1.429 . S
C1204 N1202 1.377 . S
C1204 C1207 1.411 . S
C1205 H1187 0.930 . S
C1205 N1202 1.321 . S
C1205 C1203 1.400 . S
C1206 H1201 0.930 . S
C1206 C1203 1.386 . S
C1206 C1207 1.395 . S
C1207 C1204 1.411 . S
C1207 C1206 1.395 . S
C1207 C1229 1.420 . S
O1208 Eu1164 2.558 . S
O1208 C1228 1.257 . S
O1209 Eu1164 2.612 . S
O1209 Eu1175 2.380 . S
O1209 C1220 1.276 . S
O1210 Eu1175 2.432 . S
O1210 C1227 1.264 . S
O1211 Eu1164 2.339 . S
O1211 C1227 1.254 . S
O1212 Eu1164 2.563 . S
O1212 C1220 1.235 . S
O1213 Eu1164 2.419 . S
O1213 C1228 1.249 . S
O1214 Eu1175 2.558 . S
O1214 C1239 1.257 . S
O1215 Eu1164 2.380 . S
O1215 Eu1175 2.612 . S
O1215 C1231 1.276 . S
O1216 Eu1164 2.432 . S
O1216 C1238 1.264 . S
O1217 Eu1175 2.339 . S
O1217 C1238 1.254 . S
O1218 Eu1175 2.563 . S
O1218 C1231 1.235 . S
O1219 Eu1175 2.419 . S
O1219 C1239 1.249 . S
C1220 O1209 1.276 . S
C1220 O1212 1.235 . S
C1221 C1223 1.393 . S
C1221 C1225 1.395 . S
C1221 C1228 1.492 . S
C1222 C1223 1.392 . S
C1222 C1224 1.386 . S
C1223 C1221 1.393 . S
C1223 C1222 1.392 . S
C1223 H1240 0.930 . S
C1224 C1222 1.386 . S
C1224 C1226 1.395 . S
C1224 H1241 0.930 . S
C1225 C1221 1.395 . S
C1225 C1226 1.379 . S
C1225 H1242 0.930 . S
C1226 C1224 1.395 . S
C1226 C1225 1.379 . S
C1226 H1243 0.930 . S
C1227 O1210 1.264 . S
C1227 O1211 1.254 . S
C1228 Eu1164 2.848 . S
C1228 O1208 1.257 . S
C1228 O1213 1.249 . S
C1228 C1221 1.492 . S
C1229 H1194 0.931 . S
C1229 C1207 1.420 . S
C1229 C1230 1.351 . S
C1230 H1192 0.930 . S
C1230 C1198 1.423 . S
C1230 C1229 1.351 . S
C1231 O1215 1.276 . S
C1231 O1218 1.235 . S
C1232 C1233 1.393 . S
C1232 C1236 1.395 . S
C1232 C1239 1.492 . S
C1233 C1232 1.393 . S
C1233 C1234 1.392 . S
C1233 H1244 0.930 . S
C1234 C1233 1.392 . S
C1234 C1235 1.386 . S
C1235 C1234 1.386 . S
C1235 C1237 1.395 . S
C1235 H1245 0.930 . S
C1236 C1232 1.395 . S
C1236 C1237 1.379 . S
C1236 H1246 0.930 . S
C1237 C1235 1.395 . S
C1237 C1236 1.379 . S
C1237 H1247 0.930 . S
C1238 O1216 1.264 . S
C1238 O1217 1.254 . S
C1239 Eu1175 2.848 . S
C1239 O1214 1.257 . S
C1239 O1219 1.249 . S
C1239 C1232 1.492 . S
H1240 C1223 0.930 . S
H1241 C1224 0.930 . S
H1242 C1225 0.930 . S
H1243 C1226 0.930 . S
H1244 C1233 0.930 . S
H1245 C1235 0.930 . S
H1246 C1236 0.930 . S
H1247 C1237 0.930 . S
Eu1248 N1279 2.657 . S
Eu1248 N1286 2.609 . S
Eu1248 O1292 2.558 . S
Eu1248 O1293 2.612 . S
Eu1248 O1295 2.339 . S
Eu1248 O1296 2.563 . S
Eu1248 O1297 2.419 . S
Eu1248 O1299 2.380 . S
Eu1248 O1300 2.432 . S
Eu1248 C1312 2.848 . S
C1249 C1252 1.429 . S
C1249 C1253 1.411 . S
C1249 N1256 1.377 . S
C1250 C1252 1.420 . S
C1250 C1254 1.423 . S
C1250 C1262 1.392 . S
C1251 C1253 1.420 . S
C1251 C1254 1.351 . S
C1251 H1274 0.931 . S
C1252 C1249 1.429 . S
C1252 C1250 1.420 . S
C1252 N1260 1.362 . S
C1253 C1249 1.411 . S
C1253 C1251 1.420 . S
C1253 C1258 1.395 . S
C1254 C1250 1.423 . S
C1254 C1251 1.351 . S
C1254 H1266 0.930 . S
C1255 C1257 1.400 . S
C1255 C1258 1.386 . S
C1255 H1267 0.930 . S
N1256 C1249 1.377 . S
N1256 C1257 1.321 . S
N1256 Eu1259 2.609 . S
C1257 C1255 1.400 . S
C1257 N1256 1.321 . S
C1257 H1264 0.930 . S
C1258 C1253 1.395 . S
C1258 C1255 1.386 . S
C1258 H1277 0.930 . S
Eu1259 N1256 2.609 . S
Eu1259 N1260 2.657 . S
Eu1259 O1293 2.380 . S
Eu1259 O1294 2.432 . S
Eu1259 O1298 2.558 . S
Eu1259 O1299 2.612 . S
Eu1259 O1301 2.339 . S
Eu1259 O1302 2.563 . S
Eu1259 O1303 2.419 . S
Eu1259 C1323 2.848 . S
N1260 C1252 1.362 . S
N1260 Eu1259 2.657 . S
N1260 C1261 1.334 . S
C1261 N1260 1.334 . S
C1261 C1263 1.413 . S
C1261 H1268 0.929 . S
C1262 C1250 1.392 . S
C1262 C1263 1.367 . S
C1262 H1270 0.930 . S
C1263 C1261 1.413 . S
C1263 C1262 1.367 . S
C1263 H1265 0.930 . S
H1264 C1257 0.930 . S
H1265 C1263 0.930 . S
H1266 C1254 0.930 . S
H1267 C1255 0.930 . S
H1268 C1261 0.929 . S
H1269 C1283 0.930 . S
H1270 C1262 0.930 . S
H1271 C1289 0.930 . S
H1272 C1280 0.929 . S
H1273 C1287 0.930 1_565 S
H1274 C1251 0.931 . S
H1275 C1281 0.930 . S
H1276 C1314 0.930 . S
H1277 C1258 0.930 . S
H1278 C1313 0.931 . S
N1279 Eu1248 2.657 . S
N1279 C1280 1.334 . S
N1279 C1284 1.362 . S
C1280 H1272 0.929 . S
C1280 N1279 1.334 . S
C1280 C1283 1.413 1_655 S
C1281 H1275 0.930 . S
C1281 C1282 1.392 . S
C1281 C1283 1.367 . S
C1282 C1281 1.392 . S
C1282 C1284 1.420 1_455 S
C1282 C1314 1.423 . S
C1283 H1269 0.930 . S
C1283 C1280 1.413 1_455 S
C1283 C1281 1.367 . S
C1284 N1279 1.362 . S
C1284 C1282 1.420 1_655 S
C1284 C1288 1.429 . S
H1285 C1290 0.930 . S
N1286 Eu1248 2.609 . S
N1286 C1288 1.377 . S
N1286 C1289 1.321 . S
C1287 H1273 0.930 1_545 S
C1287 C1289 1.400 . S
C1287 C1290 1.386 . S
C1288 C1284 1.429 . S
C1288 N1286 1.377 . S
C1288 C1291 1.411 . S
C1289 H1271 0.930 . S
C1289 N1286 1.321 . S
C1289 C1287 1.400 . S
C1290 H1285 0.930 . S
C1290 C1287 1.386 . S
C1290 C1291 1.395 . S
C1291 C1288 1.411 . S
C1291 C1290 1.395 . S
C1291 C1313 1.420 1_655 S
O1292 Eu1248 2.558 . S
O1292 C1312 1.257 . S
O1293 Eu1248 2.612 . S
O1293 Eu1259 2.380 . S
O1293 C1304 1.276 . S
O1294 Eu1259 2.432 . S
O1294 C1311 1.264 . S
O1295 Eu1248 2.339 . S
O1295 C1311 1.254 . S
O1296 Eu1248 2.563 . S
O1296 C1304 1.235 . S
O1297 Eu1248 2.419 . S
O1297 C1312 1.249 . S
O1298 Eu1259 2.558 . S
O1298 C1323 1.257 . S
O1299 Eu1248 2.380 . S
O1299 Eu1259 2.612 . S
O1299 C1315 1.276 . S
O1300 Eu1248 2.432 . S
O1300 C1322 1.264 . S
O1301 Eu1259 2.339 . S
O1301 C1322 1.254 . S
O1302 Eu1259 2.563 . S
O1302 C1315 1.235 . S
O1303 Eu1259 2.419 . S
O1303 C1323 1.249 . S
C1304 O1293 1.276 . S
C1304 O1296 1.235 . S
C1305 C1307 1.393 . S
C1305 C1309 1.395 . S
C1305 C1312 1.492 . S
C1306 C1307 1.392 . S
C1306 C1308 1.386 . S
C1307 C1305 1.393 . S
C1307 C1306 1.392 . S
C1307 H1324 0.930 . S
C1308 C1306 1.386 . S
C1308 C1310 1.395 . S
C1308 H1325 0.930 . S
C1309 C1305 1.395 . S
C1309 C1310 1.379 . S
C1309 H1326 0.930 . S
C1310 C1308 1.395 . S
C1310 C1309 1.379 . S
C1310 H1327 0.930 . S
C1311 O1294 1.264 . S
C1311 O1295 1.254 . S
C1312 Eu1248 2.848 . S
C1312 O1292 1.257 . S
C1312 O1297 1.249 . S
C1312 C1305 1.492 . S
C1313 H1278 0.931 . S
C1313 C1291 1.420 1_455 S
C1313 C1314 1.351 . S
C1314 H1276 0.930 . S
C1314 C1282 1.423 . S
C1314 C1313 1.351 . S
C1315 O1299 1.276 . S
C1315 O1302 1.235 . S
C1316 C1317 1.393 . S
C1316 C1320 1.395 . S
C1316 C1323 1.492 . S
C1317 C1316 1.393 . S
C1317 C1318 1.392 . S
C1317 H1328 0.930 . S
C1318 C1317 1.392 . S
C1318 C1319 1.386 . S
C1319 C1318 1.386 . S
C1319 C1321 1.395 . S
C1319 H1329 0.930 . S
C1320 C1316 1.395 . S
C1320 C1321 1.379 . S
C1320 H1330 0.930 . S
C1321 C1319 1.395 . S
C1321 C1320 1.379 . S
C1321 H1331 0.930 . S
C1322 O1300 1.264 . S
C1322 O1301 1.254 . S
C1323 Eu1259 2.848 . S
C1323 O1298 1.257 . S
C1323 O1303 1.249 . S
C1323 C1316 1.492 . S
H1324 C1307 0.930 . S
H1325 C1308 0.930 . S
H1326 C1309 0.930 . S
H1327 C1310 0.930 . S
H1328 C1317 0.930 . S
H1329 C1319 0.930 . S
H1330 C1320 0.930 . S
H1331 C1321 0.930 . S
C439 C643 1.318 . S
C465 C727 1.629 . S
C401 C807 1.580 . S
C369 C723 1.466 . S
C811 C305 1.538 . S
C343 C639 1.231 . S
C632 C375 1.605 . S
C716 C311 1.608 . S
C337 C818 1.372 . S
C433 C734 1.319 . S
C471 C800 1.518 . S
C650 C407 1.522 . S
C895 C55 1.318 . S
C81 C979 1.629 . S
C17 C1059 1.579 . S
C561 C975 1.466 . S
C497 C1063 1.538 . S
C535 C891 1.231 . S
C567 C884 1.604 . S
C503 C968 1.608 . S
C1070 C529 1.372 . S
C49 C986 1.319 . S
C1052 C87 1.518 . S
C23 C902 1.521 . S
C1147 C247 1.317 . S
C273 C1231 1.629 . S
C1311 C209 1.580 . S
C1227 C177 1.466 . S
C1315 C113 1.538 . S
C151 C1143 1.231 . S
C183 C1136 1.605 . S
C119 C1220 1.608 . S
C1322 C145 1.372 . S
C241 C1238 1.319 . S
C279 C1304 1.518 . S
C215 C1154 1.522 . S
C509 C646 1.417 . S
C730 C541 1.493 . S
C573 C802 1.288 . S
C221 C718 1.272 . S
C253 C814 1.590 . S
C634 C285 1.404 . S
C125 C898 1.417 . S
C157 C982 1.493 . S
C189 C1054 1.288 . S
C413 C970 1.272 . S
C1066 C445 1.591 . S
C477 C886 1.404 . S
C317 C1150 1.417 . S
C349 C1234 1.493 . S
C1306 C381 1.288 . S
C29 C1222 1.272 . S
C61 C1318 1.590 . S
C93 C1138 1.404 . S
