# Generated by pormake.
# Topology pto, (3,4)-cn, num edge types: 1
# Building blocks:
#     Node 0, Type 0, BuildingBlock: OLANEW_clean_sbu_2, # of connection points: 3
#     Node 1, Type 0, BuildingBlock: OLANEW_clean_sbu_2, # of connection points: 3
#     Node 2, Type 0, BuildingBlock: OLANEW_clean_sbu_2, # of connection points: 3
#     Node 3, Type 0, BuildingBlock: OLANEW_clean_sbu_2, # of connection points: 3
#     Node 4, Type 0, BuildingBlock: OLANEW_clean_sbu_2, # of connection points: 3
#     Node 5, Type 0, BuildingBlock: OLANEW_clean_sbu_2, # of connection points: 3
#     Node 6, Type 0, BuildingBlock: OLANEW_clean_sbu_2, # of connection points: 3
#     Node 7, Type 0, BuildingBlock: OLANEW_clean_sbu_2, # of connection points: 3
#     Node 8, Type 1, BuildingBlock: KUFVIS_clean_linker_0, # of connection points: 4
#     Node 9, Type 1, BuildingBlock: KUFVIS_clean_linker_0, # of connection points: 4
#     Node 10, Type 1, BuildingBlock: KUFVIS_clean_linker_0, # of connection points: 4
#     Node 11, Type 1, BuildingBlock: KUFVIS_clean_linker_0, # of connection points: 4
#     Node 12, Type 1, BuildingBlock: KUFVIS_clean_linker_0, # of connection points: 4
#     Node 13, Type 1, BuildingBlock: KUFVIS_clean_linker_0, # of connection points: 4
#     Edge 14, Type (0, 1), BuildingBlock: MIFKUJ_clean_linker_0, # of connection points: 2
#     Edge 15, Type (0, 1), BuildingBlock: MIFKUJ_clean_linker_0, # of connection points: 2
#     Edge 16, Type (0, 1), BuildingBlock: MIFKUJ_clean_linker_0, # of connection points: 2
#     Edge 17, Type (0, 1), BuildingBlock: MIFKUJ_clean_linker_0, # of connection points: 2
#     Edge 18, Type (0, 1), BuildingBlock: MIFKUJ_clean_linker_0, # of connection points: 2
#     Edge 19, Type (0, 1), BuildingBlock: MIFKUJ_clean_linker_0, # of connection points: 2
#     Edge 20, Type (0, 1), BuildingBlock: MIFKUJ_clean_linker_0, # of connection points: 2
#     Edge 21, Type (0, 1), BuildingBlock: MIFKUJ_clean_linker_0, # of connection points: 2
#     Edge 22, Type (0, 1), BuildingBlock: MIFKUJ_clean_linker_0, # of connection points: 2
#     Edge 23, Type (0, 1), BuildingBlock: MIFKUJ_clean_linker_0, # of connection points: 2
#     Edge 24, Type (0, 1), BuildingBlock: MIFKUJ_clean_linker_0, # of connection points: 2
#     Edge 25, Type (0, 1), BuildingBlock: MIFKUJ_clean_linker_0, # of connection points: 2
#     Edge 26, Type (0, 1), BuildingBlock: MIFKUJ_clean_linker_0, # of connection points: 2
#     Edge 27, Type (0, 1), BuildingBlock: MIFKUJ_clean_linker_0, # of connection points: 2
#     Edge 28, Type (0, 1), BuildingBlock: MIFKUJ_clean_linker_0, # of connection points: 2
#     Edge 29, Type (0, 1), BuildingBlock: MIFKUJ_clean_linker_0, # of connection points: 2
#     Edge 30, Type (0, 1), BuildingBlock: MIFKUJ_clean_linker_0, # of connection points: 2
#     Edge 31, Type (0, 1), BuildingBlock: MIFKUJ_clean_linker_0, # of connection points: 2
#     Edge 32, Type (0, 1), BuildingBlock: MIFKUJ_clean_linker_0, # of connection points: 2
#     Edge 33, Type (0, 1), BuildingBlock: MIFKUJ_clean_linker_0, # of connection points: 2
#     Edge 34, Type (0, 1), BuildingBlock: MIFKUJ_clean_linker_0, # of connection points: 2
#     Edge 35, Type (0, 1), BuildingBlock: MIFKUJ_clean_linker_0, # of connection points: 2
#     Edge 36, Type (0, 1), BuildingBlock: MIFKUJ_clean_linker_0, # of connection points: 2
#     Edge 37, Type (0, 1), BuildingBlock: MIFKUJ_clean_linker_0, # of connection points: 2
# Relax obj value: 0.007
# Max RMSD: 0.123
# Mean RMSD: 0.071
data_MOF--net-pto--node1-OLANEW_clean_sbu_2--node2-KUFVIS_clean_linker_0--edge1-MIFKUJ_clean_linker_0
_symmetry_space_group_name_H-M    P1
_symmetry_Int_Tables_number       1
_symmetry_cell_setting            triclinic
loop_
_symmetry_equiv_pos_as_xyz
'x, y, z'
_cell_length_a     38.763979
_cell_length_b     70.618391
_cell_length_c     54.865445
_cell_angle_alpha  92.451698
_cell_angle_beta   89.214602
_cell_angle_gamma 106.94533
loop_
_atom_site_label
_atom_site_type_symbol
_atom_site_fract_x
_atom_site_fract_y
_atom_site_fract_z
_atom_type_partial_charge
O0 O 0.36345 0.33564 0.30885 0.0
Cd1 Cd 0.35331 0.33535 0.35298 0.0
O2 O 0.35434 0.36481 0.30565 0.0
Cd3 Cd 0.33811 0.37 0.34293 0.0
O4 O 0.30667 0.38912 0.35714 0.0
C5 C 0.27934 0.38816 0.34408 0.0
O6 O 0.27194 0.37526 0.3255 0.0
C7 C 0.36234 0.34998 0.29591 0.0
C8 C 0.35131 0.29921 0.3729 0.0
O9 O 0.3222 0.30299 0.36696 0.0
O10 O 0.38135 0.31241 0.36923 0.0
O11 O 0.27244 0.85825 0.765 0.0
Cd12 Cd 0.24111 0.85388 0.72579 0.0
O13 O 0.31929 0.8515 0.74768 0.0
Cd14 Cd 0.28765 0.83543 0.71662 0.0
O15 O 0.25622 0.80714 0.69961 0.0
C16 C 0.25035 0.79216 0.71284 0.0
O17 O 0.26307 0.79472 0.73521 0.0
C18 C 0.30487 0.85768 0.76614 0.0
C19 C 0.25809 0.88993 0.70242 0.0
O20 O 0.22956 0.88428 0.7155 0.0
O21 O 0.27831 0.87848 0.70019 0.0
O22 O 0.82842 0.79523 0.33142 0.0
Cd23 Cd 0.81292 0.76674 0.30203 0.0
O24 O 0.86815 0.81468 0.30753 0.0
Cd25 Cd 0.85431 0.79386 0.27614 0.0
O26 O 0.82157 0.78797 0.24305 0.0
C27 C 0.7933 0.79356 0.24517 0.0
O28 O 0.78635 0.80098 0.26642 0.0
C29 C 0.85158 0.81184 0.32783 0.0
C30 C 0.83245 0.73322 0.3147 0.0
O31 O 0.85359 0.74679 0.30218 0.0
O32 O 0.80238 0.73572 0.32182 0.0
O33 O 0.77362 0.29716 0.61571 0.0
Cd34 Cd 0.73699 0.26223 0.61565 0.0
O35 O 0.76634 0.29944 0.6552 0.0
Cd36 Cd 0.77063 0.31275 0.69223 0.0
O37 O 0.76009 0.32094 0.72981 0.0
C38 C 0.73355 0.32782 0.73349 0.0
O39 O 0.71505 0.33036 0.71464 0.0
C40 C 0.77799 0.30779 0.63537 0.0
C41 C 0.77032 0.23208 0.61012 0.0
O42 O 0.76424 0.2412 0.59169 0.0
O43 O 0.76206 0.23775 0.63135 0.0
O44 O 0.69661 0.76919 0.60403 0.0
Cd45 Cd 0.67602 0.73402 0.61356 0.0
O46 O 0.70288 0.77519 0.6434 0.0
Cd47 Cd 0.70887 0.79265 0.67777 0.0
O48 O 0.69947 0.79969 0.71598 0.0
C49 C 0.67215 0.78793 0.72587 0.0
O50 O 0.65194 0.77293 0.71265 0.0
C51 C 0.70435 0.78165 0.62202 0.0
C52 C 0.72219 0.71112 0.60172 0.0
O53 O 0.69693 0.71157 0.58711 0.0
O54 O 0.72621 0.72192 0.62146 0.0
O55 O 0.86574 0.28075 0.33839 0.0
Cd56 Cd 0.86028 0.24876 0.31687 0.0
O57 O 0.82375 0.28111 0.31249 0.0
Cd58 Cd 0.79131 0.29461 0.29076 0.0
O59 O 0.76154 0.29999 0.25974 0.0
C60 C 0.77832 0.30524 0.23995 0.0
O61 O 0.81336 0.3081 0.23914 0.0
C62 C 0.8453 0.28984 0.32944 0.0
C63 C 0.84777 0.21459 0.34351 0.0
O64 O 0.87995 0.22504 0.33858 0.0
O65 O 0.82154 0.22075 0.33669 0.0
O66 O 0.20502 0.35325 0.77603 0.0
Cd67 Cd 0.17411 0.35346 0.73756 0.0
O68 O 0.22874 0.33294 0.75553 0.0
Cd69 Cd 0.26406 0.31418 0.74798 0.0
O70 O 0.29345 0.29432 0.73274 0.0
C71 C 0.28225 0.27585 0.73624 0.0
O72 O 0.25355 0.26903 0.7499 0.0
C73 C 0.22533 0.342 0.77556 0.0
C74 C 0.17006 0.39018 0.72332 0.0
O75 O 0.14562 0.37923 0.73679 0.0
O76 O 0.19707 0.38402 0.71715 0.0
O77 O 0.30456 0.86863 0.2816 0.0
Cd78 Cd 0.28247 0.87678 0.32135 0.0
O79 O 0.29407 0.83868 0.29464 0.0
Cd80 Cd 0.28694 0.80672 0.29416 0.0
O81 O 0.26945 0.77512 0.30129 0.0
C82 C 0.27704 0.76909 0.32148 0.0
O83 O 0.2967 0.78202 0.33745 0.0
C84 C 0.30471 0.85079 0.27767 0.0
C85 C 0.32263 0.91286 0.34266 0.0
O86 O 0.33106 0.8969 0.34594 0.0
O87 O 0.29562 0.9118 0.32889 0.0
H88 H 0.00186 0.4732 0.35143 0.0
H89 H 0.94526 0.51658 0.36319 0.0
H90 H 0.06176 0.53447 0.35524 0.0
H91 H 0.05954 0.55966 0.37876 0.0
H92 H 0.01357 0.60654 0.36656 0.0
H93 H 0.9518 0.54682 0.34864 0.0
C94 C 0.00252 0.48866 0.35351 0.0
C95 C 0.03558 0.50339 0.35365 0.0
C96 C 0.97008 0.4934 0.35621 0.0
C97 C 0.97059 0.51327 0.36029 0.0
C98 C 0.00374 0.52859 0.36036 0.0
C99 C 0.03603 0.52327 0.3566 0.0
C100 C 0.00513 0.55007 0.36366 0.0
C101 C 0.03685 0.56418 0.37264 0.0
C102 C 0.04015 0.58449 0.37343 0.0
C103 C 0.01091 0.5908 0.36651 0.0
C104 C 0.97901 0.57728 0.35796 0.0
C105 C 0.97603 0.55694 0.35646 0.0
H106 H 0.98593 0.62393 0.61317 0.0
H107 H 0.03808 0.58291 0.63832 0.0
H108 H 0.93717 0.56186 0.59859 0.0
H109 H 0.93189 0.53404 0.61771 0.0
H110 H 0.99668 0.49433 0.61924 0.0
H111 H 0.04875 0.55658 0.62203 0.0
C112 C 0.98672 0.60875 0.61423 0.0
C113 C 0.95801 0.59325 0.60489 0.0
C114 C 0.01595 0.60508 0.62567 0.0
C115 C 0.0159 0.58543 0.62854 0.0
C116 C 0.98794 0.56935 0.61853 0.0
C117 C 0.95885 0.57361 0.60681 0.0
C118 C 0.98997 0.54842 0.61942 0.0
C119 C 0.95843 0.53196 0.61811 0.0
C120 C 0.96105 0.5125 0.61728 0.0
C121 C 0.99485 0.50938 0.61887 0.0
C122 C 0.02612 0.52523 0.62131 0.0
C123 C 0.02383 0.54465 0.62116 0.0
H124 H 0.36307 0.16674 0.54222 0.0
H125 H 0.3827 0.11899 0.58004 0.0
H126 H 0.36234 0.1133 0.50219 0.0
H127 H 0.39947 0.09411 0.50404 0.0
H128 H 0.38629 0.03931 0.53887 0.0
H129 H 0.35451 0.08583 0.5768 0.0
C130 C 0.3661 0.15193 0.54196 0.0
C131 C 0.36267 0.14097 0.51989 0.0
C132 C 0.37305 0.14402 0.56367 0.0
C133 C 0.3765 0.12476 0.56321 0.0
C134 C 0.37303 0.11333 0.54109 0.0
C135 C 0.36601 0.12172 0.5194 0.0
C136 C 0.37695 0.09283 0.54063 0.0
C137 C 0.39093 0.08517 0.51979 0.0
C138 C 0.3942 0.06589 0.51904 0.0
C139 C 0.38472 0.05441 0.53961 0.0
C140 C 0.37085 0.0616 0.56055 0.0
C141 C 0.36641 0.08066 0.56085 0.0
H142 H 0.51477 0.81185 0.09632 0.0
H143 H 0.57992 0.82644 0.03213 0.0
H144 H 0.46707 0.82375 0.03087 0.0
H145 H 0.49029 0.8484 0.00356 0.0
H146 H 0.53734 0.84313 0.93325 0.0
H147 H 0.56374 0.81282 0.9928 0.0
C148 C 0.51735 0.81559 0.07728 0.0
C149 C 0.4873 0.8176 0.06496 0.0
C150 C 0.55081 0.81875 0.06563 0.0
C151 C 0.55385 0.82358 0.04098 0.0
C152 C 0.52382 0.82542 0.02804 0.0
C153 C 0.49059 0.82253 0.04037 0.0
C154 C 0.52738 0.83045 0.00181 0.0
C155 C 0.50801 0.84254 0.99207 0.0
C156 C 0.51169 0.84728 0.96737 0.0
C157 C 0.53512 0.84009 0.95253 0.0
C158 C 0.55389 0.82783 0.96167 0.0
C159 C 0.54987 0.82286 0.98617 0.0
H160 H 0.82247 0.07646 0.49714 0.0
H161 H 0.8301 0.03111 0.54454 0.0
H162 H 0.80643 0.01762 0.46752 0.0
H163 H 0.83624 0.99532 0.47331 0.0
H164 H 0.81173 0.94493 0.51823 0.0
H165 H 0.79498 0.99887 0.54673 0.0
C166 C 0.82162 0.06119 0.49983 0.0
C167 C 0.81471 0.04773 0.47993 0.0
C168 C 0.82701 0.05531 0.52312 0.0
C169 C 0.82526 0.03542 0.5265 0.0
C170 C 0.81834 0.02142 0.50649 0.0
C171 C 0.81277 0.02789 0.48316 0.0
C172 C 0.81694 1.00022 0.50983 0.0
C173 C 0.8269 0.9888 0.49056 0.0
C174 C 0.82388 0.96866 0.4932 0.0
C175 C 0.81335 0.96034 0.51576 0.0
C176 C 0.80323 0.97116 0.53498 0.0
C177 C 0.80447 0.99097 0.532 0.0
H178 H 0.52713 0.33332 0.08872 0.0
H179 H 0.55567 0.31511 0.0177 0.0
H180 H 0.47124 0.34386 0.02643 0.0
H181 H 0.44993 0.32455 0.99306 0.0
H182 H 0.4924 0.32217 0.92094 0.0
H183 H 0.56349 0.33088 0.98221 0.0
C184 C 0.52327 0.3322 0.06909 0.0
C185 C 0.49664 0.33919 0.05912 0.0
C186 C 0.54468 0.32362 0.05425 0.0
C187 C 0.5396 0.3223 0.0289 0.0
C188 C 0.51307 0.32952 0.0183 0.0
C189 C 0.49158 0.33798 0.03381 0.0
C190 C 0.50745 0.32782 0.99128 0.0
C191 C 0.47292 0.32532 0.98132 0.0
C192 C 0.4675 0.3233 0.95601 0.0
C193 C 0.49649 0.32335 0.94053 0.0
C194 C 0.531 0.32581 0.9499 0.0
C195 C 0.53651 0.32844 0.9752 0.0
H196 H 0.21859 0.38851 0.32011 0.0
H197 H 0.18664 0.41352 0.32334 0.0
H198 H 0.26047 0.4456 0.37926 0.0
H199 H 0.29263 0.42035 0.37634 0.0
H200 H 0.19047 0.44407 0.39 0.0
H201 H 0.27025 0.46259 0.32285 0.0
H202 H 0.30058 0.45753 0.28438 0.0
H203 H 0.19876 0.44009 0.24717 0.0
H204 H 0.16772 0.44476 0.2855 0.0
H205 H 0.09789 0.51725 0.3803 0.0
H206 H 0.14963 0.50382 0.37964 0.0
H207 H 0.09999 0.46241 0.32118 0.0
H208 H 0.04929 0.47623 0.32113 0.0
H209 H 0.1703 0.47531 0.31425 0.0
H210 H 0.09068 0.45072 0.38321 0.0
H211 H 0.06007 0.45482 0.42192 0.0
H212 H 0.16219 0.48363 0.45565 0.0
H213 H 0.19346 0.47989 0.41704 0.0
C214 C 0.22802 0.4008 0.33322 0.0
C215 C 0.25835 0.40251 0.34784 0.0
C216 C 0.20981 0.41516 0.33494 0.0
C217 C 0.22168 0.43165 0.35114 0.0
C218 C 0.2511 0.43307 0.36648 0.0
C219 C 0.26938 0.41863 0.3648 0.0
C220 C 0.20303 0.44726 0.35177 0.0
C221 C 0.1867 0.45126 0.37357 0.0
C222 C 0.19805 0.45657 0.3303 0.0
C223 C 0.21664 0.45394 0.3071 0.0
C224 C 0.25429 0.45756 0.3065 0.0
C225 C 0.27162 0.45477 0.28471 0.0
C226 C 0.25161 0.44847 0.26335 0.0
C227 C 0.21423 0.44498 0.26373 0.0
C228 C 0.19676 0.44773 0.28548 0.0
C229 C 0.09854 0.50562 0.36693 0.0
C230 C 0.06933 0.49758 0.351 0.0
C231 C 0.12791 0.49783 0.36673 0.0
C232 C 0.12834 0.48183 0.3507 0.0
C233 C 0.10021 0.47467 0.33381 0.0
C234 C 0.07109 0.48248 0.33392 0.0
C235 C 0.15645 0.47146 0.35223 0.0
C236 C 0.17471 0.46848 0.33081 0.0
C237 C 0.16318 0.46308 0.37403 0.0
C238 C 0.14434 0.46525 0.39719 0.0
C239 C 0.10657 0.45805 0.39884 0.0
C240 C 0.08911 0.46029 0.42076 0.0
C241 C 0.10913 0.46954 0.4412 0.0
C242 C 0.1467 0.47651 0.43979 0.0
C243 C 0.16432 0.47433 0.4179 0.0
H244 H 0.09552 0.47125 0.45815 0.0
H245 H 0.26507 0.44631 0.2465 0.0
H246 H 0.22317 0.78098 0.66684 0.0
H247 H 0.1874 0.74802 0.65209 0.0
H248 H 0.19362 0.72524 0.7231 0.0
H249 H 0.22999 0.758 0.73782 0.0
H250 H 0.20207 0.69938 0.68831 0.0
H251 H 0.11781 0.73628 0.70505 0.0
H252 H 0.09246 0.76436 0.70244 0.0
H253 H 0.08007 0.75365 0.62497 0.0
H254 H 0.10582 0.72566 0.62708 0.0
H255 H 0.04939 0.61188 0.67043 0.0
H256 H 0.09395 0.64252 0.68537 0.0
H257 H 0.09501 0.66742 0.61481 0.0
H258 H 0.05081 0.63703 0.59993 0.0
H259 H 0.08286 0.69173 0.65077 0.0
H260 H 0.16672 0.65411 0.63465 0.0
H261 H 0.19077 0.62564 0.63817 0.0
H262 H 0.20222 0.63712 0.71557 0.0
H263 H 0.17773 0.66551 0.71256 0.0
C264 C 0.21701 0.76895 0.6793 0.0
C265 C 0.22923 0.77217 0.70356 0.0
C266 C 0.19648 0.75011 0.67087 0.0
C267 C 0.1874 0.73419 0.68659 0.0
C268 C 0.20025 0.73728 0.71064 0.0
C269 C 0.22092 0.75607 0.71905 0.0
C270 C 0.16374 0.71445 0.67814 0.0
C271 C 0.17582 0.69766 0.68035 0.0
C272 C 0.12964 0.7122 0.66751 0.0
C273 C 0.11408 0.729 0.6662 0.0
C274 C 0.10994 0.74001 0.68744 0.0
C275 C 0.09545 0.75589 0.68605 0.0
C276 C 0.08475 0.76082 0.66355 0.0
C277 C 0.08842 0.74983 0.64239 0.0
C278 C 0.10294 0.73395 0.64367 0.0
C279 C 0.05977 0.62376 0.65804 0.0
C280 C 0.04641 0.62219 0.63412 0.0
C281 C 0.08514 0.64125 0.66657 0.0
C282 C 0.09766 0.6573 0.65121 0.0
C283 C 0.08551 0.65531 0.62703 0.0
C284 C 0.06026 0.63795 0.61856 0.0
C285 C 0.12138 0.6767 0.66057 0.0
C286 C 0.10915 0.69343 0.65867 0.0
C287 C 0.15515 0.67882 0.67159 0.0
C288 C 0.17003 0.66181 0.67341 0.0
C289 C 0.17407 0.65046 0.65245 0.0
C290 C 0.18784 0.63436 0.65435 0.0
C291 C 0.19792 0.62954 0.67709 0.0
C292 C 0.19435 0.64085 0.69797 0.0
C293 C 0.18055 0.65696 0.69618 0.0
H294 H 0.20857 0.61706 0.67852 0.0
H295 H 0.07353 0.77311 0.66252 0.0
H296 H 0.79618 0.70303 0.34369 0.0
H297 H 0.81075 0.67215 0.35061 0.0
H298 H 0.90414 0.69095 0.30418 0.0
H299 H 0.88989 0.72177 0.29722 0.0
H300 H 0.86249 0.6523 0.29333 0.0
H301 H 0.91299 0.69346 0.36522 0.0
H302 H 0.90977 0.71345 0.4027 0.0
H303 H 0.83166 0.66364 0.43289 0.0
H304 H 0.83406 0.64342 0.39542 0.0
H305 H 0.98339 0.59934 0.31861 0.0
H306 H 0.94702 0.62123 0.31046 0.0
H307 H 0.87495 0.59617 0.36912 0.0
H308 H 0.91299 0.57486 0.37805 0.0
H309 H 0.89319 0.63393 0.37473 0.0
H310 H 0.84753 0.59109 0.30667 0.0
H311 H 0.84866 0.57011 0.26976 0.0
H312 H 0.9122 0.62088 0.23254 0.0
H313 H 0.91192 0.64215 0.26933 0.0
C314 C 0.81993 0.70063 0.33506 0.0
C315 C 0.84191 0.7149 0.31992 0.0
C316 C 0.82822 0.68298 0.33906 0.0
C317 C 0.85855 0.67925 0.32792 0.0
C318 C 0.88054 0.69349 0.31289 0.0
C319 C 0.87245 0.71116 0.30903 0.0
C320 C 0.86752 0.66051 0.33162 0.0
C321 C 0.86939 0.64828 0.31109 0.0
C322 C 0.87485 0.65481 0.35495 0.0
C323 C 0.87336 0.66702 0.3774 0.0
C324 C 0.89487 0.68683 0.37975 0.0
C325 C 0.89325 0.69819 0.40101 0.0
C326 C 0.87043 0.68984 0.42013 0.0
C327 C 0.84925 0.6701 0.41805 0.0
C328 C 0.85074 0.65869 0.39681 0.0
C329 C 0.95914 0.59811 0.32924 0.0
C330 C 0.95079 0.58542 0.34883 0.0
C331 C 0.93817 0.61056 0.32452 0.0
C332 C 0.90786 0.61032 0.339 0.0
C333 C 0.89814 0.59665 0.35766 0.0
C334 C 0.91952 0.58429 0.36257 0.0
C335 C 0.88931 0.62588 0.33627 0.0
C336 C 0.88559 0.63758 0.35697 0.0
C337 C 0.87969 0.63092 0.31312 0.0
C338 C 0.87982 0.61821 0.29084 0.0
C339 C 0.86194 0.59778 0.29067 0.0
C340 C 0.8624 0.58583 0.26975 0.0
C341 C 0.88052 0.59416 0.24883 0.0
C342 C 0.89816 0.61446 0.24876 0.0
C343 C 0.8978 0.62647 0.26963 0.0
H344 H 0.88086 0.58488 0.23266 0.0
H345 H 0.86923 0.69865 0.43658 0.0
H346 H 0.8249 0.32761 0.60126 0.0
H347 H 0.85026 0.36337 0.59809 0.0
H348 H 0.7948 0.37296 0.66409 0.0
H349 H 0.76744 0.33729 0.66635 0.0
H350 H 0.78953 0.39843 0.63275 0.0
H351 H 0.88776 0.37835 0.66262 0.0
H352 H 0.93044 0.35845 0.66369 0.0
H353 H 0.9718 0.37872 0.59347 0.0
H354 H 0.92895 0.3985 0.59177 0.0
H355 H 0.90854 0.49937 0.65142 0.0
H356 H 0.86973 0.46507 0.65402 0.0
H357 H 0.90625 0.45088 0.58283 0.0
H358 H 0.94479 0.48498 0.58027 0.0
H359 H 0.9206 0.42836 0.61942 0.0
H360 H 0.82026 0.44885 0.59096 0.0
H361 H 0.77791 0.46901 0.59211 0.0
H362 H 0.74244 0.44896 0.66351 0.0
H363 H 0.78497 0.42888 0.66294 0.0
C364 C 0.81831 0.33732 0.61522 0.0
C365 C 0.79517 0.32948 0.6346 0.0
C366 C 0.83298 0.35779 0.61345 0.0
C367 C 0.82519 0.37094 0.63118 0.0
C368 C 0.80166 0.36316 0.65036 0.0
C369 C 0.78665 0.34267 0.65197 0.0
C370 C 0.84117 0.39275 0.6294 0.0
C371 C 0.81827 0.40499 0.63018 0.0
C372 C 0.87865 0.4014 0.62586 0.0
C373 C 0.90482 0.38973 0.62695 0.0
C374 C 0.90577 0.37845 0.64732 0.0
C375 C 0.92999 0.36719 0.64804 0.0
C376 C 0.95363 0.36722 0.62858 0.0
C377 C 0.95334 0.37865 0.60847 0.0
C378 C 0.92911 0.3899 0.60763 0.0
C379 C 0.90687 0.48912 0.63592 0.0
C380 C 0.92934 0.49475 0.61558 0.0
C381 C 0.88497 0.46951 0.63747 0.0
C382 C 0.88539 0.45539 0.6187 0.0
C383 C 0.90563 0.4615 0.59755 0.0
C384 C 0.92734 0.48101 0.59599 0.0
C385 C 0.86889 0.4339 0.62222 0.0
C386 C 0.89185 0.42175 0.62198 0.0
C387 C 0.83167 0.42547 0.62666 0.0
C388 C 0.8061 0.43753 0.62701 0.0
C389 C 0.80369 0.44889 0.60701 0.0
C390 C 0.77959 0.46027 0.60753 0.0
C391 C 0.75757 0.46031 0.6279 0.0
C392 C 0.75955 0.44893 0.64776 0.0
C393 C 0.78362 0.43754 0.64734 0.0
H394 H 0.73893 0.46913 0.62827 0.0
H395 H 0.97222 0.35841 0.62912 0.0
H396 H 0.40692 0.28318 0.37823 0.0
H397 H 0.40552 0.25273 0.39856 0.0
H398 H 0.29238 0.24255 0.41407 0.0
H399 H 0.29336 0.27278 0.39342 0.0
H400 H 0.3366 0.2408 0.45523 0.0
H401 H 0.31275 0.21441 0.37258 0.0
H402 H 0.32508 0.21289 0.32845 0.0
H403 H 0.4269 0.20302 0.34299 0.0
H404 H 0.4154 0.20477 0.38725 0.0
H405 H 0.30186 0.14986 0.50796 0.0
H406 H 0.29645 0.17314 0.47744 0.0
H407 H 0.40486 0.17817 0.45283 0.0
H408 H 0.40978 0.15435 0.48298 0.0
H409 H 0.36282 0.18212 0.41517 0.0
H410 H 0.3908 0.20956 0.49591 0.0
H411 H 0.38281 0.2118 0.54049 0.0
H412 H 0.27998 0.22185 0.53049 0.0
H413 H 0.28699 0.21922 0.4858 0.0
C414 C 0.38168 0.27439 0.38581 0.0
C415 C 0.35025 0.28039 0.38424 0.0
C416 C 0.38091 0.25697 0.39734 0.0
C417 C 0.34882 0.24539 0.40773 0.0
C418 C 0.31738 0.25129 0.40611 0.0
C419 C 0.31799 0.26852 0.39425 0.0
C420 C 0.34842 0.2276 0.42125 0.0
C421 C 0.34172 0.22783 0.44642 0.0
C422 C 0.35646 0.21103 0.40985 0.0
C423 C 0.36337 0.20992 0.38324 0.0
C424 C 0.33792 0.2121 0.36638 0.0
C425 C 0.34473 0.21116 0.34134 0.0
C426 C 0.3768 0.20792 0.33292 0.0
C427 C 0.40209 0.20556 0.34954 0.0
C428 C 0.39543 0.20651 0.3746 0.0
C429 C 0.32393 0.15539 0.49536 0.0
C430 C 0.35616 0.15037 0.49762 0.0
C431 C 0.32098 0.16878 0.4781 0.0
C432 C 0.35056 0.17774 0.46325 0.0
C433 C 0.38175 0.17148 0.46414 0.0
C434 C 0.38454 0.15786 0.48127 0.0
C435 C 0.3504 0.19519 0.44911 0.0
C436 C 0.35736 0.19501 0.42394 0.0
C437 C 0.34333 0.21205 0.46059 0.0
C438 C 0.33925 0.21398 0.48748 0.0
C439 C 0.36636 0.2121 0.5032 0.0
C440 C 0.36201 0.21345 0.5285 0.0
C441 C 0.33088 0.21693 0.53832 0.0
C442 C 0.30406 0.21912 0.52285 0.0
C443 C 0.30819 0.21769 0.49753 0.0
H444 H 0.32758 0.21798 0.55791 0.0
H445 H 0.38201 0.20719 0.31353 0.0
H446 H 0.37748 0.87278 0.772 0.0
H447 H 0.41148 0.87777 0.81008 0.0
H448 H 0.31196 0.85752 0.85042 0.0
H449 H 0.27783 0.85372 0.81242 0.0
H450 H 0.35536 0.88406 0.87697 0.0
H451 H 0.36664 0.82665 0.83247 0.0
H452 H 0.38045 0.8064 0.79807 0.0
H453 H 0.49117 0.84192 0.79947 0.0
H454 H 0.4779 0.8626 0.83362 0.0
H455 H 0.4384 0.839 0.96959 0.0
H456 H 0.40065 0.84849 0.93965 0.0
H457 H 0.49563 0.88755 0.90757 0.0
H458 H 0.53332 0.87845 0.93764 0.0
H459 H 0.45432 0.85272 0.87826 0.0
H460 H 0.4394 0.90816 0.9273 0.0
H461 H 0.42204 0.92421 0.96434 0.0
H462 H 0.3131 0.8867 0.95722 0.0
H463 H 0.32993 0.87021 0.92032 0.0
C464 C 0.36289 0.86968 0.78905 0.0
C465 C 0.32509 0.8627 0.78928 0.0
C466 C 0.38232 0.8724 0.8108 0.0
C467 C 0.3644 0.86745 0.83313 0.0
C468 C 0.3265 0.86135 0.83347 0.0
C469 C 0.30699 0.85915 0.81175 0.0
C470 C 0.38516 0.86763 0.8558 0.0
C471 C 0.3768 0.87705 0.87726 0.0
C472 C 0.41324 0.8585 0.85633 0.0
C473 C 0.42115 0.84634 0.83542 0.0
C474 C 0.39385 0.83028 0.82528 0.0
C475 C 0.4016 0.8187 0.80585 0.0
C476 C 0.43664 0.8229 0.79654 0.0
C477 C 0.46402 0.83871 0.80665 0.0
C478 C 0.45639 0.85037 0.82603 0.0
C479 C 0.45101 0.85035 0.95693 0.0
C480 C 0.48877 0.85781 0.95567 0.0
C481 C 0.42944 0.8557 0.93979 0.0
C482 C 0.44548 0.86855 0.92131 0.0
C483 C 0.48282 0.87759 0.92169 0.0
C484 C 0.50428 0.87238 0.93886 0.0
C485 C 0.42489 0.86939 0.89909 0.0
C486 C 0.43311 0.85991 0.87779 0.0
C487 C 0.39616 0.8779 0.89899 0.0
C488 C 0.38603 0.88781 0.92118 0.0
C489 C 0.41183 0.90318 0.93377 0.0
C490 C 0.40206 0.9124 0.95471 0.0
C491 C 0.36651 0.90644 0.96317 0.0
C492 C 0.34064 0.89128 0.95067 0.0
C493 C 0.35027 0.88201 0.92972 0.0
H494 H 0.359 0.9136 0.97938 0.0
H495 H 0.44259 0.81389 0.78155 0.0
H496 H 0.90079 0.8487 0.32721 0.0
H497 H 0.90147 0.8778 0.35332 0.0
H498 H 0.81229 0.84246 0.39475 0.0
H499 H 0.81145 0.8133 0.36888 0.0
H500 H 0.80069 0.8767 0.37712 0.0
H501 H 0.89389 0.85796 0.41961 0.0
H502 H 0.95175 0.85025 0.42246 0.0
H503 H 0.00814 0.90796 0.39768 0.0
H504 H 0.95052 0.91593 0.39437 0.0
H505 H 0.78075 0.93185 0.48083 0.0
H506 H 0.79107 0.90833 0.4502 0.0
H507 H 0.88747 0.95192 0.42657 0.0
H508 H 0.87819 0.97551 0.45857 0.0
H509 H 0.90011 0.91726 0.42991 0.0
H510 H 0.80952 0.93783 0.391 0.0
H511 H 0.75258 0.94633 0.38704 0.0
H512 H 0.69233 0.88664 0.40229 0.0
H513 H 0.74891 0.87782 0.40669 0.0
C514 C 0.88173 0.84702 0.34216 0.0
C515 C 0.85594 0.82865 0.34587 0.0
C516 C 0.88219 0.86368 0.35706 0.0
C517 C 0.85682 0.8623 0.37589 0.0
C518 C 0.83201 0.84385 0.38024 0.0
C519 C 0.83171 0.82716 0.3655 0.0
C520 C 0.85441 0.88024 0.3901 0.0
C521 C 0.82228 0.88548 0.38884 0.0
C522 C 0.88327 0.89223 0.40442 0.0
C523 C 0.91787 0.88745 0.40647 0.0
C524 C 0.91859 0.86894 0.41455 0.0
C525 C 0.95135 0.86454 0.4163 0.0
C526 C 0.98359 0.87858 0.41018 0.0
C527 C 0.98315 0.89709 0.40237 0.0
C528 C 0.95045 0.90156 0.40057 0.0
C529 C 0.80428 0.93651 0.4692 0.0
C530 C 0.82894 0.9555 0.47238 0.0
C531 C 0.80989 0.92308 0.45141 0.0
C532 C 0.83977 0.92838 0.43576 0.0
C533 C 0.86413 0.94751 0.43839 0.0
C534 C 0.85867 0.96102 0.45651 0.0
C535 C 0.84582 0.91338 0.4176 0.0
C536 C 0.87863 0.90869 0.41796 0.0
C537 C 0.81773 0.90202 0.40211 0.0
C538 C 0.78353 0.90719 0.39929 0.0
C539 C 0.78414 0.92654 0.39365 0.0
C540 C 0.75192 0.93141 0.39131 0.0
C541 C 0.71886 0.91704 0.39444 0.0
C542 C 0.71796 0.89775 0.39986 0.0
C543 C 0.7501 0.8928 0.40224 0.0
H544 H 0.69394 0.92085 0.39263 0.0
H545 H 0.00893 0.87515 0.41155 0.0
H546 H 0.76575 0.32445 0.77668 0.0
H547 H 0.74238 0.32712 0.81797 0.0
H548 H 0.6504 0.34084 0.78827 0.0
H549 H 0.67391 0.3387 0.74716 0.0
H550 H 0.67156 0.36248 0.8286 0.0
H551 H 0.64737 0.29316 0.80339 0.0
H552 H 0.66402 0.26334 0.78936 0.0
H553 H 0.72978 0.26827 0.85302 0.0
H554 H 0.71381 0.29828 0.86728 0.0
H555 H 0.53073 0.29955 0.91222 0.0
H556 H 0.57609 0.30209 0.88032 0.0
H557 H 0.64464 0.35461 0.91697 0.0
H558 H 0.59862 0.35237 0.94882 0.0
H559 H 0.64477 0.30221 0.87721 0.0
H560 H 0.68454 0.38674 0.872 0.0
H561 H 0.66069 0.41474 0.8834 0.0
H562 H 0.55239 0.37642 0.87628 0.0
H563 H 0.57558 0.34828 0.86459 0.0
C564 C 0.74077 0.32827 0.77898 0.0
C565 C 0.7215 0.33117 0.75861 0.0
C566 C 0.72742 0.32975 0.80259 0.0
C567 C 0.69439 0.33391 0.80621 0.0
C568 C 0.67595 0.33763 0.78595 0.0
C569 C 0.68937 0.3363 0.76241 0.0
C570 C 0.67755 0.3332 0.83075 0.0
C571 C 0.66615 0.3494 0.83938 0.0
C572 C 0.67019 0.31609 0.84478 0.0
C573 C 0.67978 0.29808 0.83623 0.0
C574 C 0.6656 0.28796 0.81429 0.0
C575 C 0.67487 0.27102 0.80632 0.0
C576 C 0.69805 0.26395 0.82025 0.0
C577 C 0.71191 0.27379 0.84222 0.0
C578 C 0.70275 0.29076 0.85026 0.0
C579 C 0.55562 0.31154 0.9136 0.0
C580 C 0.56098 0.32592 0.93279 0.0
C581 C 0.58165 0.31289 0.89547 0.0
C582 C 0.61357 0.32866 0.89611 0.0
C583 C 0.62 0.34243 0.91601 0.0
C584 C 0.59385 0.34108 0.93425 0.0
C585 C 0.63823 0.33133 0.8748 0.0
C586 C 0.65112 0.31551 0.86678 0.0
C587 C 0.64613 0.34857 0.86101 0.0
C588 C 0.63183 0.3654 0.86775 0.0
C589 C 0.65565 0.38433 0.87284 0.0
C590 C 0.64224 0.40021 0.87935 0.0
C591 C 0.60504 0.39733 0.88067 0.0
C592 C 0.58117 0.3786 0.87537 0.0
C593 C 0.59444 0.36268 0.86882 0.0
H594 H 0.59471 0.40964 0.88573 0.0
H595 H 0.70519 0.25083 0.81405 0.0
H596 H 0.32243 0.90925 0.6816 0.0
H597 H 0.33858 0.94122 0.66224 0.0
H598 H 0.23183 0.94618 0.67649 0.0
H599 H 0.21549 0.91423 0.69618 0.0
H600 H 0.25633 0.95474 0.6282 0.0
H601 H 0.29655 0.97383 0.71002 0.0
H602 H 0.32856 0.97237 0.74809 0.0
H603 H 0.42943 0.98672 0.70954 0.0
H604 H 0.39795 0.98797 0.67114 0.0
H605 H 0.30604 0.05222 0.5846 0.0
H606 H 0.28405 0.02595 0.61381 0.0
H607 H 0.38738 0.01438 0.61153 0.0
H608 H 0.40947 0.04068 0.5827 0.0
H609 H 0.35942 0.01091 0.65727 0.0
H610 H 0.32019 0.98766 0.57553 0.0
H611 H 0.28997 0.98817 0.53642 0.0
H612 H 0.18908 0.98063 0.57379 0.0
H613 H 0.21887 0.98037 0.61321 0.0
C614 C 0.30236 0.91713 0.68065 0.0
C615 C 0.26768 0.90921 0.69046 0.0
C616 C 0.31169 0.93544 0.66967 0.0
C617 C 0.28649 0.94613 0.66812 0.0
C618 C 0.25169 0.93818 0.67759 0.0
C619 C 0.24245 0.91995 0.68886 0.0
C620 C 0.29652 0.96545 0.65618 0.0
C621 C 0.27836 0.96718 0.63483 0.0
C622 C 0.32576 0.98151 0.66458 0.0
C623 C 0.34483 0.98083 0.68765 0.0
C624 C 0.32552 0.97651 0.70961 0.0
C625 C 0.34358 0.97575 0.73126 0.0
C626 C 0.381 0.97941 0.73122 0.0
C627 C 0.40044 0.98387 0.70954 0.0
C628 C 0.38251 0.98463 0.68783 0.0
C629 C 0.32427 0.0444 0.59087 0.0
C630 C 0.35935 0.04836 0.58129 0.0
C631 C 0.31163 0.02931 0.60738 0.0
C632 C 0.33392 0.018 0.61456 0.0
C633 C 0.36968 0.02285 0.60621 0.0
C634 C 0.38222 0.03782 0.58967 0.0
C635 C 0.31951 1.00012 0.62912 0.0
C636 C 0.33694 0.99861 0.6509 0.0
C637 C 0.28982 0.98418 0.62099 0.0
C638 C 0.27183 0.98425 0.59733 0.0
C639 C 0.29162 0.98628 0.57543 0.0
C640 C 0.27457 0.9865 0.5532 0.0
C641 C 0.23765 0.9845 0.55263 0.0
C642 C 0.21769 0.98223 0.57427 0.0
C643 C 0.23465 0.98204 0.59656 0.0
H644 H 0.22448 0.98466 0.5354 0.0
H645 H 0.39493 0.97881 0.74801 0.0
H646 H 0.80139 0.78144 0.19764 0.0
H647 H 0.76357 0.78272 0.1626 0.0
H648 H 0.69509 0.80648 0.20984 0.0
H649 H 0.73205 0.80493 0.24474 0.0
H650 H 0.65567 0.77906 0.1793 0.0
H651 H 0.76111 0.83608 0.17348 0.0
H652 H 0.82626 0.85285 0.16977 0.0
H653 H 0.82963 0.82043 0.10219 0.0
H654 H 0.76454 0.80328 0.10568 0.0
H655 H 0.57074 0.83327 0.11175 0.0
H656 H 0.61573 0.82602 0.13745 0.0
H657 H 0.64788 0.79367 0.07723 0.0
H658 H 0.60174 0.80035 0.0514 0.0
H659 H 0.70691 0.81985 0.10875 0.0
H660 H 0.59608 0.76773 0.11263 0.0
H661 H 0.53042 0.75353 0.11742 0.0
H662 H 0.53693 0.77797 0.19079 0.0
H663 H 0.60229 0.79319 0.18605 0.0
C664 C 0.7781 0.78679 0.20054 0.0
C665 C 0.7698 0.79314 0.22397 0.0
C666 C 0.75664 0.7876 0.18049 0.0
C667 C 0.72669 0.79487 0.18355 0.0
C668 C 0.71802 0.80079 0.20702 0.0
C669 C 0.73929 0.79994 0.22698 0.0
C670 C 0.7043 0.79673 0.16255 0.0
C671 C 0.66689 0.788 0.1639 0.0
C672 C 0.71904 0.80794 0.14209 0.0
C673 C 0.75811 0.81822 0.14 0.0
C674 C 0.77582 0.83241 0.15794 0.0
C675 C 0.81271 0.842 0.15586 0.0
C676 C 0.8321 0.83765 0.1358 0.0
C677 C 0.8146 0.82374 0.11775 0.0
C678 C 0.77772 0.81409 0.11976 0.0
C679 C 0.58738 0.82464 0.1039 0.0
C680 C 0.58215 0.81701 0.0797 0.0
C681 C 0.61324 0.82064 0.11857 0.0
C682 C 0.63468 0.80908 0.1093 0.0
C683 C 0.63143 0.80257 0.08468 0.0
C684 C 0.60517 0.80644 0.06996 0.0
C685 C 0.65834 0.80277 0.1261 0.0
C686 C 0.69584 0.81058 0.12391 0.0
C687 C 0.64368 0.79091 0.14601 0.0
C688 C 0.60416 0.78181 0.14887 0.0
C689 C 0.58345 0.77038 0.12965 0.0
C690 C 0.54622 0.76217 0.13234 0.0
C691 C 0.52943 0.76499 0.15432 0.0
C692 C 0.54986 0.77598 0.17367 0.0
C693 C 0.587 0.78446 0.17097 0.0
H694 H 0.50062 0.75857 0.15641 0.0
H695 H 0.86066 0.8451 0.13422 0.0
H696 H 0.76452 0.20226 0.64151 0.0
H697 H 0.78012 0.17143 0.63356 0.0
H698 H 0.82345 0.19186 0.56331 0.0
H699 H 0.80623 0.22223 0.57074 0.0
H700 H 0.78357 0.15692 0.55705 0.0
H701 H 0.87684 0.18726 0.61483 0.0
H702 H 0.9028 0.20361 0.65378 0.0
H703 H 0.84262 0.15279 0.69236 0.0
H704 H 0.81593 0.13623 0.65366 0.0
H705 H 0.87915 0.0905 0.52612 0.0
H706 H 0.87544 0.11989 0.54991 0.0
H707 H 0.78359 0.08437 0.5888 0.0
H708 H 0.78667 0.05482 0.56449 0.0
H709 H 0.84695 0.12518 0.61344 0.0
H710 H 0.75045 0.097 0.5524 0.0
H711 H 0.73126 0.08153 0.51175 0.0
H712 H 0.8053 0.13098 0.47789 0.0
H713 H 0.82564 0.14642 0.51838 0.0
C714 C 0.77786 0.20028 0.62452 0.0
C715 C 0.78406 0.21465 0.60671 0.0
C716 C 0.78694 0.18266 0.62002 0.0
C717 C 0.80326 0.17926 0.59787 0.0
C718 C 0.81071 0.194 0.58049 0.0
C719 C 0.80098 0.21142 0.58478 0.0
C720 C 0.81019 0.15987 0.59192 0.0
C721 C 0.79767 0.15018 0.56945 0.0
C722 C 0.82809 0.15069 0.60809 0.0
C723 C 0.8441 0.1606 0.63138 0.0
C724 C 0.86892 0.17964 0.63164 0.0
C725 C 0.88381 0.18893 0.65367 0.0
C726 C 0.87428 0.17927 0.67554 0.0
C727 C 0.84993 0.16027 0.67541 0.0
C728 C 0.83494 0.15092 0.65344 0.0
C729 C 0.85916 0.0888 0.5405 0.0
C730 C 0.83298 0.07047 0.54336 0.0
C731 C 0.85709 0.10559 0.55407 0.0
C732 C 0.82906 0.10428 0.57089 0.0
C733 C 0.80551 0.0856 0.57594 0.0
C734 C 0.80736 0.06873 0.56214 0.0
C735 C 0.82025 0.12262 0.57886 0.0
C736 C 0.83253 0.13204 0.60143 0.0
C737 C 0.80259 0.1318 0.56273 0.0
C738 C 0.7899 0.1227 0.53839 0.0
C739 C 0.76294 0.10443 0.53628 0.0
C740 C 0.75183 0.09568 0.51328 0.0
C741 C 0.76712 0.10521 0.49225 0.0
C742 C 0.79354 0.12354 0.49417 0.0
C743 C 0.80491 0.13229 0.51715 0.0
H744 H 0.75831 0.0984 0.4745 0.0
H745 H 0.88584 0.18648 0.69257 0.0
H746 H 0.38853 0.32338 0.26925 0.0
H747 H 0.4053 0.3245 0.22603 0.0
H748 H 0.37213 0.3773 0.21968 0.0
H749 H 0.35512 0.37628 0.26269 0.0
H750 H 0.35125 0.3518 0.17994 0.0
H751 H 0.45873 0.38197 0.22631 0.0
H752 H 0.50405 0.38392 0.25816 0.0
H753 H 0.52849 0.33312 0.22509 0.0
H754 H 0.48292 0.33069 0.19322 0.0
H755 H 0.51514 0.37341 0.0865 0.0
H756 H 0.4849 0.38 0.12399 0.0
H757 H 0.39772 0.32672 0.10923 0.0
H758 H 0.4276 0.32052 0.07138 0.0
H759 H 0.47834 0.35619 0.15956 0.0
H760 H 0.32354 0.32754 0.14315 0.0
H761 H 0.27958 0.32817 0.11135 0.0
H762 H 0.35236 0.38115 0.08391 0.0
H763 H 0.39655 0.381 0.11574 0.0
C764 C 0.38456 0.33513 0.25863 0.0
C765 C 0.37081 0.34982 0.2695 0.0
C766 C 0.39417 0.33578 0.23395 0.0
C767 C 0.39022 0.3511 0.21974 0.0
C768 C 0.37536 0.36537 0.23031 0.0
C769 C 0.36589 0.36479 0.25497 0.0
C770 C 0.40331 0.35286 0.19419 0.0
C771 C 0.37902 0.35275 0.17539 0.0
C772 C 0.43972 0.35461 0.1884 0.0
C773 C 0.46717 0.35604 0.20753 0.0
C774 C 0.47356 0.37112 0.22594 0.0
C775 C 0.49933 0.37233 0.24398 0.0
C776 C 0.51907 0.35862 0.24369 0.0
C777 C 0.51314 0.34371 0.22532 0.0
C778 C 0.48736 0.34241 0.20726 0.0
C779 C 0.48865 0.36371 0.09073 0.0
C780 C 0.47338 0.3466 0.07612 0.0
C781 C 0.47156 0.36734 0.11222 0.0
C782 C 0.43916 0.35378 0.11955 0.0
C783 C 0.42242 0.33754 0.10385 0.0
C784 C 0.43939 0.33402 0.08219 0.0
C785 C 0.42621 0.35485 0.14502 0.0
C786 C 0.45057 0.35538 0.16393 0.0
C787 C 0.39004 0.35382 0.15083 0.0
C788 C 0.36349 0.35414 0.13173 0.0
C789 C 0.33011 0.33937 0.1304 0.0
C790 C 0.30516 0.33964 0.11235 0.0
C791 C 0.31322 0.35466 0.09558 0.0
C792 C 0.34621 0.36948 0.09686 0.0
C793 C 0.37125 0.36929 0.11487 0.0
H794 H 0.29387 0.35483 0.08161 0.0
H795 H 0.53902 0.35959 0.25766 0.0
H796 H 0.7856 0.71232 0.62351 0.0
H797 H 0.82091 0.689 0.61746 0.0
H798 H 0.74457 0.6558 0.56346 0.0
H799 H 0.70984 0.67961 0.5688 0.0
H800 H 0.80503 0.65265 0.62695 0.0
H801 H 0.78614 0.62967 0.52401 0.0
H802 H 0.77855 0.64394 0.48487 0.0
H803 H 0.83049 0.70238 0.51473 0.0
H804 H 0.83884 0.68844 0.55391 0.0
H805 H 0.88625 0.57714 0.6149 0.0
H806 H 0.83803 0.59206 0.60679 0.0
H807 H 0.91211 0.63644 0.56459 0.0
H808 H 0.95959 0.62107 0.57166 0.0
H809 H 0.84742 0.63101 0.54778 0.0
H810 H 0.90343 0.64271 0.62711 0.0
H811 H 0.92178 0.63286 0.66635 0.0
H812 H 0.81081 0.60519 0.68434 0.0
H813 H 0.79186 0.61465 0.64499 0.0
C814 C 0.77655 0.70019 0.61013 0.0
C815 C 0.74493 0.6978 0.59664 0.0
C816 C 0.79669 0.6868 0.60674 0.0
C817 C 0.78549 0.67058 0.58999 0.0
C818 C 0.75415 0.66832 0.57622 0.0
C819 C 0.73424 0.68192 0.57934 0.0
C820 C 0.8059 0.65568 0.58798 0.0
C821 C 0.81406 0.64788 0.60956 0.0
C822 C 0.81797 0.64943 0.56537 0.0
C823 C 0.81263 0.65801 0.542 0.0
C824 C 0.79592 0.64556 0.52222 0.0
C825 C 0.79152 0.65359 0.50002 0.0
C826 C 0.8039 0.67406 0.49734 0.0
C827 C 0.82075 0.68654 0.51686 0.0
C828 C 0.82526 0.67858 0.53909 0.0
C829 C 0.89174 0.58956 0.60304 0.0
C830 C 0.92682 0.59824 0.59436 0.0
C831 C 0.86429 0.59819 0.59859 0.0
C832 C 0.87176 0.61577 0.58573 0.0
C833 C 0.90569 0.62304 0.57476 0.0
C834 C 0.93292 0.61431 0.57895 0.0
C835 C 0.84678 0.62828 0.58673 0.0
C836 C 0.8377 0.63556 0.56504 0.0
C837 C 0.83501 0.63472 0.6093 0.0
C838 C 0.84627 0.62917 0.63303 0.0
C839 C 0.88298 0.63443 0.63939 0.0
C840 C 0.89348 0.62892 0.66164 0.0
C841 C 0.86748 0.61835 0.6778 0.0
C842 C 0.83091 0.61333 0.67177 0.0
C843 C 0.82028 0.61875 0.6495 0.0
H844 H 0.87565 0.6141 0.69503 0.0
H845 H 0.80054 0.68024 0.48012 0.0
H846 H 0.79206 0.308 0.33439 0.0
H847 H 0.79926 0.34322 0.34336 0.0
H848 H 0.91449 0.35401 0.34878 0.0
H849 H 0.90701 0.31872 0.34106 0.0
H850 H 0.89741 0.37607 0.38051 0.0
H851 H 0.86879 0.36322 0.29506 0.0
H852 H 0.83248 0.34673 0.25944 0.0
H853 H 0.74295 0.36574 0.28637 0.0
H854 H 0.77879 0.38235 0.32221 0.0
H855 H 0.94435 0.47135 0.31564 0.0
H856 H 0.90664 0.43708 0.31477 0.0
H857 H 0.8834 0.443 0.39142 0.0
H858 H 0.92283 0.47728 0.39243 0.0
H859 H 0.84491 0.41241 0.32295 0.0
H860 H 0.89155 0.40287 0.41947 0.0
H861 H 0.93818 0.42052 0.44934 0.0
H862 H 0.00836 0.44699 0.39097 0.0
H863 H 0.96241 0.42924 0.36084 0.0
C864 C 0.81886 0.31794 0.3376 0.0
C865 C 0.84905 0.31073 0.33672 0.0
C866 C 0.823 0.33808 0.34266 0.0
C867 C 0.85752 0.35148 0.34623 0.0
C868 C 0.88753 0.34408 0.34613 0.0
C869 C 0.88329 0.32389 0.34166 0.0
C870 C 0.86291 0.37326 0.34926 0.0
C871 C 0.88558 0.38393 0.36802 0.0
C872 C 0.84789 0.38374 0.33291 0.0
C873 C 0.82629 0.3738 0.31143 0.0
C874 C 0.84128 0.36377 0.29345 0.0
C875 C 0.8208 0.35442 0.27322 0.0
C876 C 0.78534 0.35507 0.27071 0.0
C877 C 0.77037 0.36519 0.28837 0.0
C878 C 0.79078 0.37461 0.30862 0.0
C879 C 0.92985 0.46559 0.33203 0.0
C880 C 0.93652 0.47683 0.35411 0.0
C881 C 0.90832 0.44594 0.33157 0.0
C882 C 0.89296 0.43721 0.35319 0.0
C883 C 0.89564 0.44928 0.37462 0.0
C884 C 0.91774 0.46895 0.37515 0.0
C885 C 0.88004 0.41517 0.35381 0.0
C886 C 0.85592 0.40444 0.33579 0.0
C887 C 0.89516 0.40468 0.37005 0.0
C888 C 0.92337 0.41495 0.38799 0.0
C889 C 0.91701 0.41239 0.41306 0.0
C890 C 0.94331 0.4224 0.43002 0.0
C891 C 0.97615 0.43492 0.42208 0.0
C892 C 0.9829 0.43732 0.39714 0.0
C893 C 0.95676 0.42728 0.38011 0.0
H894 H 0.99633 0.44273 0.43528 0.0
H895 H 0.76953 0.3478 0.25504 0.0
H896 H 0.1139 0.40571 0.73103 0.0
H897 H 0.10319 0.43378 0.71124 0.0
H898 H 0.20536 0.44456 0.67401 0.0
H899 H 0.21645 0.41642 0.69382 0.0
H900 H 0.18867 0.47994 0.69018 0.0
H901 H 0.13593 0.41936 0.64391 0.0
H902 H 0.09908 0.38458 0.63797 0.0
H903 H 0.00476 0.4003 0.66197 0.0
H904 H 0.04118 0.43513 0.66846 0.0
H905 H 0.06068 0.50477 0.59184 0.0
H906 H 0.1027 0.48742 0.60542 0.0
H907 H 0.10695 0.51644 0.67664 0.0
H908 H 0.06579 0.53421 0.66275 0.0
H909 H 0.07924 0.46143 0.63821 0.0
H910 H 0.17827 0.51207 0.70924 0.0
H911 H 0.21605 0.54677 0.71389 0.0
H912 H 0.22081 0.55133 0.63606 0.0
H913 H 0.18352 0.51658 0.6309 0.0
C914 C 0.1344 0.4142 0.71893 0.0
C915 C 0.16585 0.40869 0.71379 0.0
C916 C 0.12822 0.43025 0.70764 0.0
C917 C 0.1533 0.44107 0.69096 0.0
C918 C 0.18568 0.43636 0.68682 0.0
C919 C 0.19187 0.42023 0.69808 0.0
C920 C 0.14403 0.45608 0.67639 0.0
C921 C 0.16486 0.47599 0.67871 0.0
C922 C 0.11347 0.45075 0.66099 0.0
C923 C 0.09138 0.42983 0.65689 0.0
C924 C 0.10739 0.41538 0.64811 0.0
C925 C 0.08657 0.39566 0.64462 0.0
C926 C 0.04963 0.39022 0.64967 0.0
C927 C 0.03339 0.40452 0.65811 0.0
C928 C 0.05411 0.42426 0.66168 0.0
C929 C 0.07211 0.50815 0.60998 0.0
C930 C 0.06018 0.52077 0.62629 0.0
C931 C 0.09588 0.49815 0.6178 0.0
C932 C 0.10773 0.50045 0.64213 0.0
C933 C 0.09858 0.51457 0.65772 0.0
C934 C 0.0751 0.52477 0.64978 0.0
C935 C 0.12332 0.4856 0.65231 0.0
C936 C 0.10344 0.46556 0.64932 0.0
C937 C 0.15491 0.49088 0.6668 0.0
C938 C 0.17784 0.51172 0.66971 0.0
C939 C 0.18754 0.52043 0.6931 0.0
C940 C 0.20884 0.54013 0.69583 0.0
C941 C 0.22075 0.55126 0.67529 0.0
C942 C 0.21147 0.54271 0.65196 0.0
C943 C 0.19019 0.52301 0.64913 0.0
H944 H 0.2372 0.56652 0.67744 0.0
H945 H 0.03363 0.37493 0.64703 0.0
H946 H 0.28345 0.75194 0.36438 0.0
H947 H 0.25174 0.71831 0.37623 0.0
H948 H 0.20293 0.70526 0.30493 0.0
H949 H 0.23411 0.73887 0.29305 0.0
H950 H 0.15345 0.69564 0.33942 0.0
H951 H 0.26737 0.68443 0.32242 0.0
H952 H 0.33311 0.69043 0.32544 0.0
H953 H 0.32304 0.68012 0.40212 0.0
H954 H 0.25724 0.67432 0.39964 0.0
H955 H 0.10406 0.58637 0.35106 0.0
H956 H 0.15482 0.61633 0.34727 0.0
H957 H 0.10572 0.64705 0.40057 0.0
H958 H 0.05477 0.6172 0.40424 0.0
H959 H 0.20621 0.6468 0.37487 0.0
H960 H 0.09697 0.68672 0.37402 0.0
H961 H 0.03125 0.67873 0.36758 0.0
H962 H 0.03393 0.62967 0.31934 0.0
H963 H 0.0995 0.63738 0.32548 0.0
C964 C 0.26632 0.74184 0.35111 0.0
C965 C 0.26107 0.74815 0.32783 0.0
C966 C 0.24835 0.72258 0.35789 0.0
C967 C 0.22499 0.70926 0.34147 0.0
C968 C 0.22073 0.71532 0.31793 0.0
C969 C 0.23863 0.73454 0.31116 0.0
C970 C 0.20272 0.68958 0.34933 0.0
C971 C 0.16514 0.68504 0.34717 0.0
C972 C 0.21784 0.67561 0.35931 0.0
C973 C 0.25741 0.67915 0.36089 0.0
C974 C 0.2792 0.68362 0.33998 0.0
C975 C 0.31647 0.68695 0.34158 0.0
C976 C 0.33226 0.68571 0.36397 0.0
C977 C 0.31078 0.6811 0.3848 0.0
C978 C 0.27349 0.67778 0.3833 0.0
C979 C 0.10494 0.59923 0.3628 0.0
C980 C 0.07533 0.59961 0.37769 0.0
C981 C 0.13394 0.61635 0.36059 0.0
C982 C 0.13359 0.63398 0.37327 0.0
C983 C 0.10623 0.63363 0.39042 0.0
C984 C 0.07719 0.61659 0.39253 0.0
C985 C 0.15727 0.6532 0.36521 0.0
C986 C 0.19483 0.65759 0.36729 0.0
C987 C 0.14233 0.66696 0.35464 0.0
C988 C 0.10302 0.66253 0.35039 0.0
C989 C 0.08348 0.67427 0.36199 0.0
C990 C 0.04625 0.66975 0.35845 0.0
C991 C 0.02835 0.65362 0.34318 0.0
C992 C 0.0477 0.64205 0.33131 0.0
C993 C 0.08489 0.64647 0.33485 0.0
H994 H 0.99952 0.65014 0.34048 0.0
H995 H 0.36112 0.68828 0.36517 0.0
H996 H 0.67628 0.79909 0.58736 0.0
H997 H 0.6901 0.83436 0.57996 0.0
H998 H 0.7662 0.8479 0.63948 0.0
H999 H 0.75133 0.81251 0.64748 0.0
H1000 H 0.73306 0.87508 0.63982 0.0
H1001 H 0.79346 0.84716 0.57865 0.0
H1002 H 0.80136 0.82401 0.54559 0.0
H1003 H 0.72611 0.84108 0.50103 0.0
H1004 H 0.71735 0.86414 0.53397 0.0
H1005 H 0.84014 0.96328 0.57303 0.0
H1006 H 0.81878 0.93386 0.59756 0.0
H1007 H 0.71214 0.92287 0.56777 0.0
H1008 H 0.73326 0.95248 0.5437 0.0
H1009 H 0.76296 0.89575 0.55495 0.0
H1010 H 0.70662 0.92556 0.6195 0.0
H1011 H 0.70696 0.95009 0.65292 0.0
H1012 H 0.78595 0.93104 0.69129 0.0
H1013 H 0.78649 0.90659 0.65789 0.0
C1014 C 0.69589 0.8096 0.59891 0.0
C1015 C 0.71271 0.80308 0.618 0.0
C1016 C 0.70386 0.82977 0.59464 0.0
C1017 C 0.72973 0.84384 0.60886 0.0
C1018 C 0.74613 0.83737 0.62827 0.0
C1019 C 0.7376 0.81716 0.63284 0.0
C1020 C 0.74027 0.86515 0.60286 0.0
C1021 C 0.73993 0.87959 0.62129 0.0
C1022 C 0.74947 0.87118 0.57872 0.0
C1023 C 0.75447 0.85723 0.55889 0.0
C1024 C 0.77836 0.84585 0.56188 0.0
C1025 C 0.78303 0.83277 0.54315 0.0
C1026 C 0.76418 0.83104 0.52125 0.0
C1027 C 0.74065 0.84242 0.51802 0.0
C1028 C 0.73584 0.8555 0.53671 0.0
C1029 C 0.81165 0.95531 0.57302 0.0
C1030 C 0.78815 0.96022 0.55682 0.0
C1031 C 0.79953 0.93844 0.58688 0.0
C1032 C 0.76392 0.92625 0.58443 0.0
C1033 C 0.7396 0.93226 0.57011 0.0
C1034 C 0.75159 0.94924 0.55653 0.0
C1035 C 0.75465 0.90543 0.59168 0.0
C1036 C 0.7558 0.89113 0.57343 0.0
C1037 C 0.74726 0.89972 0.61599 0.0
C1038 C 0.74692 0.91441 0.63605 0.0
C1039 C 0.72439 0.92676 0.63492 0.0
C1040 C 0.72433 0.94061 0.6539 0.0
C1041 C 0.74655 0.94217 0.67418 0.0
C1042 C 0.76879 0.92984 0.67555 0.0
C1043 C 0.76896 0.91597 0.65661 0.0
H1044 H 0.74646 0.95289 0.68886 0.0
H1045 H 0.76785 0.82091 0.50676 0.0
H1046 H 0.70537 0.29397 0.23338 0.0
H1047 H 0.67249 0.2947 0.19595 0.0
H1048 H 0.77282 0.32056 0.15871 0.0
H1049 H 0.80611 0.31982 0.19615 0.0
H1050 H 0.71893 0.33914 0.15033 0.0
H1051 H 0.73264 0.27388 0.14657 0.0
H1052 H 0.72985 0.24131 0.1624 0.0
H1053 H 0.6153 0.22839 0.1719 0.0
H1054 H 0.61746 0.26101 0.15647 0.0
H1055 H 0.61644 0.33217 0.04303 0.0
H1056 H 0.66356 0.32587 0.06821 0.0
H1057 H 0.58198 0.29329 0.1174 0.0
H1058 H 0.53516 0.29909 0.09207 0.0
H1059 H 0.63583 0.27722 0.11426 0.0
H1060 H 0.62256 0.34311 0.12657 0.0
H1061 H 0.62237 0.37605 0.11346 0.0
H1062 H 0.73284 0.38809 0.09067 0.0
H1063 H 0.73349 0.35506 0.10336 0.0
C1064 C 0.7205 0.29989 0.21728 0.0
C1065 C 0.75837 0.30674 0.21769 0.0
C1066 C 0.70167 0.30018 0.19587 0.0
C1067 C 0.7203 0.3074 0.17451 0.0
C1068 C 0.75802 0.3148 0.17499 0.0
C1069 C 0.77695 0.31435 0.19638 0.0
C1070 C 0.70005 0.30737 0.15184 0.0
C1071 C 0.70139 0.32558 0.14205 0.0
C1072 C 0.67673 0.28967 0.14139 0.0
C1073 C 0.67526 0.26995 0.15049 0.0
C1074 C 0.70688 0.26415 0.15219 0.0
C1075 C 0.70541 0.24567 0.16107 0.0
C1076 C 0.67243 0.2328 0.16819 0.0
C1077 C 0.64083 0.23837 0.16639 0.0
C1078 C 0.64216 0.25685 0.15754 0.0
C1079 C 0.60866 0.32313 0.05879 0.0
C1080 C 0.57233 0.31634 0.06587 0.0
C1081 C 0.63553 0.31968 0.07325 0.0
C1082 C 0.62629 0.30947 0.09496 0.0
C1083 C 0.58979 0.30128 0.10082 0.0
C1084 C 0.56306 0.30468 0.08642 0.0
C1085 C 0.65406 0.30904 0.11307 0.0
C1086 C 0.65407 0.29074 0.1221 0.0
C1087 C 0.67823 0.32668 0.1231 0.0
C1088 C 0.67794 0.34655 0.1156 0.0
C1089 C 0.64672 0.35273 0.1186 0.0
C1090 C 0.64654 0.37142 0.11127 0.0
C1091 C 0.67754 0.38413 0.10116 0.0
C1092 C 0.70882 0.3782 0.09844 0.0
C1093 C 0.70911 0.35951 0.10569 0.0
H1094 H 0.67735 0.3986 0.09551 0.0
H1095 H 0.67135 0.2185 0.17506 0.0
H1096 H 0.34179 0.28514 0.70673 0.0
H1097 H 0.3658 0.26234 0.68189 0.0
H1098 H 0.28493 0.21264 0.7109 0.0
H1099 H 0.26103 0.23533 0.73611 0.0
H1100 H 0.34976 0.20485 0.70529 0.0
H1101 H 0.27162 0.23035 0.65718 0.0
H1102 H 0.24992 0.25618 0.63919 0.0
H1103 H 0.35139 0.27862 0.60259 0.0
H1104 H 0.3739 0.25309 0.62068 0.0
H1105 H 0.33608 0.13335 0.60603 0.0
H1106 H 0.33002 0.15556 0.64034 0.0
H1107 H 0.40842 0.20409 0.60703 0.0
H1108 H 0.41402 0.18202 0.57264 0.0
H1109 H 0.34834 0.21305 0.616 0.0
H1110 H 0.42502 0.18559 0.66172 0.0
H1111 H 0.4455 0.15906 0.67899 0.0
H1112 H 0.34651 0.13953 0.71919 0.0
H1113 H 0.32519 0.16577 0.70189 0.0
C1114 C 0.32934 0.26935 0.70807 0.0
C1115 C 0.29919 0.26206 0.72318 0.0
C1116 C 0.34309 0.25634 0.69383 0.0
C1117 C 0.32678 0.23581 0.69426 0.0
C1118 C 0.29787 0.22844 0.71025 0.0
C1119 C 0.28415 0.24144 0.72457 0.0
C1120 C 0.33816 0.22215 0.67681 0.0
C1121 C 0.34927 0.20652 0.68574 0.0
C1122 C 0.33805 0.22455 0.65134 0.0
C1123 C 0.3246 0.23997 0.64054 0.0
C1124 C 0.28943 0.24091 0.64549 0.0
C1125 C 0.27696 0.25548 0.63524 0.0
C1126 C 0.29931 0.26908 0.61983 0.0
C1127 C 0.33415 0.26811 0.61458 0.0
C1128 C 0.34677 0.2536 0.62483 0.0
C1129 C 0.35279 0.14861 0.60648 0.0
C1130 C 0.3753 0.15604 0.58668 0.0
C1131 C 0.34935 0.1613 0.62606 0.0
C1132 C 0.36872 0.18152 0.62623 0.0
C1133 C 0.39307 0.18858 0.60723 0.0
C1134 C 0.3963 0.17598 0.58763 0.0
C1135 C 0.36038 0.19577 0.64438 0.0
C1136 C 0.34945 0.21147 0.63554 0.0
C1137 C 0.36061 0.19334 0.66985 0.0
C1138 C 0.37337 0.17756 0.68033 0.0
C1139 C 0.40748 0.17554 0.67408 0.0
C1140 C 0.41927 0.16057 0.68391 0.0
C1141 C 0.39729 0.14759 0.70013 0.0
C1142 C 0.3635 0.14958 0.7066 0.0
C1143 C 0.35156 0.16452 0.69681 0.0
H1144 H 0.40647 0.13601 0.70772 0.0
H1145 H 0.2896 0.28033 0.61189 0.0
H1146 H 0.30357 0.86779 0.23424 0.0
H1147 H 0.32513 0.85868 0.19468 0.0
H1148 H 0.35369 0.81069 0.22703 0.0
H1149 H 0.33392 0.82038 0.26682 0.0
H1150 H 0.40649 0.83054 0.20008 0.0
H1151 H 0.27978 0.8025 0.18823 0.0
H1152 H 0.21588 0.8019 0.18781 0.0
H1153 H 0.23948 0.84663 0.13439 0.0
H1154 H 0.30366 0.8477 0.13474 0.0
H1155 H 0.45188 0.78774 0.09397 0.0
H1156 H 0.40886 0.78977 0.12623 0.0
H1157 H 0.40465 0.84592 0.10057 0.0
H1158 H 0.44801 0.84401 0.06823 0.0
H1159 H 0.3367 0.82046 0.12297 0.0
H1160 H 0.46516 0.84918 0.13779 0.0
H1161 H 0.52784 0.84758 0.13728 0.0
H1162 H 0.49875 0.79942 0.18598 0.0
H1163 H 0.43574 0.80036 0.1862 0.0
C1164 C 0.31424 0.85521 0.23289 0.0
C1165 C 0.31626 0.84451 0.2536 0.0
C1166 C 0.32625 0.84991 0.21021 0.0
C1167 C 0.34037 0.83374 0.20774 0.0
C1168 C 0.34246 0.82306 0.22842 0.0
C1169 C 0.33062 0.82843 0.25114 0.0
C1170 C 0.35516 0.82881 0.18399 0.0
C1171 C 0.39092 0.82803 0.18335 0.0
C1172 C 0.33519 0.82593 0.16198 0.0
C1173 C 0.29661 0.82531 0.16169 0.0
C1174 C 0.27141 0.81233 0.17654 0.0
C1175 C 0.23512 0.81188 0.17629 0.0
C1176 C 0.22364 0.82425 0.16113 0.0
C1177 C 0.24842 0.83707 0.14615 0.0
C1178 C 0.28475 0.83759 0.14634 0.0
C1179 C 0.4408 0.80017 0.09469 0.0
C1180 C 0.45366 0.81589 0.07893 0.0
C1181 C 0.41619 0.80129 0.11306 0.0
C1182 C 0.40414 0.81815 0.11596 0.0
C1183 C 0.41369 0.8328 0.09856 0.0
C1184 C 0.43842 0.83169 0.08011 0.0
C1185 C 0.38762 0.82211 0.13935 0.0
C1186 C 0.35189 0.82285 0.13984 0.0
C1187 C 0.40744 0.82484 0.16134 0.0
C1188 C 0.44563 0.82468 0.16177 0.0
C1189 C 0.47208 0.83812 0.1482 0.0
C1190 C 0.5077 0.83731 0.14793 0.0
C1191 C 0.5173 0.82328 0.16141 0.0
C1192 C 0.49133 0.81016 0.17535 0.0
C1193 C 0.45564 0.81082 0.17556 0.0
H1194 H 0.54487 0.82264 0.16116 0.0
H1195 H 0.19554 0.82388 0.16096 0.0
H1196 H 0.78326 0.19035 0.3592 0.0
H1197 H 0.77199 0.15797 0.37716 0.0
H1198 H 0.88545 0.16299 0.37264 0.0
H1199 H 0.89698 0.19535 0.35467 0.0
H1200 H 0.8436 0.12629 0.35641 0.0
H1201 H 0.84895 0.17075 0.42584 0.0
H1202 H 0.83294 0.19606 0.45224 0.0
H1203 H 0.72403 0.15851 0.45726 0.0
H1204 H 0.73925 0.1331 0.43054 0.0
H1205 H 0.86696 0.06189 0.44677 0.0
H1206 H 0.86547 0.0857 0.41606 0.0
H1207 H 0.75196 0.07628 0.43001 0.0
H1208 H 0.75392 0.05287 0.46127 0.0
H1209 H 0.78723 0.11323 0.43791 0.0
H1210 H 0.78483 0.06686 0.37226 0.0
H1211 H 0.80313 0.04115 0.34811 0.0
H1212 H 0.90852 0.08161 0.33795 0.0
H1213 H 0.89105 0.1075 0.36235 0.0
C1214 C 0.80586 0.18462 0.36215 0.0
C1215 C 0.84105 0.19548 0.35559 0.0
C1216 C 0.79936 0.16611 0.3724 0.0
C1217 C 0.82789 0.15808 0.37626 0.0
C1218 C 0.86303 0.16887 0.36973 0.0
C1219 C 0.86959 0.18744 0.35962 0.0
C1220 C 0.82123 0.13852 0.3873 0.0
C1221 C 0.83154 0.12343 0.37434 0.0
C1222 C 0.80457 0.13464 0.41037 0.0
C1223 C 0.79509 0.15017 0.42582 0.0
C1224 C 0.82145 0.16801 0.43226 0.0
C1225 C 0.81255 0.18234 0.44737 0.0
C1226 C 0.77744 0.17893 0.45633 0.0
C1227 C 0.75117 0.16117 0.45022 0.0
C1228 C 0.75991 0.1468 0.43508 0.0
C1229 C 0.84137 0.06417 0.44231 0.0
C1230 C 0.81043 0.0554 0.45597 0.0
C1231 C 0.84048 0.07783 0.4248 0.0
C1232 C 0.80856 0.08282 0.42065 0.0
C1233 C 0.77686 0.07265 0.43283 0.0
C1234 C 0.77784 0.05912 0.45048 0.0
C1235 C 0.80992 0.10092 0.4073 0.0
C1236 C 0.79875 0.11586 0.41985 0.0
C1237 C 0.826 0.10463 0.38401 0.0
C1238 C 0.83667 0.0891 0.3693 0.0
C1239 C 0.812 0.07024 0.36505 0.0
C1240 C 0.82222 0.05564 0.35128 0.0
C1241 C 0.85698 0.05973 0.34154 0.0
C1242 C 0.8816 0.07846 0.34551 0.0
C1243 C 0.87153 0.09312 0.35928 0.0
H1244 H 0.86484 0.04841 0.33088 0.0
H1245 H 0.77063 0.19003 0.46807 0.0
H1246 H 0.24488 0.30961 0.7886 0.0
H1247 H 0.27875 0.30644 0.8245 0.0
H1248 H 0.27983 0.36521 0.85028 0.0
H1249 H 0.24758 0.36887 0.8135 0.0
H1250 H 0.34445 0.3606 0.85467 0.0
H1251 H 0.22558 0.32317 0.87701 0.0
H1252 H 0.16654 0.29801 0.87181 0.0
H1253 H 0.21864 0.25204 0.86587 0.0
H1254 H 0.27805 0.27695 0.8707 0.0
H1255 H 0.42763 0.34895 0.96421 0.0
H1256 H 0.37687 0.35144 0.93958 0.0
H1257 H 0.37834 0.29836 0.89819 0.0
H1258 H 0.42908 0.29588 0.92266 0.0
H1259 H 0.30768 0.30199 0.9063 0.0
H1260 H 0.42543 0.33959 0.8776 0.0
H1261 H 0.48503 0.36422 0.88253 0.0
H1262 H 0.43435 0.40966 0.9001 0.0
H1263 H 0.37434 0.38515 0.89572 0.0
C1264 C 0.25312 0.32206 0.80154 0.0
C1265 C 0.24463 0.33974 0.79781 0.0
C1266 C 0.27176 0.32005 0.8224 0.0
C1267 C 0.28156 0.33552 0.84025 0.0
C1268 C 0.27253 0.35308 0.83677 0.0
C1269 C 0.25406 0.35513 0.81579 0.0
C1270 C 0.30273 0.33364 0.86189 0.0
C1271 C 0.33592 0.34801 0.86629 0.0
C1272 C 0.29202 0.31702 0.87683 0.0
C1273 C 0.25631 0.30196 0.87407 0.0
C1274 C 0.22447 0.30771 0.87444 0.0
C1275 C 0.19093 0.29349 0.87158 0.0
C1276 C 0.18885 0.27345 0.86847 0.0
C1277 C 0.2203 0.26758 0.86828 0.0
C1278 C 0.25391 0.28174 0.87111 0.0
C1279 C 0.41631 0.33749 0.95037 0.0
C1280 C 0.43229 0.32231 0.94515 0.0
C1281 C 0.38748 0.33897 0.93628 0.0
C1282 C 0.37419 0.32519 0.91693 0.0
C1283 C 0.38821 0.30911 0.91305 0.0
C1284 C 0.41723 0.30776 0.92693 0.0
C1285 C 0.34921 0.32883 0.89877 0.0
C1286 C 0.31559 0.31476 0.89497 0.0
C1287 C 0.35945 0.3457 0.88433 0.0
C1288 C 0.39544 0.36051 0.88664 0.0
C1289 C 0.427 0.3548 0.88272 0.0
C1290 C 0.46086 0.36874 0.88538 0.0
C1291 C 0.46351 0.3885 0.89169 0.0
C1292 C 0.43227 0.39435 0.89527 0.0
C1293 C 0.39832 0.38044 0.89271 0.0
H1294 H 0.48976 0.39927 0.89373 0.0
H1295 H 0.16285 0.26246 0.86626 0.0
H1296 H 0.38217 0.92013 0.37179 0.0
H1297 H 0.40952 0.95 0.39703 0.0
H1298 H 0.33396 0.97782 0.36862 0.0
H1299 H 0.30693 0.94818 0.34297 0.0
H1300 H 0.40001 0.00456 0.37568 0.0
H1301 H 0.31653 0.95369 0.4215 0.0
H1302 H 0.2927 0.92037 0.43786 0.0
H1303 H 0.39308 0.92741 0.47455 0.0
H1304 H 0.41765 0.96068 0.45813 0.0
H1305 H 0.36655 0.06583 0.47366 0.0
H1306 H 0.37074 0.04397 0.43876 0.0
H1307 H 0.44676 0.02268 0.47804 0.0
H1308 H 0.44226 0.0444 0.51315 0.0
H1309 H 0.39098 0.99329 0.46445 0.0
H1310 H 0.4703 0.04722 0.42413 0.0
H1311 H 0.49217 0.08087 0.40855 0.0
H1312 H 0.39919 0.06897 0.36232 0.0
H1313 H 0.37644 0.03533 0.37788 0.0
C1314 C 0.37172 0.93271 0.37062 0.0
C1315 C 0.34205 0.93169 0.35562 0.0
C1316 C 0.38739 0.94977 0.38506 0.0
C1317 C 0.37339 0.96601 0.38499 0.0
C1318 C 0.34516 0.96545 0.36898 0.0
C1319 C 0.32961 0.94845 0.35442 0.0
C1320 C 0.38565 0.98273 0.40316 0.0
C1321 C 0.39802 1.00218 0.39511 0.0
C1322 C 0.3838 0.97955 0.42849 0.0
C1323 C 0.36907 0.95955 0.43834 0.0
C1324 C 0.33361 0.94805 0.43289 0.0
C1325 C 0.31996 0.9292 0.4422 0.0
C1326 C 0.34141 0.92175 0.45716 0.0
C1327 C 0.37653 0.93317 0.46291 0.0
C1328 C 0.39033 0.95203 0.45361 0.0
C1329 C 0.38517 0.05703 0.47451 0.0
C1330 C 0.40382 0.05665 0.49617 0.0
C1331 C 0.38759 0.04453 0.45452 0.0
C1332 C 0.40903 0.03163 0.45577 0.0
C1333 C 0.42994 0.03244 0.4767 0.0
C1334 C 0.42735 0.04484 0.49673 0.0
C1335 C 0.40514 0.0153 0.4371 0.0
C1336 C 0.39397 0.99582 0.44506 0.0
C1337 C 0.40797 0.01854 0.41177 0.0
C1338 C 0.42154 0.03877 0.40231 0.0
C1339 C 0.45435 0.05182 0.41078 0.0
C1340 C 0.46694 0.07089 0.40192 0.0
C1341 C 0.44705 0.07707 0.38449 0.0
C1342 C 0.41456 0.06417 0.37583 0.0
C1343 C 0.40184 0.04508 0.38464 0.0
H1344 H 0.45685 0.09184 0.37765 0.0
H1345 H 0.33078 0.90715 0.46437 0.0
H1346 H 0.61407 0.7662 0.7512 0.0
H1347 H 0.59849 0.77105 0.79376 0.0
H1348 H 0.69357 0.82114 0.80189 0.0
H1349 H 0.70962 0.81629 0.7592 0.0
H1350 H 0.68455 0.79765 0.84077 0.0
H1351 H 0.6132 0.8285 0.79588 0.0
H1352 H 0.57029 0.83214 0.76496 0.0
H1353 H 0.4867 0.78535 0.79611 0.0
H1354 H 0.52932 0.78114 0.82697 0.0
H1355 H 0.62034 0.84556 0.94359 0.0
H1356 H 0.6463 0.83522 0.90609 0.0
H1357 H 0.55813 0.78127 0.90163 0.0
H1358 H 0.53253 0.79151 0.93933 0.0
H1359 H 0.5648 0.80603 0.86164 0.0
H1360 H 0.63859 0.77712 0.90845 0.0
H1361 H 0.68236 0.77664 0.94042 0.0
H1362 H 0.76238 0.82353 0.90647 0.0
H1363 H 0.71891 0.8245 0.87447 0.0
C1364 C 0.63174 0.77825 0.762 0.0
C1365 C 0.66302 0.79092 0.75176 0.0
C1366 C 0.62272 0.78103 0.78633 0.0
C1367 C 0.64468 0.79656 0.80092 0.0
C1368 C 0.67625 0.80906 0.79092 0.0
C1369 C 0.68528 0.80632 0.76651 0.0
C1370 C 0.63433 0.79981 0.82654 0.0
C1371 C 0.65851 0.79969 0.84534 0.0
C1372 C 0.60016 0.80221 0.83249 0.0
C1373 C 0.57464 0.80432 0.81354 0.0
C1374 C 0.58582 0.81879 0.79595 0.0
C1375 C 0.56151 0.82099 0.77846 0.0
C1376 C 0.52585 0.80891 0.7785 0.0
C1377 C 0.51439 0.79463 0.79604 0.0
C1378 C 0.53861 0.79232 0.81353 0.0
C1379 C 0.60757 0.8311 0.93516 0.0
C1380 C 0.57488 0.81914 0.94435 0.0
C1381 C 0.62224 0.82524 0.91374 0.0
C1382 C 0.60406 0.8075 0.90112 0.0
C1383 C 0.5726 0.79496 0.9112 0.0
C1384 C 0.55818 0.80071 0.93277 0.0
C1385 C 0.61473 0.80357 0.87585 0.0
C1386 C 0.59066 0.80375 0.85707 0.0
C1387 C 0.64914 0.80157 0.86998 0.0
C1388 C 0.67536 0.80101 0.88918 0.0
C1389 C 0.66541 0.78746 0.90792 0.0
C1390 C 0.6902 0.78707 0.92602 0.0
C1391 C 0.7251 0.80008 0.92551 0.0
C1392 C 0.73532 0.81347 0.90686 0.0
C1393 C 0.71063 0.81393 0.88872 0.0
H1394 H 0.74425 0.79975 0.93954 0.0
H1395 H 0.50705 0.81069 0.76499 0.0
loop_
_geom_bond_atom_site_label_1
_geom_bond_atom_site_label_2
_geom_bond_distance
_geom_bond_site_symmetry_2
_ccdc_geom_bond_type
O0 Cd1 2.300 . S
O0 C7 1.275 . S
Cd1 O0 2.300 . S
Cd1 O9 2.381 . S
Cd1 O10 2.378 . S
O2 Cd3 2.385 . S
O2 C7 1.255 . S
Cd3 O2 2.385 . S
Cd3 O4 2.317 . S
O4 Cd3 2.317 . S
O4 C5 1.232 . S
C5 O4 1.232 . S
C5 O6 1.218 . S
O6 C5 1.218 . S
C7 O0 1.275 . S
C7 O2 1.255 . S
C8 O9 1.258 . S
C8 O10 1.256 . S
O9 Cd1 2.381 . S
O9 C8 1.258 . S
O10 Cd1 2.378 . S
O10 C8 1.256 . S
O11 Cd12 2.300 . S
O11 C18 1.275 . S
Cd12 O11 2.300 . S
Cd12 O20 2.381 . S
Cd12 O21 2.378 . S
O13 Cd14 2.385 . S
O13 C18 1.255 . S
Cd14 O13 2.385 . S
Cd14 O15 2.317 . S
O15 Cd14 2.317 . S
O15 C16 1.232 . S
C16 O15 1.232 . S
C16 O17 1.218 . S
O17 C16 1.218 . S
C18 O11 1.275 . S
C18 O13 1.255 . S
C19 O20 1.258 . S
C19 O21 1.256 . S
O20 Cd12 2.381 . S
O20 C19 1.258 . S
O21 Cd12 2.378 . S
O21 C19 1.256 . S
O22 Cd23 2.300 . S
O22 C29 1.275 . S
Cd23 O22 2.300 . S
Cd23 O31 2.381 . S
Cd23 O32 2.378 . S
O24 Cd25 2.385 . S
O24 C29 1.255 . S
Cd25 O24 2.385 . S
Cd25 O26 2.317 . S
O26 Cd25 2.317 . S
O26 C27 1.232 . S
C27 O26 1.232 . S
C27 O28 1.218 . S
O28 C27 1.218 . S
C29 O22 1.275 . S
C29 O24 1.255 . S
C30 O31 1.258 . S
C30 O32 1.256 . S
O31 Cd23 2.381 . S
O31 C30 1.258 . S
O32 Cd23 2.378 . S
O32 C30 1.256 . S
O33 Cd34 2.300 . S
O33 C40 1.275 . S
Cd34 O33 2.300 . S
Cd34 O42 2.381 . S
Cd34 O43 2.378 . S
O35 Cd36 2.385 . S
O35 C40 1.255 . S
Cd36 O35 2.385 . S
Cd36 O37 2.317 . S
O37 Cd36 2.317 . S
O37 C38 1.232 . S
C38 O37 1.232 . S
C38 O39 1.218 . S
O39 C38 1.218 . S
C40 O33 1.275 . S
C40 O35 1.255 . S
C41 O42 1.258 . S
C41 O43 1.256 . S
O42 Cd34 2.381 . S
O42 C41 1.258 . S
O43 Cd34 2.378 . S
O43 C41 1.256 . S
O44 Cd45 2.300 . S
O44 C51 1.275 . S
Cd45 O44 2.300 . S
Cd45 O53 2.381 . S
Cd45 O54 2.378 . S
O46 Cd47 2.385 . S
O46 C51 1.255 . S
Cd47 O46 2.385 . S
Cd47 O48 2.317 . S
O48 Cd47 2.317 . S
O48 C49 1.232 . S
C49 O48 1.232 . S
C49 O50 1.218 . S
O50 C49 1.218 . S
C51 O44 1.275 . S
C51 O46 1.255 . S
C52 O53 1.258 . S
C52 O54 1.256 . S
O53 Cd45 2.381 . S
O53 C52 1.258 . S
O54 Cd45 2.378 . S
O54 C52 1.256 . S
O55 Cd56 2.300 . S
O55 C62 1.275 . S
Cd56 O55 2.300 . S
Cd56 O64 2.381 . S
Cd56 O65 2.378 . S
O57 Cd58 2.385 . S
O57 C62 1.255 . S
Cd58 O57 2.385 . S
Cd58 O59 2.317 . S
O59 Cd58 2.317 . S
O59 C60 1.232 . S
C60 O59 1.232 . S
C60 O61 1.218 . S
O61 C60 1.218 . S
C62 O55 1.275 . S
C62 O57 1.255 . S
C63 O64 1.258 . S
C63 O65 1.256 . S
O64 Cd56 2.381 . S
O64 C63 1.258 . S
O65 Cd56 2.378 . S
O65 C63 1.256 . S
O66 Cd67 2.300 . S
O66 C73 1.275 . S
Cd67 O66 2.300 . S
Cd67 O75 2.381 . S
Cd67 O76 2.378 . S
O68 Cd69 2.385 . S
O68 C73 1.255 . S
Cd69 O68 2.385 . S
Cd69 O70 2.317 . S
O70 Cd69 2.317 . S
O70 C71 1.232 . S
C71 O70 1.232 . S
C71 O72 1.218 . S
O72 C71 1.218 . S
C73 O66 1.275 . S
C73 O68 1.255 . S
C74 O75 1.258 . S
C74 O76 1.256 . S
O75 Cd67 2.381 . S
O75 C74 1.258 . S
O76 Cd67 2.378 . S
O76 C74 1.256 . S
O77 Cd78 2.300 . S
O77 C84 1.275 . S
Cd78 O77 2.300 . S
Cd78 O86 2.381 . S
Cd78 O87 2.378 . S
O79 Cd80 2.385 . S
O79 C84 1.255 . S
Cd80 O79 2.385 . S
Cd80 O81 2.317 . S
O81 Cd80 2.317 . S
O81 C82 1.232 . S
C82 O81 1.232 . S
C82 O83 1.218 . S
O83 C82 1.218 . S
C84 O77 1.275 . S
C84 O79 1.255 . S
C85 O86 1.258 . S
C85 O87 1.256 . S
O86 Cd78 2.381 . S
O86 C85 1.258 . S
O87 Cd78 2.378 . S
O87 C85 1.256 . S
H88 C94 0.930 . S
H89 C97 0.931 1_655 S
H90 C99 0.931 . S
H91 C101 0.930 . S
H92 C103 0.930 . S
H93 C105 0.931 1_655 S
C94 H88 0.930 . S
C94 C95 1.380 . S
C94 C96 1.394 . S
C95 C94 1.380 . S
C95 C99 1.382 . S
C96 C94 1.394 . S
C96 C97 1.400 . S
C97 H89 0.931 1_455 S
C97 C96 1.400 . S
C97 C98 1.375 . S
C98 C97 1.375 . S
C98 C99 1.415 . S
C98 C100 1.501 . S
C99 H90 0.931 . S
C99 C95 1.382 . S
C99 C98 1.415 . S
C100 C98 1.501 . S
C100 C101 1.384 . S
C100 C105 1.408 . S
C101 H91 0.930 . S
C101 C100 1.384 . S
C101 C102 1.389 . S
C102 C101 1.389 . S
C102 C103 1.405 . S
C103 H92 0.930 . S
C103 C102 1.405 . S
C103 C104 1.364 . S
C104 C103 1.364 . S
C104 C105 1.400 . S
C105 H93 0.931 1_455 S
C105 C100 1.408 . S
C105 C104 1.400 . S
H106 C112 0.930 . S
H107 C115 0.931 . S
H108 C117 0.931 . S
H109 C119 0.930 . S
H110 C121 0.930 . S
H111 C123 0.931 . S
C112 H106 0.930 . S
C112 C113 1.380 1_455 S
C112 C114 1.394 . S
C113 C112 1.380 1_655 S
C113 C117 1.382 . S
C114 C112 1.394 . S
C114 C115 1.400 . S
C115 H107 0.931 . S
C115 C114 1.400 . S
C115 C116 1.393 . S
C116 C115 1.393 . S
C116 C117 1.388 1_455 S
C116 C118 1.512 1_455 S
C117 H108 0.931 . S
C117 C113 1.382 . S
C117 C116 1.388 1_655 S
C118 C116 1.512 1_655 S
C118 C119 1.392 . S
C118 C123 1.396 1_655 S
C119 H109 0.930 . S
C119 C118 1.392 . S
C119 C120 1.389 . S
C120 C119 1.389 . S
C120 C121 1.405 . S
C121 H110 0.930 . S
C121 C120 1.405 . S
C121 C122 1.364 1_655 S
C122 C121 1.364 1_455 S
C122 C123 1.400 . S
C123 H111 0.931 . S
C123 C118 1.396 1_455 S
C123 C122 1.400 . S
H124 C130 0.930 . S
H125 C133 0.931 . S
H126 C135 0.931 . S
H127 C137 0.930 . S
H128 C139 0.930 . S
H129 C141 0.931 . S
C130 H124 0.930 . S
C130 C131 1.380 . S
C130 C132 1.394 . S
C131 C130 1.380 . S
C131 C135 1.382 . S
C132 C130 1.394 . S
C132 C133 1.400 . S
C133 H125 0.931 . S
C133 C132 1.400 . S
C133 C134 1.375 . S
C134 C133 1.375 . S
C134 C135 1.415 . S
C134 C136 1.501 . S
C135 H126 0.931 . S
C135 C131 1.382 . S
C135 C134 1.415 . S
C136 C134 1.501 . S
C136 C137 1.384 . S
C136 C141 1.408 . S
C137 H127 0.930 . S
C137 C136 1.384 . S
C137 C138 1.389 . S
C138 C137 1.389 . S
C138 C139 1.405 . S
C139 H128 0.930 . S
C139 C138 1.405 . S
C139 C140 1.364 . S
C140 C139 1.364 . S
C140 C141 1.400 . S
C141 H129 0.931 . S
C141 C136 1.408 . S
C141 C140 1.400 . S
H142 C148 0.930 . S
H143 C151 0.931 . S
H144 C153 0.931 . S
H145 C155 0.930 . S
H146 C157 0.930 . S
H147 C159 0.931 . S
C148 H142 0.930 . S
C148 C149 1.380 . S
C148 C150 1.394 . S
C149 C148 1.380 . S
C149 C153 1.382 . S
C150 C148 1.394 . S
C150 C151 1.400 . S
C151 H143 0.931 . S
C151 C150 1.400 . S
C151 C152 1.375 . S
C152 C151 1.375 . S
C152 C153 1.415 . S
C152 C154 1.501 1_554 S
C153 H144 0.931 . S
C153 C149 1.382 . S
C153 C152 1.415 . S
C154 C152 1.501 1_556 S
C154 C155 1.384 . S
C154 C159 1.408 . S
C155 H145 0.930 . S
C155 C154 1.384 . S
C155 C156 1.389 . S
C156 C155 1.389 . S
C156 C157 1.405 . S
C157 H146 0.930 . S
C157 C156 1.405 . S
C157 C158 1.364 . S
C158 C157 1.364 . S
C158 C159 1.400 . S
C159 H147 0.931 . S
C159 C154 1.408 . S
C159 C158 1.400 . S
H160 C166 0.930 . S
H161 C169 0.931 . S
H162 C171 0.931 . S
H163 C173 0.930 1_545 S
H164 C175 0.930 . S
H165 C177 0.931 1_545 S
C166 H160 0.930 . S
C166 C167 1.380 . S
C166 C168 1.394 . S
C167 C166 1.380 . S
C167 C171 1.382 . S
C168 C166 1.394 . S
C168 C169 1.400 . S
C169 H161 0.931 . S
C169 C168 1.400 . S
C169 C170 1.375 . S
C170 C169 1.375 . S
C170 C171 1.415 . S
C170 C172 1.501 . S
C171 H162 0.931 . S
C171 C167 1.382 . S
C171 C170 1.415 . S
C172 C170 1.501 . S
C172 C173 1.384 1_545 S
C172 C177 1.408 1_545 S
C173 H163 0.930 1_565 S
C173 C172 1.384 1_565 S
C173 C174 1.389 . S
C174 C173 1.389 . S
C174 C175 1.405 . S
C175 H164 0.930 . S
C175 C174 1.405 . S
C175 C176 1.364 . S
C176 C175 1.364 . S
C176 C177 1.400 . S
C177 H165 0.931 1_565 S
C177 C172 1.408 1_565 S
C177 C176 1.400 . S
H178 C184 0.930 . S
H179 C187 0.931 . S
H180 C189 0.931 . S
H181 C191 0.930 . S
H182 C193 0.930 . S
H183 C195 0.931 . S
C184 H178 0.930 . S
C184 C185 1.380 . S
C184 C186 1.394 . S
C185 C184 1.380 . S
C185 C189 1.382 . S
C186 C184 1.394 . S
C186 C187 1.400 . S
C187 H179 0.931 . S
C187 C186 1.400 . S
C187 C188 1.375 . S
C188 C187 1.375 . S
C188 C189 1.415 . S
C188 C190 1.501 1_554 S
C189 H180 0.931 . S
C189 C185 1.382 . S
C189 C188 1.415 . S
C190 C188 1.501 1_556 S
C190 C191 1.384 . S
C190 C195 1.408 . S
C191 H181 0.930 . S
C191 C190 1.384 . S
C191 C192 1.389 . S
C192 C191 1.389 . S
C192 C193 1.405 . S
C193 H182 0.930 . S
C193 C192 1.405 . S
C193 C194 1.364 . S
C194 C193 1.364 . S
C194 C195 1.400 . S
C195 H183 0.931 . S
C195 C190 1.408 . S
C195 C194 1.400 . S
H196 C214 0.951 . S
H197 C216 0.951 . S
H198 C218 0.950 . S
H199 C219 0.950 . S
H200 C221 0.950 . S
H201 C224 0.950 . S
H202 C225 0.950 . S
H203 C227 0.950 . S
H204 C228 0.950 . S
H205 C229 0.951 . S
H206 C231 0.951 . S
H207 C233 0.950 . S
H208 C234 0.950 . S
H209 C236 0.950 . S
H210 C239 0.950 . S
H211 C240 0.950 . S
H212 C242 0.950 . S
H213 C243 0.950 . S
C214 H196 0.951 . S
C214 C215 1.366 . S
C214 C216 1.388 . S
C215 C214 1.366 . S
C215 C219 1.385 . S
C216 H197 0.951 . S
C216 C214 1.388 . S
C216 C217 1.366 . S
C217 C216 1.366 . S
C217 C218 1.414 . S
C217 C220 1.499 . S
C218 H198 0.950 . S
C218 C217 1.414 . S
C218 C219 1.374 . S
C219 H199 0.950 . S
C219 C215 1.385 . S
C219 C218 1.374 . S
C220 C217 1.499 . S
C220 C221 1.373 . S
C220 C222 1.389 . S
C221 H200 0.950 . S
C221 C220 1.373 . S
C221 C237 1.377 . S
C222 C220 1.389 . S
C222 C223 1.524 . S
C222 C236 1.377 . S
C223 C222 1.524 . S
C223 C224 1.397 . S
C223 C228 1.363 . S
C224 H201 0.950 . S
C224 C223 1.397 . S
C224 C225 1.334 . S
C225 H202 0.950 . S
C225 C224 1.334 . S
C225 C226 1.287 . S
C226 C225 1.287 . S
C226 C227 1.524 . S
C226 H245 0.913 . S
C227 H203 0.950 . S
C227 C226 1.524 . S
C227 C228 1.415 . S
C228 H204 0.950 . S
C228 C223 1.363 . S
C228 C227 1.415 . S
C229 H205 0.951 . S
C229 C230 1.366 . S
C229 C231 1.388 . S
C230 C229 1.366 . S
C230 C234 1.385 . S
C231 H206 0.951 . S
C231 C229 1.388 . S
C231 C232 1.366 . S
C232 C231 1.366 . S
C232 C233 1.414 . S
C232 C235 1.499 . S
C233 H207 0.950 . S
C233 C232 1.414 . S
C233 C234 1.374 . S
C234 H208 0.950 . S
C234 C230 1.385 . S
C234 C233 1.374 . S
C235 C232 1.499 . S
C235 C236 1.373 . S
C235 C237 1.389 . S
C236 H209 0.950 . S
C236 C222 1.377 . S
C236 C235 1.373 . S
C237 C221 1.377 . S
C237 C235 1.389 . S
C237 C238 1.524 . S
C238 C237 1.524 . S
C238 C239 1.397 . S
C238 C243 1.363 . S
C239 H210 0.950 . S
C239 C238 1.397 . S
C239 C240 1.334 . S
C240 H211 0.950 . S
C240 C239 1.334 . S
C240 C241 1.287 . S
C241 C240 1.287 . S
C241 C242 1.524 . S
C241 H244 0.999 . S
C242 H212 0.950 . S
C242 C241 1.524 . S
C242 C243 1.415 . S
C243 H213 0.950 . S
C243 C238 1.363 . S
C243 C242 1.415 . S
H244 C241 0.999 . S
H245 C226 0.913 . S
H246 C264 0.951 . S
H247 C266 0.951 . S
H248 C268 0.950 . S
H249 C269 0.950 . S
H250 C271 0.950 . S
H251 C274 0.950 . S
H252 C275 0.950 . S
H253 C277 0.950 . S
H254 C278 0.950 . S
H255 C279 0.951 . S
H256 C281 0.951 . S
H257 C283 0.950 . S
H258 C284 0.950 . S
H259 C286 0.950 . S
H260 C289 0.950 . S
H261 C290 0.950 . S
H262 C292 0.950 . S
H263 C293 0.950 . S
C264 H246 0.951 . S
C264 C265 1.366 . S
C264 C266 1.388 . S
C265 C264 1.366 . S
C265 C269 1.385 . S
C266 H247 0.951 . S
C266 C264 1.388 . S
C266 C267 1.366 . S
C267 C266 1.366 . S
C267 C268 1.414 . S
C267 C270 1.499 . S
C268 H248 0.950 . S
C268 C267 1.414 . S
C268 C269 1.374 . S
C269 H249 0.950 . S
C269 C265 1.385 . S
C269 C268 1.374 . S
C270 C267 1.499 . S
C270 C271 1.373 . S
C270 C272 1.389 . S
C271 H250 0.950 . S
C271 C270 1.373 . S
C271 C287 1.377 . S
C272 C270 1.389 . S
C272 C273 1.524 . S
C272 C286 1.377 . S
C273 C272 1.524 . S
C273 C274 1.397 . S
C273 C278 1.363 . S
C274 H251 0.950 . S
C274 C273 1.397 . S
C274 C275 1.334 . S
C275 H252 0.950 . S
C275 C274 1.334 . S
C275 C276 1.287 . S
C276 C275 1.287 . S
C276 C277 1.524 . S
C276 H295 0.913 . S
C277 H253 0.950 . S
C277 C276 1.524 . S
C277 C278 1.415 . S
C278 H254 0.950 . S
C278 C273 1.363 . S
C278 C277 1.415 . S
C279 H255 0.951 . S
C279 C280 1.366 . S
C279 C281 1.388 . S
C280 C279 1.366 . S
C280 C284 1.385 . S
C281 H256 0.951 . S
C281 C279 1.388 . S
C281 C282 1.366 . S
C282 C281 1.366 . S
C282 C283 1.414 . S
C282 C285 1.499 . S
C283 H257 0.950 . S
C283 C282 1.414 . S
C283 C284 1.374 . S
C284 H258 0.950 . S
C284 C280 1.385 . S
C284 C283 1.374 . S
C285 C282 1.499 . S
C285 C286 1.373 . S
C285 C287 1.389 . S
C286 H259 0.950 . S
C286 C272 1.377 . S
C286 C285 1.373 . S
C287 C271 1.377 . S
C287 C285 1.389 . S
C287 C288 1.524 . S
C288 C287 1.524 . S
C288 C289 1.397 . S
C288 C293 1.363 . S
C289 H260 0.950 . S
C289 C288 1.397 . S
C289 C290 1.334 . S
C290 H261 0.950 . S
C290 C289 1.334 . S
C290 C291 1.287 . S
C291 C290 1.287 . S
C291 C292 1.524 . S
C291 H294 0.999 . S
C292 H262 0.950 . S
C292 C291 1.524 . S
C292 C293 1.415 . S
C293 H263 0.950 . S
C293 C288 1.363 . S
C293 C292 1.415 . S
H294 C291 0.999 . S
H295 C276 0.913 . S
H296 C314 0.951 . S
H297 C316 0.951 . S
H298 C318 0.950 . S
H299 C319 0.950 . S
H300 C321 0.950 . S
H301 C324 0.950 . S
H302 C325 0.950 . S
H303 C327 0.950 . S
H304 C328 0.950 . S
H305 C329 0.951 . S
H306 C331 0.951 1_455 S
H307 C333 0.950 . S
H308 C334 0.950 . S
H309 C336 0.950 . S
H310 C339 0.950 . S
H311 C340 0.950 . S
H312 C342 0.950 . S
H313 C343 0.948 . S
C314 H296 0.951 . S
C314 C315 1.366 . S
C314 C316 1.388 . S
C315 C314 1.366 . S
C315 C319 1.385 . S
C316 H297 0.951 . S
C316 C314 1.388 . S
C316 C317 1.366 . S
C317 C316 1.366 . S
C317 C318 1.414 . S
C317 C320 1.499 . S
C318 H298 0.950 . S
C318 C317 1.414 . S
C318 C319 1.374 . S
C319 H299 0.950 . S
C319 C315 1.385 . S
C319 C318 1.374 . S
C320 C317 1.499 . S
C320 C321 1.373 . S
C320 C322 1.389 . S
C321 H300 0.950 . S
C321 C320 1.373 . S
C321 C337 1.377 . S
C322 C320 1.389 . S
C322 C323 1.524 . S
C322 C336 1.377 . S
C323 C322 1.524 . S
C323 C324 1.397 . S
C323 C328 1.363 . S
C324 H301 0.950 . S
C324 C323 1.397 . S
C324 C325 1.334 . S
C325 H302 0.950 . S
C325 C324 1.334 . S
C325 C326 1.287 . S
C326 C325 1.287 . S
C326 C327 1.524 . S
C326 H345 0.913 . S
C327 H303 0.950 . S
C327 C326 1.524 . S
C327 C328 1.415 . S
C328 H304 0.950 . S
C328 C323 1.363 . S
C328 C327 1.415 . S
C329 H305 0.951 . S
C329 C330 1.366 1_455 S
C329 C331 1.388 1_455 S
C330 C329 1.366 1_655 S
C330 C334 1.385 . S
C331 H306 0.951 1_655 S
C331 C329 1.388 1_655 S
C331 C332 1.366 . S
C332 C331 1.366 . S
C332 C333 1.414 . S
C332 C335 1.499 . S
C333 H307 0.950 . S
C333 C332 1.414 . S
C333 C334 1.374 . S
C334 H308 0.950 . S
C334 C330 1.385 . S
C334 C333 1.374 . S
C335 C332 1.499 . S
C335 C336 1.373 . S
C335 C337 1.389 . S
C336 H309 0.950 . S
C336 C322 1.377 . S
C336 C335 1.373 . S
C337 C321 1.377 . S
C337 C335 1.389 . S
C337 C338 1.524 . S
C338 C337 1.524 . S
C338 C339 1.397 . S
C338 C343 1.356 1_655 S
C339 H310 0.950 . S
C339 C338 1.397 . S
C339 C340 1.334 . S
C340 H311 0.950 . S
C340 C339 1.334 . S
C340 C341 1.287 1_655 S
C341 C340 1.287 1_455 S
C341 C342 1.524 . S
C341 H344 0.999 . S
C342 H312 0.950 . S
C342 C341 1.524 . S
C342 C343 1.424 . S
C343 H313 0.948 . S
C343 C338 1.356 1_455 S
C343 C342 1.424 . S
H344 C341 0.999 . S
H345 C326 0.913 . S
H346 C364 0.951 . S
H347 C366 0.951 . S
H348 C368 0.950 . S
H349 C369 0.950 . S
H350 C371 0.950 . S
H351 C374 0.950 . S
H352 C375 0.950 . S
H353 C377 0.950 . S
H354 C378 0.950 . S
H355 C379 0.951 . S
H356 C381 0.951 . S
H357 C383 0.950 . S
H358 C384 0.950 . S
H359 C386 0.950 . S
H360 C389 0.950 . S
H361 C390 0.950 . S
H362 C392 0.950 . S
H363 C393 0.950 . S
C364 H346 0.951 . S
C364 C365 1.366 . S
C364 C366 1.388 . S
C365 C364 1.366 . S
C365 C369 1.385 . S
C366 H347 0.951 . S
C366 C364 1.388 . S
C366 C367 1.366 . S
C367 C366 1.366 . S
C367 C368 1.414 . S
C367 C370 1.499 . S
C368 H348 0.950 . S
C368 C367 1.414 . S
C368 C369 1.374 . S
C369 H349 0.950 . S
C369 C365 1.385 . S
C369 C368 1.374 . S
C370 C367 1.499 . S
C370 C371 1.373 . S
C370 C372 1.389 . S
C371 H350 0.950 . S
C371 C370 1.373 . S
C371 C387 1.377 . S
C372 C370 1.389 . S
C372 C373 1.524 . S
C372 C386 1.377 . S
C373 C372 1.524 . S
C373 C374 1.397 . S
C373 C378 1.363 . S
C374 H351 0.950 . S
C374 C373 1.397 . S
C374 C375 1.334 . S
C375 H352 0.950 . S
C375 C374 1.334 . S
C375 C376 1.287 . S
C376 C375 1.287 . S
C376 C377 1.524 . S
C376 H395 0.913 . S
C377 H353 0.950 . S
C377 C376 1.524 . S
C377 C378 1.415 . S
C378 H354 0.950 . S
C378 C373 1.363 . S
C378 C377 1.415 . S
C379 H355 0.951 . S
C379 C380 1.366 . S
C379 C381 1.388 . S
C380 C379 1.366 . S
C380 C384 1.385 . S
C381 H356 0.951 . S
C381 C379 1.388 . S
C381 C382 1.366 . S
C382 C381 1.366 . S
C382 C383 1.414 . S
C382 C385 1.499 . S
C383 H357 0.950 . S
C383 C382 1.414 . S
C383 C384 1.374 . S
C384 H358 0.950 . S
C384 C380 1.385 . S
C384 C383 1.374 . S
C385 C382 1.499 . S
C385 C386 1.373 . S
C385 C387 1.389 . S
C386 H359 0.950 . S
C386 C372 1.377 . S
C386 C385 1.373 . S
C387 C371 1.377 . S
C387 C385 1.389 . S
C387 C388 1.524 . S
C388 C387 1.524 . S
C388 C389 1.397 . S
C388 C393 1.363 . S
C389 H360 0.950 . S
C389 C388 1.397 . S
C389 C390 1.334 . S
C390 H361 0.950 . S
C390 C389 1.334 . S
C390 C391 1.287 . S
C391 C390 1.287 . S
C391 C392 1.524 . S
C391 H394 0.999 . S
C392 H362 0.950 . S
C392 C391 1.524 . S
C392 C393 1.415 . S
C393 H363 0.950 . S
C393 C388 1.363 . S
C393 C392 1.415 . S
H394 C391 0.999 . S
H395 C376 0.913 . S
H396 C414 0.951 . S
H397 C416 0.951 . S
H398 C418 0.950 . S
H399 C419 0.950 . S
H400 C421 0.950 . S
H401 C424 0.950 . S
H402 C425 0.950 . S
H403 C427 0.950 . S
H404 C428 0.950 . S
H405 C429 0.951 . S
H406 C431 0.951 . S
H407 C433 0.950 . S
H408 C434 0.950 . S
H409 C436 0.950 . S
H410 C439 0.950 . S
H411 C440 0.950 . S
H412 C442 0.950 . S
H413 C443 0.950 . S
C414 H396 0.951 . S
C414 C415 1.366 . S
C414 C416 1.388 . S
C415 C414 1.366 . S
C415 C419 1.385 . S
C416 H397 0.951 . S
C416 C414 1.388 . S
C416 C417 1.366 . S
C417 C416 1.366 . S
C417 C418 1.414 . S
C417 C420 1.499 . S
C418 H398 0.950 . S
C418 C417 1.414 . S
C418 C419 1.374 . S
C419 H399 0.950 . S
C419 C415 1.385 . S
C419 C418 1.374 . S
C420 C417 1.499 . S
C420 C421 1.373 . S
C420 C422 1.389 . S
C421 H400 0.950 . S
C421 C420 1.373 . S
C421 C437 1.377 . S
C422 C420 1.389 . S
C422 C423 1.524 . S
C422 C436 1.377 . S
C423 C422 1.524 . S
C423 C424 1.397 . S
C423 C428 1.363 . S
C424 H401 0.950 . S
C424 C423 1.397 . S
C424 C425 1.334 . S
C425 H402 0.950 . S
C425 C424 1.334 . S
C425 C426 1.287 . S
C426 C425 1.287 . S
C426 C427 1.524 . S
C426 H445 0.913 . S
C427 H403 0.950 . S
C427 C426 1.524 . S
C427 C428 1.415 . S
C428 H404 0.950 . S
C428 C423 1.363 . S
C428 C427 1.415 . S
C429 H405 0.951 . S
C429 C430 1.366 . S
C429 C431 1.388 . S
C430 C429 1.366 . S
C430 C434 1.385 . S
C431 H406 0.951 . S
C431 C429 1.388 . S
C431 C432 1.366 . S
C432 C431 1.366 . S
C432 C433 1.414 . S
C432 C435 1.499 . S
C433 H407 0.950 . S
C433 C432 1.414 . S
C433 C434 1.374 . S
C434 H408 0.950 . S
C434 C430 1.385 . S
C434 C433 1.374 . S
C435 C432 1.499 . S
C435 C436 1.373 . S
C435 C437 1.389 . S
C436 H409 0.950 . S
C436 C422 1.377 . S
C436 C435 1.373 . S
C437 C421 1.377 . S
C437 C435 1.389 . S
C437 C438 1.524 . S
C438 C437 1.524 . S
C438 C439 1.397 . S
C438 C443 1.363 . S
C439 H410 0.950 . S
C439 C438 1.397 . S
C439 C440 1.334 . S
C440 H411 0.950 . S
C440 C439 1.334 . S
C440 C441 1.287 . S
C441 C440 1.287 . S
C441 C442 1.524 . S
C441 H444 0.999 . S
C442 H412 0.950 . S
C442 C441 1.524 . S
C442 C443 1.415 . S
C443 H413 0.950 . S
C443 C438 1.363 . S
C443 C442 1.415 . S
H444 C441 0.999 . S
H445 C426 0.913 . S
H446 C464 0.951 . S
H447 C466 0.951 . S
H448 C468 0.950 . S
H449 C469 0.950 . S
H450 C471 0.950 . S
H451 C474 0.950 . S
H452 C475 0.950 . S
H453 C477 0.950 . S
H454 C478 0.950 . S
H455 C479 0.951 . S
H456 C481 0.951 . S
H457 C483 0.950 . S
H458 C484 0.950 . S
H459 C486 0.950 . S
H460 C489 0.950 . S
H461 C490 0.950 . S
H462 C492 0.950 . S
H463 C493 0.950 . S
C464 H446 0.951 . S
C464 C465 1.366 . S
C464 C466 1.388 . S
C465 C464 1.366 . S
C465 C469 1.385 . S
C466 H447 0.951 . S
C466 C464 1.388 . S
C466 C467 1.366 . S
C467 C466 1.366 . S
C467 C468 1.414 . S
C467 C470 1.499 . S
C468 H448 0.950 . S
C468 C467 1.414 . S
C468 C469 1.374 . S
C469 H449 0.950 . S
C469 C465 1.385 . S
C469 C468 1.374 . S
C470 C467 1.499 . S
C470 C471 1.373 . S
C470 C472 1.389 . S
C471 H450 0.950 . S
C471 C470 1.373 . S
C471 C487 1.377 . S
C472 C470 1.389 . S
C472 C473 1.524 . S
C472 C486 1.377 . S
C473 C472 1.524 . S
C473 C474 1.397 . S
C473 C478 1.363 . S
C474 H451 0.950 . S
C474 C473 1.397 . S
C474 C475 1.334 . S
C475 H452 0.950 . S
C475 C474 1.334 . S
C475 C476 1.287 . S
C476 C475 1.287 . S
C476 C477 1.524 . S
C476 H495 0.913 . S
C477 H453 0.950 . S
C477 C476 1.524 . S
C477 C478 1.415 . S
C478 H454 0.950 . S
C478 C473 1.363 . S
C478 C477 1.415 . S
C479 H455 0.951 . S
C479 C480 1.366 . S
C479 C481 1.388 . S
C480 C479 1.366 . S
C480 C484 1.385 . S
C481 H456 0.951 . S
C481 C479 1.388 . S
C481 C482 1.366 . S
C482 C481 1.366 . S
C482 C483 1.414 . S
C482 C485 1.499 . S
C483 H457 0.950 . S
C483 C482 1.414 . S
C483 C484 1.374 . S
C484 H458 0.950 . S
C484 C480 1.385 . S
C484 C483 1.374 . S
C485 C482 1.499 . S
C485 C486 1.373 . S
C485 C487 1.389 . S
C486 H459 0.950 . S
C486 C472 1.377 . S
C486 C485 1.373 . S
C487 C471 1.377 . S
C487 C485 1.389 . S
C487 C488 1.524 . S
C488 C487 1.524 . S
C488 C489 1.397 . S
C488 C493 1.363 . S
C489 H460 0.950 . S
C489 C488 1.397 . S
C489 C490 1.334 . S
C490 H461 0.950 . S
C490 C489 1.334 . S
C490 C491 1.287 . S
C491 C490 1.287 . S
C491 C492 1.524 . S
C491 H494 0.999 . S
C492 H462 0.950 . S
C492 C491 1.524 . S
C492 C493 1.415 . S
C493 H463 0.950 . S
C493 C488 1.363 . S
C493 C492 1.415 . S
H494 C491 0.999 . S
H495 C476 0.913 . S
H496 C514 0.951 . S
H497 C516 0.951 . S
H498 C518 0.950 . S
H499 C519 0.950 . S
H500 C521 0.950 . S
H501 C524 0.950 . S
H502 C525 0.950 . S
H503 C527 0.950 . S
H504 C528 0.950 . S
H505 C529 0.951 . S
H506 C531 0.951 . S
H507 C533 0.950 . S
H508 C534 0.950 . S
H509 C536 0.950 . S
H510 C539 0.950 . S
H511 C540 0.950 . S
H512 C542 0.950 . S
H513 C543 0.950 . S
C514 H496 0.951 . S
C514 C515 1.366 . S
C514 C516 1.388 . S
C515 C514 1.366 . S
C515 C519 1.385 . S
C516 H497 0.951 . S
C516 C514 1.388 . S
C516 C517 1.366 . S
C517 C516 1.366 . S
C517 C518 1.414 . S
C517 C520 1.499 . S
C518 H498 0.950 . S
C518 C517 1.414 . S
C518 C519 1.374 . S
C519 H499 0.950 . S
C519 C515 1.385 . S
C519 C518 1.374 . S
C520 C517 1.499 . S
C520 C521 1.373 . S
C520 C522 1.389 . S
C521 H500 0.950 . S
C521 C520 1.373 . S
C521 C537 1.377 . S
C522 C520 1.389 . S
C522 C523 1.524 . S
C522 C536 1.377 . S
C523 C522 1.524 . S
C523 C524 1.397 . S
C523 C528 1.363 . S
C524 H501 0.950 . S
C524 C523 1.397 . S
C524 C525 1.334 . S
C525 H502 0.950 . S
C525 C524 1.334 . S
C525 C526 1.287 . S
C526 C525 1.287 . S
C526 C527 1.524 . S
C526 H545 0.913 . S
C527 H503 0.950 . S
C527 C526 1.524 . S
C527 C528 1.415 . S
C528 H504 0.950 . S
C528 C523 1.363 . S
C528 C527 1.415 . S
C529 H505 0.951 . S
C529 C530 1.366 . S
C529 C531 1.388 . S
C530 C529 1.366 . S
C530 C534 1.385 . S
C531 H506 0.951 . S
C531 C529 1.388 . S
C531 C532 1.366 . S
C532 C531 1.366 . S
C532 C533 1.414 . S
C532 C535 1.499 . S
C533 H507 0.950 . S
C533 C532 1.414 . S
C533 C534 1.374 . S
C534 H508 0.950 . S
C534 C530 1.385 . S
C534 C533 1.374 . S
C535 C532 1.499 . S
C535 C536 1.373 . S
C535 C537 1.389 . S
C536 H509 0.950 . S
C536 C522 1.377 . S
C536 C535 1.373 . S
C537 C521 1.377 . S
C537 C535 1.389 . S
C537 C538 1.524 . S
C538 C537 1.524 . S
C538 C539 1.397 . S
C538 C543 1.363 . S
C539 H510 0.950 . S
C539 C538 1.397 . S
C539 C540 1.334 . S
C540 H511 0.950 . S
C540 C539 1.334 . S
C540 C541 1.287 . S
C541 C540 1.287 . S
C541 C542 1.524 . S
C541 H544 0.999 . S
C542 H512 0.950 . S
C542 C541 1.524 . S
C542 C543 1.415 . S
C543 H513 0.950 . S
C543 C538 1.363 . S
C543 C542 1.415 . S
H544 C541 0.999 . S
H545 C526 0.913 . S
H546 C564 0.951 . S
H547 C566 0.951 . S
H548 C568 0.950 . S
H549 C569 0.950 . S
H550 C571 0.950 . S
H551 C574 0.950 . S
H552 C575 0.950 . S
H553 C577 0.950 . S
H554 C578 0.950 . S
H555 C579 0.951 . S
H556 C581 0.951 . S
H557 C583 0.950 . S
H558 C584 0.950 . S
H559 C586 0.950 . S
H560 C589 0.950 . S
H561 C590 0.950 . S
H562 C592 0.950 . S
H563 C593 0.950 . S
C564 H546 0.951 . S
C564 C565 1.366 . S
C564 C566 1.388 . S
C565 C564 1.366 . S
C565 C569 1.385 . S
C566 H547 0.951 . S
C566 C564 1.388 . S
C566 C567 1.366 . S
C567 C566 1.366 . S
C567 C568 1.414 . S
C567 C570 1.499 . S
C568 H548 0.950 . S
C568 C567 1.414 . S
C568 C569 1.374 . S
C569 H549 0.950 . S
C569 C565 1.385 . S
C569 C568 1.374 . S
C570 C567 1.499 . S
C570 C571 1.373 . S
C570 C572 1.389 . S
C571 H550 0.950 . S
C571 C570 1.373 . S
C571 C587 1.377 . S
C572 C570 1.389 . S
C572 C573 1.524 . S
C572 C586 1.377 . S
C573 C572 1.524 . S
C573 C574 1.397 . S
C573 C578 1.363 . S
C574 H551 0.950 . S
C574 C573 1.397 . S
C574 C575 1.334 . S
C575 H552 0.950 . S
C575 C574 1.334 . S
C575 C576 1.287 . S
C576 C575 1.287 . S
C576 C577 1.524 . S
C576 H595 0.913 . S
C577 H553 0.950 . S
C577 C576 1.524 . S
C577 C578 1.415 . S
C578 H554 0.950 . S
C578 C573 1.363 . S
C578 C577 1.415 . S
C579 H555 0.951 . S
C579 C580 1.366 . S
C579 C581 1.388 . S
C580 C579 1.366 . S
C580 C584 1.385 . S
C581 H556 0.951 . S
C581 C579 1.388 . S
C581 C582 1.366 . S
C582 C581 1.366 . S
C582 C583 1.414 . S
C582 C585 1.499 . S
C583 H557 0.950 . S
C583 C582 1.414 . S
C583 C584 1.374 . S
C584 H558 0.950 . S
C584 C580 1.385 . S
C584 C583 1.374 . S
C585 C582 1.499 . S
C585 C586 1.373 . S
C585 C587 1.389 . S
C586 H559 0.950 . S
C586 C572 1.377 . S
C586 C585 1.373 . S
C587 C571 1.377 . S
C587 C585 1.389 . S
C587 C588 1.524 . S
C588 C587 1.524 . S
C588 C589 1.397 . S
C588 C593 1.363 . S
C589 H560 0.950 . S
C589 C588 1.397 . S
C589 C590 1.334 . S
C590 H561 0.950 . S
C590 C589 1.334 . S
C590 C591 1.287 . S
C591 C590 1.287 . S
C591 C592 1.524 . S
C591 H594 0.999 . S
C592 H562 0.950 . S
C592 C591 1.524 . S
C592 C593 1.415 . S
C593 H563 0.950 . S
C593 C588 1.363 . S
C593 C592 1.415 . S
H594 C591 0.999 . S
H595 C576 0.913 . S
H596 C614 0.951 . S
H597 C616 0.951 . S
H598 C618 0.950 . S
H599 C619 0.950 . S
H600 C621 0.950 . S
H601 C624 0.950 . S
H602 C625 0.950 . S
H603 C627 0.950 . S
H604 C628 0.950 . S
H605 C629 0.951 . S
H606 C631 0.951 . S
H607 C633 0.950 . S
H608 C634 0.950 . S
H609 C636 0.950 1_545 S
H610 C639 0.950 . S
H611 C640 0.950 . S
H612 C642 0.950 . S
H613 C643 0.950 . S
C614 H596 0.951 . S
C614 C615 1.366 . S
C614 C616 1.388 . S
C615 C614 1.366 . S
C615 C619 1.385 . S
C616 H597 0.951 . S
C616 C614 1.388 . S
C616 C617 1.366 . S
C617 C616 1.366 . S
C617 C618 1.414 . S
C617 C620 1.499 . S
C618 H598 0.950 . S
C618 C617 1.414 . S
C618 C619 1.374 . S
C619 H599 0.950 . S
C619 C615 1.385 . S
C619 C618 1.374 . S
C620 C617 1.499 . S
C620 C621 1.373 . S
C620 C622 1.389 . S
C621 H600 0.950 . S
C621 C620 1.373 . S
C621 C637 1.377 . S
C622 C620 1.389 . S
C622 C623 1.524 . S
C622 C636 1.377 . S
C623 C622 1.524 . S
C623 C624 1.397 . S
C623 C628 1.363 . S
C624 H601 0.950 . S
C624 C623 1.397 . S
C624 C625 1.334 . S
C625 H602 0.950 . S
C625 C624 1.334 . S
C625 C626 1.287 . S
C626 C625 1.287 . S
C626 C627 1.524 . S
C626 H645 0.913 . S
C627 H603 0.950 . S
C627 C626 1.524 . S
C627 C628 1.415 . S
C628 H604 0.950 . S
C628 C623 1.363 . S
C628 C627 1.415 . S
C629 H605 0.951 . S
C629 C630 1.366 . S
C629 C631 1.388 . S
C630 C629 1.366 . S
C630 C634 1.385 . S
C631 H606 0.951 . S
C631 C629 1.388 . S
C631 C632 1.366 . S
C632 C631 1.366 . S
C632 C633 1.414 . S
C632 C635 1.499 1_545 S
C633 H607 0.950 . S
C633 C632 1.414 . S
C633 C634 1.374 . S
C634 H608 0.950 . S
C634 C630 1.385 . S
C634 C633 1.374 . S
C635 C632 1.499 1_565 S
C635 C636 1.373 . S
C635 C637 1.389 . S
C636 H609 0.950 1_565 S
C636 C622 1.377 . S
C636 C635 1.373 . S
C637 C621 1.377 . S
C637 C635 1.389 . S
C637 C638 1.524 . S
C638 C637 1.524 . S
C638 C639 1.397 . S
C638 C643 1.363 . S
C639 H610 0.950 . S
C639 C638 1.397 . S
C639 C640 1.334 . S
C640 H611 0.950 . S
C640 C639 1.334 . S
C640 C641 1.287 . S
C641 C640 1.287 . S
C641 C642 1.524 . S
C641 H644 0.999 . S
C642 H612 0.950 . S
C642 C641 1.524 . S
C642 C643 1.415 . S
C643 H613 0.950 . S
C643 C638 1.363 . S
C643 C642 1.415 . S
H644 C641 0.999 . S
H645 C626 0.913 . S
H646 C664 0.951 . S
H647 C666 0.951 . S
H648 C668 0.950 . S
H649 C669 0.950 . S
H650 C671 0.950 . S
H651 C674 0.950 . S
H652 C675 0.950 . S
H653 C677 0.950 . S
H654 C678 0.950 . S
H655 C679 0.951 . S
H656 C681 0.951 . S
H657 C683 0.950 . S
H658 C684 0.950 . S
H659 C686 0.950 . S
H660 C689 0.950 . S
H661 C690 0.950 . S
H662 C692 0.950 . S
H663 C693 0.950 . S
C664 H646 0.951 . S
C664 C665 1.366 . S
C664 C666 1.388 . S
C665 C664 1.366 . S
C665 C669 1.385 . S
C666 H647 0.951 . S
C666 C664 1.388 . S
C666 C667 1.366 . S
C667 C666 1.366 . S
C667 C668 1.414 . S
C667 C670 1.499 . S
C668 H648 0.950 . S
C668 C667 1.414 . S
C668 C669 1.374 . S
C669 H649 0.950 . S
C669 C665 1.385 . S
C669 C668 1.374 . S
C670 C667 1.499 . S
C670 C671 1.373 . S
C670 C672 1.389 . S
C671 H650 0.950 . S
C671 C670 1.373 . S
C671 C687 1.377 . S
C672 C670 1.389 . S
C672 C673 1.524 . S
C672 C686 1.377 . S
C673 C672 1.524 . S
C673 C674 1.397 . S
C673 C678 1.363 . S
C674 H651 0.950 . S
C674 C673 1.397 . S
C674 C675 1.334 . S
C675 H652 0.950 . S
C675 C674 1.334 . S
C675 C676 1.287 . S
C676 C675 1.287 . S
C676 C677 1.524 . S
C676 H695 0.913 . S
C677 H653 0.950 . S
C677 C676 1.524 . S
C677 C678 1.415 . S
C678 H654 0.950 . S
C678 C673 1.363 . S
C678 C677 1.415 . S
C679 H655 0.951 . S
C679 C680 1.366 . S
C679 C681 1.388 . S
C680 C679 1.366 . S
C680 C684 1.385 . S
C681 H656 0.951 . S
C681 C679 1.388 . S
C681 C682 1.366 . S
C682 C681 1.366 . S
C682 C683 1.414 . S
C682 C685 1.499 . S
C683 H657 0.950 . S
C683 C682 1.414 . S
C683 C684 1.374 . S
C684 H658 0.950 . S
C684 C680 1.385 . S
C684 C683 1.374 . S
C685 C682 1.499 . S
C685 C686 1.373 . S
C685 C687 1.389 . S
C686 H659 0.950 . S
C686 C672 1.377 . S
C686 C685 1.373 . S
C687 C671 1.377 . S
C687 C685 1.389 . S
C687 C688 1.524 . S
C688 C687 1.524 . S
C688 C689 1.397 . S
C688 C693 1.363 . S
C689 H660 0.950 . S
C689 C688 1.397 . S
C689 C690 1.334 . S
C690 H661 0.950 . S
C690 C689 1.334 . S
C690 C691 1.287 . S
C691 C690 1.287 . S
C691 C692 1.524 . S
C691 H694 0.999 . S
C692 H662 0.950 . S
C692 C691 1.524 . S
C692 C693 1.415 . S
C693 H663 0.950 . S
C693 C688 1.363 . S
C693 C692 1.415 . S
H694 C691 0.999 . S
H695 C676 0.913 . S
H696 C714 0.951 . S
H697 C716 0.951 . S
H698 C718 0.950 . S
H699 C719 0.950 . S
H700 C721 0.950 . S
H701 C724 0.950 . S
H702 C725 0.950 . S
H703 C727 0.950 . S
H704 C728 0.950 . S
H705 C729 0.951 . S
H706 C731 0.951 . S
H707 C733 0.950 . S
H708 C734 0.950 . S
H709 C736 0.950 . S
H710 C739 0.950 . S
H711 C740 0.950 . S
H712 C742 0.950 . S
H713 C743 0.950 . S
C714 H696 0.951 . S
C714 C715 1.366 . S
C714 C716 1.388 . S
C715 C714 1.366 . S
C715 C719 1.385 . S
C716 H697 0.951 . S
C716 C714 1.388 . S
C716 C717 1.366 . S
C717 C716 1.366 . S
C717 C718 1.414 . S
C717 C720 1.499 . S
C718 H698 0.950 . S
C718 C717 1.414 . S
C718 C719 1.374 . S
C719 H699 0.950 . S
C719 C715 1.385 . S
C719 C718 1.374 . S
C720 C717 1.499 . S
C720 C721 1.373 . S
C720 C722 1.389 . S
C721 H700 0.950 . S
C721 C720 1.373 . S
C721 C737 1.377 . S
C722 C720 1.389 . S
C722 C723 1.524 . S
C722 C736 1.377 . S
C723 C722 1.524 . S
C723 C724 1.397 . S
C723 C728 1.363 . S
C724 H701 0.950 . S
C724 C723 1.397 . S
C724 C725 1.334 . S
C725 H702 0.950 . S
C725 C724 1.334 . S
C725 C726 1.287 . S
C726 C725 1.287 . S
C726 C727 1.524 . S
C726 H745 0.913 . S
C727 H703 0.950 . S
C727 C726 1.524 . S
C727 C728 1.415 . S
C728 H704 0.950 . S
C728 C723 1.363 . S
C728 C727 1.415 . S
C729 H705 0.951 . S
C729 C730 1.366 . S
C729 C731 1.388 . S
C730 C729 1.366 . S
C730 C734 1.385 . S
C731 H706 0.951 . S
C731 C729 1.388 . S
C731 C732 1.366 . S
C732 C731 1.366 . S
C732 C733 1.414 . S
C732 C735 1.499 . S
C733 H707 0.950 . S
C733 C732 1.414 . S
C733 C734 1.374 . S
C734 H708 0.950 . S
C734 C730 1.385 . S
C734 C733 1.374 . S
C735 C732 1.499 . S
C735 C736 1.373 . S
C735 C737 1.389 . S
C736 H709 0.950 . S
C736 C722 1.377 . S
C736 C735 1.373 . S
C737 C721 1.377 . S
C737 C735 1.389 . S
C737 C738 1.524 . S
C738 C737 1.524 . S
C738 C739 1.397 . S
C738 C743 1.363 . S
C739 H710 0.950 . S
C739 C738 1.397 . S
C739 C740 1.334 . S
C740 H711 0.950 . S
C740 C739 1.334 . S
C740 C741 1.287 . S
C741 C740 1.287 . S
C741 C742 1.524 . S
C741 H744 0.999 . S
C742 H712 0.950 . S
C742 C741 1.524 . S
C742 C743 1.415 . S
C743 H713 0.950 . S
C743 C738 1.363 . S
C743 C742 1.415 . S
H744 C741 0.999 . S
H745 C726 0.913 . S
H746 C764 0.951 . S
H747 C766 0.951 . S
H748 C768 0.950 . S
H749 C769 0.950 . S
H750 C771 0.950 . S
H751 C774 0.950 . S
H752 C775 0.950 . S
H753 C777 0.950 . S
H754 C778 0.950 . S
H755 C779 0.951 . S
H756 C781 0.951 . S
H757 C783 0.950 . S
H758 C784 0.950 . S
H759 C786 0.950 . S
H760 C789 0.950 . S
H761 C790 0.950 . S
H762 C792 0.950 . S
H763 C793 0.950 . S
C764 H746 0.951 . S
C764 C765 1.366 . S
C764 C766 1.388 . S
C765 C764 1.366 . S
C765 C769 1.385 . S
C766 H747 0.951 . S
C766 C764 1.388 . S
C766 C767 1.366 . S
C767 C766 1.366 . S
C767 C768 1.414 . S
C767 C770 1.499 . S
C768 H748 0.950 . S
C768 C767 1.414 . S
C768 C769 1.374 . S
C769 H749 0.950 . S
C769 C765 1.385 . S
C769 C768 1.374 . S
C770 C767 1.499 . S
C770 C771 1.373 . S
C770 C772 1.389 . S
C771 H750 0.950 . S
C771 C770 1.373 . S
C771 C787 1.377 . S
C772 C770 1.389 . S
C772 C773 1.524 . S
C772 C786 1.377 . S
C773 C772 1.524 . S
C773 C774 1.397 . S
C773 C778 1.363 . S
C774 H751 0.950 . S
C774 C773 1.397 . S
C774 C775 1.334 . S
C775 H752 0.950 . S
C775 C774 1.334 . S
C775 C776 1.287 . S
C776 C775 1.287 . S
C776 C777 1.524 . S
C776 H795 0.913 . S
C777 H753 0.950 . S
C777 C776 1.524 . S
C777 C778 1.415 . S
C778 H754 0.950 . S
C778 C773 1.363 . S
C778 C777 1.415 . S
C779 H755 0.951 . S
C779 C780 1.366 . S
C779 C781 1.388 . S
C780 C779 1.366 . S
C780 C784 1.385 . S
C781 H756 0.951 . S
C781 C779 1.388 . S
C781 C782 1.366 . S
C782 C781 1.366 . S
C782 C783 1.414 . S
C782 C785 1.499 . S
C783 H757 0.950 . S
C783 C782 1.414 . S
C783 C784 1.374 . S
C784 H758 0.950 . S
C784 C780 1.385 . S
C784 C783 1.374 . S
C785 C782 1.499 . S
C785 C786 1.373 . S
C785 C787 1.389 . S
C786 H759 0.950 . S
C786 C772 1.377 . S
C786 C785 1.373 . S
C787 C771 1.377 . S
C787 C785 1.389 . S
C787 C788 1.524 . S
C788 C787 1.524 . S
C788 C789 1.397 . S
C788 C793 1.363 . S
C789 H760 0.950 . S
C789 C788 1.397 . S
C789 C790 1.334 . S
C790 H761 0.950 . S
C790 C789 1.334 . S
C790 C791 1.287 . S
C791 C790 1.287 . S
C791 C792 1.524 . S
C791 H794 0.999 . S
C792 H762 0.950 . S
C792 C791 1.524 . S
C792 C793 1.415 . S
C793 H763 0.950 . S
C793 C788 1.363 . S
C793 C792 1.415 . S
H794 C791 0.999 . S
H795 C776 0.913 . S
H796 C814 0.951 . S
H797 C816 0.951 . S
H798 C818 0.950 . S
H799 C819 0.950 . S
H800 C821 0.950 . S
H801 C824 0.950 . S
H802 C825 0.950 . S
H803 C827 0.950 . S
H804 C828 0.950 . S
H805 C829 0.951 . S
H806 C831 0.951 . S
H807 C833 0.950 . S
H808 C834 0.950 . S
H809 C836 0.950 . S
H810 C839 0.950 . S
H811 C840 0.950 . S
H812 C842 0.950 . S
H813 C843 0.950 . S
C814 H796 0.951 . S
C814 C815 1.366 . S
C814 C816 1.388 . S
C815 C814 1.366 . S
C815 C819 1.385 . S
C816 H797 0.951 . S
C816 C814 1.388 . S
C816 C817 1.366 . S
C817 C816 1.366 . S
C817 C818 1.414 . S
C817 C820 1.499 . S
C818 H798 0.950 . S
C818 C817 1.414 . S
C818 C819 1.374 . S
C819 H799 0.950 . S
C819 C815 1.385 . S
C819 C818 1.374 . S
C820 C817 1.499 . S
C820 C821 1.373 . S
C820 C822 1.389 . S
C821 H800 0.950 . S
C821 C820 1.373 . S
C821 C837 1.377 . S
C822 C820 1.389 . S
C822 C823 1.524 . S
C822 C836 1.377 . S
C823 C822 1.524 . S
C823 C824 1.397 . S
C823 C828 1.363 . S
C824 H801 0.950 . S
C824 C823 1.397 . S
C824 C825 1.334 . S
C825 H802 0.950 . S
C825 C824 1.334 . S
C825 C826 1.287 . S
C826 C825 1.287 . S
C826 C827 1.524 . S
C826 H845 0.913 . S
C827 H803 0.950 . S
C827 C826 1.524 . S
C827 C828 1.415 . S
C828 H804 0.950 . S
C828 C823 1.363 . S
C828 C827 1.415 . S
C829 H805 0.951 . S
C829 C830 1.366 . S
C829 C831 1.388 . S
C830 C829 1.366 . S
C830 C834 1.385 . S
C831 H806 0.951 . S
C831 C829 1.388 . S
C831 C832 1.366 . S
C832 C831 1.366 . S
C832 C833 1.414 . S
C832 C835 1.499 . S
C833 H807 0.950 . S
C833 C832 1.414 . S
C833 C834 1.374 . S
C834 H808 0.950 . S
C834 C830 1.385 . S
C834 C833 1.374 . S
C835 C832 1.499 . S
C835 C836 1.373 . S
C835 C837 1.389 . S
C836 H809 0.950 . S
C836 C822 1.377 . S
C836 C835 1.373 . S
C837 C821 1.377 . S
C837 C835 1.389 . S
C837 C838 1.524 . S
C838 C837 1.524 . S
C838 C839 1.397 . S
C838 C843 1.363 . S
C839 H810 0.950 . S
C839 C838 1.397 . S
C839 C840 1.334 . S
C840 H811 0.950 . S
C840 C839 1.334 . S
C840 C841 1.287 . S
C841 C840 1.287 . S
C841 C842 1.524 . S
C841 H844 0.999 . S
C842 H812 0.950 . S
C842 C841 1.524 . S
C842 C843 1.415 . S
C843 H813 0.950 . S
C843 C838 1.363 . S
C843 C842 1.415 . S
H844 C841 0.999 . S
H845 C826 0.913 . S
H846 C864 0.951 . S
H847 C866 0.951 . S
H848 C868 0.950 . S
H849 C869 0.950 . S
H850 C871 0.950 . S
H851 C874 0.950 . S
H852 C875 0.950 . S
H853 C877 0.950 . S
H854 C878 0.950 . S
H855 C879 0.951 . S
H856 C881 0.951 . S
H857 C883 0.950 . S
H858 C884 0.950 . S
H859 C886 0.950 . S
H860 C889 0.950 . S
H861 C890 0.950 . S
H862 C892 0.950 . S
H863 C893 0.950 . S
C864 H846 0.951 . S
C864 C865 1.366 . S
C864 C866 1.388 . S
C865 C864 1.366 . S
C865 C869 1.385 . S
C866 H847 0.951 . S
C866 C864 1.388 . S
C866 C867 1.366 . S
C867 C866 1.366 . S
C867 C868 1.414 . S
C867 C870 1.499 . S
C868 H848 0.950 . S
C868 C867 1.414 . S
C868 C869 1.374 . S
C869 H849 0.950 . S
C869 C865 1.385 . S
C869 C868 1.374 . S
C870 C867 1.499 . S
C870 C871 1.373 . S
C870 C872 1.389 . S
C871 H850 0.950 . S
C871 C870 1.373 . S
C871 C887 1.377 . S
C872 C870 1.389 . S
C872 C873 1.524 . S
C872 C886 1.377 . S
C873 C872 1.524 . S
C873 C874 1.397 . S
C873 C878 1.363 . S
C874 H851 0.950 . S
C874 C873 1.397 . S
C874 C875 1.334 . S
C875 H852 0.950 . S
C875 C874 1.334 . S
C875 C876 1.287 . S
C876 C875 1.287 . S
C876 C877 1.524 . S
C876 H895 0.913 . S
C877 H853 0.950 . S
C877 C876 1.524 . S
C877 C878 1.415 . S
C878 H854 0.950 . S
C878 C873 1.363 . S
C878 C877 1.415 . S
C879 H855 0.951 . S
C879 C880 1.366 1_455 S
C879 C881 1.388 1_455 S
C880 C879 1.366 1_655 S
C880 C884 1.385 . S
C881 H856 0.951 . S
C881 C879 1.388 1_655 S
C881 C882 1.366 . S
C882 C881 1.366 . S
C882 C883 1.414 . S
C882 C885 1.499 . S
C883 H857 0.950 . S
C883 C882 1.414 . S
C883 C884 1.374 . S
C884 H858 0.950 . S
C884 C880 1.385 . S
C884 C883 1.374 . S
C885 C882 1.499 . S
C885 C886 1.373 . S
C885 C887 1.389 . S
C886 H859 0.950 . S
C886 C872 1.377 . S
C886 C885 1.373 . S
C887 C871 1.377 . S
C887 C885 1.389 . S
C887 C888 1.524 . S
C888 C887 1.524 . S
C888 C889 1.397 . S
C888 C893 1.363 . S
C889 H860 0.950 . S
C889 C888 1.397 . S
C889 C890 1.334 . S
C890 H861 0.950 . S
C890 C889 1.334 . S
C890 C891 1.287 1_655 S
C891 C890 1.287 1_455 S
C891 C892 1.524 . S
C891 H894 0.999 . S
C892 H862 0.950 . S
C892 C891 1.524 . S
C892 C893 1.415 1_455 S
C893 H863 0.950 . S
C893 C888 1.363 . S
C893 C892 1.415 1_655 S
H894 C891 0.999 . S
H895 C876 0.913 . S
H896 C914 0.951 . S
H897 C916 0.951 . S
H898 C918 0.950 . S
H899 C919 0.950 . S
H900 C921 0.950 . S
H901 C924 0.950 . S
H902 C925 0.950 . S
H903 C927 0.950 . S
H904 C928 0.950 . S
H905 C929 0.951 . S
H906 C931 0.951 . S
H907 C933 0.950 . S
H908 C934 0.950 . S
H909 C936 0.950 . S
H910 C939 0.950 . S
H911 C940 0.950 . S
H912 C942 0.950 . S
H913 C943 0.950 . S
C914 H896 0.951 . S
C914 C915 1.366 . S
C914 C916 1.388 . S
C915 C914 1.366 . S
C915 C919 1.385 . S
C916 H897 0.951 . S
C916 C914 1.388 . S
C916 C917 1.366 . S
C917 C916 1.366 . S
C917 C918 1.414 . S
C917 C920 1.499 . S
C918 H898 0.950 . S
C918 C917 1.414 . S
C918 C919 1.374 . S
C919 H899 0.950 . S
C919 C915 1.385 . S
C919 C918 1.374 . S
C920 C917 1.499 . S
C920 C921 1.373 . S
C920 C922 1.389 . S
C921 H900 0.950 . S
C921 C920 1.373 . S
C921 C937 1.377 . S
C922 C920 1.389 . S
C922 C923 1.524 . S
C922 C936 1.377 . S
C923 C922 1.524 . S
C923 C924 1.397 . S
C923 C928 1.363 . S
C924 H901 0.950 . S
C924 C923 1.397 . S
C924 C925 1.334 . S
C925 H902 0.950 . S
C925 C924 1.334 . S
C925 C926 1.287 . S
C926 C925 1.287 . S
C926 C927 1.524 . S
C926 H945 0.913 . S
C927 H903 0.950 . S
C927 C926 1.524 . S
C927 C928 1.415 . S
C928 H904 0.950 . S
C928 C923 1.363 . S
C928 C927 1.415 . S
C929 H905 0.951 . S
C929 C930 1.366 . S
C929 C931 1.388 . S
C930 C929 1.366 . S
C930 C934 1.385 . S
C931 H906 0.951 . S
C931 C929 1.388 . S
C931 C932 1.366 . S
C932 C931 1.366 . S
C932 C933 1.414 . S
C932 C935 1.499 . S
C933 H907 0.950 . S
C933 C932 1.414 . S
C933 C934 1.374 . S
C934 H908 0.950 . S
C934 C930 1.385 . S
C934 C933 1.374 . S
C935 C932 1.499 . S
C935 C936 1.373 . S
C935 C937 1.389 . S
C936 H909 0.950 . S
C936 C922 1.377 . S
C936 C935 1.373 . S
C937 C921 1.377 . S
C937 C935 1.389 . S
C937 C938 1.524 . S
C938 C937 1.524 . S
C938 C939 1.397 . S
C938 C943 1.363 . S
C939 H910 0.950 . S
C939 C938 1.397 . S
C939 C940 1.334 . S
C940 H911 0.950 . S
C940 C939 1.334 . S
C940 C941 1.287 . S
C941 C940 1.287 . S
C941 C942 1.524 . S
C941 H944 0.999 . S
C942 H912 0.950 . S
C942 C941 1.524 . S
C942 C943 1.415 . S
C943 H913 0.950 . S
C943 C938 1.363 . S
C943 C942 1.415 . S
H944 C941 0.999 . S
H945 C926 0.913 . S
H946 C964 0.951 . S
H947 C966 0.951 . S
H948 C968 0.950 . S
H949 C969 0.950 . S
H950 C971 0.950 . S
H951 C974 0.950 . S
H952 C975 0.950 . S
H953 C977 0.950 . S
H954 C978 0.950 . S
H955 C979 0.951 . S
H956 C981 0.951 . S
H957 C983 0.950 . S
H958 C984 0.950 . S
H959 C986 0.950 . S
H960 C989 0.950 . S
H961 C990 0.950 . S
H962 C992 0.950 . S
H963 C993 0.950 . S
C964 H946 0.951 . S
C964 C965 1.366 . S
C964 C966 1.388 . S
C965 C964 1.366 . S
C965 C969 1.385 . S
C966 H947 0.951 . S
C966 C964 1.388 . S
C966 C967 1.366 . S
C967 C966 1.366 . S
C967 C968 1.414 . S
C967 C970 1.499 . S
C968 H948 0.950 . S
C968 C967 1.414 . S
C968 C969 1.374 . S
C969 H949 0.950 . S
C969 C965 1.385 . S
C969 C968 1.374 . S
C970 C967 1.499 . S
C970 C971 1.373 . S
C970 C972 1.389 . S
C971 H950 0.950 . S
C971 C970 1.373 . S
C971 C987 1.377 . S
C972 C970 1.389 . S
C972 C973 1.524 . S
C972 C986 1.377 . S
C973 C972 1.524 . S
C973 C974 1.397 . S
C973 C978 1.363 . S
C974 H951 0.950 . S
C974 C973 1.397 . S
C974 C975 1.334 . S
C975 H952 0.950 . S
C975 C974 1.334 . S
C975 C976 1.287 . S
C976 C975 1.287 . S
C976 C977 1.524 . S
C976 H995 0.913 . S
C977 H953 0.950 . S
C977 C976 1.524 . S
C977 C978 1.415 . S
C978 H954 0.950 . S
C978 C973 1.363 . S
C978 C977 1.415 . S
C979 H955 0.951 . S
C979 C980 1.366 . S
C979 C981 1.388 . S
C980 C979 1.366 . S
C980 C984 1.385 . S
C981 H956 0.951 . S
C981 C979 1.388 . S
C981 C982 1.366 . S
C982 C981 1.366 . S
C982 C983 1.414 . S
C982 C985 1.499 . S
C983 H957 0.950 . S
C983 C982 1.414 . S
C983 C984 1.374 . S
C984 H958 0.950 . S
C984 C980 1.385 . S
C984 C983 1.374 . S
C985 C982 1.499 . S
C985 C986 1.373 . S
C985 C987 1.389 . S
C986 H959 0.950 . S
C986 C972 1.377 . S
C986 C985 1.373 . S
C987 C971 1.377 . S
C987 C985 1.389 . S
C987 C988 1.524 . S
C988 C987 1.524 . S
C988 C989 1.397 . S
C988 C993 1.363 . S
C989 H960 0.950 . S
C989 C988 1.397 . S
C989 C990 1.334 . S
C990 H961 0.950 . S
C990 C989 1.334 . S
C990 C991 1.287 . S
C991 C990 1.287 . S
C991 C992 1.524 . S
C991 H994 0.999 . S
C992 H962 0.950 . S
C992 C991 1.524 . S
C992 C993 1.415 . S
C993 H963 0.950 . S
C993 C988 1.363 . S
C993 C992 1.415 . S
H994 C991 0.999 . S
H995 C976 0.913 . S
H996 C1014 0.951 . S
H997 C1016 0.951 . S
H998 C1018 0.950 . S
H999 C1019 0.950 . S
H1000 C1021 0.950 . S
H1001 C1024 0.950 . S
H1002 C1025 0.950 . S
H1003 C1027 0.950 . S
H1004 C1028 0.950 . S
H1005 C1029 0.951 . S
H1006 C1031 0.951 . S
H1007 C1033 0.950 . S
H1008 C1034 0.950 . S
H1009 C1036 0.950 . S
H1010 C1039 0.950 . S
H1011 C1040 0.950 . S
H1012 C1042 0.950 . S
H1013 C1043 0.950 . S
C1014 H996 0.951 . S
C1014 C1015 1.366 . S
C1014 C1016 1.388 . S
C1015 C1014 1.366 . S
C1015 C1019 1.385 . S
C1016 H997 0.951 . S
C1016 C1014 1.388 . S
C1016 C1017 1.366 . S
C1017 C1016 1.366 . S
C1017 C1018 1.414 . S
C1017 C1020 1.499 . S
C1018 H998 0.950 . S
C1018 C1017 1.414 . S
C1018 C1019 1.374 . S
C1019 H999 0.950 . S
C1019 C1015 1.385 . S
C1019 C1018 1.374 . S
C1020 C1017 1.499 . S
C1020 C1021 1.373 . S
C1020 C1022 1.389 . S
C1021 H1000 0.950 . S
C1021 C1020 1.373 . S
C1021 C1037 1.377 . S
C1022 C1020 1.389 . S
C1022 C1023 1.524 . S
C1022 C1036 1.377 . S
C1023 C1022 1.524 . S
C1023 C1024 1.397 . S
C1023 C1028 1.363 . S
C1024 H1001 0.950 . S
C1024 C1023 1.397 . S
C1024 C1025 1.334 . S
C1025 H1002 0.950 . S
C1025 C1024 1.334 . S
C1025 C1026 1.287 . S
C1026 C1025 1.287 . S
C1026 C1027 1.524 . S
C1026 H1045 0.913 . S
C1027 H1003 0.950 . S
C1027 C1026 1.524 . S
C1027 C1028 1.415 . S
C1028 H1004 0.950 . S
C1028 C1023 1.363 . S
C1028 C1027 1.415 . S
C1029 H1005 0.951 . S
C1029 C1030 1.366 . S
C1029 C1031 1.388 . S
C1030 C1029 1.366 . S
C1030 C1034 1.385 . S
C1031 H1006 0.951 . S
C1031 C1029 1.388 . S
C1031 C1032 1.366 . S
C1032 C1031 1.366 . S
C1032 C1033 1.414 . S
C1032 C1035 1.499 . S
C1033 H1007 0.950 . S
C1033 C1032 1.414 . S
C1033 C1034 1.374 . S
C1034 H1008 0.950 . S
C1034 C1030 1.385 . S
C1034 C1033 1.374 . S
C1035 C1032 1.499 . S
C1035 C1036 1.373 . S
C1035 C1037 1.389 . S
C1036 H1009 0.950 . S
C1036 C1022 1.377 . S
C1036 C1035 1.373 . S
C1037 C1021 1.377 . S
C1037 C1035 1.389 . S
C1037 C1038 1.524 . S
C1038 C1037 1.524 . S
C1038 C1039 1.397 . S
C1038 C1043 1.363 . S
C1039 H1010 0.950 . S
C1039 C1038 1.397 . S
C1039 C1040 1.334 . S
C1040 H1011 0.950 . S
C1040 C1039 1.334 . S
C1040 C1041 1.287 . S
C1041 C1040 1.287 . S
C1041 C1042 1.524 . S
C1041 H1044 0.999 . S
C1042 H1012 0.950 . S
C1042 C1041 1.524 . S
C1042 C1043 1.415 . S
C1043 H1013 0.950 . S
C1043 C1038 1.363 . S
C1043 C1042 1.415 . S
H1044 C1041 0.999 . S
H1045 C1026 0.913 . S
H1046 C1064 0.951 . S
H1047 C1066 0.951 . S
H1048 C1068 0.950 . S
H1049 C1069 0.950 . S
H1050 C1071 0.950 . S
H1051 C1074 0.950 . S
H1052 C1075 0.950 . S
H1053 C1077 0.950 . S
H1054 C1078 0.950 . S
H1055 C1079 0.951 . S
H1056 C1081 0.951 . S
H1057 C1083 0.950 . S
H1058 C1084 0.950 . S
H1059 C1086 0.950 . S
H1060 C1089 0.950 . S
H1061 C1090 0.950 . S
H1062 C1092 0.950 . S
H1063 C1093 0.950 . S
C1064 H1046 0.951 . S
C1064 C1065 1.366 . S
C1064 C1066 1.388 . S
C1065 C1064 1.366 . S
C1065 C1069 1.385 . S
C1066 H1047 0.951 . S
C1066 C1064 1.388 . S
C1066 C1067 1.366 . S
C1067 C1066 1.366 . S
C1067 C1068 1.414 . S
C1067 C1070 1.499 . S
C1068 H1048 0.950 . S
C1068 C1067 1.414 . S
C1068 C1069 1.374 . S
C1069 H1049 0.950 . S
C1069 C1065 1.385 . S
C1069 C1068 1.374 . S
C1070 C1067 1.499 . S
C1070 C1071 1.373 . S
C1070 C1072 1.389 . S
C1071 H1050 0.950 . S
C1071 C1070 1.373 . S
C1071 C1087 1.377 . S
C1072 C1070 1.389 . S
C1072 C1073 1.524 . S
C1072 C1086 1.377 . S
C1073 C1072 1.524 . S
C1073 C1074 1.397 . S
C1073 C1078 1.363 . S
C1074 H1051 0.950 . S
C1074 C1073 1.397 . S
C1074 C1075 1.334 . S
C1075 H1052 0.950 . S
C1075 C1074 1.334 . S
C1075 C1076 1.287 . S
C1076 C1075 1.287 . S
C1076 C1077 1.524 . S
C1076 H1095 0.913 . S
C1077 H1053 0.950 . S
C1077 C1076 1.524 . S
C1077 C1078 1.415 . S
C1078 H1054 0.950 . S
C1078 C1073 1.363 . S
C1078 C1077 1.415 . S
C1079 H1055 0.951 . S
C1079 C1080 1.366 . S
C1079 C1081 1.388 . S
C1080 C1079 1.366 . S
C1080 C1084 1.385 . S
C1081 H1056 0.951 . S
C1081 C1079 1.388 . S
C1081 C1082 1.366 . S
C1082 C1081 1.366 . S
C1082 C1083 1.414 . S
C1082 C1085 1.499 . S
C1083 H1057 0.950 . S
C1083 C1082 1.414 . S
C1083 C1084 1.374 . S
C1084 H1058 0.950 . S
C1084 C1080 1.385 . S
C1084 C1083 1.374 . S
C1085 C1082 1.499 . S
C1085 C1086 1.373 . S
C1085 C1087 1.389 . S
C1086 H1059 0.950 . S
C1086 C1072 1.377 . S
C1086 C1085 1.373 . S
C1087 C1071 1.377 . S
C1087 C1085 1.389 . S
C1087 C1088 1.524 . S
C1088 C1087 1.524 . S
C1088 C1089 1.397 . S
C1088 C1093 1.363 . S
C1089 H1060 0.950 . S
C1089 C1088 1.397 . S
C1089 C1090 1.334 . S
C1090 H1061 0.950 . S
C1090 C1089 1.334 . S
C1090 C1091 1.287 . S
C1091 C1090 1.287 . S
C1091 C1092 1.524 . S
C1091 H1094 0.999 . S
C1092 H1062 0.950 . S
C1092 C1091 1.524 . S
C1092 C1093 1.415 . S
C1093 H1063 0.950 . S
C1093 C1088 1.363 . S
C1093 C1092 1.415 . S
H1094 C1091 0.999 . S
H1095 C1076 0.913 . S
H1096 C1114 0.951 . S
H1097 C1116 0.951 . S
H1098 C1118 0.950 . S
H1099 C1119 0.950 . S
H1100 C1121 0.950 . S
H1101 C1124 0.950 . S
H1102 C1125 0.950 . S
H1103 C1127 0.950 . S
H1104 C1128 0.950 . S
H1105 C1129 0.951 . S
H1106 C1131 0.951 . S
H1107 C1133 0.950 . S
H1108 C1134 0.950 . S
H1109 C1136 0.950 . S
H1110 C1139 0.950 . S
H1111 C1140 0.950 . S
H1112 C1142 0.950 . S
H1113 C1143 0.950 . S
C1114 H1096 0.951 . S
C1114 C1115 1.366 . S
C1114 C1116 1.388 . S
C1115 C1114 1.366 . S
C1115 C1119 1.385 . S
C1116 H1097 0.951 . S
C1116 C1114 1.388 . S
C1116 C1117 1.366 . S
C1117 C1116 1.366 . S
C1117 C1118 1.414 . S
C1117 C1120 1.499 . S
C1118 H1098 0.950 . S
C1118 C1117 1.414 . S
C1118 C1119 1.374 . S
C1119 H1099 0.950 . S
C1119 C1115 1.385 . S
C1119 C1118 1.374 . S
C1120 C1117 1.499 . S
C1120 C1121 1.373 . S
C1120 C1122 1.389 . S
C1121 H1100 0.950 . S
C1121 C1120 1.373 . S
C1121 C1137 1.377 . S
C1122 C1120 1.389 . S
C1122 C1123 1.524 . S
C1122 C1136 1.377 . S
C1123 C1122 1.524 . S
C1123 C1124 1.397 . S
C1123 C1128 1.363 . S
C1124 H1101 0.950 . S
C1124 C1123 1.397 . S
C1124 C1125 1.334 . S
C1125 H1102 0.950 . S
C1125 C1124 1.334 . S
C1125 C1126 1.287 . S
C1126 C1125 1.287 . S
C1126 C1127 1.524 . S
C1126 H1145 0.913 . S
C1127 H1103 0.950 . S
C1127 C1126 1.524 . S
C1127 C1128 1.415 . S
C1128 H1104 0.950 . S
C1128 C1123 1.363 . S
C1128 C1127 1.415 . S
C1129 H1105 0.951 . S
C1129 C1130 1.366 . S
C1129 C1131 1.388 . S
C1130 C1129 1.366 . S
C1130 C1134 1.385 . S
C1131 H1106 0.951 . S
C1131 C1129 1.388 . S
C1131 C1132 1.366 . S
C1132 C1131 1.366 . S
C1132 C1133 1.414 . S
C1132 C1135 1.499 . S
C1133 H1107 0.950 . S
C1133 C1132 1.414 . S
C1133 C1134 1.374 . S
C1134 H1108 0.950 . S
C1134 C1130 1.385 . S
C1134 C1133 1.374 . S
C1135 C1132 1.499 . S
C1135 C1136 1.373 . S
C1135 C1137 1.389 . S
C1136 H1109 0.950 . S
C1136 C1122 1.377 . S
C1136 C1135 1.373 . S
C1137 C1121 1.377 . S
C1137 C1135 1.389 . S
C1137 C1138 1.524 . S
C1138 C1137 1.524 . S
C1138 C1139 1.397 . S
C1138 C1143 1.363 . S
C1139 H1110 0.950 . S
C1139 C1138 1.397 . S
C1139 C1140 1.334 . S
C1140 H1111 0.950 . S
C1140 C1139 1.334 . S
C1140 C1141 1.287 . S
C1141 C1140 1.287 . S
C1141 C1142 1.524 . S
C1141 H1144 0.999 . S
C1142 H1112 0.950 . S
C1142 C1141 1.524 . S
C1142 C1143 1.415 . S
C1143 H1113 0.950 . S
C1143 C1138 1.363 . S
C1143 C1142 1.415 . S
H1144 C1141 0.999 . S
H1145 C1126 0.913 . S
H1146 C1164 0.951 . S
H1147 C1166 0.951 . S
H1148 C1168 0.950 . S
H1149 C1169 0.950 . S
H1150 C1171 0.950 . S
H1151 C1174 0.950 . S
H1152 C1175 0.950 . S
H1153 C1177 0.950 . S
H1154 C1178 0.950 . S
H1155 C1179 0.951 . S
H1156 C1181 0.951 . S
H1157 C1183 0.950 . S
H1158 C1184 0.950 . S
H1159 C1186 0.950 . S
H1160 C1189 0.950 . S
H1161 C1190 0.950 . S
H1162 C1192 0.950 . S
H1163 C1193 0.950 . S
C1164 H1146 0.951 . S
C1164 C1165 1.366 . S
C1164 C1166 1.388 . S
C1165 C1164 1.366 . S
C1165 C1169 1.385 . S
C1166 H1147 0.951 . S
C1166 C1164 1.388 . S
C1166 C1167 1.366 . S
C1167 C1166 1.366 . S
C1167 C1168 1.414 . S
C1167 C1170 1.499 . S
C1168 H1148 0.950 . S
C1168 C1167 1.414 . S
C1168 C1169 1.374 . S
C1169 H1149 0.950 . S
C1169 C1165 1.385 . S
C1169 C1168 1.374 . S
C1170 C1167 1.499 . S
C1170 C1171 1.373 . S
C1170 C1172 1.389 . S
C1171 H1150 0.950 . S
C1171 C1170 1.373 . S
C1171 C1187 1.377 . S
C1172 C1170 1.389 . S
C1172 C1173 1.524 . S
C1172 C1186 1.377 . S
C1173 C1172 1.524 . S
C1173 C1174 1.397 . S
C1173 C1178 1.363 . S
C1174 H1151 0.950 . S
C1174 C1173 1.397 . S
C1174 C1175 1.334 . S
C1175 H1152 0.950 . S
C1175 C1174 1.334 . S
C1175 C1176 1.287 . S
C1176 C1175 1.287 . S
C1176 C1177 1.524 . S
C1176 H1195 0.913 . S
C1177 H1153 0.950 . S
C1177 C1176 1.524 . S
C1177 C1178 1.415 . S
C1178 H1154 0.950 . S
C1178 C1173 1.363 . S
C1178 C1177 1.415 . S
C1179 H1155 0.951 . S
C1179 C1180 1.366 . S
C1179 C1181 1.388 . S
C1180 C1179 1.366 . S
C1180 C1184 1.385 . S
C1181 H1156 0.951 . S
C1181 C1179 1.388 . S
C1181 C1182 1.366 . S
C1182 C1181 1.366 . S
C1182 C1183 1.414 . S
C1182 C1185 1.499 . S
C1183 H1157 0.950 . S
C1183 C1182 1.414 . S
C1183 C1184 1.374 . S
C1184 H1158 0.950 . S
C1184 C1180 1.385 . S
C1184 C1183 1.374 . S
C1185 C1182 1.499 . S
C1185 C1186 1.373 . S
C1185 C1187 1.389 . S
C1186 H1159 0.950 . S
C1186 C1172 1.377 . S
C1186 C1185 1.373 . S
C1187 C1171 1.377 . S
C1187 C1185 1.389 . S
C1187 C1188 1.524 . S
C1188 C1187 1.524 . S
C1188 C1189 1.397 . S
C1188 C1193 1.363 . S
C1189 H1160 0.950 . S
C1189 C1188 1.397 . S
C1189 C1190 1.334 . S
C1190 H1161 0.950 . S
C1190 C1189 1.334 . S
C1190 C1191 1.287 . S
C1191 C1190 1.287 . S
C1191 C1192 1.524 . S
C1191 H1194 0.999 . S
C1192 H1162 0.950 . S
C1192 C1191 1.524 . S
C1192 C1193 1.415 . S
C1193 H1163 0.950 . S
C1193 C1188 1.363 . S
C1193 C1192 1.415 . S
H1194 C1191 0.999 . S
H1195 C1176 0.913 . S
H1196 C1214 0.951 . S
H1197 C1216 0.951 . S
H1198 C1218 0.950 . S
H1199 C1219 0.950 . S
H1200 C1221 0.950 . S
H1201 C1224 0.950 . S
H1202 C1225 0.950 . S
H1203 C1227 0.950 . S
H1204 C1228 0.950 . S
H1205 C1229 0.951 . S
H1206 C1231 0.951 . S
H1207 C1233 0.950 . S
H1208 C1234 0.950 . S
H1209 C1236 0.950 . S
H1210 C1239 0.950 . S
H1211 C1240 0.950 . S
H1212 C1242 0.950 . S
H1213 C1243 0.950 . S
C1214 H1196 0.951 . S
C1214 C1215 1.366 . S
C1214 C1216 1.388 . S
C1215 C1214 1.366 . S
C1215 C1219 1.385 . S
C1216 H1197 0.951 . S
C1216 C1214 1.388 . S
C1216 C1217 1.366 . S
C1217 C1216 1.366 . S
C1217 C1218 1.414 . S
C1217 C1220 1.499 . S
C1218 H1198 0.950 . S
C1218 C1217 1.414 . S
C1218 C1219 1.374 . S
C1219 H1199 0.950 . S
C1219 C1215 1.385 . S
C1219 C1218 1.374 . S
C1220 C1217 1.499 . S
C1220 C1221 1.373 . S
C1220 C1222 1.389 . S
C1221 H1200 0.950 . S
C1221 C1220 1.373 . S
C1221 C1237 1.377 . S
C1222 C1220 1.389 . S
C1222 C1223 1.524 . S
C1222 C1236 1.377 . S
C1223 C1222 1.524 . S
C1223 C1224 1.397 . S
C1223 C1228 1.363 . S
C1224 H1201 0.950 . S
C1224 C1223 1.397 . S
C1224 C1225 1.334 . S
C1225 H1202 0.950 . S
C1225 C1224 1.334 . S
C1225 C1226 1.287 . S
C1226 C1225 1.287 . S
C1226 C1227 1.524 . S
C1226 H1245 0.913 . S
C1227 H1203 0.950 . S
C1227 C1226 1.524 . S
C1227 C1228 1.415 . S
C1228 H1204 0.950 . S
C1228 C1223 1.363 . S
C1228 C1227 1.415 . S
C1229 H1205 0.951 . S
C1229 C1230 1.366 . S
C1229 C1231 1.388 . S
C1230 C1229 1.366 . S
C1230 C1234 1.385 . S
C1231 H1206 0.951 . S
C1231 C1229 1.388 . S
C1231 C1232 1.366 . S
C1232 C1231 1.366 . S
C1232 C1233 1.414 . S
C1232 C1235 1.499 . S
C1233 H1207 0.950 . S
C1233 C1232 1.414 . S
C1233 C1234 1.374 . S
C1234 H1208 0.950 . S
C1234 C1230 1.385 . S
C1234 C1233 1.374 . S
C1235 C1232 1.499 . S
C1235 C1236 1.373 . S
C1235 C1237 1.389 . S
C1236 H1209 0.950 . S
C1236 C1222 1.377 . S
C1236 C1235 1.373 . S
C1237 C1221 1.377 . S
C1237 C1235 1.389 . S
C1237 C1238 1.524 . S
C1238 C1237 1.524 . S
C1238 C1239 1.397 . S
C1238 C1243 1.363 . S
C1239 H1210 0.950 . S
C1239 C1238 1.397 . S
C1239 C1240 1.334 . S
C1240 H1211 0.950 . S
C1240 C1239 1.334 . S
C1240 C1241 1.287 . S
C1241 C1240 1.287 . S
C1241 C1242 1.524 . S
C1241 H1244 0.999 . S
C1242 H1212 0.950 . S
C1242 C1241 1.524 . S
C1242 C1243 1.415 . S
C1243 H1213 0.950 . S
C1243 C1238 1.363 . S
C1243 C1242 1.415 . S
H1244 C1241 0.999 . S
H1245 C1226 0.913 . S
H1246 C1264 0.951 . S
H1247 C1266 0.951 . S
H1248 C1268 0.950 . S
H1249 C1269 0.950 . S
H1250 C1271 0.950 . S
H1251 C1274 0.950 . S
H1252 C1275 0.950 . S
H1253 C1277 0.950 . S
H1254 C1278 0.950 . S
H1255 C1279 0.951 . S
H1256 C1281 0.951 . S
H1257 C1283 0.950 . S
H1258 C1284 0.950 . S
H1259 C1286 0.950 . S
H1260 C1289 0.950 . S
H1261 C1290 0.950 . S
H1262 C1292 0.950 . S
H1263 C1293 0.950 . S
C1264 H1246 0.951 . S
C1264 C1265 1.366 . S
C1264 C1266 1.388 . S
C1265 C1264 1.366 . S
C1265 C1269 1.385 . S
C1266 H1247 0.951 . S
C1266 C1264 1.388 . S
C1266 C1267 1.366 . S
C1267 C1266 1.366 . S
C1267 C1268 1.414 . S
C1267 C1270 1.499 . S
C1268 H1248 0.950 . S
C1268 C1267 1.414 . S
C1268 C1269 1.374 . S
C1269 H1249 0.950 . S
C1269 C1265 1.385 . S
C1269 C1268 1.374 . S
C1270 C1267 1.499 . S
C1270 C1271 1.373 . S
C1270 C1272 1.389 . S
C1271 H1250 0.950 . S
C1271 C1270 1.373 . S
C1271 C1287 1.377 . S
C1272 C1270 1.389 . S
C1272 C1273 1.524 . S
C1272 C1286 1.377 . S
C1273 C1272 1.524 . S
C1273 C1274 1.397 . S
C1273 C1278 1.363 . S
C1274 H1251 0.950 . S
C1274 C1273 1.397 . S
C1274 C1275 1.334 . S
C1275 H1252 0.950 . S
C1275 C1274 1.334 . S
C1275 C1276 1.287 . S
C1276 C1275 1.287 . S
C1276 C1277 1.524 . S
C1276 H1295 0.913 . S
C1277 H1253 0.950 . S
C1277 C1276 1.524 . S
C1277 C1278 1.415 . S
C1278 H1254 0.950 . S
C1278 C1273 1.363 . S
C1278 C1277 1.415 . S
C1279 H1255 0.951 . S
C1279 C1280 1.366 . S
C1279 C1281 1.388 . S
C1280 C1279 1.366 . S
C1280 C1284 1.385 . S
C1281 H1256 0.951 . S
C1281 C1279 1.388 . S
C1281 C1282 1.366 . S
C1282 C1281 1.366 . S
C1282 C1283 1.414 . S
C1282 C1285 1.499 . S
C1283 H1257 0.950 . S
C1283 C1282 1.414 . S
C1283 C1284 1.374 . S
C1284 H1258 0.950 . S
C1284 C1280 1.385 . S
C1284 C1283 1.374 . S
C1285 C1282 1.499 . S
C1285 C1286 1.373 . S
C1285 C1287 1.389 . S
C1286 H1259 0.950 . S
C1286 C1272 1.377 . S
C1286 C1285 1.373 . S
C1287 C1271 1.377 . S
C1287 C1285 1.389 . S
C1287 C1288 1.524 . S
C1288 C1287 1.524 . S
C1288 C1289 1.397 . S
C1288 C1293 1.363 . S
C1289 H1260 0.950 . S
C1289 C1288 1.397 . S
C1289 C1290 1.334 . S
C1290 H1261 0.950 . S
C1290 C1289 1.334 . S
C1290 C1291 1.287 . S
C1291 C1290 1.287 . S
C1291 C1292 1.524 . S
C1291 H1294 0.999 . S
C1292 H1262 0.950 . S
C1292 C1291 1.524 . S
C1292 C1293 1.415 . S
C1293 H1263 0.950 . S
C1293 C1288 1.363 . S
C1293 C1292 1.415 . S
H1294 C1291 0.999 . S
H1295 C1276 0.913 . S
H1296 C1314 0.951 . S
H1297 C1316 0.951 . S
H1298 C1318 0.950 . S
H1299 C1319 0.950 . S
H1300 C1321 0.950 . S
H1301 C1324 0.950 . S
H1302 C1325 0.950 . S
H1303 C1327 0.950 . S
H1304 C1328 0.950 . S
H1305 C1329 0.951 . S
H1306 C1331 0.951 . S
H1307 C1333 0.950 . S
H1308 C1334 0.950 . S
H1309 C1336 0.950 . S
H1310 C1339 0.950 . S
H1311 C1340 0.950 . S
H1312 C1342 0.950 . S
H1313 C1343 0.950 . S
C1314 H1296 0.951 . S
C1314 C1315 1.366 . S
C1314 C1316 1.388 . S
C1315 C1314 1.366 . S
C1315 C1319 1.385 . S
C1316 H1297 0.951 . S
C1316 C1314 1.388 . S
C1316 C1317 1.366 . S
C1317 C1316 1.366 . S
C1317 C1318 1.414 . S
C1317 C1320 1.499 . S
C1318 H1298 0.950 . S
C1318 C1317 1.414 . S
C1318 C1319 1.374 . S
C1319 H1299 0.950 . S
C1319 C1315 1.385 . S
C1319 C1318 1.374 . S
C1320 C1317 1.499 . S
C1320 C1321 1.373 . S
C1320 C1322 1.389 . S
C1321 H1300 0.950 . S
C1321 C1320 1.373 . S
C1321 C1337 1.377 . S
C1322 C1320 1.389 . S
C1322 C1323 1.524 . S
C1322 C1336 1.377 . S
C1323 C1322 1.524 . S
C1323 C1324 1.397 . S
C1323 C1328 1.363 . S
C1324 H1301 0.950 . S
C1324 C1323 1.397 . S
C1324 C1325 1.334 . S
C1325 H1302 0.950 . S
C1325 C1324 1.334 . S
C1325 C1326 1.287 . S
C1326 C1325 1.287 . S
C1326 C1327 1.524 . S
C1326 H1345 0.913 . S
C1327 H1303 0.950 . S
C1327 C1326 1.524 . S
C1327 C1328 1.415 . S
C1328 H1304 0.950 . S
C1328 C1323 1.363 . S
C1328 C1327 1.415 . S
C1329 H1305 0.951 . S
C1329 C1330 1.366 . S
C1329 C1331 1.388 . S
C1330 C1329 1.366 . S
C1330 C1334 1.385 . S
C1331 H1306 0.951 . S
C1331 C1329 1.388 . S
C1331 C1332 1.366 . S
C1332 C1331 1.366 . S
C1332 C1333 1.414 . S
C1332 C1335 1.499 1_545 S
C1333 H1307 0.950 . S
C1333 C1332 1.414 . S
C1333 C1334 1.374 . S
C1334 H1308 0.950 . S
C1334 C1330 1.385 . S
C1334 C1333 1.374 . S
C1335 C1332 1.499 1_565 S
C1335 C1336 1.373 . S
C1335 C1337 1.389 . S
C1336 H1309 0.950 . S
C1336 C1322 1.377 . S
C1336 C1335 1.373 . S
C1337 C1321 1.377 . S
C1337 C1335 1.389 . S
C1337 C1338 1.524 1_565 S
C1338 C1337 1.524 1_545 S
C1338 C1339 1.397 . S
C1338 C1343 1.363 . S
C1339 H1310 0.950 . S
C1339 C1338 1.397 . S
C1339 C1340 1.334 . S
C1340 H1311 0.950 . S
C1340 C1339 1.334 . S
C1340 C1341 1.287 . S
C1341 C1340 1.287 . S
C1341 C1342 1.524 . S
C1341 H1344 0.999 . S
C1342 H1312 0.950 . S
C1342 C1341 1.524 . S
C1342 C1343 1.415 . S
C1343 H1313 0.950 . S
C1343 C1338 1.363 . S
C1343 C1342 1.415 . S
H1344 C1341 0.999 . S
H1345 C1326 0.913 . S
H1346 C1364 0.951 . S
H1347 C1366 0.951 . S
H1348 C1368 0.950 . S
H1349 C1369 0.950 . S
H1350 C1371 0.950 . S
H1351 C1374 0.950 . S
H1352 C1375 0.950 . S
H1353 C1377 0.950 . S
H1354 C1378 0.950 . S
H1355 C1379 0.951 . S
H1356 C1381 0.951 . S
H1357 C1383 0.950 . S
H1358 C1384 0.950 . S
H1359 C1386 0.950 . S
H1360 C1389 0.950 . S
H1361 C1390 0.950 . S
H1362 C1392 0.950 . S
H1363 C1393 0.950 . S
C1364 H1346 0.951 . S
C1364 C1365 1.366 . S
C1364 C1366 1.388 . S
C1365 C1364 1.366 . S
C1365 C1369 1.385 . S
C1366 H1347 0.951 . S
C1366 C1364 1.388 . S
C1366 C1367 1.366 . S
C1367 C1366 1.366 . S
C1367 C1368 1.414 . S
C1367 C1370 1.499 . S
C1368 H1348 0.950 . S
C1368 C1367 1.414 . S
C1368 C1369 1.374 . S
C1369 H1349 0.950 . S
C1369 C1365 1.385 . S
C1369 C1368 1.374 . S
C1370 C1367 1.499 . S
C1370 C1371 1.373 . S
C1370 C1372 1.389 . S
C1371 H1350 0.950 . S
C1371 C1370 1.373 . S
C1371 C1387 1.377 . S
C1372 C1370 1.389 . S
C1372 C1373 1.524 . S
C1372 C1386 1.377 . S
C1373 C1372 1.524 . S
C1373 C1374 1.397 . S
C1373 C1378 1.363 . S
C1374 H1351 0.950 . S
C1374 C1373 1.397 . S
C1374 C1375 1.334 . S
C1375 H1352 0.950 . S
C1375 C1374 1.334 . S
C1375 C1376 1.287 . S
C1376 C1375 1.287 . S
C1376 C1377 1.524 . S
C1376 H1395 0.913 . S
C1377 H1353 0.950 . S
C1377 C1376 1.524 . S
C1377 C1378 1.415 . S
C1378 H1354 0.950 . S
C1378 C1373 1.363 . S
C1378 C1377 1.415 . S
C1379 H1355 0.951 . S
C1379 C1380 1.366 . S
C1379 C1381 1.388 . S
C1380 C1379 1.366 . S
C1380 C1384 1.385 . S
C1381 H1356 0.951 . S
C1381 C1379 1.388 . S
C1381 C1382 1.366 . S
C1382 C1381 1.366 . S
C1382 C1383 1.414 . S
C1382 C1385 1.499 . S
C1383 H1357 0.950 . S
C1383 C1382 1.414 . S
C1383 C1384 1.374 . S
C1384 H1358 0.950 . S
C1384 C1380 1.385 . S
C1384 C1383 1.374 . S
C1385 C1382 1.499 . S
C1385 C1386 1.373 . S
C1385 C1387 1.389 . S
C1386 H1359 0.950 . S
C1386 C1372 1.377 . S
C1386 C1385 1.373 . S
C1387 C1371 1.377 . S
C1387 C1385 1.389 . S
C1387 C1388 1.524 . S
C1388 C1387 1.524 . S
C1388 C1389 1.397 . S
C1388 C1393 1.363 . S
C1389 H1360 0.950 . S
C1389 C1388 1.397 . S
C1389 C1390 1.334 . S
C1390 H1361 0.950 . S
C1390 C1389 1.334 . S
C1390 C1391 1.287 . S
C1391 C1390 1.287 . S
C1391 C1392 1.524 . S
C1391 H1394 0.999 . S
C1392 H1362 0.950 . S
C1392 C1391 1.524 . S
C1392 C1393 1.415 . S
C1393 H1363 0.950 . S
C1393 C1388 1.363 . S
C1393 C1392 1.415 . S
H1394 C1391 0.999 . S
H1395 C1376 0.913 . S
C230 C95 1.477 . S
C215 C5 1.359 . S
C280 C114 1.472 . S
C265 C16 1.303 . S
C330 C104 1.679 1_655 S
C315 C30 1.735 . S
C380 C120 1.664 . S
C365 C40 1.657 . S
C430 C131 1.354 . S
C415 C8 1.410 . S
C480 C156 1.395 . S
C465 C18 1.399 . S
C515 C29 1.738 . S
C530 C174 1.699 . S
C580 C194 1.554 . S
C565 C38 1.331 . S
C630 C140 1.304 . S
C615 C19 1.354 . S
C665 C27 1.434 . S
C680 C150 1.554 . S
C730 C168 1.595 . S
C715 C41 1.637 . S
C780 C185 1.453 . S
C765 C7 1.488 . S
C815 C52 1.693 . S
C830 C113 1.656 . S
C880 C96 1.586 1_655 S
C865 C62 1.604 . S
C915 C74 1.460 . S
C930 C122 1.387 . S
C965 C82 1.240 . S
C980 C102 1.382 . S
C1030 C176 1.803 . S
C1015 C51 1.797 . S
C1080 C186 1.550 . S
C1065 C60 1.378 . S
C1130 C132 1.368 . S
C1115 C71 1.200 . S
C1165 C84 1.451 . S
C1180 C149 1.423 . S
C1230 C167 1.686 . S
C1215 C63 1.770 . S
C1280 C192 1.410 . S
C1265 C73 1.430 . S
C1330 C138 1.421 . S
C1315 C85 1.466 . S
C1365 C49 1.382 . S
C1380 C158 1.608 . S
