# Generated by pormake.
# Topology anh, (6,3)-cn, num edge types: 1
# Building blocks:
#     Node 0, Type 0, BuildingBlock: MIFKUJ_clean_sbu_0, # of connection points: 6
#     Node 1, Type 0, BuildingBlock: MIFKUJ_clean_sbu_0, # of connection points: 6
#     Node 2, Type 0, BuildingBlock: MIFKUJ_clean_sbu_0, # of connection points: 6
#     Node 3, Type 1, BuildingBlock: VETTIZ_charged_linker_0, # of connection points: 3
#     Node 4, Type 1, BuildingBlock: VETTIZ_charged_linker_0, # of connection points: 3
#     Node 5, Type 1, BuildingBlock: VETTIZ_charged_linker_0, # of connection points: 3
#     Node 6, Type 1, BuildingBlock: VETTIZ_charged_linker_0, # of connection points: 3
#     Node 7, Type 1, BuildingBlock: VETTIZ_charged_linker_0, # of connection points: 3
#     Node 8, Type 1, BuildingBlock: VETTIZ_charged_linker_0, # of connection points: 3
#     Edge 9, Type (0, 1), BuildingBlock: OJICUG_clean_linker_0, # of connection points: 2
#     Edge 10, Type (0, 1), BuildingBlock: OJICUG_clean_linker_0, # of connection points: 2
#     Edge 11, Type (0, 1), BuildingBlock: OJICUG_clean_linker_0, # of connection points: 2
#     Edge 12, Type (0, 1), BuildingBlock: OJICUG_clean_linker_0, # of connection points: 2
#     Edge 13, Type (0, 1), BuildingBlock: OJICUG_clean_linker_0, # of connection points: 2
#     Edge 14, Type (0, 1), BuildingBlock: OJICUG_clean_linker_0, # of connection points: 2
#     Edge 15, Type (0, 1), BuildingBlock: OJICUG_clean_linker_0, # of connection points: 2
#     Edge 16, Type (0, 1), BuildingBlock: OJICUG_clean_linker_0, # of connection points: 2
#     Edge 17, Type (0, 1), BuildingBlock: OJICUG_clean_linker_0, # of connection points: 2
#     Edge 18, Type (0, 1), BuildingBlock: OJICUG_clean_linker_0, # of connection points: 2
#     Edge 19, Type (0, 1), BuildingBlock: OJICUG_clean_linker_0, # of connection points: 2
#     Edge 20, Type (0, 1), BuildingBlock: OJICUG_clean_linker_0, # of connection points: 2
#     Edge 21, Type (0, 1), BuildingBlock: OJICUG_clean_linker_0, # of connection points: 2
#     Edge 22, Type (0, 1), BuildingBlock: OJICUG_clean_linker_0, # of connection points: 2
#     Edge 23, Type (0, 1), BuildingBlock: OJICUG_clean_linker_0, # of connection points: 2
#     Edge 24, Type (0, 1), BuildingBlock: OJICUG_clean_linker_0, # of connection points: 2
#     Edge 25, Type (0, 1), BuildingBlock: OJICUG_clean_linker_0, # of connection points: 2
#     Edge 26, Type (0, 1), BuildingBlock: OJICUG_clean_linker_0, # of connection points: 2
# Relax obj value: 0.138
# Max RMSD: 0.188
# Mean RMSD: 0.152
data_MOF--net-anh--node1-MIFKUJ_clean_sbu_0--node2-VETTIZ_charged_linker_0--edge1-OJICUG_clean_linker_0
_symmetry_space_group_name_H-M    P1
_symmetry_Int_Tables_number       1
_symmetry_cell_setting            triclinic
loop_
_symmetry_equiv_pos_as_xyz
'x, y, z'
_cell_length_a     29.353617
_cell_length_b     29.205576
_cell_length_c     49.490395
_cell_angle_alpha  93.558495
_cell_angle_beta   91.080161
_cell_angle_gamma 119.79074
loop_
_atom_site_label
_atom_site_type_symbol
_atom_site_fract_x
_atom_site_fract_y
_atom_site_fract_z
_atom_type_partial_charge
Zn0 Zn 0.06993 0.58479 0.16033 0.0
Zn1 Zn 0.90536 0.47334 0.1616 0.0
C2 C 0.15409 0.56549 0.17396 0.0
O3 O 0.15919 0.5963 0.19567 0.0
C4 C 0.80454 0.46612 0.15537 0.0
O5 O 0.79234 0.41995 0.14308 0.0
O6 O 0.10587 0.66023 0.15026 0.0
O7 O 0.00195 0.5375 0.14106 0.0
O8 O 0.92585 0.48184 0.12225 0.0
C9 C 0.13832 0.67524 0.13161 0.0
O10 O 0.14466 0.63975 0.11714 0.0
O11 O 0.11824 0.55488 0.15578 0.0
C12 C 0.83516 0.37928 0.1852 0.0
O13 O 0.82917 0.41387 0.20071 0.0
O14 O 0.86981 0.39572 0.16773 0.0
O15 O 0.96684 0.51965 0.18987 0.0
O16 O 0.05069 0.58058 0.19909 0.0
O17 O 0.85136 0.49677 0.16501 0.0
C18 C 0.97335 0.51611 0.11961 0.0
C19 C 0.0053 0.54857 0.20698 0.0
Zn20 Zn 0.59113 0.07754 0.49574 0.0
Zn21 Zn 0.49405 0.91506 0.49809 0.0
C22 C 0.69817 0.14245 0.50981 0.0
O23 O 0.67696 0.15268 0.5308 0.0
C24 C 0.40319 0.83159 0.52034 0.0
O25 O 0.43894 0.8263 0.53395 0.0
O26 O 0.58667 0.14427 0.49503 0.0
O27 O 0.5501 0.03101 0.4626 0.0
O28 O 0.49659 0.94434 0.46226 0.0
C29 C 0.56358 0.15614 0.47704 0.0
O30 O 0.53449 0.12087 0.4572 0.0
O31 O 0.66825 0.10564 0.49199 0.0
C32 C 0.57053 0.87726 0.49062 0.0
O33 O 0.60765 0.92706 0.49079 0.0
O34 O 0.52334 0.8659 0.49387 0.0
O35 O 0.52262 0.96343 0.53234 0.0
O36 O 0.57248 0.05077 0.53269 0.0
O37 O 0.41767 0.86758 0.50395 0.0
C38 C 0.51783 0.98665 0.45022 0.0
C39 C 0.54844 0.00896 0.54505 0.0
Zn40 Zn 0.56012 0.47824 0.83403 0.0
Zn41 Zn 0.47352 0.55692 0.8277 0.0
C42 C 0.5318 0.38022 0.85419 0.0
O43 O 0.56858 0.4133 0.87236 0.0
C44 C 0.49378 0.65596 0.85498 0.0
O45 O 0.44815 0.62555 0.86501 0.0
O46 O 0.63499 0.4948 0.83114 0.0
O47 O 0.53788 0.50499 0.80155 0.0
O48 O 0.49581 0.54792 0.79069 0.0
C49 C 0.66853 0.52083 0.81418 0.0
O50 O 0.65617 0.54297 0.79522 0.0
O51 O 0.5181 0.39895 0.83509 0.0
C52 C 0.35718 0.4894 0.82322 0.0
O53 O 0.3635 0.44795 0.82349 0.0
O54 O 0.39713 0.53555 0.8251 0.0
O55 O 0.49065 0.51147 0.84834 0.0
O56 O 0.55582 0.51238 0.86986 0.0
O57 O 0.51452 0.63451 0.84045 0.0
C58 C 0.52101 0.52416 0.78401 0.0
C59 C 0.52104 0.52587 0.86938 0.0
C60 C 0.6284 0.13316 0.17439 0.0
C61 C 0.67764 0.16164 0.18888 0.0
C62 C 0.68647 0.14261 0.21265 0.0
C63 C 0.59502 0.07487 0.21062 0.0
C64 C 0.58777 0.08878 0.1854 0.0
C65 C 0.53261 0.05217 0.17327 0.0
H66 H 0.28357 0.86167 0.19471 0.0
C67 C 0.5437 0.03449 0.21908 0.0
C68 C 0.50688 0.01969 0.19712 0.0
H69 H 0.34854 0.91269 0.11737 0.0
H70 H 0.43243 0.97764 0.14048 0.0
H71 H 0.37219 0.8497 0.21637 0.0
H72 H 0.34514 0.98115 0.22904 0.0
H73 H 0.3694 0.97394 0.26022 0.0
H74 H 0.30805 0.9206 0.24488 0.0
H75 H 0.32294 0.84796 0.23794 0.0
H76 H 0.38982 0.87336 0.25059 0.0
C77 C 0.5354 0.01773 0.14891 0.0
C78 C 0.50709 0.08516 0.16559 0.0
C79 C 0.52342 0.00435 0.31899 0.0
C80 C 0.47963 0.97626 0.33438 0.0
C81 C 0.42941 0.94628 0.321 0.0
C82 C 0.42295 0.94521 0.29277 0.0
C83 C 0.46717 0.97438 0.27774 0.0
C84 C 0.51631 0.00315 0.29093 0.0
C85 C 0.55877 0.0329 0.272 0.0
C86 C 0.5269 0.0172 0.2451 0.0
C87 C 0.47345 0.98316 0.24863 0.0
C88 C 0.59838 0.01231 0.27269 0.0
C89 C 0.58327 0.0927 0.28079 0.0
C90 C 0.31516 0.88792 0.18267 0.0
C91 C 0.30923 0.88265 0.15424 0.0
C92 C 0.35218 0.91624 0.13932 0.0
C93 C 0.40077 0.95331 0.15268 0.0
C94 C 0.40655 0.95585 0.18111 0.0
C95 C 0.36391 0.92363 0.19555 0.0
C96 C 0.37789 0.92751 0.22524 0.0
C97 C 0.4365 0.9654 0.22615 0.0
C98 C 0.45305 0.98307 0.20044 0.0
C99 C 0.36486 0.87187 0.23321 0.0
C100 C 0.34851 0.95168 0.24088 0.0
H101 H 0.65373 0.08794 0.2424 0.0
H102 H 0.62137 0.14649 0.15564 0.0
H103 H 0.5106 0.11273 0.18309 0.0
H104 H 0.4648 0.06013 0.15964 0.0
H105 H 0.52661 0.10904 0.14839 0.0
H106 H 0.57323 0.01757 0.14943 0.0
H107 H 0.53167 0.0324 0.12927 0.0
H108 H 0.50467 0.97554 0.14902 0.0
H109 H 0.56266 0.02693 0.3286 0.0
H110 H 0.39498 0.92449 0.33243 0.0
H111 H 0.38372 0.92197 0.28378 0.0
H112 H 0.58126 0.97286 0.28095 0.0
H113 H 0.6344 0.03981 0.28552 0.0
H114 H 0.60973 0.00617 0.25211 0.0
H115 H 0.55191 0.10316 0.28354 0.0
H116 H 0.60903 0.11881 0.26597 0.0
H117 H 0.6067 0.10312 0.30037 0.0
H118 H 0.72425 0.16379 0.22391 0.0
C119 C 0.64536 0.09922 0.22358 0.0
C120 C 0.59619 0.66122 0.50016 0.0
C121 C 0.60133 0.70751 0.51382 0.0
C122 C 0.60253 0.71213 0.54227 0.0
C123 C 0.59173 0.62487 0.54352 0.0
C124 C 0.59244 0.62061 0.51556 0.0
C125 C 0.5887 0.56894 0.50521 0.0
H126 H 0.57635 0.33934 0.53744 0.0
C127 C 0.58602 0.57627 0.55379 0.0
C128 C 0.58521 0.5433 0.53161 0.0
H129 H 0.58114 0.39008 0.45699 0.0
H130 H 0.58168 0.46966 0.47593 0.0
H131 H 0.65929 0.44545 0.56585 0.0
H132 H 0.4909 0.36999 0.55739 0.0
H133 H 0.50917 0.39714 0.59109 0.0
H134 H 0.52493 0.34768 0.57863 0.0
H135 H 0.61771 0.39312 0.58613 0.0
H136 H 0.64004 0.46167 0.59664 0.0
C137 C 0.63956 0.58178 0.49091 0.0
C138 C 0.53808 0.53702 0.48665 0.0
C139 C 0.56152 0.5504 0.65412 0.0
C140 C 0.55923 0.51157 0.67049 0.0
C141 C 0.56452 0.46962 0.6582 0.0
C142 C 0.57046 0.46572 0.63028 0.0
C143 C 0.57205 0.50457 0.61432 0.0
C144 C 0.56885 0.5466 0.62641 0.0
C145 C 0.57593 0.58656 0.60675 0.0
C146 C 0.58096 0.55993 0.58049 0.0
C147 C 0.57803 0.51184 0.58507 0.0
C148 C 0.62735 0.6391 0.6157 0.0
C149 C 0.52565 0.59128 0.60585 0.0
C150 C 0.57793 0.36776 0.52385 0.0
C151 C 0.57975 0.3593 0.49588 0.0
C152 C 0.58023 0.39632 0.47873 0.0
C153 C 0.58079 0.44239 0.48977 0.0
C154 C 0.58035 0.45082 0.51813 0.0
C155 C 0.57814 0.41307 0.53443 0.0
C156 C 0.57614 0.42627 0.56387 0.0
C157 C 0.57853 0.47892 0.56301 0.0
C158 C 0.58133 0.49383 0.53628 0.0
C159 C 0.62549 0.43163 0.57912 0.0
C160 C 0.52283 0.3831 0.57352 0.0
H161 H 0.5972 0.67677 0.57866 0.0
H162 H 0.59497 0.65685 0.47823 0.0
H163 H 0.50476 0.53936 0.49564 0.0
H164 H 0.52527 0.49448 0.48397 0.0
H165 H 0.54348 0.5528 0.46638 0.0
H166 H 0.67463 0.6132 0.50316 0.0
H167 H 0.63925 0.59623 0.4707 0.0
H168 H 0.64584 0.54761 0.4883 0.0
H169 H 0.55741 0.58319 0.66247 0.0
H170 H 0.56466 0.43985 0.67011 0.0
H171 H 0.57381 0.43261 0.62227 0.0
H172 H 0.65339 0.63303 0.62989 0.0
H173 H 0.61878 0.66849 0.62619 0.0
H174 H 0.65188 0.65692 0.59839 0.0
H175 H 0.48986 0.55138 0.60482 0.0
H176 H 0.52175 0.6099 0.58789 0.0
H177 H 0.52456 0.61432 0.62431 0.0
H178 H 0.60556 0.7471 0.55305 0.0
C179 C 0.59743 0.67109 0.55713 0.0
C180 C 0.13741 0.50434 0.83877 0.0
C181 C 0.17266 0.49229 0.85195 0.0
C182 C 0.17465 0.49289 0.88038 0.0
C183 C 0.10886 0.51943 0.88252 0.0
C184 C 0.10524 0.51711 0.85452 0.0
C185 C 0.06327 0.52855 0.84444 0.0
H186 H 0.86791 0.57944 0.87678 0.0
C187 C 0.07261 0.5363 0.89318 0.0
C188 C 0.04554 0.54188 0.87108 0.0
H189 H 0.89969 0.53679 0.79727 0.0
H190 H 0.9799 0.54205 0.81581 0.0
H191 H 0.88798 0.50055 0.90671 0.0
H192 H 0.98796 0.66607 0.89667 0.0
H193 H 0.00689 0.65596 0.92863 0.0
H194 H 0.94084 0.64399 0.92226 0.0
H195 H 0.87713 0.55189 0.92143 0.0
H196 H 0.91865 0.53278 0.93849 0.0
C197 C 0.01909 0.47738 0.8289 0.0
C198 C 0.08875 0.57657 0.82718 0.0
C199 C 0.05769 0.55263 0.99489 0.0
C200 C 0.02817 0.56843 0.01086 0.0
C201 C 0.00031 0.59014 -0.00135 0.0
C202 C -0.00101 0.59275 0.97049 0.0
C203 C 0.02574 0.57334 0.95447 0.0
C204 C 0.05649 0.55616 0.96683 0.0
C205 C 0.08465 0.54008 0.94669 0.0
C206 C 0.06336 0.54761 0.92014 0.0
C207 C 0.0282 0.5661 0.92482 0.0
C208 C 0.06751 0.48111 0.94953 0.0
C209 C 0.1445 0.57916 0.95179 0.0
C210 C 0.89271 0.57208 0.86334 0.0
C211 C 0.87764 0.55711 0.83577 0.0
C212 C 0.91074 0.54819 0.81867 0.0
C213 C 0.95662 0.55047 0.82954 0.0
C214 C 0.96873 0.56113 0.85774 0.0
C215 C 0.93766 0.57326 0.87393 0.0
C216 C 0.95418 0.58125 0.90349 0.0
C217 C -0.00092 0.56979 0.9027 0.0
C218 C 0.00772 0.55803 0.87589 0.0
C219 C 0.90725 0.53984 0.91854 0.0
C220 C 0.97319 0.63965 0.9135 0.0
H221 H 0.14745 0.50708 0.91728 0.0
H222 H 0.13512 0.50389 0.81688 0.0
H223 H 0.12597 0.60869 0.83754 0.0
H224 H 0.06351 0.59409 0.82397 0.0
H225 H 0.0982 0.56534 0.80708 0.0
H226 H 0.01505 0.44147 0.83768 0.0
H227 H 0.02748 0.47507 0.80721 0.0
H228 H 0.97992 0.47364 0.83024 0.0
H229 H 0.07985 0.53633 0.00396 0.0
H230 H 0.97734 0.60249 0.01076 0.0
H231 H 0.9755 0.60778 0.96217 0.0
H232 H 0.02593 0.45857 0.95517 0.0
H233 H 0.09224 0.47724 0.96548 0.0
H234 H 0.06843 0.46011 0.93038 0.0
H235 H 0.15235 0.61927 0.95933 0.0
H236 H 0.16629 0.58569 0.93312 0.0
H237 H 0.16209 0.56553 0.96719 0.0
H238 H 0.20205 0.48443 0.89088 0.0
C239 C 0.1433 0.50666 0.8957 0.0
C240 C 0.92292 0.35651 0.48364 0.0
C241 C 0.8799 0.31246 0.46938 0.0
C242 C 0.87012 0.31465 0.44162 0.0
C243 C 0.94411 0.40356 0.44281 0.0
C244 C 0.95452 0.40153 0.46993 0.0
C245 C 0.00172 0.45216 0.48174 0.0
H246 H 0.19913 0.69851 0.46144 0.0
C247 C 0.98308 0.45591 0.43459 0.0
C248 C 0.01725 0.48476 0.45726 0.0
H249 H 0.17131 0.61921 0.53529 0.0
H250 H 0.09318 0.54318 0.5135 0.0
H251 H 0.18327 0.60774 0.42442 0.0
H252 H 0.0746 0.66066 0.44506 0.0
H253 H 0.06846 0.64641 0.40967 0.0
H254 H 0.1308 0.69641 0.4255 0.0
H255 H 0.18227 0.66022 0.40795 0.0
H256 H 0.14203 0.59173 0.39515 0.0
C257 C 0.04442 0.4392 0.49102 0.0
C258 C 0.98368 0.47689 0.5047 0.0
C259 C 0.97526 0.5005 0.33736 0.0
C260 C 0.00882 0.54427 0.3231 0.0
C261 C 0.05264 0.58758 0.33749 0.0
C262 C 0.06269 0.58748 0.36521 0.0
C263 C 0.02937 0.54323 0.37893 0.0
C264 C 0.98669 0.50059 0.36502 0.0
C265 C 0.95757 0.45575 0.38268 0.0
C266 C 0.98983 0.47883 0.40944 0.0
C267 C 0.03132 0.53019 0.40713 0.0
C268 C 0.96042 0.40703 0.37047 0.0
C269 C 0.90109 0.44656 0.38479 0.0
C270 C 0.17555 0.66548 0.47327 0.0
C271 C 0.19091 0.66522 0.50025 0.0
C272 C 0.16013 0.62037 0.51447 0.0
C273 C 0.11495 0.57632 0.50176 0.0
C274 C 0.10095 0.57699 0.47446 0.0
C275 C 0.13111 0.62138 0.46086 0.0
C276 C 0.11267 0.61502 0.43172 0.0
C277 C 0.06596 0.55949 0.4299 0.0
C278 C 0.059 0.53716 0.45492 0.0
C279 C 0.15719 0.61918 0.41372 0.0
C280 C 0.09596 0.65687 0.4275 0.0
H281 H 0.89172 0.35891 0.40732 0.0
H282 H 0.93155 0.35609 0.50496 0.0
H283 H 0.94531 0.47343 0.49871 0.0
H284 H 0.01102 0.51961 0.50938 0.0
H285 H 0.97864 0.45644 0.52354 0.0
H286 H 0.04455 0.40825 0.47679 0.0
H287 H 0.0373 0.42418 0.51149 0.0
H288 H 0.08461 0.47341 0.49119 0.0
H289 H 0.94109 0.46648 0.32729 0.0
H290 H 0.08044 0.62131 0.32727 0.0
H291 H 0.09674 0.62163 0.37473 0.0
H292 H 0.99638 0.41927 0.35897 0.0
H293 H 0.92596 0.38125 0.35629 0.0
H294 H 0.9634 0.38311 0.38614 0.0
H295 H 0.90155 0.48496 0.38665 0.0
H296 H 0.88203 0.42668 0.40294 0.0
H297 H 0.87584 0.42312 0.36647 0.0
H298 H 0.83663 0.28198 0.43026 0.0
C299 C 0.90186 0.35975 0.42833 0.0
C300 C 0.53262 0.89784 0.83582 0.0
C301 C 0.54271 0.85882 0.82396 0.0
C302 C 0.55326 0.85941 0.79628 0.0
C303 C 0.54094 0.9346 0.79224 0.0
C304 C 0.53243 0.93568 0.8196 0.0
C305 C 0.52328 0.98076 0.8285 0.0
H306 H 0.49426 0.18607 0.79185 0.0
C307 C 0.53535 0.97685 0.78058 0.0
C308 C 0.52521 0.00451 0.80169 0.0
H309 H 0.49782 0.14171 0.87321 0.0
H310 H 0.50783 0.06786 0.85538 0.0
H311 H 0.58755 0.17778 0.7742 0.0
H312 H 0.42211 0.06671 0.76315 0.0
H313 H 0.44948 0.06302 0.73243 0.0
H314 H 0.45442 0.12481 0.7449 0.0
H315 H 0.54636 0.18369 0.74905 0.0
H316 H 0.57852 0.14567 0.74181 0.0
C317 C 0.56905 0.01961 0.84879 0.0
C318 C 0.46845 0.95753 0.84026 0.0
C319 C 0.54575 0.99316 0.67873 0.0
C320 C 0.54085 0.02772 0.66185 0.0
C321 C 0.53105 0.06699 0.67357 0.0
C322 C 0.52615 0.0718 0.70153 0.0
C323 C 0.53118 0.03705 0.71814 0.0
C324 C 0.54089 0.99863 0.7067 0.0
C325 C 0.54519 0.96542 0.72758 0.0
C326 C 0.53652 0.99042 0.75342 0.0
C327 C 0.52813 0.03204 0.74767 0.0
C328 C 0.60137 0.97291 0.72763 0.0
C329 C 0.50025 0.90759 0.72083 0.0
C330 C 0.49571 0.15977 0.80591 0.0
C331 C 0.49432 0.16926 0.83392 0.0
C332 C 0.49857 0.13508 0.85148 0.0
C333 C 0.50462 0.09246 0.84111 0.0
C334 C 0.50722 0.08452 0.81293 0.0
C335 C 0.50254 0.11802 0.79599 0.0
C336 C 0.50883 0.10639 0.76686 0.0
C337 C 0.51849 0.06048 0.76885 0.0
C338 C 0.51715 0.04717 0.79578 0.0
C339 C 0.5575 0.15581 0.75722 0.0
C340 C 0.45632 0.08967 0.75077 0.0
H341 H 0.56002 0.89442 0.75948 0.0
H342 H 0.52476 0.89862 0.85708 0.0
H343 H 0.43876 0.9229 0.82693 0.0
H344 H 0.454 0.98592 0.84173 0.0
H345 H 0.46889 0.94401 0.86071 0.0
H346 H 0.60679 0.02266 0.84287 0.0
H347 H 0.56197 0.00612 0.86958 0.0
H348 H 0.57604 0.06044 0.84931 0.0
H349 H 0.55376 0.96285 0.67041 0.0
H350 H 0.52632 0.0936 0.66102 0.0
H351 H 0.51849 0.1024 0.70906 0.0
H352 H 0.63031 0.01239 0.7211 0.0
H353 H 0.60276 0.94247 0.71361 0.0
H354 H 0.61666 0.9721 0.74809 0.0
H355 H 0.46345 0.90662 0.71393 0.0
H356 H 0.48954 0.88368 0.73848 0.0
H357 H 0.51066 0.88745 0.70434 0.0
H358 H 0.56027 0.82943 0.78649 0.0
C359 C 0.55248 0.89692 0.78046 0.0
C360 C 0.6086 0.52271 0.14646 0.0
C361 C 0.6566 0.53348 0.13561 0.0
C362 C 0.66982 0.556 0.11065 0.0
C363 C 0.58595 0.55212 0.10612 0.0
C364 C 0.5742 0.53339 0.13151 0.0
C365 C 0.52227 0.52705 0.13988 0.0
H366 H 0.3013 0.5343 0.1045 0.0
C367 C 0.54098 0.55509 0.09472 0.0
C368 C 0.50369 0.5415 0.11448 0.0
H369 H 0.34744 0.51117 0.18366 0.0
H370 H 0.42659 0.51689 0.16587 0.0
H371 H 0.40517 0.62571 0.09301 0.0
H372 H 0.3415 0.45995 0.06918 0.0
H373 H 0.36921 0.4955 0.04084 0.0
H374 H 0.31562 0.4989 0.05608 0.0
H375 H 0.35678 0.59271 0.06538 0.0
H376 H 0.42622 0.62189 0.06043 0.0
C377 C 0.53314 0.56711 0.16457 0.0
C378 C 0.48555 0.46867 0.14547 0.0
C379 C 0.53405 0.58221 0.99488 0.0
C380 C 0.49604 0.58269 0.97728 0.0
C381 C 0.45081 0.5798 0.9884 0.0
C382 C 0.44269 0.57417 0.01616 0.0
C383 C 0.48023 0.5716 0.03312 0.0
C384 C 0.52552 0.57694 0.02246 0.0
C385 C 0.56166 0.57417 0.04337 0.0
C386 C 0.52974 0.56456 0.0683 0.0
C387 C 0.48202 0.56263 0.06215 0.0
C388 C 0.6135 0.62839 0.0464 0.0
C389 C 0.56883 0.52638 0.03449 0.0
C390 C 0.32767 0.52913 0.11794 0.0
C391 C 0.31783 0.52165 0.14541 0.0
C392 C 0.35424 0.51697 0.16238 0.0
C393 C 0.40016 0.52055 0.15206 0.0
C394 C 0.40998 0.52962 0.12462 0.0
C395 C 0.37371 0.53343 0.10811 0.0
C396 C 0.39118 0.54573 0.07989 0.0
C397 C 0.44478 0.5504 0.08224 0.0
C398 C 0.45546 0.54007 0.10832 0.0
C399 C 0.3948 0.59903 0.07411 0.0
C400 C 0.35242 0.4979 0.06026 0.0
H401 H 0.64662 0.58109 0.07665 0.0
H402 H 0.59811 0.50606 0.16585 0.0
H403 H 0.48599 0.44165 0.12874 0.0
H404 H 0.44418 0.45862 0.1468 0.0
H405 H 0.49844 0.45948 0.16464 0.0
H406 H 0.57264 0.60297 0.16417 0.0
H407 H 0.5318 0.54935 0.18396 0.0
H408 H 0.50543 0.58238 0.16471 0.0
H409 H 0.56894 0.58343 0.98731 0.0
H410 H 0.42118 0.581 0.97559 0.0
H411 H 0.40707 0.57122 0.02324 0.0
H412 H 0.60825 0.66056 0.03868 0.0
H413 H 0.64503 0.62689 0.035 0.0
H414 H 0.62764 0.64193 0.0679 0.0
H415 H 0.53039 0.49131 0.02737 0.0
H416 H 0.58426 0.51332 0.05099 0.0
H417 H 0.59563 0.53569 0.01758 0.0
H418 H 0.70656 0.56434 0.10201 0.0
C419 C 0.63478 0.5653 0.09586 0.0
C420 C 0.23904 0.56871 0.18608 0.0
C421 C 0.19247 0.54735 0.16948 0.0
H422 H 0.31548 0.57699 0.19151 0.0
C423 C 0.18452 0.51105 0.14742 0.0
H424 H 0.24616 0.59648 0.20337 0.0
C425 C 0.22385 0.49934 0.1409 0.0
C426 C 0.27215 0.524 0.15616 0.0
H427 H 0.14868 0.49314 0.13453 0.0
H428 H 0.21743 0.47285 0.12311 0.0
C429 C 0.27861 0.55719 0.17944 0.0
C430 C 0.77405 0.17305 0.47993 0.0
C431 C 0.75222 0.18161 0.50338 0.0
H432 H 0.83302 0.20768 0.45119 0.0
C433 C 0.77897 0.23134 0.51826 0.0
H434 H 0.75486 0.13497 0.46825 0.0
C435 C 0.82337 0.27321 0.50828 0.0
C436 C 0.84201 0.26597 0.48337 0.0
H437 H 0.76343 0.23918 0.53654 0.0
H438 H 0.84044 0.31209 0.51904 0.0
C439 C 0.81865 0.21479 0.47009 0.0
C440 C 0.56119 0.74561 0.84247 0.0
C441 C 0.51351 0.71343 0.85424 0.0
H442 H 0.60871 0.81808 0.82437 0.0
C443 C 0.48105 0.73468 0.86112 0.0
H444 H 0.58751 0.73082 0.83732 0.0
C445 C 0.49309 0.78469 0.8535 0.0
C446 C 0.53788 0.81429 0.839 0.0
H447 H 0.44421 0.71111 0.8704 0.0
H448 H 0.46508 0.79807 0.85691 0.0
C449 C 0.57329 0.79558 0.83499 0.0
C450 C 0.78106 0.53758 0.15883 0.0
C451 C 0.76514 0.48345 0.156 0.0
H452 H 0.75813 0.59612 0.1547 0.0
C453 C 0.71139 0.4461 0.15139 0.0
H454 H 0.82219 0.56721 0.16249 0.0
C455 C 0.67471 0.46271 0.14764 0.0
C456 C 0.6914 0.51683 0.14807 0.0
H457 H 0.69798 0.40409 0.14946 0.0
H458 H 0.63403 0.43334 0.14227 0.0
C459 C 0.74449 0.55416 0.15458 0.0
C460 C 0.33123 0.74109 0.52924 0.0
C461 C 0.34691 0.79179 0.52095 0.0
H462 H 0.26883 0.66069 0.52914 0.0
C463 C 0.30862 0.80239 0.51053 0.0
H464 H 0.35989 0.73188 0.53751 0.0
C465 C 0.25646 0.76197 0.50625 0.0
C466 C 0.24169 0.70995 0.51189 0.0
H467 H 0.31939 0.84137 0.50448 0.0
H468 H 0.22826 0.77075 0.49695 0.0
C469 C 0.27899 0.70037 0.52463 0.0
C470 C 0.47366 0.28696 0.83446 0.0
C471 C 0.51379 0.32292 0.85332 0.0
H472 H 0.43435 0.20894 0.81435 0.0
C473 C 0.54053 0.30452 0.86935 0.0
H474 H 0.45171 0.29961 0.82214 0.0
C475 C 0.53094 0.25264 0.86471 0.0
C476 C 0.49419 0.21816 0.84408 0.0
H477 H 0.57141 0.33112 0.88425 0.0
H478 H 0.55515 0.24098 0.87583 0.0
C479 C 0.46373 0.23502 0.83002 0.0
C480 C 0.63308 0.84429 0.49943 0.0
C481 C 0.58337 0.83429 0.4899 0.0
H482 H 0.67811 0.81057 0.51427 0.0
C483 C 0.54376 0.78171 0.48266 0.0
H484 H 0.66435 0.88437 0.50508 0.0
C485 C 0.55212 0.73968 0.48727 0.0
C486 C 0.59993 0.74961 0.49952 0.0
H487 H 0.50523 0.77291 0.47494 0.0
H488 H 0.51963 0.69949 0.48366 0.0
C489 C 0.64112 0.80216 0.50448 0.0
C490 C 0.73098 0.49673 0.83477 0.0
C491 C 0.72164 0.5269 0.81677 0.0
H492 H 0.78771 0.48243 0.85431 0.0
C493 C 0.76374 0.56374 0.80255 0.0
H494 H 0.69945 0.46743 0.84575 0.0
C495 C 0.81473 0.57212 0.80745 0.0
C496 C 0.82397 0.54373 0.82659 0.0
H497 H 0.75767 0.58735 0.78843 0.0
H498 H 0.84712 0.60224 0.79727 0.0
C499 C 0.78147 0.50509 0.83961 0.0
C500 C 0.16996 0.77019 0.14642 0.0
C501 C 0.1764 0.73235 0.13063 0.0
H502 H 0.20713 0.84904 0.1655 0.0
C503 C 0.22341 0.7489 0.11736 0.0
H504 H 0.13385 0.75898 0.15648 0.0
C505 C 0.26551 0.80059 0.12262 0.0
C506 C 0.26107 0.83648 0.1411 0.0
H507 H 0.22942 0.72087 0.10479 0.0
H508 H 0.30292 0.81068 0.11429 0.0
C509 C 0.21187 0.82184 0.15152 0.0
C510 C 0.61348 0.25112 0.49439 0.0
C511 C 0.57112 0.21022 0.47837 0.0
H512 H 0.65036 0.33124 0.51146 0.0
C513 C 0.53604 0.22152 0.46446 0.0
H514 H 0.64191 0.24409 0.50486 0.0
C515 C 0.54104 0.27189 0.46826 0.0
C516 C 0.58144 0.31147 0.48581 0.0
H517 H 0.50334 0.19085 0.45173 0.0
H518 H 0.51161 0.27884 0.45889 0.0
C519 C 0.61869 0.30118 0.49794 0.0
C520 C 0.26292 0.4395 0.83476 0.0
C521 C 0.30445 0.4839 0.82433 0.0
H522 H 0.18726 0.40722 0.85156 0.0
C523 C 0.29706 0.52616 0.81797 0.0
H524 H 0.2674 0.4063 0.83973 0.0
C525 C 0.25085 0.52615 0.82423 0.0
C526 C 0.2117 0.48422 0.83725 0.0
H527 H 0.32822 0.56064 0.80959 0.0
H528 H 0.24776 0.56092 0.82106 0.0
C529 C 0.21703 0.4399 0.84141 0.0
C530 C 0.74215 0.30868 0.18711 0.0
C531 C 0.79486 0.3229 0.18393 0.0
H532 H 0.6632 0.24563 0.18981 0.0
C533 C 0.80792 0.28308 0.17895 0.0
H534 H 0.73097 0.33872 0.19043 0.0
C535 C 0.7691 0.22972 0.17891 0.0
C536 C 0.7166 0.21572 0.18281 0.0
H537 H 0.84831 0.29326 0.17619 0.0
H538 H 0.78022 0.19948 0.17668 0.0
C539 C 0.70327 0.25554 0.18624 0.0
C540 C 0.02189 0.58329 0.08691 0.0
C541 C 0.99359 0.53003 0.09267 0.0
H542 H 0.05455 0.63748 0.05594 0.0
C543 C 0.98048 0.49002 0.07185 0.0
H544 H 0.03152 0.61464 0.10268 0.0
C545 C 0.99464 0.50301 0.04546 0.0
C546 C 0.02071 0.55614 0.03941 0.0
H547 H 0.95847 0.4487 0.0759 0.0
H548 H 0.98306 0.47149 0.02952 0.0
C549 C 0.03476 0.5963 0.06031 0.0
C550 C 0.46988 0.93585 0.40634 0.0
C551 C 0.50576 0.98413 0.42081 0.0
H552 H 0.43367 0.89541 0.36762 0.0
C553 C 0.53109 0.02996 0.40674 0.0
H554 H 0.44962 0.89978 0.41654 0.0
C555 C 0.52159 0.02745 0.37884 0.0
C556 C 0.48677 0.97902 0.36427 0.0
H557 H 0.55893 0.06782 0.41717 0.0
H558 H 0.54178 0.06353 0.36863 0.0
C559 C 0.46045 0.93334 0.37834 0.0
C560 C 0.55922 0.56707 0.74211 0.0
C561 C 0.5327 0.52087 0.75556 0.0
H562 H 0.5914 0.60089 0.70538 0.0
C563 C 0.51624 0.47163 0.7415 0.0
H564 H 0.57269 0.60549 0.75283 0.0
C565 C 0.52462 0.46849 0.71391 0.0
C566 C 0.55127 0.51477 0.7001 0.0
H567 H 0.49533 0.43552 0.75163 0.0
H568 H 0.50904 0.42961 0.70341 0.0
C569 C 0.56931 0.56418 0.71481 0.0
C570 C 0.5218 0.96812 0.58937 0.0
C571 C 0.54871 0.01355 0.57507 0.0
H572 H 0.498 0.93701 0.62791 0.0
C573 C 0.57469 0.0635 0.58972 0.0
H574 H 0.50135 0.929 0.57877 0.0
C575 C 0.57282 0.06798 0.6179 0.0
C576 C 0.54508 0.02265 0.6321 0.0
H577 H 0.59604 0.09932 0.57943 0.0
H578 H 0.59312 0.10703 0.62858 0.0
C579 C 0.52009 0.97264 0.61757 0.0
C580 C 0.46363 0.5357 0.90268 0.0
C581 C 0.51416 0.55326 0.89353 0.0
H582 H 0.41797 0.53002 0.93668 0.0
C583 C 0.55806 0.58915 0.91036 0.0
H584 H 0.42916 0.50782 0.88999 0.0
C585 C 0.55177 0.60347 0.93686 0.0
C586 C 0.50155 0.5804 0.94738 0.0
H587 H 0.59743 0.60371 0.90354 0.0
H588 H 0.58667 0.6299 0.9496 0.0
C589 C 0.45732 0.54864 0.92951 0.0
C590 C 0.01736 0.59316 0.253 0.0
C591 C 0.99803 0.54617 0.23624 0.0
H592 H 0.03254 0.62923 0.29337 0.0
C593 C 0.97719 0.49777 0.24793 0.0
H594 H 0.03319 0.63092 0.2443 0.0
C595 C 0.97905 0.49676 0.27617 0.0
C596 C 0.00054 0.54414 0.2932 0.0
H597 H 0.96246 0.46108 0.23526 0.0
H598 H 0.966 0.45904 0.28444 0.0
C599 C 0.0176 0.59209 0.28114 0.0
loop_
_geom_bond_atom_site_label_1
_geom_bond_atom_site_label_2
_geom_bond_distance
_geom_bond_site_symmetry_2
_ccdc_geom_bond_type
Zn0 O6 1.969 . S
Zn0 O7 1.965 . S
Zn0 O11 2.024 . S
Zn0 O16 1.969 . S
Zn1 O8 1.969 . S
Zn1 O14 1.969 . S
Zn1 O15 1.965 . S
Zn1 O17 2.024 . S
C2 O3 1.229 . S
C2 O11 1.058 . S
O3 C2 1.229 . S
C4 O5 1.229 . S
C4 O17 1.058 . S
O5 C4 1.229 . S
O6 Zn0 1.969 . S
O6 C9 1.267 . S
O7 Zn0 1.965 . S
O7 C18 1.260 1_455 S
O8 Zn1 1.969 . S
O8 C18 1.258 . S
C9 O6 1.267 . S
C9 O10 1.228 . S
O10 C9 1.228 . S
O11 Zn0 2.024 . S
O11 C2 1.058 . S
C12 O13 1.228 . S
C12 O14 1.267 . S
O13 C12 1.228 . S
O14 Zn1 1.969 . S
O14 C12 1.267 . S
O15 Zn1 1.965 . S
O15 C19 1.260 1_655 S
O16 Zn0 1.969 . S
O16 C19 1.258 . S
O17 Zn1 2.024 . S
O17 C4 1.058 . S
C18 O7 1.260 1_655 S
C18 O8 1.258 . S
C19 O15 1.260 1_455 S
C19 O16 1.258 . S
Zn20 O26 1.969 . S
Zn20 O27 1.965 . S
Zn20 O31 2.024 . S
Zn20 O36 1.969 . S
Zn21 O28 1.969 . S
Zn21 O34 1.969 . S
Zn21 O35 1.965 . S
Zn21 O37 2.024 . S
C22 O23 1.229 . S
C22 O31 1.058 . S
O23 C22 1.229 . S
C24 O25 1.229 . S
C24 O37 1.058 . S
O25 C24 1.229 . S
O26 Zn20 1.969 . S
O26 C29 1.267 . S
O27 Zn20 1.965 . S
O27 C38 1.260 . S
O28 Zn21 1.969 . S
O28 C38 1.258 1_565 S
C29 O26 1.267 . S
C29 O30 1.228 . S
O30 C29 1.228 . S
O31 Zn20 2.024 . S
O31 C22 1.058 . S
C32 O33 1.228 . S
C32 O34 1.267 . S
O33 C32 1.228 . S
O34 Zn21 1.969 . S
O34 C32 1.267 . S
O35 Zn21 1.965 . S
O35 C39 1.260 1_565 S
O36 Zn20 1.969 . S
O36 C39 1.258 . S
O37 Zn21 2.024 . S
O37 C24 1.058 . S
C38 O27 1.260 . S
C38 O28 1.258 1_545 S
C39 O35 1.260 1_545 S
C39 O36 1.258 . S
Zn40 O46 1.969 . S
Zn40 O47 1.965 . S
Zn40 O51 2.024 . S
Zn40 O56 1.969 . S
Zn41 O48 1.969 . S
Zn41 O54 1.969 . S
Zn41 O55 1.965 . S
Zn41 O57 2.024 . S
C42 O43 1.229 . S
C42 O51 1.058 . S
O43 C42 1.229 . S
C44 O45 1.229 . S
C44 O57 1.058 . S
O45 C44 1.229 . S
O46 Zn40 1.969 . S
O46 C49 1.267 . S
O47 Zn40 1.965 . S
O47 C58 1.260 . S
O48 Zn41 1.969 . S
O48 C58 1.258 . S
C49 O46 1.267 . S
C49 O50 1.228 . S
O50 C49 1.228 . S
O51 Zn40 2.024 . S
O51 C42 1.058 . S
C52 O53 1.228 . S
C52 O54 1.267 . S
O53 C52 1.228 . S
O54 Zn41 1.969 . S
O54 C52 1.267 . S
O55 Zn41 1.965 . S
O55 C59 1.260 . S
O56 Zn40 1.969 . S
O56 C59 1.258 . S
O57 Zn41 2.024 . S
O57 C44 1.058 . S
C58 O47 1.260 . S
C58 O48 1.258 . S
C59 O55 1.260 . S
C59 O56 1.258 . S
C60 C61 1.391 . S
C60 C64 1.391 . S
C60 H102 0.948 . S
C61 C60 1.391 . S
C61 C62 1.391 . S
C62 C61 1.391 . S
C62 H118 0.947 . S
C62 C119 1.392 . S
C63 C64 1.391 . S
C63 C67 1.397 . S
C63 C119 1.419 . S
C64 C60 1.391 . S
C64 C63 1.391 . S
C64 C65 1.399 . S
C65 C64 1.399 . S
C65 C68 1.396 . S
C65 C77 1.453 . S
C65 C78 1.684 . S
H66 C90 0.948 . S
C67 C63 1.397 . S
C67 C68 1.394 . S
C67 C86 1.723 . S
C68 C65 1.396 . S
C68 C67 1.394 . S
C68 C98 1.723 1_545 S
H69 C92 0.947 . S
H70 C93 0.948 . S
H71 C99 0.982 . S
H72 C100 0.979 . S
H73 C100 0.980 . S
H74 C100 0.983 . S
H75 C99 0.979 . S
H76 C99 0.977 . S
C77 C65 1.453 . S
C77 H106 0.982 . S
C77 H107 0.979 . S
C77 H108 0.977 . S
C78 C65 1.684 . S
C78 H103 0.979 . S
C78 H104 0.980 . S
C78 H105 0.983 . S
C79 C80 1.391 . S
C79 C84 1.391 . S
C79 H109 0.948 . S
C80 C79 1.391 . S
C80 C81 1.391 1_545 S
C81 C80 1.391 1_565 S
C81 C82 1.392 . S
C81 H110 0.947 . S
C82 C81 1.392 . S
C82 C83 1.419 1_565 S
C82 H111 0.948 . S
C83 C82 1.419 1_545 S
C83 C84 1.391 . S
C83 C87 1.397 . S
C84 C79 1.391 . S
C84 C83 1.391 . S
C84 C85 1.399 . S
C85 C84 1.399 . S
C85 C86 1.396 . S
C85 C88 1.453 . S
C85 C89 1.684 . S
C86 C67 1.723 . S
C86 C85 1.396 . S
C86 C87 1.394 . S
C87 C83 1.397 . S
C87 C86 1.394 . S
C87 C97 1.723 1_545 S
C88 C85 1.453 . S
C88 H112 0.982 . S
C88 H113 0.979 . S
C88 H114 0.977 . S
C89 C85 1.684 . S
C89 H115 0.979 . S
C89 H116 0.980 . S
C89 H117 0.983 . S
C90 H66 0.948 . S
C90 C91 1.391 . S
C90 C95 1.391 . S
C91 C90 1.391 . S
C91 C92 1.391 . S
C92 H69 0.947 . S
C92 C91 1.391 . S
C92 C93 1.392 . S
C93 H70 0.948 . S
C93 C92 1.392 . S
C93 C94 1.419 . S
C94 C93 1.419 . S
C94 C95 1.391 . S
C94 C98 1.397 . S
C95 C90 1.391 . S
C95 C94 1.391 . S
C95 C96 1.399 . S
C96 C95 1.399 . S
C96 C97 1.396 . S
C96 C99 1.453 . S
C96 C100 1.684 . S
C97 C87 1.723 1_565 S
C97 C96 1.396 . S
C97 C98 1.394 . S
C98 C68 1.723 1_565 S
C98 C94 1.397 . S
C98 C97 1.394 . S
C99 H71 0.982 . S
C99 H75 0.979 . S
C99 H76 0.977 . S
C99 C96 1.453 . S
C100 H72 0.979 . S
C100 H73 0.980 . S
C100 H74 0.983 . S
C100 C96 1.684 . S
H101 C119 0.948 . S
H102 C60 0.948 . S
H103 C78 0.979 . S
H104 C78 0.980 . S
H105 C78 0.983 . S
H106 C77 0.982 . S
H107 C77 0.979 . S
H108 C77 0.977 . S
H109 C79 0.948 . S
H110 C81 0.947 . S
H111 C82 0.948 . S
H112 C88 0.982 . S
H113 C88 0.979 . S
H114 C88 0.977 . S
H115 C89 0.979 . S
H116 C89 0.980 . S
H117 C89 0.983 . S
H118 C62 0.947 . S
C119 C62 1.392 . S
C119 C63 1.419 . S
C119 H101 0.948 . S
C120 C121 1.391 . S
C120 C124 1.391 . S
C120 H162 0.948 . S
C121 C120 1.391 . S
C121 C122 1.391 . S
C122 C121 1.391 . S
C122 H178 0.947 . S
C122 C179 1.392 . S
C123 C124 1.391 . S
C123 C127 1.397 . S
C123 C179 1.419 . S
C124 C120 1.391 . S
C124 C123 1.391 . S
C124 C125 1.399 . S
C125 C124 1.399 . S
C125 C128 1.396 . S
C125 C137 1.453 . S
C125 C138 1.684 . S
H126 C150 0.948 . S
C127 C123 1.397 . S
C127 C128 1.394 . S
C127 C146 1.723 . S
C128 C125 1.396 . S
C128 C127 1.394 . S
C128 C158 1.723 . S
H129 C152 0.947 . S
H130 C153 0.948 . S
H131 C159 0.982 . S
H132 C160 0.979 . S
H133 C160 0.980 . S
H134 C160 0.983 . S
H135 C159 0.979 . S
H136 C159 0.977 . S
C137 C125 1.453 . S
C137 H166 0.982 . S
C137 H167 0.979 . S
C137 H168 0.977 . S
C138 C125 1.684 . S
C138 H163 0.979 . S
C138 H164 0.980 . S
C138 H165 0.983 . S
C139 C140 1.391 . S
C139 C144 1.391 . S
C139 H169 0.948 . S
C140 C139 1.391 . S
C140 C141 1.391 . S
C141 C140 1.391 . S
C141 C142 1.392 . S
C141 H170 0.947 . S
C142 C141 1.392 . S
C142 C143 1.419 . S
C142 H171 0.948 . S
C143 C142 1.419 . S
C143 C144 1.391 . S
C143 C147 1.397 . S
C144 C139 1.391 . S
C144 C143 1.391 . S
C144 C145 1.399 . S
C145 C144 1.399 . S
C145 C146 1.396 . S
C145 C148 1.453 . S
C145 C149 1.684 . S
C146 C127 1.723 . S
C146 C145 1.396 . S
C146 C147 1.394 . S
C147 C143 1.397 . S
C147 C146 1.394 . S
C147 C157 1.723 . S
C148 C145 1.453 . S
C148 H172 0.982 . S
C148 H173 0.979 . S
C148 H174 0.977 . S
C149 C145 1.684 . S
C149 H175 0.979 . S
C149 H176 0.980 . S
C149 H177 0.983 . S
C150 H126 0.948 . S
C150 C151 1.391 . S
C150 C155 1.391 . S
C151 C150 1.391 . S
C151 C152 1.391 . S
C152 H129 0.947 . S
C152 C151 1.391 . S
C152 C153 1.392 . S
C153 H130 0.948 . S
C153 C152 1.392 . S
C153 C154 1.419 . S
C154 C153 1.419 . S
C154 C155 1.391 . S
C154 C158 1.397 . S
C155 C150 1.391 . S
C155 C154 1.391 . S
C155 C156 1.399 . S
C156 C155 1.399 . S
C156 C157 1.396 . S
C156 C159 1.453 . S
C156 C160 1.684 . S
C157 C147 1.723 . S
C157 C156 1.396 . S
C157 C158 1.394 . S
C158 C128 1.723 . S
C158 C154 1.397 . S
C158 C157 1.394 . S
C159 H131 0.982 . S
C159 H135 0.979 . S
C159 H136 0.977 . S
C159 C156 1.453 . S
C160 H132 0.979 . S
C160 H133 0.980 . S
C160 H134 0.983 . S
C160 C156 1.684 . S
H161 C179 0.948 . S
H162 C120 0.948 . S
H163 C138 0.979 . S
H164 C138 0.980 . S
H165 C138 0.983 . S
H166 C137 0.982 . S
H167 C137 0.979 . S
H168 C137 0.977 . S
H169 C139 0.948 . S
H170 C141 0.947 . S
H171 C142 0.948 . S
H172 C148 0.982 . S
H173 C148 0.979 . S
H174 C148 0.977 . S
H175 C149 0.979 . S
H176 C149 0.980 . S
H177 C149 0.983 . S
H178 C122 0.947 . S
C179 C122 1.392 . S
C179 C123 1.419 . S
C179 H161 0.948 . S
C180 C181 1.391 . S
C180 C184 1.391 . S
C180 H222 0.948 . S
C181 C180 1.391 . S
C181 C182 1.391 . S
C182 C181 1.391 . S
C182 H238 0.947 . S
C182 C239 1.392 . S
C183 C184 1.391 . S
C183 C187 1.397 . S
C183 C239 1.419 . S
C184 C180 1.391 . S
C184 C183 1.391 . S
C184 C185 1.399 . S
C185 C184 1.399 . S
C185 C188 1.396 . S
C185 C197 1.453 . S
C185 C198 1.684 . S
H186 C210 0.948 . S
C187 C183 1.397 . S
C187 C188 1.394 . S
C187 C206 1.723 . S
C188 C185 1.396 . S
C188 C187 1.394 . S
C188 C218 1.723 1_455 S
H189 C212 0.947 . S
H190 C213 0.948 . S
H191 C219 0.982 . S
H192 C220 0.979 . S
H193 C220 0.980 . S
H194 C220 0.983 . S
H195 C219 0.979 . S
H196 C219 0.977 . S
C197 C185 1.453 . S
C197 H226 0.982 . S
C197 H227 0.979 . S
C197 H228 0.977 . S
C198 C185 1.684 . S
C198 H223 0.979 . S
C198 H224 0.980 . S
C198 H225 0.983 . S
C199 C200 1.391 1_556 S
C199 C204 1.391 . S
C199 H229 0.948 1_556 S
C200 C199 1.391 1_554 S
C200 C201 1.393 1_455 S
C201 C200 1.393 1_655 S
C201 C202 1.389 1_554 S
C201 H230 0.949 . S
C202 C201 1.389 1_556 S
C202 C203 1.419 1_655 S
C202 H231 0.948 . S
C203 C202 1.419 1_455 S
C203 C204 1.391 . S
C203 C207 1.397 . S
C204 C199 1.391 . S
C204 C203 1.391 . S
C204 C205 1.399 . S
C205 C204 1.399 . S
C205 C206 1.396 . S
C205 C208 1.453 . S
C205 C209 1.684 . S
C206 C187 1.723 . S
C206 C205 1.396 . S
C206 C207 1.394 . S
C207 C203 1.397 . S
C207 C206 1.394 . S
C207 C217 1.723 1_455 S
C208 C205 1.453 . S
C208 H232 0.982 . S
C208 H233 0.979 . S
C208 H234 0.977 . S
C209 C205 1.684 . S
C209 H235 0.979 . S
C209 H236 0.980 . S
C209 H237 0.983 . S
C210 H186 0.948 . S
C210 C211 1.391 . S
C210 C215 1.391 . S
C211 C210 1.391 . S
C211 C212 1.391 . S
C212 H189 0.947 . S
C212 C211 1.391 . S
C212 C213 1.392 . S
C213 H190 0.948 . S
C213 C212 1.392 . S
C213 C214 1.419 . S
C214 C213 1.419 . S
C214 C215 1.391 . S
C214 C218 1.397 . S
C215 C210 1.391 . S
C215 C214 1.391 . S
C215 C216 1.399 . S
C216 C215 1.399 . S
C216 C217 1.396 . S
C216 C219 1.453 . S
C216 C220 1.684 . S
C217 C207 1.723 1_655 S
C217 C216 1.396 . S
C217 C218 1.394 . S
C218 C188 1.723 1_655 S
C218 C214 1.397 . S
C218 C217 1.394 . S
C219 H191 0.982 . S
C219 H195 0.979 . S
C219 H196 0.977 . S
C219 C216 1.453 . S
C220 H192 0.979 . S
C220 H193 0.980 . S
C220 H194 0.983 . S
C220 C216 1.684 . S
H221 C239 0.948 . S
H222 C180 0.948 . S
H223 C198 0.979 . S
H224 C198 0.980 . S
H225 C198 0.983 . S
H226 C197 0.982 . S
H227 C197 0.979 . S
H228 C197 0.977 . S
H229 C199 0.948 1_554 S
H230 C201 0.949 . S
H231 C202 0.948 . S
H232 C208 0.982 . S
H233 C208 0.979 . S
H234 C208 0.977 . S
H235 C209 0.979 . S
H236 C209 0.980 . S
H237 C209 0.983 . S
H238 C182 0.947 . S
C239 C182 1.392 . S
C239 C183 1.419 . S
C239 H221 0.948 . S
C240 C241 1.391 . S
C240 C244 1.391 . S
C240 H282 0.948 . S
C241 C240 1.391 . S
C241 C242 1.391 . S
C242 C241 1.391 . S
C242 H298 0.947 . S
C242 C299 1.392 . S
C243 C244 1.391 . S
C243 C247 1.397 . S
C243 C299 1.419 . S
C244 C240 1.391 . S
C244 C243 1.391 . S
C244 C245 1.399 . S
C245 C244 1.399 . S
C245 C248 1.396 1_655 S
C245 C257 1.453 1_655 S
C245 C258 1.684 . S
H246 C270 0.948 . S
C247 C243 1.397 . S
C247 C248 1.394 1_655 S
C247 C266 1.723 . S
C248 C245 1.396 1_455 S
C248 C247 1.394 1_455 S
C248 C278 1.723 . S
H249 C272 0.947 . S
H250 C273 0.948 . S
H251 C279 0.982 . S
H252 C280 0.979 . S
H253 C280 0.980 . S
H254 C280 0.983 . S
H255 C279 0.979 . S
H256 C279 0.977 . S
C257 C245 1.453 1_455 S
C257 H286 0.982 . S
C257 H287 0.979 . S
C257 H288 0.977 . S
C258 C245 1.684 . S
C258 H283 0.979 . S
C258 H284 0.980 1_655 S
C258 H285 0.983 . S
C259 C260 1.391 1_655 S
C259 C264 1.391 . S
C259 H289 0.948 . S
C260 C259 1.391 1_455 S
C260 C261 1.391 . S
C261 C260 1.391 . S
C261 C262 1.392 . S
C261 H290 0.947 . S
C262 C261 1.392 . S
C262 C263 1.419 . S
C262 H291 0.948 . S
C263 C262 1.419 . S
C263 C264 1.391 1_455 S
C263 C267 1.397 . S
C264 C259 1.391 . S
C264 C263 1.391 1_655 S
C264 C265 1.399 . S
C265 C264 1.399 . S
C265 C266 1.396 . S
C265 C268 1.453 . S
C265 C269 1.684 . S
C266 C247 1.723 . S
C266 C265 1.396 . S
C266 C267 1.394 1_655 S
C267 C263 1.397 . S
C267 C266 1.394 1_455 S
C267 C277 1.723 . S
C268 C265 1.453 . S
C268 H292 0.982 . S
C268 H293 0.979 . S
C268 H294 0.977 . S
C269 C265 1.684 . S
C269 H295 0.979 . S
C269 H296 0.980 . S
C269 H297 0.983 . S
C270 H246 0.948 . S
C270 C271 1.391 . S
C270 C275 1.391 . S
C271 C270 1.391 . S
C271 C272 1.391 . S
C272 H249 0.947 . S
C272 C271 1.391 . S
C272 C273 1.392 . S
C273 H250 0.948 . S
C273 C272 1.392 . S
C273 C274 1.419 . S
C274 C273 1.419 . S
C274 C275 1.391 . S
C274 C278 1.397 . S
C275 C270 1.391 . S
C275 C274 1.391 . S
C275 C276 1.399 . S
C276 C275 1.399 . S
C276 C277 1.396 . S
C276 C279 1.453 . S
C276 C280 1.684 . S
C277 C267 1.723 . S
C277 C276 1.396 . S
C277 C278 1.394 . S
C278 C248 1.723 . S
C278 C274 1.397 . S
C278 C277 1.394 . S
C279 H251 0.982 . S
C279 H255 0.979 . S
C279 H256 0.977 . S
C279 C276 1.453 . S
C280 H252 0.979 . S
C280 H253 0.980 . S
C280 H254 0.983 . S
C280 C276 1.684 . S
H281 C299 0.948 . S
H282 C240 0.948 . S
H283 C258 0.979 . S
H284 C258 0.980 1_455 S
H285 C258 0.983 . S
H286 C257 0.982 . S
H287 C257 0.979 . S
H288 C257 0.977 . S
H289 C259 0.948 . S
H290 C261 0.947 . S
H291 C262 0.948 . S
H292 C268 0.982 . S
H293 C268 0.979 . S
H294 C268 0.977 . S
H295 C269 0.979 . S
H296 C269 0.980 . S
H297 C269 0.983 . S
H298 C242 0.947 . S
C299 C242 1.392 . S
C299 C243 1.419 . S
C299 H281 0.948 . S
C300 C301 1.391 . S
C300 C304 1.391 . S
C300 H342 0.948 . S
C301 C300 1.391 . S
C301 C302 1.391 . S
C302 C301 1.391 . S
C302 H358 0.947 . S
C302 C359 1.392 . S
C303 C304 1.391 . S
C303 C307 1.397 . S
C303 C359 1.419 . S
C304 C300 1.391 . S
C304 C303 1.391 . S
C304 C305 1.399 . S
C305 C304 1.399 . S
C305 C308 1.396 1_565 S
C305 C317 1.453 1_565 S
C305 C318 1.684 . S
H306 C330 0.948 . S
C307 C303 1.397 . S
C307 C308 1.394 1_565 S
C307 C326 1.723 . S
C308 C305 1.396 1_545 S
C308 C307 1.394 1_545 S
C308 C338 1.723 . S
H309 C332 0.947 . S
H310 C333 0.948 . S
H311 C339 0.982 . S
H312 C340 0.979 . S
H313 C340 0.980 . S
H314 C340 0.983 . S
H315 C339 0.979 . S
H316 C339 0.977 . S
C317 C305 1.453 1_545 S
C317 H346 0.982 . S
C317 H347 0.979 1_545 S
C317 H348 0.977 . S
C318 C305 1.684 . S
C318 H343 0.979 . S
C318 H344 0.980 1_565 S
C318 H345 0.983 . S
C319 C320 1.391 1_565 S
C319 C324 1.391 . S
C319 H349 0.948 . S
C320 C319 1.391 1_545 S
C320 C321 1.391 . S
C321 C320 1.391 . S
C321 C322 1.392 . S
C321 H350 0.947 . S
C322 C321 1.392 . S
C322 C323 1.419 . S
C322 H351 0.948 . S
C323 C322 1.419 . S
C323 C324 1.391 1_545 S
C323 C327 1.397 . S
C324 C319 1.391 . S
C324 C323 1.391 1_565 S
C324 C325 1.399 . S
C325 C324 1.399 . S
C325 C326 1.396 . S
C325 C328 1.453 . S
C325 C329 1.684 . S
C326 C307 1.723 . S
C326 C325 1.396 . S
C326 C327 1.394 1_565 S
C327 C323 1.397 . S
C327 C326 1.394 1_545 S
C327 C337 1.723 . S
C328 C325 1.453 . S
C328 H352 0.982 . S
C328 H353 0.979 . S
C328 H354 0.977 . S
C329 C325 1.684 . S
C329 H355 0.979 . S
C329 H356 0.980 . S
C329 H357 0.983 . S
C330 H306 0.948 . S
C330 C331 1.391 . S
C330 C335 1.391 . S
C331 C330 1.391 . S
C331 C332 1.391 . S
C332 H309 0.947 . S
C332 C331 1.391 . S
C332 C333 1.392 . S
C333 H310 0.948 . S
C333 C332 1.392 . S
C333 C334 1.419 . S
C334 C333 1.419 . S
C334 C335 1.391 . S
C334 C338 1.397 . S
C335 C330 1.391 . S
C335 C334 1.391 . S
C335 C336 1.399 . S
C336 C335 1.399 . S
C336 C337 1.396 . S
C336 C339 1.453 . S
C336 C340 1.684 . S
C337 C327 1.723 . S
C337 C336 1.396 . S
C337 C338 1.394 . S
C338 C308 1.723 . S
C338 C334 1.397 . S
C338 C337 1.394 . S
C339 H311 0.982 . S
C339 H315 0.979 . S
C339 H316 0.977 . S
C339 C336 1.453 . S
C340 H312 0.979 . S
C340 H313 0.980 . S
C340 H314 0.983 . S
C340 C336 1.684 . S
H341 C359 0.948 . S
H342 C300 0.948 . S
H343 C318 0.979 . S
H344 C318 0.980 1_545 S
H345 C318 0.983 . S
H346 C317 0.982 . S
H347 C317 0.979 1_565 S
H348 C317 0.977 . S
H349 C319 0.948 . S
H350 C321 0.947 . S
H351 C322 0.948 . S
H352 C328 0.982 . S
H353 C328 0.979 . S
H354 C328 0.977 . S
H355 C329 0.979 . S
H356 C329 0.980 . S
H357 C329 0.983 . S
H358 C302 0.947 . S
C359 C302 1.392 . S
C359 C303 1.419 . S
C359 H341 0.948 . S
C360 C361 1.391 . S
C360 C364 1.391 . S
C360 H402 0.948 . S
C361 C360 1.391 . S
C361 C362 1.391 . S
C362 C361 1.391 . S
C362 H418 0.947 . S
C362 C419 1.392 . S
C363 C364 1.391 . S
C363 C367 1.397 . S
C363 C419 1.419 . S
C364 C360 1.391 . S
C364 C363 1.391 . S
C364 C365 1.399 . S
C365 C364 1.399 . S
C365 C368 1.396 . S
C365 C377 1.453 . S
C365 C378 1.684 . S
H366 C390 0.948 . S
C367 C363 1.397 . S
C367 C368 1.394 . S
C367 C386 1.723 . S
C368 C365 1.396 . S
C368 C367 1.394 . S
C368 C398 1.723 . S
H369 C392 0.947 . S
H370 C393 0.948 . S
H371 C399 0.982 . S
H372 C400 0.979 . S
H373 C400 0.980 . S
H374 C400 0.983 . S
H375 C399 0.979 . S
H376 C399 0.977 . S
C377 C365 1.453 . S
C377 H406 0.982 . S
C377 H407 0.979 . S
C377 H408 0.977 . S
C378 C365 1.684 . S
C378 H403 0.979 . S
C378 H404 0.980 . S
C378 H405 0.983 . S
C379 C380 1.391 1_554 S
C379 C384 1.391 . S
C379 H409 0.948 1_554 S
C380 C379 1.391 1_556 S
C380 C381 1.393 1_556 S
C381 C380 1.393 1_554 S
C381 C382 1.388 . S
C381 H410 0.949 1_554 S
C382 C381 1.388 . S
C382 C383 1.419 . S
C382 H411 0.948 . S
C383 C382 1.419 . S
C383 C384 1.391 . S
C383 C387 1.397 . S
C384 C379 1.391 . S
C384 C383 1.391 . S
C384 C385 1.399 . S
C385 C384 1.399 . S
C385 C386 1.396 . S
C385 C388 1.453 . S
C385 C389 1.684 . S
C386 C367 1.723 . S
C386 C385 1.396 . S
C386 C387 1.394 . S
C387 C383 1.397 . S
C387 C386 1.394 . S
C387 C397 1.723 . S
C388 C385 1.453 . S
C388 H412 0.982 . S
C388 H413 0.979 . S
C388 H414 0.977 . S
C389 C385 1.684 . S
C389 H415 0.979 . S
C389 H416 0.980 . S
C389 H417 0.983 . S
C390 H366 0.948 . S
C390 C391 1.391 . S
C390 C395 1.391 . S
C391 C390 1.391 . S
C391 C392 1.391 . S
C392 H369 0.947 . S
C392 C391 1.391 . S
C392 C393 1.392 . S
C393 H370 0.948 . S
C393 C392 1.392 . S
C393 C394 1.419 . S
C394 C393 1.419 . S
C394 C395 1.391 . S
C394 C398 1.397 . S
C395 C390 1.391 . S
C395 C394 1.391 . S
C395 C396 1.399 . S
C396 C395 1.399 . S
C396 C397 1.396 . S
C396 C399 1.453 . S
C396 C400 1.684 . S
C397 C387 1.723 . S
C397 C396 1.396 . S
C397 C398 1.394 . S
C398 C368 1.723 . S
C398 C394 1.397 . S
C398 C397 1.394 . S
C399 H371 0.982 . S
C399 H375 0.979 . S
C399 H376 0.977 . S
C399 C396 1.453 . S
C400 H372 0.979 . S
C400 H373 0.980 . S
C400 H374 0.983 . S
C400 C396 1.684 . S
H401 C419 0.948 . S
H402 C360 0.948 . S
H403 C378 0.979 . S
H404 C378 0.980 . S
H405 C378 0.983 . S
H406 C377 0.982 . S
H407 C377 0.979 . S
H408 C377 0.977 . S
H409 C379 0.948 1_556 S
H410 C381 0.949 1_556 S
H411 C382 0.948 . S
H412 C388 0.982 . S
H413 C388 0.979 . S
H414 C388 0.977 . S
H415 C389 0.979 . S
H416 C389 0.980 . S
H417 C389 0.983 . S
H418 C362 0.947 . S
C419 C362 1.392 . S
C419 C363 1.419 . S
C419 H401 0.948 . S
C420 C421 1.387 . S
C420 H424 0.950 . S
C420 C429 1.390 . S
C421 C420 1.387 . S
C421 C423 1.387 . S
H422 C429 0.950 . S
C423 C421 1.387 . S
C423 C425 1.390 . S
C423 H427 0.950 . S
H424 C420 0.950 . S
C425 C423 1.390 . S
C425 C426 1.387 . S
C425 H428 0.950 . S
C426 C425 1.387 . S
C426 C429 1.387 . S
H427 C423 0.950 . S
H428 C425 0.950 . S
C429 C420 1.390 . S
C429 H422 0.950 . S
C429 C426 1.387 . S
C430 C431 1.387 . S
C430 H434 0.950 . S
C430 C439 1.390 . S
C431 C430 1.387 . S
C431 C433 1.387 . S
H432 C439 0.950 . S
C433 C431 1.387 . S
C433 C435 1.390 . S
C433 H437 0.950 . S
H434 C430 0.950 . S
C435 C433 1.390 . S
C435 C436 1.387 . S
C435 H438 0.950 . S
C436 C435 1.387 . S
C436 C439 1.387 . S
H437 C433 0.950 . S
H438 C435 0.950 . S
C439 C430 1.390 . S
C439 H432 0.950 . S
C439 C436 1.387 . S
C440 C441 1.387 . S
C440 H444 0.950 . S
C440 C449 1.390 . S
C441 C440 1.387 . S
C441 C443 1.387 . S
H442 C449 0.950 . S
C443 C441 1.387 . S
C443 C445 1.390 . S
C443 H447 0.950 . S
H444 C440 0.950 . S
C445 C443 1.390 . S
C445 C446 1.387 . S
C445 H448 0.950 . S
C446 C445 1.387 . S
C446 C449 1.387 . S
H447 C443 0.950 . S
H448 C445 0.950 . S
C449 C440 1.390 . S
C449 H442 0.950 . S
C449 C446 1.387 . S
C450 C451 1.387 . S
C450 H454 0.950 . S
C450 C459 1.390 . S
C451 C450 1.387 . S
C451 C453 1.387 . S
H452 C459 0.950 . S
C453 C451 1.387 . S
C453 C455 1.390 . S
C453 H457 0.950 . S
H454 C450 0.950 . S
C455 C453 1.390 . S
C455 C456 1.387 . S
C455 H458 0.950 . S
C456 C455 1.387 . S
C456 C459 1.387 . S
H457 C453 0.950 . S
H458 C455 0.950 . S
C459 C450 1.390 . S
C459 H452 0.950 . S
C459 C456 1.387 . S
C460 C461 1.387 . S
C460 H464 0.950 . S
C460 C469 1.390 . S
C461 C460 1.387 . S
C461 C463 1.387 . S
H462 C469 0.950 . S
C463 C461 1.387 . S
C463 C465 1.390 . S
C463 H467 0.950 . S
H464 C460 0.950 . S
C465 C463 1.390 . S
C465 C466 1.387 . S
C465 H468 0.950 . S
C466 C465 1.387 . S
C466 C469 1.387 . S
H467 C463 0.950 . S
H468 C465 0.950 . S
C469 C460 1.390 . S
C469 H462 0.950 . S
C469 C466 1.387 . S
C470 C471 1.387 . S
C470 H474 0.950 . S
C470 C479 1.390 . S
C471 C470 1.387 . S
C471 C473 1.387 . S
H472 C479 0.950 . S
C473 C471 1.387 . S
C473 C475 1.390 . S
C473 H477 0.950 . S
H474 C470 0.950 . S
C475 C473 1.390 . S
C475 C476 1.387 . S
C475 H478 0.950 . S
C476 C475 1.387 . S
C476 C479 1.387 . S
H477 C473 0.950 . S
H478 C475 0.950 . S
C479 C470 1.390 . S
C479 H472 0.950 . S
C479 C476 1.387 . S
C480 C481 1.387 . S
C480 H484 0.950 . S
C480 C489 1.390 . S
C481 C480 1.387 . S
C481 C483 1.387 . S
H482 C489 0.950 . S
C483 C481 1.387 . S
C483 C485 1.390 . S
C483 H487 0.950 . S
H484 C480 0.950 . S
C485 C483 1.390 . S
C485 C486 1.387 . S
C485 H488 0.950 . S
C486 C485 1.387 . S
C486 C489 1.387 . S
H487 C483 0.950 . S
H488 C485 0.950 . S
C489 C480 1.390 . S
C489 H482 0.950 . S
C489 C486 1.387 . S
C490 C491 1.387 . S
C490 H494 0.950 . S
C490 C499 1.390 . S
C491 C490 1.387 . S
C491 C493 1.387 . S
H492 C499 0.950 . S
C493 C491 1.387 . S
C493 C495 1.390 . S
C493 H497 0.950 . S
H494 C490 0.950 . S
C495 C493 1.390 . S
C495 C496 1.387 . S
C495 H498 0.950 . S
C496 C495 1.387 . S
C496 C499 1.387 . S
H497 C493 0.950 . S
H498 C495 0.950 . S
C499 C490 1.390 . S
C499 H492 0.950 . S
C499 C496 1.387 . S
C500 C501 1.387 . S
C500 H504 0.950 . S
C500 C509 1.390 . S
C501 C500 1.387 . S
C501 C503 1.387 . S
H502 C509 0.950 . S
C503 C501 1.387 . S
C503 C505 1.390 . S
C503 H507 0.950 . S
H504 C500 0.950 . S
C505 C503 1.390 . S
C505 C506 1.387 . S
C505 H508 0.950 . S
C506 C505 1.387 . S
C506 C509 1.387 . S
H507 C503 0.950 . S
H508 C505 0.950 . S
C509 C500 1.390 . S
C509 H502 0.950 . S
C509 C506 1.387 . S
C510 C511 1.387 . S
C510 H514 0.950 . S
C510 C519 1.390 . S
C511 C510 1.387 . S
C511 C513 1.387 . S
H512 C519 0.950 . S
C513 C511 1.387 . S
C513 C515 1.390 . S
C513 H517 0.950 . S
H514 C510 0.950 . S
C515 C513 1.390 . S
C515 C516 1.387 . S
C515 H518 0.950 . S
C516 C515 1.387 . S
C516 C519 1.387 . S
H517 C513 0.950 . S
H518 C515 0.950 . S
C519 C510 1.390 . S
C519 H512 0.950 . S
C519 C516 1.387 . S
C520 C521 1.387 . S
C520 H524 0.950 . S
C520 C529 1.390 . S
C521 C520 1.387 . S
C521 C523 1.387 . S
H522 C529 0.950 . S
C523 C521 1.387 . S
C523 C525 1.390 . S
C523 H527 0.950 . S
H524 C520 0.950 . S
C525 C523 1.390 . S
C525 C526 1.387 . S
C525 H528 0.950 . S
C526 C525 1.387 . S
C526 C529 1.387 . S
H527 C523 0.950 . S
H528 C525 0.950 . S
C529 C520 1.390 . S
C529 H522 0.950 . S
C529 C526 1.387 . S
C530 C531 1.387 . S
C530 H534 0.950 . S
C530 C539 1.390 . S
C531 C530 1.387 . S
C531 C533 1.387 . S
H532 C539 0.950 . S
C533 C531 1.387 . S
C533 C535 1.390 . S
C533 H537 0.950 . S
H534 C530 0.950 . S
C535 C533 1.390 . S
C535 C536 1.387 . S
C535 H538 0.950 . S
C536 C535 1.387 . S
C536 C539 1.387 . S
H537 C533 0.950 . S
H538 C535 0.950 . S
C539 C530 1.390 . S
C539 H532 0.950 . S
C539 C536 1.387 . S
C540 C541 1.387 1_655 S
C540 H544 0.950 . S
C540 C549 1.390 . S
C541 C540 1.387 1_455 S
C541 C543 1.387 . S
H542 C549 0.950 . S
C543 C541 1.387 . S
C543 C545 1.390 . S
C543 H547 0.950 . S
H544 C540 0.950 . S
C545 C543 1.390 . S
C545 C546 1.387 . S
C545 H548 0.950 . S
C546 C545 1.387 . S
C546 C549 1.387 1_455 S
H547 C543 0.950 . S
H548 C545 0.950 . S
C549 C540 1.390 . S
C549 H542 0.950 . S
C549 C546 1.387 1_655 S
C550 C551 1.387 1_565 S
C550 H554 0.950 . S
C550 C559 1.390 . S
C551 C550 1.387 1_545 S
C551 C553 1.387 . S
H552 C559 0.950 . S
C553 C551 1.387 . S
C553 C555 1.390 . S
C553 H557 0.950 . S
H554 C550 0.950 . S
C555 C553 1.390 . S
C555 C556 1.387 . S
C555 H558 0.950 . S
C556 C555 1.387 . S
C556 C559 1.387 1_545 S
H557 C553 0.950 . S
H558 C555 0.950 . S
C559 C550 1.390 . S
C559 H552 0.950 . S
C559 C556 1.387 1_565 S
C560 C561 1.387 . S
C560 H564 0.950 . S
C560 C569 1.390 . S
C561 C560 1.387 . S
C561 C563 1.387 . S
H562 C569 0.950 . S
C563 C561 1.387 . S
C563 C565 1.390 . S
C563 H567 0.950 . S
H564 C560 0.950 . S
C565 C563 1.390 . S
C565 C566 1.387 . S
C565 H568 0.950 . S
C566 C565 1.387 . S
C566 C569 1.387 . S
H567 C563 0.950 . S
H568 C565 0.950 . S
C569 C560 1.390 . S
C569 H562 0.950 . S
C569 C566 1.387 . S
C570 C571 1.387 1_565 S
C570 H574 0.950 . S
C570 C579 1.390 . S
C571 C570 1.387 1_545 S
C571 C573 1.387 . S
H572 C579 0.950 . S
C573 C571 1.387 . S
C573 C575 1.390 . S
C573 H577 0.950 . S
H574 C570 0.950 . S
C575 C573 1.390 . S
C575 C576 1.387 . S
C575 H578 0.950 . S
C576 C575 1.387 . S
C576 C579 1.387 1_545 S
H577 C573 0.950 . S
H578 C575 0.950 . S
C579 C570 1.390 . S
C579 H572 0.950 . S
C579 C576 1.387 1_565 S
C580 C581 1.387 . S
C580 H584 0.950 . S
C580 C589 1.390 . S
C581 C580 1.387 . S
C581 C583 1.387 . S
H582 C589 0.950 . S
C583 C581 1.387 . S
C583 C585 1.390 . S
C583 H587 0.950 . S
H584 C580 0.950 . S
C585 C583 1.390 . S
C585 C586 1.387 . S
C585 H588 0.950 . S
C586 C585 1.387 . S
C586 C589 1.387 . S
H587 C583 0.950 . S
H588 C585 0.950 . S
C589 C580 1.390 . S
C589 H582 0.950 . S
C589 C586 1.387 . S
C590 C591 1.387 1_455 S
C590 H594 0.950 . S
C590 C599 1.390 . S
C591 C590 1.387 1_655 S
C591 C593 1.387 . S
H592 C599 0.950 . S
C593 C591 1.387 . S
C593 C595 1.390 . S
C593 H597 0.950 . S
H594 C590 0.950 . S
C595 C593 1.390 . S
C595 C596 1.384 . S
C595 H598 0.950 . S
C596 C595 1.384 . S
C596 C599 1.391 1_655 S
H597 C593 0.950 . S
H598 C595 0.950 . S
C599 C590 1.390 . S
C599 H592 0.950 . S
C599 C596 1.391 1_455 S
C421 C2 1.453 . S
C426 C391 1.548 . S
C431 C22 1.434 . S
C436 C241 1.443 . S
C441 C44 1.497 . S
C446 C301 1.464 . S
C451 C4 1.632 . S
C456 C361 1.581 . S
C466 C271 1.756 . S
C461 C24 1.674 . S
C476 C331 1.688 . S
C471 C42 1.587 . S
C481 C32 1.426 . S
C486 C121 1.300 . S
C491 C49 1.381 . S
C496 C211 1.400 . S
C501 C9 1.367 . S
C506 C91 1.390 . S
C516 C151 1.378 . S
C511 C29 1.326 . S
C526 C181 1.319 . S
C521 C52 1.350 . S
C531 C12 1.342 . S
C536 C61 1.302 . S
C546 C200 1.420 . S
C541 C18 1.442 1_455 S
C551 C38 1.433 . S
C556 C80 1.420 . S
C561 C58 1.423 . S
C566 C140 1.411 . S
C576 C320 1.491 . S
C571 C39 1.496 . S
C586 C380 1.486 . S
C581 C59 1.476 . S
C591 C19 1.478 1_655 S
C596 C260 1.472 1_655 S
