# Generated by pormake.
# Topology ptr, (4,4)-cn, num edge types: 1
# Building blocks:
#     Node 0, Type 0, BuildingBlock: AZAVOO_clean_sbu_0, # of connection points: 4
#     Node 1, Type 0, BuildingBlock: AZAVOO_clean_sbu_0, # of connection points: 4
#     Node 2, Type 0, BuildingBlock: AZAVOO_clean_sbu_0, # of connection points: 4
#     Node 3, Type 0, BuildingBlock: AZAVOO_clean_sbu_0, # of connection points: 4
#     Node 4, Type 0, BuildingBlock: AZAVOO_clean_sbu_0, # of connection points: 4
#     Node 5, Type 0, BuildingBlock: AZAVOO_clean_sbu_0, # of connection points: 4
#     Node 6, Type 0, BuildingBlock: AZAVOO_clean_sbu_0, # of connection points: 4
#     Node 7, Type 0, BuildingBlock: AZAVOO_clean_sbu_0, # of connection points: 4
#     Node 8, Type 0, BuildingBlock: AZAVOO_clean_sbu_0, # of connection points: 4
#     Node 9, Type 0, BuildingBlock: AZAVOO_clean_sbu_0, # of connection points: 4
#     Node 10, Type 0, BuildingBlock: AZAVOO_clean_sbu_0, # of connection points: 4
#     Node 11, Type 0, BuildingBlock: AZAVOO_clean_sbu_0, # of connection points: 4
#     Node 12, Type 0, BuildingBlock: AZAVOO_clean_sbu_0, # of connection points: 4
#     Node 13, Type 0, BuildingBlock: AZAVOO_clean_sbu_0, # of connection points: 4
#     Node 14, Type 0, BuildingBlock: AZAVOO_clean_sbu_0, # of connection points: 4
#     Node 15, Type 0, BuildingBlock: AZAVOO_clean_sbu_0, # of connection points: 4
#     Node 16, Type 0, BuildingBlock: AZAVOO_clean_sbu_0, # of connection points: 4
#     Node 17, Type 0, BuildingBlock: AZAVOO_clean_sbu_0, # of connection points: 4
#     Node 18, Type 1, BuildingBlock: GIZVER_clean_linker_0, # of connection points: 4
#     Node 19, Type 1, BuildingBlock: GIZVER_clean_linker_0, # of connection points: 4
#     Node 20, Type 1, BuildingBlock: GIZVER_clean_linker_0, # of connection points: 4
#     Node 21, Type 1, BuildingBlock: GIZVER_clean_linker_0, # of connection points: 4
#     Node 22, Type 1, BuildingBlock: GIZVER_clean_linker_0, # of connection points: 4
#     Node 23, Type 1, BuildingBlock: GIZVER_clean_linker_0, # of connection points: 4
#     Node 24, Type 1, BuildingBlock: GIZVER_clean_linker_0, # of connection points: 4
#     Node 25, Type 1, BuildingBlock: GIZVER_clean_linker_0, # of connection points: 4
#     Node 26, Type 1, BuildingBlock: GIZVER_clean_linker_0, # of connection points: 4
#     Node 27, Type 1, BuildingBlock: GIZVER_clean_linker_0, # of connection points: 4
#     Node 28, Type 1, BuildingBlock: GIZVER_clean_linker_0, # of connection points: 4
#     Node 29, Type 1, BuildingBlock: GIZVER_clean_linker_0, # of connection points: 4
#     Node 30, Type 1, BuildingBlock: GIZVER_clean_linker_0, # of connection points: 4
#     Node 31, Type 1, BuildingBlock: GIZVER_clean_linker_0, # of connection points: 4
#     Node 32, Type 1, BuildingBlock: GIZVER_clean_linker_0, # of connection points: 4
#     Node 33, Type 1, BuildingBlock: GIZVER_clean_linker_0, # of connection points: 4
#     Node 34, Type 1, BuildingBlock: GIZVER_clean_linker_0, # of connection points: 4
#     Node 35, Type 1, BuildingBlock: GIZVER_clean_linker_0, # of connection points: 4
#     Edge 36, Type (0, 1), BuildingBlock: TEMPAE_clean_linker_10, # of connection points: 2
#     Edge 37, Type (0, 1), BuildingBlock: TEMPAE_clean_linker_10, # of connection points: 2
#     Edge 38, Type (0, 1), BuildingBlock: TEMPAE_clean_linker_10, # of connection points: 2
#     Edge 39, Type (0, 1), BuildingBlock: TEMPAE_clean_linker_10, # of connection points: 2
#     Edge 40, Type (0, 1), BuildingBlock: TEMPAE_clean_linker_10, # of connection points: 2
#     Edge 41, Type (0, 1), BuildingBlock: TEMPAE_clean_linker_10, # of connection points: 2
#     Edge 42, Type (0, 1), BuildingBlock: TEMPAE_clean_linker_10, # of connection points: 2
#     Edge 43, Type (0, 1), BuildingBlock: TEMPAE_clean_linker_10, # of connection points: 2
#     Edge 44, Type (0, 1), BuildingBlock: TEMPAE_clean_linker_10, # of connection points: 2
#     Edge 45, Type (0, 1), BuildingBlock: TEMPAE_clean_linker_10, # of connection points: 2
#     Edge 46, Type (0, 1), BuildingBlock: TEMPAE_clean_linker_10, # of connection points: 2
#     Edge 47, Type (0, 1), BuildingBlock: TEMPAE_clean_linker_10, # of connection points: 2
#     Edge 48, Type (0, 1), BuildingBlock: TEMPAE_clean_linker_10, # of connection points: 2
#     Edge 49, Type (0, 1), BuildingBlock: TEMPAE_clean_linker_10, # of connection points: 2
#     Edge 50, Type (0, 1), BuildingBlock: TEMPAE_clean_linker_10, # of connection points: 2
#     Edge 51, Type (0, 1), BuildingBlock: TEMPAE_clean_linker_10, # of connection points: 2
#     Edge 52, Type (0, 1), BuildingBlock: TEMPAE_clean_linker_10, # of connection points: 2
#     Edge 53, Type (0, 1), BuildingBlock: TEMPAE_clean_linker_10, # of connection points: 2
#     Edge 54, Type (0, 1), BuildingBlock: TEMPAE_clean_linker_10, # of connection points: 2
#     Edge 55, Type (0, 1), BuildingBlock: TEMPAE_clean_linker_10, # of connection points: 2
#     Edge 56, Type (0, 1), BuildingBlock: TEMPAE_clean_linker_10, # of connection points: 2
#     Edge 57, Type (0, 1), BuildingBlock: TEMPAE_clean_linker_10, # of connection points: 2
#     Edge 58, Type (0, 1), BuildingBlock: TEMPAE_clean_linker_10, # of connection points: 2
#     Edge 59, Type (0, 1), BuildingBlock: TEMPAE_clean_linker_10, # of connection points: 2
#     Edge 60, Type (0, 1), BuildingBlock: TEMPAE_clean_linker_10, # of connection points: 2
#     Edge 61, Type (0, 1), BuildingBlock: TEMPAE_clean_linker_10, # of connection points: 2
#     Edge 62, Type (0, 1), BuildingBlock: TEMPAE_clean_linker_10, # of connection points: 2
#     Edge 63, Type (0, 1), BuildingBlock: TEMPAE_clean_linker_10, # of connection points: 2
#     Edge 64, Type (0, 1), BuildingBlock: TEMPAE_clean_linker_10, # of connection points: 2
#     Edge 65, Type (0, 1), BuildingBlock: TEMPAE_clean_linker_10, # of connection points: 2
#     Edge 66, Type (0, 1), BuildingBlock: TEMPAE_clean_linker_10, # of connection points: 2
#     Edge 67, Type (0, 1), BuildingBlock: TEMPAE_clean_linker_10, # of connection points: 2
#     Edge 68, Type (0, 1), BuildingBlock: TEMPAE_clean_linker_10, # of connection points: 2
#     Edge 69, Type (0, 1), BuildingBlock: TEMPAE_clean_linker_10, # of connection points: 2
#     Edge 70, Type (0, 1), BuildingBlock: TEMPAE_clean_linker_10, # of connection points: 2
#     Edge 71, Type (0, 1), BuildingBlock: TEMPAE_clean_linker_10, # of connection points: 2
#     Edge 72, Type (0, 1), BuildingBlock: TEMPAE_clean_linker_10, # of connection points: 2
#     Edge 73, Type (0, 1), BuildingBlock: TEMPAE_clean_linker_10, # of connection points: 2
#     Edge 74, Type (0, 1), BuildingBlock: TEMPAE_clean_linker_10, # of connection points: 2
#     Edge 75, Type (0, 1), BuildingBlock: TEMPAE_clean_linker_10, # of connection points: 2
#     Edge 76, Type (0, 1), BuildingBlock: TEMPAE_clean_linker_10, # of connection points: 2
#     Edge 77, Type (0, 1), BuildingBlock: TEMPAE_clean_linker_10, # of connection points: 2
#     Edge 78, Type (0, 1), BuildingBlock: TEMPAE_clean_linker_10, # of connection points: 2
#     Edge 79, Type (0, 1), BuildingBlock: TEMPAE_clean_linker_10, # of connection points: 2
#     Edge 80, Type (0, 1), BuildingBlock: TEMPAE_clean_linker_10, # of connection points: 2
#     Edge 81, Type (0, 1), BuildingBlock: TEMPAE_clean_linker_10, # of connection points: 2
#     Edge 82, Type (0, 1), BuildingBlock: TEMPAE_clean_linker_10, # of connection points: 2
#     Edge 83, Type (0, 1), BuildingBlock: TEMPAE_clean_linker_10, # of connection points: 2
#     Edge 84, Type (0, 1), BuildingBlock: TEMPAE_clean_linker_10, # of connection points: 2
#     Edge 85, Type (0, 1), BuildingBlock: TEMPAE_clean_linker_10, # of connection points: 2
#     Edge 86, Type (0, 1), BuildingBlock: TEMPAE_clean_linker_10, # of connection points: 2
#     Edge 87, Type (0, 1), BuildingBlock: TEMPAE_clean_linker_10, # of connection points: 2
#     Edge 88, Type (0, 1), BuildingBlock: TEMPAE_clean_linker_10, # of connection points: 2
#     Edge 89, Type (0, 1), BuildingBlock: TEMPAE_clean_linker_10, # of connection points: 2
#     Edge 90, Type (0, 1), BuildingBlock: TEMPAE_clean_linker_10, # of connection points: 2
#     Edge 91, Type (0, 1), BuildingBlock: TEMPAE_clean_linker_10, # of connection points: 2
#     Edge 92, Type (0, 1), BuildingBlock: TEMPAE_clean_linker_10, # of connection points: 2
#     Edge 93, Type (0, 1), BuildingBlock: TEMPAE_clean_linker_10, # of connection points: 2
#     Edge 94, Type (0, 1), BuildingBlock: TEMPAE_clean_linker_10, # of connection points: 2
#     Edge 95, Type (0, 1), BuildingBlock: TEMPAE_clean_linker_10, # of connection points: 2
#     Edge 96, Type (0, 1), BuildingBlock: TEMPAE_clean_linker_10, # of connection points: 2
#     Edge 97, Type (0, 1), BuildingBlock: TEMPAE_clean_linker_10, # of connection points: 2
#     Edge 98, Type (0, 1), BuildingBlock: TEMPAE_clean_linker_10, # of connection points: 2
#     Edge 99, Type (0, 1), BuildingBlock: TEMPAE_clean_linker_10, # of connection points: 2
#     Edge 100, Type (0, 1), BuildingBlock: TEMPAE_clean_linker_10, # of connection points: 2
#     Edge 101, Type (0, 1), BuildingBlock: TEMPAE_clean_linker_10, # of connection points: 2
#     Edge 102, Type (0, 1), BuildingBlock: TEMPAE_clean_linker_10, # of connection points: 2
#     Edge 103, Type (0, 1), BuildingBlock: TEMPAE_clean_linker_10, # of connection points: 2
#     Edge 104, Type (0, 1), BuildingBlock: TEMPAE_clean_linker_10, # of connection points: 2
#     Edge 105, Type (0, 1), BuildingBlock: TEMPAE_clean_linker_10, # of connection points: 2
#     Edge 106, Type (0, 1), BuildingBlock: TEMPAE_clean_linker_10, # of connection points: 2
#     Edge 107, Type (0, 1), BuildingBlock: TEMPAE_clean_linker_10, # of connection points: 2
# Relax obj value: 0.078
# Max RMSD: 0.236
# Mean RMSD: 0.124
data_MOF--net-ptr--node1-AZAVOO_clean_sbu_0--node2-GIZVER_clean_linker_0--edge1-TEMPAE_clean_linker_10
_symmetry_space_group_name_H-M    P1
_symmetry_Int_Tables_number       1
_symmetry_cell_setting            triclinic
loop_
_symmetry_equiv_pos_as_xyz
'x, y, z'
_cell_length_a     81.744999
_cell_length_b     80.585667
_cell_length_c     46.320413
_cell_angle_alpha  91.505177
_cell_angle_beta   91.447708
_cell_angle_gamma 119.99893
loop_
_atom_site_label
_atom_site_type_symbol
_atom_site_fract_x
_atom_site_fract_y
_atom_site_fract_z
_atom_type_partial_charge
Mg0 Mg 0.03751 0.38637 0.95968 0.0
O1 O 0.03476 0.4022 -5e-05 0.0
O2 O 0.00891 0.40456 0.99127 0.0
Mg3 Mg 0.99669 0.39274 0.94559 0.0
C4 C 0.02296 0.40735 0.0076 0.0
C5 C 0.06138 0.3783 0.00902 0.0
O6 O 0.05111 0.38105 0.02784 0.0
O7 O 0.01198 0.35768 0.97218 0.0
O8 O 0.98815 0.36238 0.95911 0.0
O9 O 0.05556 0.41467 0.93953 0.0
O10 O 0.02452 0.39768 0.93414 0.0
C11 C 0.99428 0.35163 0.96849 0.0
C12 C 0.03997 0.41309 0.92913 0.0
O13 O 0.05874 0.37971 0.98225 0.0
Mg14 Mg 0.61224 0.62892 0.034 0.0
O15 O 0.59526 0.61275 0.99241 0.0
O16 O 0.56686 0.61045 0.99386 0.0
Mg17 Mg 0.56528 0.62383 0.03715 0.0
C18 C 0.57881 0.60728 0.98127 0.0
C19 C 0.65386 0.63864 0.0321 0.0
O20 O 0.65207 0.64099 0.05979 0.0
O21 O 0.61636 0.65757 0.01913 0.0
O22 O 0.58765 0.65404 0.02392 0.0
O23 O 0.6011 0.60101 0.05478 0.0
O24 O 0.5873 0.61862 0.0561 0.0
C25 C 0.60504 0.66418 0.01796 0.0
C26 C 0.58705 0.60302 0.06251 0.0
O27 O 0.63975 0.6339 0.01471 0.0
Mg28 Mg 0.36616 0.98523 0.95878 0.0
O29 O 0.38452 0.99015 -0.00024 0.0
O30 O 0.41303 0.01569 0.99348 0.0
Mg31 Mg 0.41346 0.02527 0.94723 0.0
C32 C 0.40138 0.00223 0.00883 0.0
C33 C 0.32434 0.95659 0.9661 0.0
O34 O 0.32513 0.95864 0.93803 0.0
O35 O 0.36392 0.0118 0.97019 0.0
O36 O 0.39233 0.03517 0.95797 0.0
O37 O 0.37523 0.96526 0.94091 0.0
O38 O 0.39007 0.99644 0.93464 0.0
C39 C 0.37565 0.02945 0.96644 0.0
C40 C 0.38948 0.98025 0.93099 0.0
O41 O 0.3394 0.96608 0.98183 0.0
Mg42 Mg 0.98718 0.61392 0.03405 0.0
O43 O 0.99566 0.6025 0.99416 0.0
O44 O 0.02195 0.60229 0.00847 0.0
Mg45 Mg 0.02978 0.61224 0.05594 0.0
C46 C 0.00918 0.59922 0.98917 0.0
C47 C 0.95235 0.61678 0.02531 0.0
O48 O 0.95303 0.61226 0.0522 0.0
O49 O 0.01152 0.64458 0.0273 0.0
O50 O 0.03601 0.64249 0.04556 0.0
O51 O 0.96957 0.58397 0.04935 0.0
O52 O 0.99997 0.60283 0.0603 0.0
C53 C 0.02901 0.65222 0.03508 0.0
C54 C 0.98502 0.58628 0.06154 0.0
O55 O 0.96554 0.61886 0.00908 0.0
Mg56 Mg 0.38899 0.38288 0.00252 0.0
O57 O 0.40959 0.3963 0.04195 0.0
O58 O 0.43732 0.40002 0.02858 0.0
Mg59 Mg 0.43499 0.39098 0.98067 0.0
C60 C 0.42695 0.40147 0.0475 0.0
C61 C 0.35094 0.37735 0.01482 0.0
O62 O 0.35485 0.38403 0.98879 0.0
O63 O 0.38736 0.35398 0.00879 0.0
O64 O 0.41444 0.35938 0.98983 0.0
O65 O 0.39653 0.41192 0.9879 0.0
O66 O 0.41144 0.39654 0.97542 0.0
C67 C 0.39853 0.34819 0.00054 0.0
C68 C 0.41013 0.4118 0.9744 0.0
O69 O 0.36302 0.37472 0.02871 0.0
Mg70 Mg 0.63085 0.02603 0.04924 0.0
O71 O 0.60939 0.01678 0.01072 0.0
O72 O 0.583 0.99059 0.02302 0.0
Mg73 Mg 0.58726 0.98334 0.06904 0.0
C74 C 0.5924 0.00332 0.00495 0.0
C75 C 0.66557 0.06382 0.03123 0.0
O76 O 0.66045 0.06979 0.05411 0.0
O77 O 0.63582 1.00104 0.03779 0.0
O78 O 0.60958 0.97615 0.05357 0.0
O79 O 0.61905 0.04367 0.06863 0.0
O80 O 0.609 0.01336 0.07727 0.0
C81 C 0.62578 0.9832 0.04255 0.0
C82 C 0.60724 0.02823 0.08106 0.0
O83 O 0.65554 0.04636 0.02233 0.0
Mg84 Mg 0.70189 0.71852 0.28227 0.0
O85 O 0.69683 0.73487 0.31937 0.0
O86 O 0.67084 0.73593 0.30577 0.0
Mg87 Mg 0.66067 0.72249 0.2601 0.0
C88 C 0.68435 0.73967 0.32404 0.0
C89 C 0.73299 0.72204 0.33126 0.0
O90 O 0.73148 0.73601 0.34375 0.0
O91 O 0.67639 0.69021 0.29563 0.0
O92 O 0.65222 0.69285 0.27731 0.0
O93 O 0.72029 0.74636 0.26153 0.0
O94 O 0.68947 0.72855 0.25318 0.0
C95 C 0.65872 0.68333 0.29002 0.0
C96 C 0.70495 0.74421 0.24911 0.0
O97 O 0.72275 0.71315 0.30876 0.0
Mg98 Mg 0.27873 0.96169 0.36449 0.0
O99 O 0.26065 0.94533 0.32342 0.0
O100 O 0.232 0.9419 0.32849 0.0
Mg101 Mg 0.23155 0.95581 0.37191 0.0
C102 C 0.24363 0.93918 0.31409 0.0
C103 C 0.32072 0.97275 0.35973 0.0
O104 O 0.3196 0.97524 0.38761 0.0
O105 O 0.28176 0.9899 0.35003 0.0
O106 O 0.25323 0.98615 0.35772 0.0
O107 O 0.26903 0.93428 0.38677 0.0
O108 O 0.25428 0.95094 0.38801 0.0
C109 C 0.27034 0.99639 0.3504 0.0
C110 C 0.25485 0.93588 0.39502 0.0
O111 O 0.30603 0.96733 0.34332 0.0
Mg112 Mg 0.0233 0.30867 0.29244 0.0
O113 O 0.04299 0.31536 0.33275 0.0
O114 O 0.07199 0.33737 0.32043 0.0
Mg115 Mg 0.07084 0.34494 0.27349 0.0
C116 C 0.06067 0.3263 0.33883 0.0
C117 C 0.98157 0.28624 0.30228 0.0
O118 O 0.98269 0.29007 0.27475 0.0
O119 O 0.02358 0.33687 0.30028 0.0
O120 O 0.05217 0.35784 0.28511 0.0
O121 O 0.03001 0.28617 0.27755 0.0
O122 O 0.04585 0.31654 0.26615 0.0
C123 C 0.03615 0.35391 0.29473 0.0
C124 C 0.0442 0.2998 0.26513 0.0
O125 O 0.9968 0.29256 0.31764 0.0
Mg126 Mg 0.65156 0.94952 0.35363 0.0
O127 O 0.65676 0.93467 0.31407 0.0
O128 O 0.68288 0.9335 0.3262 0.0
Mg129 Mg 0.69478 0.94764 0.37068 0.0
C130 C 0.6691 0.92977 0.30852 0.0
C131 C 0.61593 0.95199 0.34598 0.0
O132 O 0.61701 0.94847 0.3733 0.0
O133 O 0.6756 0.9791 0.34129 0.0
O134 O 0.70082 0.97664 0.35407 0.0
O135 O 0.63502 0.92112 0.37434 0.0
O136 O 0.66592 0.94009 0.37993 0.0
C137 C 0.69352 0.98624 0.34414 0.0
C138 C 0.65114 0.92398 0.38459 0.0
O139 O 0.62881 0.95334 0.32962 0.0
Mg140 Mg 0.06128 0.70698 0.34982 0.0
O141 O 0.08223 0.72394 0.38818 0.0
O142 O 0.11013 0.72736 0.37659 0.0
Mg143 Mg 0.10737 0.71305 0.33229 0.0
C144 C 0.09983 0.73027 0.39392 0.0
C145 C 0.02376 0.7039 0.35818 0.0
O146 O 0.02805 0.70828 0.33123 0.0
O147 O 0.05931 0.67888 0.36306 0.0
O148 O 0.08709 0.68325 0.34906 0.0
O149 O 0.06907 0.73419 0.32844 0.0
O150 O 0.08361 0.71761 0.32193 0.0
C151 C 0.07091 0.6728 0.35957 0.0
C152 C 0.08244 0.73262 0.31666 0.0
O153 O 0.03533 0.70176 0.37441 0.0
Mg154 Mg 0.30403 0.36361 0.3925 0.0
O155 O 0.28264 0.35441 0.35374 0.0
O156 O 0.25521 0.33027 0.36792 0.0
Mg157 Mg 0.25936 0.323 0.41393 0.0
C158 C 0.26514 0.34199 0.349 0.0
C159 C 0.34056 0.39935 0.37661 0.0
O160 O 0.33642 0.4046 0.40118 0.0
O161 O 0.30743 0.33749 0.3826 0.0
O162 O 0.28036 0.31382 0.39844 0.0
O163 O 0.29363 0.3829 0.40991 0.0
O164 O 0.28213 0.35269 0.42081 0.0
C165 C 0.29649 0.31982 0.38755 0.0
C166 C 0.28122 0.36813 0.42301 0.0
O167 O 0.3292 0.38271 0.36547 0.0
Mg168 Mg 0.37065 0.05799 0.63169 0.0
O169 O 0.36696 0.07367 0.67129 0.0
O170 O 0.3412 0.07591 0.66116 0.0
Mg171 Mg 0.32992 0.06409 0.61507 0.0
C172 C 0.35497 0.07874 0.67818 0.0
C173 C 0.40718 0.05669 0.64581 0.0
O174 O 0.41121 0.06611 0.62188 0.0
O175 O 0.34491 0.02918 0.6433 0.0
O176 O 0.32122 0.03374 0.62878 0.0
O177 O 0.38891 0.08635 0.61159 0.0
O178 O 0.35798 0.06905 0.60485 0.0
C179 C 0.32724 0.02303 0.63873 0.0
C180 C 0.37345 0.0845 0.60011 0.0
O181 O 0.39129 0.05158 0.65674 0.0
Mg182 Mg 0.94949 0.29632 0.69964 0.0
O183 O 0.93166 0.27872 0.6593 0.0
O184 O 0.90319 0.27622 0.66165 0.0
Mg185 Mg 0.90199 0.28995 0.70485 0.0
C186 C 0.91497 0.27292 0.6488 0.0
C187 C 0.99193 0.30798 0.69386 0.0
O188 O 0.9918 0.31166 0.72163 0.0
O189 O 0.95215 0.32415 0.68355 0.0
O190 O 0.92349 0.32023 0.69059 0.0
O191 O 0.94013 0.26949 0.72308 0.0
O192 O 0.92483 0.28565 0.72265 0.0
C193 C 0.94061 0.33049 0.68336 0.0
C194 C 0.92565 0.27084 0.73045 0.0
O195 O 0.97671 0.30176 0.67848 0.0
Mg196 Mg 0.69855 0.64937 0.64023 0.0
O197 O 0.71606 0.6532 0.68219 0.0
O198 O 0.74555 0.67677 0.67543 0.0
Mg199 Mg 0.74659 0.6889 0.63126 0.0
C200 C 0.73335 0.66385 0.6909 0.0
C201 C 0.65638 0.62205 0.64368 0.0
O202 O 0.65866 0.62592 0.6162 0.0
O203 O 0.69678 0.676 0.65258 0.0
O204 O 0.72629 0.69931 0.64561 0.0
O205 O 0.70765 0.62946 0.62201 0.0
O206 O 0.72285 0.66079 0.61692 0.0
C207 C 0.70936 0.69374 0.6527 0.0
C208 C 0.72213 0.64458 0.61284 0.0
O209 O 0.67081 0.62992 0.66107 0.0
Mg210 Mg 0.31974 0.28294 0.69257 0.0
O211 O 0.32484 0.2669 0.65477 0.0
O212 O 0.35063 0.2654 0.6679 0.0
Mg213 Mg 0.36254 0.28076 0.71174 0.0
C214 C 0.33691 0.26152 0.65002 0.0
C215 C 0.29538 0.30044 0.67239 0.0
O216 O 0.30731 0.31365 0.69137 0.0
O217 O 0.34406 0.31189 0.67877 0.0
O218 O 0.36905 0.30936 0.69278 0.0
O219 O 0.30283 0.25525 0.71469 0.0
O220 O 0.33378 0.27399 0.72051 0.0
C221 C 0.36195 0.31884 0.68171 0.0
C222 C 0.31881 0.25811 0.72558 0.0
O223 O 0.29729 0.28601 0.66643 0.0
Mg224 Mg 0.72722 0.04114 0.66921 0.0
O225 O 0.74623 0.0543 0.71041 0.0
O226 O 0.77501 0.06012 0.69885 0.0
Mg227 Mg 0.77475 0.05239 0.65084 0.0
C228 C 0.76366 0.06039 0.7171 0.0
C229 C 0.68795 0.03234 0.67567 0.0
O230 O 0.6931 0.03861 0.64967 0.0
O231 O 0.72684 0.01279 0.67435 0.0
O232 O 0.75495 0.02013 0.65729 0.0
O233 O 0.73377 0.07014 0.6564 0.0
O234 O 0.75045 0.0566 0.64416 0.0
C235 C 0.73885 0.00803 0.66655 0.0
C236 C 0.74822 0.07134 0.64372 0.0
O237 O 0.69978 0.03093 0.69236 0.0
Mg238 Mg 0.96515 0.68944 0.73418 0.0
O239 O 0.94694 0.68571 0.693 0.0
O240 O 0.91776 0.6613 0.69931 0.0
Mg241 Mg 0.91806 0.64767 0.74161 0.0
C242 C 0.92964 0.67493 0.68448 0.0
C243 C 0.99485 0.72181 0.69308 0.0
O244 O 0.97994 0.72055 0.67951 0.0
O245 O 0.96838 0.66404 0.71901 0.0
O246 O 0.93914 0.63925 0.72356 0.0
O247 O 0.95437 0.70718 0.75564 0.0
O248 O 0.94111 0.67572 0.75785 0.0
C249 C 0.95631 0.64611 0.71661 0.0
C250 C 0.94078 0.69116 0.76431 0.0
O251 O 0.9927 0.71108 0.714 0.0
H252 H 0.15018 0.29044 0.13521 0.0
H253 H 0.15953 0.32604 0.06221 0.0
H254 H 0.11234 0.31136 0.11548 0.0
H255 H 0.17009 0.29076 0.0956 0.0
H256 H 0.1743 0.30597 0.06596 0.0
H257 H 0.18216 0.31365 0.14829 0.0
H258 H 0.24177 0.351 0.14263 0.0
H259 H 0.20683 0.3268 0.06489 0.0
C260 C 0.14631 0.29895 0.12199 0.0
C261 C 0.13017 0.3 0.12815 0.0
C262 C 0.1571 0.30839 0.09825 0.0
C263 C 0.15155 0.31903 0.08084 0.0
C264 C 0.13513 0.31974 0.08672 0.0
C265 C 0.12475 0.31039 0.1105 0.0
C266 C 0.17319 0.30534 0.08985 0.0
C267 C 0.19197 0.31968 0.10468 0.0
C268 C 0.19414 0.32165 0.13508 0.0
C269 C 0.21203 0.33337 0.14864 0.0
C270 C 0.22787 0.34288 0.13189 0.0
C271 C 0.22619 0.34034 0.10171 0.0
C272 C 0.20815 0.329 0.08821 0.0
H273 H 0.70241 0.84913 0.10037 0.0
H274 H 0.65866 0.81984 0.03306 0.0
H275 H 0.66939 0.78779 0.09604 0.0
H276 H 0.70218 0.86479 0.05425 0.0
H277 H 0.68233 0.85318 0.02905 0.0
H278 H 0.68067 0.8606 0.11074 0.0
H279 H 0.66661 0.90462 0.10053 0.0
H280 H 0.67718 0.87971 0.02544 0.0
C281 C 0.69085 0.83604 0.0904 0.0
C282 C 0.6866 0.81835 0.10129 0.0
C283 C 0.68054 0.8368 0.06604 0.0
C284 C 0.66621 0.81949 0.05239 0.0
C285 C 0.66202 0.80172 0.06328 0.0
C286 C 0.67221 0.80143 0.08781 0.0
C287 C 0.6865 0.85583 0.05251 0.0
C288 C 0.67864 0.86761 0.06615 0.0
C289 C 0.6775 0.8691 0.09647 0.0
C290 C 0.67324 0.88251 0.10875 0.0
C291 C 0.66991 0.89427 0.09088 0.0
C292 C 0.67142 0.89346 0.06099 0.0
C293 C 0.67553 0.87997 0.04856 0.0
H294 H 0.16504 0.80375 0.14099 0.0
H295 H 0.14969 0.79513 0.05014 0.0
H296 H 0.1067 0.77241 0.11283 0.0
H297 H 0.18787 0.8076 0.10355 0.0
H298 H 0.18208 0.80796 0.0663 0.0
H299 H 0.18466 0.83498 0.1372 0.0
H300 H 0.22242 0.88941 0.10306 0.0
H301 H 0.19963 0.83836 0.04819 0.0
C302 C 0.15429 0.79912 0.12373 0.0
C303 C 0.13522 0.78859 0.13034 0.0
C304 C 0.15965 0.80244 0.09493 0.0
C305 C 0.1456 0.79389 0.0724 0.0
C306 C 0.1264 0.78264 0.07869 0.0
C307 C 0.12141 0.78102 0.1077 0.0
C308 C 0.18041 0.8124 0.08848 0.0
C309 C 0.19015 0.8341 0.0919 0.0
C310 C 0.1917 0.84332 0.11898 0.0
C311 C 0.20296 0.86335 0.12307 0.0
C312 C 0.21277 0.87413 0.0997 0.0
C313 C 0.21166 0.86526 0.0727 0.0
C314 C 0.20016 0.84528 0.06885 0.0
H315 H 0.3627 0.18893 0.87535 0.0
H316 H 0.37735 0.20572 0.96557 0.0
H317 H 0.34542 0.22542 0.91683 0.0
H318 H 0.39373 0.19308 0.90651 0.0
H319 H 0.38904 0.18735 0.94326 0.0
H320 H 0.37781 0.16901 0.86755 0.0
H321 H 0.34643 0.11021 0.89053 0.0
H322 H 0.36379 0.1553 0.95599 0.0
C323 C 0.36146 0.19582 0.89489 0.0
C324 C 0.35261 0.20687 0.89333 0.0
C325 C 0.37008 0.19496 0.92108 0.0
C326 C 0.36988 0.20549 0.94577 0.0
C327 C 0.36104 0.21663 0.94449 0.0
C328 C 0.35189 0.21655 0.91841 0.0
C329 C 0.38208 0.18553 0.92153 0.0
C330 C 0.37101 0.16445 0.91245 0.0
C331 C 0.37053 0.1584 0.88345 0.0
C332 C 0.36177 0.13878 0.87537 0.0
C333 C 0.353 0.12534 0.89658 0.0
C334 C 0.35401 0.13102 0.92581 0.0
C335 C 0.36267 0.15068 0.93349 0.0
H336 H 0.84198 0.18325 0.90519 0.0
H337 H 0.87985 0.20083 0.98124 0.0
H338 H 0.89474 0.23604 0.90787 0.0
H339 H 0.85472 0.16352 0.9631 0.0
H340 H 0.84488 0.1751 0.98272 0.0
H341 H 0.83929 0.15008 0.90929 0.0
H342 H 0.77875 0.11834 0.91191 0.0
H343 H 0.81147 0.15997 0.98018 0.0
C344 C 0.85498 0.19325 0.91695 0.0
C345 C 0.86774 0.21006 0.90357 0.0
C346 C 0.85921 0.18964 0.94515 0.0
C347 C 0.87634 0.20338 0.9597 0.0
C348 C 0.88921 0.22007 0.94621 0.0
C349 C 0.88469 0.2232 0.91837 0.0
C350 C 0.8467 0.17119 0.96029 0.0
C351 C 0.8276 0.1573 0.94575 0.0
C352 C 0.82647 0.14723 0.91973 0.0
C353 C 0.80884 0.13334 0.90742 0.0
C354 C 0.79234 0.12931 0.92129 0.0
C355 C 0.79313 0.13879 0.94748 0.0
C356 C 0.8108 0.15282 0.95967 0.0
H357 H 0.82207 0.65602 0.89635 0.0
H358 H 0.8263 0.62354 0.96598 0.0
H359 H 0.87616 0.66585 0.92694 0.0
H360 H 0.79645 0.61417 0.91505 0.0
H361 H 0.79585 0.61833 0.9525 0.0
H362 H 0.79166 0.63469 0.87916 0.0
H363 H 0.75426 0.6543 0.90695 0.0
H364 H 0.78045 0.63542 0.96943 0.0
C365 C 0.83032 0.65314 0.91179 0.0
C366 C 0.85008 0.66306 0.90989 0.0
C367 C 0.82145 0.63898 0.93235 0.0
C368 C 0.83285 0.63496 0.951 0.0
C369 C 0.85263 0.64501 0.94956 0.0
C370 C 0.86101 0.65911 0.92928 0.0
C371 C 0.80011 0.62577 0.93179 0.0
C372 C 0.78832 0.63507 0.92522 0.0
C373 C 0.78509 0.63826 0.89642 0.0
C374 C 0.7734 0.6459 0.88979 0.0
C375 C 0.76422 0.64953 0.91214 0.0
C376 C 0.7665 0.64563 0.94079 0.0
C377 C 0.77881 0.63867 0.94735 0.0
H378 H 0.82686 0.64203 0.47086 0.0
H379 H 0.83275 0.67587 0.39686 0.0
H380 H 0.78951 0.66419 0.45706 0.0
H381 H 0.84422 0.64123 0.42714 0.0
H382 H 0.8492 0.65809 0.39968 0.0
H383 H 0.8575 0.66535 0.48219 0.0
H384 H 0.91754 0.6948 0.47691 0.0
H385 H 0.88235 0.67297 0.39903 0.0
C386 C 0.82279 0.65075 0.45855 0.0
C387 C 0.80736 0.65244 0.46695 0.0
C388 C 0.83256 0.65975 0.43378 0.0
C389 C 0.826 0.66977 0.41677 0.0
C390 C 0.80997 0.67078 0.42455 0.0
C391 C 0.80136 0.66274 0.45022 0.0
C392 C 0.84813 0.65633 0.42342 0.0
C393 C 0.8674 0.66912 0.43845 0.0
C394 C 0.86961 0.67154 0.46884 0.0
C395 C 0.88767 0.68116 0.48253 0.0
C396 C 0.90368 0.68834 0.466 0.0
C397 C 0.90191 0.68524 0.43591 0.0
C398 C 0.88376 0.67581 0.42223 0.0
H399 H 0.36899 0.18116 0.43948 0.0
H400 H 0.32494 0.15159 0.37274 0.0
H401 H 0.3372 0.11974 0.43409 0.0
H402 H 0.36793 0.19686 0.39338 0.0
H403 H 0.34751 0.18519 0.36925 0.0
H404 H 0.34669 0.19109 0.45139 0.0
H405 H 0.33287 0.23547 0.44559 0.0
H406 H 0.34297 0.21237 0.36797 0.0
C407 C 0.35764 0.16799 0.42936 0.0
C408 C 0.35393 0.15035 0.43988 0.0
C409 C 0.34699 0.16864 0.4054 0.0
C410 C 0.33284 0.15129 0.39166 0.0
C411 C 0.3292 0.13354 0.40198 0.0
C412 C 0.33977 0.13335 0.42613 0.0
C413 C 0.35227 0.18771 0.39248 0.0
C414 C 0.34452 0.19919 0.4075 0.0
C415 C 0.34353 0.19994 0.43794 0.0
C416 C 0.33941 0.21309 0.4515 0.0
C417 C 0.33601 0.2253 0.43486 0.0
C418 C 0.33737 0.22526 0.40488 0.0
C419 C 0.34138 0.21203 0.39114 0.0
H420 H 0.82389 0.14499 0.475 0.0
H421 H 0.81055 0.12141 0.38792 0.0
H422 H 0.76619 0.11429 0.44281 0.0
H423 H 0.84564 0.13742 0.44253 0.0
H424 H 0.84278 0.13867 0.40456 0.0
H425 H 0.85506 0.1661 0.47586 0.0
H426 H 0.88358 0.22082 0.43719 0.0
H427 H 0.85457 0.16928 0.38332 0.0
C428 C 0.81365 0.13843 0.45713 0.0
C429 C 0.79435 0.13018 0.46232 0.0
C430 C 0.81974 0.13646 0.42978 0.0
C431 C 0.8061 0.1249 0.40791 0.0
C432 C 0.78671 0.1162 0.41309 0.0
C433 C 0.78115 0.12059 0.43926 0.0
C434 C 0.84054 0.1437 0.42591 0.0
C435 C 0.85232 0.16534 0.42928 0.0
C436 C 0.8584 0.1746 0.45692 0.0
C437 C 0.86952 0.19469 0.46013 0.0
C438 C 0.87481 0.20536 0.43515 0.0
C439 C 0.87012 0.19633 0.40749 0.0
C440 C 0.85835 0.17634 0.40466 0.0
H441 H 0.0276 0.51595 0.20661 0.0
H442 H 0.04922 0.53834 0.2931 0.0
H443 H 0.00872 0.55004 0.25205 0.0
H444 H 0.06189 0.52385 0.23392 0.0
H445 H 0.05864 0.51792 0.27083 0.0
H446 H 0.04753 0.49934 0.1959 0.0
H447 H 0.01625 0.44049 0.21876 0.0
H448 H 0.03281 0.48546 0.28415 0.0
C449 C 0.02704 0.52314 0.22632 0.0
C450 C 0.01674 0.53283 0.22627 0.0
C451 C 0.03801 0.52417 0.25102 0.0
C452 C 0.0393 0.53581 0.27524 0.0
C453 C 0.02923 0.5457 0.27518 0.0
C454 C 0.0168 0.54271 0.25169 0.0
C455 C 0.05091 0.51578 0.2497 0.0
C456 C 0.04044 0.49469 0.24071 0.0
C457 C 0.04028 0.4887 0.21178 0.0
C458 C 0.03175 0.4691 0.20374 0.0
C459 C 0.02276 0.45562 0.2248 0.0
C460 C 0.02334 0.46126 0.25391 0.0
C461 C 0.03198 0.48089 0.26168 0.0
H462 H 0.52171 0.51373 0.23849 0.0
H463 H 0.5443 0.53308 0.32587 0.0
H464 H 0.55839 0.57354 0.2596 0.0
H465 H 0.52907 0.49413 0.28639 0.0
H466 H 0.52064 0.50017 0.31751 0.0
H467 H 0.50876 0.48065 0.24115 0.0
H468 H 0.44893 0.45366 0.25106 0.0
H469 H 0.48719 0.49108 0.31952 0.0
C470 C 0.52935 0.52516 0.25465 0.0
C471 C 0.53988 0.54402 0.2456 0.0
C472 C 0.52999 0.52104 0.28401 0.0
C473 C 0.54217 0.53612 0.30389 0.0
C474 C 0.55238 0.55503 0.29494 0.0
C475 C 0.55028 0.55888 0.26632 0.0
C476 C 0.52043 0.50049 0.2935 0.0
C477 C 0.50034 0.48794 0.28132 0.0
C478 C 0.49698 0.47868 0.25379 0.0
C479 C 0.47847 0.4665 0.24278 0.0
C480 C 0.46325 0.46334 0.25947 0.0
C481 C 0.46621 0.47204 0.28713 0.0
C482 C 0.48481 0.48445 0.29801 0.0
H483 H 0.48679 0.9907 0.21139 0.0
H484 H 0.49068 0.95963 0.28333 0.0
H485 H 0.54075 1.0008 0.24324 0.0
H486 H 0.46051 0.95053 0.23088 0.0
H487 H 0.46033 0.95394 0.26869 0.0
H488 H 0.45507 0.97094 0.19702 0.0
H489 H 0.42265 0.9955 0.22948 0.0
H490 H 0.44657 0.97211 0.28805 0.0
C491 C 0.49502 0.98814 0.22737 0.0
C492 C 0.51478 0.99793 0.22562 0.0
C493 C 0.48606 0.97455 0.24863 0.0
C494 C 0.49733 0.97068 0.26782 0.0
C495 C 0.51712 0.98043 0.26629 0.0
C496 C 0.52561 0.99417 0.24551 0.0
C497 C 0.46465 0.96181 0.24836 0.0
C498 C 0.45352 0.97201 0.2433 0.0
C499 C 0.44986 0.97558 0.21497 0.0
C500 C 0.43891 0.98427 0.20964 0.0
C501 C 0.43124 0.98893 0.23318 0.0
C502 C 0.43332 0.984 0.26129 0.0
C503 C 0.4449 0.97597 0.26638 0.0
H504 H 0.48645 0.96732 0.78641 0.0
H505 H 0.50146 0.00176 0.71122 0.0
H506 H 0.46215 0.00273 0.7701 0.0
H507 H 0.5017 0.9609 0.74504 0.0
H508 H 0.50971 0.9767 0.71573 0.0
H509 H 0.51805 0.98058 0.79808 0.0
H510 H 0.57812 0.00799 0.79196 0.0
H511 H 0.54279 0.9928 0.71451 0.0
C512 C 0.48571 0.978 0.7736 0.0
C513 C 0.4735 0.98464 0.78137 0.0
C514 C 0.49631 0.98448 0.74869 0.0
C515 C 0.49401 0.99729 0.73108 0.0
C516 C 0.4817 0.00393 0.73888 0.0
C517 C 0.47182 0.99778 0.76421 0.0
C518 C 0.50855 0.97624 0.73962 0.0
C519 C 0.52805 0.98655 0.75453 0.0
C520 C 0.53026 0.98699 0.78492 0.0
C521 C 0.54829 0.99467 0.79842 0.0
C522 C 0.56419 0.00227 0.78155 0.0
C523 C 0.56233 0.00161 0.75139 0.0
C524 C 0.54425 0.99373 0.73791 0.0
H525 H 0.03452 0.51343 0.77686 0.0
H526 H 0.99146 0.48519 0.70833 0.0
H527 H 0.00341 0.45214 0.76777 0.0
H528 H 0.0336 0.53068 0.73297 0.0
H529 H 0.01424 0.51925 0.70699 0.0
H530 H 0.02067 0.53114 0.78868 0.0
H531 H 0.99161 0.5627 0.78376 0.0
H532 H 0.99655 0.53498 0.70665 0.0
C533 C 0.02327 0.50049 0.76609 0.0
C534 C 0.01973 0.48264 0.7754 0.0
C535 C 0.0129 0.50162 0.74214 0.0
C536 C 0.99913 0.48452 0.72727 0.0
C537 C 0.99558 0.46657 0.73655 0.0
C538 C 0.00588 0.46591 0.76067 0.0
C539 C 0.01803 0.52098 0.73055 0.0
C540 C 0.00881 0.53084 0.746 0.0
C541 C 0.01233 0.53551 0.77597 0.0
C542 C 0.00605 0.54696 0.78942 0.0
C543 C 0.99597 0.55347 0.77315 0.0
C544 C 0.99226 0.54912 0.74342 0.0
C545 C 0.99883 0.53788 0.72982 0.0
H546 H 0.49093 0.48085 0.80576 0.0
H547 H 0.47977 0.45515 0.72002 0.0
H548 H 0.43401 0.44921 0.77044 0.0
H549 H 0.51349 0.47238 0.7763 0.0
H550 H 0.51161 0.47304 0.73804 0.0
H551 H 0.52188 0.50155 0.80805 0.0
H552 H 0.55263 0.5556 0.76808 0.0
H553 H 0.5253 0.50337 0.71561 0.0
C554 C 0.48117 0.47389 0.78745 0.0
C555 C 0.46171 0.46565 0.79136 0.0
C556 C 0.48797 0.47134 0.76104 0.0
C557 C 0.47484 0.45916 0.73902 0.0
C558 C 0.45531 0.4505 0.743 0.0
C559 C 0.44909 0.45553 0.76789 0.0
C560 C 0.5089 0.47846 0.75866 0.0
C561 C 0.52086 0.50013 0.76139 0.0
C562 C 0.52601 0.50977 0.78882 0.0
C563 C 0.5373 0.52987 0.79158 0.0
C564 C 0.54375 0.54015 0.7664 0.0
C565 C 0.54016 0.53071 0.73915 0.0
C566 C 0.5282 0.51073 0.73664 0.0
H567 H 0.69793 0.85181 0.52314 0.0
H568 H 0.71494 0.86591 0.61334 0.0
H569 H 0.6832 0.8883 0.57082 0.0
H570 H 0.72839 0.85314 0.5497 0.0
H571 H 0.72604 0.84832 0.58705 0.0
H572 H 0.70735 0.82912 0.51247 0.0
H573 H 0.67538 0.77081 0.53787 0.0
H574 H 0.70509 0.81635 0.60221 0.0
C575 C 0.69743 0.85832 0.54358 0.0
C576 C 0.68902 0.86981 0.54436 0.0
C577 C 0.70648 0.85647 0.56855 0.0
C578 C 0.70721 0.86652 0.59443 0.0
C579 C 0.69892 0.87818 0.59549 0.0
C580 C 0.68933 0.8791 0.57055 0.0
C581 C 0.71779 0.84632 0.56649 0.0
C582 C 0.70558 0.82516 0.55844 0.0
C583 C 0.70144 0.81878 0.52911 0.0
C584 C 0.691 0.79908 0.52135 0.0
C585 C 0.68403 0.78601 0.54342 0.0
C586 C 0.69027 0.79187 0.57231 0.0
C587 C 0.70022 0.81157 0.57996 0.0
H588 H 0.17201 0.85782 0.57837 0.0
H589 H 0.21048 0.87468 0.65342 0.0
H590 H 0.22834 0.90552 0.57571 0.0
H591 H 0.18255 0.8419 0.64892 0.0
H592 H 0.17003 0.8545 0.65074 0.0
H593 H 0.17407 0.82811 0.58387 0.0
H594 H 0.11559 0.78474 0.5835 0.0
H595 H 0.13954 0.82708 0.65362 0.0
C596 C 0.18583 0.86672 0.58888 0.0
C597 C 0.19987 0.88171 0.5737 0.0
C598 C 0.18973 0.86355 0.61751 0.0
C599 C 0.20754 0.87645 0.63112 0.0
C600 C 0.22151 0.89164 0.61614 0.0
C601 C 0.21756 0.89387 0.58745 0.0
C602 C 0.17523 0.84758 0.63527 0.0
C603 C 0.15846 0.83057 0.61944 0.0
C604 C 0.16051 0.82207 0.59376 0.0
C605 C 0.14493 0.80571 0.58071 0.0
C606 C 0.12762 0.7972 0.59407 0.0
C607 C 0.12553 0.80447 0.62062 0.0
C608 C 0.14094 0.8214 0.63296 0.0
H609 H 0.15827 0.33298 0.54602 0.0
H610 H 0.16545 0.29709 0.60688 0.0
H611 H 0.21359 0.34346 0.56986 0.0
H612 H 0.13399 0.28861 0.56402 0.0
H613 H 0.1347 0.29426 0.60117 0.0
H614 H 0.12827 0.30859 0.52702 0.0
H615 H 0.08877 0.32539 0.55508 0.0
H616 H 0.11782 0.3097 0.61753 0.0
C617 C 0.1671 0.32959 0.5594 0.0
C618 C 0.18673 0.34016 0.55637 0.0
C619 C 0.15918 0.31431 0.57845 0.0
C620 C 0.17137 0.30954 0.5937 0.0
C621 C 0.191 0.31985 0.59033 0.0
C622 C 0.19846 0.33559 0.57269 0.0
C623 C 0.13793 0.30084 0.57972 0.0
C624 C 0.12532 0.30924 0.57314 0.0
C625 C 0.12143 0.31176 0.54431 0.0
C626 C 0.10879 0.31828 0.53772 0.0
C627 C 0.0994 0.32149 0.5602 0.0
C628 C 0.10238 0.31826 0.58895 0.0
C629 C 0.1156 0.31241 0.59539 0.0
C630 C 0.00989 0.41395 0.0516 0.0
C631 C 0.02566 0.41726 0.03608 0.0
C632 C 0.01203 0.42353 0.07836 0.0
C633 C 0.03036 0.43724 0.08943 0.0
C634 C 0.04635 0.44093 0.07354 0.0
C635 C 0.04382 0.43063 0.04725 0.0
C636 C 0.99466 0.41868 0.09505 0.0
C637 C 0.06607 0.45583 0.08422 0.0
C638 C 0.03116 0.47094 0.14939 0.0
C639 C 0.03319 0.46232 0.17412 0.0
C640 C 0.03112 0.46349 0.12153 0.0
C641 C 0.03273 0.44682 0.1184 0.0
C642 C 0.03541 0.43848 0.14324 0.0
C643 C 0.03599 0.44655 0.17065 0.0
C644 C 0.0288 0.47312 0.0955 0.0
C645 C 0.03685 0.42051 0.14098 0.0
H646 H 0.99585 0.40356 0.04301 0.0
H647 H 0.05601 0.43339 0.03504 0.0
H648 H 0.99582 0.41341 0.11647 0.0
H649 H 0.99356 0.43171 0.09898 0.0
H650 H 0.98144 0.40755 0.08352 0.0
H651 H 0.07687 0.45782 0.06848 0.0
H652 H 0.06677 0.4698 0.08848 0.0
H653 H 0.0697 0.45161 0.10494 0.0
H654 H 0.02905 0.48315 0.15177 0.0
H655 H 0.03832 0.4402 0.18952 0.0
H656 H 0.01476 0.46371 0.08454 0.0
H657 H 0.03965 0.47546 0.07968 0.0
H658 H 0.02995 0.48713 0.10142 0.0
H659 H 0.02366 0.40862 0.13053 0.0
H660 H 0.03916 0.41598 0.16243 0.0
H661 H 0.04864 0.42279 0.12722 0.0
C662 C 0.57092 0.57101 0.08454 0.0
C663 C 0.57247 0.58896 0.08094 0.0
C664 C 0.56071 0.55953 0.10712 0.0
C665 C 0.55235 0.56646 0.12689 0.0
C666 C 0.55203 0.58348 0.12126 0.0
C667 C 0.56199 0.59448 0.09814 0.0
C668 C 0.56069 0.54104 0.11164 0.0
C669 C 0.54325 0.59138 0.14171 0.0
C670 C 0.52753 0.53999 0.19372 0.0
C671 C 0.54259 0.5483 0.21447 0.0
C672 C 0.53045 0.54512 0.16464 0.0
C673 C 0.54873 0.55909 0.15652 0.0
C674 C 0.56402 0.56695 0.17727 0.0
C675 C 0.5608 0.56119 0.20569 0.0
C676 C 0.51392 0.53597 0.14295 0.0
C677 C 0.58382 0.58186 0.16975 0.0
H678 H 0.57864 0.56645 0.07084 0.0
H679 H 0.56293 0.60823 0.09522 0.0
H680 H 0.57191 0.54364 0.12812 0.0
H681 H 0.54696 0.52996 0.11968 0.0
H682 H 0.56351 0.53541 0.09137 0.0
H683 H 0.54128 0.60272 0.13187 0.0
H684 H 0.52936 0.57982 0.14845 0.0
H685 H 0.5526 0.59768 0.16148 0.0
H686 H 0.51346 0.52984 0.20028 0.0
H687 H 0.57269 0.56705 0.22127 0.0
H688 H 0.51812 0.53237 0.12217 0.0
H689 H 0.50895 0.54622 0.13852 0.0
H690 H 0.50191 0.52274 0.15105 0.0
H691 H 0.58903 0.57589 0.15282 0.0
H692 H 0.59398 0.58683 0.18872 0.0
H693 H 0.58375 0.59451 0.16097 0.0
C694 C 0.40325 0.98179 0.04653 0.0
C695 C 0.4079 1.00005 0.03763 0.0
C696 C 0.40962 0.97941 0.07367 0.0
C697 C 0.42025 0.99562 0.09271 0.0
C698 C 0.42494 0.01411 0.08379 0.0
C699 C 0.419 0.01614 0.05606 0.0
C700 C 0.40485 0.95954 0.08201 0.0
C701 C 0.43565 0.03164 0.10387 0.0
C702 C 0.4166 0.98526 0.17228 0.0
C703 C 0.43435 0.98733 0.1795 0.0
C704 C 0.41212 0.98849 0.1444 0.0
C705 C 0.42533 0.99302 0.12262 0.0
C706 C 0.44309 0.99466 0.12936 0.0
C707 C 0.44752 0.99213 0.15783 0.0
C708 C 0.39317 0.987 0.13826 0.0
C709 C 0.45732 0.9989 0.10646 0.0
H710 H 0.39489 0.96939 0.03202 0.0
H711 H 0.42253 0.03025 0.0491 0.0
H712 H 0.41786 0.95958 0.08962 0.0
H713 H 0.39513 0.95499 0.10014 0.0
H714 H 0.39803 0.94877 0.06375 0.0
H715 H 0.43846 0.04502 0.09343 0.0
H716 H 0.42741 0.03002 0.12332 0.0
H717 H 0.44933 0.03313 0.11136 0.0
H718 H 0.40598 0.9809 0.18835 0.0
H719 H 0.46134 0.99397 0.16307 0.0
H720 H 0.38453 0.97482 0.12264 0.0
H721 H 0.39515 1.00022 0.12827 0.0
H722 H 0.38511 0.98484 0.15811 0.0
H723 H 0.45084 0.98796 0.08835 0.0
H724 H 0.47021 0.99902 0.11499 0.0
H725 H 0.46158 0.01303 0.09741 0.0
C726 C 0.40445 0.96157 0.91303 0.0
C727 C 0.40434 0.97891 0.91538 0.0
C728 C 0.41711 0.95968 0.89516 0.0
C729 C 0.42967 0.9754 0.87907 0.0
C730 C 0.43038 0.99325 0.88282 0.0
C731 C 0.41776 0.99479 0.90099 0.0
C732 C 0.41624 0.94055 0.8922 0.0
C733 C 0.44353 0.01039 0.866 0.0
C734 C 0.47 0.98058 0.83457 0.0
C735 C 0.4617 0.97762 0.80671 0.0
C736 C 0.45927 0.97815 0.85897 0.0
C737 C 0.43995 0.97275 0.85508 0.0
C738 C 0.43121 0.96794 0.82698 0.0
C739 C 0.44222 0.97042 0.80313 0.0
C740 C 0.46896 0.98294 0.88862 0.0
C741 C 0.41064 0.96202 0.8218 0.0
H742 H 0.39425 0.9493 0.92437 0.0
H743 H 0.4178 0.00824 0.90272 0.0
H744 H 0.40839 0.93298 0.87173 0.0
H745 H 0.43064 0.94248 0.89132 0.0
H746 H 0.40891 0.93129 0.91035 0.0
H747 H 0.44349 0.02362 0.87327 0.0
H748 H 0.45821 0.01309 0.86822 0.0
H749 H 0.43916 0.00746 0.84269 0.0
H750 H 0.48509 0.98607 0.83724 0.0
H751 H 0.43582 0.96788 0.78148 0.0
H752 H 0.45966 0.97273 0.90451 0.0
H753 H 0.47216 0.99751 0.89601 0.0
H754 H 0.48246 0.98276 0.88854 0.0
H755 H 0.40165 0.95062 0.83648 0.0
H756 H 0.40556 0.9567 0.79914 0.0
H757 H 0.40872 0.97451 0.82644 0.0
C758 C 0.05621 0.4458 0.90848 0.0
C759 C 0.03975 0.42806 0.91151 0.0
C760 C 0.05634 0.4592 0.88944 0.0
C761 C 0.03973 0.45454 0.87274 0.0
C762 C 0.0229 0.43698 0.87669 0.0
C763 C 0.02311 0.42405 0.8961 0.0
C764 C 0.07444 0.47791 0.88629 0.0
C765 C 0.00486 0.43132 0.85921 0.0
C766 C 0.02858 0.48666 0.82821 0.0
C767 C 0.03024 0.4807 0.80031 0.0
C768 C 0.03353 0.47979 0.8526 0.0
C769 C 0.0401 0.46662 0.84871 0.0
C770 C 0.04368 0.4623 0.82056 0.0
C771 C 0.03875 0.46945 0.79671 0.0
C772 C 0.03002 0.48517 0.88228 0.0
C773 C 0.05072 0.44841 0.81531 0.0
H774 H 0.0691 0.44906 0.92049 0.0
H775 H 0.01034 0.41038 0.89821 0.0
H776 H 0.0809 0.47728 0.86583 0.0
H777 H 0.0716 0.48999 0.88523 0.0
H778 H 0.08485 0.48097 0.90443 0.0
H779 H 0.99276 0.41767 0.86602 0.0
H780 H 1.00109 0.44273 0.86132 0.0
H781 H 0.00697 0.4296 0.83598 0.0
H782 H 0.022 0.49538 0.83097 0.0
H783 H 0.04016 0.46501 0.77504 0.0
H784 H 0.04141 0.48734 0.8981 0.0
H785 H 0.0165 0.47335 0.88974 0.0
H786 H 0.02901 0.49841 0.88221 0.0
H787 H 0.06285 0.45176 0.83036 0.0
H788 H 0.05515 0.4486 0.79278 0.0
H789 H 0.03927 0.43365 0.81933 0.0
C790 C 0.5782 0.58196 0.94845 0.0
C791 C 0.57287 0.59576 0.95375 0.0
C792 C 0.57178 0.57008 0.92317 0.0
C793 C 0.56034 0.57258 0.90227 0.0
C794 C 0.55509 0.58666 0.90742 0.0
C795 C 0.56115 0.59787 0.93338 0.0
C796 C 0.57699 0.55468 0.91902 0.0
C797 C 0.54333 0.59009 0.88534 0.0
C798 C 0.56133 0.55663 0.82493 0.0
C799 C 0.54336 0.54019 0.82056 0.0
C800 C 0.56686 0.56737 0.85122 0.0
C801 C 0.55456 0.56105 0.87444 0.0
C802 C 0.53681 0.54397 0.87083 0.0
C803 C 0.53126 0.53396 0.84379 0.0
C804 C 0.58578 0.58569 0.85395 0.0
C805 C 0.52346 0.53637 0.89528 0.0
H806 H 0.58698 0.58009 0.96448 0.0
H807 H 0.55701 0.60853 0.93754 0.0
H808 H 0.56399 0.54051 0.91504 0.0
H809 H 0.58564 0.55744 0.89977 0.0
H810 H 0.58508 0.55389 0.93806 0.0
H811 H 0.54095 0.602 0.89228 0.0
H812 H 0.55042 0.59356 0.86444 0.0
H813 H 0.5294 0.57689 0.88145 0.0
H814 H 0.5712 0.56127 0.80772 0.0
H815 H 0.5173 0.52141 0.8408 0.0
H816 H 0.59489 0.58458 0.87104 0.0
H817 H 0.58378 0.59788 0.86047 0.0
H818 H 0.59335 0.58902 0.83343 0.0
H819 H 0.53124 0.53812 0.91615 0.0
H820 H 0.5128 0.52096 0.89135 0.0
H821 H 0.51587 0.5445 0.89735 0.0
C822 C 0.02457 0.58717 0.95493 0.0
C823 C 0.00989 0.59096 0.96049 0.0
C824 C 0.02539 0.57907 0.92821 0.0
C825 C 0.01122 0.57464 0.90643 0.0
C826 C 0.99628 0.57826 0.91189 0.0
C827 C 0.9958 0.58639 0.93884 0.0
C828 C 0.04158 0.57549 0.92315 0.0
C829 C 0.9809 0.57376 0.88911 0.0
C830 C 0.02076 0.57323 0.82716 0.0
C831 C 0.01071 0.5535 0.82014 0.0
C832 C 0.02181 0.58026 0.85551 0.0
C833 C 0.01249 0.56721 0.87733 0.0
C834 C 0.00332 0.54719 0.87068 0.0
C835 C 0.00255 0.54054 0.84202 0.0
C836 C 0.03192 0.60169 0.8617 0.0
C837 C 0.99333 0.53283 0.89342 0.0
H838 H 0.03554 0.59056 0.97148 0.0
H839 H 0.98436 0.58916 0.94289 0.0
H840 H 0.03606 0.56025 0.9163 0.0
H841 H 0.05009 0.58433 0.90541 0.0
H842 H 0.05103 0.57896 0.94275 0.0
H843 H 0.96992 0.57679 0.8971 0.0
H844 H 0.98715 0.5824 0.86997 0.0
H845 H 0.974 0.55843 0.88178 0.0
H846 H 0.02702 0.58321 0.81007 0.0
H847 H 0.99464 0.52529 0.83641 0.0
H848 H 0.04192 0.60575 0.88069 0.0
H849 H 0.02147 0.60614 0.867 0.0
H850 H 0.03988 0.60981 0.84299 0.0
H851 H 0.00265 0.53636 0.91314 0.0
H852 H 0.98879 0.51794 0.8856 0.0
H853 H 0.98064 0.53347 0.8997 0.0
C854 C 0.43856 0.42866 0.9448 0.0
C855 C 0.42233 0.42763 0.95592 0.0
C856 C 0.44755 0.44039 0.92183 0.0
C857 C 0.43983 0.45099 0.90942 0.0
C858 C 0.42494 0.45187 0.92293 0.0
C859 C 0.41636 0.44018 0.94618 0.0
C860 C 0.46393 0.43969 0.90876 0.0
C861 C 0.41664 0.46338 0.91078 0.0
C862 C 0.46404 0.47809 0.84297 0.0
C863 C 0.45447 0.4637 0.82106 0.0
C864 C 0.45892 0.4747 0.87193 0.0
C865 C 0.44387 0.45656 0.879 0.0
C866 C 0.43344 0.44249 0.85677 0.0
C867 C 0.439 0.44613 0.82833 0.0
C868 C 0.47037 0.49017 0.89489 0.0
C869 C 0.41708 0.42298 0.86315 0.0
H870 H 0.4436 0.41943 0.95276 0.0
H871 H 0.404 0.43972 0.95503 0.0
H872 H 0.45888 0.43042 0.88864 0.0
H873 H 0.47498 0.45422 0.90295 0.0
H874 H 0.47037 0.43378 0.92373 0.0
H875 H 0.40823 0.46597 0.92688 0.0
H876 H 0.42792 0.47738 0.90352 0.0
H877 H 0.40719 0.45539 0.89168 0.0
H878 H 0.47591 0.49179 0.83768 0.0
H879 H 0.43174 0.4346 0.81208 0.0
H880 H 0.48216 0.48825 0.90313 0.0
H881 H 0.46177 0.48949 0.91344 0.0
H882 H 0.47658 0.50464 0.88594 0.0
H883 H 0.42238 0.41487 0.87549 0.0
H884 H 0.40943 0.41434 0.84315 0.0
H885 H 0.40683 0.42451 0.87659 0.0
C886 C 0.59262 0.01666 0.95656 0.0
C887 C 0.58338 0.00215 0.97616 0.0
C888 C 0.58475 0.01518 0.92869 0.0
C889 C 0.56725 0.99877 0.92011 0.0
C890 C 0.5575 0.98442 0.94008 0.0
C891 C 0.56566 0.98629 0.96788 0.0
C892 C 0.59553 0.03086 0.90803 0.0
C893 C 0.53885 0.96668 0.9317 0.0
C894 C 0.54366 0.00145 0.84983 0.0
C895 C 0.55088 0.99364 0.82994 0.0
C896 C 0.5483 0.00266 0.87957 0.0
C897 C 0.56028 0.99576 0.88938 0.0
C898 C 0.56669 0.98691 0.86942 0.0
C899 C 0.56193 0.98599 0.83997 0.0
C900 C 0.54113 0.01211 0.90024 0.0
C901 C 0.57925 0.97909 0.87899 0.0
H902 H 0.60622 0.02906 0.96278 0.0
H903 H 0.55832 0.97503 0.98286 0.0
H904 H 0.60037 0.0252 0.89011 0.0
H905 H 0.5862 0.03575 0.89832 0.0
H906 H 0.60808 0.04343 0.91877 0.0
H907 H 0.53213 0.95786 0.95054 0.0
H908 H 0.52891 0.97065 0.92157 0.0
H909 H 0.54112 0.95774 0.91546 0.0
H910 H 0.5351 0.00735 0.84202 0.0
H911 H 0.56724 0.97965 0.82457 0.0
H912 H 0.55309 0.02613 0.90843 0.0
H913 H 0.53508 0.00321 0.91919 0.0
H914 H 0.53019 0.01458 0.88978 0.0
H915 H 0.59303 0.99102 0.88772 0.0
H916 H 0.58193 0.97149 0.861 0.0
H917 H 0.57272 0.96902 0.89657 0.0
C918 C 0.58434 0.01308 0.11934 0.0
C919 C 0.59205 0.02722 0.09891 0.0
C920 C 0.57027 0.01174 0.13729 0.0
C921 C 0.56335 0.02464 0.13438 0.0
C922 C 0.57082 0.03879 0.1134 0.0
C923 C 0.58529 0.04004 0.09604 0.0
C924 C 0.56304 0.99664 0.15972 0.0
C925 C 0.56339 0.05236 0.10905 0.0
C926 C 0.51764 0.00212 0.1723 0.0
C927 C 0.52437 0.00959 0.20055 0.0
C928 C 0.52967 0.00898 0.14905 0.0
C929 C 0.54884 0.02332 0.15442 0.0
C930 C 0.55478 0.03278 0.18207 0.0
C931 C 0.54235 0.02593 0.20476 0.0
C932 C 0.52251 0.99911 0.11959 0.0
C933 C 0.575 0.04826 0.18883 0.0
H934 H 0.58961 0.00322 0.1218 0.0
H935 H 0.59112 0.05087 0.08003 0.0
H936 H 0.56511 0.0035 0.18163 0.0
H937 H 0.54766 0.98667 0.15575 0.0
H938 H 0.5703 0.9881 0.15961 0.0
H939 H 0.57194 0.06373 0.09397 0.0
H940 H 0.5486 0.04417 0.1001 0.0
H941 H 0.56314 0.05923 0.12997 0.0
H942 H 0.50368 0.98964 0.16871 0.0
H943 H 0.54742 0.03211 0.22646 0.0
H944 H 0.52636 0.9878 0.11675 0.0
H945 H 0.529 0.00938 0.10223 0.0
H946 H 0.50687 0.99222 0.11705 0.0
H947 H 0.58386 0.0415 0.19175 0.0
H948 H 0.57638 0.05672 0.209 0.0
H949 H 0.58068 0.05816 0.17086 0.0
C950 C 0.97073 0.55949 0.09514 0.0
C951 C 0.98553 0.57095 0.07745 0.0
C952 C 0.97307 0.54837 0.11593 0.0
C953 C 0.99051 0.54864 0.11861 0.0
C954 C 0.00444 0.55819 0.09815 0.0
C955 C 1.00186 0.56943 0.07798 0.0
C956 C 0.9578 0.53828 0.13715 0.0
C957 C 0.02299 0.55837 0.09962 0.0
C958 C 0.01174 0.55427 0.19395 0.0
C959 C 0.00896 0.53592 0.19881 0.0
C960 C 0.00522 0.55821 0.16838 0.0
C961 C 0.99611 0.54361 0.14637 0.0
C962 C 0.99332 0.52505 0.15077 0.0
C963 C 0.99978 0.52139 0.17704 0.0
C964 C 0.00855 0.57827 0.16478 0.0
C965 C 0.984 0.50924 0.12756 0.0
H966 H 0.95799 0.56051 0.09451 0.0
H967 H 0.01303 0.57776 0.06356 0.0
H968 H 0.95626 0.52421 0.14228 0.0
H969 H 0.96174 0.54715 0.15762 0.0
H970 H 0.94394 0.53601 0.12878 0.0
H971 H 0.03043 0.56284 0.07906 0.0
H972 H 0.03229 0.56864 0.11722 0.0
H973 H 0.02078 0.54402 0.10456 0.0
H974 H 0.01948 0.56587 0.20998 0.0
H975 H 0.99771 0.50723 0.18049 0.0
H976 H 0.99503 0.57772 0.15896 0.0
H977 H 0.01824 0.58506 0.14697 0.0
H978 H 0.01483 0.58759 0.18471 0.0
H979 H 0.97114 0.50868 0.11798 0.0
H980 H 0.98006 0.49499 0.13596 0.0
H981 H 0.9939 0.51216 0.10992 0.0
C982 C 0.45314 0.41244 0.08539 0.0
C983 C 0.43567 0.41038 0.07633 0.0
C984 C 0.4619 0.42153 0.11217 0.0
C985 C 0.4531 0.42895 0.13013 0.0
C986 C 0.4355 0.42695 0.1211 0.0
C987 C 0.42693 0.41757 0.09442 0.0
C988 C 0.48051 0.42312 0.12131 0.0
C989 C 0.42575 0.43482 0.13958 0.0
C990 C 0.46297 0.43677 0.21108 0.0
C991 C 0.47461 0.45673 0.21392 0.0
C992 C 0.45669 0.42742 0.18378 0.0
C993 C 0.46194 0.43837 0.15878 0.0
C994 C 0.47443 0.45847 0.16151 0.0
C995 C 0.48074 0.46742 0.18916 0.0
C996 C 0.44369 0.40594 0.18178 0.0
C997 C 0.48024 0.47065 0.13539 0.0
H998 H 0.45996 0.40687 0.07158 0.0
H999 H 0.41352 0.41619 0.08751 0.0
H1000 H 0.49148 0.43841 0.12524 0.0
H1001 H 0.47908 0.41591 0.14194 0.0
H1002 H 0.4855 0.41659 0.10484 0.0
H1003 H 0.41238 0.43257 0.12907 0.0
H1004 H 0.42248 0.42782 0.16062 0.0
H1005 H 0.43527 0.45042 0.14424 0.0
H1006 H 0.45835 0.42855 0.23036 0.0
H1007 H 0.48963 0.48289 0.19149 0.0
H1008 H 0.44877 0.39921 0.16586 0.0
H1009 H 0.42934 0.40256 0.17412 0.0
H1010 H 0.44258 0.39935 0.20294 0.0
H1011 H 0.48523 0.4644 0.11854 0.0
H1012 H 0.49161 0.48562 0.14089 0.0
H1013 H 0.46782 0.471 0.1259 0.0
C1014 C 0.66889 0.74699 0.36422 0.0
C1015 C 0.68549 0.75005 0.35145 0.0
C1016 C 0.66961 0.7563 0.39064 0.0
C1017 C 0.68739 0.76945 0.40414 0.0
C1018 C 0.70421 0.77323 0.39066 0.0
C1019 C 0.70306 0.76321 0.3647 0.0
C1020 C 0.65136 0.75135 0.40477 0.0
C1021 C 0.72342 0.78751 0.40399 0.0
C1022 C 0.6882 0.80139 0.46714 0.0
C1023 C 0.68977 0.79174 0.49092 0.0
C1024 C 0.68772 0.79455 0.43864 0.0
C1025 C 0.68836 0.77744 0.43388 0.0
C1026 C 0.68985 0.76763 0.45773 0.0
C1027 C 0.69098 0.77511 0.48574 0.0
C1028 C 0.68667 0.80567 0.41364 0.0
C1029 C 0.69023 0.74914 0.45373 0.0
H1030 H 0.65528 0.73677 0.35402 0.0
H1031 H 0.71591 0.76581 0.35461 0.0
H1032 H 0.65055 0.74411 0.42518 0.0
H1033 H 0.65091 0.76456 0.41047 0.0
H1034 H 0.63873 0.74173 0.39065 0.0
H1035 H 0.73495 0.79061 0.38908 0.0
H1036 H 0.72392 0.80116 0.41019 0.0
H1037 H 0.72615 0.78183 0.42398 0.0
H1038 H 0.6873 0.81425 0.47075 0.0
H1039 H 0.69306 0.76789 0.50365 0.0
H1040 H 0.67353 0.79667 0.40021 0.0
H1041 H 0.69874 0.80948 0.39958 0.0
H1042 H 0.68691 0.81904 0.42095 0.0
H1043 H 0.6903 0.7427 0.47462 0.0
H1044 H 0.70299 0.75178 0.44222 0.0
H1045 H 0.67771 0.73852 0.44027 0.0
C1046 C 0.2475 0.91516 0.43684 0.0
C1047 C 0.24106 0.92213 0.41458 0.0
C1048 C 0.23579 0.90525 0.45928 0.0
C1049 C 0.21687 0.90149 0.45874 0.0
C1050 C 0.20976 0.90686 0.43472 0.0
C1051 C 0.22211 0.91759 0.41325 0.0
C1052 C 0.24424 0.90033 0.48478 0.0
C1053 C 0.18948 0.9023 0.4323 0.0
C1054 C 0.19295 0.87062 0.52155 0.0
C1055 C 0.19714 0.88493 0.54303 0.0
C1056 C 0.19713 0.87545 0.49261 0.0
C1057 C 0.20605 0.89499 0.4855 0.0
C1058 C 0.208 0.909 0.50655 0.0
C1059 C 0.20318 0.9037 0.53495 0.0
C1060 C 0.19352 0.85997 0.47017 0.0
C1061 C 0.21734 0.93 0.50007 0.0
H1062 H 0.26218 0.91873 0.4379 0.0
H1063 H 0.21701 0.92272 0.39574 0.0
H1064 H 0.24422 0.90846 0.5045 0.0
H1065 H 0.23564 0.88485 0.4889 0.0
H1066 H 0.259 0.90377 0.48142 0.0
H1067 H 0.18443 0.9002 0.40928 0.0
H1068 H 0.17996 0.88926 0.44389 0.0
H1069 H 0.18845 0.91452 0.44173 0.0
H1070 H 0.188 0.85603 0.52769 0.0
H1071 H 0.20601 0.91466 0.55156 0.0
H1072 H 0.20713 0.86129 0.46397 0.0
H1073 H 0.18664 0.86162 0.45036 0.0
H1074 H 0.18447 0.84539 0.4782 0.0
H1075 H 0.23241 0.93542 0.49547 0.0
H1076 H 0.21676 0.93886 0.51837 0.0
H1077 H 0.21045 0.93202 0.48065 0.0
C1078 C 0.05649 0.31585 0.38998 0.0
C1079 C 0.06852 0.3257 0.36778 0.0
C1080 C 0.06382 0.31494 0.41725 0.0
C1081 C 0.08365 0.32394 0.42239 0.0
C1082 C 0.09587 0.33384 0.40009 0.0
C1083 C 0.08817 0.33468 0.37312 0.0
C1084 C 0.05034 0.30439 0.44063 0.0
C1085 C 0.11709 0.3435 0.4047 0.0
C1086 C 0.10195 0.33626 0.50056 0.0
C1087 C 0.10423 0.32064 0.50737 0.0
C1088 C 0.09558 0.33768 0.47285 0.0
C1089 C 0.09158 0.32323 0.45128 0.0
C1090 C 0.09457 0.30783 0.45764 0.0
C1091 C 0.10082 0.30669 0.48565 0.0
C1092 C 0.09262 0.35435 0.46691 0.0
C1093 C 0.09062 0.29225 0.43509 0.0
H1094 H 0.0413 0.30891 0.38612 0.0
H1095 H 0.09762 0.34222 0.35609 0.0
H1096 H 0.05255 0.29265 0.44804 0.0
H1097 H 0.05319 0.3143 0.45959 0.0
H1098 H 0.03531 0.29815 0.43316 0.0
H1099 H 0.12464 0.35041 0.38501 0.0
H1100 H 0.12195 0.35459 0.42256 0.0
H1101 H 0.12116 0.33285 0.41114 0.0
H1102 H 0.10486 0.34725 0.51713 0.0
H1103 H 0.10235 0.29448 0.49081 0.0
H1104 H 0.07746 0.34897 0.46133 0.0
H1105 H 0.10072 0.36206 0.44809 0.0
H1106 H 0.09701 0.36472 0.48575 0.0
H1107 H 0.0753 0.28422 0.42889 0.0
H1108 H 0.09483 0.28195 0.44292 0.0
H1109 H 0.09829 0.29864 0.41529 0.0
C1110 C 0.07009 0.30994 0.23104 0.0
C1111 C 0.05825 0.29657 0.25046 0.0
C1112 C 0.08263 0.30676 0.2151 0.0
C1113 C 0.08364 0.2899 0.21904 0.0
C1114 C 0.0724 0.27677 0.23968 0.0
C1115 C 0.05958 0.28012 0.25491 0.0
C1116 C 0.09421 0.32112 0.1931 0.0
C1117 C 0.07336 0.25889 0.24506 0.0
C1118 C 0.09917 0.27942 0.14916 0.0
C1119 C 0.11881 0.29097 0.15333 0.0
C1120 C 0.08724 0.27668 0.17188 0.0
C1121 C 0.09526 0.28566 0.1993 0.0
C1122 C 0.11509 0.29475 0.2046 0.0
C1123 C 0.12674 0.29745 0.18133 0.0
C1124 C 0.06617 0.26658 0.16535 0.0
C1125 C 0.12409 0.30371 0.23391 0.0
H1126 H 0.06908 0.32264 0.22746 0.0
H1127 H 0.05055 0.26982 0.27012 0.0
H1128 H 0.10948 0.32651 0.19756 0.0
H1129 H 0.09046 0.3141 0.1711 0.0
H1130 H 0.09194 0.33361 0.19309 0.0
H1131 H 0.06846 0.25354 0.26683 0.0
H1132 H 0.06404 0.24744 0.22879 0.0
H1133 H 0.08794 0.26145 0.24308 0.0
H1134 H 0.09312 0.27419 0.12746 0.0
H1135 H 0.14196 0.30625 0.18456 0.0
H1136 H 0.06164 0.27742 0.16352 0.0
H1137 H 0.0584 0.25716 0.18304 0.0
H1138 H 0.06208 0.2578 0.14475 0.0
H1139 H 0.12499 0.31788 0.2366 0.0
H1140 H 0.13862 0.30594 0.23638 0.0
H1141 H 0.11546 0.29465 0.2514 0.0
C1142 C 0.6892 0.75481 0.21329 0.0
C1143 C 0.705 0.75922 0.2313 0.0
C1144 C 0.68927 0.76831 0.19477 0.0
C1145 C 0.70549 0.78683 0.19445 0.0
C1146 C 0.72125 0.79165 0.21338 0.0
C1147 C 0.72089 0.77771 0.23144 0.0
C1148 C 0.67219 0.76247 0.17474 0.0
C1149 C 0.73864 0.81132 0.21399 0.0
C1150 C 0.70743 0.80712 0.12152 0.0
C1151 C 0.69724 0.8166 0.12608 0.0
C1152 C 0.71198 0.79892 0.14441 0.0
C1153 C 0.70617 0.8003 0.17249 0.0
C1154 C 0.69779 0.81176 0.17769 0.0
C1155 C 0.69329 0.81973 0.15427 0.0
C1156 C 0.72096 0.78689 0.13779 0.0
C1157 C 0.69176 0.81393 0.2074 0.0
H1158 H 0.67691 0.74055 0.21295 0.0
H1159 H 0.73311 0.78125 0.24548 0.0
H1160 H 0.66684 0.77259 0.17779 0.0
H1161 H 0.67622 0.76307 0.15193 0.0
H1162 H 0.66051 0.74774 0.17835 0.0
H1163 H 0.74863 0.81358 0.2324 0.0
H1164 H 0.74609 0.8132 0.1936 0.0
H1165 H 0.73464 0.82259 0.21549 0.0
H1166 H 0.71033 0.80464 0.09959 0.0
H1167 H 0.68525 0.82693 0.15766 0.0
H1168 H 0.71004 0.77147 0.13807 0.0
H1169 H 0.73213 0.78963 0.1544 0.0
H1170 H 0.72723 0.78971 0.11622 0.0
H1171 H 0.67837 0.80074 0.21191 0.0
H1172 H 0.68934 0.82631 0.20914 0.0
H1173 H 0.70252 0.81583 0.22425 0.0
C1174 C 0.24964 0.92798 0.26652 0.0
C1175 C 0.23682 0.9278 0.28625 0.0
C1176 C 0.24326 0.91704 0.24032 0.0
C1177 C 0.22359 0.90541 0.23386 0.0
C1178 C 0.21058 0.90504 0.25377 0.0
C1179 C 0.21734 0.91633 0.27959 0.0
C1180 C 0.25758 0.918 0.21946 0.0
C1181 C 0.18951 0.89262 0.24787 0.0
C1182 C 0.20786 0.89134 0.15483 0.0
C1183 C 0.2061 0.87311 0.15216 0.0
C1184 C 0.21325 0.90187 0.18136 0.0
C1185 C 0.21666 0.89387 0.20605 0.0
C1186 C 0.21403 0.87512 0.20388 0.0
C1187 C 0.20891 0.86502 0.17694 0.0
C1188 C 0.21592 0.92183 0.18275 0.0
C1189 C 0.21721 0.86596 0.22983 0.0
H1190 H 0.2647 0.93682 0.27144 0.0
H1191 H 0.2073 0.91594 0.2948 0.0
H1192 H 0.25569 0.9035 0.21542 0.0
H1193 H 0.25534 0.92297 0.19838 0.0
H1194 H 0.27236 0.92784 0.2276 0.0
H1195 H 0.18126 0.89368 0.26581 0.0
H1196 H 0.1852 0.89685 0.22773 0.0
H1197 H 0.18571 0.8774 0.2445 0.0
H1198 H 0.20539 0.89758 0.13594 0.0
H1199 H 0.20784 0.85107 0.17512 0.0
H1200 H 0.23088 0.93243 0.1889 0.0
H1201 H 0.2071 0.92301 0.1996 0.0
H1202 H 0.21216 0.92575 0.16179 0.0
H1203 H 0.23236 0.87402 0.23703 0.0
H1204 H 0.21311 0.85075 0.22508 0.0
H1205 H 0.20898 0.86659 0.2481 0.0
C1206 C 0.6563 0.91898 0.25735 0.0
C1207 C 0.66772 0.91942 0.28078 0.0
C1208 C 0.65629 0.9105 0.23043 0.0
C1209 C 0.66787 0.90215 0.22698 0.0
C1210 C 0.67864 0.90167 0.25094 0.0
C1211 C 0.67849 0.91035 0.27748 0.0
C1212 C 0.64462 0.91131 0.2053 0.0
C1213 C 0.69105 0.8928 0.24823 0.0
C1214 C 0.66033 0.87221 0.15763 0.0
C1215 C 0.67378 0.88601 0.14031 0.0
C1216 C 0.65851 0.87703 0.18634 0.0
C1217 C 0.67044 0.89605 0.19767 0.0
C1218 C 0.68468 0.90968 0.18057 0.0
C1219 C 0.68617 0.90447 0.15213 0.0
C1220 C 0.6433 0.86209 0.20405 0.0
C1221 C 0.69783 0.93004 0.19183 0.0
H1222 H 0.64787 0.92585 0.25974 0.0
H1223 H 0.68714 0.91031 0.29556 0.0
H1224 H 0.65414 0.92096 0.18905 0.0
H1225 H 0.63596 0.89689 0.19452 0.0
H1226 H 0.63509 0.91667 0.21209 0.0
H1227 H 0.69678 0.89158 0.26957 0.0
H1228 H 0.68303 0.87833 0.2374 0.0
H1229 H 0.7031 0.90174 0.23464 0.0
H1230 H 0.65065 0.85799 0.14829 0.0
H1231 H 0.69656 0.91511 0.13858 0.0
H1232 H 0.63224 0.86596 0.20768 0.0
H1233 H 0.64924 0.86158 0.2256 0.0
H1234 H 0.63653 0.84756 0.19324 0.0
H1235 H 0.68955 0.9372 0.19658 0.0
H1236 H 0.70864 0.93862 0.17615 0.0
H1237 H 0.70518 0.93011 0.21234 0.0
C1238 C 0.08891 0.75836 0.28257 0.0
C1239 C 0.09465 0.74653 0.29574 0.0
C1240 C 0.09789 0.76857 0.25831 0.0
C1241 C 0.11317 0.76713 0.24739 0.0
C1242 C 0.12026 0.75684 0.26246 0.0
C1243 C 0.11078 0.74647 0.28632 0.0
C1244 C 0.08977 0.77924 0.24274 0.0
C1245 C 0.13685 0.75538 0.25192 0.0
C1246 C 0.11552 0.76483 0.16617 0.0
C1247 C 0.12974 0.78348 0.16057 0.0
C1248 C 0.10994 0.75953 0.19428 0.0
C1249 C 0.11916 0.77305 0.21765 0.0
C1250 C 0.13383 0.79181 0.21238 0.0
C1251 C 0.13886 0.79687 0.1838 0.0
C1252 C 0.09413 0.73937 0.19891 0.0
C1253 C 0.14419 0.80645 0.23687 0.0
H1254 H 0.0765 0.75857 0.28986 0.0
H1255 H 0.11551 0.73764 0.29668 0.0
H1256 H 0.10118 0.7933 0.23594 0.0
H1257 H 0.08169 0.77076 0.22291 0.0
H1258 H 0.0801 0.78166 0.25637 0.0
H1259 H 0.14285 0.75016 0.26881 0.0
H1260 H 0.13217 0.7452 0.23286 0.0
H1261 H 0.14816 0.76949 0.24506 0.0
H1262 H 0.10882 0.75417 0.14854 0.0
H1263 H 0.14986 0.81131 0.17962 0.0
H1264 H 0.08269 0.73983 0.21067 0.0
H1265 H 0.09948 0.73177 0.21237 0.0
H1266 H 0.08795 0.73088 0.17825 0.0
H1267 H 0.13419 0.80945 0.24846 0.0
H1268 H 0.15578 0.82016 0.22921 0.0
H1269 H 0.15027 0.8007 0.25274 0.0
C1270 C 0.23651 0.3348 0.31849 0.0
C1271 C 0.25592 0.34107 0.32066 0.0
C1272 C 0.22747 0.33361 0.29171 0.0
C1273 C 0.23798 0.3383 0.26644 0.0
C1274 C 0.25758 0.34461 0.26851 0.0
C1275 C 0.26637 0.34617 0.29568 0.0
C1276 C 0.20669 0.32735 0.29046 0.0
C1277 C 0.26921 0.34936 0.24197 0.0
C1278 C 0.21367 0.31749 0.19289 0.0
C1279 C 0.21508 0.3337 0.18021 0.0
C1280 C 0.22047 0.3186 0.2214 0.0
C1281 C 0.22852 0.33626 0.23764 0.0
C1282 C 0.22883 0.35235 0.22543 0.0
C1283 C 0.22236 0.35095 0.19662 0.0
C1284 C 0.2202 0.30123 0.23341 0.0
C1285 C 0.23682 0.37127 0.2423 0.0
H1286 H 0.22843 0.33104 0.33783 0.0
H1287 H 0.28134 0.35091 0.29727 0.0
H1288 H 0.20444 0.3383 0.27991 0.0
H1289 H 0.19866 0.31379 0.27716 0.0
H1290 H 0.20074 0.32506 0.31225 0.0
H1291 H 0.2842 0.35376 0.24724 0.0
H1292 H 0.26312 0.3367 0.22658 0.0
H1293 H 0.2688 0.36115 0.23075 0.0
H1294 H 0.20832 0.30428 0.17988 0.0
H1295 H 0.22358 0.36349 0.18655 0.0
H1296 H 0.21369 0.29811 0.25475 0.0
H1297 H 0.23492 0.30416 0.23675 0.0
H1298 H 0.21231 0.28827 0.21876 0.0
H1299 H 0.2309 0.36907 0.26408 0.0
H1300 H 0.23381 0.38154 0.23109 0.0
H1301 H 0.25237 0.37782 0.24538 0.0
C1302 C 0.25766 0.3553 0.46095 0.0
C1303 C 0.26605 0.36842 0.43931 0.0
C1304 C 0.24324 0.35497 0.47698 0.0
C1305 C 0.23667 0.36785 0.47084 0.0
C1306 C 0.24502 0.38114 0.44888 0.0
C1307 C 0.25978 0.38137 0.43347 0.0
C1308 C 0.23514 0.34082 0.50068 0.0
C1309 C 0.2381 0.39471 0.44108 0.0
C1310 C 0.18954 0.34551 0.50379 0.0
C1311 C 0.19532 0.35308 0.53219 0.0
C1312 C 0.20235 0.35249 0.48152 0.0
C1313 C 0.22124 0.36712 0.48818 0.0
C1314 C 0.22592 0.37707 0.51547 0.0
C1315 C 0.21275 0.37001 0.53718 0.0
C1316 C 0.1965 0.34221 0.4522 0.0
C1317 C 0.24573 0.39308 0.52334 0.0
H1318 H 0.26259 0.34538 0.46568 0.0
H1319 H 0.26613 0.39141 0.41651 0.0
H1320 H 0.23654 0.3485 0.52164 0.0
H1321 H 0.21985 0.33078 0.49588 0.0
H1322 H 0.24227 0.33225 0.50322 0.0
H1323 H 0.24847 0.40666 0.42832 0.0
H1324 H 0.22469 0.38671 0.42788 0.0
H1325 H 0.23512 0.40081 0.46066 0.0
H1326 H 0.17596 0.33258 0.49965 0.0
H1327 H 0.21707 0.37613 0.55906 0.0
H1328 H 0.20097 0.33128 0.45098 0.0
H1329 H 0.2034 0.35235 0.43482 0.0
H1330 H 0.18092 0.33479 0.44825 0.0
H1331 H 0.25474 0.38682 0.52889 0.0
H1332 H 0.24601 0.40196 0.54232 0.0
H1333 H 0.25199 0.40247 0.50494 0.0
C1334 C 0.66834 0.90701 0.39847 0.0
C1335 C 0.65275 0.9096 0.40149 0.0
C1336 C 0.67233 0.89655 0.41834 0.0
C1337 C 0.66061 0.88884 0.44204 0.0
C1338 C 0.64386 0.88991 0.4436 0.0
C1339 C 0.64004 0.9002 0.42306 0.0
C1340 C 0.69005 0.89532 0.4154 0.0
C1341 C 0.631 0.88193 0.46853 0.0
C1342 C 0.67054 0.85986 0.49645 0.0
C1343 C 0.68192 0.87423 0.51744 0.0
C1344 C 0.66351 0.86428 0.47151 0.0
C1345 C 0.66787 0.88345 0.46777 0.0
C1346 C 0.6796 0.89799 0.4887 0.0
C1347 C 0.68663 0.89324 0.51298 0.0
C1348 C 0.65131 0.84849 0.44938 0.0
C1349 C 0.68474 0.91866 0.48557 0.0
H1350 H 0.67783 0.91376 0.38118 0.0
H1351 H 0.62791 0.90213 0.42526 0.0
H1352 H 0.70121 0.9058 0.43099 0.0
H1353 H 0.68744 0.88084 0.42048 0.0
H1354 H 0.69547 0.8986 0.3933 0.0
H1355 H 0.61715 0.88102 0.46413 0.0
H1356 H 0.62852 0.86746 0.47335 0.0
H1357 H 0.63786 0.89139 0.48815 0.0
H1358 H 0.66692 0.84517 0.49974 0.0
H1359 H 0.69593 0.90454 0.52859 0.0
H1360 H 0.65683 0.85259 0.42751 0.0
H1361 H 0.63676 0.84623 0.44876 0.0
H1362 H 0.65058 0.83471 0.45423 0.0
H1363 H 0.69266 0.92421 0.46568 0.0
H1364 H 0.69356 0.92809 0.50428 0.0
H1365 H 0.67173 0.91968 0.48344 0.0
C1366 C 0.09839 0.74591 0.44062 0.0
C1367 C 0.10896 0.74212 0.42089 0.0
C1368 C 0.10703 0.7575 0.46578 0.0
C1369 C 0.12674 0.76552 0.47137 0.0
C1370 C 0.13753 0.76184 0.45153 0.0
C1371 C 0.12852 0.75018 0.42658 0.0
C1372 C 0.09502 0.76105 0.48652 0.0
C1373 C 0.15854 0.77007 0.45682 0.0
C1374 C 0.14748 0.80693 0.52734 0.0
C1375 C 0.14582 0.79719 0.55264 0.0
C1376 C 0.1424 0.79702 0.50024 0.0
C1377 C 0.13574 0.77703 0.49868 0.0
C1378 C 0.13573 0.7676 0.52404 0.0
C1379 C 0.1407 0.77781 0.55076 0.0
C1380 C 0.14276 0.80758 0.47362 0.0
C1381 C 0.12891 0.74637 0.52333 0.0
H1382 H 0.08332 0.73984 0.43644 0.0
H1383 H 0.13689 0.74743 0.41147 0.0
H1384 H 0.09561 0.75538 0.50786 0.0
H1385 H 0.10063 0.77669 0.48989 0.0
H1386 H 0.08 0.75418 0.47866 0.0
H1387 H 0.16502 0.76637 0.4388 0.0
H1388 H 0.1657 0.78592 0.45973 0.0
H1389 H 0.16126 0.76461 0.47705 0.0
H1390 H 0.15128 0.8219 0.52895 0.0
H1391 H 0.13935 0.77033 0.57048 0.0
H1392 H 0.12818 0.80166 0.46424 0.0
H1393 H 0.15117 0.80551 0.45695 0.0
H1394 H 0.14884 0.8232 0.47839 0.0
H1395 H 0.11338 0.73821 0.51882 0.0
H1396 H 0.13207 0.74179 0.54415 0.0
H1397 H 0.13551 0.74246 0.50578 0.0
C1398 C 0.37506 0.10179 0.71861 0.0
C1399 C 0.35711 0.08851 0.70665 0.0
C1400 C 0.37709 0.11177 0.74505 0.0
C1401 C 0.3608 0.10784 0.76029 0.0
C1402 C 0.34266 0.09426 0.74836 0.0
C1403 C 0.34103 0.08501 0.72146 0.0
C1404 C 0.39663 0.12654 0.75664 0.0
C1405 C 0.32497 0.08916 0.76432 0.0
C1406 C 0.36554 0.11609 0.84176 0.0
C1407 C 0.36295 0.13199 0.84558 0.0
C1408 C 0.36502 0.10825 0.81419 0.0
C1409 C 0.36267 0.11694 0.78953 0.0
C1410 C 0.36116 0.13366 0.79303 0.0
C1411 C 0.36111 0.14087 0.82103 0.0
C1412 C 0.36635 0.09023 0.81155 0.0
C1413 C 0.35919 0.14366 0.76721 0.0
H1414 H 0.3875 0.10471 0.70696 0.0
H1415 H 0.32713 0.07469 0.71225 0.0
H1416 H 0.39722 0.1404 0.76145 0.0
H1417 H 0.39996 0.1219 0.77721 0.0
H1418 H 0.40771 0.12892 0.74121 0.0
H1419 H 0.31194 0.07829 0.75206 0.0
H1420 H 0.32568 0.08343 0.78556 0.0
H1421 H 0.32387 0.10216 0.76863 0.0
H1422 H 0.36775 0.10953 0.86046 0.0
H1423 H 0.35916 0.15317 0.82365 0.0
H1424 H 0.37846 0.09272 0.79839 0.0
H1425 H 0.35336 0.07858 0.80027 0.0
H1426 H 0.36812 0.08523 0.83292 0.0
H1427 H 0.37036 0.14637 0.7518 0.0
H1428 H 0.36014 0.15753 0.77348 0.0
H1429 H 0.34536 0.13434 0.75563 0.0
C1430 C 0.91784 0.25011 0.77228 0.0
C1431 C 0.91161 0.2569 0.7495 0.0
C1432 C 0.90559 0.23939 0.79367 0.0
C1433 C 0.88635 0.23459 0.7915 0.0
C1434 C 0.87962 0.24003 0.76711 0.0
C1435 C 0.89248 0.2516 0.74674 0.0
C1436 C 0.91363 0.23444 0.81966 0.0
C1437 C 0.85912 0.23448 0.76292 0.0
C1438 C 0.86217 0.20064 0.85076 0.0
C1439 C 0.86488 0.21387 0.87324 0.0
C1440 C 0.86664 0.20668 0.82236 0.0
C1441 C 0.87448 0.22638 0.81688 0.0
C1442 C 0.87463 0.23908 0.83872 0.0
C1443 C 0.86944 0.23253 0.86654 0.0
C1444 C 0.86477 0.19241 0.79894 0.0
C1445 C 0.8826 0.26016 0.83388 0.0
H1446 H 0.93267 0.25428 0.77443 0.0
H1447 H 0.88758 0.25661 0.72883 0.0
H1448 H 0.91183 0.24122 0.83959 0.0
H1449 H 0.90594 0.21872 0.82215 0.0
H1450 H 0.92891 0.23933 0.81801 0.0
H1451 H 0.85479 0.23211 0.73957 0.0
H1452 H 0.84962 0.22131 0.77427 0.0
H1453 H 0.85717 0.24635 0.77137 0.0
H1454 H 0.85829 0.18608 0.85572 0.0
H1455 H 0.87099 0.24261 0.88385 0.0
H1456 H 0.87875 0.19367 0.7958 0.0
H1457 H 0.8599 0.19535 0.7781 0.0
H1458 H 0.85472 0.17745 0.80461 0.0
H1459 H 0.89799 0.26697 0.83049 0.0
H1460 H 0.88052 0.2678 0.85248 0.0
H1461 H 0.87585 0.26211 0.81423 0.0
C1462 C 0.7591 0.66863 0.72628 0.0
C1463 C 0.73972 0.66093 0.71956 0.0
C1464 C 0.76549 0.66603 0.75322 0.0
C1465 C 0.75222 0.6557 0.77411 0.0
C1466 C 0.73265 0.64782 0.76749 0.0
C1467 C 0.72662 0.65042 0.7402 0.0
C1468 C 0.78646 0.67445 0.75938 0.0
C1469 C 0.7181 0.6369 0.78941 0.0
C1470 C 0.76604 0.63542 0.83726 0.0
C1471 C 0.76965 0.64913 0.8595 0.0
C1472 C 0.76074 0.63756 0.80914 0.0
C1473 C 0.75885 0.65369 0.80327 0.0
C1474 C 0.76297 0.66782 0.82543 0.0
C1475 C 0.76845 0.66543 0.8532 0.0
C1476 C 0.7567 0.62234 0.78591 0.0
C1477 C 0.76113 0.68523 0.82001 0.0
H1478 H 0.76933 0.67661 0.71036 0.0
H1479 H 0.71164 0.64446 0.7352 0.0
H1480 H 0.79131 0.68523 0.77768 0.0
H1481 H 0.78947 0.66305 0.76591 0.0
H1482 H 0.79488 0.68145 0.74039 0.0
H1483 H 0.70342 0.63143 0.78072 0.0
H1484 H 0.71946 0.62458 0.79649 0.0
H1485 H 0.7206 0.64634 0.80886 0.0
H1486 H 0.76673 0.62268 0.84201 0.0
H1487 H 0.77155 0.67624 0.87018 0.0
H1488 H 0.76516 0.62897 0.76683 0.0
H1489 H 0.74158 0.61516 0.77861 0.0
H1490 H 0.75992 0.61129 0.79355 0.0
H1491 H 0.77021 0.69334 0.80224 0.0
H1492 H 0.76513 0.69502 0.83951 0.0
H1493 H 0.74632 0.68066 0.8131 0.0
C1494 C 0.73935 0.62723 0.59923 0.0
C1495 C 0.73725 0.64344 0.59774 0.0
C1496 C 0.75268 0.62555 0.58268 0.0
C1497 C 0.76361 0.64011 0.56357 0.0
C1498 C 0.76206 0.65685 0.56301 0.0
C1499 C 0.74908 0.65839 0.58037 0.0
C1500 C 0.75438 0.60781 0.58476 0.0
C1501 C 0.77324 0.67268 0.54271 0.0
C1502 C 0.80558 0.64936 0.52044 0.0
C1503 C 0.79677 0.64345 0.49283 0.0
C1504 C 0.7947 0.64613 0.54491 0.0
C1505 C 0.77477 0.63716 0.54126 0.0
C1506 C 0.76589 0.62903 0.51384 0.0
C1507 C 0.77705 0.63216 0.48996 0.0
C1508 C 0.80461 0.65409 0.57408 0.0
C1509 C 0.74469 0.61922 0.50889 0.0
H1510 H 0.7304 0.61574 0.61297 0.0
H1511 H 0.74754 0.67096 0.57918 0.0
H1512 H 0.74518 0.59708 0.56758 0.0
H1513 H 0.76911 0.61108 0.58177 0.0
H1514 H 0.74977 0.60119 0.60595 0.0
H1515 H 0.77079 0.68498 0.54563 0.0
H1516 H 0.78858 0.67804 0.54616 0.0
H1517 H 0.76924 0.66701 0.51997 0.0
H1518 H 0.82087 0.65796 0.52265 0.0
H1519 H 0.77031 0.62736 0.46853 0.0
H1520 H 0.79649 0.64446 0.59141 0.0
H1521 H 0.80576 0.66822 0.57874 0.0
H1522 H 0.81912 0.65616 0.57473 0.0
H1523 H 0.73744 0.60868 0.52562 0.0
H1524 H 0.73995 0.61169 0.48727 0.0
H1525 H 0.74014 0.63008 0.51047 0.0
C1526 C 0.38998 0.1166 0.57749 0.0
C1527 C 0.37339 0.09912 0.5814 0.0
C1528 C 0.39026 0.12949 0.55729 0.0
C1529 C 0.37366 0.1246 0.54037 0.0
C1530 C 0.35671 0.10738 0.54524 0.0
C1531 C 0.35678 0.09494 0.56572 0.0
C1532 C 0.40851 0.14787 0.55314 0.0
C1533 C 0.33866 0.10149 0.52762 0.0
C1534 C 0.36303 0.1558 0.49267 0.0
C1535 C 0.36442 0.14891 0.46531 0.0
C1536 C 0.3679 0.14953 0.51782 0.0
C1537 C 0.37414 0.13601 0.51529 0.0
C1538 C 0.37744 0.1307 0.4876 0.0
C1539 C 0.37257 0.13726 0.46295 0.0
C1540 C 0.36465 0.15593 0.54693 0.0
C1541 C 0.38414 0.11641 0.48378 0.0
H1542 H 0.40286 0.12 0.58966 0.0
H1543 H 0.34391 0.08147 0.56848 0.0
H1544 H 0.41481 0.14647 0.53295 0.0
H1545 H 0.40591 0.16005 0.55095 0.0
H1546 H 0.41895 0.15131 0.57139 0.0
H1547 H 0.32646 0.08822 0.53524 0.0
H1548 H 0.33516 0.11313 0.52857 0.0
H1549 H 0.34061 0.09895 0.50462 0.0
H1550 H 0.35671 0.16482 0.49447 0.0
H1551 H 0.37376 0.13206 0.44171 0.0
H1552 H 0.37604 0.15837 0.56296 0.0
H1553 H 0.35108 0.14454 0.55493 0.0
H1554 H 0.3639 0.16929 0.5457 0.0
H1555 H 0.39627 0.12001 0.49896 0.0
H1556 H 0.38843 0.11582 0.46138 0.0
H1557 H 0.37255 0.10191 0.48867 0.0
C1558 C 0.89623 0.26257 0.60186 0.0
C1559 C 0.90862 0.26103 0.6216 0.0
C1560 C 0.88976 0.25107 0.57621 0.0
C1561 C 0.89531 0.23725 0.5707 0.0
C1562 C 0.90745 0.23532 0.59097 0.0
C1563 C 0.91424 0.24749 0.61595 0.0
C1564 C 0.87722 0.2539 0.55481 0.0
C1565 C 0.91304 0.22022 0.58645 0.0
C1566 C 0.86519 0.19822 0.51331 0.0
C1567 C 0.87651 0.20469 0.48922 0.0
C1568 C 0.87143 0.2082 0.54033 0.0
C1569 C 0.8891 0.22546 0.54309 0.0
C1570 C 0.9007 0.23188 0.51907 0.0
C1571 C 0.89449 0.2212 0.49274 0.0
C1572 C 0.85884 0.20048 0.56562 0.0
C1573 C 0.9195 0.25036 0.5209 0.0
H1574 H 0.89187 0.27304 0.60625 0.0
H1575 H 0.92355 0.24605 0.6315 0.0
H1576 H 0.88381 0.25731 0.5335 0.0
H1577 H 0.86341 0.24046 0.55163 0.0
H1578 H 0.87463 0.26562 0.56197 0.0
H1579 H 0.92173 0.21989 0.60501 0.0
H1580 H 0.90018 0.20587 0.58323 0.0
H1581 H 0.9212 0.22292 0.56665 0.0
H1582 H 0.85126 0.18556 0.51099 0.0
H1583 H 0.90376 0.226 0.47477 0.0
H1584 H 0.85102 0.20833 0.56853 0.0
H1585 H 0.86723 0.2025 0.58594 0.0
H1586 H 0.84835 0.18499 0.56206 0.0
H1587 H 0.91738 0.26249 0.52742 0.0
H1588 H 0.92666 0.25355 0.50003 0.0
H1589 H 0.92902 0.24963 0.53765 0.0
C1590 C 0.34527 0.24061 0.62054 0.0
C1591 C 0.33529 0.25057 0.62285 0.0
C1592 C 0.34525 0.23144 0.59439 0.0
C1593 C 0.33519 0.23242 0.56984 0.0
C1594 C 0.32438 0.24167 0.57234 0.0
C1595 C 0.32447 0.25056 0.59889 0.0
C1596 C 0.35675 0.22151 0.59269 0.0
C1597 C 0.31352 0.24308 0.54657 0.0
C1598 C 0.35376 0.23403 0.49549 0.0
C1599 C 0.34045 0.21603 0.48319 0.0
C1600 C 0.35263 0.23919 0.52411 0.0
C1601 C 0.33784 0.22596 0.54087 0.0
C1602 C 0.32508 0.20726 0.52913 0.0
C1603 C 0.32652 0.2025 0.50022 0.0
C1604 C 0.36661 0.25923 0.53579 0.0
C1605 C 0.30931 0.19271 0.5465 0.0
H1606 H 0.35342 0.24025 0.63909 0.0
H1607 H 0.31667 0.25813 0.60053 0.0
H1608 H 0.34836 0.20716 0.58158 0.0
H1609 H 0.36933 0.23002 0.57981 0.0
H1610 H 0.36165 0.2198 0.61441 0.0
H1611 H 0.30454 0.24926 0.55262 0.0
H1612 H 0.32358 0.25229 0.53048 0.0
H1613 H 0.30439 0.22871 0.53587 0.0
H1614 H 0.36448 0.24446 0.48211 0.0
H1615 H 0.31615 0.18865 0.49048 0.0
H1616 H 0.37328 0.25868 0.55662 0.0
H1617 H 0.35911 0.26728 0.54002 0.0
H1618 H 0.37793 0.26732 0.52055 0.0
H1619 H 0.31472 0.19205 0.56839 0.0
H1620 H 0.30231 0.17815 0.53579 0.0
H1621 H 0.29853 0.19708 0.54928 0.0
C1622 C 0.75419 0.101 0.61944 0.0
C1623 C 0.76018 0.08796 0.62637 0.0
C1624 C 0.76218 0.11347 0.59683 0.0
C1625 C 0.77647 0.11287 0.58109 0.0
C1626 C 0.7844 0.1018 0.59084 0.0
C1627 C 0.77602 0.08929 0.61325 0.0
C1628 C 0.75375 0.12552 0.58762 0.0
C1629 C 0.80025 0.10142 0.57537 0.0
C1630 C 0.77267 0.10998 0.49983 0.0
C1631 C 0.78796 0.12767 0.49258 0.0
C1632 C 0.76812 0.10568 0.52852 0.0
C1633 C 0.77941 0.11919 0.55092 0.0
C1634 C 0.79422 0.13749 0.54398 0.0
C1635 C 0.7983 0.14156 0.51481 0.0
C1636 C 0.75192 0.08604 0.53481 0.0
C1637 C 0.80656 0.15241 0.5671 0.0
H1638 H 0.74219 0.10036 0.62993 0.0
H1639 H 0.78106 0.07964 0.61901 0.0
H1640 H 0.76488 0.1397 0.58068 0.0
H1641 H 0.74365 0.11816 0.56892 0.0
H1642 H 0.74601 0.12774 0.6053 0.0
H1643 H 0.80708 0.09506 0.58857 0.0
H1644 H 0.79452 0.0927 0.55482 0.0
H1645 H 0.81113 0.11612 0.56995 0.0
H1646 H 0.7648 0.09883 0.48324 0.0
H1647 H 0.81002 0.15537 0.50955 0.0
H1648 H 0.74228 0.08734 0.54994 0.0
H1649 H 0.75752 0.07755 0.54525 0.0
H1650 H 0.74353 0.07793 0.51492 0.0
H1651 H 0.79889 0.15106 0.58712 0.0
H1652 H 0.81209 0.16711 0.5593 0.0
H1653 H 0.81883 0.15058 0.57265 0.0
C1654 C 0.90435 0.67418 0.65229 0.0
C1655 C 0.92302 0.67804 0.65629 0.0
C1656 C 0.89743 0.67598 0.62523 0.0
C1657 C 0.9093 0.68117 0.60144 0.0
C1658 C 0.92828 0.68542 0.60551 0.0
C1659 C 0.935 0.68409 0.63305 0.0
C1660 C 0.87732 0.67194 0.62195 0.0
C1661 C 0.94124 0.69058 0.58054 0.0
C1662 C 0.88703 0.66372 0.526 0.0
C1663 C 0.89019 0.68078 0.51405 0.0
C1664 C 0.8928 0.66358 0.55469 0.0
C1665 C 0.90155 0.68087 0.57192 0.0
C1666 C 0.90379 0.69795 0.56033 0.0
C1667 C 0.89837 0.69777 0.53125 0.0
C1668 C 0.89049 0.64515 0.56601 0.0
C1669 C 0.91254 0.71652 0.57829 0.0
H1670 H 0.89514 0.66973 0.67037 0.0
H1671 H 0.94941 0.687 0.63612 0.0
H1672 H 0.87693 0.68385 0.61108 0.0
H1673 H 0.86876 0.65872 0.60813 0.0
H1674 H 0.87061 0.67 0.64309 0.0
H1675 H 0.95573 0.69395 0.58747 0.0
H1676 H 0.93537 0.67845 0.5642 0.0
H1677 H 0.9422 0.70314 0.56977 0.0
H1678 H 0.88099 0.6507 0.51234 0.0
H1679 H 0.90095 0.71097 0.52172 0.0
H1680 H 0.8826 0.64161 0.58616 0.0
H1681 H 0.90461 0.64695 0.5714 0.0
H1682 H 0.8829 0.63285 0.55009 0.0
H1683 H 0.90579 0.71423 0.59942 0.0
H1684 H 0.91119 0.72787 0.56722 0.0
H1685 H 0.92777 0.72173 0.58281 0.0
C1686 C 0.91985 0.70405 0.77977 0.0
C1687 C 0.92556 0.69034 0.78174 0.0
C1688 C 0.90563 0.70326 0.79723 0.0
C1689 C 0.89747 0.68877 0.81758 0.0
C1690 C 0.90328 0.67493 0.81949 0.0
C1691 C 0.91699 0.67572 0.80124 0.0
C1692 C 0.89919 0.71769 0.79362 0.0
C1693 C 0.89535 0.65946 0.84134 0.0
C1694 C 0.87778 0.69083 0.88881 0.0
C1695 C 0.85951 0.6749 0.88485 0.0
C1696 C 0.89 0.69735 0.86583 0.0
C1697 C 0.88348 0.68812 0.83813 0.0
C1698 C 0.86407 0.67447 0.83306 0.0
C1699 C 0.8523 0.66778 0.85662 0.0
C1700 C 0.91053 0.71207 0.87232 0.0
C1701 C 0.85631 0.66507 0.80348 0.0
H1702 H 0.92633 0.71523 0.76439 0.0
H1703 H 0.92147 0.66518 0.80291 0.0
H1704 H 0.88459 0.71031 0.78386 0.0
H1705 H 0.89878 0.72414 0.81485 0.0
H1706 H 0.90845 0.72936 0.77945 0.0
H1707 H 0.902 0.65034 0.84076 0.0
H1708 H 0.89758 0.66603 0.86349 0.0
H1709 H 0.8799 0.65008 0.83711 0.0
H1710 H 0.88321 0.69682 0.91049 0.0
H1711 H 0.83811 0.65566 0.85316 0.0
H1712 H 0.91639 0.72215 0.85461 0.0
H1713 H 0.91881 0.70463 0.87434 0.0
H1714 H 0.91254 0.72043 0.89287 0.0
H1715 H 0.86299 0.67548 0.78635 0.0
H1716 H 0.84074 0.65885 0.80144 0.0
H1717 H 0.85944 0.65329 0.79981 0.0
C1718 C 0.33559 0.24122 0.74214 0.0
C1719 C 0.32003 0.24398 0.74368 0.0
C1720 C 0.33907 0.23099 0.76307 0.0
C1721 C 0.32685 0.22368 0.78631 0.0
C1722 C 0.31011 0.22485 0.78633 0.0
C1723 C 0.30681 0.2349 0.76478 0.0
C1724 C 0.35679 0.22961 0.76176 0.0
C1725 C 0.29672 0.21727 0.81071 0.0
C1726 C 0.3355 0.1959 0.84441 0.0
C1727 C 0.34635 0.21068 0.86513 0.0
C1728 C 0.32911 0.19979 0.81831 0.0
C1729 C 0.33361 0.21884 0.81313 0.0
C1730 C 0.3449 0.2338 0.83378 0.0
C1731 C 0.35129 0.22956 0.85925 0.0
C1732 C 0.31738 0.18356 0.79654 0.0
C1733 C 0.35019 0.25438 0.82915 0.0
H1734 H 0.34545 0.24765 0.72519 0.0
H1735 H 0.29469 0.23693 0.7658 0.0
H1736 H 0.36772 0.24037 0.77736 0.0
H1737 H 0.35402 0.21524 0.76787 0.0
H1738 H 0.36261 0.23243 0.73986 0.0
H1739 H 0.28297 0.21633 0.80516 0.0
H1740 H 0.29409 0.20289 0.81644 0.0
H1741 H 0.30319 0.22702 0.83017 0.0
H1742 H 0.33175 0.1813 0.84882 0.0
H1743 H 0.3602 0.24116 0.87473 0.0
H1744 H 0.32312 0.18734 0.77473 0.0
H1745 H 0.30272 0.18101 0.79518 0.0
H1746 H 0.31686 0.17002 0.80237 0.0
H1747 H 0.35849 0.25946 0.80949 0.0
H1748 H 0.35869 0.2642 0.84774 0.0
H1749 H 0.33724 0.25539 0.82573 0.0
C1750 C 0.76136 0.07548 0.7636 0.0
C1751 C 0.77147 0.06958 0.74617 0.0
C1752 C 0.76932 0.08586 0.7899 0.0
C1753 C 0.78774 0.09023 0.79922 0.0
C1754 C 0.79783 0.08387 0.78217 0.0
C1755 C 0.78962 0.07372 0.75576 0.0
C1756 C 0.75813 0.09246 0.80744 0.0
C1757 C 0.81734 0.08794 0.79169 0.0
C1758 C 0.81216 0.13214 0.85419 0.0
C1759 C 0.80709 0.12262 0.8801 0.0
C1760 C 0.80673 0.12173 0.82749 0.0
C1761 C 0.79626 0.1014 0.82696 0.0
C1762 C 0.79237 0.0918 0.85322 0.0
C1763 C 0.7977 0.10255 0.8795 0.0
C1764 C 0.81107 0.13249 0.79995 0.0
C1765 C 0.78156 0.07017 0.85361 0.0
H1766 H 0.7474 0.07248 0.75632 0.0
H1767 H 0.79752 0.06916 0.74251 0.0
H1768 H 0.75603 0.08653 0.82925 0.0
H1769 H 0.7661 0.10833 0.81042 0.0
H1770 H 0.74405 0.08801 0.79706 0.0
H1771 H 0.82304 0.08142 0.77644 0.0
H1772 H 0.82721 0.10366 0.79348 0.0
H1773 H 0.81701 0.08234 0.81343 0.0
H1774 H 0.8193 0.14768 0.85478 0.0
H1775 H 0.79382 0.09526 0.89968 0.0
H1776 H 0.79769 0.12983 0.78899 0.0
H1777 H 0.818 0.12725 0.78488 0.0
H1778 H 0.82037 0.1482 0.80401 0.0
H1779 H 0.76661 0.06472 0.84648 0.0
H1780 H 0.78183 0.06499 0.87551 0.0
H1781 H 0.78749 0.06393 0.83833 0.0
C1782 C 0.08565 0.36889 -0.00191 0.0
C1783 C 0.07522 0.37247 0.0185 0.0
C1784 C 0.09773 0.36198 0.00638 0.0
C1785 C 0.09944 0.35853 0.03579 0.0
C1786 C 0.08957 0.36285 0.05665 0.0
C1787 C 0.07759 0.36977 0.04777 0.0
C1788 C 0.10803 0.35762 0.9835 0.0
C1789 C 0.09104 0.35942 0.08826 0.0
C1790 C 0.10915 0.31907 0.05691 0.0
C1791 C 0.12782 0.32952 0.06821 0.0
C1792 C 0.10008 0.32833 0.04505 0.0
C1793 C 0.10993 0.34859 0.04447 0.0
C1794 C 0.12922 0.35916 0.05415 0.0
C1795 C 0.13797 0.34945 0.06597 0.0
C1796 C 0.07957 0.31646 0.03481 0.0
C1797 C 0.14024 0.38075 0.05365 0.0
H1798 H 0.08405 0.37105 0.97543 0.0
H1799 H 0.06972 0.3726 0.06373 0.0
H1800 H 0.12322 0.36409 0.99003 0.0
H1801 H 0.10209 0.34188 0.98103 0.0
H1802 H 0.10683 0.363 0.96216 0.0
H1803 H 0.08367 0.3649 0.10201 0.0
H1804 H 0.08473 0.34381 0.09127 0.0
H1805 H 0.10609 0.36644 0.09591 0.0
H1806 H 0.10132 0.30363 0.05871 0.0
H1807 H 0.15234 0.35753 0.07501 0.0
H1808 H 0.07752 0.32025 0.0127 0.0
H1809 H 0.07071 0.31957 0.04923 0.0
H1810 H 0.07442 0.30082 0.03467 0.0
H1811 H 0.13823 0.38559 0.03233 0.0
H1812 H 0.1556 0.3866 0.05829 0.0
H1813 H 0.13493 0.3869 0.07015 0.0
C1814 C 0.60065 0.69181 0.00515 0.0
C1815 C 0.61269 0.68492 0.01373 0.0
C1816 C 0.6069 0.71156 0.00654 0.0
C1817 C 0.62543 0.72465 0.01758 0.0
C1818 C 0.63801 0.71787 0.0244 0.0
C1819 C 0.63156 0.69812 0.02203 0.0
C1820 C 0.59327 0.71823 -0.00205 0.0
C1821 C 0.65784 0.73128 0.03653 0.0
C1822 C 0.65057 0.77913 0.01962 0.0
C1823 C 0.64841 0.78304 0.0485 0.0
C1824 C 0.64176 0.7601 0.00817 0.0
C1825 C 0.63088 0.74478 0.02624 0.0
C1826 C 0.62727 0.74887 0.05452 0.0
C1827 C 0.63588 0.76794 0.06513 0.0
C1828 C 0.64536 0.7564 0.97754 0.0
C1829 C 0.61581 0.73307 0.07466 0.0
H1830 H 0.5861 0.6817 -0.00164 0.0
H1831 H 0.64095 0.69294 0.02873 0.0
H1832 H 0.5876 0.72128 0.01764 0.0
H1833 H 0.60052 0.73169 0.98612 0.0
H1834 H 0.58117 0.70721 0.98419 0.0
H1835 H 0.66628 0.724 0.03871 0.0
H1836 H 0.66532 0.7436 0.0225 0.0
H1837 H 0.65722 0.73712 0.05819 0.0
H1838 H 0.66025 0.79075 0.00667 0.0
H1839 H 0.63403 0.77099 0.08737 0.0
H1840 H 0.63245 0.74429 0.9668 0.0
H1841 H 0.65656 0.75245 0.97775 0.0
H1842 H 0.65013 0.7693 0.96455 0.0
H1843 H 0.60201 0.72248 0.06407 0.0
H1844 H 0.61315 0.73865 0.09513 0.0
H1845 H 0.62348 0.72535 0.08004 0.0
C1846 C 0.28982 0.93225 0.96145 0.0
C1847 C 0.30633 0.94301 0.979 0.0
C1848 C 0.27277 0.91895 0.97334 0.0
C1849 C 0.27226 0.91636 0.00345 0.0
C1850 C 0.28882 0.92731 0.0213 0.0
C1851 C 0.30565 0.94051 0.00886 0.0
C1852 C 0.25537 0.90754 0.95369 0.0
C1853 C 0.28882 0.92497 0.05356 0.0
C1854 C 0.22729 0.89503 0.04468 0.0
C1855 C 0.2246 0.87682 0.05017 0.0
C1856 C 0.24214 0.90772 0.02797 0.0
C1857 C 0.25456 0.90203 0.01654 0.0
C1858 C 0.2511 0.88318 0.02031 0.0
C1859 C 0.23614 0.87078 0.03711 0.0
C1860 C 0.24525 0.92764 0.0242 0.0
C1861 C 0.26399 0.87655 0.00834 0.0
H1862 H 0.29022 0.93412 0.93834 0.0
H1863 H 0.31832 0.94877 0.02257 0.0
H1864 H 0.25044 0.89201 0.95473 0.0
H1865 H 0.24373 0.90971 0.96101 0.0
H1866 H 0.25801 0.91161 0.93083 0.0
H1867 H 0.30283 0.93475 0.06443 0.0
H1868 H 0.27816 0.92783 0.06328 0.0
H1869 H 0.28481 0.90997 0.05806 0.0
H1870 H 0.21824 0.89965 0.05452 0.0
H1871 H 0.23425 0.8568 0.04153 0.0
H1872 H 0.24767 0.93148 0.00126 0.0
H1873 H 0.25808 0.9382 0.03712 0.0
H1874 H 0.23308 0.92901 0.0313 0.0
H1875 H 0.26652 0.88002 0.98528 0.0
H1876 H 0.25811 0.86088 0.01019 0.0
H1877 H 0.27791 0.8842 0.02034 0.0
C1878 C 0.37565 0.05822 0.94916 0.0
C1879 C 0.36936 0.04369 0.96897 0.0
C1880 C 0.36954 0.07161 0.94973 0.0
C1881 C 0.35733 0.07096 0.97145 0.0
C1882 C 0.35124 0.05655 0.99205 0.0
C1883 C 0.357 0.04276 0.99013 0.0
C1884 C 0.37606 0.08633 0.9267 0.0
C1885 C 0.33854 0.05541 0.01591 0.0
C1886 C 0.36326 0.11977 0.96969 0.0
C1887 C 0.3496 0.1164 0.94783 0.0
C1888 C 0.36397 0.1044 0.98199 0.0
C1889 C 0.35112 0.08546 0.97146 0.0
C1890 C 0.33534 0.08198 0.9536 0.0
C1891 C 0.33459 0.09759 0.94234 0.0
C1892 C 0.38014 0.10856 0.0029 0.0
C1893 C 0.32087 0.06196 0.94276 0.0
H1894 H 0.38501 0.0588 0.93253 0.0
H1895 H 0.35211 0.03148 0.00548 0.0
H1896 H 0.3637 0.08587 0.91537 0.0
H1897 H 0.38489 0.10094 0.93681 0.0
H1898 H 0.38449 0.08401 0.91033 0.0
H1899 H 0.34139 0.0494 0.03547 0.0
H1900 H 0.34024 0.06962 0.02197 0.0
H1901 H 0.3236 0.04563 0.00859 0.0
H1902 H 0.37471 0.13425 0.97475 0.0
H1903 H 0.32352 0.09494 0.92637 0.0
H1904 H 0.39179 0.10875 0.99084 0.0
H1905 H 0.37564 0.09728 0.01899 0.0
H1906 H 0.38572 0.12274 0.01444 0.0
H1907 H 0.32712 0.05702 0.92596 0.0
H1908 H 0.30799 0.06137 0.93311 0.0
H1909 H 0.31672 0.05188 0.96055 0.0
C1910 C 0.96195 0.32332 0.95994 0.0
C1911 C 0.98016 0.33119 0.97292 0.0
C1912 C 0.94861 0.30382 0.96143 0.0
C1913 C 0.95332 0.29174 0.9769 0.0
C1914 C 0.97136 0.29969 0.99126 0.0
C1915 C 0.9847 0.31929 0.98874 0.0
C1916 C 0.92969 0.29601 0.94532 0.0
C1917 C 0.97679 0.28746 0.00859 0.0
C1918 C 0.90799 0.24493 0.98557 0.0
C1919 C 0.90752 0.23483 0.9602 0.0
C1920 C 0.92403 0.26276 0.99357 0.0
C1921 C 0.93968 0.27066 0.97546 0.0
C1922 C 0.94003 0.25937 0.9518 0.0
C1923 C 0.924 0.24152 0.94464 0.0
C1924 C 0.92342 0.27399 0.01966 0.0
C1925 C 0.95631 0.26708 0.93183 0.0
H1926 H 0.95825 0.3323 0.94757 0.0
H1927 H 0.99868 0.32525 -0.00098 0.0
H1928 H 0.92788 0.28504 0.92858 0.0
H1929 H 0.91805 0.28892 0.96039 0.0
H1930 H 0.9282 0.30737 0.93456 0.0
H1931 H 0.9891 0.29632 0.02374 0.0
H1932 H 0.96478 0.2771 0.02111 0.0
H1933 H 0.98066 0.27909 0.99372 0.0
H1934 H 0.89531 0.23975 0.99774 0.0
H1935 H 0.92372 0.23356 0.92519 0.0
H1936 H 0.91963 0.28474 0.01259 0.0
H1937 H 0.93746 0.28185 0.03128 0.0
H1938 H 0.91273 0.26452 0.03486 0.0
H1939 H 0.95588 0.27807 0.9184 0.0
H1940 H 0.95569 0.25562 0.91717 0.0
H1941 H 0.97003 0.27408 0.94432 0.0
C1942 C 0.67322 0.63637 0.99267 0.0
C1943 C 0.67182 0.64079 0.02166 0.0
C1944 C 0.68997 0.63785 0.98276 0.0
C1945 C 0.70579 0.64399 0.00224 0.0
C1946 C 0.70454 0.64861 0.03148 0.0
C1947 C 0.68757 0.64692 0.04085 0.0
C1948 C 0.69072 0.63275 0.95139 0.0
C1949 C 0.72113 0.65535 0.05283 0.0
C1950 C 0.74156 0.6304 0.97687 0.0
C1951 C 0.75402 0.6468 0.96247 0.0
C1952 C 0.72633 0.62964 0.99143 0.0
C1953 C 0.72363 0.6457 0.99168 0.0
C1954 C 0.73709 0.6628 0.97915 0.0
C1955 C 0.75208 0.66312 0.9646 0.0
C1956 C 0.71234 0.61115 0.00458 0.0
C1957 C 0.73492 0.68035 0.97929 0.0
H1958 H 0.66114 0.63159 0.9777 0.0
H1959 H 0.68666 0.6504 0.0633 0.0
H1960 H 0.70208 0.64533 0.94095 0.0
H1961 H 0.69417 0.62109 0.94979 0.0
H1962 H 0.67715 0.62803 0.9391 0.0
H1963 H 0.71789 0.65844 0.07481 0.0
H1964 H 0.72536 0.64428 0.05422 0.0
H1965 H 0.73346 0.66852 0.04535 0.0
H1966 H 0.7429 0.6177 0.97497 0.0
H1967 H 0.76175 0.67582 0.9535 0.0
H1968 H 0.69889 0.60429 0.99134 0.0
H1969 H 0.70911 0.61398 0.02667 0.0
H1970 H 0.71763 0.60087 0.00571 0.0
H1971 H 0.72277 0.67755 0.96465 0.0
H1972 H 0.74777 0.69315 0.97199 0.0
H1973 H 0.7319 0.68363 0.00126 0.0
C1974 C 0.93554 0.62472 0.98652 0.0
C1975 C 0.93666 0.6197 0.01497 0.0
C1976 C 0.92089 0.62793 0.97713 0.0
C1977 C 0.90705 0.62612 0.99666 0.0
C1978 C 0.90798 0.62082 0.02525 0.0
C1979 C 0.92273 0.61767 0.03403 0.0
C1980 C 0.92034 0.63352 0.94642 0.0
C1981 C 0.89357 0.6188 0.04676 0.0
C1982 C 0.8818 0.65374 0.97979 0.0
C1983 C 0.86484 0.63948 0.96612 0.0
C1984 C 0.89541 0.64947 0.99055 0.0
C1985 C 0.89202 0.63046 0.98749 0.0
C1986 C 0.87453 0.61582 0.97493 0.0
C1987 C 0.86112 0.6205 0.96444 0.0
C1988 C 0.91374 0.66546 0.00411 0.0
C1989 C 0.87037 0.59538 0.97135 0.0
H1990 H 0.9462 0.62629 0.97165 0.0
H1991 H 0.9234 0.61377 0.05606 0.0
H1992 H 0.90649 0.62338 0.93549 0.0
H1993 H 0.92186 0.64799 0.94641 0.0
H1994 H 0.93174 0.63368 0.93365 0.0
H1995 H 0.89592 0.61396 0.06791 0.0
H1996 H 0.89418 0.63276 0.05038 0.0
H1997 H 0.87911 0.60837 0.03808 0.0
H1998 H 0.88469 0.66843 0.9811 0.0
H1999 H 0.84816 0.6095 0.95349 0.0
H2000 H 0.92565 0.66772 0.99062 0.0
H2001 H 0.91646 0.66156 0.02578 0.0
H2002 H 0.91371 0.6792 0.00641 0.0
H2003 H 0.88023 0.59465 0.95603 0.0
H2004 H 0.85564 0.58546 0.96303 0.0
H2005 H 0.87266 0.59031 0.99228 0.0
C2006 C 0.38524 0.31657 0.02424 0.0
C2007 C 0.39207 0.32751 -0.00021 0.0
C2008 C 0.3795 0.29689 0.02305 0.0
C2009 C 0.38002 0.28799 0.99653 0.0
C2010 C 0.38655 0.29905 0.97171 0.0
C2011 C 0.39282 0.31871 0.97384 0.0
C2012 C 0.37342 0.28581 0.05023 0.0
C2013 C 0.38679 0.29013 0.94271 0.0
C2014 C 0.38235 0.2433 0.98005 0.0
C2015 C 0.36413 0.23124 0.9677 0.0
C2016 C 0.38715 0.26109 0.9935 0.0
C2017 C 0.37358 0.26712 0.99381 0.0
C2018 C 0.35459 0.25394 0.98493 0.0
C2019 C 0.35002 0.23597 0.97256 0.0
C2020 C 0.40733 0.27431 0.00421 0.0
C2021 C 0.3396 0.25965 0.98474 0.0
H2022 H 0.38485 0.32351 0.04438 0.0
H2023 H 0.39796 0.3272 0.9549 0.0
H2024 H 0.35995 0.27211 0.0462 0.0
H2025 H 0.38426 0.28215 0.05728 0.0
H2026 H 0.37165 0.29415 0.06813 0.0
H2027 H 0.39116 0.30051 0.92523 0.0
H2028 H 0.39673 0.28455 0.94395 0.0
H2029 H 0.37254 0.27783 0.93665 0.0
H2030 H 0.39338 0.23979 0.97682 0.0
H2031 H 0.33573 0.22642 0.96399 0.0
H2032 H 0.40791 0.2827 0.02398 0.0
H2033 H 0.41506 0.28461 0.98737 0.0
H2034 H 0.41474 0.26624 0.00897 0.0
H2035 H 0.34073 0.2681 0.00472 0.0
H2036 H 0.32513 0.24696 0.98251 0.0
H2037 H 0.3416 0.26883 0.96617 0.0
C2038 C 0.69378 0.09641 0.02597 0.0
C2039 C 0.68379 0.07675 0.01808 0.0
C2040 C 0.71172 0.10861 0.0154 0.0
C2041 C 0.71997 0.10092 0.99678 0.0
C2042 C 0.70983 0.08114 0.98836 0.0
C2043 C 0.69182 0.06933 -0.00105 0.0
C2044 C 0.72194 0.12965 0.02447 0.0
C2045 C 0.71817 0.07236 0.96865 0.0
C2046 C 0.75959 0.13134 0.94764 0.0
C2047 C 0.77533 0.13258 0.96255 0.0
C2048 C 0.74163 0.12198 0.95926 0.0
C2049 C 0.73931 0.11339 0.98625 0.0
C2050 C 0.75536 0.11548 0.00208 0.0
C2051 C 0.77323 0.12518 0.99009 0.0
C2052 C 0.72498 0.12039 0.94192 0.0
C2053 C 0.75348 0.10644 0.03084 0.0
H2054 H 0.68765 0.10229 0.04065 0.0
H2055 H 0.68426 0.05416 0.99284 0.0
H2056 H 0.73523 0.13346 0.03688 0.0
H2057 H 0.72591 0.13847 0.00512 0.0
H2058 H 0.71325 0.13355 0.03804 0.0
H2059 H 0.70844 0.05677 0.96406 0.0
H2060 H 0.72161 0.07964 0.94785 0.0
H2061 H 0.73158 0.07442 0.97866 0.0
H2062 H 0.76125 0.13709 0.92632 0.0
H2063 H 0.78536 0.12592 0.00145 0.0
H2064 H 0.71644 0.12435 0.95571 0.0
H2065 H 0.71567 0.10532 0.93387 0.0
H2066 H 0.72945 0.1297 0.92308 0.0
H2067 H 0.74544 0.11049 0.04558 0.0
H2068 H 0.76745 0.11073 0.04149 0.0
H2069 H 0.74544 0.09059 0.02761 0.0
C2070 C 0.64577 0.97315 0.01486 0.0
C2071 C 0.63343 0.97024 0.03717 0.0
C2072 C 0.65318 0.96085 0.01047 0.0
C2073 C 0.64874 0.94587 0.02961 0.0
C2074 C 0.63616 0.94287 0.05199 0.0
C2075 C 0.62846 0.95487 0.05515 0.0
C2076 C 0.66603 0.96423 0.9858 0.0
C2077 C 0.63135 0.92741 0.07344 0.0
C2078 C 0.65421 0.90211 0.02439 0.0
C2079 C 0.66954 0.9078 0.04408 0.0
C2080 C 0.64857 0.91527 0.01616 0.0
C2081 C 0.65827 0.93424 0.02854 0.0
C2082 C 0.67513 0.9405 0.04554 0.0
C2083 C 0.68065 0.92721 0.05285 0.0
C2084 C 0.63112 0.90835 0.9967 0.0
C2085 C 0.68598 0.96053 0.05921 0.0
H2086 H 0.64952 0.98494 0.00073 0.0
H2087 H 0.61902 0.95262 0.07253 0.0
H2088 H 0.68097 0.97306 0.99384 0.0
H2089 H 0.66407 0.95052 0.97637 0.0
H2090 H 0.66352 0.97207 0.96845 0.0
H2091 H 0.62146 0.9271 0.08971 0.0
H2092 H 0.62479 0.91314 0.06198 0.0
H2093 H 0.64445 0.92976 0.08503 0.0
H2094 H 0.64568 0.88711 0.01745 0.0
H2095 H 0.69265 0.9316 0.06787 0.0
H2096 H 0.63282 0.91963 0.98182 0.0
H2097 H 0.61884 0.90499 0.01004 0.0
H2098 H 0.6279 0.89518 0.98377 0.0
H2099 H 0.68817 0.97133 0.04315 0.0
H2100 H 0.69998 0.96385 0.06863 0.0
H2101 H 0.6777 0.96199 0.07674 0.0
C2102 C 0.05451 0.68273 0.05777 0.0
C2103 C 0.04161 0.67321 0.03442 0.0
C2104 C 0.06724 0.70247 0.05799 0.0
C2105 C 0.06753 0.71302 0.03379 0.0
C2106 C 0.05444 0.70353 0.0101 0.0
C2107 C 0.04141 0.6837 0.01086 0.0
C2108 C 0.08051 0.71198 0.08418 0.0
C2109 C 0.05463 0.71407 0.98357 0.0
C2110 C 0.09299 0.76501 0.0584 0.0
C2111 C 0.11181 0.76922 0.05666 0.0
C2112 C 0.07795 0.74733 0.04759 0.0
C2113 C 0.0819 0.73386 0.03402 0.0
C2114 C 0.1008 0.73952 0.02766 0.0
C2115 C 0.1156 0.7571 0.03931 0.0
C2116 C 0.05804 0.74211 0.05448 0.0
C2117 C 0.10558 0.72596 0.01195 0.0
H2118 H 0.05453 0.67467 0.07614 0.0
H2119 H 0.03153 0.67629 0.99267 0.0
H2120 H 0.09534 0.71765 0.07803 0.0
H2121 H 0.07925 0.72428 0.09268 0.0
H2122 H 0.07762 0.70194 0.10185 0.0
H2123 H 0.04142 0.70585 0.96988 0.0
H2124 H 0.05656 0.72839 0.98948 0.0
H2125 H 0.06672 0.71637 0.9705 0.0
H2126 H 0.08997 0.7746 0.07103 0.0
H2127 H 0.13006 0.76026 0.03746 0.0
H2128 H 0.05385 0.73327 0.07382 0.0
H2129 H 0.0479 0.73351 0.0364 0.0
H2130 H 0.05689 0.75507 0.05923 0.0
H2131 H 0.10542 0.71552 0.02725 0.0
H2132 H 0.11985 0.73374 0.00294 0.0
H2133 H 0.09499 0.71777 0.99413 0.0
C2134 C 0.32744 0.36422 0.05373 0.0
C2135 C 0.33267 0.37285 0.02707 0.0
C2136 C 0.30991 0.35956 0.06496 0.0
C2137 C 0.29739 0.3637 0.0492 0.0
C2138 C 0.30269 0.37259 0.02246 0.0
C2139 C 0.32023 0.37702 0.01171 0.0
C2140 C 0.30471 0.35003 0.09355 0.0
C2141 C 0.28976 0.3773 0.0051 0.0
C2142 C 0.24544 0.33483 0.06572 0.0
C2143 C 0.24359 0.34737 0.08515 0.0
C2144 C 0.26278 0.34014 0.05332 0.0
C2145 C 0.27861 0.35844 0.0605 0.0
C2146 C 0.27662 0.37146 0.07915 0.0
C2147 C 0.25913 0.36575 0.09128 0.0
C2148 C 0.26434 0.32586 0.03349 0.0
C2149 C 0.29313 0.39118 0.08705 0.0
H2150 H 0.33696 0.36095 0.06571 0.0
H2151 H 0.32416 0.38375 0.99112 0.0
H2152 H 0.30169 0.3588 0.10902 0.0
H2153 H 0.29164 0.33583 0.09058 0.0
H2154 H 0.3161 0.34797 0.10327 0.0
H2155 H 0.29617 0.38461 0.98499 0.0
H2156 H 0.27627 0.36395 -0.00085 0.0
H2157 H 0.28623 0.38668 0.0183 0.0
H2158 H 0.23357 0.32049 0.06126 0.0
H2159 H 0.2577 0.37551 0.10618 0.0
H2160 H 0.27421 0.32178 0.04354 0.0
H2161 H 0.27023 0.3324 0.01273 0.0
H2162 H 0.25047 0.31264 0.02886 0.0
H2163 H 0.30425 0.38985 0.09926 0.0
H2164 H 0.28896 0.39997 0.10047 0.0
H2165 H 0.29949 0.39888 0.06722 0.0
C2166 C 0.75296 0.70685 0.3247 0.0
C2167 C 0.74683 0.71678 0.34268 0.0
C2168 C 0.76545 0.70101 0.33529 0.0
C2169 C 0.77167 0.7048 0.36476 0.0
C2170 C 0.76599 0.71533 0.38282 0.0
C2171 C 0.75379 0.72136 0.37148 0.0
C2172 C 0.77143 0.69015 0.31517 0.0
C2173 C 0.77202 0.71937 0.41448 0.0
C2174 C 0.78116 0.6688 0.40145 0.0
C2175 C 0.80092 0.67891 0.40574 0.0
C2176 C 0.7716 0.67701 0.38787 0.0
C2177 C 0.78205 0.6957 0.3775 0.0
C2178 C 0.8021 0.70559 0.38011 0.0
C2179 C 0.81134 0.69709 0.39437 0.0
C2180 C 0.75024 0.66591 0.38565 0.0
C2181 C 0.81372 0.72534 0.36869 0.0
H2182 H 0.74789 0.70351 0.30228 0.0
H2183 H 0.74916 0.72907 0.38546 0.0
H2184 H 0.78695 0.69616 0.31728 0.0
H2185 H 0.76463 0.67494 0.32108 0.0
H2186 H 0.76742 0.69057 0.29221 0.0
H2187 H 0.76761 0.72895 0.42508 0.0
H2188 H 0.76568 0.70568 0.42578 0.0
H2189 H 0.7876 0.7261 0.41727 0.0
H2190 H 0.77304 0.65455 0.40961 0.0
H2191 H 0.8266 0.70494 0.39759 0.0
H2192 H 0.74516 0.66414 0.36274 0.0
H2193 H 0.74458 0.67398 0.39748 0.0
H2194 H 0.74426 0.65147 0.39468 0.0
H2195 H 0.80924 0.7255 0.34593 0.0
H2196 H 0.82908 0.73028 0.36977 0.0
H2197 H 0.81136 0.73573 0.38149 0.0
C2198 C 0.29705 0.03024 0.35326 0.0
C2199 C 0.27785 0.01719 0.34684 0.0
C2200 C 0.30373 0.04999 0.3567 0.0
C2201 C 0.291 0.05696 0.35288 0.0
C2202 C 0.27202 0.04407 0.34355 0.0
C2203 C 0.26558 0.02429 0.34108 0.0
C2204 C 0.32405 0.06315 0.36694 0.0
C2205 C 0.25819 0.05098 0.33802 0.0
C2206 C 0.30367 0.09942 0.40393 0.0
C2207 C 0.31545 0.11487 0.38721 0.0
C2208 C 0.29463 0.08053 0.39242 0.0
C2209 C 0.29696 0.07697 0.36313 0.0
C2210 C 0.30708 0.09265 0.34527 0.0
C2211 C 0.3164 0.11148 0.35761 0.0
C2212 C 0.28402 0.06433 0.41239 0.0
C2213 C 0.30926 0.08954 0.31368 0.0
H2214 H 0.30665 0.02493 0.35775 0.0
H2215 H 0.25076 0.01433 0.33573 0.0
H2216 H 0.33088 0.07569 0.35314 0.0
H2217 H 0.32452 0.06868 0.38933 0.0
H2218 H 0.33246 0.05577 0.36676 0.0
H2219 H 0.24556 0.04024 0.32484 0.0
H2220 H 0.25336 0.05361 0.35893 0.0
H2221 H 0.26496 0.0647 0.32678 0.0
H2222 H 0.30262 0.10204 0.42671 0.0
H2223 H 0.32545 0.12336 0.34454 0.0
H2224 H 0.29167 0.0563 0.41522 0.0
H2225 H 0.26973 0.0541 0.40292 0.0
H2226 H 0.28249 0.06954 0.43404 0.0
H2227 H 0.32043 0.08566 0.31147 0.0
H2228 H 0.3134 0.10269 0.30157 0.0
H2229 H 0.29594 0.07759 0.30365 0.0
C2230 C 0.96172 0.26928 0.34364 0.0
C2231 C 0.96295 0.27376 0.31447 0.0
C2232 C 0.94429 0.25652 0.355 0.0
C2233 C 0.92769 0.24802 0.33673 0.0
C2234 C 0.92874 0.25286 0.30746 0.0
C2235 C 0.94638 0.26569 0.29666 0.0
C2236 C 0.94373 0.2518 0.38645 0.0
C2237 C 0.91134 0.24413 0.28741 0.0
C2238 C 0.89051 0.20138 0.36586 0.0
C2239 C 0.88048 0.20766 0.38271 0.0
C2240 C 0.905 0.21408 0.34864 0.0
C2241 C 0.9095 0.23348 0.34835 0.0
C2242 C 0.89807 0.23934 0.36284 0.0
C2243 C 0.88362 0.2263 0.37982 0.0
C2244 C 0.91669 0.20719 0.33316 0.0
C2245 C 0.90222 0.25981 0.36273 0.0
H2246 H 0.97443 0.27551 0.35755 0.0
H2247 H 0.94719 0.26911 0.27408 0.0
H2248 H 0.93356 0.25478 0.39763 0.0
H2249 H 0.93876 0.2363 0.38816 0.0
H2250 H 0.95778 0.26015 0.39795 0.0
H2251 H 0.91431 0.2505 0.26586 0.0
H2252 H 0.90571 0.22846 0.28442 0.0
H2253 H 0.90007 0.24607 0.29698 0.0
H2254 H 0.88823 0.18702 0.36809 0.0
H2255 H 0.87568 0.23111 0.39252 0.0
H2256 H 0.93057 0.21292 0.34497 0.0
H2257 H 0.91945 0.21252 0.31097 0.0
H2258 H 0.90967 0.19129 0.33181 0.0
H2259 H 0.91485 0.26896 0.37712 0.0
H2260 H 0.89022 0.26123 0.37052 0.0
H2261 H 0.90545 0.26541 0.34073 0.0
C2262 C 0.01992 0.36986 0.31846 0.0
C2263 C 0.03169 0.36952 0.29721 0.0
C2264 C 0.0157 0.38478 0.3203 0.0
C2265 C 0.02275 0.39911 0.29958 0.0
C2266 C 0.03448 0.39861 0.27792 0.0
C2267 C 0.03905 0.38405 0.27737 0.0
C2268 C 0.0035 0.38486 0.34414 0.0
C2269 C 0.042 0.41328 0.25484 0.0
C2270 C 0.00261 0.42806 0.27011 0.0
C2271 C 0.01821 0.4465 0.27582 0.0
C2272 C 0.00239 0.41196 0.28129 0.0
C2273 C 0.01783 0.41456 0.29923 0.0
C2274 C 0.03142 0.43326 0.30978 0.0
C2275 C 0.03162 0.44914 0.29762 0.0
C2276 C 0.98722 0.39226 0.27029 0.0
C2277 C 0.04732 0.43654 0.33065 0.0
H2278 H 0.01424 0.35863 0.33389 0.0
H2279 H 0.04798 0.3837 0.26072 0.0
H2280 H 0.00662 0.39958 0.35037 0.0
H2281 H 0.98842 0.3763 0.33668 0.0
H2282 H 0.00543 0.37815 0.36362 0.0
H2283 H 0.05009 0.41021 0.23872 0.0
H2284 H 0.03017 0.41367 0.2432 0.0
H2285 H 0.05146 0.42778 0.26493 0.0
H2286 H 0.99183 0.42605 0.25402 0.0
H2287 H 0.04353 0.46335 0.30271 0.0
H2288 H 0.98251 0.3821 0.28801 0.0
H2289 H 0.99305 0.38681 0.25354 0.0
H2290 H 0.97476 0.39246 0.26054 0.0
H2291 H 0.04225 0.42527 0.34682 0.0
H2292 H 0.05365 0.45084 0.34211 0.0
H2293 H 0.05855 0.43588 0.31859 0.0
C2294 C 0.64562 0.65666 0.32476 0.0
C2295 C 0.64503 0.66348 0.29744 0.0
C2296 C 0.63143 0.6383 0.33236 0.0
C2297 C 0.61674 0.6264 0.31181 0.0
C2298 C 0.6166 0.63308 0.28383 0.0
C2299 C 0.63053 0.65162 0.27722 0.0
C2300 C 0.63179 0.63194 0.36259 0.0
C2301 C 0.60159 0.62072 0.26084 0.0
C2302 C 0.58624 0.57254 0.30932 0.0
C2303 C 0.56836 0.57061 0.31226 0.0
C2304 C 0.6027 0.59062 0.31228 0.0
C2305 C 0.60116 0.60703 0.31896 0.0
C2306 C 0.58336 0.60464 0.3261 0.0
C2307 C 0.56708 0.58645 0.32218 0.0
C2308 C 0.62125 0.59238 0.30419 0.0
C2309 C 0.58115 0.62162 0.33437 0.0
H2310 H 0.65673 0.66595 0.3405 0.0
H2311 H 0.63015 0.65687 0.25604 0.0
H2312 H 0.61973 0.63112 0.37425 0.0
H2313 H 0.63008 0.61738 0.36205 0.0
H2314 H 0.64511 0.64196 0.37503 0.0
H2315 H 0.60426 0.62758 0.23966 0.0
H2316 H 0.60092 0.60667 0.25783 0.0
H2317 H 0.58753 0.61782 0.26769 0.0
H2318 H 0.58719 0.56032 0.30113 0.0
H2319 H 0.55323 0.58501 0.32408 0.0
H2320 H 0.63313 0.6033 0.31833 0.0
H2321 H 0.6241 0.59703 0.28163 0.0
H2322 H 0.62095 0.57848 0.30549 0.0
H2323 H 0.59315 0.63205 0.34886 0.0
H2324 H 0.56772 0.61715 0.34529 0.0
H2325 H 0.58106 0.62907 0.3146 0.0
C2326 C 0.35486 0.98202 0.36631 0.0
C2327 C 0.33868 0.97565 0.34797 0.0
C2328 C 0.37184 0.98442 0.35573 0.0
C2329 C 0.37271 0.98031 0.3261 0.0
C2330 C 0.35647 0.97399 0.30745 0.0
C2331 C 0.33969 0.97177 0.31859 0.0
C2332 C 0.38885 0.99126 0.37626 0.0
C2333 C 0.35679 0.96945 0.27569 0.0
C2334 C 0.41866 1.00078 0.28693 0.0
C2335 C 0.42091 0.98468 0.28368 0.0
C2336 C 0.40362 0.99991 0.30216 0.0
C2337 C 0.3905 0.98251 0.31438 0.0
C2338 C 0.39354 0.96667 0.31301 0.0
C2339 C 0.40875 0.96797 0.29772 0.0
C2340 C 0.40108 0.01722 0.30344 0.0
C2341 C 0.37995 0.94789 0.32586 0.0
H2342 H 0.35426 0.98509 0.38905 0.0
H2343 H 0.32729 0.96684 0.30425 0.0
H2344 H 0.39334 0.98036 0.37679 0.0
H2345 H 0.40089 0.00461 0.36861 0.0
H2346 H 0.38595 0.99409 0.39862 0.0
H2347 H 0.343 0.96471 0.26408 0.0
H2348 H 0.36786 0.98229 0.26535 0.0
H2349 H 0.36042 0.95796 0.27301 0.0
H2350 H 0.4281 0.01376 0.27623 0.0
H2351 H 0.41028 0.95541 0.295 0.0
H2352 H 0.39832 0.02016 0.32578 0.0
H2353 H 0.38864 0.01435 0.28945 0.0
H2354 H 0.41366 0.03026 0.29605 0.0
H2355 H 0.37703 0.95032 0.34835 0.0
H2356 H 0.38544 0.93776 0.3259 0.0
H2357 H 0.3663 0.94106 0.31313 0.0
C2358 C 0.58657 0.95354 0.35421 0.0
C2359 C 0.60023 0.9548 0.3352 0.0
C2360 C 0.57192 0.95675 0.34498 0.0
C2361 C 0.57082 0.9613 0.31598 0.0
C2362 C 0.58437 0.96229 0.29652 0.0
C2363 C 0.59892 0.95904 0.30636 0.0
C2364 C 0.55781 0.95559 0.36643 0.0
C2365 C 0.58366 0.96709 0.26539 0.0
C2366 C 0.52508 0.95589 0.28313 0.0
C2367 C 0.52919 0.975 0.28351 0.0
C2368 C 0.53828 0.95111 0.29433 0.0
C2369 C 0.55596 0.96579 0.30626 0.0
C2370 C 0.55975 0.98497 0.30802 0.0
C2371 C 0.54634 0.98933 0.2966 0.0
C2372 C 0.53368 0.93049 0.29213 0.0
C2373 C 0.5783 1.00104 0.32086 0.0
H2374 H 0.58739 0.95024 0.37654 0.0
H2375 H 0.60937 0.96001 0.29151 0.0
H2376 H 0.55875 0.96976 0.36918 0.0
H2377 H 0.54322 0.9452 0.35821 0.0
H2378 H 0.56019 0.95119 0.38793 0.0
H2379 H 0.59481 0.96662 0.25274 0.0
H2380 H 0.56965 0.95688 0.25495 0.0
H2381 H 0.58547 0.98165 0.2644 0.0
H2382 H 0.51197 0.9448 0.27266 0.0
H2383 H 0.54954 0.00412 0.29696 0.0
H2384 H 0.53603 0.92591 0.31347 0.0
H2385 H 0.54325 0.92907 0.27698 0.0
H2386 H 0.51883 0.92061 0.2843 0.0
H2387 H 0.58104 0.99761 0.34287 0.0
H2388 H 0.57857 0.01496 0.32222 0.0
H2389 H 0.59003 0.00268 0.30744 0.0
C2390 C 0.07747 0.64566 0.36053 0.0
C2391 C 0.06448 0.65216 0.36281 0.0
C2392 C 0.07132 0.62624 0.35433 0.0
C2393 C 0.05173 0.61303 0.35028 0.0
C2394 C 0.03859 0.61904 0.35673 0.0
C2395 C 0.04512 0.63859 0.36291 0.0
C2396 C 0.08586 0.62041 0.34835 0.0
C2397 C 0.01757 0.60531 0.35353 0.0
C2398 C 0.03915 0.57999 0.28394 0.0
C2399 C 0.03464 0.56237 0.29554 0.0
C2400 C 0.04444 0.59631 0.30166 0.0
C2401 C 0.04541 0.59518 0.33205 0.0
C2402 C 0.04094 0.57747 0.34411 0.0
C2403 C 0.03577 0.56123 0.32561 0.0
C2404 C 0.04921 0.61485 0.28762 0.0
C2405 C 0.04185 0.57569 0.37636 0.0
H2406 H 0.09249 0.65596 0.36121 0.0
H2407 H 0.03493 0.64337 0.36518 0.0
H2408 H 0.08158 0.60614 0.35687 0.0
H2409 H 0.08707 0.6194 0.32463 0.0
H2410 H 0.10001 0.63101 0.35803 0.0
H2411 H 0.00949 0.61083 0.36535 0.0
H2412 H 0.01305 0.6033 0.33029 0.0
H2413 H 0.01393 0.59106 0.36155 0.0
H2414 H 0.0388 0.58109 0.26067 0.0
H2415 H 0.03244 0.54767 0.33461 0.0
H2416 H 0.06404 0.62595 0.29352 0.0
H2417 H 0.03995 0.62025 0.2955 0.0
H2418 H 0.04751 0.61316 0.26367 0.0
H2419 H 0.05684 0.58227 0.38411 0.0
H2420 H 0.03431 0.56047 0.38241 0.0
H2421 H 0.03569 0.58344 0.38775 0.0
C2422 C 0.36555 0.40512 0.3415 0.0
C2423 C 0.35894 0.41207 0.36372 0.0
C2424 C 0.38354 0.41666 0.33066 0.0
C2425 C 0.39514 0.4357 0.34209 0.0
C2426 C 0.38838 0.44294 0.36406 0.0
C2427 C 0.37042 0.43102 0.3747 0.0
C2428 C 0.39027 0.40838 0.30727 0.0
C2429 C 0.40021 0.46322 0.3765 0.0
C2430 C 0.44765 0.45709 0.3304 0.0
C2431 C 0.44954 0.46657 0.30473 0.0
C2432 C 0.43017 0.44765 0.34361 0.0
C2433 C 0.41434 0.44792 0.33094 0.0
C2434 C 0.41658 0.45866 0.30616 0.0
C2435 C 0.43414 0.46775 0.29325 0.0
C2436 C 0.42836 0.43633 0.36997 0.0
C2437 C 0.40018 0.45959 0.29224 0.0
H2438 H 0.35683 0.39049 0.33298 0.0
H2439 H 0.36541 0.43655 0.39181 0.0
H2440 H 0.39366 0.41716 0.28793 0.0
H2441 H 0.40344 0.40877 0.31492 0.0
H2442 H 0.37956 0.39332 0.30074 0.0
H2443 H 0.39269 0.46686 0.39292 0.0
H2444 H 0.41353 0.4652 0.38672 0.0
H2445 H 0.40418 0.47352 0.35899 0.0
H2446 H 0.4595 0.45596 0.33904 0.0
H2447 H 0.43562 0.47507 0.27334 0.0
H2448 H 0.41941 0.42078 0.36425 0.0
H2449 H 0.4213 0.4399 0.3872 0.0
H2450 H 0.4423 0.43904 0.37875 0.0
H2451 H 0.38984 0.44532 0.28224 0.0
H2452 H 0.40476 0.47031 0.27523 0.0
H2453 H 0.39274 0.46326 0.30871 0.0
C2454 C 0.29667 0.29004 0.39983 0.0
C2455 C 0.30296 0.30585 0.38233 0.0
C2456 C 0.30343 0.27721 0.39698 0.0
C2457 C 0.31642 0.27984 0.37543 0.0
C2458 C 0.32213 0.29522 0.35667 0.0
C2459 C 0.31561 0.3083 0.36071 0.0
C2460 C 0.29727 0.2613 0.41797 0.0
C2461 C 0.33545 0.29817 0.33284 0.0
C2462 C 0.34674 0.25934 0.3995 0.0
C2463 C 0.33566 0.24019 0.38934 0.0
C2464 C 0.34162 0.27303 0.39285 0.0
C2465 C 0.32524 0.26751 0.37501 0.0
C2466 C 0.31547 0.24882 0.36163 0.0
C2467 C 0.32069 0.23523 0.36922 0.0
C2468 C 0.35243 0.29268 0.40781 0.0
C2469 C 0.29844 0.24264 0.34148 0.0
H2470 H 0.28696 0.28812 0.41666 0.0
H2471 H 0.32036 0.32039 0.34692 0.0
H2472 H 0.2907 0.24718 0.40606 0.0
H2473 H 0.30977 0.26301 0.43064 0.0
H2474 H 0.28697 0.26116 0.4333 0.0
H2475 H 0.33513 0.30785 0.31646 0.0
H2476 H 0.3501 0.30469 0.34214 0.0
H2477 H 0.33186 0.28427 0.32189 0.0
H2478 H 0.35845 0.26319 0.41486 0.0
H2479 H 0.31216 0.22044 0.36126 0.0
H2480 H 0.34377 0.29386 0.42495 0.0
H2481 H 0.35534 0.30402 0.3924 0.0
H2482 H 0.36608 0.29545 0.41799 0.0
H2483 H 0.28595 0.23923 0.35432 0.0
H2484 H 0.29521 0.22966 0.328 0.0
H2485 H 0.30068 0.25433 0.3271 0.0
C2486 C 0.70017 0.02019 0.34183 0.0
C2487 C 0.70651 0.00694 0.33978 0.0
C2488 C 0.71312 0.03996 0.34604 0.0
C2489 C 0.73277 0.04649 0.34839 0.0
C2490 C 0.73918 0.03342 0.34253 0.0
C2491 C 0.72598 0.01383 0.33828 0.0
C2492 C 0.70571 0.05352 0.35121 0.0
C2493 C 0.75996 0.03972 0.34431 0.0
C2494 C 0.77073 0.09889 0.3652 0.0
C2495 C 0.77247 0.09907 0.39542 0.0
C2496 C 0.75734 0.0821 0.34931 0.0
C2497 C 0.74586 0.06513 0.36406 0.0
C2498 C 0.74765 0.0654 0.39457 0.0
C2499 C 0.76087 0.08225 0.40971 0.0
C2500 C 0.75581 0.08247 0.31686 0.0
C2501 C 0.73596 0.04768 0.41138 0.0
H2502 H 0.68515 0.01507 0.34258 0.0
H2503 H 0.73103 0.00374 0.33595 0.0
H2504 H 0.70591 0.05641 0.37481 0.0
H2505 H 0.71478 0.06743 0.34128 0.0
H2506 H 0.69096 0.04737 0.34239 0.0
H2507 H 0.7628 0.02878 0.33429 0.0
H2508 H 0.76835 0.05343 0.33354 0.0
H2509 H 0.76497 0.04211 0.36736 0.0
H2510 H 0.77976 0.11182 0.35406 0.0
H2511 H 0.76248 0.0821 0.43299 0.0
H2512 H 0.74084 0.07411 0.30872 0.0
H2513 H 0.7635 0.07582 0.30697 0.0
H2514 H 0.76207 0.09736 0.30949 0.0
H2515 H 0.72068 0.04214 0.4067 0.0
H2516 H 0.73881 0.05049 0.43511 0.0
H2517 H 0.73903 0.03622 0.40471 0.0
C2518 C 0.99959 0.69462 0.39614 0.0
C2519 C 0.00584 0.70167 0.36882 0.0
C2520 C 0.98242 0.69227 0.40586 0.0
C2521 C 0.97135 0.69724 0.38793 0.0
C2522 C 0.97768 0.7045 0.36046 0.0
C2523 C 0.99477 0.70655 0.35121 0.0
C2524 C 0.97606 0.68437 0.43525 0.0
C2525 C 0.96638 0.71012 0.34081 0.0
C2526 C 0.91914 0.6749 0.40281 0.0
C2527 C 0.91899 0.68941 0.41998 0.0
C2528 C 0.93604 0.67738 0.39178 0.0
C2529 C 0.95314 0.69484 0.39791 0.0
C2530 C 0.9529 0.70985 0.41413 0.0
C2531 C 0.93584 0.70692 0.42508 0.0
C2532 C 0.93571 0.66102 0.37461 0.0
C2533 C 0.97077 0.72878 0.42075 0.0
H2534 H 0.00802 0.69078 0.40983 0.0
H2535 H 0.9995 0.71209 0.3301 0.0
H2536 H 0.97438 0.69485 0.44901 0.0
H2537 H 0.96206 0.67107 0.43303 0.0
H2538 H 0.98621 0.68108 0.44647 0.0
H2539 H 0.97337 0.71574 0.32021 0.0
H2540 H 0.95215 0.69754 0.33571 0.0
H2541 H 0.9643 0.72125 0.3519 0.0
H2542 H 0.90622 0.66123 0.39923 0.0
H2543 H 0.93573 0.71816 0.43833 0.0
H2544 H 0.94421 0.65593 0.38648 0.0
H2545 H 0.94222 0.66594 0.35352 0.0
H2546 H 0.92113 0.64873 0.37057 0.0
H2547 H 0.98074 0.72651 0.43447 0.0
H2548 H 0.96799 0.73936 0.43217 0.0
H2549 H 0.9779 0.73496 0.40048 0.0
C2550 C 0.43867 0.05839 0.64791 0.0
C2551 C 0.42049 0.05109 0.65852 0.0
C2552 C 0.45115 0.05258 0.65871 0.0
C2553 C 0.44528 0.039 0.68046 0.0
C2554 C 0.42701 0.03169 0.69144 0.0
C2555 C 0.41488 0.03789 0.68045 0.0
C2556 C 0.47058 0.06088 0.64674 0.0
C2557 C 0.42016 0.01711 0.71459 0.0
C2558 C 0.467 0.0076 0.69359 0.0
C2559 C 0.4771 0.01566 0.71989 0.0
C2560 C 0.4574 0.0157 0.67949 0.0
C2561 C 0.45812 0.03233 0.69197 0.0
C2562 C 0.46965 0.04139 0.71726 0.0
C2563 C 0.47889 0.03285 0.73104 0.0
C2564 C 0.44526 0.00557 0.6526 0.0
C2565 C 0.47108 0.05928 0.73103 0.0
H2566 H 0.44317 0.06865 0.63102 0.0
H2567 H 0.40086 0.03212 0.68871 0.0
H2568 H 0.48156 0.06783 0.66449 0.0
H2569 H 0.47234 0.04925 0.63669 0.0
H2570 H 0.47316 0.07163 0.6303 0.0
H2571 H 0.40553 0.01274 0.72066 0.0
H2572 H 0.42053 0.00414 0.70696 0.0
H2573 H 0.42967 0.02309 0.73422 0.0
H2574 H 0.46536 0.99412 0.68526 0.0
H2575 H 0.48658 0.03897 0.75155 0.0
H2576 H 0.44775 0.01594 0.63563 0.0
H2577 H 0.43013 0.99875 0.65776 0.0
H2578 H 0.448 0.99428 0.64374 0.0
H2579 H 0.47361 0.06995 0.71453 0.0
H2580 H 0.4826 0.06601 0.74809 0.0
H2581 H 0.45753 0.05561 0.74098 0.0
C2582 C 0.96686 0.36456 0.68706 0.0
C2583 C 0.94792 0.35122 0.67941 0.0
C2584 C 0.97305 0.38421 0.69046 0.0
C2585 C 0.96011 0.39079 0.6853 0.0
C2586 C 0.9415 0.37764 0.67464 0.0
C2587 C 0.93552 0.35795 0.67227 0.0
C2588 C 0.99299 0.39767 0.70212 0.0
C2589 C 0.92751 0.38413 0.66764 0.0
C2590 C 0.97011 0.43237 0.73657 0.0
C2591 C 0.98229 0.44815 0.72074 0.0
C2592 C 0.96179 0.41363 0.72459 0.0
C2593 C 0.96528 0.41058 0.69568 0.0
C2594 C 0.97576 0.42658 0.67854 0.0
C2595 C 0.98434 0.44525 0.69138 0.0
C2596 C 0.95076 0.39709 0.74381 0.0
C2597 C 0.97915 0.42399 0.64731 0.0
H2598 H 0.97654 0.35951 0.69265 0.0
H2599 H 0.92091 0.34776 0.66598 0.0
H2600 H 1.00003 0.41037 0.68869 0.0
H2601 H 0.99261 0.4029 0.72437 0.0
H2602 H 1.0017 0.39062 0.70284 0.0
H2603 H 0.91545 0.37332 0.65357 0.0
H2604 H 0.92181 0.38635 0.68794 0.0
H2605 H 0.93443 0.39797 0.65674 0.0
H2606 H 0.9683 0.43463 0.75918 0.0
H2607 H 0.99372 0.4574 0.67902 0.0
H2608 H 0.95863 0.38936 0.74748 0.0
H2609 H 0.93686 0.38672 0.73327 0.0
H2610 H 0.94832 0.40191 0.76515 0.0
H2611 H 0.99076 0.42067 0.64618 0.0
H2612 H 0.98329 0.4372 0.63536 0.0
H2613 H 0.96635 0.41187 0.63635 0.0
C2614 C 0.62175 0.5993 0.63417 0.0
C2615 C 0.63741 0.60837 0.65383 0.0
C2616 C 0.60377 0.58593 0.64331 0.0
C2617 C 0.60142 0.58154 0.67281 0.0
C2618 C 0.61712 0.59081 0.69281 0.0
C2619 C 0.63492 0.6041 0.68308 0.0
C2620 C 0.58735 0.57636 0.62141 0.0
C2621 C 0.61517 0.58656 0.72451 0.0
C2622 C 0.55508 0.56015 0.71027 0.0
C2623 C 0.55181 0.54163 0.71499 0.0
C2624 C 0.57042 0.57297 0.69447 0.0
C2625 C 0.58269 0.56705 0.68307 0.0
C2626 C 0.57826 0.54775 0.68515 0.0
C2627 C 0.56283 0.53524 0.70111 0.0
C2628 C 0.57449 0.59334 0.69238 0.0
C2629 C 0.59085 0.5408 0.67301 0.0
H2630 H 0.62353 0.60253 0.61151 0.0
H2631 H 0.64692 0.61106 0.69841 0.0
H2632 H 0.5817 0.56064 0.62041 0.0
H2633 H 0.57572 0.57874 0.62807 0.0
H2634 H 0.59141 0.58179 0.59943 0.0
H2635 H 0.6287 0.5952 0.7373 0.0
H2636 H 0.60442 0.58955 0.7336 0.0
H2637 H 0.6102 0.57114 0.7272 0.0
H2638 H 0.54643 0.56504 0.72074 0.0
H2639 H 0.56046 0.52099 0.70483 0.0
H2640 H 0.5786 0.59844 0.67029 0.0
H2641 H 0.58652 0.60287 0.70753 0.0
H2642 H 0.56211 0.59479 0.69799 0.0
H2643 H 0.59482 0.54577 0.65083 0.0
H2644 H 0.58395 0.52491 0.67243 0.0
H2645 H 0.60409 0.54684 0.68667 0.0
C2646 C 0.71769 0.72788 0.6609 0.0
C2647 C 0.70374 0.7085 0.65684 0.0
C2648 C 0.71344 0.74244 0.65606 0.0
C2649 C 0.69488 0.73744 0.64657 0.0
C2650 C 0.68023 0.71806 0.64689 0.0
C2651 C 0.68484 0.70373 0.65202 0.0
C2652 C 0.72936 0.76299 0.65713 0.0
C2653 C 0.66013 0.71218 0.63791 0.0
C2654 C 0.68641 0.77751 0.62155 0.0
C2655 C 0.69007 0.77751 0.5921 0.0
C2656 C 0.68733 0.76421 0.63979 0.0
C2657 C 0.69227 0.7509 0.62824 0.0
C2658 C 0.69582 0.75085 0.59851 0.0
C2659 C 0.69486 0.76418 0.58107 0.0
C2660 C 0.68357 0.76485 0.67138 0.0
C2661 C 0.7012 0.73702 0.58502 0.0
H2662 H 0.73226 0.73172 0.66558 0.0
H2663 H 0.67386 0.6888 0.6495 0.0
H2664 H 0.73397 0.76727 0.63487 0.0
H2665 H 0.72462 0.77274 0.66599 0.0
H2666 H 0.74173 0.76495 0.67047 0.0
H2667 H 0.64996 0.69785 0.64577 0.0
H2668 H 0.65637 0.72283 0.64619 0.0
H2669 H 0.65866 0.71146 0.61395 0.0
H2670 H 0.68289 0.78788 0.6303 0.0
H2671 H 0.69843 0.76447 0.55864 0.0
H2672 H 0.69723 0.77344 0.68379 0.0
H2673 H 0.67632 0.75028 0.68003 0.0
H2674 H 0.67485 0.77168 0.67515 0.0
H2675 H 0.71479 0.73958 0.59502 0.0
H2676 H 0.70278 0.73846 0.56131 0.0
H2677 H 0.69029 0.72202 0.58891 0.0
C2678 C 0.29506 0.99468 0.62916 0.0
C2679 C 0.31309 0.00255 0.6428 0.0
C2680 C 0.28168 0.97517 0.63046 0.0
C2681 C 0.28616 0.96309 0.64637 0.0
C2682 C 0.30403 0.97102 0.66127 0.0
C2683 C 0.31742 0.99063 0.65895 0.0
C2684 C 0.26294 0.96739 0.6138 0.0
C2685 C 0.30922 0.95877 0.67904 0.0
C2686 C 0.24045 0.91675 0.65515 0.0
C2687 C 0.23993 0.90636 0.63005 0.0
C2688 C 0.25661 0.93449 0.66308 0.0
C2689 C 0.27235 0.94205 0.64519 0.0
C2690 C 0.27267 0.93047 0.62194 0.0
C2691 C 0.25652 0.91268 0.61485 0.0
C2692 C 0.25601 0.94602 0.68879 0.0
C2693 C 0.2891 0.9378 0.60228 0.0
H2694 H 0.29152 0.00366 0.61649 0.0
H2695 H 0.33126 0.99658 0.66971 0.0
H2696 H 0.26122 0.95627 0.5974 0.0
H2697 H 0.25113 0.96048 0.62863 0.0
H2698 H 0.26167 0.97873 0.60256 0.0
H2699 H 0.32135 0.96762 0.69449 0.0
H2700 H 0.29704 0.94842 0.69128 0.0
H2701 H 0.31327 0.9504 0.66449 0.0
H2702 H 0.22773 0.91189 0.66713 0.0
H2703 H 0.25628 0.90447 0.59575 0.0
H2704 H 0.25252 0.95688 0.68125 0.0
H2705 H 0.26999 0.95376 0.70062 0.0
H2706 H 0.24514 0.93678 0.70394 0.0
H2707 H 0.28892 0.94873 0.58839 0.0
H2708 H 0.28844 0.92614 0.58806 0.0
H2709 H 0.30273 0.94479 0.61501 0.0
C2710 C 0.00921 0.30485 0.65195 0.0
C2711 C 0.00946 0.3105 0.68093 0.0
C2712 C 0.02558 0.30679 0.63963 0.0
C2713 C 0.04269 0.31468 0.65663 0.0
C2714 C 0.04307 0.32049 0.68586 0.0
C2715 C 0.02645 0.31829 0.69767 0.0
C2716 C 0.02456 0.30037 0.60838 0.0
C2717 C 0.06104 0.32907 0.70462 0.0
C2718 C 0.07907 0.30305 0.62745 0.0
C2719 C 0.0899 0.31904 0.61108 0.0
C2720 C 0.06419 0.30181 0.64361 0.0
C2721 C 0.06015 0.31699 0.64349 0.0
C2722 C 0.07191 0.33373 0.62861 0.0
C2723 C 0.08659 0.33453 0.61251 0.0
C2724 C 0.05203 0.28372 0.65921 0.0
C2725 C 0.06828 0.35035 0.62821 0.0
H2726 H 0.99617 0.29877 0.63884 0.0
H2727 H 0.02682 0.32273 0.72008 0.0
H2728 H 0.03454 0.31267 0.59585 0.0
H2729 H 0.02886 0.28934 0.60676 0.0
H2730 H 0.01013 0.29431 0.59822 0.0
H2731 H 0.05899 0.33285 0.72695 0.0
H2732 H 0.06632 0.31881 0.70574 0.0
H2733 H 0.07219 0.34219 0.69496 0.0
H2734 H 0.08144 0.29096 0.62614 0.0
H2735 H 0.09501 0.34696 0.59997 0.0
H2736 H 0.03783 0.27572 0.6481 0.0
H2737 H 0.05004 0.28724 0.68169 0.0
H2738 H 0.05821 0.27419 0.65983 0.0
H2739 H 0.05493 0.346 0.61559 0.0
H2740 H 0.07989 0.36309 0.61838 0.0
H2741 H 0.06657 0.3545 0.65047 0.0
C2742 C 0.27949 0.31932 0.66127 0.0
C2743 C 0.27918 0.30176 0.65999 0.0
C2744 C 0.26406 0.32079 0.65057 0.0
C2745 C 0.24773 0.30423 0.63874 0.0
C2746 C 0.24722 0.28639 0.63769 0.0
C2747 C 0.26303 0.2854 0.64807 0.0
C2748 C 0.26536 0.34017 0.65151 0.0
C2749 C 0.22999 0.26837 0.62562 0.0
C2750 C 0.20345 0.30863 0.63138 0.0
C2751 C 0.20393 0.31349 0.60246 0.0
C2752 C 0.21717 0.30476 0.64329 0.0
C2753 C 0.23173 0.30594 0.6259 0.0
C2754 C 0.23172 0.30998 0.59638 0.0
C2755 C 0.21773 0.31344 0.58499 0.0
C2756 C 0.21651 0.30011 0.67473 0.0
C2757 C 0.24699 0.31151 0.57703 0.0
H2758 H 0.29192 0.33202 0.67041 0.0
H2759 H 0.26259 0.27173 0.64731 0.0
H2760 H 0.26397 0.34421 0.62924 0.0
H2761 H 0.25358 0.33955 0.66372 0.0
H2762 H 0.27894 0.35161 0.66175 0.0
H2763 H 0.23144 0.25546 0.62774 0.0
H2764 H 0.21728 0.26611 0.63695 0.0
H2765 H 0.22751 0.26985 0.60242 0.0
H2766 H 0.1928 0.30855 0.64494 0.0
H2767 H 0.21787 0.31661 0.56237 0.0
H2768 H 0.2287 0.31209 0.68705 0.0
H2769 H 0.21769 0.28709 0.67719 0.0
H2770 H 0.20327 0.29776 0.68447 0.0
H2771 H 0.26092 0.32351 0.58518 0.0
H2772 H 0.24453 0.31407 0.55429 0.0
H2773 H 0.24784 0.29821 0.57734 0.0
C2774 C 0.73368 0.97994 0.63651 0.0
C2775 C 0.73296 0.98753 0.66363 0.0
C2776 C 0.72732 0.96037 0.63205 0.0
C2777 C 0.72076 0.94814 0.65564 0.0
C2778 C 0.72051 0.95585 0.6834 0.0
C2779 C 0.72627 0.97548 0.68695 0.0
C2780 C 0.72729 0.95275 0.60185 0.0
C2781 C 0.71446 0.94348 0.70928 0.0
C2782 C 0.68926 0.89728 0.62707 0.0
C2783 C 0.70284 0.89217 0.62013 0.0
C2784 C 0.69453 0.9149 0.64143 0.0
C2785 C 0.71371 0.92727 0.6503 0.0
C2786 C 0.72679 0.92071 0.64769 0.0
C2787 C 0.72129 0.90334 0.63222 0.0
C2788 C 0.68005 0.92125 0.64343 0.0
C2789 C 0.74715 0.933 0.65825 0.0
H2790 H 0.73871 0.9893 0.61847 0.0
H2791 H 0.72586 0.98148 0.70797 0.0
H2792 H 0.73694 0.9468 0.60142 0.0
H2793 H 0.71291 0.94093 0.59517 0.0
H2794 H 0.73186 0.964 0.58568 0.0
H2795 H 0.71433 0.95147 0.7291 0.0
H2796 H 0.70018 0.93082 0.70509 0.0
H2797 H 0.72431 0.93799 0.71332 0.0
H2798 H 0.6748 0.88838 0.61873 0.0
H2799 H 0.73192 0.89953 0.62738 0.0
H2800 H 0.68225 0.93131 0.62607 0.0
H2801 H 0.68159 0.92895 0.66439 0.0
H2802 H 0.66538 0.90894 0.64073 0.0
H2803 H 0.75501 0.94381 0.64208 0.0
H2804 H 0.75408 0.92428 0.66131 0.0
H2805 H 0.74825 0.94081 0.67895 0.0
C2806 C 0.02978 0.74123 0.70366 0.0
C2807 C 0.01417 0.73578 0.68448 0.0
C2808 C 0.04825 0.754 0.69565 0.0
C2809 C 0.05125 0.76121 0.66757 0.0
C2810 C 0.03553 0.75608 0.64831 0.0
C2811 C 0.01716 0.74356 0.65711 0.0
C2812 C 0.06458 0.75936 0.71698 0.0
C2813 C 0.03816 0.7632 0.61801 0.0
C2814 C 0.0988 0.80331 0.64836 0.0
C2815 C 0.10725 0.79377 0.63514 0.0
C2816 C 0.08073 0.79294 0.65967 0.0
C2817 C 0.07084 0.77261 0.6574 0.0
C2818 C 0.07955 0.76296 0.64484 0.0
C2819 C 0.09768 0.77363 0.63426 0.0
C2820 C 0.07203 0.8037 0.67347 0.0
C2821 C 0.06953 0.74132 0.64189 0.0
H2822 H 0.02757 0.73546 0.725 0.0
H2823 H 0.00517 0.73941 0.6422 0.0
H2824 H 0.0732 0.75315 0.70924 0.0
H2825 H 0.07394 0.77516 0.71874 0.0
H2826 H 0.05977 0.75411 0.73883 0.0
H2827 H 0.02448 0.75878 0.60627 0.0
H2828 H 0.04688 0.77907 0.61858 0.0
H2829 H 0.04584 0.75746 0.60563 0.0
H2830 H 0.10606 0.81884 0.64909 0.0
H2831 H 0.10428 0.76612 0.6248 0.0
H2832 H 0.0673 0.79841 0.6953 0.0
H2833 H 0.05935 0.80109 0.66037 0.0
H2834 H 0.08205 0.8194 0.67545 0.0
H2835 H 0.0658 0.73513 0.66346 0.0
H2836 H 0.07828 0.73604 0.63149 0.0
H2837 H 0.05614 0.73584 0.62877 0.0
C2838 C 0.95132 0.61595 0.69161 0.0
C2839 C 0.96273 0.6324 0.70928 0.0
C2840 C 0.95564 0.60116 0.68875 0.0
C2841 C 0.97113 0.60247 0.70516 0.0
C2842 C 0.98326 0.61957 0.72178 0.0
C2843 C 0.9791 0.63448 0.72315 0.0
C2844 C 0.94296 0.58371 0.66951 0.0
C2845 C 0.99969 0.62148 0.74016 0.0
C2846 C 0.96799 0.55908 0.73951 0.0
C2847 C 0.98311 0.55826 0.72728 0.0
C2848 C 0.9631 0.57266 0.73114 0.0
C2849 C 0.973 0.58518 0.70899 0.0
C2850 C 0.98649 0.58262 0.69384 0.0
C2851 C 0.99163 0.56934 0.70347 0.0
C2852 C 0.94871 0.57487 0.74814 0.0
C2853 C 0.99655 0.59487 0.66897 0.0
H2854 H 0.93873 0.61441 0.68065 0.0
H2855 H 0.98785 0.64716 0.73696 0.0
H2856 H 0.95121 0.57795 0.65882 0.0
H2857 H 0.93235 0.57229 0.68269 0.0
H2858 H 0.93525 0.58702 0.65264 0.0
H2859 H 0.00823 0.636 0.7508 0.0
H2860 H 0.99433 0.61077 0.75718 0.0
H2861 H 0.00909 0.6185 0.72684 0.0
H2862 H 0.96108 0.5502 0.75749 0.0
H2863 H 0.00323 0.5687 0.69374 0.0
H2864 H 0.93768 0.57457 0.73339 0.0
H2865 H 0.95577 0.58895 0.76027 0.0
H2866 H 0.9417 0.56341 0.76381 0.0
H2867 H 0.98686 0.59775 0.6556 0.0
H2868 H 0.00248 0.58794 0.65499 0.0
H2869 H 0.0084 0.60885 0.67749 0.0
C2870 C 0.39454 0.34586 0.67457 0.0
C2871 C 0.37513 0.3393 0.67606 0.0
C2872 C 0.40794 0.36548 0.67751 0.0
C2873 C 0.40178 0.37888 0.68212 0.0
C2874 C 0.38217 0.37254 0.67982 0.0
C2875 C 0.36902 0.35276 0.67685 0.0
C2876 C 0.42866 0.37154 0.67931 0.0
C2877 C 0.37501 0.38641 0.68383 0.0
C2878 C 0.43023 0.4163 0.74141 0.0
C2879 C 0.44154 0.43273 0.72614 0.0
C2880 C 0.41708 0.39901 0.72722 0.0
C2881 C 0.41511 0.39787 0.69668 0.0
C2882 C 0.42643 0.4144 0.6809 0.0
C2883 C 0.43974 0.43167 0.69586 0.0
C2884 C 0.40554 0.38182 0.74513 0.0
C2885 C 0.42474 0.41378 0.64836 0.0
H2886 H 0.3994 0.33558 0.67323 0.0
H2887 H 0.35405 0.34787 0.67761 0.0
H2888 H 0.43713 0.38499 0.66796 0.0
H2889 H 0.43375 0.37431 0.70234 0.0
H2890 H 0.43127 0.36029 0.66991 0.0
H2891 H 0.36021 0.38019 0.67516 0.0
H2892 H 0.37541 0.38997 0.70724 0.0
H2893 H 0.3841 0.39997 0.67304 0.0
H2894 H 0.43191 0.41688 0.76478 0.0
H2895 H 0.44856 0.4443 0.68399 0.0
H2896 H 0.40857 0.3702 0.73936 0.0
H2897 H 0.39023 0.37616 0.74055 0.0
H2898 H 0.40857 0.38529 0.76872 0.0
H2899 H 0.43177 0.40621 0.63925 0.0
H2900 H 0.43151 0.4284 0.63982 0.0
H2901 H 0.40969 0.40575 0.64058 0.0
C2902 C 0.66217 0.01883 0.71114 0.0
C2903 C 0.66896 0.0276 0.68498 0.0
C2904 C 0.64418 0.01454 0.71994 0.0
C2905 C 0.63286 0.01931 0.70227 0.0
C2906 C 0.63962 0.02809 0.67581 0.0
C2907 C 0.65753 0.03205 0.66743 0.0
C2908 C 0.63735 0.00501 0.74823 0.0
C2909 C 0.62804 0.03357 0.65654 0.0
C2910 C 0.58032 0.9941 0.71576 0.0
C2911 C 0.57939 0.00742 0.73465 0.0
C2912 C 0.59758 0.99796 0.70438 0.0
C2913 C 0.61417 0.01563 0.71193 0.0
C2914 C 0.61303 0.02955 0.72971 0.0
C2915 C 0.59566 0.02522 0.741 0.0
C2916 C 0.59825 0.98275 0.68555 0.0
C2917 C 0.63032 0.04868 0.73784 0.0
H2918 H 0.67088 0.01529 0.72473 0.0
H2919 H 0.66267 0.03889 0.64719 0.0
H2920 H 0.63497 0.01453 0.76314 0.0
H2921 H 0.62362 0.99153 0.74456 0.0
H2922 H 0.64758 0.00163 0.75896 0.0
H2923 H 0.6352 0.03998 0.63635 0.0
H2924 H 0.6141 0.02078 0.65068 0.0
H2925 H 0.62532 0.04406 0.66831 0.0
H2926 H 0.56778 0.98022 0.71122 0.0
H2927 H 0.59488 0.03549 0.75567 0.0
H2928 H 0.60673 0.97745 0.69694 0.0
H2929 H 0.60528 0.98886 0.6652 0.0
H2930 H 0.58393 0.97036 0.68007 0.0
H2931 H 0.6404 0.04647 0.7514 0.0
H2932 H 0.62677 0.05844 0.75003 0.0
H2933 H 0.63768 0.05581 0.71818 0.0
loop_
_geom_bond_atom_site_label_1
_geom_bond_atom_site_label_2
_geom_bond_distance
_geom_bond_site_symmetry_2
_ccdc_geom_bond_type
Mg0 O1 2.028 1_556 S
Mg0 O7 1.986 1_455 S
Mg0 O9 2.114 . S
Mg0 O10 2.251 1_455 S
Mg0 O13 2.010 1_556 S
O1 Mg0 2.028 1_554 S
O1 C4 1.250 1_455 S
O2 Mg3 2.028 1_554 S
O2 C4 1.248 . S
Mg3 O2 2.028 1_556 S
Mg3 O8 2.032 . S
Mg3 O10 2.079 . S
C4 O1 1.250 1_655 S
C4 O2 1.248 . S
C5 O6 1.264 1_554 S
C5 O13 1.249 . S
O6 C5 1.264 1_556 S
O7 Mg0 1.986 1_655 S
O7 C11 1.246 . S
O8 Mg3 2.032 . S
O8 C11 1.259 . S
O9 Mg0 2.114 . S
O9 C12 1.252 . S
O10 Mg0 2.251 1_655 S
O10 Mg3 2.079 . S
O10 C12 1.273 1_655 S
C11 O7 1.246 . S
C11 O8 1.259 . S
C12 O9 1.252 . S
C12 O10 1.273 1_455 S
O13 Mg0 2.010 1_554 S
O13 C5 1.249 . S
Mg14 O15 2.028 1_554 S
Mg14 O21 1.986 . S
Mg14 O23 2.114 . S
Mg14 O24 2.251 . S
Mg14 O27 2.010 . S
O15 Mg14 2.028 1_556 S
O15 C18 1.250 . S
O16 Mg17 2.028 1_556 S
O16 C18 1.248 . S
Mg17 O16 2.028 1_554 S
Mg17 O22 2.032 . S
Mg17 O24 2.079 . S
C18 O15 1.250 . S
C18 O16 1.248 . S
C19 O20 1.264 . S
C19 O27 1.249 . S
O20 C19 1.264 . S
O21 Mg14 1.986 . S
O21 C25 1.246 . S
O22 Mg17 2.032 . S
O22 C25 1.259 . S
O23 Mg14 2.114 . S
O23 C26 1.252 . S
O24 Mg14 2.251 . S
O24 Mg17 2.079 . S
O24 C26 1.273 . S
C25 O21 1.246 . S
C25 O22 1.259 . S
C26 O23 1.252 . S
C26 O24 1.273 . S
O27 Mg14 2.010 . S
O27 C19 1.249 . S
Mg28 O29 2.021 1_556 S
Mg28 O35 1.989 1_565 S
Mg28 O37 2.114 . S
Mg28 O38 2.251 1_565 S
Mg28 O41 2.010 1_556 S
O29 Mg28 2.021 1_554 S
O29 C32 1.243 1_565 S
O30 Mg31 2.028 1_554 S
O30 C32 1.248 . S
Mg31 O30 2.028 1_556 S
Mg31 O36 2.032 . S
Mg31 O38 2.079 . S
C32 O29 1.243 1_545 S
C32 O30 1.248 . S
C33 O34 1.264 1_554 S
C33 O41 1.249 . S
O34 C33 1.264 1_556 S
O35 Mg28 1.989 1_545 S
O35 C39 1.251 . S
O36 Mg31 2.032 . S
O36 C39 1.259 . S
O37 Mg28 2.114 . S
O37 C40 1.252 . S
O38 Mg28 2.251 1_545 S
O38 Mg31 2.079 . S
O38 C40 1.273 1_545 S
C39 O35 1.251 . S
C39 O36 1.259 . S
C40 O37 1.252 . S
C40 O38 1.273 1_565 S
O41 Mg28 2.010 1_554 S
O41 C33 1.249 . S
Mg42 O43 2.028 1_554 S
Mg42 O49 1.986 1_655 S
Mg42 O51 2.114 . S
Mg42 O52 2.251 1_655 S
Mg42 O55 2.010 . S
O43 Mg42 2.028 1_556 S
O43 C46 1.250 1_655 S
O44 Mg45 2.028 1_556 S
O44 C46 1.248 . S
Mg45 O44 2.028 1_554 S
Mg45 O50 2.032 . S
Mg45 O52 2.079 . S
C46 O43 1.250 1_455 S
C46 O44 1.248 . S
C47 O48 1.264 . S
C47 O55 1.249 . S
O48 C47 1.264 . S
O49 Mg42 1.986 1_455 S
O49 C53 1.246 . S
O50 Mg45 2.032 . S
O50 C53 1.259 . S
O51 Mg42 2.114 . S
O51 C54 1.252 . S
O52 Mg42 2.251 1_455 S
O52 Mg45 2.079 . S
O52 C54 1.273 1_455 S
C53 O49 1.246 . S
C53 O50 1.259 . S
C54 O51 1.252 . S
C54 O52 1.273 1_655 S
O55 Mg42 2.010 . S
O55 C47 1.249 . S
Mg56 O57 2.028 1_556 S
Mg56 O63 1.986 . S
Mg56 O65 2.114 . S
Mg56 O66 2.251 . S
Mg56 O69 2.010 1_556 S
O57 Mg56 2.028 1_554 S
O57 C60 1.250 . S
O58 Mg59 2.028 1_554 S
O58 C60 1.248 . S
Mg59 O58 2.028 1_556 S
Mg59 O64 2.032 . S
Mg59 O66 2.079 . S
C60 O57 1.250 . S
C60 O58 1.248 . S
C61 O62 1.264 . S
C61 O69 1.249 . S
O62 C61 1.264 . S
O63 Mg56 1.986 . S
O63 C67 1.246 . S
O64 Mg59 2.032 . S
O64 C67 1.259 . S
O65 Mg56 2.114 . S
O65 C68 1.252 . S
O66 Mg56 2.251 . S
O66 Mg59 2.079 . S
O66 C68 1.273 . S
C67 O63 1.246 . S
C67 O64 1.259 . S
C68 O65 1.252 . S
C68 O66 1.273 . S
O69 Mg56 2.010 1_554 S
O69 C61 1.249 . S
Mg70 O71 2.028 1_554 S
Mg70 O77 1.986 1_545 S
Mg70 O79 2.114 . S
Mg70 O80 2.251 1_545 S
Mg70 O83 2.010 . S
O71 Mg70 2.028 1_556 S
O71 C74 1.250 1_545 S
O72 Mg73 2.028 1_556 S
O72 C74 1.248 . S
Mg73 O72 2.028 1_554 S
Mg73 O78 2.032 . S
Mg73 O80 2.079 . S
C74 O71 1.250 1_565 S
C74 O72 1.248 . S
C75 O76 1.264 . S
C75 O83 1.249 . S
O76 C75 1.264 . S
O77 Mg70 1.986 1_565 S
O77 C81 1.246 . S
O78 Mg73 2.032 . S
O78 C81 1.259 . S
O79 Mg70 2.114 . S
O79 C82 1.252 . S
O80 Mg70 2.251 1_565 S
O80 Mg73 2.079 . S
O80 C82 1.273 1_565 S
C81 O77 1.246 . S
C81 O78 1.259 . S
C82 O79 1.252 . S
C82 O80 1.273 1_545 S
O83 Mg70 2.010 . S
O83 C75 1.249 . S
Mg84 O85 2.028 . S
Mg84 O91 1.986 . S
Mg84 O93 2.114 . S
Mg84 O94 2.251 . S
Mg84 O97 2.010 . S
O85 Mg84 2.028 . S
O85 C88 1.250 . S
O86 Mg87 2.028 . S
O86 C88 1.248 . S
Mg87 O86 2.028 . S
Mg87 O92 2.032 . S
Mg87 O94 2.079 . S
C88 O85 1.250 . S
C88 O86 1.248 . S
C89 O90 1.264 . S
C89 O97 1.249 . S
O90 C89 1.264 . S
O91 Mg84 1.986 . S
O91 C95 1.246 . S
O92 Mg87 2.032 . S
O92 C95 1.259 . S
O93 Mg84 2.114 . S
O93 C96 1.252 . S
O94 Mg84 2.251 . S
O94 Mg87 2.079 . S
O94 C96 1.273 . S
C95 O91 1.246 . S
C95 O92 1.259 . S
C96 O93 1.252 . S
C96 O94 1.273 . S
O97 Mg84 2.010 . S
O97 C89 1.249 . S
Mg98 O99 2.028 . S
Mg98 O105 1.986 1_565 S
Mg98 O107 2.114 . S
Mg98 O108 2.251 . S
Mg98 O111 2.010 . S
O99 Mg98 2.028 . S
O99 C102 1.250 . S
O100 Mg101 2.028 . S
O100 C102 1.248 . S
Mg101 O100 2.028 . S
Mg101 O106 2.032 1_565 S
Mg101 O108 2.079 . S
C102 O99 1.250 . S
C102 O100 1.248 . S
C103 O104 1.264 . S
C103 O111 1.249 . S
O104 C103 1.264 . S
O105 Mg98 1.986 1_545 S
O105 C109 1.246 . S
O106 Mg101 2.032 1_545 S
O106 C109 1.259 . S
O107 Mg98 2.114 . S
O107 C110 1.252 . S
O108 Mg98 2.251 . S
O108 Mg101 2.079 . S
O108 C110 1.273 . S
C109 O105 1.246 . S
C109 O106 1.259 . S
C110 O107 1.252 . S
C110 O108 1.273 . S
O111 Mg98 2.010 . S
O111 C103 1.249 . S
Mg112 O113 2.028 . S
Mg112 O119 1.986 . S
Mg112 O121 2.114 . S
Mg112 O122 2.251 . S
Mg112 O125 2.010 1_455 S
O113 Mg112 2.028 . S
O113 C116 1.250 . S
O114 Mg115 2.028 . S
O114 C116 1.248 . S
Mg115 O114 2.028 . S
Mg115 O120 2.032 . S
Mg115 O122 2.079 . S
C116 O113 1.250 . S
C116 O114 1.248 . S
C117 O118 1.264 . S
C117 O125 1.249 . S
O118 C117 1.264 . S
O119 Mg112 1.986 . S
O119 C123 1.246 . S
O120 Mg115 2.032 . S
O120 C123 1.259 . S
O121 Mg112 2.114 . S
O121 C124 1.252 . S
O122 Mg112 2.251 . S
O122 Mg115 2.079 . S
O122 C124 1.273 . S
C123 O119 1.246 . S
C123 O120 1.259 . S
C124 O121 1.252 . S
C124 O122 1.273 . S
O125 Mg112 2.010 1_655 S
O125 C117 1.249 . S
Mg126 O127 2.028 . S
Mg126 O133 1.986 1_565 S
Mg126 O135 2.114 . S
Mg126 O136 2.251 . S
Mg126 O139 2.010 . S
O127 Mg126 2.028 . S
O127 C130 1.250 . S
O128 Mg129 2.028 . S
O128 C130 1.248 . S
Mg129 O128 2.028 . S
Mg129 O134 2.032 1_565 S
Mg129 O136 2.079 . S
C130 O127 1.250 . S
C130 O128 1.248 . S
C131 O132 1.264 . S
C131 O139 1.249 . S
O132 C131 1.264 . S
O133 Mg126 1.986 1_545 S
O133 C137 1.246 . S
O134 Mg129 2.032 1_545 S
O134 C137 1.259 . S
O135 Mg126 2.114 . S
O135 C138 1.252 . S
O136 Mg126 2.251 . S
O136 Mg129 2.079 . S
O136 C138 1.273 . S
C137 O133 1.246 . S
C137 O134 1.259 . S
C138 O135 1.252 . S
C138 O136 1.273 . S
O139 Mg126 2.010 . S
O139 C131 1.249 . S
Mg140 O141 2.028 . S
Mg140 O147 1.986 . S
Mg140 O149 2.114 . S
Mg140 O150 2.251 . S
Mg140 O153 2.010 1_455 S
O141 Mg140 2.028 . S
O141 C144 1.250 . S
O142 Mg143 2.028 . S
O142 C144 1.248 . S
Mg143 O142 2.028 . S
Mg143 O148 2.032 . S
Mg143 O150 2.079 . S
C144 O141 1.250 . S
C144 O142 1.248 . S
C145 O146 1.264 . S
C145 O153 1.249 . S
O146 C145 1.264 . S
O147 Mg140 1.986 . S
O147 C151 1.246 . S
O148 Mg143 2.032 . S
O148 C151 1.259 . S
O149 Mg140 2.114 . S
O149 C152 1.252 . S
O150 Mg140 2.251 . S
O150 Mg143 2.079 . S
O150 C152 1.273 . S
C151 O147 1.246 . S
C151 O148 1.259 . S
C152 O149 1.252 . S
C152 O150 1.273 . S
O153 Mg140 2.010 1_655 S
O153 C145 1.249 . S
Mg154 O155 2.028 . S
Mg154 O161 1.986 . S
Mg154 O163 2.114 . S
Mg154 O164 2.251 . S
Mg154 O167 2.010 . S
O155 Mg154 2.028 . S
O155 C158 1.250 . S
O156 Mg157 2.028 . S
O156 C158 1.248 . S
Mg157 O156 2.028 . S
Mg157 O162 2.032 . S
Mg157 O164 2.079 . S
C158 O155 1.250 . S
C158 O156 1.248 . S
C159 O160 1.264 . S
C159 O167 1.249 . S
O160 C159 1.264 . S
O161 Mg154 1.986 . S
O161 C165 1.246 . S
O162 Mg157 2.032 . S
O162 C165 1.259 . S
O163 Mg154 2.114 . S
O163 C166 1.252 . S
O164 Mg154 2.251 . S
O164 Mg157 2.079 . S
O164 C166 1.273 . S
C165 O161 1.246 . S
C165 O162 1.259 . S
C166 O163 1.252 . S
C166 O164 1.273 . S
O167 Mg154 2.010 . S
O167 C159 1.249 . S
Mg168 O169 2.028 . S
Mg168 O175 1.986 1_545 S
Mg168 O177 2.114 . S
Mg168 O178 2.251 . S
Mg168 O181 2.010 . S
O169 Mg168 2.028 . S
O169 C172 1.250 . S
O170 Mg171 2.028 . S
O170 C172 1.248 . S
Mg171 O170 2.028 . S
Mg171 O176 2.032 1_545 S
Mg171 O178 2.079 . S
C172 O169 1.250 . S
C172 O170 1.248 . S
C173 O174 1.264 . S
C173 O181 1.249 . S
O174 C173 1.264 . S
O175 Mg168 1.986 1_565 S
O175 C179 1.246 . S
O176 Mg171 2.032 1_565 S
O176 C179 1.259 . S
O177 Mg168 2.114 . S
O177 C180 1.252 . S
O178 Mg168 2.251 . S
O178 Mg171 2.079 . S
O178 C180 1.273 . S
C179 O175 1.246 . S
C179 O176 1.259 . S
C180 O177 1.252 . S
C180 O178 1.273 . S
O181 Mg168 2.010 . S
O181 C173 1.249 . S
Mg182 O183 2.028 . S
Mg182 O189 1.986 . S
Mg182 O191 2.114 . S
Mg182 O192 2.251 . S
Mg182 O195 2.010 1_655 S
O183 Mg182 2.028 . S
O183 C186 1.250 . S
O184 Mg185 2.028 . S
O184 C186 1.248 . S
Mg185 O184 2.028 . S
Mg185 O190 2.032 . S
Mg185 O192 2.079 . S
C186 O183 1.250 . S
C186 O184 1.248 . S
C187 O188 1.264 . S
C187 O195 1.249 . S
O188 C187 1.264 . S
O189 Mg182 1.986 . S
O189 C193 1.246 . S
O190 Mg185 2.032 . S
O190 C193 1.259 . S
O191 Mg182 2.114 . S
O191 C194 1.252 . S
O192 Mg182 2.251 . S
O192 Mg185 2.079 . S
O192 C194 1.273 . S
C193 O189 1.246 . S
C193 O190 1.259 . S
C194 O191 1.252 . S
C194 O192 1.273 . S
O195 Mg182 2.010 1_455 S
O195 C187 1.249 . S
Mg196 O197 2.028 . S
Mg196 O203 1.986 . S
Mg196 O205 2.114 . S
Mg196 O206 2.251 . S
Mg196 O209 2.010 . S
O197 Mg196 2.028 . S
O197 C200 1.250 . S
O198 Mg199 2.028 . S
O198 C200 1.248 . S
Mg199 O198 2.028 . S
Mg199 O204 2.032 . S
Mg199 O206 2.079 . S
C200 O197 1.250 . S
C200 O198 1.248 . S
C201 O202 1.264 . S
C201 O209 1.249 . S
O202 C201 1.264 . S
O203 Mg196 1.986 . S
O203 C207 1.246 . S
O204 Mg199 2.032 . S
O204 C207 1.259 . S
O205 Mg196 2.114 . S
O205 C208 1.252 . S
O206 Mg196 2.251 . S
O206 Mg199 2.079 . S
O206 C208 1.273 . S
C207 O203 1.246 . S
C207 O204 1.259 . S
C208 O205 1.252 . S
C208 O206 1.273 . S
O209 Mg196 2.010 . S
O209 C201 1.249 . S
Mg210 O211 2.028 . S
Mg210 O217 1.986 . S
Mg210 O219 2.114 . S
Mg210 O220 2.251 . S
Mg210 O223 2.010 . S
O211 Mg210 2.028 . S
O211 C214 1.250 . S
O212 Mg213 2.028 . S
O212 C214 1.248 . S
Mg213 O212 2.028 . S
Mg213 O218 2.032 . S
Mg213 O220 2.079 . S
C214 O211 1.250 . S
C214 O212 1.248 . S
C215 O216 1.264 . S
C215 O223 1.249 . S
O216 C215 1.264 . S
O217 Mg210 1.986 . S
O217 C221 1.246 . S
O218 Mg213 2.032 . S
O218 C221 1.259 . S
O219 Mg210 2.114 . S
O219 C222 1.252 . S
O220 Mg210 2.251 . S
O220 Mg213 2.079 . S
O220 C222 1.273 . S
C221 O217 1.246 . S
C221 O218 1.259 . S
C222 O219 1.252 . S
C222 O220 1.273 . S
O223 Mg210 2.010 . S
O223 C215 1.249 . S
Mg224 O225 2.028 . S
Mg224 O231 1.986 1_545 S
Mg224 O233 2.114 . S
Mg224 O234 2.251 . S
Mg224 O237 2.010 . S
O225 Mg224 2.028 . S
O225 C228 1.250 . S
O226 Mg227 2.028 . S
O226 C228 1.248 . S
Mg227 O226 2.028 . S
Mg227 O232 2.032 1_545 S
Mg227 O234 2.079 . S
C228 O225 1.250 . S
C228 O226 1.248 . S
C229 O230 1.264 . S
C229 O237 1.249 . S
O230 C229 1.264 . S
O231 Mg224 1.986 1_565 S
O231 C235 1.246 . S
O232 Mg227 2.032 1_565 S
O232 C235 1.259 . S
O233 Mg224 2.114 . S
O233 C236 1.252 . S
O234 Mg224 2.251 . S
O234 Mg227 2.079 . S
O234 C236 1.273 . S
C235 O231 1.246 . S
C235 O232 1.259 . S
C236 O233 1.252 . S
C236 O234 1.273 . S
O237 Mg224 2.010 . S
O237 C229 1.249 . S
Mg238 O239 2.028 . S
Mg238 O245 1.986 . S
Mg238 O247 2.114 . S
Mg238 O248 2.251 . S
Mg238 O251 2.010 1_655 S
O239 Mg238 2.028 . S
O239 C242 1.250 . S
O240 Mg241 2.028 . S
O240 C242 1.248 . S
Mg241 O240 2.028 . S
Mg241 O246 2.032 . S
Mg241 O248 2.079 . S
C242 O239 1.250 . S
C242 O240 1.248 . S
C243 O244 1.264 . S
C243 O251 1.249 . S
O244 C243 1.264 . S
O245 Mg238 1.986 . S
O245 C249 1.246 . S
O246 Mg241 2.032 . S
O246 C249 1.259 . S
O247 Mg238 2.114 . S
O247 C250 1.252 . S
O248 Mg238 2.251 . S
O248 Mg241 2.079 . S
O248 C250 1.273 . S
C249 O245 1.246 . S
C249 O246 1.259 . S
C250 O247 1.252 . S
C250 O248 1.273 . S
O251 Mg238 2.010 1_455 S
O251 C243 1.249 . S
H252 C260 0.930 . S
H253 C263 0.930 . S
H254 C265 0.930 . S
H255 C266 0.970 . S
H256 C266 0.970 . S
H257 C268 0.930 . S
H258 C270 0.930 . S
H259 C272 0.930 . S
C260 H252 0.930 . S
C260 C261 1.382 . S
C260 C262 1.426 . S
C261 C260 1.382 . S
C261 C265 1.389 . S
C262 C260 1.426 . S
C262 C263 1.375 . S
C262 C266 1.532 . S
C263 H253 0.930 . S
C263 C262 1.375 . S
C263 C264 1.416 . S
C264 C263 1.416 . S
C264 C265 1.371 . S
C265 H254 0.930 . S
C265 C261 1.389 . S
C265 C264 1.371 . S
C266 H255 0.970 . S
C266 H256 0.970 . S
C266 C262 1.532 . S
C266 C267 1.499 . S
C267 C266 1.499 . S
C267 C268 1.370 . S
C267 C272 1.415 . S
C268 H257 0.930 . S
C268 C267 1.370 . S
C268 C269 1.407 . S
C269 C268 1.407 . S
C269 C270 1.365 . S
C270 H258 0.930 . S
C270 C269 1.365 . S
C270 C271 1.393 . S
C271 C270 1.393 . S
C271 C272 1.387 . S
C272 H259 0.930 . S
C272 C267 1.415 . S
C272 C271 1.387 . S
H273 C281 0.930 . S
H274 C284 0.930 . S
H275 C286 0.930 . S
H276 C287 0.970 . S
H277 C287 0.970 . S
H278 C289 0.930 . S
H279 C291 0.930 . S
H280 C293 0.930 . S
C281 H273 0.930 . S
C281 C282 1.382 . S
C281 C283 1.426 . S
C282 C281 1.382 . S
C282 C286 1.389 . S
C283 C281 1.426 . S
C283 C284 1.375 . S
C283 C287 1.532 . S
C284 H274 0.930 . S
C284 C283 1.375 . S
C284 C285 1.416 . S
C285 C284 1.416 . S
C285 C286 1.371 . S
C286 H275 0.930 . S
C286 C282 1.389 . S
C286 C285 1.371 . S
C287 H276 0.970 . S
C287 H277 0.970 . S
C287 C283 1.532 . S
C287 C288 1.499 . S
C288 C287 1.499 . S
C288 C289 1.370 . S
C288 C293 1.415 . S
C289 H278 0.930 . S
C289 C288 1.370 . S
C289 C290 1.407 . S
C290 C289 1.407 . S
C290 C291 1.365 . S
C291 H279 0.930 . S
C291 C290 1.365 . S
C291 C292 1.393 . S
C292 C291 1.393 . S
C292 C293 1.387 . S
C293 H280 0.930 . S
C293 C288 1.415 . S
C293 C292 1.387 . S
H294 C302 0.930 . S
H295 C305 0.930 . S
H296 C307 0.930 . S
H297 C308 0.970 . S
H298 C308 0.970 . S
H299 C310 0.930 . S
H300 C312 0.930 . S
H301 C314 0.930 . S
C302 H294 0.930 . S
C302 C303 1.382 . S
C302 C304 1.426 . S
C303 C302 1.382 . S
C303 C307 1.389 . S
C304 C302 1.426 . S
C304 C305 1.375 . S
C304 C308 1.532 . S
C305 H295 0.930 . S
C305 C304 1.375 . S
C305 C306 1.416 . S
C306 C305 1.416 . S
C306 C307 1.371 . S
C307 H296 0.930 . S
C307 C303 1.389 . S
C307 C306 1.371 . S
C308 H297 0.970 . S
C308 H298 0.970 . S
C308 C304 1.532 . S
C308 C309 1.499 . S
C309 C308 1.499 . S
C309 C310 1.370 . S
C309 C314 1.415 . S
C310 H299 0.930 . S
C310 C309 1.370 . S
C310 C311 1.407 . S
C311 C310 1.407 . S
C311 C312 1.365 . S
C312 H300 0.930 . S
C312 C311 1.365 . S
C312 C313 1.393 . S
C313 C312 1.393 . S
C313 C314 1.387 . S
C314 H301 0.930 . S
C314 C309 1.415 . S
C314 C313 1.387 . S
H315 C323 0.930 . S
H316 C326 0.930 . S
H317 C328 0.930 . S
H318 C329 0.970 . S
H319 C329 0.970 . S
H320 C331 0.930 . S
H321 C333 0.930 . S
H322 C335 0.930 . S
C323 H315 0.930 . S
C323 C324 1.382 . S
C323 C325 1.426 . S
C324 C323 1.382 . S
C324 C328 1.389 . S
C325 C323 1.426 . S
C325 C326 1.375 . S
C325 C329 1.532 . S
C326 H316 0.930 . S
C326 C325 1.375 . S
C326 C327 1.416 . S
C327 C326 1.416 . S
C327 C328 1.371 . S
C328 H317 0.930 . S
C328 C324 1.389 . S
C328 C327 1.371 . S
C329 H318 0.970 . S
C329 H319 0.970 . S
C329 C325 1.532 . S
C329 C330 1.499 . S
C330 C329 1.499 . S
C330 C331 1.370 . S
C330 C335 1.415 . S
C331 H320 0.930 . S
C331 C330 1.370 . S
C331 C332 1.407 . S
C332 C331 1.407 . S
C332 C333 1.365 . S
C333 H321 0.930 . S
C333 C332 1.365 . S
C333 C334 1.393 . S
C334 C333 1.393 . S
C334 C335 1.387 . S
C335 H322 0.930 . S
C335 C330 1.415 . S
C335 C334 1.387 . S
H336 C344 0.930 . S
H337 C347 0.930 . S
H338 C349 0.930 . S
H339 C350 0.970 . S
H340 C350 0.970 . S
H341 C352 0.930 . S
H342 C354 0.930 . S
H343 C356 0.930 . S
C344 H336 0.930 . S
C344 C345 1.382 . S
C344 C346 1.426 . S
C345 C344 1.382 . S
C345 C349 1.389 . S
C346 C344 1.426 . S
C346 C347 1.375 . S
C346 C350 1.532 . S
C347 H337 0.930 . S
C347 C346 1.375 . S
C347 C348 1.416 . S
C348 C347 1.416 . S
C348 C349 1.371 . S
C349 H338 0.930 . S
C349 C345 1.389 . S
C349 C348 1.371 . S
C350 H339 0.970 . S
C350 H340 0.970 . S
C350 C346 1.532 . S
C350 C351 1.499 . S
C351 C350 1.499 . S
C351 C352 1.370 . S
C351 C356 1.415 . S
C352 H341 0.930 . S
C352 C351 1.370 . S
C352 C353 1.407 . S
C353 C352 1.407 . S
C353 C354 1.365 . S
C354 H342 0.930 . S
C354 C353 1.365 . S
C354 C355 1.393 . S
C355 C354 1.393 . S
C355 C356 1.387 . S
C356 H343 0.930 . S
C356 C351 1.415 . S
C356 C355 1.387 . S
H357 C365 0.930 . S
H358 C368 0.930 . S
H359 C370 0.930 . S
H360 C371 0.970 . S
H361 C371 0.970 . S
H362 C373 0.930 . S
H363 C375 0.930 . S
H364 C377 0.930 . S
C365 H357 0.930 . S
C365 C366 1.382 . S
C365 C367 1.426 . S
C366 C365 1.382 . S
C366 C370 1.389 . S
C367 C365 1.426 . S
C367 C368 1.375 . S
C367 C371 1.532 . S
C368 H358 0.930 . S
C368 C367 1.375 . S
C368 C369 1.416 . S
C369 C368 1.416 . S
C369 C370 1.371 . S
C370 H359 0.930 . S
C370 C366 1.389 . S
C370 C369 1.371 . S
C371 H360 0.970 . S
C371 H361 0.970 . S
C371 C367 1.532 . S
C371 C372 1.499 . S
C372 C371 1.499 . S
C372 C373 1.370 . S
C372 C377 1.415 . S
C373 H362 0.930 . S
C373 C372 1.370 . S
C373 C374 1.407 . S
C374 C373 1.407 . S
C374 C375 1.365 . S
C375 H363 0.930 . S
C375 C374 1.365 . S
C375 C376 1.393 . S
C376 C375 1.393 . S
C376 C377 1.387 . S
C377 H364 0.930 . S
C377 C372 1.415 . S
C377 C376 1.387 . S
H378 C386 0.930 . S
H379 C389 0.930 . S
H380 C391 0.930 . S
H381 C392 0.970 . S
H382 C392 0.970 . S
H383 C394 0.930 . S
H384 C396 0.930 . S
H385 C398 0.930 . S
C386 H378 0.930 . S
C386 C387 1.382 . S
C386 C388 1.426 . S
C387 C386 1.382 . S
C387 C391 1.389 . S
C388 C386 1.426 . S
C388 C389 1.375 . S
C388 C392 1.532 . S
C389 H379 0.930 . S
C389 C388 1.375 . S
C389 C390 1.416 . S
C390 C389 1.416 . S
C390 C391 1.371 . S
C391 H380 0.930 . S
C391 C387 1.389 . S
C391 C390 1.371 . S
C392 H381 0.970 . S
C392 H382 0.970 . S
C392 C388 1.532 . S
C392 C393 1.499 . S
C393 C392 1.499 . S
C393 C394 1.370 . S
C393 C398 1.415 . S
C394 H383 0.930 . S
C394 C393 1.370 . S
C394 C395 1.407 . S
C395 C394 1.407 . S
C395 C396 1.365 . S
C396 H384 0.930 . S
C396 C395 1.365 . S
C396 C397 1.393 . S
C397 C396 1.393 . S
C397 C398 1.387 . S
C398 H385 0.930 . S
C398 C393 1.415 . S
C398 C397 1.387 . S
H399 C407 0.930 . S
H400 C410 0.930 . S
H401 C412 0.930 . S
H402 C413 0.970 . S
H403 C413 0.970 . S
H404 C415 0.930 . S
H405 C417 0.930 . S
H406 C419 0.930 . S
C407 H399 0.930 . S
C407 C408 1.382 . S
C407 C409 1.426 . S
C408 C407 1.382 . S
C408 C412 1.389 . S
C409 C407 1.426 . S
C409 C410 1.375 . S
C409 C413 1.532 . S
C410 H400 0.930 . S
C410 C409 1.375 . S
C410 C411 1.416 . S
C411 C410 1.416 . S
C411 C412 1.371 . S
C412 H401 0.930 . S
C412 C408 1.389 . S
C412 C411 1.371 . S
C413 H402 0.970 . S
C413 H403 0.970 . S
C413 C409 1.532 . S
C413 C414 1.499 . S
C414 C413 1.499 . S
C414 C415 1.370 . S
C414 C419 1.415 . S
C415 H404 0.930 . S
C415 C414 1.370 . S
C415 C416 1.407 . S
C416 C415 1.407 . S
C416 C417 1.365 . S
C417 H405 0.930 . S
C417 C416 1.365 . S
C417 C418 1.393 . S
C418 C417 1.393 . S
C418 C419 1.387 . S
C419 H406 0.930 . S
C419 C414 1.415 . S
C419 C418 1.387 . S
H420 C428 0.930 . S
H421 C431 0.930 . S
H422 C433 0.930 . S
H423 C434 0.970 . S
H424 C434 0.970 . S
H425 C436 0.930 . S
H426 C438 0.930 . S
H427 C440 0.930 . S
C428 H420 0.930 . S
C428 C429 1.382 . S
C428 C430 1.426 . S
C429 C428 1.382 . S
C429 C433 1.389 . S
C430 C428 1.426 . S
C430 C431 1.375 . S
C430 C434 1.532 . S
C431 H421 0.930 . S
C431 C430 1.375 . S
C431 C432 1.416 . S
C432 C431 1.416 . S
C432 C433 1.371 . S
C433 H422 0.930 . S
C433 C429 1.389 . S
C433 C432 1.371 . S
C434 H423 0.970 . S
C434 H424 0.970 . S
C434 C430 1.532 . S
C434 C435 1.499 . S
C435 C434 1.499 . S
C435 C436 1.370 . S
C435 C440 1.415 . S
C436 H425 0.930 . S
C436 C435 1.370 . S
C436 C437 1.407 . S
C437 C436 1.407 . S
C437 C438 1.365 . S
C438 H426 0.930 . S
C438 C437 1.365 . S
C438 C439 1.393 . S
C439 C438 1.393 . S
C439 C440 1.387 . S
C440 H427 0.930 . S
C440 C435 1.415 . S
C440 C439 1.387 . S
H441 C449 0.930 . S
H442 C452 0.930 . S
H443 C454 0.930 . S
H444 C455 0.970 . S
H445 C455 0.970 . S
H446 C457 0.930 . S
H447 C459 0.930 . S
H448 C461 0.930 . S
C449 H441 0.930 . S
C449 C450 1.382 . S
C449 C451 1.426 . S
C450 C449 1.382 . S
C450 C454 1.389 1_455 S
C451 C449 1.426 . S
C451 C452 1.375 . S
C451 C455 1.532 . S
C452 H442 0.930 . S
C452 C451 1.375 . S
C452 C453 1.416 . S
C453 C452 1.416 . S
C453 C454 1.371 1_455 S
C454 H443 0.930 . S
C454 C450 1.389 1_655 S
C454 C453 1.371 1_655 S
C455 H444 0.970 . S
C455 H445 0.970 . S
C455 C451 1.532 . S
C455 C456 1.499 . S
C456 C455 1.499 . S
C456 C457 1.370 . S
C456 C461 1.415 . S
C457 H446 0.930 . S
C457 C456 1.370 . S
C457 C458 1.410 . S
C458 C457 1.410 . S
C458 C459 1.368 1_455 S
C459 H447 0.930 . S
C459 C458 1.368 1_655 S
C459 C460 1.393 1_655 S
C460 C459 1.393 1_455 S
C460 C461 1.387 . S
C461 H448 0.930 . S
C461 C456 1.415 . S
C461 C460 1.387 . S
H462 C470 0.930 . S
H463 C473 0.930 . S
H464 C475 0.930 . S
H465 C476 0.970 . S
H466 C476 0.970 . S
H467 C478 0.930 . S
H468 C480 0.930 . S
H469 C482 0.930 . S
C470 H462 0.930 . S
C470 C471 1.382 . S
C470 C472 1.426 . S
C471 C470 1.382 . S
C471 C475 1.389 . S
C472 C470 1.426 . S
C472 C473 1.375 . S
C472 C476 1.532 . S
C473 H463 0.930 . S
C473 C472 1.375 . S
C473 C474 1.416 . S
C474 C473 1.416 . S
C474 C475 1.371 . S
C475 H464 0.930 . S
C475 C471 1.389 . S
C475 C474 1.371 . S
C476 H465 0.970 . S
C476 H466 0.970 . S
C476 C472 1.532 . S
C476 C477 1.499 . S
C477 C476 1.499 . S
C477 C478 1.370 . S
C477 C482 1.415 . S
C478 H467 0.930 . S
C478 C477 1.370 . S
C478 C479 1.407 . S
C479 C478 1.407 . S
C479 C480 1.365 . S
C480 H468 0.930 . S
C480 C479 1.365 . S
C480 C481 1.393 . S
C481 C480 1.393 . S
C481 C482 1.387 . S
C482 H469 0.930 . S
C482 C477 1.415 . S
C482 C481 1.387 . S
H483 C491 0.930 . S
H484 C494 0.930 . S
H485 C496 0.930 . S
H486 C497 0.970 . S
H487 C497 0.970 . S
H488 C499 0.930 . S
H489 C501 0.930 . S
H490 C503 0.930 . S
C491 H483 0.930 . S
C491 C492 1.382 . S
C491 C493 1.426 . S
C492 C491 1.382 . S
C492 C496 1.389 1_565 S
C493 C491 1.426 . S
C493 C494 1.375 . S
C493 C497 1.532 . S
C494 H484 0.930 . S
C494 C493 1.375 . S
C494 C495 1.416 . S
C495 C494 1.416 . S
C495 C496 1.371 1_565 S
C496 H485 0.930 . S
C496 C492 1.389 1_545 S
C496 C495 1.371 1_545 S
C497 H486 0.970 . S
C497 H487 0.970 . S
C497 C493 1.532 . S
C497 C498 1.499 . S
C498 C497 1.499 . S
C498 C499 1.370 . S
C498 C503 1.415 . S
C499 H488 0.930 . S
C499 C498 1.370 . S
C499 C500 1.437 . S
C500 C499 1.437 . S
C500 C501 1.354 1_565 S
C501 H489 0.930 . S
C501 C500 1.354 1_545 S
C501 C502 1.393 1_545 S
C502 C501 1.393 1_565 S
C502 C503 1.387 . S
C503 H490 0.930 . S
C503 C498 1.415 . S
C503 C502 1.387 . S
H504 C512 0.930 . S
H505 C515 0.930 . S
H506 C517 0.930 . S
H507 C518 0.970 . S
H508 C518 0.970 . S
H509 C520 0.930 . S
H510 C522 0.930 . S
H511 C524 0.930 . S
C512 H504 0.930 . S
C512 C513 1.382 . S
C512 C514 1.426 . S
C513 C512 1.382 . S
C513 C517 1.389 1_565 S
C514 C512 1.426 . S
C514 C515 1.375 . S
C514 C518 1.532 . S
C515 H505 0.930 . S
C515 C514 1.375 . S
C515 C516 1.416 . S
C516 C515 1.416 . S
C516 C517 1.371 1_565 S
C517 H506 0.930 . S
C517 C513 1.389 1_545 S
C517 C516 1.371 1_545 S
C518 H507 0.970 . S
C518 H508 0.970 . S
C518 C514 1.532 . S
C518 C519 1.499 . S
C519 C518 1.499 . S
C519 C520 1.370 . S
C519 C524 1.415 . S
C520 H509 0.930 . S
C520 C519 1.370 . S
C520 C521 1.407 . S
C521 C520 1.407 . S
C521 C522 1.365 1_565 S
C522 H510 0.930 . S
C522 C521 1.365 1_545 S
C522 C523 1.393 1_545 S
C523 C522 1.393 1_565 S
C523 C524 1.387 . S
C524 H511 0.930 . S
C524 C519 1.415 . S
C524 C523 1.387 . S
H525 C533 0.930 . S
H526 C536 0.930 . S
H527 C538 0.930 . S
H528 C539 0.970 . S
H529 C539 0.970 . S
H530 C541 0.930 . S
H531 C543 0.930 . S
H532 C545 0.930 . S
C533 H525 0.930 . S
C533 C534 1.382 . S
C533 C535 1.426 . S
C534 C533 1.382 . S
C534 C538 1.389 1_455 S
C535 C533 1.426 . S
C535 C536 1.375 . S
C535 C539 1.532 . S
C536 H526 0.930 . S
C536 C535 1.375 . S
C536 C537 1.416 . S
C537 C536 1.416 . S
C537 C538 1.371 1_455 S
C538 H527 0.930 . S
C538 C534 1.389 1_655 S
C538 C537 1.371 1_655 S
C539 H528 0.970 . S
C539 H529 0.970 . S
C539 C535 1.532 . S
C539 C540 1.499 . S
C540 C539 1.499 . S
C540 C541 1.370 . S
C540 C545 1.415 . S
C541 H530 0.930 . S
C541 C540 1.370 . S
C541 C542 1.407 . S
C542 C541 1.407 . S
C542 C543 1.365 1_455 S
C543 H531 0.930 . S
C543 C542 1.365 1_655 S
C543 C544 1.393 1_655 S
C544 C543 1.393 1_455 S
C544 C545 1.387 . S
C545 H532 0.930 . S
C545 C540 1.415 . S
C545 C544 1.387 . S
H546 C554 0.930 . S
H547 C557 0.930 . S
H548 C559 0.930 . S
H549 C560 0.970 . S
H550 C560 0.970 . S
H551 C562 0.930 . S
H552 C564 0.930 . S
H553 C566 0.930 . S
C554 H546 0.930 . S
C554 C555 1.382 . S
C554 C556 1.426 . S
C555 C554 1.382 . S
C555 C559 1.389 . S
C556 C554 1.426 . S
C556 C557 1.375 . S
C556 C560 1.532 . S
C557 H547 0.930 . S
C557 C556 1.375 . S
C557 C558 1.416 . S
C558 C557 1.416 . S
C558 C559 1.371 . S
C559 H548 0.930 . S
C559 C555 1.389 . S
C559 C558 1.371 . S
C560 H549 0.970 . S
C560 H550 0.970 . S
C560 C556 1.532 . S
C560 C561 1.499 . S
C561 C560 1.499 . S
C561 C562 1.370 . S
C561 C566 1.415 . S
C562 H551 0.930 . S
C562 C561 1.370 . S
C562 C563 1.407 . S
C563 C562 1.407 . S
C563 C564 1.365 . S
C564 H552 0.930 . S
C564 C563 1.365 . S
C564 C565 1.393 . S
C565 C564 1.393 . S
C565 C566 1.387 . S
C566 H553 0.930 . S
C566 C561 1.415 . S
C566 C565 1.387 . S
H567 C575 0.930 . S
H568 C578 0.930 . S
H569 C580 0.930 . S
H570 C581 0.970 . S
H571 C581 0.970 . S
H572 C583 0.930 . S
H573 C585 0.930 . S
H574 C587 0.930 . S
C575 H567 0.930 . S
C575 C576 1.382 . S
C575 C577 1.426 . S
C576 C575 1.382 . S
C576 C580 1.389 . S
C577 C575 1.426 . S
C577 C578 1.375 . S
C577 C581 1.532 . S
C578 H568 0.930 . S
C578 C577 1.375 . S
C578 C579 1.416 . S
C579 C578 1.416 . S
C579 C580 1.371 . S
C580 H569 0.930 . S
C580 C576 1.389 . S
C580 C579 1.371 . S
C581 H570 0.970 . S
C581 H571 0.970 . S
C581 C577 1.532 . S
C581 C582 1.499 . S
C582 C581 1.499 . S
C582 C583 1.370 . S
C582 C587 1.415 . S
C583 H572 0.930 . S
C583 C582 1.370 . S
C583 C584 1.407 . S
C584 C583 1.407 . S
C584 C585 1.365 . S
C585 H573 0.930 . S
C585 C584 1.365 . S
C585 C586 1.393 . S
C586 C585 1.393 . S
C586 C587 1.387 . S
C587 H574 0.930 . S
C587 C582 1.415 . S
C587 C586 1.387 . S
H588 C596 0.930 . S
H589 C599 0.930 . S
H590 C601 0.930 . S
H591 C602 0.970 . S
H592 C602 0.970 . S
H593 C604 0.930 . S
H594 C606 0.930 . S
H595 C608 0.930 . S
C596 H588 0.930 . S
C596 C597 1.382 . S
C596 C598 1.426 . S
C597 C596 1.382 . S
C597 C601 1.389 . S
C598 C596 1.426 . S
C598 C599 1.375 . S
C598 C602 1.532 . S
C599 H589 0.930 . S
C599 C598 1.375 . S
C599 C600 1.416 . S
C600 C599 1.416 . S
C600 C601 1.371 . S
C601 H590 0.930 . S
C601 C597 1.389 . S
C601 C600 1.371 . S
C602 H591 0.970 . S
C602 H592 0.970 . S
C602 C598 1.532 . S
C602 C603 1.499 . S
C603 C602 1.499 . S
C603 C604 1.370 . S
C603 C608 1.415 . S
C604 H593 0.930 . S
C604 C603 1.370 . S
C604 C605 1.407 . S
C605 C604 1.407 . S
C605 C606 1.365 . S
C606 H594 0.930 . S
C606 C605 1.365 . S
C606 C607 1.393 . S
C607 C606 1.393 . S
C607 C608 1.387 . S
C608 H595 0.930 . S
C608 C603 1.415 . S
C608 C607 1.387 . S
H609 C617 0.930 . S
H610 C620 0.930 . S
H611 C622 0.930 . S
H612 C623 0.970 . S
H613 C623 0.970 . S
H614 C625 0.930 . S
H615 C627 0.930 . S
H616 C629 0.930 . S
C617 H609 0.930 . S
C617 C618 1.382 . S
C617 C619 1.426 . S
C618 C617 1.382 . S
C618 C622 1.389 . S
C619 C617 1.426 . S
C619 C620 1.375 . S
C619 C623 1.532 . S
C620 H610 0.930 . S
C620 C619 1.375 . S
C620 C621 1.416 . S
C621 C620 1.416 . S
C621 C622 1.371 . S
C622 H611 0.930 . S
C622 C618 1.389 . S
C622 C621 1.371 . S
C623 H612 0.970 . S
C623 H613 0.970 . S
C623 C619 1.532 . S
C623 C624 1.499 . S
C624 C623 1.499 . S
C624 C625 1.370 . S
C624 C629 1.415 . S
C625 H614 0.930 . S
C625 C624 1.370 . S
C625 C626 1.407 . S
C626 C625 1.407 . S
C626 C627 1.365 . S
C627 H615 0.930 . S
C627 C626 1.365 . S
C627 C628 1.393 . S
C628 C627 1.393 . S
C628 C629 1.387 . S
C629 H616 0.930 . S
C629 C624 1.415 . S
C629 C628 1.387 . S
C630 C631 1.391 . S
C630 C632 1.394 . S
C630 H646 0.931 . S
C631 C630 1.391 . S
C631 C635 1.376 1_655 S
C632 C630 1.394 . S
C632 C633 1.369 . S
C632 C636 1.531 . S
C633 C632 1.369 . S
C633 C634 1.409 1_655 S
C633 C641 1.503 . S
C634 C633 1.409 1_455 S
C634 C635 1.392 . S
C634 C637 1.511 . S
C635 C631 1.376 1_455 S
C635 C634 1.392 . S
C635 H647 0.929 . S
C636 C632 1.531 . S
C636 H648 0.960 . S
C636 H649 0.962 . S
C636 H650 0.960 . S
C637 C634 1.511 . S
C637 H651 0.961 . S
C637 H652 0.961 . S
C637 H653 0.961 . S
C638 C639 1.370 . S
C638 C640 1.363 . S
C638 H654 0.931 . S
C639 C638 1.370 . S
C639 C643 1.408 1_655 S
C640 C638 1.363 . S
C640 C641 1.370 . S
C640 C644 1.524 . S
C641 C633 1.503 . S
C641 C640 1.370 . S
C641 C642 1.403 1_655 S
C642 C641 1.403 1_455 S
C642 C643 1.404 . S
C642 C645 1.539 . S
C643 C639 1.408 1_455 S
C643 C642 1.404 . S
C643 H655 0.930 . S
C644 C640 1.524 . S
C644 H656 0.956 . S
C644 H657 0.961 . S
C644 H658 0.961 . S
C645 C642 1.539 . S
C645 H659 0.958 . S
C645 H660 0.961 . S
C645 H661 0.960 . S
H646 C630 0.931 . S
H647 C635 0.929 . S
H648 C636 0.960 . S
H649 C636 0.962 . S
H650 C636 0.960 . S
H651 C637 0.961 . S
H652 C637 0.961 . S
H653 C637 0.961 . S
H654 C638 0.931 . S
H655 C643 0.930 . S
H656 C644 0.956 . S
H657 C644 0.961 . S
H658 C644 0.961 . S
H659 C645 0.958 . S
H660 C645 0.961 . S
H661 C645 0.960 . S
C662 C663 1.391 . S
C662 C664 1.394 . S
C662 H678 0.931 . S
C663 C662 1.391 . S
C663 C667 1.376 . S
C664 C662 1.394 . S
C664 C665 1.369 . S
C664 C668 1.531 . S
C665 C664 1.369 . S
C665 C666 1.410 . S
C665 C673 1.503 . S
C666 C665 1.410 . S
C666 C667 1.392 . S
C666 C669 1.511 . S
C667 C663 1.376 . S
C667 C666 1.392 . S
C667 H679 0.929 . S
C668 C664 1.531 . S
C668 H680 0.960 . S
C668 H681 0.962 . S
C668 H682 0.960 . S
C669 C666 1.511 . S
C669 H683 0.961 . S
C669 H684 0.961 . S
C669 H685 0.961 . S
C670 C671 1.370 . S
C670 C672 1.363 . S
C670 H686 0.931 . S
C671 C670 1.370 . S
C671 C675 1.408 . S
C672 C670 1.363 . S
C672 C673 1.370 . S
C672 C676 1.524 . S
C673 C665 1.503 . S
C673 C672 1.370 . S
C673 C674 1.403 . S
C674 C673 1.403 . S
C674 C675 1.404 . S
C674 C677 1.539 . S
C675 C671 1.408 . S
C675 C674 1.404 . S
C675 H687 0.930 . S
C676 C672 1.524 . S
C676 H688 0.956 . S
C676 H689 0.961 . S
C676 H690 0.961 . S
C677 C674 1.539 . S
C677 H691 0.958 . S
C677 H692 0.961 . S
C677 H693 0.960 . S
H678 C662 0.931 . S
H679 C667 0.929 . S
H680 C668 0.960 . S
H681 C668 0.962 . S
H682 C668 0.960 . S
H683 C669 0.961 . S
H684 C669 0.961 . S
H685 C669 0.961 . S
H686 C670 0.931 . S
H687 C675 0.930 . S
H688 C676 0.956 . S
H689 C676 0.961 . S
H690 C676 0.961 . S
H691 C677 0.958 . S
H692 C677 0.961 . S
H693 C677 0.960 . S
C694 C695 1.391 1_565 S
C694 C696 1.394 . S
C694 H710 0.931 . S
C695 C694 1.391 1_545 S
C695 C699 1.376 . S
C696 C694 1.394 . S
C696 C697 1.369 1_565 S
C696 C700 1.531 . S
C697 C696 1.369 1_545 S
C697 C698 1.410 . S
C697 C705 1.503 . S
C698 C697 1.410 . S
C698 C699 1.392 . S
C698 C701 1.511 . S
C699 C695 1.376 . S
C699 C698 1.392 . S
C699 H711 0.929 . S
C700 C696 1.531 . S
C700 H712 0.960 . S
C700 H713 0.962 . S
C700 H714 0.960 . S
C701 C698 1.511 . S
C701 H715 0.961 . S
C701 H716 0.961 . S
C701 H717 0.961 . S
C702 C703 1.370 . S
C702 C704 1.363 . S
C702 H718 0.930 1_545 S
C703 C702 1.370 . S
C703 C707 1.408 . S
C704 C702 1.363 . S
C704 C705 1.370 . S
C704 C708 1.524 . S
C705 C697 1.503 . S
C705 C704 1.370 . S
C705 C706 1.403 . S
C706 C705 1.403 . S
C706 C707 1.404 . S
C706 C709 1.539 . S
C707 C703 1.408 . S
C707 C706 1.404 . S
C707 H719 0.930 . S
C708 C704 1.524 . S
C708 H720 0.956 1_545 S
C708 H721 0.961 . S
C708 H722 0.966 . S
C709 C706 1.539 . S
C709 H723 0.983 . S
C709 H724 0.961 . S
C709 H725 0.960 . S
H710 C694 0.931 . S
H711 C699 0.929 . S
H712 C700 0.960 . S
H713 C700 0.962 . S
H714 C700 0.960 . S
H715 C701 0.961 . S
H716 C701 0.961 . S
H717 C701 0.961 . S
H718 C702 0.930 1_565 S
H719 C707 0.930 . S
H720 C708 0.956 1_565 S
H721 C708 0.961 . S
H722 C708 0.966 . S
H723 C709 0.983 . S
H724 C709 0.961 . S
H725 C709 0.960 . S
C726 C727 1.391 . S
C726 C728 1.394 . S
C726 H742 0.931 . S
C727 C726 1.391 . S
C727 C731 1.376 . S
C728 C726 1.394 . S
C728 C729 1.369 . S
C728 C732 1.531 . S
C729 C728 1.369 . S
C729 C730 1.410 . S
C729 C737 1.503 . S
C730 C729 1.410 . S
C730 C731 1.392 . S
C730 C733 1.511 . S
C731 C727 1.376 . S
C731 C730 1.392 . S
C731 H743 0.929 . S
C732 C728 1.531 . S
C732 H744 0.960 . S
C732 H745 0.962 . S
C732 H746 0.960 . S
C733 C730 1.511 . S
C733 H747 0.961 1_565 S
C733 H748 0.961 1_565 S
C733 H749 0.961 . S
C734 C735 1.370 1_545 S
C734 C736 1.363 . S
C734 H750 0.931 . S
C735 C734 1.370 1_565 S
C735 C739 1.408 . S
C736 C734 1.363 . S
C736 C737 1.370 1_545 S
C736 C740 1.524 . S
C737 C729 1.503 . S
C737 C736 1.370 1_565 S
C737 C738 1.403 . S
C738 C737 1.403 . S
C738 C739 1.404 . S
C738 C741 1.539 . S
C739 C735 1.408 . S
C739 C738 1.404 . S
C739 H751 0.930 . S
C740 C736 1.524 . S
C740 H752 0.956 . S
C740 H753 0.961 . S
C740 H754 0.961 . S
C741 C738 1.539 . S
C741 H755 0.958 . S
C741 H756 0.961 . S
C741 H757 0.960 . S
H742 C726 0.931 . S
H743 C731 0.929 . S
H744 C732 0.960 . S
H745 C732 0.962 . S
H746 C732 0.960 . S
H747 C733 0.961 1_545 S
H748 C733 0.961 1_545 S
H749 C733 0.961 . S
H750 C734 0.931 . S
H751 C739 0.930 . S
H752 C740 0.956 . S
H753 C740 0.961 . S
H754 C740 0.961 . S
H755 C741 0.958 . S
H756 C741 0.961 . S
H757 C741 0.960 . S
C758 C759 1.391 . S
C758 C760 1.394 . S
C758 H774 0.931 . S
C759 C758 1.391 . S
C759 C763 1.376 1_455 S
C760 C758 1.394 . S
C760 C761 1.369 . S
C760 C764 1.531 . S
C761 C760 1.369 . S
C761 C762 1.410 1_455 S
C761 C769 1.503 . S
C762 C761 1.410 1_655 S
C762 C763 1.392 . S
C762 C765 1.511 . S
C763 C759 1.376 1_655 S
C763 C762 1.392 . S
C763 H775 0.929 . S
C764 C760 1.531 . S
C764 H776 0.960 . S
C764 H777 0.962 . S
C764 H778 0.960 . S
C765 C762 1.511 . S
C765 H779 0.961 . S
C765 H780 0.961 . S
C765 H781 0.961 . S
C766 C767 1.370 1_655 S
C766 C768 1.377 . S
C766 H782 0.931 . S
C767 C766 1.370 1_455 S
C767 C771 1.408 . S
C768 C766 1.377 . S
C768 C769 1.346 1_655 S
C768 C772 1.535 . S
C769 C761 1.503 . S
C769 C768 1.346 1_455 S
C769 C770 1.403 . S
C770 C769 1.403 . S
C770 C771 1.404 . S
C770 C773 1.539 . S
C771 C767 1.408 . S
C771 C770 1.404 . S
C771 H783 0.930 . S
C772 C768 1.535 . S
C772 H784 0.929 1_655 S
C772 H785 0.961 . S
C772 H786 0.961 . S
C773 C770 1.539 . S
C773 H787 0.958 . S
C773 H788 0.961 . S
C773 H789 0.960 . S
H774 C758 0.931 . S
H775 C763 0.929 . S
H776 C764 0.960 . S
H777 C764 0.962 . S
H778 C764 0.960 . S
H779 C765 0.961 . S
H780 C765 0.961 . S
H781 C765 0.961 . S
H782 C766 0.931 . S
H783 C771 0.930 . S
H784 C772 0.929 1_455 S
H785 C772 0.961 . S
H786 C772 0.961 . S
H787 C773 0.958 . S
H788 C773 0.961 . S
H789 C773 0.960 . S
C790 C791 1.391 . S
C790 C792 1.394 . S
C790 H806 0.931 . S
C791 C790 1.391 . S
C791 C795 1.376 . S
C792 C790 1.394 . S
C792 C793 1.369 . S
C792 C796 1.531 . S
C793 C792 1.369 . S
C793 C794 1.410 . S
C793 C801 1.503 . S
C794 C793 1.410 . S
C794 C795 1.392 . S
C794 C797 1.511 . S
C795 C791 1.376 . S
C795 C794 1.392 . S
C795 H807 0.929 . S
C796 C792 1.531 . S
C796 H808 0.960 . S
C796 H809 0.962 . S
C796 H810 0.960 . S
C797 C794 1.511 . S
C797 H811 0.961 . S
C797 H812 0.961 . S
C797 H813 0.961 . S
C798 C799 1.370 . S
C798 C800 1.363 . S
C798 H814 0.931 . S
C799 C798 1.370 . S
C799 C803 1.408 . S
C800 C798 1.363 . S
C800 C801 1.370 . S
C800 C804 1.524 . S
C801 C793 1.503 . S
C801 C800 1.370 . S
C801 C802 1.403 . S
C802 C801 1.403 . S
C802 C803 1.404 . S
C802 C805 1.539 . S
C803 C799 1.408 . S
C803 C802 1.404 . S
C803 H815 0.930 . S
C804 C800 1.524 . S
C804 H816 0.956 . S
C804 H817 0.961 . S
C804 H818 0.961 . S
C805 C802 1.539 . S
C805 H819 0.958 . S
C805 H820 0.961 . S
C805 H821 0.960 . S
H806 C790 0.931 . S
H807 C795 0.929 . S
H808 C796 0.960 . S
H809 C796 0.962 . S
H810 C796 0.960 . S
H811 C797 0.961 . S
H812 C797 0.961 . S
H813 C797 0.961 . S
H814 C798 0.931 . S
H815 C803 0.930 . S
H816 C804 0.956 . S
H817 C804 0.961 . S
H818 C804 0.961 . S
H819 C805 0.958 . S
H820 C805 0.961 . S
H821 C805 0.960 . S
C822 C823 1.391 . S
C822 C824 1.394 . S
C822 H838 0.931 . S
C823 C822 1.391 . S
C823 C827 1.376 1_455 S
C824 C822 1.394 . S
C824 C825 1.369 . S
C824 C828 1.531 . S
C825 C824 1.369 . S
C825 C826 1.410 1_455 S
C825 C833 1.503 . S
C826 C825 1.410 1_655 S
C826 C827 1.392 . S
C826 C829 1.511 . S
C827 C823 1.376 1_655 S
C827 C826 1.392 . S
C827 H839 0.929 . S
C828 C824 1.531 . S
C828 H840 0.960 . S
C828 H841 0.962 . S
C828 H842 0.960 . S
C829 C826 1.511 . S
C829 H843 0.961 . S
C829 H844 0.961 . S
C829 H845 0.961 . S
C830 C831 1.385 . S
C830 C832 1.363 . S
C830 H846 0.931 . S
C831 C830 1.385 . S
C831 C835 1.372 1_455 S
C832 C830 1.363 . S
C832 C833 1.370 . S
C832 C836 1.524 . S
C833 C825 1.503 . S
C833 C832 1.370 . S
C833 C834 1.403 1_455 S
C834 C833 1.403 1_655 S
C834 C835 1.404 . S
C834 C837 1.539 . S
C835 C831 1.372 1_655 S
C835 C834 1.404 . S
C835 H847 0.930 . S
C836 C832 1.524 . S
C836 H848 0.956 . S
C836 H849 0.961 . S
C836 H850 0.961 . S
C837 C834 1.539 . S
C837 H851 0.958 . S
C837 H852 0.961 . S
C837 H853 0.960 . S
H838 C822 0.931 . S
H839 C827 0.929 . S
H840 C828 0.960 . S
H841 C828 0.962 . S
H842 C828 0.960 . S
H843 C829 0.961 . S
H844 C829 0.961 . S
H845 C829 0.961 . S
H846 C830 0.931 . S
H847 C835 0.930 . S
H848 C836 0.956 . S
H849 C836 0.961 . S
H850 C836 0.961 . S
H851 C837 0.958 . S
H852 C837 0.961 . S
H853 C837 0.960 . S
C854 C855 1.391 . S
C854 C856 1.394 . S
C854 H870 0.931 . S
C855 C854 1.391 . S
C855 C859 1.376 . S
C856 C854 1.394 . S
C856 C857 1.369 . S
C856 C860 1.531 . S
C857 C856 1.369 . S
C857 C858 1.410 . S
C857 C865 1.503 . S
C858 C857 1.410 . S
C858 C859 1.392 . S
C858 C861 1.511 . S
C859 C855 1.376 . S
C859 C858 1.392 . S
C859 H871 0.929 . S
C860 C856 1.531 . S
C860 H872 0.960 . S
C860 H873 0.962 . S
C860 H874 0.960 . S
C861 C858 1.511 . S
C861 H875 0.961 . S
C861 H876 0.961 . S
C861 H877 0.961 . S
C862 C863 1.370 . S
C862 C864 1.363 . S
C862 H878 0.931 . S
C863 C862 1.370 . S
C863 C867 1.408 . S
C864 C862 1.363 . S
C864 C865 1.370 . S
C864 C868 1.524 . S
C865 C857 1.503 . S
C865 C864 1.370 . S
C865 C866 1.403 . S
C866 C865 1.403 . S
C866 C867 1.404 . S
C866 C869 1.539 . S
C867 C863 1.408 . S
C867 C866 1.404 . S
C867 H879 0.930 . S
C868 C864 1.524 . S
C868 H880 0.956 . S
C868 H881 0.961 . S
C868 H882 0.961 . S
C869 C866 1.539 . S
C869 H883 0.958 . S
C869 H884 0.961 . S
C869 H885 0.960 . S
H870 C854 0.931 . S
H871 C859 0.929 . S
H872 C860 0.960 . S
H873 C860 0.962 . S
H874 C860 0.960 . S
H875 C861 0.961 . S
H876 C861 0.961 . S
H877 C861 0.961 . S
H878 C862 0.931 . S
H879 C867 0.930 . S
H880 C868 0.956 . S
H881 C868 0.961 . S
H882 C868 0.961 . S
H883 C869 0.958 . S
H884 C869 0.961 . S
H885 C869 0.960 . S
C886 C887 1.391 . S
C886 C888 1.394 . S
C886 H902 0.931 1_565 S
C887 C886 1.391 . S
C887 C891 1.376 . S
C888 C886 1.394 . S
C888 C889 1.369 . S
C888 C892 1.531 1_565 S
C889 C888 1.369 . S
C889 C890 1.410 . S
C889 C897 1.503 . S
C890 C889 1.410 . S
C890 C891 1.392 . S
C890 C893 1.511 . S
C891 C887 1.376 . S
C891 C890 1.392 . S
C891 H903 0.929 . S
C892 C888 1.531 1_545 S
C892 H904 0.960 1_545 S
C892 H905 0.962 . S
C892 H906 0.937 1_545 S
C893 C890 1.511 . S
C893 H907 0.961 . S
C893 H908 0.961 . S
C893 H909 0.961 . S
C894 C895 1.370 1_545 S
C894 C896 1.363 . S
C894 H910 0.931 . S
C895 C894 1.370 1_565 S
C895 C899 1.408 . S
C896 C894 1.363 . S
C896 C897 1.370 1_545 S
C896 C900 1.524 . S
C897 C889 1.503 . S
C897 C896 1.370 1_565 S
C897 C898 1.403 . S
C898 C897 1.403 . S
C898 C899 1.404 . S
C898 C901 1.539 . S
C899 C895 1.408 . S
C899 C898 1.404 . S
C899 H911 0.930 . S
C900 C896 1.524 . S
C900 H912 0.956 . S
C900 H913 0.961 . S
C900 H914 0.961 . S
C901 C898 1.539 . S
C901 H915 0.958 . S
C901 H916 0.961 . S
C901 H917 0.960 . S
H902 C886 0.931 1_545 S
H903 C891 0.929 . S
H904 C892 0.960 1_565 S
H905 C892 0.962 . S
H906 C892 0.937 1_565 S
H907 C893 0.961 . S
H908 C893 0.961 . S
H909 C893 0.961 . S
H910 C894 0.931 . S
H911 C899 0.930 . S
H912 C900 0.956 . S
H913 C900 0.961 . S
H914 C900 0.961 . S
H915 C901 0.958 . S
H916 C901 0.961 . S
H917 C901 0.960 . S
C918 C919 1.391 . S
C918 C920 1.394 . S
C918 H934 0.931 . S
C919 C918 1.391 . S
C919 C923 1.376 . S
C920 C918 1.394 . S
C920 C921 1.369 . S
C920 C924 1.531 . S
C921 C920 1.369 . S
C921 C922 1.415 . S
C921 C929 1.503 . S
C922 C921 1.415 . S
C922 C923 1.388 . S
C922 C925 1.510 1_545 S
C923 C919 1.376 . S
C923 C922 1.388 . S
C923 H935 0.929 1_545 S
C924 C920 1.531 . S
C924 H936 0.960 . S
C924 H937 0.962 . S
C924 H938 0.960 . S
C925 C922 1.510 1_565 S
C925 H939 0.961 . S
C925 H940 0.961 . S
C925 H941 0.961 . S
C926 C927 1.370 1_565 S
C926 C928 1.363 . S
C926 H942 0.931 . S
C927 C926 1.370 1_545 S
C927 C931 1.408 . S
C928 C926 1.363 . S
C928 C929 1.370 1_565 S
C928 C932 1.524 . S
C929 C921 1.503 . S
C929 C928 1.370 1_545 S
C929 C930 1.403 . S
C930 C929 1.403 . S
C930 C931 1.404 . S
C930 C933 1.539 . S
C931 C927 1.408 . S
C931 C930 1.404 . S
C931 H943 0.930 . S
C932 C928 1.524 . S
C932 H944 0.956 . S
C932 H945 0.961 . S
C932 H946 0.961 . S
C933 C930 1.539 . S
C933 H947 0.958 . S
C933 H948 0.961 . S
C933 H949 0.960 . S
H934 C918 0.931 . S
H935 C923 0.929 1_565 S
H936 C924 0.960 . S
H937 C924 0.962 . S
H938 C924 0.960 . S
H939 C925 0.961 . S
H940 C925 0.961 . S
H941 C925 0.961 . S
H942 C926 0.931 . S
H943 C931 0.930 . S
H944 C932 0.956 . S
H945 C932 0.961 . S
H946 C932 0.961 . S
H947 C933 0.958 . S
H948 C933 0.961 . S
H949 C933 0.960 . S
C950 C951 1.391 . S
C950 C952 1.394 . S
C950 H966 0.931 . S
C951 C950 1.391 . S
C951 C955 1.376 1_655 S
C952 C950 1.394 . S
C952 C953 1.369 . S
C952 C956 1.531 . S
C953 C952 1.369 . S
C953 C954 1.410 1_655 S
C953 C961 1.503 . S
C954 C953 1.410 1_455 S
C954 C955 1.392 . S
C954 C957 1.511 . S
C955 C951 1.376 1_455 S
C955 C954 1.392 . S
C955 H967 0.929 . S
C956 C952 1.531 . S
C956 H968 0.960 . S
C956 H969 0.962 . S
C956 H970 0.960 . S
C957 C954 1.511 . S
C957 H971 0.961 . S
C957 H972 0.961 . S
C957 H973 0.961 . S
C958 C959 1.370 . S
C958 C960 1.363 . S
C958 H974 0.931 . S
C959 C958 1.370 . S
C959 C963 1.408 1_655 S
C960 C958 1.363 . S
C960 C961 1.370 . S
C960 C964 1.524 . S
C961 C953 1.503 . S
C961 C960 1.370 . S
C961 C962 1.405 1_655 S
C962 C961 1.405 1_455 S
C962 C963 1.402 . S
C962 C965 1.538 . S
C963 C959 1.408 1_455 S
C963 C962 1.402 . S
C963 H975 0.930 . S
C964 C960 1.524 . S
C964 H976 0.956 . S
C964 H977 0.961 1_655 S
C964 H978 0.961 . S
C965 C962 1.538 . S
C965 H979 0.958 1_455 S
C965 H980 0.961 . S
C965 H981 0.960 . S
H966 C950 0.931 . S
H967 C955 0.929 . S
H968 C956 0.960 . S
H969 C956 0.962 . S
H970 C956 0.960 . S
H971 C957 0.961 . S
H972 C957 0.961 . S
H973 C957 0.961 . S
H974 C958 0.931 . S
H975 C963 0.930 . S
H976 C964 0.956 . S
H977 C964 0.961 1_455 S
H978 C964 0.961 . S
H979 C965 0.958 1_655 S
H980 C965 0.961 . S
H981 C965 0.960 . S
C982 C983 1.391 . S
C982 C984 1.394 . S
C982 H998 0.931 . S
C983 C982 1.391 . S
C983 C987 1.376 . S
C984 C982 1.394 . S
C984 C985 1.369 . S
C984 C988 1.531 . S
C985 C984 1.369 . S
C985 C986 1.410 . S
C985 C993 1.503 . S
C986 C985 1.410 . S
C986 C987 1.392 . S
C986 C989 1.511 . S
C987 C983 1.376 . S
C987 C986 1.392 . S
C987 H999 0.929 . S
C988 C984 1.531 . S
C988 H1000 0.960 . S
C988 H1001 0.962 . S
C988 H1002 0.960 . S
C989 C986 1.511 . S
C989 H1003 0.961 . S
C989 H1004 0.961 . S
C989 H1005 0.961 . S
C990 C991 1.370 . S
C990 C992 1.363 . S
C990 H1006 0.931 . S
C991 C990 1.370 . S
C991 C995 1.408 . S
C992 C990 1.363 . S
C992 C993 1.370 . S
C992 C996 1.524 . S
C993 C985 1.503 . S
C993 C992 1.370 . S
C993 C994 1.403 . S
C994 C993 1.403 . S
C994 C995 1.404 . S
C994 C997 1.539 . S
C995 C991 1.408 . S
C995 C994 1.404 . S
C995 H1007 0.930 . S
C996 C992 1.524 . S
C996 H1008 0.956 . S
C996 H1009 0.961 . S
C996 H1010 0.961 . S
C997 C994 1.539 . S
C997 H1011 0.958 . S
C997 H1012 0.961 . S
C997 H1013 0.960 . S
H998 C982 0.931 . S
H999 C987 0.929 . S
H1000 C988 0.960 . S
H1001 C988 0.962 . S
H1002 C988 0.960 . S
H1003 C989 0.961 . S
H1004 C989 0.961 . S
H1005 C989 0.961 . S
H1006 C990 0.931 . S
H1007 C995 0.930 . S
H1008 C996 0.956 . S
H1009 C996 0.961 . S
H1010 C996 0.961 . S
H1011 C997 0.958 . S
H1012 C997 0.961 . S
H1013 C997 0.960 . S
C1014 C1015 1.391 . S
C1014 C1016 1.394 . S
C1014 H1030 0.931 . S
C1015 C1014 1.391 . S
C1015 C1019 1.376 . S
C1016 C1014 1.394 . S
C1016 C1017 1.369 . S
C1016 C1020 1.531 . S
C1017 C1016 1.369 . S
C1017 C1018 1.410 . S
C1017 C1025 1.503 . S
C1018 C1017 1.410 . S
C1018 C1019 1.392 . S
C1018 C1021 1.511 . S
C1019 C1015 1.376 . S
C1019 C1018 1.392 . S
C1019 H1031 0.929 . S
C1020 C1016 1.531 . S
C1020 H1032 0.960 . S
C1020 H1033 0.962 . S
C1020 H1034 0.960 . S
C1021 C1018 1.511 . S
C1021 H1035 0.961 . S
C1021 H1036 0.961 . S
C1021 H1037 0.961 . S
C1022 C1023 1.370 . S
C1022 C1024 1.363 . S
C1022 H1038 0.931 . S
C1023 C1022 1.370 . S
C1023 C1027 1.408 . S
C1024 C1022 1.363 . S
C1024 C1025 1.370 . S
C1024 C1028 1.524 . S
C1025 C1017 1.503 . S
C1025 C1024 1.370 . S
C1025 C1026 1.403 . S
C1026 C1025 1.403 . S
C1026 C1027 1.404 . S
C1026 C1029 1.539 . S
C1027 C1023 1.408 . S
C1027 C1026 1.404 . S
C1027 H1039 0.930 . S
C1028 C1024 1.524 . S
C1028 H1040 0.956 . S
C1028 H1041 0.961 . S
C1028 H1042 0.961 . S
C1029 C1026 1.539 . S
C1029 H1043 0.958 . S
C1029 H1044 0.961 . S
C1029 H1045 0.960 . S
H1030 C1014 0.931 . S
H1031 C1019 0.929 . S
H1032 C1020 0.960 . S
H1033 C1020 0.962 . S
H1034 C1020 0.960 . S
H1035 C1021 0.961 . S
H1036 C1021 0.961 . S
H1037 C1021 0.961 . S
H1038 C1022 0.931 . S
H1039 C1027 0.930 . S
H1040 C1028 0.956 . S
H1041 C1028 0.961 . S
H1042 C1028 0.961 . S
H1043 C1029 0.958 . S
H1044 C1029 0.961 . S
H1045 C1029 0.960 . S
C1046 C1047 1.391 . S
C1046 C1048 1.394 . S
C1046 H1062 0.931 . S
C1047 C1046 1.391 . S
C1047 C1051 1.376 . S
C1048 C1046 1.394 . S
C1048 C1049 1.369 . S
C1048 C1052 1.531 . S
C1049 C1048 1.369 . S
C1049 C1050 1.410 . S
C1049 C1057 1.503 . S
C1050 C1049 1.410 . S
C1050 C1051 1.392 . S
C1050 C1053 1.511 . S
C1051 C1047 1.376 . S
C1051 C1050 1.392 . S
C1051 H1063 0.929 . S
C1052 C1048 1.531 . S
C1052 H1064 0.960 . S
C1052 H1065 0.962 . S
C1052 H1066 0.960 . S
C1053 C1050 1.511 . S
C1053 H1067 0.961 . S
C1053 H1068 0.961 . S
C1053 H1069 0.961 . S
C1054 C1055 1.370 . S
C1054 C1056 1.363 . S
C1054 H1070 0.931 . S
C1055 C1054 1.370 . S
C1055 C1059 1.408 . S
C1056 C1054 1.363 . S
C1056 C1057 1.370 . S
C1056 C1060 1.524 . S
C1057 C1049 1.503 . S
C1057 C1056 1.370 . S
C1057 C1058 1.403 . S
C1058 C1057 1.403 . S
C1058 C1059 1.404 . S
C1058 C1061 1.539 . S
C1059 C1055 1.408 . S
C1059 C1058 1.404 . S
C1059 H1071 0.930 . S
C1060 C1056 1.524 . S
C1060 H1072 0.956 . S
C1060 H1073 0.961 . S
C1060 H1074 0.961 . S
C1061 C1058 1.539 . S
C1061 H1075 0.958 . S
C1061 H1076 0.961 . S
C1061 H1077 0.960 . S
H1062 C1046 0.931 . S
H1063 C1051 0.929 . S
H1064 C1052 0.960 . S
H1065 C1052 0.962 . S
H1066 C1052 0.960 . S
H1067 C1053 0.961 . S
H1068 C1053 0.961 . S
H1069 C1053 0.961 . S
H1070 C1054 0.931 . S
H1071 C1059 0.930 . S
H1072 C1060 0.956 . S
H1073 C1060 0.961 . S
H1074 C1060 0.961 . S
H1075 C1061 0.958 . S
H1076 C1061 0.961 . S
H1077 C1061 0.960 . S
C1078 C1079 1.391 . S
C1078 C1080 1.394 . S
C1078 H1094 0.931 . S
C1079 C1078 1.391 . S
C1079 C1083 1.376 . S
C1080 C1078 1.394 . S
C1080 C1081 1.369 . S
C1080 C1084 1.531 . S
C1081 C1080 1.369 . S
C1081 C1082 1.410 . S
C1081 C1089 1.503 . S
C1082 C1081 1.410 . S
C1082 C1083 1.392 . S
C1082 C1085 1.511 . S
C1083 C1079 1.376 . S
C1083 C1082 1.392 . S
C1083 H1095 0.929 . S
C1084 C1080 1.531 . S
C1084 H1096 0.960 . S
C1084 H1097 0.962 . S
C1084 H1098 0.960 . S
C1085 C1082 1.511 . S
C1085 H1099 0.961 . S
C1085 H1100 0.961 . S
C1085 H1101 0.961 . S
C1086 C1087 1.370 . S
C1086 C1088 1.363 . S
C1086 H1102 0.931 . S
C1087 C1086 1.370 . S
C1087 C1091 1.408 . S
C1088 C1086 1.363 . S
C1088 C1089 1.370 . S
C1088 C1092 1.524 . S
C1089 C1081 1.503 . S
C1089 C1088 1.370 . S
C1089 C1090 1.403 . S
C1090 C1089 1.403 . S
C1090 C1091 1.404 . S
C1090 C1093 1.539 . S
C1091 C1087 1.408 . S
C1091 C1090 1.404 . S
C1091 H1103 0.930 . S
C1092 C1088 1.524 . S
C1092 H1104 0.956 . S
C1092 H1105 0.961 . S
C1092 H1106 0.961 . S
C1093 C1090 1.539 . S
C1093 H1107 0.958 . S
C1093 H1108 0.961 . S
C1093 H1109 0.960 . S
H1094 C1078 0.931 . S
H1095 C1083 0.929 . S
H1096 C1084 0.960 . S
H1097 C1084 0.962 . S
H1098 C1084 0.960 . S
H1099 C1085 0.961 . S
H1100 C1085 0.961 . S
H1101 C1085 0.961 . S
H1102 C1086 0.931 . S
H1103 C1091 0.930 . S
H1104 C1092 0.956 . S
H1105 C1092 0.961 . S
H1106 C1092 0.961 . S
H1107 C1093 0.958 . S
H1108 C1093 0.961 . S
H1109 C1093 0.960 . S
C1110 C1111 1.391 . S
C1110 C1112 1.394 . S
C1110 H1126 0.931 . S
C1111 C1110 1.391 . S
C1111 C1115 1.376 . S
C1112 C1110 1.394 . S
C1112 C1113 1.369 . S
C1112 C1116 1.531 . S
C1113 C1112 1.369 . S
C1113 C1114 1.410 . S
C1113 C1121 1.503 . S
C1114 C1113 1.410 . S
C1114 C1115 1.392 . S
C1114 C1117 1.511 . S
C1115 C1111 1.376 . S
C1115 C1114 1.392 . S
C1115 H1127 0.929 . S
C1116 C1112 1.531 . S
C1116 H1128 0.960 . S
C1116 H1129 0.962 . S
C1116 H1130 0.960 . S
C1117 C1114 1.511 . S
C1117 H1131 0.961 . S
C1117 H1132 0.961 . S
C1117 H1133 0.961 . S
C1118 C1119 1.370 . S
C1118 C1120 1.363 . S
C1118 H1134 0.931 . S
C1119 C1118 1.370 . S
C1119 C1123 1.408 . S
C1120 C1118 1.363 . S
C1120 C1121 1.370 . S
C1120 C1124 1.524 . S
C1121 C1113 1.503 . S
C1121 C1120 1.370 . S
C1121 C1122 1.403 . S
C1122 C1121 1.403 . S
C1122 C1123 1.404 . S
C1122 C1125 1.539 . S
C1123 C1119 1.408 . S
C1123 C1122 1.404 . S
C1123 H1135 0.930 . S
C1124 C1120 1.524 . S
C1124 H1136 0.956 . S
C1124 H1137 0.961 . S
C1124 H1138 0.961 . S
C1125 C1122 1.539 . S
C1125 H1139 0.958 . S
C1125 H1140 0.961 . S
C1125 H1141 0.960 . S
H1126 C1110 0.931 . S
H1127 C1115 0.929 . S
H1128 C1116 0.960 . S
H1129 C1116 0.962 . S
H1130 C1116 0.960 . S
H1131 C1117 0.961 . S
H1132 C1117 0.961 . S
H1133 C1117 0.961 . S
H1134 C1118 0.931 . S
H1135 C1123 0.930 . S
H1136 C1124 0.956 . S
H1137 C1124 0.961 . S
H1138 C1124 0.961 . S
H1139 C1125 0.958 . S
H1140 C1125 0.961 . S
H1141 C1125 0.960 . S
C1142 C1143 1.391 . S
C1142 C1144 1.394 . S
C1142 H1158 0.931 . S
C1143 C1142 1.391 . S
C1143 C1147 1.376 . S
C1144 C1142 1.394 . S
C1144 C1145 1.369 . S
C1144 C1148 1.531 . S
C1145 C1144 1.369 . S
C1145 C1146 1.410 . S
C1145 C1153 1.503 . S
C1146 C1145 1.410 . S
C1146 C1147 1.392 . S
C1146 C1149 1.511 . S
C1147 C1143 1.376 . S
C1147 C1146 1.392 . S
C1147 H1159 0.929 . S
C1148 C1144 1.531 . S
C1148 H1160 0.960 . S
C1148 H1161 0.962 . S
C1148 H1162 0.960 . S
C1149 C1146 1.511 . S
C1149 H1163 0.961 . S
C1149 H1164 0.961 . S
C1149 H1165 0.961 . S
C1150 C1151 1.370 . S
C1150 C1152 1.363 . S
C1150 H1166 0.931 . S
C1151 C1150 1.370 . S
C1151 C1155 1.408 . S
C1152 C1150 1.363 . S
C1152 C1153 1.370 . S
C1152 C1156 1.524 . S
C1153 C1145 1.503 . S
C1153 C1152 1.370 . S
C1153 C1154 1.403 . S
C1154 C1153 1.403 . S
C1154 C1155 1.404 . S
C1154 C1157 1.539 . S
C1155 C1151 1.408 . S
C1155 C1154 1.404 . S
C1155 H1167 0.930 . S
C1156 C1152 1.524 . S
C1156 H1168 0.956 . S
C1156 H1169 0.961 . S
C1156 H1170 0.961 . S
C1157 C1154 1.539 . S
C1157 H1171 0.958 . S
C1157 H1172 0.961 . S
C1157 H1173 0.960 . S
H1158 C1142 0.931 . S
H1159 C1147 0.929 . S
H1160 C1148 0.960 . S
H1161 C1148 0.962 . S
H1162 C1148 0.960 . S
H1163 C1149 0.961 . S
H1164 C1149 0.961 . S
H1165 C1149 0.961 . S
H1166 C1150 0.931 . S
H1167 C1155 0.930 . S
H1168 C1156 0.956 . S
H1169 C1156 0.961 . S
H1170 C1156 0.961 . S
H1171 C1157 0.958 . S
H1172 C1157 0.961 . S
H1173 C1157 0.960 . S
C1174 C1175 1.391 . S
C1174 C1176 1.394 . S
C1174 H1190 0.931 . S
C1175 C1174 1.391 . S
C1175 C1179 1.376 . S
C1176 C1174 1.394 . S
C1176 C1177 1.369 . S
C1176 C1180 1.531 . S
C1177 C1176 1.369 . S
C1177 C1178 1.410 . S
C1177 C1185 1.503 . S
C1178 C1177 1.410 . S
C1178 C1179 1.392 . S
C1178 C1181 1.511 . S
C1179 C1175 1.376 . S
C1179 C1178 1.392 . S
C1179 H1191 0.929 . S
C1180 C1176 1.531 . S
C1180 H1192 0.960 . S
C1180 H1193 0.962 . S
C1180 H1194 0.960 . S
C1181 C1178 1.511 . S
C1181 H1195 0.961 . S
C1181 H1196 0.961 . S
C1181 H1197 0.961 . S
C1182 C1183 1.370 . S
C1182 C1184 1.363 . S
C1182 H1198 0.931 . S
C1183 C1182 1.370 . S
C1183 C1187 1.408 . S
C1184 C1182 1.363 . S
C1184 C1185 1.370 . S
C1184 C1188 1.524 . S
C1185 C1177 1.503 . S
C1185 C1184 1.370 . S
C1185 C1186 1.403 . S
C1186 C1185 1.403 . S
C1186 C1187 1.404 . S
C1186 C1189 1.539 . S
C1187 C1183 1.408 . S
C1187 C1186 1.404 . S
C1187 H1199 0.930 . S
C1188 C1184 1.524 . S
C1188 H1200 0.956 . S
C1188 H1201 0.961 . S
C1188 H1202 0.961 . S
C1189 C1186 1.539 . S
C1189 H1203 0.958 . S
C1189 H1204 0.961 . S
C1189 H1205 0.960 . S
H1190 C1174 0.931 . S
H1191 C1179 0.929 . S
H1192 C1180 0.960 . S
H1193 C1180 0.962 . S
H1194 C1180 0.960 . S
H1195 C1181 0.961 . S
H1196 C1181 0.961 . S
H1197 C1181 0.961 . S
H1198 C1182 0.931 . S
H1199 C1187 0.930 . S
H1200 C1188 0.956 . S
H1201 C1188 0.961 . S
H1202 C1188 0.961 . S
H1203 C1189 0.958 . S
H1204 C1189 0.961 . S
H1205 C1189 0.960 . S
C1206 C1207 1.391 . S
C1206 C1208 1.394 . S
C1206 H1222 0.931 . S
C1207 C1206 1.391 . S
C1207 C1211 1.376 . S
C1208 C1206 1.394 . S
C1208 C1209 1.369 . S
C1208 C1212 1.531 . S
C1209 C1208 1.369 . S
C1209 C1210 1.410 . S
C1209 C1217 1.503 . S
C1210 C1209 1.410 . S
C1210 C1211 1.392 . S
C1210 C1213 1.511 . S
C1211 C1207 1.376 . S
C1211 C1210 1.392 . S
C1211 H1223 0.929 . S
C1212 C1208 1.531 . S
C1212 H1224 0.960 . S
C1212 H1225 0.962 . S
C1212 H1226 0.960 . S
C1213 C1210 1.511 . S
C1213 H1227 0.961 . S
C1213 H1228 0.961 . S
C1213 H1229 0.961 . S
C1214 C1215 1.370 . S
C1214 C1216 1.363 . S
C1214 H1230 0.931 . S
C1215 C1214 1.370 . S
C1215 C1219 1.408 . S
C1216 C1214 1.363 . S
C1216 C1217 1.370 . S
C1216 C1220 1.524 . S
C1217 C1209 1.503 . S
C1217 C1216 1.370 . S
C1217 C1218 1.403 . S
C1218 C1217 1.403 . S
C1218 C1219 1.404 . S
C1218 C1221 1.539 . S
C1219 C1215 1.408 . S
C1219 C1218 1.404 . S
C1219 H1231 0.930 . S
C1220 C1216 1.524 . S
C1220 H1232 0.956 . S
C1220 H1233 0.961 . S
C1220 H1234 0.961 . S
C1221 C1218 1.539 . S
C1221 H1235 0.958 . S
C1221 H1236 0.961 . S
C1221 H1237 0.960 . S
H1222 C1206 0.931 . S
H1223 C1211 0.929 . S
H1224 C1212 0.960 . S
H1225 C1212 0.962 . S
H1226 C1212 0.960 . S
H1227 C1213 0.961 . S
H1228 C1213 0.961 . S
H1229 C1213 0.961 . S
H1230 C1214 0.931 . S
H1231 C1219 0.930 . S
H1232 C1220 0.956 . S
H1233 C1220 0.961 . S
H1234 C1220 0.961 . S
H1235 C1221 0.958 . S
H1236 C1221 0.961 . S
H1237 C1221 0.960 . S
C1238 C1239 1.391 . S
C1238 C1240 1.394 . S
C1238 H1254 0.931 . S
C1239 C1238 1.391 . S
C1239 C1243 1.376 . S
C1240 C1238 1.394 . S
C1240 C1241 1.369 . S
C1240 C1244 1.531 . S
C1241 C1240 1.369 . S
C1241 C1242 1.410 . S
C1241 C1249 1.503 . S
C1242 C1241 1.410 . S
C1242 C1243 1.392 . S
C1242 C1245 1.511 . S
C1243 C1239 1.376 . S
C1243 C1242 1.392 . S
C1243 H1255 0.929 . S
C1244 C1240 1.531 . S
C1244 H1256 0.960 . S
C1244 H1257 0.962 . S
C1244 H1258 0.960 . S
C1245 C1242 1.511 . S
C1245 H1259 0.961 . S
C1245 H1260 0.961 . S
C1245 H1261 0.961 . S
C1246 C1247 1.370 . S
C1246 C1248 1.363 . S
C1246 H1262 0.931 . S
C1247 C1246 1.370 . S
C1247 C1251 1.408 . S
C1248 C1246 1.363 . S
C1248 C1249 1.370 . S
C1248 C1252 1.524 . S
C1249 C1241 1.503 . S
C1249 C1248 1.370 . S
C1249 C1250 1.403 . S
C1250 C1249 1.403 . S
C1250 C1251 1.404 . S
C1250 C1253 1.539 . S
C1251 C1247 1.408 . S
C1251 C1250 1.404 . S
C1251 H1263 0.930 . S
C1252 C1248 1.524 . S
C1252 H1264 0.956 . S
C1252 H1265 0.961 . S
C1252 H1266 0.961 . S
C1253 C1250 1.539 . S
C1253 H1267 0.958 . S
C1253 H1268 0.961 . S
C1253 H1269 0.960 . S
H1254 C1238 0.931 . S
H1255 C1243 0.929 . S
H1256 C1244 0.960 . S
H1257 C1244 0.962 . S
H1258 C1244 0.960 . S
H1259 C1245 0.961 . S
H1260 C1245 0.961 . S
H1261 C1245 0.961 . S
H1262 C1246 0.931 . S
H1263 C1251 0.930 . S
H1264 C1252 0.956 . S
H1265 C1252 0.961 . S
H1266 C1252 0.961 . S
H1267 C1253 0.958 . S
H1268 C1253 0.961 . S
H1269 C1253 0.960 . S
C1270 C1271 1.391 . S
C1270 C1272 1.394 . S
C1270 H1286 0.931 . S
C1271 C1270 1.391 . S
C1271 C1275 1.376 . S
C1272 C1270 1.394 . S
C1272 C1273 1.369 . S
C1272 C1276 1.531 . S
C1273 C1272 1.369 . S
C1273 C1274 1.410 . S
C1273 C1281 1.503 . S
C1274 C1273 1.410 . S
C1274 C1275 1.392 . S
C1274 C1277 1.511 . S
C1275 C1271 1.376 . S
C1275 C1274 1.392 . S
C1275 H1287 0.929 . S
C1276 C1272 1.531 . S
C1276 H1288 0.960 . S
C1276 H1289 0.962 . S
C1276 H1290 0.960 . S
C1277 C1274 1.511 . S
C1277 H1291 0.961 . S
C1277 H1292 0.961 . S
C1277 H1293 0.961 . S
C1278 C1279 1.370 . S
C1278 C1280 1.363 . S
C1278 H1294 0.931 . S
C1279 C1278 1.370 . S
C1279 C1283 1.408 . S
C1280 C1278 1.363 . S
C1280 C1281 1.370 . S
C1280 C1284 1.524 . S
C1281 C1273 1.503 . S
C1281 C1280 1.370 . S
C1281 C1282 1.403 . S
C1282 C1281 1.403 . S
C1282 C1283 1.404 . S
C1282 C1285 1.539 . S
C1283 C1279 1.408 . S
C1283 C1282 1.404 . S
C1283 H1295 0.930 . S
C1284 C1280 1.524 . S
C1284 H1296 0.956 . S
C1284 H1297 0.961 . S
C1284 H1298 0.961 . S
C1285 C1282 1.539 . S
C1285 H1299 0.958 . S
C1285 H1300 0.961 . S
C1285 H1301 0.960 . S
H1286 C1270 0.931 . S
H1287 C1275 0.929 . S
H1288 C1276 0.960 . S
H1289 C1276 0.962 . S
H1290 C1276 0.960 . S
H1291 C1277 0.961 . S
H1292 C1277 0.961 . S
H1293 C1277 0.961 . S
H1294 C1278 0.931 . S
H1295 C1283 0.930 . S
H1296 C1284 0.956 . S
H1297 C1284 0.961 . S
H1298 C1284 0.961 . S
H1299 C1285 0.958 . S
H1300 C1285 0.961 . S
H1301 C1285 0.960 . S
C1302 C1303 1.391 . S
C1302 C1304 1.394 . S
C1302 H1318 0.931 . S
C1303 C1302 1.391 . S
C1303 C1307 1.376 . S
C1304 C1302 1.394 . S
C1304 C1305 1.369 . S
C1304 C1308 1.531 . S
C1305 C1304 1.369 . S
C1305 C1306 1.410 . S
C1305 C1313 1.503 . S
C1306 C1305 1.410 . S
C1306 C1307 1.392 . S
C1306 C1309 1.511 . S
C1307 C1303 1.376 . S
C1307 C1306 1.392 . S
C1307 H1319 0.929 . S
C1308 C1304 1.531 . S
C1308 H1320 0.960 . S
C1308 H1321 0.962 . S
C1308 H1322 0.960 . S
C1309 C1306 1.511 . S
C1309 H1323 0.961 . S
C1309 H1324 0.961 . S
C1309 H1325 0.961 . S
C1310 C1311 1.370 . S
C1310 C1312 1.363 . S
C1310 H1326 0.931 . S
C1311 C1310 1.370 . S
C1311 C1315 1.408 . S
C1312 C1310 1.363 . S
C1312 C1313 1.370 . S
C1312 C1316 1.524 . S
C1313 C1305 1.503 . S
C1313 C1312 1.370 . S
C1313 C1314 1.403 . S
C1314 C1313 1.403 . S
C1314 C1315 1.404 . S
C1314 C1317 1.539 . S
C1315 C1311 1.408 . S
C1315 C1314 1.404 . S
C1315 H1327 0.930 . S
C1316 C1312 1.524 . S
C1316 H1328 0.956 . S
C1316 H1329 0.961 . S
C1316 H1330 0.961 . S
C1317 C1314 1.539 . S
C1317 H1331 0.958 . S
C1317 H1332 0.961 . S
C1317 H1333 0.960 . S
H1318 C1302 0.931 . S
H1319 C1307 0.929 . S
H1320 C1308 0.960 . S
H1321 C1308 0.962 . S
H1322 C1308 0.960 . S
H1323 C1309 0.961 . S
H1324 C1309 0.961 . S
H1325 C1309 0.961 . S
H1326 C1310 0.931 . S
H1327 C1315 0.930 . S
H1328 C1316 0.956 . S
H1329 C1316 0.961 . S
H1330 C1316 0.961 . S
H1331 C1317 0.958 . S
H1332 C1317 0.961 . S
H1333 C1317 0.960 . S
C1334 C1335 1.391 . S
C1334 C1336 1.394 . S
C1334 H1350 0.931 . S
C1335 C1334 1.391 . S
C1335 C1339 1.376 . S
C1336 C1334 1.394 . S
C1336 C1337 1.369 . S
C1336 C1340 1.531 . S
C1337 C1336 1.369 . S
C1337 C1338 1.410 . S
C1337 C1345 1.503 . S
C1338 C1337 1.410 . S
C1338 C1339 1.392 . S
C1338 C1341 1.511 . S
C1339 C1335 1.376 . S
C1339 C1338 1.392 . S
C1339 H1351 0.929 . S
C1340 C1336 1.531 . S
C1340 H1352 0.960 . S
C1340 H1353 0.962 . S
C1340 H1354 0.960 . S
C1341 C1338 1.511 . S
C1341 H1355 0.961 . S
C1341 H1356 0.961 . S
C1341 H1357 0.961 . S
C1342 C1343 1.370 . S
C1342 C1344 1.363 . S
C1342 H1358 0.931 . S
C1343 C1342 1.370 . S
C1343 C1347 1.408 . S
C1344 C1342 1.363 . S
C1344 C1345 1.370 . S
C1344 C1348 1.524 . S
C1345 C1337 1.503 . S
C1345 C1344 1.370 . S
C1345 C1346 1.403 . S
C1346 C1345 1.403 . S
C1346 C1347 1.404 . S
C1346 C1349 1.539 . S
C1347 C1343 1.408 . S
C1347 C1346 1.404 . S
C1347 H1359 0.930 . S
C1348 C1344 1.524 . S
C1348 H1360 0.956 . S
C1348 H1361 0.961 . S
C1348 H1362 0.961 . S
C1349 C1346 1.539 . S
C1349 H1363 0.958 . S
C1349 H1364 0.961 . S
C1349 H1365 0.960 . S
H1350 C1334 0.931 . S
H1351 C1339 0.929 . S
H1352 C1340 0.960 . S
H1353 C1340 0.962 . S
H1354 C1340 0.960 . S
H1355 C1341 0.961 . S
H1356 C1341 0.961 . S
H1357 C1341 0.961 . S
H1358 C1342 0.931 . S
H1359 C1347 0.930 . S
H1360 C1348 0.956 . S
H1361 C1348 0.961 . S
H1362 C1348 0.961 . S
H1363 C1349 0.958 . S
H1364 C1349 0.961 . S
H1365 C1349 0.960 . S
C1366 C1367 1.391 . S
C1366 C1368 1.394 . S
C1366 H1382 0.931 . S
C1367 C1366 1.391 . S
C1367 C1371 1.376 . S
C1368 C1366 1.394 . S
C1368 C1369 1.369 . S
C1368 C1372 1.531 . S
C1369 C1368 1.369 . S
C1369 C1370 1.410 . S
C1369 C1377 1.503 . S
C1370 C1369 1.410 . S
C1370 C1371 1.392 . S
C1370 C1373 1.511 . S
C1371 C1367 1.376 . S
C1371 C1370 1.392 . S
C1371 H1383 0.929 . S
C1372 C1368 1.531 . S
C1372 H1384 0.960 . S
C1372 H1385 0.962 . S
C1372 H1386 0.960 . S
C1373 C1370 1.511 . S
C1373 H1387 0.961 . S
C1373 H1388 0.961 . S
C1373 H1389 0.961 . S
C1374 C1375 1.370 . S
C1374 C1376 1.363 . S
C1374 H1390 0.931 . S
C1375 C1374 1.370 . S
C1375 C1379 1.408 . S
C1376 C1374 1.363 . S
C1376 C1377 1.370 . S
C1376 C1380 1.524 . S
C1377 C1369 1.503 . S
C1377 C1376 1.370 . S
C1377 C1378 1.403 . S
C1378 C1377 1.403 . S
C1378 C1379 1.404 . S
C1378 C1381 1.539 . S
C1379 C1375 1.408 . S
C1379 C1378 1.404 . S
C1379 H1391 0.930 . S
C1380 C1376 1.524 . S
C1380 H1392 0.956 . S
C1380 H1393 0.961 . S
C1380 H1394 0.961 . S
C1381 C1378 1.539 . S
C1381 H1395 0.958 . S
C1381 H1396 0.961 . S
C1381 H1397 0.960 . S
H1382 C1366 0.931 . S
H1383 C1371 0.929 . S
H1384 C1372 0.960 . S
H1385 C1372 0.962 . S
H1386 C1372 0.960 . S
H1387 C1373 0.961 . S
H1388 C1373 0.961 . S
H1389 C1373 0.961 . S
H1390 C1374 0.931 . S
H1391 C1379 0.930 . S
H1392 C1380 0.956 . S
H1393 C1380 0.961 . S
H1394 C1380 0.961 . S
H1395 C1381 0.958 . S
H1396 C1381 0.961 . S
H1397 C1381 0.960 . S
C1398 C1399 1.391 . S
C1398 C1400 1.394 . S
C1398 H1414 0.931 . S
C1399 C1398 1.391 . S
C1399 C1403 1.376 . S
C1400 C1398 1.394 . S
C1400 C1401 1.369 . S
C1400 C1404 1.531 . S
C1401 C1400 1.369 . S
C1401 C1402 1.410 . S
C1401 C1409 1.503 . S
C1402 C1401 1.410 . S
C1402 C1403 1.392 . S
C1402 C1405 1.511 . S
C1403 C1399 1.376 . S
C1403 C1402 1.392 . S
C1403 H1415 0.929 . S
C1404 C1400 1.531 . S
C1404 H1416 0.960 . S
C1404 H1417 0.962 . S
C1404 H1418 0.960 . S
C1405 C1402 1.511 . S
C1405 H1419 0.961 . S
C1405 H1420 0.961 . S
C1405 H1421 0.961 . S
C1406 C1407 1.370 . S
C1406 C1408 1.363 . S
C1406 H1422 0.931 . S
C1407 C1406 1.370 . S
C1407 C1411 1.408 . S
C1408 C1406 1.363 . S
C1408 C1409 1.370 . S
C1408 C1412 1.524 . S
C1409 C1401 1.503 . S
C1409 C1408 1.370 . S
C1409 C1410 1.403 . S
C1410 C1409 1.403 . S
C1410 C1411 1.404 . S
C1410 C1413 1.539 . S
C1411 C1407 1.408 . S
C1411 C1410 1.404 . S
C1411 H1423 0.930 . S
C1412 C1408 1.524 . S
C1412 H1424 0.956 . S
C1412 H1425 0.961 . S
C1412 H1426 0.961 . S
C1413 C1410 1.539 . S
C1413 H1427 0.958 . S
C1413 H1428 0.961 . S
C1413 H1429 0.960 . S
H1414 C1398 0.931 . S
H1415 C1403 0.929 . S
H1416 C1404 0.960 . S
H1417 C1404 0.962 . S
H1418 C1404 0.960 . S
H1419 C1405 0.961 . S
H1420 C1405 0.961 . S
H1421 C1405 0.961 . S
H1422 C1406 0.931 . S
H1423 C1411 0.930 . S
H1424 C1412 0.956 . S
H1425 C1412 0.961 . S
H1426 C1412 0.961 . S
H1427 C1413 0.958 . S
H1428 C1413 0.961 . S
H1429 C1413 0.960 . S
C1430 C1431 1.391 . S
C1430 C1432 1.394 . S
C1430 H1446 0.931 . S
C1431 C1430 1.391 . S
C1431 C1435 1.376 . S
C1432 C1430 1.394 . S
C1432 C1433 1.369 . S
C1432 C1436 1.531 . S
C1433 C1432 1.369 . S
C1433 C1434 1.410 . S
C1433 C1441 1.503 . S
C1434 C1433 1.410 . S
C1434 C1435 1.392 . S
C1434 C1437 1.511 . S
C1435 C1431 1.376 . S
C1435 C1434 1.392 . S
C1435 H1447 0.929 . S
C1436 C1432 1.531 . S
C1436 H1448 0.960 . S
C1436 H1449 0.962 . S
C1436 H1450 0.960 . S
C1437 C1434 1.511 . S
C1437 H1451 0.961 . S
C1437 H1452 0.961 . S
C1437 H1453 0.961 . S
C1438 C1439 1.370 . S
C1438 C1440 1.363 . S
C1438 H1454 0.931 . S
C1439 C1438 1.370 . S
C1439 C1443 1.408 . S
C1440 C1438 1.363 . S
C1440 C1441 1.370 . S
C1440 C1444 1.524 . S
C1441 C1433 1.503 . S
C1441 C1440 1.370 . S
C1441 C1442 1.403 . S
C1442 C1441 1.403 . S
C1442 C1443 1.404 . S
C1442 C1445 1.539 . S
C1443 C1439 1.408 . S
C1443 C1442 1.404 . S
C1443 H1455 0.930 . S
C1444 C1440 1.524 . S
C1444 H1456 0.956 . S
C1444 H1457 0.961 . S
C1444 H1458 0.961 . S
C1445 C1442 1.539 . S
C1445 H1459 0.958 . S
C1445 H1460 0.961 . S
C1445 H1461 0.960 . S
H1446 C1430 0.931 . S
H1447 C1435 0.929 . S
H1448 C1436 0.960 . S
H1449 C1436 0.962 . S
H1450 C1436 0.960 . S
H1451 C1437 0.961 . S
H1452 C1437 0.961 . S
H1453 C1437 0.961 . S
H1454 C1438 0.931 . S
H1455 C1443 0.930 . S
H1456 C1444 0.956 . S
H1457 C1444 0.961 . S
H1458 C1444 0.961 . S
H1459 C1445 0.958 . S
H1460 C1445 0.961 . S
H1461 C1445 0.960 . S
C1462 C1463 1.391 . S
C1462 C1464 1.394 . S
C1462 H1478 0.931 . S
C1463 C1462 1.391 . S
C1463 C1467 1.376 . S
C1464 C1462 1.394 . S
C1464 C1465 1.369 . S
C1464 C1468 1.531 . S
C1465 C1464 1.369 . S
C1465 C1466 1.410 . S
C1465 C1473 1.503 . S
C1466 C1465 1.410 . S
C1466 C1467 1.392 . S
C1466 C1469 1.511 . S
C1467 C1463 1.376 . S
C1467 C1466 1.392 . S
C1467 H1479 0.929 . S
C1468 C1464 1.531 . S
C1468 H1480 0.960 . S
C1468 H1481 0.962 . S
C1468 H1482 0.960 . S
C1469 C1466 1.511 . S
C1469 H1483 0.961 . S
C1469 H1484 0.961 . S
C1469 H1485 0.961 . S
C1470 C1471 1.370 . S
C1470 C1472 1.363 . S
C1470 H1486 0.931 . S
C1471 C1470 1.370 . S
C1471 C1475 1.408 . S
C1472 C1470 1.363 . S
C1472 C1473 1.370 . S
C1472 C1476 1.524 . S
C1473 C1465 1.503 . S
C1473 C1472 1.370 . S
C1473 C1474 1.403 . S
C1474 C1473 1.403 . S
C1474 C1475 1.404 . S
C1474 C1477 1.539 . S
C1475 C1471 1.408 . S
C1475 C1474 1.404 . S
C1475 H1487 0.930 . S
C1476 C1472 1.524 . S
C1476 H1488 0.956 . S
C1476 H1489 0.961 . S
C1476 H1490 0.961 . S
C1477 C1474 1.539 . S
C1477 H1491 0.958 . S
C1477 H1492 0.961 . S
C1477 H1493 0.960 . S
H1478 C1462 0.931 . S
H1479 C1467 0.929 . S
H1480 C1468 0.960 . S
H1481 C1468 0.962 . S
H1482 C1468 0.960 . S
H1483 C1469 0.961 . S
H1484 C1469 0.961 . S
H1485 C1469 0.961 . S
H1486 C1470 0.931 . S
H1487 C1475 0.930 . S
H1488 C1476 0.956 . S
H1489 C1476 0.961 . S
H1490 C1476 0.961 . S
H1491 C1477 0.958 . S
H1492 C1477 0.961 . S
H1493 C1477 0.960 . S
C1494 C1495 1.391 . S
C1494 C1496 1.394 . S
C1494 H1510 0.931 . S
C1495 C1494 1.391 . S
C1495 C1499 1.376 . S
C1496 C1494 1.394 . S
C1496 C1497 1.369 . S
C1496 C1500 1.531 . S
C1497 C1496 1.369 . S
C1497 C1498 1.410 . S
C1497 C1505 1.503 . S
C1498 C1497 1.410 . S
C1498 C1499 1.392 . S
C1498 C1501 1.511 . S
C1499 C1495 1.376 . S
C1499 C1498 1.392 . S
C1499 H1511 0.929 . S
C1500 C1496 1.531 . S
C1500 H1512 0.960 . S
C1500 H1513 0.962 . S
C1500 H1514 0.960 . S
C1501 C1498 1.511 . S
C1501 H1515 0.961 . S
C1501 H1516 0.961 . S
C1501 H1517 0.961 . S
C1502 C1503 1.370 . S
C1502 C1504 1.363 . S
C1502 H1518 0.931 . S
C1503 C1502 1.370 . S
C1503 C1507 1.408 . S
C1504 C1502 1.363 . S
C1504 C1505 1.370 . S
C1504 C1508 1.524 . S
C1505 C1497 1.503 . S
C1505 C1504 1.370 . S
C1505 C1506 1.403 . S
C1506 C1505 1.403 . S
C1506 C1507 1.404 . S
C1506 C1509 1.539 . S
C1507 C1503 1.408 . S
C1507 C1506 1.404 . S
C1507 H1519 0.930 . S
C1508 C1504 1.524 . S
C1508 H1520 0.956 . S
C1508 H1521 0.961 . S
C1508 H1522 0.961 . S
C1509 C1506 1.539 . S
C1509 H1523 0.958 . S
C1509 H1524 0.961 . S
C1509 H1525 0.960 . S
H1510 C1494 0.931 . S
H1511 C1499 0.929 . S
H1512 C1500 0.960 . S
H1513 C1500 0.962 . S
H1514 C1500 0.960 . S
H1515 C1501 0.961 . S
H1516 C1501 0.961 . S
H1517 C1501 0.961 . S
H1518 C1502 0.931 . S
H1519 C1507 0.930 . S
H1520 C1508 0.956 . S
H1521 C1508 0.961 . S
H1522 C1508 0.961 . S
H1523 C1509 0.958 . S
H1524 C1509 0.961 . S
H1525 C1509 0.960 . S
C1526 C1527 1.391 . S
C1526 C1528 1.394 . S
C1526 H1542 0.931 . S
C1527 C1526 1.391 . S
C1527 C1531 1.376 . S
C1528 C1526 1.394 . S
C1528 C1529 1.369 . S
C1528 C1532 1.531 . S
C1529 C1528 1.369 . S
C1529 C1530 1.410 . S
C1529 C1537 1.503 . S
C1530 C1529 1.410 . S
C1530 C1531 1.392 . S
C1530 C1533 1.511 . S
C1531 C1527 1.376 . S
C1531 C1530 1.392 . S
C1531 H1543 0.929 . S
C1532 C1528 1.531 . S
C1532 H1544 0.960 . S
C1532 H1545 0.962 . S
C1532 H1546 0.960 . S
C1533 C1530 1.511 . S
C1533 H1547 0.961 . S
C1533 H1548 0.961 . S
C1533 H1549 0.961 . S
C1534 C1535 1.370 . S
C1534 C1536 1.363 . S
C1534 H1550 0.931 . S
C1535 C1534 1.370 . S
C1535 C1539 1.408 . S
C1536 C1534 1.363 . S
C1536 C1537 1.370 . S
C1536 C1540 1.524 . S
C1537 C1529 1.503 . S
C1537 C1536 1.370 . S
C1537 C1538 1.403 . S
C1538 C1537 1.403 . S
C1538 C1539 1.404 . S
C1538 C1541 1.539 . S
C1539 C1535 1.408 . S
C1539 C1538 1.404 . S
C1539 H1551 0.930 . S
C1540 C1536 1.524 . S
C1540 H1552 0.956 . S
C1540 H1553 0.961 . S
C1540 H1554 0.961 . S
C1541 C1538 1.539 . S
C1541 H1555 0.958 . S
C1541 H1556 0.961 . S
C1541 H1557 0.960 . S
H1542 C1526 0.931 . S
H1543 C1531 0.929 . S
H1544 C1532 0.960 . S
H1545 C1532 0.962 . S
H1546 C1532 0.960 . S
H1547 C1533 0.961 . S
H1548 C1533 0.961 . S
H1549 C1533 0.961 . S
H1550 C1534 0.931 . S
H1551 C1539 0.930 . S
H1552 C1540 0.956 . S
H1553 C1540 0.961 . S
H1554 C1540 0.961 . S
H1555 C1541 0.958 . S
H1556 C1541 0.961 . S
H1557 C1541 0.960 . S
C1558 C1559 1.391 . S
C1558 C1560 1.394 . S
C1558 H1574 0.931 . S
C1559 C1558 1.391 . S
C1559 C1563 1.376 . S
C1560 C1558 1.394 . S
C1560 C1561 1.369 . S
C1560 C1564 1.531 . S
C1561 C1560 1.369 . S
C1561 C1562 1.410 . S
C1561 C1569 1.503 . S
C1562 C1561 1.410 . S
C1562 C1563 1.392 . S
C1562 C1565 1.511 . S
C1563 C1559 1.376 . S
C1563 C1562 1.392 . S
C1563 H1575 0.929 . S
C1564 C1560 1.531 . S
C1564 H1576 0.960 . S
C1564 H1577 0.962 . S
C1564 H1578 0.960 . S
C1565 C1562 1.511 . S
C1565 H1579 0.961 . S
C1565 H1580 0.961 . S
C1565 H1581 0.961 . S
C1566 C1567 1.370 . S
C1566 C1568 1.363 . S
C1566 H1582 0.931 . S
C1567 C1566 1.370 . S
C1567 C1571 1.408 . S
C1568 C1566 1.363 . S
C1568 C1569 1.370 . S
C1568 C1572 1.524 . S
C1569 C1561 1.503 . S
C1569 C1568 1.370 . S
C1569 C1570 1.403 . S
C1570 C1569 1.403 . S
C1570 C1571 1.404 . S
C1570 C1573 1.539 . S
C1571 C1567 1.408 . S
C1571 C1570 1.404 . S
C1571 H1583 0.930 . S
C1572 C1568 1.524 . S
C1572 H1584 0.956 . S
C1572 H1585 0.961 . S
C1572 H1586 0.961 . S
C1573 C1570 1.539 . S
C1573 H1587 0.958 . S
C1573 H1588 0.961 . S
C1573 H1589 0.960 . S
H1574 C1558 0.931 . S
H1575 C1563 0.929 . S
H1576 C1564 0.960 . S
H1577 C1564 0.962 . S
H1578 C1564 0.960 . S
H1579 C1565 0.961 . S
H1580 C1565 0.961 . S
H1581 C1565 0.961 . S
H1582 C1566 0.931 . S
H1583 C1571 0.930 . S
H1584 C1572 0.956 . S
H1585 C1572 0.961 . S
H1586 C1572 0.961 . S
H1587 C1573 0.958 . S
H1588 C1573 0.961 . S
H1589 C1573 0.960 . S
C1590 C1591 1.391 . S
C1590 C1592 1.394 . S
C1590 H1606 0.931 . S
C1591 C1590 1.391 . S
C1591 C1595 1.376 . S
C1592 C1590 1.394 . S
C1592 C1593 1.369 . S
C1592 C1596 1.531 . S
C1593 C1592 1.369 . S
C1593 C1594 1.410 . S
C1593 C1601 1.503 . S
C1594 C1593 1.410 . S
C1594 C1595 1.392 . S
C1594 C1597 1.511 . S
C1595 C1591 1.376 . S
C1595 C1594 1.392 . S
C1595 H1607 0.929 . S
C1596 C1592 1.531 . S
C1596 H1608 0.960 . S
C1596 H1609 0.962 . S
C1596 H1610 0.960 . S
C1597 C1594 1.511 . S
C1597 H1611 0.961 . S
C1597 H1612 0.961 . S
C1597 H1613 0.961 . S
C1598 C1599 1.370 . S
C1598 C1600 1.363 . S
C1598 H1614 0.931 . S
C1599 C1598 1.370 . S
C1599 C1603 1.408 . S
C1600 C1598 1.363 . S
C1600 C1601 1.370 . S
C1600 C1604 1.524 . S
C1601 C1593 1.503 . S
C1601 C1600 1.370 . S
C1601 C1602 1.403 . S
C1602 C1601 1.403 . S
C1602 C1603 1.404 . S
C1602 C1605 1.539 . S
C1603 C1599 1.408 . S
C1603 C1602 1.404 . S
C1603 H1615 0.930 . S
C1604 C1600 1.524 . S
C1604 H1616 0.956 . S
C1604 H1617 0.961 . S
C1604 H1618 0.961 . S
C1605 C1602 1.539 . S
C1605 H1619 0.958 . S
C1605 H1620 0.961 . S
C1605 H1621 0.960 . S
H1606 C1590 0.931 . S
H1607 C1595 0.929 . S
H1608 C1596 0.960 . S
H1609 C1596 0.962 . S
H1610 C1596 0.960 . S
H1611 C1597 0.961 . S
H1612 C1597 0.961 . S
H1613 C1597 0.961 . S
H1614 C1598 0.931 . S
H1615 C1603 0.930 . S
H1616 C1604 0.956 . S
H1617 C1604 0.961 . S
H1618 C1604 0.961 . S
H1619 C1605 0.958 . S
H1620 C1605 0.961 . S
H1621 C1605 0.960 . S
C1622 C1623 1.391 . S
C1622 C1624 1.394 . S
C1622 H1638 0.931 . S
C1623 C1622 1.391 . S
C1623 C1627 1.376 . S
C1624 C1622 1.394 . S
C1624 C1625 1.369 . S
C1624 C1628 1.531 . S
C1625 C1624 1.369 . S
C1625 C1626 1.410 . S
C1625 C1633 1.503 . S
C1626 C1625 1.410 . S
C1626 C1627 1.392 . S
C1626 C1629 1.511 . S
C1627 C1623 1.376 . S
C1627 C1626 1.392 . S
C1627 H1639 0.929 . S
C1628 C1624 1.531 . S
C1628 H1640 0.960 . S
C1628 H1641 0.962 . S
C1628 H1642 0.960 . S
C1629 C1626 1.511 . S
C1629 H1643 0.961 . S
C1629 H1644 0.961 . S
C1629 H1645 0.961 . S
C1630 C1631 1.370 . S
C1630 C1632 1.363 . S
C1630 H1646 0.931 . S
C1631 C1630 1.370 . S
C1631 C1635 1.408 . S
C1632 C1630 1.363 . S
C1632 C1633 1.370 . S
C1632 C1636 1.524 . S
C1633 C1625 1.503 . S
C1633 C1632 1.370 . S
C1633 C1634 1.403 . S
C1634 C1633 1.403 . S
C1634 C1635 1.404 . S
C1634 C1637 1.539 . S
C1635 C1631 1.408 . S
C1635 C1634 1.404 . S
C1635 H1647 0.930 . S
C1636 C1632 1.524 . S
C1636 H1648 0.956 . S
C1636 H1649 0.961 . S
C1636 H1650 0.961 . S
C1637 C1634 1.539 . S
C1637 H1651 0.958 . S
C1637 H1652 0.961 . S
C1637 H1653 0.960 . S
H1638 C1622 0.931 . S
H1639 C1627 0.929 . S
H1640 C1628 0.960 . S
H1641 C1628 0.962 . S
H1642 C1628 0.960 . S
H1643 C1629 0.961 . S
H1644 C1629 0.961 . S
H1645 C1629 0.961 . S
H1646 C1630 0.931 . S
H1647 C1635 0.930 . S
H1648 C1636 0.956 . S
H1649 C1636 0.961 . S
H1650 C1636 0.961 . S
H1651 C1637 0.958 . S
H1652 C1637 0.961 . S
H1653 C1637 0.960 . S
C1654 C1655 1.391 . S
C1654 C1656 1.394 . S
C1654 H1670 0.931 . S
C1655 C1654 1.391 . S
C1655 C1659 1.376 . S
C1656 C1654 1.394 . S
C1656 C1657 1.369 . S
C1656 C1660 1.531 . S
C1657 C1656 1.369 . S
C1657 C1658 1.410 . S
C1657 C1665 1.503 . S
C1658 C1657 1.410 . S
C1658 C1659 1.392 . S
C1658 C1661 1.511 . S
C1659 C1655 1.376 . S
C1659 C1658 1.392 . S
C1659 H1671 0.929 . S
C1660 C1656 1.531 . S
C1660 H1672 0.960 . S
C1660 H1673 0.962 . S
C1660 H1674 0.960 . S
C1661 C1658 1.511 . S
C1661 H1675 0.961 . S
C1661 H1676 0.961 . S
C1661 H1677 0.961 . S
C1662 C1663 1.370 . S
C1662 C1664 1.363 . S
C1662 H1678 0.931 . S
C1663 C1662 1.370 . S
C1663 C1667 1.408 . S
C1664 C1662 1.363 . S
C1664 C1665 1.370 . S
C1664 C1668 1.524 . S
C1665 C1657 1.503 . S
C1665 C1664 1.370 . S
C1665 C1666 1.403 . S
C1666 C1665 1.403 . S
C1666 C1667 1.404 . S
C1666 C1669 1.539 . S
C1667 C1663 1.408 . S
C1667 C1666 1.404 . S
C1667 H1679 0.930 . S
C1668 C1664 1.524 . S
C1668 H1680 0.956 . S
C1668 H1681 0.961 . S
C1668 H1682 0.961 . S
C1669 C1666 1.539 . S
C1669 H1683 0.958 . S
C1669 H1684 0.961 . S
C1669 H1685 0.960 . S
H1670 C1654 0.931 . S
H1671 C1659 0.929 . S
H1672 C1660 0.960 . S
H1673 C1660 0.962 . S
H1674 C1660 0.960 . S
H1675 C1661 0.961 . S
H1676 C1661 0.961 . S
H1677 C1661 0.961 . S
H1678 C1662 0.931 . S
H1679 C1667 0.930 . S
H1680 C1668 0.956 . S
H1681 C1668 0.961 . S
H1682 C1668 0.961 . S
H1683 C1669 0.958 . S
H1684 C1669 0.961 . S
H1685 C1669 0.960 . S
C1686 C1687 1.391 . S
C1686 C1688 1.394 . S
C1686 H1702 0.931 . S
C1687 C1686 1.391 . S
C1687 C1691 1.376 . S
C1688 C1686 1.394 . S
C1688 C1689 1.369 . S
C1688 C1692 1.531 . S
C1689 C1688 1.369 . S
C1689 C1690 1.410 . S
C1689 C1697 1.503 . S
C1690 C1689 1.410 . S
C1690 C1691 1.392 . S
C1690 C1693 1.511 . S
C1691 C1687 1.376 . S
C1691 C1690 1.392 . S
C1691 H1703 0.929 . S
C1692 C1688 1.531 . S
C1692 H1704 0.960 . S
C1692 H1705 0.962 . S
C1692 H1706 0.960 . S
C1693 C1690 1.511 . S
C1693 H1707 0.961 . S
C1693 H1708 0.961 . S
C1693 H1709 0.961 . S
C1694 C1695 1.370 . S
C1694 C1696 1.363 . S
C1694 H1710 0.931 . S
C1695 C1694 1.370 . S
C1695 C1699 1.408 . S
C1696 C1694 1.363 . S
C1696 C1697 1.370 . S
C1696 C1700 1.524 . S
C1697 C1689 1.503 . S
C1697 C1696 1.370 . S
C1697 C1698 1.403 . S
C1698 C1697 1.403 . S
C1698 C1699 1.404 . S
C1698 C1701 1.539 . S
C1699 C1695 1.408 . S
C1699 C1698 1.404 . S
C1699 H1711 0.930 . S
C1700 C1696 1.524 . S
C1700 H1712 0.956 . S
C1700 H1713 0.961 . S
C1700 H1714 0.961 . S
C1701 C1698 1.539 . S
C1701 H1715 0.958 . S
C1701 H1716 0.961 . S
C1701 H1717 0.960 . S
H1702 C1686 0.931 . S
H1703 C1691 0.929 . S
H1704 C1692 0.960 . S
H1705 C1692 0.962 . S
H1706 C1692 0.960 . S
H1707 C1693 0.961 . S
H1708 C1693 0.961 . S
H1709 C1693 0.961 . S
H1710 C1694 0.931 . S
H1711 C1699 0.930 . S
H1712 C1700 0.956 . S
H1713 C1700 0.961 . S
H1714 C1700 0.961 . S
H1715 C1701 0.958 . S
H1716 C1701 0.961 . S
H1717 C1701 0.960 . S
C1718 C1719 1.391 . S
C1718 C1720 1.394 . S
C1718 H1734 0.931 . S
C1719 C1718 1.391 . S
C1719 C1723 1.376 . S
C1720 C1718 1.394 . S
C1720 C1721 1.369 . S
C1720 C1724 1.531 . S
C1721 C1720 1.369 . S
C1721 C1722 1.410 . S
C1721 C1729 1.503 . S
C1722 C1721 1.410 . S
C1722 C1723 1.392 . S
C1722 C1725 1.511 . S
C1723 C1719 1.376 . S
C1723 C1722 1.392 . S
C1723 H1735 0.929 . S
C1724 C1720 1.531 . S
C1724 H1736 0.960 . S
C1724 H1737 0.962 . S
C1724 H1738 0.960 . S
C1725 C1722 1.511 . S
C1725 H1739 0.961 . S
C1725 H1740 0.961 . S
C1725 H1741 0.961 . S
C1726 C1727 1.370 . S
C1726 C1728 1.363 . S
C1726 H1742 0.931 . S
C1727 C1726 1.370 . S
C1727 C1731 1.408 . S
C1728 C1726 1.363 . S
C1728 C1729 1.370 . S
C1728 C1732 1.524 . S
C1729 C1721 1.503 . S
C1729 C1728 1.370 . S
C1729 C1730 1.403 . S
C1730 C1729 1.403 . S
C1730 C1731 1.404 . S
C1730 C1733 1.539 . S
C1731 C1727 1.408 . S
C1731 C1730 1.404 . S
C1731 H1743 0.930 . S
C1732 C1728 1.524 . S
C1732 H1744 0.956 . S
C1732 H1745 0.961 . S
C1732 H1746 0.961 . S
C1733 C1730 1.539 . S
C1733 H1747 0.958 . S
C1733 H1748 0.961 . S
C1733 H1749 0.960 . S
H1734 C1718 0.931 . S
H1735 C1723 0.929 . S
H1736 C1724 0.960 . S
H1737 C1724 0.962 . S
H1738 C1724 0.960 . S
H1739 C1725 0.961 . S
H1740 C1725 0.961 . S
H1741 C1725 0.961 . S
H1742 C1726 0.931 . S
H1743 C1731 0.930 . S
H1744 C1732 0.956 . S
H1745 C1732 0.961 . S
H1746 C1732 0.961 . S
H1747 C1733 0.958 . S
H1748 C1733 0.961 . S
H1749 C1733 0.960 . S
C1750 C1751 1.391 . S
C1750 C1752 1.394 . S
C1750 H1766 0.931 . S
C1751 C1750 1.391 . S
C1751 C1755 1.376 . S
C1752 C1750 1.394 . S
C1752 C1753 1.369 . S
C1752 C1756 1.531 . S
C1753 C1752 1.369 . S
C1753 C1754 1.410 . S
C1753 C1761 1.503 . S
C1754 C1753 1.410 . S
C1754 C1755 1.392 . S
C1754 C1757 1.511 . S
C1755 C1751 1.376 . S
C1755 C1754 1.392 . S
C1755 H1767 0.929 . S
C1756 C1752 1.531 . S
C1756 H1768 0.960 . S
C1756 H1769 0.962 . S
C1756 H1770 0.960 . S
C1757 C1754 1.511 . S
C1757 H1771 0.961 . S
C1757 H1772 0.961 . S
C1757 H1773 0.961 . S
C1758 C1759 1.370 . S
C1758 C1760 1.363 . S
C1758 H1774 0.931 . S
C1759 C1758 1.370 . S
C1759 C1763 1.408 . S
C1760 C1758 1.363 . S
C1760 C1761 1.370 . S
C1760 C1764 1.524 . S
C1761 C1753 1.503 . S
C1761 C1760 1.370 . S
C1761 C1762 1.403 . S
C1762 C1761 1.403 . S
C1762 C1763 1.404 . S
C1762 C1765 1.539 . S
C1763 C1759 1.408 . S
C1763 C1762 1.404 . S
C1763 H1775 0.930 . S
C1764 C1760 1.524 . S
C1764 H1776 0.956 . S
C1764 H1777 0.961 . S
C1764 H1778 0.961 . S
C1765 C1762 1.539 . S
C1765 H1779 0.958 . S
C1765 H1780 0.961 . S
C1765 H1781 0.960 . S
H1766 C1750 0.931 . S
H1767 C1755 0.929 . S
H1768 C1756 0.960 . S
H1769 C1756 0.962 . S
H1770 C1756 0.960 . S
H1771 C1757 0.961 . S
H1772 C1757 0.961 . S
H1773 C1757 0.961 . S
H1774 C1758 0.931 . S
H1775 C1763 0.930 . S
H1776 C1764 0.956 . S
H1777 C1764 0.961 . S
H1778 C1764 0.961 . S
H1779 C1765 0.958 . S
H1780 C1765 0.961 . S
H1781 C1765 0.960 . S
C1782 C1783 1.391 . S
C1782 C1784 1.394 . S
C1782 H1798 0.931 . S
C1783 C1782 1.391 . S
C1783 C1787 1.376 . S
C1784 C1782 1.394 . S
C1784 C1785 1.369 . S
C1784 C1788 1.531 . S
C1785 C1784 1.369 . S
C1785 C1786 1.410 . S
C1785 C1793 1.503 . S
C1786 C1785 1.410 . S
C1786 C1787 1.392 . S
C1786 C1789 1.511 . S
C1787 C1783 1.376 . S
C1787 C1786 1.392 . S
C1787 H1799 0.929 . S
C1788 C1784 1.531 . S
C1788 H1800 0.960 . S
C1788 H1801 0.962 . S
C1788 H1802 0.960 . S
C1789 C1786 1.511 . S
C1789 H1803 0.961 . S
C1789 H1804 0.961 . S
C1789 H1805 0.961 . S
C1790 C1791 1.370 . S
C1790 C1792 1.363 . S
C1790 H1806 0.931 . S
C1791 C1790 1.370 . S
C1791 C1795 1.408 . S
C1792 C1790 1.363 . S
C1792 C1793 1.370 . S
C1792 C1796 1.524 . S
C1793 C1785 1.503 . S
C1793 C1792 1.370 . S
C1793 C1794 1.403 . S
C1794 C1793 1.403 . S
C1794 C1795 1.404 . S
C1794 C1797 1.539 . S
C1795 C1791 1.408 . S
C1795 C1794 1.404 . S
C1795 H1807 0.930 . S
C1796 C1792 1.524 . S
C1796 H1808 0.956 . S
C1796 H1809 0.961 . S
C1796 H1810 0.961 . S
C1797 C1794 1.539 . S
C1797 H1811 0.958 . S
C1797 H1812 0.961 . S
C1797 H1813 0.960 . S
H1798 C1782 0.931 . S
H1799 C1787 0.929 . S
H1800 C1788 0.960 . S
H1801 C1788 0.962 . S
H1802 C1788 0.960 . S
H1803 C1789 0.961 . S
H1804 C1789 0.961 . S
H1805 C1789 0.961 . S
H1806 C1790 0.931 . S
H1807 C1795 0.930 . S
H1808 C1796 0.956 . S
H1809 C1796 0.961 . S
H1810 C1796 0.961 . S
H1811 C1797 0.958 . S
H1812 C1797 0.961 . S
H1813 C1797 0.960 . S
C1814 C1815 1.391 . S
C1814 C1816 1.394 . S
C1814 H1830 0.931 . S
C1815 C1814 1.391 . S
C1815 C1819 1.376 . S
C1816 C1814 1.394 . S
C1816 C1817 1.369 . S
C1816 C1820 1.531 . S
C1817 C1816 1.369 . S
C1817 C1818 1.410 . S
C1817 C1825 1.503 . S
C1818 C1817 1.410 . S
C1818 C1819 1.392 . S
C1818 C1821 1.511 . S
C1819 C1815 1.376 . S
C1819 C1818 1.392 . S
C1819 H1831 0.929 . S
C1820 C1816 1.531 . S
C1820 H1832 0.960 . S
C1820 H1833 0.962 . S
C1820 H1834 0.960 . S
C1821 C1818 1.511 . S
C1821 H1835 0.961 . S
C1821 H1836 0.961 . S
C1821 H1837 0.961 . S
C1822 C1823 1.370 . S
C1822 C1824 1.363 . S
C1822 H1838 0.931 . S
C1823 C1822 1.370 . S
C1823 C1827 1.408 . S
C1824 C1822 1.363 . S
C1824 C1825 1.370 . S
C1824 C1828 1.524 . S
C1825 C1817 1.503 . S
C1825 C1824 1.370 . S
C1825 C1826 1.403 . S
C1826 C1825 1.403 . S
C1826 C1827 1.404 . S
C1826 C1829 1.539 . S
C1827 C1823 1.408 . S
C1827 C1826 1.404 . S
C1827 H1839 0.930 . S
C1828 C1824 1.524 . S
C1828 H1840 0.956 . S
C1828 H1841 0.961 . S
C1828 H1842 0.961 . S
C1829 C1826 1.539 . S
C1829 H1843 0.958 . S
C1829 H1844 0.961 . S
C1829 H1845 0.960 . S
H1830 C1814 0.931 . S
H1831 C1819 0.929 . S
H1832 C1820 0.960 . S
H1833 C1820 0.962 . S
H1834 C1820 0.960 . S
H1835 C1821 0.961 . S
H1836 C1821 0.961 . S
H1837 C1821 0.961 . S
H1838 C1822 0.931 . S
H1839 C1827 0.930 . S
H1840 C1828 0.956 . S
H1841 C1828 0.961 . S
H1842 C1828 0.961 . S
H1843 C1829 0.958 . S
H1844 C1829 0.961 . S
H1845 C1829 0.960 . S
C1846 C1847 1.391 . S
C1846 C1848 1.394 . S
C1846 H1862 0.931 1_554 S
C1847 C1846 1.391 . S
C1847 C1851 1.376 . S
C1848 C1846 1.394 . S
C1848 C1849 1.369 . S
C1848 C1852 1.531 . S
C1849 C1848 1.369 . S
C1849 C1850 1.410 . S
C1849 C1857 1.503 . S
C1850 C1849 1.410 . S
C1850 C1851 1.392 . S
C1850 C1853 1.511 . S
C1851 C1847 1.376 . S
C1851 C1850 1.392 . S
C1851 H1863 0.929 . S
C1852 C1848 1.531 . S
C1852 H1864 0.960 . S
C1852 H1865 0.962 . S
C1852 H1866 0.960 1_554 S
C1853 C1850 1.511 . S
C1853 H1867 0.961 . S
C1853 H1868 0.961 . S
C1853 H1869 0.961 . S
C1854 C1855 1.370 . S
C1854 C1856 1.363 . S
C1854 H1870 0.931 . S
C1855 C1854 1.370 . S
C1855 C1859 1.408 . S
C1856 C1854 1.363 . S
C1856 C1857 1.370 . S
C1856 C1860 1.524 . S
C1857 C1849 1.503 . S
C1857 C1856 1.370 . S
C1857 C1858 1.403 . S
C1858 C1857 1.403 . S
C1858 C1859 1.404 . S
C1858 C1861 1.539 . S
C1859 C1855 1.408 . S
C1859 C1858 1.404 . S
C1859 H1871 0.930 . S
C1860 C1856 1.524 . S
C1860 H1872 0.956 . S
C1860 H1873 0.961 . S
C1860 H1874 0.961 . S
C1861 C1858 1.539 . S
C1861 H1875 0.958 . S
C1861 H1876 0.961 . S
C1861 H1877 0.960 . S
H1862 C1846 0.931 1_556 S
H1863 C1851 0.929 . S
H1864 C1852 0.960 . S
H1865 C1852 0.962 . S
H1866 C1852 0.960 1_556 S
H1867 C1853 0.961 . S
H1868 C1853 0.961 . S
H1869 C1853 0.961 . S
H1870 C1854 0.931 . S
H1871 C1859 0.930 . S
H1872 C1860 0.956 . S
H1873 C1860 0.961 . S
H1874 C1860 0.961 . S
H1875 C1861 0.958 . S
H1876 C1861 0.961 . S
H1877 C1861 0.960 . S
C1878 C1879 1.391 . S
C1878 C1880 1.394 . S
C1878 H1894 0.931 . S
C1879 C1878 1.391 . S
C1879 C1883 1.376 1_556 S
C1880 C1878 1.394 . S
C1880 C1881 1.369 . S
C1880 C1884 1.531 . S
C1881 C1880 1.369 . S
C1881 C1882 1.410 . S
C1881 C1889 1.503 . S
C1882 C1881 1.410 . S
C1882 C1883 1.392 1_556 S
C1882 C1885 1.511 1_556 S
C1883 C1879 1.376 1_554 S
C1883 C1882 1.392 1_554 S
C1883 H1895 0.929 . S
C1884 C1880 1.531 . S
C1884 H1896 0.960 . S
C1884 H1897 0.962 . S
C1884 H1898 0.960 . S
C1885 C1882 1.511 1_554 S
C1885 H1899 0.961 . S
C1885 H1900 0.961 . S
C1885 H1901 0.961 . S
C1886 C1887 1.370 . S
C1886 C1888 1.363 . S
C1886 H1902 0.931 . S
C1887 C1886 1.370 . S
C1887 C1891 1.408 . S
C1888 C1886 1.363 . S
C1888 C1889 1.370 . S
C1888 C1892 1.524 . S
C1889 C1881 1.503 . S
C1889 C1888 1.370 . S
C1889 C1890 1.403 . S
C1890 C1889 1.403 . S
C1890 C1891 1.404 . S
C1890 C1893 1.539 . S
C1891 C1887 1.408 . S
C1891 C1890 1.404 . S
C1891 H1903 0.930 . S
C1892 C1888 1.524 . S
C1892 H1904 0.956 . S
C1892 H1905 0.961 . S
C1892 H1906 0.961 . S
C1893 C1890 1.539 . S
C1893 H1907 0.958 . S
C1893 H1908 0.961 . S
C1893 H1909 0.960 . S
H1894 C1878 0.931 . S
H1895 C1883 0.929 . S
H1896 C1884 0.960 . S
H1897 C1884 0.962 . S
H1898 C1884 0.960 . S
H1899 C1885 0.961 . S
H1900 C1885 0.961 . S
H1901 C1885 0.961 . S
H1902 C1886 0.931 . S
H1903 C1891 0.930 . S
H1904 C1892 0.956 . S
H1905 C1892 0.961 . S
H1906 C1892 0.961 . S
H1907 C1893 0.958 . S
H1908 C1893 0.961 . S
H1909 C1893 0.960 . S
C1910 C1911 1.391 . S
C1910 C1912 1.394 . S
C1910 H1926 0.931 . S
C1911 C1910 1.391 . S
C1911 C1915 1.376 . S
C1912 C1910 1.394 . S
C1912 C1913 1.369 . S
C1912 C1916 1.531 . S
C1913 C1912 1.369 . S
C1913 C1914 1.410 . S
C1913 C1921 1.503 . S
C1914 C1913 1.410 . S
C1914 C1915 1.392 . S
C1914 C1917 1.511 . S
C1915 C1911 1.376 . S
C1915 C1914 1.392 . S
C1915 H1927 0.929 . S
C1916 C1912 1.531 . S
C1916 H1928 0.960 . S
C1916 H1929 0.962 . S
C1916 H1930 0.960 . S
C1917 C1914 1.511 . S
C1917 H1931 0.961 . S
C1917 H1932 0.961 . S
C1917 H1933 0.961 . S
C1918 C1919 1.370 . S
C1918 C1920 1.363 . S
C1918 H1934 0.931 . S
C1919 C1918 1.370 . S
C1919 C1923 1.408 . S
C1920 C1918 1.363 . S
C1920 C1921 1.370 . S
C1920 C1924 1.495 1_556 S
C1921 C1913 1.503 . S
C1921 C1920 1.370 . S
C1921 C1922 1.403 . S
C1922 C1921 1.403 . S
C1922 C1923 1.404 . S
C1922 C1925 1.539 . S
C1923 C1919 1.408 . S
C1923 C1922 1.404 . S
C1923 H1935 0.930 . S
C1924 C1920 1.495 1_554 S
C1924 H1936 0.963 . S
C1924 H1937 0.966 . S
C1924 H1938 0.978 . S
C1925 C1922 1.539 . S
C1925 H1939 0.958 . S
C1925 H1940 0.961 . S
C1925 H1941 0.960 . S
H1926 C1910 0.931 . S
H1927 C1915 0.929 . S
H1928 C1916 0.960 . S
H1929 C1916 0.962 . S
H1930 C1916 0.960 . S
H1931 C1917 0.961 . S
H1932 C1917 0.961 . S
H1933 C1917 0.961 . S
H1934 C1918 0.931 . S
H1935 C1923 0.930 . S
H1936 C1924 0.963 . S
H1937 C1924 0.966 . S
H1938 C1924 0.978 . S
H1939 C1925 0.958 . S
H1940 C1925 0.961 . S
H1941 C1925 0.960 . S
C1942 C1943 1.391 . S
C1942 C1944 1.394 . S
C1942 H1958 0.931 . S
C1943 C1942 1.391 . S
C1943 C1947 1.376 1_556 S
C1944 C1942 1.394 . S
C1944 C1945 1.369 . S
C1944 C1948 1.531 . S
C1945 C1944 1.369 . S
C1945 C1946 1.410 . S
C1945 C1953 1.503 . S
C1946 C1945 1.410 . S
C1946 C1947 1.392 1_556 S
C1946 C1949 1.511 1_556 S
C1947 C1943 1.376 1_554 S
C1947 C1946 1.392 1_554 S
C1947 H1959 0.929 . S
C1948 C1944 1.531 . S
C1948 H1960 0.960 . S
C1948 H1961 0.962 . S
C1948 H1962 0.960 . S
C1949 C1946 1.511 1_554 S
C1949 H1963 0.961 . S
C1949 H1964 0.963 . S
C1949 H1965 0.961 . S
C1950 C1951 1.370 . S
C1950 C1952 1.363 . S
C1950 H1966 0.931 . S
C1951 C1950 1.370 . S
C1951 C1955 1.408 . S
C1952 C1950 1.363 . S
C1952 C1953 1.370 . S
C1952 C1956 1.524 . S
C1953 C1945 1.503 . S
C1953 C1952 1.370 . S
C1953 C1954 1.403 . S
C1954 C1953 1.403 . S
C1954 C1955 1.404 . S
C1954 C1957 1.539 . S
C1955 C1951 1.408 . S
C1955 C1954 1.404 . S
C1955 H1967 0.930 . S
C1956 C1952 1.524 . S
C1956 H1968 0.956 . S
C1956 H1969 0.961 . S
C1956 H1970 0.961 . S
C1957 C1954 1.539 . S
C1957 H1971 0.958 . S
C1957 H1972 0.961 . S
C1957 H1973 0.960 . S
H1958 C1942 0.931 . S
H1959 C1947 0.929 . S
H1960 C1948 0.960 . S
H1961 C1948 0.962 . S
H1962 C1948 0.960 . S
H1963 C1949 0.961 . S
H1964 C1949 0.963 . S
H1965 C1949 0.961 . S
H1966 C1950 0.931 . S
H1967 C1955 0.930 . S
H1968 C1956 0.956 . S
H1969 C1956 0.961 . S
H1970 C1956 0.961 . S
H1971 C1957 0.958 . S
H1972 C1957 0.961 . S
H1973 C1957 0.960 . S
C1974 C1975 1.391 . S
C1974 C1976 1.394 . S
C1974 H1990 0.931 . S
C1975 C1974 1.391 . S
C1975 C1979 1.376 1_556 S
C1976 C1974 1.394 . S
C1976 C1977 1.369 . S
C1976 C1980 1.531 . S
C1977 C1976 1.369 . S
C1977 C1978 1.410 . S
C1977 C1985 1.503 . S
C1978 C1977 1.410 . S
C1978 C1979 1.392 1_556 S
C1978 C1981 1.511 1_556 S
C1979 C1975 1.376 1_554 S
C1979 C1978 1.392 1_554 S
C1979 H1991 0.929 . S
C1980 C1976 1.531 . S
C1980 H1992 0.960 . S
C1980 H1993 0.962 . S
C1980 H1994 0.960 . S
C1981 C1978 1.511 1_554 S
C1981 H1995 0.961 . S
C1981 H1996 0.961 . S
C1981 H1997 0.961 . S
C1982 C1983 1.370 . S
C1982 C1984 1.363 . S
C1982 H1998 0.931 . S
C1983 C1982 1.370 . S
C1983 C1987 1.408 . S
C1984 C1982 1.363 . S
C1984 C1985 1.370 . S
C1984 C1988 1.524 . S
C1985 C1977 1.503 . S
C1985 C1984 1.370 . S
C1985 C1986 1.403 . S
C1986 C1985 1.403 . S
C1986 C1987 1.404 . S
C1986 C1989 1.539 . S
C1987 C1983 1.408 . S
C1987 C1986 1.404 . S
C1987 H1999 0.930 . S
C1988 C1984 1.524 . S
C1988 H2000 0.956 . S
C1988 H2001 0.961 . S
C1988 H2002 0.961 . S
C1989 C1986 1.539 . S
C1989 H2003 0.958 . S
C1989 H2004 0.961 . S
C1989 H2005 0.960 . S
H1990 C1974 0.931 . S
H1991 C1979 0.929 . S
H1992 C1980 0.960 . S
H1993 C1980 0.962 . S
H1994 C1980 0.960 . S
H1995 C1981 0.961 . S
H1996 C1981 0.961 . S
H1997 C1981 0.961 . S
H1998 C1982 0.931 . S
H1999 C1987 0.930 . S
H2000 C1988 0.956 . S
H2001 C1988 0.961 . S
H2002 C1988 0.961 . S
H2003 C1989 0.958 . S
H2004 C1989 0.961 . S
H2005 C1989 0.960 . S
C2006 C2007 1.391 . S
C2006 C2008 1.394 . S
C2006 H2022 0.931 1_556 S
C2007 C2006 1.391 . S
C2007 C2011 1.376 . S
C2008 C2006 1.394 . S
C2008 C2009 1.369 . S
C2008 C2012 1.531 1_556 S
C2009 C2008 1.369 . S
C2009 C2010 1.410 . S
C2009 C2017 1.503 . S
C2010 C2009 1.410 . S
C2010 C2011 1.392 . S
C2010 C2013 1.511 . S
C2011 C2007 1.376 . S
C2011 C2010 1.392 . S
C2011 H2023 0.929 . S
C2012 C2008 1.531 1_554 S
C2012 H2024 0.960 . S
C2012 H2025 0.962 1_554 S
C2012 H2026 0.960 . S
C2013 C2010 1.511 . S
C2013 H2027 0.961 . S
C2013 H2028 0.961 . S
C2013 H2029 0.961 . S
C2014 C2015 1.370 . S
C2014 C2016 1.363 . S
C2014 H2030 0.931 . S
C2015 C2014 1.370 . S
C2015 C2019 1.408 . S
C2016 C2014 1.363 . S
C2016 C2017 1.370 . S
C2016 C2020 1.524 . S
C2017 C2009 1.503 . S
C2017 C2016 1.370 . S
C2017 C2018 1.403 . S
C2018 C2017 1.403 . S
C2018 C2019 1.404 . S
C2018 C2021 1.539 . S
C2019 C2015 1.408 . S
C2019 C2018 1.404 . S
C2019 H2031 0.930 . S
C2020 C2016 1.524 . S
C2020 H2032 0.956 . S
C2020 H2033 0.961 . S
C2020 H2034 0.961 . S
C2021 C2018 1.539 . S
C2021 H2035 0.958 1_556 S
C2021 H2036 0.961 . S
C2021 H2037 0.960 . S
H2022 C2006 0.931 1_554 S
H2023 C2011 0.929 . S
H2024 C2012 0.960 . S
H2025 C2012 0.962 1_556 S
H2026 C2012 0.960 . S
H2027 C2013 0.961 . S
H2028 C2013 0.961 . S
H2029 C2013 0.961 . S
H2030 C2014 0.931 . S
H2031 C2019 0.930 . S
H2032 C2020 0.956 . S
H2033 C2020 0.961 . S
H2034 C2020 0.961 . S
H2035 C2021 0.958 1_554 S
H2036 C2021 0.961 . S
H2037 C2021 0.960 . S
C2038 C2039 1.391 1_554 S
C2038 C2040 1.394 1_554 S
C2038 H2054 0.931 . S
C2039 C2038 1.391 1_556 S
C2039 C2043 1.376 . S
C2040 C2038 1.394 1_556 S
C2040 C2041 1.369 . S
C2040 C2044 1.531 1_556 S
C2041 C2040 1.369 . S
C2041 C2042 1.410 . S
C2041 C2049 1.503 . S
C2042 C2041 1.410 . S
C2042 C2043 1.392 . S
C2042 C2045 1.511 . S
C2043 C2039 1.376 . S
C2043 C2042 1.392 . S
C2043 H2055 0.929 . S
C2044 C2040 1.531 1_554 S
C2044 H2056 0.960 . S
C2044 H2057 0.962 . S
C2044 H2058 0.960 . S
C2045 C2042 1.511 . S
C2045 H2059 0.961 . S
C2045 H2060 0.961 . S
C2045 H2061 0.961 . S
C2046 C2047 1.370 . S
C2046 C2048 1.363 . S
C2046 H2062 0.931 . S
C2047 C2046 1.370 . S
C2047 C2051 1.408 . S
C2048 C2046 1.363 . S
C2048 C2049 1.370 . S
C2048 C2052 1.524 . S
C2049 C2041 1.503 . S
C2049 C2048 1.370 . S
C2049 C2050 1.403 . S
C2050 C2049 1.403 . S
C2050 C2051 1.404 . S
C2050 C2053 1.539 . S
C2051 C2047 1.408 . S
C2051 C2050 1.404 . S
C2051 H2063 0.930 . S
C2052 C2048 1.524 . S
C2052 H2064 0.956 . S
C2052 H2065 0.961 . S
C2052 H2066 0.961 . S
C2053 C2050 1.539 . S
C2053 H2067 0.958 . S
C2053 H2068 0.961 . S
C2053 H2069 0.960 . S
H2054 C2038 0.931 . S
H2055 C2043 0.929 . S
H2056 C2044 0.960 . S
H2057 C2044 0.962 . S
H2058 C2044 0.960 . S
H2059 C2045 0.961 . S
H2060 C2045 0.961 . S
H2061 C2045 0.961 . S
H2062 C2046 0.931 . S
H2063 C2051 0.930 . S
H2064 C2052 0.956 . S
H2065 C2052 0.961 . S
H2066 C2052 0.961 . S
H2067 C2053 0.958 . S
H2068 C2053 0.961 . S
H2069 C2053 0.960 . S
C2070 C2071 1.391 . S
C2070 C2072 1.394 . S
C2070 H2086 0.931 . S
C2071 C2070 1.391 . S
C2071 C2075 1.376 . S
C2072 C2070 1.394 . S
C2072 C2073 1.369 . S
C2072 C2076 1.531 . S
C2073 C2072 1.369 . S
C2073 C2074 1.410 . S
C2073 C2081 1.503 . S
C2074 C2073 1.410 . S
C2074 C2075 1.392 . S
C2074 C2077 1.511 . S
C2075 C2071 1.376 . S
C2075 C2074 1.392 . S
C2075 H2087 0.929 . S
C2076 C2072 1.531 . S
C2076 H2088 0.960 . S
C2076 H2089 0.962 . S
C2076 H2090 0.960 . S
C2077 C2074 1.511 . S
C2077 H2091 0.961 . S
C2077 H2092 0.961 . S
C2077 H2093 0.961 . S
C2078 C2079 1.370 . S
C2078 C2080 1.363 . S
C2078 H2094 0.931 . S
C2079 C2078 1.370 . S
C2079 C2083 1.408 . S
C2080 C2078 1.363 . S
C2080 C2081 1.370 . S
C2080 C2084 1.524 . S
C2081 C2073 1.503 . S
C2081 C2080 1.370 . S
C2081 C2082 1.403 . S
C2082 C2081 1.403 . S
C2082 C2083 1.404 . S
C2082 C2085 1.539 . S
C2083 C2079 1.408 . S
C2083 C2082 1.404 . S
C2083 H2095 0.930 . S
C2084 C2080 1.524 . S
C2084 H2096 0.956 . S
C2084 H2097 0.961 . S
C2084 H2098 0.961 . S
C2085 C2082 1.539 . S
C2085 H2099 0.958 . S
C2085 H2100 0.961 . S
C2085 H2101 0.960 . S
H2086 C2070 0.931 . S
H2087 C2075 0.929 . S
H2088 C2076 0.960 . S
H2089 C2076 0.962 . S
H2090 C2076 0.960 . S
H2091 C2077 0.961 . S
H2092 C2077 0.961 . S
H2093 C2077 0.961 . S
H2094 C2078 0.931 . S
H2095 C2083 0.930 . S
H2096 C2084 0.956 . S
H2097 C2084 0.961 . S
H2098 C2084 0.961 . S
H2099 C2085 0.958 . S
H2100 C2085 0.961 . S
H2101 C2085 0.960 . S
C2102 C2103 1.391 . S
C2102 C2104 1.394 . S
C2102 H2118 0.931 . S
C2103 C2102 1.391 . S
C2103 C2107 1.376 . S
C2104 C2102 1.394 . S
C2104 C2105 1.369 . S
C2104 C2108 1.531 . S
C2105 C2104 1.369 . S
C2105 C2106 1.410 . S
C2105 C2113 1.503 . S
C2106 C2105 1.410 . S
C2106 C2107 1.392 . S
C2106 C2109 1.511 . S
C2107 C2103 1.376 . S
C2107 C2106 1.392 . S
C2107 H2119 0.929 . S
C2108 C2104 1.531 . S
C2108 H2120 0.960 . S
C2108 H2121 0.962 . S
C2108 H2122 0.960 . S
C2109 C2106 1.511 . S
C2109 H2123 0.961 . S
C2109 H2124 0.961 . S
C2109 H2125 0.961 1_554 S
C2110 C2111 1.370 . S
C2110 C2112 1.363 . S
C2110 H2126 0.931 . S
C2111 C2110 1.370 . S
C2111 C2115 1.408 . S
C2112 C2110 1.363 . S
C2112 C2113 1.370 . S
C2112 C2116 1.524 . S
C2113 C2105 1.503 . S
C2113 C2112 1.370 . S
C2113 C2114 1.403 . S
C2114 C2113 1.403 . S
C2114 C2115 1.404 . S
C2114 C2117 1.539 . S
C2115 C2111 1.408 . S
C2115 C2114 1.404 . S
C2115 H2127 0.930 . S
C2116 C2112 1.524 . S
C2116 H2128 0.956 . S
C2116 H2129 0.961 . S
C2116 H2130 0.961 . S
C2117 C2114 1.539 . S
C2117 H2131 0.958 . S
C2117 H2132 0.961 . S
C2117 H2133 0.960 . S
H2118 C2102 0.931 . S
H2119 C2107 0.929 . S
H2120 C2108 0.960 . S
H2121 C2108 0.962 . S
H2122 C2108 0.960 . S
H2123 C2109 0.961 . S
H2124 C2109 0.961 . S
H2125 C2109 0.961 1_556 S
H2126 C2110 0.931 . S
H2127 C2115 0.930 . S
H2128 C2116 0.956 . S
H2129 C2116 0.961 . S
H2130 C2116 0.961 . S
H2131 C2117 0.958 . S
H2132 C2117 0.961 . S
H2133 C2117 0.960 . S
C2134 C2135 1.391 . S
C2134 C2136 1.394 . S
C2134 H2150 0.931 . S
C2135 C2134 1.391 . S
C2135 C2139 1.376 . S
C2136 C2134 1.394 . S
C2136 C2137 1.369 . S
C2136 C2140 1.531 . S
C2137 C2136 1.369 . S
C2137 C2138 1.410 . S
C2137 C2145 1.503 . S
C2138 C2137 1.410 . S
C2138 C2139 1.392 . S
C2138 C2141 1.511 . S
C2139 C2135 1.376 . S
C2139 C2138 1.392 . S
C2139 H2151 0.929 1_554 S
C2140 C2136 1.531 . S
C2140 H2152 0.960 . S
C2140 H2153 0.962 . S
C2140 H2154 0.960 . S
C2141 C2138 1.511 . S
C2141 H2155 0.961 1_554 S
C2141 H2156 0.961 . S
C2141 H2157 0.961 . S
C2142 C2143 1.370 . S
C2142 C2144 1.363 . S
C2142 H2158 0.931 . S
C2143 C2142 1.370 . S
C2143 C2147 1.408 . S
C2144 C2142 1.363 . S
C2144 C2145 1.370 . S
C2144 C2148 1.524 . S
C2145 C2137 1.503 . S
C2145 C2144 1.370 . S
C2145 C2146 1.403 . S
C2146 C2145 1.403 . S
C2146 C2147 1.404 . S
C2146 C2149 1.539 . S
C2147 C2143 1.408 . S
C2147 C2146 1.404 . S
C2147 H2159 0.930 . S
C2148 C2144 1.524 . S
C2148 H2160 0.956 . S
C2148 H2161 0.961 . S
C2148 H2162 0.961 . S
C2149 C2146 1.539 . S
C2149 H2163 0.958 . S
C2149 H2164 0.961 . S
C2149 H2165 0.960 . S
H2150 C2134 0.931 . S
H2151 C2139 0.929 1_556 S
H2152 C2140 0.960 . S
H2153 C2140 0.962 . S
H2154 C2140 0.960 . S
H2155 C2141 0.961 1_556 S
H2156 C2141 0.961 . S
H2157 C2141 0.961 . S
H2158 C2142 0.931 . S
H2159 C2147 0.930 . S
H2160 C2148 0.956 . S
H2161 C2148 0.961 . S
H2162 C2148 0.961 . S
H2163 C2149 0.958 . S
H2164 C2149 0.961 . S
H2165 C2149 0.960 . S
C2166 C2167 1.391 . S
C2166 C2168 1.394 . S
C2166 H2182 0.931 . S
C2167 C2166 1.391 . S
C2167 C2171 1.376 . S
C2168 C2166 1.394 . S
C2168 C2169 1.369 . S
C2168 C2172 1.531 . S
C2169 C2168 1.369 . S
C2169 C2170 1.410 . S
C2169 C2177 1.503 . S
C2170 C2169 1.410 . S
C2170 C2171 1.392 . S
C2170 C2173 1.511 . S
C2171 C2167 1.376 . S
C2171 C2170 1.392 . S
C2171 H2183 0.929 . S
C2172 C2168 1.531 . S
C2172 H2184 0.960 . S
C2172 H2185 0.962 . S
C2172 H2186 0.960 . S
C2173 C2170 1.511 . S
C2173 H2187 0.961 . S
C2173 H2188 0.961 . S
C2173 H2189 0.961 . S
C2174 C2175 1.370 . S
C2174 C2176 1.363 . S
C2174 H2190 0.931 . S
C2175 C2174 1.370 . S
C2175 C2179 1.408 . S
C2176 C2174 1.363 . S
C2176 C2177 1.370 . S
C2176 C2180 1.524 . S
C2177 C2169 1.503 . S
C2177 C2176 1.370 . S
C2177 C2178 1.403 . S
C2178 C2177 1.403 . S
C2178 C2179 1.404 . S
C2178 C2181 1.539 . S
C2179 C2175 1.408 . S
C2179 C2178 1.404 . S
C2179 H2191 0.930 . S
C2180 C2176 1.524 . S
C2180 H2192 0.956 . S
C2180 H2193 0.961 . S
C2180 H2194 0.961 . S
C2181 C2178 1.539 . S
C2181 H2195 0.958 . S
C2181 H2196 0.961 . S
C2181 H2197 0.960 . S
H2182 C2166 0.931 . S
H2183 C2171 0.929 . S
H2184 C2172 0.960 . S
H2185 C2172 0.962 . S
H2186 C2172 0.960 . S
H2187 C2173 0.961 . S
H2188 C2173 0.961 . S
H2189 C2173 0.961 . S
H2190 C2174 0.931 . S
H2191 C2179 0.930 . S
H2192 C2180 0.956 . S
H2193 C2180 0.961 . S
H2194 C2180 0.961 . S
H2195 C2181 0.958 . S
H2196 C2181 0.961 . S
H2197 C2181 0.960 . S
C2198 C2199 1.391 . S
C2198 C2200 1.394 . S
C2198 H2214 0.931 . S
C2199 C2198 1.391 . S
C2199 C2203 1.376 . S
C2200 C2198 1.394 . S
C2200 C2201 1.369 . S
C2200 C2204 1.531 . S
C2201 C2200 1.369 . S
C2201 C2202 1.410 . S
C2201 C2209 1.503 . S
C2202 C2201 1.410 . S
C2202 C2203 1.392 . S
C2202 C2205 1.511 . S
C2203 C2199 1.376 . S
C2203 C2202 1.392 . S
C2203 H2215 0.929 . S
C2204 C2200 1.531 . S
C2204 H2216 0.960 . S
C2204 H2217 0.962 . S
C2204 H2218 0.960 . S
C2205 C2202 1.511 . S
C2205 H2219 0.961 . S
C2205 H2220 0.961 . S
C2205 H2221 0.961 . S
C2206 C2207 1.370 . S
C2206 C2208 1.363 . S
C2206 H2222 0.931 . S
C2207 C2206 1.370 . S
C2207 C2211 1.408 . S
C2208 C2206 1.363 . S
C2208 C2209 1.370 . S
C2208 C2212 1.524 . S
C2209 C2201 1.503 . S
C2209 C2208 1.370 . S
C2209 C2210 1.403 . S
C2210 C2209 1.403 . S
C2210 C2211 1.404 . S
C2210 C2213 1.539 . S
C2211 C2207 1.408 . S
C2211 C2210 1.404 . S
C2211 H2223 0.930 . S
C2212 C2208 1.524 . S
C2212 H2224 0.956 . S
C2212 H2225 0.961 . S
C2212 H2226 0.961 . S
C2213 C2210 1.539 . S
C2213 H2227 0.958 . S
C2213 H2228 0.961 . S
C2213 H2229 0.960 . S
H2214 C2198 0.931 . S
H2215 C2203 0.929 . S
H2216 C2204 0.960 . S
H2217 C2204 0.962 . S
H2218 C2204 0.960 . S
H2219 C2205 0.961 . S
H2220 C2205 0.961 . S
H2221 C2205 0.961 . S
H2222 C2206 0.931 . S
H2223 C2211 0.930 . S
H2224 C2212 0.956 . S
H2225 C2212 0.961 . S
H2226 C2212 0.961 . S
H2227 C2213 0.958 . S
H2228 C2213 0.961 . S
H2229 C2213 0.960 . S
C2230 C2231 1.391 . S
C2230 C2232 1.394 . S
C2230 H2246 0.931 . S
C2231 C2230 1.391 . S
C2231 C2235 1.376 . S
C2232 C2230 1.394 . S
C2232 C2233 1.369 . S
C2232 C2236 1.531 . S
C2233 C2232 1.369 . S
C2233 C2234 1.410 . S
C2233 C2241 1.503 . S
C2234 C2233 1.410 . S
C2234 C2235 1.392 . S
C2234 C2237 1.511 . S
C2235 C2231 1.376 . S
C2235 C2234 1.392 . S
C2235 H2247 0.929 . S
C2236 C2232 1.531 . S
C2236 H2248 0.960 . S
C2236 H2249 0.962 . S
C2236 H2250 0.960 . S
C2237 C2234 1.511 . S
C2237 H2251 0.961 . S
C2237 H2252 0.961 . S
C2237 H2253 0.961 . S
C2238 C2239 1.370 . S
C2238 C2240 1.363 . S
C2238 H2254 0.931 . S
C2239 C2238 1.370 . S
C2239 C2243 1.408 . S
C2240 C2238 1.363 . S
C2240 C2241 1.370 . S
C2240 C2244 1.524 . S
C2241 C2233 1.503 . S
C2241 C2240 1.370 . S
C2241 C2242 1.403 . S
C2242 C2241 1.403 . S
C2242 C2243 1.404 . S
C2242 C2245 1.539 . S
C2243 C2239 1.408 . S
C2243 C2242 1.404 . S
C2243 H2255 0.930 . S
C2244 C2240 1.524 . S
C2244 H2256 0.956 . S
C2244 H2257 0.961 . S
C2244 H2258 0.961 . S
C2245 C2242 1.539 . S
C2245 H2259 0.958 . S
C2245 H2260 0.961 . S
C2245 H2261 0.960 . S
H2246 C2230 0.931 . S
H2247 C2235 0.929 . S
H2248 C2236 0.960 . S
H2249 C2236 0.962 . S
H2250 C2236 0.960 . S
H2251 C2237 0.961 . S
H2252 C2237 0.961 . S
H2253 C2237 0.961 . S
H2254 C2238 0.931 . S
H2255 C2243 0.930 . S
H2256 C2244 0.956 . S
H2257 C2244 0.961 . S
H2258 C2244 0.961 . S
H2259 C2245 0.958 . S
H2260 C2245 0.961 . S
H2261 C2245 0.960 . S
C2262 C2263 1.391 . S
C2262 C2264 1.394 . S
C2262 H2278 0.931 . S
C2263 C2262 1.391 . S
C2263 C2267 1.376 . S
C2264 C2262 1.394 . S
C2264 C2265 1.369 . S
C2264 C2268 1.531 1_455 S
C2265 C2264 1.369 . S
C2265 C2266 1.410 . S
C2265 C2273 1.503 . S
C2266 C2265 1.410 . S
C2266 C2267 1.392 . S
C2266 C2269 1.511 . S
C2267 C2263 1.376 . S
C2267 C2266 1.392 . S
C2267 H2279 0.929 . S
C2268 C2264 1.531 1_655 S
C2268 H2280 0.960 1_655 S
C2268 H2281 0.962 . S
C2268 H2282 0.960 . S
C2269 C2266 1.511 . S
C2269 H2283 0.961 . S
C2269 H2284 0.961 . S
C2269 H2285 0.961 . S
C2270 C2271 1.370 1_655 S
C2270 C2272 1.363 . S
C2270 H2286 0.931 . S
C2271 C2270 1.370 1_455 S
C2271 C2275 1.408 . S
C2272 C2270 1.363 . S
C2272 C2273 1.370 1_655 S
C2272 C2276 1.524 . S
C2273 C2265 1.503 . S
C2273 C2272 1.370 1_455 S
C2273 C2274 1.403 . S
C2274 C2273 1.403 . S
C2274 C2275 1.404 . S
C2274 C2277 1.539 . S
C2275 C2271 1.408 . S
C2275 C2274 1.404 . S
C2275 H2287 0.930 . S
C2276 C2272 1.524 . S
C2276 H2288 0.956 . S
C2276 H2289 0.961 . S
C2276 H2290 0.961 . S
C2277 C2274 1.539 . S
C2277 H2291 0.958 . S
C2277 H2292 0.961 . S
C2277 H2293 0.960 . S
H2278 C2262 0.931 . S
H2279 C2267 0.929 . S
H2280 C2268 0.960 1_455 S
H2281 C2268 0.962 . S
H2282 C2268 0.960 . S
H2283 C2269 0.961 . S
H2284 C2269 0.961 . S
H2285 C2269 0.961 . S
H2286 C2270 0.931 . S
H2287 C2275 0.930 . S
H2288 C2276 0.956 . S
H2289 C2276 0.961 . S
H2290 C2276 0.961 . S
H2291 C2277 0.958 . S
H2292 C2277 0.961 . S
H2293 C2277 0.960 . S
C2294 C2295 1.391 . S
C2294 C2296 1.394 . S
C2294 H2310 0.931 . S
C2295 C2294 1.391 . S
C2295 C2299 1.376 . S
C2296 C2294 1.394 . S
C2296 C2297 1.369 . S
C2296 C2300 1.531 . S
C2297 C2296 1.369 . S
C2297 C2298 1.410 . S
C2297 C2305 1.503 . S
C2298 C2297 1.410 . S
C2298 C2299 1.392 . S
C2298 C2301 1.511 . S
C2299 C2295 1.376 . S
C2299 C2298 1.392 . S
C2299 H2311 0.929 . S
C2300 C2296 1.531 . S
C2300 H2312 0.960 . S
C2300 H2313 0.962 . S
C2300 H2314 0.960 . S
C2301 C2298 1.511 . S
C2301 H2315 0.961 . S
C2301 H2316 0.961 . S
C2301 H2317 0.961 . S
C2302 C2303 1.370 . S
C2302 C2304 1.363 . S
C2302 H2318 0.931 . S
C2303 C2302 1.370 . S
C2303 C2307 1.408 . S
C2304 C2302 1.363 . S
C2304 C2305 1.370 . S
C2304 C2308 1.524 . S
C2305 C2297 1.503 . S
C2305 C2304 1.370 . S
C2305 C2306 1.403 . S
C2306 C2305 1.403 . S
C2306 C2307 1.404 . S
C2306 C2309 1.539 . S
C2307 C2303 1.408 . S
C2307 C2306 1.404 . S
C2307 H2319 0.930 . S
C2308 C2304 1.524 . S
C2308 H2320 0.956 . S
C2308 H2321 0.961 . S
C2308 H2322 0.961 . S
C2309 C2306 1.539 . S
C2309 H2323 0.958 . S
C2309 H2324 0.961 . S
C2309 H2325 0.960 . S
H2310 C2294 0.931 . S
H2311 C2299 0.929 . S
H2312 C2300 0.960 . S
H2313 C2300 0.962 . S
H2314 C2300 0.960 . S
H2315 C2301 0.961 . S
H2316 C2301 0.961 . S
H2317 C2301 0.961 . S
H2318 C2302 0.931 . S
H2319 C2307 0.930 . S
H2320 C2308 0.956 . S
H2321 C2308 0.961 . S
H2322 C2308 0.961 . S
H2323 C2309 0.958 . S
H2324 C2309 0.961 . S
H2325 C2309 0.960 . S
C2326 C2327 1.391 . S
C2326 C2328 1.395 . S
C2326 H2342 0.931 1_565 S
C2327 C2326 1.391 . S
C2327 C2331 1.376 . S
C2328 C2326 1.395 . S
C2328 C2329 1.366 . S
C2328 C2332 1.532 1_565 S
C2329 C2328 1.366 . S
C2329 C2330 1.410 . S
C2329 C2337 1.503 . S
C2330 C2329 1.410 . S
C2330 C2331 1.392 . S
C2330 C2333 1.511 . S
C2331 C2327 1.376 . S
C2331 C2330 1.392 . S
C2331 H2343 0.929 . S
C2332 C2328 1.532 1_545 S
C2332 H2344 0.960 . S
C2332 H2345 0.962 . S
C2332 H2346 0.960 . S
C2333 C2330 1.511 . S
C2333 H2347 0.961 . S
C2333 H2348 0.961 . S
C2333 H2349 0.961 . S
C2334 C2335 1.370 1_545 S
C2334 C2336 1.345 . S
C2334 H2350 0.931 . S
C2335 C2334 1.370 1_565 S
C2335 C2339 1.408 . S
C2336 C2334 1.345 . S
C2336 C2337 1.343 1_545 S
C2336 C2340 1.573 . S
C2337 C2329 1.503 . S
C2337 C2336 1.343 1_565 S
C2337 C2338 1.403 . S
C2338 C2337 1.403 . S
C2338 C2339 1.404 . S
C2338 C2341 1.539 . S
C2339 C2335 1.408 . S
C2339 C2338 1.404 . S
C2339 H2351 0.930 . S
C2340 C2336 1.573 . S
C2340 H2352 0.956 . S
C2340 H2353 0.980 . S
C2340 H2354 0.961 . S
C2341 C2338 1.539 . S
C2341 H2355 0.958 . S
C2341 H2356 0.961 . S
C2341 H2357 0.960 . S
H2342 C2326 0.931 1_545 S
H2343 C2331 0.929 . S
H2344 C2332 0.960 . S
H2345 C2332 0.962 . S
H2346 C2332 0.960 . S
H2347 C2333 0.961 . S
H2348 C2333 0.961 . S
H2349 C2333 0.961 . S
H2350 C2334 0.931 . S
H2351 C2339 0.930 . S
H2352 C2340 0.956 . S
H2353 C2340 0.980 . S
H2354 C2340 0.961 . S
H2355 C2341 0.958 . S
H2356 C2341 0.961 . S
H2357 C2341 0.960 . S
C2358 C2359 1.400 . S
C2358 C2360 1.388 1_565 S
C2358 H2374 0.928 1_565 S
C2359 C2358 1.400 . S
C2359 C2363 1.376 . S
C2360 C2358 1.388 1_545 S
C2360 C2361 1.369 1_545 S
C2360 C2364 1.531 . S
C2361 C2360 1.369 1_565 S
C2361 C2362 1.410 . S
C2361 C2369 1.503 . S
C2362 C2361 1.410 . S
C2362 C2363 1.392 . S
C2362 C2365 1.511 . S
C2363 C2359 1.376 . S
C2363 C2362 1.392 . S
C2363 H2375 0.929 . S
C2364 C2360 1.531 . S
C2364 H2376 0.960 . S
C2364 H2377 0.962 . S
C2364 H2378 0.960 . S
C2365 C2362 1.511 . S
C2365 H2379 0.961 . S
C2365 H2380 0.961 . S
C2365 H2381 0.961 . S
C2366 C2367 1.370 . S
C2366 C2368 1.363 . S
C2366 H2382 0.931 . S
C2367 C2366 1.370 . S
C2367 C2371 1.408 1_565 S
C2368 C2366 1.363 . S
C2368 C2369 1.370 . S
C2368 C2372 1.524 . S
C2369 C2361 1.503 . S
C2369 C2368 1.370 . S
C2369 C2370 1.403 1_565 S
C2370 C2369 1.403 1_545 S
C2370 C2371 1.404 . S
C2370 C2373 1.539 . S
C2371 C2367 1.408 1_545 S
C2371 C2370 1.404 . S
C2371 H2383 0.930 . S
C2372 C2368 1.524 . S
C2372 H2384 0.956 . S
C2372 H2385 0.961 . S
C2372 H2386 0.961 . S
C2373 C2370 1.539 . S
C2373 H2387 0.958 . S
C2373 H2388 0.961 . S
C2373 H2389 0.960 . S
H2374 C2358 0.928 1_545 S
H2375 C2363 0.929 . S
H2376 C2364 0.960 . S
H2377 C2364 0.962 . S
H2378 C2364 0.960 . S
H2379 C2365 0.961 . S
H2380 C2365 0.961 . S
H2381 C2365 0.961 . S
H2382 C2366 0.931 . S
H2383 C2371 0.930 . S
H2384 C2372 0.956 . S
H2385 C2372 0.961 . S
H2386 C2372 0.961 . S
H2387 C2373 0.958 . S
H2388 C2373 0.961 . S
H2389 C2373 0.960 . S
C2390 C2391 1.391 . S
C2390 C2392 1.394 . S
C2390 H2406 0.931 . S
C2391 C2390 1.391 . S
C2391 C2395 1.387 . S
C2392 C2390 1.394 . S
C2392 C2393 1.369 . S
C2392 C2396 1.531 . S
C2393 C2392 1.369 . S
C2393 C2394 1.410 1_455 S
C2393 C2401 1.503 . S
C2394 C2393 1.410 1_655 S
C2394 C2395 1.398 1_655 S
C2394 C2397 1.511 . S
C2395 C2391 1.387 . S
C2395 C2394 1.398 1_455 S
C2395 H2407 0.912 1_455 S
C2396 C2392 1.531 . S
C2396 H2408 0.960 . S
C2396 H2409 0.962 . S
C2396 H2410 0.960 . S
C2397 C2394 1.511 . S
C2397 H2411 0.961 . S
C2397 H2412 0.961 . S
C2397 H2413 0.961 . S
C2398 C2399 1.370 . S
C2398 C2400 1.363 . S
C2398 H2414 0.931 . S
C2399 C2398 1.370 . S
C2399 C2403 1.408 1_455 S
C2400 C2398 1.363 . S
C2400 C2401 1.370 . S
C2400 C2404 1.524 . S
C2401 C2393 1.503 . S
C2401 C2400 1.370 . S
C2401 C2402 1.403 . S
C2402 C2401 1.403 . S
C2402 C2403 1.404 1_455 S
C2402 C2405 1.539 1_455 S
C2403 C2399 1.408 1_655 S
C2403 C2402 1.404 1_655 S
C2403 H2415 0.930 . S
C2404 C2400 1.524 . S
C2404 H2416 0.956 . S
C2404 H2417 0.961 . S
C2404 H2418 0.961 . S
C2405 C2402 1.539 1_655 S
C2405 H2419 0.958 1_655 S
C2405 H2420 0.961 . S
C2405 H2421 0.960 . S
H2406 C2390 0.931 . S
H2407 C2395 0.912 1_655 S
H2408 C2396 0.960 . S
H2409 C2396 0.962 . S
H2410 C2396 0.960 . S
H2411 C2397 0.961 . S
H2412 C2397 0.961 . S
H2413 C2397 0.961 . S
H2414 C2398 0.931 . S
H2415 C2403 0.930 . S
H2416 C2404 0.956 . S
H2417 C2404 0.961 . S
H2418 C2404 0.961 . S
H2419 C2405 0.958 1_455 S
H2420 C2405 0.961 . S
H2421 C2405 0.960 . S
C2422 C2423 1.391 . S
C2422 C2424 1.394 . S
C2422 H2438 0.931 . S
C2423 C2422 1.391 . S
C2423 C2427 1.376 . S
C2424 C2422 1.394 . S
C2424 C2425 1.369 . S
C2424 C2428 1.531 . S
C2425 C2424 1.369 . S
C2425 C2426 1.410 . S
C2425 C2433 1.503 . S
C2426 C2425 1.410 . S
C2426 C2427 1.392 . S
C2426 C2429 1.511 . S
C2427 C2423 1.376 . S
C2427 C2426 1.392 . S
C2427 H2439 0.929 . S
C2428 C2424 1.531 . S
C2428 H2440 0.960 . S
C2428 H2441 0.962 . S
C2428 H2442 0.960 . S
C2429 C2426 1.511 . S
C2429 H2443 0.961 . S
C2429 H2444 0.961 . S
C2429 H2445 0.961 . S
C2430 C2431 1.370 . S
C2430 C2432 1.363 . S
C2430 H2446 0.931 . S
C2431 C2430 1.370 . S
C2431 C2435 1.408 . S
C2432 C2430 1.363 . S
C2432 C2433 1.370 . S
C2432 C2436 1.524 . S
C2433 C2425 1.503 . S
C2433 C2432 1.370 . S
C2433 C2434 1.403 . S
C2434 C2433 1.403 . S
C2434 C2435 1.404 . S
C2434 C2437 1.539 . S
C2435 C2431 1.408 . S
C2435 C2434 1.404 . S
C2435 H2447 0.930 . S
C2436 C2432 1.524 . S
C2436 H2448 0.956 . S
C2436 H2449 0.961 . S
C2436 H2450 0.961 . S
C2437 C2434 1.539 . S
C2437 H2451 0.958 . S
C2437 H2452 0.961 . S
C2437 H2453 0.960 . S
H2438 C2422 0.931 . S
H2439 C2427 0.929 . S
H2440 C2428 0.960 . S
H2441 C2428 0.962 . S
H2442 C2428 0.960 . S
H2443 C2429 0.961 . S
H2444 C2429 0.961 . S
H2445 C2429 0.961 . S
H2446 C2430 0.931 . S
H2447 C2435 0.930 . S
H2448 C2436 0.956 . S
H2449 C2436 0.961 . S
H2450 C2436 0.961 . S
H2451 C2437 0.958 . S
H2452 C2437 0.961 . S
H2453 C2437 0.960 . S
C2454 C2455 1.391 . S
C2454 C2456 1.394 . S
C2454 H2470 0.931 . S
C2455 C2454 1.391 . S
C2455 C2459 1.376 . S
C2456 C2454 1.394 . S
C2456 C2457 1.369 . S
C2456 C2460 1.531 . S
C2457 C2456 1.369 . S
C2457 C2458 1.410 . S
C2457 C2465 1.503 . S
C2458 C2457 1.410 . S
C2458 C2459 1.392 . S
C2458 C2461 1.511 . S
C2459 C2455 1.376 . S
C2459 C2458 1.392 . S
C2459 H2471 0.929 . S
C2460 C2456 1.531 . S
C2460 H2472 0.960 . S
C2460 H2473 0.962 . S
C2460 H2474 0.960 . S
C2461 C2458 1.511 . S
C2461 H2475 0.961 . S
C2461 H2476 0.961 . S
C2461 H2477 0.961 . S
C2462 C2463 1.370 . S
C2462 C2464 1.363 . S
C2462 H2478 0.931 . S
C2463 C2462 1.370 . S
C2463 C2467 1.408 . S
C2464 C2462 1.363 . S
C2464 C2465 1.370 . S
C2464 C2468 1.524 . S
C2465 C2457 1.503 . S
C2465 C2464 1.370 . S
C2465 C2466 1.403 . S
C2466 C2465 1.403 . S
C2466 C2467 1.404 . S
C2466 C2469 1.539 . S
C2467 C2463 1.408 . S
C2467 C2466 1.404 . S
C2467 H2479 0.930 . S
C2468 C2464 1.524 . S
C2468 H2480 0.956 . S
C2468 H2481 0.961 . S
C2468 H2482 0.961 . S
C2469 C2466 1.539 . S
C2469 H2483 0.958 . S
C2469 H2484 0.961 . S
C2469 H2485 0.960 . S
H2470 C2454 0.931 . S
H2471 C2459 0.929 . S
H2472 C2460 0.960 . S
H2473 C2460 0.962 . S
H2474 C2460 0.960 . S
H2475 C2461 0.961 . S
H2476 C2461 0.961 . S
H2477 C2461 0.961 . S
H2478 C2462 0.931 . S
H2479 C2467 0.930 . S
H2480 C2468 0.956 . S
H2481 C2468 0.961 . S
H2482 C2468 0.961 . S
H2483 C2469 0.958 . S
H2484 C2469 0.961 . S
H2485 C2469 0.960 . S
C2486 C2487 1.391 . S
C2486 C2488 1.394 . S
C2486 H2502 0.931 . S
C2487 C2486 1.391 . S
C2487 C2491 1.376 . S
C2488 C2486 1.394 . S
C2488 C2489 1.369 . S
C2488 C2492 1.531 . S
C2489 C2488 1.369 . S
C2489 C2490 1.410 . S
C2489 C2497 1.503 . S
C2490 C2489 1.410 . S
C2490 C2491 1.392 . S
C2490 C2493 1.511 . S
C2491 C2487 1.376 . S
C2491 C2490 1.392 . S
C2491 H2503 0.929 . S
C2492 C2488 1.531 . S
C2492 H2504 0.960 . S
C2492 H2505 0.962 . S
C2492 H2506 0.960 . S
C2493 C2490 1.511 . S
C2493 H2507 0.961 . S
C2493 H2508 0.961 . S
C2493 H2509 0.961 . S
C2494 C2495 1.370 . S
C2494 C2496 1.363 . S
C2494 H2510 0.931 . S
C2495 C2494 1.370 . S
C2495 C2499 1.408 . S
C2496 C2494 1.363 . S
C2496 C2497 1.370 . S
C2496 C2500 1.524 . S
C2497 C2489 1.503 . S
C2497 C2496 1.370 . S
C2497 C2498 1.403 . S
C2498 C2497 1.403 . S
C2498 C2499 1.404 . S
C2498 C2501 1.539 . S
C2499 C2495 1.408 . S
C2499 C2498 1.404 . S
C2499 H2511 0.930 . S
C2500 C2496 1.524 . S
C2500 H2512 0.956 . S
C2500 H2513 0.961 . S
C2500 H2514 0.961 . S
C2501 C2498 1.539 . S
C2501 H2515 0.958 . S
C2501 H2516 0.961 . S
C2501 H2517 0.960 . S
H2502 C2486 0.931 . S
H2503 C2491 0.929 . S
H2504 C2492 0.960 . S
H2505 C2492 0.962 . S
H2506 C2492 0.960 . S
H2507 C2493 0.961 . S
H2508 C2493 0.961 . S
H2509 C2493 0.961 . S
H2510 C2494 0.931 . S
H2511 C2499 0.930 . S
H2512 C2500 0.956 . S
H2513 C2500 0.961 . S
H2514 C2500 0.961 . S
H2515 C2501 0.958 . S
H2516 C2501 0.961 . S
H2517 C2501 0.960 . S
C2518 C2519 1.391 . S
C2518 C2520 1.394 . S
C2518 H2534 0.931 . S
C2519 C2518 1.391 . S
C2519 C2523 1.376 . S
C2520 C2518 1.394 . S
C2520 C2521 1.369 . S
C2520 C2524 1.531 . S
C2521 C2520 1.369 . S
C2521 C2522 1.410 . S
C2521 C2529 1.503 . S
C2522 C2521 1.410 . S
C2522 C2523 1.392 . S
C2522 C2525 1.511 . S
C2523 C2519 1.376 . S
C2523 C2522 1.392 . S
C2523 H2535 0.929 . S
C2524 C2520 1.531 . S
C2524 H2536 0.960 . S
C2524 H2537 0.962 . S
C2524 H2538 0.960 . S
C2525 C2522 1.511 . S
C2525 H2539 0.961 . S
C2525 H2540 0.961 . S
C2525 H2541 0.961 . S
C2526 C2527 1.370 . S
C2526 C2528 1.363 . S
C2526 H2542 0.931 . S
C2527 C2526 1.370 . S
C2527 C2531 1.408 . S
C2528 C2526 1.363 . S
C2528 C2529 1.370 . S
C2528 C2532 1.524 . S
C2529 C2521 1.503 . S
C2529 C2528 1.370 . S
C2529 C2530 1.403 . S
C2530 C2529 1.403 . S
C2530 C2531 1.404 . S
C2530 C2533 1.539 . S
C2531 C2527 1.408 . S
C2531 C2530 1.404 . S
C2531 H2543 0.930 . S
C2532 C2528 1.524 . S
C2532 H2544 0.956 . S
C2532 H2545 0.961 . S
C2532 H2546 0.961 . S
C2533 C2530 1.539 . S
C2533 H2547 0.958 . S
C2533 H2548 0.961 . S
C2533 H2549 0.960 . S
H2534 C2518 0.931 . S
H2535 C2523 0.929 . S
H2536 C2524 0.960 . S
H2537 C2524 0.962 . S
H2538 C2524 0.960 . S
H2539 C2525 0.961 . S
H2540 C2525 0.961 . S
H2541 C2525 0.961 . S
H2542 C2526 0.931 . S
H2543 C2531 0.930 . S
H2544 C2532 0.956 . S
H2545 C2532 0.961 . S
H2546 C2532 0.961 . S
H2547 C2533 0.958 . S
H2548 C2533 0.961 . S
H2549 C2533 0.960 . S
C2550 C2551 1.391 . S
C2550 C2552 1.394 . S
C2550 H2566 0.931 . S
C2551 C2550 1.391 . S
C2551 C2555 1.376 . S
C2552 C2550 1.394 . S
C2552 C2553 1.369 . S
C2552 C2556 1.531 . S
C2553 C2552 1.369 . S
C2553 C2554 1.402 1_545 S
C2553 C2561 1.503 . S
C2554 C2553 1.402 1_565 S
C2554 C2555 1.379 1_565 S
C2554 C2557 1.532 . S
C2555 C2551 1.376 . S
C2555 C2554 1.379 1_545 S
C2555 H2567 0.929 1_545 S
C2556 C2552 1.531 . S
C2556 H2568 0.960 . S
C2556 H2569 0.962 . S
C2556 H2570 0.960 . S
C2557 C2554 1.532 . S
C2557 H2571 0.961 . S
C2557 H2572 0.961 . S
C2557 H2573 0.961 . S
C2558 C2559 1.370 . S
C2558 C2560 1.363 . S
C2558 H2574 0.931 1_545 S
C2559 C2558 1.370 . S
C2559 C2563 1.408 . S
C2560 C2558 1.363 . S
C2560 C2561 1.370 . S
C2560 C2564 1.523 1_545 S
C2561 C2553 1.503 . S
C2561 C2560 1.370 . S
C2561 C2562 1.403 . S
C2562 C2561 1.403 . S
C2562 C2563 1.404 . S
C2562 C2565 1.539 . S
C2563 C2559 1.408 . S
C2563 C2562 1.404 . S
C2563 H2575 0.930 . S
C2564 C2560 1.523 1_565 S
C2564 H2576 0.905 1_565 S
C2564 H2577 0.971 . S
C2564 H2578 1.007 . S
C2565 C2562 1.539 . S
C2565 H2579 0.958 . S
C2565 H2580 0.961 . S
C2565 H2581 0.960 . S
H2566 C2550 0.931 . S
H2567 C2555 0.929 1_565 S
H2568 C2556 0.960 . S
H2569 C2556 0.962 . S
H2570 C2556 0.960 . S
H2571 C2557 0.961 . S
H2572 C2557 0.961 . S
H2573 C2557 0.961 . S
H2574 C2558 0.931 1_565 S
H2575 C2563 0.930 . S
H2576 C2564 0.905 1_545 S
H2577 C2564 0.971 . S
H2578 C2564 1.007 . S
H2579 C2565 0.958 . S
H2580 C2565 0.961 . S
H2581 C2565 0.960 . S
C2582 C2583 1.391 . S
C2582 C2584 1.394 . S
C2582 H2598 0.931 . S
C2583 C2582 1.391 . S
C2583 C2587 1.376 . S
C2584 C2582 1.394 . S
C2584 C2585 1.369 . S
C2584 C2588 1.531 . S
C2585 C2584 1.369 . S
C2585 C2586 1.410 . S
C2585 C2593 1.503 . S
C2586 C2585 1.410 . S
C2586 C2587 1.392 . S
C2586 C2589 1.511 . S
C2587 C2583 1.376 . S
C2587 C2586 1.392 . S
C2587 H2599 0.929 . S
C2588 C2584 1.531 . S
C2588 H2600 0.960 1_655 S
C2588 H2601 0.962 . S
C2588 H2602 0.960 1_655 S
C2589 C2586 1.511 . S
C2589 H2603 0.961 . S
C2589 H2604 0.961 . S
C2589 H2605 0.963 . S
C2590 C2591 1.370 . S
C2590 C2592 1.363 . S
C2590 H2606 0.931 . S
C2591 C2590 1.370 . S
C2591 C2595 1.408 1_655 S
C2592 C2590 1.363 . S
C2592 C2593 1.370 . S
C2592 C2596 1.524 . S
C2593 C2585 1.503 . S
C2593 C2592 1.370 . S
C2593 C2594 1.403 1_655 S
C2594 C2593 1.403 1_455 S
C2594 C2595 1.404 . S
C2594 C2597 1.539 . S
C2595 C2591 1.408 1_455 S
C2595 C2594 1.404 . S
C2595 H2607 0.930 . S
C2596 C2592 1.524 . S
C2596 H2608 0.956 . S
C2596 H2609 0.961 . S
C2596 H2610 0.961 . S
C2597 C2594 1.539 . S
C2597 H2611 0.958 . S
C2597 H2612 0.961 . S
C2597 H2613 0.960 . S
H2598 C2582 0.931 . S
H2599 C2587 0.929 . S
H2600 C2588 0.960 1_455 S
H2601 C2588 0.962 . S
H2602 C2588 0.960 1_455 S
H2603 C2589 0.961 . S
H2604 C2589 0.961 . S
H2605 C2589 0.963 . S
H2606 C2590 0.931 . S
H2607 C2595 0.930 . S
H2608 C2596 0.956 . S
H2609 C2596 0.961 . S
H2610 C2596 0.961 . S
H2611 C2597 0.958 . S
H2612 C2597 0.961 . S
H2613 C2597 0.960 . S
C2614 C2615 1.391 . S
C2614 C2616 1.394 . S
C2614 H2630 0.931 . S
C2615 C2614 1.391 . S
C2615 C2619 1.376 . S
C2616 C2614 1.394 . S
C2616 C2617 1.369 . S
C2616 C2620 1.531 . S
C2617 C2616 1.369 . S
C2617 C2618 1.410 . S
C2617 C2625 1.503 . S
C2618 C2617 1.410 . S
C2618 C2619 1.392 . S
C2618 C2621 1.511 . S
C2619 C2615 1.376 . S
C2619 C2618 1.392 . S
C2619 H2631 0.929 . S
C2620 C2616 1.531 . S
C2620 H2632 0.960 . S
C2620 H2633 0.962 . S
C2620 H2634 0.960 . S
C2621 C2618 1.511 . S
C2621 H2635 0.961 . S
C2621 H2636 0.961 . S
C2621 H2637 0.961 . S
C2622 C2623 1.370 . S
C2622 C2624 1.363 . S
C2622 H2638 0.931 . S
C2623 C2622 1.370 . S
C2623 C2627 1.408 . S
C2624 C2622 1.363 . S
C2624 C2625 1.370 . S
C2624 C2628 1.524 . S
C2625 C2617 1.503 . S
C2625 C2624 1.370 . S
C2625 C2626 1.403 . S
C2626 C2625 1.403 . S
C2626 C2627 1.404 . S
C2626 C2629 1.539 . S
C2627 C2623 1.408 . S
C2627 C2626 1.404 . S
C2627 H2639 0.930 . S
C2628 C2624 1.524 . S
C2628 H2640 0.956 . S
C2628 H2641 0.961 . S
C2628 H2642 0.961 . S
C2629 C2626 1.539 . S
C2629 H2643 0.958 . S
C2629 H2644 0.961 . S
C2629 H2645 0.960 . S
H2630 C2614 0.931 . S
H2631 C2619 0.929 . S
H2632 C2620 0.960 . S
H2633 C2620 0.962 . S
H2634 C2620 0.960 . S
H2635 C2621 0.961 . S
H2636 C2621 0.961 . S
H2637 C2621 0.961 . S
H2638 C2622 0.931 . S
H2639 C2627 0.930 . S
H2640 C2628 0.956 . S
H2641 C2628 0.961 . S
H2642 C2628 0.961 . S
H2643 C2629 0.958 . S
H2644 C2629 0.961 . S
H2645 C2629 0.960 . S
C2646 C2647 1.391 . S
C2646 C2648 1.394 . S
C2646 H2662 0.931 . S
C2647 C2646 1.391 . S
C2647 C2651 1.376 . S
C2648 C2646 1.394 . S
C2648 C2649 1.369 . S
C2648 C2652 1.531 . S
C2649 C2648 1.369 . S
C2649 C2650 1.410 . S
C2649 C2657 1.503 . S
C2650 C2649 1.410 . S
C2650 C2651 1.392 . S
C2650 C2653 1.511 . S
C2651 C2647 1.376 . S
C2651 C2650 1.392 . S
C2651 H2663 0.929 . S
C2652 C2648 1.531 . S
C2652 H2664 0.960 . S
C2652 H2665 0.962 . S
C2652 H2666 0.960 . S
C2653 C2650 1.511 . S
C2653 H2667 0.961 . S
C2653 H2668 0.961 . S
C2653 H2669 0.961 . S
C2654 C2655 1.370 . S
C2654 C2656 1.363 . S
C2654 H2670 0.931 . S
C2655 C2654 1.370 . S
C2655 C2659 1.408 . S
C2656 C2654 1.363 . S
C2656 C2657 1.370 . S
C2656 C2660 1.524 . S
C2657 C2649 1.503 . S
C2657 C2656 1.370 . S
C2657 C2658 1.403 . S
C2658 C2657 1.403 . S
C2658 C2659 1.404 . S
C2658 C2661 1.539 . S
C2659 C2655 1.408 . S
C2659 C2658 1.404 . S
C2659 H2671 0.930 . S
C2660 C2656 1.524 . S
C2660 H2672 0.956 . S
C2660 H2673 0.961 . S
C2660 H2674 0.961 . S
C2661 C2658 1.539 . S
C2661 H2675 0.958 . S
C2661 H2676 0.961 . S
C2661 H2677 0.960 . S
H2662 C2646 0.931 . S
H2663 C2651 0.929 . S
H2664 C2652 0.960 . S
H2665 C2652 0.962 . S
H2666 C2652 0.960 . S
H2667 C2653 0.961 . S
H2668 C2653 0.961 . S
H2669 C2653 0.961 . S
H2670 C2654 0.931 . S
H2671 C2659 0.930 . S
H2672 C2660 0.956 . S
H2673 C2660 0.961 . S
H2674 C2660 0.961 . S
H2675 C2661 0.958 . S
H2676 C2661 0.961 . S
H2677 C2661 0.960 . S
C2678 C2679 1.391 . S
C2678 C2680 1.394 . S
C2678 H2694 0.931 . S
C2679 C2678 1.391 . S
C2679 C2683 1.376 . S
C2680 C2678 1.394 . S
C2680 C2681 1.369 . S
C2680 C2684 1.531 . S
C2681 C2680 1.369 . S
C2681 C2682 1.410 . S
C2681 C2689 1.503 . S
C2682 C2681 1.410 . S
C2682 C2683 1.392 . S
C2682 C2685 1.511 . S
C2683 C2679 1.376 . S
C2683 C2682 1.392 . S
C2683 H2695 0.929 . S
C2684 C2680 1.531 . S
C2684 H2696 0.960 . S
C2684 H2697 0.962 . S
C2684 H2698 0.960 . S
C2685 C2682 1.511 . S
C2685 H2699 0.961 . S
C2685 H2700 0.961 . S
C2685 H2701 0.961 . S
C2686 C2687 1.370 . S
C2686 C2688 1.363 . S
C2686 H2702 0.931 . S
C2687 C2686 1.370 . S
C2687 C2691 1.408 . S
C2688 C2686 1.363 . S
C2688 C2689 1.370 . S
C2688 C2692 1.524 . S
C2689 C2681 1.503 . S
C2689 C2688 1.370 . S
C2689 C2690 1.403 . S
C2690 C2689 1.403 . S
C2690 C2691 1.404 . S
C2690 C2693 1.539 . S
C2691 C2687 1.408 . S
C2691 C2690 1.404 . S
C2691 H2703 0.930 . S
C2692 C2688 1.524 . S
C2692 H2704 0.956 . S
C2692 H2705 0.961 . S
C2692 H2706 0.961 . S
C2693 C2690 1.539 . S
C2693 H2707 0.958 . S
C2693 H2708 0.961 . S
C2693 H2709 0.960 . S
H2694 C2678 0.931 . S
H2695 C2683 0.929 . S
H2696 C2684 0.960 . S
H2697 C2684 0.962 . S
H2698 C2684 0.960 . S
H2699 C2685 0.961 . S
H2700 C2685 0.961 . S
H2701 C2685 0.961 . S
H2702 C2686 0.931 . S
H2703 C2691 0.930 . S
H2704 C2692 0.956 . S
H2705 C2692 0.961 . S
H2706 C2692 0.961 . S
H2707 C2693 0.958 . S
H2708 C2693 0.961 . S
H2709 C2693 0.960 . S
C2710 C2711 1.391 . S
C2710 C2712 1.394 . S
C2710 H2726 0.931 . S
C2711 C2710 1.391 . S
C2711 C2715 1.376 . S
C2712 C2710 1.394 . S
C2712 C2713 1.369 . S
C2712 C2716 1.531 . S
C2713 C2712 1.369 . S
C2713 C2714 1.410 . S
C2713 C2721 1.503 . S
C2714 C2713 1.410 . S
C2714 C2715 1.392 . S
C2714 C2717 1.511 . S
C2715 C2711 1.376 . S
C2715 C2714 1.392 . S
C2715 H2727 0.929 . S
C2716 C2712 1.531 . S
C2716 H2728 0.960 . S
C2716 H2729 0.962 . S
C2716 H2730 0.960 . S
C2717 C2714 1.511 . S
C2717 H2731 0.961 . S
C2717 H2732 0.961 . S
C2717 H2733 0.961 . S
C2718 C2719 1.370 . S
C2718 C2720 1.363 . S
C2718 H2734 0.931 . S
C2719 C2718 1.370 . S
C2719 C2723 1.408 . S
C2720 C2718 1.363 . S
C2720 C2721 1.370 . S
C2720 C2724 1.524 . S
C2721 C2713 1.503 . S
C2721 C2720 1.370 . S
C2721 C2722 1.403 . S
C2722 C2721 1.403 . S
C2722 C2723 1.404 . S
C2722 C2725 1.539 . S
C2723 C2719 1.408 . S
C2723 C2722 1.404 . S
C2723 H2735 0.930 . S
C2724 C2720 1.524 . S
C2724 H2736 0.956 . S
C2724 H2737 0.961 . S
C2724 H2738 0.961 . S
C2725 C2722 1.539 . S
C2725 H2739 0.958 . S
C2725 H2740 0.961 . S
C2725 H2741 0.960 . S
H2726 C2710 0.931 . S
H2727 C2715 0.929 . S
H2728 C2716 0.960 . S
H2729 C2716 0.962 . S
H2730 C2716 0.960 . S
H2731 C2717 0.961 . S
H2732 C2717 0.961 . S
H2733 C2717 0.961 . S
H2734 C2718 0.931 . S
H2735 C2723 0.930 . S
H2736 C2724 0.956 . S
H2737 C2724 0.961 . S
H2738 C2724 0.961 . S
H2739 C2725 0.958 . S
H2740 C2725 0.961 . S
H2741 C2725 0.960 . S
C2742 C2743 1.391 . S
C2742 C2744 1.394 . S
C2742 H2758 0.931 . S
C2743 C2742 1.391 . S
C2743 C2747 1.376 . S
C2744 C2742 1.394 . S
C2744 C2745 1.369 . S
C2744 C2748 1.531 . S
C2745 C2744 1.369 . S
C2745 C2746 1.410 . S
C2745 C2753 1.503 . S
C2746 C2745 1.410 . S
C2746 C2747 1.392 . S
C2746 C2749 1.511 . S
C2747 C2743 1.376 . S
C2747 C2746 1.392 . S
C2747 H2759 0.929 . S
C2748 C2744 1.531 . S
C2748 H2760 0.960 . S
C2748 H2761 0.962 . S
C2748 H2762 0.960 . S
C2749 C2746 1.511 . S
C2749 H2763 0.961 . S
C2749 H2764 0.961 . S
C2749 H2765 0.961 . S
C2750 C2751 1.370 . S
C2750 C2752 1.363 . S
C2750 H2766 0.931 . S
C2751 C2750 1.370 . S
C2751 C2755 1.408 . S
C2752 C2750 1.363 . S
C2752 C2753 1.370 . S
C2752 C2756 1.524 . S
C2753 C2745 1.503 . S
C2753 C2752 1.370 . S
C2753 C2754 1.403 . S
C2754 C2753 1.403 . S
C2754 C2755 1.404 . S
C2754 C2757 1.539 . S
C2755 C2751 1.408 . S
C2755 C2754 1.404 . S
C2755 H2767 0.930 . S
C2756 C2752 1.524 . S
C2756 H2768 0.956 . S
C2756 H2769 0.961 . S
C2756 H2770 0.961 . S
C2757 C2754 1.539 . S
C2757 H2771 0.958 . S
C2757 H2772 0.961 . S
C2757 H2773 0.960 . S
H2758 C2742 0.931 . S
H2759 C2747 0.929 . S
H2760 C2748 0.960 . S
H2761 C2748 0.962 . S
H2762 C2748 0.960 . S
H2763 C2749 0.961 . S
H2764 C2749 0.961 . S
H2765 C2749 0.961 . S
H2766 C2750 0.931 . S
H2767 C2755 0.930 . S
H2768 C2756 0.956 . S
H2769 C2756 0.961 . S
H2770 C2756 0.961 . S
H2771 C2757 0.958 . S
H2772 C2757 0.961 . S
H2773 C2757 0.960 . S
C2774 C2775 1.391 . S
C2774 C2776 1.394 . S
C2774 H2790 0.931 . S
C2775 C2774 1.391 . S
C2775 C2779 1.376 . S
C2776 C2774 1.394 . S
C2776 C2777 1.369 . S
C2776 C2780 1.531 . S
C2777 C2776 1.369 . S
C2777 C2778 1.410 . S
C2777 C2785 1.503 . S
C2778 C2777 1.410 . S
C2778 C2779 1.392 . S
C2778 C2781 1.511 . S
C2779 C2775 1.376 . S
C2779 C2778 1.392 . S
C2779 H2791 0.929 . S
C2780 C2776 1.531 . S
C2780 H2792 0.960 . S
C2780 H2793 0.962 . S
C2780 H2794 0.960 . S
C2781 C2778 1.511 . S
C2781 H2795 0.961 . S
C2781 H2796 0.961 . S
C2781 H2797 0.961 . S
C2782 C2783 1.370 . S
C2782 C2784 1.363 . S
C2782 H2798 0.931 . S
C2783 C2782 1.370 . S
C2783 C2787 1.408 . S
C2784 C2782 1.363 . S
C2784 C2785 1.370 . S
C2784 C2788 1.524 . S
C2785 C2777 1.503 . S
C2785 C2784 1.370 . S
C2785 C2786 1.403 . S
C2786 C2785 1.403 . S
C2786 C2787 1.404 . S
C2786 C2789 1.539 . S
C2787 C2783 1.408 . S
C2787 C2786 1.404 . S
C2787 H2799 0.930 . S
C2788 C2784 1.524 . S
C2788 H2800 0.956 . S
C2788 H2801 0.961 . S
C2788 H2802 0.961 . S
C2789 C2786 1.539 . S
C2789 H2803 0.958 . S
C2789 H2804 0.961 . S
C2789 H2805 0.960 . S
H2790 C2774 0.931 . S
H2791 C2779 0.929 . S
H2792 C2780 0.960 . S
H2793 C2780 0.962 . S
H2794 C2780 0.960 . S
H2795 C2781 0.961 . S
H2796 C2781 0.961 . S
H2797 C2781 0.961 . S
H2798 C2782 0.931 . S
H2799 C2787 0.930 . S
H2800 C2788 0.956 . S
H2801 C2788 0.961 . S
H2802 C2788 0.961 . S
H2803 C2789 0.958 . S
H2804 C2789 0.961 . S
H2805 C2789 0.960 . S
C2806 C2807 1.391 . S
C2806 C2808 1.394 . S
C2806 H2822 0.931 . S
C2807 C2806 1.391 . S
C2807 C2811 1.376 . S
C2808 C2806 1.394 . S
C2808 C2809 1.369 . S
C2808 C2812 1.531 . S
C2809 C2808 1.369 . S
C2809 C2810 1.410 . S
C2809 C2817 1.503 . S
C2810 C2809 1.410 . S
C2810 C2811 1.392 . S
C2810 C2813 1.511 . S
C2811 C2807 1.376 . S
C2811 C2810 1.392 . S
C2811 H2823 0.929 . S
C2812 C2808 1.531 . S
C2812 H2824 0.960 . S
C2812 H2825 0.962 . S
C2812 H2826 0.960 . S
C2813 C2810 1.511 . S
C2813 H2827 0.961 . S
C2813 H2828 0.961 . S
C2813 H2829 0.961 . S
C2814 C2815 1.370 . S
C2814 C2816 1.363 . S
C2814 H2830 0.931 . S
C2815 C2814 1.370 . S
C2815 C2819 1.408 . S
C2816 C2814 1.363 . S
C2816 C2817 1.370 . S
C2816 C2820 1.524 . S
C2817 C2809 1.503 . S
C2817 C2816 1.370 . S
C2817 C2818 1.403 . S
C2818 C2817 1.403 . S
C2818 C2819 1.404 . S
C2818 C2821 1.539 . S
C2819 C2815 1.408 . S
C2819 C2818 1.404 . S
C2819 H2831 0.930 . S
C2820 C2816 1.524 . S
C2820 H2832 0.956 . S
C2820 H2833 0.961 . S
C2820 H2834 0.961 . S
C2821 C2818 1.539 . S
C2821 H2835 0.958 . S
C2821 H2836 0.961 . S
C2821 H2837 0.960 . S
H2822 C2806 0.931 . S
H2823 C2811 0.929 . S
H2824 C2812 0.960 . S
H2825 C2812 0.962 . S
H2826 C2812 0.960 . S
H2827 C2813 0.961 . S
H2828 C2813 0.961 . S
H2829 C2813 0.961 . S
H2830 C2814 0.931 . S
H2831 C2819 0.930 . S
H2832 C2820 0.956 . S
H2833 C2820 0.961 . S
H2834 C2820 0.961 . S
H2835 C2821 0.958 . S
H2836 C2821 0.961 . S
H2837 C2821 0.960 . S
C2838 C2839 1.391 . S
C2838 C2840 1.394 . S
C2838 H2854 0.931 . S
C2839 C2838 1.391 . S
C2839 C2843 1.336 1_655 S
C2840 C2838 1.394 . S
C2840 C2841 1.369 . S
C2840 C2844 1.531 . S
C2841 C2840 1.369 . S
C2841 C2842 1.410 1_655 S
C2841 C2849 1.503 . S
C2842 C2841 1.410 1_455 S
C2842 C2843 1.429 . S
C2842 C2845 1.511 . S
C2843 C2839 1.336 1_455 S
C2843 C2842 1.429 . S
C2843 H2855 0.936 . S
C2844 C2840 1.531 . S
C2844 H2856 0.960 . S
C2844 H2857 0.962 . S
C2844 H2858 0.960 . S
C2845 C2842 1.511 . S
C2845 H2859 0.961 . S
C2845 H2860 0.961 . S
C2845 H2861 0.961 . S
C2846 C2847 1.370 . S
C2846 C2848 1.363 . S
C2846 H2862 0.931 . S
C2847 C2846 1.370 . S
C2847 C2851 1.408 1_655 S
C2848 C2846 1.363 . S
C2848 C2849 1.370 . S
C2848 C2852 1.524 . S
C2849 C2841 1.503 . S
C2849 C2848 1.370 . S
C2849 C2850 1.403 1_655 S
C2850 C2849 1.403 1_455 S
C2850 C2851 1.404 . S
C2850 C2853 1.539 . S
C2851 C2847 1.408 1_455 S
C2851 C2850 1.404 . S
C2851 H2863 0.930 . S
C2852 C2848 1.524 . S
C2852 H2864 0.956 . S
C2852 H2865 0.961 . S
C2852 H2866 0.961 . S
C2853 C2850 1.539 . S
C2853 H2867 0.958 . S
C2853 H2868 0.961 . S
C2853 H2869 0.960 . S
H2854 C2838 0.931 . S
H2855 C2843 0.936 . S
H2856 C2844 0.960 . S
H2857 C2844 0.962 . S
H2858 C2844 0.960 . S
H2859 C2845 0.961 . S
H2860 C2845 0.961 . S
H2861 C2845 0.961 . S
H2862 C2846 0.931 . S
H2863 C2851 0.930 . S
H2864 C2852 0.956 . S
H2865 C2852 0.961 . S
H2866 C2852 0.961 . S
H2867 C2853 0.958 . S
H2868 C2853 0.961 . S
H2869 C2853 0.960 . S
C2870 C2871 1.391 . S
C2870 C2872 1.394 . S
C2870 H2886 0.931 . S
C2871 C2870 1.391 . S
C2871 C2875 1.376 . S
C2872 C2870 1.394 . S
C2872 C2873 1.369 . S
C2872 C2876 1.531 . S
C2873 C2872 1.369 . S
C2873 C2874 1.410 . S
C2873 C2881 1.503 . S
C2874 C2873 1.410 . S
C2874 C2875 1.392 . S
C2874 C2877 1.511 . S
C2875 C2871 1.376 . S
C2875 C2874 1.392 . S
C2875 H2887 0.929 . S
C2876 C2872 1.531 . S
C2876 H2888 0.960 . S
C2876 H2889 0.962 . S
C2876 H2890 0.960 . S
C2877 C2874 1.511 . S
C2877 H2891 0.961 . S
C2877 H2892 0.961 . S
C2877 H2893 0.961 . S
C2878 C2879 1.370 . S
C2878 C2880 1.363 . S
C2878 H2894 0.931 . S
C2879 C2878 1.370 . S
C2879 C2883 1.408 . S
C2880 C2878 1.363 . S
C2880 C2881 1.370 . S
C2880 C2884 1.524 . S
C2881 C2873 1.503 . S
C2881 C2880 1.370 . S
C2881 C2882 1.403 . S
C2882 C2881 1.403 . S
C2882 C2883 1.404 . S
C2882 C2885 1.539 . S
C2883 C2879 1.408 . S
C2883 C2882 1.404 . S
C2883 H2895 0.930 . S
C2884 C2880 1.524 . S
C2884 H2896 0.956 . S
C2884 H2897 0.961 . S
C2884 H2898 0.961 . S
C2885 C2882 1.539 . S
C2885 H2899 0.958 . S
C2885 H2900 0.961 . S
C2885 H2901 0.960 . S
H2886 C2870 0.931 . S
H2887 C2875 0.929 . S
H2888 C2876 0.960 . S
H2889 C2876 0.962 . S
H2890 C2876 0.960 . S
H2891 C2877 0.961 . S
H2892 C2877 0.961 . S
H2893 C2877 0.961 . S
H2894 C2878 0.931 . S
H2895 C2883 0.930 . S
H2896 C2884 0.956 . S
H2897 C2884 0.961 . S
H2898 C2884 0.961 . S
H2899 C2885 0.958 . S
H2900 C2885 0.961 . S
H2901 C2885 0.960 . S
C2902 C2903 1.391 . S
C2902 C2904 1.394 . S
C2902 H2918 0.931 . S
C2903 C2902 1.391 . S
C2903 C2907 1.376 . S
C2904 C2902 1.394 . S
C2904 C2905 1.369 . S
C2904 C2908 1.531 . S
C2905 C2904 1.369 . S
C2905 C2906 1.410 . S
C2905 C2913 1.503 . S
C2906 C2905 1.410 . S
C2906 C2907 1.392 . S
C2906 C2909 1.511 1_545 S
C2907 C2903 1.376 . S
C2907 C2906 1.392 . S
C2907 H2919 0.929 . S
C2908 C2904 1.531 . S
C2908 H2920 0.960 . S
C2908 H2921 0.962 . S
C2908 H2922 0.960 . S
C2909 C2906 1.511 1_565 S
C2909 H2923 0.961 . S
C2909 H2924 0.961 . S
C2909 H2925 0.961 1_565 S
C2910 C2911 1.370 1_565 S
C2910 C2912 1.363 . S
C2910 H2926 0.931 . S
C2911 C2910 1.370 1_545 S
C2911 C2915 1.408 . S
C2912 C2910 1.363 . S
C2912 C2913 1.370 1_565 S
C2912 C2916 1.524 . S
C2913 C2905 1.503 . S
C2913 C2912 1.370 1_545 S
C2913 C2914 1.403 . S
C2914 C2913 1.403 . S
C2914 C2915 1.404 . S
C2914 C2917 1.539 . S
C2915 C2911 1.408 . S
C2915 C2914 1.404 . S
C2915 H2927 0.930 . S
C2916 C2912 1.524 . S
C2916 H2928 0.956 . S
C2916 H2929 0.961 . S
C2916 H2930 0.961 . S
C2917 C2914 1.539 . S
C2917 H2931 0.958 . S
C2917 H2932 0.961 . S
C2917 H2933 0.960 . S
H2918 C2902 0.931 . S
H2919 C2907 0.929 . S
H2920 C2908 0.960 . S
H2921 C2908 0.962 . S
H2922 C2908 0.960 . S
H2923 C2909 0.961 . S
H2924 C2909 0.961 . S
H2925 C2909 0.961 1_545 S
H2926 C2910 0.931 . S
H2927 C2915 0.930 . S
H2928 C2916 0.956 . S
H2929 C2916 0.961 . S
H2930 C2916 0.961 . S
H2931 C2917 0.958 . S
H2932 C2917 0.961 . S
H2933 C2917 0.960 . S
C631 C4 1.574 . S
C639 C458 1.534 1_655 S
C663 C26 1.580 . S
C671 C471 1.522 . S
C703 C500 1.477 1_545 S
C695 C32 1.460 . S
C727 C40 1.517 . S
C735 C513 1.451 . S
C759 C12 1.567 . S
C767 C534 1.499 . S
C791 C18 1.482 . S
C799 C563 1.514 . S
C823 C46 1.528 . S
C831 C542 1.570 . S
C863 C555 1.492 . S
C855 C68 1.568 . S
C895 C521 1.484 . S
C887 C74 1.499 . S
C919 C82 1.496 . S
C927 C492 1.474 1_545 S
C959 C450 1.523 1_655 S
C951 C54 1.545 . S
C983 C60 1.472 . S
C991 C479 1.522 . S
C1015 C88 1.609 . S
C1023 C584 1.551 . S
C1047 C110 1.588 . S
C1055 C597 1.551 . S
C1087 C626 1.508 . S
C1079 C116 1.541 . S
C1111 C124 1.506 . S
C1119 C261 1.495 . S
C1143 C96 1.564 . S
C1151 C282 1.533 . S
C1175 C102 1.547 . S
C1183 C311 1.489 . S
C1207 C130 1.574 . S
C1215 C290 1.550 . S
C1239 C152 1.569 . S
C1247 C303 1.524 . S
C1279 C269 1.544 . S
C1271 C158 1.526 . S
C1311 C618 1.471 . S
C1303 C166 1.541 . S
C1343 C576 1.486 . S
C1335 C138 1.553 . S
C1375 C605 1.532 . S
C1367 C144 1.533 . S
C1399 C172 1.541 . S
C1407 C332 1.560 . S
C1431 C194 1.589 . S
C1439 C345 1.557 . S
C1463 C200 1.549 . S
C1471 C374 1.517 . S
C1495 C208 1.543 . S
C1503 C387 1.487 . S
C1535 C408 1.530 . S
C1527 C180 1.569 . S
C1567 C437 1.505 . S
C1559 C186 1.563 . S
C1599 C416 1.599 . S
C1591 C214 1.557 . S
C1631 C429 1.524 . S
C1623 C236 1.567 . S
C1655 C242 1.539 . S
C1663 C395 1.527 . S
C1695 C366 1.434 . S
C1687 C250 1.497 . S
C1719 C222 1.573 . S
C1727 C324 1.503 . S
C1759 C353 1.533 . S
C1751 C228 1.492 . S
C1791 C264 1.323 . S
C1783 C5 1.146 . S
C1815 C25 1.301 . S
C1823 C285 1.208 . S
C1855 C313 1.273 . S
C1847 C33 1.209 . S
C1887 C334 1.207 . S
C1879 C39 1.284 . S
C1919 C348 1.226 . S
C1911 C11 1.319 . S
C1951 C376 1.262 . S
C1943 C19 1.097 1_556 S
C1975 C47 1.242 1_556 S
C1983 C369 1.265 . S
C2007 C67 1.354 . S
C2015 C327 1.211 . S
C2039 C75 1.194 1_556 S
C2047 C355 1.320 . S
C2071 C81 1.308 . S
C2079 C292 1.239 . S
C2111 C306 1.205 . S
C2103 C53 1.340 . S
C2135 C61 1.183 . S
C2143 C271 1.303 . S
C2175 C390 1.308 . S
C2167 C89 1.107 . S
C2199 C109 1.379 . S
C2207 C411 1.267 . S
C2231 C117 1.126 . S
C2239 C439 1.293 . S
C2271 C460 1.191 . S
C2263 C123 1.251 . S
C2295 C95 1.329 . S
C2303 C474 1.254 . S
C2327 C103 1.093 . S
C2335 C502 1.232 . S
C2359 C131 1.167 . S
C2367 C495 1.184 . S
C2391 C151 1.322 . S
C2399 C453 1.206 . S
C2431 C481 1.320 . S
C2423 C159 1.140 . S
C2455 C165 1.325 . S
C2463 C418 1.273 . S
C2487 C137 1.377 . S
C2495 C432 1.212 . S
C2527 C397 1.324 . S
C2519 C145 1.231 . S
C2559 C516 1.216 1_545 S
C2551 C173 1.210 . S
C2583 C193 1.300 . S
C2591 C537 1.184 1_655 S
C2615 C201 1.210 . S
C2623 C565 1.229 . S
C2655 C586 1.184 . S
C2647 C207 1.280 . S
C2687 C600 1.255 . S
C2679 C179 1.366 . S
C2711 C187 1.175 . S
C2719 C628 1.281 . S
C2743 C215 1.229 . S
C2751 C621 1.238 . S
C2775 C235 1.364 . S
C2783 C579 1.201 . S
C2815 C607 1.308 . S
C2807 C243 1.250 . S
C2847 C544 1.206 1_655 S
C2839 C249 1.277 . S
C2879 C558 1.224 . S
C2871 C221 1.353 . S
C2903 C229 1.128 . S
C2911 C523 1.264 1_545 S
