# Generated by pormake.
# Topology nom, (4,4)-cn, num edge types: 1
# Building blocks:
#     Node 0, Type 0, BuildingBlock: MUDLON_clean_linker_0, # of connection points: 4
#     Node 1, Type 0, BuildingBlock: MUDLON_clean_linker_0, # of connection points: 4
#     Node 2, Type 0, BuildingBlock: MUDLON_clean_linker_0, # of connection points: 4
#     Node 3, Type 0, BuildingBlock: MUDLON_clean_linker_0, # of connection points: 4
#     Node 4, Type 0, BuildingBlock: MUDLON_clean_linker_0, # of connection points: 4
#     Node 5, Type 0, BuildingBlock: MUDLON_clean_linker_0, # of connection points: 4
#     Node 6, Type 1, BuildingBlock: NAHDIM_clean_sbu_0, # of connection points: 4
#     Node 7, Type 1, BuildingBlock: NAHDIM_clean_sbu_0, # of connection points: 4
#     Node 8, Type 1, BuildingBlock: NAHDIM_clean_sbu_0, # of connection points: 4
#     Node 9, Type 1, BuildingBlock: NAHDIM_clean_sbu_0, # of connection points: 4
#     Node 10, Type 1, BuildingBlock: NAHDIM_clean_sbu_0, # of connection points: 4
#     Node 11, Type 1, BuildingBlock: NAHDIM_clean_sbu_0, # of connection points: 4
#     Edge 12, Type (0, 1), BuildingBlock: AJUNOK_clean_linker_0, # of connection points: 2
#     Edge 13, Type (0, 1), BuildingBlock: AJUNOK_clean_linker_0, # of connection points: 2
#     Edge 14, Type (0, 1), BuildingBlock: AJUNOK_clean_linker_0, # of connection points: 2
#     Edge 15, Type (0, 1), BuildingBlock: AJUNOK_clean_linker_0, # of connection points: 2
#     Edge 16, Type (0, 1), BuildingBlock: AJUNOK_clean_linker_0, # of connection points: 2
#     Edge 17, Type (0, 1), BuildingBlock: AJUNOK_clean_linker_0, # of connection points: 2
#     Edge 18, Type (0, 1), BuildingBlock: AJUNOK_clean_linker_0, # of connection points: 2
#     Edge 19, Type (0, 1), BuildingBlock: AJUNOK_clean_linker_0, # of connection points: 2
#     Edge 20, Type (0, 1), BuildingBlock: AJUNOK_clean_linker_0, # of connection points: 2
#     Edge 21, Type (0, 1), BuildingBlock: AJUNOK_clean_linker_0, # of connection points: 2
#     Edge 22, Type (0, 1), BuildingBlock: AJUNOK_clean_linker_0, # of connection points: 2
#     Edge 23, Type (0, 1), BuildingBlock: AJUNOK_clean_linker_0, # of connection points: 2
#     Edge 24, Type (0, 1), BuildingBlock: AJUNOK_clean_linker_0, # of connection points: 2
#     Edge 25, Type (0, 1), BuildingBlock: AJUNOK_clean_linker_0, # of connection points: 2
#     Edge 26, Type (0, 1), BuildingBlock: AJUNOK_clean_linker_0, # of connection points: 2
#     Edge 27, Type (0, 1), BuildingBlock: AJUNOK_clean_linker_0, # of connection points: 2
#     Edge 28, Type (0, 1), BuildingBlock: AJUNOK_clean_linker_0, # of connection points: 2
#     Edge 29, Type (0, 1), BuildingBlock: AJUNOK_clean_linker_0, # of connection points: 2
#     Edge 30, Type (0, 1), BuildingBlock: AJUNOK_clean_linker_0, # of connection points: 2
#     Edge 31, Type (0, 1), BuildingBlock: AJUNOK_clean_linker_0, # of connection points: 2
#     Edge 32, Type (0, 1), BuildingBlock: AJUNOK_clean_linker_0, # of connection points: 2
#     Edge 33, Type (0, 1), BuildingBlock: AJUNOK_clean_linker_0, # of connection points: 2
#     Edge 34, Type (0, 1), BuildingBlock: AJUNOK_clean_linker_0, # of connection points: 2
#     Edge 35, Type (0, 1), BuildingBlock: AJUNOK_clean_linker_0, # of connection points: 2
# Relax obj value: 0.027
# Max RMSD: 0.123
# Mean RMSD: 0.105
data_MOF--net-nom--node1-NAHDIM_clean_sbu_0--node2-MUDLON_clean_linker_0--edge1-AJUNOK_clean_linker_0
_symmetry_space_group_name_H-M    P1
_symmetry_Int_Tables_number       1
_symmetry_cell_setting            triclinic
loop_
_symmetry_equiv_pos_as_xyz
'x, y, z'
_cell_length_a     47.917302
_cell_length_b     50.009693
_cell_length_c     48.712785
_cell_angle_alpha  90.381567
_cell_angle_beta   90.426139
_cell_angle_gamma 121.43067
loop_
_atom_site_label
_atom_site_type_symbol
_atom_site_fract_x
_atom_site_fract_y
_atom_site_fract_z
_atom_type_partial_charge
H0 H 0.17541 0.55436 0.30695 0.0
N1 N 0.12607 0.55428 0.33113 0.0
H2 H 0.21741 0.5952 0.27797 0.0
H3 H 0.12756 0.607 0.31337 0.0
H4 H 0.16953 0.64796 0.28447 0.0
H5 H 0.13825 0.60562 0.36172 0.0
H6 H 0.1581 0.61713 0.4092 0.0
H7 H 0.13413 0.5175 0.36514 0.0
H8 H 0.15406 0.52897 0.41291 0.0
H9 H 0.09251 0.50185 0.30205 0.0
H10 H 0.0826 0.57235 0.34435 0.0
H11 H 0.03437 0.47372 0.2897 0.0
H12 H 0.02448 0.54465 0.3318 0.0
H13 H 0.85676 0.37693 0.25458 0.0
H14 H 0.83453 0.36945 0.20766 0.0
H15 H 0.87131 0.46857 0.20311 0.0
H16 H 0.8937 0.47592 0.24982 0.0
H17 H 0.87902 0.47932 0.29496 0.0
H18 H 0.83395 0.47716 0.32034 0.0
H19 H 0.79658 0.37989 0.33848 0.0
H20 H 0.84131 0.38204 0.31248 0.0
H21 H 0.93819 0.44586 0.2502 0.0
H22 H 0.99597 0.47874 0.26077 0.0
H23 H 0.97358 0.49467 0.34266 0.0
N24 N 0.88696 0.42976 0.2841 0.0
H25 H 0.91564 0.46226 0.33225 0.0
C26 C 0.14856 0.57765 0.31242 0.0
C27 C 0.17383 0.57458 0.30183 0.0
C28 C 0.19767 0.59783 0.28529 0.0
C29 C 0.19678 0.62479 0.27919 0.0
C30 C 0.17095 0.62756 0.28918 0.0
C31 C 0.14693 0.60412 0.30562 0.0
C32 C 0.13486 0.56063 0.35981 0.0
C33 C 0.14125 0.58856 0.37271 0.0
C34 C 0.15266 0.59518 0.39985 0.0
C35 C 0.15754 0.57391 0.41467 0.0
C36 C 0.1501 0.54557 0.40206 0.0
C37 C 0.13888 0.53905 0.37484 0.0
C38 C 0.09184 0.53899 0.32412 0.0
C39 C 0.07774 0.51129 0.30851 0.0
C40 C 0.04461 0.49543 0.30135 0.0
C41 C 0.02482 0.50704 0.30967 0.0
C42 C 0.03903 0.53498 0.32528 0.0
C43 C 0.07231 0.55091 0.33238 0.0
C44 C 0.87653 0.42679 0.25575 0.0
C45 C 0.86026 0.39702 0.2433 0.0
C46 C 0.84769 0.39283 0.2166 0.0
C47 C 0.85095 0.41839 0.20199 0.0
C48 C 0.86805 0.44842 0.21416 0.0
C49 C 0.88077 0.45262 0.24082 0.0
C50 C 0.86341 0.43068 0.3018 0.0
C51 C 0.86129 0.45762 0.30456 0.0
C52 C 0.83572 0.45645 0.31929 0.0
C53 C 0.81186 0.42837 0.33142 0.0
C54 C 0.8146 0.4018 0.32925 0.0
C55 C 0.84014 0.403 0.31459 0.0
C56 C 0.92148 0.45253 0.28965 0.0
C57 C 0.94525 0.45716 0.2702 0.0
C58 C 0.97859 0.47569 0.27638 0.0
C59 C 0.98939 0.48954 0.30248 0.0
C60 C 0.96604 0.48496 0.32211 0.0
C61 C 0.9326 0.46637 0.31596 0.0
H62 H 0.48051 0.86312 0.48025 0.0
N63 N 0.47575 0.90855 0.45751 0.0
H64 H 0.44118 0.82169 0.51034 0.0
H65 H 0.42046 0.90397 0.47888 0.0
H66 H 0.38141 0.863 0.50926 0.0
H67 H 0.41938 0.89306 0.4295 0.0
H68 H 0.40513 0.87241 0.3826 0.0
H69 H 0.51394 0.90318 0.42157 0.0
H70 H 0.50025 0.88344 0.37412 0.0
H71 H 0.53407 0.94487 0.48039 0.0
H72 H 0.45068 0.94618 0.44859 0.0
H73 H 0.56112 0.00061 0.4918 0.0
H74 H 0.47668 0.00156 0.46117 0.0
H75 H 0.64204 0.17286 0.53851 0.0
H76 H 0.64183 0.19101 0.58536 0.0
H77 H 0.5362 0.13972 0.58303 0.0
H78 H 0.53665 0.12098 0.53653 0.0
H79 H 0.54127 0.14817 0.4949 0.0
H80 H 0.54673 0.19313 0.47024 0.0
H81 H 0.64622 0.22225 0.45022 0.0
H82 H 0.64085 0.1777 0.47565 0.0
H83 H 0.58889 0.09088 0.53412 0.0
H84 H 0.55894 0.03528 0.52314 0.0
H85 H 0.52031 0.0528 0.44959 0.0
N86 N 0.59082 0.13745 0.5059 0.0
H87 H 0.54887 0.10812 0.46117 0.0
C88 C 0.45352 0.88655 0.47725 0.0
C89 C 0.4591 0.86338 0.48679 0.0
C90 C 0.4367 0.83986 0.504 0.0
C91 C 0.40811 0.83901 0.51193 0.0
C92 C 0.40299 0.86284 0.50311 0.0
C93 C 0.42546 0.8864 0.48586 0.0
C94 C 0.46769 0.89932 0.42912 0.0
C95 C 0.43726 0.89123 0.41758 0.0
C96 C 0.42917 0.87951 0.3907 0.0
C97 C 0.45137 0.8758 0.37486 0.0
C98 C 0.48234 0.88528 0.38606 0.0
C99 C 0.49031 0.8968 0.41299 0.0
C100 C 0.49039 0.94134 0.46394 0.0
C101 C 0.52151 0.95722 0.47616 0.0
C102 C 0.53675 0.98901 0.48286 0.0
C103 C 0.52095 0.00562 0.47773 0.0
C104 C 0.48969 0.98963 0.46524 0.0
C105 C 0.4746 0.95781 0.45828 0.0
C106 C 0.58951 0.1457 0.53411 0.0
C107 C 0.61891 0.16524 0.54833 0.0
C108 C 0.61871 0.17564 0.57495 0.0
C109 C 0.589 0.16665 0.58785 0.0
C110 C 0.55944 0.14657 0.57377 0.0
C111 C 0.55967 0.13612 0.54713 0.0
C112 C 0.59087 0.15977 0.48722 0.0
C113 C 0.56406 0.16393 0.48484 0.0
C114 C 0.56711 0.18948 0.47053 0.0
C115 C 0.59693 0.21119 0.45836 0.0
C116 C 0.62302 0.20596 0.45955 0.0
C117 C 0.61997 0.18049 0.47386 0.0
C118 C 0.57074 0.10422 0.49922 0.0
C119 C 0.57339 0.0828 0.51592 0.0
C120 C 0.55656 0.05092 0.50938 0.0
C121 C 0.53722 0.03944 0.48539 0.0
C122 C 0.53448 0.06069 0.4685 0.0
C123 C 0.55106 0.09268 0.47523 0.0
H124 H 0.49393 0.66692 0.63737 0.0
N125 N 0.48761 0.61481 0.65719 0.0
H126 H 0.4547 0.67186 0.60861 0.0
H127 H 0.4322 0.56627 0.6327 0.0
H128 H 0.3926 0.57103 0.6047 0.0
H129 H 0.42844 0.57668 0.68166 0.0
H130 H 0.41362 0.58177 0.72811 0.0
H131 H 0.52658 0.6545 0.69634 0.0
H132 H 0.512 0.65912 0.74369 0.0
H133 H 0.54078 0.62948 0.62911 0.0
H134 H 0.4594 0.55245 0.67008 0.0
H135 H 0.56192 0.59572 0.61739 0.0
H136 H 0.48083 0.51892 0.65936 0.0
H137 H 0.63503 0.49812 0.59041 0.0
H138 H 0.64554 0.48722 0.54369 0.0
H139 H 0.54183 0.43736 0.5258 0.0
H140 H 0.53173 0.44939 0.57194 0.0
H141 H 0.52265 0.41909 0.61158 0.0
H142 H 0.51493 0.37377 0.63683 0.0
H143 H 0.60809 0.43233 0.67784 0.0
H144 H 0.61531 0.4778 0.65288 0.0
H145 H 0.60973 0.53798 0.62821 0.0
H146 H 0.58737 0.57093 0.63908 0.0
H147 H 0.48983 0.49239 0.62231 0.0
N148 N 0.57744 0.47821 0.61321 0.0
H149 H 0.51236 0.45954 0.61247 0.0
C150 C 0.46613 0.61639 0.63723 0.0
C151 C 0.47221 0.64593 0.62973 0.0
C152 C 0.44975 0.64868 0.61346 0.0
C153 C 0.42061 0.62183 0.60439 0.0
C154 C 0.4151 0.59213 0.61095 0.0
C155 C 0.43769 0.5894 0.62715 0.0
C156 C 0.4788 0.61532 0.6854 0.0
C157 C 0.44704 0.59457 0.69497 0.0
C158 C 0.43862 0.59732 0.72174 0.0
C159 C 0.46178 0.62058 0.73971 0.0
C160 C 0.49366 0.64096 0.7303 0.0
C161 C 0.50205 0.63827 0.70339 0.0
C162 C 0.4988 0.59378 0.65065 0.0
C163 C 0.52761 0.60533 0.63569 0.0
C164 C 0.53972 0.58603 0.62919 0.0
C165 C 0.52323 0.55461 0.63763 0.0
C166 C 0.49401 0.54289 0.65232 0.0
C167 C 0.48184 0.56221 0.6587 0.0
C168 C 0.58272 0.47443 0.58476 0.0
C169 C 0.61469 0.48529 0.57619 0.0
C170 C 0.62058 0.47876 0.54966 0.0
C171 C 0.59442 0.46086 0.53129 0.0
C172 C 0.56247 0.45118 0.53952 0.0
C173 C 0.55664 0.45793 0.566 0.0
C174 C 0.56964 0.45201 0.63048 0.0
C175 C 0.54102 0.42248 0.62652 0.0
C176 C 0.53667 0.39648 0.64087 0.0
C177 C 0.56078 0.39951 0.65945 0.0
C178 C 0.58871 0.42933 0.66416 0.0
C179 C 0.59299 0.45529 0.64984 0.0
C180 C 0.5629 0.49644 0.61947 0.0
C181 C 0.58353 0.52797 0.62696 0.0
C182 C 0.57069 0.54676 0.63295 0.0
C183 C 0.53676 0.53439 0.63142 0.0
C184 C 0.51603 0.50263 0.62398 0.0
C185 C 0.52895 0.48379 0.6181 0.0
H186 H 0.14888 0.58821 0.79421 0.0
N187 N 0.11055 0.52688 0.77737 0.0
H188 H 0.19813 0.61006 0.82264 0.0
H189 H 0.13122 0.49526 0.80604 0.0
H190 H 0.18123 0.51732 0.83441 0.0
H191 H 0.12618 0.49841 0.73997 0.0
H192 H 0.15374 0.51978 0.69643 0.0
H193 H 0.11918 0.57994 0.75322 0.0
H194 H 0.14867 0.60252 0.7104 0.0
H195 H 0.09427 0.56397 0.80697 0.0
H196 H 0.05449 0.47567 0.76388 0.0
H197 H 0.03967 0.54965 0.82104 0.0
H198 H 0.99938 0.46187 0.77629 0.0
H199 H 0.84786 0.48575 0.85791 0.0
H200 H 0.82233 0.46903 0.90293 0.0
H201 H 0.87505 0.42184 0.91688 0.0
H202 H 0.89962 0.43764 0.87197 0.0
H203 H 0.85358 0.40382 0.83433 0.0
H204 H 0.8074 0.36632 0.8058 0.0
H205 H 0.81057 0.4425 0.76185 0.0
H206 H 0.8573 0.48028 0.79055 0.0
H207 H 0.93345 0.52547 0.82219 0.0
H208 H 0.98877 0.54164 0.80752 0.0
H209 H 0.96468 0.44563 0.81359 0.0
N210 N 0.88438 0.46789 0.83257 0.0
H211 H 0.90948 0.4297 0.82638 0.0
C212 C 0.13623 0.53991 0.79794 0.0
C213 C 0.1551 0.57234 0.80335 0.0
C214 C 0.18347 0.58491 0.81947 0.0
C215 C 0.19371 0.5654 0.83026 0.0
C216 C 0.17383 0.53284 0.8263 0.0
C217 C 0.14534 0.52024 0.81017 0.0
C218 C 0.12132 0.53783 0.74999 0.0
C219 C 0.13037 0.52081 0.73327 0.0
C220 C 0.14644 0.53324 0.70865 0.0
C221 C 0.15442 0.56333 0.70055 0.0
C222 C 0.1432 0.57945 0.71632 0.0
C223 C 0.12656 0.56669 0.74084 0.0
C224 C 0.07859 0.5205 0.78474 0.0
C225 C 0.07385 0.54157 0.80031 0.0
C226 C 0.04235 0.53342 0.80816 0.0
C227 C 0.01491 0.50437 0.80014 0.0
C228 C 0.01983 0.48402 0.78361 0.0
C229 C 0.05129 0.49196 0.77622 0.0
C230 C 0.87556 0.46299 0.86121 0.0
C231 C 0.85445 0.47238 0.87096 0.0
C232 C 0.83987 0.46279 0.89663 0.0
C233 C 0.84619 0.44357 0.91311 0.0
C234 C 0.8691 0.43599 0.90426 0.0
C235 C 0.88348 0.44537 0.87851 0.0
C236 C 0.85913 0.44503 0.8144 0.0
C237 C 0.84502 0.4126 0.81816 0.0
C238 C 0.8186 0.39111 0.8018 0.0
C239 C 0.80568 0.40156 0.78149 0.0
C240 C 0.8202 0.4339 0.77734 0.0
C241 C 0.84682 0.45541 0.7936 0.0
C242 C 0.91728 0.47654 0.82565 0.0
C243 C 0.9403 0.50804 0.82038 0.0
C244 C 0.97196 0.51721 0.81214 0.0
C245 C 0.98137 0.49497 0.80924 0.0
C246 C 0.95829 0.46341 0.81497 0.0
C247 C 0.92657 0.45424 0.82272 0.0
H248 H 0.53016 0.18056 0.9732 0.0
N249 N 0.52795 0.12917 0.95618 0.0
H250 H 0.5729 0.22351 0.00077 0.0
H251 H 0.57851 0.12874 0.98262 0.0
H252 H 0.62039 0.17075 0.01191 0.0
H253 H 0.58209 0.1387 0.929 0.0
H254 H 0.59944 0.16139 0.88365 0.0
H255 H 0.49469 0.14258 0.92079 0.0
H256 H 0.51321 0.16784 0.87617 0.0
H257 H 0.47579 0.09677 0.9871 0.0
H258 H 0.54634 0.08742 0.94035 0.0
H259 H 0.4479 0.04127 0.99856 0.0
H260 H 0.5178 0.03185 0.95035 0.0
H261 H 0.35267 0.86275 0.02397 0.0
H262 H 0.345 0.84203 0.07058 0.0
H263 H 0.44934 0.898 0.08493 0.0
H264 H 0.45688 0.91778 0.03825 0.0
H265 H 0.45472 0.88301 0.99946 0.0
H266 H 0.45095 0.83877 0.97414 0.0
H267 H 0.36407 0.82366 0.93229 0.0
H268 H 0.36764 0.86766 0.95809 0.0
H269 H 0.38435 0.9358 0.98924 0.0
H270 H 0.41394 0.99155 0.97855 0.0
H271 H 0.50538 0.994 0.98438 0.0
N272 N 0.40876 0.89996 0.99894 0.0
H273 H 0.47528 0.93791 0.99356 0.0
C274 C 0.551 0.15148 0.97595 0.0
C275 C 0.54961 0.17817 0.9819 0.0
C276 C 0.57404 0.20264 0.99774 0.0
C277 C 0.60038 0.20083 0.00836 0.0
C278 C 0.60097 0.17333 0.00346 0.0
C279 C 0.57674 0.14903 0.98706 0.0
C280 C 0.53667 0.13839 0.92808 0.0
C281 C 0.56626 0.14381 0.91719 0.0
C282 C 0.57654 0.15751 0.89147 0.0
C283 C 0.55815 0.16724 0.87659 0.0
C284 C 0.52793 0.1606 0.88705 0.0
C285 C 0.5173 0.14619 0.9125 0.0
C286 C 0.51282 0.09636 0.96258 0.0
C287 C 0.48509 0.08267 0.97913 0.0
C288 C 0.46906 0.05086 0.98545 0.0
C289 C 0.48027 0.0318 0.9751 0.0
C290 C 0.50853 0.04573 0.95889 0.0
C291 C 0.52479 0.07769 0.95286 0.0
C292 C 0.40519 0.89178 0.02756 0.0
C293 C 0.37379 0.87084 0.03736 0.0
C294 C 0.36948 0.85909 0.06394 0.0
C295 C 0.39662 0.86807 0.08124 0.0
C296 C 0.42803 0.89016 0.07184 0.0
C297 C 0.43233 0.90175 0.04518 0.0
C298 C 0.41116 0.87842 0.98078 0.0
C299 C 0.43531 0.87072 0.9844 0.0
C300 C 0.43318 0.84544 0.9699 0.0
C301 C 0.40689 0.82751 0.95167 0.0
C302 C 0.38424 0.83677 0.94662 0.0
C303 C 0.38636 0.86195 0.96113 0.0
C304 C 0.42748 0.93275 0.99239 0.0
C305 C 0.41078 0.94846 0.98808 0.0
C306 C 0.42782 0.9804 0.98224 0.0
C307 C 0.4622 0.99754 0.98087 0.0
C308 C 0.47894 0.98161 0.985 0.0
C309 C 0.46175 0.94948 0.99053 0.0
H310 H 0.52065 0.39943 0.12853 0.0
N311 N 0.52669 0.44 0.16694 0.0
H312 H 0.56508 0.39743 0.10591 0.0
H313 H 0.59113 0.48738 0.16705 0.0
H314 H 0.63535 0.48602 0.14393 0.0
H315 H 0.55824 0.48534 0.20701 0.0
H316 H 0.57366 0.47744 0.25265 0.0
H317 H 0.50736 0.38583 0.19106 0.0
H318 H 0.52352 0.3778 0.23657 0.0
H319 H 0.46431 0.41546 0.15382 0.0
H320 H 0.5547 0.504 0.16433 0.0
H321 H 0.43623 0.44287 0.1416 0.0
H322 H 0.52671 0.53165 0.15371 0.0
H323 H 0.36739 0.51446 0.07436 0.0
H324 H 0.36561 0.53049 0.02709 0.0
H325 H 0.45426 0.61942 0.04307 0.0
H326 H 0.45567 0.60365 0.09003 0.0
H327 H 0.4598 0.60006 0.14129 0.0
H328 H 0.45672 0.64223 0.16421 0.0
H329 H 0.35225 0.59118 0.15044 0.0
H330 H 0.35546 0.54914 0.1275 0.0
H331 H 0.38727 0.499 0.14512 0.0
H332 H 0.41656 0.47349 0.1598 0.0
H333 H 0.50257 0.54386 0.11753 0.0
N334 N 0.40904 0.54934 0.11433 0.0
H335 H 0.47374 0.56995 0.10437 0.0
C336 C 0.55242 0.44341 0.14944 0.0
C337 C 0.54558 0.41882 0.1313 0.0
C338 C 0.57094 0.41775 0.11842 0.0
C339 C 0.60366 0.44133 0.12356 0.0
C340 C 0.61036 0.46727 0.14 0.0
C341 C 0.58499 0.46824 0.15299 0.0
C342 C 0.53134 0.43602 0.19556 0.0
C343 C 0.54968 0.4617 0.21345 0.0
C344 C 0.55871 0.45719 0.23957 0.0
C345 C 0.54973 0.427 0.24826 0.0
C346 C 0.53022 0.40127 0.23077 0.0
C347 C 0.52106 0.4058 0.20474 0.0
C348 C 0.51143 0.45747 0.16017 0.0
C349 C 0.47798 0.44084 0.15377 0.0
C350 C 0.46197 0.45661 0.14704 0.0
C351 C 0.47908 0.48959 0.14686 0.0
C352 C 0.51276 0.50628 0.15332 0.0
C353 C 0.52883 0.49041 0.15972 0.0
C354 C 0.41148 0.55773 0.08577 0.0
C355 C 0.38669 0.53717 0.06744 0.0
C356 C 0.38571 0.54634 0.04056 0.0
C357 C 0.4095 0.57638 0.03168 0.0
C358 C 0.43526 0.59637 0.04961 0.0
C359 C 0.43622 0.58722 0.07642 0.0
C360 C 0.4077 0.57138 0.13267 0.0
C361 C 0.43612 0.59749 0.1439 0.0
C362 C 0.43436 0.62156 0.15701 0.0
C363 C 0.40426 0.6199 0.15895 0.0
C364 C 0.37575 0.59301 0.1491 0.0
C365 C 0.3775 0.56898 0.13618 0.0
C366 C 0.42794 0.53606 0.12336 0.0
C367 C 0.41254 0.50897 0.13926 0.0
C368 C 0.42927 0.4943 0.14739 0.0
C369 C 0.46189 0.50631 0.13956 0.0
C370 C 0.4776 0.53402 0.12417 0.0
C371 C 0.46092 0.54888 0.11633 0.0
C372 C 0.62165 0.33079 0.41733 0.0
O373 O 0.6479 0.35629 0.42671 0.0
O374 O 0.66743 0.39238 0.37251 0.0
Zn375 Zn 0.62287 0.37846 0.38763 0.0
O376 O 0.62564 0.40354 0.42133 0.0
C377 C 0.60975 0.40802 0.34459 0.0
O378 O 0.63982 0.42983 0.35149 0.0
O379 O 0.60423 0.33366 0.39915 0.0
C380 C 0.60652 0.41367 0.4252 0.0
O381 O 0.58521 0.4093 0.4059 0.0
C382 C 0.69495 0.41403 0.38189 0.0
O383 O 0.69587 0.43049 0.40337 0.0
O384 O 0.59599 0.38242 0.35766 0.0
C385 C 0.31719 0.72329 0.56635 0.0
O386 O 0.32853 0.71371 0.58618 0.0
O387 O 0.30757 0.65031 0.5688 0.0
Zn388 Zn 0.27036 0.65706 0.56041 0.0
O389 O 0.24686 0.63538 0.52519 0.0
C390 C 0.23719 0.61848 0.60537 0.0
O391 O 0.25316 0.60556 0.59609 0.0
O392 O 0.29098 0.70329 0.55392 0.0
C393 C 0.21844 0.61099 0.52322 0.0
O394 O 0.20268 0.59711 0.54568 0.0
C395 C 0.31531 0.6328 0.55624 0.0
O396 O 0.29802 0.61653 0.53466 0.0
O397 O 0.23955 0.64175 0.59274 0.0
C398 C 0.57187 0.29652 0.6997 0.0
O399 O 0.56733 0.27441 0.68226 0.0
O400 O 0.65608 0.30848 0.74024 0.0
Zn401 Zn 0.60946 0.2757 0.73034 0.0
O402 O 0.60878 0.25171 0.6967 0.0
C403 C 0.6075 0.24121 0.77732 0.0
O404 O 0.63812 0.25319 0.77027 0.0
O405 O 0.58738 0.29988 0.722 0.0
C406 C 0.5893 0.22238 0.69335 0.0
O407 O 0.56858 0.20637 0.71286 0.0
C408 C 0.68113 0.30824 0.73222 0.0
O409 O 0.67725 0.28535 0.71611 0.0
O410 O 0.58907 0.24685 0.76272 0.0
C411 C 0.38685 0.7086 0.91148 0.0
O412 O 0.36287 0.68215 0.92119 0.0
O413 O 0.34738 0.64058 0.87105 0.0
Zn414 Zn 0.39389 0.66303 0.88524 0.0
O415 O 0.3978 0.64405 0.92049 0.0
C416 C 0.40957 0.63525 0.84194 0.0
O417 O 0.38053 0.61194 0.84871 0.0
O418 O 0.40612 0.7074 0.89438 0.0
C419 C 0.39739 0.61861 0.92348 0.0
O420 O 0.39413 0.60149 0.90177 0.0
C421 C 0.32197 0.61892 0.88256 0.0
O422 O 0.32474 0.60894 0.90672 0.0
O423 O 0.42172 0.66113 0.85505 0.0
C424 C 0.69707 0.40681 0.09125 0.0
O425 O 0.70531 0.39331 0.10997 0.0
O426 O 0.6989 0.34019 0.05306 0.0
Zn427 Zn 0.73173 0.38644 0.05926 0.0
O428 O 0.75985 0.39412 0.09288 0.0
C429 C 0.7679 0.38931 0.01101 0.0
O430 O 0.75767 0.3604 0.01808 0.0
O431 O 0.70555 0.40697 0.06654 0.0
C432 C 0.78597 0.39363 0.09534 0.0
O433 O 0.79731 0.38622 0.074 0.0
C434 C 0.70364 0.31768 0.05659 0.0
O435 O 0.73217 0.32339 0.06558 0.0
O436 O 0.76008 0.40545 0.02572 0.0
C437 C 0.39366 0.72614 0.19243 0.0
O438 O 0.3846 0.73904 0.17376 0.0
O439 O 0.33531 0.7419 0.23774 0.0
Zn440 Zn 0.38278 0.7663 0.22695 0.0
O441 O 0.39103 0.79398 0.19428 0.0
C442 C 0.40385 0.81375 0.26842 0.0
O443 O 0.38403 0.81948 0.25441 0.0
O444 O 0.39577 0.73478 0.21736 0.0
C445 C 0.37246 0.80317 0.1854 0.0
O446 O 0.34564 0.79554 0.19878 0.0
C447 C 0.31338 0.71876 0.2238 0.0
O448 O 0.32119 0.71181 0.20015 0.0
O449 O 0.40835 0.79221 0.25993 0.0
C450 C 0.23353 0.64354 0.23857 0.0
C451 C 0.2238 0.65036 0.26348 0.0
C452 C 0.26154 0.66638 0.22506 0.0
C453 C 0.28118 0.69684 0.23616 0.0
H454 H 0.21982 0.62009 0.22981 0.0
H455 H 0.26856 0.65961 0.20641 0.0
S456 S 0.26484 0.72707 0.30007 0.0
N457 N 0.23478 0.69006 0.29802 0.0
N458 N 0.28746 0.73311 0.27272 0.0
C459 C 0.27083 0.70433 0.26047 0.0
C460 C 0.24213 0.68108 0.2741 0.0
C461 C 0.62957 0.26947 0.45599 0.0
C462 C 0.6022 0.24097 0.44706 0.0
C463 C 0.63526 0.29815 0.44637 0.0
C464 C 0.6139 0.29966 0.42731 0.0
H465 H 0.64661 0.26966 0.47085 0.0
H466 H 0.65678 0.31933 0.45402 0.0
S467 S 0.53873 0.23148 0.39718 0.0
N468 N 0.55353 0.21573 0.41794 0.0
N469 N 0.56412 0.26978 0.39975 0.0
C470 C 0.58631 0.27126 0.41819 0.0
C471 C 0.58046 0.24192 0.42813 0.0
C472 C 0.38552 0.64504 0.60209 0.0
C473 C 0.39476 0.625 0.59057 0.0
C474 C 0.36017 0.64756 0.59059 0.0
C475 C 0.34287 0.63013 0.56701 0.0
H476 H 0.39751 0.65845 0.6206 0.0
H477 H 0.35391 0.66311 0.60059 0.0
S478 S 0.35886 0.57547 0.52802 0.0
N479 N 0.38573 0.58836 0.55362 0.0
N480 N 0.33775 0.59282 0.53194 0.0
C481 C 0.35225 0.61034 0.55494 0.0
C482 C 0.37818 0.60779 0.56675 0.0
C483 C 0.74826 0.38259 0.76691 0.0
C484 C 0.77531 0.37881 0.76646 0.0
C485 C 0.71817 0.35992 0.75528 0.0
C486 C 0.71401 0.3327 0.74252 0.0
H487 H 0.75004 0.40274 0.77714 0.0
H488 H 0.69788 0.36364 0.75668 0.0
S489 S 0.77828 0.31297 0.73429 0.0
N490 N 0.7968 0.3468 0.75113 0.0
N491 N 0.74027 0.3041 0.72906 0.0
C492 C 0.74129 0.32919 0.7411 0.0
C493 C 0.7719 0.35222 0.75318 0.0
C494 C 0.42596 0.79601 0.92633 0.0
C495 C 0.40114 0.79741 0.94027 0.0
C496 C 0.42101 0.76732 0.91652 0.0
C497 C 0.39125 0.73896 0.92075 0.0
H498 H 0.44935 0.81724 0.923 0.0
H499 H 0.44086 0.76732 0.90603 0.0
S500 S 0.31874 0.73019 0.95657 0.0
N501 N 0.34598 0.76812 0.95809 0.0
N502 N 0.33651 0.7144 0.93975 0.0
C503 C 0.36624 0.7402 0.93462 0.0
C504 C 0.37122 0.76935 0.94436 0.0
C505 C 0.63159 0.42784 0.08739 0.0
C506 C 0.63041 0.43668 0.11465 0.0
C507 C 0.65434 0.41965 0.07954 0.0
C508 C 0.67625 0.41944 0.09882 0.0
H509 H 0.61433 0.42661 0.07218 0.0
H510 H 0.6538 0.41215 0.05852 0.0
S511 S 0.68421 0.44225 0.17243 0.0
N512 N 0.654 0.44591 0.16064 0.0
N513 N 0.69666 0.43063 0.14593 0.0
C514 C 0.67604 0.42928 0.12589 0.0
C515 C 0.65316 0.43788 0.13379 0.0
C516 C 0.39255 0.80231 0.55142 0.0
C517 C 0.38311 0.81216 0.52805 0.0
C518 C 0.37042 0.77451 0.56475 0.0
C519 C 0.338 0.75526 0.55506 0.0
H520 H 0.41756 0.81574 0.55898 0.0
H521 H 0.37933 0.76742 0.58202 0.0
S522 S 0.30042 0.77208 0.49583 0.0
N523 N 0.33873 0.80163 0.4967 0.0
N524 N 0.29694 0.74955 0.52181 0.0
C525 C 0.32777 0.7658 0.53258 0.0
C526 C 0.35035 0.79419 0.51905 0.0
C527 C 0.55221 0.34597 0.65422 0.0
C528 C 0.55874 0.37132 0.67145 0.0
C529 C 0.55479 0.32104 0.66397 0.0
C530 C 0.56413 0.3205 0.69134 0.0
H531 H 0.54661 0.34609 0.63264 0.0
H532 H 0.55085 0.30281 0.64951 0.0
S533 S 0.57895 0.37901 0.74581 0.0
N534 N 0.57119 0.39269 0.71789 0.0
N535 N 0.57636 0.34601 0.73632 0.0
C536 C 0.56873 0.34479 0.70923 0.0
C537 C 0.56604 0.37017 0.69925 0.0
C538 C 0.22999 0.56942 0.86952 0.0
C539 C 0.2264 0.57925 0.84347 0.0
C540 C 0.26096 0.58237 0.88204 0.0
C541 C 0.28946 0.60541 0.86885 0.0
H542 H 0.20869 0.55183 0.88038 0.0
H543 H 0.26247 0.57424 0.90223 0.0
S544 S 0.29299 0.63726 0.79933 0.0
N545 N 0.25374 0.61205 0.80425 0.0
N546 N 0.31181 0.63647 0.82754 0.0
C547 C 0.28607 0.615 0.84251 0.0
C548 C 0.25459 0.6019 0.8299 0.0
C549 C 0.62051 0.24592 0.04163 0.0
C550 C 0.62759 0.2284 0.02325 0.0
C551 C 0.64539 0.27435 0.05304 0.0
C552 C 0.67837 0.28597 0.04712 0.0
H553 H 0.59542 0.23802 0.04672 0.0
H554 H 0.63873 0.28761 0.06627 0.0
S555 S 0.71051 0.24963 0.00062 0.0
N556 N 0.67046 0.22533 0.99958 0.0
N557 N 0.71718 0.27798 0.02225 0.0
C558 C 0.68607 0.26825 0.02979 0.0
C559 C 0.66071 0.23962 0.01761 0.0
C560 C 0.38857 0.65943 0.15081 0.0
C561 C 0.40274 0.64737 0.16826 0.0
C562 C 0.38643 0.68523 0.15871 0.0
C563 C 0.39805 0.69986 0.18454 0.0
H564 H 0.37917 0.6489 0.13075 0.0
H565 H 0.37505 0.69338 0.14449 0.0
S566 S 0.43773 0.67732 0.2377 0.0
N567 N 0.42908 0.65203 0.21229 0.0
N568 N 0.4248 0.70051 0.22747 0.0
C569 C 0.41254 0.68814 0.20218 0.0
C570 C 0.41502 0.66196 0.19393 0.0
C571 C 0.75141 0.40144 0.3367 0.0
C572 C 0.7828 0.42588 0.34463 0.0
C573 C 0.72336 0.39818 0.34865 0.0
C574 C 0.72546 0.41913 0.36922 0.0
H575 H 0.74845 0.38475 0.32091 0.0
H576 H 0.69983 0.37882 0.34177 0.0
S577 S 0.80225 0.48716 0.39738 0.0
N578 N 0.81465 0.47141 0.37428 0.0
N579 N 0.76189 0.46543 0.3969 0.0
C580 C 0.75681 0.44384 0.37729 0.0
C581 C 0.78545 0.44721 0.36494 0.0
C582 C 0.20183 0.61099 0.44692 0.0
C583 C 0.17237 0.58233 0.44258 0.0
C584 C 0.21671 0.61966 0.47292 0.0
C585 C 0.20256 0.60016 0.49577 0.0
H586 H 0.21364 0.62678 0.42997 0.0
H587 H 0.23933 0.6421 0.47511 0.0
S588 S 0.12522 0.52252 0.49511 0.0
N589 N 0.12944 0.53434 0.46302 0.0
N590 N 0.15723 0.55058 0.51211 0.0
C591 C 0.17305 0.57131 0.49166 0.0
C592 C 0.15804 0.56239 0.46503 0.0
C593 C 0.60891 0.21226 0.62005 0.0
C594 C 0.58907 0.1798 0.61527 0.0
C595 C 0.60898 0.22562 0.6454 0.0
C596 C 0.5892 0.20708 0.66708 0.0
H597 H 0.62413 0.2276 0.60388 0.0
H598 H 0.62447 0.25082 0.64783 0.0
S599 S 0.53425 0.12044 0.66546 0.0
N600 N 0.55025 0.12915 0.63453 0.0
N601 N 0.55005 0.15417 0.68224 0.0
C602 C 0.56955 0.17444 0.66268 0.0
C603 C 0.56953 0.16084 0.63678 0.0
C604 C 0.45931 0.65424 0.77691 0.0
C605 C 0.4519 0.62448 0.7676 0.0
C606 C 0.4468 0.65786 0.8017 0.0
C607 C 0.42623 0.63181 0.81791 0.0
H608 H 0.47373 0.6747 0.7644 0.0
H609 H 0.45207 0.681 0.80754 0.0
S610 S 0.40376 0.54969 0.80487 0.0
N611 N 0.4261 0.56918 0.77826 0.0
N612 N 0.40198 0.57583 0.82444 0.0
C613 C 0.42011 0.60222 0.80957 0.0
C614 C 0.43308 0.5986 0.78452 0.0
C615 C 0.82327 0.44834 0.95783 0.0
C616 C 0.82708 0.42958 0.93841 0.0
C617 C 0.8042 0.4352 0.98128 0.0
C618 C 0.78816 0.40277 0.98617 0.0
H619 H 0.8352 0.4734 0.95491 0.0
H620 H 0.8021 0.45063 0.99569 0.0
S621 S 0.78862 0.34319 0.94046 0.0
N622 N 0.81199 0.37679 0.92485 0.0
N623 N 0.77659 0.35209 0.96891 0.0
C624 C 0.79166 0.38374 0.96674 0.0
C625 C 0.811 0.39713 0.94289 0.0
C626 C 0.36787 0.85019 0.12631 0.0
C627 C 0.39214 0.85303 0.10839 0.0
C628 C 0.36203 0.83449 0.15133 0.0
C629 C 0.38021 0.82096 0.15941 0.0
H630 H 0.35318 0.86011 0.1209 0.0
H631 H 0.34294 0.83279 0.16432 0.0
S632 S 0.4458 0.8209 0.11916 0.0
N633 N 0.43384 0.84027 0.09999 0.0
N634 N 0.42337 0.81123 0.14705 0.0
C635 C 0.40476 0.82387 0.14169 0.0
C636 C 0.4106 0.83977 0.1162 0.0
C637 C 0.59734 0.442 0.27954 0.0
C638 C 0.5636 0.42278 0.2741 0.0
C639 C 0.61179 0.43727 0.30259 0.0
C640 C 0.59314 0.413 0.32111 0.0
H641 H 0.61296 0.46035 0.26544 0.0
H642 H 0.63798 0.4524 0.30551 0.0
S643 S 0.50324 0.35788 0.3175 0.0
N644 N 0.51148 0.37991 0.29008 0.0
N645 N 0.53869 0.37064 0.3333 0.0
C646 C 0.5592 0.39404 0.3163 0.0
C647 C 0.54444 0.399 0.29283 0.0
C648 C 0.42633 0.87074 0.32831 0.0
C649 C 0.44161 0.86103 0.34711 0.0
C650 C 0.41503 0.85584 0.30268 0.0
C651 C 0.4185 0.83057 0.2948 0.0
H652 H 0.42287 0.8899 0.33354 0.0
H653 H 0.40308 0.86399 0.28912 0.0
S654 S 0.45664 0.796 0.33682 0.0
N655 N 0.45945 0.82447 0.35627 0.0
N656 N 0.43872 0.79673 0.308 0.0
C657 C 0.43432 0.82101 0.31325 0.0
C658 C 0.44574 0.83616 0.3394 0.0
C659 C 0.58476 0.45357 0.4804 0.0
C660 C 0.60004 0.45092 0.50411 0.0
C661 C 0.58777 0.44225 0.45488 0.0
C662 C 0.60619 0.42782 0.45202 0.0
H663 H 0.57009 0.46424 0.48163 0.0
H664 H 0.57515 0.44448 0.43733 0.0
S665 S 0.65076 0.4148 0.50799 0.0
N666 N 0.634 0.43253 0.52323 0.0
N667 N 0.64019 0.41175 0.47527 0.0
C668 C 0.62217 0.4256 0.47551 0.0
C669 C 0.61896 0.43701 0.50152 0.0
C670 C 0.16851 0.59361 0.65651 0.0
C671 C 0.17625 0.57849 0.6768 0.0
C672 C 0.18867 0.6072 0.63364 0.0
C673 C 0.21708 0.6059 0.63025 0.0
H674 H 0.14641 0.5944 0.65805 0.0
H675 H 0.18153 0.61807 0.6182 0.0
S676 S 0.25051 0.5729 0.67938 0.0
N677 N 0.21617 0.56609 0.69338 0.0
N678 N 0.25339 0.59073 0.65022 0.0
C679 C 0.2256 0.59177 0.65083 0.0
C680 C 0.20537 0.5783 0.67414 0.0
C681 C 0.55075 0.17979 0.8281 0.0
C682 C 0.57128 0.18593 0.85115 0.0
C683 C 0.56249 0.19789 0.8043 0.0
C684 C 0.59527 0.22249 0.80256 0.0
H685 H 0.52545 0.16075 0.82838 0.0
H686 H 0.5459 0.1923 0.78701 0.0
S687 S 0.6583 0.25012 0.85785 0.0
N688 N 0.62541 0.22015 0.87128 0.0
N689 N 0.64766 0.25315 0.82626 0.0
C690 C 0.61598 0.22905 0.82545 0.0
C691 C 0.60395 0.21103 0.8498 0.0
C692 C 0.40232 0.56958 0.98058 0.0
C693 C 0.40653 0.58751 0.0043 0.0
C694 C 0.39948 0.57986 0.95456 0.0
C695 C 0.40047 0.60834 0.95131 0.0
H696 H 0.40156 0.54761 0.98212 0.0
H697 H 0.39648 0.5653 0.93688 0.0
S698 S 0.40907 0.66287 0.00756 0.0
N699 N 0.41014 0.63427 0.02326 0.0
N700 N 0.40494 0.65377 0.97455 0.0
C701 C 0.40424 0.62625 0.97506 0.0
C702 C 0.40725 0.6158 0.00149 0.0
C703 C 0.84128 0.39763 0.15367 0.0
C704 C 0.83522 0.4134 0.1746 0.0
C705 C 0.82573 0.39182 0.12791 0.0
C706 C 0.80315 0.40112 0.12232 0.0
H707 H 0.85821 0.38978 0.15726 0.0
H708 H 0.83103 0.37947 0.11245 0.0
S709 S 0.77878 0.44311 0.17054 0.0
N710 N 0.80524 0.43816 0.18822 0.0
N711 N 0.77596 0.42734 0.13999 0.0
C712 C 0.79704 0.41706 0.14315 0.0
C713 C 0.8131 0.42319 0.16923 0.0
loop_
_geom_bond_atom_site_label_1
_geom_bond_atom_site_label_2
_geom_bond_distance
_geom_bond_site_symmetry_2
_ccdc_geom_bond_type
H0 C27 0.929 . S
N1 C26 1.433 . S
N1 C32 1.435 . S
N1 C38 1.423 . S
H2 C28 0.930 . S
H3 C31 0.931 . S
H4 C30 0.929 . S
H5 C33 0.930 . S
H6 C34 0.932 . S
H7 C37 0.929 . S
H8 C36 0.931 . S
H9 C39 0.929 . S
H10 C43 0.932 . S
H11 C40 0.931 . S
H12 C42 0.929 . S
H13 C45 0.929 . S
H14 C46 0.930 . S
H15 C48 0.929 . S
H16 C49 0.931 . S
H17 C51 0.930 . S
H18 C52 0.932 . S
H19 C54 0.931 . S
H20 C55 0.929 . S
H21 C57 0.929 . S
H22 C58 0.931 . S
H23 C60 0.929 . S
N24 C44 1.433 . S
N24 C50 1.435 . S
N24 C56 1.423 . S
H25 C61 0.932 . S
C26 N1 1.433 . S
C26 C27 1.363 . S
C26 C31 1.370 . S
C27 H0 0.929 . S
C27 C26 1.363 . S
C27 C28 1.385 . S
C28 H2 0.930 . S
C28 C27 1.385 . S
C28 C29 1.357 . S
C29 C28 1.357 . S
C29 C30 1.406 . S
C30 H4 0.929 . S
C30 C29 1.406 . S
C30 C31 1.391 . S
C31 H3 0.931 . S
C31 C26 1.370 . S
C31 C30 1.391 . S
C32 N1 1.435 . S
C32 C33 1.358 . S
C32 C37 1.371 . S
C33 H5 0.930 . S
C33 C32 1.358 . S
C33 C34 1.405 . S
C34 H6 0.932 . S
C34 C33 1.405 . S
C34 C35 1.383 . S
C35 C34 1.383 . S
C35 C36 1.393 . S
C36 H8 0.931 . S
C36 C35 1.393 . S
C36 C37 1.382 . S
C37 H7 0.929 . S
C37 C32 1.371 . S
C37 C36 1.382 . S
C38 N1 1.423 . S
C38 C39 1.362 . S
C38 C43 1.388 . S
C39 H9 0.929 . S
C39 C38 1.362 . S
C39 C40 1.376 . S
C40 H11 0.931 . S
C40 C39 1.376 . S
C40 C41 1.396 . S
C41 C40 1.396 . S
C41 C42 1.348 . S
C41 C59 1.472 1_455 S
C42 H12 0.929 . S
C42 C41 1.348 . S
C42 C43 1.443 . S
C43 H10 0.932 . S
C43 C38 1.388 . S
C43 C42 1.443 . S
C44 N24 1.433 . S
C44 C45 1.363 . S
C44 C49 1.370 . S
C45 H13 0.929 . S
C45 C44 1.363 . S
C45 C46 1.385 . S
C46 H14 0.930 . S
C46 C45 1.385 . S
C46 C47 1.357 . S
C47 C46 1.357 . S
C47 C48 1.406 . S
C48 H15 0.929 . S
C48 C47 1.406 . S
C48 C49 1.391 . S
C49 H16 0.931 . S
C49 C44 1.370 . S
C49 C48 1.391 . S
C50 N24 1.435 . S
C50 C51 1.358 . S
C50 C55 1.371 . S
C51 H17 0.930 . S
C51 C50 1.358 . S
C51 C52 1.405 . S
C52 H18 0.932 . S
C52 C51 1.405 . S
C52 C53 1.383 . S
C53 C52 1.383 . S
C53 C54 1.393 . S
C54 H19 0.931 . S
C54 C53 1.393 . S
C54 C55 1.382 . S
C55 H20 0.929 . S
C55 C50 1.371 . S
C55 C54 1.382 . S
C56 N24 1.423 . S
C56 C57 1.362 . S
C56 C61 1.388 . S
C57 H21 0.929 . S
C57 C56 1.362 . S
C57 C58 1.376 . S
C58 H22 0.931 . S
C58 C57 1.376 . S
C58 C59 1.396 . S
C59 C41 1.472 1_655 S
C59 C58 1.396 . S
C59 C60 1.348 . S
C60 H23 0.929 . S
C60 C59 1.348 . S
C60 C61 1.443 . S
C61 H25 0.932 . S
C61 C56 1.388 . S
C61 C60 1.443 . S
H62 C89 0.929 . S
N63 C88 1.433 . S
N63 C94 1.435 . S
N63 C100 1.423 . S
H64 C90 0.930 . S
H65 C93 0.931 . S
H66 C92 0.929 . S
H67 C95 0.930 . S
H68 C96 0.932 . S
H69 C99 0.929 . S
H70 C98 0.931 . S
H71 C101 0.929 . S
H72 C105 0.932 . S
H73 C102 0.931 . S
H74 C104 0.929 1_545 S
H75 C107 0.929 . S
H76 C108 0.930 . S
H77 C110 0.929 . S
H78 C111 0.931 . S
H79 C113 0.930 . S
H80 C114 0.932 . S
H81 C116 0.931 . S
H82 C117 0.929 . S
H83 C119 0.929 . S
H84 C120 0.931 . S
H85 C122 0.929 . S
N86 C106 1.433 . S
N86 C112 1.435 . S
N86 C118 1.423 . S
H87 C123 0.932 . S
C88 N63 1.433 . S
C88 C89 1.363 . S
C88 C93 1.370 . S
C89 H62 0.929 . S
C89 C88 1.363 . S
C89 C90 1.385 . S
C90 H64 0.930 . S
C90 C89 1.385 . S
C90 C91 1.357 . S
C91 C90 1.357 . S
C91 C92 1.406 . S
C92 H66 0.929 . S
C92 C91 1.406 . S
C92 C93 1.391 . S
C93 H65 0.931 . S
C93 C88 1.370 . S
C93 C92 1.391 . S
C94 N63 1.435 . S
C94 C95 1.358 . S
C94 C99 1.371 . S
C95 H67 0.930 . S
C95 C94 1.358 . S
C95 C96 1.405 . S
C96 H68 0.932 . S
C96 C95 1.405 . S
C96 C97 1.383 . S
C97 C96 1.383 . S
C97 C98 1.393 . S
C98 H70 0.931 . S
C98 C97 1.393 . S
C98 C99 1.382 . S
C99 H69 0.929 . S
C99 C94 1.371 . S
C99 C98 1.382 . S
C100 N63 1.423 . S
C100 C101 1.362 . S
C100 C105 1.388 . S
C101 H71 0.929 . S
C101 C100 1.362 . S
C101 C102 1.376 . S
C102 H73 0.931 . S
C102 C101 1.376 . S
C102 C103 1.396 1_565 S
C103 C102 1.396 1_545 S
C103 C104 1.348 1_545 S
C103 C121 1.472 . S
C104 H74 0.929 1_565 S
C104 C103 1.348 1_565 S
C104 C105 1.443 . S
C105 H72 0.932 . S
C105 C100 1.388 . S
C105 C104 1.443 . S
C106 N86 1.433 . S
C106 C107 1.363 . S
C106 C111 1.370 . S
C107 H75 0.929 . S
C107 C106 1.363 . S
C107 C108 1.385 . S
C108 H76 0.930 . S
C108 C107 1.385 . S
C108 C109 1.357 . S
C109 C108 1.357 . S
C109 C110 1.406 . S
C110 H77 0.929 . S
C110 C109 1.406 . S
C110 C111 1.391 . S
C111 H78 0.931 . S
C111 C106 1.370 . S
C111 C110 1.391 . S
C112 N86 1.435 . S
C112 C113 1.358 . S
C112 C117 1.371 . S
C113 H79 0.930 . S
C113 C112 1.358 . S
C113 C114 1.405 . S
C114 H80 0.932 . S
C114 C113 1.405 . S
C114 C115 1.383 . S
C115 C114 1.383 . S
C115 C116 1.393 . S
C116 H81 0.931 . S
C116 C115 1.393 . S
C116 C117 1.382 . S
C117 H82 0.929 . S
C117 C112 1.371 . S
C117 C116 1.382 . S
C118 N86 1.423 . S
C118 C119 1.362 . S
C118 C123 1.388 . S
C119 H83 0.929 . S
C119 C118 1.362 . S
C119 C120 1.376 . S
C120 H84 0.931 . S
C120 C119 1.376 . S
C120 C121 1.396 . S
C121 C103 1.472 . S
C121 C120 1.396 . S
C121 C122 1.348 . S
C122 H85 0.929 . S
C122 C121 1.348 . S
C122 C123 1.443 . S
C123 H87 0.932 . S
C123 C118 1.388 . S
C123 C122 1.443 . S
H124 C151 0.929 . S
N125 C150 1.433 . S
N125 C156 1.435 . S
N125 C162 1.423 . S
H126 C152 0.930 . S
H127 C155 0.931 . S
H128 C154 0.929 . S
H129 C157 0.930 . S
H130 C158 0.932 . S
H131 C161 0.929 . S
H132 C160 0.931 . S
H133 C163 0.929 . S
H134 C167 0.932 . S
H135 C164 0.931 . S
H136 C166 0.929 . S
H137 C169 0.929 . S
H138 C170 0.930 . S
H139 C172 0.929 . S
H140 C173 0.931 . S
H141 C175 0.930 . S
H142 C176 0.932 . S
H143 C178 0.931 . S
H144 C179 0.929 . S
H145 C181 0.929 . S
H146 C182 0.931 . S
H147 C184 0.929 . S
N148 C168 1.433 . S
N148 C174 1.435 . S
N148 C180 1.423 . S
H149 C185 0.932 . S
C150 N125 1.433 . S
C150 C151 1.363 . S
C150 C155 1.370 . S
C151 H124 0.929 . S
C151 C150 1.363 . S
C151 C152 1.385 . S
C152 H126 0.930 . S
C152 C151 1.385 . S
C152 C153 1.357 . S
C153 C152 1.357 . S
C153 C154 1.406 . S
C154 H128 0.929 . S
C154 C153 1.406 . S
C154 C155 1.391 . S
C155 H127 0.931 . S
C155 C150 1.370 . S
C155 C154 1.391 . S
C156 N125 1.435 . S
C156 C157 1.358 . S
C156 C161 1.371 . S
C157 H129 0.930 . S
C157 C156 1.358 . S
C157 C158 1.405 . S
C158 H130 0.932 . S
C158 C157 1.405 . S
C158 C159 1.383 . S
C159 C158 1.383 . S
C159 C160 1.393 . S
C160 H132 0.931 . S
C160 C159 1.393 . S
C160 C161 1.382 . S
C161 H131 0.929 . S
C161 C156 1.371 . S
C161 C160 1.382 . S
C162 N125 1.423 . S
C162 C163 1.362 . S
C162 C167 1.388 . S
C163 H133 0.929 . S
C163 C162 1.362 . S
C163 C164 1.376 . S
C164 H135 0.931 . S
C164 C163 1.376 . S
C164 C165 1.396 . S
C165 C164 1.396 . S
C165 C166 1.348 . S
C165 C183 1.472 . S
C166 H136 0.929 . S
C166 C165 1.348 . S
C166 C167 1.443 . S
C167 H134 0.932 . S
C167 C162 1.388 . S
C167 C166 1.443 . S
C168 N148 1.433 . S
C168 C169 1.363 . S
C168 C173 1.370 . S
C169 H137 0.929 . S
C169 C168 1.363 . S
C169 C170 1.385 . S
C170 H138 0.930 . S
C170 C169 1.385 . S
C170 C171 1.357 . S
C171 C170 1.357 . S
C171 C172 1.406 . S
C172 H139 0.929 . S
C172 C171 1.406 . S
C172 C173 1.391 . S
C173 H140 0.931 . S
C173 C168 1.370 . S
C173 C172 1.391 . S
C174 N148 1.435 . S
C174 C175 1.358 . S
C174 C179 1.371 . S
C175 H141 0.930 . S
C175 C174 1.358 . S
C175 C176 1.405 . S
C176 H142 0.932 . S
C176 C175 1.405 . S
C176 C177 1.383 . S
C177 C176 1.383 . S
C177 C178 1.393 . S
C178 H143 0.931 . S
C178 C177 1.393 . S
C178 C179 1.382 . S
C179 H144 0.929 . S
C179 C174 1.371 . S
C179 C178 1.382 . S
C180 N148 1.423 . S
C180 C181 1.362 . S
C180 C185 1.388 . S
C181 H145 0.929 . S
C181 C180 1.362 . S
C181 C182 1.376 . S
C182 H146 0.931 . S
C182 C181 1.376 . S
C182 C183 1.396 . S
C183 C165 1.472 . S
C183 C182 1.396 . S
C183 C184 1.348 . S
C184 H147 0.929 . S
C184 C183 1.348 . S
C184 C185 1.443 . S
C185 H149 0.932 . S
C185 C180 1.388 . S
C185 C184 1.443 . S
H186 C213 0.929 . S
N187 C212 1.433 . S
N187 C218 1.435 . S
N187 C224 1.423 . S
H188 C214 0.930 . S
H189 C217 0.931 . S
H190 C216 0.929 . S
H191 C219 0.930 . S
H192 C220 0.932 . S
H193 C223 0.929 . S
H194 C222 0.931 . S
H195 C225 0.929 . S
H196 C229 0.932 . S
H197 C226 0.931 . S
H198 C228 0.929 . S
H199 C231 0.929 . S
H200 C232 0.930 . S
H201 C234 0.929 . S
H202 C235 0.931 . S
H203 C237 0.930 . S
H204 C238 0.932 . S
H205 C240 0.931 . S
H206 C241 0.929 . S
H207 C243 0.929 . S
H208 C244 0.931 . S
H209 C246 0.929 . S
N210 C230 1.433 . S
N210 C236 1.435 . S
N210 C242 1.423 . S
H211 C247 0.932 . S
C212 N187 1.433 . S
C212 C213 1.363 . S
C212 C217 1.370 . S
C213 H186 0.929 . S
C213 C212 1.363 . S
C213 C214 1.385 . S
C214 H188 0.930 . S
C214 C213 1.385 . S
C214 C215 1.357 . S
C215 C214 1.357 . S
C215 C216 1.406 . S
C216 H190 0.929 . S
C216 C215 1.406 . S
C216 C217 1.391 . S
C217 H189 0.931 . S
C217 C212 1.370 . S
C217 C216 1.391 . S
C218 N187 1.435 . S
C218 C219 1.358 . S
C218 C223 1.371 . S
C219 H191 0.930 . S
C219 C218 1.358 . S
C219 C220 1.405 . S
C220 H192 0.932 . S
C220 C219 1.405 . S
C220 C221 1.383 . S
C221 C220 1.383 . S
C221 C222 1.393 . S
C222 H194 0.931 . S
C222 C221 1.393 . S
C222 C223 1.382 . S
C223 H193 0.929 . S
C223 C218 1.371 . S
C223 C222 1.382 . S
C224 N187 1.423 . S
C224 C225 1.362 . S
C224 C229 1.388 . S
C225 H195 0.929 . S
C225 C224 1.362 . S
C225 C226 1.376 . S
C226 H197 0.931 . S
C226 C225 1.376 . S
C226 C227 1.396 . S
C227 C226 1.396 . S
C227 C228 1.348 . S
C227 C245 1.472 1_455 S
C228 H198 0.929 . S
C228 C227 1.348 . S
C228 C229 1.443 . S
C229 H196 0.932 . S
C229 C224 1.388 . S
C229 C228 1.443 . S
C230 N210 1.433 . S
C230 C231 1.363 . S
C230 C235 1.370 . S
C231 H199 0.929 . S
C231 C230 1.363 . S
C231 C232 1.385 . S
C232 H200 0.930 . S
C232 C231 1.385 . S
C232 C233 1.357 . S
C233 C232 1.357 . S
C233 C234 1.406 . S
C234 H201 0.929 . S
C234 C233 1.406 . S
C234 C235 1.391 . S
C235 H202 0.931 . S
C235 C230 1.370 . S
C235 C234 1.391 . S
C236 N210 1.435 . S
C236 C237 1.358 . S
C236 C241 1.371 . S
C237 H203 0.930 . S
C237 C236 1.358 . S
C237 C238 1.405 . S
C238 H204 0.932 . S
C238 C237 1.405 . S
C238 C239 1.383 . S
C239 C238 1.383 . S
C239 C240 1.393 . S
C240 H205 0.931 . S
C240 C239 1.393 . S
C240 C241 1.382 . S
C241 H206 0.929 . S
C241 C236 1.371 . S
C241 C240 1.382 . S
C242 N210 1.423 . S
C242 C243 1.362 . S
C242 C247 1.388 . S
C243 H207 0.929 . S
C243 C242 1.362 . S
C243 C244 1.376 . S
C244 H208 0.931 . S
C244 C243 1.376 . S
C244 C245 1.396 . S
C245 C227 1.472 1_655 S
C245 C244 1.396 . S
C245 C246 1.348 . S
C246 H209 0.929 . S
C246 C245 1.348 . S
C246 C247 1.443 . S
C247 H211 0.932 . S
C247 C242 1.388 . S
C247 C246 1.443 . S
H248 C275 0.929 . S
N249 C274 1.433 . S
N249 C280 1.435 . S
N249 C286 1.423 . S
H250 C276 0.930 . S
H251 C279 0.931 . S
H252 C278 0.929 . S
H253 C281 0.930 . S
H254 C282 0.932 . S
H255 C285 0.929 . S
H256 C284 0.931 . S
H257 C287 0.929 . S
H258 C291 0.932 . S
H259 C288 0.931 . S
H260 C290 0.929 . S
H261 C293 0.929 . S
H262 C294 0.930 . S
H263 C296 0.929 . S
H264 C297 0.931 . S
H265 C299 0.941 . S
H266 C300 0.932 . S
H267 C302 0.931 . S
H268 C303 0.929 . S
H269 C305 0.929 . S
H270 C306 0.923 1_554 S
H271 C308 0.929 . S
N272 C292 1.433 . S
N272 C298 1.435 1_554 S
N272 C304 1.423 1_554 S
H273 C309 0.932 . S
C274 N249 1.433 . S
C274 C275 1.363 . S
C274 C279 1.370 . S
C275 H248 0.929 . S
C275 C274 1.363 . S
C275 C276 1.385 . S
C276 H250 0.930 . S
C276 C275 1.385 . S
C276 C277 1.357 1_556 S
C277 C276 1.357 1_554 S
C277 C278 1.406 . S
C278 H252 0.929 . S
C278 C277 1.406 . S
C278 C279 1.391 1_554 S
C279 H251 0.931 . S
C279 C274 1.370 . S
C279 C278 1.391 1_556 S
C280 N249 1.435 . S
C280 C281 1.358 . S
C280 C285 1.371 . S
C281 H253 0.930 . S
C281 C280 1.358 . S
C281 C282 1.405 . S
C282 H254 0.932 . S
C282 C281 1.405 . S
C282 C283 1.383 . S
C283 C282 1.383 . S
C283 C284 1.393 . S
C284 H256 0.931 . S
C284 C283 1.393 . S
C284 C285 1.382 . S
C285 H255 0.929 . S
C285 C280 1.371 . S
C285 C284 1.382 . S
C286 N249 1.423 . S
C286 C287 1.362 . S
C286 C291 1.388 . S
C287 H257 0.929 . S
C287 C286 1.362 . S
C287 C288 1.376 . S
C288 H259 0.931 . S
C288 C287 1.376 . S
C288 C289 1.396 . S
C289 C288 1.396 . S
C289 C290 1.348 . S
C289 C307 1.472 1_545 S
C290 H260 0.929 . S
C290 C289 1.348 . S
C290 C291 1.443 . S
C291 H258 0.932 . S
C291 C286 1.388 . S
C291 C290 1.443 . S
C292 N272 1.433 . S
C292 C293 1.363 . S
C292 C297 1.370 . S
C293 H261 0.929 . S
C293 C292 1.363 . S
C293 C294 1.385 . S
C294 H262 0.930 . S
C294 C293 1.385 . S
C294 C295 1.357 . S
C295 C294 1.357 . S
C295 C296 1.406 . S
C296 H263 0.929 . S
C296 C295 1.406 . S
C296 C297 1.391 . S
C297 H264 0.931 . S
C297 C292 1.370 . S
C297 C296 1.391 . S
C298 N272 1.435 1_556 S
C298 C299 1.355 1_556 S
C298 C303 1.371 . S
C299 H265 0.941 . S
C299 C298 1.355 1_554 S
C299 C300 1.398 1_554 S
C300 H266 0.932 . S
C300 C299 1.398 1_556 S
C300 C301 1.383 . S
C301 C300 1.383 . S
C301 C302 1.393 . S
C302 H267 0.931 . S
C302 C301 1.393 . S
C302 C303 1.382 . S
C303 H268 0.929 . S
C303 C298 1.371 . S
C303 C302 1.382 . S
C304 N272 1.423 1_556 S
C304 C305 1.362 1_556 S
C304 C309 1.388 . S
C305 H269 0.929 . S
C305 C304 1.362 1_554 S
C305 C306 1.369 1_554 S
C306 H270 0.923 1_556 S
C306 C305 1.369 1_556 S
C306 C307 1.411 . S
C307 C289 1.472 1_565 S
C307 C306 1.411 . S
C307 C308 1.348 . S
C308 H271 0.929 . S
C308 C307 1.348 . S
C308 C309 1.443 . S
C309 H273 0.932 . S
C309 C304 1.388 . S
C309 C308 1.443 . S
H310 C337 0.929 . S
N311 C336 1.433 . S
N311 C342 1.435 . S
N311 C348 1.423 . S
H312 C338 0.930 . S
H313 C341 0.931 . S
H314 C340 0.929 . S
H315 C343 0.930 . S
H316 C344 0.932 . S
H317 C347 0.929 . S
H318 C346 0.931 . S
H319 C349 0.929 . S
H320 C353 0.932 . S
H321 C350 0.931 . S
H322 C352 0.929 . S
H323 C355 0.929 . S
H324 C356 0.930 . S
H325 C358 0.929 . S
H326 C359 0.931 . S
H327 C361 0.930 . S
H328 C362 0.932 . S
H329 C364 0.931 . S
H330 C365 0.929 . S
H331 C367 0.929 . S
H332 C368 0.931 . S
H333 C370 0.929 . S
N334 C354 1.433 . S
N334 C360 1.435 . S
N334 C366 1.423 . S
H335 C371 0.932 . S
C336 N311 1.433 . S
C336 C337 1.363 . S
C336 C341 1.370 . S
C337 H310 0.929 . S
C337 C336 1.363 . S
C337 C338 1.385 . S
C338 H312 0.930 . S
C338 C337 1.385 . S
C338 C339 1.357 . S
C339 C338 1.357 . S
C339 C340 1.406 . S
C340 H314 0.929 . S
C340 C339 1.406 . S
C340 C341 1.391 . S
C341 H313 0.931 . S
C341 C336 1.370 . S
C341 C340 1.391 . S
C342 N311 1.435 . S
C342 C343 1.358 . S
C342 C347 1.371 . S
C343 H315 0.930 . S
C343 C342 1.358 . S
C343 C344 1.405 . S
C344 H316 0.932 . S
C344 C343 1.405 . S
C344 C345 1.383 . S
C345 C344 1.383 . S
C345 C346 1.393 . S
C346 H318 0.931 . S
C346 C345 1.393 . S
C346 C347 1.382 . S
C347 H317 0.929 . S
C347 C342 1.371 . S
C347 C346 1.382 . S
C348 N311 1.423 . S
C348 C349 1.362 . S
C348 C353 1.388 . S
C349 H319 0.929 . S
C349 C348 1.362 . S
C349 C350 1.376 . S
C350 H321 0.931 . S
C350 C349 1.376 . S
C350 C351 1.396 . S
C351 C350 1.396 . S
C351 C352 1.348 . S
C351 C369 1.472 . S
C352 H322 0.929 . S
C352 C351 1.348 . S
C352 C353 1.443 . S
C353 H320 0.932 . S
C353 C348 1.388 . S
C353 C352 1.443 . S
C354 N334 1.433 . S
C354 C355 1.363 . S
C354 C359 1.370 . S
C355 H323 0.929 . S
C355 C354 1.363 . S
C355 C356 1.385 . S
C356 H324 0.930 . S
C356 C355 1.385 . S
C356 C357 1.357 . S
C357 C356 1.357 . S
C357 C358 1.406 . S
C358 H325 0.929 . S
C358 C357 1.406 . S
C358 C359 1.391 . S
C359 H326 0.931 . S
C359 C354 1.370 . S
C359 C358 1.391 . S
C360 N334 1.435 . S
C360 C361 1.358 . S
C360 C365 1.371 . S
C361 H327 0.930 . S
C361 C360 1.358 . S
C361 C362 1.405 . S
C362 H328 0.932 . S
C362 C361 1.405 . S
C362 C363 1.383 . S
C363 C362 1.383 . S
C363 C364 1.393 . S
C364 H329 0.931 . S
C364 C363 1.393 . S
C364 C365 1.382 . S
C365 H330 0.929 . S
C365 C360 1.371 . S
C365 C364 1.382 . S
C366 N334 1.423 . S
C366 C367 1.362 . S
C366 C371 1.388 . S
C367 H331 0.929 . S
C367 C366 1.362 . S
C367 C368 1.376 . S
C368 H332 0.931 . S
C368 C367 1.376 . S
C368 C369 1.396 . S
C369 C351 1.472 . S
C369 C368 1.396 . S
C369 C370 1.348 . S
C370 H333 0.929 . S
C370 C369 1.348 . S
C370 C371 1.443 . S
C371 H335 0.932 . S
C371 C366 1.388 . S
C371 C370 1.443 . S
C372 O373 1.160 . S
C372 O379 1.185 . S
O373 C372 1.160 . S
O374 Zn375 1.899 . S
O374 C382 1.284 . S
Zn375 O374 1.899 . S
Zn375 O376 2.032 . S
Zn375 O379 2.086 . S
Zn375 O384 1.977 . S
O376 Zn375 2.032 . S
O376 C380 1.278 . S
C377 O378 1.203 . S
C377 O384 1.267 . S
O378 C377 1.203 . S
O379 C372 1.185 . S
O379 Zn375 2.086 . S
C380 O376 1.278 . S
C380 O381 1.211 . S
O381 C380 1.211 . S
C382 O374 1.284 . S
C382 O383 1.273 . S
O383 C382 1.273 . S
O384 Zn375 1.977 . S
O384 C377 1.267 . S
C385 O386 1.160 . S
C385 O392 1.185 . S
O386 C385 1.160 . S
O387 Zn388 1.899 . S
O387 C395 1.284 . S
Zn388 O387 1.899 . S
Zn388 O389 2.032 . S
Zn388 O392 2.086 . S
Zn388 O397 1.977 . S
O389 Zn388 2.032 . S
O389 C393 1.278 . S
C390 O391 1.203 . S
C390 O397 1.267 . S
O391 C390 1.203 . S
O392 C385 1.185 . S
O392 Zn388 2.086 . S
C393 O389 1.278 . S
C393 O394 1.211 . S
O394 C393 1.211 . S
C395 O387 1.284 . S
C395 O396 1.273 . S
O396 C395 1.273 . S
O397 Zn388 1.977 . S
O397 C390 1.267 . S
C398 O399 1.160 . S
C398 O405 1.185 . S
O399 C398 1.160 . S
O400 Zn401 1.899 . S
O400 C408 1.284 . S
Zn401 O400 1.899 . S
Zn401 O402 2.032 . S
Zn401 O405 2.086 . S
Zn401 O410 1.977 . S
O402 Zn401 2.032 . S
O402 C406 1.278 . S
C403 O404 1.203 . S
C403 O410 1.267 . S
O404 C403 1.203 . S
O405 C398 1.185 . S
O405 Zn401 2.086 . S
C406 O402 1.278 . S
C406 O407 1.211 . S
O407 C406 1.211 . S
C408 O400 1.284 . S
C408 O409 1.273 . S
O409 C408 1.273 . S
O410 Zn401 1.977 . S
O410 C403 1.267 . S
C411 O412 1.160 . S
C411 O418 1.185 . S
O412 C411 1.160 . S
O413 Zn414 1.899 . S
O413 C421 1.284 . S
Zn414 O413 1.899 . S
Zn414 O415 2.032 . S
Zn414 O418 2.086 . S
Zn414 O423 1.977 . S
O415 Zn414 2.032 . S
O415 C419 1.278 . S
C416 O417 1.203 . S
C416 O423 1.267 . S
O417 C416 1.203 . S
O418 C411 1.185 . S
O418 Zn414 2.086 . S
C419 O415 1.278 . S
C419 O420 1.211 . S
O420 C419 1.211 . S
C421 O413 1.284 . S
C421 O422 1.273 . S
O422 C421 1.273 . S
O423 Zn414 1.977 . S
O423 C416 1.267 . S
C424 O425 1.160 . S
C424 O431 1.185 . S
O425 C424 1.160 . S
O426 Zn427 1.899 . S
O426 C434 1.284 . S
Zn427 O426 1.899 . S
Zn427 O428 2.032 . S
Zn427 O431 2.086 . S
Zn427 O436 1.977 . S
O428 Zn427 2.032 . S
O428 C432 1.278 . S
C429 O430 1.203 . S
C429 O436 1.267 . S
O430 C429 1.203 . S
O431 C424 1.185 . S
O431 Zn427 2.086 . S
C432 O428 1.278 . S
C432 O433 1.211 . S
O433 C432 1.211 . S
C434 O426 1.284 . S
C434 O435 1.273 . S
O435 C434 1.273 . S
O436 Zn427 1.977 . S
O436 C429 1.267 . S
C437 O438 1.160 . S
C437 O444 1.185 . S
O438 C437 1.160 . S
O439 Zn440 1.899 . S
O439 C447 1.284 . S
Zn440 O439 1.899 . S
Zn440 O441 2.032 . S
Zn440 O444 2.086 . S
Zn440 O449 1.977 . S
O441 Zn440 2.032 . S
O441 C445 1.278 . S
C442 O443 1.203 . S
C442 O449 1.267 . S
O443 C442 1.203 . S
O444 C437 1.185 . S
O444 Zn440 2.086 . S
C445 O441 1.278 . S
C445 O446 1.211 . S
O446 C445 1.211 . S
C447 O439 1.284 . S
C447 O448 1.273 . S
O448 C447 1.273 . S
O449 Zn440 1.977 . S
O449 C442 1.267 . S
C450 C451 1.369 . S
C450 C452 1.419 . S
C450 H454 0.930 . S
C451 C450 1.369 . S
C451 C460 1.429 . S
C452 C450 1.419 . S
C452 C453 1.363 . S
C452 H455 0.929 . S
C453 C452 1.363 . S
C453 C459 1.428 . S
H454 C450 0.930 . S
H455 C452 0.929 . S
S456 N457 1.613 . S
S456 N458 1.610 . S
N457 S456 1.613 . S
N457 C460 1.350 . S
N458 S456 1.610 . S
N458 C459 1.351 . S
C459 C453 1.428 . S
C459 N458 1.351 . S
C459 C460 1.434 . S
C460 C451 1.429 . S
C460 N457 1.350 . S
C460 C459 1.434 . S
C461 C462 1.369 . S
C461 C463 1.419 . S
C461 H465 0.930 . S
C462 C461 1.369 . S
C462 C471 1.429 . S
C463 C461 1.419 . S
C463 C464 1.363 . S
C463 H466 0.929 . S
C464 C463 1.363 . S
C464 C470 1.428 . S
H465 C461 0.930 . S
H466 C463 0.929 . S
S467 N468 1.613 . S
S467 N469 1.610 . S
N468 S467 1.613 . S
N468 C471 1.350 . S
N469 S467 1.610 . S
N469 C470 1.351 . S
C470 C464 1.428 . S
C470 N469 1.351 . S
C470 C471 1.434 . S
C471 C462 1.429 . S
C471 N468 1.350 . S
C471 C470 1.434 . S
C472 C473 1.369 . S
C472 C474 1.419 . S
C472 H476 0.930 . S
C473 C472 1.369 . S
C473 C482 1.429 . S
C474 C472 1.419 . S
C474 C475 1.363 . S
C474 H477 0.929 . S
C475 C474 1.363 . S
C475 C481 1.428 . S
H476 C472 0.930 . S
H477 C474 0.929 . S
S478 N479 1.613 . S
S478 N480 1.610 . S
N479 S478 1.613 . S
N479 C482 1.350 . S
N480 S478 1.610 . S
N480 C481 1.351 . S
C481 C475 1.428 . S
C481 N480 1.351 . S
C481 C482 1.434 . S
C482 C473 1.429 . S
C482 N479 1.350 . S
C482 C481 1.434 . S
C483 C484 1.369 . S
C483 C485 1.419 . S
C483 H487 0.930 . S
C484 C483 1.369 . S
C484 C493 1.429 . S
C485 C483 1.419 . S
C485 C486 1.363 . S
C485 H488 0.929 . S
C486 C485 1.363 . S
C486 C492 1.428 . S
H487 C483 0.930 . S
H488 C485 0.929 . S
S489 N490 1.613 . S
S489 N491 1.610 . S
N490 S489 1.613 . S
N490 C493 1.350 . S
N491 S489 1.610 . S
N491 C492 1.351 . S
C492 C486 1.428 . S
C492 N491 1.351 . S
C492 C493 1.434 . S
C493 C484 1.429 . S
C493 N490 1.350 . S
C493 C492 1.434 . S
C494 C495 1.369 . S
C494 C496 1.419 . S
C494 H498 0.930 . S
C495 C494 1.369 . S
C495 C504 1.429 . S
C496 C494 1.419 . S
C496 C497 1.363 . S
C496 H499 0.929 . S
C497 C496 1.363 . S
C497 C503 1.428 . S
H498 C494 0.930 . S
H499 C496 0.929 . S
S500 N501 1.613 . S
S500 N502 1.610 . S
N501 S500 1.613 . S
N501 C504 1.350 . S
N502 S500 1.610 . S
N502 C503 1.351 . S
C503 C497 1.428 . S
C503 N502 1.351 . S
C503 C504 1.434 . S
C504 C495 1.429 . S
C504 N501 1.350 . S
C504 C503 1.434 . S
C505 C506 1.369 . S
C505 C507 1.419 . S
C505 H509 0.930 . S
C506 C505 1.369 . S
C506 C515 1.429 . S
C507 C505 1.419 . S
C507 C508 1.363 . S
C507 H510 0.929 . S
C508 C507 1.363 . S
C508 C514 1.428 . S
H509 C505 0.930 . S
H510 C507 0.929 . S
S511 N512 1.613 . S
S511 N513 1.610 . S
N512 S511 1.613 . S
N512 C515 1.350 . S
N513 S511 1.610 . S
N513 C514 1.351 . S
C514 C508 1.428 . S
C514 N513 1.351 . S
C514 C515 1.434 . S
C515 C506 1.429 . S
C515 N512 1.350 . S
C515 C514 1.434 . S
C516 C517 1.369 . S
C516 C518 1.419 . S
C516 H520 0.930 . S
C517 C516 1.369 . S
C517 C526 1.429 . S
C518 C516 1.419 . S
C518 C519 1.363 . S
C518 H521 0.929 . S
C519 C518 1.363 . S
C519 C525 1.428 . S
H520 C516 0.930 . S
H521 C518 0.929 . S
S522 N523 1.613 . S
S522 N524 1.610 . S
N523 S522 1.613 . S
N523 C526 1.350 . S
N524 S522 1.610 . S
N524 C525 1.351 . S
C525 C519 1.428 . S
C525 N524 1.351 . S
C525 C526 1.434 . S
C526 C517 1.429 . S
C526 N523 1.350 . S
C526 C525 1.434 . S
C527 C528 1.369 . S
C527 C529 1.419 . S
C527 H531 0.930 . S
C528 C527 1.369 . S
C528 C537 1.429 . S
C529 C527 1.419 . S
C529 C530 1.363 . S
C529 H532 0.929 . S
C530 C529 1.363 . S
C530 C536 1.428 . S
H531 C527 0.930 . S
H532 C529 0.929 . S
S533 N534 1.613 . S
S533 N535 1.610 . S
N534 S533 1.613 . S
N534 C537 1.350 . S
N535 S533 1.610 . S
N535 C536 1.351 . S
C536 C530 1.428 . S
C536 N535 1.351 . S
C536 C537 1.434 . S
C537 C528 1.429 . S
C537 N534 1.350 . S
C537 C536 1.434 . S
C538 C539 1.369 . S
C538 C540 1.419 . S
C538 H542 0.930 . S
C539 C538 1.369 . S
C539 C548 1.429 . S
C540 C538 1.419 . S
C540 C541 1.363 . S
C540 H543 0.929 . S
C541 C540 1.363 . S
C541 C547 1.428 . S
H542 C538 0.930 . S
H543 C540 0.929 . S
S544 N545 1.613 . S
S544 N546 1.610 . S
N545 S544 1.613 . S
N545 C548 1.350 . S
N546 S544 1.610 . S
N546 C547 1.351 . S
C547 C541 1.428 . S
C547 N546 1.351 . S
C547 C548 1.434 . S
C548 C539 1.429 . S
C548 N545 1.350 . S
C548 C547 1.434 . S
C549 C550 1.369 . S
C549 C551 1.419 . S
C549 H553 0.930 . S
C550 C549 1.369 . S
C550 C559 1.429 . S
C551 C549 1.419 . S
C551 C552 1.363 . S
C551 H554 0.929 . S
C552 C551 1.363 . S
C552 C558 1.428 . S
H553 C549 0.930 . S
H554 C551 0.929 . S
S555 N556 1.613 . S
S555 N557 1.610 . S
N556 S555 1.613 . S
N556 C559 1.350 . S
N557 S555 1.610 . S
N557 C558 1.351 . S
C558 C552 1.428 . S
C558 N557 1.351 . S
C558 C559 1.434 . S
C559 C550 1.429 . S
C559 N556 1.350 . S
C559 C558 1.434 . S
C560 C561 1.369 . S
C560 C562 1.419 . S
C560 H564 0.930 . S
C561 C560 1.369 . S
C561 C570 1.429 . S
C562 C560 1.419 . S
C562 C563 1.363 . S
C562 H565 0.929 . S
C563 C562 1.363 . S
C563 C569 1.428 . S
H564 C560 0.930 . S
H565 C562 0.929 . S
S566 N567 1.613 . S
S566 N568 1.610 . S
N567 S566 1.613 . S
N567 C570 1.350 . S
N568 S566 1.610 . S
N568 C569 1.351 . S
C569 C563 1.428 . S
C569 N568 1.351 . S
C569 C570 1.434 . S
C570 C561 1.429 . S
C570 N567 1.350 . S
C570 C569 1.434 . S
C571 C572 1.369 . S
C571 C573 1.419 . S
C571 H575 0.930 . S
C572 C571 1.369 . S
C572 C581 1.429 . S
C573 C571 1.419 . S
C573 C574 1.363 . S
C573 H576 0.929 . S
C574 C573 1.363 . S
C574 C580 1.428 . S
H575 C571 0.930 . S
H576 C573 0.929 . S
S577 N578 1.613 . S
S577 N579 1.610 . S
N578 S577 1.613 . S
N578 C581 1.350 . S
N579 S577 1.610 . S
N579 C580 1.351 . S
C580 C574 1.428 . S
C580 N579 1.351 . S
C580 C581 1.434 . S
C581 C572 1.429 . S
C581 N578 1.350 . S
C581 C580 1.434 . S
C582 C583 1.369 . S
C582 C584 1.419 . S
C582 H586 0.930 . S
C583 C582 1.369 . S
C583 C592 1.429 . S
C584 C582 1.419 . S
C584 C585 1.363 . S
C584 H587 0.929 . S
C585 C584 1.363 . S
C585 C591 1.428 . S
H586 C582 0.930 . S
H587 C584 0.929 . S
S588 N589 1.613 . S
S588 N590 1.610 . S
N589 S588 1.613 . S
N589 C592 1.350 . S
N590 S588 1.610 . S
N590 C591 1.351 . S
C591 C585 1.428 . S
C591 N590 1.351 . S
C591 C592 1.434 . S
C592 C583 1.429 . S
C592 N589 1.350 . S
C592 C591 1.434 . S
C593 C594 1.369 . S
C593 C595 1.419 . S
C593 H597 0.930 . S
C594 C593 1.369 . S
C594 C603 1.429 . S
C595 C593 1.419 . S
C595 C596 1.363 . S
C595 H598 0.929 . S
C596 C595 1.363 . S
C596 C602 1.428 . S
H597 C593 0.930 . S
H598 C595 0.929 . S
S599 N600 1.613 . S
S599 N601 1.610 . S
N600 S599 1.613 . S
N600 C603 1.350 . S
N601 S599 1.610 . S
N601 C602 1.351 . S
C602 C596 1.428 . S
C602 N601 1.351 . S
C602 C603 1.434 . S
C603 C594 1.429 . S
C603 N600 1.350 . S
C603 C602 1.434 . S
C604 C605 1.369 . S
C604 C606 1.419 . S
C604 H608 0.930 . S
C605 C604 1.369 . S
C605 C614 1.429 . S
C606 C604 1.419 . S
C606 C607 1.363 . S
C606 H609 0.929 . S
C607 C606 1.363 . S
C607 C613 1.428 . S
H608 C604 0.930 . S
H609 C606 0.929 . S
S610 N611 1.613 . S
S610 N612 1.610 . S
N611 S610 1.613 . S
N611 C614 1.350 . S
N612 S610 1.610 . S
N612 C613 1.351 . S
C613 C607 1.428 . S
C613 N612 1.351 . S
C613 C614 1.434 . S
C614 C605 1.429 . S
C614 N611 1.350 . S
C614 C613 1.434 . S
C615 C616 1.369 . S
C615 C617 1.419 . S
C615 H619 0.930 . S
C616 C615 1.369 . S
C616 C625 1.429 . S
C617 C615 1.419 . S
C617 C618 1.363 . S
C617 H620 0.929 . S
C618 C617 1.363 . S
C618 C624 1.428 . S
H619 C615 0.930 . S
H620 C617 0.929 . S
S621 N622 1.613 . S
S621 N623 1.610 . S
N622 S621 1.613 . S
N622 C625 1.350 . S
N623 S621 1.610 . S
N623 C624 1.351 . S
C624 C618 1.428 . S
C624 N623 1.351 . S
C624 C625 1.434 . S
C625 C616 1.429 . S
C625 N622 1.350 . S
C625 C624 1.434 . S
C626 C627 1.369 . S
C626 C628 1.419 . S
C626 H630 0.930 . S
C627 C626 1.369 . S
C627 C636 1.429 . S
C628 C626 1.419 . S
C628 C629 1.363 . S
C628 H631 0.929 . S
C629 C628 1.363 . S
C629 C635 1.428 . S
H630 C626 0.930 . S
H631 C628 0.929 . S
S632 N633 1.613 . S
S632 N634 1.610 . S
N633 S632 1.613 . S
N633 C636 1.350 . S
N634 S632 1.610 . S
N634 C635 1.351 . S
C635 C629 1.428 . S
C635 N634 1.351 . S
C635 C636 1.434 . S
C636 C627 1.429 . S
C636 N633 1.350 . S
C636 C635 1.434 . S
C637 C638 1.369 . S
C637 C639 1.419 . S
C637 H641 0.930 . S
C638 C637 1.369 . S
C638 C647 1.429 . S
C639 C637 1.419 . S
C639 C640 1.363 . S
C639 H642 0.929 . S
C640 C639 1.363 . S
C640 C646 1.428 . S
H641 C637 0.930 . S
H642 C639 0.929 . S
S643 N644 1.613 . S
S643 N645 1.610 . S
N644 S643 1.613 . S
N644 C647 1.350 . S
N645 S643 1.610 . S
N645 C646 1.351 . S
C646 C640 1.428 . S
C646 N645 1.351 . S
C646 C647 1.434 . S
C647 C638 1.429 . S
C647 N644 1.350 . S
C647 C646 1.434 . S
C648 C649 1.369 . S
C648 C650 1.419 . S
C648 H652 0.930 . S
C649 C648 1.369 . S
C649 C658 1.429 . S
C650 C648 1.419 . S
C650 C651 1.363 . S
C650 H653 0.929 . S
C651 C650 1.363 . S
C651 C657 1.428 . S
H652 C648 0.930 . S
H653 C650 0.929 . S
S654 N655 1.613 . S
S654 N656 1.610 . S
N655 S654 1.613 . S
N655 C658 1.350 . S
N656 S654 1.610 . S
N656 C657 1.351 . S
C657 C651 1.428 . S
C657 N656 1.351 . S
C657 C658 1.434 . S
C658 C649 1.429 . S
C658 N655 1.350 . S
C658 C657 1.434 . S
C659 C660 1.369 . S
C659 C661 1.419 . S
C659 H663 0.930 . S
C660 C659 1.369 . S
C660 C669 1.429 . S
C661 C659 1.419 . S
C661 C662 1.363 . S
C661 H664 0.929 . S
C662 C661 1.363 . S
C662 C668 1.428 . S
H663 C659 0.930 . S
H664 C661 0.929 . S
S665 N666 1.613 . S
S665 N667 1.610 . S
N666 S665 1.613 . S
N666 C669 1.350 . S
N667 S665 1.610 . S
N667 C668 1.351 . S
C668 C662 1.428 . S
C668 N667 1.351 . S
C668 C669 1.434 . S
C669 C660 1.429 . S
C669 N666 1.350 . S
C669 C668 1.434 . S
C670 C671 1.369 . S
C670 C672 1.419 . S
C670 H674 0.930 . S
C671 C670 1.369 . S
C671 C680 1.429 . S
C672 C670 1.419 . S
C672 C673 1.363 . S
C672 H675 0.929 . S
C673 C672 1.363 . S
C673 C679 1.428 . S
H674 C670 0.930 . S
H675 C672 0.929 . S
S676 N677 1.613 . S
S676 N678 1.610 . S
N677 S676 1.613 . S
N677 C680 1.350 . S
N678 S676 1.610 . S
N678 C679 1.351 . S
C679 C673 1.428 . S
C679 N678 1.351 . S
C679 C680 1.434 . S
C680 C671 1.429 . S
C680 N677 1.350 . S
C680 C679 1.434 . S
C681 C682 1.369 . S
C681 C683 1.419 . S
C681 H685 0.930 . S
C682 C681 1.369 . S
C682 C691 1.429 . S
C683 C681 1.419 . S
C683 C684 1.363 . S
C683 H686 0.929 . S
C684 C683 1.363 . S
C684 C690 1.428 . S
H685 C681 0.930 . S
H686 C683 0.929 . S
S687 N688 1.613 . S
S687 N689 1.610 . S
N688 S687 1.613 . S
N688 C691 1.350 . S
N689 S687 1.610 . S
N689 C690 1.351 . S
C690 C684 1.428 . S
C690 N689 1.351 . S
C690 C691 1.434 . S
C691 C682 1.429 . S
C691 N688 1.350 . S
C691 C690 1.434 . S
C692 C693 1.369 . S
C692 C694 1.419 . S
C692 H696 0.930 . S
C693 C692 1.369 . S
C693 C702 1.429 . S
C694 C692 1.419 . S
C694 C695 1.363 . S
C694 H697 0.929 . S
C695 C694 1.363 . S
C695 C701 1.428 . S
H696 C692 0.930 . S
H697 C694 0.929 . S
S698 N699 1.613 1_556 S
S698 N700 1.610 . S
N699 S698 1.613 1_554 S
N699 C702 1.350 1_554 S
N700 S698 1.610 . S
N700 C701 1.351 . S
C701 C695 1.428 . S
C701 N700 1.351 . S
C701 C702 1.434 . S
C702 C693 1.429 . S
C702 N699 1.350 1_556 S
C702 C701 1.434 . S
C703 C704 1.369 . S
C703 C705 1.419 . S
C703 H707 0.930 . S
C704 C703 1.369 . S
C704 C713 1.429 . S
C705 C703 1.419 . S
C705 C706 1.363 . S
C705 H708 0.929 . S
C706 C705 1.363 . S
C706 C712 1.428 . S
H707 C703 0.930 . S
H708 C705 0.929 . S
S709 N710 1.613 . S
S709 N711 1.610 . S
N710 S709 1.613 . S
N710 C713 1.350 . S
N711 S709 1.610 . S
N711 C712 1.351 . S
C712 C706 1.428 . S
C712 N711 1.351 . S
C712 C713 1.434 . S
C713 C704 1.429 . S
C713 N710 1.350 . S
C713 C712 1.434 . S
C453 C447 1.703 . S
C451 C29 1.616 . S
C462 C115 1.618 . S
C464 C372 1.516 . S
C473 C153 1.611 . S
C475 C395 1.714 . S
C484 C239 1.479 . S
C486 C408 1.491 . S
C497 C411 1.575 . S
C495 C301 1.671 . S
C506 C339 1.740 . S
C508 C424 1.763 . S
C517 C91 1.515 . S
C519 C385 1.541 . S
C528 C177 1.658 . S
C530 C398 1.549 . S
C539 C215 1.460 . S
C541 C421 1.549 . S
C552 C434 1.976 . S
C550 C277 1.854 . S
C563 C437 1.549 . S
C561 C363 1.634 . S
C574 C382 1.646 . S
C572 C53 1.626 . S
C583 C35 1.562 . S
C585 C393 1.552 . S
C594 C109 1.365 . S
C596 C406 1.425 . S
C607 C416 1.435 . S
C605 C159 1.465 . S
C616 C233 1.570 . S
C618 C429 1.660 1_556 S
C629 C445 1.509 . S
C627 C295 1.419 . S
C640 C377 1.329 . S
C638 C345 1.370 . S
C651 C442 1.406 . S
C649 C97 1.423 . S
C660 C171 1.382 . S
C662 C380 1.471 . S
C673 C390 1.519 . S
C671 C221 1.546 . S
C682 C283 1.404 . S
C684 C403 1.360 . S
C693 C357 1.371 1_556 S
C695 C419 1.467 . S
C704 C47 1.582 . S
C706 C432 1.677 . S
