# Generated by pormake.
# Topology wbl, (4,4)-cn, num edge types: 1
# Building blocks:
#     Node 0, Type 0, BuildingBlock: MIFKUJ_clean_linker_1, # of connection points: 4
#     Node 1, Type 0, BuildingBlock: MIFKUJ_clean_linker_1, # of connection points: 4
#     Node 2, Type 0, BuildingBlock: MIFKUJ_clean_linker_1, # of connection points: 4
#     Node 3, Type 0, BuildingBlock: MIFKUJ_clean_linker_1, # of connection points: 4
#     Node 4, Type 0, BuildingBlock: MIFKUJ_clean_linker_1, # of connection points: 4
#     Node 5, Type 0, BuildingBlock: MIFKUJ_clean_linker_1, # of connection points: 4
#     Node 6, Type 0, BuildingBlock: MIFKUJ_clean_linker_1, # of connection points: 4
#     Node 7, Type 0, BuildingBlock: MIFKUJ_clean_linker_1, # of connection points: 4
#     Node 8, Type 1, BuildingBlock: GALJAG_clean_sbu_0, # of connection points: 4
#     Node 9, Type 1, BuildingBlock: GALJAG_clean_sbu_0, # of connection points: 4
#     Node 10, Type 1, BuildingBlock: GALJAG_clean_sbu_0, # of connection points: 4
#     Node 11, Type 1, BuildingBlock: GALJAG_clean_sbu_0, # of connection points: 4
#     Node 12, Type 1, BuildingBlock: GALJAG_clean_sbu_0, # of connection points: 4
#     Node 13, Type 1, BuildingBlock: GALJAG_clean_sbu_0, # of connection points: 4
#     Node 14, Type 1, BuildingBlock: GALJAG_clean_sbu_0, # of connection points: 4
#     Node 15, Type 1, BuildingBlock: GALJAG_clean_sbu_0, # of connection points: 4
#     Edge 16, Type (0, 1), BuildingBlock: EZIPEK_clean_linker_0, # of connection points: 2
#     Edge 17, Type (0, 1), BuildingBlock: EZIPEK_clean_linker_0, # of connection points: 2
#     Edge 18, Type (0, 1), BuildingBlock: EZIPEK_clean_linker_0, # of connection points: 2
#     Edge 19, Type (0, 1), BuildingBlock: EZIPEK_clean_linker_0, # of connection points: 2
#     Edge 20, Type (0, 1), BuildingBlock: EZIPEK_clean_linker_0, # of connection points: 2
#     Edge 21, Type (0, 1), BuildingBlock: EZIPEK_clean_linker_0, # of connection points: 2
#     Edge 22, Type (0, 1), BuildingBlock: EZIPEK_clean_linker_0, # of connection points: 2
#     Edge 23, Type (0, 1), BuildingBlock: EZIPEK_clean_linker_0, # of connection points: 2
#     Edge 24, Type (0, 1), BuildingBlock: EZIPEK_clean_linker_0, # of connection points: 2
#     Edge 25, Type (0, 1), BuildingBlock: EZIPEK_clean_linker_0, # of connection points: 2
#     Edge 26, Type (0, 1), BuildingBlock: EZIPEK_clean_linker_0, # of connection points: 2
#     Edge 27, Type (0, 1), BuildingBlock: EZIPEK_clean_linker_0, # of connection points: 2
#     Edge 28, Type (0, 1), BuildingBlock: EZIPEK_clean_linker_0, # of connection points: 2
#     Edge 29, Type (0, 1), BuildingBlock: EZIPEK_clean_linker_0, # of connection points: 2
#     Edge 30, Type (0, 1), BuildingBlock: EZIPEK_clean_linker_0, # of connection points: 2
#     Edge 31, Type (0, 1), BuildingBlock: EZIPEK_clean_linker_0, # of connection points: 2
#     Edge 32, Type (0, 1), BuildingBlock: EZIPEK_clean_linker_0, # of connection points: 2
#     Edge 33, Type (0, 1), BuildingBlock: EZIPEK_clean_linker_0, # of connection points: 2
#     Edge 34, Type (0, 1), BuildingBlock: EZIPEK_clean_linker_0, # of connection points: 2
#     Edge 35, Type (0, 1), BuildingBlock: EZIPEK_clean_linker_0, # of connection points: 2
#     Edge 36, Type (0, 1), BuildingBlock: EZIPEK_clean_linker_0, # of connection points: 2
#     Edge 37, Type (0, 1), BuildingBlock: EZIPEK_clean_linker_0, # of connection points: 2
#     Edge 38, Type (0, 1), BuildingBlock: EZIPEK_clean_linker_0, # of connection points: 2
#     Edge 39, Type (0, 1), BuildingBlock: EZIPEK_clean_linker_0, # of connection points: 2
#     Edge 40, Type (0, 1), BuildingBlock: EZIPEK_clean_linker_0, # of connection points: 2
#     Edge 41, Type (0, 1), BuildingBlock: EZIPEK_clean_linker_0, # of connection points: 2
#     Edge 42, Type (0, 1), BuildingBlock: EZIPEK_clean_linker_0, # of connection points: 2
#     Edge 43, Type (0, 1), BuildingBlock: EZIPEK_clean_linker_0, # of connection points: 2
#     Edge 44, Type (0, 1), BuildingBlock: EZIPEK_clean_linker_0, # of connection points: 2
#     Edge 45, Type (0, 1), BuildingBlock: EZIPEK_clean_linker_0, # of connection points: 2
#     Edge 46, Type (0, 1), BuildingBlock: EZIPEK_clean_linker_0, # of connection points: 2
#     Edge 47, Type (0, 1), BuildingBlock: EZIPEK_clean_linker_0, # of connection points: 2
# Relax obj value: 0.140
# Max RMSD: 0.144
# Mean RMSD: 0.131
data_MOF--net-wbl--node1-GALJAG_clean_sbu_0--node2-MIFKUJ_clean_linker_1--edge1-EZIPEK_clean_linker_0
_symmetry_space_group_name_H-M    P1
_symmetry_Int_Tables_number       1
_symmetry_cell_setting            triclinic
loop_
_symmetry_equiv_pos_as_xyz
'x, y, z'
_cell_length_a     34.816289
_cell_length_b     34.917683
_cell_length_c     63.815582
_cell_angle_alpha  90.123559
_cell_angle_beta   90.054251
_cell_angle_gamma 89.987856
loop_
_atom_site_label
_atom_site_type_symbol
_atom_site_fract_x
_atom_site_fract_y
_atom_site_fract_z
_atom_type_partial_charge
H0 H 0.01035 0.08513 0.38017 0.0
H1 H 0.97281 0.12344 0.40492 0.0
H2 H 0.86804 0.0836 0.37614 0.0
H3 H 0.90544 0.04341 0.35209 0.0
H4 H 0.00939 0.01119 0.38066 0.0
H5 H 0.98097 0.10527 0.32577 0.0
H6 H 0.93333 0.14462 0.30715 0.0
H7 H 0.8737 0.04227 0.28772 0.0
H8 H 0.92141 0.00293 0.3061 0.0
H9 H 0.00773 0.91689 0.30539 0.0
H10 H 0.05134 0.87176 0.28752 0.0
H11 H 0.14866 0.92863 0.31553 0.0
H12 H 0.10546 0.97348 0.3333 0.0
H13 H 0.00089 0.99545 0.30355 0.0
H14 H 0.02376 0.90192 0.35655 0.0
H15 H 0.05535 0.8597 0.38212 0.0
H16 H 0.11683 0.95644 0.40748 0.0
H17 H 0.08534 0.99871 0.38203 0.0
C18 C 0.96084 0.06124 0.36423 0.0
C19 C 0.97931 0.08498 0.37894 0.0
C20 C 0.95795 0.10698 0.393 0.0
C21 C 0.91771 0.10606 0.39245 0.0
C22 C 0.89911 0.08461 0.37679 0.0
C23 C 0.92051 0.0619 0.36297 0.0
C24 C 0.98375 0.03261 0.35228 0.0
C25 C 0.00814 0.00846 0.36372 0.0
C26 C 0.98056 0.02741 0.33032 0.0
C27 C 0.95444 0.05123 0.31746 0.0
C28 C 0.95789 0.09132 0.31729 0.0
C29 C 0.93089 0.11371 0.30667 0.0
C30 C 0.89996 0.09625 0.29623 0.0
C31 C 0.89738 0.05617 0.29572 0.0
C32 C 0.92456 0.0338 0.30615 0.0
C33 C 0.05337 0.94836 0.32077 0.0
C34 C 0.03846 0.91966 0.30761 0.0
C35 C 0.0632 0.89392 0.29751 0.0
C36 C 0.1031 0.89703 0.30025 0.0
C37 C 0.11793 0.92583 0.31328 0.0
C38 C 0.09331 0.95131 0.32342 0.0
C39 C 0.02762 0.97532 0.33196 0.0
C40 C 0.00254 0.99877 0.32043 0.0
C41 C 0.02971 0.97971 0.35394 0.0
C42 C 0.05229 0.95344 0.36739 0.0
C43 C 0.04467 0.91391 0.3673 0.0
C44 C 0.06251 0.88988 0.38187 0.0
C45 C 0.08829 0.90513 0.39658 0.0
C46 C 0.09707 0.94429 0.39615 0.0
C47 C 0.07909 0.96832 0.38171 0.0
H48 H 0.00984 0.41759 0.55522 0.0
H49 H 0.96875 0.37074 0.53726 0.0
H50 H 0.86811 0.42595 0.56253 0.0
H51 H 0.90914 0.47319 0.58039 0.0
H52 H 0.0164 0.49606 0.5541 0.0
H53 H 0.98109 0.39921 0.60899 0.0
H54 H 0.94165 0.36512 0.635 0.0
H55 H 0.88772 0.47167 0.6525 0.0
H56 H 0.9273 0.5057 0.6268 0.0
H57 H 0.05102 0.59984 0.60366 0.0
H58 H 0.0888 0.63767 0.62887 0.0
H59 H 0.12116 0.53398 0.66098 0.0
H60 H 0.08514 0.49613 0.63536 0.0
H61 H 0.00954 0.50102 0.63164 0.0
H62 H 0.01912 0.57268 0.55277 0.0
H63 H 0.05885 0.62184 0.53621 0.0
H64 H 0.15875 0.57843 0.56829 0.0
H65 H 0.11909 0.52837 0.58465 0.0
C66 C 0.96258 0.44855 0.56936 0.0
C67 C 0.97893 0.42001 0.55666 0.0
C68 C 0.95558 0.39333 0.54644 0.0
C69 C 0.91555 0.39495 0.54869 0.0
C70 C 0.899 0.42435 0.56068 0.0
C71 C 0.92238 0.45104 0.57093 0.0
C72 C 0.98779 0.47449 0.5816 0.0
C73 C 0.01511 0.49704 0.57108 0.0
C74 C 0.98542 0.47672 0.60365 0.0
C75 C 0.95705 0.45491 0.61606 0.0
C76 C 0.96006 0.41499 0.61806 0.0
C77 C 0.93769 0.39563 0.63285 0.0
C78 C 0.91202 0.41603 0.64566 0.0
C79 C 0.90737 0.45554 0.64272 0.0
C80 C 0.9299 0.47488 0.62811 0.0
C81 C 0.06537 0.54508 0.61755 0.0
C82 C 0.06716 0.58516 0.61572 0.0
C83 C 0.08848 0.60674 0.63015 0.0
C84 C 0.10739 0.58856 0.64688 0.0
C85 C 0.10669 0.54851 0.64823 0.0
C86 C 0.08605 0.52698 0.63365 0.0
C87 C 0.03905 0.52186 0.60432 0.0
C88 C 0.01124 0.49993 0.61466 0.0
C89 C 0.04045 0.52121 0.58214 0.0
C90 C 0.06601 0.54715 0.57017 0.0
C91 C 0.04972 0.57302 0.55588 0.0
C92 C 0.07231 0.60107 0.54644 0.0
C93 C 0.11159 0.60363 0.55107 0.0
C94 C 0.12848 0.57666 0.5645 0.0
C95 C 0.10583 0.54837 0.5739 0.0
H96 H 0.51115 0.58179 0.88312 0.0
H97 H 0.47232 0.61838 0.90806 0.0
H98 H 0.36912 0.58151 0.87652 0.0
H99 H 0.40784 0.54323 0.85207 0.0
H100 H 0.50984 0.5074 0.88091 0.0
H101 H 0.48453 0.60926 0.83019 0.0
H102 H 0.43781 0.65112 0.81253 0.0
H103 H 0.38145 0.5519 0.78645 0.0
H104 H 0.42806 0.51007 0.80399 0.0
H105 H 0.51463 0.4259 0.80119 0.0
H106 H 0.55961 0.38382 0.78218 0.0
H107 H 0.65452 0.43472 0.81557 0.0
H108 H 0.60999 0.47679 0.83437 0.0
H109 H 0.50726 0.50327 0.80326 0.0
H110 H 0.5318 0.40177 0.85168 0.0
H111 H 0.56374 0.35715 0.87587 0.0
H112 H 0.61481 0.45258 0.90857 0.0
H113 H 0.58368 0.49713 0.88429 0.0
C114 C 0.46251 0.55968 0.86568 0.0
C115 C 0.48019 0.58186 0.88136 0.0
C116 C 0.45811 0.60285 0.89554 0.0
C117 C 0.41793 0.60237 0.89419 0.0
C118 C 0.40015 0.58213 0.87779 0.0
C119 C 0.42227 0.56053 0.86377 0.0
C120 C 0.48615 0.53273 0.85305 0.0
C121 C 0.50989 0.5071 0.86391 0.0
C122 C 0.48468 0.53091 0.8309 0.0
C123 C 0.45942 0.55656 0.81858 0.0
C124 C 0.46237 0.59657 0.82048 0.0
C125 C 0.43593 0.6204 0.81039 0.0
C126 C 0.40617 0.60446 0.79835 0.0
C127 C 0.40425 0.56461 0.7957 0.0
C128 C 0.4308 0.54083 0.80567 0.0
C129 C 0.55895 0.45419 0.81934 0.0
C130 C 0.54513 0.42809 0.80432 0.0
C131 C 0.57064 0.4041 0.79356 0.0
C132 C 0.61023 0.40631 0.79755 0.0
C133 C 0.62403 0.43265 0.81235 0.0
C134 C 0.59863 0.4565 0.8231 0.0
C135 C 0.53221 0.47914 0.83123 0.0
C136 C 0.50764 0.50401 0.82026 0.0
C137 C 0.53269 0.48021 0.85338 0.0
C138 C 0.55535 0.45283 0.86618 0.0
C139 C 0.55058 0.41307 0.86374 0.0
C140 C 0.56857 0.38764 0.87755 0.0
C141 C 0.59126 0.40175 0.89403 0.0
C142 C 0.59726 0.44129 0.89596 0.0
C143 C 0.57944 0.46663 0.88217 0.0
H144 H 0.4916 0.92403 0.05746 0.0
H145 H 0.45262 0.8743 0.04041 0.0
H146 H 0.34931 0.93013 0.06174 0.0
H147 H 0.38826 0.97999 0.07889 0.0
H148 H 0.49549 0.00375 0.05378 0.0
H149 H 0.46341 0.90954 0.10869 0.0
H150 H 0.4263 0.87305 0.13466 0.0
H151 H 0.36659 0.97618 0.15271 0.0
H152 H 0.40389 0.01271 0.12698 0.0
H153 H 0.49872 0.08701 0.13369 0.0
H154 H 0.5437 0.11783 0.15805 0.0
H155 H 0.63863 0.06226 0.1271 0.0
H156 H 0.59366 0.03092 0.10279 0.0
H157 H 0.48595 0.01365 0.13115 0.0
H158 H 0.51924 0.10934 0.08386 0.0
H159 H 0.56129 0.15332 0.06483 0.0
H160 H 0.61318 0.0579 0.03252 0.0
H161 H 0.57127 0.01341 0.05186 0.0
C162 C 0.44282 0.95548 0.06957 0.0
C163 C 0.46057 0.92592 0.05822 0.0
C164 C 0.43842 0.8976 0.04854 0.0
C165 C 0.39824 0.89869 0.0499 0.0
C166 C 0.38032 0.92899 0.06054 0.0
C167 C 0.4025 0.95721 0.07036 0.0
C168 C 0.46667 0.98319 0.08145 0.0
C169 C 0.49367 0.00575 0.07072 0.0
C170 C 0.4632 0.98705 0.1034 0.0
C171 C 0.43632 0.96376 0.11598 0.0
C172 C 0.44162 0.92406 0.11785 0.0
C173 C 0.42057 0.90331 0.13264 0.0
C174 C 0.39395 0.92208 0.14559 0.0
C175 C 0.38701 0.96131 0.14281 0.0
C176 C 0.40825 0.98207 0.12819 0.0
C177 C 0.54277 0.05666 0.1164 0.0
C178 C 0.52922 0.08181 0.13193 0.0
C179 C 0.55481 0.09943 0.14578 0.0
C180 C 0.59431 0.09209 0.14436 0.0
C181 C 0.60818 0.06823 0.12835 0.0
C182 C 0.58255 0.05056 0.11447 0.0
C183 C 0.51518 0.03399 0.10363 0.0
C184 C 0.48756 0.0122 0.11418 0.0
C185 C 0.51745 0.03172 0.08153 0.0
C186 C 0.54245 0.05804 0.06947 0.0
C187 C 0.53979 0.09773 0.0728 0.0
C188 C 0.56358 0.12282 0.0619 0.0
C189 C 0.59018 0.10872 0.04735 0.0
C190 C 0.59268 0.06914 0.04371 0.0
C191 C 0.56879 0.04391 0.05467 0.0
H192 H 0.99323 0.58798 0.87176 0.0
H193 H 0.03372 0.62301 0.84699 0.0
H194 H 0.13513 0.57848 0.87719 0.0
H195 H 0.09464 0.54205 0.90155 0.0
H196 H 0.99075 0.51278 0.87329 0.0
H197 H 0.02207 0.61314 0.92366 0.0
H198 H 0.07127 0.65277 0.9409 0.0
H199 H 0.12208 0.55133 0.96757 0.0
H200 H 0.07313 0.51165 0.95033 0.0
H201 H 0.9849 0.43256 0.95343 0.0
H202 H 0.93942 0.39165 0.97269 0.0
H203 H 0.84522 0.442 0.93857 0.0
H204 H 0.89022 0.4832 0.91962 0.0
H205 H 0.99437 0.50807 0.95091 0.0
H206 H 0.96743 0.40789 0.90165 0.0
H207 H 0.93569 0.36437 0.87668 0.0
H208 H 0.88448 0.4612 0.84552 0.0
H209 H 0.9157 0.50467 0.87048 0.0
C210 C 0.04084 0.56239 0.88854 0.0
C211 C 0.02417 0.58606 0.87325 0.0
C212 C 0.04719 0.60612 0.85918 0.0
C213 C 0.08728 0.60305 0.86022 0.0
C214 C 0.10418 0.5811 0.87618 0.0
C215 C 0.08108 0.56056 0.89013 0.0
C216 C 0.01592 0.53678 0.90116 0.0
C217 C 0.99091 0.51236 0.8903 0.0
C218 C 0.01764 0.53488 0.92329 0.0
C219 C 0.04426 0.55941 0.93552 0.0
C220 C 0.04356 0.59947 0.93339 0.0
C221 C 0.07144 0.62205 0.94324 0.0
C222 C 0.10029 0.60482 0.95535 0.0
C223 C 0.09999 0.56502 0.95826 0.0
C224 C 0.07207 0.54247 0.94847 0.0
C225 C 0.941 0.46059 0.9349 0.0
C226 C 0.95445 0.43493 0.95019 0.0
C227 C 0.92866 0.41161 0.96111 0.0
C228 C 0.88915 0.41393 0.95695 0.0
C229 C 0.87567 0.43985 0.94191 0.0
C230 C 0.90135 0.46314 0.93105 0.0
C231 C 0.96811 0.48498 0.92296 0.0
C232 C 0.99374 0.5089 0.93393 0.0
C233 C 0.96729 0.48627 0.90082 0.0
C234 C 0.94392 0.45955 0.88792 0.0
C235 C 0.94861 0.4197 0.88978 0.0
C236 C 0.93072 0.39492 0.87553 0.0
C237 C 0.90806 0.40976 0.85926 0.0
C238 C 0.90195 0.44935 0.85798 0.0
C239 C 0.91979 0.47407 0.87218 0.0
H240 H 0.49043 0.57591 0.19682 0.0
H241 H 0.45118 0.626 0.21336 0.0
H242 H 0.34824 0.57039 0.19127 0.0
H243 H 0.38744 0.52016 0.17466 0.0
H244 H 0.4942 0.4962 0.20067 0.0
H245 H 0.46336 0.58995 0.14525 0.0
H246 H 0.42706 0.62633 0.11884 0.0
H247 H 0.36734 0.52327 0.10065 0.0
H248 H 0.40381 0.48688 0.12682 0.0
H249 H 0.49687 0.412 0.12108 0.0
H250 H 0.54132 0.38079 0.09666 0.0
H251 H 0.63716 0.43431 0.12794 0.0
H252 H 0.59269 0.46627 0.15224 0.0
H253 H 0.48553 0.48521 0.1233 0.0
H254 H 0.51713 0.38982 0.17146 0.0
H255 H 0.55977 0.34594 0.19025 0.0
H256 H 0.61306 0.44161 0.22166 0.0
H257 H 0.57053 0.48598 0.20259 0.0
C258 C 0.44186 0.54452 0.18438 0.0
C259 C 0.45942 0.57414 0.19579 0.0
C260 C 0.43712 0.60268 0.20517 0.0
C261 C 0.39697 0.60174 0.20345 0.0
C262 C 0.37922 0.57141 0.19274 0.0
C263 C 0.40155 0.54297 0.18324 0.0
C264 C 0.46585 0.51659 0.17276 0.0
C265 C 0.49255 0.49395 0.18374 0.0
C266 C 0.46269 0.51246 0.1508 0.0
C267 C 0.43619 0.53578 0.13794 0.0
C268 C 0.44174 0.57543 0.13596 0.0
C269 C 0.42116 0.59611 0.12091 0.0
C270 C 0.39476 0.57732 0.1078 0.0
C271 C 0.38759 0.53816 0.11066 0.0
C272 C 0.40836 0.51748 0.12554 0.0
C273 C 0.54139 0.44153 0.13849 0.0
C274 C 0.52746 0.41667 0.12291 0.0
C275 C 0.55275 0.39881 0.10902 0.0
C276 C 0.59235 0.40555 0.11047 0.0
C277 C 0.60662 0.42886 0.12664 0.0
C278 C 0.58127 0.44687 0.14052 0.0
C279 C 0.51411 0.46489 0.15106 0.0
C280 C 0.48692 0.48689 0.14027 0.0
C281 C 0.51619 0.46752 0.17316 0.0
C282 C 0.54097 0.44123 0.18542 0.0
C283 C 0.53802 0.40149 0.18232 0.0
C284 C 0.56216 0.37646 0.19308 0.0
C285 C 0.58942 0.39066 0.20726 0.0
C286 C 0.59205 0.43027 0.21077 0.0
C287 C 0.5678 0.45544 0.19996 0.0
H288 H 0.51095 0.90209 0.37827 0.0
H289 H 0.47321 0.86573 0.3525 0.0
H290 H 0.37519 0.93791 0.36481 0.0
H291 H 0.41272 0.97361 0.39109 0.0
H292 H 0.51637 0.98782 0.37176 0.0
H293 H 0.47615 0.89084 0.42163 0.0
H294 H 0.42448 0.85445 0.43863 0.0
H295 H 0.37981 0.95898 0.46519 0.0
H296 H 0.43068 0.99558 0.44778 0.0
H297 H 0.51878 0.07326 0.45034 0.0
H298 H 0.56413 0.1152 0.4692 0.0
H299 H 0.65904 0.05809 0.43903 0.0
H300 H 0.61408 0.01633 0.42027 0.0
H301 H 0.50764 0.99634 0.44919 0.0
H302 H 0.53953 0.09399 0.40132 0.0
H303 H 0.57231 0.1379 0.37722 0.0
H304 H 0.621 0.04149 0.34433 0.0
H305 H 0.5893 0.99755 0.36869 0.0
C306 C 0.46449 0.94036 0.38655 0.0
C307 C 0.48105 0.90942 0.37579 0.0
C308 C 0.4596 0.88876 0.36114 0.0
C309 C 0.42157 0.89937 0.35669 0.0
C310 C 0.40448 0.92932 0.36808 0.0
C311 C 0.4258 0.94959 0.38303 0.0
C312 C 0.48907 0.96578 0.39936 0.0
C313 C 0.51516 0.9892 0.38874 0.0
C314 C 0.4856 0.96883 0.42136 0.0
C315 C 0.45689 0.94605 0.43314 0.0
C316 C 0.45526 0.90596 0.43109 0.0
C317 C 0.42609 0.88516 0.44092 0.0
C318 C 0.39853 0.90413 0.45314 0.0
C319 C 0.40101 0.94393 0.45587 0.0
C320 C 0.43 0.96473 0.44596 0.0
C321 C 0.56308 0.04192 0.43377 0.0
C322 C 0.54936 0.06959 0.44794 0.0
C323 C 0.57509 0.09349 0.45863 0.0
C324 C 0.61479 0.08957 0.45547 0.0
C325 C 0.62847 0.06145 0.44165 0.0
C326 C 0.60285 0.03777 0.43092 0.0
C327 C 0.53615 0.01766 0.42158 0.0
C328 C 0.5094 0.99469 0.43225 0.0
C329 C 0.53824 0.01565 0.39946 0.0
C330 C 0.562 0.04239 0.38686 0.0
C331 C 0.55812 0.08226 0.38932 0.0
C332 C 0.57655 0.10732 0.37552 0.0
C333 C 0.59865 0.09278 0.35894 0.0
C334 C 0.60389 0.05312 0.35701 0.0
C335 C 0.58574 0.02813 0.37086 0.0
H336 H 0.98939 0.07304 0.70037 0.0
H337 H 0.94989 0.12231 0.71733 0.0
H338 H 0.84754 0.06968 0.69239 0.0
H339 H 0.88707 0.02018 0.67531 0.0
H340 H 0.99353 0.99426 0.70144 0.0
H341 H 0.95425 0.09382 0.65313 0.0
H342 H 0.91669 0.13331 0.62885 0.0
H343 H 0.87837 0.03144 0.59674 0.0
H344 H 0.91385 0.9918 0.6217 0.0
H345 H 0.99971 0.91492 0.6219 0.0
H346 H 0.04431 0.88527 0.59692 0.0
H347 H 0.1387 0.94609 0.6254 0.0
H348 H 0.0941 0.97559 0.65064 0.0
H349 H 0.98822 0.9917 0.62382 0.0
H350 H 0.02472 0.89226 0.66805 0.0
H351 H 0.06577 0.84815 0.68752 0.0
H352 H 0.10623 0.94148 0.72598 0.0
H353 H 0.06635 0.9864 0.70576 0.0
C354 C 0.94117 0.04323 0.68642 0.0
C355 C 0.95842 0.07157 0.6989 0.0
C356 C 0.93598 0.09965 0.70852 0.0
C357 C 0.89598 0.09951 0.706 0.0
C358 C 0.87841 0.07004 0.6945 0.0
C359 C 0.90092 0.04202 0.68473 0.0
C360 C 0.96569 0.01702 0.67398 0.0
C361 C 0.9926 0.99385 0.68445 0.0
C362 C 0.96345 0.01556 0.65184 0.0
C363 C 0.93678 0.03971 0.63935 0.0
C364 C 0.93665 0.07983 0.6414 0.0
C365 C 0.91548 0.10241 0.62746 0.0
C366 C 0.89521 0.08524 0.61087 0.0
C367 C 0.89395 0.0452 0.60938 0.0
C368 C 0.91433 0.02265 0.62357 0.0
C369 C 0.04365 0.94735 0.63813 0.0
C370 C 0.03009 0.92134 0.62304 0.0
C371 C 0.05544 0.90442 0.60885 0.0
C372 C 0.09462 0.91358 0.60941 0.0
C373 C 0.10852 0.93861 0.62489 0.0
C374 C 0.08316 0.95529 0.63925 0.0
C375 C 0.01597 0.96907 0.65118 0.0
C376 C 0.98875 0.99167 0.64083 0.0
C377 C 0.01747 0.96939 0.67333 0.0
C378 C 0.04294 0.94288 0.68511 0.0
C379 C 0.04308 0.9036 0.68028 0.0
C380 C 0.06628 0.87834 0.69148 0.0
C381 C 0.08924 0.89168 0.70802 0.0
C382 C 0.08897 0.9308 0.71311 0.0
C383 C 0.06608 0.95628 0.70166 0.0
In384 In 0.30764 0.69363 0.0014 0.0
O385 O 0.29696 0.74722 0.02128 0.0
O386 O 0.34383 0.74802 0.99996 0.0
C387 C 0.23551 0.67557 0.98981 0.0
C388 C 0.33153 0.6561 0.0359 0.0
C389 C 0.3421 0.66988 0.96583 0.0
O390 O 0.24743 0.70974 0.98969 0.0
O391 O 0.25919 0.65117 0.99644 0.0
O392 O 0.34621 0.65304 0.98315 0.0
O393 O 0.32129 0.69945 0.96643 0.0
C394 C 0.32557 0.76516 0.0142 0.0
O395 O 0.35429 0.66849 0.02212 0.0
O396 O 0.29641 0.66216 0.03223 0.0
In397 In 0.30449 0.8064 0.25147 0.0
O398 O 0.34021 0.7518 0.25314 0.0
O399 O 0.29488 0.75366 0.23076 0.0
C400 C 0.2318 0.82084 0.26396 0.0
C401 C 0.32928 0.84307 0.21692 0.0
C402 C 0.3414 0.83273 0.28582 0.0
O403 O 0.24576 0.78747 0.26449 0.0
O404 O 0.25372 0.84589 0.25641 0.0
O405 O 0.33575 0.85283 0.26973 0.0
O406 O 0.32864 0.79894 0.28468 0.0
C407 C 0.32288 0.73529 0.23831 0.0
O408 O 0.35169 0.83075 0.2309 0.0
O409 O 0.29408 0.83718 0.22034 0.0
In410 In 0.19454 0.81202 0.50323 0.0
O411 O 0.15071 0.84392 0.52295 0.0
O412 O 0.20566 0.83384 0.53655 0.0
C413 C 0.15783 0.83214 0.46776 0.0
C414 C 0.17728 0.74051 0.51598 0.0
C415 C 0.26467 0.83434 0.49028 0.0
O416 O 0.15956 0.85359 0.48367 0.0
O417 O 0.17364 0.79984 0.46985 0.0
O418 O 0.25252 0.80069 0.48732 0.0
O419 O 0.24236 0.85589 0.5004 0.0
C420 C 0.17227 0.84735 0.53874 0.0
O421 O 0.21012 0.75493 0.51889 0.0
O422 O 0.15403 0.76139 0.5061 0.0
In423 In 0.19971 0.69638 0.75467 0.0
O424 O 0.15941 0.65604 0.77173 0.0
O425 O 0.18921 0.69789 0.78993 0.0
C426 C 0.17526 0.66201 0.71926 0.0
C427 C 0.27311 0.67859 0.76408 0.0
C428 C 0.17262 0.76727 0.7461 0.0
O429 O 0.15715 0.66008 0.73636 0.0
O430 O 0.2064 0.6805 0.72008 0.0
O431 O 0.19702 0.75066 0.73471 0.0
O432 O 0.16429 0.7496 0.76265 0.0
C433 C 0.16597 0.67012 0.78964 0.0
O434 O 0.26125 0.71275 0.76418 0.0
O435 O 0.24882 0.65411 0.75826 0.0
In436 In 0.81325 0.19463 0.50177 0.0
O437 O 0.80223 0.25551 0.51384 0.0
O438 O 0.8591 0.2407 0.50469 0.0
C439 C 0.74201 0.17116 0.49152 0.0
C440 C 0.83299 0.16112 0.53816 0.0
C441 C 0.84603 0.17342 0.46534 0.0
O442 O 0.752 0.20584 0.49013 0.0
O443 O 0.76705 0.1491 0.49908 0.0
O444 O 0.85185 0.15619 0.4824 0.0
O445 O 0.82445 0.2024 0.46662 0.0
C446 C 0.83699 0.26547 0.51246 0.0
O447 O 0.85172 0.15661 0.52142 0.0
O448 O 0.80347 0.18191 0.53655 0.0
In449 In 0.81168 0.30889 0.75145 0.0
O450 O 0.86119 0.32972 0.73132 0.0
O451 O 0.80454 0.34117 0.72046 0.0
C452 C 0.8449 0.33192 0.78749 0.0
C453 C 0.82658 0.23637 0.73943 0.0
C454 C 0.73938 0.32913 0.76161 0.0
O455 O 0.84996 0.34891 0.7703 0.0
O456 O 0.82402 0.30242 0.78653 0.0
O457 O 0.7497 0.29448 0.76077 0.0
O458 O 0.76476 0.35296 0.75638 0.0
C459 C 0.8402 0.34398 0.71723 0.0
O460 O 0.79989 0.25589 0.7314 0.0
O461 O 0.84437 0.25254 0.75421 0.0
In462 In 0.69009 0.30916 0.00234 0.0
O463 O 0.70303 0.24686 0.01107 0.0
O464 O 0.6447 0.26331 0.00692 0.0
C465 C 0.76117 0.33412 0.99275 0.0
C466 C 0.66985 0.34207 0.03894 0.0
C467 C 0.6567 0.3269 0.96551 0.0
O468 O 0.75327 0.29893 0.99401 0.0
O469 O 0.73396 0.35639 0.99734 0.0
O470 O 0.64974 0.34467 0.98229 0.0
O471 O 0.67965 0.2991 0.96725 0.0
C472 C 0.6681 0.23734 0.0119 0.0
O473 O 0.65224 0.34806 0.02201 0.0
O474 O 0.69875 0.3204 0.03748 0.0
In475 In 0.69459 0.19129 0.25118 0.0
O476 O 0.65593 0.15323 0.27077 0.0
O477 O 0.68384 0.19941 0.28639 0.0
C478 C 0.67382 0.15712 0.21492 0.0
C479 C 0.76678 0.17007 0.26123 0.0
C480 C 0.67105 0.26283 0.24154 0.0
O481 O 0.65582 0.15273 0.23184 0.0
O482 O 0.70345 0.17785 0.21621 0.0
O483 O 0.70601 0.25335 0.24127 0.0
O484 O 0.64848 0.23699 0.24765 0.0
C485 C 0.66208 0.17062 0.28774 0.0
O486 O 0.75666 0.20474 0.26056 0.0
O487 O 0.7413 0.14643 0.25578 0.0
C488 C 0.1501 0.84289 0.30176 0.0
C489 C 0.13012 0.87041 0.28962 0.0
C490 C 0.16868 0.85303 0.25898 0.0
C491 C 0.19328 0.83128 0.27207 0.0
N492 N 0.2085 0.80627 0.3064 0.0
N493 N 0.12096 0.90335 0.25679 0.0
C494 C 0.18392 0.82568 0.29353 0.0
C495 C 0.13911 0.87553 0.26814 0.0
N496 N 0.13667 0.83337 0.32119 0.0
N497 N 0.17355 0.85181 0.23774 0.0
H498 H 0.09887 0.92021 0.26284 0.0
H499 H 0.12953 0.91152 0.24182 0.0
H500 H 0.19458 0.8349 0.23063 0.0
H501 H 0.1545 0.86426 0.22717 0.0
H502 H 0.14775 0.81094 0.33006 0.0
H503 H 0.112 0.84565 0.32761 0.0
H504 H 0.20575 0.80575 0.32265 0.0
H505 H 0.23319 0.79253 0.30111 0.0
C506 C 0.12727 0.67309 0.55374 0.0
C507 C 0.13348 0.63744 0.54366 0.0
C508 C 0.17531 0.66865 0.51788 0.0
C509 C 0.16459 0.70476 0.52624 0.0
N510 N 0.12765 0.74215 0.55097 0.0
N511 N 0.16157 0.60049 0.51569 0.0
C512 C 0.13994 0.70721 0.54392 0.0
C513 C 0.15738 0.63488 0.5257 0.0
N514 N 0.10978 0.67418 0.57293 0.0
N515 N 0.20238 0.66676 0.50242 0.0
H516 H 0.14952 0.57517 0.52131 0.0
H517 H 0.17501 0.59731 0.50123 0.0
H518 H 0.2151 0.69108 0.49597 0.0
H519 H 0.21425 0.64123 0.49701 0.0
H520 H 0.10806 0.69879 0.58212 0.0
H521 H 0.10014 0.64967 0.58062 0.0
H522 H 0.10611 0.74559 0.56212 0.0
H523 H 0.13701 0.76801 0.54467 0.0
C524 C 0.37297 0.63508 0.76772 0.0
C525 C 0.37519 0.62898 0.78966 0.0
C526 C 0.31573 0.6655 0.79469 0.0
C527 C 0.31077 0.6668 0.77263 0.0
N528 N 0.3332 0.65208 0.73786 0.0
N529 N 0.347 0.63463 0.82409 0.0
C530 C 0.33913 0.65157 0.75904 0.0
C531 C 0.34639 0.64364 0.80322 0.0
N532 N 0.40351 0.6256 0.7553 0.0
N533 N 0.29084 0.68471 0.80752 0.0
H534 H 0.36878 0.61857 0.83104 0.0
H535 H 0.32442 0.64041 0.8343 0.0
H536 H 0.26723 0.69997 0.80197 0.0
H537 H 0.29534 0.6883 0.82354 0.0
H538 H 0.40531 0.63249 0.73947 0.0
H539 H 0.42868 0.61357 0.76126 0.0
H540 H 0.35037 0.63741 0.72718 0.0
H541 H 0.30975 0.66582 0.73098 0.0
C542 C 0.36802 0.83427 0.05416 0.0
C543 C 0.37534 0.86647 0.04128 0.0
C544 C 0.34338 0.83464 0.0117 0.0
C545 C 0.34022 0.80087 0.02388 0.0
N546 N 0.35524 0.76626 0.05561 0.0
N547 N 0.37261 0.89735 0.00759 0.0
C548 C 0.35365 0.80013 0.04491 0.0
C549 C 0.36357 0.86676 0.01999 0.0
N550 N 0.37489 0.83629 0.07524 0.0
N551 N 0.32624 0.83621 0.99244 0.0
H552 H 0.38602 0.92192 0.01338 0.0
H553 H 0.36889 0.8976 0.99141 0.0
H554 H 0.31115 0.81318 0.98601 0.0
H555 H 0.3242 0.8611 0.98355 0.0
H556 H 0.36605 0.81535 0.08578 0.0
H557 H 0.38654 0.86041 0.08253 0.0
H558 H 0.36871 0.76315 0.07008 0.0
H559 H 0.34635 0.74025 0.04924 0.0
C560 C 0.16269 0.63962 0.95044 0.0
C561 C 0.1325 0.6279 0.96393 0.0
C562 C 0.16834 0.65138 0.99448 0.0
C563 C 0.1981 0.66377 0.98094 0.0
N564 N 0.22105 0.67662 0.946 0.0
N565 N 0.10259 0.62898 0.99794 0.0
C566 C 0.19427 0.66035 0.95888 0.0
C567 C 0.1341 0.6358 0.98573 0.0
N568 N 0.16221 0.62903 0.92978 0.0
N569 N 0.17328 0.65371 0.0157 0.0
H570 H 0.07715 0.61755 0.99195 0.0
H571 H 0.10043 0.6374 0.01354 0.0
H572 H 0.19712 0.66683 0.02258 0.0
H573 H 0.15487 0.64106 0.0265 0.0
H574 H 0.18541 0.6326 0.9197 0.0
H575 H 0.1396 0.61396 0.92291 0.0
H576 H 0.21779 0.67874 0.92983 0.0
H577 H 0.24528 0.69091 0.95158 0.0
C578 C 0.36755 0.66652 0.1989 0.0
C579 C 0.3739 0.6341 0.21178 0.0
C580 C 0.34008 0.66565 0.2408 0.0
C581 C 0.33788 0.69963 0.22872 0.0
N582 N 0.35516 0.73461 0.19747 0.0
N583 N 0.36892 0.60284 0.24528 0.0
C584 C 0.35273 0.7006 0.20799 0.0
C585 C 0.36075 0.63358 0.23282 0.0
N586 N 0.37573 0.66472 0.17796 0.0
N587 N 0.32158 0.66383 0.25966 0.0
H588 H 0.38274 0.57834 0.2397 0.0
H589 H 0.36412 0.60241 0.26137 0.0
H590 H 0.30607 0.68679 0.26584 0.0
H591 H 0.31884 0.6388 0.26836 0.0
H592 H 0.36769 0.68587 0.16734 0.0
H593 H 0.38767 0.6406 0.17081 0.0
H594 H 0.36961 0.73785 0.18331 0.0
H595 H 0.34593 0.76056 0.20376 0.0
C596 C 0.36918 0.85981 0.47985 0.0
C597 C 0.36509 0.88306 0.46176 0.0
C598 C 0.29539 0.87413 0.46247 0.0
C599 C 0.29952 0.84945 0.47999 0.0
N600 N 0.34007 0.81363 0.50345 0.0
N601 N 0.3261 0.905 0.43294 0.0
C602 C 0.33642 0.84048 0.48802 0.0
C603 C 0.32868 0.888 0.45219 0.0
N604 N 0.40399 0.85755 0.48971 0.0
N605 N 0.25963 0.88507 0.45589 0.0
H606 H 0.34996 0.91527 0.42482 0.0
H607 H 0.30094 0.90569 0.42411 0.0
H608 H 0.23432 0.87468 0.46246 0.0
H609 H 0.25495 0.90652 0.44487 0.0
H610 H 0.40804 0.84457 0.50421 0.0
H611 H 0.4286 0.87105 0.48405 0.0
H612 H 0.36638 0.80288 0.50849 0.0
H613 H 0.31652 0.79998 0.51023 0.0
C614 C 0.09144 0.8361 0.73251 0.0
C615 C 0.1116 0.86369 0.72059 0.0
C616 C 0.17243 0.83316 0.73034 0.0
C617 C 0.15173 0.802 0.73904 0.0
N618 N 0.09024 0.7707 0.74437 0.0
N619 N 0.17137 0.88662 0.70618 0.0
C620 C 0.11086 0.80271 0.73931 0.0
C621 C 0.15222 0.86197 0.71908 0.0
N622 N 0.05362 0.84181 0.73733 0.0
N623 N 0.21124 0.8357 0.73322 0.0
H624 H 0.15762 0.90808 0.69767 0.0
H625 H 0.20046 0.88385 0.70267 0.0
H626 H 0.22674 0.81568 0.74192 0.0
H627 H 0.2273 0.85956 0.72888 0.0
H628 H 0.03856 0.82434 0.74769 0.0
H629 H 0.03855 0.86624 0.73274 0.0
H630 H 0.06055 0.76894 0.74256 0.0
H631 H 0.10263 0.74445 0.74809 0.0
C632 C 0.65018 0.38993 0.76598 0.0
C633 C 0.63789 0.38095 0.78656 0.0
C634 C 0.68885 0.33293 0.78979 0.0
C635 C 0.70123 0.34192 0.76915 0.0
N636 N 0.6877 0.37074 0.73571 0.0
N637 N 0.63841 0.33772 0.8159 0.0
C638 C 0.67986 0.36781 0.75663 0.0
C639 C 0.65486 0.35024 0.79771 0.0
N640 N 0.63483 0.42073 0.75576 0.0
N641 N 0.7108 0.31006 0.8024 0.0
H642 H 0.6136 0.35005 0.82214 0.0
H643 H 0.64713 0.31304 0.8237 0.0
H644 H 0.73585 0.29657 0.79741 0.0
H645 H 0.70577 0.30666 0.81837 0.0
H646 H 0.64583 0.43149 0.74179 0.0
H647 H 0.61257 0.43723 0.76194 0.0
H648 H 0.67093 0.38646 0.7253 0.0
H649 H 0.70881 0.35426 0.72837 0.0
C650 C 0.60591 0.14911 0.01598 0.0
C651 C 0.61564 0.13607 0.03633 0.0
C652 C 0.66442 0.18622 0.03964 0.0
C653 C 0.65467 0.19941 0.01924 0.0
N654 N 0.62415 0.18755 0.98597 0.0
N655 N 0.66007 0.13511 0.06524 0.0
C656 C 0.62793 0.17889 0.00675 0.0
C657 C 0.64703 0.15225 0.04735 0.0
N658 N 0.57461 0.13426 0.0059 0.0
N659 N 0.68808 0.20739 0.05226 0.0
H660 H 0.64762 0.11036 0.07136 0.0
H661 H 0.68524 0.14321 0.07288 0.0
H662 H 0.70163 0.23244 0.04747 0.0
H663 H 0.69207 0.20174 0.06813 0.0
H664 H 0.56327 0.14576 0.99218 0.0
H665 H 0.55837 0.11176 0.01195 0.0
H666 H 0.60773 0.17142 0.97555 0.0
H667 H 0.64054 0.2087 0.97869 0.0
C668 C 0.86404 0.12068 0.2648 0.0
C669 C 0.86876 0.11973 0.28688 0.0
C670 C 0.81255 0.16129 0.29114 0.0
C671 C 0.80447 0.1573 0.26943 0.0
N672 N 0.82152 0.13273 0.23537 0.0
N673 N 0.84472 0.13471 0.32144 0.0
C674 C 0.83004 0.13693 0.25617 0.0
C675 C 0.84254 0.13922 0.30017 0.0
N676 N 0.89249 0.10679 0.25214 0.0
N677 N 0.79146 0.18585 0.30324 0.0
H678 H 0.86584 0.11836 0.3288 0.0
H679 H 0.82362 0.14432 0.33174 0.0
H680 H 0.76838 0.20169 0.29755 0.0
H681 H 0.79884 0.19297 0.31858 0.0
H682 H 0.89258 0.10987 0.23592 0.0
H683 H 0.91783 0.09501 0.25803 0.0
H684 H 0.83634 0.11434 0.22538 0.0
H685 H 0.79831 0.14644 0.22825 0.0
C686 C 0.87827 0.334 0.55272 0.0
C687 C 0.89135 0.36407 0.53961 0.0
C688 C 0.86617 0.33074 0.50862 0.0
C689 C 0.85211 0.30125 0.52179 0.0
N690 N 0.83897 0.27716 0.55651 0.0
N691 N 0.8922 0.39511 0.50596 0.0
C692 C 0.85608 0.30381 0.54391 0.0
C693 C 0.88358 0.36366 0.51778 0.0
N694 N 0.88882 0.33325 0.57339 0.0
N695 N 0.86356 0.32682 0.48734 0.0
H696 H 0.90506 0.41957 0.51224 0.0
H697 H 0.88398 0.39833 0.49038 0.0
H698 H 0.8492 0.30406 0.48016 0.0
H699 H 0.8772 0.34491 0.47676 0.0
H700 H 0.88434 0.30991 0.58319 0.0
H701 H 0.90473 0.35495 0.58054 0.0
H702 H 0.83699 0.27985 0.57272 0.0
H703 H 0.82411 0.25349 0.55074 0.0
C704 C 0.65264 0.10996 0.48724 0.0
C705 C 0.64263 0.11556 0.46592 0.0
C706 C 0.69576 0.16081 0.46172 0.0
C707 C 0.70519 0.15614 0.48324 0.0
N708 N 0.68738 0.13376 0.51757 0.0
N709 N 0.64781 0.1532 0.43446 0.0
C710 C 0.68188 0.13306 0.49636 0.0
C711 C 0.66192 0.14341 0.45372 0.0
N712 N 0.63554 0.0814 0.4985 0.0
N713 N 0.7204 0.17936 0.4485 0.0
H714 H 0.62306 0.14087 0.42812 0.0
H715 H 0.65839 0.17602 0.42571 0.0
H716 H 0.74606 0.19182 0.45338 0.0
H717 H 0.7171 0.17948 0.43228 0.0
H718 H 0.64481 0.07298 0.51331 0.0
H719 H 0.6137 0.06419 0.49245 0.0
H720 H 0.66908 0.12036 0.52817 0.0
H721 H 0.70817 0.15091 0.52473 0.0
C722 C 0.86892 0.16498 0.70076 0.0
C723 C 0.87329 0.13249 0.71383 0.0
C724 C 0.84017 0.16601 0.7424 0.0
C725 C 0.84012 0.19989 0.73018 0.0
N726 N 0.86 0.23355 0.69895 0.0
N727 N 0.86549 0.1018 0.74731 0.0
C728 C 0.85555 0.19985 0.70958 0.0
C729 C 0.85938 0.13283 0.73471 0.0
N730 N 0.87774 0.16253 0.67992 0.0
N731 N 0.82109 0.16542 0.76112 0.0
H732 H 0.87808 0.07653 0.74189 0.0
H733 H 0.86011 0.10173 0.76335 0.0
H734 H 0.80667 0.18926 0.76708 0.0
H735 H 0.81683 0.14071 0.7699 0.0
H736 H 0.87106 0.18388 0.66913 0.0
H737 H 0.88877 0.13781 0.67297 0.0
H738 H 0.87505 0.23587 0.68492 0.0
H739 H 0.8519 0.26004 0.70503 0.0
C740 C 0.84626 0.35659 0.95729 0.0
C741 C 0.86133 0.3889 0.96794 0.0
C742 C 0.81791 0.37707 0.9974 0.0
C743 C 0.79861 0.34891 0.98527 0.0
N744 N 0.79238 0.31371 0.9527 0.0
N745 N 0.86092 0.43167 0.99764 0.0
C746 C 0.81257 0.33861 0.96508 0.0
C747 C 0.8473 0.39942 0.98799 0.0
N748 N 0.86425 0.34314 0.93972 0.0
N749 N 0.80859 0.38179 0.01805 0.0
H750 H 0.88312 0.44822 0.99146 0.0
H751 H 0.84863 0.44343 0.01106 0.0
H752 H 0.78776 0.36519 0.02549 0.0
H753 H 0.82393 0.39932 0.02828 0.0
H754 H 0.85709 0.31737 0.93246 0.0
H755 H 0.88877 0.35598 0.93349 0.0
H756 H 0.79849 0.30912 0.93693 0.0
H757 H 0.76756 0.29969 0.95755 0.0
C758 C 0.64664 0.34755 0.20629 0.0
C759 C 0.61574 0.36343 0.21783 0.0
C760 C 0.63049 0.32094 0.24724 0.0
C761 C 0.65664 0.30057 0.23432 0.0
N762 N 0.68815 0.293 0.20072 0.0
N763 N 0.57669 0.36493 0.24898 0.0
C764 C 0.66495 0.31383 0.21374 0.0
C765 C 0.60749 0.35038 0.23835 0.0
N766 N 0.65837 0.36481 0.18818 0.0
N767 N 0.6283 0.31257 0.26812 0.0
H768 H 0.5598 0.3872 0.24319 0.0
H769 H 0.56639 0.35338 0.26292 0.0
H770 H 0.64557 0.29182 0.27518 0.0
H771 H 0.61239 0.32864 0.27879 0.0
H772 H 0.6832 0.35702 0.18014 0.0
H773 H 0.64524 0.38936 0.18223 0.0
H774 H 0.69096 0.29858 0.18478 0.0
H775 H 0.70258 0.26831 0.2053 0.0
C776 C 0.13976 0.86256 0.41118 0.0
C777 C 0.10381 0.88101 0.41369 0.0
C778 C 0.09963 0.85761 0.44978 0.0
C779 C 0.13804 0.8444 0.44833 0.0
N780 N 0.19585 0.83522 0.42796 0.0
N781 N 0.04961 0.89798 0.43534 0.0
C782 C 0.1583 0.8465 0.42901 0.0
C783 C 0.08359 0.8788 0.43294 0.0
N784 N 0.15601 0.86034 0.39172 0.0
N785 N 0.07812 0.84878 0.46703 0.0
H786 H 0.03608 0.91254 0.42313 0.0
H787 H 0.03596 0.90151 0.44972 0.0
H788 H 0.0887 0.83231 0.47938 0.0
H789 H 0.04882 0.85433 0.4682 0.0
H790 H 0.18017 0.84388 0.38834 0.0
H791 H 0.14345 0.87252 0.37846 0.0
H792 H 0.21357 0.84067 0.41518 0.0
H793 H 0.21038 0.82246 0.44038 0.0
C794 C 0.10279 0.6331 0.67783 0.0
C795 C 0.12579 0.61105 0.66397 0.0
C796 C 0.18192 0.62192 0.68648 0.0
C797 C 0.15941 0.64613 0.69949 0.0
N798 N 0.10164 0.68371 0.70371 0.0
N799 N 0.18881 0.59187 0.65238 0.0
C800 C 0.12079 0.65446 0.69401 0.0
C801 C 0.16594 0.60787 0.66743 0.0
N802 N 0.06363 0.63228 0.6763 0.0
N803 N 0.21768 0.61056 0.69276 0.0
H804 H 0.17801 0.58173 0.63816 0.0
H805 H 0.2187 0.5921 0.65314 0.0
H806 H 0.2301 0.61919 0.70687 0.0
H807 H 0.23361 0.58974 0.68492 0.0
H808 H 0.04563 0.64457 0.68749 0.0
H809 H 0.04895 0.6163 0.66505 0.0
H810 H 0.07468 0.69323 0.6989 0.0
H811 H 0.1144 0.70136 0.71494 0.0
C812 C 0.37405 0.59725 0.92534 0.0
C813 C 0.39485 0.62054 0.9111 0.0
C814 C 0.38107 0.6771 0.9327 0.0
C815 C 0.35823 0.65408 0.94613 0.0
N816 N 0.32384 0.59484 0.95143 0.0
N817 N 0.41087 0.68356 0.89853 0.0
C818 C 0.35192 0.61492 0.94129 0.0
C819 C 0.39599 0.66084 0.91393 0.0
N820 N 0.37685 0.55823 0.92438 0.0
N821 N 0.39029 0.71374 0.93835 0.0
H822 H 0.4217 0.6725 0.88453 0.0
H823 H 0.40911 0.71334 0.89879 0.0
H824 H 0.38076 0.7265 0.95217 0.0
H825 H 0.41019 0.73033 0.93025 0.0
H826 H 0.36559 0.54026 0.93585 0.0
H827 H 0.39347 0.54384 0.9133 0.0
H828 H 0.31563 0.56726 0.94706 0.0
H829 H 0.30576 0.60719 0.96259 0.0
C830 C 0.38919 0.9108 0.1842 0.0
C831 C 0.37651 0.90181 0.16364 0.0
C832 C 0.3333 0.85284 0.17778 0.0
C833 C 0.3436 0.86433 0.19844 0.0
N834 N 0.374 0.91076 0.22114 0.0
N835 N 0.33228 0.86892 0.14079 0.0
C836 C 0.36948 0.89517 0.20161 0.0
C837 C 0.34727 0.87417 0.16039 0.0
N838 N 0.42093 0.93326 0.18714 0.0
N839 N 0.31171 0.82063 0.17467 0.0
H840 H 0.34212 0.8838 0.12769 0.0
H841 H 0.3081 0.85221 0.1378 0.0
H842 H 0.30085 0.8041 0.18687 0.0
H843 H 0.30716 0.80844 0.15997 0.0
H844 H 0.43382 0.93726 0.20172 0.0
H845 H 0.43667 0.94494 0.17481 0.0
H846 H 0.38957 0.93574 0.22393 0.0
H847 H 0.35878 0.90134 0.23421 0.0
C848 C 0.12919 0.59679 0.82837 0.0
C849 C 0.11106 0.62056 0.84348 0.0
C850 C 0.12857 0.67747 0.82322 0.0
C851 C 0.14891 0.65379 0.8089 0.0
N852 N 0.17747 0.59231 0.80127 0.0
N853 N 0.10072 0.68355 0.85789 0.0
C854 C 0.15191 0.61384 0.81251 0.0
C855 C 0.11311 0.66098 0.84174 0.0
N856 N 0.12331 0.55808 0.8285 0.0
N857 N 0.1221 0.71515 0.81864 0.0
H858 H 0.08946 0.67229 0.87172 0.0
H859 H 0.10495 0.71307 0.8584 0.0
H860 H 0.13193 0.72819 0.80499 0.0
H861 H 0.10397 0.73262 0.82744 0.0
H862 H 0.1324 0.54009 0.81643 0.0
H863 H 0.10636 0.54424 0.8396 0.0
H864 H 0.18347 0.56376 0.80471 0.0
H865 H 0.1958 0.60397 0.79005 0.0
C866 C 0.39065 0.58833 0.06912 0.0
C867 C 0.37768 0.59751 0.08959 0.0
C868 C 0.33478 0.64647 0.07508 0.0
C869 C 0.34539 0.63482 0.05451 0.0
N870 N 0.37607 0.58818 0.03209 0.0
N871 N 0.33311 0.63065 0.1121 0.0
C872 C 0.37125 0.60389 0.05156 0.0
C873 C 0.34843 0.62523 0.0926 0.0
N874 N 0.42236 0.56573 0.06641 0.0
N875 N 0.3132 0.67875 0.078 0.0
H876 H 0.3427 0.61585 0.12529 0.0
H877 H 0.3089 0.64741 0.1149 0.0
H878 H 0.30253 0.6952 0.06571 0.0
H879 H 0.30846 0.69105 0.09265 0.0
H880 H 0.43547 0.56157 0.05192 0.0
H881 H 0.43786 0.55409 0.07886 0.0
H882 H 0.39162 0.56315 0.02943 0.0
H883 H 0.36109 0.5976 0.0189 0.0
C884 C 0.36811 0.85833 0.34223 0.0
C885 C 0.40099 0.88143 0.33875 0.0
C886 C 0.39797 0.86689 0.30123 0.0
C887 C 0.36246 0.84779 0.3043 0.0
N888 N 0.30997 0.83154 0.3274 0.0
N889 N 0.44224 0.91455 0.31433 0.0
C890 C 0.34649 0.84499 0.32473 0.0
C891 C 0.41454 0.88767 0.31807 0.0
N892 N 0.35799 0.84843 0.36218 0.0
N893 N 0.41676 0.86397 0.28249 0.0
H894 H 0.4545 0.93128 0.32612 0.0
H895 H 0.45021 0.92298 0.29929 0.0
H896 H 0.40654 0.84758 0.26999 0.0
H897 H 0.44451 0.87427 0.28015 0.0
H898 H 0.33665 0.82846 0.36552 0.0
H899 H 0.37322 0.85758 0.37535 0.0
H900 H 0.2955 0.83267 0.34166 0.0
H901 H 0.29265 0.8227 0.31498 0.0
C902 C 0.12161 0.91943 0.57322 0.0
C903 C 0.12013 0.89936 0.59251 0.0
C904 C 0.15806 0.84688 0.57752 0.0
C905 C 0.15902 0.86678 0.5581 0.0
N906 N 0.15143 0.92581 0.53908 0.0
N907 N 0.14309 0.84863 0.61471 0.0
C908 C 0.14371 0.90428 0.55646 0.0
C909 C 0.14053 0.8646 0.59521 0.0
N910 N 0.10095 0.95244 0.57075 0.0
N911 N 0.17195 0.81033 0.57879 0.0
H912 H 0.12971 0.86044 0.62784 0.0
H913 H 0.1608 0.82552 0.61827 0.0
H914 H 0.18614 0.79667 0.56652 0.0
H915 H 0.16753 0.79249 0.59161 0.0
H916 H 0.0968 0.96575 0.55634 0.0
H917 H 0.08594 0.96554 0.58296 0.0
H918 H 0.14428 0.95464 0.53771 0.0
H919 H 0.16848 0.91589 0.52677 0.0
C920 C 0.58309 0.36243 0.92664 0.0
C921 C 0.60714 0.3758 0.91026 0.0
C922 C 0.66409 0.3532 0.92908 0.0
C923 C 0.63997 0.33924 0.94531 0.0
N924 N 0.57679 0.32157 0.95714 0.0
N925 N 0.66878 0.37581 0.89323 0.0
C926 C 0.59949 0.34097 0.94329 0.0
C927 C 0.64713 0.36834 0.9106 0.0
N928 N 0.54498 0.37188 0.92688 0.0
N929 N 0.70301 0.35445 0.93188 0.0
H930 H 0.65703 0.38702 0.8795 0.0
H931 H 0.69742 0.36762 0.89175 0.0
H932 H 0.71658 0.3444 0.94534 0.0
H933 H 0.72165 0.36825 0.92163 0.0
H934 H 0.52708 0.36692 0.93965 0.0
H935 H 0.53166 0.38718 0.91489 0.0
H936 H 0.5472 0.31862 0.95534 0.0
H937 H 0.58805 0.30518 0.96935 0.0
C938 C 0.63142 0.08394 0.17781 0.0
C939 C 0.62048 0.10748 0.1607 0.0
C940 C 0.64805 0.16362 0.17821 0.0
C941 C 0.65986 0.13988 0.1951 0.0
N942 N 0.67136 0.07663 0.2087 0.0
N943 N 0.62585 0.16722 0.14219 0.0
C944 C 0.65423 0.09972 0.19415 0.0
C945 C 0.6314 0.14654 0.1601 0.0
N946 N 0.61853 0.04701 0.17893 0.0
N947 N 0.65028 0.20257 0.18002 0.0
H948 H 0.61344 0.15548 0.12874 0.0
H949 H 0.63663 0.19474 0.14002 0.0
H950 H 0.66148 0.21628 0.19317 0.0
H951 H 0.63816 0.22142 0.16925 0.0
H952 H 0.62162 0.02996 0.1922 0.0
H953 H 0.60227 0.0341 0.16714 0.0
H954 H 0.67144 0.04686 0.20774 0.0
H955 H 0.68877 0.08733 0.22069 0.0
C956 C 0.87567 0.10113 0.42433 0.0
C957 C 0.89554 0.12438 0.40969 0.0
C958 C 0.88235 0.18112 0.4313 0.0
C959 C 0.86054 0.15802 0.44518 0.0
N960 N 0.82661 0.09872 0.45104 0.0
N961 N 0.91046 0.18739 0.39668 0.0
C962 C 0.85414 0.11883 0.44049 0.0
C963 C 0.89651 0.16475 0.41236 0.0
N964 N 0.87892 0.06212 0.42361 0.0
N965 N 0.8913 0.21797 0.43666 0.0
H966 H 0.92067 0.17623 0.38256 0.0
H967 H 0.90856 0.21716 0.39687 0.0
H968 H 0.88203 0.23086 0.4505 0.0
H969 H 0.91057 0.23473 0.42821 0.0
H970 H 0.8683 0.0443 0.43533 0.0
H971 H 0.89544 0.04765 0.41252 0.0
H972 H 0.81834 0.07106 0.44684 0.0
H973 H 0.80896 0.11112 0.46239 0.0
C974 C 0.90622 0.40559 0.68431 0.0
C975 C 0.89316 0.39712 0.66375 0.0
C976 C 0.84594 0.35213 0.67805 0.0
C977 C 0.85668 0.36343 0.69867 0.0
N978 N 0.89062 0.40763 0.72119 0.0
N979 N 0.8469 0.3671 0.64092 0.0
C980 C 0.88504 0.39205 0.70174 0.0
C981 C 0.8619 0.37176 0.66056 0.0
N982 N 0.93957 0.42559 0.68722 0.0
N983 N 0.82197 0.3216 0.67508 0.0
H984 H 0.85819 0.38066 0.62774 0.0
H985 H 0.82151 0.35229 0.63794 0.0
H986 H 0.80969 0.30628 0.68736 0.0
H987 H 0.81674 0.30937 0.66046 0.0
H988 H 0.95256 0.42896 0.70182 0.0
H989 H 0.95633 0.43568 0.67486 0.0
H990 H 0.90818 0.43128 0.7239 0.0
H991 H 0.87456 0.39972 0.73427 0.0
C992 C 0.65469 0.12449 0.34156 0.0
C993 C 0.61448 0.11852 0.3426 0.0
C994 C 0.60579 0.15591 0.31047 0.0
C995 C 0.64614 0.15665 0.30777 0.0
N996 N 0.70943 0.138 0.31939 0.0
N997 N 0.55148 0.12526 0.32713 0.0
C998 C 0.67083 0.14043 0.32308 0.0
C999 C 0.58983 0.13372 0.32694 0.0
N1000 N 0.67732 0.11501 0.35827 0.0
N1001 N 0.58282 0.17687 0.29743 0.0
H1002 H 0.53849 0.10915 0.33889 0.0
H1003 H 0.53296 0.13175 0.31481 0.0
H1004 H 0.59377 0.19358 0.28528 0.0
H1005 H 0.55348 0.1806 0.29985 0.0
H1006 H 0.70635 0.122 0.35927 0.0
H1007 H 0.66622 0.10325 0.37201 0.0
H1008 H 0.72833 0.12277 0.32889 0.0
H1009 H 0.72221 0.14853 0.30582 0.0
C1010 C 0.83788 0.10765 0.59023 0.0
C1011 C 0.87809 0.10875 0.59386 0.0
C1012 C 0.88567 0.15226 0.56416 0.0
C1013 C 0.84691 0.14566 0.55837 0.0
N1014 N 0.78658 0.11358 0.56476 0.0
N1015 N 0.94142 0.12705 0.58185 0.0
C1016 C 0.82289 0.12273 0.57121 0.0
C1017 C 0.90236 0.12989 0.58026 0.0
N1018 N 0.81404 0.09264 0.60509 0.0
N1019 N 0.90628 0.1807 0.5547 0.0
H1020 H 0.95522 0.10995 0.59291 0.0
H1021 H 0.9601 0.13874 0.57084 0.0
H1022 H 0.89451 0.19889 0.54344 0.0
H1023 H 0.93351 0.18901 0.55975 0.0
H1024 H 0.78421 0.09432 0.60422 0.0
H1025 H 0.82416 0.08179 0.61929 0.0
H1026 H 0.7694 0.09361 0.57241 0.0
H1027 H 0.77471 0.1234 0.55077 0.0
C1028 C 0.85327 0.37507 0.84222 0.0
C1029 C 0.89283 0.38452 0.84246 0.0
C1030 C 0.90176 0.35117 0.80896 0.0
C1031 C 0.86141 0.34667 0.8073 0.0
N1032 N 0.79787 0.35816 0.82115 0.0
N1033 N 0.95466 0.3849 0.82536 0.0
C1034 C 0.83686 0.35917 0.82373 0.0
C1035 C 0.91719 0.37319 0.82572 0.0
N1036 N 0.83149 0.3812 0.85972 0.0
N1037 N 0.92534 0.33363 0.79476 0.0
H1038 H 0.96733 0.40054 0.83747 0.0
H1039 H 0.97251 0.38152 0.8124 0.0
H1040 H 0.91493 0.31687 0.78244 0.0
H1041 H 0.9551 0.3326 0.7963 0.0
H1042 H 0.80338 0.37144 0.86129 0.0
H1043 H 0.84273 0.39306 0.87344 0.0
H1044 H 0.77863 0.37075 0.83158 0.0
H1045 H 0.78465 0.34757 0.80768 0.0
C1046 C 0.62705 0.3506 0.09369 0.0
C1047 C 0.61816 0.3902 0.09397 0.0
C1048 C 0.65277 0.39878 0.06088 0.0
C1049 C 0.65626 0.3585 0.05901 0.0
N1050 N 0.6433 0.29525 0.07255 0.0
N1051 N 0.61942 0.45201 0.07706 0.0
C1052 C 0.64301 0.3341 0.07526 0.0
C1053 C 0.63052 0.41444 0.07746 0.0
N1054 N 0.62028 0.32889 0.1111 0.0
N1055 N 0.67135 0.42204 0.04698 0.0
H1056 H 0.60341 0.4648 0.08897 0.0
H1057 H 0.62365 0.46983 0.06421 0.0
H1058 H 0.68832 0.41138 0.03482 0.0
H1059 H 0.67305 0.45166 0.04869 0.0
H1060 H 0.62955 0.30067 0.11264 0.0
H1061 H 0.60846 0.34025 0.12479 0.0
H1062 H 0.63009 0.27623 0.08282 0.0
H1063 H 0.65402 0.28198 0.05914 0.0
loop_
_geom_bond_atom_site_label_1
_geom_bond_atom_site_label_2
_geom_bond_distance
_geom_bond_site_symmetry_2
_ccdc_geom_bond_type
H0 C19 0.949 . S
H1 C20 0.950 . S
H2 C22 0.950 . S
H3 C23 0.950 . S
H4 C25 0.950 . S
H5 C28 0.950 . S
H6 C29 0.950 . S
H7 C31 0.951 . S
H8 C32 0.949 1_565 S
H9 C34 0.949 . S
H10 C35 0.950 . S
H11 C37 0.950 . S
H12 C38 0.950 . S
H13 C40 0.953 . S
H14 C43 0.950 . S
H15 C44 0.950 . S
H16 C46 0.951 . S
H17 C47 0.949 1_545 S
C18 C19 1.376 . S
C18 C23 1.386 . S
C18 C24 1.483 . S
C19 H0 0.949 . S
C19 C18 1.376 . S
C19 C20 1.397 . S
C20 H1 0.950 . S
C20 C19 1.397 . S
C20 C21 1.391 . S
C21 C20 1.391 . S
C21 C22 1.405 . S
C22 H2 0.950 . S
C22 C21 1.405 . S
C22 C23 1.367 . S
C23 H3 0.950 . S
C23 C18 1.386 . S
C23 C22 1.367 . S
C24 C18 1.483 . S
C24 C25 1.382 1_655 S
C24 C26 1.403 . S
C25 H4 0.950 . S
C25 C24 1.382 1_455 S
C25 C41 1.411 1_545 S
C26 C24 1.403 . S
C26 C27 1.489 . S
C26 C40 1.432 1_545 S
C27 C26 1.489 . S
C27 C28 1.383 . S
C27 C32 1.382 . S
C28 H5 0.950 . S
C28 C27 1.383 . S
C28 C29 1.395 . S
C29 H6 0.950 . S
C29 C28 1.395 . S
C29 C30 1.288 . S
C30 C29 1.288 . S
C30 C31 1.392 . S
C31 H7 0.951 . S
C31 C30 1.392 . S
C31 C32 1.392 . S
C32 H8 0.949 1_545 S
C32 C27 1.382 . S
C32 C31 1.392 . S
C33 C34 1.376 . S
C33 C38 1.386 . S
C33 C39 1.483 . S
C34 H9 0.949 . S
C34 C33 1.376 . S
C34 C35 1.397 . S
C35 H10 0.950 . S
C35 C34 1.397 . S
C35 C36 1.391 . S
C36 C35 1.391 . S
C36 C37 1.405 . S
C37 H11 0.950 . S
C37 C36 1.405 . S
C37 C38 1.367 . S
C38 H12 0.950 . S
C38 C33 1.386 . S
C38 C37 1.367 . S
C39 C33 1.483 . S
C39 C40 1.359 1_455 S
C39 C41 1.403 . S
C40 H13 0.953 . S
C40 C26 1.432 1_565 S
C40 C39 1.359 1_655 S
C41 C25 1.411 1_565 S
C41 C39 1.403 . S
C41 C42 1.489 . S
C42 C41 1.489 . S
C42 C43 1.383 . S
C42 C47 1.382 . S
C43 H14 0.950 . S
C43 C42 1.383 . S
C43 C44 1.395 . S
C44 H15 0.950 . S
C44 C43 1.395 . S
C44 C45 1.288 . S
C45 C44 1.288 . S
C45 C46 1.392 . S
C46 H16 0.951 . S
C46 C45 1.392 . S
C46 C47 1.392 . S
C47 H17 0.949 1_565 S
C47 C42 1.382 . S
C47 C46 1.392 . S
H48 C67 0.949 1_455 S
H49 C68 0.950 . S
H50 C70 0.950 . S
H51 C71 0.950 . S
H52 C73 0.950 . S
H53 C76 0.950 . S
H54 C77 0.950 . S
H55 C79 0.951 . S
H56 C80 0.949 . S
H57 C82 0.949 1_655 S
H58 C83 0.950 . S
H59 C85 0.950 . S
H60 C86 0.950 . S
H61 C88 0.950 . S
H62 C91 0.950 . S
H63 C92 0.950 . S
H64 C94 0.951 . S
H65 C95 0.949 . S
C66 C67 1.376 . S
C66 C71 1.386 . S
C66 C72 1.483 . S
C67 H48 0.949 1_655 S
C67 C66 1.376 . S
C67 C68 1.397 . S
C68 H49 0.950 . S
C68 C67 1.397 . S
C68 C69 1.391 . S
C69 C68 1.391 . S
C69 C70 1.405 . S
C70 H50 0.950 . S
C70 C69 1.405 . S
C70 C71 1.367 . S
C71 H51 0.950 . S
C71 C66 1.386 . S
C71 C70 1.367 . S
C72 C66 1.483 . S
C72 C73 1.382 1_655 S
C72 C74 1.403 . S
C73 H52 0.950 . S
C73 C72 1.382 1_455 S
C73 C89 1.411 . S
C74 C72 1.403 . S
C74 C75 1.489 . S
C74 C88 1.411 . S
C75 C74 1.489 . S
C75 C76 1.383 . S
C75 C80 1.382 . S
C76 H53 0.950 . S
C76 C75 1.383 . S
C76 C77 1.395 . S
C77 H54 0.950 . S
C77 C76 1.395 . S
C77 C78 1.288 . S
C78 C77 1.288 . S
C78 C79 1.392 . S
C79 H55 0.951 . S
C79 C78 1.392 . S
C79 C80 1.392 . S
C80 H56 0.949 . S
C80 C75 1.382 . S
C80 C79 1.392 . S
C81 C82 1.376 . S
C81 C86 1.386 . S
C81 C87 1.483 . S
C82 H57 0.949 1_455 S
C82 C81 1.376 . S
C82 C83 1.397 . S
C83 H58 0.950 . S
C83 C82 1.397 . S
C83 C84 1.391 . S
C84 C83 1.391 . S
C84 C85 1.405 . S
C85 H59 0.950 . S
C85 C84 1.405 . S
C85 C86 1.367 . S
C86 H60 0.950 . S
C86 C81 1.386 . S
C86 C85 1.367 . S
C87 C81 1.483 . S
C87 C88 1.382 1_455 S
C87 C89 1.403 . S
C88 H61 0.950 . S
C88 C74 1.411 . S
C88 C87 1.382 1_655 S
C89 C73 1.411 . S
C89 C87 1.403 . S
C89 C90 1.489 . S
C90 C89 1.489 . S
C90 C91 1.383 . S
C90 C95 1.382 . S
C91 H62 0.950 . S
C91 C90 1.383 . S
C91 C92 1.395 . S
C92 H63 0.950 . S
C92 C91 1.395 . S
C92 C93 1.288 . S
C93 C92 1.288 . S
C93 C94 1.392 . S
C94 H64 0.951 . S
C94 C93 1.392 . S
C94 C95 1.392 . S
C95 H65 0.949 . S
C95 C90 1.382 . S
C95 C94 1.392 . S
H96 C115 0.949 . S
H97 C116 0.950 . S
H98 C118 0.950 . S
H99 C119 0.950 . S
H100 C121 0.950 . S
H101 C124 0.950 . S
H102 C125 0.950 . S
H103 C127 0.951 . S
H104 C128 0.949 . S
H105 C130 0.949 . S
H106 C131 0.950 . S
H107 C133 0.950 . S
H108 C134 0.950 . S
H109 C136 0.950 . S
H110 C139 0.950 . S
H111 C140 0.950 . S
H112 C142 0.951 . S
H113 C143 0.949 . S
C114 C115 1.376 . S
C114 C119 1.386 . S
C114 C120 1.483 . S
C115 H96 0.949 . S
C115 C114 1.376 . S
C115 C116 1.397 . S
C116 H97 0.950 . S
C116 C115 1.397 . S
C116 C117 1.391 . S
C117 C116 1.391 . S
C117 C118 1.405 . S
C118 H98 0.950 . S
C118 C117 1.405 . S
C118 C119 1.367 . S
C119 H99 0.950 . S
C119 C114 1.386 . S
C119 C118 1.367 . S
C120 C114 1.483 . S
C120 C121 1.382 . S
C120 C122 1.403 . S
C121 H100 0.950 . S
C121 C120 1.382 . S
C121 C137 1.411 . S
C122 C120 1.403 . S
C122 C123 1.489 . S
C122 C136 1.411 . S
C123 C122 1.489 . S
C123 C124 1.383 . S
C123 C128 1.382 . S
C124 H101 0.950 . S
C124 C123 1.383 . S
C124 C125 1.395 . S
C125 H102 0.950 . S
C125 C124 1.395 . S
C125 C126 1.288 . S
C126 C125 1.288 . S
C126 C127 1.392 . S
C127 H103 0.951 . S
C127 C126 1.392 . S
C127 C128 1.392 . S
C128 H104 0.949 . S
C128 C123 1.382 . S
C128 C127 1.392 . S
C129 C130 1.376 . S
C129 C134 1.386 . S
C129 C135 1.483 . S
C130 H105 0.949 . S
C130 C129 1.376 . S
C130 C131 1.397 . S
C131 H106 0.950 . S
C131 C130 1.397 . S
C131 C132 1.391 . S
C132 C131 1.391 . S
C132 C133 1.405 . S
C133 H107 0.950 . S
C133 C132 1.405 . S
C133 C134 1.367 . S
C134 H108 0.950 . S
C134 C129 1.386 . S
C134 C133 1.367 . S
C135 C129 1.483 . S
C135 C136 1.382 . S
C135 C137 1.403 . S
C136 H109 0.950 . S
C136 C122 1.411 . S
C136 C135 1.382 . S
C137 C121 1.411 . S
C137 C135 1.403 . S
C137 C138 1.489 . S
C138 C137 1.489 . S
C138 C139 1.383 . S
C138 C143 1.382 . S
C139 H110 0.950 . S
C139 C138 1.383 . S
C139 C140 1.395 . S
C140 H111 0.950 . S
C140 C139 1.395 . S
C140 C141 1.288 . S
C141 C140 1.288 . S
C141 C142 1.392 . S
C142 H112 0.951 . S
C142 C141 1.392 . S
C142 C143 1.392 . S
C143 H113 0.949 . S
C143 C138 1.382 . S
C143 C142 1.392 . S
H144 C163 0.949 . S
H145 C164 0.950 . S
H146 C166 0.950 . S
H147 C167 0.950 . S
H148 C169 0.950 . S
H149 C172 0.950 . S
H150 C173 0.950 . S
H151 C175 0.951 . S
H152 C176 0.949 . S
H153 C178 0.949 . S
H154 C179 0.950 . S
H155 C181 0.950 . S
H156 C182 0.950 . S
H157 C184 0.950 . S
H158 C187 0.950 . S
H159 C188 0.950 . S
H160 C190 0.951 . S
H161 C191 0.949 . S
C162 C163 1.376 . S
C162 C167 1.386 . S
C162 C168 1.483 . S
C163 H144 0.949 . S
C163 C162 1.376 . S
C163 C164 1.397 . S
C164 H145 0.950 . S
C164 C163 1.397 . S
C164 C165 1.391 . S
C165 C164 1.391 . S
C165 C166 1.405 . S
C166 H146 0.950 . S
C166 C165 1.405 . S
C166 C167 1.367 . S
C167 H147 0.950 . S
C167 C162 1.386 . S
C167 C166 1.367 . S
C168 C162 1.483 . S
C168 C169 1.382 . S
C168 C170 1.403 . S
C169 H148 0.950 . S
C169 C168 1.382 . S
C169 C185 1.411 1_565 S
C170 C168 1.403 . S
C170 C171 1.489 . S
C170 C184 1.411 1_565 S
C171 C170 1.489 . S
C171 C172 1.383 . S
C171 C176 1.382 . S
C172 H149 0.950 . S
C172 C171 1.383 . S
C172 C173 1.395 . S
C173 H150 0.950 . S
C173 C172 1.395 . S
C173 C174 1.288 . S
C174 C173 1.288 . S
C174 C175 1.392 . S
C175 H151 0.951 . S
C175 C174 1.392 . S
C175 C176 1.392 . S
C176 H152 0.949 . S
C176 C171 1.382 . S
C176 C175 1.392 . S
C177 C178 1.376 . S
C177 C182 1.386 . S
C177 C183 1.483 . S
C178 H153 0.949 . S
C178 C177 1.376 . S
C178 C179 1.397 . S
C179 H154 0.950 . S
C179 C178 1.397 . S
C179 C180 1.391 . S
C180 C179 1.391 . S
C180 C181 1.405 . S
C181 H155 0.950 . S
C181 C180 1.405 . S
C181 C182 1.367 . S
C182 H156 0.950 . S
C182 C177 1.386 . S
C182 C181 1.367 . S
C183 C177 1.483 . S
C183 C184 1.382 . S
C183 C185 1.403 . S
C184 H157 0.950 . S
C184 C170 1.411 1_545 S
C184 C183 1.382 . S
C185 C169 1.411 1_545 S
C185 C183 1.403 . S
C185 C186 1.489 . S
C186 C185 1.489 . S
C186 C187 1.383 . S
C186 C191 1.382 . S
C187 H158 0.950 . S
C187 C186 1.383 . S
C187 C188 1.395 . S
C188 H159 0.950 . S
C188 C187 1.395 . S
C188 C189 1.288 . S
C189 C188 1.288 . S
C189 C190 1.392 . S
C190 H160 0.951 . S
C190 C189 1.392 . S
C190 C191 1.392 . S
C191 H161 0.949 . S
C191 C186 1.382 . S
C191 C190 1.392 . S
H192 C211 0.949 . S
H193 C212 0.950 . S
H194 C214 0.950 . S
H195 C215 0.950 . S
H196 C217 0.950 . S
H197 C220 0.950 . S
H198 C221 0.950 . S
H199 C223 0.951 . S
H200 C224 0.949 . S
H201 C226 0.949 . S
H202 C227 0.950 . S
H203 C229 0.950 . S
H204 C230 0.950 . S
H205 C232 0.950 . S
H206 C235 0.950 . S
H207 C236 0.950 . S
H208 C238 0.951 . S
H209 C239 0.949 . S
C210 C211 1.376 . S
C210 C215 1.386 . S
C210 C216 1.483 . S
C211 H192 0.949 . S
C211 C210 1.376 . S
C211 C212 1.397 . S
C212 H193 0.950 . S
C212 C211 1.397 . S
C212 C213 1.391 . S
C213 C212 1.391 . S
C213 C214 1.405 . S
C214 H194 0.950 . S
C214 C213 1.405 . S
C214 C215 1.367 . S
C215 H195 0.950 . S
C215 C210 1.386 . S
C215 C214 1.367 . S
C216 C210 1.483 . S
C216 C217 1.382 1_455 S
C216 C218 1.403 . S
C217 H196 0.950 . S
C217 C216 1.382 1_655 S
C217 C233 1.411 . S
C218 C216 1.403 . S
C218 C219 1.489 . S
C218 C232 1.411 . S
C219 C218 1.489 . S
C219 C220 1.383 . S
C219 C224 1.382 . S
C220 H197 0.950 . S
C220 C219 1.383 . S
C220 C221 1.395 . S
C221 H198 0.950 . S
C221 C220 1.395 . S
C221 C222 1.288 . S
C222 C221 1.288 . S
C222 C223 1.392 . S
C223 H199 0.951 . S
C223 C222 1.392 . S
C223 C224 1.392 . S
C224 H200 0.949 . S
C224 C219 1.382 . S
C224 C223 1.392 . S
C225 C226 1.376 . S
C225 C230 1.386 . S
C225 C231 1.483 . S
C226 H201 0.949 . S
C226 C225 1.376 . S
C226 C227 1.397 . S
C227 H202 0.950 . S
C227 C226 1.397 . S
C227 C228 1.391 . S
C228 C227 1.391 . S
C228 C229 1.405 . S
C229 H203 0.950 . S
C229 C228 1.405 . S
C229 C230 1.367 . S
C230 H204 0.950 . S
C230 C225 1.386 . S
C230 C229 1.367 . S
C231 C225 1.483 . S
C231 C232 1.382 1_655 S
C231 C233 1.403 . S
C232 H205 0.950 . S
C232 C218 1.411 . S
C232 C231 1.382 1_455 S
C233 C217 1.411 . S
C233 C231 1.403 . S
C233 C234 1.489 . S
C234 C233 1.489 . S
C234 C235 1.383 . S
C234 C239 1.382 . S
C235 H206 0.950 . S
C235 C234 1.383 . S
C235 C236 1.395 . S
C236 H207 0.950 . S
C236 C235 1.395 . S
C236 C237 1.288 . S
C237 C236 1.288 . S
C237 C238 1.392 . S
C238 H208 0.951 . S
C238 C237 1.392 . S
C238 C239 1.392 . S
C239 H209 0.949 . S
C239 C234 1.382 . S
C239 C238 1.392 . S
H240 C259 0.949 . S
H241 C260 0.950 . S
H242 C262 0.950 . S
H243 C263 0.950 . S
H244 C265 0.950 . S
H245 C268 0.950 . S
H246 C269 0.950 . S
H247 C271 0.951 . S
H248 C272 0.949 . S
H249 C274 0.949 . S
H250 C275 0.950 . S
H251 C277 0.950 . S
H252 C278 0.950 . S
H253 C280 0.950 . S
H254 C283 0.950 . S
H255 C284 0.950 . S
H256 C286 0.951 . S
H257 C287 0.949 . S
C258 C259 1.376 . S
C258 C263 1.386 . S
C258 C264 1.483 . S
C259 H240 0.949 . S
C259 C258 1.376 . S
C259 C260 1.397 . S
C260 H241 0.950 . S
C260 C259 1.397 . S
C260 C261 1.391 . S
C261 C260 1.391 . S
C261 C262 1.405 . S
C262 H242 0.950 . S
C262 C261 1.405 . S
C262 C263 1.367 . S
C263 H243 0.950 . S
C263 C258 1.386 . S
C263 C262 1.367 . S
C264 C258 1.483 . S
C264 C265 1.382 . S
C264 C266 1.403 . S
C265 H244 0.950 . S
C265 C264 1.382 . S
C265 C281 1.411 . S
C266 C264 1.403 . S
C266 C267 1.489 . S
C266 C280 1.411 . S
C267 C266 1.489 . S
C267 C268 1.383 . S
C267 C272 1.382 . S
C268 H245 0.950 . S
C268 C267 1.383 . S
C268 C269 1.395 . S
C269 H246 0.950 . S
C269 C268 1.395 . S
C269 C270 1.288 . S
C270 C269 1.288 . S
C270 C271 1.392 . S
C271 H247 0.951 . S
C271 C270 1.392 . S
C271 C272 1.392 . S
C272 H248 0.949 . S
C272 C267 1.382 . S
C272 C271 1.392 . S
C273 C274 1.376 . S
C273 C278 1.386 . S
C273 C279 1.483 . S
C274 H249 0.949 . S
C274 C273 1.376 . S
C274 C275 1.397 . S
C275 H250 0.950 . S
C275 C274 1.397 . S
C275 C276 1.391 . S
C276 C275 1.391 . S
C276 C277 1.405 . S
C277 H251 0.950 . S
C277 C276 1.405 . S
C277 C278 1.367 . S
C278 H252 0.950 . S
C278 C273 1.386 . S
C278 C277 1.367 . S
C279 C273 1.483 . S
C279 C280 1.382 . S
C279 C281 1.403 . S
C280 H253 0.950 . S
C280 C266 1.411 . S
C280 C279 1.382 . S
C281 C265 1.411 . S
C281 C279 1.403 . S
C281 C282 1.489 . S
C282 C281 1.489 . S
C282 C283 1.383 . S
C282 C287 1.382 . S
C283 H254 0.950 . S
C283 C282 1.383 . S
C283 C284 1.395 . S
C284 H255 0.950 . S
C284 C283 1.395 . S
C284 C285 1.288 . S
C285 C284 1.288 . S
C285 C286 1.392 . S
C286 H256 0.951 . S
C286 C285 1.392 . S
C286 C287 1.392 . S
C287 H257 0.949 . S
C287 C282 1.382 . S
C287 C286 1.392 . S
H288 C307 0.949 . S
H289 C308 0.950 . S
H290 C310 0.950 . S
H291 C311 0.950 . S
H292 C313 0.950 . S
H293 C316 0.950 . S
H294 C317 0.950 . S
H295 C319 0.951 . S
H296 C320 0.949 1_545 S
H297 C322 0.949 . S
H298 C323 0.950 . S
H299 C325 0.950 . S
H300 C326 0.950 . S
H301 C328 0.950 . S
H302 C331 0.950 . S
H303 C332 0.950 . S
H304 C334 0.951 . S
H305 C335 0.949 1_565 S
C306 C307 1.376 . S
C306 C311 1.386 . S
C306 C312 1.483 . S
C307 H288 0.949 . S
C307 C306 1.376 . S
C307 C308 1.397 . S
C308 H289 0.950 . S
C308 C307 1.397 . S
C308 C309 1.391 . S
C309 C308 1.391 . S
C309 C310 1.405 . S
C310 H290 0.950 . S
C310 C309 1.405 . S
C310 C311 1.367 . S
C311 H291 0.950 . S
C311 C306 1.386 . S
C311 C310 1.367 . S
C312 C306 1.483 . S
C312 C313 1.382 . S
C312 C314 1.403 . S
C313 H292 0.950 . S
C313 C312 1.382 . S
C313 C329 1.411 1_565 S
C314 C312 1.403 . S
C314 C315 1.489 . S
C314 C328 1.411 1_565 S
C315 C314 1.489 . S
C315 C316 1.383 . S
C315 C320 1.382 . S
C316 H293 0.950 . S
C316 C315 1.383 . S
C316 C317 1.395 . S
C317 H294 0.950 . S
C317 C316 1.395 . S
C317 C318 1.288 . S
C318 C317 1.288 . S
C318 C319 1.392 . S
C319 H295 0.951 . S
C319 C318 1.392 . S
C319 C320 1.392 . S
C320 H296 0.949 1_565 S
C320 C315 1.382 . S
C320 C319 1.392 . S
C321 C322 1.376 . S
C321 C326 1.386 . S
C321 C327 1.483 . S
C322 H297 0.949 . S
C322 C321 1.376 . S
C322 C323 1.397 . S
C323 H298 0.950 . S
C323 C322 1.397 . S
C323 C324 1.391 . S
C324 C323 1.391 . S
C324 C325 1.405 . S
C325 H299 0.950 . S
C325 C324 1.405 . S
C325 C326 1.367 . S
C326 H300 0.950 . S
C326 C321 1.386 . S
C326 C325 1.367 . S
C327 C321 1.483 . S
C327 C328 1.382 . S
C327 C329 1.403 . S
C328 H301 0.950 . S
C328 C314 1.411 1_545 S
C328 C327 1.382 . S
C329 C313 1.411 1_545 S
C329 C327 1.403 . S
C329 C330 1.489 . S
C330 C329 1.489 . S
C330 C331 1.383 . S
C330 C335 1.382 . S
C331 H302 0.950 . S
C331 C330 1.383 . S
C331 C332 1.395 . S
C332 H303 0.950 . S
C332 C331 1.395 . S
C332 C333 1.288 . S
C333 C332 1.288 . S
C333 C334 1.392 . S
C334 H304 0.951 . S
C334 C333 1.392 . S
C334 C335 1.392 . S
C335 H305 0.949 1_545 S
C335 C330 1.382 . S
C335 C334 1.392 . S
H336 C355 0.949 1_455 S
H337 C356 0.950 . S
H338 C358 0.950 . S
H339 C359 0.950 . S
H340 C361 0.950 . S
H341 C364 0.950 . S
H342 C365 0.950 . S
H343 C367 0.951 . S
H344 C368 0.949 . S
H345 C370 0.949 1_655 S
H346 C371 0.950 . S
H347 C373 0.950 . S
H348 C374 0.950 . S
H349 C376 0.950 . S
H350 C379 0.950 . S
H351 C380 0.950 . S
H352 C382 0.951 . S
H353 C383 0.949 . S
C354 C355 1.376 . S
C354 C359 1.386 . S
C354 C360 1.483 . S
C355 H336 0.949 1_655 S
C355 C354 1.376 . S
C355 C356 1.397 . S
C356 H337 0.950 . S
C356 C355 1.397 . S
C356 C357 1.391 . S
C357 C356 1.391 . S
C357 C358 1.405 . S
C358 H338 0.950 . S
C358 C357 1.405 . S
C358 C359 1.367 . S
C359 H339 0.950 . S
C359 C354 1.386 . S
C359 C358 1.367 . S
C360 C354 1.483 . S
C360 C361 1.382 1_655 S
C360 C362 1.403 . S
C361 H340 0.950 . S
C361 C360 1.382 1_455 S
C361 C377 1.411 1_545 S
C362 C360 1.403 . S
C362 C363 1.489 . S
C362 C376 1.411 1_545 S
C363 C362 1.489 . S
C363 C364 1.383 . S
C363 C368 1.382 . S
C364 H341 0.950 . S
C364 C363 1.383 . S
C364 C365 1.395 . S
C365 H342 0.950 . S
C365 C364 1.395 . S
C365 C366 1.288 . S
C366 C365 1.288 . S
C366 C367 1.392 . S
C367 H343 0.951 . S
C367 C366 1.392 . S
C367 C368 1.392 . S
C368 H344 0.949 . S
C368 C363 1.382 . S
C368 C367 1.392 . S
C369 C370 1.376 . S
C369 C374 1.386 . S
C369 C375 1.483 . S
C370 H345 0.949 1_455 S
C370 C369 1.376 . S
C370 C371 1.397 . S
C371 H346 0.950 . S
C371 C370 1.397 . S
C371 C372 1.391 . S
C372 C371 1.391 . S
C372 C373 1.405 . S
C373 H347 0.950 . S
C373 C372 1.405 . S
C373 C374 1.367 . S
C374 H348 0.950 . S
C374 C369 1.386 . S
C374 C373 1.367 . S
C375 C369 1.483 . S
C375 C376 1.382 1_455 S
C375 C377 1.403 . S
C376 H349 0.950 . S
C376 C362 1.411 1_565 S
C376 C375 1.382 1_655 S
C377 C361 1.411 1_565 S
C377 C375 1.403 . S
C377 C378 1.489 . S
C378 C377 1.489 . S
C378 C379 1.383 . S
C378 C383 1.382 . S
C379 H350 0.950 . S
C379 C378 1.383 . S
C379 C380 1.395 . S
C380 H351 0.950 . S
C380 C379 1.395 . S
C380 C381 1.288 . S
C381 C380 1.288 . S
C381 C382 1.392 . S
C382 H352 0.951 . S
C382 C381 1.392 . S
C382 C383 1.392 . S
C383 H353 0.949 . S
C383 C378 1.382 . S
C383 C382 1.392 . S
In384 O385 2.294 . S
In384 O386 2.326 . S
In384 O390 2.266 1_554 S
In384 O391 2.326 1_554 S
In384 O392 2.266 1_554 S
In384 O393 2.326 1_554 S
In384 O395 2.294 . S
In384 O396 2.326 . S
O385 In384 2.294 . S
O385 C394 1.240 . S
O386 In384 2.326 . S
O386 C394 1.252 . S
C387 O390 1.252 . S
C387 O391 1.260 . S
C388 O395 1.240 . S
C388 O396 1.252 . S
C389 O392 1.252 . S
C389 O393 1.260 . S
O390 In384 2.266 1_556 S
O390 C387 1.252 . S
O391 In384 2.326 1_556 S
O391 C387 1.260 . S
O392 In384 2.266 1_556 S
O392 C389 1.252 . S
O393 In384 2.326 1_556 S
O393 C389 1.260 . S
C394 O385 1.240 . S
C394 O386 1.252 . S
O395 In384 2.294 . S
O395 C388 1.240 . S
O396 In384 2.326 . S
O396 C388 1.252 . S
In397 O398 2.294 . S
In397 O399 2.326 . S
In397 O403 2.266 . S
In397 O404 2.326 . S
In397 O405 2.266 . S
In397 O406 2.326 . S
In397 O408 2.294 . S
In397 O409 2.326 . S
O398 In397 2.294 . S
O398 C407 1.240 . S
O399 In397 2.326 . S
O399 C407 1.252 . S
C400 O403 1.252 . S
C400 O404 1.260 . S
C401 O408 1.240 . S
C401 O409 1.252 . S
C402 O405 1.252 . S
C402 O406 1.260 . S
O403 In397 2.266 . S
O403 C400 1.252 . S
O404 In397 2.326 . S
O404 C400 1.260 . S
O405 In397 2.266 . S
O405 C402 1.252 . S
O406 In397 2.326 . S
O406 C402 1.260 . S
C407 O398 1.240 . S
C407 O399 1.252 . S
O408 In397 2.294 . S
O408 C401 1.240 . S
O409 In397 2.326 . S
O409 C401 1.252 . S
In410 O411 2.294 . S
In410 O412 2.326 . S
In410 O416 2.266 . S
In410 O417 2.326 . S
In410 O418 2.266 . S
In410 O419 2.326 . S
In410 O421 2.294 . S
In410 O422 2.326 . S
O411 In410 2.294 . S
O411 C420 1.240 . S
O412 In410 2.326 . S
O412 C420 1.252 . S
C413 O416 1.252 . S
C413 O417 1.260 . S
C414 O421 1.240 . S
C414 O422 1.252 . S
C415 O418 1.252 . S
C415 O419 1.260 . S
O416 In410 2.266 . S
O416 C413 1.252 . S
O417 In410 2.326 . S
O417 C413 1.260 . S
O418 In410 2.266 . S
O418 C415 1.252 . S
O419 In410 2.326 . S
O419 C415 1.260 . S
C420 O411 1.240 . S
C420 O412 1.252 . S
O421 In410 2.294 . S
O421 C414 1.240 . S
O422 In410 2.326 . S
O422 C414 1.252 . S
In423 O424 2.294 . S
In423 O425 2.326 . S
In423 O429 2.266 . S
In423 O430 2.326 . S
In423 O431 2.266 . S
In423 O432 2.326 . S
In423 O434 2.294 . S
In423 O435 2.326 . S
O424 In423 2.294 . S
O424 C433 1.240 . S
O425 In423 2.326 . S
O425 C433 1.252 . S
C426 O429 1.252 . S
C426 O430 1.260 . S
C427 O434 1.240 . S
C427 O435 1.252 . S
C428 O431 1.252 . S
C428 O432 1.260 . S
O429 In423 2.266 . S
O429 C426 1.252 . S
O430 In423 2.326 . S
O430 C426 1.260 . S
O431 In423 2.266 . S
O431 C428 1.252 . S
O432 In423 2.326 . S
O432 C428 1.260 . S
C433 O424 1.240 . S
C433 O425 1.252 . S
O434 In423 2.294 . S
O434 C427 1.240 . S
O435 In423 2.326 . S
O435 C427 1.252 . S
In436 O437 2.294 . S
In436 O438 2.326 . S
In436 O442 2.266 . S
In436 O443 2.326 . S
In436 O444 2.266 . S
In436 O445 2.326 . S
In436 O447 2.294 . S
In436 O448 2.326 . S
O437 In436 2.294 . S
O437 C446 1.240 . S
O438 In436 2.326 . S
O438 C446 1.252 . S
C439 O442 1.252 . S
C439 O443 1.260 . S
C440 O447 1.240 . S
C440 O448 1.252 . S
C441 O444 1.252 . S
C441 O445 1.260 . S
O442 In436 2.266 . S
O442 C439 1.252 . S
O443 In436 2.326 . S
O443 C439 1.260 . S
O444 In436 2.266 . S
O444 C441 1.252 . S
O445 In436 2.326 . S
O445 C441 1.260 . S
C446 O437 1.240 . S
C446 O438 1.252 . S
O447 In436 2.294 . S
O447 C440 1.240 . S
O448 In436 2.326 . S
O448 C440 1.252 . S
In449 O450 2.294 . S
In449 O451 2.326 . S
In449 O455 2.266 . S
In449 O456 2.326 . S
In449 O457 2.266 . S
In449 O458 2.326 . S
In449 O460 2.294 . S
In449 O461 2.326 . S
O450 In449 2.294 . S
O450 C459 1.240 . S
O451 In449 2.326 . S
O451 C459 1.252 . S
C452 O455 1.252 . S
C452 O456 1.260 . S
C453 O460 1.240 . S
C453 O461 1.252 . S
C454 O457 1.252 . S
C454 O458 1.260 . S
O455 In449 2.266 . S
O455 C452 1.252 . S
O456 In449 2.326 . S
O456 C452 1.260 . S
O457 In449 2.266 . S
O457 C454 1.252 . S
O458 In449 2.326 . S
O458 C454 1.260 . S
C459 O450 1.240 . S
C459 O451 1.252 . S
O460 In449 2.294 . S
O460 C453 1.240 . S
O461 In449 2.326 . S
O461 C453 1.252 . S
In462 O463 2.294 . S
In462 O464 2.326 . S
In462 O468 2.266 1_554 S
In462 O469 2.326 1_554 S
In462 O470 2.266 1_554 S
In462 O471 2.326 1_554 S
In462 O473 2.294 . S
In462 O474 2.326 . S
O463 In462 2.294 . S
O463 C472 1.240 . S
O464 In462 2.326 . S
O464 C472 1.252 . S
C465 O468 1.252 . S
C465 O469 1.260 . S
C466 O473 1.240 . S
C466 O474 1.252 . S
C467 O470 1.252 . S
C467 O471 1.260 . S
O468 In462 2.266 1_556 S
O468 C465 1.252 . S
O469 In462 2.326 1_556 S
O469 C465 1.260 . S
O470 In462 2.266 1_556 S
O470 C467 1.252 . S
O471 In462 2.326 1_556 S
O471 C467 1.260 . S
C472 O463 1.240 . S
C472 O464 1.252 . S
O473 In462 2.294 . S
O473 C466 1.240 . S
O474 In462 2.326 . S
O474 C466 1.252 . S
In475 O476 2.294 . S
In475 O477 2.326 . S
In475 O481 2.266 . S
In475 O482 2.326 . S
In475 O483 2.266 . S
In475 O484 2.326 . S
In475 O486 2.294 . S
In475 O487 2.326 . S
O476 In475 2.294 . S
O476 C485 1.240 . S
O477 In475 2.326 . S
O477 C485 1.252 . S
C478 O481 1.252 . S
C478 O482 1.260 . S
C479 O486 1.240 . S
C479 O487 1.252 . S
C480 O483 1.252 . S
C480 O484 1.260 . S
O481 In475 2.266 . S
O481 C478 1.252 . S
O482 In475 2.326 . S
O482 C478 1.260 . S
O483 In475 2.266 . S
O483 C480 1.252 . S
O484 In475 2.326 . S
O484 C480 1.260 . S
C485 O476 1.240 . S
C485 O477 1.252 . S
O486 In475 2.294 . S
O486 C479 1.240 . S
O487 In475 2.326 . S
O487 C479 1.252 . S
C488 C489 1.363 . S
C488 C494 1.379 . S
C488 N496 1.356 . S
C489 C488 1.363 . S
C489 C495 1.363 . S
C490 C491 1.363 . S
C490 C495 1.379 . S
C490 N497 1.356 . S
C491 C490 1.363 . S
C491 C494 1.363 . S
N492 C494 1.356 . S
N492 H504 0.984 . S
N492 H505 0.985 . S
N493 C495 1.356 . S
N493 H498 0.984 . S
N493 H499 0.985 . S
C494 C488 1.379 . S
C494 C491 1.363 . S
C494 N492 1.356 . S
C495 C489 1.363 . S
C495 C490 1.379 . S
C495 N493 1.356 . S
N496 C488 1.356 . S
N496 H502 0.984 . S
N496 H503 0.984 . S
N497 C490 1.356 . S
N497 H500 0.984 . S
N497 H501 0.985 . S
H498 N493 0.984 . S
H499 N493 0.985 . S
H500 N497 0.984 . S
H501 N497 0.985 . S
H502 N496 0.984 . S
H503 N496 0.984 . S
H504 N492 0.984 . S
H505 N492 0.985 . S
C506 C507 1.363 . S
C506 C512 1.379 . S
C506 N514 1.356 . S
C507 C506 1.363 . S
C507 C513 1.363 . S
C508 C509 1.363 . S
C508 C513 1.379 . S
C508 N515 1.356 . S
C509 C508 1.363 . S
C509 C512 1.363 . S
N510 C512 1.356 . S
N510 H522 0.984 . S
N510 H523 0.985 . S
N511 C513 1.356 . S
N511 H516 0.984 . S
N511 H517 0.985 . S
C512 C506 1.379 . S
C512 C509 1.363 . S
C512 N510 1.356 . S
C513 C507 1.363 . S
C513 C508 1.379 . S
C513 N511 1.356 . S
N514 C506 1.356 . S
N514 H520 0.984 . S
N514 H521 0.984 . S
N515 C508 1.356 . S
N515 H518 0.984 . S
N515 H519 0.985 . S
H516 N511 0.984 . S
H517 N511 0.985 . S
H518 N515 0.984 . S
H519 N515 0.985 . S
H520 N514 0.984 . S
H521 N514 0.984 . S
H522 N510 0.984 . S
H523 N510 0.985 . S
C524 C525 1.363 . S
C524 C530 1.379 . S
C524 N532 1.356 . S
C525 C524 1.363 . S
C525 C531 1.363 . S
C526 C527 1.363 . S
C526 C531 1.379 . S
C526 N533 1.356 . S
C527 C526 1.363 . S
C527 C530 1.363 . S
N528 C530 1.356 . S
N528 H540 0.984 . S
N528 H541 0.985 . S
N529 C531 1.356 . S
N529 H534 0.984 . S
N529 H535 0.985 . S
C530 C524 1.379 . S
C530 C527 1.363 . S
C530 N528 1.356 . S
C531 C525 1.363 . S
C531 C526 1.379 . S
C531 N529 1.356 . S
N532 C524 1.356 . S
N532 H538 0.984 . S
N532 H539 0.984 . S
N533 C526 1.356 . S
N533 H536 0.984 . S
N533 H537 0.985 . S
H534 N529 0.984 . S
H535 N529 0.985 . S
H536 N533 0.984 . S
H537 N533 0.985 . S
H538 N532 0.984 . S
H539 N532 0.984 . S
H540 N528 0.984 . S
H541 N528 0.985 . S
C542 C543 1.363 . S
C542 C548 1.379 . S
C542 N550 1.356 . S
C543 C542 1.363 . S
C543 C549 1.363 . S
C544 C545 1.363 . S
C544 C549 1.379 . S
C544 N551 1.356 1_554 S
C545 C544 1.363 . S
C545 C548 1.363 . S
N546 C548 1.356 . S
N546 H558 0.984 . S
N546 H559 0.985 . S
N547 C549 1.356 . S
N547 H552 0.984 . S
N547 H553 0.985 1_554 S
C548 C542 1.379 . S
C548 C545 1.363 . S
C548 N546 1.356 . S
C549 C543 1.363 . S
C549 C544 1.379 . S
C549 N547 1.356 . S
N550 C542 1.356 . S
N550 H556 0.984 . S
N550 H557 0.984 . S
N551 C544 1.356 1_556 S
N551 H554 0.984 . S
N551 H555 0.985 . S
H552 N547 0.984 . S
H553 N547 0.985 1_556 S
H554 N551 0.984 . S
H555 N551 0.985 . S
H556 N550 0.984 . S
H557 N550 0.984 . S
H558 N546 0.984 . S
H559 N546 0.985 . S
C560 C561 1.363 . S
C560 C566 1.379 . S
C560 N568 1.356 . S
C561 C560 1.363 . S
C561 C567 1.363 . S
C562 C563 1.363 . S
C562 C567 1.379 . S
C562 N569 1.356 1_556 S
C563 C562 1.363 . S
C563 C566 1.363 . S
N564 C566 1.356 . S
N564 H576 0.984 . S
N564 H577 0.985 . S
N565 C567 1.356 1_554 S
N565 H570 0.984 1_554 S
N565 H571 0.985 . S
C566 C560 1.379 . S
C566 C563 1.363 . S
C566 N564 1.356 . S
C567 C561 1.363 . S
C567 C562 1.379 . S
C567 N565 1.356 1_556 S
N568 C560 1.356 . S
N568 H574 0.984 . S
N568 H575 0.984 . S
N569 C562 1.356 1_554 S
N569 H572 0.984 . S
N569 H573 0.985 . S
H570 N565 0.984 1_556 S
H571 N565 0.985 . S
H572 N569 0.984 . S
H573 N569 0.985 . S
H574 N568 0.984 . S
H575 N568 0.984 . S
H576 N564 0.984 . S
H577 N564 0.985 . S
C578 C579 1.363 . S
C578 C584 1.379 . S
C578 N586 1.356 . S
C579 C578 1.363 . S
C579 C585 1.363 . S
C580 C581 1.363 . S
C580 C585 1.379 . S
C580 N587 1.356 . S
C581 C580 1.363 . S
C581 C584 1.363 . S
N582 C584 1.356 . S
N582 H594 0.984 . S
N582 H595 0.985 . S
N583 C585 1.356 . S
N583 H588 0.984 . S
N583 H589 0.985 . S
C584 C578 1.379 . S
C584 C581 1.363 . S
C584 N582 1.356 . S
C585 C579 1.363 . S
C585 C580 1.379 . S
C585 N583 1.356 . S
N586 C578 1.356 . S
N586 H592 0.984 . S
N586 H593 0.984 . S
N587 C580 1.356 . S
N587 H590 0.984 . S
N587 H591 0.985 . S
H588 N583 0.984 . S
H589 N583 0.985 . S
H590 N587 0.984 . S
H591 N587 0.985 . S
H592 N586 0.984 . S
H593 N586 0.984 . S
H594 N582 0.984 . S
H595 N582 0.985 . S
C596 C597 1.363 . S
C596 C602 1.379 . S
C596 N604 1.356 . S
C597 C596 1.363 . S
C597 C603 1.363 . S
C598 C599 1.363 . S
C598 C603 1.379 . S
C598 N605 1.356 . S
C599 C598 1.363 . S
C599 C602 1.363 . S
N600 C602 1.356 . S
N600 H612 0.984 . S
N600 H613 0.985 . S
N601 C603 1.356 . S
N601 H606 0.984 . S
N601 H607 0.985 . S
C602 C596 1.379 . S
C602 C599 1.363 . S
C602 N600 1.356 . S
C603 C597 1.363 . S
C603 C598 1.379 . S
C603 N601 1.356 . S
N604 C596 1.356 . S
N604 H610 0.984 . S
N604 H611 0.984 . S
N605 C598 1.356 . S
N605 H608 0.984 . S
N605 H609 0.985 . S
H606 N601 0.984 . S
H607 N601 0.985 . S
H608 N605 0.984 . S
H609 N605 0.985 . S
H610 N604 0.984 . S
H611 N604 0.984 . S
H612 N600 0.984 . S
H613 N600 0.985 . S
C614 C615 1.363 . S
C614 C620 1.379 . S
C614 N622 1.356 . S
C615 C614 1.363 . S
C615 C621 1.363 . S
C616 C617 1.363 . S
C616 C621 1.379 . S
C616 N623 1.356 . S
C617 C616 1.363 . S
C617 C620 1.363 . S
N618 C620 1.356 . S
N618 H630 0.984 . S
N618 H631 0.985 . S
N619 C621 1.356 . S
N619 H624 0.984 . S
N619 H625 0.985 . S
C620 C614 1.379 . S
C620 C617 1.363 . S
C620 N618 1.356 . S
C621 C615 1.363 . S
C621 C616 1.379 . S
C621 N619 1.356 . S
N622 C614 1.356 . S
N622 H628 0.984 . S
N622 H629 0.984 . S
N623 C616 1.356 . S
N623 H626 0.984 . S
N623 H627 0.985 . S
H624 N619 0.984 . S
H625 N619 0.985 . S
H626 N623 0.984 . S
H627 N623 0.985 . S
H628 N622 0.984 . S
H629 N622 0.984 . S
H630 N618 0.984 . S
H631 N618 0.985 . S
C632 C633 1.363 . S
C632 C638 1.379 . S
C632 N640 1.356 . S
C633 C632 1.363 . S
C633 C639 1.363 . S
C634 C635 1.363 . S
C634 C639 1.379 . S
C634 N641 1.356 . S
C635 C634 1.363 . S
C635 C638 1.363 . S
N636 C638 1.356 . S
N636 H648 0.984 . S
N636 H649 0.985 . S
N637 C639 1.356 . S
N637 H642 0.984 . S
N637 H643 0.985 . S
C638 C632 1.379 . S
C638 C635 1.363 . S
C638 N636 1.356 . S
C639 C633 1.363 . S
C639 C634 1.379 . S
C639 N637 1.356 . S
N640 C632 1.356 . S
N640 H646 0.984 . S
N640 H647 0.984 . S
N641 C634 1.356 . S
N641 H644 0.984 . S
N641 H645 0.985 . S
H642 N637 0.984 . S
H643 N637 0.985 . S
H644 N641 0.984 . S
H645 N641 0.985 . S
H646 N640 0.984 . S
H647 N640 0.984 . S
H648 N636 0.984 . S
H649 N636 0.985 . S
C650 C651 1.363 . S
C650 C656 1.379 . S
C650 N658 1.356 . S
C651 C650 1.363 . S
C651 C657 1.363 . S
C652 C653 1.363 . S
C652 C657 1.379 . S
C652 N659 1.356 . S
C653 C652 1.363 . S
C653 C656 1.363 . S
N654 C656 1.356 . S
N654 H666 0.984 . S
N654 H667 0.985 . S
N655 C657 1.356 . S
N655 H660 0.984 . S
N655 H661 0.985 . S
C656 C650 1.379 . S
C656 C653 1.363 . S
C656 N654 1.356 . S
C657 C651 1.363 . S
C657 C652 1.379 . S
C657 N655 1.356 . S
N658 C650 1.356 . S
N658 H664 0.984 . S
N658 H665 0.984 . S
N659 C652 1.356 . S
N659 H662 0.984 . S
N659 H663 0.985 . S
H660 N655 0.984 . S
H661 N655 0.985 . S
H662 N659 0.984 . S
H663 N659 0.985 . S
H664 N658 0.984 . S
H665 N658 0.984 . S
H666 N654 0.984 . S
H667 N654 0.985 . S
C668 C669 1.363 . S
C668 C674 1.379 . S
C668 N676 1.356 . S
C669 C668 1.363 . S
C669 C675 1.363 . S
C670 C671 1.363 . S
C670 C675 1.379 . S
C670 N677 1.356 . S
C671 C670 1.363 . S
C671 C674 1.363 . S
N672 C674 1.356 . S
N672 H684 0.984 . S
N672 H685 0.985 . S
N673 C675 1.356 . S
N673 H678 0.984 . S
N673 H679 0.985 . S
C674 C668 1.379 . S
C674 C671 1.363 . S
C674 N672 1.356 . S
C675 C669 1.363 . S
C675 C670 1.379 . S
C675 N673 1.356 . S
N676 C668 1.356 . S
N676 H682 0.984 . S
N676 H683 0.984 . S
N677 C670 1.356 . S
N677 H680 0.984 . S
N677 H681 0.985 . S
H678 N673 0.984 . S
H679 N673 0.985 . S
H680 N677 0.984 . S
H681 N677 0.985 . S
H682 N676 0.984 . S
H683 N676 0.984 . S
H684 N672 0.984 . S
H685 N672 0.985 . S
C686 C687 1.363 . S
C686 C692 1.379 . S
C686 N694 1.356 . S
C687 C686 1.363 . S
C687 C693 1.363 . S
C688 C689 1.363 . S
C688 C693 1.379 . S
C688 N695 1.356 . S
C689 C688 1.363 . S
C689 C692 1.363 . S
N690 C692 1.356 . S
N690 H702 0.984 . S
N690 H703 0.985 . S
N691 C693 1.356 . S
N691 H696 0.984 . S
N691 H697 0.985 . S
C692 C686 1.379 . S
C692 C689 1.363 . S
C692 N690 1.356 . S
C693 C687 1.363 . S
C693 C688 1.379 . S
C693 N691 1.356 . S
N694 C686 1.356 . S
N694 H700 0.984 . S
N694 H701 0.984 . S
N695 C688 1.356 . S
N695 H698 0.984 . S
N695 H699 0.985 . S
H696 N691 0.984 . S
H697 N691 0.985 . S
H698 N695 0.984 . S
H699 N695 0.985 . S
H700 N694 0.984 . S
H701 N694 0.984 . S
H702 N690 0.984 . S
H703 N690 0.985 . S
C704 C705 1.363 . S
C704 C710 1.379 . S
C704 N712 1.356 . S
C705 C704 1.363 . S
C705 C711 1.363 . S
C706 C707 1.363 . S
C706 C711 1.379 . S
C706 N713 1.356 . S
C707 C706 1.363 . S
C707 C710 1.363 . S
N708 C710 1.356 . S
N708 H720 0.984 . S
N708 H721 0.985 . S
N709 C711 1.356 . S
N709 H714 0.984 . S
N709 H715 0.985 . S
C710 C704 1.379 . S
C710 C707 1.363 . S
C710 N708 1.356 . S
C711 C705 1.363 . S
C711 C706 1.379 . S
C711 N709 1.356 . S
N712 C704 1.356 . S
N712 H718 0.984 . S
N712 H719 0.984 . S
N713 C706 1.356 . S
N713 H716 0.984 . S
N713 H717 0.985 . S
H714 N709 0.984 . S
H715 N709 0.985 . S
H716 N713 0.984 . S
H717 N713 0.985 . S
H718 N712 0.984 . S
H719 N712 0.984 . S
H720 N708 0.984 . S
H721 N708 0.985 . S
C722 C723 1.363 . S
C722 C728 1.379 . S
C722 N730 1.356 . S
C723 C722 1.363 . S
C723 C729 1.363 . S
C724 C725 1.363 . S
C724 C729 1.379 . S
C724 N731 1.356 . S
C725 C724 1.363 . S
C725 C728 1.363 . S
N726 C728 1.356 . S
N726 H738 0.984 . S
N726 H739 0.985 . S
N727 C729 1.356 . S
N727 H732 0.984 . S
N727 H733 0.985 . S
C728 C722 1.379 . S
C728 C725 1.363 . S
C728 N726 1.356 . S
C729 C723 1.363 . S
C729 C724 1.379 . S
C729 N727 1.356 . S
N730 C722 1.356 . S
N730 H736 0.984 . S
N730 H737 0.984 . S
N731 C724 1.356 . S
N731 H734 0.984 . S
N731 H735 0.985 . S
H732 N727 0.984 . S
H733 N727 0.985 . S
H734 N731 0.984 . S
H735 N731 0.985 . S
H736 N730 0.984 . S
H737 N730 0.984 . S
H738 N726 0.984 . S
H739 N726 0.985 . S
C740 C741 1.363 . S
C740 C746 1.379 . S
C740 N748 1.356 . S
C741 C740 1.363 . S
C741 C747 1.363 . S
C742 C743 1.363 . S
C742 C747 1.379 . S
C742 N749 1.356 1_556 S
C743 C742 1.363 . S
C743 C746 1.363 . S
N744 C746 1.356 . S
N744 H756 0.984 . S
N744 H757 0.985 . S
N745 C747 1.356 1_554 S
N745 H750 0.984 1_554 S
N745 H751 0.985 . S
C746 C740 1.379 . S
C746 C743 1.363 . S
C746 N744 1.356 . S
C747 C741 1.363 . S
C747 C742 1.379 . S
C747 N745 1.356 1_556 S
N748 C740 1.356 . S
N748 H754 0.984 . S
N748 H755 0.984 . S
N749 C742 1.356 1_554 S
N749 H752 0.984 . S
N749 H753 0.985 . S
H750 N745 0.984 1_556 S
H751 N745 0.985 . S
H752 N749 0.984 . S
H753 N749 0.985 . S
H754 N748 0.984 . S
H755 N748 0.984 . S
H756 N744 0.984 . S
H757 N744 0.985 . S
C758 C759 1.363 . S
C758 C764 1.379 . S
C758 N766 1.356 . S
C759 C758 1.363 . S
C759 C765 1.363 . S
C760 C761 1.363 . S
C760 C765 1.379 . S
C760 N767 1.356 . S
C761 C760 1.363 . S
C761 C764 1.363 . S
N762 C764 1.356 . S
N762 H774 0.984 . S
N762 H775 0.985 . S
N763 C765 1.356 . S
N763 H768 0.984 . S
N763 H769 0.985 . S
C764 C758 1.379 . S
C764 C761 1.363 . S
C764 N762 1.356 . S
C765 C759 1.363 . S
C765 C760 1.379 . S
C765 N763 1.356 . S
N766 C758 1.356 . S
N766 H772 0.984 . S
N766 H773 0.984 . S
N767 C760 1.356 . S
N767 H770 0.984 . S
N767 H771 0.985 . S
H768 N763 0.984 . S
H769 N763 0.985 . S
H770 N767 0.984 . S
H771 N767 0.985 . S
H772 N766 0.984 . S
H773 N766 0.984 . S
H774 N762 0.984 . S
H775 N762 0.985 . S
C776 C777 1.363 . S
C776 C782 1.379 . S
C776 N784 1.356 . S
C777 C776 1.363 . S
C777 C783 1.363 . S
C778 C779 1.363 . S
C778 C783 1.379 . S
C778 N785 1.356 . S
C779 C778 1.363 . S
C779 C782 1.363 . S
N780 C782 1.356 . S
N780 H792 0.984 . S
N780 H793 0.985 . S
N781 C783 1.356 . S
N781 H786 0.984 . S
N781 H787 0.985 . S
C782 C776 1.379 . S
C782 C779 1.363 . S
C782 N780 1.356 . S
C783 C777 1.363 . S
C783 C778 1.379 . S
C783 N781 1.356 . S
N784 C776 1.356 . S
N784 H790 0.984 . S
N784 H791 0.984 . S
N785 C778 1.356 . S
N785 H788 0.984 . S
N785 H789 0.985 . S
H786 N781 0.984 . S
H787 N781 0.985 . S
H788 N785 0.984 . S
H789 N785 0.985 . S
H790 N784 0.984 . S
H791 N784 0.984 . S
H792 N780 0.984 . S
H793 N780 0.985 . S
C794 C795 1.363 . S
C794 C800 1.379 . S
C794 N802 1.356 . S
C795 C794 1.363 . S
C795 C801 1.363 . S
C796 C797 1.363 . S
C796 C801 1.379 . S
C796 N803 1.356 . S
C797 C796 1.363 . S
C797 C800 1.363 . S
N798 C800 1.356 . S
N798 H810 0.984 . S
N798 H811 0.985 . S
N799 C801 1.356 . S
N799 H804 0.984 . S
N799 H805 0.985 . S
C800 C794 1.379 . S
C800 C797 1.363 . S
C800 N798 1.356 . S
C801 C795 1.363 . S
C801 C796 1.379 . S
C801 N799 1.356 . S
N802 C794 1.356 . S
N802 H808 0.984 . S
N802 H809 0.984 . S
N803 C796 1.356 . S
N803 H806 0.984 . S
N803 H807 0.985 . S
H804 N799 0.984 . S
H805 N799 0.985 . S
H806 N803 0.984 . S
H807 N803 0.985 . S
H808 N802 0.984 . S
H809 N802 0.984 . S
H810 N798 0.984 . S
H811 N798 0.985 . S
C812 C813 1.363 . S
C812 C818 1.379 . S
C812 N820 1.356 . S
C813 C812 1.363 . S
C813 C819 1.363 . S
C814 C815 1.363 . S
C814 C819 1.379 . S
C814 N821 1.356 . S
C815 C814 1.363 . S
C815 C818 1.363 . S
N816 C818 1.356 . S
N816 H828 0.984 . S
N816 H829 0.985 . S
N817 C819 1.356 . S
N817 H822 0.984 . S
N817 H823 0.985 . S
C818 C812 1.379 . S
C818 C815 1.363 . S
C818 N816 1.356 . S
C819 C813 1.363 . S
C819 C814 1.379 . S
C819 N817 1.356 . S
N820 C812 1.356 . S
N820 H826 0.984 . S
N820 H827 0.984 . S
N821 C814 1.356 . S
N821 H824 0.984 . S
N821 H825 0.985 . S
H822 N817 0.984 . S
H823 N817 0.985 . S
H824 N821 0.984 . S
H825 N821 0.985 . S
H826 N820 0.984 . S
H827 N820 0.984 . S
H828 N816 0.984 . S
H829 N816 0.985 . S
C830 C831 1.363 . S
C830 C836 1.379 . S
C830 N838 1.356 . S
C831 C830 1.363 . S
C831 C837 1.363 . S
C832 C833 1.363 . S
C832 C837 1.379 . S
C832 N839 1.356 . S
C833 C832 1.363 . S
C833 C836 1.363 . S
N834 C836 1.356 . S
N834 H846 0.984 . S
N834 H847 0.985 . S
N835 C837 1.356 . S
N835 H840 0.984 . S
N835 H841 0.985 . S
C836 C830 1.379 . S
C836 C833 1.363 . S
C836 N834 1.356 . S
C837 C831 1.363 . S
C837 C832 1.379 . S
C837 N835 1.356 . S
N838 C830 1.356 . S
N838 H844 0.984 . S
N838 H845 0.984 . S
N839 C832 1.356 . S
N839 H842 0.984 . S
N839 H843 0.985 . S
H840 N835 0.984 . S
H841 N835 0.985 . S
H842 N839 0.984 . S
H843 N839 0.985 . S
H844 N838 0.984 . S
H845 N838 0.984 . S
H846 N834 0.984 . S
H847 N834 0.985 . S
C848 C849 1.363 . S
C848 C854 1.379 . S
C848 N856 1.356 . S
C849 C848 1.363 . S
C849 C855 1.363 . S
C850 C851 1.363 . S
C850 C855 1.379 . S
C850 N857 1.356 . S
C851 C850 1.363 . S
C851 C854 1.363 . S
N852 C854 1.356 . S
N852 H864 0.984 . S
N852 H865 0.985 . S
N853 C855 1.356 . S
N853 H858 0.984 . S
N853 H859 0.985 . S
C854 C848 1.379 . S
C854 C851 1.363 . S
C854 N852 1.356 . S
C855 C849 1.363 . S
C855 C850 1.379 . S
C855 N853 1.356 . S
N856 C848 1.356 . S
N856 H862 0.984 . S
N856 H863 0.984 . S
N857 C850 1.356 . S
N857 H860 0.984 . S
N857 H861 0.985 . S
H858 N853 0.984 . S
H859 N853 0.985 . S
H860 N857 0.984 . S
H861 N857 0.985 . S
H862 N856 0.984 . S
H863 N856 0.984 . S
H864 N852 0.984 . S
H865 N852 0.985 . S
C866 C867 1.363 . S
C866 C872 1.379 . S
C866 N874 1.356 . S
C867 C866 1.363 . S
C867 C873 1.363 . S
C868 C869 1.363 . S
C868 C873 1.379 . S
C868 N875 1.356 . S
C869 C868 1.363 . S
C869 C872 1.363 . S
N870 C872 1.356 . S
N870 H882 0.984 . S
N870 H883 0.985 . S
N871 C873 1.356 . S
N871 H876 0.984 . S
N871 H877 0.985 . S
C872 C866 1.379 . S
C872 C869 1.363 . S
C872 N870 1.356 . S
C873 C867 1.363 . S
C873 C868 1.379 . S
C873 N871 1.356 . S
N874 C866 1.356 . S
N874 H880 0.984 . S
N874 H881 0.984 . S
N875 C868 1.356 . S
N875 H878 0.984 . S
N875 H879 0.985 . S
H876 N871 0.984 . S
H877 N871 0.985 . S
H878 N875 0.984 . S
H879 N875 0.985 . S
H880 N874 0.984 . S
H881 N874 0.984 . S
H882 N870 0.984 . S
H883 N870 0.985 . S
C884 C885 1.363 . S
C884 C890 1.379 . S
C884 N892 1.356 . S
C885 C884 1.363 . S
C885 C891 1.363 . S
C886 C887 1.363 . S
C886 C891 1.379 . S
C886 N893 1.356 . S
C887 C886 1.363 . S
C887 C890 1.363 . S
N888 C890 1.356 . S
N888 H900 0.984 . S
N888 H901 0.985 . S
N889 C891 1.356 . S
N889 H894 0.984 . S
N889 H895 0.985 . S
C890 C884 1.379 . S
C890 C887 1.363 . S
C890 N888 1.356 . S
C891 C885 1.363 . S
C891 C886 1.379 . S
C891 N889 1.356 . S
N892 C884 1.356 . S
N892 H898 0.984 . S
N892 H899 0.984 . S
N893 C886 1.356 . S
N893 H896 0.984 . S
N893 H897 0.985 . S
H894 N889 0.984 . S
H895 N889 0.985 . S
H896 N893 0.984 . S
H897 N893 0.985 . S
H898 N892 0.984 . S
H899 N892 0.984 . S
H900 N888 0.984 . S
H901 N888 0.985 . S
C902 C903 1.363 . S
C902 C908 1.379 . S
C902 N910 1.356 . S
C903 C902 1.363 . S
C903 C909 1.363 . S
C904 C905 1.363 . S
C904 C909 1.379 . S
C904 N911 1.356 . S
C905 C904 1.363 . S
C905 C908 1.363 . S
N906 C908 1.356 . S
N906 H918 0.984 . S
N906 H919 0.985 . S
N907 C909 1.356 . S
N907 H912 0.984 . S
N907 H913 0.985 . S
C908 C902 1.379 . S
C908 C905 1.363 . S
C908 N906 1.356 . S
C909 C903 1.363 . S
C909 C904 1.379 . S
C909 N907 1.356 . S
N910 C902 1.356 . S
N910 H916 0.984 . S
N910 H917 0.984 . S
N911 C904 1.356 . S
N911 H914 0.984 . S
N911 H915 0.985 . S
H912 N907 0.984 . S
H913 N907 0.985 . S
H914 N911 0.984 . S
H915 N911 0.985 . S
H916 N910 0.984 . S
H917 N910 0.984 . S
H918 N906 0.984 . S
H919 N906 0.985 . S
C920 C921 1.363 . S
C920 C926 1.379 . S
C920 N928 1.356 . S
C921 C920 1.363 . S
C921 C927 1.363 . S
C922 C923 1.363 . S
C922 C927 1.379 . S
C922 N929 1.356 . S
C923 C922 1.363 . S
C923 C926 1.363 . S
N924 C926 1.356 . S
N924 H936 0.984 . S
N924 H937 0.985 . S
N925 C927 1.356 . S
N925 H930 0.984 . S
N925 H931 0.985 . S
C926 C920 1.379 . S
C926 C923 1.363 . S
C926 N924 1.356 . S
C927 C921 1.363 . S
C927 C922 1.379 . S
C927 N925 1.356 . S
N928 C920 1.356 . S
N928 H934 0.984 . S
N928 H935 0.984 . S
N929 C922 1.356 . S
N929 H932 0.984 . S
N929 H933 0.985 . S
H930 N925 0.984 . S
H931 N925 0.985 . S
H932 N929 0.984 . S
H933 N929 0.985 . S
H934 N928 0.984 . S
H935 N928 0.984 . S
H936 N924 0.984 . S
H937 N924 0.985 . S
C938 C939 1.363 . S
C938 C944 1.379 . S
C938 N946 1.356 . S
C939 C938 1.363 . S
C939 C945 1.363 . S
C940 C941 1.363 . S
C940 C945 1.379 . S
C940 N947 1.356 . S
C941 C940 1.363 . S
C941 C944 1.363 . S
N942 C944 1.356 . S
N942 H954 0.984 . S
N942 H955 0.985 . S
N943 C945 1.356 . S
N943 H948 0.984 . S
N943 H949 0.985 . S
C944 C938 1.379 . S
C944 C941 1.363 . S
C944 N942 1.356 . S
C945 C939 1.363 . S
C945 C940 1.379 . S
C945 N943 1.356 . S
N946 C938 1.356 . S
N946 H952 0.984 . S
N946 H953 0.984 . S
N947 C940 1.356 . S
N947 H950 0.984 . S
N947 H951 0.985 . S
H948 N943 0.984 . S
H949 N943 0.985 . S
H950 N947 0.984 . S
H951 N947 0.985 . S
H952 N946 0.984 . S
H953 N946 0.984 . S
H954 N942 0.984 . S
H955 N942 0.985 . S
C956 C957 1.363 . S
C956 C962 1.379 . S
C956 N964 1.356 . S
C957 C956 1.363 . S
C957 C963 1.363 . S
C958 C959 1.363 . S
C958 C963 1.379 . S
C958 N965 1.356 . S
C959 C958 1.363 . S
C959 C962 1.363 . S
N960 C962 1.356 . S
N960 H972 0.984 . S
N960 H973 0.985 . S
N961 C963 1.356 . S
N961 H966 0.984 . S
N961 H967 0.985 . S
C962 C956 1.379 . S
C962 C959 1.363 . S
C962 N960 1.356 . S
C963 C957 1.363 . S
C963 C958 1.379 . S
C963 N961 1.356 . S
N964 C956 1.356 . S
N964 H970 0.984 . S
N964 H971 0.984 . S
N965 C958 1.356 . S
N965 H968 0.984 . S
N965 H969 0.985 . S
H966 N961 0.984 . S
H967 N961 0.985 . S
H968 N965 0.984 . S
H969 N965 0.985 . S
H970 N964 0.984 . S
H971 N964 0.984 . S
H972 N960 0.984 . S
H973 N960 0.985 . S
C974 C975 1.363 . S
C974 C980 1.379 . S
C974 N982 1.356 . S
C975 C974 1.363 . S
C975 C981 1.363 . S
C976 C977 1.363 . S
C976 C981 1.379 . S
C976 N983 1.356 . S
C977 C976 1.363 . S
C977 C980 1.363 . S
N978 C980 1.356 . S
N978 H990 0.984 . S
N978 H991 0.985 . S
N979 C981 1.356 . S
N979 H984 0.984 . S
N979 H985 0.985 . S
C980 C974 1.379 . S
C980 C977 1.363 . S
C980 N978 1.356 . S
C981 C975 1.363 . S
C981 C976 1.379 . S
C981 N979 1.356 . S
N982 C974 1.356 . S
N982 H988 0.984 . S
N982 H989 0.984 . S
N983 C976 1.356 . S
N983 H986 0.984 . S
N983 H987 0.985 . S
H984 N979 0.984 . S
H985 N979 0.985 . S
H986 N983 0.984 . S
H987 N983 0.985 . S
H988 N982 0.984 . S
H989 N982 0.984 . S
H990 N978 0.984 . S
H991 N978 0.985 . S
C992 C993 1.363 . S
C992 C998 1.379 . S
C992 N1000 1.356 . S
C993 C992 1.363 . S
C993 C999 1.363 . S
C994 C995 1.363 . S
C994 C999 1.379 . S
C994 N1001 1.356 . S
C995 C994 1.363 . S
C995 C998 1.363 . S
N996 C998 1.356 . S
N996 H1008 0.984 . S
N996 H1009 0.985 . S
N997 C999 1.356 . S
N997 H1002 0.984 . S
N997 H1003 0.985 . S
C998 C992 1.379 . S
C998 C995 1.363 . S
C998 N996 1.356 . S
C999 C993 1.363 . S
C999 C994 1.379 . S
C999 N997 1.356 . S
N1000 C992 1.356 . S
N1000 H1006 0.984 . S
N1000 H1007 0.984 . S
N1001 C994 1.356 . S
N1001 H1004 0.984 . S
N1001 H1005 0.985 . S
H1002 N997 0.984 . S
H1003 N997 0.985 . S
H1004 N1001 0.984 . S
H1005 N1001 0.985 . S
H1006 N1000 0.984 . S
H1007 N1000 0.984 . S
H1008 N996 0.984 . S
H1009 N996 0.985 . S
C1010 C1011 1.363 . S
C1010 C1016 1.379 . S
C1010 N1018 1.356 . S
C1011 C1010 1.363 . S
C1011 C1017 1.363 . S
C1012 C1013 1.363 . S
C1012 C1017 1.379 . S
C1012 N1019 1.356 . S
C1013 C1012 1.363 . S
C1013 C1016 1.363 . S
N1014 C1016 1.356 . S
N1014 H1026 0.984 . S
N1014 H1027 0.985 . S
N1015 C1017 1.356 . S
N1015 H1020 0.984 . S
N1015 H1021 0.985 . S
C1016 C1010 1.379 . S
C1016 C1013 1.363 . S
C1016 N1014 1.356 . S
C1017 C1011 1.363 . S
C1017 C1012 1.379 . S
C1017 N1015 1.356 . S
N1018 C1010 1.356 . S
N1018 H1024 0.984 . S
N1018 H1025 0.984 . S
N1019 C1012 1.356 . S
N1019 H1022 0.984 . S
N1019 H1023 0.985 . S
H1020 N1015 0.984 . S
H1021 N1015 0.985 . S
H1022 N1019 0.984 . S
H1023 N1019 0.985 . S
H1024 N1018 0.984 . S
H1025 N1018 0.984 . S
H1026 N1014 0.984 . S
H1027 N1014 0.985 . S
C1028 C1029 1.363 . S
C1028 C1034 1.379 . S
C1028 N1036 1.356 . S
C1029 C1028 1.363 . S
C1029 C1035 1.363 . S
C1030 C1031 1.363 . S
C1030 C1035 1.379 . S
C1030 N1037 1.356 . S
C1031 C1030 1.363 . S
C1031 C1034 1.363 . S
N1032 C1034 1.356 . S
N1032 H1044 0.984 . S
N1032 H1045 0.985 . S
N1033 C1035 1.356 . S
N1033 H1038 0.984 . S
N1033 H1039 0.985 . S
C1034 C1028 1.379 . S
C1034 C1031 1.363 . S
C1034 N1032 1.356 . S
C1035 C1029 1.363 . S
C1035 C1030 1.379 . S
C1035 N1033 1.356 . S
N1036 C1028 1.356 . S
N1036 H1042 0.984 . S
N1036 H1043 0.984 . S
N1037 C1030 1.356 . S
N1037 H1040 0.984 . S
N1037 H1041 0.985 . S
H1038 N1033 0.984 . S
H1039 N1033 0.985 . S
H1040 N1037 0.984 . S
H1041 N1037 0.985 . S
H1042 N1036 0.984 . S
H1043 N1036 0.984 . S
H1044 N1032 0.984 . S
H1045 N1032 0.985 . S
C1046 C1047 1.363 . S
C1046 C1052 1.379 . S
C1046 N1054 1.356 . S
C1047 C1046 1.363 . S
C1047 C1053 1.363 . S
C1048 C1049 1.363 . S
C1048 C1053 1.379 . S
C1048 N1055 1.356 . S
C1049 C1048 1.363 . S
C1049 C1052 1.363 . S
N1050 C1052 1.356 . S
N1050 H1062 0.984 . S
N1050 H1063 0.985 . S
N1051 C1053 1.356 . S
N1051 H1056 0.984 . S
N1051 H1057 0.985 . S
C1052 C1046 1.379 . S
C1052 C1049 1.363 . S
C1052 N1050 1.356 . S
C1053 C1047 1.363 . S
C1053 C1048 1.379 . S
C1053 N1051 1.356 . S
N1054 C1046 1.356 . S
N1054 H1060 0.984 . S
N1054 H1061 0.984 . S
N1055 C1048 1.356 . S
N1055 H1058 0.984 . S
N1055 H1059 0.985 . S
H1056 N1051 0.984 . S
H1057 N1051 0.985 . S
H1058 N1055 0.984 . S
H1059 N1055 0.985 . S
H1060 N1054 0.984 . S
H1061 N1054 0.984 . S
H1062 N1050 0.984 . S
H1063 N1050 0.985 . S
C491 C400 1.430 . S
C489 C36 1.403 . S
C509 C414 1.428 . S
C507 C93 1.414 . S
C527 C427 1.432 . S
C525 C126 1.407 . S
C543 C165 1.401 . S
C545 C394 1.435 . S
C561 C222 1.414 . S
C563 C387 1.439 . S
C579 C261 1.403 . S
C581 C407 1.437 . S
C599 C415 1.429 . S
C597 C318 1.407 . S
C617 C428 1.434 . S
C615 C381 1.421 . S
C633 C132 1.403 . S
C635 C454 1.429 . S
C653 C472 1.428 . S
C651 C189 1.414 . S
C669 C30 1.406 . S
C671 C479 1.431 . S
C689 C446 1.435 . S
C687 C69 1.401 . S
C705 C324 1.411 . S
C707 C439 1.438 . S
C723 C357 1.403 . S
C725 C453 1.437 . S
C743 C465 1.429 . S
C741 C228 1.404 . S
C759 C285 1.422 . S
C761 C480 1.434 . S
C779 C413 1.794 . S
C777 C45 1.798 . S
C797 C426 1.797 . S
C795 C84 1.807 . S
C813 C117 1.788 . S
C815 C389 1.791 . S
C831 C174 1.754 . S
C833 C401 1.780 . S
C849 C213 1.782 . S
C851 C433 1.776 . S
C869 C388 1.778 . S
C867 C270 1.751 . S
C887 C402 1.793 . S
C885 C309 1.790 . S
C905 C420 1.782 . S
C903 C372 1.800 . S
C923 C467 1.795 . S
C921 C141 1.799 . S
C941 C478 1.797 . S
C939 C180 1.807 . S
C957 C21 1.789 . S
C959 C441 1.792 . S
C977 C459 1.780 . S
C975 C78 1.754 . S
C995 C485 1.775 . S
C993 C333 1.787 . S
C1011 C366 1.751 . S
C1013 C440 1.777 . S
C1031 C452 1.791 . S
C1029 C237 1.796 . S
C1049 C466 1.781 . S
C1047 C276 1.800 . S
