# Generated by pormake.
# Topology tsx, (6,3)-cn, num edge types: 1
# Building blocks:
#     Node 0, Type 0, BuildingBlock: MIDCAF_clean_sbu_0, # of connection points: 6
#     Node 1, Type 0, BuildingBlock: MIDCAF_clean_sbu_0, # of connection points: 6
#     Node 2, Type 1, BuildingBlock: BETDIP_clean_linker_0, # of connection points: 3
#     Node 3, Type 1, BuildingBlock: BETDIP_clean_linker_0, # of connection points: 3
#     Node 4, Type 1, BuildingBlock: BETDIP_clean_linker_0, # of connection points: 3
#     Node 5, Type 1, BuildingBlock: BETDIP_clean_linker_0, # of connection points: 3
#     Edge 6, Type (0, 1), BuildingBlock: FUNLAD_clean_linker_0, # of connection points: 2
#     Edge 7, Type (0, 1), BuildingBlock: FUNLAD_clean_linker_0, # of connection points: 2
#     Edge 8, Type (0, 1), BuildingBlock: FUNLAD_clean_linker_0, # of connection points: 2
#     Edge 9, Type (0, 1), BuildingBlock: FUNLAD_clean_linker_0, # of connection points: 2
#     Edge 10, Type (0, 1), BuildingBlock: FUNLAD_clean_linker_0, # of connection points: 2
#     Edge 11, Type (0, 1), BuildingBlock: FUNLAD_clean_linker_0, # of connection points: 2
#     Edge 12, Type (0, 1), BuildingBlock: FUNLAD_clean_linker_0, # of connection points: 2
#     Edge 13, Type (0, 1), BuildingBlock: FUNLAD_clean_linker_0, # of connection points: 2
#     Edge 14, Type (0, 1), BuildingBlock: FUNLAD_clean_linker_0, # of connection points: 2
#     Edge 15, Type (0, 1), BuildingBlock: FUNLAD_clean_linker_0, # of connection points: 2
#     Edge 16, Type (0, 1), BuildingBlock: FUNLAD_clean_linker_0, # of connection points: 2
#     Edge 17, Type (0, 1), BuildingBlock: FUNLAD_clean_linker_0, # of connection points: 2
# Relax obj value: 0.082
# Max RMSD: 0.150
# Mean RMSD: 0.114
data_MOF--net-tsx--node1-MIDCAF_clean_sbu_0--node2-BETDIP_clean_linker_0--edge1-FUNLAD_clean_linker_0
_symmetry_space_group_name_H-M    P1
_symmetry_Int_Tables_number       1
_symmetry_cell_setting            triclinic
loop_
_symmetry_equiv_pos_as_xyz
'x, y, z'
_cell_length_a     23.172548
_cell_length_b     24.362671
_cell_length_c     41.575283
_cell_angle_alpha  91.193317
_cell_angle_beta   104.53558
_cell_angle_gamma 90.028265
loop_
_atom_site_label
_atom_site_type_symbol
_atom_site_fract_x
_atom_site_fract_y
_atom_site_fract_z
_atom_type_partial_charge
Zn0 Zn 0.94942 -0.00534 0.95824 0.0
Zn1 Zn 0.15888 -0.00153 0.04871 0.0
Zn2 Zn 0.0547 -0.00072 0.00298 0.0
C3 C 0.12909 0.1084 0.03485 0.0
C4 C 0.17656 0.94397 0.99243 0.0
O5 O 0.98977 0.95143 0.02274 0.0
O6 O 0.90482 0.95107 0.98366 0.0
C7 C 0.97581 0.10598 0.97695 0.0
O8 O 0.08368 0.08587 0.01439 0.0
O9 O 0.16756 0.07933 0.05391 0.0
O10 O 0.20491 0.9597 0.02118 0.0
O11 O 0.12073 0.95513 0.98163 0.0
O12 O 0.93746 0.07526 0.95794 0.0
O13 O 0.02375 0.08521 0.99526 0.0
O14 O 0.06774 0.9614 0.95649 0.0
O15 O 0.97779 0.95833 0.92199 0.0
C16 C 0.03304 0.9492 0.92778 0.0
O17 O 0.04271 0.95778 0.04775 0.0
O18 O 0.13213 0.95675 0.08275 0.0
C19 C 0.93463 0.93687 0.01196 0.0
C20 C 0.07728 0.94504 0.07601 0.0
Zn21 Zn 0.65902 0.53701 0.55311 0.0
Zn22 Zn 0.45657 0.50901 0.46268 0.0
Zn23 Zn 0.55572 0.52781 0.50681 0.0
C24 C 0.54428 0.47788 0.43268 0.0
C25 C 0.46315 0.62203 0.48023 0.0
O26 O 0.54486 0.4923 0.55347 0.0
O27 O 0.63376 0.49923 0.58899 0.0
C28 C 0.68279 0.47573 0.50086 0.0
O29 O 0.57574 0.48774 0.46251 0.0
O30 O 0.48902 0.4871 0.42498 0.0
O31 O 0.42661 0.58491 0.46646 0.0
O32 O 0.51747 0.6097 0.49441 0.0
O33 O 0.70927 0.49621 0.52881 0.0
O34 O 0.62649 0.48393 0.48895 0.0
O35 O 0.57636 0.61659 0.51385 0.0
O36 O 0.66064 0.61848 0.55354 0.0
C37 C 0.61965 0.64337 0.53339 0.0
O38 O 0.49359 0.47846 0.52831 0.0
O39 O 0.42379 0.44995 0.48438 0.0
C40 C 0.57973 0.48477 0.58249 0.0
C41 C 0.44703 0.44894 0.5152 0.0
H42 H 0.10942 0.04543 0.4437 0.0
H43 H 0.98754 0.05771 0.34725 0.0
H44 H 0.12604 0.93618 0.36454 0.0
H45 H 0.04885 0.1011 0.46101 0.0
C46 C 0.01756 0.11955 0.44024 0.0
C47 C 0.09315 0.03116 0.41825 0.0
C48 C 0.12405 0.98898 0.4063 0.0
C49 C 0.04299 0.05531 0.39692 0.0
C50 C 0.02477 0.03738 0.36366 0.0
C51 C 0.05471 -0.00518 0.35139 0.0
C52 C 0.10369 0.97039 0.3732 0.0
N53 N 0.01034 0.09872 0.40728 0.0
H54 H 0.97107 0.04981 0.56028 0.0
H55 H 0.10025 0.07764 0.65347 0.0
H56 H 0.97618 0.94304 0.64198 0.0
H57 H 0.08713 0.1676 0.63559 0.0
C58 C 0.09141 0.15979 0.61046 0.0
C59 C 0.9904 0.03852 0.5858 0.0
C60 C 0.96881 0.99244 0.59885 0.0
C61 C 0.03716 0.06999 0.60551 0.0
C62 C 0.06264 0.05476 0.63847 0.0
C63 C 0.04094 0.00915 0.65204 0.0
C64 C 0.99422 0.97787 0.63184 0.0
N65 N 0.05962 0.1153 0.59131 0.0
H66 H 0.63578 0.53875 0.96449 0.0
H67 H 0.54293 0.55846 0.86178 0.0
H68 H 0.68015 0.43721 0.88843 0.0
H69 H 0.55598 0.65175 0.88289 0.0
C70 C 0.53492 0.6442 0.903 0.0
C71 C 0.62863 0.52681 0.93853 0.0
C72 C 0.66357 0.48544 0.92905 0.0
C73 C 0.58605 0.55433 0.91419 0.0
C74 C 0.57646 0.53805 0.88057 0.0
C75 C 0.61027 0.49589 0.87101 0.0
C76 C 0.654 0.47018 0.89544 0.0
N77 N 0.55326 0.59839 0.9237 0.0
H78 H 0.49766 0.50943 0.05041 0.0
H79 H 0.60361 0.52974 0.15121 0.0
H80 H 0.44525 0.43004 0.13011 0.0
H81 H 0.61154 0.61635 0.13146 0.0
C82 C 0.62371 0.60515 0.1086 0.0
C83 C 0.50574 0.50048 0.07659 0.0
C84 C 0.46544 0.46733 0.08778 0.0
C85 C 0.55491 0.52442 0.09949 0.0
C86 C 0.56526 0.51235 0.13346 0.0
C87 C 0.52567 0.47878 0.14482 0.0
C88 C 0.47593 0.45653 0.12173 0.0
N89 N 0.59279 0.56138 0.08819 0.0
C90 C 0.14093 0.19497 0.00583 0.0
C91 C 0.14023 0.16792 0.03523 0.0
C92 C 0.16567 0.24783 0.00732 0.0
C93 C 0.18884 0.27447 0.03827 0.0
C94 C 0.18303 0.24901 0.06727 0.0
C95 C 0.15991 0.19592 0.06584 0.0
C96 C 0.22344 0.32653 0.04197 0.0
C97 C 0.2618 0.33803 0.02334 0.0
C98 C 0.31025 0.37978 0.03413 0.0
C99 C 0.30504 0.42487 0.05492 0.0
C100 C 0.35518 0.45616 0.07044 0.0
C101 C 0.41117 0.44385 0.06497 0.0
H102 H 0.37037 0.33686 0.01005 0.0
C103 C 0.4154 0.40261 0.04166 0.0
C104 C 0.3652 0.37086 0.02629 0.0
H105 H 0.45823 0.39236 0.03716 0.0
H106 H 0.12607 0.17393 0.98195 0.0
H107 H 0.16832 0.26699 0.98447 0.0
H108 H 0.20001 0.26882 0.09139 0.0
H109 H 0.15972 0.17579 0.08881 0.0
H110 H 0.225 0.35088 0.06434 0.0
H111 H 0.26408 0.3104 0.00284 0.0
H112 H 0.26298 0.43466 0.06047 0.0
H113 H 0.3509 0.48825 0.08813 0.0
C114 C 0.26923 0.91973 0.97585 0.0
C115 C 0.20829 0.91023 0.97259 0.0
C116 C 0.30265 0.88318 0.96175 0.0
C117 C 0.27584 0.83598 0.94417 0.0
C118 C 0.21439 0.82739 0.94 0.0
C119 C 0.18072 0.86444 0.9539 0.0
C120 C 0.31228 0.79272 0.93316 0.0
C121 C 0.36406 0.80378 0.92541 0.0
C122 C 0.40503 0.76065 0.91883 0.0
C123 C 0.44195 0.7723 0.89775 0.0
C124 C 0.48369 0.734 0.89258 0.0
C125 C 0.49037 0.68381 0.90903 0.0
H126 H 0.38463 0.70041 0.95225 0.0
C127 C 0.45383 0.67205 0.93035 0.0
C128 C 0.4113 0.71007 0.93512 0.0
H129 H 0.45799 0.63356 0.94328 0.0
H130 H 0.29162 0.95454 0.99038 0.0
H131 H 0.35009 0.89062 0.9663 0.0
H132 H 0.19277 0.79113 0.92681 0.0
H133 H 0.13398 0.85572 0.95154 0.0
H134 H 0.29629 0.75059 0.93182 0.0
H135 H 0.37705 0.8462 0.92347 0.0
H136 H 0.43848 0.81118 0.88523 0.0
H137 H 0.51136 0.74393 0.87599 0.0
C138 C 0.93042 0.85413 0.04594 0.0
C139 C 0.90498 0.90326 0.03212 0.0
C140 C 0.89791 0.81892 0.06115 0.0
C141 C 0.84003 0.83308 0.06318 0.0
C142 C 0.81625 0.88363 0.05094 0.0
C143 C 0.84799 0.91797 0.03504 0.0
C144 C 0.80266 0.7959 0.07733 0.0
C145 C 0.80009 0.74128 0.07135 0.0
C146 C 0.75635 0.70541 0.08169 0.0
C147 C 0.73287 0.6591 0.062 0.0
C148 C 0.68949 0.62615 0.07039 0.0
C149 C 0.66956 0.63867 0.09892 0.0
H150 H 0.75559 0.75134 0.12693 0.0
C151 C 0.69428 0.68397 0.11908 0.0
C152 C 0.73722 0.717 0.11062 0.0
H153 H 0.68019 0.69404 0.14145 0.0
H154 H 0.97435 0.84205 0.04386 0.0
H155 H 0.91776 0.78063 0.07106 0.0
H156 H 0.77199 0.8956 0.05251 0.0
H157 H 0.82766 0.95579 0.02458 0.0
H158 H 0.77139 0.81494 0.08967 0.0
H159 H 0.82685 0.7232 0.05587 0.0
H160 H 0.74721 0.64904 0.03972 0.0
H161 H 0.67159 0.59113 0.05455 0.0
C162 C 0.91608 0.18761 0.95428 0.0
C163 C 0.96132 0.16489 0.97948 0.0
C164 C 0.89389 0.23966 0.9584 0.0
C165 C 0.91687 0.27062 0.98762 0.0
C166 C 0.96452 0.24983 0.01206 0.0
C167 C 0.98604 0.19686 0.00825 0.0
C168 C 0.88911 0.32384 0.99228 0.0
C169 C 0.83007 0.32609 0.98976 0.0
C170 C 0.79363 0.37665 0.98299 0.0
C171 C 0.73518 0.37545 0.98705 0.0
C172 C 0.69372 0.41511 0.97248 0.0
C173 C 0.71006 0.45624 0.95339 0.0
H174 H 0.85545 0.42317 0.96235 0.0
C175 C 0.76964 0.46039 0.95171 0.0
C176 C 0.81128 0.42114 0.96654 0.0
H177 H 0.7828 0.49151 0.93666 0.0
H178 H 0.89614 0.16433 0.93173 0.0
H179 H 0.8578 0.25541 0.93894 0.0
H180 H 0.98295 0.27331 0.03474 0.0
H181 H 0.01951 0.18 0.02852 0.0
H182 H 0.91621 0.36083 0.99519 0.0
H183 H 0.80588 0.28764 0.98927 0.0
H184 H 0.72033 0.3415 -0.00056 0.0
H185 H 0.64775 0.41076 0.97364 0.0
C186 C 0.63155 0.7372 0.55836 0.0
C187 C 0.62709 0.70266 0.53044 0.0
C188 C 0.65697 0.78947 0.55959 0.0
C189 C 0.6801 0.80705 0.53339 0.0
C190 C 0.67097 0.77426 0.50428 0.0
C191 C 0.64453 0.72235 0.50283 0.0
C192 C 0.72056 0.85542 0.53908 0.0
C193 C 0.77313 0.85353 0.53077 0.0
C194 C 0.82294 0.89197 0.54524 0.0
C195 C 0.88116 0.87116 0.55385 0.0
C196 C 0.9288 0.90429 0.5707 0.0
C197 C 0.91926 0.95928 0.57838 0.0
H198 H 0.76934 0.96501 0.5452 0.0
C199 C 0.86165 0.98115 0.56833 0.0
C200 C 0.81361 0.94761 0.55207 0.0
H201 H 0.85356 0.02359 0.57409 0.0
H202 H 0.61911 0.72232 0.58009 0.0
H203 H 0.66331 0.81411 0.58222 0.0
H204 H 0.68744 0.78732 0.48346 0.0
H205 H 0.64217 0.69593 0.48124 0.0
H206 H 0.71248 0.88804 0.55562 0.0
H207 H 0.78353 0.81763 0.51734 0.0
H208 H 0.8895 0.82849 0.54876 0.0
H209 H 0.973 0.88678 0.57822 0.0
C210 C 0.77918 0.44452 0.49072 0.0
C211 C 0.71682 0.43943 0.48349 0.0
C212 C 0.81312 0.40557 0.47874 0.0
C213 C 0.78544 0.36025 0.45948 0.0
C214 C 0.72288 0.35699 0.45048 0.0
C215 C 0.68882 0.39599 0.46262 0.0
C216 C 0.82082 0.31521 0.44935 0.0
C217 C 0.87452 0.30042 0.46836 0.0
C218 C 0.90998 0.25372 0.4602 0.0
C219 C 0.95326 0.22998 0.48598 0.0
C220 C 0.98799 0.1863 0.47941 0.0
C221 C 0.98054 0.1658 0.44685 0.0
H222 H 0.87147 0.2516 0.40678 0.0
C223 C 0.93783 0.18988 0.42092 0.0
C224 C 0.90297 0.23346 0.42749 0.0
H225 H 0.93132 0.17531 0.39547 0.0
H226 H 0.802 0.47797 0.50643 0.0
H227 H 0.86109 0.41068 0.48505 0.0
H228 H 0.70043 0.32281 0.43534 0.0
H229 H 0.64098 0.39041 0.45708 0.0
H230 H 0.7999 0.29117 0.42722 0.0
H231 H 0.89212 0.32143 0.49212 0.0
H232 H 0.96001 0.24503 0.51137 0.0
H233 H 0.02075 0.16858 0.4998 0.0
C234 C 0.4027 0.35985 0.5242 0.0
C235 C 0.41924 0.41366 0.53537 0.0
C236 C 0.36769 0.32845 0.53974 0.0
C237 C 0.34772 0.3507 0.56649 0.0
C238 C 0.3669 0.40357 0.57873 0.0
C239 C 0.40182 0.43512 0.56299 0.0
C240 C 0.30544 0.32033 0.58125 0.0
C241 C 0.26299 0.28668 0.56279 0.0
C242 C 0.2183 0.25584 0.57565 0.0
C243 C 0.18407 0.21498 0.55501 0.0
C244 C 0.14205 0.18417 0.56589 0.0
C245 C 0.13315 0.19381 0.59768 0.0
H246 H 0.2322 0.29794 0.62381 0.0
C247 C 0.16619 0.2353 0.61811 0.0
C248 C 0.20827 0.26615 0.60727 0.0
H249 H 0.15983 0.24361 0.6427 0.0
H250 H 0.41565 0.34257 0.50283 0.0
H251 H 0.35561 0.28712 0.5304 0.0
H252 H 0.35232 0.42155 0.59939 0.0
H253 H 0.4119 0.47729 0.57102 0.0
H254 H 0.30818 0.3282 0.60733 0.0
H255 H 0.26041 0.28126 0.53645 0.0
H256 H 0.19033 0.20634 0.53043 0.0
H257 H 0.11715 0.15247 0.54952 0.0
C258 C 0.38174 0.68629 0.48326 0.0
C259 C 0.44081 0.67854 0.48136 0.0
C260 C 0.35729 0.73864 0.48163 0.0
C261 C 0.39136 0.78485 0.47801 0.0
C262 C 0.451 0.77725 0.47683 0.0
C263 C 0.47571 0.7245 0.47876 0.0
C264 C 0.36302 0.8395 0.47074 0.0
C265 C 0.31286 0.85382 0.47968 0.0
C266 C 0.27174 0.89805 0.46384 0.0
C267 C 0.22329 0.91169 0.47712 0.0
C268 C 0.17669 0.94414 0.45942 0.0
C269 C 0.17751 0.96325 0.42793 0.0
H270 H 0.31003 0.91096 0.42173 0.0
C271 C 0.22779 0.95288 0.41567 0.0
C272 C 0.27431 0.92058 0.43331 0.0
H273 H 0.22993 0.96783 0.39162 0.0
H274 H 0.35377 0.65151 0.48528 0.0
H275 H 0.31068 0.74208 0.48148 0.0
H276 H 0.47794 0.81196 0.47343 0.0
H277 H 0.52085 0.71942 0.47652 0.0
H278 H 0.38193 0.86656 0.45564 0.0
H279 H 0.29812 0.82889 0.49751 0.0
H280 H 0.21989 0.89482 0.50049 0.0
H281 H 0.13845 0.95145 0.46945 0.0
C282 C 0.99933 0.94144 0.10793 0.0
C283 C 0.05311 0.92196 0.1024 0.0
C284 C 0.98411 0.93019 0.13766 0.0
C285 C 0.02287 0.89952 0.16232 0.0
C286 C 0.07332 0.8755 0.15505 0.0
C287 C 0.08863 0.88703 0.12555 0.0
C288 C 0.01803 0.89773 0.19726 0.0
C289 C 0.98885 0.93555 0.21117 0.0
C290 C 1.00457 0.94603 0.24759 0.0
C291 C 0.96079 0.96257 0.26364 0.0
C292 C 0.97655 0.97725 0.29749 0.0
C293 C 0.03672 0.97712 0.31569 0.0
H294 H 0.09968 0.93507 0.25382 0.0
C295 C 0.08037 0.96108 0.29925 0.0
C296 C 0.0645 0.94541 0.26577 0.0
H297 H 0.12729 0.96212 0.31192 0.0
H298 H 0.97128 0.96866 0.09047 0.0
H299 H 0.94372 0.94791 0.14175 0.0
H300 H 0.10363 0.85114 0.17334 0.0
H301 H 0.13012 0.87117 0.1217 0.0
H302 H 0.04758 0.86964 0.21357 0.0
H303 H 0.95762 0.96354 0.19601 0.0
H304 H 0.91442 0.9642 0.24996 0.0
H305 H 0.94156 0.98878 0.3093 0.0
C306 C 0.1108 0.95179 0.89566 0.0
C307 C 0.05723 0.92997 0.89998 0.0
C308 C 0.1261 0.94411 0.86539 0.0
C309 C 0.08783 0.91454 0.83904 0.0
C310 C 0.03757 0.88822 0.84471 0.0
C311 C 0.02202 0.89634 0.87477 0.0
C312 C 0.09435 0.91569 0.80443 0.0
C313 C 0.11381 0.96087 0.79209 0.0
C314 C 0.10179 0.97124 0.7559 0.0
C315 C 0.09672 0.02589 0.74559 0.0
C316 C 0.07832 0.03808 0.71192 0.0
C317 C 0.06518 -0.0042 0.68763 0.0
H318 H 0.09676 0.88616 0.73847 0.0
C319 C 0.07317 0.94101 0.69781 0.0
C320 C 0.09144 0.92879 0.73159 0.0
H321 H 0.06485 0.90752 0.67967 0.0
H322 H 0.1387 0.97794 0.91473 0.0
H323 H 0.16625 0.9635 0.86215 0.0
H324 H 1.00773 0.86468 0.825 0.0
H325 H 0.98069 0.87872 0.87762 0.0
H326 H 0.0725 0.88303 0.78759 0.0
H327 H 0.13077 -0.00467 0.80881 0.0
H328 H 0.10455 0.05945 0.76371 0.0
H329 H 0.07221 0.08072 0.70506 0.0
C330 C 0.58459 0.42239 0.62945 0.0
C331 C 0.55631 0.46549 0.60989 0.0
C332 C 0.57295 0.41289 0.66023 0.0
C333 C 0.53402 0.4475 0.67224 0.0
C334 C 0.5021 0.48759 0.65132 0.0
C335 C 0.51368 0.49694 0.6205 0.0
C336 C 0.5312 0.44754 0.70753 0.0
C337 C 0.57949 0.4361 0.73219 0.0
C338 C 0.5848 0.44893 0.76791 0.0
C339 C 0.64228 0.45411 0.78905 0.0
C340 C 0.65038 0.46932 0.82239 0.0
C341 C 0.60108 0.47929 0.83554 0.0
H342 H 0.49015 0.45277 0.766 0.0
C343 C 0.54338 0.47303 0.81465 0.0
C344 C 0.53522 0.45778 0.78116 0.0
H345 H 0.50453 0.47939 0.82428 0.0
H346 H 0.61787 0.39787 0.62166 0.0
H347 H 0.59666 0.38022 0.67518 0.0
H348 H 0.4716 0.51456 0.65987 0.0
H349 H 0.49254 0.5313 0.60607 0.0
H350 H 0.49205 0.46542 0.71333 0.0
H351 H 0.62001 0.4227 0.72582 0.0
H352 H 0.68131 0.44757 0.77959 0.0
H353 H 0.69542 0.47429 0.83774 0.0
C354 C 0.54258 0.4169 0.38425 0.0
C355 C 0.57152 0.45838 0.40628 0.0
C356 C 0.55692 0.40792 0.354 0.0
C357 C 0.59909 0.44169 0.34479 0.0
C358 C 0.63283 0.47888 0.36846 0.0
C359 C 0.61915 0.48717 0.39918 0.0
C360 C 0.60263 0.4438 0.30962 0.0
C361 C 0.55291 0.4381 0.28461 0.0
C362 C 0.54891 0.44871 0.24911 0.0
C363 C 0.49236 0.45939 0.22841 0.0
C364 C 0.4852 0.46957 0.19482 0.0
C365 C 0.53441 0.46866 0.18084 0.0
H366 H 0.64265 0.43883 0.25034 0.0
C367 C 0.59127 0.45793 0.20147 0.0
C368 C 0.59853 0.44797 0.23533 0.0
H369 H 0.62997 0.45628 0.19132 0.0
H370 H 0.50635 0.39359 0.3896 0.0
H371 H 0.53214 0.37696 0.33699 0.0
H372 H 0.66634 0.50466 0.36218 0.0
H373 H 0.64216 0.51924 0.416 0.0
H374 H 0.64411 0.45728 0.30463 0.0
H375 H 0.51082 0.4298 0.29069 0.0
H376 H 0.45334 0.46041 0.23833 0.0
H377 H 0.44096 0.47872 0.17985 0.0
loop_
_geom_bond_atom_site_label_1
_geom_bond_atom_site_label_2
_geom_bond_distance
_geom_bond_site_symmetry_2
_ccdc_geom_bond_type
Zn0 O6 1.920 1_545 S
Zn0 O12 1.898 . S
Zn0 O15 1.905 1_545 S
Zn1 O9 1.905 . S
Zn1 O10 1.898 1_545 S
Zn1 O18 1.920 1_545 S
Zn2 O5 2.080 1_445 S
Zn2 O8 2.114 . S
Zn2 O11 2.120 1_545 S
Zn2 O13 2.120 1_455 S
Zn2 O14 2.114 1_554 S
Zn2 O17 2.080 . S
C3 O8 1.166 . S
C3 O9 1.182 . S
C4 O10 1.167 . S
C4 O11 1.299 . S
O5 Zn2 2.080 1_665 S
O5 C19 1.305 . S
O6 Zn0 1.920 1_565 S
O6 C19 1.234 1_556 S
C7 O12 1.167 . S
C7 O13 1.299 1_556 S
O8 Zn2 2.114 . S
O8 C3 1.166 . S
O9 Zn1 1.905 . S
O9 C3 1.182 . S
O10 Zn1 1.898 1_565 S
O10 C4 1.167 . S
O11 Zn2 2.120 1_565 S
O11 C4 1.299 . S
O12 Zn0 1.898 . S
O12 C7 1.167 . S
O13 Zn2 2.120 1_655 S
O13 C7 1.299 1_554 S
O14 Zn2 2.114 1_556 S
O14 C16 1.166 1_545 S
O15 Zn0 1.905 1_565 S
O15 C16 1.182 1_655 S
C16 O14 1.166 1_565 S
C16 O15 1.182 1_455 S
O17 Zn2 2.080 . S
O17 C20 1.305 1_545 S
O18 Zn1 1.920 1_565 S
O18 C20 1.234 . S
C19 O5 1.305 . S
C19 O6 1.234 1_554 S
C20 O17 1.305 1_565 S
C20 O18 1.234 . S
Zn21 O27 1.920 . S
Zn21 O33 1.898 . S
Zn21 O36 1.905 . S
Zn22 O30 1.905 . S
Zn22 O31 1.898 . S
Zn22 O39 1.920 . S
Zn23 O26 2.080 . S
Zn23 O29 2.114 . S
Zn23 O32 2.120 . S
Zn23 O34 2.120 . S
Zn23 O35 2.114 . S
Zn23 O38 2.080 . S
C24 O29 1.166 . S
C24 O30 1.182 . S
C25 O31 1.167 . S
C25 O32 1.299 . S
O26 Zn23 2.080 . S
O26 C40 1.305 . S
O27 Zn21 1.920 . S
O27 C40 1.234 . S
C28 O33 1.167 . S
C28 O34 1.299 . S
O29 Zn23 2.114 . S
O29 C24 1.166 . S
O30 Zn22 1.905 . S
O30 C24 1.182 . S
O31 Zn22 1.898 . S
O31 C25 1.167 . S
O32 Zn23 2.120 . S
O32 C25 1.299 . S
O33 Zn21 1.898 . S
O33 C28 1.167 . S
O34 Zn23 2.120 . S
O34 C28 1.299 . S
O35 Zn23 2.114 . S
O35 C37 1.166 . S
O36 Zn21 1.905 . S
O36 C37 1.182 . S
C37 O35 1.166 . S
C37 O36 1.182 . S
O38 Zn23 2.080 . S
O38 C41 1.305 . S
O39 Zn22 1.920 . S
O39 C41 1.234 . S
C40 O26 1.305 . S
C40 O27 1.234 . S
C41 O38 1.305 . S
C41 O39 1.234 . S
H42 C47 0.930 . S
H43 C50 0.930 . S
H44 C52 0.926 1_565 S
H45 C46 1.016 . S
C46 H45 1.016 . S
C46 N53 1.286 . S
C47 H42 0.930 . S
C47 C48 1.397 1_545 S
C47 C49 1.361 . S
C48 C47 1.397 1_565 S
C48 C52 1.388 1_565 S
C49 C47 1.361 . S
C49 C50 1.393 . S
C49 N53 1.413 . S
C50 H43 0.930 . S
C50 C49 1.393 . S
C50 C51 1.399 . S
C51 C50 1.399 . S
C51 C52 1.388 . S
C52 H44 0.926 1_545 S
C52 C48 1.388 1_545 S
C52 C51 1.388 . S
N53 C46 1.286 . S
N53 C49 1.413 . S
H54 C59 0.930 1_565 S
H55 C62 0.930 . S
H56 C64 0.930 . S
H57 C58 1.016 . S
C58 H57 1.016 . S
C58 N65 1.286 . S
C59 H54 0.930 1_545 S
C59 C60 1.397 1_545 S
C59 C61 1.361 1_655 S
C60 C59 1.397 1_565 S
C60 C64 1.390 . S
C61 C59 1.361 1_455 S
C61 C62 1.393 . S
C61 N65 1.413 . S
C62 H55 0.930 . S
C62 C61 1.393 . S
C62 C63 1.399 1_455 S
C63 C62 1.399 1_655 S
C63 C64 1.381 1_545 S
C64 H56 0.930 . S
C64 C60 1.390 . S
C64 C63 1.381 1_565 S
N65 C58 1.286 . S
N65 C61 1.413 . S
H66 C71 0.930 . S
H67 C74 0.930 . S
H68 C76 0.930 . S
H69 C70 1.016 . S
C70 H69 1.016 . S
C70 N77 1.286 . S
C71 H66 0.930 . S
C71 C72 1.397 . S
C71 C73 1.361 . S
C72 C71 1.397 . S
C72 C76 1.390 . S
C73 C71 1.361 . S
C73 C74 1.393 . S
C73 N77 1.413 . S
C74 H67 0.930 . S
C74 C73 1.393 . S
C74 C75 1.399 . S
C75 C74 1.399 . S
C75 C76 1.381 . S
C76 H68 0.930 . S
C76 C72 1.390 . S
C76 C75 1.381 . S
N77 C70 1.286 . S
N77 C73 1.413 . S
H78 C83 0.930 . S
H79 C86 0.930 . S
H80 C88 0.930 . S
H81 C82 1.016 . S
C82 H81 1.016 . S
C82 N89 1.286 . S
C83 H78 0.930 . S
C83 C84 1.397 . S
C83 C85 1.361 . S
C84 C83 1.397 . S
C84 C88 1.390 . S
C85 C83 1.361 . S
C85 C86 1.393 . S
C85 N89 1.413 . S
C86 H79 0.930 . S
C86 C85 1.393 . S
C86 C87 1.399 . S
C87 C86 1.399 . S
C87 C88 1.381 . S
C88 H80 0.930 . S
C88 C84 1.390 . S
C88 C87 1.381 . S
N89 C82 1.286 . S
N89 C85 1.413 . S
C90 C91 1.386 . S
C90 C92 1.383 . S
C90 H106 0.951 1_554 S
C91 C90 1.386 . S
C91 C95 1.383 . S
C92 C90 1.383 . S
C92 C93 1.402 . S
C92 H107 0.934 1_554 S
C93 C92 1.402 . S
C93 C94 1.375 . S
C93 C96 1.481 . S
C94 C93 1.375 . S
C94 C95 1.367 . S
C94 H108 0.951 . S
C95 C91 1.383 . S
C95 C94 1.367 . S
C95 H109 0.950 . S
C96 C93 1.481 . S
C96 C97 1.297 . S
C96 H110 0.950 . S
C97 C96 1.297 . S
C97 C98 1.479 . S
C97 H111 0.950 . S
C98 C97 1.479 . S
C98 C99 1.375 . S
C98 C104 1.404 . S
C99 C98 1.375 . S
C99 C100 1.369 . S
C99 H112 0.950 . S
C100 C99 1.369 . S
C100 C101 1.392 . S
C100 H113 0.951 . S
C101 C100 1.392 . S
C101 C103 1.384 . S
H102 C104 0.949 . S
C103 C101 1.384 . S
C103 C104 1.385 . S
C103 H105 0.950 . S
C104 C98 1.404 . S
C104 H102 0.949 . S
C104 C103 1.385 . S
H105 C103 0.950 . S
H106 C90 0.951 1_556 S
H107 C92 0.934 1_556 S
H108 C94 0.951 . S
H109 C95 0.950 . S
H110 C96 0.950 . S
H111 C97 0.950 . S
H112 C99 0.950 . S
H113 C100 0.951 . S
C114 C115 1.386 . S
C114 C116 1.383 . S
C114 H130 0.951 . S
C115 C114 1.386 . S
C115 C119 1.383 1_556 S
C116 C114 1.383 . S
C116 C117 1.402 . S
C116 H131 0.951 . S
C117 C116 1.402 . S
C117 C118 1.375 1_556 S
C117 C120 1.481 . S
C118 C117 1.375 1_554 S
C118 C119 1.367 . S
C118 H132 0.951 . S
C119 C115 1.383 1_554 S
C119 C118 1.367 . S
C119 H133 0.950 . S
C120 C117 1.481 . S
C120 C121 1.297 . S
C120 H134 0.950 1_556 S
C121 C120 1.297 . S
C121 C122 1.479 . S
C121 H135 0.950 . S
C122 C121 1.479 . S
C122 C123 1.375 . S
C122 C128 1.404 . S
C123 C122 1.375 . S
C123 C124 1.369 . S
C123 H136 0.950 . S
C124 C123 1.369 . S
C124 C125 1.392 . S
C124 H137 0.951 . S
C125 C124 1.392 . S
C125 C127 1.384 . S
H126 C128 0.949 1_554 S
C127 C125 1.384 . S
C127 C128 1.385 . S
C127 H129 0.950 1_556 S
C128 C122 1.404 . S
C128 H126 0.949 1_556 S
C128 C127 1.385 . S
H129 C127 0.950 1_554 S
H130 C114 0.951 . S
H131 C116 0.951 . S
H132 C118 0.951 . S
H133 C119 0.950 . S
H134 C120 0.950 1_554 S
H135 C121 0.950 . S
H136 C123 0.950 . S
H137 C124 0.951 . S
C138 C139 1.386 . S
C138 C140 1.383 . S
C138 H154 0.951 . S
C139 C138 1.386 . S
C139 C143 1.383 . S
C140 C138 1.383 . S
C140 C141 1.402 . S
C140 H155 0.951 . S
C141 C140 1.402 . S
C141 C142 1.375 . S
C141 C144 1.481 . S
C142 C141 1.375 . S
C142 C143 1.367 . S
C142 H156 0.951 . S
C143 C139 1.383 . S
C143 C142 1.367 . S
C143 H157 0.950 . S
C144 C141 1.481 . S
C144 C145 1.297 . S
C144 H158 0.950 . S
C145 C144 1.297 . S
C145 C146 1.479 . S
C145 H159 0.950 . S
C146 C145 1.479 . S
C146 C147 1.375 . S
C146 C152 1.404 . S
C147 C146 1.375 . S
C147 C148 1.369 . S
C147 H160 0.950 . S
C148 C147 1.369 . S
C148 C149 1.392 . S
C148 H161 0.951 . S
C149 C148 1.392 . S
C149 C151 1.384 . S
H150 C152 0.949 . S
C151 C149 1.384 . S
C151 C152 1.385 . S
C151 H153 0.950 . S
C152 C146 1.404 . S
C152 H150 0.949 . S
C152 C151 1.385 . S
H153 C151 0.950 . S
H154 C138 0.951 . S
H155 C140 0.951 . S
H156 C142 0.951 . S
H157 C143 0.950 . S
H158 C144 0.950 . S
H159 C145 0.950 . S
H160 C147 0.950 . S
H161 C148 0.951 . S
C162 C163 1.386 . S
C162 C164 1.383 . S
C162 H178 0.951 . S
C163 C162 1.386 . S
C163 C167 1.383 1_556 S
C164 C162 1.383 . S
C164 C165 1.402 . S
C164 H179 0.951 . S
C165 C164 1.402 . S
C165 C166 1.375 1_556 S
C165 C168 1.481 . S
C166 C165 1.375 1_554 S
C166 C167 1.367 . S
C166 H180 0.951 . S
C167 C163 1.383 1_554 S
C167 C166 1.367 . S
C167 H181 0.950 . S
C168 C165 1.481 . S
C168 C169 1.297 . S
C168 H182 0.950 . S
C169 C168 1.297 . S
C169 C170 1.479 . S
C169 H183 0.950 . S
C170 C169 1.479 . S
C170 C171 1.375 . S
C170 C176 1.404 . S
C171 C170 1.375 . S
C171 C172 1.369 . S
C171 H184 0.950 . S
C172 C171 1.369 . S
C172 C173 1.392 . S
C172 H185 0.951 . S
C173 C172 1.392 . S
C173 C175 1.384 . S
H174 C176 0.949 . S
C175 C173 1.384 . S
C175 C176 1.385 . S
C175 H177 0.950 . S
C176 C170 1.404 . S
C176 H174 0.949 . S
C176 C175 1.385 . S
H177 C175 0.950 . S
H178 C162 0.951 . S
H179 C164 0.951 . S
H180 C166 0.951 . S
H181 C167 0.950 . S
H182 C168 0.950 . S
H183 C169 0.950 . S
H184 C171 0.950 . S
H185 C172 0.951 . S
C186 C187 1.386 . S
C186 C188 1.383 . S
C186 H202 0.951 . S
C187 C186 1.386 . S
C187 C191 1.383 . S
C188 C186 1.383 . S
C188 C189 1.402 . S
C188 H203 0.951 . S
C189 C188 1.402 . S
C189 C190 1.375 . S
C189 C192 1.481 . S
C190 C189 1.375 . S
C190 C191 1.367 . S
C190 H204 0.951 . S
C191 C187 1.383 . S
C191 C190 1.367 . S
C191 H205 0.950 . S
C192 C189 1.481 . S
C192 C193 1.297 . S
C192 H206 0.950 . S
C193 C192 1.297 . S
C193 C194 1.479 . S
C193 H207 0.950 . S
C194 C193 1.479 . S
C194 C195 1.375 . S
C194 C200 1.404 . S
C195 C194 1.375 . S
C195 C196 1.369 . S
C195 H208 0.950 . S
C196 C195 1.369 . S
C196 C197 1.392 . S
C196 H209 0.951 . S
C197 C196 1.392 . S
C197 C199 1.384 . S
H198 C200 0.949 . S
C199 C197 1.384 . S
C199 C200 1.385 . S
C199 H201 0.950 . S
C200 C194 1.404 . S
C200 H198 0.949 . S
C200 C199 1.385 . S
H201 C199 0.950 . S
H202 C186 0.951 . S
H203 C188 0.951 . S
H204 C190 0.951 . S
H205 C191 0.950 . S
H206 C192 0.950 . S
H207 C193 0.950 . S
H208 C195 0.950 . S
H209 C196 0.951 . S
C210 C211 1.386 . S
C210 C212 1.383 . S
C210 H226 0.951 . S
C211 C210 1.386 . S
C211 C215 1.383 . S
C212 C210 1.383 . S
C212 C213 1.402 . S
C212 H227 0.951 . S
C213 C212 1.402 . S
C213 C214 1.375 . S
C213 C216 1.481 . S
C214 C213 1.375 . S
C214 C215 1.367 . S
C214 H228 0.951 . S
C215 C211 1.383 . S
C215 C214 1.367 . S
C215 H229 0.950 . S
C216 C213 1.481 . S
C216 C217 1.297 . S
C216 H230 0.950 . S
C217 C216 1.297 . S
C217 C218 1.479 . S
C217 H231 0.950 . S
C218 C217 1.479 . S
C218 C219 1.375 . S
C218 C224 1.404 . S
C219 C218 1.375 . S
C219 C220 1.369 . S
C219 H232 0.950 . S
C220 C219 1.369 . S
C220 C221 1.392 . S
C220 H233 0.951 1_655 S
C221 C220 1.392 . S
C221 C223 1.384 . S
H222 C224 0.949 . S
C223 C221 1.384 . S
C223 C224 1.385 . S
C223 H225 0.950 . S
C224 C218 1.404 . S
C224 H222 0.949 . S
C224 C223 1.385 . S
H225 C223 0.950 . S
H226 C210 0.951 . S
H227 C212 0.951 . S
H228 C214 0.951 . S
H229 C215 0.950 . S
H230 C216 0.950 . S
H231 C217 0.950 . S
H232 C219 0.950 . S
H233 C220 0.951 1_455 S
C234 C235 1.386 . S
C234 C236 1.383 . S
C234 H250 0.951 . S
C235 C234 1.386 . S
C235 C239 1.383 . S
C236 C234 1.383 . S
C236 C237 1.402 . S
C236 H251 0.951 . S
C237 C236 1.402 . S
C237 C238 1.375 . S
C237 C240 1.481 . S
C238 C237 1.375 . S
C238 C239 1.367 . S
C238 H252 0.951 . S
C239 C235 1.383 . S
C239 C238 1.367 . S
C239 H253 0.950 . S
C240 C237 1.481 . S
C240 C241 1.297 . S
C240 H254 0.950 . S
C241 C240 1.297 . S
C241 C242 1.479 . S
C241 H255 0.950 . S
C242 C241 1.479 . S
C242 C243 1.375 . S
C242 C248 1.404 . S
C243 C242 1.375 . S
C243 C244 1.369 . S
C243 H256 0.950 . S
C244 C243 1.369 . S
C244 C245 1.392 . S
C244 H257 0.951 . S
C245 C244 1.392 . S
C245 C247 1.384 . S
H246 C248 0.949 . S
C247 C245 1.384 . S
C247 C248 1.385 . S
C247 H249 0.950 . S
C248 C242 1.404 . S
C248 H246 0.949 . S
C248 C247 1.385 . S
H249 C247 0.950 . S
H250 C234 0.951 . S
H251 C236 0.951 . S
H252 C238 0.951 . S
H253 C239 0.950 . S
H254 C240 0.950 . S
H255 C241 0.950 . S
H256 C243 0.950 . S
H257 C244 0.951 . S
C258 C259 1.386 . S
C258 C260 1.383 . S
C258 H274 0.951 . S
C259 C258 1.386 . S
C259 C263 1.383 . S
C260 C258 1.383 . S
C260 C261 1.402 . S
C260 H275 0.951 . S
C261 C260 1.402 . S
C261 C262 1.375 . S
C261 C264 1.481 . S
C262 C261 1.375 . S
C262 C263 1.367 . S
C262 H276 0.951 . S
C263 C259 1.383 . S
C263 C262 1.367 . S
C263 H277 0.950 . S
C264 C261 1.481 . S
C264 C265 1.297 . S
C264 H278 0.950 . S
C265 C264 1.297 . S
C265 C266 1.479 . S
C265 H279 0.950 . S
C266 C265 1.479 . S
C266 C267 1.375 . S
C266 C272 1.404 . S
C267 C266 1.375 . S
C267 C268 1.369 . S
C267 H280 0.950 . S
C268 C267 1.369 . S
C268 C269 1.392 . S
C268 H281 0.951 . S
C269 C268 1.392 . S
C269 C271 1.384 . S
H270 C272 0.949 . S
C271 C269 1.384 . S
C271 C272 1.385 . S
C271 H273 0.950 . S
C272 C266 1.404 . S
C272 H270 0.949 . S
C272 C271 1.385 . S
H273 C271 0.950 . S
H274 C258 0.951 . S
H275 C260 0.951 . S
H276 C262 0.951 . S
H277 C263 0.950 . S
H278 C264 0.950 . S
H279 C265 0.950 . S
H280 C267 0.950 . S
H281 C268 0.951 . S
C282 C283 1.386 1_545 S
C282 C284 1.383 . S
C282 H298 0.951 1_455 S
C283 C282 1.386 1_565 S
C283 C287 1.383 . S
C284 C282 1.383 . S
C284 C285 1.402 1_545 S
C284 H299 0.951 . S
C285 C284 1.402 1_565 S
C285 C286 1.375 . S
C285 C288 1.481 . S
C286 C285 1.375 . S
C286 C287 1.367 . S
C286 H300 0.951 . S
C287 C283 1.383 . S
C287 C286 1.367 . S
C287 H301 0.950 . S
C288 C285 1.481 . S
C288 C289 1.297 . S
C288 H302 0.950 . S
C289 C288 1.297 . S
C289 C290 1.479 1_565 S
C289 H303 0.950 1_565 S
C290 C289 1.479 1_545 S
C290 C291 1.375 . S
C290 C296 1.404 1_545 S
C291 C290 1.375 . S
C291 C292 1.369 . S
C291 H304 0.950 1_455 S
C292 C291 1.369 . S
C292 C293 1.392 . S
C292 H305 0.951 . S
C293 C292 1.392 . S
C293 C295 1.384 1_545 S
H294 C296 0.949 . S
C295 C293 1.384 1_565 S
C295 C296 1.385 . S
C295 H297 0.950 . S
C296 C290 1.404 1_565 S
C296 H294 0.949 . S
C296 C295 1.385 . S
H297 C295 0.950 . S
H298 C282 0.951 1_655 S
H299 C284 0.951 . S
H300 C286 0.951 . S
H301 C287 0.950 . S
H302 C288 0.950 . S
H303 C289 0.950 1_545 S
H304 C291 0.950 1_655 S
H305 C292 0.951 . S
C306 C307 1.386 1_545 S
C306 C308 1.383 . S
C306 H322 0.951 . S
C307 C306 1.386 1_565 S
C307 C311 1.383 1_455 S
C308 C306 1.383 . S
C308 C309 1.402 1_545 S
C308 H323 0.951 . S
C309 C308 1.402 1_565 S
C309 C310 1.375 1_455 S
C309 C312 1.481 . S
C310 C309 1.375 1_655 S
C310 C311 1.367 . S
C310 H324 0.951 . S
C311 C307 1.383 1_655 S
C311 C310 1.367 . S
C311 H325 0.950 . S
C312 C309 1.481 . S
C312 C313 1.297 . S
C312 H326 0.950 1_455 S
C313 C312 1.297 . S
C313 C314 1.479 1_565 S
C313 H327 0.950 1_565 S
C314 C313 1.479 1_545 S
C314 C315 1.375 . S
C314 C320 1.404 1_445 S
C315 C314 1.375 . S
C315 C316 1.369 . S
C315 H328 0.950 . S
C316 C315 1.369 . S
C316 C317 1.392 . S
C316 H329 0.951 . S
C317 C316 1.392 . S
C317 C319 1.384 1_445 S
H318 C320 0.949 . S
C319 C317 1.384 1_665 S
C319 C320 1.385 . S
C319 H321 0.950 . S
C320 C314 1.404 1_665 S
C320 H318 0.949 . S
C320 C319 1.385 . S
H321 C319 0.950 . S
H322 C306 0.951 . S
H323 C308 0.951 . S
H324 C310 0.951 . S
H325 C311 0.950 . S
H326 C312 0.950 1_655 S
H327 C313 0.950 1_545 S
H328 C315 0.950 . S
H329 C316 0.951 . S
C330 C331 1.386 . S
C330 C332 1.383 . S
C330 H346 0.951 . S
C331 C330 1.386 . S
C331 C335 1.383 . S
C332 C330 1.383 . S
C332 C333 1.402 . S
C332 H347 0.951 . S
C333 C332 1.402 . S
C333 C334 1.375 . S
C333 C336 1.481 . S
C334 C333 1.375 . S
C334 C335 1.367 . S
C334 H348 0.951 . S
C335 C331 1.383 . S
C335 C334 1.367 . S
C335 H349 0.950 . S
C336 C333 1.481 . S
C336 C337 1.297 . S
C336 H350 0.950 . S
C337 C336 1.297 . S
C337 C338 1.479 . S
C337 H351 0.950 . S
C338 C337 1.479 . S
C338 C339 1.375 . S
C338 C344 1.404 . S
C339 C338 1.375 . S
C339 C340 1.369 . S
C339 H352 0.950 . S
C340 C339 1.369 . S
C340 C341 1.392 . S
C340 H353 0.951 . S
C341 C340 1.392 . S
C341 C343 1.384 . S
H342 C344 0.949 . S
C343 C341 1.384 . S
C343 C344 1.385 . S
C343 H345 0.950 . S
C344 C338 1.404 . S
C344 H342 0.949 . S
C344 C343 1.385 . S
H345 C343 0.950 . S
H346 C330 0.951 . S
H347 C332 0.951 . S
H348 C334 0.951 . S
H349 C335 0.950 . S
H350 C336 0.950 . S
H351 C337 0.950 . S
H352 C339 0.950 . S
H353 C340 0.951 . S
C354 C355 1.386 . S
C354 C356 1.383 . S
C354 H370 0.951 . S
C355 C354 1.386 . S
C355 C359 1.383 . S
C356 C354 1.383 . S
C356 C357 1.402 . S
C356 H371 0.951 . S
C357 C356 1.402 . S
C357 C358 1.375 . S
C357 C360 1.481 . S
C358 C357 1.375 . S
C358 C359 1.367 . S
C358 H372 0.951 . S
C359 C355 1.383 . S
C359 C358 1.367 . S
C359 H373 0.950 . S
C360 C357 1.481 . S
C360 C361 1.297 . S
C360 H374 0.950 . S
C361 C360 1.297 . S
C361 C362 1.479 . S
C361 H375 0.950 . S
C362 C361 1.479 . S
C362 C363 1.375 . S
C362 C368 1.404 . S
C363 C362 1.375 . S
C363 C364 1.369 . S
C363 H376 0.950 . S
C364 C363 1.369 . S
C364 C365 1.392 . S
C364 H377 0.951 . S
C365 C364 1.392 . S
C365 C367 1.384 . S
H366 C368 0.949 . S
C367 C365 1.384 . S
C367 C368 1.385 . S
C367 H369 0.950 . S
C368 C362 1.404 . S
C368 H366 0.949 . S
C368 C367 1.385 . S
H369 C367 0.950 . S
H370 C354 0.951 . S
H371 C356 0.951 . S
H372 C358 0.951 . S
H373 C359 0.950 . S
H374 C360 0.950 . S
H375 C361 0.950 . S
H376 C363 0.950 . S
H377 C364 0.951 . S
C101 C84 1.308 . S
C91 C3 1.198 . S
C115 C4 1.400 1_556 S
C125 C70 1.495 . S
C139 C19 1.465 . S
C149 C82 1.487 . S
C163 C7 1.175 . S
C173 C72 1.278 . S
C187 C37 1.195 . S
C197 C60 1.280 . S
C211 C28 1.433 . S
C221 C46 1.543 1_655 S
C245 C58 1.515 . S
C235 C41 1.499 . S
C269 C48 1.335 . S
C259 C25 1.243 . S
C283 C20 1.349 . S
C293 C51 1.447 . S
C307 C16 1.405 . S
C317 C63 1.498 1_455 S
C341 C75 1.488 . S
C331 C40 1.340 . S
C355 C24 1.425 . S
C365 C87 1.539 . S
