# Generated by pormake.
# Topology zzz, (3,6)-cn, num edge types: 1
# Building blocks:
#     Node 0, Type 0, BuildingBlock: PAMTOO_clean_linker_0, # of connection points: 3
#     Node 1, Type 0, BuildingBlock: PAMTOO_clean_linker_0, # of connection points: 3
#     Node 2, Type 0, BuildingBlock: PAMTOO_clean_linker_0, # of connection points: 3
#     Node 3, Type 0, BuildingBlock: PAMTOO_clean_linker_0, # of connection points: 3
#     Node 4, Type 0, BuildingBlock: PAMTOO_clean_linker_0, # of connection points: 3
#     Node 5, Type 0, BuildingBlock: PAMTOO_clean_linker_0, # of connection points: 3
#     Node 6, Type 0, BuildingBlock: PAMTOO_clean_linker_0, # of connection points: 3
#     Node 7, Type 0, BuildingBlock: PAMTOO_clean_linker_0, # of connection points: 3
#     Node 8, Type 1, BuildingBlock: BETDAH_clean_sbu_0, # of connection points: 6
#     Node 9, Type 1, BuildingBlock: BETDAH_clean_sbu_0, # of connection points: 6
#     Node 10, Type 1, BuildingBlock: BETDAH_clean_sbu_0, # of connection points: 6
#     Node 11, Type 1, BuildingBlock: BETDAH_clean_sbu_0, # of connection points: 6
#     Edge 12, Type (0, 1), BuildingBlock: CIFDUS_clean_linker_0, # of connection points: 2
#     Edge 13, Type (0, 1), BuildingBlock: CIFDUS_clean_linker_0, # of connection points: 2
#     Edge 14, Type (0, 1), BuildingBlock: CIFDUS_clean_linker_0, # of connection points: 2
#     Edge 15, Type (0, 1), BuildingBlock: CIFDUS_clean_linker_0, # of connection points: 2
#     Edge 16, Type (0, 1), BuildingBlock: CIFDUS_clean_linker_0, # of connection points: 2
#     Edge 17, Type (0, 1), BuildingBlock: CIFDUS_clean_linker_0, # of connection points: 2
#     Edge 18, Type (0, 1), BuildingBlock: CIFDUS_clean_linker_0, # of connection points: 2
#     Edge 19, Type (0, 1), BuildingBlock: CIFDUS_clean_linker_0, # of connection points: 2
#     Edge 20, Type (0, 1), BuildingBlock: CIFDUS_clean_linker_0, # of connection points: 2
#     Edge 21, Type (0, 1), BuildingBlock: CIFDUS_clean_linker_0, # of connection points: 2
#     Edge 22, Type (0, 1), BuildingBlock: CIFDUS_clean_linker_0, # of connection points: 2
#     Edge 23, Type (0, 1), BuildingBlock: CIFDUS_clean_linker_0, # of connection points: 2
#     Edge 24, Type (0, 1), BuildingBlock: CIFDUS_clean_linker_0, # of connection points: 2
#     Edge 25, Type (0, 1), BuildingBlock: CIFDUS_clean_linker_0, # of connection points: 2
#     Edge 26, Type (0, 1), BuildingBlock: CIFDUS_clean_linker_0, # of connection points: 2
#     Edge 27, Type (0, 1), BuildingBlock: CIFDUS_clean_linker_0, # of connection points: 2
#     Edge 28, Type (0, 1), BuildingBlock: CIFDUS_clean_linker_0, # of connection points: 2
#     Edge 29, Type (0, 1), BuildingBlock: CIFDUS_clean_linker_0, # of connection points: 2
#     Edge 30, Type (0, 1), BuildingBlock: CIFDUS_clean_linker_0, # of connection points: 2
#     Edge 31, Type (0, 1), BuildingBlock: CIFDUS_clean_linker_0, # of connection points: 2
#     Edge 32, Type (0, 1), BuildingBlock: CIFDUS_clean_linker_0, # of connection points: 2
#     Edge 33, Type (0, 1), BuildingBlock: CIFDUS_clean_linker_0, # of connection points: 2
#     Edge 34, Type (0, 1), BuildingBlock: CIFDUS_clean_linker_0, # of connection points: 2
#     Edge 35, Type (0, 1), BuildingBlock: CIFDUS_clean_linker_0, # of connection points: 2
# Relax obj value: 0.304
# Max RMSD: 0.200
# Mean RMSD: 0.163
data_MOF--net-zzz--node1-BETDAH_clean_sbu_0--node2-PAMTOO_clean_linker_0--edge1-CIFDUS_clean_linker_0
_symmetry_space_group_name_H-M    P1
_symmetry_Int_Tables_number       1
_symmetry_cell_setting            triclinic
loop_
_symmetry_equiv_pos_as_xyz
'x, y, z'
_cell_length_a     44.811629
_cell_length_b     45.077617
_cell_length_c     11.604371
_cell_angle_alpha  90.048741
_cell_angle_beta   89.58947
_cell_angle_gamma 89.26804
loop_
_atom_site_label
_atom_site_type_symbol
_atom_site_fract_x
_atom_site_fract_y
_atom_site_fract_z
_atom_type_partial_charge
H0 H 0.82811 0.55375 0.41336 0.0
H1 H 0.74113 0.54216 0.27533 0.0
H2 H 0.75463 0.53323 0.64103 0.0
H3 H 0.69087 0.4981 0.5045 0.0
C4 C 0.69993 0.50969 0.42767 0.0
O5 O 0.71316 0.53588 0.46572 0.0
H6 H 0.71714 0.49445 0.38964 0.0
C7 C 0.80435 0.55118 0.42927 0.0
C8 C 0.79459 0.54416 0.54065 0.0
C9 C 0.78592 0.54686 0.33437 0.0
C10 C 0.75531 0.54487 0.34982 0.0
C11 C 0.74331 0.54066 0.45958 0.0
C12 C 0.76322 0.53903 0.5567 0.0
H13 H 1.02474 0.83011 0.43268 0.0
H14 H 1.01046 0.7455 0.28579 0.0
H15 H 1.0072 0.75554 0.65567 0.0
H16 H 0.03622 0.68172 0.51998 0.0
C17 C 0.03173 0.69619 0.44446 0.0
O18 O 1.00789 0.71547 0.47347 0.0
H19 H 0.0526 0.7089 0.43055 0.0
C20 C 1.01928 0.80693 0.44555 0.0
C21 C 1.0137 0.79639 0.55655 0.0
C22 C 1.0207 0.78788 0.35121 0.0
C23 C 1.01219 0.75875 0.36201 0.0
C24 C 1.00963 0.74587 0.47034 0.0
C25 C 1.00989 0.76491 0.57044 0.0
H26 H 0.73123 1.00908 0.42736 0.0
H27 H 0.8213 1.01084 0.3072 0.0
H28 H 0.80267 1.01627 0.67183 0.0
H29 H 0.87326 0.04944 0.53176 0.0
C30 C 0.86259 0.03764 0.45911 0.0
O31 O 0.84627 1.01398 0.50405 0.0
H32 H 0.84758 0.05439 0.41799 0.0
C33 C 0.75487 1.00796 0.44735 0.0
C34 C 0.76371 1.01017 0.56233 0.0
C35 C 0.77544 1.01112 0.35728 0.0
C36 C 0.80571 1.00922 0.37861 0.0
C37 C 0.81612 1.01146 0.49097 0.0
C38 C 0.79497 1.01306 0.58457 0.0
H39 H 0.57827 0.74594 0.54957 0.0
H40 H 0.55851 0.81726 0.3266 0.0
H41 H 0.49491 0.79347 0.5872 0.0
H42 H 0.54264 0.8666 0.47665 0.0
C43 C 0.51951 0.8654 0.44257 0.0
O44 O 0.51102 0.8358 0.43051 0.0
H45 H 0.50455 0.87612 0.50742 0.0
C46 C 0.56348 0.76412 0.52665 0.0
C47 C 0.5353 0.76561 0.57975 0.0
C48 C 0.56544 0.77583 0.41461 0.0
C49 C 0.55325 0.80436 0.40268 0.0
C50 C 0.52766 0.81194 0.46694 0.0
C51 C 0.51708 0.79094 0.55067 0.0
H52 H 0.22542 0.50595 0.07698 0.0
H53 H 0.30586 0.5008 0.25741 0.0
H54 H 0.30435 0.54184 0.9168 0.0
H55 H 0.35304 0.49318 0.20605 0.0
C56 C 0.35617 0.51764 0.20291 0.0
O57 O 0.34124 0.52799 0.10315 0.0
H58 H 0.34476 0.52752 0.27964 0.0
C59 C 0.24946 0.50885 0.07478 0.0
C60 C 0.2624 0.52281 0.98016 0.0
C61 C 0.26546 0.50204 0.17309 0.0
C62 C 0.29561 0.50685 0.17679 0.0
C63 C 0.31112 0.52135 0.08689 0.0
C64 C 0.29381 0.52993 0.98668 0.0
H65 H 1.01495 0.23375 0.12939 0.0
H66 H 1.02231 0.32181 0.26063 0.0
H67 H 0.0466 0.30299 0.90611 0.0
H68 H 0.0663 0.37817 0.0476 0.0
C69 C 0.05481 0.36584 0.11748 0.0
O70 O 0.03381 0.3473 0.06582 0.0
H71 H 0.0723 0.3523 0.16119 0.0
C72 C 1.01993 0.25692 0.11342 0.0
C73 C 0.03164 0.26475 1.00662 0.0
C74 C 1.01846 0.27703 0.20562 0.0
C75 C 1.02381 0.3068 0.18815 0.0
C76 C 0.03251 0.31706 0.07981 0.0
C77 C 0.03808 0.29567 0.98867 0.0
H78 H 0.32484 0.05584 0.13881 0.0
H79 H 0.23842 0.03941 0.27641 0.0
H80 H 0.25718 1.0194 0.91993 0.0
H81 H 0.17411 1.02631 0.03124 0.0
C82 C 0.18823 0.03238 0.10572 0.0
O83 O 0.21565 1.01744 0.09339 0.0
H84 H 0.19144 0.05679 0.10094 0.0
C85 C 0.30162 0.05072 0.1227 0.0
C86 C 0.29363 0.03991 0.01395 0.0
C87 C 0.28236 0.04852 0.21759 0.0
C88 C 0.25278 0.041 0.20158 0.0
C89 C 0.24298 0.0307 0.0953 0.0
C90 C 0.26376 0.02945 1.00046 0.0
H91 H 0.54274 0.32271 0.11114 0.0
H92 H 0.52224 0.23761 0.2503 0.0
H93 H 0.51818 0.25178 0.88222 0.0
H94 H 0.55777 0.19548 0.09413 0.0
C95 C 0.53463 0.18709 0.08554 0.0
O96 O 0.51495 0.21057 0.05897 0.0
H97 H 0.53507 0.1716 1.01108 0.0
C98 C 0.53721 0.29964 0.0955 0.0
C99 C 0.53032 0.29077 0.98399 0.0
C100 C 0.53308 0.28098 0.19013 0.0
C101 C 0.52574 0.25155 0.17551 0.0
C102 C 0.52226 0.23998 0.06526 0.0
C103 C 0.52354 0.25987 0.96734 0.0
Ho104 Ho 0.05164 1.02628 0.88128 0.0
Ho105 Ho 1.00215 0.02861 0.72179 0.0
C106 C 1.02786 0.96367 0.76715 0.0
C107 C 0.07866 1.01311 0.06889 0.0
C108 C 0.08123 0.98249 0.11255 0.0
C109 C 0.05551 0.96882 0.15606 0.0
C110 C 0.05244 0.93834 0.14676 0.0
C111 C 0.07528 0.92099 0.09676 0.0
C112 C 0.10277 0.93385 0.07046 0.0
C113 C 0.10578 0.96461 0.07864 0.0
C114 C 0.0782 0.0279 0.66741 0.0
C115 C 0.03082 0.09221 0.81988 0.0
C116 C 0.96675 0.04521 0.56221 0.0
C117 C 0.97313 0.07214 0.49823 0.0
C118 C 1.00272 0.08139 0.50133 0.0
C119 C 1.01037 0.10922 0.46558 0.0
C120 C 0.98866 0.12871 0.42285 0.0
C121 C 0.95868 0.11971 0.41765 0.0
C122 C 0.95086 0.0913 0.4562 0.0
C123 C 0.98276 1.01472 0.93672 0.0
O124 O 0.04307 0.97665 0.85072 0.0
O125 O 1.01167 0.9798 0.69557 0.0
O126 O 0.09292 1.01809 0.97258 0.0
O127 O 0.05167 1.02445 0.0676 0.0
O128 O 0.09221 0.0278 0.76437 0.0
O129 O 0.05026 0.02816 0.68816 0.0
O130 O 1.01142 0.07823 0.75342 0.0
O131 O 0.05003 0.07662 0.88182 0.0
O132 O 0.96073 0.04998 0.67082 0.0
O133 O 0.9866 1.02397 0.54719 0.0
O134 O 0.97549 1.00115 0.84297 0.0
O135 O 1.00231 0.0341 0.91067 0.0
H136 H 0.03645 0.98179 0.18593 0.0
H137 H 0.03153 0.92849 0.17308 0.0
H138 H 0.12103 0.92049 0.03612 0.0
H139 H 0.12616 0.97456 0.04726 0.0
H140 H 1.01984 0.06783 0.5405 0.0
H141 H 0.03335 0.11583 0.47655 0.0
H142 H 0.94147 0.13465 0.38614 0.0
H143 H 0.92767 0.08479 0.4572 0.0
Ho144 Ho 0.53171 0.05234 0.85113 0.0
Ho145 Ho 0.52458 1.00467 0.69774 0.0
C146 C 0.59232 1.01842 0.75203 0.0
C147 C 0.5494 0.0854 0.01698 0.0
C148 C 0.57974 0.08457 0.06474 0.0
C149 C 0.58963 0.05909 0.12364 0.0
C150 C 0.6199 0.05288 0.13229 0.0
C151 C 0.64074 0.07218 0.08371 0.0
C152 C 0.63127 0.09943 0.03831 0.0
C153 C 0.60078 0.10557 0.02841 0.0
C154 C 0.52345 0.07268 0.63147 0.0
C155 C 0.46392 0.03684 0.80197 0.0
C156 C 0.50928 0.97188 0.52735 0.0
C157 C 0.47992 0.97056 0.47306 0.0
C158 C 0.4679 0.99611 0.42105 0.0
C159 C 0.43733 0.99897 0.40701 0.0
C160 C 0.4183 0.97637 0.44437 0.0
C161 C 0.43051 0.9494 0.48302 0.0
C162 C 0.46129 0.94646 0.49681 0.0
C163 C 0.53216 0.98393 0.91611 0.0
O164 O 0.58082 0.03674 0.83065 0.0
O165 O 0.57444 1.0041 0.68253 0.0
O166 O 0.54779 0.09471 0.91075 0.0
O167 O 0.53355 0.06163 0.03378 0.0
O168 O 0.51055 0.0837 0.72252 0.0
O169 O 0.53975 0.05068 0.66193 0.0
O170 O 0.47535 1.01899 0.72159 0.0
O171 O 0.48183 0.05159 0.8705 0.0
O172 O 0.50997 0.96233 0.63339 0.0
O173 O 0.5236 0.99674 0.51454 0.0
O174 O 0.54381 0.97206 0.82438 0.0
O175 O 0.51652 1.00649 0.88743 0.0
H176 H 0.57413 0.04279 0.15557 0.0
H177 H 0.62701 0.03219 0.17166 0.0
H178 H 0.64727 0.11489 1.00336 0.0
H179 H 0.59369 0.12558 0.98415 0.0
H180 H 0.48169 1.0149 0.39949 0.0
H181 H 0.42847 1.01949 0.37169 0.0
H182 H 0.41623 0.9314 0.50941 0.0
H183 H 0.47024 0.92639 0.5354 0.0
Ho184 Ho 0.50596 0.53109 0.86416 0.0
Ho185 Ho 0.5533 0.5264 0.72079 0.0
C186 C 0.5306 0.59216 0.74897 0.0
C187 C 0.46995 0.55085 0.01999 0.0
C188 C 0.47659 0.57855 0.07974 0.0
C189 C 0.50667 0.58646 0.08521 0.0
C190 C 0.51468 0.61391 0.12527 0.0
C191 C 0.49304 0.63352 0.16911 0.0
C192 C 0.46266 0.6264 0.16221 0.0
C193 C 0.4544 0.59902 0.11468 0.0
C194 C 0.48654 0.51581 0.65006 0.0
C195 C 0.52467 0.46434 0.82435 0.0
C196 C 0.59227 0.51035 0.56943 0.0
C197 C 0.5896 0.48269 0.50622 0.0
C198 C 0.56076 0.47251 0.48648 0.0
C199 C 0.55591 0.4428 0.46785 0.0
C200 C 0.57997 0.42248 0.45794 0.0
C201 C 0.60925 0.43343 0.4679 0.0
C202 C 0.61386 0.46307 0.49698 0.0
C203 C 0.57301 0.54167 0.93584 0.0
O204 O 0.51784 0.58004 0.83971 0.0
O205 O 0.54516 0.57472 0.67671 0.0
O206 O 0.46487 0.55426 0.91046 0.0
O207 O 0.48895 0.52921 0.03943 0.0
O208 O 0.47752 0.50415 0.74568 0.0
O209 O 0.50607 0.53512 0.67143 0.0
O210 O 0.54021 0.4765 0.73872 0.0
O211 O 0.51083 0.48228 0.89729 0.0
O212 O 0.59612 0.50633 0.67941 0.0
O213 O 0.57157 0.53016 0.54815 0.0
O214 O 0.58011 0.55476 0.84084 0.0
O215 O 0.55361 0.52216 0.9132 0.0
H216 H 0.52429 0.57153 0.05618 0.0
H217 H 0.53819 0.61937 0.12697 0.0
H218 H 0.44567 0.64154 0.19498 0.0
H219 H 0.43103 0.59382 0.10578 0.0
H220 H 0.54139 0.4869 0.49806 0.0
H221 H 0.53286 0.43626 0.46862 0.0
H222 H 0.6287 0.41922 0.45836 0.0
H223 H 0.6361 0.4703 0.5183 0.0
Ho224 Ho 1.02554 0.50469 0.86522 0.0
Ho225 Ho 0.02979 0.55708 0.71745 0.0
C226 C 0.96419 0.53111 0.75171 0.0
C227 C 1.01429 0.47382 0.04639 0.0
C228 C 0.98483 0.47203 0.10182 0.0
C229 C 0.96836 0.49831 0.12035 0.0
C230 C 0.93772 0.49738 0.13577 0.0
C231 C 0.92277 0.47023 0.13256 0.0
C232 C 0.93935 0.44369 0.12425 0.0
C233 C 0.97032 0.44461 0.1084 0.0
C234 C 0.03141 0.48184 0.64729 0.0
C235 C 0.0925 0.52512 0.80728 0.0
C236 C 0.04632 0.59482 0.5662 0.0
C237 C 0.07381 0.58872 0.50247 0.0
C238 C 0.08311 0.55909 0.50344 0.0
C239 C 0.11244 0.55164 0.48506 0.0
C240 C 0.13294 0.57303 0.44951 0.0
C241 C 0.1235 0.60291 0.44083 0.0
C242 C 0.09397 0.61088 0.4704 0.0
C243 C 1.01532 0.57219 0.93727 0.0
O244 O 0.97604 0.51617 0.8388 0.0
O245 O 0.98154 0.54625 0.68106 0.0
O246 O 1.01524 0.46244 0.94321 0.0
O247 O 1.02738 0.49956 0.05083 0.0
O248 O 1.02881 0.46647 0.74046 0.0
O249 O 0.03081 0.50942 0.67314 0.0
O250 O 0.07959 0.54661 0.74684 0.0
O251 O 0.07604 0.50538 0.86221 0.0
O252 O 0.05076 0.59884 0.67596 0.0
O253 O 1.02501 0.57588 0.54706 0.0
O254 O 1.00314 0.58346 0.8462 0.0
O255 O 0.03415 0.55234 0.90582 0.0
H256 H 0.97869 0.51985 0.11481 0.0
H257 H 0.92554 0.51815 0.14659 0.0
H258 H 0.92826 0.42248 0.12409 0.0
H259 H 0.98259 0.42411 0.09297 0.0
H260 H 0.06824 0.54166 0.53058 0.0
H261 H 0.11897 0.52881 0.50105 0.0
H262 H 0.13886 0.61995 0.41384 0.0
H263 H 0.08723 0.63404 0.47193 0.0
H264 H 0.13013 0.04593 0.15807 0.0
H265 H 0.20663 1.00218 0.30742 0.0
H266 H 0.18024 0.9986 0.49178 0.0
H267 H 0.13548 1.00947 0.61492 0.0
H268 H 0.0562 0.04445 0.45465 0.0
H269 H 0.08309 0.04983 0.27287 0.0
C270 C 0.14094 0.03521 0.23048 0.0
C271 C 0.17096 1.02539 0.21816 0.0
C272 C 0.12493 0.03176 0.33561 0.0
C273 C 0.18424 1.01125 0.31359 0.0
C274 C 0.16889 1.00883 0.41959 0.0
C275 C 0.12395 1.01807 0.53999 0.0
C276 C 0.09376 0.02767 0.55124 0.0
C277 C 0.13933 1.01943 0.43242 0.0
C278 C 0.07934 0.03789 0.45147 0.0
C279 C 0.09482 0.04065 0.3462 0.0
H280 H 0.56617 0.14113 0.17797 0.0
H281 H 0.48592 0.192 0.24238 0.0
H282 H 0.47561 0.16161 0.41364 0.0
H283 H 0.4895 0.11976 0.54703 0.0
H284 H 0.56855 0.06749 0.47201 0.0
H285 H 0.57932 0.09911 0.30648 0.0
C286 C 0.54622 0.14537 0.22861 0.0
C287 C 0.52693 0.16897 0.19533 0.0
C288 C 0.54011 0.12725 0.32593 0.0
C289 C 0.50135 0.17425 0.26417 0.0
C290 C 0.4954 0.15668 0.36259 0.0
C291 C 0.50885 0.11496 0.49329 0.0
C292 C 0.5281 0.09085 0.52311 0.0
C293 C 0.51454 0.13294 0.3944 0.0
C294 C 0.5531 0.08539 0.45187 0.0
C295 C 0.55924 0.10353 0.35622 0.0
H296 H 0.39776 0.47685 0.26233 0.0
H297 H 0.38719 0.57117 0.2188 0.0
H298 H 0.43025 0.5792 0.34548 0.0
H299 H 0.46533 0.5592 0.49729 0.0
H300 H 0.46631 0.46504 0.56264 0.0
H301 H 0.43215 0.45727 0.40344 0.0
C302 C 0.40549 0.49928 0.27592 0.0
C303 C 0.3893 0.52331 0.22679 0.0
C304 C 0.42813 0.50372 0.35787 0.0
C305 C 0.39954 0.5521 0.25055 0.0
C306 C 0.42378 0.55668 0.32606 0.0
C307 C 0.45863 0.53696 0.47437 0.0
C308 C 0.46902 0.51256 0.54109 0.0
C309 C 0.43748 0.53268 0.38448 0.0
C310 C 0.4592 0.48407 0.51229 0.0
C311 C 0.43957 0.47961 0.42094 0.0
H312 H 0.08023 0.41726 0.19392 0.0
H313 H 1.0003 0.3665 0.24265 0.0
H314 H 0.98611 0.39785 0.40659 0.0
H315 H 0.99827 0.43793 0.54763 0.0
H316 H 0.07586 0.49125 0.48798 0.0
H317 H 0.08847 0.46167 0.31688 0.0
C318 C 0.0594 0.41329 0.23901 0.0
C319 C 0.042 0.38857 0.20624 0.0
C320 C 0.05076 0.43227 0.33189 0.0
C321 C 1.01499 0.38425 0.26663 0.0
C322 C 1.00663 0.40256 0.36052 0.0
C323 C 1.01757 0.44356 0.49553 0.0
C324 C 0.03576 0.46749 0.53053 0.0
C325 C 1.02465 0.42627 0.39587 0.0
C326 C 0.06086 0.47392 0.46216 0.0
C327 C 0.06833 0.45656 0.36474 0.0
H328 H 0.86239 0.04 0.21889 0.0
H329 H 0.9174 1.01274 0.50283 0.0
H330 H 0.95983 1.0046 0.36988 0.0
H331 H 0.98287 1.00914 0.17519 0.0
H332 H 0.92571 0.03046 0.88921 0.0
H333 H 0.88324 0.03724 0.01991 0.0
C334 C 0.8836 0.03207 0.252 0.0
C335 C 0.88687 0.0278 0.37215 0.0
C336 C 0.90799 0.02729 0.17492 0.0
C337 C 0.91445 1.01693 0.41179 0.0
C338 C 0.9388 1.01257 0.33603 0.0
C339 C 0.96122 1.01563 0.14186 0.0
C340 C 0.95797 1.02027 0.02234 0.0
C341 C 0.93624 1.01858 0.21785 0.0
C342 C 0.92928 0.02758 0.98082 0.0
C343 C 0.90479 0.03133 0.0557 0.0
H344 H 0.53446 0.92322 0.41189 0.0
H345 H 0.50163 0.84891 0.21929 0.0
H346 H 0.50139 0.87905 0.04343 0.0
H347 H 0.51301 0.92637 0.94066 0.0
H348 H 0.54205 1.00158 0.13714 0.0
H349 H 0.5418 0.97157 0.31287 0.0
C350 C 0.52693 0.91373 0.33159 0.0
C351 C 0.51821 0.88364 0.33014 0.0
C352 C 0.52641 0.93147 0.23058 0.0
C353 C 0.5087 0.87175 0.22445 0.0
C354 C 0.50853 0.88911 0.12329 0.0
C355 C 0.51888 0.93629 0.02244 0.0
C356 C 0.52789 0.96635 0.02508 0.0
C357 C 0.51768 0.91894 0.12476 0.0
C358 C 0.53508 0.97874 0.13213 0.0
C359 C 0.53485 0.96147 0.23303 0.0
H360 H 0.67736 0.56022 0.30443 0.0
H361 H 0.66631 0.46599 0.34213 0.0
H362 H 0.62451 0.46712 0.20868 0.0
H363 H 0.59125 0.49436 0.0738 0.0
H364 H 0.60573 0.58745 0.01695 0.0
H365 H 0.64525 0.58725 0.16173 0.0
C366 C 0.6657 0.53999 0.28416 0.0
C367 C 0.67453 0.51313 0.3384 0.0
C368 C 0.64193 0.54056 0.2023 0.0
C369 C 0.65955 0.48715 0.30585 0.0
C370 C 0.6356 0.48771 0.22843 0.0
C371 C 0.60264 0.51474 0.09454 0.0
C372 C 0.59476 0.54108 0.03521 0.0
C373 C 0.62639 0.51427 0.17585 0.0
C374 C 0.61074 0.56693 0.06179 0.0
C375 C 0.63361 0.5668 0.14464 0.0
H376 H 1.0228 0.63552 0.42933 0.0
H377 H 0.03521 0.7113 0.21121 0.0
H378 H 1.02608 0.68152 0.04177 0.0
H379 H 1.0179 0.63264 0.95128 0.0
H380 H 1.02155 0.55416 0.16232 0.0
H381 H 1.02355 0.5851 0.33519 0.0
C382 C 1.02339 0.6455 0.34492 0.0
C383 C 1.02643 0.67672 0.33633 0.0
C384 C 1.02229 0.62714 0.24509 0.0
C385 C 1.0288 0.68865 0.22439 0.0
C386 C 1.02498 0.67108 0.12578 0.0
C387 C 1.01902 0.62223 0.0354 0.0
C388 C 1.01859 0.5909 0.04347 0.0
C389 C 1.02174 0.64024 0.13483 0.0
C390 C 1.02119 0.57805 0.15309 0.0
C391 C 1.02236 0.59591 0.25258 0.0
H392 H 0.05836 0.24291 0.30494 0.0
H393 H 0.97201 0.28253 0.36256 0.0
H394 H 0.95517 0.23708 0.45919 0.0
H395 H 0.9608 0.18194 0.46834 0.0
H396 H 0.03842 0.14228 0.30322 0.0
H397 H 0.06184 0.19021 0.29039 0.0
C398 C 0.03617 0.24172 0.34314 0.0
C399 C 1.01585 0.26472 0.32174 0.0
C400 C 1.02452 0.21407 0.3678 0.0
C401 C 0.98763 0.26429 0.37455 0.0
C402 C 0.97772 0.23799 0.42526 0.0
C403 C 0.98263 0.18395 0.42842 0.0
C404 C 0.99846 0.15856 0.39131 0.0
C405 C 0.995 0.21198 0.41118 0.0
C406 C 1.02641 0.16147 0.3369 0.0
C407 C 0.04 0.18875 0.3307 0.0
H408 H 0.289 0.99325 0.28234 0.0
H409 H 0.30921 0.08272 0.38251 0.0
H410 H 0.35108 0.06437 0.49879 0.0
H411 H 0.38918 1.02541 0.51956 0.0
H412 H 0.37516 0.93928 0.36801 0.0
H413 H 0.32371 0.9532 0.32382 0.0
C414 C 0.30177 1.00849 0.33455 0.0
C415 C 0.29644 0.03913 0.32501 0.0
C416 C 0.32765 0.99822 0.38754 0.0
C417 C 0.3131 0.05904 0.3901 0.0
C418 C 0.33725 0.04854 0.4543 0.0
C419 C 0.37459 1.0096 0.47851 0.0
C420 C 0.3859 0.98173 0.4438 0.0
C421 C 0.34603 1.01858 0.44538 0.0
C422 C 0.36684 0.96092 0.39451 0.0
C423 C 0.33755 0.96895 0.36875 0.0
H424 H 0.57686 0.28617 0.34764 0.0
H425 H 0.48545 0.30943 0.27506 0.0
H426 H 0.49276 0.35899 0.35047 0.0
H427 H 0.52862 0.39686 0.37952 0.0
H428 H 0.61752 0.37369 0.49862 0.0
H429 H 0.60821 0.32219 0.45237 0.0
C430 C 0.55807 0.30143 0.35686 0.0
C431 C 0.53112 0.29517 0.3023 0.0
C432 C 0.56254 0.32997 0.39999 0.0
C433 C 0.50648 0.31434 0.31619 0.0
C434 C 0.51092 0.34293 0.35583 0.0
C435 C 0.5458 0.38115 0.40402 0.0
C436 C 0.57405 0.39027 0.44153 0.0
C437 C 0.53949 0.35137 0.38959 0.0
C438 C 0.59592 0.36825 0.46442 0.0
C439 C 0.59045 0.33845 0.44093 0.0
H440 H 0.26708 0.54065 0.34764 0.0
H441 H 0.22519 0.4602 0.23527 0.0
H442 H 0.17734 0.47815 0.3094 0.0
H443 H 0.1474 0.52146 0.34775 0.0
H444 H 0.18703 0.60115 0.48241 0.0
H445 H 0.23687 0.58007 0.44124 0.0
C446 C 0.24779 0.52632 0.34621 0.0
C447 C 0.24869 0.49999 0.28094 0.0
C448 C 0.22021 0.53773 0.38208 0.0
C449 C 0.22438 0.48085 0.28315 0.0
C450 C 0.19697 0.49159 0.32158 0.0
C451 C 0.16671 0.53391 0.37459 0.0
C452 C 0.16341 0.5626 0.42048 0.0
C453 C 0.19453 0.52084 0.36174 0.0
C454 C 0.18894 0.57908 0.44597 0.0
C455 C 0.21732 0.5668 0.42518 0.0
H456 H 1.00398 0.81011 0.145 0.0
H457 H 0.08004 0.78615 0.35058 0.0
H458 H 0.10982 0.82411 0.25749 0.0
H459 H 0.10706 0.87363 0.17096 0.0
H460 H 0.03005 0.89868 0.97228 0.0
H461 H 1.00848 0.8499 1.00134 0.0
C462 C 1.0276 0.81204 0.16311 0.0
C463 C 0.03986 0.79655 0.25559 0.0
C464 C 0.04427 0.83444 0.11126 0.0
C465 C 0.07044 0.7985 0.27944 0.0
C466 C 0.08732 0.82043 0.22745 0.0
C467 C 0.08633 0.86776 0.12938 0.0
C468 C 0.06949 0.88961 0.07336 0.0
C469 C 0.07353 0.84019 0.15113 0.0
C470 C 0.04287 0.88202 0.01801 0.0
C471 C 0.03044 0.85429 0.03553 0.0
H472 H 0.75079 0.99386 0.15666 0.0
H473 H 0.77621 0.07001 0.35522 0.0
H474 H 0.7376 0.10015 0.2645 0.0
H475 H 0.68853 0.09974 0.17195 0.0
H476 H 0.66195 1.02241 0.98228 0.0
H477 H 0.70998 0.99848 0.01816 0.0
C478 C 0.74898 1.01749 0.17373 0.0
C479 C 0.76552 0.02983 0.26243 0.0
C480 C 0.72626 0.03443 0.12326 0.0
C481 C 0.76342 0.06039 0.28586 0.0
C482 C 0.74105 0.07748 0.23553 0.0
C483 C 0.6939 0.07819 0.13487 0.0
C484 C 0.67198 0.06248 0.07655 0.0
C485 C 0.72099 0.06405 0.16063 0.0
C486 C 0.67876 0.03461 0.0283 0.0
C487 C 0.70605 1.02085 0.04961 0.0
H488 H 0.58145 0.71702 0.40092 0.0
H489 H 0.53192 0.7839 0.21229 0.0
H490 H 0.50193 0.74558 0.12573 0.0
H491 H 0.48594 0.69266 0.11969 0.0
H492 H 0.52643 0.63077 0.35705 0.0
H493 H 0.56104 0.66832 0.4204 0.0
C494 C 0.56384 0.72367 0.34257 0.0
C495 C 0.55804 0.75389 0.32152 0.0
C496 C 0.54361 0.7024 0.30697 0.0
C497 C 0.53677 0.76113 0.23571 0.0
C498 C 0.51885 0.73922 0.18758 0.0
C499 C 0.50166 0.6879 0.18811 0.0
C500 C 0.50417 0.65907 0.23277 0.0
C501 C 0.52106 0.70995 0.2272 0.0
C502 C 0.52442 0.65295 0.32162 0.0
C503 C 0.54461 0.67413 0.35586 0.0
H504 H 0.79938 0.49018 0.34669 0.0
H505 H 0.80443 0.5657 0.12073 0.0
H506 H 0.8436 0.54045 1.00706 0.0
H507 H 0.88491 0.50457 1.01063 0.0
H508 H 0.88762 0.43737 0.27491 0.0
H509 H 0.8369 0.45091 0.33495 0.0
C510 C 0.80836 0.50044 0.26935 0.0
C511 C 0.79962 0.52957 0.24117 0.0
C512 C 0.83286 0.48741 0.2141 0.0
C513 C 0.8111 0.54324 0.14273 0.0
C514 C 0.83364 0.52894 0.07924 0.0
C515 C 0.87394 0.49241 0.07925 0.0
C516 C 0.88997 0.47064 0.14072 0.0
C517 C 0.84612 0.50216 0.11978 0.0
C518 C 0.87563 0.45432 0.22716 0.0
C519 C 0.8468 0.46229 0.26211 0.0
H520 H 0.99477 0.22996 0.87322 0.0
H521 H 0.0856 0.23638 0.98658 0.0
H522 H 0.09405 0.18378 0.94197 0.0
H523 H 0.07374 0.13352 0.89234 0.0
H524 H 0.9836 0.12858 0.76655 0.0
H525 H 0.97714 0.18195 0.79314 0.0
C526 C 1.01691 0.22035 0.88263 0.0
C527 C 0.03974 0.23815 0.93048 0.0
C528 C 1.02156 0.18951 0.85781 0.0
C529 C 0.06781 0.2242 0.94614 0.0
C530 C 0.07247 0.19363 0.92292 0.0
C531 C 0.05271 0.14406 0.86977 0.0
C532 C 1.029 0.12612 0.82914 0.0
C533 C 0.04922 0.17564 0.88245 0.0
C534 C 1.00228 0.14102 0.79897 0.0
C535 C 0.9985 0.1719 0.81415 0.0
H536 H 0.33365 0.0811 0.94171 0.0
H537 H 0.31362 0.98852 0.90456 0.0
H538 H 0.36379 0.97924 0.82353 0.0
H539 H 0.4166 0.99659 0.78938 0.0
H540 H 0.43587 0.0889 0.84738 0.0
H541 H 0.38359 0.09891 0.89329 0.0
C542 C 0.33985 0.05898 0.91259 0.0
C543 C 0.31932 0.03567 0.92889 0.0
C544 C 0.36934 0.05357 0.87201 0.0
C545 C 0.32831 1.00713 0.89151 0.0
C546 C 0.3574 1.00172 0.84694 0.0
C547 C 0.40923 1.01896 0.8103 0.0
C548 C 0.43063 0.04196 0.81528 0.0
C549 C 0.37865 1.02458 0.84077 0.0
C550 C 0.42034 0.07069 0.84364 0.0
C551 C 0.39026 0.07649 0.86991 0.0
H552 H 0.48841 0.3344 0.98847 0.0
H553 H 0.56756 0.30811 0.80173 0.0
H554 H 0.57219 0.35897 0.72587 0.0
H555 H 0.5576 0.41391 0.73736 0.0
H556 H 0.48039 0.4379 0.94413 0.0
H557 H 0.47189 0.38622 0.9876 0.0
C558 C 0.50607 0.33937 0.9273 0.0
C559 C 0.52709 0.31659 0.89946 0.0
C560 C 0.50977 0.36923 0.89084 0.0
C561 C 0.5504 0.32437 0.82306 0.0
C562 C 0.55343 0.35392 0.7816 0.0
C563 C 0.53875 0.40787 0.79101 0.0
C564 C 0.51997 0.43083 0.83815 0.0
C565 C 0.53395 0.37707 0.81881 0.0
C566 C 0.4957 0.42166 0.90717 0.0
C567 C 0.49059 0.39171 0.93215 0.0
H568 H 0.2288 0.48521 0.85468 0.0
H569 H 0.24047 0.57836 0.91668 0.0
H570 H 0.1887 0.5881 0.85699 0.0
H571 H 0.13672 0.56871 0.822 0.0
H572 H 0.12521 0.47408 0.79883 0.0
H573 H 0.17907 0.46639 0.81157 0.0
C574 C 0.22054 0.5079 0.84995 0.0
C575 C 0.23938 0.53096 0.88906 0.0
C576 C 0.18971 0.51289 0.82806 0.0
C577 C 0.22741 0.56006 0.88501 0.0
C578 C 0.19725 0.56552 0.85394 0.0
C579 C 0.14604 0.54643 0.81857 0.0
C580 C 0.12634 0.52194 0.80968 0.0
C581 C 0.17761 0.54193 0.8312 0.0
C582 C 0.13927 0.49334 0.8065 0.0
C583 C 0.17032 0.48891 0.8132 0.0
H584 H 0.06022 0.83008 0.63018 0.0
H585 H 0.96565 0.81936 0.67668 0.0
H586 H 0.96127 0.87046 0.74881 0.0
H587 H 0.98327 0.92127 0.76814 0.0
H588 H 0.07826 0.93089 0.7269 0.0
H589 H 0.08337 0.87801 0.68069 0.0
C590 C 0.03882 0.8384 0.66127 0.0
C591 C 1.01333 0.82025 0.64871 0.0
C592 C 0.03634 0.86841 0.69864 0.0
C593 C 0.98577 0.83212 0.68697 0.0
C594 C 0.98318 0.86179 0.72581 0.0
C595 C 1.00513 0.9117 0.75019 0.0
C596 C 0.03037 0.93046 0.74967 0.0
C597 C 1.00806 0.88067 0.72665 0.0
C598 C 0.05848 0.91732 0.72782 0.0
C599 C 0.06141 0.88692 0.70147 0.0
H600 H 0.72181 0.96964 0.62116 0.0
H601 H 0.74606 0.0602 0.68283 0.0
H602 H 0.69546 0.07113 0.75611 0.0
H603 H 0.64144 0.05635 0.77593 0.0
H604 H 0.61853 0.96561 0.70327 0.0
H605 H 0.67064 0.9536 0.66227 0.0
C606 C 0.71645 0.99149 0.65524 0.0
C607 C 0.73832 1.01382 0.64829 0.0
C608 C 0.68682 0.99791 0.69242 0.0
C609 C 0.73032 0.04225 0.68982 0.0
C610 C 0.70099 0.04867 0.72952 0.0
C611 C 0.64792 0.03387 0.75268 0.0
C612 C 0.62552 1.01198 0.74203 0.0
C613 C 0.67856 0.02696 0.72696 0.0
C614 C 0.6348 0.98305 0.71132 0.0
C615 C 0.66482 0.97607 0.68795 0.0
H616 H 0.56108 0.7301 0.74699 0.0
H617 H 0.48635 0.73376 0.51606 0.0
H618 H 0.47785 0.68072 0.54645 0.0
H619 H 0.49504 0.63133 0.62344 0.0
H620 H 0.56974 0.62835 0.85472 0.0
H621 H 0.5749 0.68227 0.83914 0.0
C622 C 0.54226 0.71958 0.70618 0.0
C623 C 0.52412 0.73661 0.63035 0.0
C624 C 0.53799 0.68859 0.7218 0.0
C625 C 0.50023 0.72196 0.5773 0.0
C626 C 0.49571 0.69125 0.59303 0.0
C627 C 0.51237 0.64254 0.67067 0.0
C628 C 0.53238 0.62548 0.73893 0.0
C629 C 0.51501 0.67403 0.66226 0.0
C630 C 0.55436 0.64064 0.80053 0.0
C631 C 0.55722 0.67162 0.7919 0.0
H632 H 0.83915 0.50309 0.52338 0.0
H633 H 0.80855 0.57418 0.74374 0.0
H634 H 0.85787 0.57524 0.83625 0.0
H635 H 0.91264 0.56037 0.83511 0.0
H636 H 0.94245 0.4925 0.59745 0.0
H637 H 0.89132 0.48619 0.53066 0.0
C638 C 0.84286 0.51825 0.59437 0.0
C639 C 0.81957 0.53835 0.62646 0.0
C640 C 0.87186 0.51992 0.64203 0.0
C641 C 0.82541 0.55807 0.71764 0.0
C642 C 0.85401 0.55902 0.76923 0.0
C643 C 0.90783 0.544 0.76961 0.0
C644 C 0.93175 0.5269 0.72122 0.0
C645 C 0.87789 0.54084 0.72914 0.0
C646 C 0.92483 0.50592 0.63622 0.0
C647 C 0.89543 0.50227 0.59802 0.0
loop_
_geom_bond_atom_site_label_1
_geom_bond_atom_site_label_2
_geom_bond_distance
_geom_bond_site_symmetry_2
_ccdc_geom_bond_type
H0 C7 0.929 . S
H1 C10 0.930 . S
H2 C12 0.929 . S
H3 C4 0.969 . S
C4 H3 0.969 . S
C4 O5 1.550 . S
C4 H6 0.973 . S
O5 C4 1.550 . S
O5 C11 1.412 . S
H6 C4 0.973 . S
C7 H0 0.929 . S
C7 C8 1.400 . S
C7 C9 1.364 . S
C8 C7 1.400 . S
C8 C12 1.377 . S
C9 C7 1.364 . S
C9 C10 1.374 . S
C10 H1 0.930 . S
C10 C9 1.374 . S
C10 C11 1.383 . S
C11 O5 1.412 . S
C11 C10 1.383 . S
C11 C12 1.394 . S
C12 H2 0.929 . S
C12 C8 1.377 . S
C12 C11 1.394 . S
H13 C20 0.928 1_655 S
H14 C23 0.931 . S
H15 C25 0.928 1_655 S
H16 C17 0.969 . S
C17 H16 0.969 . S
C17 O18 1.550 1_455 S
C17 H19 0.973 1_455 S
O18 C17 1.550 1_655 S
O18 C24 1.404 1_655 S
H19 C17 0.973 1_655 S
C20 H13 0.928 1_455 S
C20 C21 1.399 . S
C20 C22 1.364 . S
C21 C20 1.399 . S
C21 C25 1.377 . S
C22 C20 1.364 . S
C22 C23 1.374 1_455 S
C23 H14 0.931 . S
C23 C22 1.374 1_655 S
C23 C24 1.382 1_655 S
C24 O18 1.404 1_455 S
C24 C23 1.382 1_455 S
C24 C25 1.394 . S
C25 H15 0.928 1_455 S
C25 C21 1.377 . S
C25 C24 1.394 . S
H26 C33 0.928 1_565 S
H27 C36 0.931 . S
H28 C38 0.928 1_565 S
H29 C30 0.969 . S
C30 H29 0.969 . S
C30 O31 1.550 1_545 S
C30 H32 0.973 1_545 S
O31 C30 1.550 1_565 S
O31 C37 1.404 1_565 S
H32 C30 0.973 1_565 S
C33 H26 0.928 1_545 S
C33 C34 1.399 . S
C33 C35 1.364 . S
C34 C33 1.399 . S
C34 C38 1.377 . S
C35 C33 1.364 . S
C35 C36 1.374 1_545 S
C36 H27 0.931 . S
C36 C35 1.374 1_565 S
C36 C37 1.382 1_565 S
C37 O31 1.404 1_545 S
C37 C36 1.382 1_545 S
C37 C38 1.394 . S
C38 H28 0.928 1_545 S
C38 C34 1.377 . S
C38 C37 1.394 . S
H39 C46 0.929 . S
H40 C49 0.930 . S
H41 C51 0.929 . S
H42 C43 0.969 . S
C43 H42 0.969 . S
C43 O44 1.550 . S
C43 H45 0.973 . S
O44 C43 1.550 . S
O44 C50 1.412 . S
H45 C43 0.973 . S
C46 H39 0.929 . S
C46 C47 1.400 . S
C46 C48 1.364 . S
C47 C46 1.400 . S
C47 C51 1.377 . S
C48 C46 1.364 . S
C48 C49 1.374 . S
C49 H40 0.930 . S
C49 C48 1.374 . S
C49 C50 1.383 . S
C50 O44 1.412 . S
C50 C49 1.383 . S
C50 C51 1.394 . S
C51 H41 0.929 . S
C51 C47 1.377 . S
C51 C50 1.394 . S
H52 C59 0.929 1_556 S
H53 C62 0.930 . S
H54 C64 0.929 . S
H55 C56 0.969 . S
C56 H55 0.969 . S
C56 O57 1.550 . S
C56 H58 0.973 . S
O57 C56 1.550 . S
O57 C63 1.412 . S
H58 C56 0.973 . S
C59 H52 0.929 1_554 S
C59 C60 1.400 1_554 S
C59 C61 1.364 . S
C60 C59 1.400 1_556 S
C60 C64 1.377 . S
C61 C59 1.364 . S
C61 C62 1.374 . S
C62 H53 0.930 . S
C62 C61 1.374 . S
C62 C63 1.383 . S
C63 O57 1.412 . S
C63 C62 1.383 . S
C63 C64 1.394 1_554 S
C64 H54 0.929 . S
C64 C60 1.377 . S
C64 C63 1.394 1_556 S
H65 C72 0.929 1_655 S
H66 C75 0.930 . S
H67 C77 0.928 1_655 S
H68 C69 0.969 . S
C69 H68 0.969 . S
C69 O70 1.550 1_455 S
C69 H71 0.973 1_455 S
O70 C69 1.550 1_655 S
O70 C76 1.402 1_655 S
H71 C69 0.973 1_655 S
C72 H65 0.929 1_455 S
C72 C73 1.400 1_554 S
C72 C74 1.364 . S
C73 C72 1.400 1_556 S
C73 C77 1.377 . S
C74 C72 1.364 . S
C74 C75 1.374 1_455 S
C75 H66 0.930 . S
C75 C74 1.374 1_655 S
C75 C76 1.382 1_655 S
C76 O70 1.402 1_455 S
C76 C75 1.382 1_455 S
C76 C77 1.394 1_554 S
C77 H67 0.928 1_455 S
C77 C73 1.377 . S
C77 C76 1.394 1_556 S
H78 C85 0.928 1_566 S
H79 C88 0.930 . S
H80 C90 0.928 1_565 S
H81 C82 0.969 . S
C82 H81 0.969 . S
C82 O83 1.550 1_545 S
C82 H84 0.973 1_545 S
O83 C82 1.550 1_565 S
O83 C89 1.402 1_565 S
H84 C82 0.973 1_565 S
C85 H78 0.928 1_544 S
C85 C86 1.400 1_554 S
C85 C87 1.364 . S
C86 C85 1.400 1_556 S
C86 C90 1.377 . S
C87 C85 1.364 . S
C87 C88 1.374 1_545 S
C88 H79 0.930 . S
C88 C87 1.374 1_565 S
C88 C89 1.382 1_565 S
C89 O83 1.402 1_545 S
C89 C88 1.382 1_545 S
C89 C90 1.394 1_554 S
C90 H80 0.928 1_545 S
C90 C86 1.377 . S
C90 C89 1.394 1_556 S
H91 C98 0.928 1_556 S
H92 C101 0.930 . S
H93 C103 0.929 . S
H94 C95 0.969 . S
C95 H94 0.969 . S
C95 O96 1.550 . S
C95 H97 0.973 . S
O96 C95 1.550 . S
O96 C102 1.412 . S
H97 C95 0.973 . S
C98 H91 0.928 1_554 S
C98 C99 1.396 1_554 S
C98 C100 1.367 . S
C99 C98 1.396 1_556 S
C99 C103 1.377 . S
C100 C98 1.367 . S
C100 C101 1.374 . S
C101 H92 0.930 . S
C101 C100 1.374 . S
C101 C102 1.383 . S
C102 O96 1.412 . S
C102 C101 1.383 . S
C102 C103 1.394 1_554 S
C103 H93 0.929 . S
C103 C99 1.377 . S
C103 C102 1.394 1_556 S
Ho104 C107 2.811 1_556 S
Ho104 O124 2.322 . S
Ho104 O126 2.378 . S
Ho104 O127 2.524 . S
Ho104 O128 2.381 . S
Ho104 O129 2.669 1_565 S
Ho104 O131 2.346 1_565 S
Ho104 O135 2.305 1_455 S
Ho105 C116 2.811 . S
Ho105 O125 2.346 1_545 S
Ho105 O129 2.305 1_655 S
Ho105 O130 2.322 . S
Ho105 O132 2.378 . S
Ho105 O133 2.524 . S
Ho105 O134 2.381 . S
Ho105 O135 2.669 1_545 S
C106 O124 1.259 1_655 S
C106 O125 1.268 . S
C107 Ho104 2.811 1_554 S
C107 C108 1.488 . S
C107 O126 1.215 1_554 S
C107 O127 1.289 1_554 S
C108 C107 1.488 . S
C108 C109 1.348 . S
C108 C113 1.413 . S
C109 C108 1.348 . S
C109 C110 1.442 . S
C109 H136 0.930 1_455 S
C110 C109 1.442 . S
C110 C111 1.381 . S
C110 H137 0.931 1_455 S
C111 C110 1.381 . S
C111 C112 1.321 . S
C112 C111 1.321 . S
C112 C113 1.403 . S
C112 H138 0.934 . S
C113 C108 1.413 . S
C113 C112 1.403 . S
C113 H139 0.930 . S
C114 O128 1.275 . S
C114 O129 1.256 1_565 S
C115 O130 1.259 1_455 S
C115 O131 1.268 . S
C116 Ho105 2.811 . S
C116 C117 1.488 . S
C116 O132 1.215 . S
C116 O133 1.289 . S
C117 C116 1.488 . S
C117 C118 1.348 . S
C117 C122 1.413 . S
C118 C117 1.348 . S
C118 C119 1.442 . S
C118 H140 0.930 1_655 S
C119 C118 1.442 . S
C119 C120 1.381 . S
C119 H141 0.931 1_655 S
C120 C119 1.381 . S
C120 C121 1.321 . S
C121 C120 1.321 . S
C121 C122 1.403 . S
C121 H142 0.934 . S
C122 C117 1.413 . S
C122 C121 1.403 . S
C122 H143 0.930 . S
C123 O134 1.275 . S
C123 O135 1.256 1_545 S
O124 Ho104 2.322 . S
O124 C106 1.259 1_455 S
O125 Ho105 2.346 1_565 S
O125 C106 1.268 . S
O126 Ho104 2.378 . S
O126 C107 1.215 1_556 S
O127 Ho104 2.524 . S
O127 C107 1.289 1_556 S
O128 Ho104 2.381 . S
O128 C114 1.275 . S
O129 Ho104 2.669 1_545 S
O129 Ho105 2.305 1_455 S
O129 C114 1.256 1_545 S
O130 Ho105 2.322 . S
O130 C115 1.259 1_655 S
O131 Ho104 2.346 1_545 S
O131 C115 1.268 . S
O132 Ho105 2.378 . S
O132 C116 1.215 . S
O133 Ho105 2.524 . S
O133 C116 1.289 . S
O134 Ho105 2.381 . S
O134 C123 1.275 . S
O135 Ho104 2.305 1_655 S
O135 Ho105 2.669 1_565 S
O135 C123 1.256 1_565 S
H136 C109 0.930 1_655 S
H137 C110 0.931 1_655 S
H138 C112 0.934 . S
H139 C113 0.930 . S
H140 C118 0.930 1_455 S
H141 C119 0.931 1_455 S
H142 C121 0.934 . S
H143 C122 0.930 . S
Ho144 C147 2.811 1_556 S
Ho144 O164 2.322 . S
Ho144 O166 2.378 . S
Ho144 O167 2.520 1_556 S
Ho144 O168 2.381 . S
Ho144 O169 2.669 . S
Ho144 O171 2.346 . S
Ho144 O175 2.305 1_545 S
Ho145 C156 2.811 . S
Ho145 O165 2.346 . S
Ho145 O169 2.305 1_565 S
Ho145 O170 2.322 . S
Ho145 O172 2.378 . S
Ho145 O173 2.524 . S
Ho145 O174 2.381 . S
Ho145 O175 2.669 . S
C146 O164 1.259 1_565 S
C146 O165 1.268 . S
C147 Ho144 2.811 1_554 S
C147 C148 1.488 . S
C147 O166 1.215 1_554 S
C147 O167 1.290 . S
C148 C147 1.488 . S
C148 C149 1.348 . S
C148 C153 1.413 . S
C149 C148 1.348 . S
C149 C150 1.442 . S
C149 H176 0.930 1_545 S
C150 C149 1.442 . S
C150 C151 1.381 . S
C150 H177 0.931 1_545 S
C151 C150 1.381 . S
C151 C152 1.321 . S
C152 C151 1.321 . S
C152 C153 1.403 . S
C152 H178 0.934 . S
C153 C148 1.413 . S
C153 C152 1.403 . S
C153 H179 0.930 . S
C154 O168 1.275 . S
C154 O169 1.256 . S
C155 O170 1.259 1_545 S
C155 O171 1.268 . S
C156 Ho145 2.811 . S
C156 C157 1.488 . S
C156 O172 1.215 . S
C156 O173 1.289 . S
C157 C156 1.488 . S
C157 C158 1.348 . S
C157 C162 1.413 . S
C158 C157 1.348 . S
C158 C159 1.442 . S
C158 H180 0.930 1_565 S
C159 C158 1.442 . S
C159 C160 1.381 . S
C159 H181 0.931 1_565 S
C160 C159 1.381 . S
C160 C161 1.321 . S
C161 C160 1.321 . S
C161 C162 1.403 . S
C161 H182 0.934 . S
C162 C157 1.413 . S
C162 C161 1.403 . S
C162 H183 0.930 . S
C163 O174 1.275 . S
C163 O175 1.256 . S
O164 Ho144 2.322 . S
O164 C146 1.259 1_545 S
O165 Ho145 2.346 . S
O165 C146 1.268 . S
O166 Ho144 2.378 . S
O166 C147 1.215 1_556 S
O167 Ho144 2.520 1_554 S
O167 C147 1.290 . S
O168 Ho144 2.381 . S
O168 C154 1.275 . S
O169 Ho144 2.669 . S
O169 Ho145 2.305 1_545 S
O169 C154 1.256 . S
O170 Ho145 2.322 . S
O170 C155 1.259 1_565 S
O171 Ho144 2.346 . S
O171 C155 1.268 . S
O172 Ho145 2.378 . S
O172 C156 1.215 . S
O173 Ho145 2.524 . S
O173 C156 1.289 . S
O174 Ho145 2.381 . S
O174 C163 1.275 . S
O175 Ho144 2.305 1_565 S
O175 Ho145 2.669 . S
O175 C163 1.256 . S
H176 C149 0.930 1_565 S
H177 C150 0.931 1_565 S
H178 C152 0.934 . S
H179 C153 0.930 . S
H180 C158 0.930 1_545 S
H181 C159 0.931 1_545 S
H182 C161 0.934 . S
H183 C162 0.930 . S
Ho184 C187 2.811 1_556 S
Ho184 O204 2.322 . S
Ho184 O206 2.378 . S
Ho184 O207 2.524 1_556 S
Ho184 O208 2.381 . S
Ho184 O209 2.669 . S
Ho184 O211 2.346 . S
Ho184 O215 2.305 . S
Ho185 C196 2.811 . S
Ho185 O205 2.346 . S
Ho185 O209 2.305 . S
Ho185 O210 2.322 . S
Ho185 O212 2.378 . S
Ho185 O213 2.524 . S
Ho185 O214 2.381 . S
Ho185 O215 2.669 . S
C186 O204 1.259 . S
C186 O205 1.268 . S
C187 Ho184 2.811 1_554 S
C187 C188 1.488 . S
C187 O206 1.215 1_554 S
C187 O207 1.289 . S
C188 C187 1.488 . S
C188 C189 1.348 . S
C188 C193 1.413 . S
C189 C188 1.348 . S
C189 C190 1.442 . S
C189 H216 0.930 . S
C190 C189 1.442 . S
C190 C191 1.381 . S
C190 H217 0.931 . S
C191 C190 1.381 . S
C191 C192 1.321 . S
C192 C191 1.321 . S
C192 C193 1.403 . S
C192 H218 0.934 . S
C193 C188 1.413 . S
C193 C192 1.403 . S
C193 H219 0.930 . S
C194 O208 1.275 . S
C194 O209 1.256 . S
C195 O210 1.259 . S
C195 O211 1.268 . S
C196 Ho185 2.811 . S
C196 C197 1.488 . S
C196 O212 1.215 . S
C196 O213 1.289 . S
C197 C196 1.488 . S
C197 C198 1.348 . S
C197 C202 1.413 . S
C198 C197 1.348 . S
C198 C199 1.442 . S
C198 H220 0.930 . S
C199 C198 1.442 . S
C199 C200 1.381 . S
C199 H221 0.931 . S
C200 C199 1.381 . S
C200 C201 1.321 . S
C201 C200 1.321 . S
C201 C202 1.403 . S
C201 H222 0.934 . S
C202 C197 1.413 . S
C202 C201 1.403 . S
C202 H223 0.930 . S
C203 O214 1.275 . S
C203 O215 1.256 . S
O204 Ho184 2.322 . S
O204 C186 1.259 . S
O205 Ho185 2.346 . S
O205 C186 1.268 . S
O206 Ho184 2.378 . S
O206 C187 1.215 1_556 S
O207 Ho184 2.524 1_554 S
O207 C187 1.289 . S
O208 Ho184 2.381 . S
O208 C194 1.275 . S
O209 Ho184 2.669 . S
O209 Ho185 2.305 . S
O209 C194 1.256 . S
O210 Ho185 2.322 . S
O210 C195 1.259 . S
O211 Ho184 2.346 . S
O211 C195 1.268 . S
O212 Ho185 2.378 . S
O212 C196 1.215 . S
O213 Ho185 2.524 . S
O213 C196 1.289 . S
O214 Ho185 2.381 . S
O214 C203 1.275 . S
O215 Ho184 2.305 . S
O215 Ho185 2.669 . S
O215 C203 1.256 . S
H216 C189 0.930 . S
H217 C190 0.931 . S
H218 C192 0.934 . S
H219 C193 0.930 . S
H220 C198 0.930 . S
H221 C199 0.931 . S
H222 C201 0.934 . S
H223 C202 0.930 . S
Ho224 C227 2.811 1_556 S
Ho224 O244 2.322 . S
Ho224 O246 2.378 . S
Ho224 O247 2.521 1_556 S
Ho224 O248 2.381 . S
Ho224 O249 2.669 1_655 S
Ho224 O251 2.346 1_655 S
Ho224 O255 2.305 . S
Ho225 C236 2.811 . S
Ho225 O245 2.346 1_455 S
Ho225 O249 2.305 . S
Ho225 O250 2.322 . S
Ho225 O252 2.378 . S
Ho225 O253 2.524 . S
Ho225 O254 2.381 . S
Ho225 O255 2.669 1_455 S
C226 O244 1.259 . S
C226 O245 1.268 . S
C227 Ho224 2.811 1_554 S
C227 C228 1.488 . S
C227 O246 1.215 1_554 S
C227 O247 1.290 . S
C228 C227 1.488 . S
C228 C229 1.348 . S
C228 C233 1.413 . S
C229 C228 1.348 . S
C229 C230 1.442 . S
C229 H256 0.930 . S
C230 C229 1.442 . S
C230 C231 1.381 . S
C230 H257 0.931 . S
C231 C230 1.381 . S
C231 C232 1.321 . S
C232 C231 1.321 . S
C232 C233 1.403 . S
C232 H258 0.934 . S
C233 C228 1.413 . S
C233 C232 1.403 . S
C233 H259 0.930 . S
C234 O248 1.287 . S
C234 O249 1.249 1_655 S
C235 O250 1.259 . S
C235 O251 1.268 . S
C236 Ho225 2.811 . S
C236 C237 1.488 . S
C236 O252 1.215 . S
C236 O253 1.289 . S
C237 C236 1.488 . S
C237 C238 1.348 . S
C237 C242 1.413 . S
C238 C237 1.348 . S
C238 C239 1.442 . S
C238 H260 0.930 . S
C239 C238 1.442 . S
C239 C240 1.381 . S
C239 H261 0.931 . S
C240 C239 1.381 . S
C240 C241 1.321 . S
C241 C240 1.321 . S
C241 C242 1.403 . S
C241 H262 0.934 . S
C242 C237 1.413 . S
C242 C241 1.403 . S
C242 H263 0.930 . S
C243 O254 1.291 . S
C243 O255 1.247 1_455 S
O244 Ho224 2.322 . S
O244 C226 1.259 . S
O245 Ho225 2.346 1_655 S
O245 C226 1.268 . S
O246 Ho224 2.378 . S
O246 C227 1.215 1_556 S
O247 Ho224 2.521 1_554 S
O247 C227 1.290 . S
O248 Ho224 2.381 . S
O248 C234 1.287 . S
O249 Ho224 2.669 1_455 S
O249 Ho225 2.305 . S
O249 C234 1.249 1_455 S
O250 Ho225 2.322 . S
O250 C235 1.259 . S
O251 Ho224 2.346 1_455 S
O251 C235 1.268 . S
O252 Ho225 2.378 . S
O252 C236 1.215 . S
O253 Ho225 2.524 . S
O253 C236 1.289 . S
O254 Ho225 2.381 . S
O254 C243 1.291 . S
O255 Ho224 2.305 . S
O255 Ho225 2.669 1_655 S
O255 C243 1.247 1_655 S
H256 C229 0.930 . S
H257 C230 0.931 . S
H258 C232 0.934 . S
H259 C233 0.930 . S
H260 C238 0.930 . S
H261 C239 0.931 . S
H262 C241 0.934 . S
H263 C242 0.930 . S
H264 C270 0.930 . S
H265 C273 0.930 . S
H266 C274 0.930 . S
H267 C275 0.930 . S
H268 C278 0.930 . S
H269 C279 0.930 . S
C270 H264 0.930 . S
C270 C271 1.357 . S
C270 C272 1.415 . S
C271 C270 1.357 . S
C271 C273 1.417 1_545 S
C272 C270 1.415 . S
C272 C277 1.425 1_545 S
C272 C279 1.409 . S
C273 H265 0.930 . S
C273 C271 1.417 1_565 S
C273 C274 1.362 . S
C274 H266 0.930 . S
C274 C273 1.362 . S
C274 C277 1.409 . S
C275 H267 0.930 . S
C275 C276 1.355 1_565 S
C275 C277 1.415 . S
C276 C275 1.355 1_545 S
C276 C278 1.419 . S
C277 C272 1.425 1_565 S
C277 C274 1.409 . S
C277 C275 1.415 . S
C278 H268 0.930 . S
C278 C276 1.419 . S
C278 C279 1.362 . S
C279 H269 0.930 . S
C279 C272 1.409 . S
C279 C278 1.362 . S
H280 C286 0.930 . S
H281 C289 0.930 . S
H282 C290 0.930 . S
H283 C291 0.930 . S
H284 C294 0.930 . S
H285 C295 0.930 . S
C286 H280 0.930 . S
C286 C287 1.355 . S
C286 C288 1.415 . S
C287 C286 1.355 . S
C287 C289 1.419 . S
C288 C286 1.415 . S
C288 C293 1.425 . S
C288 C295 1.409 . S
C289 H281 0.930 . S
C289 C287 1.419 . S
C289 C290 1.362 . S
C290 H282 0.930 . S
C290 C289 1.362 . S
C290 C293 1.409 . S
C291 H283 0.930 . S
C291 C292 1.355 . S
C291 C293 1.415 . S
C292 C291 1.355 . S
C292 C294 1.419 . S
C293 C288 1.425 . S
C293 C290 1.409 . S
C293 C291 1.415 . S
C294 H284 0.930 . S
C294 C292 1.419 . S
C294 C295 1.362 . S
C295 H285 0.930 . S
C295 C288 1.409 . S
C295 C294 1.362 . S
H296 C302 0.930 . S
H297 C305 0.930 . S
H298 C306 0.930 . S
H299 C307 0.930 . S
H300 C310 0.930 . S
H301 C311 0.930 . S
C302 H296 0.930 . S
C302 C303 1.355 . S
C302 C304 1.415 . S
C303 C302 1.355 . S
C303 C305 1.419 . S
C304 C302 1.415 . S
C304 C309 1.425 . S
C304 C311 1.409 . S
C305 H297 0.930 . S
C305 C303 1.419 . S
C305 C306 1.362 . S
C306 H298 0.930 . S
C306 C305 1.362 . S
C306 C309 1.409 . S
C307 H299 0.930 . S
C307 C308 1.355 . S
C307 C309 1.415 . S
C308 C307 1.355 . S
C308 C310 1.419 . S
C309 C304 1.425 . S
C309 C306 1.409 . S
C309 C307 1.415 . S
C310 H300 0.930 . S
C310 C308 1.419 . S
C310 C311 1.362 . S
C311 H301 0.930 . S
C311 C304 1.409 . S
C311 C310 1.362 . S
H312 C318 0.930 . S
H313 C321 0.930 . S
H314 C322 0.930 . S
H315 C323 0.930 . S
H316 C326 0.930 . S
H317 C327 0.930 . S
C318 H312 0.930 . S
C318 C319 1.355 1_455 S
C318 C320 1.415 . S
C319 C318 1.355 1_655 S
C319 C321 1.419 . S
C320 C318 1.415 . S
C320 C325 1.425 1_455 S
C320 C327 1.409 . S
C321 H313 0.930 . S
C321 C319 1.419 . S
C321 C322 1.362 . S
C322 H314 0.930 . S
C322 C321 1.362 . S
C322 C325 1.409 . S
C323 H315 0.930 . S
C323 C324 1.355 1_655 S
C323 C325 1.415 . S
C324 C323 1.355 1_455 S
C324 C326 1.419 . S
C325 C320 1.425 1_655 S
C325 C322 1.409 . S
C325 C323 1.415 . S
C326 H316 0.930 . S
C326 C324 1.419 . S
C326 C327 1.362 . S
C327 H317 0.930 . S
C327 C320 1.409 . S
C327 C326 1.362 . S
H328 C334 0.930 . S
H329 C337 0.930 . S
H330 C338 0.930 . S
H331 C339 0.930 . S
H332 C342 0.930 . S
H333 C343 0.930 . S
C334 H328 0.930 . S
C334 C335 1.355 . S
C334 C336 1.415 . S
C335 C334 1.355 . S
C335 C337 1.418 1_565 S
C336 C334 1.415 . S
C336 C341 1.425 1_565 S
C336 C343 1.409 . S
C337 H329 0.930 . S
C337 C335 1.418 1_545 S
C337 C338 1.362 . S
C338 H330 0.930 . S
C338 C337 1.362 . S
C338 C341 1.409 . S
C339 H331 0.930 . S
C339 C340 1.355 1_544 S
C339 C341 1.415 . S
C340 C339 1.355 1_566 S
C340 C342 1.419 . S
C341 C336 1.425 1_545 S
C341 C338 1.409 . S
C341 C339 1.415 . S
C342 H332 0.930 . S
C342 C340 1.419 . S
C342 C343 1.362 1_556 S
C343 H333 0.930 . S
C343 C336 1.409 . S
C343 C342 1.362 1_554 S
H344 C350 0.930 . S
H345 C353 0.930 . S
H346 C354 0.930 . S
H347 C355 0.930 1_556 S
H348 C358 0.930 . S
H349 C359 0.930 . S
C350 H344 0.930 . S
C350 C351 1.355 . S
C350 C352 1.415 . S
C351 C350 1.355 . S
C351 C353 1.419 . S
C352 C350 1.415 . S
C352 C357 1.425 . S
C352 C359 1.409 . S
C353 H345 0.930 . S
C353 C351 1.419 . S
C353 C354 1.362 . S
C354 H346 0.930 . S
C354 C353 1.362 . S
C354 C357 1.409 . S
C355 H347 0.930 1_554 S
C355 C356 1.355 . S
C355 C357 1.415 . S
C356 C355 1.355 . S
C356 C358 1.418 . S
C357 C352 1.425 . S
C357 C354 1.409 . S
C357 C355 1.415 . S
C358 H348 0.930 . S
C358 C356 1.418 . S
C358 C359 1.362 . S
C359 H349 0.930 . S
C359 C352 1.409 . S
C359 C358 1.362 . S
H360 C366 0.930 . S
H361 C369 0.930 . S
H362 C370 0.930 . S
H363 C371 0.930 . S
H364 C374 0.930 1_556 S
H365 C375 0.930 . S
C366 H360 0.930 . S
C366 C367 1.355 . S
C366 C368 1.415 . S
C367 C366 1.355 . S
C367 C369 1.419 . S
C368 C366 1.415 . S
C368 C373 1.425 . S
C368 C375 1.409 . S
C369 H361 0.930 . S
C369 C367 1.419 . S
C369 C370 1.362 . S
C370 H362 0.930 . S
C370 C369 1.362 . S
C370 C373 1.409 . S
C371 H363 0.930 . S
C371 C372 1.355 1_554 S
C371 C373 1.415 . S
C372 C371 1.355 1_556 S
C372 C374 1.419 1_556 S
C373 C368 1.425 . S
C373 C370 1.409 . S
C373 C371 1.415 . S
C374 H364 0.930 1_554 S
C374 C372 1.419 1_554 S
C374 C375 1.362 . S
C375 H365 0.930 . S
C375 C368 1.409 . S
C375 C374 1.362 . S
H376 C382 0.930 . S
H377 C385 0.930 . S
H378 C386 0.930 . S
H379 C387 0.930 1_556 S
H380 C390 0.930 . S
H381 C391 0.930 . S
C382 H376 0.930 . S
C382 C383 1.355 1_455 S
C382 C384 1.415 . S
C383 C382 1.355 1_655 S
C383 C385 1.419 . S
C384 C382 1.415 . S
C384 C389 1.425 1_455 S
C384 C391 1.409 . S
C385 H377 0.930 . S
C385 C383 1.419 . S
C385 C386 1.362 . S
C386 H378 0.930 . S
C386 C385 1.362 . S
C386 C389 1.409 . S
C387 H379 0.930 1_554 S
C387 C388 1.355 1_554 S
C387 C389 1.415 . S
C388 C387 1.355 1_556 S
C388 C390 1.419 1_656 S
C389 C384 1.425 1_655 S
C389 C386 1.409 . S
C389 C387 1.415 . S
C390 H380 0.930 . S
C390 C388 1.419 1_454 S
C390 C391 1.362 . S
C391 H381 0.930 . S
C391 C384 1.409 . S
C391 C390 1.362 . S
H392 C398 0.930 . S
H393 C401 0.930 . S
H394 C402 0.930 . S
H395 C403 0.930 . S
H396 C406 0.930 . S
H397 C407 0.898 1_455 S
C398 H392 0.930 . S
C398 C399 1.344 1_455 S
C398 C400 1.415 1_455 S
C399 C398 1.344 1_655 S
C399 C401 1.453 . S
C400 C398 1.415 1_655 S
C400 C405 1.425 . S
C400 C407 1.420 . S
C401 H393 0.930 . S
C401 C399 1.453 . S
C401 C402 1.362 . S
C402 H394 0.930 . S
C402 C401 1.362 . S
C402 C405 1.409 . S
C403 H395 0.930 . S
C403 C404 1.355 . S
C403 C405 1.415 . S
C404 C403 1.355 . S
C404 C406 1.419 . S
C405 C400 1.425 . S
C405 C402 1.409 . S
C405 C403 1.415 . S
C406 H396 0.930 . S
C406 C404 1.419 . S
C406 C407 1.384 . S
C407 H397 0.898 1_655 S
C407 C400 1.420 . S
C407 C406 1.384 . S
H408 C414 0.930 . S
H409 C417 0.930 . S
H410 C418 0.930 . S
H411 C419 0.930 . S
H412 C422 0.930 . S
H413 C423 0.930 . S
C414 H408 0.930 . S
C414 C415 1.355 1_565 S
C414 C416 1.415 . S
C415 C414 1.355 1_545 S
C415 C417 1.419 . S
C416 C414 1.415 . S
C416 C421 1.425 . S
C416 C423 1.409 . S
C417 H409 0.930 . S
C417 C415 1.419 . S
C417 C418 1.362 . S
C418 H410 0.930 . S
C418 C417 1.362 . S
C418 C421 1.409 1_545 S
C419 H411 0.930 . S
C419 C420 1.355 . S
C419 C421 1.415 . S
C420 C419 1.355 . S
C420 C422 1.419 . S
C421 C416 1.425 . S
C421 C418 1.409 1_565 S
C421 C419 1.415 . S
C422 H412 0.930 . S
C422 C420 1.419 . S
C422 C423 1.362 . S
C423 H413 0.930 . S
C423 C416 1.409 . S
C423 C422 1.362 . S
H424 C430 0.930 . S
H425 C433 0.930 . S
H426 C434 0.930 . S
H427 C435 0.930 . S
H428 C438 0.930 . S
H429 C439 0.930 . S
C430 H424 0.930 . S
C430 C431 1.355 . S
C430 C432 1.415 . S
C431 C430 1.355 . S
C431 C433 1.419 . S
C432 C430 1.415 . S
C432 C437 1.425 . S
C432 C439 1.409 . S
C433 H425 0.930 . S
C433 C431 1.419 . S
C433 C434 1.362 . S
C434 H426 0.930 . S
C434 C433 1.362 . S
C434 C437 1.409 . S
C435 H427 0.930 . S
C435 C436 1.355 . S
C435 C437 1.415 . S
C436 C435 1.355 . S
C436 C438 1.419 . S
C437 C432 1.425 . S
C437 C434 1.409 . S
C437 C435 1.415 . S
C438 H428 0.930 . S
C438 C436 1.419 . S
C438 C439 1.362 . S
C439 H429 0.930 . S
C439 C432 1.409 . S
C439 C438 1.362 . S
H440 C446 0.930 . S
H441 C449 0.930 . S
H442 C450 0.930 . S
H443 C451 0.930 . S
H444 C454 0.930 . S
H445 C455 0.930 . S
C446 H440 0.930 . S
C446 C447 1.355 . S
C446 C448 1.415 . S
C447 C446 1.355 . S
C447 C449 1.419 . S
C448 C446 1.415 . S
C448 C453 1.425 . S
C448 C455 1.409 . S
C449 H441 0.930 . S
C449 C447 1.419 . S
C449 C450 1.362 . S
C450 H442 0.930 . S
C450 C449 1.362 . S
C450 C453 1.409 . S
C451 H443 0.930 . S
C451 C452 1.355 . S
C451 C453 1.415 . S
C452 C451 1.355 . S
C452 C454 1.419 . S
C453 C448 1.425 . S
C453 C450 1.409 . S
C453 C451 1.415 . S
C454 H444 0.930 . S
C454 C452 1.419 . S
C454 C455 1.362 . S
C455 H445 0.930 . S
C455 C448 1.409 . S
C455 C454 1.362 . S
H456 C462 0.930 . S
H457 C465 0.930 . S
H458 C466 0.930 . S
H459 C467 0.930 . S
H460 C470 0.930 . S
H461 C471 0.930 . S
C462 H456 0.930 . S
C462 C463 1.355 1_655 S
C462 C464 1.415 1_655 S
C463 C462 1.355 1_455 S
C463 C465 1.419 . S
C464 C462 1.415 1_455 S
C464 C469 1.425 . S
C464 C471 1.409 1_455 S
C465 H457 0.930 . S
C465 C463 1.419 . S
C465 C466 1.362 . S
C466 H458 0.930 . S
C466 C465 1.362 . S
C466 C469 1.409 . S
C467 H459 0.930 . S
C467 C468 1.355 . S
C467 C469 1.415 . S
C468 C467 1.355 . S
C468 C470 1.419 . S
C469 C464 1.425 . S
C469 C466 1.409 . S
C469 C467 1.415 . S
C470 H460 0.930 . S
C470 C468 1.419 . S
C470 C471 1.362 1_455 S
C471 H461 0.930 . S
C471 C464 1.409 1_655 S
C471 C470 1.362 1_655 S
H472 C478 0.930 . S
H473 C481 0.930 . S
H474 C482 0.930 . S
H475 C483 0.930 . S
H476 C486 0.930 . S
H477 C487 0.930 . S
C478 H472 0.930 . S
C478 C479 1.355 1_565 S
C478 C480 1.415 1_565 S
C479 C478 1.355 1_545 S
C479 C481 1.419 . S
C480 C478 1.415 1_545 S
C480 C485 1.425 . S
C480 C487 1.409 1_545 S
C481 H473 0.930 . S
C481 C479 1.419 . S
C481 C482 1.362 . S
C482 H474 0.930 . S
C482 C481 1.362 . S
C482 C485 1.409 . S
C483 H475 0.930 . S
C483 C484 1.355 . S
C483 C485 1.415 . S
C484 C483 1.355 . S
C484 C486 1.419 . S
C485 C480 1.425 . S
C485 C482 1.409 . S
C485 C483 1.415 . S
C486 H476 0.930 . S
C486 C484 1.419 . S
C486 C487 1.362 1_545 S
C487 H477 0.930 . S
C487 C480 1.409 1_565 S
C487 C486 1.362 1_565 S
H488 C494 0.930 . S
H489 C497 0.930 . S
H490 C498 0.930 . S
H491 C499 0.930 . S
H492 C502 0.930 . S
H493 C503 0.930 . S
C494 H488 0.930 . S
C494 C495 1.355 . S
C494 C496 1.415 . S
C495 C494 1.355 . S
C495 C497 1.419 . S
C496 C494 1.415 . S
C496 C501 1.425 . S
C496 C503 1.409 . S
C497 H489 0.930 . S
C497 C495 1.419 . S
C497 C498 1.362 . S
C498 H490 0.930 . S
C498 C497 1.362 . S
C498 C501 1.409 . S
C499 H491 0.930 . S
C499 C500 1.355 . S
C499 C501 1.415 . S
C500 C499 1.355 . S
C500 C502 1.419 . S
C501 C496 1.425 . S
C501 C498 1.409 . S
C501 C499 1.415 . S
C502 H492 0.930 . S
C502 C500 1.419 . S
C502 C503 1.362 . S
C503 H493 0.930 . S
C503 C496 1.409 . S
C503 C502 1.362 . S
H504 C510 0.930 . S
H505 C513 0.930 . S
H506 C514 0.930 . S
H507 C515 0.930 . S
H508 C518 0.930 . S
H509 C519 0.930 . S
C510 H504 0.930 . S
C510 C511 1.355 . S
C510 C512 1.415 . S
C511 C510 1.355 . S
C511 C513 1.419 . S
C512 C510 1.415 . S
C512 C517 1.425 . S
C512 C519 1.409 . S
C513 H505 0.930 . S
C513 C511 1.419 . S
C513 C514 1.362 . S
C514 H506 0.930 . S
C514 C513 1.362 . S
C514 C517 1.409 . S
C515 H507 0.930 . S
C515 C516 1.355 . S
C515 C517 1.415 . S
C516 C515 1.355 . S
C516 C518 1.419 . S
C517 C512 1.425 . S
C517 C514 1.409 . S
C517 C515 1.415 . S
C518 H508 0.930 . S
C518 C516 1.419 . S
C518 C519 1.362 . S
C519 H509 0.930 . S
C519 C512 1.409 . S
C519 C518 1.362 . S
H520 C526 0.930 . S
H521 C529 0.930 . S
H522 C530 0.930 . S
H523 C531 0.930 . S
H524 C534 0.930 . S
H525 C535 0.930 . S
C526 H520 0.930 . S
C526 C527 1.355 1_655 S
C526 C528 1.415 . S
C527 C526 1.355 1_455 S
C527 C529 1.419 . S
C528 C526 1.415 . S
C528 C533 1.425 1_655 S
C528 C535 1.409 . S
C529 H521 0.930 . S
C529 C527 1.419 . S
C529 C530 1.362 . S
C530 H522 0.930 . S
C530 C529 1.362 . S
C530 C533 1.409 . S
C531 H523 0.930 . S
C531 C532 1.355 . S
C531 C533 1.415 . S
C532 C531 1.355 . S
C532 C534 1.419 1_455 S
C533 C528 1.425 1_455 S
C533 C530 1.409 . S
C533 C531 1.415 . S
C534 H524 0.930 . S
C534 C532 1.419 1_655 S
C534 C535 1.362 . S
C535 H525 0.930 . S
C535 C528 1.409 . S
C535 C534 1.362 . S
H536 C542 0.930 . S
H537 C545 0.930 . S
H538 C546 0.930 . S
H539 C547 0.930 . S
H540 C550 0.930 . S
H541 C551 0.930 . S
C542 H536 0.930 . S
C542 C543 1.364 . S
C542 C544 1.415 . S
C543 C542 1.364 . S
C543 C545 1.409 1_545 S
C544 C542 1.415 . S
C544 C549 1.425 1_545 S
C544 C551 1.409 . S
C545 H537 0.930 . S
C545 C543 1.409 1_565 S
C545 C546 1.362 . S
C546 H538 0.930 . S
C546 C545 1.362 . S
C546 C549 1.409 . S
C547 H539 0.930 . S
C547 C548 1.355 1_565 S
C547 C549 1.415 . S
C548 C547 1.355 1_545 S
C548 C550 1.419 . S
C549 C544 1.425 1_565 S
C549 C546 1.409 . S
C549 C547 1.415 . S
C550 H540 0.930 . S
C550 C548 1.419 . S
C550 C551 1.362 . S
C551 H541 0.930 . S
C551 C544 1.409 . S
C551 C550 1.362 . S
H552 C558 0.930 . S
H553 C561 0.930 . S
H554 C562 0.930 . S
H555 C563 0.930 . S
H556 C566 0.930 . S
H557 C567 0.930 . S
C558 H552 0.930 . S
C558 C559 1.355 . S
C558 C560 1.415 . S
C559 C558 1.355 . S
C559 C561 1.419 . S
C560 C558 1.415 . S
C560 C565 1.425 . S
C560 C567 1.409 . S
C561 H553 0.930 . S
C561 C559 1.419 . S
C561 C562 1.362 . S
C562 H554 0.930 . S
C562 C561 1.362 . S
C562 C565 1.409 . S
C563 H555 0.930 . S
C563 C564 1.355 . S
C563 C565 1.415 . S
C564 C563 1.355 . S
C564 C566 1.419 . S
C565 C560 1.425 . S
C565 C562 1.409 . S
C565 C563 1.415 . S
C566 H556 0.930 . S
C566 C564 1.419 . S
C566 C567 1.362 . S
C567 H557 0.930 . S
C567 C560 1.409 . S
C567 C566 1.362 . S
H568 C574 0.930 . S
H569 C577 0.930 . S
H570 C578 0.930 . S
H571 C579 0.930 . S
H572 C582 0.930 . S
H573 C583 0.930 . S
C574 H568 0.930 . S
C574 C575 1.355 . S
C574 C576 1.415 . S
C575 C574 1.355 . S
C575 C577 1.419 . S
C576 C574 1.415 . S
C576 C581 1.425 . S
C576 C583 1.409 . S
C577 H569 0.930 . S
C577 C575 1.419 . S
C577 C578 1.362 . S
C578 H570 0.930 . S
C578 C577 1.362 . S
C578 C581 1.409 . S
C579 H571 0.930 . S
C579 C580 1.355 . S
C579 C581 1.415 . S
C580 C579 1.355 . S
C580 C582 1.419 . S
C581 C576 1.425 . S
C581 C578 1.409 . S
C581 C579 1.415 . S
C582 H572 0.930 . S
C582 C580 1.419 . S
C582 C583 1.362 . S
C583 H573 0.930 . S
C583 C576 1.409 . S
C583 C582 1.362 . S
H584 C590 0.930 . S
H585 C593 0.930 . S
H586 C594 0.930 . S
H587 C595 0.930 . S
H588 C598 0.930 . S
H589 C599 0.930 . S
C590 H584 0.930 . S
C590 C591 1.355 1_455 S
C590 C592 1.415 . S
C591 C590 1.355 1_655 S
C591 C593 1.419 . S
C592 C590 1.415 . S
C592 C597 1.425 1_455 S
C592 C599 1.409 . S
C593 H585 0.930 . S
C593 C591 1.419 . S
C593 C594 1.362 . S
C594 H586 0.930 . S
C594 C593 1.362 . S
C594 C597 1.409 . S
C595 H587 0.930 . S
C595 C596 1.355 . S
C595 C597 1.415 . S
C596 C595 1.355 . S
C596 C598 1.419 1_655 S
C597 C592 1.425 1_655 S
C597 C594 1.409 . S
C597 C595 1.415 . S
C598 H588 0.930 . S
C598 C596 1.419 1_455 S
C598 C599 1.362 . S
C599 H589 0.930 . S
C599 C592 1.409 . S
C599 C598 1.362 . S
H600 C606 0.930 . S
H601 C609 0.930 . S
H602 C610 0.930 . S
H603 C611 0.930 . S
H604 C614 0.930 . S
H605 C615 0.930 . S
C606 H600 0.930 . S
C606 C607 1.353 . S
C606 C608 1.415 . S
C607 C606 1.353 . S
C607 C609 1.422 1_565 S
C608 C606 1.415 . S
C608 C613 1.425 1_565 S
C608 C615 1.409 . S
C609 H601 0.930 . S
C609 C607 1.422 1_545 S
C609 C610 1.362 . S
C610 H602 0.930 . S
C610 C609 1.362 . S
C610 C613 1.409 . S
C611 H603 0.930 . S
C611 C612 1.355 1_545 S
C611 C613 1.415 . S
C612 C611 1.355 1_565 S
C612 C614 1.419 . S
C613 C608 1.425 1_545 S
C613 C610 1.409 . S
C613 C611 1.415 . S
C614 H604 0.930 . S
C614 C612 1.419 . S
C614 C615 1.362 . S
C615 H605 0.930 . S
C615 C608 1.409 . S
C615 C614 1.362 . S
H616 C622 0.930 . S
H617 C625 0.930 . S
H618 C626 0.930 . S
H619 C627 0.930 . S
H620 C630 0.930 . S
H621 C631 0.930 . S
C622 H616 0.930 . S
C622 C623 1.355 . S
C622 C624 1.415 . S
C623 C622 1.355 . S
C623 C625 1.419 . S
C624 C622 1.415 . S
C624 C629 1.425 . S
C624 C631 1.409 . S
C625 H617 0.930 . S
C625 C623 1.419 . S
C625 C626 1.362 . S
C626 H618 0.930 . S
C626 C625 1.362 . S
C626 C629 1.409 . S
C627 H619 0.930 . S
C627 C628 1.355 . S
C627 C629 1.415 . S
C628 C627 1.355 . S
C628 C630 1.419 . S
C629 C624 1.425 . S
C629 C626 1.409 . S
C629 C627 1.415 . S
C630 H620 0.930 . S
C630 C628 1.419 . S
C630 C631 1.362 . S
C631 H621 0.930 . S
C631 C624 1.409 . S
C631 C630 1.362 . S
H632 C638 0.930 . S
H633 C641 0.930 . S
H634 C642 0.930 . S
H635 C643 0.930 . S
H636 C646 0.930 . S
H637 C647 0.930 . S
C638 H632 0.930 . S
C638 C639 1.355 . S
C638 C640 1.415 . S
C639 C638 1.355 . S
C639 C641 1.419 . S
C640 C638 1.415 . S
C640 C645 1.425 . S
C640 C647 1.409 . S
C641 H633 0.930 . S
C641 C639 1.419 . S
C641 C642 1.362 . S
C642 H634 0.930 . S
C642 C641 1.362 . S
C642 C645 1.409 . S
C643 H635 0.930 . S
C643 C644 1.355 . S
C643 C645 1.415 . S
C644 C643 1.355 . S
C644 C646 1.419 . S
C645 C640 1.425 . S
C645 C642 1.409 . S
C645 C643 1.415 . S
C646 H636 0.930 . S
C646 C644 1.419 . S
C646 C647 1.362 . S
C647 H637 0.930 . S
C647 C640 1.409 . S
C647 C646 1.362 . S
C271 C82 1.648 . S
C276 C114 2.028 1_545 S
C292 C154 2.032 . S
C287 C95 1.659 . S
C308 C194 2.057 . S
C303 C56 1.749 . S
C324 C234 2.042 1_455 S
C319 C69 1.686 1_655 S
C340 C123 2.033 1_565 S
C335 C30 1.760 1_565 S
C351 C43 1.665 . S
C356 C163 2.049 1_554 S
C367 C4 1.741 . S
C372 C203 2.055 . S
C383 C17 1.656 1_655 S
C388 C243 2.037 1_655 S
C404 C120 0.553 . S
C399 C74 0.601 1_655 S
C420 C160 0.721 . S
C415 C87 0.726 . S
C436 C200 0.720 . S
C431 C100 0.675 . S
C447 C61 0.658 . S
C452 C240 0.710 . S
C463 C22 0.567 . S
C468 C111 0.547 . S
C484 C151 0.552 . S
C479 C35 0.571 . S
C500 C191 0.570 . S
C495 C48 0.627 . S
C511 C9 0.726 . S
C516 C231 0.707 . S
C527 C73 2.087 . S
C532 C115 2.374 . S
C543 C86 2.113 . S
C548 C155 2.385 . S
C564 C195 2.367 . S
C559 C99 2.129 . S
C580 C235 2.399 . S
C575 C60 2.107 . S
C591 C21 2.138 1_655 S
C596 C106 2.380 . S
C612 C146 2.385 . S
C607 C34 2.096 1_565 S
C628 C186 2.359 . S
C623 C47 2.049 . S
C639 C8 2.153 . S
C644 C226 2.378 . S
