# Generated by pormake.
# Topology pto, (3,4)-cn, num edge types: 1
# Building blocks:
#     Node 0, Type 0, BuildingBlock: OLANEW_clean_sbu_2, # of connection points: 3
#     Node 1, Type 0, BuildingBlock: OLANEW_clean_sbu_2, # of connection points: 3
#     Node 2, Type 0, BuildingBlock: OLANEW_clean_sbu_2, # of connection points: 3
#     Node 3, Type 0, BuildingBlock: OLANEW_clean_sbu_2, # of connection points: 3
#     Node 4, Type 0, BuildingBlock: OLANEW_clean_sbu_2, # of connection points: 3
#     Node 5, Type 0, BuildingBlock: OLANEW_clean_sbu_2, # of connection points: 3
#     Node 6, Type 0, BuildingBlock: OLANEW_clean_sbu_2, # of connection points: 3
#     Node 7, Type 0, BuildingBlock: OLANEW_clean_sbu_2, # of connection points: 3
#     Node 8, Type 1, BuildingBlock: GIZVER_clean_linker_0, # of connection points: 4
#     Node 9, Type 1, BuildingBlock: GIZVER_clean_linker_0, # of connection points: 4
#     Node 10, Type 1, BuildingBlock: GIZVER_clean_linker_0, # of connection points: 4
#     Node 11, Type 1, BuildingBlock: GIZVER_clean_linker_0, # of connection points: 4
#     Node 12, Type 1, BuildingBlock: GIZVER_clean_linker_0, # of connection points: 4
#     Node 13, Type 1, BuildingBlock: GIZVER_clean_linker_0, # of connection points: 4
#     Edge 14, Type (0, 1), BuildingBlock: XUDNAN_clean_linker_2, # of connection points: 2
#     Edge 15, Type (0, 1), BuildingBlock: XUDNAN_clean_linker_2, # of connection points: 2
#     Edge 16, Type (0, 1), BuildingBlock: XUDNAN_clean_linker_2, # of connection points: 2
#     Edge 17, Type (0, 1), BuildingBlock: XUDNAN_clean_linker_2, # of connection points: 2
#     Edge 18, Type (0, 1), BuildingBlock: XUDNAN_clean_linker_2, # of connection points: 2
#     Edge 19, Type (0, 1), BuildingBlock: XUDNAN_clean_linker_2, # of connection points: 2
#     Edge 20, Type (0, 1), BuildingBlock: XUDNAN_clean_linker_2, # of connection points: 2
#     Edge 21, Type (0, 1), BuildingBlock: XUDNAN_clean_linker_2, # of connection points: 2
#     Edge 22, Type (0, 1), BuildingBlock: XUDNAN_clean_linker_2, # of connection points: 2
#     Edge 23, Type (0, 1), BuildingBlock: XUDNAN_clean_linker_2, # of connection points: 2
#     Edge 24, Type (0, 1), BuildingBlock: XUDNAN_clean_linker_2, # of connection points: 2
#     Edge 25, Type (0, 1), BuildingBlock: XUDNAN_clean_linker_2, # of connection points: 2
#     Edge 26, Type (0, 1), BuildingBlock: XUDNAN_clean_linker_2, # of connection points: 2
#     Edge 27, Type (0, 1), BuildingBlock: XUDNAN_clean_linker_2, # of connection points: 2
#     Edge 28, Type (0, 1), BuildingBlock: XUDNAN_clean_linker_2, # of connection points: 2
#     Edge 29, Type (0, 1), BuildingBlock: XUDNAN_clean_linker_2, # of connection points: 2
#     Edge 30, Type (0, 1), BuildingBlock: XUDNAN_clean_linker_2, # of connection points: 2
#     Edge 31, Type (0, 1), BuildingBlock: XUDNAN_clean_linker_2, # of connection points: 2
#     Edge 32, Type (0, 1), BuildingBlock: XUDNAN_clean_linker_2, # of connection points: 2
#     Edge 33, Type (0, 1), BuildingBlock: XUDNAN_clean_linker_2, # of connection points: 2
#     Edge 34, Type (0, 1), BuildingBlock: XUDNAN_clean_linker_2, # of connection points: 2
#     Edge 35, Type (0, 1), BuildingBlock: XUDNAN_clean_linker_2, # of connection points: 2
#     Edge 36, Type (0, 1), BuildingBlock: XUDNAN_clean_linker_2, # of connection points: 2
#     Edge 37, Type (0, 1), BuildingBlock: XUDNAN_clean_linker_2, # of connection points: 2
# Relax obj value: 0.017
# Max RMSD: 0.161
# Mean RMSD: 0.073
data_MOF--net-pto--node1-OLANEW_clean_sbu_2--node2-GIZVER_clean_linker_0--edge1-XUDNAN_clean_linker_2
_symmetry_space_group_name_H-M    P1
_symmetry_Int_Tables_number       1
_symmetry_cell_setting            triclinic
loop_
_symmetry_equiv_pos_as_xyz
'x, y, z'
_cell_length_a     52.393691
_cell_length_b     44.020619
_cell_length_c     32.219063
_cell_angle_alpha  94.130124
_cell_angle_beta   89.86535
_cell_angle_gamma 99.926228
loop_
_atom_site_label
_atom_site_type_symbol
_atom_site_fract_x
_atom_site_fract_y
_atom_site_fract_z
_atom_type_partial_charge
O0 O 0.32984 0.37141 0.18346 0.0
Cd1 Cd 0.285 0.3474 0.19441 0.0
O2 O 0.32147 0.41874 0.19209 0.0
Cd3 Cd 0.27957 0.40523 0.19936 0.0
O4 O 0.23833 0.40844 0.20193 0.0
C5 C 0.22745 0.41479 0.16919 0.0
O6 O 0.24103 0.41758 0.1349 0.0
C7 C 0.33763 0.40047 0.18547 0.0
C8 C 0.28424 0.30385 0.25309 0.0
O9 O 0.28488 0.29587 0.2141 0.0
O10 O 0.28341 0.33223 0.2641 0.0
O11 O 0.30178 0.83921 0.81853 0.0
Cd12 Cd 0.26251 0.86219 0.82592 0.0
O13 O 0.28122 0.79229 0.82755 0.0
Cd14 Cd 0.24264 0.80461 0.83067 0.0
O15 O 0.20066 0.79176 0.83367 0.0
C16 C 0.18985 0.78727 0.86857 0.0
O17 O 0.20407 0.7934 0.90267 0.0
C18 C 0.3022 0.81068 0.82168 0.0
C19 C 0.26969 0.91931 0.79165 0.0
O20 O 0.27662 0.91708 0.82927 0.0
O21 O 0.25906 0.8946 0.77052 0.0
O22 O 0.79932 0.76946 0.25046 0.0
Cd23 Cd 0.79203 0.71375 0.23311 0.0
O24 O 0.76333 0.77921 0.22312 0.0
Cd25 Cd 0.74504 0.73148 0.20563 0.0
O26 O 0.70612 0.70538 0.19207 0.0
C27 C 0.68878 0.71144 0.21751 0.0
O28 O 0.69595 0.72996 0.25082 0.0
C29 C 0.78486 0.78862 0.24187 0.0
C30 C 0.83936 0.69353 0.22032 0.0
O31 O 0.8255 0.69816 0.18944 0.0
O32 O 0.83079 0.69818 0.25709 0.0
O33 O 0.80595 0.33472 0.76844 0.0
Cd34 Cd 0.76593 0.29838 0.77829 0.0
O35 O 0.79254 0.37548 0.79898 0.0
Cd36 Cd 0.75167 0.35567 0.80586 0.0
O37 O 0.71329 0.36743 0.81805 0.0
C38 C 0.70852 0.39143 0.80194 0.0
O39 O 0.72589 0.40592 0.77744 0.0
C40 C 0.8104 0.36305 0.78168 0.0
C41 C 0.76159 0.24926 0.71756 0.0
O42 O 0.74932 0.27174 0.71391 0.0
O43 O 0.77562 0.24972 0.75018 0.0
O44 O 0.80694 0.81856 0.73512 0.0
Cd45 Cd 0.79688 0.77366 0.77658 0.0
O46 O 0.77018 0.80895 0.69969 0.0
Cd47 Cd 0.75177 0.77026 0.73411 0.0
O48 O 0.71876 0.74451 0.76539 0.0
C49 C 0.70023 0.75915 0.77352 0.0
O50 O 0.70243 0.78778 0.76302 0.0
C51 C 0.79236 0.82542 0.70701 0.0
C52 C 0.83767 0.74015 0.77582 0.0
O53 O 0.81861 0.73256 0.75013 0.0
O54 O 0.83741 0.76349 0.8019 0.0
O55 O 0.81752 0.33252 0.14614 0.0
Cd56 Cd 0.77579 0.29826 0.15121 0.0
O57 O 0.8118 0.36722 0.19648 0.0
Cd58 Cd 0.77011 0.35111 0.20184 0.0
O59 O 0.73039 0.35996 0.19663 0.0
C60 C 0.72796 0.38823 0.19665 0.0
O61 O 0.74886 0.40955 0.20106 0.0
C62 C 0.82629 0.35665 0.16933 0.0
C63 C 0.78312 0.24733 0.1937 0.0
O64 O 0.78884 0.24893 0.15517 0.0
O65 O 0.77343 0.26944 0.21209 0.0
O66 O 0.32149 0.49445 0.87297 0.0
Cd67 Cd 0.28079 0.45699 0.86526 0.0
O68 O 0.33713 0.47683 0.81443 0.0
Cd69 Cd 0.30328 0.44164 0.79849 0.0
O70 O 0.28658 0.39521 0.77321 0.0
C71 C 0.30186 0.37571 0.77328 0.0
O72 O 0.32512 0.38462 0.78969 0.0
C73 C 0.3399 0.49521 0.847 0.0
C74 C 0.23699 0.47722 0.83546 0.0
O75 O 0.24244 0.47974 0.87447 0.0
O76 O 0.25269 0.46605 0.8105 0.0
O77 O 0.37985 0.78973 0.31971 0.0
Cd78 Cd 0.37325 0.80834 0.39125 0.0
O79 O 0.33809 0.7863 0.30991 0.0
Cd80 Cd 0.30074 0.77434 0.27693 0.0
O81 O 0.26115 0.75736 0.25426 0.0
C82 C 0.25716 0.73483 0.22678 0.0
O83 O 0.27709 0.72321 0.21191 0.0
C84 C 0.36024 0.78323 0.29556 0.0
C85 C 0.35858 0.86645 0.3953 0.0
O86 O 0.38245 0.86376 0.39869 0.0
O87 O 0.34171 0.84167 0.38985 0.0
H88 H 0.00693 0.50504 0.11068 0.0
H89 H 0.01094 0.6038 0.12669 0.0
H90 H 0.94306 0.54351 0.16434 0.0
H91 H 0.0359 0.54039 0.06707 0.0
H92 H 0.03881 0.58125 0.07632 0.0
H93 H 0.05601 0.50959 0.11717 0.0
H94 H 0.12471 0.55958 0.17855 0.0
H95 H 0.07094 0.60939 0.12443 0.0
C96 C 0.99835 0.52482 0.1216 0.0
C97 C 0.97357 0.52031 0.13948 0.0
C98 C 0.01191 0.55485 0.11661 0.0
C99 C 1.00082 0.58059 0.13081 0.0
C100 C 0.97603 0.5763 0.14816 0.0
C101 C 0.96259 0.54635 0.15221 0.0
C102 C 0.0367 0.55931 0.09213 0.0
C103 C 0.06018 0.55952 0.11928 0.0
C104 C 0.06763 0.53143 0.12836 0.0
C105 C 0.09077 0.53159 0.15016 0.0
C106 C 0.10647 0.55971 0.16273 0.0
C107 C 0.09969 0.58786 0.15319 0.0
C108 C 0.07612 0.58773 0.13247 0.0
H109 H 0.03406 0.6207 0.76814 0.0
H110 H 0.05489 0.53161 0.73601 0.0
H111 H 0.09878 0.59461 0.82869 0.0
H112 H 0.02491 0.58886 0.69496 0.0
H113 H 0.02326 0.54812 0.69484 0.0
H114 H 0.99276 0.6149 0.7318 0.0
H115 H 0.92174 0.55756 0.76374 0.0
H116 H 0.9893 0.51677 0.7344 0.0
C117 C 0.04568 0.60324 0.77355 0.0
C118 C 0.06592 0.60994 0.80286 0.0
C119 C 0.04125 0.57474 0.74983 0.0
C120 C 0.05775 0.55319 0.75521 0.0
C121 C 0.07869 0.56007 0.78362 0.0
C122 C 0.0821 0.58824 0.80805 0.0
C123 C 0.02129 0.56912 0.71514 0.0
C124 C 0.99398 0.56611 0.73142 0.0
C125 C 0.98205 0.59231 0.73768 0.0
C126 C 0.95604 0.58934 0.74975 0.0
C127 C 0.942 0.55983 0.75552 0.0
C128 C 0.95368 0.53334 0.75018 0.0
C129 C 0.97988 0.53683 0.73861 0.0
H130 H 0.33376 0.16255 0.47807 0.0
H131 H 0.32859 0.1761 0.6111 0.0
H132 H 0.28459 0.2232 0.53247 0.0
H133 H 0.36651 0.14819 0.52391 0.0
H134 H 0.36387 0.15295 0.57925 0.0
H135 H 0.34817 0.09981 0.48713 0.0
H136 H 0.30947 0.02591 0.55578 0.0
H137 H 0.32853 0.1178 0.61546 0.0
C138 C 0.3252 0.1727 0.50518 0.0
C139 C 0.30803 0.19348 0.50034 0.0
C140 C 0.33258 0.16626 0.54506 0.0
C141 C 0.32247 0.18052 0.58031 0.0
C142 C 0.30506 0.20104 0.576 0.0
C143 C 0.29764 0.20692 0.53595 0.0
C144 C 0.3525 0.1458 0.54998 0.0
C145 C 0.33957 0.11254 0.55116 0.0
C146 C 0.33923 0.09189 0.51568 0.0
C147 C 0.32783 0.06082 0.51736 0.0
C148 C 0.31687 0.05038 0.55448 0.0
C149 C 0.31704 0.07056 0.59033 0.0
C150 C 0.32821 0.10183 0.5882 0.0
H151 H 0.4777 0.74895 0.927 0.0
H152 H 0.46801 0.74956 0.05924 0.0
H153 H 0.40134 0.72893 0.97825 0.0
H154 H 0.5104 0.77835 0.97614 0.0
H155 H 0.50735 0.77522 0.03059 0.0
H156 H 0.53053 0.74212 0.93314 0.0
H157 H 0.57896 0.69274 -0.00111 0.0
H158 H 0.51626 0.72814 0.06203 0.0
C159 C 0.46513 0.74454 0.95345 0.0
C160 C 0.43812 0.73837 0.94755 0.0
C161 C 0.47597 0.748 -0.00629 0.0
C162 C 0.45959 0.74458 0.0283 0.0
C163 C 0.4325 0.73803 0.02307 0.0
C164 C 0.42217 0.7335 0.98245 0.0
C165 C 0.50424 0.76158 2e-05 0.0
C166 C 0.52147 0.73736 -0.0021 0.0
C167 C 0.53488 0.73171 0.96119 0.0
C168 C 0.5551 0.71459 0.9613 0.0
C169 C 0.56168 0.70306 -0.00143 0.0
C170 C 0.54815 0.70774 0.03573 0.0
C171 C 0.52719 0.72396 0.0343 0.0
H172 H 0.83502 0.07918 0.38889 0.0
H173 H 0.81953 0.08254 0.51988 0.0
H174 H 0.78674 0.1414 0.44258 0.0
H175 H 0.86417 0.06137 0.43585 0.0
H176 H 0.86037 0.06679 0.49073 0.0
H177 H 0.83566 0.01703 0.39493 0.0
H178 H 0.81331 0.93685 0.4638 0.0
H179 H 0.83768 0.02577 0.52907 0.0
C180 C 0.82537 0.08867 0.41525 0.0
C181 C 0.80978 0.11121 0.40992 0.0
C182 C 0.82946 0.07888 0.45492 0.0
C183 C 0.81652 0.09024 0.48935 0.0
C184 C 0.80026 0.112 0.48458 0.0
C185 C 0.79753 0.12274 0.44512 0.0
C186 C 0.84959 0.05886 0.4611 0.0
C187 C 0.83762 0.02522 0.46193 0.0
C188 C 0.83213 0.00676 0.42445 0.0
C189 C 0.8236 0.9748 0.4251 0.0
C190 C 0.81961 0.96163 0.46341 0.0
C191 C 0.82446 0.97973 0.50108 0.0
C192 C 0.83346 0.01162 0.50015 0.0
H193 H 0.53004 0.55486 0.98254 0.0
H194 H 0.53041 0.50974 0.09717 0.0
H195 H 0.45847 0.51351 0.03643 0.0
H196 H 0.57022 0.55775 0.01865 0.0
H197 H 0.56849 0.55301 0.07317 0.0
H198 H 0.57361 0.51181 0.96861 0.0
H199 H 0.61166 0.44317 0.01942 0.0
H200 H 0.58029 0.50781 0.10139 0.0
C201 C 0.51969 0.54242 0.00702 0.0
C202 C 0.49245 0.53617 0.00614 0.0
C203 C 0.53356 0.53295 0.03987 0.0
C204 C 0.51994 0.5169 0.07167 0.0
C205 C 0.4928 0.51049 0.07084 0.0
C206 C 0.4794 0.51992 0.03794 0.0
C207 C 0.56273 0.54115 0.04209 0.0
C208 C 0.5752 0.51269 0.03561 0.0
C209 C 0.57971 0.50078 -0.00501 0.0
C210 C 0.59283 0.4755 -0.0115 0.0
C211 C 0.60047 0.4617 0.02335 0.0
C212 C 0.59574 0.47294 0.0638 0.0
C213 C 0.58327 0.49857 0.06999 0.0
H214 H 0.20144 0.43613 0.107 0.0
H215 H 0.19407 0.41202 0.23523 0.0
H216 H 0.15246 0.43117 0.23998 0.0
H217 H 0.18132 0.50567 0.12249 0.0
H218 H 0.16419 0.50362 0.07364 0.0
H219 H 0.19054 0.4828 0.07808 0.0
H220 H 0.16029 0.43183 0.05277 0.0
H221 H 0.13373 0.45262 0.0485 0.0
H222 H 0.13048 0.41986 0.07979 0.0
H223 H 0.11597 0.46087 0.23456 0.0
H224 H 0.08841 0.49928 0.2194 0.0
H225 H 0.1189 0.50298 0.09469 0.0
C226 C 0.19073 0.43402 0.13573 0.0
C227 C 0.20098 0.42242 0.17067 0.0
C228 C 0.18657 0.42066 0.20795 0.0
C229 C 0.16283 0.43136 0.21089 0.0
C230 C 0.15363 0.44346 0.17616 0.0
C231 C 0.16709 0.44464 0.13917 0.0
C232 C 0.1547 0.46189 0.10797 0.0
C233 C 0.17382 0.49016 0.09482 0.0
C234 C 0.14417 0.44025 0.07001 0.0
C235 C 0.13286 0.47149 0.13376 0.0
C236 C 0.13224 0.46018 0.1728 0.0
C237 C 0.11571 0.46904 0.2037 0.0
C238 C 0.10005 0.49069 0.19487 0.0
C239 C 0.10102 0.50301 0.1555 0.0
C240 C 0.11708 0.4927 0.12434 0.0
H241 H 0.15638 0.76829 0.80317 0.0
H242 H 0.16391 0.7643 0.93662 0.0
H243 H 0.12459 0.72448 0.93598 0.0
H244 H 0.08179 0.7483 0.7982 0.0
H245 H 0.08333 0.72576 0.74958 0.0
H246 H 0.10737 0.75975 0.76208 0.0
H247 H 0.1437 0.72694 0.75045 0.0
H248 H 0.11993 0.69302 0.73824 0.0
H249 H 0.14321 0.69328 0.77942 0.0
H250 H 0.09291 0.67663 0.91864 0.0
H251 H 0.07004 0.62677 0.88607 0.0
H252 H 0.08121 0.66247 0.76452 0.0
C253 C 0.14914 0.75998 0.83252 0.0
C254 C 0.16325 0.76935 0.8699 0.0
C255 C 0.15339 0.75759 0.90758 0.0
C256 C 0.13097 0.73499 0.90755 0.0
C257 C 0.11834 0.72487 0.86974 0.0
C258 C 0.12677 0.73748 0.83297 0.0
C259 C 0.1122 0.71967 0.7958 0.0
C260 C 0.09516 0.73956 0.77521 0.0
C261 C 0.13087 0.70751 0.76418 0.0
C262 C 0.09581 0.69364 0.81703 0.0
C263 C 0.09915 0.69741 0.85981 0.0
C264 C 0.08928 0.67398 0.88542 0.0
C265 C 0.07637 0.64575 0.86677 0.0
C266 C 0.07337 0.64136 0.82306 0.0
C267 C 0.08239 0.66591 0.79813 0.0
H268 H 0.85409 0.66009 0.15239 0.0
H269 H 0.8806 0.7018 0.27416 0.0
H270 H 0.92178 0.68198 0.26444 0.0
H271 H 0.87748 0.59112 0.16263 0.0
H272 H 0.88614 0.58587 0.10874 0.0
H273 H 0.86056 0.60695 0.12297 0.0
H274 H 0.88429 0.6539 0.08567 0.0
H275 H 0.91008 0.63295 0.0716 0.0
H276 H 0.9173 0.67026 0.10001 0.0
H277 H 0.95894 0.65476 0.24322 0.0
H278 H 0.9867 0.61782 0.21542 0.0
H279 H 0.93476 0.59191 0.10963 0.0
C280 C 0.8688 0.66557 0.17662 0.0
C281 C 0.86436 0.68276 0.21381 0.0
C282 C 0.88372 0.68875 0.24535 0.0
C283 C 0.90721 0.67777 0.23998 0.0
C284 C 0.91093 0.66063 0.20305 0.0
C285 C 0.89212 0.6543 0.17208 0.0
C286 C 0.89964 0.63259 0.1374 0.0
C287 C 0.87978 0.60235 0.13269 0.0
C288 C 0.90303 0.64838 0.09623 0.0
C289 C 0.92536 0.62722 0.15401 0.0
C290 C 0.93185 0.6441 0.19149 0.0
C291 C 0.95421 0.64172 0.21367 0.0
C292 C 0.96992 0.62089 0.19766 0.0
C293 C 0.96291 0.60259 0.16027 0.0
C294 C 0.94067 0.60622 0.13789 0.0
H295 H 0.82998 0.41917 0.82142 0.0
H296 H 0.84883 0.3503 0.72853 0.0
H297 H 0.89019 0.3845 0.71496 0.0
H298 H 0.85305 0.48395 0.76842 0.0
H299 H 0.86596 0.50815 0.81365 0.0
H300 H 0.83925 0.47705 0.8189 0.0
H301 H 0.86533 0.45426 0.87365 0.0
H302 H 0.89214 0.48544 0.86868 0.0
H303 H 0.89702 0.4459 0.86078 0.0
H304 H 0.92677 0.42901 0.7057 0.0
H305 H 0.9561 0.47906 0.70323 0.0
H306 H 0.91479 0.51699 0.8061 0.0
C307 C 0.84295 0.41106 0.79862 0.0
C308 C 0.83616 0.38212 0.77593 0.0
C309 C 0.85369 0.37235 0.7464 0.0
C310 C 0.87722 0.3916 0.7385 0.0
C311 C 0.8831 0.42026 0.76093 0.0
C312 C 0.8666 0.42974 0.7908 0.0
C313 C 0.87681 0.4621 0.80936 0.0
C314 C 0.85763 0.48409 0.80212 0.0
C315 C 0.88321 0.4619 0.85588 0.0
C316 C 0.90115 0.46983 0.78417 0.0
C317 C 0.90458 0.44539 0.75657 0.0
C318 C 0.92461 0.44807 0.72782 0.0
C319 C 0.94131 0.47662 0.72684 0.0
C320 C 0.93792 0.50214 0.75453 0.0
C321 C 0.91789 0.49819 0.78418 0.0
H322 H 0.2905 0.31586 0.33717 0.0
H323 H 0.2811 0.24098 0.24017 0.0
H324 H 0.28495 0.20386 0.29297 0.0
H325 H 0.33838 0.28884 0.39536 0.0
H326 H 0.32652 0.30128 0.44518 0.0
H327 H 0.32166 0.32143 0.39998 0.0
H328 H 0.27216 0.31226 0.41298 0.0
H329 H 0.27688 0.29206 0.45825 0.0
H330 H 0.25506 0.27342 0.4173 0.0
H331 H 0.29096 0.17513 0.35697 0.0
H332 H 0.29879 0.15757 0.42643 0.0
H333 H 0.30576 0.25211 0.47963 0.0
C334 C 0.28897 0.29162 0.327 0.0
C335 C 0.28536 0.28128 0.28459 0.0
C336 C 0.2838 0.2494 0.27255 0.0
C337 C 0.28594 0.22815 0.3023 0.0
C338 C 0.28972 0.2392 0.34386 0.0
C339 C 0.29124 0.27022 0.35613 0.0
C340 C 0.29627 0.27646 0.40239 0.0
C341 C 0.32226 0.29828 0.41122 0.0
C342 C 0.27375 0.2893 0.42399 0.0
C343 C 0.29739 0.24414 0.41429 0.0
C344 C 0.29348 0.22288 0.38025 0.0
C345 C 0.29399 0.19159 0.38386 0.0
C346 C 0.29858 0.18186 0.42334 0.0
C347 C 0.30265 0.20338 0.45858 0.0
C348 C 0.30212 0.2349 0.45362 0.0
H349 H 0.31039 0.75363 0.84091 0.0
H350 H 0.35056 0.8423 0.80493 0.0
H351 H 0.39247 0.82577 0.81631 0.0
H352 H 0.34725 0.74982 0.92329 0.0
H353 H 0.34731 0.70879 0.9183 0.0
H354 H 0.32111 0.72389 0.89641 0.0
H355 H 0.32957 0.69775 0.82415 0.0
H356 H 0.35605 0.68264 0.84602 0.0
H357 H 0.36137 0.70563 0.80171 0.0
H358 H 0.42869 0.80524 0.84647 0.0
H359 H 0.45521 0.78452 0.89635 0.0
H360 H 0.39282 0.70738 0.91064 0.0
C361 C 0.328 0.76914 0.83387 0.0
C362 C 0.32718 0.79922 0.82187 0.0
C363 C 0.35067 0.8191 0.81399 0.0
C364 C 0.3746 0.80979 0.82005 0.0
C365 C 0.37475 0.7804 0.83353 0.0
C366 C 0.35201 0.76024 0.84001 0.0
C367 C 0.35723 0.73214 0.86091 0.0
C368 C 0.34237 0.7285 0.90215 0.0
C369 C 0.35067 0.7028 0.83142 0.0
C370 C 0.3862 0.74082 0.86823 0.0
C371 C 0.39607 0.76825 0.85098 0.0
C372 C 0.42141 0.78328 0.85901 0.0
C373 C 0.43649 0.77111 0.88733 0.0
C374 C 0.42614 0.74423 0.90762 0.0
C375 C 0.4013 0.72791 0.89561 0.0
H376 H 0.82172 0.81386 0.30014 0.0
H377 H 0.76328 0.8376 0.21905 0.0
H378 H 0.77157 0.89121 0.25085 0.0
H379 H 0.80384 0.85315 0.38803 0.0
H380 H 0.83609 0.86556 0.40908 0.0
H381 H 0.82902 0.83099 0.37497 0.0
H382 H 0.86587 0.8529 0.32587 0.0
H383 H 0.87314 0.88762 0.36002 0.0
H384 H 0.86607 0.89012 0.30578 0.0
H385 H 0.78259 0.94056 0.29748 0.0
H386 H 0.79395 0.97987 0.35667 0.0
H387 H 0.84424 0.92295 0.40733 0.0
C388 C 0.8112 0.83053 0.28814 0.0
C389 C 0.79202 0.8216 0.25684 0.0
C390 C 0.77819 0.84396 0.24285 0.0
C391 C 0.78284 0.87451 0.26061 0.0
C392 C 0.80141 0.88234 0.29226 0.0
C393 C 0.81541 0.86095 0.30579 0.0
C394 C 0.83209 0.87398 0.3433 0.0
C395 C 0.82481 0.85478 0.38105 0.0
C396 C 0.86101 0.8763 0.33311 0.0
C397 C 0.82464 0.90565 0.3497 0.0
C398 C 0.80732 0.91039 0.31954 0.0
C399 C 0.79645 0.93728 0.32087 0.0
C400 C 0.80302 0.95949 0.35444 0.0
C401 C 0.81992 0.95431 0.38634 0.0
C402 C 0.83131 0.92744 0.3832 0.0
H403 H 0.66866 0.36785 0.85225 0.0
H404 H 0.69751 0.44733 0.78274 0.0
H405 H 0.66394 0.47452 0.81368 0.0
H406 H 0.59773 0.37717 0.84981 0.0
H407 H 0.5931 0.36495 0.90191 0.0
H408 H 0.61585 0.34937 0.868 0.0
H409 H 0.65215 0.36699 0.92348 0.0
H410 H 0.62963 0.38262 0.95733 0.0
H411 H 0.65905 0.40705 0.94283 0.0
H412 H 0.63411 0.49692 0.86285 0.0
H413 H 0.61007 0.51181 0.92457 0.0
H414 H 0.59701 0.41659 0.95795 0.0
C415 C 0.66738 0.39057 0.8425 0.0
C416 C 0.68575 0.40543 0.81509 0.0
C417 C 0.68363 0.43537 0.80355 0.0
C418 C 0.66452 0.451 0.82086 0.0
C419 C 0.64729 0.43617 0.84899 0.0
C420 C 0.64824 0.40638 0.85917 0.0
C421 C 0.62934 0.39687 0.89344 0.0
C422 C 0.60772 0.37053 0.87731 0.0
C423 C 0.64339 0.38788 0.93149 0.0
C424 C 0.61894 0.42664 0.90283 0.0
C425 C 0.6292 0.4489 0.87645 0.0
C426 C 0.62527 0.47943 0.88288 0.0
C427 C 0.61139 0.48767 0.91803 0.0
C428 C 0.60157 0.46544 0.94639 0.0
C429 C 0.60434 0.43425 0.93716 0.0
H430 H 0.25042 0.93337 0.71799 0.0
H431 H 0.30158 0.9724 0.82119 0.0
H432 H 0.31449 0.02008 0.78476 0.0
H433 H 0.29071 0.95881 0.63976 0.0
H434 H 0.26603 0.9674 0.60578 0.0
H435 H 0.25782 0.93862 0.64264 0.0
H436 H 0.22249 0.96793 0.67376 0.0
H437 H 0.2306 0.99686 0.63679 0.0
H438 H 0.23113 0.00814 0.69173 0.0
H439 H 0.32725 0.05923 0.73215 0.0
H440 H 0.33793 0.0868 0.6688 0.0
H441 H 0.27572 0.02447 0.60222 0.0
C442 C 0.26387 0.95224 0.73338 0.0
C443 C 0.275 0.9492 0.77239 0.0
C444 C 0.29269 0.9743 0.79139 0.0
C445 C 0.30009 1.00151 0.77099 0.0
C446 C 0.28923 0.00346 0.73202 0.0
C447 C 0.27119 0.97965 0.71371 0.0
C448 C 0.26394 0.98641 0.67032 0.0
C449 C 0.27 0.96133 0.63773 0.0
C450 C 0.23534 0.99006 0.66803 0.0
C451 C 0.28173 0.01695 0.66622 0.0
C452 C 0.29596 0.02664 0.70225 0.0
C453 C 0.31571 0.05237 0.70414 0.0
C454 C 0.32155 0.06804 0.66795 0.0
C455 C 0.30767 0.05792 0.63033 0.0
C456 C 0.28684 0.03277 0.63028 0.0
H457 H 0.66622 0.67052 0.15401 0.0
H458 H 0.64871 0.7352 0.25364 0.0
H459 H 0.60468 0.73122 0.22534 0.0
H460 H 0.63889 0.69802 0.07675 0.0
H461 H 0.62478 0.66226 0.04849 0.0
H462 H 0.65231 0.66338 0.0819 0.0
H463 H 0.6269 0.61944 0.12267 0.0
H464 H 0.59921 0.61795 0.08896 0.0
H465 H 0.59588 0.62355 0.14455 0.0
H466 H 0.56929 0.73298 0.17633 0.0
H467 H 0.54377 0.73651 0.11444 0.0
H468 H 0.57841 0.66336 0.0504 0.0
C469 C 0.65273 0.68281 0.17078 0.0
C470 C 0.66097 0.70329 0.20588 0.0
C471 C 0.64289 0.7193 0.22676 0.0
C472 C 0.61772 0.7171 0.211 0.0
C473 C 0.61058 0.69801 0.17507 0.0
C474 C 0.62725 0.68031 0.15589 0.0
C475 C 0.61576 0.66442 0.11513 0.0
C476 C 0.63401 0.67254 0.07844 0.0
C477 C 0.60903 0.62925 0.11802 0.0
C478 C 0.5914 0.6785 0.11251 0.0
C479 C 0.58857 0.69738 0.14772 0.0
C480 C 0.57053 0.71724 0.1493 0.0
C481 C 0.55583 0.7189 0.11353 0.0
C482 C 0.55883 0.70041 0.0764 0.0
C483 C 0.57576 0.67852 0.07737 0.0
H484 H 0.79801 0.21286 0.69893 0.0
H485 H 0.72287 0.23003 0.6602 0.0
H486 H 0.72223 0.19075 0.60124 0.0
H487 H 0.8232 0.20829 0.5993 0.0
H488 H 0.84194 0.17862 0.60819 0.0
H489 H 0.83467 0.20417 0.65097 0.0
H490 H 0.8139 0.15698 0.69053 0.0
H491 H 0.82107 0.13124 0.64768 0.0
H492 H 0.78829 0.12886 0.66596 0.0
H493 H 0.73122 0.15324 0.54368 0.0
H494 H 0.7506 0.1232 0.48825 0.0
H495 H 0.82106 0.13245 0.56203 0.0
C496 C 0.78114 0.20773 0.67863 0.0
C497 C 0.76032 0.22413 0.68432 0.0
C498 C 0.73894 0.21756 0.65644 0.0
C499 C 0.73834 0.19518 0.62305 0.0
C500 C 0.75936 0.17975 0.61786 0.0
C501 C 0.78045 0.18584 0.64472 0.0
C502 C 0.80179 0.16864 0.6295 0.0
C503 C 0.82687 0.19128 0.62151 0.0
C504 C 0.80653 0.14503 0.66025 0.0
C505 C 0.7897 0.15264 0.58929 0.0
C506 C 0.76501 0.15885 0.58367 0.0
C507 C 0.75045 0.14803 0.54787 0.0
C508 C 0.76167 0.13113 0.5165 0.0
C509 C 0.78735 0.12555 0.52077 0.0
C510 C 0.80125 0.13584 0.55816 0.0
H511 H 0.35921 0.46069 0.17599 0.0
H512 H 0.37849 0.36883 0.17838 0.0
H513 H 0.42388 0.38971 0.16152 0.0
H514 H 0.39448 0.48071 0.08917 0.0
H515 H 0.40449 0.52084 0.10648 0.0
H516 H 0.37498 0.49955 0.12554 0.0
H517 H 0.39165 0.51404 0.20142 0.0
H518 H 0.4214 0.5352 0.18237 0.0
H519 H 0.42235 0.50495 0.21689 0.0
H520 H 0.4656 0.41933 0.13507 0.0
H521 H 0.49835 0.45414 0.0971 0.0
H522 H 0.4518 0.52635 0.11342 0.0
C523 C 0.37308 0.44504 0.17401 0.0
C524 C 0.3653 0.41315 0.17874 0.0
C525 C 0.384 0.39338 0.17501 0.0
C526 C 0.40988 0.40507 0.16572 0.0
C527 C 0.4168 0.43659 0.16052 0.0
C528 C 0.39888 0.45628 0.16459 0.0
C529 C 0.41032 0.48842 0.15288 0.0
C530 C 0.39518 0.4979 0.11636 0.0
C531 C 0.4115 0.51204 0.19065 0.0
C532 C 0.43715 0.48348 0.14001 0.0
C533 C 0.4408 0.45363 0.14535 0.0
C534 C 0.46318 0.44294 0.13159 0.0
C535 C 0.48177 0.46287 0.1103 0.0
C536 C 0.47758 0.49287 0.10271 0.0
C537 C 0.45556 0.5036 0.11937 0.0
H538 H 0.83944 0.68343 0.73578 0.0
H539 H 0.88474 0.75682 0.81537 0.0
H540 H 0.92081 0.72726 0.81503 0.0
H541 H 0.85948 0.62103 0.78472 0.0
H542 H 0.86005 0.59714 0.737 0.0
H543 H 0.83834 0.62473 0.74199 0.0
H544 H 0.85785 0.64966 0.67592 0.0
H545 H 0.87965 0.62215 0.67076 0.0
H546 H 0.89231 0.66301 0.6735 0.0
H547 H 0.95195 0.68935 0.80618 0.0
H548 H 0.97457 0.64469 0.7928 0.0
H549 H 0.9084 0.59594 0.7204 0.0
C550 C 0.85701 0.6934 0.75292 0.0
C551 C 0.85933 0.72251 0.77543 0.0
C552 C 0.88253 0.73456 0.79788 0.0
C553 C 0.90315 0.71799 0.79777 0.0
C554 C 0.90021 0.68933 0.77529 0.0
C555 C 0.87765 0.67705 0.75349 0.0
C556 C 0.879 0.64527 0.73316 0.0
C557 C 0.85798 0.62059 0.75025 0.0
C558 C 0.8771 0.64503 0.68551 0.0
C559 C 0.9058 0.64155 0.74701 0.0
C560 C 0.91784 0.66729 0.77099 0.0
C561 C 0.94271 0.66908 0.78741 0.0
C562 C 0.95545 0.64371 0.7795 0.0
C563 C 0.9432 0.61686 0.75574 0.0
C564 C 0.91814 0.61603 0.73905 0.0
H565 H 0.85276 0.40606 0.21723 0.0
H566 H 0.85962 0.34607 0.10627 0.0
H567 H 0.90172 0.37792 0.09127 0.0
H568 H 0.87606 0.47486 0.17521 0.0
H569 H 0.89354 0.49332 0.22095 0.0
H570 H 0.8659 0.46344 0.22614 0.0
H571 H 0.8939 0.43241 0.26715 0.0
H572 H 0.92169 0.46235 0.2622 0.0
H573 H 0.92329 0.42293 0.24453 0.0
H574 H 0.93965 0.42062 0.08289 0.0
H575 H 0.97045 0.46979 0.08282 0.0
H576 H 0.9405 0.49989 0.20175 0.0
C577 C 0.86335 0.39919 0.19025 0.0
C578 C 0.85285 0.37355 0.16294 0.0
C579 C 0.86729 0.36553 0.12779 0.0
C580 C 0.89127 0.38345 0.11903 0.0
C581 C 0.90076 0.40903 0.14607 0.0
C582 C 0.88739 0.41664 0.18127 0.0
C583 C 0.90084 0.44647 0.20371 0.0
C584 C 0.88302 0.47095 0.20664 0.0
C585 C 0.91051 0.44068 0.24696 0.0
C586 C 0.92322 0.45516 0.17465 0.0
C587 C 0.92304 0.43316 0.1418 0.0
C588 C 0.94039 0.43766 0.10901 0.0
C589 C 0.95795 0.46565 0.10936 0.0
C590 C 0.95803 0.48883 0.1423 0.0
C591 C 0.94092 0.48283 0.17592 0.0
H592 H 0.20002 0.50211 0.88062 0.0
H593 H 0.21935 0.47211 0.75488 0.0
H594 H 0.17882 0.48575 0.72881 0.0
H595 H 0.13044 0.47521 0.87142 0.0
H596 H 0.12253 0.508 0.9024 0.0
H597 H 0.15251 0.49463 0.9116 0.0
H598 H 0.17825 0.54928 0.90111 0.0
H599 H 0.14837 0.56284 0.89222 0.0
H600 H 0.17359 0.56733 0.85387 0.0
H601 H 0.13715 0.50469 0.71599 0.0
H602 H 0.09887 0.53032 0.71677 0.0
H603 H 0.10587 0.54654 0.85115 0.0
C604 C 0.19571 0.49829 0.84761 0.0
C605 C 0.21289 0.486 0.8198 0.0
C606 C 0.20653 0.4815 0.77681 0.0
C607 C 0.18348 0.48904 0.76171 0.0
C608 C 0.16693 0.50096 0.78999 0.0
C609 C 0.17278 0.50567 0.83201 0.0
C610 C 0.15221 0.51997 0.85558 0.0
C611 C 0.13862 0.49814 0.88711 0.0
C612 C 0.1638 0.55174 0.87694 0.0
C613 C 0.13409 0.52305 0.82013 0.0
C614 C 0.1428 0.51169 0.78262 0.0
C615 C 0.12995 0.51332 0.74525 0.0
C616 C 0.10802 0.52769 0.74608 0.0
C617 C 0.09912 0.54033 0.78405 0.0
C618 C 0.11211 0.5372 0.82158 0.0
H619 H 0.24231 0.68238 0.17587 0.0
H620 H 0.21149 0.7537 0.25011 0.0
H621 H 0.16693 0.7265 0.23351 0.0
H622 H 0.1908 0.66707 0.0954 0.0
H623 H 0.19138 0.62614 0.09144 0.0
H624 H 0.22051 0.65323 0.10519 0.0
H625 H 0.22523 0.62526 0.17218 0.0
H626 H 0.19614 0.5982 0.1587 0.0
H627 H 0.19878 0.62023 0.20834 0.0
H628 H 0.12555 0.68865 0.21318 0.0
H629 H 0.09187 0.64299 0.19287 0.0
H630 H 0.15059 0.59732 0.13291 0.0
C631 C 0.22623 0.69266 0.18804 0.0
C632 C 0.23042 0.72024 0.21417 0.0
C633 C 0.20877 0.73263 0.2299 0.0
C634 C 0.18338 0.71739 0.22054 0.0
C635 C 0.17997 0.68989 0.19528 0.0
C636 C 0.20087 0.67774 0.17917 0.0
C637 C 0.19227 0.6468 0.15541 0.0
C638 C 0.19915 0.64843 0.10911 0.0
C639 C 0.20379 0.62112 0.17484 0.0
C640 C 0.16333 0.64294 0.16165 0.0
C641 C 0.15644 0.66815 0.18416 0.0
C642 C 0.13073 0.66894 0.19518 0.0
C643 C 0.11174 0.64302 0.1835 0.0
C644 C 0.11873 0.6167 0.16164 0.0
C645 C 0.14476 0.6171 0.14991 0.0
H646 H 0.76744 0.8437 0.64102 0.0
H647 H 0.83649 0.86916 0.71875 0.0
H648 H 0.85028 0.91487 0.67859 0.0
H649 H 0.7976 0.86332 0.54639 0.0
H650 H 0.77031 0.87755 0.52584 0.0
H651 H 0.76521 0.8483 0.56266 0.0
H652 H 0.74065 0.88313 0.61066 0.0
H653 H 0.74586 0.91261 0.57405 0.0
H654 H 0.75631 0.92179 0.62743 0.0
H655 H 0.85746 0.95652 0.62738 0.0
H656 H 0.85876 0.98826 0.56681 0.0
H657 H 0.78473 0.93546 0.52389 0.0
C658 C 0.78537 0.85898 0.64992 0.0
C659 C 0.80084 0.85286 0.68315 0.0
C660 C 0.82429 0.87335 0.69342 0.0
C661 C 0.83222 0.89946 0.67094 0.0
C662 C 0.81646 0.90479 0.63838 0.0
C663 C 0.79358 0.88502 0.62783 0.0
C664 C 0.78081 0.89483 0.59015 0.0
C665 C 0.77835 0.8695 0.55415 0.0
C666 C 0.75434 0.90362 0.60126 0.0
C667 C 0.80032 0.92291 0.5806 0.0
C668 C 0.82061 0.92857 0.60899 0.0
C669 C 0.84153 0.9525 0.60523 0.0
C670 C 0.84203 0.97055 0.57091 0.0
C671 C 0.82183 0.96436 0.54074 0.0
C672 C 0.80046 0.94071 0.54643 0.0
H673 H 0.71828 0.44588 0.18347 0.0
H674 H 0.68034 0.35054 0.18915 0.0
H675 H 0.63899 0.36487 0.16783 0.0
H676 H 0.66169 0.48312 0.21703 0.0
H677 H 0.6697 0.51273 0.181 0.0
H678 H 0.69505 0.4962 0.20387 0.0
H679 H 0.71137 0.48164 0.13028 0.0
H680 H 0.68628 0.49827 0.10738 0.0
H681 H 0.68906 0.45863 0.09309 0.0
H682 H 0.60393 0.38762 0.13543 0.0
H683 H 0.57876 0.41652 0.09232 0.0
H684 H 0.63902 0.4971 0.10869 0.0
C685 C 0.70113 0.42813 0.18136 0.0
C686 C 0.70253 0.3971 0.18823 0.0
C687 C 0.67974 0.37449 0.18425 0.0
C688 C 0.65612 0.38246 0.17237 0.0
C689 C 0.65555 0.41317 0.16492 0.0
C690 C 0.67748 0.43568 0.16942 0.0
C691 C 0.67256 0.46617 0.15493 0.0
C692 C 0.67488 0.49102 0.19139 0.0
C693 C 0.69089 0.47677 0.11931 0.0
C694 C 0.64477 0.45699 0.13985 0.0
C695 C 0.63512 0.42646 0.14661 0.0
C696 C 0.61096 0.41176 0.13107 0.0
C697 C 0.59673 0.42831 0.10684 0.0
C698 C 0.60669 0.4592 0.09859 0.0
C699 C 0.6306 0.47394 0.11626 0.0
H700 H 0.3338 0.33382 0.75518 0.0
H701 H 0.25456 0.34817 0.74004 0.0
H702 H 0.24477 0.29912 0.69613 0.0
H703 H 0.34222 0.30915 0.65407 0.0
H704 H 0.36213 0.28102 0.66481 0.0
H705 H 0.36147 0.31379 0.70114 0.0
H706 H 0.34806 0.27711 0.75986 0.0
H707 H 0.34865 0.24411 0.72353 0.0
H708 H 0.31979 0.24735 0.75291 0.0
H709 H 0.24532 0.25268 0.6464 0.0
H710 H 0.25656 0.21399 0.59317 0.0
H711 H 0.33566 0.23096 0.63992 0.0
C712 C 0.31417 0.32625 0.74366 0.0
C713 C 0.29489 0.34472 0.75125 0.0
C714 C 0.2696 0.33431 0.73479 0.0
C715 C 0.26383 0.3064 0.70999 0.0
C716 C 0.28352 0.28914 0.70218 0.0
C717 C 0.30817 0.29864 0.71869 0.0
C718 C 0.32667 0.278 0.7018 0.0
C719 C 0.34944 0.2966 0.6791 0.0
C720 C 0.33636 0.26061 0.73661 0.0
C721 C 0.30888 0.25618 0.67181 0.0
C722 C 0.28393 0.26254 0.67309 0.0
C723 C 0.26466 0.24714 0.64564 0.0
C724 C 0.27124 0.22532 0.61542 0.0
C725 C 0.29693 0.21935 0.61262 0.0
C726 C 0.31571 0.2344 0.642 0.0
H727 H 0.39695 0.7512 0.26377 0.0
H728 H 0.33255 0.79408 0.22792 0.0
H729 H 0.34104 0.78124 0.15403 0.0
H730 H 0.43885 0.77932 0.18678 0.0
H731 H 0.45328 0.74517 0.17732 0.0
H732 H 0.43997 0.75355 0.22752 0.0
H733 H 0.41025 0.69986 0.22223 0.0
H734 H 0.42361 0.6912 0.17202 0.0
H735 H 0.38909 0.68872 0.17766 0.0
H736 H 0.36026 0.77103 0.08518 0.0
H737 H 0.38742 0.76222 0.02527 0.0
H738 H 0.43859 0.72284 0.10417 0.0
C739 C 0.38429 0.75723 0.24033 0.0
C740 C 0.36364 0.77293 0.25158 0.0
C741 C 0.34779 0.781 0.22013 0.0
C742 C 0.35264 0.77405 0.17803 0.0
C743 C 0.37333 0.75887 0.16797 0.0
C744 C 0.38877 0.75026 0.19816 0.0
C745 C 0.41082 0.73606 0.17889 0.0
C746 C 0.43728 0.75465 0.1935 0.0
C747 C 0.40828 0.70193 0.18826 0.0
C748 C 0.40597 0.7392 0.1332 0.0
C749 C 0.38412 0.7522 0.12769 0.0
C750 C 0.37693 0.75995 0.08888 0.0
C751 C 0.3925 0.75448 0.05479 0.0
C752 C 0.415 0.74094 0.05932 0.0
C753 C 0.42151 0.73293 0.09925 0.0
H754 H 0.75606 0.22095 0.25849 0.0
H755 H 0.82341 0.21616 0.18147 0.0
H756 H 0.83584 0.17672 0.22471 0.0
H757 H 0.78381 0.21398 0.3541 0.0
H758 H 0.75623 0.18946 0.37455 0.0
H759 H 0.75159 0.21546 0.33576 0.0
H760 H 0.72712 0.1696 0.2884 0.0
H761 H 0.73155 0.14344 0.32726 0.0
H762 H 0.74244 0.13663 0.27484 0.0
H763 H 0.84428 0.14437 0.28288 0.0
H764 H 0.84599 0.11766 0.34679 0.0
H765 H 0.76938 0.13679 0.3795 0.0
C766 C 0.77318 0.21119 0.25042 0.0
C767 C 0.78888 0.22157 0.21688 0.0
C768 C 0.81109 0.20831 0.20699 0.0
C769 C 0.81831 0.18596 0.23137 0.0
C770 C 0.80264 0.17653 0.26471 0.0
C771 C 0.78021 0.18817 0.27363 0.0
C772 C 0.767 0.17447 0.31152 0.0
C773 C 0.76453 0.19986 0.34601 0.0
C774 C 0.74046 0.15486 0.29979 0.0
C775 C 0.78613 0.15442 0.32364 0.0
C776 C 0.80659 0.15597 0.29637 0.0
C777 C 0.82797 0.14215 0.30377 0.0
C778 C 0.82861 0.12669 0.34026 0.0
C779 C 0.80778 0.12464 0.36882 0.0
C780 C 0.78596 0.13804 0.35923 0.0
H781 H 0.35503 0.53159 0.91845 0.0
H782 H 0.38379 0.49926 0.7999 0.0
H783 H 0.42852 0.51904 0.82377 0.0
H784 H 0.4102 0.60182 0.93909 0.0
H785 H 0.40979 0.59564 -0.0062 0.0
H786 H 0.38013 0.58696 0.96366 0.0
H787 H 0.37236 0.53111 -0.01256 0.0
H788 H 0.40186 0.53953 0.01731 0.0
H789 H 0.39705 0.50754 0.97834 0.0
H790 H 0.46918 0.52889 0.86601 0.0
H791 H 0.50132 0.52939 0.92213 0.0
H792 H 0.44749 0.55942 0.01198 0.0
C793 C 0.37066 0.52992 0.89684 0.0
C794 C 0.36582 0.51382 0.85734 0.0
C795 C 0.38691 0.51156 0.83029 0.0
C796 C 0.41247 0.52287 0.84353 0.0
C797 C 0.41671 0.53703 0.88359 0.0
C798 C 0.39632 0.54124 0.90957 0.0
C799 C 0.40599 0.55315 0.95298 0.0
C800 C 0.40125 0.58637 0.96296 0.0
C801 C 0.39359 0.53153 0.98589 0.0
C802 C 0.43465 0.55237 0.94827 0.0
C803 C 0.44063 0.54375 0.9078 0.0
C804 C 0.46499 0.53672 0.8975 0.0
C805 C 0.48322 0.53716 0.92957 0.0
C806 C 0.47689 0.5444 0.9714 0.0
C807 C 0.45287 0.55386 0.98022 0.0
H808 H 0.38834 0.92201 0.42104 0.0
H809 H 0.31049 0.87998 0.38068 0.0
H810 H 0.29597 0.93005 0.39524 0.0
H811 H 0.3705 0.96395 0.5057 0.0
H812 H 0.39537 0.99744 0.50192 0.0
H813 H 0.40072 0.96028 0.48057 0.0
H814 H 0.41038 0.9825 0.40871 0.0
H815 H 0.40489 0.01983 0.42995 0.0
H816 H 0.38685 1.00131 0.38474 0.0
H817 H 0.28822 0.98123 0.42516 0.0
H818 H 0.28778 0.02912 0.47013 0.0
H819 H 0.3705 0.03875 0.49008 0.0
C820 C 0.36841 0.92357 0.41409 0.0
C821 C 0.35058 0.89714 0.39952 0.0
C822 C 0.32453 0.89994 0.39172 0.0
C823 C 0.31613 0.92836 0.39963 0.0
C824 C 0.33406 0.95382 0.41501 0.0
C825 C 0.35971 0.95174 0.42199 0.0
C826 C 0.37431 0.98139 0.44344 0.0
C827 C 0.38588 0.97539 0.48538 0.0
C828 C 0.39535 0.99719 0.415 0.0
C829 C 0.35256 0.99988 0.44942 0.0
C830 C 0.3296 0.98381 0.43199 0.0
C831 C 0.30619 0.99447 0.43782 0.0
C832 C 0.30609 0.02167 0.46323 0.0
C833 C 0.32923 0.03783 0.48227 0.0
C834 C 0.35282 0.02734 0.4743 0.0
H835 H 0.66127 0.78754 0.80532 0.0
H836 H 0.6866 0.69855 0.79201 0.0
H837 H 0.64838 0.67559 0.83139 0.0
H838 H 0.64162 0.78268 0.90824 0.0
H839 H 0.61427 0.80199 0.90282 0.0
H840 H 0.64172 0.81019 0.86936 0.0
H841 H 0.61152 0.79571 0.80471 0.0
H842 H 0.58394 0.78722 0.83811 0.0
H843 H 0.59094 0.75832 0.79927 0.0
H844 H 0.60942 0.66352 0.87716 0.0
H845 H 0.57457 0.66408 0.92895 0.0
H846 H 0.57557 0.76127 0.91304 0.0
C847 C 0.65858 0.76309 0.81001 0.0
C848 C 0.67685 0.74479 0.79539 0.0
C849 C 0.67282 0.713 0.80285 0.0
C850 C 0.65109 0.69973 0.82497 0.0
C851 C 0.63358 0.71854 0.83928 0.0
C852 C 0.63714 0.74956 0.83216 0.0
C853 C 0.61681 0.7654 0.85383 0.0
C854 C 0.62936 0.79159 0.88544 0.0
C855 C 0.59979 0.77736 0.82207 0.0
C856 C 0.60165 0.73865 0.87529 0.0
C857 C 0.61133 0.71169 0.86598 0.0
C858 C 0.60149 0.68441 0.88427 0.0
C859 C 0.58176 0.68495 0.91367 0.0
C860 C 0.57224 0.71265 0.92476 0.0
C861 C 0.58194 0.73957 0.90444 0.0
loop_
_geom_bond_atom_site_label_1
_geom_bond_atom_site_label_2
_geom_bond_distance
_geom_bond_site_symmetry_2
_ccdc_geom_bond_type
O0 Cd1 2.300 . S
O0 C7 1.275 . S
Cd1 O0 2.300 . S
Cd1 O9 2.381 . S
Cd1 O10 2.378 . S
O2 Cd3 2.385 . S
O2 C7 1.255 . S
Cd3 O2 2.385 . S
Cd3 O4 2.317 . S
O4 Cd3 2.317 . S
O4 C5 1.232 . S
C5 O4 1.232 . S
C5 O6 1.218 . S
O6 C5 1.218 . S
C7 O0 1.275 . S
C7 O2 1.255 . S
C8 O9 1.258 . S
C8 O10 1.256 . S
O9 Cd1 2.381 . S
O9 C8 1.258 . S
O10 Cd1 2.378 . S
O10 C8 1.256 . S
O11 Cd12 2.300 . S
O11 C18 1.275 . S
Cd12 O11 2.300 . S
Cd12 O20 2.381 . S
Cd12 O21 2.378 . S
O13 Cd14 2.385 . S
O13 C18 1.255 . S
Cd14 O13 2.385 . S
Cd14 O15 2.317 . S
O15 Cd14 2.317 . S
O15 C16 1.232 . S
C16 O15 1.232 . S
C16 O17 1.218 . S
O17 C16 1.218 . S
C18 O11 1.275 . S
C18 O13 1.255 . S
C19 O20 1.258 . S
C19 O21 1.256 . S
O20 Cd12 2.381 . S
O20 C19 1.258 . S
O21 Cd12 2.378 . S
O21 C19 1.256 . S
O22 Cd23 2.300 . S
O22 C29 1.275 . S
Cd23 O22 2.300 . S
Cd23 O31 2.381 . S
Cd23 O32 2.378 . S
O24 Cd25 2.385 . S
O24 C29 1.255 . S
Cd25 O24 2.385 . S
Cd25 O26 2.317 . S
O26 Cd25 2.317 . S
O26 C27 1.232 . S
C27 O26 1.232 . S
C27 O28 1.218 . S
O28 C27 1.218 . S
C29 O22 1.275 . S
C29 O24 1.255 . S
C30 O31 1.258 . S
C30 O32 1.256 . S
O31 Cd23 2.381 . S
O31 C30 1.258 . S
O32 Cd23 2.378 . S
O32 C30 1.256 . S
O33 Cd34 2.300 . S
O33 C40 1.275 . S
Cd34 O33 2.300 . S
Cd34 O42 2.381 . S
Cd34 O43 2.378 . S
O35 Cd36 2.385 . S
O35 C40 1.255 . S
Cd36 O35 2.385 . S
Cd36 O37 2.317 . S
O37 Cd36 2.317 . S
O37 C38 1.232 . S
C38 O37 1.232 . S
C38 O39 1.218 . S
O39 C38 1.218 . S
C40 O33 1.275 . S
C40 O35 1.255 . S
C41 O42 1.258 . S
C41 O43 1.256 . S
O42 Cd34 2.381 . S
O42 C41 1.258 . S
O43 Cd34 2.378 . S
O43 C41 1.256 . S
O44 Cd45 2.300 . S
O44 C51 1.275 . S
Cd45 O44 2.300 . S
Cd45 O53 2.381 . S
Cd45 O54 2.378 . S
O46 Cd47 2.385 . S
O46 C51 1.255 . S
Cd47 O46 2.385 . S
Cd47 O48 2.317 . S
O48 Cd47 2.317 . S
O48 C49 1.232 . S
C49 O48 1.232 . S
C49 O50 1.218 . S
O50 C49 1.218 . S
C51 O44 1.275 . S
C51 O46 1.255 . S
C52 O53 1.258 . S
C52 O54 1.256 . S
O53 Cd45 2.381 . S
O53 C52 1.258 . S
O54 Cd45 2.378 . S
O54 C52 1.256 . S
O55 Cd56 2.300 . S
O55 C62 1.275 . S
Cd56 O55 2.300 . S
Cd56 O64 2.381 . S
Cd56 O65 2.378 . S
O57 Cd58 2.385 . S
O57 C62 1.255 . S
Cd58 O57 2.385 . S
Cd58 O59 2.317 . S
O59 Cd58 2.317 . S
O59 C60 1.232 . S
C60 O59 1.232 . S
C60 O61 1.218 . S
O61 C60 1.218 . S
C62 O55 1.275 . S
C62 O57 1.255 . S
C63 O64 1.258 . S
C63 O65 1.256 . S
O64 Cd56 2.381 . S
O64 C63 1.258 . S
O65 Cd56 2.378 . S
O65 C63 1.256 . S
O66 Cd67 2.300 . S
O66 C73 1.275 . S
Cd67 O66 2.300 . S
Cd67 O75 2.381 . S
Cd67 O76 2.378 . S
O68 Cd69 2.385 . S
O68 C73 1.255 . S
Cd69 O68 2.385 . S
Cd69 O70 2.317 . S
O70 Cd69 2.317 . S
O70 C71 1.232 . S
C71 O70 1.232 . S
C71 O72 1.218 . S
O72 C71 1.218 . S
C73 O66 1.275 . S
C73 O68 1.255 . S
C74 O75 1.258 . S
C74 O76 1.256 . S
O75 Cd67 2.381 . S
O75 C74 1.258 . S
O76 Cd67 2.378 . S
O76 C74 1.256 . S
O77 Cd78 2.300 . S
O77 C84 1.275 . S
Cd78 O77 2.300 . S
Cd78 O86 2.381 . S
Cd78 O87 2.378 . S
O79 Cd80 2.385 . S
O79 C84 1.255 . S
Cd80 O79 2.385 . S
Cd80 O81 2.317 . S
O81 Cd80 2.317 . S
O81 C82 1.232 . S
C82 O81 1.232 . S
C82 O83 1.218 . S
O83 C82 1.218 . S
C84 O77 1.275 . S
C84 O79 1.255 . S
C85 O86 1.258 . S
C85 O87 1.256 . S
O86 Cd78 2.381 . S
O86 C85 1.258 . S
O87 Cd78 2.378 . S
O87 C85 1.256 . S
H88 C96 0.930 . S
H89 C99 0.930 . S
H90 C101 0.930 . S
H91 C102 0.970 . S
H92 C102 0.970 . S
H93 C104 0.930 . S
H94 C106 0.930 . S
H95 C108 0.930 . S
C96 H88 0.930 . S
C96 C97 1.382 1_455 S
C96 C98 1.426 . S
C97 C96 1.382 1_655 S
C97 C101 1.389 . S
C98 C96 1.426 . S
C98 C99 1.375 . S
C98 C102 1.532 . S
C99 H89 0.930 . S
C99 C98 1.375 . S
C99 C100 1.416 1_455 S
C100 C99 1.416 1_655 S
C100 C101 1.371 . S
C101 H90 0.930 . S
C101 C97 1.389 . S
C101 C100 1.371 . S
C102 H91 0.970 . S
C102 H92 0.970 . S
C102 C98 1.532 . S
C102 C103 1.499 . S
C103 C102 1.499 . S
C103 C104 1.370 . S
C103 C108 1.415 . S
C104 H93 0.930 . S
C104 C103 1.370 . S
C104 C105 1.407 . S
C105 C104 1.407 . S
C105 C106 1.365 . S
C106 H94 0.930 . S
C106 C105 1.365 . S
C106 C107 1.393 . S
C107 C106 1.393 . S
C107 C108 1.387 . S
C108 H95 0.930 . S
C108 C103 1.415 . S
C108 C107 1.387 . S
H109 C117 0.930 . S
H110 C120 0.930 . S
H111 C122 0.930 . S
H112 C123 0.970 . S
H113 C123 0.970 . S
H114 C125 0.930 . S
H115 C127 0.930 . S
H116 C129 0.930 . S
C117 H109 0.930 . S
C117 C118 1.382 . S
C117 C119 1.426 . S
C118 C117 1.382 . S
C118 C122 1.389 . S
C119 C117 1.426 . S
C119 C120 1.375 . S
C119 C123 1.532 . S
C120 H110 0.930 . S
C120 C119 1.375 . S
C120 C121 1.416 . S
C121 C120 1.416 . S
C121 C122 1.371 . S
C122 H111 0.930 . S
C122 C118 1.389 . S
C122 C121 1.371 . S
C123 H112 0.970 . S
C123 H113 0.970 . S
C123 C119 1.532 . S
C123 C124 1.499 1_455 S
C124 C123 1.499 1_655 S
C124 C125 1.370 . S
C124 C129 1.415 . S
C125 H114 0.930 . S
C125 C124 1.370 . S
C125 C126 1.407 . S
C126 C125 1.407 . S
C126 C127 1.365 . S
C127 H115 0.930 . S
C127 C126 1.365 . S
C127 C128 1.393 . S
C128 C127 1.393 . S
C128 C129 1.387 . S
C129 H116 0.930 . S
C129 C124 1.415 . S
C129 C128 1.387 . S
H130 C138 0.930 . S
H131 C141 0.930 . S
H132 C143 0.930 . S
H133 C144 0.970 . S
H134 C144 0.970 . S
H135 C146 0.930 . S
H136 C148 0.930 . S
H137 C150 0.930 . S
C138 H130 0.930 . S
C138 C139 1.382 . S
C138 C140 1.426 . S
C139 C138 1.382 . S
C139 C143 1.389 . S
C140 C138 1.426 . S
C140 C141 1.375 . S
C140 C144 1.532 . S
C141 H131 0.930 . S
C141 C140 1.375 . S
C141 C142 1.416 . S
C142 C141 1.416 . S
C142 C143 1.371 . S
C143 H132 0.930 . S
C143 C139 1.389 . S
C143 C142 1.371 . S
C144 H133 0.970 . S
C144 H134 0.970 . S
C144 C140 1.532 . S
C144 C145 1.499 . S
C145 C144 1.499 . S
C145 C146 1.370 . S
C145 C150 1.415 . S
C146 H135 0.930 . S
C146 C145 1.370 . S
C146 C147 1.407 . S
C147 C146 1.407 . S
C147 C148 1.365 . S
C148 H136 0.930 . S
C148 C147 1.365 . S
C148 C149 1.393 . S
C149 C148 1.393 . S
C149 C150 1.387 . S
C150 H137 0.930 . S
C150 C145 1.415 . S
C150 C149 1.387 . S
H151 C159 0.930 . S
H152 C162 0.930 . S
H153 C164 0.930 . S
H154 C165 0.970 1_556 S
H155 C165 0.970 . S
H156 C167 0.930 . S
H157 C169 0.930 . S
H158 C171 0.930 . S
C159 H151 0.930 . S
C159 C160 1.382 . S
C159 C161 1.426 1_556 S
C160 C159 1.382 . S
C160 C164 1.389 1_556 S
C161 C159 1.426 1_554 S
C161 C162 1.375 . S
C161 C165 1.532 . S
C162 H152 0.930 . S
C162 C161 1.375 . S
C162 C163 1.416 . S
C163 C162 1.416 . S
C163 C164 1.371 . S
C164 H153 0.930 . S
C164 C160 1.389 1_554 S
C164 C163 1.371 . S
C165 H154 0.970 1_554 S
C165 H155 0.970 . S
C165 C161 1.532 . S
C165 C166 1.499 . S
C166 C165 1.499 . S
C166 C167 1.370 1_554 S
C166 C171 1.415 . S
C167 H156 0.930 . S
C167 C166 1.370 1_556 S
C167 C168 1.407 . S
C168 C167 1.407 . S
C168 C169 1.365 . S
C169 H157 0.930 . S
C169 C168 1.365 . S
C169 C170 1.393 1_556 S
C170 C169 1.393 1_554 S
C170 C171 1.387 . S
C171 H158 0.930 . S
C171 C166 1.415 . S
C171 C170 1.387 . S
H172 C180 0.930 . S
H173 C183 0.930 . S
H174 C185 0.930 . S
H175 C186 0.970 . S
H176 C186 0.970 . S
H177 C188 0.930 . S
H178 C190 0.930 . S
H179 C192 0.930 . S
C180 H172 0.930 . S
C180 C181 1.382 . S
C180 C182 1.426 . S
C181 C180 1.382 . S
C181 C185 1.389 . S
C182 C180 1.426 . S
C182 C183 1.375 . S
C182 C186 1.532 . S
C183 H173 0.930 . S
C183 C182 1.375 . S
C183 C184 1.416 . S
C184 C183 1.416 . S
C184 C185 1.371 . S
C185 H174 0.930 . S
C185 C181 1.389 . S
C185 C184 1.371 . S
C186 H175 0.970 . S
C186 H176 0.970 . S
C186 C182 1.532 . S
C186 C187 1.499 1_545 S
C187 C186 1.499 1_565 S
C187 C188 1.370 . S
C187 C192 1.415 . S
C188 H177 0.930 . S
C188 C187 1.370 . S
C188 C189 1.407 . S
C189 C188 1.407 . S
C189 C190 1.365 . S
C190 H178 0.930 . S
C190 C189 1.365 . S
C190 C191 1.393 . S
C191 C190 1.393 . S
C191 C192 1.387 . S
C192 H179 0.930 . S
C192 C187 1.415 . S
C192 C191 1.387 . S
H193 C201 0.930 . S
H194 C204 0.930 . S
H195 C206 0.930 . S
H196 C207 0.970 . S
H197 C207 0.970 . S
H198 C209 0.930 . S
H199 C211 0.930 . S
H200 C213 0.930 . S
C201 H193 0.930 . S
C201 C202 1.382 . S
C201 C203 1.426 1_556 S
C202 C201 1.382 . S
C202 C206 1.389 1_556 S
C203 C201 1.426 1_554 S
C203 C204 1.375 . S
C203 C207 1.532 . S
C204 H194 0.930 . S
C204 C203 1.375 . S
C204 C205 1.416 . S
C205 C204 1.416 . S
C205 C206 1.371 . S
C206 H195 0.930 . S
C206 C202 1.389 1_554 S
C206 C205 1.371 . S
C207 H196 0.970 . S
C207 H197 0.970 . S
C207 C203 1.532 . S
C207 C208 1.499 . S
C208 C207 1.499 . S
C208 C209 1.370 1_554 S
C208 C213 1.415 . S
C209 H198 0.930 . S
C209 C208 1.370 1_556 S
C209 C210 1.407 . S
C210 C209 1.407 . S
C210 C211 1.365 1_556 S
C211 H199 0.930 . S
C211 C210 1.365 1_554 S
C211 C212 1.393 . S
C212 C211 1.393 . S
C212 C213 1.387 . S
C213 H200 0.930 . S
C213 C208 1.415 . S
C213 C212 1.387 . S
H214 C226 0.930 . S
H215 C228 0.930 . S
H216 C229 0.930 . S
H217 C233 0.959 . S
H218 C233 0.959 . S
H219 C233 0.961 . S
H220 C234 0.960 . S
H221 C234 0.961 . S
H222 C234 0.959 . S
H223 C237 0.929 . S
H224 C238 0.931 . S
H225 C240 0.930 . S
C226 H214 0.930 . S
C226 C227 1.399 . S
C226 C231 1.399 . S
C227 C226 1.399 . S
C227 C228 1.376 . S
C228 H215 0.930 . S
C228 C227 1.376 . S
C228 C229 1.388 . S
C229 H216 0.930 . S
C229 C228 1.388 . S
C229 C230 1.390 . S
C230 C229 1.390 . S
C230 C231 1.394 . S
C230 C236 1.465 . S
C231 C226 1.399 . S
C231 C230 1.394 . S
C231 C232 1.516 . S
C232 C231 1.516 . S
C232 C233 1.502 . S
C232 C234 1.561 . S
C232 C235 1.526 . S
C233 H217 0.959 . S
C233 H218 0.959 . S
C233 H219 0.961 . S
C233 C232 1.502 . S
C234 H220 0.960 . S
C234 H221 0.961 . S
C234 H222 0.959 . S
C234 C232 1.561 . S
C235 C232 1.526 . S
C235 C236 1.396 . S
C235 C240 1.390 . S
C236 C230 1.465 . S
C236 C235 1.396 . S
C236 C237 1.399 . S
C237 H223 0.929 . S
C237 C236 1.399 . S
C237 C238 1.385 . S
C238 H224 0.931 . S
C238 C237 1.385 . S
C238 C239 1.389 . S
C239 C238 1.389 . S
C239 C240 1.387 . S
C240 H225 0.930 . S
C240 C235 1.390 . S
C240 C239 1.387 . S
H241 C253 0.930 . S
H242 C255 0.930 . S
H243 C256 0.930 . S
H244 C260 0.959 . S
H245 C260 0.959 . S
H246 C260 0.961 . S
H247 C261 0.960 . S
H248 C261 0.961 . S
H249 C261 0.959 . S
H250 C264 0.929 . S
H251 C265 0.931 . S
H252 C267 0.930 . S
C253 H241 0.930 . S
C253 C254 1.399 . S
C253 C258 1.399 . S
C254 C253 1.399 . S
C254 C255 1.376 . S
C255 H242 0.930 . S
C255 C254 1.376 . S
C255 C256 1.388 . S
C256 H243 0.930 . S
C256 C255 1.388 . S
C256 C257 1.390 . S
C257 C256 1.390 . S
C257 C258 1.394 . S
C257 C263 1.465 . S
C258 C253 1.399 . S
C258 C257 1.394 . S
C258 C259 1.516 . S
C259 C258 1.516 . S
C259 C260 1.502 . S
C259 C261 1.561 . S
C259 C262 1.526 . S
C260 H244 0.959 . S
C260 H245 0.959 . S
C260 H246 0.961 . S
C260 C259 1.502 . S
C261 H247 0.960 . S
C261 H248 0.961 . S
C261 H249 0.959 . S
C261 C259 1.561 . S
C262 C259 1.526 . S
C262 C263 1.396 . S
C262 C267 1.390 . S
C263 C257 1.465 . S
C263 C262 1.396 . S
C263 C264 1.399 . S
C264 H250 0.929 . S
C264 C263 1.399 . S
C264 C265 1.385 . S
C265 H251 0.931 . S
C265 C264 1.385 . S
C265 C266 1.389 . S
C266 C265 1.389 . S
C266 C267 1.387 . S
C267 H252 0.930 . S
C267 C262 1.390 . S
C267 C266 1.387 . S
H268 C280 0.930 . S
H269 C282 0.930 . S
H270 C283 0.930 . S
H271 C287 0.959 . S
H272 C287 0.959 . S
H273 C287 0.961 . S
H274 C288 0.960 . S
H275 C288 0.961 . S
H276 C288 0.959 . S
H277 C291 0.929 . S
H278 C292 0.931 . S
H279 C294 0.930 . S
C280 H268 0.930 . S
C280 C281 1.399 . S
C280 C285 1.399 . S
C281 C280 1.399 . S
C281 C282 1.376 . S
C282 H269 0.930 . S
C282 C281 1.376 . S
C282 C283 1.388 . S
C283 H270 0.930 . S
C283 C282 1.388 . S
C283 C284 1.390 . S
C284 C283 1.390 . S
C284 C285 1.394 . S
C284 C290 1.465 . S
C285 C280 1.399 . S
C285 C284 1.394 . S
C285 C286 1.516 . S
C286 C285 1.516 . S
C286 C287 1.502 . S
C286 C288 1.561 . S
C286 C289 1.526 . S
C287 H271 0.959 . S
C287 H272 0.959 . S
C287 H273 0.961 . S
C287 C286 1.502 . S
C288 H274 0.960 . S
C288 H275 0.961 . S
C288 H276 0.959 . S
C288 C286 1.561 . S
C289 C286 1.526 . S
C289 C290 1.396 . S
C289 C294 1.390 . S
C290 C284 1.465 . S
C290 C289 1.396 . S
C290 C291 1.399 . S
C291 H277 0.929 . S
C291 C290 1.399 . S
C291 C292 1.385 . S
C292 H278 0.931 . S
C292 C291 1.385 . S
C292 C293 1.389 . S
C293 C292 1.389 . S
C293 C294 1.387 . S
C294 H279 0.930 . S
C294 C289 1.390 . S
C294 C293 1.387 . S
H295 C307 0.930 . S
H296 C309 0.930 . S
H297 C310 0.930 . S
H298 C314 0.959 . S
H299 C314 0.959 . S
H300 C314 0.961 . S
H301 C315 0.960 . S
H302 C315 0.961 . S
H303 C315 0.959 . S
H304 C318 0.929 . S
H305 C319 0.931 . S
H306 C321 0.930 . S
C307 H295 0.930 . S
C307 C308 1.399 . S
C307 C312 1.399 . S
C308 C307 1.399 . S
C308 C309 1.376 . S
C309 H296 0.930 . S
C309 C308 1.376 . S
C309 C310 1.388 . S
C310 H297 0.930 . S
C310 C309 1.388 . S
C310 C311 1.390 . S
C311 C310 1.390 . S
C311 C312 1.394 . S
C311 C317 1.465 . S
C312 C307 1.399 . S
C312 C311 1.394 . S
C312 C313 1.516 . S
C313 C312 1.516 . S
C313 C314 1.502 . S
C313 C315 1.561 . S
C313 C316 1.526 . S
C314 H298 0.959 . S
C314 H299 0.959 . S
C314 H300 0.961 . S
C314 C313 1.502 . S
C315 H301 0.960 . S
C315 H302 0.961 . S
C315 H303 0.959 . S
C315 C313 1.561 . S
C316 C313 1.526 . S
C316 C317 1.396 . S
C316 C321 1.390 . S
C317 C311 1.465 . S
C317 C316 1.396 . S
C317 C318 1.399 . S
C318 H304 0.929 . S
C318 C317 1.399 . S
C318 C319 1.385 . S
C319 H305 0.931 . S
C319 C318 1.385 . S
C319 C320 1.389 . S
C320 C319 1.389 . S
C320 C321 1.387 . S
C321 H306 0.930 . S
C321 C316 1.390 . S
C321 C320 1.387 . S
H322 C334 0.930 . S
H323 C336 0.930 . S
H324 C337 0.930 . S
H325 C341 0.959 . S
H326 C341 0.959 . S
H327 C341 0.961 . S
H328 C342 0.960 . S
H329 C342 0.961 . S
H330 C342 0.959 . S
H331 C345 0.929 . S
H332 C346 0.931 . S
H333 C348 0.930 . S
C334 H322 0.930 . S
C334 C335 1.399 . S
C334 C339 1.399 . S
C335 C334 1.399 . S
C335 C336 1.376 . S
C336 H323 0.930 . S
C336 C335 1.376 . S
C336 C337 1.388 . S
C337 H324 0.930 . S
C337 C336 1.388 . S
C337 C338 1.390 . S
C338 C337 1.390 . S
C338 C339 1.394 . S
C338 C344 1.465 . S
C339 C334 1.399 . S
C339 C338 1.394 . S
C339 C340 1.516 . S
C340 C339 1.516 . S
C340 C341 1.502 . S
C340 C342 1.561 . S
C340 C343 1.526 . S
C341 H325 0.959 . S
C341 H326 0.959 . S
C341 H327 0.961 . S
C341 C340 1.502 . S
C342 H328 0.960 . S
C342 H329 0.961 . S
C342 H330 0.959 . S
C342 C340 1.561 . S
C343 C340 1.526 . S
C343 C344 1.396 . S
C343 C348 1.390 . S
C344 C338 1.465 . S
C344 C343 1.396 . S
C344 C345 1.399 . S
C345 H331 0.929 . S
C345 C344 1.399 . S
C345 C346 1.385 . S
C346 H332 0.931 . S
C346 C345 1.385 . S
C346 C347 1.389 . S
C347 C346 1.389 . S
C347 C348 1.387 . S
C348 H333 0.930 . S
C348 C343 1.390 . S
C348 C347 1.387 . S
H349 C361 0.930 . S
H350 C363 0.930 . S
H351 C364 0.930 . S
H352 C368 0.959 . S
H353 C368 0.959 . S
H354 C368 0.961 . S
H355 C369 0.960 . S
H356 C369 0.961 . S
H357 C369 0.959 . S
H358 C372 0.929 . S
H359 C373 0.931 . S
H360 C375 0.930 . S
C361 H349 0.930 . S
C361 C362 1.399 . S
C361 C366 1.399 . S
C362 C361 1.399 . S
C362 C363 1.376 . S
C363 H350 0.930 . S
C363 C362 1.376 . S
C363 C364 1.388 . S
C364 H351 0.930 . S
C364 C363 1.388 . S
C364 C365 1.390 . S
C365 C364 1.390 . S
C365 C366 1.394 . S
C365 C371 1.465 . S
C366 C361 1.399 . S
C366 C365 1.394 . S
C366 C367 1.516 . S
C367 C366 1.516 . S
C367 C368 1.502 . S
C367 C369 1.561 . S
C367 C370 1.526 . S
C368 H352 0.959 . S
C368 H353 0.959 . S
C368 H354 0.961 . S
C368 C367 1.502 . S
C369 H355 0.960 . S
C369 H356 0.961 . S
C369 H357 0.959 . S
C369 C367 1.561 . S
C370 C367 1.526 . S
C370 C371 1.396 . S
C370 C375 1.390 . S
C371 C365 1.465 . S
C371 C370 1.396 . S
C371 C372 1.399 . S
C372 H358 0.929 . S
C372 C371 1.399 . S
C372 C373 1.385 . S
C373 H359 0.931 . S
C373 C372 1.385 . S
C373 C374 1.389 . S
C374 C373 1.389 . S
C374 C375 1.387 . S
C375 H360 0.930 . S
C375 C370 1.390 . S
C375 C374 1.387 . S
H376 C388 0.930 . S
H377 C390 0.930 . S
H378 C391 0.930 . S
H379 C395 0.959 . S
H380 C395 0.959 . S
H381 C395 0.961 . S
H382 C396 0.960 . S
H383 C396 0.961 . S
H384 C396 0.959 . S
H385 C399 0.929 . S
H386 C400 0.931 . S
H387 C402 0.930 . S
C388 H376 0.930 . S
C388 C389 1.399 . S
C388 C393 1.399 . S
C389 C388 1.399 . S
C389 C390 1.376 . S
C390 H377 0.930 . S
C390 C389 1.376 . S
C390 C391 1.388 . S
C391 H378 0.930 . S
C391 C390 1.388 . S
C391 C392 1.390 . S
C392 C391 1.390 . S
C392 C393 1.394 . S
C392 C398 1.465 . S
C393 C388 1.399 . S
C393 C392 1.394 . S
C393 C394 1.516 . S
C394 C393 1.516 . S
C394 C395 1.502 . S
C394 C396 1.561 . S
C394 C397 1.526 . S
C395 H379 0.959 . S
C395 H380 0.959 . S
C395 H381 0.961 . S
C395 C394 1.502 . S
C396 H382 0.960 . S
C396 H383 0.961 . S
C396 H384 0.959 . S
C396 C394 1.561 . S
C397 C394 1.526 . S
C397 C398 1.396 . S
C397 C402 1.390 . S
C398 C392 1.465 . S
C398 C397 1.396 . S
C398 C399 1.399 . S
C399 H385 0.929 . S
C399 C398 1.399 . S
C399 C400 1.385 . S
C400 H386 0.931 . S
C400 C399 1.385 . S
C400 C401 1.389 . S
C401 C400 1.389 . S
C401 C402 1.387 . S
C402 H387 0.930 . S
C402 C397 1.390 . S
C402 C401 1.387 . S
H403 C415 0.930 . S
H404 C417 0.930 . S
H405 C418 0.930 . S
H406 C422 0.959 . S
H407 C422 0.959 . S
H408 C422 0.961 . S
H409 C423 0.960 . S
H410 C423 0.961 . S
H411 C423 0.959 . S
H412 C426 0.929 . S
H413 C427 0.931 . S
H414 C429 0.930 . S
C415 H403 0.930 . S
C415 C416 1.399 . S
C415 C420 1.399 . S
C416 C415 1.399 . S
C416 C417 1.376 . S
C417 H404 0.930 . S
C417 C416 1.376 . S
C417 C418 1.388 . S
C418 H405 0.930 . S
C418 C417 1.388 . S
C418 C419 1.390 . S
C419 C418 1.390 . S
C419 C420 1.394 . S
C419 C425 1.465 . S
C420 C415 1.399 . S
C420 C419 1.394 . S
C420 C421 1.516 . S
C421 C420 1.516 . S
C421 C422 1.502 . S
C421 C423 1.561 . S
C421 C424 1.526 . S
C422 H406 0.959 . S
C422 H407 0.959 . S
C422 H408 0.961 . S
C422 C421 1.502 . S
C423 H409 0.960 . S
C423 H410 0.961 . S
C423 H411 0.959 . S
C423 C421 1.561 . S
C424 C421 1.526 . S
C424 C425 1.396 . S
C424 C429 1.390 . S
C425 C419 1.465 . S
C425 C424 1.396 . S
C425 C426 1.399 . S
C426 H412 0.929 . S
C426 C425 1.399 . S
C426 C427 1.385 . S
C427 H413 0.931 . S
C427 C426 1.385 . S
C427 C428 1.389 . S
C428 C427 1.389 . S
C428 C429 1.387 . S
C429 H414 0.930 . S
C429 C424 1.390 . S
C429 C428 1.387 . S
H430 C442 0.930 . S
H431 C444 0.930 . S
H432 C445 0.930 . S
H433 C449 0.978 . S
H434 C449 0.926 1_545 S
H435 C449 0.979 . S
H436 C450 0.960 . S
H437 C450 0.961 . S
H438 C450 0.959 . S
H439 C453 0.929 . S
H440 C454 0.931 . S
H441 C456 0.930 . S
C442 H430 0.930 . S
C442 C443 1.399 . S
C442 C447 1.399 . S
C443 C442 1.399 . S
C443 C444 1.376 . S
C444 H431 0.930 . S
C444 C443 1.376 . S
C444 C445 1.388 . S
C445 H432 0.930 . S
C445 C444 1.388 . S
C445 C446 1.390 . S
C446 C445 1.390 . S
C446 C447 1.394 . S
C446 C452 1.465 1_565 S
C447 C442 1.399 . S
C447 C446 1.394 . S
C447 C448 1.516 1_565 S
C448 C447 1.516 1_545 S
C448 C449 1.501 1_545 S
C448 C450 1.561 . S
C448 C451 1.526 . S
C449 H433 0.978 . S
C449 H434 0.926 1_565 S
C449 H435 0.979 . S
C449 C448 1.501 1_565 S
C450 H436 0.960 . S
C450 H437 0.961 . S
C450 H438 0.959 . S
C450 C448 1.561 . S
C451 C448 1.526 . S
C451 C452 1.396 . S
C451 C456 1.390 . S
C452 C446 1.465 1_545 S
C452 C451 1.396 . S
C452 C453 1.399 . S
C453 H439 0.929 . S
C453 C452 1.399 . S
C453 C454 1.385 . S
C454 H440 0.931 . S
C454 C453 1.385 . S
C454 C455 1.389 . S
C455 C454 1.389 . S
C455 C456 1.387 . S
C456 H441 0.930 . S
C456 C451 1.390 . S
C456 C455 1.387 . S
H457 C469 0.930 . S
H458 C471 0.930 . S
H459 C472 0.930 . S
H460 C476 0.959 . S
H461 C476 0.959 . S
H462 C476 0.961 . S
H463 C477 0.960 . S
H464 C477 0.961 . S
H465 C477 0.959 . S
H466 C480 0.929 . S
H467 C481 0.931 . S
H468 C483 0.930 . S
C469 H457 0.930 . S
C469 C470 1.399 . S
C469 C474 1.399 . S
C470 C469 1.399 . S
C470 C471 1.376 . S
C471 H458 0.930 . S
C471 C470 1.376 . S
C471 C472 1.388 . S
C472 H459 0.930 . S
C472 C471 1.388 . S
C472 C473 1.390 . S
C473 C472 1.390 . S
C473 C474 1.394 . S
C473 C479 1.465 . S
C474 C469 1.399 . S
C474 C473 1.394 . S
C474 C475 1.516 . S
C475 C474 1.516 . S
C475 C476 1.502 . S
C475 C477 1.561 . S
C475 C478 1.526 . S
C476 H460 0.959 . S
C476 H461 0.959 . S
C476 H462 0.961 . S
C476 C475 1.502 . S
C477 H463 0.960 . S
C477 H464 0.961 . S
C477 H465 0.959 . S
C477 C475 1.561 . S
C478 C475 1.526 . S
C478 C479 1.396 . S
C478 C483 1.390 . S
C479 C473 1.465 . S
C479 C478 1.396 . S
C479 C480 1.399 . S
C480 H466 0.929 . S
C480 C479 1.399 . S
C480 C481 1.385 . S
C481 H467 0.931 . S
C481 C480 1.385 . S
C481 C482 1.389 . S
C482 C481 1.389 . S
C482 C483 1.387 . S
C483 H468 0.930 . S
C483 C478 1.390 . S
C483 C482 1.387 . S
H484 C496 0.930 . S
H485 C498 0.930 . S
H486 C499 0.930 . S
H487 C503 0.959 . S
H488 C503 0.959 . S
H489 C503 0.961 . S
H490 C504 0.960 . S
H491 C504 0.961 . S
H492 C504 0.959 . S
H493 C507 0.929 . S
H494 C508 0.931 . S
H495 C510 0.930 . S
C496 H484 0.930 . S
C496 C497 1.399 . S
C496 C501 1.399 . S
C497 C496 1.399 . S
C497 C498 1.376 . S
C498 H485 0.930 . S
C498 C497 1.376 . S
C498 C499 1.388 . S
C499 H486 0.930 . S
C499 C498 1.388 . S
C499 C500 1.390 . S
C500 C499 1.390 . S
C500 C501 1.394 . S
C500 C506 1.465 . S
C501 C496 1.399 . S
C501 C500 1.394 . S
C501 C502 1.516 . S
C502 C501 1.516 . S
C502 C503 1.502 . S
C502 C504 1.561 . S
C502 C505 1.526 . S
C503 H487 0.959 . S
C503 H488 0.959 . S
C503 H489 0.961 . S
C503 C502 1.502 . S
C504 H490 0.960 . S
C504 H491 0.961 . S
C504 H492 0.959 . S
C504 C502 1.561 . S
C505 C502 1.526 . S
C505 C506 1.396 . S
C505 C510 1.390 . S
C506 C500 1.465 . S
C506 C505 1.396 . S
C506 C507 1.399 . S
C507 H493 0.929 . S
C507 C506 1.399 . S
C507 C508 1.385 . S
C508 H494 0.931 . S
C508 C507 1.385 . S
C508 C509 1.389 . S
C509 C508 1.389 . S
C509 C510 1.387 . S
C510 H495 0.930 . S
C510 C505 1.390 . S
C510 C509 1.387 . S
H511 C523 0.930 . S
H512 C525 0.930 . S
H513 C526 0.930 . S
H514 C530 0.959 . S
H515 C530 0.959 . S
H516 C530 0.961 . S
H517 C531 0.960 . S
H518 C531 0.961 . S
H519 C531 0.959 . S
H520 C534 0.929 . S
H521 C535 0.931 . S
H522 C537 0.930 . S
C523 H511 0.930 . S
C523 C524 1.399 . S
C523 C528 1.399 . S
C524 C523 1.399 . S
C524 C525 1.376 . S
C525 H512 0.930 . S
C525 C524 1.376 . S
C525 C526 1.388 . S
C526 H513 0.930 . S
C526 C525 1.388 . S
C526 C527 1.390 . S
C527 C526 1.390 . S
C527 C528 1.394 . S
C527 C533 1.465 . S
C528 C523 1.399 . S
C528 C527 1.394 . S
C528 C529 1.516 . S
C529 C528 1.516 . S
C529 C530 1.502 . S
C529 C531 1.561 . S
C529 C532 1.526 . S
C530 H514 0.959 . S
C530 H515 0.959 . S
C530 H516 0.961 . S
C530 C529 1.502 . S
C531 H517 0.960 . S
C531 H518 0.961 . S
C531 H519 0.959 . S
C531 C529 1.561 . S
C532 C529 1.526 . S
C532 C533 1.396 . S
C532 C537 1.390 . S
C533 C527 1.465 . S
C533 C532 1.396 . S
C533 C534 1.399 . S
C534 H520 0.929 . S
C534 C533 1.399 . S
C534 C535 1.385 . S
C535 H521 0.931 . S
C535 C534 1.385 . S
C535 C536 1.389 . S
C536 C535 1.389 . S
C536 C537 1.387 . S
C537 H522 0.930 . S
C537 C532 1.390 . S
C537 C536 1.387 . S
H538 C550 0.930 . S
H539 C552 0.930 . S
H540 C553 0.930 . S
H541 C557 0.959 . S
H542 C557 0.959 . S
H543 C557 0.961 . S
H544 C558 0.960 . S
H545 C558 0.961 . S
H546 C558 0.959 . S
H547 C561 0.929 . S
H548 C562 0.931 . S
H549 C564 0.930 . S
C550 H538 0.930 . S
C550 C551 1.399 . S
C550 C555 1.399 . S
C551 C550 1.399 . S
C551 C552 1.376 . S
C552 H539 0.930 . S
C552 C551 1.376 . S
C552 C553 1.388 . S
C553 H540 0.930 . S
C553 C552 1.388 . S
C553 C554 1.390 . S
C554 C553 1.390 . S
C554 C555 1.394 . S
C554 C560 1.465 . S
C555 C550 1.399 . S
C555 C554 1.394 . S
C555 C556 1.516 . S
C556 C555 1.516 . S
C556 C557 1.502 . S
C556 C558 1.561 . S
C556 C559 1.526 . S
C557 H541 0.959 . S
C557 H542 0.959 . S
C557 H543 0.961 . S
C557 C556 1.502 . S
C558 H544 0.960 . S
C558 H545 0.961 . S
C558 H546 0.959 . S
C558 C556 1.561 . S
C559 C556 1.526 . S
C559 C560 1.396 . S
C559 C564 1.390 . S
C560 C554 1.465 . S
C560 C559 1.396 . S
C560 C561 1.399 . S
C561 H547 0.929 . S
C561 C560 1.399 . S
C561 C562 1.385 . S
C562 H548 0.931 . S
C562 C561 1.385 . S
C562 C563 1.389 . S
C563 C562 1.389 . S
C563 C564 1.387 . S
C564 H549 0.930 . S
C564 C559 1.390 . S
C564 C563 1.387 . S
H565 C577 0.930 . S
H566 C579 0.930 . S
H567 C580 0.930 . S
H568 C584 0.959 . S
H569 C584 0.959 . S
H570 C584 0.961 . S
H571 C585 0.960 . S
H572 C585 0.961 . S
H573 C585 0.959 . S
H574 C588 0.929 . S
H575 C589 0.931 . S
H576 C591 0.930 . S
C577 H565 0.930 . S
C577 C578 1.399 . S
C577 C582 1.399 . S
C578 C577 1.399 . S
C578 C579 1.376 . S
C579 H566 0.930 . S
C579 C578 1.376 . S
C579 C580 1.388 . S
C580 H567 0.930 . S
C580 C579 1.388 . S
C580 C581 1.390 . S
C581 C580 1.390 . S
C581 C582 1.394 . S
C581 C587 1.465 . S
C582 C577 1.399 . S
C582 C581 1.394 . S
C582 C583 1.516 . S
C583 C582 1.516 . S
C583 C584 1.502 . S
C583 C585 1.561 . S
C583 C586 1.526 . S
C584 H568 0.959 . S
C584 H569 0.959 . S
C584 H570 0.961 . S
C584 C583 1.502 . S
C585 H571 0.960 . S
C585 H572 0.961 . S
C585 H573 0.959 . S
C585 C583 1.561 . S
C586 C583 1.526 . S
C586 C587 1.396 . S
C586 C591 1.390 . S
C587 C581 1.465 . S
C587 C586 1.396 . S
C587 C588 1.399 . S
C588 H574 0.929 . S
C588 C587 1.399 . S
C588 C589 1.385 . S
C589 H575 0.931 . S
C589 C588 1.385 . S
C589 C590 1.389 . S
C590 C589 1.389 . S
C590 C591 1.387 . S
C591 H576 0.930 . S
C591 C586 1.390 . S
C591 C590 1.387 . S
H592 C604 0.930 . S
H593 C606 0.930 . S
H594 C607 0.930 . S
H595 C611 0.959 . S
H596 C611 0.959 . S
H597 C611 0.961 . S
H598 C612 0.960 . S
H599 C612 0.961 . S
H600 C612 0.959 . S
H601 C615 0.929 . S
H602 C616 0.931 . S
H603 C618 0.930 . S
C604 H592 0.930 . S
C604 C605 1.399 . S
C604 C609 1.399 . S
C605 C604 1.399 . S
C605 C606 1.376 . S
C606 H593 0.930 . S
C606 C605 1.376 . S
C606 C607 1.388 . S
C607 H594 0.930 . S
C607 C606 1.388 . S
C607 C608 1.390 . S
C608 C607 1.390 . S
C608 C609 1.394 . S
C608 C614 1.465 . S
C609 C604 1.399 . S
C609 C608 1.394 . S
C609 C610 1.516 . S
C610 C609 1.516 . S
C610 C611 1.502 . S
C610 C612 1.561 . S
C610 C613 1.526 . S
C611 H595 0.959 . S
C611 H596 0.959 . S
C611 H597 0.961 . S
C611 C610 1.502 . S
C612 H598 0.960 . S
C612 H599 0.961 . S
C612 H600 0.959 . S
C612 C610 1.561 . S
C613 C610 1.526 . S
C613 C614 1.396 . S
C613 C618 1.390 . S
C614 C608 1.465 . S
C614 C613 1.396 . S
C614 C615 1.399 . S
C615 H601 0.929 . S
C615 C614 1.399 . S
C615 C616 1.385 . S
C616 H602 0.931 . S
C616 C615 1.385 . S
C616 C617 1.389 . S
C617 C616 1.389 . S
C617 C618 1.387 . S
C618 H603 0.930 . S
C618 C613 1.390 . S
C618 C617 1.387 . S
H619 C631 0.930 . S
H620 C633 0.930 . S
H621 C634 0.930 . S
H622 C638 0.959 . S
H623 C638 0.959 . S
H624 C638 0.961 . S
H625 C639 0.960 . S
H626 C639 0.961 . S
H627 C639 0.959 . S
H628 C642 0.929 . S
H629 C643 0.931 . S
H630 C645 0.930 . S
C631 H619 0.930 . S
C631 C632 1.399 . S
C631 C636 1.399 . S
C632 C631 1.399 . S
C632 C633 1.376 . S
C633 H620 0.930 . S
C633 C632 1.376 . S
C633 C634 1.388 . S
C634 H621 0.930 . S
C634 C633 1.388 . S
C634 C635 1.390 . S
C635 C634 1.390 . S
C635 C636 1.394 . S
C635 C641 1.465 . S
C636 C631 1.399 . S
C636 C635 1.394 . S
C636 C637 1.516 . S
C637 C636 1.516 . S
C637 C638 1.502 . S
C637 C639 1.561 . S
C637 C640 1.526 . S
C638 H622 0.959 . S
C638 H623 0.959 . S
C638 H624 0.961 . S
C638 C637 1.502 . S
C639 H625 0.960 . S
C639 H626 0.961 . S
C639 H627 0.959 . S
C639 C637 1.561 . S
C640 C637 1.526 . S
C640 C641 1.396 . S
C640 C645 1.390 . S
C641 C635 1.465 . S
C641 C640 1.396 . S
C641 C642 1.399 . S
C642 H628 0.929 . S
C642 C641 1.399 . S
C642 C643 1.385 . S
C643 H629 0.931 . S
C643 C642 1.385 . S
C643 C644 1.389 . S
C644 C643 1.389 . S
C644 C645 1.387 . S
C645 H630 0.930 . S
C645 C640 1.390 . S
C645 C644 1.387 . S
H646 C658 0.930 . S
H647 C660 0.930 . S
H648 C661 0.930 . S
H649 C665 0.959 . S
H650 C665 0.959 . S
H651 C665 0.961 . S
H652 C666 0.960 . S
H653 C666 0.961 . S
H654 C666 0.959 . S
H655 C669 0.929 . S
H656 C670 0.931 . S
H657 C672 0.930 . S
C658 H646 0.930 . S
C658 C659 1.399 . S
C658 C663 1.399 . S
C659 C658 1.399 . S
C659 C660 1.376 . S
C660 H647 0.930 . S
C660 C659 1.376 . S
C660 C661 1.388 . S
C661 H648 0.930 . S
C661 C660 1.388 . S
C661 C662 1.390 . S
C662 C661 1.390 . S
C662 C663 1.394 . S
C662 C668 1.465 . S
C663 C658 1.399 . S
C663 C662 1.394 . S
C663 C664 1.516 . S
C664 C663 1.516 . S
C664 C665 1.502 . S
C664 C666 1.561 . S
C664 C667 1.526 . S
C665 H649 0.959 . S
C665 H650 0.959 . S
C665 H651 0.961 . S
C665 C664 1.502 . S
C666 H652 0.960 . S
C666 H653 0.961 . S
C666 H654 0.959 . S
C666 C664 1.561 . S
C667 C664 1.526 . S
C667 C668 1.396 . S
C667 C672 1.390 . S
C668 C662 1.465 . S
C668 C667 1.396 . S
C668 C669 1.399 . S
C669 H655 0.929 . S
C669 C668 1.399 . S
C669 C670 1.385 . S
C670 H656 0.931 . S
C670 C669 1.385 . S
C670 C671 1.389 . S
C671 C670 1.389 . S
C671 C672 1.387 . S
C672 H657 0.930 . S
C672 C667 1.390 . S
C672 C671 1.387 . S
H673 C685 0.930 . S
H674 C687 0.930 . S
H675 C688 0.930 . S
H676 C692 0.959 . S
H677 C692 0.959 . S
H678 C692 0.961 . S
H679 C693 0.960 . S
H680 C693 0.961 . S
H681 C693 0.959 . S
H682 C696 0.929 . S
H683 C697 0.931 . S
H684 C699 0.930 . S
C685 H673 0.930 . S
C685 C686 1.399 . S
C685 C690 1.399 . S
C686 C685 1.399 . S
C686 C687 1.376 . S
C687 H674 0.930 . S
C687 C686 1.376 . S
C687 C688 1.388 . S
C688 H675 0.930 . S
C688 C687 1.388 . S
C688 C689 1.390 . S
C689 C688 1.390 . S
C689 C690 1.394 . S
C689 C695 1.465 . S
C690 C685 1.399 . S
C690 C689 1.394 . S
C690 C691 1.516 . S
C691 C690 1.516 . S
C691 C692 1.502 . S
C691 C693 1.561 . S
C691 C694 1.526 . S
C692 H676 0.959 . S
C692 H677 0.959 . S
C692 H678 0.961 . S
C692 C691 1.502 . S
C693 H679 0.960 . S
C693 H680 0.961 . S
C693 H681 0.959 . S
C693 C691 1.561 . S
C694 C691 1.526 . S
C694 C695 1.396 . S
C694 C699 1.390 . S
C695 C689 1.465 . S
C695 C694 1.396 . S
C695 C696 1.399 . S
C696 H682 0.929 . S
C696 C695 1.399 . S
C696 C697 1.385 . S
C697 H683 0.931 . S
C697 C696 1.385 . S
C697 C698 1.389 . S
C698 C697 1.389 . S
C698 C699 1.387 . S
C699 H684 0.930 . S
C699 C694 1.390 . S
C699 C698 1.387 . S
H700 C712 0.930 . S
H701 C714 0.930 . S
H702 C715 0.930 . S
H703 C719 0.959 . S
H704 C719 0.959 . S
H705 C719 0.961 . S
H706 C720 0.960 . S
H707 C720 0.961 . S
H708 C720 0.959 . S
H709 C723 0.929 . S
H710 C724 0.931 . S
H711 C726 0.930 . S
C712 H700 0.930 . S
C712 C713 1.399 . S
C712 C717 1.399 . S
C713 C712 1.399 . S
C713 C714 1.376 . S
C714 H701 0.930 . S
C714 C713 1.376 . S
C714 C715 1.388 . S
C715 H702 0.930 . S
C715 C714 1.388 . S
C715 C716 1.390 . S
C716 C715 1.390 . S
C716 C717 1.394 . S
C716 C722 1.465 . S
C717 C712 1.399 . S
C717 C716 1.394 . S
C717 C718 1.516 . S
C718 C717 1.516 . S
C718 C719 1.502 . S
C718 C720 1.561 . S
C718 C721 1.526 . S
C719 H703 0.959 . S
C719 H704 0.959 . S
C719 H705 0.961 . S
C719 C718 1.502 . S
C720 H706 0.960 . S
C720 H707 0.961 . S
C720 H708 0.959 . S
C720 C718 1.561 . S
C721 C718 1.526 . S
C721 C722 1.396 . S
C721 C726 1.390 . S
C722 C716 1.465 . S
C722 C721 1.396 . S
C722 C723 1.399 . S
C723 H709 0.929 . S
C723 C722 1.399 . S
C723 C724 1.385 . S
C724 H710 0.931 . S
C724 C723 1.385 . S
C724 C725 1.389 . S
C725 C724 1.389 . S
C725 C726 1.387 . S
C726 H711 0.930 . S
C726 C721 1.390 . S
C726 C725 1.387 . S
H727 C739 0.930 . S
H728 C741 0.930 . S
H729 C742 0.930 . S
H730 C746 0.959 . S
H731 C746 0.959 . S
H732 C746 0.961 . S
H733 C747 0.960 . S
H734 C747 0.961 . S
H735 C747 0.959 . S
H736 C750 0.929 . S
H737 C751 0.931 . S
H738 C753 0.930 . S
C739 H727 0.930 . S
C739 C740 1.399 . S
C739 C744 1.399 . S
C740 C739 1.399 . S
C740 C741 1.376 . S
C741 H728 0.930 . S
C741 C740 1.376 . S
C741 C742 1.388 . S
C742 H729 0.930 . S
C742 C741 1.388 . S
C742 C743 1.390 . S
C743 C742 1.390 . S
C743 C744 1.394 . S
C743 C749 1.465 . S
C744 C739 1.399 . S
C744 C743 1.394 . S
C744 C745 1.516 . S
C745 C744 1.516 . S
C745 C746 1.502 . S
C745 C747 1.561 . S
C745 C748 1.526 . S
C746 H730 0.959 . S
C746 H731 0.959 . S
C746 H732 0.961 . S
C746 C745 1.502 . S
C747 H733 0.960 . S
C747 H734 0.961 . S
C747 H735 0.959 . S
C747 C745 1.561 . S
C748 C745 1.526 . S
C748 C749 1.396 . S
C748 C753 1.390 . S
C749 C743 1.465 . S
C749 C748 1.396 . S
C749 C750 1.399 . S
C750 H736 0.929 . S
C750 C749 1.399 . S
C750 C751 1.385 . S
C751 H737 0.931 . S
C751 C750 1.385 . S
C751 C752 1.389 . S
C752 C751 1.389 . S
C752 C753 1.387 . S
C753 H738 0.930 . S
C753 C748 1.390 . S
C753 C752 1.387 . S
H754 C766 0.930 . S
H755 C768 0.930 . S
H756 C769 0.930 . S
H757 C773 0.959 . S
H758 C773 0.959 . S
H759 C773 0.961 . S
H760 C774 0.960 . S
H761 C774 0.961 . S
H762 C774 0.959 . S
H763 C777 0.929 . S
H764 C778 0.931 . S
H765 C780 0.930 . S
C766 H754 0.930 . S
C766 C767 1.399 . S
C766 C771 1.399 . S
C767 C766 1.399 . S
C767 C768 1.376 . S
C768 H755 0.930 . S
C768 C767 1.376 . S
C768 C769 1.388 . S
C769 H756 0.930 . S
C769 C768 1.388 . S
C769 C770 1.390 . S
C770 C769 1.390 . S
C770 C771 1.394 . S
C770 C776 1.465 . S
C771 C766 1.399 . S
C771 C770 1.394 . S
C771 C772 1.516 . S
C772 C771 1.516 . S
C772 C773 1.502 . S
C772 C774 1.561 . S
C772 C775 1.526 . S
C773 H757 0.959 . S
C773 H758 0.959 . S
C773 H759 0.961 . S
C773 C772 1.502 . S
C774 H760 0.960 . S
C774 H761 0.961 . S
C774 H762 0.959 . S
C774 C772 1.561 . S
C775 C772 1.526 . S
C775 C776 1.396 . S
C775 C780 1.390 . S
C776 C770 1.465 . S
C776 C775 1.396 . S
C776 C777 1.399 . S
C777 H763 0.929 . S
C777 C776 1.399 . S
C777 C778 1.385 . S
C778 H764 0.931 . S
C778 C777 1.385 . S
C778 C779 1.389 . S
C779 C778 1.389 . S
C779 C780 1.387 . S
C780 H765 0.930 . S
C780 C775 1.390 . S
C780 C779 1.387 . S
H781 C793 0.930 . S
H782 C795 0.930 . S
H783 C796 0.930 . S
H784 C800 0.959 . S
H785 C800 0.959 . S
H786 C800 0.961 . S
H787 C801 0.960 . S
H788 C801 0.961 . S
H789 C801 0.959 . S
H790 C804 0.929 . S
H791 C805 0.931 . S
H792 C807 0.930 . S
C793 H781 0.930 . S
C793 C794 1.399 . S
C793 C798 1.399 . S
C794 C793 1.399 . S
C794 C795 1.376 . S
C795 H782 0.930 . S
C795 C794 1.376 . S
C795 C796 1.388 . S
C796 H783 0.930 . S
C796 C795 1.388 . S
C796 C797 1.390 . S
C797 C796 1.390 . S
C797 C798 1.394 . S
C797 C803 1.465 . S
C798 C793 1.399 . S
C798 C797 1.394 . S
C798 C799 1.516 . S
C799 C798 1.516 . S
C799 C800 1.502 . S
C799 C801 1.561 . S
C799 C802 1.526 . S
C800 H784 0.959 . S
C800 H785 0.959 . S
C800 H786 0.961 . S
C800 C799 1.502 . S
C801 H787 0.960 . S
C801 H788 0.961 . S
C801 H789 0.959 . S
C801 C799 1.561 . S
C802 C799 1.526 . S
C802 C803 1.396 . S
C802 C807 1.390 . S
C803 C797 1.465 . S
C803 C802 1.396 . S
C803 C804 1.399 . S
C804 H790 0.929 . S
C804 C803 1.399 . S
C804 C805 1.385 . S
C805 H791 0.931 . S
C805 C804 1.385 . S
C805 C806 1.389 . S
C806 C805 1.389 . S
C806 C807 1.387 . S
C807 H792 0.930 . S
C807 C802 1.390 . S
C807 C806 1.387 . S
H808 C820 0.930 . S
H809 C822 0.930 . S
H810 C823 0.930 . S
H811 C827 0.959 . S
H812 C827 0.959 1_545 S
H813 C827 0.961 . S
H814 C828 0.960 1_565 S
H815 C828 0.961 . S
H816 C828 0.959 . S
H817 C831 0.911 1_565 S
H818 C832 0.931 . S
H819 C834 0.930 . S
C820 H808 0.930 . S
C820 C821 1.399 . S
C820 C825 1.399 . S
C821 C820 1.399 . S
C821 C822 1.376 . S
C822 H809 0.930 . S
C822 C821 1.376 . S
C822 C823 1.388 . S
C823 H810 0.930 . S
C823 C822 1.388 . S
C823 C824 1.390 . S
C824 C823 1.390 . S
C824 C825 1.394 . S
C824 C830 1.465 . S
C825 C820 1.399 . S
C825 C824 1.394 . S
C825 C826 1.516 . S
C826 C825 1.516 . S
C826 C827 1.502 . S
C826 C828 1.561 1_565 S
C826 C829 1.526 1_565 S
C827 H811 0.959 . S
C827 H812 0.959 1_565 S
C827 H813 0.961 . S
C827 C826 1.502 . S
C828 H814 0.960 1_545 S
C828 H815 0.961 . S
C828 H816 0.959 . S
C828 C826 1.561 1_545 S
C829 C826 1.526 1_545 S
C829 C830 1.396 1_545 S
C829 C834 1.390 . S
C830 C824 1.465 . S
C830 C829 1.396 1_565 S
C830 C831 1.389 1_565 S
C831 H817 0.911 1_545 S
C831 C830 1.389 1_545 S
C831 C832 1.414 . S
C832 H818 0.931 . S
C832 C831 1.414 . S
C832 C833 1.389 . S
C833 C832 1.389 . S
C833 C834 1.387 . S
C834 H819 0.930 . S
C834 C829 1.390 . S
C834 C833 1.387 . S
H835 C847 0.930 . S
H836 C849 0.930 . S
H837 C850 0.930 . S
H838 C854 0.959 . S
H839 C854 0.959 . S
H840 C854 0.961 . S
H841 C855 0.960 . S
H842 C855 0.961 . S
H843 C855 0.959 . S
H844 C858 0.929 . S
H845 C859 0.931 . S
H846 C861 0.930 . S
C847 H835 0.930 . S
C847 C848 1.399 . S
C847 C852 1.399 . S
C848 C847 1.399 . S
C848 C849 1.376 . S
C849 H836 0.930 . S
C849 C848 1.376 . S
C849 C850 1.388 . S
C850 H837 0.930 . S
C850 C849 1.388 . S
C850 C851 1.390 . S
C851 C850 1.390 . S
C851 C852 1.394 . S
C851 C857 1.465 . S
C852 C847 1.399 . S
C852 C851 1.394 . S
C852 C853 1.516 . S
C853 C852 1.516 . S
C853 C854 1.502 . S
C853 C855 1.561 . S
C853 C856 1.526 . S
C854 H838 0.959 . S
C854 H839 0.959 . S
C854 H840 0.961 . S
C854 C853 1.502 . S
C855 H841 0.960 . S
C855 H842 0.961 . S
C855 H843 0.959 . S
C855 C853 1.561 . S
C856 C853 1.526 . S
C856 C857 1.396 . S
C856 C861 1.390 . S
C857 C851 1.465 . S
C857 C856 1.396 . S
C857 C858 1.399 . S
C858 H844 0.929 . S
C858 C857 1.399 . S
C858 C859 1.385 . S
C859 H845 0.931 . S
C859 C858 1.385 . S
C859 C860 1.389 . S
C860 C859 1.389 . S
C860 C861 1.387 . S
C861 H846 0.930 . S
C861 C856 1.390 . S
C861 C860 1.387 . S
C239 C105 1.745 . S
C227 C5 1.734 . S
C266 C118 1.402 . S
C254 C16 1.304 . S
C293 C100 1.687 . S
C281 C30 1.722 . S
C320 C128 1.563 . S
C308 C40 1.658 . S
C347 C139 1.468 . S
C335 C8 1.503 . S
C374 C160 1.272 . S
C362 C18 1.342 . S
C389 C29 1.706 . S
C401 C189 1.641 . S
C428 C210 1.645 . S
C416 C38 1.480 . S
C455 C149 1.367 . S
C443 C19 1.400 . S
C470 C27 1.377 . S
C482 C170 1.455 . S
C509 C184 1.475 . S
C497 C41 1.595 . S
C536 C205 1.789 . S
C524 C7 1.812 . S
C551 C52 1.648 . S
C563 C126 1.567 . S
C590 C97 1.863 . S
C578 C62 1.904 . S
C605 C74 1.636 . S
C617 C121 1.369 . S
C632 C82 1.263 . S
C644 C107 1.567 . S
C671 C191 1.702 . S
C659 C51 1.728 . S
C698 C212 1.858 . S
C686 C60 1.715 . S
C725 C142 1.335 . S
C713 C71 1.327 . S
C740 C84 1.451 . S
C752 C163 1.355 . S
C779 C181 1.594 . S
C767 C63 1.698 . S
C806 C202 1.603 . S
C794 C73 1.662 . S
C833 C147 1.426 . S
C821 C85 1.537 . S
C848 C49 1.355 . S
C860 C168 1.444 . S
