# Generated by pormake.
# Topology zzz, (3,6)-cn, num edge types: 1
# Building blocks:
#     Node 0, Type 0, BuildingBlock: BELTOD_clean_linker_0, # of connection points: 3
#     Node 1, Type 0, BuildingBlock: BELTOD_clean_linker_0, # of connection points: 3
#     Node 2, Type 0, BuildingBlock: BELTOD_clean_linker_0, # of connection points: 3
#     Node 3, Type 0, BuildingBlock: BELTOD_clean_linker_0, # of connection points: 3
#     Node 4, Type 0, BuildingBlock: BELTOD_clean_linker_0, # of connection points: 3
#     Node 5, Type 0, BuildingBlock: BELTOD_clean_linker_0, # of connection points: 3
#     Node 6, Type 0, BuildingBlock: BELTOD_clean_linker_0, # of connection points: 3
#     Node 7, Type 0, BuildingBlock: BELTOD_clean_linker_0, # of connection points: 3
#     Node 8, Type 1, BuildingBlock: KUMBUR_clean_sbu_0, # of connection points: 6
#     Node 9, Type 1, BuildingBlock: KUMBUR_clean_sbu_0, # of connection points: 6
#     Node 10, Type 1, BuildingBlock: KUMBUR_clean_sbu_0, # of connection points: 6
#     Node 11, Type 1, BuildingBlock: KUMBUR_clean_sbu_0, # of connection points: 6
#     Edge 12, Type (0, 1), BuildingBlock: AJUNOK_clean_linker_0, # of connection points: 2
#     Edge 13, Type (0, 1), BuildingBlock: AJUNOK_clean_linker_0, # of connection points: 2
#     Edge 14, Type (0, 1), BuildingBlock: AJUNOK_clean_linker_0, # of connection points: 2
#     Edge 15, Type (0, 1), BuildingBlock: AJUNOK_clean_linker_0, # of connection points: 2
#     Edge 16, Type (0, 1), BuildingBlock: AJUNOK_clean_linker_0, # of connection points: 2
#     Edge 17, Type (0, 1), BuildingBlock: AJUNOK_clean_linker_0, # of connection points: 2
#     Edge 18, Type (0, 1), BuildingBlock: AJUNOK_clean_linker_0, # of connection points: 2
#     Edge 19, Type (0, 1), BuildingBlock: AJUNOK_clean_linker_0, # of connection points: 2
#     Edge 20, Type (0, 1), BuildingBlock: AJUNOK_clean_linker_0, # of connection points: 2
#     Edge 21, Type (0, 1), BuildingBlock: AJUNOK_clean_linker_0, # of connection points: 2
#     Edge 22, Type (0, 1), BuildingBlock: AJUNOK_clean_linker_0, # of connection points: 2
#     Edge 23, Type (0, 1), BuildingBlock: AJUNOK_clean_linker_0, # of connection points: 2
#     Edge 24, Type (0, 1), BuildingBlock: AJUNOK_clean_linker_0, # of connection points: 2
#     Edge 25, Type (0, 1), BuildingBlock: AJUNOK_clean_linker_0, # of connection points: 2
#     Edge 26, Type (0, 1), BuildingBlock: AJUNOK_clean_linker_0, # of connection points: 2
#     Edge 27, Type (0, 1), BuildingBlock: AJUNOK_clean_linker_0, # of connection points: 2
#     Edge 28, Type (0, 1), BuildingBlock: AJUNOK_clean_linker_0, # of connection points: 2
#     Edge 29, Type (0, 1), BuildingBlock: AJUNOK_clean_linker_0, # of connection points: 2
#     Edge 30, Type (0, 1), BuildingBlock: AJUNOK_clean_linker_0, # of connection points: 2
#     Edge 31, Type (0, 1), BuildingBlock: AJUNOK_clean_linker_0, # of connection points: 2
#     Edge 32, Type (0, 1), BuildingBlock: AJUNOK_clean_linker_0, # of connection points: 2
#     Edge 33, Type (0, 1), BuildingBlock: AJUNOK_clean_linker_0, # of connection points: 2
#     Edge 34, Type (0, 1), BuildingBlock: AJUNOK_clean_linker_0, # of connection points: 2
#     Edge 35, Type (0, 1), BuildingBlock: AJUNOK_clean_linker_0, # of connection points: 2
# Relax obj value: 0.331
# Max RMSD: 0.213
# Mean RMSD: 0.205
data_MOF--net-zzz--node1-KUMBUR_clean_sbu_0--node2-BELTOD_clean_linker_0--edge1-AJUNOK_clean_linker_0
_symmetry_space_group_name_H-M    P1
_symmetry_Int_Tables_number       1
_symmetry_cell_setting            triclinic
loop_
_symmetry_equiv_pos_as_xyz
'x, y, z'
_cell_length_a     40.785074
_cell_length_b     40.635177
_cell_length_c     14.140378
_cell_angle_alpha  91.00896
_cell_angle_beta   89.927136
_cell_angle_gamma 89.93073
loop_
_atom_site_label
_atom_site_type_symbol
_atom_site_fract_x
_atom_site_fract_y
_atom_site_fract_z
_atom_type_partial_charge
P0 P 0.74013 0.50012 0.29578 0.0
H1 H 0.75259 0.50291 0.50046 0.0
H2 H 0.80416 0.51024 0.58581 0.0
H3 H 0.8479 0.55252 0.33888 0.0
H4 H 0.79631 0.5446 0.25201 0.0
H5 H 0.68715 0.46188 0.224 0.0
H6 H 0.64144 0.47154 0.12155 0.0
H7 H 0.66268 0.57573 0.12678 0.0
H8 H 0.71129 0.56503 0.22677 0.0
H9 H 0.77493 0.43752 0.27172 0.0
H10 H 0.7576 0.52492 0.11009 0.0
O11 O 0.72841 0.46881 0.36294 0.0
H12 H 0.80772 0.41443 0.14195 0.0
H13 H 0.79135 0.50245 0.98144 0.0
C14 C 0.77012 0.52271 0.36839 0.0
C15 C 0.77266 0.51497 0.46488 0.0
C16 C 0.80241 0.51889 0.51397 0.0
C17 C 0.83032 0.53145 0.46878 0.0
C18 C 0.82687 0.54267 0.37566 0.0
C19 C 0.79711 0.53836 0.32602 0.0
C20 C 0.70235 0.51276 0.23686 0.0
C21 C 0.68187 0.48709 0.20554 0.0
C22 C 0.65536 0.49272 0.14591 0.0
C23 C 0.64747 0.52454 0.11559 0.0
C24 C 0.66786 0.55075 0.14731 0.0
C25 C 0.69537 0.54483 0.20637 0.0
C26 C 0.7635 0.48268 0.19974 0.0
C27 C 0.77793 0.45161 0.20803 0.0
C28 C 0.79672 0.43849 0.13402 0.0
C29 C 0.80165 0.45646 0.05114 0.0
C30 C 0.78717 0.48765 0.04326 0.0
C31 C 0.76815 0.50062 0.11703 0.0
P32 P 1.00607 0.75061 0.25059 0.0
H33 H 0.02878 0.75855 0.44721 0.0
H34 H 0.03087 0.80758 0.55111 0.0
H35 H 0.96124 0.85623 0.37311 0.0
H36 H 0.95981 0.80847 0.26858 0.0
H37 H 0.05411 0.6984 0.21577 0.0
H38 H 0.05012 0.64845 0.124 0.0
H39 H 0.9446 0.65167 0.147 0.0
H40 H 0.94884 0.70461 0.23288 0.0
H41 H 0.03828 0.7632 0.07224 0.0
H42 H 0.93913 0.7638 0.17835 0.0
O43 O 0.04641 0.75765 0.24762 0.0
H44 H 0.02009 0.78762 0.92755 0.0
H45 H 0.9205 0.79035 0.03266 0.0
C46 C 0.99372 0.77852 0.349 0.0
C47 C 0.01258 0.77896 0.43255 0.0
C48 C 0.01405 0.80731 0.4919 0.0
C49 C 0.99609 0.83592 0.4708 0.0
C50 C 0.97503 0.83456 0.39239 0.0
C51 C 0.97408 0.80654 0.33216 0.0
C52 C 1.00182 0.7059 0.23368 0.0
C53 C 0.02991 0.68816 0.20509 0.0
C54 C 0.02759 0.65879 0.1519 0.0
C55 C 0.997 0.64493 0.12777 0.0
C56 C 0.96873 0.66133 0.1629 0.0
C57 C 0.9711 0.69145 0.21445 0.0
C58 C 0.99049 0.76438 0.13909 0.0
C59 C 0.01245 0.76861 0.06444 0.0
C60 C 1.00174 0.78185 0.98018 0.0
C61 C 0.96881 0.7915 0.96917 0.0
C62 C 0.94602 0.78343 0.03961 0.0
C63 C 0.95679 0.76909 0.12348 0.0
P64 P 0.78167 1.01061 0.29479 0.0
H65 H 0.74964 0.06154 0.41225 0.0
H66 H 0.69775 0.06433 0.49377 0.0
H67 H 0.68688 0.95922 0.46336 0.0
H68 H 0.74059 0.9561 0.38331 0.0
H69 H 0.84851 0.03446 0.33405 0.0
H70 H 0.89768 0.02468 0.24159 0.0
H71 H 0.85574 0.93482 0.12868 0.0
H72 H 0.80561 0.94569 0.21877 0.0
H73 H 0.78414 0.04274 0.11305 0.0
H74 H 0.74087 0.95479 0.22514 0.0
O75 O 0.79016 0.05078 0.28997 0.0
H76 H 0.75474 0.03408 0.9666 0.0
H77 H 0.71109 0.94584 0.07745 0.0
C78 C 0.74956 1.00862 0.38746 0.0
C79 C 0.73698 0.03861 0.42389 0.0
C80 C 0.7066 0.04039 0.47034 0.0
C81 C 0.68718 1.01225 0.48317 0.0
C82 C 0.70077 0.98163 0.45424 0.0
C83 C 0.73163 0.97984 0.40741 0.0
C84 C 0.82233 0.99147 0.28247 0.0
C85 C 0.85009 1.01183 0.29271 0.0
C86 C 0.87866 1.00616 0.23882 0.0
C87 C 0.88093 0.97925 0.1747 0.0
C88 C 0.85484 0.95639 0.17465 0.0
C89 C 0.82609 0.96231 0.2281 0.0
C90 C 0.76272 1.00088 0.18292 0.0
C91 C 0.76839 0.0214 0.10623 0.0
C92 C 0.75224 0.01581 0.02097 0.0
C93 C 0.73028 0.98932 1.01052 0.0
C94 C 0.72758 0.96664 0.08392 0.0
C95 C 0.74387 0.97231 0.16947 0.0
P96 P 0.52791 0.80822 0.30916 0.0
H97 H 0.4771 0.76381 0.37335 0.0
H98 H 0.47759 0.71566 0.47054 0.0
H99 H 0.57488 0.74017 0.56742 0.0
H100 H 0.57436 0.78943 0.46721 0.0
H101 H 0.5063 0.87508 0.3714 0.0
H102 H 0.51093 0.92623 0.28465 0.0
H103 H 0.58707 0.88216 0.11118 0.0
H104 H 0.58653 0.83439 0.20948 0.0
H105 H 0.575 0.75286 0.31055 0.0
H106 H 0.52464 0.8106 0.10288 0.0
O107 O 0.48901 0.81303 0.27527 0.0
H108 H 0.59099 0.71409 0.19203 0.0
H109 H 0.54491 0.77361 0.97797 0.0
C110 C 0.52543 0.78136 0.413 0.0
C111 C 0.49821 0.76013 0.41822 0.0
C112 C 0.49851 0.73201 0.47441 0.0
C113 C 0.52614 0.7236 0.5283 0.0
C114 C 0.55304 0.74564 0.52719 0.0
C115 C 0.55257 0.77431 0.47102 0.0
C116 C 0.54487 0.84966 0.29487 0.0
C117 C 0.52526 0.87711 0.31814 0.0
C118 C 0.52695 0.90609 0.26466 0.0
C119 C 0.54709 0.90781 0.18308 0.0
C120 C 0.57018 0.8822 0.17017 0.0
C121 C 0.56978 0.85422 0.22726 0.0
C122 C 0.54651 0.78338 0.21694 0.0
C123 C 0.56781 0.75768 0.23887 0.0
C124 C 0.57825 0.7358 0.16869 0.0
C125 C 0.56878 0.73988 0.07371 0.0
C126 C 0.55167 0.76878 0.05043 0.0
C127 C 0.53986 0.78987 0.1218 0.0
P128 P 0.31626 0.46926 0.04699 0.0
H129 H 0.29802 0.47054 0.84426 0.0
H130 H 0.24615 0.48467 0.77031 0.0
H131 H 0.21416 0.53099 0.03188 0.0
H132 H 0.2681 0.52073 0.09996 0.0
H133 H 0.37799 0.43932 0.1005 0.0
H134 H 0.41974 0.45445 0.21652 0.0
H135 H 0.37542 0.55024 0.25175 0.0
H136 H 0.33297 0.53478 0.13469 0.0
H137 H 0.25864 0.42733 0.03673 0.0
H138 H 0.31371 0.47747 0.25619 0.0
O139 O 0.32827 0.43748 0.97913 0.0
H140 H 0.208 0.43937 0.12223 0.0
H141 H 0.26331 0.48957 0.34049 0.0
C142 C 0.28713 0.49392 0.97909 0.0
C143 C 0.28048 0.48508 0.88453 0.0
C144 C 0.24988 0.49213 0.84324 0.0
C145 C 0.22424 0.50688 0.89661 0.0
C146 C 0.23245 0.51894 0.98793 0.0
C147 C 0.26365 0.51324 0.0274 0.0
C148 C 0.35242 0.48604 0.10682 0.0
C149 C 0.37765 0.46403 0.13038 0.0
C150 C 0.40138 0.47253 0.19806 0.0
C151 C 0.40063 0.50333 0.24471 0.0
C152 C 0.37664 0.52628 0.21713 0.0
C153 C 0.35256 0.51761 0.14938 0.0
C154 C 0.28968 0.45335 0.13687 0.0
C155 C 0.26024 0.43878 0.10634 0.0
C156 C 0.23118 0.44587 0.15492 0.0
C157 C 0.23204 0.46648 0.23539 0.0
C158 C 0.26226 0.47428 0.27698 0.0
C159 C 0.29117 0.46741 0.22811 0.0
P160 P 0.07671 0.2863 0.12027 0.0
H161 H 0.10167 0.24253 0.9725 0.0
H162 H 0.08377 0.19105 0.90409 0.0
H163 H 0.98885 0.20468 0.03582 0.0
H164 H 1.00915 0.25464 0.11555 0.0
H165 H 0.1051 0.35046 0.15811 0.0
H166 H 0.09066 0.39606 0.26188 0.0
H167 H 0.99617 0.3528 0.31294 0.0
H168 H 0.01108 0.30572 0.20824 0.0
H169 H 0.12587 0.23362 0.12861 0.0
H170 H 0.06654 0.2895 0.32746 0.0
O171 O 0.10812 0.29886 0.05424 0.0
H172 H 0.13332 0.19103 0.24675 0.0
H173 H 0.0744 0.24798 0.44386 0.0
C174 C 0.05681 0.25352 0.04894 0.0
C175 C 0.07677 0.23487 0.98666 0.0
C176 C 0.06626 0.20487 0.94641 0.0
C177 C 0.03464 0.19231 0.96359 0.0
C178 C 0.01387 0.21196 0.02263 0.0
C179 C 0.02511 0.24154 0.06667 0.0
C180 C 0.05908 0.32438 0.17207 0.0
C181 C 0.08073 0.35081 0.1885 0.0
C182 C 0.07264 0.37706 0.24975 0.0
C183 C 0.0424 0.37839 0.29716 0.0
C184 C 0.01971 0.35286 0.27743 0.0
C185 C 0.02806 0.32598 0.21631 0.0
C186 C 0.09421 0.26404 0.21704 0.0
C187 C 0.11542 0.23745 0.19829 0.0
C188 C 0.12011 0.2133 0.2662 0.0
C189 C 0.1036 0.21576 0.35324 0.0
C190 C 0.08723 0.24519 0.37703 0.0
C191 C 0.08221 0.26895 0.30907 0.0
P192 P 0.2351 0.09237 0.09752 0.0
H193 H 0.25054 0.08073 0.89477 0.0
H194 H 0.30016 0.06121 0.81424 0.0
H195 H 0.34064 0.03263 0.08258 0.0
H196 H 0.29002 0.04982 0.16129 0.0
H197 H 0.17265 0.1246 0.13606 0.0
H198 H 0.12687 0.11124 0.23971 0.0
H199 H 0.16595 0.01353 0.27312 0.0
H200 H 0.21235 0.02725 0.16922 0.0
H201 H 0.29293 0.1347 0.11919 0.0
H202 H 0.22507 0.08556 0.30382 0.0
O203 O 0.22659 0.12415 0.02845 0.0
H204 H 0.33334 0.13646 0.24696 0.0
H205 H 0.26522 0.08452 0.42539 0.0
C206 C 0.26608 0.06714 0.03488 0.0
C207 C 0.2696 0.06931 0.93618 0.0
C208 C 0.29867 0.05888 0.89022 0.0
C209 C 0.32559 0.04655 0.94169 0.0
C210 C 0.32095 0.0422 0.03971 0.0
C211 C 0.29162 0.05199 0.08522 0.0
C212 C 0.19591 0.07675 0.14202 0.0
C213 C 0.17091 0.09979 0.16228 0.0
C214 C 0.14481 0.09232 0.22318 0.0
C215 C 0.14259 0.06137 0.26556 0.0
C216 C 0.16656 0.03752 0.24102 0.0
C217 C 0.19302 0.04518 0.1805 0.0
C218 C 0.25652 0.10848 0.19976 0.0
C219 C 0.28626 0.12523 0.18769 0.0
C220 C 0.30954 0.12572 0.26041 0.0
C221 C 0.30353 0.10845 0.34415 0.0
C222 C 0.27146 0.09731 0.36133 0.0
C223 C 0.24818 0.09741 0.28988 0.0
P224 P 0.44589 0.23467 0.03076 0.0
H225 H 0.44 0.25321 0.83119 0.0
H226 H 0.45755 0.30289 0.75131 0.0
H227 H 0.52273 0.32582 0.98298 0.0
H228 H 0.50534 0.27569 0.0625 0.0
H229 H 0.4082 0.17898 0.09402 0.0
H230 H 0.41831 0.13499 0.20388 0.0
H231 H 0.51926 0.16523 0.22861 0.0
H232 H 0.50915 0.20931 0.11369 0.0
H233 H 0.40026 0.28942 0.02597 0.0
H234 H 0.46863 0.24825 0.22436 0.0
O235 O 0.41192 0.22522 0.97056 0.0
H236 H 0.40313 0.34227 0.11027 0.0
H237 H 0.47218 0.3007 0.30648 0.0
C238 C 0.47133 0.26001 0.95354 0.0
C239 C 0.45913 0.26797 0.86361 0.0
C240 C 0.46882 0.29694 0.8182 0.0
C241 C 0.49131 0.31891 0.86072 0.0
C242 C 0.50562 0.30955 0.9471 0.0
C243 C 0.49586 0.28048 0.9926 0.0
C244 C 0.45798 0.1974 0.09305 0.0
C245 C 0.43294 0.17572 0.11981 0.0
C246 C 0.43861 0.15066 0.18447 0.0
C247 C 0.46942 0.14678 0.22713 0.0
C248 C 0.49519 0.1674 0.19713 0.0
C249 C 0.48949 0.19258 0.131 0.0
C250 C 0.43431 0.26487 0.11851 0.0
C251 C 0.4144 0.29112 0.09065 0.0
C252 C 0.41627 0.3214 0.13829 0.0
C253 C 0.43814 0.32564 0.2141 0.0
C254 C 0.45474 0.29812 0.24913 0.0
C255 C 0.45279 0.2679 0.20163 0.0
Tb256 Tb 0.05059 1.00967 0.77905 0.0
C257 C 0.90999 0.97738 0.63645 0.0
C258 C 0.91601 0.94124 0.50011 0.0
C259 C 0.86586 0.93988 0.59266 0.0
C260 C 0.9286 0.96573 0.56221 0.0
C261 C 0.87804 0.96521 0.65156 0.0
C262 C 0.88486 0.92787 0.51701 0.0
C263 C 0.8714 1.00614 0.7757 0.0
N264 N 0.92253 1.00209 0.69063 0.0
C265 C 0.90322 0.0173 0.75794 0.0
C266 C 0.8589 0.97964 0.72318 0.0
Tb267 Tb 0.97478 0.01976 0.65577 0.0
N268 N 0.95829 0.97979 0.54763 0.0
C269 C 0.97544 0.97185 0.46713 0.0
C270 C 0.93461 0.93171 0.42126 0.0
C271 C 0.96433 0.94738 0.4042 0.0
H272 H 0.91254 0.03758 0.8001 0.0
H273 H 0.97863 0.94082 0.34212 0.0
H274 H 0.87489 0.90892 0.47051 0.0
H275 H 0.85664 0.01786 0.83034 0.0
H276 H 0.99791 0.98384 0.45041 0.0
H277 H 0.04625 0.08305 0.1011 0.0
H278 H 0.92587 0.91302 0.3719 0.0
H279 H 0.11178 0.99865 0.62491 0.0
H280 H 0.02773 0.04125 0.98854 0.0
H281 H 0.16383 0.02577 0.5839 0.0
H282 H 0.84149 0.93003 0.60348 0.0
H283 H 0.09465 0.11743 0.06474 0.0
H284 H 0.14195 0.12883 0.95625 0.0
H285 H 0.83423 0.97107 0.73693 0.0
H286 H 0.17404 0.11314 0.81489 0.0
N287 N 0.06502 0.05009 0.88712 0.0
C288 C 0.04911 0.05505 0.97121 0.0
C289 C 0.08672 0.09856 1.01476 0.0
C290 C 0.10404 0.09238 0.93099 0.0
C291 C 0.05951 0.07929 0.03567 0.0
C292 C 0.09267 0.06737 0.86863 0.0
H293 H 0.18253 0.07456 0.67595 0.0
N294 N 0.1001 0.03264 0.73671 0.0
C295 C 0.14912 0.03529 0.64201 0.0
C296 C 0.11081 0.05841 0.79029 0.0
C297 C 0.11964 0.01995 0.6657 0.0
C298 C 0.15951 0.0629 0.69384 0.0
C299 C 0.14067 0.07437 0.77034 0.0
O300 O 0.0894 0.97648 0.79414 0.0
O301 O 0.01174 0.98501 0.69908 0.0
O302 O 0.96394 0.98913 0.77873 0.0
O303 O 1.0077 1.00307 0.87739 0.0
O304 O 0.05835 0.97046 0.67196 0.0
O305 O 0.05347 0.98302 0.9051 0.0
O306 O 0.94149 0.05856 0.63883 0.0
O307 O 0.01329 0.04356 0.73828 0.0
O308 O 0.05864 0.04166 0.65726 0.0
O309 O 0.01796 0.02206 0.5578 0.0
O310 O 0.96704 0.05823 0.76665 0.0
O311 O 0.9755 0.04557 0.52792 0.0
C312 C 0.0284 0.9644 0.65075 0.0
C313 C 0.07249 0.92934 0.86826 0.0
C314 C 0.03707 0.88227 0.83654 0.0
C315 C 0.04135 0.9163 0.8481 0.0
C316 C 0.06473 0.86153 0.84128 0.0
C317 C 0.09967 0.90837 0.87336 0.0
C318 C 0.09578 0.87457 0.85919 0.0
C319 C 0.97734 0.99137 0.86426 0.0
C320 C 0.07753 0.96494 0.87194 0.0
C321 C 0.15127 0.10044 0.82924 0.0
C322 C 0.133 0.1094 0.90964 0.0
C323 C 0.99697 0.06348 0.78926 0.0
C324 C 0.96856 0.10219 0.56765 0.0
C325 C 0.99996 0.10961 0.53335 0.0
C326 C 0.01352 0.14094 0.54809 0.0
C327 C 0.99564 0.1648 0.59974 0.0
C328 C 0.95077 0.1266 0.61731 0.0
C329 C 0.96442 0.15761 0.63392 0.0
C330 C 0.04731 0.03567 0.57112 0.0
C331 C 0.95593 0.06823 0.56237 0.0
H332 H 0.02045 0.93258 0.84177 0.0
H333 H 0.06224 0.83505 0.83488 0.0
H334 H 0.12395 0.91822 0.88649 0.0
H335 H 0.11681 0.85839 0.86324 0.0
H336 H 0.01403 0.09106 0.49539 0.0
H337 H 1.00536 0.18934 0.61117 0.0
H338 H 0.92663 0.1214 0.64544 0.0
H339 H 0.9507 0.17618 0.67304 0.0
Tb340 Tb 0.5097 0.06702 0.76382 0.0
C341 C 0.54677 0.92515 0.645 0.0
C342 C 0.58162 0.92804 0.50704 0.0
C343 C 0.58576 0.88116 0.61053 0.0
C344 C 0.55707 0.94175 0.56638 0.0
C345 C 0.56064 0.89442 0.66752 0.0
C346 C 0.59621 0.89793 0.53031 0.0
C347 C 0.52198 0.89083 0.79624 0.0
N348 N 0.52215 0.9385 0.69735 0.0
C349 C 0.50869 0.92106 0.77011 0.0
C350 C 0.54827 0.87755 0.74519 0.0
Tb351 Tb 0.50163 0.98838 0.6497 0.0
N352 N 0.54216 0.97067 0.54606 0.0
C353 C 0.54952 0.98588 0.46286 0.0
C354 C 0.59023 0.94453 0.4249 0.0
C355 C 0.57384 0.9734 0.40227 0.0
H356 H 0.48827 0.93101 0.8101 0.0
H357 H 0.57978 0.98603 0.33772 0.0
H358 H 0.61516 0.88713 0.48579 0.0
H359 H 0.5118 0.87773 0.85542 0.0
H360 H 0.53733 1.00795 0.44173 0.0
H361 H 0.43127 0.06336 0.07379 0.0
H362 H 0.60891 0.93482 0.37747 0.0
H363 H 0.52037 0.1258 0.60508 0.0
H364 H 0.4759 0.0453 0.97314 0.0
H365 H 0.49472 0.17863 0.56368 0.0
H366 H 0.59679 0.85766 0.62678 0.0
H367 H 0.3988 0.11263 0.03436 0.0
H368 H 0.39072 0.16091 0.92903 0.0
H369 H 0.55833 0.85396 0.76495 0.0
H370 H 0.40848 0.19273 0.79164 0.0
N371 N 0.46907 0.08246 0.86934 0.0
C372 C 0.46237 0.06649 0.95167 0.0
C373 C 0.41876 0.10479 0.98858 0.0
C374 C 0.42727 0.12268 0.90886 0.0
C375 C 0.43686 0.07694 1.01091 0.0
C376 C 0.45297 0.11089 0.85032 0.0
H377 H 0.4474 0.19975 0.65609 0.0
N378 N 0.48723 0.11633 0.71825 0.0
C379 C 0.48527 0.16472 0.62231 0.0
C380 C 0.4624 0.12842 0.77226 0.0
C381 C 0.49969 0.13476 0.64598 0.0
C382 C 0.45858 0.17653 0.67454 0.0
C383 C 0.44704 0.15856 0.75115 0.0
O384 O 0.53976 0.10829 0.78267 0.0
O385 O 0.53523 0.0266 0.69204 0.0
O386 O 0.53186 0.98191 0.7772 0.0
O387 O 0.51369 0.02652 0.86774 0.0
O388 O 0.54979 0.0725 0.65932 0.0
O389 O 0.5388 0.07028 0.88671 0.0
O390 O 0.46577 0.95172 0.63519 0.0
O391 O 0.47566 0.02893 0.72116 0.0
O392 O 0.48032 0.07291 0.6354 0.0
O393 O 0.49923 0.02893 0.54477 0.0
O394 O 0.46192 0.98273 0.75444 0.0
O395 O 0.47679 0.98388 0.51978 0.0
C396 C 0.55611 0.04197 0.64377 0.0
C397 C 0.58973 0.0949 0.84809 0.0
C398 C 0.6402 0.06338 0.82991 0.0
C399 C 0.60606 0.06458 0.84139 0.0
C400 C 0.6576 0.09305 0.81981 0.0
C401 C 0.60742 0.12419 0.83796 0.0
C402 C 0.64118 0.12319 0.82279 0.0
C403 C 0.5269 0.99663 0.86033 0.0
C404 C 0.55396 0.09634 0.85628 0.0
C405 C 0.42094 0.16993 0.80763 0.0
C406 C 0.41092 0.1519 0.88601 0.0
C407 C 0.45505 0.01311 0.76996 0.0
C408 C 0.42105 0.97079 0.54975 0.0
C409 C 0.41054 1.00253 0.52622 0.0
C410 C 0.37711 1.01057 0.52759 0.0
C411 C 0.35425 0.98697 0.55692 0.0
C412 C 0.39783 0.94735 0.57738 0.0
C413 C 0.36463 0.95556 0.58176 0.0
C414 C 0.48634 0.05895 0.55207 0.0
C415 C 0.45615 0.96262 0.55403 0.0
H416 H 0.59235 0.04188 0.84749 0.0
H417 H 0.68408 0.09323 0.81452 0.0
H418 H 0.59503 0.14779 0.84074 0.0
H419 H 0.65479 0.14586 0.81565 0.0
H420 H 0.42822 0.02105 0.50647 0.0
H421 H 0.32826 0.99249 0.55781 0.0
H422 H 0.40548 0.92287 0.59715 0.0
H423 H 0.34687 0.93743 0.60357 0.0
Tb424 Tb 0.55488 0.51327 0.63369 0.0
C425 C 0.41017 0.49332 0.73252 0.0
C426 C 0.3804 0.5236 0.61455 0.0
C427 C 0.35495 0.47651 0.68821 0.0
C428 C 0.4089 0.51866 0.66926 0.0
C429 C 0.38295 0.47236 0.7444 0.0
C430 C 0.35369 0.50209 0.62329 0.0
C431 C 0.4119 0.44653 0.87197 0.0
N432 N 0.4377 0.4899 0.7848 0.0
C433 C 0.43824 0.46785 0.85739 0.0
C434 C 0.38441 0.44831 0.81376 0.0
Tb435 Tb 0.4796 0.52658 0.75776 0.0
N436 N 0.43533 0.53879 0.66249 0.0
C437 C 0.4336 0.56584 0.60602 0.0
C438 C 0.37941 0.55023 0.55354 0.0
C439 C 0.40599 0.57164 0.55015 0.0
H440 H 0.45962 0.46597 0.90215 0.0
H441 H 0.40538 0.59256 0.50387 0.0
H442 H 0.33176 0.50534 0.58128 0.0
H443 H 0.41299 0.42855 0.92749 0.0
H444 H 0.45372 0.58264 0.59943 0.0
H445 H 0.62977 0.45344 0.90212 0.0
H446 H 0.35811 0.55474 0.50991 0.0
H447 H 0.57497 0.5693 0.47523 0.0
H448 H 0.57955 0.46545 0.82 0.0
H449 H 0.62356 0.60101 0.4293 0.0
H450 H 0.33396 0.46043 0.69549 0.0
H451 H 0.68047 0.48369 0.86582 0.0
H452 H 0.7089 0.526 0.77011 0.0
H453 H 0.3642 0.4315 0.82408 0.0
H454 H 0.70711 0.56667 0.64373 0.0
N455 N 0.60004 0.50154 0.7282 0.0
C456 C 0.60106 0.478 0.7967 0.0
C457 C 0.65829 0.4887 0.82649 0.0
C458 C 0.65773 0.51235 0.75625 0.0
C459 C 0.62982 0.47147 0.84666 0.0
C460 C 0.62802 0.51825 0.70768 0.0
H461 H 0.67553 0.59479 0.5169 0.0
N462 N 0.59835 0.54609 0.59154 0.0
C463 C 0.62487 0.58456 0.48856 0.0
C464 C 0.62703 0.54147 0.63772 0.0
C465 C 0.59729 0.5666 0.51535 0.0
C466 C 0.65411 0.58098 0.53813 0.0
C467 C 0.65562 0.55897 0.61285 0.0
O468 O 0.58331 0.50084 0.51326 0.0
O469 O 0.50175 0.51349 0.62393 0.0
O470 O 0.48395 0.47343 0.72512 0.0
O471 O 0.54033 0.46755 0.70831 0.0
O472 O 0.52688 0.53561 0.51844 0.0
O473 O 0.54807 0.46721 0.56563 0.0
O474 O 0.46426 0.52927 0.89904 0.0
O475 O 0.53303 0.53001 0.76564 0.0
O476 O 0.55027 0.56767 0.6493 0.0
O477 O 0.49643 0.57463 0.70211 0.0
O478 O 0.50898 0.50912 0.87604 0.0
O479 O 0.46195 0.57193 0.81117 0.0
C480 C 0.49803 0.52726 0.54506 0.0
C481 C 0.55015 0.47278 0.40118 0.0
C482 C 0.50805 0.44577 0.30504 0.0
C483 C 0.53097 0.44518 0.3793 0.0
C484 C 0.50682 0.47376 0.24765 0.0
C485 C 0.54953 0.49984 0.34056 0.0
C486 C 0.52816 0.50006 0.26372 0.0
C487 C 0.51081 0.45495 0.72622 0.0
C488 C 0.5664 0.47468 0.49432 0.0
C489 C 0.68498 0.55342 0.66165 0.0
C490 C 0.68602 0.53019 0.73332 0.0
C491 C 0.53715 0.51893 0.84794 0.0
C492 C 0.48106 0.57822 0.96903 0.0
C493 C 0.504 0.60196 0.9422 0.0
C494 C 0.5253 0.61596 1.00893 0.0
C495 C 0.52422 0.60537 0.10301 0.0
C496 C 0.47992 0.56816 0.06353 0.0
C497 C 0.50156 0.58162 0.12999 0.0
C498 C 0.52444 0.58674 0.66882 0.0
C499 C 0.46114 0.56098 0.89748 0.0
H500 H 0.53369 0.42362 0.42236 0.0
H501 H 0.48932 0.47553 0.19046 0.0
H502 H 0.56452 0.52135 0.35443 0.0
H503 H 0.52743 0.52112 0.21814 0.0
H504 H 0.50519 0.61003 0.86972 0.0
H505 H 0.53975 0.61659 0.15663 0.0
H506 H 0.46272 0.54945 0.08541 0.0
H507 H 0.50045 0.57406 0.20288 0.0
Tb508 Tb 0.03463 0.55153 0.65049 0.0
C509 C 0.04703 0.46214 0.96608 0.0
C510 C 0.09255 0.42536 0.93307 0.0
C511 C 0.0835 0.44573 0.09325 0.0
C512 C 0.06607 0.44472 0.90215 0.0
C513 C 0.05466 0.46136 0.06348 0.0
C514 C 0.10229 0.42738 0.02819 0.0
C515 C 1.00118 0.48368 0.0964 0.0
N516 N 0.01853 0.47545 0.93431 0.0
C517 C 0.9944 0.48295 0.9994 0.0
C518 C 0.03188 0.47389 0.12852 0.0
Tb519 Tb 0.01459 0.47868 0.76974 0.0
N520 N 0.05609 0.44363 0.81075 0.0
C521 C 0.06752 0.41936 0.75094 0.0
C522 C 0.10679 0.4029 0.86902 0.0
C523 C 0.09334 0.39898 0.77863 0.0
H524 H 0.96952 0.48824 0.97878 0.0
H525 H 0.10303 0.38053 0.73003 0.0
H526 H 0.12312 0.41341 0.0531 0.0
H527 H 0.98241 0.49118 0.14644 0.0
H528 H 0.05697 0.4162 0.68159 0.0
H529 H 0.06072 0.64186 0.92815 0.0
H530 H 0.12692 0.38725 0.8902 0.0
H531 H 0.99956 0.5652 0.43941 0.0
H532 H 0.07027 0.59174 0.83532 0.0
H533 H 0.9606 0.60449 0.37283 0.0
H534 H 0.0902 0.44583 0.16728 0.0
H535 H 0.01532 0.67926 0.88747 0.0
H536 H 0.9707 0.69424 0.77441 0.0
H537 H 0.0368 0.47379 0.20383 0.0
H538 H 0.94321 0.684 0.62208 0.0
N539 N 0.02907 0.59832 0.7436 0.0
C540 C 0.04983 0.60691 0.81609 0.0
C541 C 0.0191 0.65685 0.84619 0.0
C542 C 0.99973 0.64954 0.76715 0.0
C543 C 0.04477 0.63583 0.86923 0.0
C544 C 1.00571 0.62 0.71576 0.0
H545 H 0.93997 0.65109 0.4706 0.0
N546 N 0.99948 0.58749 0.57767 0.0
C547 C 0.96838 0.60729 0.44569 0.0
C548 C 0.99041 0.61443 0.62975 0.0
C549 C 0.99043 0.58486 0.48431 0.0
C550 C 0.95676 0.63354 0.50113 0.0
C551 C 0.96848 0.63793 0.59342 0.0
O552 O 0.0611 0.591 0.59254 0.0
O553 O 0.03526 0.49794 0.64311 0.0
O554 O 0.06855 0.48513 0.74917 0.0
O555 O 0.07074 0.54109 0.76193 0.0
O556 O 0.02387 0.52157 0.52172 0.0
O557 O 0.08018 0.54208 0.58724 0.0
O558 O 0.99303 0.43506 0.81572 0.0
O559 O 0.02177 0.53178 0.78631 0.0
O560 O 0.98122 0.54525 0.6318 0.0
O561 O 0.97003 0.49264 0.68867 0.0
O562 O 0.98006 0.51306 0.84054 0.0
O563 O 0.99621 0.44513 0.66735 0.0
C564 C 0.02737 0.49291 0.55739 0.0
C565 C 0.09289 0.57515 0.45894 0.0
C566 C 0.12503 0.55404 0.32653 0.0
C567 C 0.11518 0.55244 0.42081 0.0
C568 C 0.11349 0.57975 0.27046 0.0
C569 C 0.0807 0.60038 0.40199 0.0
C570 C 0.09121 0.60271 0.30813 0.0
C571 C 0.08524 0.51225 0.77045 0.0
C572 C 0.08384 0.57192 0.55879 0.0
C573 C 0.96036 0.66593 0.6482 0.0
C574 C 0.97599 0.67174 0.73497 0.0
C575 C 0.99649 0.53989 0.83289 0.0
C576 C 0.95189 0.41266 0.71791 0.0
C577 C 0.92642 0.42447 0.77562 0.0
C578 C 0.89506 0.41062 0.76944 0.0
C579 C 0.88894 0.38538 0.70276 0.0
C580 C 0.94564 0.38744 0.65144 0.0
C581 C 0.9142 0.37395 0.64374 0.0
C582 C 0.9613 0.51984 0.64339 0.0
C583 C 0.98535 0.42511 0.73056 0.0
H584 H 0.12558 0.53373 0.46571 0.0
H585 H 0.12176 0.58207 0.19808 0.0
H586 H 0.0635 0.61841 0.42997 0.0
H587 H 0.08227 0.62247 0.26479 0.0
H588 H 0.93114 0.44403 0.82702 0.0
H589 H 0.86494 0.37411 0.69776 0.0
H590 H 0.96512 0.378 0.60633 0.0
H591 H 0.90949 0.35438 0.59269 0.0
C592 C 0.1124 0.07721 0.41699 0.0
C593 C 0.11675 0.05508 0.33976 0.0
C594 C 0.0896 0.07105 0.48999 0.0
C595 C 0.06937 0.0429 0.48832 0.0
H596 H 0.12741 0.09913 0.42249 0.0
H597 H 0.08798 0.08843 0.54879 0.0
S598 S 0.07015 0.97773 0.30053 0.0
N599 N 0.0981 1.00424 0.26548 0.0
N600 N 0.05551 0.99279 0.40127 0.0
C601 C 0.07299 0.02101 0.41039 0.0
C602 C 0.09655 0.02703 0.3368 0.0
C603 C 0.49913 0.10033 0.31174 0.0
C604 C 0.47326 0.12339 0.30822 0.0
C605 C 0.50245 0.07847 0.38827 0.0
C606 C 0.48032 0.07902 0.46522 0.0
H607 H 0.51695 0.09915 0.25492 0.0
H608 H 0.52321 0.06187 0.38859 0.0
S609 S 0.40855 0.13479 0.49092 0.0
N610 N 0.42531 0.1453 0.3897 0.0
N611 N 0.4314 0.10456 0.53101 0.0
C612 C 0.45429 0.10176 0.46165 0.0
C613 C 0.45081 0.12378 0.38412 0.0
C614 C 0.4451 0.53751 0.32397 0.0
C615 C 0.42381 0.51031 0.32511 0.0
C616 C 0.46852 0.54278 0.39613 0.0
C617 C 0.47134 0.52144 0.47352 0.0
H618 H 0.44415 0.55443 0.26575 0.0
H619 H 0.48474 0.56377 0.39106 0.0
S620 S 0.41934 0.44812 0.51343 0.0
N621 N 0.40555 0.46305 0.41329 0.0
N622 N 0.45015 0.47207 0.54609 0.0
C623 C 0.44989 0.49435 0.47577 0.0
C624 C 0.42596 0.48912 0.40265 0.0
C625 C 0.0595 0.41306 0.44027 0.0
C626 C 0.03605 0.40574 0.3693 0.0
C627 C 0.05614 0.44046 0.50281 0.0
C628 C 0.0289 0.46165 0.4986 0.0
H629 H 0.08117 0.3978 0.44622 0.0
H630 H 0.07576 0.44587 0.55217 0.0
S631 S 0.9604 0.4541 0.32695 0.0
N632 N 0.98443 0.42254 0.29977 0.0
N633 N 0.97816 0.47362 0.4166 0.0
C634 C 1.00514 0.45454 0.42878 0.0
C635 C 1.0085 0.42661 0.36517 0.0
C636 C 0.90063 0.96798 1.00644 0.0
C637 C 0.90795 0.97748 0.10059 0.0
C638 C 0.92397 0.97023 0.93305 0.0
C639 C 0.9557 0.98319 0.94826 0.0
H640 H 0.87618 0.95982 0.98788 0.0
H641 H 0.91658 0.96235 0.86287 0.0
S642 S 0.9904 1.00328 0.18559 0.0
N643 N 0.95174 0.99415 0.20754 0.0
N644 N 0.99498 0.99903 0.07001 0.0
C645 C 0.96434 0.98986 0.04348 0.0
C646 C 0.94064 0.98716 0.11891 0.0
C647 C 0.56842 0.94282 0.04635 0.0
C648 C 0.54236 0.93381 0.10736 0.0
C649 C 0.56356 0.96339 0.96773 0.0
C650 C 0.53271 0.97718 0.94803 0.0
H651 H 0.59295 0.93361 0.05805 0.0
H652 H 0.58415 0.96847 0.92182 0.0
S653 S 0.45597 0.96248 0.08125 0.0
N654 N 0.48371 0.94049 0.13673 0.0
N655 N 0.47585 0.98077 0.99526 0.0
C656 C 0.50678 0.96956 1.00928 0.0
C657 C 0.51128 0.94771 0.08724 0.0
C658 C 0.59022 0.50848 0.06614 0.0
C659 C 0.61793 0.5286 0.05175 0.0
C660 C 0.56451 0.50648 1.00061 0.0
C661 C 0.56445 0.525 0.91744 0.0
H662 H 0.58868 0.49314 0.12783 0.0
H663 H 0.5448 0.48935 1.01436 0.0
S664 S 0.62632 0.58799 0.85584 0.0
N665 N 0.64121 0.57104 0.95223 0.0
N666 N 0.591 0.56945 0.83412 0.0
C667 C 0.58994 0.54804 0.90663 0.0
C668 C 0.61702 0.54933 0.97234 0.0
C669 C 0.97037 0.6138 0.98902 0.0
C670 C 0.995 0.61559 0.05951 0.0
C671 C 0.97054 0.58905 0.91712 0.0
C672 C 0.99581 0.56548 0.91066 0.0
H673 H 0.95142 0.63243 0.98672 0.0
H674 H 0.95141 0.58915 0.86404 0.0
S675 S 0.06353 0.55557 0.08225 0.0
N676 N 0.04281 0.58767 0.12355 0.0
N677 N 0.04456 0.54375 0.9846 0.0
C678 C 0.01971 0.566 0.98217 0.0
C679 C 0.01901 0.59037 0.05705 0.0
C680 C 0.09201 0.18683 0.50305 0.0
C681 C 0.09328 0.18594 0.40364 0.0
C682 C 0.06795 0.16924 0.5515 0.0
C683 C 0.0447 0.15012 0.50189 0.0
H684 H 0.10696 0.20428 0.54252 0.0
H685 H 0.06569 0.17297 0.6272 0.0
S686 S 0.04243 0.13413 0.24319 0.0
N687 N 0.07332 0.15974 0.25896 0.0
N688 N 0.02804 0.12694 0.34978 0.0
C689 C 0.04886 0.1453 0.40398 0.0
C690 C 0.07342 0.16304 0.35484 0.0
C691 C 0.32513 0.08657 0.49605 0.0
C692 C 0.33066 0.09382 0.4002 0.0
C693 C 0.34144 0.06049 0.53903 0.0
C694 C 0.36553 0.04229 0.49015 0.0
H695 H 0.30561 0.09878 0.53511 0.0
H696 H 0.33398 0.05345 0.60939 0.0
S697 S 0.39528 0.05639 0.2467 0.0
N698 N 0.36576 0.08365 0.2628 0.0
N699 N 0.39809 0.03657 0.347 0.0
C700 C 0.37469 0.05231 0.39939 0.0
C701 C 0.35716 0.07794 0.35394 0.0
C702 C 0.46065 0.37989 0.16976 0.0
C703 C 0.44972 0.35892 0.2412 0.0
C704 C 0.47859 0.40825 0.19152 0.0
C705 C 0.48617 0.41704 0.28576 0.0
H706 H 0.45724 0.37326 0.09585 0.0
H707 H 0.48799 0.42233 0.13315 0.0
S708 S 0.46013 0.3714 0.49946 0.0
N709 N 0.44542 0.34959 0.40965 0.0
N710 N 0.47875 0.40317 0.45201 0.0
C711 C 0.47379 0.39699 0.35836 0.0
C712 C 0.45561 0.36795 0.33574 0.0
C713 C 0.20606 0.52147 0.24003 0.0
C714 C 0.20365 0.48756 0.25706 0.0
C715 C 0.17956 0.54255 0.25626 0.0
C716 C 0.14996 0.53047 0.29199 0.0
H717 H 0.22875 0.53193 0.2149 0.0
H718 H 0.18281 0.56866 0.2452 0.0
S719 S 0.13169 0.44382 0.35028 0.0
N720 N 0.16973 0.44273 0.31042 0.0
N721 N 0.11954 0.48248 0.34356 0.0
C722 C 0.14706 0.49647 0.30806 0.0
C723 C 0.17403 0.47495 0.29007 0.0
C724 C 0.97694 0.81443 0.81107 0.0
C725 C 0.96218 0.81782 0.90077 0.0
C726 C 0.99839 0.83881 0.77945 0.0
C727 C 1.00387 0.86741 0.83482 0.0
H728 H 0.97786 0.79045 0.77636 0.0
H729 H 0.01419 0.8331 0.71971 0.0
S730 S 0.95517 0.89458 0.04375 0.0
N731 N 0.94252 0.85677 0.02007 0.0
N732 N 0.9825 0.90287 0.96135 0.0
C733 C 0.98167 0.8746 0.9086 0.0
C734 C 0.95998 0.84969 0.94029 0.0
C735 C 0.6718 0.9936 0.97112 0.0
C736 C 0.70429 0.9917 0.93816 0.0
C737 C 0.64912 0.01393 0.92712 0.0
C738 C 0.65817 0.03243 0.848 0.0
H739 H 0.66511 0.98371 0.03912 0.0
H740 H 0.62603 0.0183 0.96311 0.0
S741 S 0.7351 0.02301 0.71043 0.0
N742 N 0.74076 1.00033 0.80491 0.0
N743 N 0.69777 0.03853 0.72063 0.0
C744 C 0.68814 0.025 0.80331 0.0
C745 C 0.71127 1.00427 0.84846 0.0
C746 C 0.53868 0.7044 0.95882 0.0
C747 C 0.56797 0.71046 1.00916 0.0
C748 C 0.52681 0.67243 0.94722 0.0
C749 C 0.54392 0.64575 0.98521 0.0
H750 H 0.52213 0.72415 0.941 0.0
H751 H 0.5022 0.66928 0.91976 0.0
S752 S 0.62879 0.64732 0.07729 0.0
N753 N 0.61978 0.68635 0.05894 0.0
N754 N 0.59589 0.62613 0.04595 0.0
C755 C 0.57608 0.65083 1.01683 0.0
C756 C 0.58874 0.68336 0.02497 0.0
C757 C 0.85498 0.43162 1.00326 0.0
C758 C 0.82408 0.4437 0.97685 0.0
C759 C 0.87745 0.42054 0.93538 0.0
C760 C 0.86987 0.42108 0.83853 0.0
H761 H 0.86217 0.43136 0.07698 0.0
H762 H 0.90109 0.41164 0.95885 0.0
S763 S 0.79234 0.45005 0.73194 0.0
N764 N 0.78677 0.45505 0.84709 0.0
N765 N 0.8296 0.4346 0.71887 0.0
C766 C 0.83903 0.43277 0.81075 0.0
C767 C 0.81603 0.44412 0.88009 0.0
C768 C 0.03824 0.14741 0.83353 0.0
C769 C 0.02441 0.15901 0.9203 0.0
C770 C 0.03048 0.11623 0.79325 0.0
C771 C 1.00778 0.09516 0.83608 0.0
H772 H 0.0551 0.16265 0.79486 0.0
H773 H 0.04179 0.10895 0.72674 0.0
S774 S 0.96524 0.11106 0.0642 0.0
N775 N 0.98802 0.14415 0.04969 0.0
N776 N 0.97156 0.08755 0.96958 0.0
C777 C 0.99321 0.10629 0.92112 0.0
C778 C 1.00198 0.13747 0.96426 0.0
C779 C 0.37693 1.0111 0.92198 0.0
C780 C 0.35844 0.03874 0.89484 0.0
C781 C 0.40768 1.00355 0.88079 0.0
C782 C 0.42236 0.02354 0.81192 0.0
H783 H 0.36735 0.99461 0.97456 0.0
H784 H 0.41995 0.98139 0.90277 0.0
S785 S 0.38333 0.09716 0.70888 0.0
N786 N 0.35715 0.0857 0.7908 0.0
N787 N 0.41365 0.07019 0.71044 0.0
C788 C 0.40362 0.05043 0.78099 0.0
C789 C 0.37227 0.05839 0.82341 0.0
C790 C 0.47115 0.37203 0.78823 0.0
C791 C 0.49753 0.35243 0.8191 0.0
C792 C 0.47596 0.40419 0.75453 0.0
C793 C 0.50731 0.41887 0.75083 0.0
H794 H 0.44632 0.36274 0.7921 0.0
H795 H 0.45464 0.4177 0.73145 0.0
S796 S 0.58538 0.37559 0.80542 0.0
N797 N 0.5567 0.34861 0.83176 0.0
N798 N 0.56578 0.40836 0.76744 0.0
C799 C 0.53412 0.39858 0.77519 0.0
C800 C 0.52921 0.36581 0.81015 0.0
C801 C 0.16781 0.53451 0.88684 0.0
C802 C 0.18903 0.50831 0.86022 0.0
C803 C 0.13466 0.53564 0.85749 0.0
C804 C 0.12078 0.51069 0.79971 0.0
H805 H 0.17682 0.55466 0.93056 0.0
H806 H 0.11969 0.5562 0.8813 0.0
S807 S 0.16513 0.43761 0.70355 0.0
N808 N 0.19252 0.45657 0.77065 0.0
N809 N 0.13164 0.46034 0.71072 0.0
C810 C 0.14167 0.48486 0.77033 0.0
C811 C 0.17527 0.4833 0.80142 0.0
C812 C 0.98164 0.88448 0.58179 0.0
C813 C 1.00368 0.8685 0.51876 0.0
C814 C 0.98918 0.9155 0.62463 0.0
C815 C 0.01843 0.93243 0.60298 0.0
H816 H 0.95867 0.8727 0.59924 0.0
H817 H 0.97214 0.92612 0.67539 0.0
S818 S 0.08427 0.90093 0.44323 0.0
N819 N 0.05611 0.87181 0.43919 0.0
N820 N 0.06975 0.92973 0.51567 0.0
C821 C 0.04047 0.91642 0.54029 0.0
C822 C 0.03315 0.8848 0.49879 0.0
C823 C 0.63243 0.04175 0.48667 0.0
C824 C 0.65247 0.01623 0.52102 0.0
C825 C 0.60119 0.04868 0.525 0.0
C826 C 0.58788 0.03039 0.59948 0.0
H827 H 0.64115 0.05697 0.42981 0.0
H828 H 0.58738 0.06901 0.49644 0.0
S829 S 0.62999 0.96127 0.71801 0.0
N830 N 0.65614 0.97233 0.63507 0.0
N831 N 0.59801 0.98599 0.70857 0.0
C832 C 0.60735 1.00454 0.63445 0.0
C833 C 0.63927 0.99721 0.59459 0.0
C834 C 0.55459 0.66959 0.56891 0.0
C835 C 0.5272 0.69068 0.5779 0.0
C836 C 0.55409 0.63695 0.60262 0.0
C837 C 0.52605 0.62323 0.64582 0.0
H838 H 0.5763 0.6779 0.53221 0.0
H839 H 0.57586 0.62225 0.59283 0.0
S840 S 0.45016 0.67038 0.7049 0.0
N841 N 0.47303 0.69691 0.64745 0.0
N842 N 0.47175 0.63606 0.70814 0.0
C843 C 0.49937 0.64498 0.66138 0.0
C844 C 0.49999 0.67831 0.62789 0.0
C845 C 0.88119 0.55642 0.54574 0.0
C846 C 0.86349 0.52859 0.51429 0.0
C847 C 0.91237 0.55332 0.58865 0.0
C848 C 0.92736 0.52228 0.6016 0.0
H849 H 0.87079 0.58074 0.53764 0.0
H850 H 0.92476 0.57552 0.61227 0.0
S851 S 0.89255 0.4423 0.52029 0.0
N852 N 0.86405 0.46936 0.4932 0.0
N853 N 0.92239 0.46346 0.57147 0.0
C854 C 0.90997 0.49442 0.56856 0.0
C855 C 0.87824 0.49761 0.52549 0.0
loop_
_geom_bond_atom_site_label_1
_geom_bond_atom_site_label_2
_geom_bond_distance
_geom_bond_site_symmetry_2
_ccdc_geom_bond_type
P0 O11 1.490 . S
P0 C14 1.812 . S
P0 C20 1.803 . S
P0 C26 1.819 . S
H1 C15 0.941 . S
H2 C16 0.939 . S
H3 C18 0.940 . S
H4 C19 0.940 . S
H5 C21 0.939 . S
H6 C22 0.942 . S
H7 C24 0.940 . S
H8 C25 0.939 . S
H9 C27 0.941 . S
H10 C31 0.939 . S
O11 P0 1.490 . S
H12 C28 0.939 . S
H13 C30 0.940 . S
C14 P0 1.812 . S
C14 C15 1.389 . S
C14 C19 1.391 . S
C15 H1 0.941 . S
C15 C14 1.389 . S
C15 C16 1.397 . S
C16 H2 0.939 . S
C16 C15 1.397 . S
C16 C17 1.378 . S
C17 C16 1.378 . S
C17 C18 1.378 . S
C18 H3 0.940 . S
C18 C17 1.378 . S
C18 C19 1.396 . S
C19 H4 0.940 . S
C19 C14 1.391 . S
C19 C18 1.396 . S
C20 P0 1.803 . S
C20 C21 1.378 . S
C20 C25 1.400 . S
C21 H5 0.939 . S
C21 C20 1.378 . S
C21 C22 1.361 . S
C22 H6 0.942 . S
C22 C21 1.361 . S
C22 C23 1.369 . S
C23 C22 1.369 . S
C23 C24 1.404 . S
C24 H7 0.940 . S
C24 C23 1.404 . S
C24 C25 1.389 . S
C25 H8 0.939 . S
C25 C20 1.400 . S
C25 C24 1.389 . S
C26 P0 1.819 . S
C26 C27 1.391 . S
C26 C31 1.391 . S
C27 H9 0.941 . S
C27 C26 1.391 . S
C27 C28 1.396 . S
C28 H12 0.939 . S
C28 C27 1.396 . S
C28 C29 1.397 . S
C29 C28 1.397 . S
C29 C30 1.385 . S
C30 H13 0.940 . S
C30 C29 1.385 . S
C30 C31 1.388 . S
C31 H10 0.939 . S
C31 C26 1.391 . S
C31 C30 1.388 . S
P32 O43 1.490 1_655 S
P32 C46 1.812 . S
P32 C52 1.803 . S
P32 C58 1.819 . S
H33 C47 0.941 1_455 S
H34 C48 0.939 . S
H35 C50 0.940 . S
H36 C51 0.940 . S
H37 C53 0.939 1_455 S
H38 C54 0.942 . S
H39 C56 0.940 . S
H40 C57 0.939 . S
H41 C59 0.941 1_455 S
H42 C63 0.939 . S
O43 P32 1.490 1_455 S
H44 C60 0.939 . S
H45 C62 0.940 . S
C46 P32 1.812 . S
C46 C47 1.389 . S
C46 C51 1.391 . S
C47 H33 0.941 1_655 S
C47 C46 1.389 . S
C47 C48 1.397 . S
C48 H34 0.939 . S
C48 C47 1.397 . S
C48 C49 1.378 . S
C49 C48 1.378 . S
C49 C50 1.378 . S
C50 H35 0.940 . S
C50 C49 1.378 . S
C50 C51 1.396 . S
C51 H36 0.940 . S
C51 C46 1.391 . S
C51 C50 1.396 . S
C52 P32 1.803 . S
C52 C53 1.378 . S
C52 C57 1.400 . S
C53 H37 0.939 1_655 S
C53 C52 1.378 . S
C53 C54 1.361 . S
C54 H38 0.942 . S
C54 C53 1.361 . S
C54 C55 1.369 . S
C55 C54 1.369 . S
C55 C56 1.404 . S
C56 H39 0.940 . S
C56 C55 1.404 . S
C56 C57 1.389 . S
C57 H40 0.939 . S
C57 C52 1.400 . S
C57 C56 1.389 . S
C58 P32 1.819 . S
C58 C59 1.391 . S
C58 C63 1.391 . S
C59 H41 0.941 1_655 S
C59 C58 1.391 . S
C59 C60 1.396 . S
C60 H44 0.939 . S
C60 C59 1.396 . S
C60 C61 1.397 . S
C61 C60 1.397 . S
C61 C62 1.385 . S
C62 H45 0.940 . S
C62 C61 1.385 . S
C62 C63 1.388 . S
C63 H42 0.939 . S
C63 C58 1.391 . S
C63 C62 1.388 . S
P64 O75 1.490 . S
P64 C78 1.812 1_545 S
P64 C84 1.803 1_545 S
P64 C90 1.819 1_545 S
H65 C79 0.941 . S
H66 C80 0.939 1_545 S
H67 C82 0.940 . S
H68 C83 0.940 . S
H69 C85 0.939 . S
H70 C86 0.942 1_545 S
H71 C88 0.940 . S
H72 C89 0.939 . S
H73 C91 0.941 1_545 S
H74 C95 0.939 . S
O75 P64 1.490 . S
H76 C92 0.939 . S
H77 C94 0.940 . S
C78 P64 1.812 1_565 S
C78 C79 1.389 1_565 S
C78 C83 1.391 . S
C79 H65 0.941 . S
C79 C78 1.389 1_545 S
C79 C80 1.397 1_545 S
C80 H66 0.939 1_565 S
C80 C79 1.397 1_565 S
C80 C81 1.378 . S
C81 C80 1.378 . S
C81 C82 1.378 . S
C82 H67 0.940 . S
C82 C81 1.378 . S
C82 C83 1.396 . S
C83 H68 0.940 . S
C83 C78 1.391 . S
C83 C82 1.396 . S
C84 P64 1.803 1_565 S
C84 C85 1.378 1_565 S
C84 C89 1.400 . S
C85 H69 0.939 . S
C85 C84 1.378 1_545 S
C85 C86 1.361 1_545 S
C86 H70 0.942 1_565 S
C86 C85 1.361 1_565 S
C86 C87 1.369 . S
C87 C86 1.369 . S
C87 C88 1.404 . S
C88 H71 0.940 . S
C88 C87 1.404 . S
C88 C89 1.389 . S
C89 H72 0.939 . S
C89 C84 1.400 . S
C89 C88 1.389 . S
C90 P64 1.819 1_565 S
C90 C91 1.391 . S
C90 C95 1.391 . S
C91 H73 0.941 1_565 S
C91 C90 1.391 . S
C91 C92 1.396 . S
C92 H76 0.939 . S
C92 C91 1.396 . S
C92 C93 1.397 . S
C93 C92 1.397 . S
C93 C94 1.385 . S
C94 H77 0.940 . S
C94 C93 1.385 . S
C94 C95 1.388 . S
C95 H74 0.939 . S
C95 C90 1.391 . S
C95 C94 1.388 . S
P96 O107 1.490 . S
P96 C110 1.812 . S
P96 C116 1.803 . S
P96 C122 1.819 . S
H97 C111 0.941 . S
H98 C112 0.939 . S
H99 C114 0.940 . S
H100 C115 0.940 . S
H101 C117 0.939 . S
H102 C118 0.942 . S
H103 C120 0.940 . S
H104 C121 0.939 . S
H105 C123 0.941 . S
H106 C127 0.939 . S
O107 P96 1.490 . S
H108 C124 0.939 . S
H109 C126 0.940 . S
C110 P96 1.812 . S
C110 C111 1.389 . S
C110 C115 1.391 . S
C111 H97 0.941 . S
C111 C110 1.389 . S
C111 C112 1.397 . S
C112 H98 0.939 . S
C112 C111 1.397 . S
C112 C113 1.378 . S
C113 C112 1.378 . S
C113 C114 1.378 . S
C114 H99 0.940 . S
C114 C113 1.378 . S
C114 C115 1.396 . S
C115 H100 0.940 . S
C115 C110 1.391 . S
C115 C114 1.396 . S
C116 P96 1.803 . S
C116 C117 1.378 . S
C116 C121 1.400 . S
C117 H101 0.939 . S
C117 C116 1.378 . S
C117 C118 1.361 . S
C118 H102 0.942 . S
C118 C117 1.361 . S
C118 C119 1.369 . S
C119 C118 1.369 . S
C119 C120 1.404 . S
C120 H103 0.940 . S
C120 C119 1.404 . S
C120 C121 1.389 . S
C121 H104 0.939 . S
C121 C116 1.400 . S
C121 C120 1.389 . S
C122 P96 1.819 . S
C122 C123 1.391 . S
C122 C127 1.391 . S
C123 H105 0.941 . S
C123 C122 1.391 . S
C123 C124 1.396 . S
C124 H108 0.939 . S
C124 C123 1.396 . S
C124 C125 1.397 . S
C125 C124 1.397 . S
C125 C126 1.385 . S
C126 H109 0.940 . S
C126 C125 1.385 . S
C126 C127 1.388 . S
C127 H106 0.939 . S
C127 C122 1.391 . S
C127 C126 1.388 . S
P128 O139 1.490 . S
P128 C142 1.812 1_554 S
P128 C148 1.803 . S
P128 C154 1.819 . S
H129 C143 0.941 . S
H130 C144 0.939 . S
H131 C146 0.940 . S
H132 C147 0.940 . S
H133 C149 0.939 . S
H134 C150 0.942 . S
H135 C152 0.940 . S
H136 C153 0.939 1_556 S
H137 C155 0.941 . S
H138 C159 0.939 . S
O139 P128 1.490 . S
H140 C156 0.939 . S
H141 C158 0.940 . S
C142 P128 1.812 1_556 S
C142 C143 1.389 . S
C142 C147 1.391 . S
C143 H129 0.941 . S
C143 C142 1.389 . S
C143 C144 1.397 . S
C144 H130 0.939 . S
C144 C143 1.397 . S
C144 C145 1.378 . S
C145 C144 1.378 . S
C145 C146 1.378 . S
C146 H131 0.940 . S
C146 C145 1.378 . S
C146 C147 1.396 . S
C147 H132 0.940 . S
C147 C142 1.391 . S
C147 C146 1.396 . S
C148 P128 1.803 . S
C148 C149 1.378 . S
C148 C153 1.400 . S
C149 H133 0.939 . S
C149 C148 1.378 . S
C149 C150 1.361 . S
C150 H134 0.942 . S
C150 C149 1.361 . S
C150 C151 1.369 . S
C151 C150 1.369 . S
C151 C152 1.404 . S
C152 H135 0.940 . S
C152 C151 1.404 . S
C152 C153 1.389 . S
C153 H136 0.939 1_554 S
C153 C148 1.400 . S
C153 C152 1.389 . S
C154 P128 1.819 . S
C154 C155 1.391 . S
C154 C159 1.391 . S
C155 H137 0.941 . S
C155 C154 1.391 . S
C155 C156 1.396 . S
C156 H140 0.939 . S
C156 C155 1.396 . S
C156 C157 1.397 . S
C157 C156 1.397 . S
C157 C158 1.385 . S
C158 H141 0.940 . S
C158 C157 1.385 . S
C158 C159 1.388 . S
C159 H138 0.939 . S
C159 C154 1.391 . S
C159 C158 1.388 . S
P160 O171 1.490 . S
P160 C174 1.812 1_554 S
P160 C180 1.803 . S
P160 C186 1.819 . S
H161 C175 0.941 . S
H162 C176 0.939 . S
H163 C178 0.940 . S
H164 C179 0.940 . S
H165 C181 0.939 . S
H166 C182 0.942 . S
H167 C184 0.940 . S
H168 C185 0.939 1_556 S
H169 C187 0.941 . S
H170 C191 0.939 . S
O171 P160 1.490 . S
H172 C188 0.939 . S
H173 C190 0.940 . S
C174 P160 1.812 1_556 S
C174 C175 1.389 . S
C174 C179 1.391 . S
C175 H161 0.941 . S
C175 C174 1.389 . S
C175 C176 1.397 . S
C176 H162 0.939 . S
C176 C175 1.397 . S
C176 C177 1.378 . S
C177 C176 1.378 . S
C177 C178 1.378 . S
C178 H163 0.940 . S
C178 C177 1.378 . S
C178 C179 1.396 . S
C179 H164 0.940 . S
C179 C174 1.391 . S
C179 C178 1.396 . S
C180 P160 1.803 . S
C180 C181 1.378 . S
C180 C185 1.400 . S
C181 H165 0.939 . S
C181 C180 1.378 . S
C181 C182 1.361 . S
C182 H166 0.942 . S
C182 C181 1.361 . S
C182 C183 1.369 . S
C183 C182 1.369 . S
C183 C184 1.404 . S
C184 H167 0.940 . S
C184 C183 1.404 . S
C184 C185 1.389 . S
C185 H168 0.939 1_554 S
C185 C180 1.400 . S
C185 C184 1.389 . S
C186 P160 1.819 . S
C186 C187 1.391 . S
C186 C191 1.391 . S
C187 H169 0.941 . S
C187 C186 1.391 . S
C187 C188 1.396 . S
C188 H172 0.939 . S
C188 C187 1.396 . S
C188 C189 1.397 . S
C189 C188 1.397 . S
C189 C190 1.385 . S
C190 H173 0.940 . S
C190 C189 1.385 . S
C190 C191 1.388 . S
C191 H170 0.939 . S
C191 C186 1.391 . S
C191 C190 1.388 . S
P192 O203 1.490 . S
P192 C206 1.812 1_554 S
P192 C212 1.803 . S
P192 C218 1.819 . S
H193 C207 0.941 . S
H194 C208 0.939 . S
H195 C210 0.940 . S
H196 C211 0.940 . S
H197 C213 0.939 . S
H198 C214 0.942 . S
H199 C216 0.940 . S
H200 C217 0.939 1_556 S
H201 C219 0.941 . S
H202 C223 0.939 . S
O203 P192 1.490 . S
H204 C220 0.939 . S
H205 C222 0.940 . S
C206 P192 1.812 1_556 S
C206 C207 1.389 . S
C206 C211 1.391 . S
C207 H193 0.941 . S
C207 C206 1.389 . S
C207 C208 1.397 . S
C208 H194 0.939 . S
C208 C207 1.397 . S
C208 C209 1.378 . S
C209 C208 1.378 . S
C209 C210 1.378 . S
C210 H195 0.940 . S
C210 C209 1.378 . S
C210 C211 1.396 . S
C211 H196 0.940 . S
C211 C206 1.391 . S
C211 C210 1.396 . S
C212 P192 1.803 . S
C212 C213 1.378 . S
C212 C217 1.400 . S
C213 H197 0.939 . S
C213 C212 1.378 . S
C213 C214 1.361 . S
C214 H198 0.942 . S
C214 C213 1.361 . S
C214 C215 1.369 . S
C215 C214 1.369 . S
C215 C216 1.404 . S
C216 H199 0.940 . S
C216 C215 1.404 . S
C216 C217 1.389 . S
C217 H200 0.939 1_554 S
C217 C212 1.400 . S
C217 C216 1.389 . S
C218 P192 1.819 . S
C218 C219 1.391 . S
C218 C223 1.391 . S
C219 H201 0.941 . S
C219 C218 1.391 . S
C219 C220 1.396 . S
C220 H204 0.939 . S
C220 C219 1.396 . S
C220 C221 1.397 . S
C221 C220 1.397 . S
C221 C222 1.385 . S
C222 H205 0.940 . S
C222 C221 1.385 . S
C222 C223 1.388 . S
C223 H202 0.939 . S
C223 C218 1.391 . S
C223 C222 1.388 . S
P224 O235 1.490 . S
P224 C238 1.812 1_554 S
P224 C244 1.803 . S
P224 C250 1.819 . S
H225 C239 0.941 . S
H226 C240 0.939 . S
H227 C242 0.940 . S
H228 C243 0.940 . S
H229 C245 0.939 . S
H230 C246 0.942 . S
H231 C248 0.940 . S
H232 C249 0.939 1_556 S
H233 C251 0.941 . S
H234 C255 0.939 . S
O235 P224 1.490 . S
H236 C252 0.939 . S
H237 C254 0.940 . S
C238 P224 1.812 1_556 S
C238 C239 1.389 . S
C238 C243 1.391 . S
C239 H225 0.941 . S
C239 C238 1.389 . S
C239 C240 1.397 . S
C240 H226 0.939 . S
C240 C239 1.397 . S
C240 C241 1.378 . S
C241 C240 1.378 . S
C241 C242 1.378 . S
C242 H227 0.940 . S
C242 C241 1.378 . S
C242 C243 1.396 . S
C243 H228 0.940 . S
C243 C238 1.391 . S
C243 C242 1.396 . S
C244 P224 1.803 . S
C244 C245 1.378 . S
C244 C249 1.400 . S
C245 H229 0.939 . S
C245 C244 1.378 . S
C245 C246 1.361 . S
C246 H230 0.942 . S
C246 C245 1.361 . S
C246 C247 1.369 . S
C247 C246 1.369 . S
C247 C248 1.404 . S
C248 H231 0.940 . S
C248 C247 1.404 . S
C248 C249 1.389 . S
C249 H232 0.939 1_554 S
C249 C244 1.400 . S
C249 C248 1.389 . S
C250 P224 1.819 . S
C250 C251 1.391 . S
C250 C255 1.391 . S
C251 H233 0.941 . S
C251 C250 1.391 . S
C251 C252 1.396 . S
C252 H236 0.939 . S
C252 C251 1.396 . S
C252 C253 1.397 . S
C253 C252 1.397 . S
C253 C254 1.385 . S
C254 H237 0.940 . S
C254 C253 1.385 . S
C254 C255 1.388 . S
C255 H234 0.939 . S
C255 C250 1.391 . S
C255 C254 1.388 . S
Tb256 N287 2.660 1_565 S
Tb256 N294 2.600 . S
Tb256 O300 2.546 . S
Tb256 O301 2.610 1_455 S
Tb256 O303 2.320 1_455 S
Tb256 O304 2.552 . S
Tb256 O305 2.413 . S
Tb256 O307 2.362 1_565 S
Tb256 O308 2.421 . S
Tb256 C320 2.833 . S
C257 C260 1.436 . S
C257 C261 1.416 . S
C257 N264 1.354 1_565 S
C258 C260 1.417 . S
C258 C262 1.432 . S
C258 C270 1.410 . S
C259 C261 1.444 . S
C259 C262 1.317 . S
C259 H282 0.929 . S
C260 C257 1.436 . S
C260 C258 1.417 . S
C260 N268 1.360 . S
C261 C257 1.416 . S
C261 C259 1.444 . S
C261 C266 1.385 1_565 S
C262 C258 1.432 . S
C262 C259 1.317 . S
C262 H274 0.930 . S
C263 C265 1.392 . S
C263 C266 1.370 . S
C263 H275 0.931 . S
N264 C257 1.354 1_545 S
N264 C265 1.327 . S
N264 Tb267 2.600 . S
C265 C263 1.392 . S
C265 N264 1.327 . S
C265 H272 0.930 . S
C266 C261 1.385 1_545 S
C266 C263 1.370 . S
C266 H285 0.930 . S
Tb267 N264 2.600 . S
Tb267 N268 2.660 1_545 S
Tb267 O301 2.362 1_545 S
Tb267 O302 2.421 . S
Tb267 O306 2.546 . S
Tb267 O307 2.610 1_655 S
Tb267 O309 2.320 1_655 S
Tb267 O310 2.549 1_655 S
Tb267 O311 2.413 . S
Tb267 C331 2.833 . S
N268 C260 1.360 . S
N268 Tb267 2.660 1_565 S
N268 C269 1.305 . S
C269 N268 1.305 . S
C269 C271 1.407 . S
C269 H276 0.930 1_655 S
C270 C258 1.410 . S
C270 C271 1.345 . S
C270 H278 0.930 . S
C271 C269 1.407 . S
C271 C270 1.345 . S
C271 H273 0.930 1_655 S
H272 C265 0.930 . S
H273 C271 0.930 1_455 S
H274 C262 0.930 . S
H275 C263 0.931 . S
H276 C269 0.930 1_455 S
H277 C291 0.930 1_655 S
H278 C270 0.930 . S
H279 C297 0.930 . S
H280 C288 0.930 1_655 S
H281 C295 0.931 . S
H282 C259 0.929 . S
H283 C289 0.930 . S
H284 C322 0.930 . S
H285 C266 0.930 . S
H286 C321 0.929 . S
N287 Tb256 2.660 1_545 S
N287 C288 1.305 . S
N287 C292 1.360 . S
C288 H280 0.930 1_455 S
C288 N287 1.305 . S
C288 C291 1.407 1_556 S
C289 H283 0.930 . S
C289 C290 1.410 . S
C289 C291 1.345 . S
C290 C289 1.410 . S
C290 C292 1.417 1_554 S
C290 C322 1.432 . S
C291 H277 0.930 1_455 S
C291 C288 1.407 1_554 S
C291 C289 1.345 . S
C292 N287 1.360 . S
C292 C290 1.417 1_556 S
C292 C296 1.432 . S
H293 C298 0.930 . S
N294 Tb256 2.600 . S
N294 C296 1.359 1_565 S
N294 C297 1.327 . S
C295 H281 0.931 . S
C295 C297 1.392 . S
C295 C298 1.370 1_565 S
C296 C292 1.432 . S
C296 N294 1.359 1_545 S
C296 C299 1.414 . S
C297 H279 0.930 . S
C297 N294 1.327 . S
C297 C295 1.392 . S
C298 H293 0.930 . S
C298 C295 1.370 1_545 S
C298 C299 1.385 . S
C299 C296 1.414 . S
C299 C298 1.385 . S
C299 C321 1.444 1_556 S
O300 Tb256 2.546 . S
O300 C320 1.251 . S
O301 Tb256 2.610 1_655 S
O301 Tb267 2.362 1_565 S
O301 C312 1.283 . S
O302 Tb267 2.421 . S
O302 C319 1.262 . S
O303 Tb256 2.320 1_655 S
O303 C319 1.260 1_565 S
O304 Tb256 2.552 . S
O304 C312 1.243 1_455 S
O305 Tb256 2.413 . S
O305 C320 1.256 . S
O306 Tb267 2.546 . S
O306 C331 1.251 . S
O307 Tb256 2.362 1_545 S
O307 Tb267 2.610 1_455 S
O307 C323 1.283 . S
O308 Tb256 2.421 . S
O308 C330 1.262 1_565 S
O309 Tb267 2.320 1_455 S
O309 C330 1.260 . S
O310 Tb267 2.549 1_455 S
O310 C323 1.247 . S
O311 Tb267 2.413 . S
O311 C331 1.256 . S
C312 O301 1.283 . S
C312 O304 1.243 1_655 S
C313 C315 1.382 . S
C313 C317 1.393 . S
C313 C320 1.500 . S
C314 C315 1.400 1_554 S
C314 C316 1.384 . S
C315 C313 1.382 . S
C315 C314 1.400 1_556 S
C315 H332 0.930 . S
C316 C314 1.384 . S
C316 C318 1.392 1_554 S
C316 H333 0.931 . S
C317 C313 1.393 . S
C317 C318 1.401 . S
C317 H334 0.930 . S
C318 C316 1.392 1_556 S
C318 C317 1.401 . S
C318 H335 0.930 . S
C319 O302 1.262 . S
C319 O303 1.260 1_545 S
C320 Tb256 2.833 . S
C320 O300 1.251 . S
C320 O305 1.256 . S
C320 C313 1.500 . S
C321 H286 0.929 . S
C321 C299 1.444 1_554 S
C321 C322 1.317 . S
C322 H284 0.930 . S
C322 C290 1.432 . S
C322 C321 1.317 . S
C323 O307 1.283 . S
C323 O310 1.247 . S
C324 C325 1.382 . S
C324 C328 1.393 . S
C324 C331 1.500 . S
C325 C324 1.382 . S
C325 C326 1.400 . S
C325 H336 0.930 1_655 S
C326 C325 1.400 . S
C326 C327 1.384 . S
C327 C326 1.384 . S
C327 C329 1.392 . S
C327 H337 0.931 . S
C328 C324 1.393 . S
C328 C329 1.401 . S
C328 H338 0.930 . S
C329 C327 1.392 . S
C329 C328 1.401 . S
C329 H339 0.930 . S
C330 O308 1.262 1_545 S
C330 O309 1.260 . S
C331 Tb267 2.833 . S
C331 O306 1.251 . S
C331 O311 1.256 . S
C331 C324 1.500 . S
H332 C315 0.930 . S
H333 C316 0.931 . S
H334 C317 0.930 . S
H335 C318 0.930 . S
H336 C325 0.930 1_455 S
H337 C327 0.931 . S
H338 C328 0.930 . S
H339 C329 0.930 . S
Tb340 N371 2.660 . S
Tb340 N378 2.600 . S
Tb340 O384 2.546 . S
Tb340 O385 2.610 1_545 S
Tb340 O387 2.320 1_545 S
Tb340 O388 2.552 . S
Tb340 O389 2.413 . S
Tb340 O391 2.362 . S
Tb340 O392 2.421 . S
Tb340 C404 2.833 . S
C341 C344 1.432 . S
C341 C345 1.414 . S
C341 N348 1.359 . S
C342 C344 1.417 . S
C342 C346 1.432 . S
C342 C354 1.410 . S
C343 C345 1.444 . S
C343 C346 1.317 . S
C343 H366 0.929 . S
C344 C341 1.432 . S
C344 C342 1.417 . S
C344 N352 1.360 . S
C345 C341 1.414 . S
C345 C343 1.444 . S
C345 C350 1.385 . S
C346 C342 1.432 . S
C346 C343 1.317 . S
C346 H358 0.930 . S
C347 C349 1.392 . S
C347 C350 1.370 . S
C347 H359 0.931 . S
N348 C341 1.359 . S
N348 C349 1.327 . S
N348 Tb351 2.600 . S
C349 C347 1.392 . S
C349 N348 1.327 . S
C349 H356 0.930 . S
C350 C345 1.385 . S
C350 C347 1.370 . S
C350 H369 0.930 . S
Tb351 N348 2.600 . S
Tb351 N352 2.660 . S
Tb351 O385 2.362 . S
Tb351 O386 2.421 . S
Tb351 O390 2.546 . S
Tb351 O391 2.610 1_565 S
Tb351 O393 2.320 1_565 S
Tb351 O394 2.544 1_565 S
Tb351 O395 2.413 . S
Tb351 C415 2.833 . S
N352 C344 1.360 . S
N352 Tb351 2.660 . S
N352 C353 1.302 1_565 S
C353 N352 1.302 1_545 S
C353 C355 1.407 1_545 S
C353 H360 0.933 . S
C354 C342 1.410 . S
C354 C355 1.345 . S
C354 H362 0.930 . S
C355 C353 1.407 1_565 S
C355 C354 1.345 . S
C355 H357 0.930 1_565 S
H356 C349 0.930 . S
H357 C355 0.930 1_545 S
H358 C346 0.930 . S
H359 C347 0.931 . S
H360 C353 0.933 . S
H361 C375 0.930 1_565 S
H362 C354 0.930 . S
H363 C381 0.930 . S
H364 C372 0.930 1_565 S
H365 C379 0.931 . S
H366 C343 0.929 . S
H367 C373 0.930 . S
H368 C406 0.930 . S
H369 C350 0.930 . S
H370 C405 0.929 . S
N371 Tb340 2.660 . S
N371 C372 1.305 . S
N371 C376 1.360 . S
C372 H364 0.930 1_545 S
C372 N371 1.305 . S
C372 C375 1.407 1_556 S
C373 H367 0.930 . S
C373 C374 1.410 . S
C373 C375 1.345 . S
C374 C373 1.410 . S
C374 C376 1.417 1_554 S
C374 C406 1.432 . S
C375 H361 0.930 1_545 S
C375 C372 1.407 1_554 S
C375 C373 1.345 . S
C376 N371 1.360 . S
C376 C374 1.417 1_556 S
C376 C380 1.432 . S
H377 C382 0.930 . S
N378 Tb340 2.600 . S
N378 C380 1.359 . S
N378 C381 1.327 . S
C379 H365 0.931 . S
C379 C381 1.392 . S
C379 C382 1.370 . S
C380 C376 1.432 . S
C380 N378 1.359 . S
C380 C383 1.414 . S
C381 H363 0.930 . S
C381 N378 1.327 . S
C381 C379 1.392 . S
C382 H377 0.930 . S
C382 C379 1.370 . S
C382 C383 1.385 . S
C383 C380 1.414 . S
C383 C382 1.385 . S
C383 C405 1.444 1_556 S
O384 Tb340 2.546 . S
O384 C404 1.251 . S
O385 Tb340 2.610 1_565 S
O385 Tb351 2.362 . S
O385 C396 1.283 . S
O386 Tb351 2.421 . S
O386 C403 1.262 . S
O387 Tb340 2.320 1_565 S
O387 C403 1.260 . S
O388 Tb340 2.552 . S
O388 C396 1.243 1_545 S
O389 Tb340 2.413 . S
O389 C404 1.256 . S
O390 Tb351 2.546 . S
O390 C415 1.251 . S
O391 Tb340 2.362 . S
O391 Tb351 2.610 1_545 S
O391 C407 1.283 . S
O392 Tb340 2.421 . S
O392 C414 1.262 . S
O393 Tb351 2.320 1_545 S
O393 C414 1.260 . S
O394 Tb351 2.544 1_545 S
O394 C407 1.258 . S
O395 Tb351 2.413 . S
O395 C415 1.256 . S
C396 O385 1.283 . S
C396 O388 1.243 1_565 S
C397 C399 1.382 . S
C397 C401 1.393 . S
C397 C404 1.500 . S
C398 C399 1.400 1_554 S
C398 C400 1.384 . S
C399 C397 1.382 . S
C399 C398 1.400 1_556 S
C399 H416 0.930 . S
C400 C398 1.384 . S
C400 C402 1.392 1_554 S
C400 H417 0.931 . S
C401 C397 1.393 . S
C401 C402 1.401 . S
C401 H418 0.930 . S
C402 C400 1.392 1_556 S
C402 C401 1.401 . S
C402 H419 0.930 . S
C403 O386 1.262 . S
C403 O387 1.260 . S
C404 Tb340 2.833 . S
C404 O384 1.251 . S
C404 O389 1.256 . S
C404 C397 1.500 . S
C405 H370 0.929 . S
C405 C383 1.444 1_554 S
C405 C406 1.317 . S
C406 H368 0.930 . S
C406 C374 1.432 . S
C406 C405 1.317 . S
C407 O391 1.283 . S
C407 O394 1.258 . S
C408 C409 1.382 . S
C408 C412 1.393 . S
C408 C415 1.500 . S
C409 C408 1.382 . S
C409 C410 1.400 . S
C409 H420 0.930 1_565 S
C410 C409 1.400 . S
C410 C411 1.384 . S
C411 C410 1.384 . S
C411 C413 1.392 . S
C411 H421 0.931 . S
C412 C408 1.393 . S
C412 C413 1.401 . S
C412 H422 0.930 . S
C413 C411 1.392 . S
C413 C412 1.401 . S
C413 H423 0.930 . S
C414 O392 1.262 . S
C414 O393 1.260 . S
C415 Tb351 2.833 . S
C415 O390 1.251 . S
C415 O395 1.256 . S
C415 C408 1.500 . S
H416 C399 0.930 . S
H417 C400 0.931 . S
H418 C401 0.930 . S
H419 C402 0.930 . S
H420 C409 0.930 1_545 S
H421 C411 0.931 . S
H422 C412 0.930 . S
H423 C413 0.930 . S
Tb424 N455 2.660 . S
Tb424 N462 2.600 . S
Tb424 O468 2.546 . S
Tb424 O469 2.610 . S
Tb424 O471 2.320 . S
Tb424 O472 2.552 . S
Tb424 O473 2.413 . S
Tb424 O475 2.362 . S
Tb424 O476 2.421 . S
Tb424 C488 2.833 . S
C425 C428 1.432 . S
C425 C429 1.414 . S
C425 N432 1.359 . S
C426 C428 1.417 . S
C426 C430 1.432 . S
C426 C438 1.410 . S
C427 C429 1.444 . S
C427 C430 1.317 . S
C427 H450 0.929 . S
C428 C425 1.432 . S
C428 C426 1.417 . S
C428 N436 1.360 . S
C429 C425 1.414 . S
C429 C427 1.444 . S
C429 C434 1.385 . S
C430 C426 1.432 . S
C430 C427 1.317 . S
C430 H442 0.930 . S
C431 C433 1.392 . S
C431 C434 1.370 . S
C431 H443 0.931 . S
N432 C425 1.359 . S
N432 C433 1.327 . S
N432 Tb435 2.600 . S
C433 C431 1.392 . S
C433 N432 1.327 . S
C433 H440 0.930 . S
C434 C429 1.385 . S
C434 C431 1.370 . S
C434 H453 0.930 . S
Tb435 N432 2.600 . S
Tb435 N436 2.660 . S
Tb435 O469 2.362 . S
Tb435 O470 2.421 . S
Tb435 O474 2.546 . S
Tb435 O475 2.610 . S
Tb435 O477 2.320 . S
Tb435 O478 2.552 . S
Tb435 O479 2.413 . S
Tb435 C499 2.833 . S
N436 C428 1.360 . S
N436 Tb435 2.660 . S
N436 C437 1.305 . S
C437 N436 1.305 . S
C437 C439 1.407 . S
C437 H444 0.930 . S
C438 C426 1.410 . S
C438 C439 1.345 . S
C438 H446 0.930 . S
C439 C437 1.407 . S
C439 C438 1.345 . S
C439 H441 0.930 . S
H440 C433 0.930 . S
H441 C439 0.930 . S
H442 C430 0.930 . S
H443 C431 0.931 . S
H444 C437 0.930 . S
H445 C459 0.930 . S
H446 C438 0.930 . S
H447 C465 0.930 . S
H448 C456 0.930 . S
H449 C463 0.931 . S
H450 C427 0.929 . S
H451 C457 0.930 . S
H452 C490 0.930 . S
H453 C434 0.930 . S
H454 C489 0.929 . S
N455 Tb424 2.660 . S
N455 C456 1.305 . S
N455 C460 1.360 . S
C456 H448 0.930 . S
C456 N455 1.305 . S
C456 C459 1.407 . S
C457 H451 0.930 . S
C457 C458 1.410 . S
C457 C459 1.345 . S
C458 C457 1.410 . S
C458 C460 1.417 . S
C458 C490 1.432 . S
C459 H445 0.930 . S
C459 C456 1.407 . S
C459 C457 1.345 . S
C460 N455 1.360 . S
C460 C458 1.417 . S
C460 C464 1.432 . S
H461 C466 0.930 . S
N462 Tb424 2.600 . S
N462 C464 1.359 . S
N462 C465 1.327 . S
C463 H449 0.931 . S
C463 C465 1.392 . S
C463 C466 1.370 . S
C464 C460 1.432 . S
C464 N462 1.359 . S
C464 C467 1.414 . S
C465 H447 0.930 . S
C465 N462 1.327 . S
C465 C463 1.392 . S
C466 H461 0.930 . S
C466 C463 1.370 . S
C466 C467 1.385 . S
C467 C464 1.414 . S
C467 C466 1.385 . S
C467 C489 1.444 . S
O468 Tb424 2.546 . S
O468 C488 1.251 . S
O469 Tb424 2.610 . S
O469 Tb435 2.362 . S
O469 C480 1.283 . S
O470 Tb435 2.421 . S
O470 C487 1.262 . S
O471 Tb424 2.320 . S
O471 C487 1.260 . S
O472 Tb424 2.552 . S
O472 C480 1.243 . S
O473 Tb424 2.413 . S
O473 C488 1.256 . S
O474 Tb435 2.546 . S
O474 C499 1.251 . S
O475 Tb424 2.362 . S
O475 Tb435 2.610 . S
O475 C491 1.283 . S
O476 Tb424 2.421 . S
O476 C498 1.262 . S
O477 Tb435 2.320 . S
O477 C498 1.260 . S
O478 Tb435 2.552 . S
O478 C491 1.243 . S
O479 Tb435 2.413 . S
O479 C499 1.256 . S
C480 O469 1.283 . S
C480 O472 1.243 . S
C481 C483 1.382 . S
C481 C485 1.393 . S
C481 C488 1.500 . S
C482 C483 1.400 . S
C482 C484 1.384 . S
C483 C481 1.382 . S
C483 C482 1.400 . S
C483 H500 0.930 . S
C484 C482 1.384 . S
C484 C486 1.392 . S
C484 H501 0.931 . S
C485 C481 1.393 . S
C485 C486 1.401 . S
C485 H502 0.930 . S
C486 C484 1.392 . S
C486 C485 1.401 . S
C486 H503 0.930 . S
C487 O470 1.262 . S
C487 O471 1.260 . S
C488 Tb424 2.833 . S
C488 O468 1.251 . S
C488 O473 1.256 . S
C488 C481 1.500 . S
C489 H454 0.929 . S
C489 C467 1.444 . S
C489 C490 1.317 . S
C490 H452 0.930 . S
C490 C458 1.432 . S
C490 C489 1.317 . S
C491 O475 1.283 . S
C491 O478 1.243 . S
C492 C493 1.382 . S
C492 C496 1.393 1_556 S
C492 C499 1.500 . S
C493 C492 1.382 . S
C493 C494 1.400 1_556 S
C493 H504 0.930 . S
C494 C493 1.400 1_554 S
C494 C495 1.384 . S
C495 C494 1.384 . S
C495 C497 1.392 . S
C495 H505 0.931 . S
C496 C492 1.393 1_554 S
C496 C497 1.401 . S
C496 H506 0.930 . S
C497 C495 1.392 . S
C497 C496 1.401 . S
C497 H507 0.930 . S
C498 O476 1.262 . S
C498 O477 1.260 . S
C499 Tb435 2.833 . S
C499 O474 1.251 . S
C499 O479 1.256 . S
C499 C492 1.500 . S
H500 C483 0.930 . S
H501 C484 0.931 . S
H502 C485 0.930 . S
H503 C486 0.930 . S
H504 C493 0.930 . S
H505 C495 0.931 . S
H506 C496 0.930 . S
H507 C497 0.930 . S
Tb508 N539 2.660 . S
Tb508 N546 2.600 . S
Tb508 O552 2.546 . S
Tb508 O553 2.610 . S
Tb508 O555 2.320 . S
Tb508 O556 2.552 . S
Tb508 O557 2.413 . S
Tb508 O559 2.351 1_455 S
Tb508 O560 2.421 1_455 S
Tb508 C572 2.833 . S
C509 C512 1.432 . S
C509 C513 1.414 . S
C509 N516 1.359 . S
C510 C512 1.417 . S
C510 C514 1.432 . S
C510 C522 1.410 . S
C511 C513 1.444 . S
C511 C514 1.317 . S
C511 H534 0.929 . S
C512 C509 1.432 . S
C512 C510 1.417 . S
C512 N520 1.360 . S
C513 C509 1.414 . S
C513 C511 1.444 . S
C513 C518 1.385 1_655 S
C514 C510 1.432 . S
C514 C511 1.317 . S
C514 H526 0.930 . S
C515 C517 1.392 . S
C515 C518 1.370 . S
C515 H527 0.931 . S
N516 C509 1.359 . S
N516 C517 1.327 1_655 S
N516 Tb519 2.600 . S
C517 C515 1.392 . S
C517 N516 1.327 1_455 S
C517 H524 0.930 . S
C518 C513 1.385 1_455 S
C518 C515 1.370 . S
C518 H537 0.930 . S
Tb519 N516 2.600 . S
Tb519 N520 2.660 . S
Tb519 O553 2.362 1_655 S
Tb519 O554 2.421 1_655 S
Tb519 O558 2.546 . S
Tb519 O559 2.616 . S
Tb519 O561 2.320 . S
Tb519 O562 2.552 . S
Tb519 O563 2.413 . S
Tb519 C583 2.833 . S
N520 C512 1.360 . S
N520 Tb519 2.660 . S
N520 C521 1.305 . S
C521 N520 1.305 . S
C521 C523 1.407 . S
C521 H528 0.930 . S
C522 C510 1.410 . S
C522 C523 1.345 . S
C522 H530 0.930 . S
C523 C521 1.407 . S
C523 C522 1.345 . S
C523 H525 0.930 . S
H524 C517 0.930 . S
H525 C523 0.930 . S
H526 C514 0.930 . S
H527 C515 0.931 . S
H528 C521 0.930 . S
H529 C543 0.930 . S
H530 C522 0.930 . S
H531 C549 0.930 . S
H532 C540 0.930 . S
H533 C547 0.931 . S
H534 C511 0.929 . S
H535 C541 0.930 . S
H536 C574 0.930 . S
H537 C518 0.930 . S
H538 C573 0.929 . S
N539 Tb508 2.660 . S
N539 C540 1.305 . S
N539 C544 1.360 . S
C540 H532 0.930 . S
C540 N539 1.305 . S
C540 C543 1.407 . S
C541 H535 0.930 . S
C541 C542 1.410 . S
C541 C543 1.345 . S
C542 C541 1.410 . S
C542 C544 1.417 . S
C542 C574 1.432 . S
C543 H529 0.930 . S
C543 C540 1.407 . S
C543 C541 1.345 . S
C544 N539 1.360 . S
C544 C542 1.417 . S
C544 C548 1.432 . S
H545 C550 0.930 . S
N546 Tb508 2.600 . S
N546 C548 1.359 . S
N546 C549 1.327 1_455 S
C547 H533 0.931 . S
C547 C549 1.392 . S
C547 C550 1.370 1_655 S
C548 C544 1.432 . S
C548 N546 1.359 . S
C548 C551 1.414 . S
C549 H531 0.930 . S
C549 N546 1.327 1_655 S
C549 C547 1.392 . S
C550 H545 0.930 . S
C550 C547 1.370 1_455 S
C550 C551 1.385 . S
C551 C548 1.414 . S
C551 C550 1.385 . S
C551 C573 1.444 . S
O552 Tb508 2.546 . S
O552 C572 1.251 . S
O553 Tb508 2.610 . S
O553 Tb519 2.362 1_455 S
O553 C564 1.283 . S
O554 Tb519 2.421 1_455 S
O554 C571 1.262 . S
O555 Tb508 2.320 . S
O555 C571 1.260 . S
O556 Tb508 2.552 . S
O556 C564 1.243 . S
O557 Tb508 2.413 . S
O557 C572 1.256 . S
O558 Tb519 2.546 . S
O558 C583 1.251 . S
O559 Tb508 2.351 1_655 S
O559 Tb519 2.616 . S
O559 C575 1.291 . S
O560 Tb508 2.421 1_655 S
O560 C582 1.262 . S
O561 Tb519 2.320 . S
O561 C582 1.260 . S
O562 Tb519 2.552 . S
O562 C575 1.243 . S
O563 Tb519 2.413 . S
O563 C583 1.256 . S
C564 O553 1.283 . S
C564 O556 1.243 . S
C565 C567 1.382 . S
C565 C569 1.393 . S
C565 C572 1.500 . S
C566 C567 1.400 . S
C566 C568 1.384 . S
C567 C565 1.382 . S
C567 C566 1.400 . S
C567 H584 0.930 . S
C568 C566 1.384 . S
C568 C570 1.392 . S
C568 H585 0.931 . S
C569 C565 1.393 . S
C569 C570 1.401 . S
C569 H586 0.930 . S
C570 C568 1.392 . S
C570 C569 1.401 . S
C570 H587 0.930 . S
C571 O554 1.262 . S
C571 O555 1.260 . S
C572 Tb508 2.833 . S
C572 O552 1.251 . S
C572 O557 1.256 . S
C572 C565 1.500 . S
C573 H538 0.929 . S
C573 C551 1.444 . S
C573 C574 1.317 . S
C574 H536 0.930 . S
C574 C542 1.432 . S
C574 C573 1.317 . S
C575 O559 1.291 . S
C575 O562 1.243 . S
C576 C577 1.382 . S
C576 C580 1.393 1_556 S
C576 C583 1.500 . S
C577 C576 1.382 . S
C577 C578 1.400 1_556 S
C577 H588 0.930 . S
C578 C577 1.400 1_554 S
C578 C579 1.384 . S
C579 C578 1.384 . S
C579 C581 1.392 . S
C579 H589 0.931 . S
C580 C576 1.393 1_554 S
C580 C581 1.401 . S
C580 H590 0.930 . S
C581 C579 1.392 . S
C581 C580 1.401 . S
C581 H591 0.930 . S
C582 O560 1.262 . S
C582 O561 1.260 . S
C583 Tb519 2.833 . S
C583 O558 1.251 . S
C583 O563 1.256 . S
C583 C576 1.500 . S
H584 C567 0.930 . S
H585 C568 0.931 . S
H586 C569 0.930 . S
H587 C570 0.930 . S
H588 C577 0.930 . S
H589 C579 0.931 . S
H590 C580 0.930 . S
H591 C581 0.930 . S
C592 C593 1.369 . S
C592 C594 1.419 . S
C592 H596 0.930 . S
C593 C592 1.369 . S
C593 C602 1.429 . S
C594 C592 1.419 . S
C594 C595 1.363 . S
C594 H597 0.929 . S
C595 C594 1.363 . S
C595 C601 1.428 . S
H596 C592 0.930 . S
H597 C594 0.929 . S
S598 N599 1.613 . S
S598 N600 1.610 . S
N599 S598 1.613 . S
N599 C602 1.350 1_565 S
N600 S598 1.610 . S
N600 C601 1.351 1_565 S
C601 C595 1.428 . S
C601 N600 1.351 1_545 S
C601 C602 1.434 . S
C602 C593 1.429 . S
C602 N599 1.350 1_545 S
C602 C601 1.434 . S
C603 C604 1.369 . S
C603 C605 1.419 . S
C603 H607 0.930 . S
C604 C603 1.369 . S
C604 C613 1.429 . S
C605 C603 1.419 . S
C605 C606 1.363 . S
C605 H608 0.929 . S
C606 C605 1.363 . S
C606 C612 1.428 . S
H607 C603 0.930 . S
H608 C605 0.929 . S
S609 N610 1.613 . S
S609 N611 1.610 . S
N610 S609 1.613 . S
N610 C613 1.350 . S
N611 S609 1.610 . S
N611 C612 1.351 . S
C612 C606 1.428 . S
C612 N611 1.351 . S
C612 C613 1.434 . S
C613 C604 1.429 . S
C613 N610 1.350 . S
C613 C612 1.434 . S
C614 C615 1.369 . S
C614 C616 1.419 . S
C614 H618 0.930 . S
C615 C614 1.369 . S
C615 C624 1.429 . S
C616 C614 1.419 . S
C616 C617 1.363 . S
C616 H619 0.929 . S
C617 C616 1.363 . S
C617 C623 1.428 . S
H618 C614 0.930 . S
H619 C616 0.929 . S
S620 N621 1.613 . S
S620 N622 1.610 . S
N621 S620 1.613 . S
N621 C624 1.350 . S
N622 S620 1.610 . S
N622 C623 1.351 . S
C623 C617 1.428 . S
C623 N622 1.351 . S
C623 C624 1.434 . S
C624 C615 1.429 . S
C624 N621 1.350 . S
C624 C623 1.434 . S
C625 C626 1.369 . S
C625 C627 1.419 . S
C625 H629 0.930 . S
C626 C625 1.369 . S
C626 C635 1.429 . S
C627 C625 1.419 . S
C627 C628 1.363 . S
C627 H630 0.929 . S
C628 C627 1.363 . S
C628 C634 1.428 . S
H629 C625 0.930 . S
H630 C627 0.929 . S
S631 N632 1.613 . S
S631 N633 1.610 . S
N632 S631 1.613 . S
N632 C635 1.350 1_655 S
N633 S631 1.610 . S
N633 C634 1.351 1_655 S
C634 C628 1.428 . S
C634 N633 1.351 1_455 S
C634 C635 1.434 . S
C635 C626 1.429 . S
C635 N632 1.350 1_455 S
C635 C634 1.434 . S
C636 C637 1.369 . S
C636 C638 1.419 1_554 S
C636 H640 0.930 . S
C637 C636 1.369 . S
C637 C646 1.429 . S
C638 C636 1.419 1_556 S
C638 C639 1.363 . S
C638 H641 0.929 1_565 S
C639 C638 1.363 . S
C639 C645 1.428 . S
H640 C636 0.930 . S
H641 C638 0.929 1_545 S
S642 N643 1.613 . S
S642 N644 1.610 1_554 S
N643 S642 1.613 . S
N643 C646 1.350 . S
N644 S642 1.610 1_556 S
N644 C645 1.351 . S
C645 C639 1.428 . S
C645 N644 1.351 . S
C645 C646 1.434 1_556 S
C646 C637 1.429 . S
C646 N643 1.350 . S
C646 C645 1.434 1_554 S
C647 C648 1.369 . S
C647 C649 1.419 1_554 S
C647 H651 0.930 . S
C648 C647 1.369 . S
C648 C657 1.429 . S
C649 C647 1.419 1_556 S
C649 C650 1.363 . S
C649 H652 0.929 . S
C650 C649 1.363 . S
C650 C656 1.428 . S
H651 C647 0.930 . S
H652 C649 0.929 . S
S653 N654 1.613 . S
S653 N655 1.610 1_554 S
N654 S653 1.613 . S
N654 C657 1.350 . S
N655 S653 1.610 1_556 S
N655 C656 1.351 . S
C656 C650 1.428 . S
C656 N655 1.351 . S
C656 C657 1.434 1_556 S
C657 C648 1.429 . S
C657 N654 1.350 . S
C657 C656 1.434 1_554 S
C658 C659 1.369 . S
C658 C660 1.419 1_554 S
C658 H662 0.930 . S
C659 C658 1.369 . S
C659 C668 1.429 . S
C660 C658 1.419 1_556 S
C660 C661 1.363 . S
C660 H663 0.929 . S
C661 C660 1.363 . S
C661 C667 1.428 . S
H662 C658 0.930 . S
H663 C660 0.929 . S
S664 N665 1.613 1_556 S
S664 N666 1.610 . S
N665 S664 1.613 1_554 S
N665 C668 1.350 . S
N666 S664 1.610 . S
N666 C667 1.351 . S
C667 C661 1.428 . S
C667 N666 1.351 . S
C667 C668 1.434 1_556 S
C668 C659 1.429 . S
C668 N665 1.350 . S
C668 C667 1.434 1_554 S
C669 C670 1.369 . S
C669 C671 1.419 1_554 S
C669 H673 0.930 . S
C670 C669 1.369 . S
C670 C679 1.429 . S
C671 C669 1.419 1_556 S
C671 C672 1.363 . S
C671 H674 0.929 1_655 S
C672 C671 1.363 . S
C672 C678 1.428 . S
H673 C669 0.930 . S
H674 C671 0.929 1_455 S
S675 N676 1.618 . S
S675 N677 1.606 1_554 S
N676 S675 1.618 . S
N676 C679 1.350 . S
N677 S675 1.606 1_556 S
N677 C678 1.351 . S
C678 C672 1.428 . S
C678 N677 1.351 . S
C678 C679 1.434 1_556 S
C679 C670 1.429 . S
C679 N676 1.350 . S
C679 C678 1.434 1_554 S
C680 C681 1.369 . S
C680 C682 1.419 . S
C680 H684 0.930 . S
C681 C680 1.369 . S
C681 C690 1.429 . S
C682 C680 1.419 . S
C682 C683 1.363 1_455 S
C682 H685 0.929 1_455 S
C683 C682 1.363 1_655 S
C683 C689 1.428 1_655 S
H684 C680 0.930 . S
H685 C682 0.929 1_655 S
S686 N687 1.613 . S
S686 N688 1.610 . S
N687 S686 1.613 . S
N687 C690 1.350 . S
N688 S686 1.610 . S
N688 C689 1.351 . S
C689 C683 1.428 1_455 S
C689 N688 1.351 . S
C689 C690 1.434 . S
C690 C681 1.429 . S
C690 N687 1.350 . S
C690 C689 1.434 . S
C691 C692 1.369 . S
C691 C693 1.428 . S
C691 H695 0.930 . S
C692 C691 1.369 . S
C692 C701 1.429 . S
C693 C691 1.428 . S
C693 C694 1.362 1_545 S
C693 H696 0.920 1_545 S
C694 C693 1.362 1_565 S
C694 C700 1.428 1_565 S
H695 C691 0.930 . S
H696 C693 0.920 1_565 S
S697 N698 1.613 . S
S697 N699 1.610 . S
N698 S697 1.613 . S
N698 C701 1.350 . S
N699 S697 1.610 . S
N699 C700 1.351 . S
C700 C694 1.428 1_545 S
C700 N699 1.351 . S
C700 C701 1.434 . S
C701 C692 1.429 . S
C701 N698 1.350 . S
C701 C700 1.434 . S
C702 C703 1.369 . S
C702 C704 1.419 . S
C702 H706 0.930 . S
C703 C702 1.369 . S
C703 C712 1.429 . S
C704 C702 1.419 . S
C704 C705 1.363 . S
C704 H707 0.929 . S
C705 C704 1.363 . S
C705 C711 1.428 . S
H706 C702 0.930 . S
H707 C704 0.929 . S
S708 N709 1.613 . S
S708 N710 1.610 . S
N709 S708 1.613 . S
N709 C712 1.350 . S
N710 S708 1.610 . S
N710 C711 1.351 . S
C711 C705 1.428 . S
C711 N710 1.351 . S
C711 C712 1.434 . S
C712 C703 1.429 . S
C712 N709 1.350 . S
C712 C711 1.434 . S
C713 C714 1.369 . S
C713 C715 1.419 . S
C713 H717 0.930 . S
C714 C713 1.369 . S
C714 C723 1.429 . S
C715 C713 1.419 . S
C715 C716 1.363 . S
C715 H718 0.929 . S
C716 C715 1.363 . S
C716 C722 1.428 . S
H717 C713 0.930 . S
H718 C715 0.929 . S
S719 N720 1.613 . S
S719 N721 1.610 . S
N720 S719 1.613 . S
N720 C723 1.350 . S
N721 S719 1.610 . S
N721 C722 1.351 . S
C722 C716 1.428 . S
C722 N721 1.351 . S
C722 C723 1.434 . S
C723 C714 1.429 . S
C723 N720 1.350 . S
C723 C722 1.434 . S
C724 C725 1.369 1_556 S
C724 C726 1.419 . S
C724 H728 0.930 . S
C725 C724 1.369 1_554 S
C725 C734 1.429 . S
C726 C724 1.419 . S
C726 C727 1.363 1_656 S
C726 H729 0.929 . S
C727 C726 1.363 1_454 S
C727 C733 1.428 . S
H728 C724 0.930 . S
H729 C726 0.929 . S
S730 N731 1.613 1_455 S
S730 N732 1.610 . S
N731 S730 1.613 1_655 S
N731 C734 1.350 . S
N732 S730 1.610 . S
N732 C733 1.351 . S
C733 C727 1.428 . S
C733 N732 1.351 . S
C733 C734 1.434 1_455 S
C734 C725 1.429 . S
C734 N731 1.350 . S
C734 C733 1.434 1_655 S
C735 C736 1.369 . S
C735 C737 1.419 1_565 S
C735 H739 0.930 . S
C736 C735 1.369 . S
C736 C745 1.429 1_554 S
C737 C735 1.419 1_545 S
C737 C738 1.363 . S
C737 H740 0.929 . S
C738 C737 1.363 . S
C738 C744 1.426 1_544 S
H739 C735 0.930 . S
H740 C737 0.929 . S
S741 N742 1.613 . S
S741 N743 1.610 1_565 S
N742 S741 1.613 . S
N742 C745 1.350 . S
N743 S741 1.610 1_545 S
N743 C744 1.350 1_545 S
C744 C738 1.426 1_566 S
C744 N743 1.350 1_565 S
C744 C745 1.438 . S
C745 C736 1.429 1_556 S
C745 N742 1.350 . S
C745 C744 1.438 . S
C746 C747 1.369 . S
C746 C748 1.419 . S
C746 H750 0.930 . S
C747 C746 1.369 . S
C747 C756 1.429 . S
C748 C746 1.419 . S
C748 C749 1.363 . S
C748 H751 0.929 . S
C749 C748 1.363 . S
C749 C755 1.428 . S
H750 C746 0.930 . S
H751 C748 0.929 . S
S752 N753 1.613 . S
S752 N754 1.610 . S
N753 S752 1.613 . S
N753 C756 1.350 . S
N754 S752 1.610 . S
N754 C755 1.351 . S
C755 C749 1.428 . S
C755 N754 1.351 . S
C755 C756 1.434 . S
C756 C747 1.429 . S
C756 N753 1.350 . S
C756 C755 1.434 . S
C757 C758 1.369 . S
C757 C759 1.419 . S
C757 H761 0.930 . S
C758 C757 1.369 . S
C758 C767 1.429 . S
C759 C757 1.419 . S
C759 C760 1.363 . S
C759 H762 0.929 . S
C760 C759 1.363 . S
C760 C766 1.428 . S
H761 C757 0.930 . S
H762 C759 0.929 . S
S763 N764 1.613 . S
S763 N765 1.610 . S
N764 S763 1.613 . S
N764 C767 1.350 . S
N765 S763 1.610 . S
N765 C766 1.351 . S
C766 C760 1.428 . S
C766 N765 1.351 . S
C766 C767 1.434 . S
C767 C758 1.429 . S
C767 N764 1.350 . S
C767 C766 1.434 . S
C768 C769 1.369 . S
C768 C770 1.419 . S
C768 H772 0.930 . S
C769 C768 1.369 . S
C769 C778 1.429 . S
C770 C768 1.419 . S
C770 C771 1.363 . S
C770 H773 0.929 . S
C771 C770 1.363 . S
C771 C777 1.428 . S
H772 C768 0.930 . S
H773 C770 0.929 . S
S774 N775 1.613 . S
S774 N776 1.610 . S
N775 S774 1.613 . S
N775 C778 1.350 . S
N776 S774 1.610 . S
N776 C777 1.351 . S
C777 C771 1.428 . S
C777 N776 1.351 . S
C777 C778 1.434 . S
C778 C769 1.429 . S
C778 N775 1.350 . S
C778 C777 1.434 . S
C779 C780 1.369 . S
C779 C781 1.419 . S
C779 H783 0.930 . S
C780 C779 1.369 . S
C780 C789 1.429 . S
C781 C779 1.419 . S
C781 C782 1.363 . S
C781 H784 0.929 1_545 S
C782 C781 1.363 . S
C782 C788 1.428 . S
H783 C779 0.930 . S
H784 C781 0.929 1_565 S
S785 N786 1.613 . S
S785 N787 1.610 . S
N786 S785 1.613 . S
N786 C789 1.350 . S
N787 S785 1.610 . S
N787 C788 1.351 . S
C788 C782 1.428 . S
C788 N787 1.351 . S
C788 C789 1.434 . S
C789 C780 1.429 . S
C789 N786 1.350 . S
C789 C788 1.434 . S
C790 C791 1.369 . S
C790 C792 1.419 . S
C790 H794 0.930 . S
C791 C790 1.369 . S
C791 C800 1.429 . S
C792 C790 1.419 . S
C792 C793 1.363 . S
C792 H795 0.929 . S
C793 C792 1.363 . S
C793 C799 1.428 . S
H794 C790 0.930 . S
H795 C792 0.929 . S
S796 N797 1.613 . S
S796 N798 1.610 . S
N797 S796 1.613 . S
N797 C800 1.350 . S
N798 S796 1.610 . S
N798 C799 1.351 . S
C799 C793 1.428 . S
C799 N798 1.351 . S
C799 C800 1.434 . S
C800 C791 1.429 . S
C800 N797 1.350 . S
C800 C799 1.434 . S
C801 C802 1.369 . S
C801 C803 1.419 . S
C801 H805 0.930 . S
C802 C801 1.369 . S
C802 C811 1.429 . S
C803 C801 1.419 . S
C803 C804 1.363 . S
C803 H806 0.929 . S
C804 C803 1.363 . S
C804 C810 1.428 . S
H805 C801 0.930 . S
H806 C803 0.929 . S
S807 N808 1.613 . S
S807 N809 1.610 . S
N808 S807 1.613 . S
N808 C811 1.350 . S
N809 S807 1.610 . S
N809 C810 1.351 . S
C810 C804 1.428 . S
C810 N809 1.351 . S
C810 C811 1.434 . S
C811 C802 1.429 . S
C811 N808 1.350 . S
C811 C810 1.434 . S
C812 C813 1.369 . S
C812 C814 1.419 . S
C812 H816 0.930 . S
C813 C812 1.369 . S
C813 C822 1.429 . S
C814 C812 1.419 . S
C814 C815 1.363 . S
C814 H817 0.929 . S
C815 C814 1.363 . S
C815 C821 1.428 . S
H816 C812 0.930 . S
H817 C814 0.929 . S
S818 N819 1.613 . S
S818 N820 1.610 . S
N819 S818 1.613 . S
N819 C822 1.350 . S
N820 S818 1.610 . S
N820 C821 1.351 . S
C821 C815 1.428 . S
C821 N820 1.351 . S
C821 C822 1.434 . S
C822 C813 1.429 . S
C822 N819 1.350 . S
C822 C821 1.434 . S
C823 C824 1.369 . S
C823 C825 1.419 . S
C823 H827 0.930 1_565 S
C824 C823 1.369 . S
C824 C833 1.429 . S
C825 C823 1.419 . S
C825 C826 1.363 . S
C825 H828 0.929 1_565 S
C826 C825 1.363 . S
C826 C832 1.428 . S
H827 C823 0.930 1_545 S
H828 C825 0.929 1_545 S
S829 N830 1.613 . S
S829 N831 1.610 . S
N830 S829 1.613 . S
N830 C833 1.350 . S
N831 S829 1.610 . S
N831 C832 1.351 . S
C832 C826 1.428 . S
C832 N831 1.351 . S
C832 C833 1.434 . S
C833 C824 1.429 . S
C833 N830 1.350 . S
C833 C832 1.434 . S
C834 C835 1.369 . S
C834 C836 1.419 . S
C834 H838 0.930 . S
C835 C834 1.369 . S
C835 C844 1.429 . S
C836 C834 1.419 . S
C836 C837 1.363 . S
C836 H839 0.929 . S
C837 C836 1.363 . S
C837 C843 1.428 . S
H838 C834 0.930 . S
H839 C836 0.929 . S
S840 N841 1.613 . S
S840 N842 1.610 . S
N841 S840 1.613 . S
N841 C844 1.350 . S
N842 S840 1.610 . S
N842 C843 1.351 . S
C843 C837 1.428 . S
C843 N842 1.351 . S
C843 C844 1.434 . S
C844 C835 1.429 . S
C844 N841 1.350 . S
C844 C843 1.434 . S
C845 C846 1.369 . S
C845 C847 1.419 . S
C845 H849 0.930 . S
C846 C845 1.369 . S
C846 C855 1.429 . S
C847 C845 1.419 . S
C847 C848 1.363 . S
C847 H850 0.929 . S
C848 C847 1.363 . S
C848 C854 1.428 . S
H849 C845 0.930 . S
H850 C847 0.929 . S
S851 N852 1.613 . S
S851 N853 1.610 . S
N852 S851 1.613 . S
N852 C855 1.350 . S
N853 S851 1.610 . S
N853 C854 1.351 . S
C854 C848 1.428 . S
C854 N853 1.351 . S
C854 C855 1.434 . S
C855 C846 1.429 . S
C855 N852 1.350 . S
C855 C854 1.434 . S
C593 C215 2.407 . S
C595 C330 2.463 . S
C606 C414 2.477 . S
C604 C247 2.410 . S
C617 C480 2.310 . S
C615 C151 2.488 . S
C628 C564 2.304 . S
C626 C183 2.487 . S
C639 C319 2.465 1_565 S
C637 C87 2.308 . S
C648 C119 2.293 . S
C650 C403 2.476 . S
C659 C23 2.369 . S
C661 C491 2.309 . S
C670 C55 2.375 . S
C672 C575 2.303 . S
C683 C326 1.076 . S
C681 C189 1.034 . S
C694 C410 1.015 . S
C692 C221 0.983 . S
C705 C482 0.983 . S
C703 C253 0.968 . S
C714 C157 1.016 . S
C716 C566 1.037 . S
C725 C61 0.862 . S
C727 C314 1.076 . S
C738 C398 1.014 . S
C736 C93 0.844 . S
C749 C494 0.983 . S
C747 C125 0.843 . S
C758 C29 0.832 . S
C760 C578 1.040 . S
C769 C177 2.709 . S
C771 C323 2.824 . S
C780 C209 2.685 . S
C782 C407 2.800 . S
C793 C487 2.937 . S
C791 C241 2.603 . S
C804 C571 2.960 . S
C802 C145 2.622 . S
C813 C49 2.633 . S
C815 C312 2.822 . S
C826 C396 2.801 . S
C824 C81 2.621 . S
C837 C498 2.938 . S
C835 C113 2.529 . S
C846 C17 2.541 . S
C848 C582 2.958 . S
