# Generated by pormake.
# Topology tsx, (6,3)-cn, num edge types: 1
# Building blocks:
#     Node 0, Type 0, BuildingBlock: JUFBIX_clean_sbu_0, # of connection points: 6
#     Node 1, Type 0, BuildingBlock: JUFBIX_clean_sbu_0, # of connection points: 6
#     Node 2, Type 1, BuildingBlock: INOVEN_clean_linker_0, # of connection points: 3
#     Node 3, Type 1, BuildingBlock: INOVEN_clean_linker_0, # of connection points: 3
#     Node 4, Type 1, BuildingBlock: INOVEN_clean_linker_0, # of connection points: 3
#     Node 5, Type 1, BuildingBlock: INOVEN_clean_linker_0, # of connection points: 3
#     Edge 6, Type (0, 1), BuildingBlock: UVAHIK_clean_linker_0, # of connection points: 2
#     Edge 7, Type (0, 1), BuildingBlock: UVAHIK_clean_linker_0, # of connection points: 2
#     Edge 8, Type (0, 1), BuildingBlock: UVAHIK_clean_linker_0, # of connection points: 2
#     Edge 9, Type (0, 1), BuildingBlock: UVAHIK_clean_linker_0, # of connection points: 2
#     Edge 10, Type (0, 1), BuildingBlock: UVAHIK_clean_linker_0, # of connection points: 2
#     Edge 11, Type (0, 1), BuildingBlock: UVAHIK_clean_linker_0, # of connection points: 2
#     Edge 12, Type (0, 1), BuildingBlock: UVAHIK_clean_linker_0, # of connection points: 2
#     Edge 13, Type (0, 1), BuildingBlock: UVAHIK_clean_linker_0, # of connection points: 2
#     Edge 14, Type (0, 1), BuildingBlock: UVAHIK_clean_linker_0, # of connection points: 2
#     Edge 15, Type (0, 1), BuildingBlock: UVAHIK_clean_linker_0, # of connection points: 2
#     Edge 16, Type (0, 1), BuildingBlock: UVAHIK_clean_linker_0, # of connection points: 2
#     Edge 17, Type (0, 1), BuildingBlock: UVAHIK_clean_linker_0, # of connection points: 2
# Relax obj value: 0.097
# Max RMSD: 0.119
# Mean RMSD: 0.109
data_MOF--net-tsx--node1-JUFBIX_clean_sbu_0--node2-INOVEN_clean_linker_0--edge1-UVAHIK_clean_linker_0
_symmetry_space_group_name_H-M    P1
_symmetry_Int_Tables_number       1
_symmetry_cell_setting            triclinic
loop_
_symmetry_equiv_pos_as_xyz
'x, y, z'
_cell_length_a     25.741229
_cell_length_b     30.669422
_cell_length_c     42.036043
_cell_angle_alpha  92.408628
_cell_angle_beta   97.957974
_cell_angle_gamma 97.306275
loop_
_atom_site_label
_atom_site_type_symbol
_atom_site_fract_x
_atom_site_fract_y
_atom_site_fract_z
_atom_type_partial_charge
Co0 Co 0.05556 0.97747 0.99818 0.0
C1 C 0.98818 0.99931 0.94392 0.0
Co2 Co 0.99695 0.0214 0.00788 0.0
C3 C 0.13077 0.91256 0.00038 0.0
C4 C 0.13223 0.95421 0.96075 0.0
N5 N 0.1069 0.94514 0.98622 0.0
N6 N 0.17037 0.9017 0.98481 0.0
C7 C 0.17107 0.92775 0.95986 0.0
H8 H 0.12087 0.89845 0.02231 0.0
H9 H 0.12404 0.97954 0.94435 0.0
C10 C 0.0645 0.00076 0.06209 0.0
N11 N 0.94669 0.05423 0.02029 0.0
C12 C 0.92841 0.09021 0.00784 0.0
C13 C 0.92244 0.04735 0.04648 0.0
N14 N 0.89436 0.1062 0.02561 0.0
C15 C 0.89052 0.07931 0.04989 0.0
C16 C 0.96323 0.93029 0.00872 0.0
O17 O 0.08402 0.97686 0.04263 0.0
O18 O 0.02739 0.02212 0.05147 0.0
O19 O 0.95154 0.96905 0.01246 0.0
O20 O 1.00871 0.92511 0.00175 0.0
O21 O 0.96743 0.02117 0.96399 0.0
H22 H 0.92821 0.02102 0.0624 0.0
H23 H 0.94087 0.10503 0.98674 0.0
O24 O 0.02609 0.97829 0.95404 0.0
O25 O 0.10207 0.0307 0.99459 0.0
O26 O 0.04231 0.07304 0.00318 0.0
C27 C 0.08851 0.06903 0.99717 0.0
H28 H 0.19832 0.92799 0.9424 0.0
H29 H 0.86611 0.08244 0.06865 0.0
Co30 Co 0.55554 0.47751 0.49819 0.0
C31 C 0.48817 0.49939 0.44394 0.0
Co32 Co 0.49697 0.52148 0.5079 0.0
C33 C 0.63072 0.41257 0.50038 0.0
C34 C 0.63214 0.45419 0.46073 0.0
N35 N 0.60685 0.44515 0.48622 0.0
N36 N 0.6703 0.4017 0.4848 0.0
C37 C 0.67098 0.42772 0.45984 0.0
H38 H 0.62085 0.39849 0.52232 0.0
H39 H 0.62394 0.47951 0.44432 0.0
C40 C 0.56451 0.50079 0.5621 0.0
N41 N 0.44675 0.55434 0.52031 0.0
C42 C 0.42848 0.59032 0.50787 0.0
C43 C 0.42252 0.54748 0.54651 0.0
N44 N 0.39445 0.60633 0.52564 0.0
C45 C 0.39063 0.57946 0.54993 0.0
C46 C 0.46317 0.43038 0.50873 0.0
O47 O 0.58401 0.47689 0.54263 0.0
O48 O 0.52742 0.52218 0.55148 0.0
O49 O 0.45153 0.46915 0.51248 0.0
O50 O 0.50865 0.42517 0.50175 0.0
O51 O 0.46744 0.52127 0.46401 0.0
H52 H 0.42828 0.52116 0.56244 0.0
H53 H 0.44093 0.60513 0.48675 0.0
O54 O 0.52606 0.47835 0.45405 0.0
O55 O 0.60209 0.53072 0.4946 0.0
O56 O 0.54238 0.5731 0.5032 0.0
C57 C 0.58856 0.56906 0.49718 0.0
H58 H 0.69822 0.42795 0.44237 0.0
H59 H 0.36623 0.58261 0.56869 0.0
H60 H 0.05801 0.97847 0.49209 0.0
H61 H 0.1184 0.93879 0.40651 0.0
H62 H 0.03474 0.05122 0.40707 0.0
N63 N 0.01784 0.04832 0.46836 0.0
N64 N 0.01995 0.08764 0.46158 0.0
C65 C 0.06357 0.98322 0.46732 0.0
C66 C 0.08954 0.95375 0.45081 0.0
C67 C 0.04488 0.01904 0.4518 0.0
C68 C 0.05122 0.02468 0.41938 0.0
C69 C 0.07645 0.99509 0.40251 0.0
C70 C 0.09651 0.96053 0.41878 0.0
H71 H 0.97122 0.9912 0.51256 0.0
H72 H 0.89347 0.94619 0.59168 0.0
H73 H 1.00852 0.06217 0.60526 0.0
N74 N 0.03052 0.06096 0.54447 0.0
N75 N 0.044 0.09891 0.55721 0.0
C76 C 0.96522 0.99506 0.53747 0.0
C77 C 0.92821 0.96511 0.54969 0.0
C78 C 0.99329 0.03084 0.55716 0.0
C79 C 0.98552 0.03555 0.58961 0.0
C80 C 0.95039 0.00458 0.60238 0.0
C81 C 0.92124 0.96996 0.58209 0.0
H82 H 0.55796 0.47838 0.99209 0.0
H83 H 0.61837 0.43871 0.90651 0.0
H84 H 0.53474 0.55115 0.90707 0.0
N85 N 0.51782 0.54824 0.96836 0.0
N86 N 0.51994 0.58757 0.96159 0.0
C87 C 0.56353 0.48314 0.96732 0.0
C88 C 0.5895 0.45366 0.95081 0.0
C89 C 0.54486 0.51896 0.9518 0.0
C90 C 0.55121 0.5246 0.91939 0.0
C91 C 0.57643 0.49502 0.90251 0.0
C92 C 0.59648 0.46044 0.91878 0.0
H93 H 0.47116 0.49119 0.01258 0.0
H94 H 0.39334 0.44626 0.09169 0.0
H95 H 0.50849 0.56217 0.10527 0.0
N96 N 0.53052 0.56094 0.04449 0.0
N97 N 0.54404 0.59887 0.05723 0.0
C98 C 0.46516 0.49507 0.03749 0.0
C99 C 0.42811 0.46514 0.04971 0.0
C100 C 0.49325 0.53083 0.05717 0.0
C101 C 0.48547 0.53556 0.08962 0.0
C102 C 0.45032 0.50462 0.1024 0.0
C103 C 0.42114 0.47001 0.08211 0.0
C104 C 0.17748 0.10467 0.98686 0.0
C105 C 0.126 0.10854 0.99325 0.0
C106 C 0.21303 0.14226 0.98387 0.0
C107 C 0.21978 0.26211 0.97154 0.0
H108 H 0.36076 0.26907 0.01959 0.0
C109 C 0.34124 0.42251 0.02725 0.0
C110 C 0.39656 0.42796 0.02942 0.0
C111 C 0.31115 0.38366 0.01338 0.0
C112 C 0.32201 0.26739 0.00539 0.0
H113 H 0.07124 0.15488 0.00097 0.0
H114 H 0.13324 0.22017 0.99625 0.0
H115 H 0.30204 0.19946 0.01398 0.0
H116 H 0.46397 0.39852 0.01742 0.0
H117 H 0.41111 0.32975 0.99324 0.0
H118 H 0.239 0.33066 0.96433 0.0
C119 C 0.14603 0.18817 0.99304 0.0
C120 C 0.28827 0.22748 0.00222 0.0
C121 C 0.11059 0.15069 0.99605 0.0
C122 C 0.42125 0.39497 0.01583 0.0
C123 C 0.39111 0.35567 0.00225 0.0
C124 C 0.25344 0.30202 0.9748 0.0
C125 C 0.19778 0.18447 0.9871 0.0
C126 C 0.23617 0.22477 0.98617 0.0
C127 C 0.33585 0.34921 0.00169 0.0
C128 C 0.3043 0.30542 0.99265 0.0
H129 H 0.19048 0.07262 0.98439 0.0
H130 H 0.25247 0.13828 0.97906 0.0
H131 H 0.18029 0.26085 0.95839 0.0
H132 H 0.32147 0.44761 0.03763 0.0
H133 H 0.2688 0.37958 0.01366 0.0
C134 C 0.19034 0.82878 0.00257 0.0
C135 C 0.20728 0.87109 0.99322 0.0
C136 C 0.22536 0.79707 0.00552 0.0
C137 C 0.34313 0.77234 0.97178 0.0
H138 H 0.35779 0.68696 0.03678 0.0
C139 C 0.50468 0.66251 0.97215 0.0
C140 C 0.49015 0.61756 0.97506 0.0
C141 C 0.47196 0.69295 0.98007 0.0
C142 C 0.35381 0.71047 0.01838 0.0
H143 H 0.27473 0.91475 0.98262 0.0
H144 H 0.33573 0.86023 0.98825 0.0
H145 H 0.29578 0.74111 0.04033 0.0
H146 H 0.43133 0.56871 0.99007 0.0
H147 H 0.37305 0.62204 0.00341 0.0
H148 H 0.39994 0.74198 0.94944 0.0
C149 C 0.29528 0.8508 0.99231 0.0
C150 C 0.31834 0.74139 0.0204 0.0
C151 C 0.26045 0.88208 0.98915 0.0
C152 C 0.4435 0.6034 0.98776 0.0
C153 C 0.41024 0.63394 0.99542 0.0
C154 C 0.3782 0.74167 0.96974 0.0
C155 C 0.27776 0.80746 -0.00069 0.0
C156 C 0.31331 0.7731 0.99733 0.0
C157 C 0.42327 0.67892 0.99053 0.0
C158 C 0.38472 0.71075 0.99322 0.0
H159 H 0.14947 0.81961 0.00581 0.0
H160 H 0.21073 0.76395 0.01099 0.0
H161 H 0.33909 0.79542 0.95306 0.0
H162 H 0.5407 0.67387 0.96264 0.0
H163 H 0.48393 0.72745 0.97685 0.0
C164 C 0.87894 0.89939 0.02707 0.0
C165 C 0.92348 0.89231 0.01262 0.0
C166 C 0.84032 0.86446 0.03052 0.0
C167 C 0.7798 0.75521 0.99758 0.0
H168 H 0.72805 0.7484 0.07983 0.0
C169 C 0.61936 0.61618 0.02711 0.0
C170 C 0.58356 0.62927 0.04688 0.0
C171 C 0.66175 0.64641 0.02076 0.0
C172 C 0.74152 0.75008 0.05656 0.0
H173 H 0.96223 0.84289 0.99025 0.0
H174 H 0.89372 0.78134 0.99606 0.0
H175 H 0.80203 0.80353 0.07364 0.0
H176 H 0.56179 0.68357 0.07399 0.0
H177 H 0.63459 0.73679 0.06234 0.0
H178 H 0.71821 0.70222 0.98033 0.0
C179 C 0.88919 0.8142 0.00473 0.0
C180 C 0.78416 0.78153 0.05311 0.0
C181 C 0.92844 0.8493 0.00159 0.0
C182 C 0.58931 0.67302 0.05891 0.0
C183 C 0.6312 0.70321 0.05244 0.0
C184 C 0.73668 0.72374 0.00098 0.0
C185 C 0.84492 0.82152 0.01941 0.0
C186 C 0.80317 0.78499 0.02347 0.0
C187 C 0.66888 0.69003 0.03408 0.0
C188 C 0.71642 0.72144 0.03038 0.0
H189 H 0.87381 0.93207 0.03584 0.0
H190 H 0.80635 0.87118 0.04159 0.0
H191 H 0.79356 0.75734 0.97441 0.0
H192 H 0.61581 0.5824 0.01761 0.0
H193 H 0.69006 0.63516 0.00658 0.0
C194 C 0.84606 0.15307 0.98914 0.0
C195 C 0.86736 0.14403 0.0203 0.0
C196 C 0.81607 0.1878 0.98437 0.0
C197 C 0.74144 0.26134 0.02846 0.0
H198 H 0.73961 0.32366 0.95008 0.0
C199 C 0.64459 0.42147 0.99575 0.0
C200 C 0.61081 0.41575 0.96617 0.0
C201 C 0.67384 0.38788 0.00627 0.0
C202 C 0.73988 0.30646 0.97209 0.0
H203 H 0.8765 0.16517 0.07075 0.0
H204 H 0.8263 0.22699 0.06252 0.0
H205 H 0.7989 0.26831 0.96 0.0
H206 H 0.57696 0.36921 0.92614 0.0
H207 H 0.62873 0.31126 0.9442 0.0
H208 H 0.68309 0.30103 0.04061 0.0
C209 C 0.83068 0.2064 0.04176 0.0
C210 C 0.77348 0.27448 0.9777 0.0
C211 C 0.85976 0.17119 0.04652 0.0
C212 C 0.60348 0.37477 0.94873 0.0
C213 C 0.63299 0.34165 0.959 0.0
C214 C 0.70848 0.29404 0.02306 0.0
C215 C 0.80766 0.21481 0.01066 0.0
C216 C 0.77413 0.25087 0.0057 0.0
C217 C 0.66971 0.34851 0.9872 0.0
C218 C 0.70687 0.31623 0.99457 0.0
H219 H 0.85096 0.13224 0.96862 0.0
H220 H 0.79831 0.19259 0.96011 0.0
H221 H 0.74015 0.24352 0.05008 0.0
H222 H 0.65103 0.45277 0.00959 0.0
H223 H 0.70198 0.39366 0.02818 0.0
C224 C 0.61068 0.65071 0.49604 0.0
C225 C 0.62607 0.60855 0.49325 0.0
C226 C 0.64615 0.68817 0.49301 0.0
C227 C 0.78839 0.72744 0.50222 0.0
H228 H 0.73919 0.83061 0.46427 0.0
C229 C 0.92138 0.89493 0.51584 0.0
C230 C 0.89667 0.92793 0.5294 0.0
C231 C 0.89125 0.85562 0.50226 0.0
C232 C 0.75361 0.80197 0.47476 0.0
H233 H 0.69054 0.5726 0.48443 0.0
H234 H 0.75257 0.63822 0.47908 0.0
H235 H 0.68046 0.76081 0.45833 0.0
H236 H 0.82158 0.94758 0.53758 0.0
H237 H 0.76892 0.87954 0.5136 0.0
H238 H 0.86088 0.76903 0.51961 0.0
C239 C 0.71313 0.64223 0.48388 0.0
C240 C 0.71994 0.76207 0.4715 0.0
C241 C 0.67755 0.60465 0.48688 0.0
C242 C 0.84135 0.92248 0.52721 0.0
C243 C 0.81128 0.88362 0.51334 0.0
C244 C 0.82214 0.76735 0.50539 0.0
C245 C 0.69789 0.68444 0.48709 0.0
C246 C 0.7363 0.72473 0.48615 0.0
C247 C 0.83599 0.84917 0.50167 0.0
C248 C 0.80445 0.80538 0.49262 0.0
H249 H 0.57134 0.65492 0.50094 0.0
H250 H 0.63337 0.72018 0.49621 0.0
H251 H 0.80214 0.69943 0.51399 0.0
H252 H 0.9641 0.89848 0.51744 0.0
H253 H 0.91127 0.8297 0.49326 0.0
C254 C 0.6903 0.32879 0.50258 0.0
C255 C 0.70722 0.3711 0.49322 0.0
C256 C 0.72532 0.29709 0.50553 0.0
C257 C 0.84308 0.27237 0.47178 0.0
H258 H 0.85781 0.18702 0.5368 0.0
C259 C 1.00466 0.16258 0.47214 0.0
C260 C 0.99015 0.11763 0.47505 0.0
C261 C 0.97194 0.19302 0.48006 0.0
C262 C 0.85382 0.21052 0.51839 0.0
H263 H 0.77466 0.41477 0.4826 0.0
H264 H 0.83567 0.36027 0.48824 0.0
H265 H 0.79579 0.24116 0.54034 0.0
H266 H 0.93136 0.06878 0.49008 0.0
H267 H 0.87307 0.1221 0.50342 0.0
H268 H 0.89989 0.24202 0.44943 0.0
C269 C 0.79522 0.35083 0.49231 0.0
C270 C 0.81833 0.24143 0.52041 0.0
C271 C 0.76038 0.3821 0.48915 0.0
C272 C 0.94352 0.10347 0.48776 0.0
C273 C 0.91025 0.13401 0.49543 0.0
C274 C 0.87817 0.24172 0.46974 0.0
C275 C 0.77772 0.30749 0.49932 0.0
C276 C 0.81328 0.27314 0.49733 0.0
C277 C 0.92326 0.17898 0.49052 0.0
C278 C 0.88471 0.2108 0.49322 0.0
H279 H 0.64942 0.31962 0.50582 0.0
H280 H 0.71071 0.26397 0.51101 0.0
H281 H 0.83903 0.29544 0.45305 0.0
H282 H 0.04067 0.17394 0.46261 0.0
H283 H 0.9839 0.22751 0.47683 0.0
C284 C 0.37883 0.39953 0.52703 0.0
C285 C 0.42339 0.39242 0.51262 0.0
C286 C 0.34019 0.36461 0.53048 0.0
C287 C 0.27969 0.25533 0.49756 0.0
H288 H 0.22781 0.24861 0.57977 0.0
C289 C 0.11933 0.11626 0.5271 0.0
C290 C 0.08349 0.12933 0.54685 0.0
C291 C 0.1617 0.14651 0.52076 0.0
C292 C 0.24132 0.25027 0.55652 0.0
H293 H 0.46216 0.34297 0.49029 0.0
H294 H 0.3936 0.28144 0.49609 0.0
H295 H 0.30178 0.30375 0.5736 0.0
H296 H 0.06162 0.18362 0.57391 0.0
H297 H 0.13436 0.2369 0.56226 0.0
H298 H 0.21815 0.20231 0.48032 0.0
C299 C 0.38908 0.31432 0.50474 0.0
C300 C 0.28395 0.28172 0.55307 0.0
C301 C 0.42835 0.3494 0.50161 0.0
C302 C 0.08917 0.17309 0.55885 0.0
C303 C 0.13103 0.20331 0.55238 0.0
C304 C 0.23657 0.22386 0.50096 0.0
C305 C 0.34478 0.32166 0.51939 0.0
C306 C 0.30302 0.28514 0.52345 0.0
C307 C 0.16875 0.19014 0.53405 0.0
C308 C 0.21627 0.22158 0.53035 0.0
H309 H 0.37371 0.43221 0.53579 0.0
H310 H 0.3062 0.37135 0.54152 0.0
H311 H 0.29349 0.25743 0.47441 0.0
H312 H 0.11584 0.08247 0.51762 0.0
H313 H 0.19003 0.13527 0.50659 0.0
C314 C 0.34614 0.65319 0.48917 0.0
C315 C 0.36746 0.64417 0.52032 0.0
C316 C 0.31615 0.68791 0.48439 0.0
C317 C 0.24157 0.76149 0.52848 0.0
H318 H 0.23964 0.82374 0.45007 0.0
C319 C 0.14465 0.92158 0.49575 0.0
C320 C 0.11086 0.91585 0.46618 0.0
C321 C 0.17391 0.88799 0.50628 0.0
C322 C 0.23993 0.80656 0.47209 0.0
H323 H 0.37666 0.66535 0.57077 0.0
H324 H 0.32646 0.72717 0.56253 0.0
H325 H 0.29895 0.7684 0.46 0.0
H326 H 0.077 0.86929 0.42616 0.0
H327 H 0.12879 0.81135 0.44421 0.0
H328 H 0.18322 0.80119 0.54064 0.0
C329 C 0.33081 0.70657 0.54177 0.0
C330 C 0.27355 0.77458 0.47771 0.0
C331 C 0.3599 0.67135 0.54654 0.0
C332 C 0.10353 0.87486 0.44875 0.0
C333 C 0.13305 0.84175 0.45901 0.0
C334 C 0.2086 0.79418 0.52308 0.0
C335 C 0.30776 0.71495 0.51068 0.0
C336 C 0.27423 0.751 0.50571 0.0
C337 C 0.16978 0.84862 0.48721 0.0
C338 C 0.20695 0.81635 0.49458 0.0
H339 H 0.35101 0.63234 0.46865 0.0
H340 H 0.29836 0.69269 0.46013 0.0
H341 H 0.24029 0.74369 0.55012 0.0
H342 H 0.15109 0.95288 0.50958 0.0
H343 H 0.20206 0.89379 0.52818 0.0
C344 C 0.09354 0.96625 0.11336 0.0
C345 C 0.08259 0.00367 0.09698 0.0
C346 C 0.10099 0.96808 0.14708 0.0
C347 C 0.0679 0.03513 0.21544 0.0
H348 H 0.15249 0.96073 0.26698 0.0
C349 C 0.09085 0.0404 0.35491 0.0
C350 C 0.08099 0.99903 0.36775 0.0
C351 C 0.09597 0.0434 0.32231 0.0
C352 C 0.12875 0.9817 0.25281 0.0
H353 H 0.07501 0.07299 0.10248 0.0
H354 H 0.091 0.07698 0.16094 0.0
H355 H 0.15611 0.96211 0.20926 0.0
H356 H 0.067 0.92844 0.35587 0.0
H357 H 0.07758 0.93387 0.29955 0.0
H358 H 0.04103 0.05491 0.25916 0.0
C359 C 0.09142 0.04565 0.14818 0.0
C360 C 0.13057 0.98235 0.21972 0.0
C361 C 0.08283 0.04354 0.11465 0.0
C362 C 0.07603 0.96086 0.34713 0.0
C363 C 0.08193 0.96387 0.31479 0.0
C364 C 0.06674 0.03495 0.24853 0.0
C365 C 0.09855 0.0076 0.16491 0.0
C366 C 0.09967 0.00871 0.2005 0.0
C367 C 0.09199 0.0051 0.30206 0.0
C368 C 0.09658 0.00782 0.26745 0.0
H369 H 0.0931 0.93505 0.10017 0.0
H370 H 0.10598 0.93799 0.15902 0.0
H371 H 0.0425 0.05508 0.20148 0.0
H372 H 0.09545 0.07045 0.37009 0.0
H373 H 0.10379 0.07562 0.31302 0.0
C374 C 0.98141 0.9661 0.88811 0.0
C375 C 0.97093 0.99984 0.90897 0.0
C376 C 0.96953 0.96811 0.85484 0.0
C377 C 0.96178 0.04553 0.79278 0.0
H378 H 0.89138 0.94459 0.73775 0.0
C379 C 0.93971 0.04598 0.65352 0.0
C380 C 0.94618 0.00655 0.63723 0.0
C381 C 0.93566 0.04714 0.68643 0.0
C382 C 0.91161 0.97297 0.75271 0.0
H383 H 0.9392 0.06188 0.91147 0.0
H384 H 0.91959 0.0659 0.85292 0.0
H385 H 0.8962 0.94239 0.79597 0.0
H386 H 0.95507 0.93785 0.64263 0.0
H387 H 0.94964 0.93998 0.69986 0.0
H388 H 0.97977 0.07536 0.74981 0.0
C389 C 0.93646 0.03774 0.86252 0.0
C390 C 0.91396 0.97175 0.78604 0.0
C391 C 0.94738 0.03529 0.89592 0.0
C392 C 0.94911 0.96851 0.65446 0.0
C393 C 0.94568 0.96974 0.68729 0.0
C394 C 0.96013 0.04655 0.75941 0.0
C395 C 0.9478 0.00428 0.84172 0.0
C396 C 0.93984 0.0077 0.80639 0.0
C397 C 0.93862 0.00897 0.70375 0.0
C398 C 0.93595 0.00989 0.73897 0.0
H399 H 0.99952 0.93838 0.89749 0.0
H400 H 0.97907 0.94208 0.83932 0.0
H401 H 0.98239 0.07354 0.80802 0.0
H402 H 0.93705 0.07573 0.64072 0.0
H403 H 0.92971 0.07783 0.69819 0.0
C404 C 0.58286 0.54355 0.61467 0.0
C405 C 0.58261 0.50368 0.59699 0.0
C406 C 0.59144 0.54564 0.64819 0.0
C407 C 0.63056 0.4823 0.71973 0.0
H408 H 0.54106 0.55488 0.75917 0.0
C409 C 0.57601 0.4608 0.84713 0.0
C410 C 0.58099 0.49896 0.86776 0.0
C411 C 0.58192 0.46381 0.81479 0.0
C412 C 0.56676 0.53492 0.74855 0.0
H413 H 0.59307 0.43506 0.60016 0.0
H414 H 0.60595 0.43797 0.65902 0.0
H415 H 0.54253 0.55507 0.70149 0.0
H416 H 0.59546 0.57038 0.8701 0.0
H417 H 0.60381 0.57557 0.81304 0.0
H418 H 0.65247 0.46066 0.76698 0.0
C419 C 0.60098 0.46807 0.64708 0.0
C420 C 0.56792 0.53511 0.71545 0.0
C421 C 0.59353 0.46625 0.61336 0.0
C422 C 0.59086 0.54034 0.85492 0.0
C423 C 0.59598 0.54334 0.82232 0.0
C424 C 0.62874 0.48165 0.75281 0.0
C425 C 0.59856 0.50759 0.66491 0.0
C426 C 0.59968 0.50868 0.70051 0.0
C427 C 0.59199 0.50505 0.80207 0.0
C428 C 0.59658 0.50777 0.76746 0.0
H429 H 0.57506 0.57301 0.6025 0.0
H430 H 0.59104 0.57697 0.66096 0.0
H431 H 0.65609 0.46206 0.70926 0.0
H432 H 0.56698 0.42838 0.85586 0.0
H433 H 0.57757 0.43382 0.79954 0.0
C434 C 0.48134 0.46619 0.38812 0.0
C435 C 0.47091 0.49994 0.40899 0.0
C436 C 0.46945 0.4682 0.35485 0.0
C437 C 0.46178 0.54562 0.29279 0.0
H438 H 0.39124 0.44471 0.23777 0.0
C439 C 0.43968 0.54605 0.15353 0.0
C440 C 0.4461 0.5066 0.13724 0.0
C441 C 0.43563 0.54722 0.18644 0.0
C442 C 0.41151 0.47308 0.25273 0.0
H443 H 0.43926 0.56201 0.4115 0.0
H444 H 0.41964 0.56604 0.35294 0.0
H445 H 0.39608 0.44252 0.29599 0.0
H446 H 0.45491 0.43788 0.14264 0.0
H447 H 0.44948 0.44004 0.19988 0.0
H448 H 0.47979 0.57543 0.24982 0.0
C449 C 0.43647 0.53786 0.36254 0.0
C450 C 0.41387 0.47187 0.28606 0.0
C451 C 0.4474 0.53541 0.39594 0.0
C452 C 0.44898 0.46856 0.15447 0.0
C453 C 0.44556 0.4698 0.18731 0.0
C454 C 0.46012 0.54663 0.25942 0.0
C455 C 0.44777 0.50438 0.34173 0.0
C456 C 0.4398 0.50781 0.30641 0.0
C457 C 0.43855 0.50905 0.20376 0.0
C458 C 0.43589 0.50998 0.23898 0.0
H459 H 0.49942 0.43845 0.3975 0.0
H460 H 0.47896 0.44215 0.33933 0.0
H461 H 0.48243 0.57362 0.30803 0.0
H462 H 0.43706 0.57579 0.14073 0.0
H463 H 0.42973 0.57792 0.1982 0.0
loop_
_geom_bond_atom_site_label_1
_geom_bond_atom_site_label_2
_geom_bond_distance
_geom_bond_site_symmetry_2
_ccdc_geom_bond_type
Co0 N5 2.057 . S
Co0 O17 2.021 . S
Co0 O20 2.062 1_455 S
Co0 O24 2.117 1_554 S
Co0 O25 2.020 1_565 S
C1 O21 1.259 1_455 S
C1 O24 1.258 1_545 S
Co2 N11 2.057 . S
Co2 O18 2.116 . S
Co2 O19 2.018 1_545 S
Co2 O21 2.021 1_554 S
Co2 O26 2.062 1_655 S
C3 N5 1.316 . S
C3 N6 1.347 . S
C3 H8 0.931 . S
C4 N5 1.375 1_556 S
C4 C7 1.350 . S
C4 H9 0.930 . S
N5 Co0 2.057 . S
N5 C3 1.316 . S
N5 C4 1.375 1_554 S
N6 C3 1.347 . S
N6 C7 1.373 1_554 S
C7 C4 1.350 . S
C7 N6 1.373 1_556 S
C7 H28 0.931 . S
H8 C3 0.931 . S
H9 C4 0.930 . S
C10 O17 1.259 1_545 S
C10 O18 1.260 1_455 S
N11 Co2 2.057 . S
N11 C12 1.316 1_554 S
N11 C13 1.375 . S
C12 N11 1.316 1_556 S
C12 N14 1.347 1_556 S
C12 H23 0.931 . S
C13 N11 1.375 . S
C13 C15 1.350 . S
C13 H22 0.930 . S
N14 C12 1.347 1_554 S
N14 C15 1.373 . S
C15 C13 1.350 . S
C15 N14 1.373 . S
C15 H29 0.931 . S
C16 O19 1.257 . S
C16 O20 1.255 . S
O17 Co0 2.021 . S
O17 C10 1.259 1_565 S
O18 Co2 2.116 . S
O18 C10 1.260 1_655 S
O19 Co2 2.018 1_565 S
O19 C16 1.257 . S
O20 Co0 2.062 1_655 S
O20 C16 1.255 . S
O21 C1 1.259 1_655 S
O21 Co2 2.021 1_556 S
H22 C13 0.930 . S
H23 C12 0.931 . S
O24 Co0 2.117 1_556 S
O24 C1 1.258 1_565 S
O25 Co0 2.020 1_545 S
O25 C27 1.256 . S
O26 Co2 2.062 1_455 S
O26 C27 1.255 . S
C27 O25 1.256 . S
C27 O26 1.255 . S
H28 C7 0.931 . S
H29 C15 0.931 . S
Co30 N35 2.057 . S
Co30 O47 2.021 . S
Co30 O50 2.062 . S
Co30 O54 2.117 . S
Co30 O55 2.020 . S
C31 O51 1.259 . S
C31 O54 1.258 . S
Co32 N41 2.057 . S
Co32 O48 2.117 . S
Co32 O49 2.020 . S
Co32 O51 2.021 . S
Co32 O56 2.062 . S
C33 N35 1.316 . S
C33 N36 1.347 . S
C33 H38 0.931 . S
C34 N35 1.375 . S
C34 C37 1.350 . S
C34 H39 0.930 . S
N35 Co30 2.057 . S
N35 C33 1.316 . S
N35 C34 1.375 . S
N36 C33 1.347 . S
N36 C37 1.373 . S
C37 C34 1.350 . S
C37 N36 1.373 . S
C37 H58 0.931 . S
H38 C33 0.931 . S
H39 C34 0.930 . S
C40 O47 1.259 . S
C40 O48 1.258 . S
N41 Co32 2.057 . S
N41 C42 1.316 . S
N41 C43 1.375 . S
C42 N41 1.316 . S
C42 N44 1.347 . S
C42 H53 0.931 . S
C43 N41 1.375 . S
C43 C45 1.350 . S
C43 H52 0.930 . S
N44 C42 1.347 . S
N44 C45 1.373 . S
C45 C43 1.350 . S
C45 N44 1.373 . S
C45 H59 0.931 . S
C46 O49 1.256 . S
C46 O50 1.255 . S
O47 Co30 2.021 . S
O47 C40 1.259 . S
O48 Co32 2.117 . S
O48 C40 1.258 . S
O49 Co32 2.020 . S
O49 C46 1.256 . S
O50 Co30 2.062 . S
O50 C46 1.255 . S
O51 C31 1.259 . S
O51 Co32 2.021 . S
H52 C43 0.930 . S
H53 C42 0.931 . S
O54 Co30 2.117 . S
O54 C31 1.258 . S
O55 Co30 2.020 . S
O55 C57 1.256 . S
O56 Co32 2.062 . S
O56 C57 1.255 . S
C57 O55 1.256 . S
C57 O56 1.255 . S
H58 C37 0.931 . S
H59 C45 0.931 . S
H60 C65 0.929 . S
H61 C70 0.931 . S
H62 C68 0.930 1_655 S
N63 N64 1.234 . S
N63 C67 1.453 1_655 S
N64 N63 1.234 . S
C65 H60 0.929 . S
C65 C66 1.373 . S
C65 C67 1.368 1_565 S
C66 C65 1.373 . S
C66 C70 1.397 . S
C67 N63 1.453 1_455 S
C67 C65 1.368 1_545 S
C67 C68 1.373 . S
C68 H62 0.930 1_455 S
C68 C67 1.373 . S
C68 C69 1.371 1_545 S
C69 C68 1.371 1_565 S
C69 C70 1.383 . S
C70 H61 0.931 . S
C70 C66 1.397 . S
C70 C69 1.383 . S
H71 C76 0.929 . S
H72 C81 0.931 . S
H73 C79 0.930 . S
N74 N75 1.234 . S
N74 C78 1.453 . S
N75 N74 1.234 . S
C76 H71 0.929 . S
C76 C77 1.373 . S
C76 C78 1.368 1_665 S
C77 C76 1.373 . S
C77 C81 1.397 . S
C78 N74 1.453 . S
C78 C76 1.368 1_445 S
C78 C79 1.373 . S
C79 H73 0.930 . S
C79 C78 1.373 . S
C79 C80 1.371 1_455 S
C80 C79 1.371 1_655 S
C80 C81 1.383 1_545 S
C81 H72 0.931 . S
C81 C77 1.397 . S
C81 C80 1.383 1_565 S
H82 C87 0.929 . S
H83 C92 0.931 . S
H84 C90 0.930 . S
N85 N86 1.234 . S
N85 C89 1.453 . S
N86 N85 1.234 . S
C87 H82 0.929 . S
C87 C88 1.373 . S
C87 C89 1.368 . S
C88 C87 1.373 . S
C88 C92 1.397 . S
C89 N85 1.453 . S
C89 C87 1.368 . S
C89 C90 1.373 . S
C90 H84 0.930 . S
C90 C89 1.373 . S
C90 C91 1.371 . S
C91 C90 1.371 . S
C91 C92 1.383 . S
C92 H83 0.931 . S
C92 C88 1.397 . S
C92 C91 1.383 . S
H93 C98 0.929 . S
H94 C103 0.931 . S
H95 C101 0.930 . S
N96 N97 1.234 . S
N96 C100 1.453 . S
N97 N96 1.234 . S
C98 H93 0.929 . S
C98 C99 1.373 . S
C98 C100 1.368 . S
C99 C98 1.373 . S
C99 C103 1.397 . S
C100 N96 1.453 . S
C100 C98 1.368 . S
C100 C101 1.373 . S
C101 H95 0.930 . S
C101 C100 1.373 . S
C101 C102 1.371 . S
C102 C101 1.371 . S
C102 C103 1.383 . S
C103 H94 0.931 . S
C103 C99 1.397 . S
C103 C102 1.383 . S
C104 C105 1.349 . S
C104 C106 1.327 . S
C104 H129 0.950 . S
C105 C104 1.349 . S
C105 C121 1.349 1_554 S
C106 C104 1.327 . S
C106 C125 1.429 . S
C106 H130 0.950 . S
C107 C124 1.574 1_556 S
C107 C126 1.357 1_556 S
C107 H131 0.959 . S
H108 C112 0.949 . S
C109 C110 1.349 . S
C109 C111 1.327 . S
C109 H132 0.950 . S
C110 C109 1.349 . S
C110 C122 1.349 . S
C111 C109 1.327 . S
C111 C127 1.429 . S
C111 H133 0.950 1_554 S
C112 H108 0.949 . S
C112 C120 1.574 . S
C112 C128 1.368 . S
H113 C121 0.950 . S
H114 C119 0.950 . S
H115 C120 0.949 . S
H116 C122 0.950 . S
H117 C123 0.950 . S
H118 C124 0.949 1_556 S
C119 H114 0.950 . S
C119 C121 1.327 . S
C119 C125 1.429 1_556 S
C120 C112 1.574 . S
C120 H115 0.949 . S
C120 C126 1.368 . S
C121 C105 1.349 1_556 S
C121 H113 0.950 . S
C121 C119 1.327 . S
C122 C110 1.349 . S
C122 H116 0.950 . S
C122 C123 1.327 . S
C123 H117 0.950 . S
C123 C122 1.327 . S
C123 C127 1.429 . S
C124 C107 1.574 1_554 S
C124 H118 0.949 1_554 S
C124 C128 1.368 . S
C125 C106 1.429 . S
C125 C119 1.429 1_554 S
C125 C126 1.523 . S
C126 C107 1.357 1_554 S
C126 C120 1.368 . S
C126 C125 1.523 . S
C127 C111 1.429 . S
C127 C123 1.429 . S
C127 C128 1.523 . S
C128 C112 1.368 . S
C128 C124 1.368 . S
C128 C127 1.523 . S
H129 C104 0.950 . S
H130 C106 0.950 . S
H131 C107 0.959 . S
H132 C109 0.950 . S
H133 C111 0.950 1_556 S
C134 C135 1.349 . S
C134 C136 1.327 . S
C134 H159 0.950 . S
C135 C134 1.349 . S
C135 C151 1.349 1_554 S
C136 C134 1.327 . S
C136 C155 1.429 . S
C136 H160 0.950 . S
C137 C154 1.574 . S
C137 C156 1.355 1_556 S
C137 H161 0.949 . S
H138 C142 0.949 . S
C139 C140 1.349 . S
C139 C141 1.327 . S
C139 H162 0.950 . S
C140 C139 1.349 . S
C140 C152 1.322 1_556 S
C141 C139 1.327 . S
C141 C157 1.429 . S
C141 H163 0.950 . S
C142 H138 0.949 . S
C142 C150 1.574 . S
C142 C158 1.368 1_554 S
H143 C151 0.950 . S
H144 C149 0.950 . S
H145 C150 0.949 . S
H146 C152 0.970 . S
H147 C153 0.950 . S
H148 C154 0.949 . S
C149 H144 0.950 . S
C149 C151 1.327 . S
C149 C155 1.429 1_556 S
C150 C142 1.574 . S
C150 H145 0.949 . S
C150 C156 1.379 . S
C151 C135 1.349 1_556 S
C151 H143 0.950 . S
C151 C149 1.327 . S
C152 C140 1.322 1_554 S
C152 H146 0.970 . S
C152 C153 1.335 . S
C153 H147 0.950 . S
C153 C152 1.335 . S
C153 C157 1.429 1_554 S
C154 C137 1.574 . S
C154 H148 0.949 . S
C154 C158 1.368 . S
C155 C136 1.429 . S
C155 C149 1.429 1_554 S
C155 C156 1.526 . S
C156 C137 1.355 1_554 S
C156 C150 1.379 . S
C156 C155 1.526 . S
C157 C141 1.429 . S
C157 C153 1.429 1_556 S
C157 C158 1.523 . S
C158 C142 1.368 1_556 S
C158 C154 1.368 . S
C158 C157 1.523 . S
H159 C134 0.950 . S
H160 C136 0.950 . S
H161 C137 0.949 . S
H162 C139 0.950 . S
H163 C141 0.950 . S
C164 C165 1.349 . S
C164 C166 1.327 . S
C164 H189 0.950 . S
C165 C164 1.349 . S
C165 C181 1.349 1_554 S
C166 C164 1.327 . S
C166 C185 1.429 . S
C166 H190 0.950 . S
C167 C184 1.583 . S
C167 C186 1.368 1_556 S
C167 H191 0.949 . S
H168 C172 0.949 . S
C169 C170 1.349 . S
C169 C171 1.327 . S
C169 H192 0.950 1_554 S
C170 C169 1.349 . S
C170 C182 1.349 . S
C171 C169 1.327 . S
C171 C187 1.429 . S
C171 H193 0.950 1_554 S
C172 H168 0.949 . S
C172 C180 1.574 . S
C172 C188 1.368 . S
H173 C181 0.950 . S
H174 C179 0.950 . S
H175 C180 0.949 . S
H176 C182 0.950 . S
H177 C183 0.950 . S
H178 C184 0.966 . S
C179 H174 0.950 . S
C179 C181 1.327 . S
C179 C185 1.429 1_556 S
C180 C172 1.574 . S
C180 H175 0.949 . S
C180 C186 1.368 . S
C181 C165 1.349 1_556 S
C181 H173 0.950 . S
C181 C179 1.327 . S
C182 C170 1.349 . S
C182 H176 0.950 . S
C182 C183 1.327 . S
C183 H177 0.950 . S
C183 C182 1.327 . S
C183 C187 1.429 . S
C184 C167 1.583 . S
C184 H178 0.966 . S
C184 C188 1.342 1_556 S
C185 C166 1.429 . S
C185 C179 1.429 1_554 S
C185 C186 1.523 . S
C186 C167 1.368 1_554 S
C186 C180 1.368 . S
C186 C185 1.523 . S
C187 C171 1.429 . S
C187 C183 1.429 . S
C187 C188 1.523 . S
C188 C172 1.368 . S
C188 C184 1.342 1_554 S
C188 C187 1.523 . S
H189 C164 0.950 . S
H190 C166 0.950 . S
H191 C167 0.949 . S
H192 C169 0.950 1_556 S
H193 C171 0.950 1_556 S
C194 C195 1.349 . S
C194 C196 1.327 . S
C194 H219 0.950 . S
C195 C194 1.349 . S
C195 C211 1.349 1_556 S
C196 C194 1.327 . S
C196 C215 1.429 . S
C196 H220 0.950 . S
C197 C214 1.574 . S
C197 C216 1.368 1_554 S
C197 H221 0.949 . S
H198 C202 0.949 . S
C199 C200 1.349 . S
C199 C201 1.327 . S
C199 H222 0.950 1_556 S
C200 C199 1.349 . S
C200 C212 1.349 . S
C201 C199 1.327 . S
C201 C217 1.429 . S
C201 H223 0.950 1_556 S
C202 H198 0.949 . S
C202 C210 1.574 . S
C202 C218 1.368 . S
H203 C211 0.950 . S
H204 C209 0.950 . S
H205 C210 0.949 . S
H206 C212 0.950 . S
H207 C213 0.950 . S
H208 C214 0.949 . S
C209 H204 0.950 . S
C209 C211 1.327 . S
C209 C215 1.429 1_554 S
C210 C202 1.574 . S
C210 H205 0.949 . S
C210 C216 1.368 . S
C211 C195 1.349 1_554 S
C211 H203 0.950 . S
C211 C209 1.327 . S
C212 C200 1.349 . S
C212 H206 0.950 . S
C212 C213 1.327 . S
C213 H207 0.950 . S
C213 C212 1.327 . S
C213 C217 1.429 . S
C214 C197 1.574 . S
C214 H208 0.949 . S
C214 C218 1.368 1_554 S
C215 C196 1.429 . S
C215 C209 1.429 1_556 S
C215 C216 1.523 . S
C216 C197 1.368 1_556 S
C216 C210 1.368 . S
C216 C215 1.523 . S
C217 C201 1.429 . S
C217 C213 1.429 . S
C217 C218 1.523 . S
C218 C202 1.368 . S
C218 C214 1.368 1_556 S
C218 C217 1.523 . S
H219 C194 0.950 . S
H220 C196 0.950 . S
H221 C197 0.949 . S
H222 C199 0.950 1_554 S
H223 C201 0.950 1_554 S
C224 C225 1.349 . S
C224 C226 1.327 . S
C224 H249 0.950 . S
C225 C224 1.349 . S
C225 C241 1.349 . S
C226 C224 1.327 . S
C226 C245 1.429 . S
C226 H250 0.950 . S
C227 C244 1.574 . S
C227 C246 1.368 . S
C227 H251 0.949 . S
H228 C232 0.949 . S
C229 C230 1.349 . S
C229 C231 1.327 . S
C229 H252 0.950 . S
C230 C229 1.349 . S
C230 C242 1.349 . S
C231 C229 1.327 . S
C231 C247 1.429 . S
C231 H253 0.950 . S
C232 H228 0.949 . S
C232 C240 1.574 . S
C232 C248 1.368 . S
H233 C241 0.950 . S
H234 C239 0.950 . S
H235 C240 0.949 . S
H236 C242 0.950 . S
H237 C243 0.950 . S
H238 C244 0.949 . S
C239 H234 0.950 . S
C239 C241 1.327 . S
C239 C245 1.429 . S
C240 C232 1.574 . S
C240 H235 0.949 . S
C240 C246 1.368 . S
C241 C225 1.349 . S
C241 H233 0.950 . S
C241 C239 1.327 . S
C242 C230 1.349 . S
C242 H236 0.950 . S
C242 C243 1.327 . S
C243 H237 0.950 . S
C243 C242 1.327 . S
C243 C247 1.429 . S
C244 C227 1.574 . S
C244 H238 0.949 . S
C244 C248 1.368 . S
C245 C226 1.429 . S
C245 C239 1.429 . S
C245 C246 1.523 . S
C246 C227 1.368 . S
C246 C240 1.368 . S
C246 C245 1.523 . S
C247 C231 1.429 . S
C247 C243 1.429 . S
C247 C248 1.523 . S
C248 C232 1.368 . S
C248 C244 1.368 . S
C248 C247 1.523 . S
H249 C224 0.950 . S
H250 C226 0.950 . S
H251 C227 0.949 . S
H252 C229 0.950 . S
H253 C231 0.950 . S
C254 C255 1.349 . S
C254 C256 1.327 . S
C254 H279 0.950 . S
C255 C254 1.349 . S
C255 C271 1.349 . S
C256 C254 1.327 . S
C256 C275 1.429 . S
C256 H280 0.950 . S
C257 C274 1.574 . S
C257 C276 1.368 . S
C257 H281 0.949 . S
H258 C262 0.949 . S
C259 C260 1.349 . S
C259 C261 1.327 . S
C259 H282 0.950 . S
C260 C259 1.349 . S
C260 C272 1.349 . S
C261 C259 1.327 . S
C261 C277 1.429 . S
C261 H283 0.950 . S
C262 H258 0.949 . S
C262 C270 1.574 . S
C262 C278 1.368 . S
H263 C271 0.950 . S
H264 C269 0.950 . S
H265 C270 0.949 . S
H266 C272 0.950 . S
H267 C273 0.950 . S
H268 C274 0.949 . S
C269 H264 0.950 . S
C269 C271 1.327 . S
C269 C275 1.429 . S
C270 C262 1.574 . S
C270 H265 0.949 . S
C270 C276 1.368 . S
C271 C255 1.349 . S
C271 H263 0.950 . S
C271 C269 1.327 . S
C272 C260 1.349 . S
C272 H266 0.950 . S
C272 C273 1.327 . S
C273 H267 0.950 . S
C273 C272 1.327 . S
C273 C277 1.429 . S
C274 C257 1.574 . S
C274 H268 0.949 . S
C274 C278 1.368 . S
C275 C256 1.429 . S
C275 C269 1.429 . S
C275 C276 1.523 . S
C276 C257 1.368 . S
C276 C270 1.368 . S
C276 C275 1.523 . S
C277 C261 1.429 . S
C277 C273 1.429 . S
C277 C278 1.523 . S
C278 C262 1.368 . S
C278 C274 1.368 . S
C278 C277 1.523 . S
H279 C254 0.950 . S
H280 C256 0.950 . S
H281 C257 0.949 . S
H282 C259 0.950 . S
H283 C261 0.950 . S
C284 C285 1.349 . S
C284 C286 1.327 . S
C284 H309 0.950 . S
C285 C284 1.349 . S
C285 C301 1.349 . S
C286 C284 1.327 . S
C286 C305 1.429 . S
C286 H310 0.950 . S
C287 C304 1.574 . S
C287 C306 1.368 . S
C287 H311 0.949 . S
H288 C292 0.949 . S
C289 C290 1.349 . S
C289 C291 1.327 . S
C289 H312 0.950 . S
C290 C289 1.349 . S
C290 C302 1.349 . S
C291 C289 1.327 . S
C291 C307 1.429 . S
C291 H313 0.950 . S
C292 H288 0.949 . S
C292 C300 1.574 . S
C292 C308 1.368 . S
H293 C301 0.950 . S
H294 C299 0.950 . S
H295 C300 0.949 . S
H296 C302 0.950 . S
H297 C303 0.950 . S
H298 C304 0.949 . S
C299 H294 0.950 . S
C299 C301 1.327 . S
C299 C305 1.429 . S
C300 C292 1.574 . S
C300 H295 0.949 . S
C300 C306 1.368 . S
C301 C285 1.349 . S
C301 H293 0.950 . S
C301 C299 1.327 . S
C302 C290 1.349 . S
C302 H296 0.950 . S
C302 C303 1.327 . S
C303 H297 0.950 . S
C303 C302 1.327 . S
C303 C307 1.429 . S
C304 C287 1.574 . S
C304 H298 0.949 . S
C304 C308 1.368 . S
C305 C286 1.429 . S
C305 C299 1.429 . S
C305 C306 1.523 . S
C306 C287 1.368 . S
C306 C300 1.368 . S
C306 C305 1.523 . S
C307 C291 1.429 . S
C307 C303 1.429 . S
C307 C308 1.523 . S
C308 C292 1.368 . S
C308 C304 1.368 . S
C308 C307 1.523 . S
H309 C284 0.950 . S
H310 C286 0.950 . S
H311 C287 0.949 . S
H312 C289 0.950 . S
H313 C291 0.950 . S
C314 C315 1.349 . S
C314 C316 1.327 . S
C314 H339 0.950 . S
C315 C314 1.349 . S
C315 C331 1.349 . S
C316 C314 1.327 . S
C316 C335 1.429 . S
C316 H340 0.950 . S
C317 C334 1.574 . S
C317 C336 1.368 . S
C317 H341 0.949 . S
H318 C322 0.949 . S
C319 C320 1.349 . S
C319 C321 1.327 . S
C319 H342 0.950 . S
C320 C319 1.349 . S
C320 C332 1.349 . S
C321 C319 1.327 . S
C321 C337 1.429 . S
C321 H343 0.950 . S
C322 H318 0.949 . S
C322 C330 1.574 . S
C322 C338 1.368 . S
H323 C331 0.950 . S
H324 C329 0.950 . S
H325 C330 0.949 . S
H326 C332 0.950 . S
H327 C333 0.950 . S
H328 C334 0.949 . S
C329 H324 0.950 . S
C329 C331 1.327 . S
C329 C335 1.429 . S
C330 C322 1.574 . S
C330 H325 0.949 . S
C330 C336 1.368 . S
C331 C315 1.349 . S
C331 H323 0.950 . S
C331 C329 1.327 . S
C332 C320 1.349 . S
C332 H326 0.950 . S
C332 C333 1.327 . S
C333 H327 0.950 . S
C333 C332 1.327 . S
C333 C337 1.429 . S
C334 C317 1.574 . S
C334 H328 0.949 . S
C334 C338 1.368 . S
C335 C316 1.429 . S
C335 C329 1.429 . S
C335 C336 1.523 . S
C336 C317 1.368 . S
C336 C330 1.368 . S
C336 C335 1.523 . S
C337 C321 1.429 . S
C337 C333 1.429 . S
C337 C338 1.523 . S
C338 C322 1.368 . S
C338 C334 1.368 . S
C338 C337 1.523 . S
H339 C314 0.950 . S
H340 C316 0.950 . S
H341 C317 0.949 . S
H342 C319 0.950 . S
H343 C321 0.950 . S
C344 C345 1.349 1_565 S
C344 C346 1.327 . S
C344 H369 0.950 . S
C345 C344 1.349 1_545 S
C345 C361 1.349 . S
C346 C344 1.327 . S
C346 C365 1.429 1_565 S
C346 H370 0.950 . S
C347 C364 1.574 . S
C347 C366 1.368 . S
C347 H371 0.949 1_455 S
H348 C352 0.949 . S
C349 C350 1.349 . S
C349 C351 1.327 . S
C349 H372 0.950 1_455 S
C350 C349 1.349 . S
C350 C362 1.349 1_545 S
C351 C349 1.327 . S
C351 C367 1.429 . S
C351 H373 0.950 1_455 S
C352 H348 0.949 . S
C352 C360 1.574 . S
C352 C368 1.368 1_565 S
H353 C361 0.950 1_655 S
H354 C359 0.950 1_655 S
H355 C360 0.949 . S
H356 C362 0.950 . S
H357 C363 0.950 . S
H358 C364 0.949 1_655 S
C359 H354 0.950 1_455 S
C359 C361 1.327 . S
C359 C365 1.429 . S
C360 C352 1.574 . S
C360 H355 0.949 . S
C360 C366 1.368 1_565 S
C361 C345 1.349 . S
C361 H353 0.950 1_455 S
C361 C359 1.327 . S
C362 C350 1.349 1_565 S
C362 H356 0.950 . S
C362 C363 1.327 . S
C363 H357 0.950 . S
C363 C362 1.327 . S
C363 C367 1.429 1_565 S
C364 C347 1.574 . S
C364 H358 0.949 1_455 S
C364 C368 1.368 . S
C365 C346 1.429 1_545 S
C365 C359 1.429 . S
C365 C366 1.523 . S
C366 C347 1.368 . S
C366 C360 1.368 1_545 S
C366 C365 1.523 . S
C367 C351 1.429 . S
C367 C363 1.429 1_545 S
C367 C368 1.523 . S
C368 C352 1.368 1_545 S
C368 C364 1.368 . S
C368 C367 1.523 . S
H369 C344 0.950 . S
H370 C346 0.950 . S
H371 C347 0.949 1_655 S
H372 C349 0.950 1_655 S
H373 C351 0.950 1_655 S
C374 C375 1.349 1_665 S
C374 C376 1.327 . S
C374 H399 0.950 . S
C375 C374 1.349 1_445 S
C375 C391 1.349 . S
C376 C374 1.327 . S
C376 C395 1.429 1_665 S
C376 H400 0.950 . S
C377 C394 1.574 . S
C377 C396 1.368 . S
C377 H401 0.949 . S
H378 C382 0.949 . S
C379 C380 1.349 1_455 S
C379 C381 1.327 . S
C379 H402 0.950 . S
C380 C379 1.349 1_655 S
C380 C392 1.349 1_545 S
C381 C379 1.327 . S
C381 C397 1.429 1_455 S
C381 H403 0.950 . S
C382 H378 0.949 . S
C382 C390 1.574 . S
C382 C398 1.369 1_565 S
H383 C391 0.950 . S
H384 C389 0.950 . S
H385 C390 0.949 . S
H386 C392 0.950 . S
H387 C393 0.950 . S
H388 C394 0.949 . S
C389 H384 0.950 . S
C389 C391 1.327 . S
C389 C395 1.429 . S
C390 C382 1.574 . S
C390 H385 0.949 . S
C390 C396 1.368 1_665 S
C391 C375 1.349 . S
C391 H383 0.950 . S
C391 C389 1.327 . S
C392 C380 1.349 1_565 S
C392 H386 0.950 . S
C392 C393 1.327 . S
C393 H387 0.950 . S
C393 C392 1.327 . S
C393 C397 1.429 1_565 S
C394 C377 1.574 . S
C394 H388 0.949 . S
C394 C398 1.368 1_455 S
C395 C376 1.429 1_445 S
C395 C389 1.429 . S
C395 C396 1.523 . S
C396 C377 1.368 . S
C396 C390 1.368 1_445 S
C396 C395 1.523 . S
C397 C381 1.429 1_655 S
C397 C393 1.429 1_545 S
C397 C398 1.523 . S
C398 C382 1.369 1_545 S
C398 C394 1.368 1_655 S
C398 C397 1.523 . S
H399 C374 0.950 . S
H400 C376 0.950 . S
H401 C377 0.949 . S
H402 C379 0.950 . S
H403 C381 0.950 . S
C404 C405 1.349 . S
C404 C406 1.327 . S
C404 H429 0.950 . S
C405 C404 1.349 . S
C405 C421 1.349 . S
C406 C404 1.327 . S
C406 C425 1.429 . S
C406 H430 0.950 . S
C407 C424 1.574 . S
C407 C426 1.368 . S
C407 H431 0.949 . S
H408 C412 0.949 . S
C409 C410 1.349 . S
C409 C411 1.327 . S
C409 H432 0.950 . S
C410 C409 1.349 . S
C410 C422 1.349 . S
C411 C409 1.327 . S
C411 C427 1.429 . S
C411 H433 0.950 . S
C412 H408 0.949 . S
C412 C420 1.574 . S
C412 C428 1.368 . S
H413 C421 0.950 . S
H414 C419 0.950 . S
H415 C420 0.949 . S
H416 C422 0.950 . S
H417 C423 0.950 . S
H418 C424 0.949 . S
C419 H414 0.950 . S
C419 C421 1.327 . S
C419 C425 1.429 . S
C420 C412 1.574 . S
C420 H415 0.949 . S
C420 C426 1.368 . S
C421 C405 1.349 . S
C421 H413 0.950 . S
C421 C419 1.327 . S
C422 C410 1.349 . S
C422 H416 0.950 . S
C422 C423 1.327 . S
C423 H417 0.950 . S
C423 C422 1.327 . S
C423 C427 1.429 . S
C424 C407 1.574 . S
C424 H418 0.949 . S
C424 C428 1.368 . S
C425 C406 1.429 . S
C425 C419 1.429 . S
C425 C426 1.523 . S
C426 C407 1.368 . S
C426 C420 1.368 . S
C426 C425 1.523 . S
C427 C411 1.429 . S
C427 C423 1.429 . S
C427 C428 1.523 . S
C428 C412 1.368 . S
C428 C424 1.368 . S
C428 C427 1.523 . S
H429 C404 0.950 . S
H430 C406 0.950 . S
H431 C407 0.949 . S
H432 C409 0.950 . S
H433 C411 0.950 . S
C434 C435 1.349 . S
C434 C436 1.327 . S
C434 H459 0.950 . S
C435 C434 1.349 . S
C435 C451 1.349 . S
C436 C434 1.327 . S
C436 C455 1.429 . S
C436 H460 0.950 . S
C437 C454 1.574 . S
C437 C456 1.368 . S
C437 H461 0.949 . S
H438 C442 0.949 . S
C439 C440 1.349 . S
C439 C441 1.327 . S
C439 H462 0.950 . S
C440 C439 1.349 . S
C440 C452 1.349 . S
C441 C439 1.327 . S
C441 C457 1.429 . S
C441 H463 0.950 . S
C442 H438 0.949 . S
C442 C450 1.574 . S
C442 C458 1.368 . S
H443 C451 0.950 . S
H444 C449 0.950 . S
H445 C450 0.949 . S
H446 C452 0.950 . S
H447 C453 0.950 . S
H448 C454 0.949 . S
C449 H444 0.950 . S
C449 C451 1.327 . S
C449 C455 1.429 . S
C450 C442 1.574 . S
C450 H445 0.949 . S
C450 C456 1.368 . S
C451 C435 1.349 . S
C451 H443 0.950 . S
C451 C449 1.327 . S
C452 C440 1.349 . S
C452 H446 0.950 . S
C452 C453 1.327 . S
C453 H447 0.950 . S
C453 C452 1.327 . S
C453 C457 1.429 . S
C454 C437 1.574 . S
C454 H448 0.949 . S
C454 C458 1.368 . S
C455 C436 1.429 . S
C455 C449 1.429 . S
C455 C456 1.523 . S
C456 C437 1.368 . S
C456 C450 1.368 . S
C456 C455 1.523 . S
C457 C441 1.429 . S
C457 C453 1.429 . S
C457 C458 1.523 . S
C458 C442 1.368 . S
C458 C454 1.368 . S
C458 C457 1.523 . S
H459 C434 0.950 . S
H460 C436 0.950 . S
H461 C437 0.949 . S
H462 C439 0.950 . S
H463 C441 0.950 . S
C110 C99 1.436 . S
C105 C27 1.461 . S
C135 N6 1.300 . S
C140 N86 1.316 . S
C165 C16 1.377 . S
C170 N97 1.337 . S
C195 N14 1.420 1_556 S
C200 C88 1.423 . S
C225 C57 1.461 . S
C230 C77 1.436 . S
C255 N36 1.300 . S
C260 N64 1.316 . S
C290 N75 1.337 . S
C285 C46 1.377 . S
C320 C66 1.423 . S
C315 N44 1.420 . S
C345 C10 1.470 . S
C350 C69 1.467 1_545 S
C375 C1 1.539 . S
C380 C80 1.533 . S
C410 C91 1.467 . S
C405 C40 1.470 . S
C435 C31 1.539 . S
C440 C102 1.533 . S
