# Generated by pormake.
# Topology pts, (4,4)-cn, num edge types: 1
# Building blocks:
#     Node 0, Type 0, BuildingBlock: MIFKUJ_clean_linker_1, # of connection points: 4
#     Node 1, Type 0, BuildingBlock: MIFKUJ_clean_linker_1, # of connection points: 4
#     Node 2, Type 1, BuildingBlock: AZAVOO_clean_sbu_0, # of connection points: 4
#     Node 3, Type 1, BuildingBlock: AZAVOO_clean_sbu_0, # of connection points: 4
#     Edge 4, Type (0, 1), BuildingBlock: FUNLAD_clean_linker_1, # of connection points: 2
#     Edge 5, Type (0, 1), BuildingBlock: FUNLAD_clean_linker_1, # of connection points: 2
#     Edge 6, Type (0, 1), BuildingBlock: FUNLAD_clean_linker_1, # of connection points: 2
#     Edge 7, Type (0, 1), BuildingBlock: FUNLAD_clean_linker_1, # of connection points: 2
#     Edge 8, Type (0, 1), BuildingBlock: FUNLAD_clean_linker_1, # of connection points: 2
#     Edge 9, Type (0, 1), BuildingBlock: FUNLAD_clean_linker_1, # of connection points: 2
#     Edge 10, Type (0, 1), BuildingBlock: FUNLAD_clean_linker_1, # of connection points: 2
#     Edge 11, Type (0, 1), BuildingBlock: FUNLAD_clean_linker_1, # of connection points: 2
# Relax obj value: 0.003
# Max RMSD: 0.043
# Mean RMSD: 0.032
data_MOF--net-pts--node1-AZAVOO_clean_sbu_0--node2-MIFKUJ_clean_linker_1--edge1-FUNLAD_clean_linker_1
_symmetry_space_group_name_H-M    P1
_symmetry_Int_Tables_number       1
_symmetry_cell_setting            triclinic
loop_
_symmetry_equiv_pos_as_xyz
'x, y, z'
_cell_length_a     30.457726
_cell_length_b     31.341236
_cell_length_c     42.833812
_cell_angle_alpha  90.016818
_cell_angle_beta   95.90298
_cell_angle_gamma 90.014937
loop_
_atom_site_label
_atom_site_type_symbol
_atom_site_fract_x
_atom_site_fract_y
_atom_site_fract_z
_atom_type_partial_charge
H0 H 0.59783 0.95354 0.07024 0.0
H1 H 0.66711 0.94929 0.10435 0.0
H2 H 0.71334 0.0631 0.06101 0.0
H3 H 0.64394 0.06726 0.02721 0.0
H4 H 0.53658 0.01476 0.06669 0.0
H5 H 0.63438 0.95375 0.99577 0.0
H6 H 0.70163 0.95377 0.969 0.0
H7 H 0.66166 0.07337 0.92446 0.0
H8 H 0.59483 0.07296 0.95116 0.0
H9 H 0.45492 0.06883 0.94369 0.0
H10 H 0.38316 0.06422 0.91321 0.0
H11 H 0.35346 0.95076 0.96466 0.0
H12 H 0.4256 0.95581 0.99504 0.0
H13 H 0.5254 0.0161 0.95033 0.0
H14 H 0.42769 0.07738 0.01754 0.0
H15 H 0.36352 0.08433 0.04719 0.0
H16 H 0.40443 0.97106 0.09998 0.0
H17 H 0.46823 0.96452 0.07046 0.0
C18 C 0.61583 0.01043 0.04591 0.0
C19 C 0.62301 0.97744 0.06799 0.0
C20 C 0.66266 0.97496 0.08738 0.0
C21 C 0.69616 0.00522 0.08508 0.0
C22 C 0.68898 0.03839 0.06293 0.0
C23 C 0.64909 0.04099 0.0436 0.0
C24 C 0.57287 0.01321 0.02614 0.0
C25 C 0.53411 0.01449 0.04124 0.0
C26 C 0.56979 0.01474 0.99293 0.0
C27 C 0.60963 0.01348 0.97559 0.0
C28 C 0.64013 0.9799 0.98016 0.0
C29 C 0.67851 0.97992 0.96482 0.0
C30 C 0.68695 0.0131 0.94419 0.0
C31 C 0.65608 0.04657 0.93944 0.0
C32 C 0.61774 0.04656 0.95486 0.0
C33 C 0.44559 0.01291 0.97183 0.0
C34 C 0.43301 0.04282 0.94822 0.0
C35 C 0.39166 0.03997 0.93069 0.0
C36 C 0.36218 0.00672 0.93626 0.0
C37 C 0.3752 0.97676 0.9598 0.0
C38 C 0.41643 0.97967 0.97726 0.0
C39 C 0.48904 0.01624 0.99097 0.0
C40 C 0.52786 0.01639 0.97578 0.0
C41 C 0.4923 0.01655 0.02418 0.0
C42 C 0.45282 0.02038 0.04174 0.0
C43 C 0.42269 0.05397 0.03543 0.0
C44 C 0.38614 0.05802 0.05248 0.0
C45 C 0.37924 0.029 0.07648 0.0
C46 C 0.4092 0.99501 0.08248 0.0
C47 C 0.44569 0.99094 0.06539 0.0
H48 H 0.1231 0.45707 0.46869 0.0
H49 H 0.13734 0.39594 0.4356 0.0
H50 H 0.006 0.34846 0.445 0.0
H51 H 0.99158 0.41016 0.4767 0.0
H52 H 0.06372 0.51819 0.45573 0.0
H53 H 0.09654 0.42693 0.55021 0.0
H54 H 0.09015 0.36282 0.58228 0.0
H55 H 0.94811 0.36964 0.56513 0.0
H56 H 0.95471 0.43461 0.53378 0.0
H57 H 0.95157 0.57452 0.55022 0.0
H58 H 0.94063 0.63508 0.58456 0.0
H59 H 0.07173 0.68055 0.5719 0.0
H60 H 0.08286 0.61939 0.53873 0.0
H61 H 0.00831 0.51214 0.56049 0.0
H62 H 0.97922 0.61606 0.47866 0.0
H63 H 0.98598 0.68033 0.44741 0.0
H64 H 0.12218 0.64886 0.4379 0.0
H65 H 0.11537 0.585 0.46984 0.0
C66 C 0.05636 0.43811 0.47534 0.0
C67 C 0.09743 0.43341 0.46355 0.0
C68 C 0.10551 0.39852 0.44465 0.0
C69 C 0.07259 0.36785 0.43685 0.0
C70 C 0.03185 0.37197 0.44949 0.0
C71 C 0.02376 0.40695 0.4683 0.0
C72 C 0.04653 0.47719 0.49289 0.0
C73 C 0.05225 0.51697 0.47888 0.0
C74 C 0.03003 0.47562 0.52249 0.0
C75 C 0.02609 0.43522 0.53966 0.0
C76 C 0.06408 0.41453 0.55336 0.0
C77 C 0.06036 0.37828 0.57189 0.0
C78 C 0.01852 0.36196 0.57659 0.0
C79 C 0.98062 0.38197 0.56203 0.0
C80 C 0.98434 0.41883 0.54414 0.0
C81 C 0.01799 0.59242 0.54183 0.0
C82 C 0.97793 0.59759 0.5549 0.0
C83 C 0.97173 0.63219 0.57452 0.0
C84 C 1.00553 0.66216 0.58173 0.0
C85 C 0.04525 0.65763 0.56783 0.0
C86 C 0.05147 0.62291 0.54826 0.0
C87 C 0.02592 0.55349 0.5235 0.0
C88 C 0.01973 0.51363 0.53733 0.0
C89 C 0.04201 0.55514 0.49368 0.0
C90 C 0.04679 0.59574 0.4766 0.0
C91 C 0.01064 0.62325 0.47009 0.0
C92 C 0.01442 0.65971 0.45174 0.0
C93 C 0.05445 0.66909 0.43939 0.0
C94 C 0.09084 0.64216 0.44679 0.0
C95 C 0.087 0.6057 0.46501 0.0
Mg96 Mg 0.08075 0.00978 0.27944 0.0
O97 O 0.02025 0.00749 0.24236 0.0
O98 O 0.96004 0.00388 0.26809 0.0
Mg99 Mg 0.98115 0.00196 0.32077 0.0
C100 C 0.9784 0.00579 0.24263 0.0
C101 C 0.16553 0.03676 0.25087 0.0
O102 O 0.17876 0.03725 0.28102 0.0
O103 O 0.0656 0.07907 0.2913 0.0
O104 O 0.00659 0.07071 0.31802 0.0
O105 O 0.08483 0.93839 0.28147 0.0
O106 O 0.04591 0.9777 0.31139 0.0
C107 C 0.03578 0.09414 0.30715 0.0
C108 C 0.05812 0.94056 0.30307 0.0
O109 O 0.12537 0.02831 0.24192 0.0
Mg110 Mg 0.98715 0.00268 0.7462 0.0
O111 O 0.05742 -0.0 0.77263 0.0
O112 O 0.10357 0.99654 0.73512 0.0
Mg113 Mg 0.0651 0.99353 0.68644 0.0
C114 C 0.0964 0.99843 0.76393 0.0
C115 C 0.9205 0.04524 0.78513 0.0
O116 O 0.90938 0.06003 0.75675 0.0
O117 O 0.99947 0.07211 0.73229 0.0
O118 O 0.0417 0.06208 0.69305 0.0
O119 O 0.98163 0.93092 0.74489 0.0
O120 O 0.00901 0.97002 0.70876 0.0
C121 C 0.01992 0.08635 0.70985 0.0
C122 C 1.00014 0.93296 0.71905 0.0
O123 O 0.95466 0.02185 0.79002 0.0
H124 H 0.31306 0.05434 0.08375 0.0
C125 C 0.34019 0.03487 0.0943 0.0
H126 H 0.36409 -4e-05 0.13494 0.0
H127 H 0.21363 0.1151 0.19593 0.0
H128 H 0.26198 0.17523 0.18912 0.0
H129 H 0.32768 0.16695 0.16044 0.0
H130 H 0.34509 0.09873 0.138 0.0
C131 C 0.33754 0.0189 0.12321 0.0
C132 C 0.29745 0.02476 0.13991 0.0
C133 C 0.28836 0.06468 0.15347 0.0
C134 C 0.25136 0.06909 0.171 0.0
C135 C 0.24214 0.10965 0.18334 0.0
C136 C 0.26945 0.14448 0.17943 0.0
C137 C 0.30638 0.13985 0.16321 0.0
C138 C 0.31591 0.10051 0.15035 0.0
H139 H 0.23262 0.04683 0.23746 0.0
C140 C 0.19849 0.04149 0.22815 0.0
H141 H 0.15502 0.02892 0.18756 0.0
H142 H 0.3041 0.94471 0.11541 0.0
H143 H 0.25612 0.88445 0.12253 0.0
H144 H 0.19329 0.89143 0.15421 0.0
H145 H 0.1779 0.95865 0.17882 0.0
C146 C 0.18867 0.03607 0.19708 0.0
C147 C 0.22439 0.03324 0.17581 0.0
C148 C 0.23278 0.99367 0.16146 0.0
C149 C 0.26933 0.98946 0.14351 0.0
C150 C 0.27704 0.94954 0.12954 0.0
C151 C 0.24972 0.91471 0.13339 0.0
C152 C 0.21433 0.91865 0.1512 0.0
C153 C 0.20584 0.95752 0.16517 0.0
H154 H 0.98854 0.30031 0.5877 0.0
C155 C 0.01386 0.32337 0.59582 0.0
H156 H 0.06363 0.34006 0.63164 0.0
H157 H 0.94696 0.17272 0.67887 0.0
H158 H 0.88433 0.22063 0.67561 0.0
H159 H 0.89139 0.29509 0.65813 0.0
H160 H 0.96099 0.32159 0.64292 0.0
C161 C 0.039 0.31662 0.62305 0.0
C162 C 0.03696 0.2756 0.64042 0.0
C163 C 0.9969 0.26151 0.65127 0.0
C164 C 0.99361 0.21937 0.66321 0.0
C165 C 0.95209 0.20495 0.67112 0.0
C166 C 0.9157 0.23209 0.66916 0.0
C167 C 0.91961 0.27395 0.65919 0.0
C168 C 0.95964 0.28865 0.6503 0.0
H169 H 0.00937 0.15483 0.72026 0.0
C170 C 0.01844 0.13245 0.70263 0.0
H171 H 0.037 0.12392 0.65696 0.0
H172 H 0.12003 0.29399 0.62457 0.0
H173 H 0.18446 0.24859 0.63248 0.0
H174 H 0.18014 0.1776 0.65681 0.0
H175 H 0.1111 0.15145 0.67302 0.0
C176 C 0.02785 0.14658 0.67439 0.0
C177 C 0.0313 0.19249 0.6662 0.0
C178 C 0.07231 0.20808 0.65797 0.0
C179 C 0.07506 0.24944 0.64473 0.0
C180 C 0.11606 0.26323 0.63534 0.0
C181 C 0.1534 0.23743 0.63968 0.0
C182 C 0.15096 0.19744 0.65331 0.0
C183 C 0.11102 0.18276 0.66237 0.0
H184 H 0.73479 0.98348 0.12863 0.0
C185 C 0.73675 0.00221 0.10742 0.0
H186 H 0.77947 0.03923 0.08216 0.0
H187 H 0.89818 0.09034 0.20737 0.0
H188 H 0.86681 0.15874 0.19038 0.0
H189 H 0.81077 0.16358 0.14464 0.0
H190 H 0.7858 0.10015 0.11555 0.0
C191 C 0.7756 0.02054 0.103 0.0
C192 C 0.81352 0.01815 0.12788 0.0
C193 C 0.82809 0.05565 0.14434 0.0
C194 C 0.86014 0.05284 0.17086 0.0
C195 C 0.87367 0.09068 0.18719 0.0
C196 C 0.856 0.13013 0.17766 0.0
C197 C 0.82448 0.13285 0.15189 0.0
C198 C 0.81046 0.09617 0.13539 0.0
H199 H 0.96613 0.00666 0.19072 0.0
C200 C 0.95032 0.00688 0.21234 0.0
H201 H 0.88984 0.01088 0.2324 0.0
H202 H 0.79934 0.94152 0.09785 0.0
H203 H 0.83167 0.87333 0.11436 0.0
H204 H 0.88496 0.86805 0.16165 0.0
H205 H 0.90667 0.931 0.19249 0.0
C206 C 0.90609 0.00923 0.21101 0.0
C207 C 0.87764 0.01263 0.18078 0.0
C208 C 0.86503 0.97547 0.16326 0.0
C209 C 0.83335 0.97832 0.13651 0.0
C210 C 0.82216 0.9409 0.11894 0.0
C211 C 0.84071 0.90163 0.12803 0.0
C212 C 0.87078 0.89867 0.15462 0.0
C213 C 0.88295 0.93505 0.17212 0.0
H214 H 0.96391 0.70315 0.60873 0.0
C215 C 0.9977 0.69757 0.60362 0.0
H216 H 0.06429 0.71595 0.61561 0.0
H217 H 0.94228 0.88017 0.6574 0.0
H218 H 0.91571 0.88634 0.60228 0.0
H219 H 0.93844 0.83449 0.56371 0.0
H220 H 0.98681 0.77561 0.58016 0.0
C221 C 0.02982 0.72213 0.61817 0.0
C222 C 0.01962 0.7561 0.64066 0.0
C223 C 0.99324 0.79168 0.63025 0.0
C224 C 0.98244 0.82311 0.65214 0.0
C225 C 0.95342 0.85661 0.64153 0.0
C226 C 0.93761 0.86036 0.60998 0.0
C227 C 0.95023 0.83106 0.58829 0.0
C228 C 0.97775 0.79713 0.59815 0.0
H229 H 0.03006 0.89968 0.68148 0.0
C230 C 0.01079 0.89494 0.70121 0.0
H231 H 0.97463 0.85055 0.72556 0.0
H232 H 0.06998 0.69151 0.66864 0.0
H233 H 0.09907 0.68726 0.72342 0.0
H234 H 0.08381 0.74405 0.7607 0.0
H235 H 0.03896 0.80531 0.74346 0.0
C236 C 0.99392 0.85623 0.706 0.0
C237 C 1.00062 0.82059 0.68397 0.0
C238 C 0.02699 0.78514 0.69437 0.0
C239 C 0.03635 0.75275 0.67274 0.0
C240 C 0.06234 0.71738 0.6839 0.0
C241 C 0.07918 0.71448 0.71533 0.0
C242 C 0.07056 0.74643 0.73633 0.0
C243 C 0.04479 0.78143 0.72612 0.0
H244 H 0.29589 0.97758 0.92656 0.0
C245 C 0.31773 0.00171 0.91842 0.0
H246 H 0.32324 0.04847 0.88314 0.0
H247 H 0.16605 0.92493 0.8139 0.0
H248 H 0.2229 0.87074 0.81377 0.0
H249 H 0.2973 0.88304 0.84082 0.0
H250 H 0.31501 0.9491 0.86869 0.0
C251 C 0.30338 0.02373 0.89236 0.0
C252 C 0.25874 0.01607 0.87551 0.0
C253 C 0.24949 0.97776 0.8584 0.0
C254 C 0.20727 0.97152 0.84146 0.0
C255 C 0.19817 0.9321 0.82595 0.0
C256 C 0.23039 0.90058 0.8259 0.0
C257 C 0.27222 0.90744 0.84123 0.0
C258 C 0.28186 0.94549 0.85731 0.0
H259 H 0.16772 -0.0005 0.77839 0.0
C260 C 0.13554 -0.00048 0.78732 0.0
H261 H 0.10201 0.00242 0.82808 0.0
H262 H 0.26458 0.0917 0.90751 0.0
H263 H 0.20792 0.1462 0.90704 0.0
H264 H 0.13586 0.13665 0.87588 0.0
H265 H 0.11983 0.07247 0.84518 0.0
C266 C 0.13365 0.00101 0.81851 0.0
C267 C 0.17513 0.00445 0.84025 0.0
C268 C 0.18391 0.04214 0.85814 0.0
C269 C 0.22572 0.04791 0.8758 0.0
C270 C 0.23358 0.08588 0.89343 0.0
C271 C 0.20134 0.11739 0.89341 0.0
C272 C 0.16074 0.11199 0.87588 0.0
C273 C 0.15198 0.07495 0.85836 0.0
H274 H 0.11653 0.32549 0.41264 0.0
C275 C 0.08219 0.33197 0.41584 0.0
H276 H 0.01607 0.31544 0.40061 0.0
H277 H 0.043 0.21727 0.27784 0.0
H278 H 0.00708 0.28199 0.25695 0.0
H279 H 0.99655 0.34334 0.29152 0.0
H280 H 0.02159 0.34038 0.34714 0.0
C281 C 0.05073 0.30793 0.40004 0.0
C282 C 0.06164 0.27262 0.37888 0.0
C283 C 0.04732 0.27517 0.34634 0.0
C284 C 0.05351 0.23994 0.32634 0.0
C285 C 0.03862 0.24308 0.29402 0.0
C286 C 0.01819 0.28006 0.28174 0.0
C287 C 0.01226 0.31461 0.30121 0.0
C288 C 0.02665 0.31242 0.33313 0.0
H289 H 0.00656 0.15216 0.32483 0.0
C290 C 0.03627 0.13945 0.31616 0.0
H291 H 0.10441 0.14952 0.31362 0.0
H292 H 0.09138 0.25564 0.4405 0.0
H293 H 0.1297 0.19217 0.46042 0.0
H294 H 0.14419 0.13295 0.42496 0.0
H295 H 0.11982 0.13683 0.36932 0.0
C296 C 0.07342 0.16274 0.31969 0.0
C297 C 0.07423 0.20239 0.33884 0.0
C298 C 0.09087 0.20068 0.37096 0.0
C299 C 0.08374 0.23543 0.3912 0.0
C300 C 0.09749 0.23121 0.42369 0.0
C301 C 0.11923 0.19466 0.43556 0.0
C302 C 0.12729 0.16129 0.41561 0.0
C303 C 0.11311 0.16395 0.38372 0.0
H304 H 0.75505 0.99132 0.93891 0.0
C305 C 0.72864 0.01199 0.92877 0.0
H306 H 0.70915 0.05397 0.89108 0.0
H307 H 0.90016 0.10464 0.86098 0.0
H308 H 0.87839 0.16922 0.88661 0.0
H309 H 0.81017 0.17126 0.91304 0.0
H310 H 0.7634 0.10871 0.91414 0.0
C311 C 0.73468 0.03338 0.90228 0.0
C312 C 0.777 0.03102 0.88762 0.0
C313 C 0.80382 0.06795 0.88694 0.0
C314 C 0.84289 0.06697 0.87134 0.0
C315 C 0.86956 0.10401 0.87175 0.0
C316 C 0.85762 0.14118 0.88658 0.0
C317 C 0.81923 0.14232 0.90149 0.0
C318 C 0.79261 0.10621 0.90184 0.0
H319 H 0.86129 0.07181 0.8032 0.0
C320 C 0.88974 0.05137 0.80924 0.0
H321 H 0.91942 0.00694 0.84188 0.0
H322 H 0.73233 0.95481 0.88318 0.0
H323 H 0.75499 0.8901 0.85852 0.0
H324 H 0.82361 0.88796 0.83263 0.0
H325 H 0.86981 0.95066 0.83108 0.0
C326 C 0.89246 0.02924 0.83625 0.0
C327 C 0.8548 0.02923 0.856 0.0
C328 C 0.82886 0.99182 0.85765 0.0
C329 C 0.78963 0.99283 0.87311 0.0
C330 C 0.76313 0.95563 0.87274 0.0
C331 C 0.77557 0.91826 0.85842 0.0
C332 C 0.81417 0.91707 0.8438 0.0
C333 C 0.84046 0.95334 0.84316 0.0
H334 H 0.09334 0.71742 0.4166 0.0
C335 C 0.05988 0.70666 0.41902 0.0
H336 H 0.99259 0.71515 0.4021 0.0
H337 H 0.0976 0.89643 0.37186 0.0
H338 H 0.11003 0.90512 0.42823 0.0
H339 H 0.08597 0.8499 0.46381 0.0
H340 H 0.05037 0.78521 0.44312 0.0
C341 C 0.02619 0.72672 0.4023 0.0
C342 C 0.0346 0.76278 0.38108 0.0
C343 C 0.05308 0.80147 0.3936 0.0
C344 C 0.06449 0.8344 0.37309 0.0
C345 C 0.08607 0.8713 0.38625 0.0
C346 C 0.09379 0.87657 0.41863 0.0
C347 C 0.08044 0.84541 0.43866 0.0
C348 C 0.06032 0.80825 0.42644 0.0
H349 H 0.01787 0.90666 0.33488 0.0
C350 C 0.04343 0.90251 0.31918 0.0
H351 H 0.09037 0.86021 0.30325 0.0
H352 H 0.99913 0.69287 0.34937 0.0
H353 H 0.98355 0.68554 0.29295 0.0
H354 H 0.99982 0.74419 0.2575 0.0
H355 H 0.03214 0.81047 0.27827 0.0
C356 C 0.06455 0.865 0.31863 0.0
C357 C 0.05469 0.82972 0.34011 0.0
C358 C 0.03539 0.79143 0.32764 0.0
C359 C 0.02544 0.75785 0.34813 0.0
C360 C 0.00688 0.71963 0.33496 0.0
C361 C 0.99782 0.71496 0.30259 0.0
C362 C 0.00702 0.74796 0.28263 0.0
C363 C 0.02558 0.78582 0.29486 0.0
loop_
_geom_bond_atom_site_label_1
_geom_bond_atom_site_label_2
_geom_bond_distance
_geom_bond_site_symmetry_2
_ccdc_geom_bond_type
H0 C19 0.949 . S
H1 C20 0.950 . S
H2 C22 0.950 . S
H3 C23 0.950 . S
H4 C25 0.950 1_565 S
H5 C28 0.950 . S
H6 C29 0.950 . S
H7 C31 0.951 . S
H8 C32 0.949 . S
H9 C34 0.949 . S
H10 C35 0.950 . S
H11 C37 0.950 . S
H12 C38 0.950 . S
H13 C40 0.950 . S
H14 C43 0.950 . S
H15 C44 0.950 . S
H16 C46 0.951 . S
H17 C47 0.949 . S
C18 C19 1.376 1_545 S
C18 C23 1.386 . S
C18 C24 1.483 . S
C19 H0 0.949 . S
C19 C18 1.376 1_565 S
C19 C20 1.397 . S
C20 H1 0.950 . S
C20 C19 1.397 . S
C20 C21 1.391 1_565 S
C21 C20 1.391 1_545 S
C21 C22 1.405 . S
C22 H2 0.950 . S
C22 C21 1.405 . S
C22 C23 1.367 . S
C23 H3 0.950 . S
C23 C18 1.386 . S
C23 C22 1.367 . S
C24 C18 1.483 . S
C24 C25 1.382 . S
C24 C26 1.403 1_554 S
C25 H4 0.950 1_545 S
C25 C24 1.382 . S
C25 C41 1.411 . S
C26 C24 1.403 1_556 S
C26 C27 1.489 . S
C26 C40 1.411 . S
C27 C26 1.489 . S
C27 C28 1.383 1_545 S
C27 C32 1.382 . S
C28 H5 0.950 . S
C28 C27 1.383 1_565 S
C28 C29 1.395 . S
C29 H6 0.950 . S
C29 C28 1.395 . S
C29 C30 1.288 1_565 S
C30 C29 1.288 1_545 S
C30 C31 1.392 . S
C31 H7 0.951 . S
C31 C30 1.392 . S
C31 C32 1.392 . S
C32 H8 0.949 . S
C32 C27 1.382 . S
C32 C31 1.392 . S
C33 C34 1.376 . S
C33 C38 1.386 1_545 S
C33 C39 1.483 . S
C34 H9 0.949 . S
C34 C33 1.376 . S
C34 C35 1.397 . S
C35 H10 0.950 . S
C35 C34 1.397 . S
C35 C36 1.391 . S
C36 C35 1.391 . S
C36 C37 1.405 1_545 S
C37 H11 0.950 . S
C37 C36 1.405 1_565 S
C37 C38 1.367 . S
C38 H12 0.950 . S
C38 C33 1.386 1_565 S
C38 C37 1.367 . S
C39 C33 1.483 . S
C39 C40 1.382 . S
C39 C41 1.403 1_556 S
C40 H13 0.950 . S
C40 C26 1.411 . S
C40 C39 1.382 . S
C41 C25 1.411 . S
C41 C39 1.403 1_554 S
C41 C42 1.489 . S
C42 C41 1.489 . S
C42 C43 1.383 . S
C42 C47 1.382 1_545 S
C43 H14 0.950 . S
C43 C42 1.383 . S
C43 C44 1.395 . S
C44 H15 0.950 . S
C44 C43 1.395 . S
C44 C45 1.288 . S
C45 C44 1.288 . S
C45 C46 1.392 1_545 S
C46 H16 0.951 . S
C46 C45 1.392 1_565 S
C46 C47 1.392 . S
C47 H17 0.949 . S
C47 C42 1.382 1_565 S
C47 C46 1.392 . S
H48 C67 0.949 . S
H49 C68 0.950 . S
H50 C70 0.931 1_655 S
H51 C71 0.934 1_655 S
H52 C73 0.950 . S
H53 C76 0.950 . S
H54 C77 0.950 . S
H55 C79 0.951 . S
H56 C80 0.949 . S
H57 C82 0.949 . S
H58 C83 0.950 . S
H59 C85 0.950 . S
H60 C86 0.950 . S
H61 C88 0.950 . S
H62 C91 0.950 1_655 S
H63 C92 0.950 1_655 S
H64 C94 0.951 . S
H65 C95 0.949 . S
C66 C67 1.376 . S
C66 C71 1.401 . S
C66 C72 1.483 . S
C67 H48 0.949 . S
C67 C66 1.376 . S
C67 C68 1.397 . S
C68 H49 0.950 . S
C68 C67 1.397 . S
C68 C69 1.391 . S
C69 C68 1.391 . S
C69 C70 1.426 . S
C70 H50 0.931 1_455 S
C70 C69 1.426 . S
C70 C71 1.367 . S
C71 H51 0.934 1_455 S
C71 C66 1.401 . S
C71 C70 1.367 . S
C72 C66 1.483 . S
C72 C73 1.382 . S
C72 C74 1.403 . S
C73 H52 0.950 . S
C73 C72 1.382 . S
C73 C89 1.411 . S
C74 C72 1.403 . S
C74 C75 1.489 . S
C74 C88 1.411 . S
C75 C74 1.489 . S
C75 C76 1.383 . S
C75 C80 1.382 1_455 S
C76 H53 0.950 . S
C76 C75 1.383 . S
C76 C77 1.395 . S
C77 H54 0.950 . S
C77 C76 1.395 . S
C77 C78 1.288 . S
C78 C77 1.288 . S
C78 C79 1.392 1_455 S
C79 H55 0.951 . S
C79 C78 1.392 1_655 S
C79 C80 1.392 . S
C80 H56 0.949 . S
C80 C75 1.382 1_655 S
C80 C79 1.392 . S
C81 C82 1.376 1_455 S
C81 C86 1.386 . S
C81 C87 1.483 . S
C82 H57 0.949 . S
C82 C81 1.376 1_655 S
C82 C83 1.397 . S
C83 H58 0.950 . S
C83 C82 1.397 . S
C83 C84 1.391 1_655 S
C84 C83 1.391 1_455 S
C84 C85 1.405 . S
C85 H59 0.950 . S
C85 C84 1.405 . S
C85 C86 1.367 . S
C86 H60 0.950 . S
C86 C81 1.386 . S
C86 C85 1.367 . S
C87 C81 1.483 . S
C87 C88 1.382 . S
C87 C89 1.403 . S
C88 H61 0.950 . S
C88 C74 1.411 . S
C88 C87 1.382 . S
C89 C73 1.411 . S
C89 C87 1.403 . S
C89 C90 1.489 . S
C90 C89 1.489 . S
C90 C91 1.383 . S
C90 C95 1.382 . S
C91 H62 0.950 1_455 S
C91 C90 1.383 . S
C91 C92 1.395 . S
C92 H63 0.950 1_455 S
C92 C91 1.395 . S
C92 C93 1.288 . S
C93 C92 1.288 . S
C93 C94 1.392 . S
C94 H64 0.951 . S
C94 C93 1.392 . S
C94 C95 1.392 . S
C95 H65 0.949 . S
C95 C90 1.382 . S
C95 C94 1.392 . S
Mg96 O97 2.028 . S
Mg96 O103 1.986 . S
Mg96 O105 2.114 1_545 S
Mg96 O106 2.251 1_545 S
Mg96 O109 2.010 . S
O97 Mg96 2.028 . S
O97 C100 1.250 1_455 S
O98 Mg99 2.028 . S
O98 C100 1.248 . S
Mg99 O98 2.028 . S
Mg99 O104 2.032 1_655 S
Mg99 O106 2.079 1_645 S
C100 O97 1.250 1_655 S
C100 O98 1.248 . S
C101 O102 1.264 . S
C101 O109 1.249 . S
O102 C101 1.264 . S
O103 Mg96 1.986 . S
O103 C107 1.246 . S
O104 Mg99 2.032 1_455 S
O104 C107 1.259 . S
O105 Mg96 2.114 1_565 S
O105 C108 1.252 . S
O106 Mg96 2.251 1_565 S
O106 Mg99 2.079 1_465 S
O106 C108 1.273 . S
C107 O103 1.246 . S
C107 O104 1.259 . S
C108 O105 1.252 . S
C108 O106 1.273 . S
O109 Mg96 2.010 . S
O109 C101 1.249 . S
Mg110 O111 2.028 1_655 S
Mg110 O117 1.986 . S
Mg110 O119 2.114 1_545 S
Mg110 O120 2.251 1_645 S
Mg110 O123 2.010 . S
O111 Mg110 2.028 1_455 S
O111 C114 1.250 . S
O112 Mg113 2.028 . S
O112 C114 1.248 . S
Mg113 O112 2.028 . S
Mg113 O118 2.032 . S
Mg113 O120 2.079 1_545 S
C114 O111 1.250 . S
C114 O112 1.248 . S
C115 O116 1.264 . S
C115 O123 1.249 . S
O116 C115 1.264 . S
O117 Mg110 1.986 . S
O117 C121 1.246 1_655 S
O118 Mg113 2.032 . S
O118 C121 1.259 . S
O119 Mg110 2.114 1_565 S
O119 C122 1.252 1_655 S
O120 Mg110 2.251 1_465 S
O120 Mg113 2.079 1_565 S
O120 C122 1.273 . S
C121 O117 1.246 1_455 S
C121 O118 1.259 . S
C122 O119 1.252 1_455 S
C122 O120 1.273 . S
O123 Mg110 2.010 . S
O123 C115 1.249 . S
H124 C125 0.951 . S
C125 H124 0.951 . S
C125 C131 1.265 . S
H126 C131 0.950 . S
H127 C135 0.949 . S
H128 C136 0.950 . S
H129 C137 0.951 . S
H130 C138 0.951 . S
C131 C125 1.265 . S
C131 H126 0.950 . S
C131 C132 1.478 . S
C132 C131 1.478 . S
C132 C133 1.397 . S
C132 C149 1.394 1_545 S
C133 C132 1.397 . S
C133 C134 1.438 . S
C133 C138 1.429 . S
C134 C133 1.438 . S
C134 C135 1.428 . S
C134 C147 1.394 . S
C135 H127 0.949 . S
C135 C134 1.428 . S
C135 C136 1.345 . S
C136 H128 0.950 . S
C136 C135 1.345 . S
C136 C137 1.424 . S
C137 H129 0.951 . S
C137 C136 1.424 . S
C137 C138 1.347 . S
C138 H130 0.951 . S
C138 C133 1.429 . S
C138 C137 1.347 . S
H139 C140 0.951 . S
C140 H139 0.951 . S
C140 C146 1.265 . S
H141 C146 0.950 . S
H142 C150 0.949 . S
H143 C151 0.950 . S
H144 C152 0.951 . S
H145 C153 0.951 . S
C146 C140 1.265 . S
C146 H141 0.950 . S
C146 C147 1.478 . S
C147 C134 1.394 . S
C147 C146 1.478 . S
C147 C148 1.397 1_545 S
C148 C147 1.397 1_565 S
C148 C149 1.438 . S
C148 C153 1.429 . S
C149 C132 1.394 1_565 S
C149 C148 1.438 . S
C149 C150 1.428 . S
C150 H142 0.949 . S
C150 C149 1.428 . S
C150 C151 1.345 . S
C151 H143 0.950 . S
C151 C150 1.345 . S
C151 C152 1.424 . S
C152 H144 0.951 . S
C152 C151 1.424 . S
C152 C153 1.347 . S
C153 H145 0.951 . S
C153 C148 1.429 . S
C153 C152 1.347 . S
H154 C155 0.951 . S
C155 H154 0.951 . S
C155 C161 1.265 . S
H156 C161 0.950 . S
H157 C165 0.949 . S
H158 C166 0.950 . S
H159 C167 0.951 . S
H160 C168 0.951 . S
C161 C155 1.265 . S
C161 H156 0.950 . S
C161 C162 1.478 . S
C162 C161 1.478 . S
C162 C163 1.401 . S
C162 C179 1.394 . S
C163 C162 1.401 . S
C163 C164 1.437 1_455 S
C163 C168 1.426 1_455 S
C164 C163 1.437 1_655 S
C164 C165 1.428 . S
C164 C177 1.394 1_655 S
C165 H157 0.949 . S
C165 C164 1.428 . S
C165 C166 1.345 . S
C166 H158 0.950 . S
C166 C165 1.345 . S
C166 C167 1.424 . S
C167 H159 0.951 . S
C167 C166 1.424 . S
C167 C168 1.347 . S
C168 H160 0.951 . S
C168 C163 1.426 1_655 S
C168 C167 1.347 . S
H169 C170 0.951 . S
C170 H169 0.951 . S
C170 C176 1.265 . S
H171 C176 0.950 1_655 S
H172 C180 0.949 . S
H173 C181 0.950 . S
H174 C182 0.951 . S
H175 C183 0.951 . S
C176 C170 1.265 . S
C176 H171 0.950 1_455 S
C176 C177 1.478 . S
C177 C164 1.394 1_455 S
C177 C176 1.478 . S
C177 C178 1.397 . S
C178 C177 1.397 . S
C178 C179 1.438 . S
C178 C183 1.429 . S
C179 C162 1.394 . S
C179 C178 1.438 . S
C179 C180 1.428 . S
C180 H172 0.949 . S
C180 C179 1.428 . S
C180 C181 1.345 . S
C181 H173 0.950 . S
C181 C180 1.345 . S
C181 C182 1.424 . S
C182 H174 0.951 . S
C182 C181 1.424 . S
C182 C183 1.347 . S
C183 H175 0.951 . S
C183 C178 1.429 . S
C183 C182 1.347 . S
H184 C185 0.951 1_565 S
C185 H184 0.951 1_545 S
C185 C191 1.265 . S
H186 C191 0.950 . S
H187 C195 0.949 . S
H188 C196 0.950 . S
H189 C197 0.951 . S
H190 C198 0.951 . S
C191 C185 1.265 . S
C191 H186 0.950 . S
C191 C192 1.478 . S
C192 C191 1.478 . S
C192 C193 1.397 . S
C192 C209 1.394 1_545 S
C193 C192 1.397 . S
C193 C194 1.438 . S
C193 C198 1.429 . S
C194 C193 1.438 . S
C194 C195 1.428 . S
C194 C207 1.394 . S
C195 H187 0.949 . S
C195 C194 1.428 . S
C195 C196 1.345 . S
C196 H188 0.950 . S
C196 C195 1.345 . S
C196 C197 1.424 . S
C197 H189 0.951 . S
C197 C196 1.424 . S
C197 C198 1.347 . S
C198 H190 0.951 . S
C198 C193 1.429 . S
C198 C197 1.347 . S
H199 C200 0.951 . S
C200 H199 0.951 . S
C200 C206 1.265 . S
H201 C206 0.948 1_565 S
H202 C210 0.949 . S
H203 C211 0.950 . S
H204 C212 0.951 . S
H205 C213 0.951 . S
C206 C200 1.265 . S
C206 H201 0.948 1_545 S
C206 C207 1.478 . S
C207 C194 1.394 . S
C207 C206 1.478 . S
C207 C208 1.397 1_545 S
C208 C207 1.397 1_565 S
C208 C209 1.438 . S
C208 C213 1.429 . S
C209 C192 1.394 1_565 S
C209 C208 1.438 . S
C209 C210 1.428 . S
C210 H202 0.949 . S
C210 C209 1.428 . S
C210 C211 1.345 . S
C211 H203 0.950 . S
C211 C210 1.345 . S
C211 C212 1.424 . S
C212 H204 0.951 . S
C212 C211 1.424 . S
C212 C213 1.347 . S
C213 H205 0.951 . S
C213 C208 1.429 . S
C213 C212 1.347 . S
H214 C215 0.951 . S
C215 H214 0.951 . S
C215 C221 1.265 . S
H216 C221 0.950 . S
H217 C225 0.949 . S
H218 C226 0.950 . S
H219 C227 0.951 . S
H220 C228 0.951 . S
C221 C215 1.265 . S
C221 H216 0.950 . S
C221 C222 1.478 . S
C222 C221 1.478 . S
C222 C223 1.397 1_455 S
C222 C239 1.394 . S
C223 C222 1.397 1_655 S
C223 C224 1.438 . S
C223 C228 1.429 . S
C224 C223 1.438 . S
C224 C225 1.428 . S
C224 C237 1.394 1_655 S
C225 H217 0.949 . S
C225 C224 1.428 . S
C225 C226 1.345 . S
C226 H218 0.950 . S
C226 C225 1.345 . S
C226 C227 1.424 . S
C227 H219 0.951 . S
C227 C226 1.424 . S
C227 C228 1.347 . S
C228 H220 0.951 . S
C228 C223 1.429 . S
C228 C227 1.347 . S
H229 C230 0.951 . S
C230 H229 0.951 . S
C230 C236 1.265 . S
H231 C236 0.950 . S
H232 C240 0.949 . S
H233 C241 0.950 . S
H234 C242 0.951 . S
H235 C243 0.951 . S
C236 C230 1.265 . S
C236 H231 0.950 . S
C236 C237 1.478 . S
C237 C224 1.394 1_455 S
C237 C236 1.478 . S
C237 C238 1.397 . S
C238 C237 1.397 . S
C238 C239 1.438 . S
C238 C243 1.429 . S
C239 C222 1.394 . S
C239 C238 1.438 . S
C239 C240 1.428 . S
C240 H232 0.949 . S
C240 C239 1.428 . S
C240 C241 1.345 . S
C241 H233 0.950 . S
C241 C240 1.345 . S
C241 C242 1.424 . S
C242 H234 0.951 . S
C242 C241 1.424 . S
C242 C243 1.347 . S
C243 H235 0.951 . S
C243 C238 1.429 . S
C243 C242 1.347 . S
H244 C245 0.951 1_565 S
C245 H244 0.951 1_545 S
C245 C251 1.265 . S
H246 C251 0.950 . S
H247 C255 0.949 . S
H248 C256 0.950 . S
H249 C257 0.951 . S
H250 C258 0.951 . S
C251 C245 1.265 . S
C251 H246 0.950 . S
C251 C252 1.478 . S
C252 C251 1.478 . S
C252 C253 1.397 1_545 S
C252 C269 1.394 . S
C253 C252 1.397 1_565 S
C253 C254 1.438 . S
C253 C258 1.429 . S
C254 C253 1.438 . S
C254 C255 1.428 . S
C254 C267 1.394 1_565 S
C255 H247 0.949 . S
C255 C254 1.428 . S
C255 C256 1.345 . S
C256 H248 0.950 . S
C256 C255 1.345 . S
C256 C257 1.424 . S
C257 H249 0.951 . S
C257 C256 1.424 . S
C257 C258 1.347 . S
C258 H250 0.951 . S
C258 C253 1.429 . S
C258 C257 1.347 . S
H259 C260 0.951 . S
C260 H259 0.951 . S
C260 C266 1.265 . S
H261 C266 0.950 . S
H262 C270 0.949 . S
H263 C271 0.950 . S
H264 C272 0.951 . S
H265 C273 0.951 . S
C266 C260 1.265 . S
C266 H261 0.950 . S
C266 C267 1.478 . S
C267 C254 1.394 1_545 S
C267 C266 1.478 . S
C267 C268 1.397 . S
C268 C267 1.397 . S
C268 C269 1.438 . S
C268 C273 1.429 . S
C269 C252 1.394 . S
C269 C268 1.438 . S
C269 C270 1.428 . S
C270 H262 0.949 . S
C270 C269 1.428 . S
C270 C271 1.345 . S
C271 H263 0.950 . S
C271 C270 1.345 . S
C271 C272 1.424 . S
C272 H264 0.951 . S
C272 C271 1.424 . S
C272 C273 1.347 . S
C273 H265 0.951 . S
C273 C268 1.429 . S
C273 C272 1.347 . S
H274 C275 0.951 . S
C275 H274 0.951 . S
C275 C281 1.265 . S
H276 C281 0.950 1_655 S
H277 C285 0.949 . S
H278 C286 0.950 . S
H279 C287 0.951 1_655 S
H280 C288 0.951 . S
C281 C275 1.265 . S
C281 H276 0.950 1_455 S
C281 C282 1.478 . S
C282 C281 1.478 . S
C282 C283 1.397 . S
C282 C299 1.394 . S
C283 C282 1.397 . S
C283 C284 1.438 . S
C283 C288 1.429 . S
C284 C283 1.438 . S
C284 C285 1.428 . S
C284 C297 1.394 . S
C285 H277 0.949 . S
C285 C284 1.428 . S
C285 C286 1.345 . S
C286 H278 0.950 . S
C286 C285 1.345 . S
C286 C287 1.424 . S
C287 H279 0.951 1_455 S
C287 C286 1.424 . S
C287 C288 1.347 . S
C288 H280 0.951 . S
C288 C283 1.429 . S
C288 C287 1.347 . S
H289 C290 0.951 . S
C290 H289 0.951 . S
C290 C296 1.265 . S
H291 C296 0.950 . S
H292 C300 0.949 . S
H293 C301 0.950 . S
H294 C302 0.951 . S
H295 C303 0.951 . S
C296 C290 1.265 . S
C296 H291 0.950 . S
C296 C297 1.478 . S
C297 C284 1.394 . S
C297 C296 1.478 . S
C297 C298 1.397 . S
C298 C297 1.397 . S
C298 C299 1.438 . S
C298 C303 1.429 . S
C299 C282 1.394 . S
C299 C298 1.438 . S
C299 C300 1.428 . S
C300 H292 0.949 . S
C300 C299 1.428 . S
C300 C301 1.345 . S
C301 H293 0.950 . S
C301 C300 1.345 . S
C301 C302 1.424 . S
C302 H294 0.951 . S
C302 C301 1.424 . S
C302 C303 1.347 . S
C303 H295 0.951 . S
C303 C298 1.429 . S
C303 C302 1.347 . S
H304 C305 0.951 . S
C305 H304 0.951 . S
C305 C311 1.265 . S
H306 C311 0.950 . S
H307 C315 0.949 . S
H308 C316 0.950 . S
H309 C317 0.951 . S
H310 C318 0.951 . S
C311 C305 1.265 . S
C311 H306 0.950 . S
C311 C312 1.478 . S
C312 C311 1.478 . S
C312 C313 1.397 . S
C312 C329 1.394 1_545 S
C313 C312 1.397 . S
C313 C314 1.438 . S
C313 C318 1.429 . S
C314 C313 1.438 . S
C314 C315 1.428 . S
C314 C327 1.394 . S
C315 H307 0.949 . S
C315 C314 1.428 . S
C315 C316 1.345 . S
C316 H308 0.950 . S
C316 C315 1.345 . S
C316 C317 1.424 . S
C317 H309 0.951 . S
C317 C316 1.424 . S
C317 C318 1.347 . S
C318 H310 0.951 . S
C318 C313 1.429 . S
C318 C317 1.347 . S
H319 C320 0.951 . S
C320 H319 0.951 . S
C320 C326 1.265 . S
H321 C326 0.950 . S
H322 C330 0.949 . S
H323 C331 0.950 . S
H324 C332 0.951 . S
H325 C333 0.951 . S
C326 C320 1.265 . S
C326 H321 0.950 . S
C326 C327 1.478 . S
C327 C314 1.394 . S
C327 C326 1.478 . S
C327 C328 1.397 1_545 S
C328 C327 1.397 1_565 S
C328 C329 1.438 . S
C328 C333 1.429 . S
C329 C312 1.394 1_565 S
C329 C328 1.438 . S
C329 C330 1.428 . S
C330 H322 0.949 . S
C330 C329 1.428 . S
C330 C331 1.345 . S
C331 H323 0.950 . S
C331 C330 1.345 . S
C331 C332 1.424 . S
C332 H324 0.951 . S
C332 C331 1.424 . S
C332 C333 1.347 . S
C333 H325 0.951 . S
C333 C328 1.429 . S
C333 C332 1.347 . S
H334 C335 0.951 . S
C335 H334 0.951 . S
C335 C341 1.265 . S
H336 C341 0.950 1_655 S
H337 C345 0.949 . S
H338 C346 0.950 . S
H339 C347 0.951 . S
H340 C348 0.951 . S
C341 C335 1.265 . S
C341 H336 0.950 1_455 S
C341 C342 1.478 . S
C342 C341 1.478 . S
C342 C343 1.397 . S
C342 C359 1.394 . S
C343 C342 1.397 . S
C343 C344 1.438 . S
C343 C348 1.429 . S
C344 C343 1.438 . S
C344 C345 1.428 . S
C344 C357 1.394 . S
C345 H337 0.949 . S
C345 C344 1.428 . S
C345 C346 1.345 . S
C346 H338 0.950 . S
C346 C345 1.345 . S
C346 C347 1.424 . S
C347 H339 0.951 . S
C347 C346 1.424 . S
C347 C348 1.347 . S
C348 H340 0.951 . S
C348 C343 1.429 . S
C348 C347 1.347 . S
H349 C350 0.951 . S
C350 H349 0.951 . S
C350 C356 1.265 . S
H351 C356 0.950 . S
H352 C360 0.949 . S
H353 C361 0.950 . S
H354 C362 0.951 . S
H355 C363 0.951 . S
C356 C350 1.265 . S
C356 H351 0.950 . S
C356 C357 1.478 . S
C357 C344 1.394 . S
C357 C356 1.478 . S
C357 C358 1.397 . S
C358 C357 1.397 . S
C358 C359 1.438 . S
C358 C363 1.429 . S
C359 C342 1.394 . S
C359 C358 1.438 . S
C359 C360 1.428 . S
C360 H352 0.949 . S
C360 C359 1.428 . S
C360 C361 1.345 . S
C361 H353 0.950 . S
C361 C360 1.345 . S
C361 C362 1.424 . S
C362 H354 0.951 . S
C362 C361 1.424 . S
C362 C363 1.347 . S
C363 H355 0.951 . S
C363 C358 1.429 . S
C363 C362 1.347 . S
C140 C101 1.168 . S
C125 C45 1.519 . S
C170 C121 1.480 . S
C155 C78 1.497 . S
C200 C100 1.508 . S
C185 C21 1.514 . S
C230 C122 1.517 . S
C215 C84 1.518 . S
C260 C114 1.427 . S
C245 C36 1.508 . S
C290 C107 1.458 . S
C275 C69 1.501 . S
C320 C115 1.169 . S
C305 C30 1.516 . S
C335 C93 1.495 . S
C350 C108 1.518 . S
