# Generated by pormake.
# Topology zzz, (3,6)-cn, num edge types: 1
# Building blocks:
#     Node 0, Type 0, BuildingBlock: BETDIP_clean_linker_0, # of connection points: 3
#     Node 1, Type 0, BuildingBlock: BETDIP_clean_linker_0, # of connection points: 3
#     Node 2, Type 0, BuildingBlock: BETDIP_clean_linker_0, # of connection points: 3
#     Node 3, Type 0, BuildingBlock: BETDIP_clean_linker_0, # of connection points: 3
#     Node 4, Type 0, BuildingBlock: BETDIP_clean_linker_0, # of connection points: 3
#     Node 5, Type 0, BuildingBlock: BETDIP_clean_linker_0, # of connection points: 3
#     Node 6, Type 0, BuildingBlock: BETDIP_clean_linker_0, # of connection points: 3
#     Node 7, Type 0, BuildingBlock: BETDIP_clean_linker_0, # of connection points: 3
#     Node 8, Type 1, BuildingBlock: CIFDUS_clean_sbu_1, # of connection points: 6
#     Node 9, Type 1, BuildingBlock: CIFDUS_clean_sbu_1, # of connection points: 6
#     Node 10, Type 1, BuildingBlock: CIFDUS_clean_sbu_1, # of connection points: 6
#     Node 11, Type 1, BuildingBlock: CIFDUS_clean_sbu_1, # of connection points: 6
#     Edge 12, Type (0, 1), BuildingBlock: EZIPEK_clean_linker_0, # of connection points: 2
#     Edge 13, Type (0, 1), BuildingBlock: EZIPEK_clean_linker_0, # of connection points: 2
#     Edge 14, Type (0, 1), BuildingBlock: EZIPEK_clean_linker_0, # of connection points: 2
#     Edge 15, Type (0, 1), BuildingBlock: EZIPEK_clean_linker_0, # of connection points: 2
#     Edge 16, Type (0, 1), BuildingBlock: EZIPEK_clean_linker_0, # of connection points: 2
#     Edge 17, Type (0, 1), BuildingBlock: EZIPEK_clean_linker_0, # of connection points: 2
#     Edge 18, Type (0, 1), BuildingBlock: EZIPEK_clean_linker_0, # of connection points: 2
#     Edge 19, Type (0, 1), BuildingBlock: EZIPEK_clean_linker_0, # of connection points: 2
#     Edge 20, Type (0, 1), BuildingBlock: EZIPEK_clean_linker_0, # of connection points: 2
#     Edge 21, Type (0, 1), BuildingBlock: EZIPEK_clean_linker_0, # of connection points: 2
#     Edge 22, Type (0, 1), BuildingBlock: EZIPEK_clean_linker_0, # of connection points: 2
#     Edge 23, Type (0, 1), BuildingBlock: EZIPEK_clean_linker_0, # of connection points: 2
#     Edge 24, Type (0, 1), BuildingBlock: EZIPEK_clean_linker_0, # of connection points: 2
#     Edge 25, Type (0, 1), BuildingBlock: EZIPEK_clean_linker_0, # of connection points: 2
#     Edge 26, Type (0, 1), BuildingBlock: EZIPEK_clean_linker_0, # of connection points: 2
#     Edge 27, Type (0, 1), BuildingBlock: EZIPEK_clean_linker_0, # of connection points: 2
#     Edge 28, Type (0, 1), BuildingBlock: EZIPEK_clean_linker_0, # of connection points: 2
#     Edge 29, Type (0, 1), BuildingBlock: EZIPEK_clean_linker_0, # of connection points: 2
#     Edge 30, Type (0, 1), BuildingBlock: EZIPEK_clean_linker_0, # of connection points: 2
#     Edge 31, Type (0, 1), BuildingBlock: EZIPEK_clean_linker_0, # of connection points: 2
#     Edge 32, Type (0, 1), BuildingBlock: EZIPEK_clean_linker_0, # of connection points: 2
#     Edge 33, Type (0, 1), BuildingBlock: EZIPEK_clean_linker_0, # of connection points: 2
#     Edge 34, Type (0, 1), BuildingBlock: EZIPEK_clean_linker_0, # of connection points: 2
#     Edge 35, Type (0, 1), BuildingBlock: EZIPEK_clean_linker_0, # of connection points: 2
# Relax obj value: 0.133
# Max RMSD: 0.181
# Mean RMSD: 0.107
data_MOF--net-zzz--node1-CIFDUS_clean_sbu_1--node2-BETDIP_clean_linker_0--edge1-EZIPEK_clean_linker_0
_symmetry_space_group_name_H-M    P1
_symmetry_Int_Tables_number       1
_symmetry_cell_setting            triclinic
loop_
_symmetry_equiv_pos_as_xyz
'x, y, z'
_cell_length_a     36.972884
_cell_length_b     36.779643
_cell_length_c     11.591674
_cell_angle_alpha  90.098713
_cell_angle_beta   89.84885
_cell_angle_gamma 90.19188
loop_
_atom_site_label
_atom_site_type_symbol
_atom_site_fract_x
_atom_site_fract_y
_atom_site_fract_z
_atom_type_partial_charge
H0 H 0.77073 0.54778 0.32544 0.0
H1 H 0.78627 0.5817 0.97107 0.0
H2 H 0.8772 0.56518 0.1899 0.0
H3 H 0.7287 0.60209 0.98823 0.0
C4 C 0.71771 0.57722 0.0247 0.0
C5 C 0.78811 0.55718 0.25628 0.0
C6 C 0.82624 0.55825 0.27233 0.0
C7 C 0.77292 0.56691 0.14759 0.0
C8 C 0.79659 0.57569 0.05603 0.0
C9 C 0.83385 0.57167 0.0687 0.0
C10 C 0.84811 0.56722 0.179 0.0
N11 N 0.73494 0.56238 0.12507 0.0
H12 H 0.99524 0.76207 0.32405 0.0
H13 H 0.95595 0.7888 0.98678 0.0
H14 H 0.96242 0.87046 0.25249 0.0
H15 H 0.93404 0.72814 -0.00117 0.0
C16 C 0.95983 0.71654 0.02355 0.0
C17 C 0.98302 0.78136 0.26557 0.0
C18 C 0.97801 0.8178 0.30049 0.0
C19 C 0.97314 0.77042 0.15262 0.0
C20 C 0.96074 0.79698 0.07441 0.0
C21 C 0.95758 0.83387 0.10726 0.0
C22 C 0.96369 0.84256 0.22312 0.0
N23 N 0.97979 0.73396 0.11421 0.0
H24 H 0.74998 0.9503 0.33726 0.0
H25 H 0.73922 0.98341 0.98016 0.0
H26 H 0.64704 0.98384 0.20097 0.0
H27 H 0.78753 0.93352 0.97324 0.0
C28 C 0.80283 0.95237 0.02663 0.0
C29 C 0.7335 0.9593 0.2658 0.0
C30 C 0.6957 0.96537 0.28218 0.0
C31 C 0.74975 0.96544 0.15537 0.0
C32 C 0.72782 0.9777 0.06439 0.0
C33 C 0.69125 0.98435 0.08316 0.0
C34 C 0.67564 0.97792 0.18961 0.0
N35 N 0.78803 0.96227 0.13694 0.0
H36 H 0.53513 0.76364 0.33448 0.0
H37 H 0.56344 0.73515 0.98561 0.0
H38 H 0.55679 0.65322 0.24723 0.0
H39 H 0.587 0.79195 0.97848 0.0
C40 C 0.56592 0.80724 0.02207 0.0
C41 C 0.54412 0.74378 0.27169 0.0
C42 C 0.54675 0.70671 0.30304 0.0
C43 C 0.55222 0.75467 0.15687 0.0
C44 C 0.55886 0.7273 0.07335 0.0
C45 C 0.55808 0.69011 0.10308 0.0
C46 C 0.55672 0.68141 0.22019 0.0
N47 N 0.54929 0.79223 0.12352 0.0
H48 H 0.25988 0.46843 0.05729 0.0
H49 H 0.24428 0.45717 0.42535 0.0
H50 H 0.15398 0.44991 0.20058 0.0
H51 H 0.29038 0.49771 0.41655 0.0
C52 C 0.30929 0.48218 0.36435 0.0
C53 C 0.2428 0.46155 0.1301 0.0
C54 C 0.20461 0.45859 0.11519 0.0
C55 C 0.25808 0.45909 0.24284 0.0
C56 C 0.23441 0.4555 0.33776 0.0
C57 C 0.19714 0.45465 0.32047 0.0
C58 C 0.18325 0.45059 0.2105 0.0
N59 N 0.29613 0.46429 0.26246 0.0
H60 H 0.05935 0.25961 0.06897 0.0
H61 H 0.05742 0.23939 0.43576 0.0
H62 H 0.07377 0.15164 0.20414 0.0
H63 H 0.01782 0.28787 0.41387 0.0
C64 C 0.03721 0.30659 0.37551 0.0
C65 C 0.06363 0.24158 0.14133 0.0
C66 C 0.06681 0.20334 0.12257 0.0
C67 C 0.0626 0.25562 0.25631 0.0
C68 C 0.06241 0.23068 0.34833 0.0
C69 C 0.06479 0.19354 0.32662 0.0
C70 C 0.07228 0.18093 0.21703 0.0
N71 N 0.05843 0.29376 0.27984 0.0
H72 H 0.25875 0.06573 0.05451 0.0
H73 H 0.27056 0.04649 0.42019 0.0
H74 H 0.36374 0.0671 0.21455 0.0
H75 H 0.21989 0.01154 0.37072 0.0
C76 C 0.20433 0.03469 0.34092 0.0
C77 C 0.27535 0.0657 0.13129 0.0
C78 C 0.31383 0.06745 0.12108 0.0
C79 C 0.25894 0.06044 0.24191 0.0
C80 C 0.28159 0.0542 0.33715 0.0
C81 C 0.31898 0.05526 0.32397 0.0
C82 C 0.33438 0.06678 0.22134 0.0
N83 N 0.22039 0.05851 0.25705 0.0
H84 H 0.42939 0.2752 0.07788 0.0
H85 H 0.48038 0.28162 0.41358 0.0
H86 H 0.47114 0.37683 0.20793 0.0
H87 H 0.50025 0.22488 0.34825 0.0
C88 C 0.47339 0.21389 0.33249 0.0
C89 C 0.44225 0.29086 0.14556 0.0
C90 C 0.44935 0.32863 0.12926 0.0
C91 C 0.45382 0.27318 0.24845 0.0
C92 C 0.47135 0.29397 0.33403 0.0
C93 C 0.47664 0.33117 0.31871 0.0
C94 C 0.46543 0.348 0.21849 0.0
N95 N 0.44836 0.23493 0.26627 0.0
O96 O 0.0253 0.05255 0.83818 0.0
Mn97 Mn 0.01062 0.00913 0.7222 0.0
O98 O 0.98126 0.09301 0.82153 0.0
Mn99 Mn 0.95633 0.06504 0.71891 0.0
O100 O 1.00017 0.96385 0.61054 0.0
O101 O 0.06497 1.00011 0.69466 0.0
Mn102 Mn 0.07345 0.95599 0.74824 0.0
O103 O 0.00586 0.97297 0.85674 0.0
O104 O 0.04696 0.92611 0.65074 0.0
O105 O 0.01664 0.04438 0.58439 0.0
O106 O 0.96744 0.07747 0.57172 0.0
O107 O 0.1174 0.97251 0.69728 0.0
O108 O 0.05995 0.95213 0.90166 0.0
C109 C 0.91906 0.0258 0.76869 0.0
C110 C 0.01149 0.08392 0.8626 0.0
C111 C 0.01733 0.93309 0.59886 0.0
C112 C 0.09897 1.00023 0.66221 0.0
C113 C 0.02612 0.9531 0.91874 0.0
C114 C 0.99929 0.07055 0.54013 0.0
O115 O 0.95394 0.01742 0.75264 0.0
O116 O 0.91034 0.05947 0.75184 0.0
O117 O 0.5405 0.01801 0.83189 0.0
Mn118 Mn 0.50497 0.01275 0.69592 0.0
O119 O 0.57676 0.06489 0.78976 0.0
Mn120 Mn 0.55881 0.07208 0.64431 0.0
O121 O 0.4696 0.00861 0.55783 0.0
O122 O 0.49888 0.95859 0.75139 0.0
Mn123 Mn 0.45131 0.9542 0.73324 0.0
O124 O 0.46114 0.03135 0.80543 0.0
O125 O 0.4334 0.96145 0.58884 0.0
O126 O 0.54997 0.99375 0.59421 0.0
O127 O 0.58109 0.04276 0.53738 0.0
O128 O 0.46302 0.90979 0.78006 0.0
O129 O 0.42701 0.98226 0.836 0.0
C130 C 0.51286 0.10004 0.59743 0.0
C131 C 0.56901 0.03687 0.84867 0.0
C132 C 0.44068 0.99084 0.53744 0.0
C133 C 0.49498 0.92442 0.78634 0.0
C134 C 0.43322 0.01573 0.85239 0.0
C135 C 0.57736 0.0085 0.54192 0.0
O136 O 0.51135 0.06629 0.63687 0.0
O137 O 0.54416 0.11608 0.5982 0.0
O138 O 0.50732 0.55011 0.86314 0.0
Mn139 Mn 0.50913 0.51597 0.72176 0.0
O140 O 0.45187 0.56977 0.88917 0.0
Mn141 Mn 0.44467 0.56644 0.73207 0.0
O142 O 0.51305 0.48178 0.57942 0.0
O143 O 0.56508 0.50988 0.77159 0.0
Mn144 Mn 0.56053 0.46132 0.77837 0.0
O145 O 0.48785 0.47074 0.81723 0.0
O146 O 0.55343 0.44062 0.63688 0.0
O147 O 0.52232 0.5635 0.62254 0.0
O148 O 0.47247 0.59867 0.6484 0.0
O149 O 0.60562 0.46644 0.81858 0.0
O150 O 0.53299 0.44075 0.89272 0.0
C151 C 0.42211 0.52283 0.63859 0.0
C152 C 0.48461 0.56898 0.92004 0.0
C153 C 0.52957 0.45146 0.56716 0.0
C154 C 0.59874 0.50063 0.80285 0.0
C155 C 0.49951 0.44462 0.88012 0.0
C156 C 0.50403 0.59344 0.60708 0.0
O157 O 0.45559 0.52293 0.6761 0.0
O158 O 0.40263 0.55048 0.66884 0.0
O159 O 0.0557 0.49987 0.82423 0.0
Mn160 Mn 0.01303 0.51305 0.70623 0.0
O161 O 0.09605 0.54545 0.80786 0.0
Mn162 Mn 0.07091 0.57195 0.69995 0.0
O163 O 0.96982 0.52511 0.59148 0.0
O164 O 0.00249 0.45827 0.68081 0.0
Mn165 Mn 0.9576 0.45272 0.73043 0.0
O166 O 0.9754 0.52072 0.83557 0.0
O167 O 0.92969 0.47995 0.62925 0.0
O168 O 0.04953 0.50594 0.57299 0.0
O169 O 0.08216 0.55629 0.5548 0.0
O170 O 0.97102 0.40724 0.68736 0.0
O171 O 0.95504 0.46669 0.88323 0.0
C172 C 0.0261 0.60248 0.75539 0.0
C173 C 0.08665 0.51475 0.84916 0.0
C174 C 0.93852 0.50944 0.57839 0.0
C175 C 1.00051 0.42351 0.65556 0.0
C176 C 0.95419 0.50075 0.89478 0.0
C177 C 0.07601 0.5233 0.5293 0.0
O178 O 0.02418 0.56763 0.73067 0.0
O179 O 0.0569 0.61802 0.73392 0.0
C180 C 0.13717 0.02731 0.37245 0.0
C181 C 0.1705 0.04256 0.4085 0.0
C182 C 0.14857 0.04387 0.60897 0.0
C183 C 0.11663 0.02504 0.5755 0.0
N184 N 0.07615 0.00782 0.4225 0.0
N185 N 0.20285 0.07685 0.55063 0.0
C186 C 0.10926 0.02032 0.45582 0.0
C187 C 0.17424 0.05496 0.5235 0.0
N188 N 0.13332 0.01734 0.25958 0.0
N189 N 0.15544 0.04894 0.7236 0.0
H190 H 0.22129 0.08554 0.48808 0.0
H191 H 0.20619 0.08926 0.63069 0.0
H192 H 0.1368 0.04184 0.78748 0.0
H193 H 0.17993 0.05856 0.75572 0.0
H194 H 0.11168 1.0022 0.22799 0.0
H195 H 0.15282 0.02371 0.19742 0.0
H196 H 0.06761 0.0066 0.33712 0.0
H197 H 0.0562 1.00071 0.48178 0.0
C198 C 0.46035 0.18278 0.5196 0.0
C199 C 0.46402 0.18007 0.39822 0.0
C200 C 0.47866 0.11516 0.41804 0.0
C201 C 0.48314 0.12026 0.53873 0.0
N202 N 0.47362 0.15657 0.70775 0.0
N203 N 0.4699 0.14316 0.22903 0.0
C204 C 0.47138 0.15312 0.59065 0.0
C205 C 0.4701 0.1457 0.34659 0.0
N206 N 0.44729 0.21428 0.56589 0.0
N207 N 0.48455 0.08151 0.37218 0.0
H208 H 0.46252 0.16506 0.17705 0.0
H209 H 0.47696 0.11998 0.18285 0.0
H210 H 0.49174 0.05947 0.42354 0.0
H211 H 0.48034 0.07475 0.28611 0.0
H212 H 0.44199 0.21809 0.65324 0.0
H213 H 0.43891 0.23584 0.51401 0.0
H214 H 0.46915 0.18066 0.7526 0.0
H215 H 0.48098 0.13479 0.76024 0.0
C216 C 0.34733 0.46341 0.53195 0.0
C217 C 0.34596 0.47673 0.41713 0.0
C218 C 0.40786 0.50048 0.43979 0.0
C219 C 0.40511 0.49528 0.56062 0.0
N220 N 0.37602 0.46651 0.72099 0.0
N221 N 0.37651 0.50375 0.25525 0.0
C222 C 0.37631 0.47423 0.60577 0.0
C223 C 0.37719 0.4931 0.36796 0.0
N224 N 0.32045 0.44082 0.56987 0.0
N225 N 0.43958 0.51334 0.39536 0.0
H226 H 0.35489 0.49761 0.20092 0.0
H227 H 0.39671 0.51924 0.21631 0.0
H228 H 0.46194 0.51819 0.44801 0.0
H229 H 0.44475 0.51607 0.30751 0.0
H230 H 0.32034 0.42825 0.65019 0.0
H231 H 0.29959 0.43221 0.51571 0.0
H232 H 0.35429 0.45473 0.76431 0.0
H233 H 0.39806 0.47272 0.77382 0.0
C234 C 0.03828 0.37581 0.39129 0.0
C235 C 0.04382 0.34122 0.44252 0.0
C236 C 0.04017 0.36977 0.63507 0.0
C237 C 0.0267 0.40196 0.58456 0.0
N238 N 0.01566 0.43755 0.41476 0.0
N239 N 0.05528 0.30602 0.61336 0.0
C240 C 0.02764 0.40594 0.46251 0.0
C241 C 0.04712 0.33875 0.56461 0.0
N242 N 0.04215 0.37955 0.27479 0.0
N243 N 0.04516 0.36884 0.75179 0.0
H244 H 0.06407 0.28398 0.5645 0.0
H245 H 0.05297 0.30041 0.70102 0.0
H246 H 0.03906 0.39102 0.80452 0.0
H247 H 0.05766 0.34764 0.79537 0.0
H248 H 0.04143 0.40443 0.2323 0.0
H249 H 0.0493 0.35794 0.22134 0.0
H250 H 0.01142 0.44126 0.32689 0.0
H251 H 0.00863 0.45999 0.46486 0.0
C252 C 0.83206 0.00644 0.93034 0.0
C253 C 0.8351 0.97029 0.97022 0.0
C254 C 0.89321 0.96551 0.86234 0.0
C255 C 0.88918 1.00183 0.82136 0.0
N256 N 0.84116 0.04219 0.76018 0.0
N257 N 0.86382 0.91206 0.94685 0.0
C258 C 0.85462 0.0182 0.83884 0.0
C259 C 0.86424 0.94868 0.9272 0.0
N260 N 0.80674 0.02949 0.97459 0.0
N261 N 0.92358 0.94655 0.83584 0.0
H262 H 0.84449 0.8995 -0.00085 0.0
H263 H 0.8813 0.89373 0.90738 0.0
H264 H 0.94454 0.95752 0.78821 0.0
H265 H 0.92799 0.91968 0.8584 0.0
H266 H 0.80552 0.05679 0.95057 0.0
H267 H 0.78991 0.02267 0.0432 0.0
H268 H 0.81515 0.05295 0.76649 0.0
H269 H 0.85335 0.04631 0.67992 0.0
C270 C 0.55354 0.87532 0.00673 0.0
C271 C 0.55114 0.83971 0.95913 0.0
C272 C 0.52811 0.86622 0.77881 0.0
C273 C 0.52407 0.90046 0.83342 0.0
N274 N 0.53231 0.93786 0.00185 0.0
N275 N 0.5331 0.80096 0.80105 0.0
C276 C 0.53716 0.90527 0.94764 0.0
C277 C 0.53801 0.83516 0.84481 0.0
N278 N 0.57228 0.88072 0.10662 0.0
N279 N 0.5219 0.86354 0.66295 0.0
H280 H 0.53939 0.77747 0.84682 0.0
H281 H 0.5198 0.79572 0.72367 0.0
H282 H 0.515 0.88614 0.61321 0.0
H283 H 0.52715 0.84021 0.61481 0.0
H284 H 0.57885 0.90645 0.13797 0.0
H285 H 0.58402 0.85945 0.15256 0.0
H286 H 0.5376 0.94208 0.08907 0.0
H287 H 0.52135 0.9603 0.95992 0.0
C288 C 0.65702 0.58024 0.92191 0.0
C289 C 0.68723 0.55916 0.95959 0.0
C290 C 0.66518 0.50969 0.83627 0.0
C291 C 0.63039 0.52594 0.82907 0.0
N292 N 0.59696 0.58155 0.83589 0.0
N293 N 0.72038 0.50258 0.94364 0.0
C294 C 0.62739 0.56285 0.8627 0.0
C295 C 0.69128 0.52342 0.91495 0.0
N296 N 0.65694 0.61693 0.94115 0.0
N297 N 0.67424 0.48263 0.76067 0.0
H298 H 0.74184 0.51183 0.99342 0.0
H299 H 0.72201 0.47503 0.92295 0.0
H300 H 0.65712 0.47485 0.69342 0.0
H301 H 0.70017 0.47174 0.75468 0.0
H302 H 0.63904 0.63487 0.90232 0.0
H303 H 0.67598 0.63015 0.99254 0.0
H304 H 0.59233 0.60813 0.86127 0.0
H305 H 0.57687 0.57098 0.78316 0.0
C306 C 0.99135 0.65487 0.01534 0.0
C307 C 0.97338 0.68375 0.9579 0.0
C308 C 0.97705 0.64849 0.77606 0.0
C309 C 1.0001 0.6231 0.82938 0.0
N310 N 0.0306 0.60233 -0.0004 0.0
N311 N 0.95289 0.70962 0.77754 0.0
C312 C 0.00754 0.6264 0.94916 0.0
C313 C 0.96672 0.68073 0.83678 0.0
N314 N 0.99097 0.65319 0.13312 0.0
N315 N 0.96555 0.64188 0.66616 0.0
H316 H 0.94664 0.73444 0.81605 0.0
H317 H 0.95097 0.71034 0.68797 0.0
H318 H 0.973 0.6184 0.6213 0.0
H319 H 0.94601 0.65742 0.62476 0.0
H320 H 1.00112 0.6313 0.17963 0.0
H321 H 0.97661 0.6714 0.18448 0.0
H322 H 0.04125 0.60583 0.082 0.0
H323 H 0.03972 0.57919 0.95648 0.0
C324 C 0.07006 0.143 0.466 0.0
C325 C 0.0479 0.16671 0.40294 0.0
C326 C 0.99934 0.12182 0.40279 0.0
C327 C 0.01923 0.10005 0.48039 0.0
N328 N 0.07155 0.09687 0.61011 0.0
N329 N 0.9885 0.18247 0.33249 0.0
C330 C 0.05422 0.11219 0.51857 0.0
C331 C 0.01137 0.1575 0.3797 0.0
N332 N 0.10632 0.14977 0.47528 0.0
N333 N 0.96944 0.10802 0.34895 0.0
H334 H 0.99639 0.20902 0.31357 0.0
H335 H 0.96084 0.17788 0.32303 0.0
H336 H 0.96144 0.08092 0.35778 0.0
H337 H 0.95505 0.12215 0.28644 0.0
H338 H 0.12459 0.13063 0.50648 0.0
H339 H 0.11832 0.17362 0.44464 0.0
H340 H 0.09534 0.10762 0.64405 0.0
H341 H 0.06132 0.07623 0.66106 0.0
C342 C 0.36349 0.05698 0.48059 0.0
C343 C 0.34325 0.03611 0.40295 0.0
C344 C 0.38828 0.98764 0.4042 0.0
C345 C 0.41002 0.009 0.4789 0.0
N346 N 0.4187 0.06598 0.58446 0.0
N347 N 0.32961 0.97846 0.31549 0.0
C348 C 0.39773 0.04416 0.51671 0.0
C349 C 0.35352 1.00027 0.37308 0.0
N350 N 0.34888 0.08852 0.5226 0.0
N351 N 0.40184 0.95614 0.35864 0.0
H352 H 0.3037 0.98711 0.29354 0.0
H353 H 0.33385 0.95099 0.29901 0.0
H354 H 0.42824 0.94744 0.37381 0.0
H355 H 0.38844 0.94017 0.29813 0.0
H356 H 0.3597 0.10379 0.58984 0.0
H357 H 0.32344 0.09769 0.49704 0.0
H358 H 0.4136 0.09341 0.59823 0.0
H359 H 0.44255 0.05826 0.62272 0.0
C360 C 0.52842 0.37043 0.36939 0.0
C361 C 0.49503 0.35459 0.40302 0.0
C362 C 0.48135 0.40629 0.52609 0.0
C363 C 0.51475 0.42279 0.49237 0.0
N364 N 0.57163 0.41979 0.39116 0.0
N365 N 0.44522 0.35123 0.53534 0.0
C366 C 0.53881 0.40449 0.41661 0.0
C367 C 0.47334 0.37057 0.48886 0.0
N368 N 0.54912 0.3532 0.28822 0.0
N369 N 0.45716 0.42453 0.59392 0.0
H370 H 0.4388 0.32491 0.50888 0.0
H371 H 0.43073 0.35942 0.60794 0.0
H372 H 0.46159 0.45034 0.62668 0.0
H373 H 0.43102 0.41534 0.61052 0.0
H374 H 0.57171 0.36464 0.24866 0.0
H375 H 0.54286 0.32711 0.25852 0.0
H376 H 0.59222 0.40648 0.34696 0.0
H377 H 0.57862 0.44607 0.41726 0.0
C378 C 0.16547 0.50918 0.38635 0.0
C379 C 0.17211 0.47164 0.40277 0.0
C380 C 0.11604 0.46666 0.51156 0.0
C381 C 0.10606 0.50263 0.47467 0.0
N382 N 0.11884 0.55286 0.34665 0.0
N383 N 0.15112 0.41305 0.46564 0.0
C384 C 0.1301 0.5223 0.40273 0.0
C385 C 0.1465 0.44984 0.46039 0.0
N386 N 0.19245 0.53195 0.35037 0.0
N387 N 0.09896 0.44913 0.60009 0.0
H388 H 0.17454 0.40033 0.43564 0.0
H389 H 0.13079 0.39532 0.49323 0.0
H390 H 0.07875 0.46005 0.65101 0.0
H391 H 0.10803 0.42441 0.63278 0.0
H392 H 0.1892 0.56005 0.34548 0.0
H393 H 0.21897 0.52335 0.33788 0.0
H394 H 0.13518 0.56711 0.28892 0.0
H395 H 0.09193 0.56135 0.34751 0.0
C396 C 0.95153 0.90048 0.065 0.0
C397 C 0.95796 0.8649 0.02243 0.0
C398 C 0.00991 0.88691 0.91514 0.0
C399 C 0.00718 0.92155 0.97087 0.0
N400 N 0.97218 0.96198 0.09225 0.0
N401 N 0.97334 0.83766 0.84147 0.0
C402 C 0.97686 0.92855 0.04319 0.0
C403 C 0.98119 0.86177 0.92715 0.0
N404 N 0.92184 0.90754 0.13055 0.0
N405 N 0.03933 0.87743 0.85057 0.0
H406 H 0.94882 0.82351 0.84065 0.0
H407 H 0.98809 0.8363 0.76474 0.0
H408 H 0.06266 0.89307 0.84394 0.0
H409 H 0.0421 0.85157 0.81455 0.0
H410 H 0.9023 0.88775 0.14865 0.0
H411 H 0.9023 0.88775 0.14865 0.0
H412 H 0.94999 0.96799 0.14478 0.0
H413 H 0.99099 0.983 0.08287 0.0
C414 C 0.65591 0.03538 0.01161 0.0
C415 C 0.66721 0.99915 -0.00486 0.0
C416 C 0.61303 0.98592 0.88393 0.0
C417 C 0.59909 0.02101 0.91484 0.0
N418 N 0.60508 0.07641 0.02434 0.0
N419 N 0.65698 0.93889 0.92198 0.0
C420 C 0.62005 0.045 0.98333 0.0
C421 C 0.64614 0.9743 0.93154 0.0
N422 N 0.67948 0.06011 0.05741 0.0
N423 N 0.59611 0.96411 0.80511 0.0
H424 H 0.68237 0.93011 0.94916 0.0
H425 H 0.64022 0.91802 0.89257 0.0
H426 H 0.57005 0.96785 0.77573 0.0
H427 H 0.60876 0.9422 0.76489 0.0
H428 H 0.67395 0.08779 0.06374 0.0
H429 H 0.70602 0.05315 0.07847 0.0
H430 H 0.61801 0.09356 0.08287 0.0
H431 H 0.57819 0.08338 0.00865 0.0
C432 C 0.55926 0.62378 0.05378 0.0
C433 C 0.54908 0.65952 0.02072 0.0
C434 C 0.49148 0.63618 0.94994 0.0
C435 C 0.50084 0.60029 0.98403 0.0
N436 N 0.54143 0.56072 0.08477 0.0
N437 N 0.51653 0.69138 0.87263 0.0
C438 C 0.53439 0.59436 0.04039 0.0
C439 C 0.51844 0.66351 0.94955 0.0
N440 N 0.59288 0.61881 0.09947 0.0
N441 N 0.45691 0.64487 0.92003 0.0
H442 H 0.53913 0.70698 0.85196 0.0
H443 H 0.49543 0.69397 0.81369 0.0
H444 H 0.43503 0.62755 0.93399 0.0
H445 H 0.44927 0.67136 0.8996 0.0
H446 H 0.60367 0.59371 0.12158 0.0
H447 H 0.61088 0.64058 0.1086 0.0
H448 H 0.56437 0.55427 0.13206 0.0
H449 H 0.52246 0.53965 0.08115 0.0
C450 C 0.85417 0.52725 0.92027 0.0
C451 C 0.85827 0.56214 0.97107 0.0
C452 C 0.92316 0.55428 0.97885 0.0
C453 C 0.9201 0.51886 0.93129 0.0
N454 N 0.88115 0.47589 0.82663 0.0
N455 N 0.89624 0.614 -0.00313 0.0
C456 C 0.8853 0.50646 0.89274 0.0
C457 C 0.89293 0.57764 0.97733 0.0
N458 N 0.82054 0.51277 0.90392 0.0
N459 N 0.95405 0.5646 0.03401 0.0
H460 H 0.87351 0.63078 0.00069 0.0
H461 H 0.92118 0.62717 -0.00121 0.0
H462 H 0.9763 0.54742 0.04237 0.0
H463 H 0.95538 0.58817 0.08372 0.0
H464 H 0.81584 0.48505 0.89201 0.0
H465 H 0.79735 0.5285 0.89972 0.0
H466 H 0.85776 0.47064 0.77931 0.0
H467 H 0.90048 0.45608 0.81288 0.0
C468 C 0.01694 0.17316 0.02052 0.0
C469 C 0.05409 0.18235 0.01895 0.0
C470 C 0.06669 0.12321 0.92298 0.0
C471 C 0.02959 0.11297 0.93577 0.0
N472 N 0.97363 0.12414 0.03658 0.0
N473 N 0.11476 0.16704 0.96704 0.0
C474 C 0.00606 0.13689 -0.00354 0.0
C475 C 0.07896 0.15776 0.96695 0.0
N476 N 0.99207 0.19886 0.05022 0.0
N477 N 0.09041 0.09976 0.87249 0.0
H478 H 0.12342 0.19271 0.99436 0.0
H479 H 0.1357 0.14977 0.94314 0.0
H480 H 0.08398 0.07283 0.8548 0.0
H481 H 0.11666 0.1067 0.84863 0.0
H482 H 0.96426 0.19448 0.04519 0.0
H483 H 0.99932 0.22575 0.06708 0.0
H484 H 0.95621 0.1395 0.08772 0.0
H485 H 0.96624 0.09678 0.02981 0.0
C486 C 0.35885 0.08268 0.9629 0.0
C487 C 0.33559 0.05676 0.0167 0.0
C488 C 0.38293 0.01149 -0.00465 0.0
C489 C 0.40437 0.03467 0.92444 0.0
N490 N 0.41102 0.0946 0.84021 0.0
N491 N 0.32238 0.99349 0.04784 0.0
C492 C 0.3918 0.07101 0.90711 0.0
C493 C 0.34632 0.02 0.01669 0.0
N494 N 0.35016 0.11861 0.97018 0.0
N495 N 0.39816 0.98214 0.04816 0.0
H496 H 0.29527 0.99914 0.06509 0.0
H497 H 0.32888 0.96592 0.04472 0.0
H498 H 0.42597 0.97725 0.04501 0.0
H499 H 0.38395 0.96576 0.10603 0.0
H500 H 0.36761 0.13952 0.94566 0.0
H501 H 0.32567 0.12718 0.00601 0.0
H502 H 0.4009 0.11956 0.81316 0.0
H503 H 0.43684 0.089 0.80983 0.0
C504 C 0.47356 0.34596 0.93605 0.0
C505 C 0.44588 0.34997 0.01935 0.0
C506 C 0.44459 0.41615 0.9827 0.0
C507 C 0.47577 0.41266 0.91192 0.0
N508 N 0.50896 0.37312 0.7834 0.0
N509 N 0.39589 0.38529 0.08691 0.0
C510 C 0.48655 0.37712 0.8761 0.0
C511 C 0.42771 0.38395 0.02745 0.0
N512 N 0.48957 0.3129 0.92102 0.0
N513 N 0.43274 0.4499 0.01376 0.0
H514 H 0.38447 0.36177 0.12233 0.0
H515 H 0.37978 0.40839 0.09255 0.0
H516 H 0.44455 0.47371 0.98251 0.0
H517 H 0.41244 0.45434 0.07449 0.0
H518 H 0.51367 0.3092 0.87582 0.0
H519 H 0.4791 0.28915 0.95679 0.0
H520 H 0.51487 0.34815 0.74544 0.0
H521 H 0.5183 0.39521 0.73651 0.0
C522 C 0.16081 0.44886 0.95377 0.0
C523 C 0.18301 0.47345 0.01642 0.0
C524 C 0.13705 0.52091 0.99235 0.0
C525 C 0.11503 0.49714 0.92518 0.0
N526 N 0.10236 0.43532 0.86753 0.0
N527 N 0.19616 0.53508 0.07079 0.0
C528 C 0.12601 0.46016 0.9119 0.0
C529 C 0.17241 0.51028 0.02626 0.0
N530 N 0.17349 0.41449 0.93554 0.0
N531 N 0.12284 0.55299 0.0307 0.0
H532 H 0.22228 0.52809 0.09566 0.0
H533 H 0.19151 0.56298 0.07167 0.0
H534 H 0.0958 0.5597 0.01793 0.0
H535 H 0.13622 0.57089 0.08564 0.0
H536 H 0.16082 0.39509 0.88421 0.0
H537 H 0.19888 0.40648 0.96543 0.0
H538 H 0.10752 0.40765 0.86076 0.0
H539 H 0.07578 0.44162 0.84755 0.0
C540 C 0.96756 0.84815 0.48868 0.0
C541 C 0.99294 0.83515 0.4069 0.0
C542 C 0.03105 0.88889 0.44011 0.0
C543 C 0.00511 0.90309 0.51926 0.0
N544 N 0.94708 0.89776 0.61116 0.0
N545 N 0.05279 0.83727 0.32864 0.0
C546 C 0.97299 0.88286 0.54236 0.0
C547 C 0.02621 0.85356 0.39211 0.0
N548 N 0.93761 0.8274 0.51016 0.0
N549 N 0.05935 0.9103 0.40571 0.0
H550 H 0.04939 0.81138 0.29323 0.0
H551 H 0.07895 0.84751 0.32065 0.0
H552 H 0.06296 0.93672 0.436 0.0
H553 H 0.07715 0.90345 0.33951 0.0
H554 H 0.91733 0.83397 0.56871 0.0
H555 H 0.93424 0.80192 0.47155 0.0
H556 H 0.92345 0.88478 0.63728 0.0
H557 H 0.94817 0.92494 0.63427 0.0
C558 C 0.67636 0.99141 0.47279 0.0
C559 C 0.67428 0.96255 0.39249 0.0
C560 C 0.60897 0.95552 0.43549 0.0
C561 C 0.61043 0.98695 0.50662 0.0
N562 N 0.64855 0.02281 0.63284 0.0
N563 N 0.64281 0.90885 0.3315 0.0
C564 C 0.6452 1.00082 0.53852 0.0
C565 C 0.64198 0.94129 0.38851 0.0
N566 N 0.70717 0.01181 0.48017 0.0
N567 N 0.57632 0.94081 0.40619 0.0
H568 H 0.66671 0.89914 0.29451 0.0
H569 H 0.62124 0.89058 0.33014 0.0
H570 H 0.55185 0.95077 0.43749 0.0
H571 H 0.5733 0.91996 0.34619 0.0
H572 H 0.70851 0.03647 0.52438 0.0
H573 H 0.73103 0.00472 0.43795 0.0
H574 H 0.67341 0.03091 0.66651 0.0
H575 H 0.62666 0.02941 0.6851 0.0
C576 C 0.55375 0.67916 0.50036 0.0
C577 C 0.53079 0.68952 0.40845 0.0
C578 C 0.49485 0.63419 0.43792 0.0
C579 C 0.51697 0.62408 0.53264 0.0
N580 N 0.55896 0.64457 0.67727 0.0
N581 N 0.47323 0.68287 0.31545 0.0
C582 C 0.54409 0.64878 0.57092 0.0
C583 C 0.49871 0.66931 0.38852 0.0
N584 N 0.58516 0.6978 0.51825 0.0
N585 N 0.47095 0.60969 0.39237 0.0
H586 H 0.47614 0.7084 0.27717 0.0
H587 H 0.44814 0.67058 0.30234 0.0
H588 H 0.46817 0.58337 0.42441 0.0
H589 H 0.45673 0.61424 0.31629 0.0
H590 H 0.60493 0.68922 0.57597 0.0
H591 H 0.5917 0.72105 0.4709 0.0
H592 H 0.57713 0.66308 0.71324 0.0
H593 H 0.54943 0.62488 0.73413 0.0
C594 C 0.85881 0.56562 0.4632 0.0
C595 C 0.84664 0.54258 0.37262 0.0
C596 C 0.89864 0.50236 0.40587 0.0
C597 C 0.9101 0.52432 0.49985 0.0
N598 N 0.89689 0.57299 0.63286 0.0
N599 N 0.85006 0.48473 0.27669 0.0
C600 C 0.88892 0.55489 0.53304 0.0
C601 C 0.86485 0.50928 0.35171 0.0
N602 N 0.8423 0.59834 0.47968 0.0
N603 N 0.92089 0.4756 0.3653 0.0
H604 H 0.82536 0.48933 0.23585 0.0
H605 H 0.8603 0.4587 0.26373 0.0
H606 H 0.94615 0.47038 0.40132 0.0
H607 H 0.91604 0.46115 0.28954 0.0
H608 H 0.85221 0.61837 0.5349 0.0
H609 H 0.81927 0.60583 0.43366 0.0
H610 H 0.88023 0.59282 0.66867 0.0
H611 H 0.91913 0.56651 0.68397 0.0
loop_
_geom_bond_atom_site_label_1
_geom_bond_atom_site_label_2
_geom_bond_distance
_geom_bond_site_symmetry_2
_ccdc_geom_bond_type
H0 C5 0.930 . S
H1 C8 0.930 . S
H2 C10 0.930 . S
H3 C4 1.016 1_556 S
C4 H3 1.016 1_554 S
C4 N11 1.286 . S
C5 H0 0.930 . S
C5 C6 1.397 . S
C5 C7 1.361 . S
C6 C5 1.397 . S
C6 C10 1.390 . S
C7 C5 1.361 . S
C7 C8 1.393 1_554 S
C7 N11 1.413 . S
C8 H1 0.930 . S
C8 C7 1.393 1_556 S
C8 C9 1.399 1_556 S
C9 C8 1.399 1_554 S
C9 C10 1.381 . S
C10 H2 0.930 . S
C10 C6 1.390 . S
C10 C9 1.381 . S
N11 C4 1.286 . S
N11 C7 1.413 . S
H12 C17 0.930 . S
H13 C20 0.930 . S
H14 C22 0.930 . S
H15 C16 1.016 1_556 S
C16 H15 1.016 1_554 S
C16 N23 1.286 . S
C17 H12 0.930 . S
C17 C18 1.397 . S
C17 C19 1.361 . S
C18 C17 1.397 . S
C18 C22 1.390 . S
C19 C17 1.361 . S
C19 C20 1.393 1_554 S
C19 N23 1.413 . S
C20 H13 0.930 . S
C20 C19 1.393 1_556 S
C20 C21 1.399 1_556 S
C21 C20 1.399 1_554 S
C21 C22 1.381 . S
C22 H14 0.930 . S
C22 C18 1.390 . S
C22 C21 1.381 . S
N23 C16 1.286 . S
N23 C19 1.413 . S
H24 C29 0.930 . S
H25 C32 0.930 . S
H26 C34 0.930 . S
H27 C28 1.016 1_556 S
C28 H27 1.016 1_554 S
C28 N35 1.286 . S
C29 H24 0.930 . S
C29 C30 1.397 . S
C29 C31 1.361 . S
C30 C29 1.397 . S
C30 C34 1.390 . S
C31 C29 1.361 . S
C31 C32 1.393 1_554 S
C31 N35 1.413 . S
C32 H25 0.930 . S
C32 C31 1.393 1_556 S
C32 C33 1.399 1_556 S
C33 C32 1.399 1_554 S
C33 C34 1.381 . S
C34 H26 0.930 . S
C34 C30 1.390 . S
C34 C33 1.381 . S
N35 C28 1.286 . S
N35 C31 1.413 . S
H36 C41 0.930 . S
H37 C44 0.938 . S
H38 C46 0.930 . S
H39 C40 1.016 1_556 S
C40 H39 1.016 1_554 S
C40 N47 1.286 . S
C41 H36 0.930 . S
C41 C42 1.397 . S
C41 C43 1.361 . S
C42 C41 1.397 . S
C42 C46 1.390 . S
C43 C41 1.361 . S
C43 C44 1.386 1_554 S
C43 N47 1.413 . S
C44 H37 0.938 . S
C44 C43 1.386 1_556 S
C44 C45 1.398 1_556 S
C45 C44 1.398 1_554 S
C45 C46 1.381 . S
C46 H38 0.930 . S
C46 C42 1.390 . S
C46 C45 1.381 . S
N47 C40 1.286 . S
N47 C43 1.413 . S
H48 C53 0.930 . S
H49 C56 0.930 . S
H50 C58 0.930 . S
H51 C52 1.016 . S
C52 H51 1.016 . S
C52 N59 1.286 . S
C53 H48 0.930 . S
C53 C54 1.397 . S
C53 C55 1.361 . S
C54 C53 1.397 . S
C54 C58 1.390 . S
C55 C53 1.361 . S
C55 C56 1.393 . S
C55 N59 1.413 . S
C56 H49 0.930 . S
C56 C55 1.393 . S
C56 C57 1.399 . S
C57 C56 1.399 . S
C57 C58 1.381 . S
C58 H50 0.930 . S
C58 C54 1.390 . S
C58 C57 1.381 . S
N59 C52 1.286 . S
N59 C55 1.413 . S
H60 C65 0.930 . S
H61 C68 0.930 . S
H62 C70 0.930 . S
H63 C64 1.016 . S
C64 H63 1.016 . S
C64 N71 1.286 . S
C65 H60 0.930 . S
C65 C66 1.397 . S
C65 C67 1.361 . S
C66 C65 1.397 . S
C66 C70 1.390 . S
C67 C65 1.361 . S
C67 C68 1.393 . S
C67 N71 1.413 . S
C68 H61 0.930 . S
C68 C67 1.393 . S
C68 C69 1.399 . S
C69 C68 1.399 . S
C69 C70 1.381 . S
C70 H62 0.930 . S
C70 C66 1.390 . S
C70 C69 1.381 . S
N71 C64 1.286 . S
N71 C67 1.413 . S
H72 C77 0.930 . S
H73 C80 0.930 . S
H74 C82 0.930 . S
H75 C76 1.016 . S
C76 H75 1.016 . S
C76 N83 1.286 . S
C77 H72 0.930 . S
C77 C78 1.397 . S
C77 C79 1.361 . S
C78 C77 1.397 . S
C78 C82 1.390 . S
C79 C77 1.361 . S
C79 C80 1.393 . S
C79 N83 1.413 . S
C80 H73 0.930 . S
C80 C79 1.393 . S
C80 C81 1.399 . S
C81 C80 1.399 . S
C81 C82 1.381 . S
C82 H74 0.930 . S
C82 C78 1.390 . S
C82 C81 1.381 . S
N83 C76 1.286 . S
N83 C79 1.413 . S
H84 C89 0.930 . S
H85 C92 0.930 . S
H86 C94 0.930 . S
H87 C88 1.016 . S
C88 H87 1.016 . S
C88 N95 1.286 . S
C89 H84 0.930 . S
C89 C90 1.397 . S
C89 C91 1.361 . S
C90 C89 1.397 . S
C90 C94 1.390 . S
C91 C89 1.361 . S
C91 C92 1.393 . S
C91 N95 1.413 . S
C92 H85 0.930 . S
C92 C91 1.393 . S
C92 C93 1.399 . S
C93 C92 1.399 . S
C93 C94 1.381 . S
C94 H86 0.930 . S
C94 C90 1.390 . S
C94 C93 1.381 . S
N95 C88 1.286 . S
N95 C91 1.413 . S
O96 Mn97 2.163 . S
O96 C110 1.244 . S
Mn97 O96 2.163 . S
Mn97 O100 2.160 1_445 S
Mn97 O101 2.221 1_545 S
Mn97 O103 2.166 1_545 S
Mn97 O105 2.160 . S
Mn97 O115 2.221 1_455 S
O98 Mn99 2.087 . S
O98 C110 1.256 1_655 S
Mn99 O98 2.087 . S
Mn99 O106 2.089 . S
Mn99 O115 2.290 . S
Mn99 O116 2.251 . S
O100 Mn97 2.160 1_665 S
O100 C111 1.239 . S
O101 Mn97 2.221 1_565 S
O101 Mn102 2.290 . S
O101 C112 1.278 . S
Mn102 O101 2.290 . S
Mn102 O104 2.089 . S
Mn102 O107 2.251 . S
Mn102 O108 2.087 . S
O103 Mn97 2.166 1_565 S
O103 C113 1.258 . S
O104 Mn102 2.089 . S
O104 C111 1.256 1_455 S
O105 Mn97 2.160 . S
O105 C114 1.239 1_455 S
O106 Mn99 2.089 . S
O106 C114 1.256 . S
O107 Mn102 2.251 . S
O107 C112 1.241 . S
O108 Mn102 2.087 . S
O108 C113 1.256 . S
C109 O115 1.278 . S
C109 O116 1.241 . S
C110 O96 1.244 . S
C110 O98 1.256 1_455 S
C111 O100 1.239 . S
C111 O104 1.256 1_655 S
C112 O101 1.278 . S
C112 O107 1.241 . S
C113 O103 1.258 . S
C113 O108 1.256 . S
C114 O105 1.239 1_655 S
C114 O106 1.256 . S
O115 Mn97 2.221 1_655 S
O115 Mn99 2.290 . S
O115 C109 1.278 . S
O116 Mn99 2.251 . S
O116 C109 1.241 . S
O117 Mn118 2.163 . S
O117 C131 1.244 . S
Mn118 O117 2.163 . S
Mn118 O121 2.160 . S
Mn118 O122 2.221 1_545 S
Mn118 O124 2.163 . S
Mn118 O126 2.160 1_545 S
Mn118 O136 2.221 . S
O119 Mn120 2.087 . S
O119 C131 1.256 . S
Mn120 O119 2.087 . S
Mn120 O127 2.089 . S
Mn120 O136 2.290 . S
Mn120 O137 2.251 . S
O121 Mn118 2.160 . S
O121 C132 1.231 1_545 S
O122 Mn118 2.221 1_565 S
O122 Mn123 2.290 . S
O122 C133 1.278 . S
Mn123 O122 2.290 . S
Mn123 O125 2.089 . S
Mn123 O128 2.251 . S
Mn123 O129 2.087 . S
O124 Mn118 2.163 . S
O124 C134 1.244 . S
O125 Mn123 2.089 . S
O125 C132 1.273 . S
O126 Mn118 2.160 1_565 S
O126 C135 1.239 . S
O127 Mn120 2.089 . S
O127 C135 1.256 1_545 S
O128 Mn123 2.251 . S
O128 C133 1.241 . S
O129 Mn123 2.087 . S
O129 C134 1.256 1_565 S
C130 O136 1.278 . S
C130 O137 1.241 . S
C131 O117 1.244 . S
C131 O119 1.256 . S
C132 O121 1.231 1_565 S
C132 O125 1.273 . S
C133 O122 1.278 . S
C133 O128 1.241 . S
C134 O124 1.244 . S
C134 O129 1.256 1_545 S
C135 O126 1.239 . S
C135 O127 1.256 1_565 S
O136 Mn118 2.221 . S
O136 Mn120 2.290 . S
O136 C130 1.278 . S
O137 Mn120 2.251 . S
O137 C130 1.241 . S
O138 Mn139 2.163 . S
O138 C152 1.244 . S
Mn139 O138 2.163 . S
Mn139 O142 2.160 . S
Mn139 O143 2.221 . S
Mn139 O145 2.163 . S
Mn139 O147 2.160 . S
Mn139 O157 2.221 . S
O140 Mn141 2.087 . S
O140 C152 1.256 . S
Mn141 O140 2.087 . S
Mn141 O148 2.089 . S
Mn141 O157 2.290 . S
Mn141 O158 2.251 . S
O142 Mn139 2.160 . S
O142 C153 1.239 . S
O143 Mn139 2.221 . S
O143 Mn144 2.290 . S
O143 C154 1.278 . S
Mn144 O143 2.290 . S
Mn144 O146 2.089 . S
Mn144 O149 2.251 . S
Mn144 O150 2.087 . S
O145 Mn139 2.163 . S
O145 C155 1.244 . S
O146 Mn144 2.089 . S
O146 C153 1.256 . S
O147 Mn139 2.160 . S
O147 C156 1.239 . S
O148 Mn141 2.089 . S
O148 C156 1.256 . S
O149 Mn144 2.251 . S
O149 C154 1.241 . S
O150 Mn144 2.087 . S
O150 C155 1.256 . S
C151 O157 1.278 . S
C151 O158 1.241 . S
C152 O138 1.244 . S
C152 O140 1.256 . S
C153 O142 1.239 . S
C153 O146 1.256 . S
C154 O143 1.278 . S
C154 O149 1.241 . S
C155 O145 1.244 . S
C155 O150 1.256 . S
C156 O147 1.239 . S
C156 O148 1.256 . S
O157 Mn139 2.221 . S
O157 Mn141 2.290 . S
O157 C151 1.278 . S
O158 Mn141 2.251 . S
O158 C151 1.241 . S
O159 Mn160 2.163 . S
O159 C173 1.244 . S
Mn160 O159 2.163 . S
Mn160 O163 2.160 1_455 S
Mn160 O164 2.221 1_455 S
Mn160 O166 2.163 1_455 S
Mn160 O168 2.160 . S
Mn160 O178 2.221 . S
O161 Mn162 2.087 . S
O161 C173 1.256 . S
Mn162 O161 2.087 . S
Mn162 O169 2.089 . S
Mn162 O178 2.290 . S
Mn162 O179 2.251 . S
O163 Mn160 2.160 1_655 S
O163 C174 1.239 . S
O164 Mn160 2.221 1_655 S
O164 Mn165 2.290 . S
O164 C175 1.278 . S
Mn165 O164 2.290 . S
Mn165 O167 2.089 . S
Mn165 O170 2.251 . S
Mn165 O171 2.087 . S
O166 Mn160 2.163 1_655 S
O166 C176 1.244 . S
O167 Mn165 2.089 . S
O167 C174 1.256 . S
O168 Mn160 2.160 . S
O168 C177 1.239 . S
O169 Mn162 2.089 . S
O169 C177 1.256 . S
O170 Mn165 2.251 . S
O170 C175 1.241 . S
O171 Mn165 2.087 . S
O171 C176 1.256 . S
C172 O178 1.278 . S
C172 O179 1.241 . S
C173 O159 1.244 . S
C173 O161 1.256 . S
C174 O163 1.239 . S
C174 O167 1.256 . S
C175 O164 1.278 . S
C175 O170 1.241 . S
C176 O166 1.244 . S
C176 O171 1.256 . S
C177 O168 1.239 . S
C177 O169 1.256 . S
O178 Mn160 2.221 . S
O178 Mn162 2.290 . S
O178 C172 1.278 . S
O179 Mn162 2.251 . S
O179 C172 1.241 . S
C180 C181 1.363 . S
C180 C186 1.379 . S
C180 N188 1.347 1_545 S
C181 C180 1.363 . S
C181 C187 1.363 . S
C182 C183 1.363 . S
C182 C187 1.379 . S
C182 N189 1.356 . S
C183 C182 1.363 . S
C183 C186 1.363 . S
N184 C186 1.356 1_565 S
N184 H196 0.984 . S
N184 H197 0.985 . S
N185 C187 1.356 . S
N185 H190 0.984 . S
N185 H191 0.985 . S
C186 C180 1.379 . S
C186 C183 1.363 . S
C186 N184 1.356 1_545 S
C187 C181 1.363 . S
C187 C182 1.379 . S
C187 N185 1.356 . S
N188 C180 1.347 1_565 S
N188 H194 1.008 . S
N188 H195 0.971 1_565 S
N189 C182 1.356 . S
N189 H192 0.984 . S
N189 H193 0.985 . S
H190 N185 0.984 . S
H191 N185 0.985 . S
H192 N189 0.984 . S
H193 N189 0.985 . S
H194 N188 1.008 . S
H195 N188 0.971 1_545 S
H196 N184 0.984 . S
H197 N184 0.985 . S
C198 C199 1.363 . S
C198 C204 1.379 . S
C198 N206 1.356 . S
C199 C198 1.363 . S
C199 C205 1.363 . S
C200 C201 1.363 . S
C200 C205 1.379 . S
C200 N207 1.356 . S
C201 C200 1.363 . S
C201 C204 1.363 . S
N202 C204 1.356 . S
N202 H214 0.984 . S
N202 H215 0.985 . S
N203 C205 1.356 . S
N203 H208 0.984 . S
N203 H209 0.985 . S
C204 C198 1.379 . S
C204 C201 1.363 . S
C204 N202 1.356 . S
C205 C199 1.363 . S
C205 C200 1.379 . S
C205 N203 1.356 . S
N206 C198 1.356 . S
N206 H212 0.984 . S
N206 H213 0.984 . S
N207 C200 1.356 . S
N207 H210 0.984 . S
N207 H211 0.985 . S
H208 N203 0.984 . S
H209 N203 0.985 . S
H210 N207 0.984 . S
H211 N207 0.985 . S
H212 N206 0.984 . S
H213 N206 0.984 . S
H214 N202 0.984 . S
H215 N202 0.985 . S
C216 C217 1.363 . S
C216 C222 1.379 . S
C216 N224 1.356 . S
C217 C216 1.363 . S
C217 C223 1.363 . S
C218 C219 1.363 . S
C218 C223 1.379 . S
C218 N225 1.356 . S
C219 C218 1.363 . S
C219 C222 1.363 . S
N220 C222 1.356 . S
N220 H232 0.984 . S
N220 H233 0.985 . S
N221 C223 1.356 . S
N221 H226 0.984 . S
N221 H227 0.985 . S
C222 C216 1.379 . S
C222 C219 1.363 . S
C222 N220 1.356 . S
C223 C217 1.363 . S
C223 C218 1.379 . S
C223 N221 1.356 . S
N224 C216 1.356 . S
N224 H230 0.984 . S
N224 H231 0.984 . S
N225 C218 1.356 . S
N225 H228 0.984 . S
N225 H229 0.985 . S
H226 N221 0.984 . S
H227 N221 0.985 . S
H228 N225 0.984 . S
H229 N225 0.985 . S
H230 N224 0.984 . S
H231 N224 0.984 . S
H232 N220 0.984 . S
H233 N220 0.985 . S
C234 C235 1.363 . S
C234 C240 1.379 . S
C234 N242 1.356 . S
C235 C234 1.363 . S
C235 C241 1.363 . S
C236 C237 1.363 . S
C236 C241 1.379 . S
C236 N243 1.356 . S
C237 C236 1.363 . S
C237 C240 1.363 . S
N238 C240 1.356 . S
N238 H250 0.984 . S
N238 H251 0.985 . S
N239 C241 1.356 . S
N239 H244 0.984 . S
N239 H245 0.985 . S
C240 C234 1.379 . S
C240 C237 1.363 . S
C240 N238 1.356 . S
C241 C235 1.363 . S
C241 C236 1.379 . S
C241 N239 1.356 . S
N242 C234 1.356 . S
N242 H248 0.984 . S
N242 H249 0.984 . S
N243 C236 1.356 . S
N243 H246 0.984 . S
N243 H247 0.985 . S
H244 N239 0.984 . S
H245 N239 0.985 . S
H246 N243 0.984 . S
H247 N243 0.985 . S
H248 N242 0.984 . S
H249 N242 0.984 . S
H250 N238 0.984 . S
H251 N238 0.985 . S
C252 C253 1.363 1_545 S
C252 C258 1.379 . S
C252 N260 1.356 . S
C253 C252 1.363 1_565 S
C253 C259 1.363 . S
C254 C255 1.363 . S
C254 C259 1.379 . S
C254 N261 1.356 . S
C255 C254 1.363 . S
C255 C258 1.363 1_565 S
N256 C258 1.356 . S
N256 H268 0.984 . S
N256 H269 0.985 . S
N257 C259 1.356 1_554 S
N257 H262 0.984 . S
N257 H263 0.985 . S
C258 C252 1.379 . S
C258 C255 1.363 1_545 S
C258 N256 1.356 . S
C259 C253 1.363 . S
C259 C254 1.379 . S
C259 N257 1.356 1_556 S
N260 C252 1.356 . S
N260 H266 0.984 . S
N260 H267 0.984 . S
N261 C254 1.356 . S
N261 H264 0.984 . S
N261 H265 0.985 . S
H262 N257 0.984 . S
H263 N257 0.985 . S
H264 N261 0.984 . S
H265 N261 0.985 . S
H266 N260 0.984 . S
H267 N260 0.984 . S
H268 N256 0.984 . S
H269 N256 0.985 . S
C270 C271 1.363 . S
C270 C276 1.379 . S
C270 N278 1.356 . S
C271 C270 1.363 . S
C271 C277 1.363 . S
C272 C273 1.363 . S
C272 C277 1.379 . S
C272 N279 1.356 . S
C273 C272 1.363 . S
C273 C276 1.363 . S
N274 C276 1.356 . S
N274 H286 0.984 . S
N274 H287 0.985 . S
N275 C277 1.356 . S
N275 H280 0.984 1_556 S
N275 H281 0.985 . S
C276 C270 1.379 . S
C276 C273 1.363 . S
C276 N274 1.356 . S
C277 C271 1.363 . S
C277 C272 1.379 . S
C277 N275 1.356 . S
N278 C270 1.356 . S
N278 H284 0.984 . S
N278 H285 0.984 1_556 S
N279 C272 1.356 . S
N279 H282 0.984 . S
N279 H283 0.985 . S
H280 N275 0.984 1_554 S
H281 N275 0.985 . S
H282 N279 0.984 . S
H283 N279 0.985 . S
H284 N278 0.984 . S
H285 N278 0.984 1_554 S
H286 N274 0.984 . S
H287 N274 0.985 . S
C288 C289 1.363 . S
C288 C294 1.379 . S
C288 N296 1.356 . S
C289 C288 1.363 . S
C289 C295 1.363 . S
C290 C291 1.363 . S
C290 C295 1.379 . S
C290 N297 1.356 . S
C291 C290 1.363 . S
C291 C294 1.363 . S
N292 C294 1.356 . S
N292 H304 0.984 . S
N292 H305 0.985 . S
N293 C295 1.356 . S
N293 H298 0.984 1_556 S
N293 H299 0.985 . S
C294 C288 1.379 . S
C294 C291 1.363 . S
C294 N292 1.356 . S
C295 C289 1.363 . S
C295 C290 1.379 . S
C295 N293 1.356 . S
N296 C288 1.356 . S
N296 H302 0.984 . S
N296 H303 0.984 1_556 S
N297 C290 1.356 . S
N297 H300 0.984 . S
N297 H301 0.985 . S
H298 N293 0.984 1_554 S
H299 N293 0.985 . S
H300 N297 0.984 . S
H301 N297 0.985 . S
H302 N296 0.984 . S
H303 N296 0.984 1_554 S
H304 N292 0.984 . S
H305 N292 0.985 . S
C306 C307 1.363 1_554 S
C306 C312 1.379 1_554 S
C306 N314 1.356 . S
C307 C306 1.363 1_556 S
C307 C313 1.363 . S
C308 C309 1.363 . S
C308 C313 1.379 . S
C308 N315 1.356 . S
C309 C308 1.363 . S
C309 C312 1.363 . S
N310 C312 1.356 1_455 S
N310 H322 0.984 1_556 S
N310 H323 0.985 . S
N311 C313 1.356 . S
N311 H316 0.984 . S
N311 H317 0.985 . S
C312 C306 1.379 1_556 S
C312 C309 1.363 . S
C312 N310 1.356 1_655 S
C313 C307 1.363 . S
C313 C308 1.379 . S
C313 N311 1.356 . S
N314 C306 1.356 . S
N314 H320 0.984 . S
N314 H321 0.984 . S
N315 C308 1.356 . S
N315 H318 0.984 . S
N315 H319 0.985 . S
H316 N311 0.984 . S
H317 N311 0.985 . S
H318 N315 0.984 . S
H319 N315 0.985 . S
H320 N314 0.984 . S
H321 N314 0.984 . S
H322 N310 0.984 1_554 S
H323 N310 0.985 . S
C324 C325 1.363 . S
C324 C330 1.379 . S
C324 N332 1.356 . S
C325 C324 1.363 . S
C325 C331 1.363 . S
C326 C327 1.363 1_655 S
C326 C331 1.379 1_655 S
C326 N333 1.356 . S
C327 C326 1.363 1_455 S
C327 C330 1.363 . S
N328 C330 1.356 . S
N328 H340 0.984 . S
N328 H341 0.985 . S
N329 C331 1.356 . S
N329 H334 0.984 . S
N329 H335 0.985 1_455 S
C330 C324 1.379 . S
C330 C327 1.363 . S
C330 N328 1.356 . S
C331 C325 1.363 . S
C331 C326 1.379 1_455 S
C331 N329 1.356 . S
N332 C324 1.356 . S
N332 H338 0.984 . S
N332 H339 0.984 . S
N333 C326 1.356 . S
N333 H336 0.984 . S
N333 H337 0.985 . S
H334 N329 0.984 . S
H335 N329 0.985 1_655 S
H336 N333 0.984 . S
H337 N333 0.985 . S
H338 N332 0.984 . S
H339 N332 0.984 . S
H340 N328 0.984 . S
H341 N328 0.985 . S
C342 C343 1.363 . S
C342 C348 1.379 . S
C342 N350 1.356 . S
C343 C342 1.363 . S
C343 C349 1.363 . S
C344 C345 1.363 1_565 S
C344 C349 1.379 1_565 S
C344 N351 1.356 . S
C345 C344 1.363 1_545 S
C345 C348 1.363 . S
N346 C348 1.356 . S
N346 H358 0.984 . S
N346 H359 0.985 . S
N347 C349 1.356 . S
N347 H352 0.984 . S
N347 H353 0.985 1_545 S
C348 C342 1.379 . S
C348 C345 1.363 . S
C348 N346 1.356 . S
C349 C343 1.363 . S
C349 C344 1.379 1_545 S
C349 N347 1.356 . S
N350 C342 1.356 . S
N350 H356 0.984 . S
N350 H357 0.984 . S
N351 C344 1.356 . S
N351 H354 0.984 . S
N351 H355 0.985 . S
H352 N347 0.984 . S
H353 N347 0.985 1_565 S
H354 N351 0.984 . S
H355 N351 0.985 . S
H356 N350 0.984 . S
H357 N350 0.984 . S
H358 N346 0.984 . S
H359 N346 0.985 . S
C360 C361 1.363 . S
C360 C366 1.379 . S
C360 N368 1.356 . S
C361 C360 1.363 . S
C361 C367 1.363 . S
C362 C363 1.363 . S
C362 C367 1.379 . S
C362 N369 1.356 . S
C363 C362 1.363 . S
C363 C366 1.363 . S
N364 C366 1.356 . S
N364 H376 0.984 . S
N364 H377 0.985 . S
N365 C367 1.356 . S
N365 H370 0.984 . S
N365 H371 0.985 . S
C366 C360 1.379 . S
C366 C363 1.363 . S
C366 N364 1.356 . S
C367 C361 1.363 . S
C367 C362 1.379 . S
C367 N365 1.356 . S
N368 C360 1.356 . S
N368 H374 0.984 . S
N368 H375 0.984 . S
N369 C362 1.356 . S
N369 H372 0.984 . S
N369 H373 0.985 . S
H370 N365 0.984 . S
H371 N365 0.985 . S
H372 N369 0.984 . S
H373 N369 0.985 . S
H374 N368 0.984 . S
H375 N368 0.984 . S
H376 N364 0.984 . S
H377 N364 0.985 . S
C378 C379 1.363 . S
C378 C384 1.379 . S
C378 N386 1.356 . S
C379 C378 1.363 . S
C379 C385 1.363 . S
C380 C381 1.363 . S
C380 C385 1.379 . S
C380 N387 1.356 . S
C381 C380 1.363 . S
C381 C384 1.363 . S
N382 C384 1.356 . S
N382 H394 0.984 . S
N382 H395 0.985 . S
N383 C385 1.356 . S
N383 H388 0.984 . S
N383 H389 0.985 . S
C384 C378 1.379 . S
C384 C381 1.363 . S
C384 N382 1.356 . S
C385 C379 1.363 . S
C385 C380 1.379 . S
C385 N383 1.356 . S
N386 C378 1.356 . S
N386 H392 0.984 . S
N386 H393 0.984 . S
N387 C380 1.356 . S
N387 H390 0.984 . S
N387 H391 0.985 . S
H388 N383 0.984 . S
H389 N383 0.985 . S
H390 N387 0.984 . S
H391 N387 0.985 . S
H392 N386 0.984 . S
H393 N386 0.984 . S
H394 N382 0.984 . S
H395 N382 0.985 . S
C396 C397 1.363 1_554 S
C396 C402 1.379 1_554 S
C396 N404 1.356 . S
C397 C396 1.363 1_556 S
C397 C403 1.363 . S
C398 C399 1.363 1_655 S
C398 C403 1.379 . S
C398 N405 1.356 1_655 S
C399 C398 1.363 1_455 S
C399 C402 1.363 1_455 S
N400 C402 1.356 1_454 S
N400 H412 0.984 . S
N400 H413 0.985 1_554 S
N401 C403 1.356 . S
N401 H406 0.984 . S
N401 H407 0.985 . S
C402 C396 1.379 1_556 S
C402 C399 1.363 1_655 S
C402 N400 1.356 1_656 S
C403 C397 1.363 . S
C403 C398 1.379 . S
C403 N401 1.356 . S
N404 C396 1.356 . S
N404 H410 0.984 . S
N404 H411 0.984 . S
N405 C398 1.356 1_455 S
N405 H408 0.984 . S
N405 H409 0.985 . S
H406 N401 0.984 . S
H407 N401 0.985 . S
H408 N405 0.984 . S
H409 N405 0.985 . S
H410 N404 0.984 . S
H411 N404 0.984 . S
H412 N400 0.984 . S
H413 N400 0.985 1_556 S
C414 C415 1.363 1_554 S
C414 C420 1.379 1_564 S
C414 N422 1.356 . S
C415 C414 1.363 1_556 S
C415 C421 1.363 . S
C416 C417 1.363 1_565 S
C416 C421 1.379 . S
C416 N423 1.356 . S
C417 C416 1.363 1_545 S
C417 C420 1.363 . S
N418 C420 1.356 1_554 S
N418 H430 0.984 . S
N418 H431 0.981 1_554 S
N419 C421 1.356 . S
N419 H424 0.984 . S
N419 H425 0.985 . S
C420 C414 1.379 1_546 S
C420 C417 1.363 . S
C420 N418 1.356 1_556 S
C421 C415 1.363 . S
C421 C416 1.379 . S
C421 N419 1.356 . S
N422 C414 1.356 . S
N422 H428 0.984 . S
N422 H429 0.984 . S
N423 C416 1.356 . S
N423 H426 0.984 1_565 S
N423 H427 0.985 . S
H424 N419 0.984 . S
H425 N419 0.985 . S
H426 N423 0.984 1_545 S
H427 N423 0.985 . S
H428 N422 0.984 . S
H429 N422 0.984 . S
H430 N418 0.984 . S
H431 N418 0.981 1_556 S
C432 C433 1.363 1_554 S
C432 C438 1.379 1_554 S
C432 N440 1.356 . S
C433 C432 1.363 1_556 S
C433 C439 1.363 . S
C434 C435 1.363 . S
C434 C439 1.379 . S
C434 N441 1.356 . S
C435 C434 1.363 . S
C435 C438 1.363 . S
N436 C438 1.356 1_554 S
N436 H448 0.984 . S
N436 H449 0.985 1_554 S
N437 C439 1.356 . S
N437 H442 0.984 . S
N437 H443 0.985 . S
C438 C432 1.379 1_556 S
C438 C435 1.363 . S
C438 N436 1.356 1_556 S
C439 C433 1.363 . S
C439 C434 1.379 . S
C439 N437 1.356 . S
N440 C432 1.356 . S
N440 H446 0.984 . S
N440 H447 0.984 . S
N441 C434 1.356 . S
N441 H444 0.984 . S
N441 H445 0.985 . S
H442 N437 0.984 . S
H443 N437 0.985 . S
H444 N441 0.984 . S
H445 N441 0.985 . S
H446 N440 0.984 . S
H447 N440 0.984 . S
H448 N436 0.984 . S
H449 N436 0.985 1_556 S
C450 C451 1.363 . S
C450 C456 1.379 . S
C450 N458 1.356 . S
C451 C450 1.363 . S
C451 C457 1.363 . S
C452 C453 1.363 . S
C452 C457 1.379 . S
C452 N459 1.356 . S
C453 C452 1.363 . S
C453 C456 1.363 . S
N454 C456 1.356 . S
N454 H466 0.984 . S
N454 H467 0.985 . S
N455 C457 1.356 1_554 S
N455 H460 0.984 . S
N455 H461 0.985 . S
C456 C450 1.379 . S
C456 C453 1.363 . S
C456 N454 1.356 . S
C457 C451 1.363 . S
C457 C452 1.379 . S
C457 N455 1.356 1_556 S
N458 C450 1.356 . S
N458 H464 0.984 . S
N458 H465 0.984 . S
N459 C452 1.356 . S
N459 H462 0.984 . S
N459 H463 0.985 1_556 S
H460 N455 0.984 . S
H461 N455 0.985 . S
H462 N459 0.984 . S
H463 N459 0.985 1_554 S
H464 N458 0.984 . S
H465 N458 0.984 . S
H466 N454 0.984 . S
H467 N454 0.985 . S
C468 C469 1.363 . S
C468 C474 1.379 . S
C468 N476 1.356 1_455 S
C469 C468 1.363 . S
C469 C475 1.363 . S
C470 C471 1.363 . S
C470 C475 1.379 1_556 S
C470 N477 1.356 . S
C471 C470 1.363 . S
C471 C474 1.363 1_556 S
N472 C474 1.356 1_655 S
N472 H484 0.984 . S
N472 H485 0.985 1_554 S
N473 C475 1.356 . S
N473 H478 0.984 . S
N473 H479 0.985 1_554 S
C474 C468 1.379 . S
C474 C471 1.363 1_554 S
C474 N472 1.356 1_455 S
C475 C469 1.363 . S
C475 C470 1.379 1_554 S
C475 N473 1.356 . S
N476 C468 1.356 1_655 S
N476 H482 0.984 . S
N476 H483 0.984 1_655 S
N477 C470 1.356 . S
N477 H480 0.984 . S
N477 H481 0.985 . S
H478 N473 0.984 . S
H479 N473 0.985 1_556 S
H480 N477 0.984 . S
H481 N477 0.985 . S
H482 N476 0.984 . S
H483 N476 0.984 1_455 S
H484 N472 0.984 . S
H485 N472 0.985 1_556 S
C486 C487 1.363 . S
C486 C492 1.379 1_554 S
C486 N494 1.356 . S
C487 C486 1.363 . S
C487 C493 1.363 . S
C488 C489 1.363 1_554 S
C488 C493 1.379 . S
C488 N495 1.356 1_545 S
C489 C488 1.363 1_556 S
C489 C492 1.363 . S
N490 C492 1.356 . S
N490 H502 0.984 . S
N490 H503 0.985 . S
N491 C493 1.356 . S
N491 H496 0.984 . S
N491 H497 0.985 1_545 S
C492 C486 1.379 1_556 S
C492 C489 1.363 . S
C492 N490 1.356 . S
C493 C487 1.363 . S
C493 C488 1.379 . S
C493 N491 1.356 . S
N494 C486 1.356 . S
N494 H500 0.984 1_554 S
N494 H501 0.984 . S
N495 C488 1.356 1_565 S
N495 H498 0.989 . S
N495 H499 0.985 . S
H496 N491 0.984 . S
H497 N491 0.985 1_565 S
H498 N495 0.989 . S
H499 N495 0.985 . S
H500 N494 0.984 1_556 S
H501 N494 0.984 . S
H502 N490 0.984 . S
H503 N490 0.985 . S
C504 C505 1.363 1_556 S
C504 C510 1.379 . S
C504 N512 1.356 . S
C505 C504 1.363 1_554 S
C505 C511 1.363 . S
C506 C507 1.363 1_554 S
C506 C511 1.379 . S
C506 N513 1.356 . S
C507 C506 1.363 1_556 S
C507 C510 1.363 . S
N508 C510 1.356 . S
N508 H520 0.984 . S
N508 H521 0.985 . S
N509 C511 1.356 . S
N509 H514 0.984 . S
N509 H515 0.985 . S
C510 C504 1.379 . S
C510 C507 1.363 . S
C510 N508 1.356 . S
C511 C505 1.363 . S
C511 C506 1.379 . S
C511 N509 1.356 . S
N512 C504 1.356 . S
N512 H518 0.984 . S
N512 H519 0.984 1_556 S
N513 C506 1.356 . S
N513 H516 0.984 . S
N513 H517 0.985 . S
H514 N509 0.984 . S
H515 N509 0.985 . S
H516 N513 0.984 . S
H517 N513 0.985 . S
H518 N512 0.984 . S
H519 N512 0.984 1_554 S
H520 N508 0.984 . S
H521 N508 0.985 . S
C522 C523 1.364 1_556 S
C522 C528 1.378 . S
C522 N530 1.356 . S
C523 C522 1.364 1_554 S
C523 C529 1.363 . S
C524 C525 1.363 1_554 S
C524 C529 1.379 . S
C524 N531 1.356 . S
C525 C524 1.363 1_556 S
C525 C528 1.363 . S
N526 C528 1.356 . S
N526 H538 0.984 . S
N526 H539 0.985 . S
N527 C529 1.356 . S
N527 H532 0.984 . S
N527 H533 0.985 . S
C528 C522 1.378 . S
C528 C525 1.363 . S
C528 N526 1.356 . S
C529 C523 1.363 . S
C529 C524 1.379 . S
C529 N527 1.356 . S
N530 C522 1.356 . S
N530 H536 0.984 . S
N530 H537 0.984 1_556 S
N531 C524 1.356 . S
N531 H534 0.984 . S
N531 H535 0.985 . S
H532 N527 0.984 . S
H533 N527 0.985 . S
H534 N531 0.984 . S
H535 N531 0.985 . S
H536 N530 0.984 . S
H537 N530 0.984 1_554 S
H538 N526 0.984 . S
H539 N526 0.985 . S
C540 C541 1.363 . S
C540 C546 1.379 . S
C540 N548 1.356 . S
C541 C540 1.363 . S
C541 C547 1.363 . S
C542 C543 1.363 . S
C542 C547 1.379 . S
C542 N549 1.356 1_655 S
C543 C542 1.363 . S
C543 C546 1.363 . S
N544 C546 1.356 . S
N544 H556 0.984 . S
N544 H557 0.985 . S
N545 C547 1.356 1_455 S
N545 H550 0.984 1_455 S
N545 H551 0.985 . S
C546 C540 1.379 . S
C546 C543 1.363 . S
C546 N544 1.356 . S
C547 C541 1.363 . S
C547 C542 1.379 . S
C547 N545 1.356 1_655 S
N548 C540 1.356 . S
N548 H554 0.984 . S
N548 H555 0.984 . S
N549 C542 1.356 1_455 S
N549 H552 0.984 . S
N549 H553 0.985 . S
H550 N545 0.984 1_655 S
H551 N545 0.985 . S
H552 N549 0.984 . S
H553 N549 0.985 . S
H554 N548 0.984 . S
H555 N548 0.984 . S
H556 N544 0.984 . S
H557 N544 0.985 . S
C558 C559 1.363 1_545 S
C558 C564 1.379 . S
C558 N566 1.356 . S
C559 C558 1.363 1_565 S
C559 C565 1.363 . S
C560 C561 1.363 . S
C560 C565 1.379 . S
C560 N567 1.356 . S
C561 C560 1.363 . S
C561 C564 1.363 1_565 S
N562 C564 1.356 . S
N562 H574 0.984 . S
N562 H575 0.985 . S
N563 C565 1.356 . S
N563 H568 0.984 . S
N563 H569 0.985 . S
C564 C558 1.379 . S
C564 C561 1.363 1_545 S
C564 N562 1.356 . S
C565 C559 1.363 . S
C565 C560 1.379 . S
C565 N563 1.356 . S
N566 C558 1.356 . S
N566 H572 0.984 . S
N566 H573 0.984 . S
N567 C560 1.356 . S
N567 H570 0.984 . S
N567 H571 0.985 . S
H568 N563 0.984 . S
H569 N563 0.985 . S
H570 N567 0.984 . S
H571 N567 0.985 . S
H572 N566 0.984 . S
H573 N566 0.984 . S
H574 N562 0.984 . S
H575 N562 0.985 . S
C576 C577 1.363 . S
C576 C582 1.379 . S
C576 N584 1.356 . S
C577 C576 1.363 . S
C577 C583 1.363 . S
C578 C579 1.363 . S
C578 C583 1.379 . S
C578 N585 1.356 . S
C579 C578 1.363 . S
C579 C582 1.363 . S
N580 C582 1.356 . S
N580 H592 0.984 . S
N580 H593 0.985 . S
N581 C583 1.356 . S
N581 H586 0.984 . S
N581 H587 0.985 . S
C582 C576 1.379 . S
C582 C579 1.363 . S
C582 N580 1.356 . S
C583 C577 1.363 . S
C583 C578 1.379 . S
C583 N581 1.356 . S
N584 C576 1.356 . S
N584 H590 0.984 . S
N584 H591 0.984 . S
N585 C578 1.356 . S
N585 H588 0.984 . S
N585 H589 0.985 . S
H586 N581 0.984 . S
H587 N581 0.985 . S
H588 N585 0.984 . S
H589 N585 0.985 . S
H590 N584 0.984 . S
H591 N584 0.984 . S
H592 N580 0.984 . S
H593 N580 0.985 . S
C594 C595 1.363 . S
C594 C600 1.379 . S
C594 N602 1.356 . S
C595 C594 1.363 . S
C595 C601 1.363 . S
C596 C597 1.363 . S
C596 C601 1.379 . S
C596 N603 1.356 . S
C597 C596 1.363 . S
C597 C600 1.363 . S
N598 C600 1.356 . S
N598 H610 0.984 . S
N598 H611 0.985 . S
N599 C601 1.356 . S
N599 H604 0.984 . S
N599 H605 0.985 . S
C600 C594 1.379 . S
C600 C597 1.363 . S
C600 N598 1.356 . S
C601 C595 1.363 . S
C601 C596 1.379 . S
C601 N599 1.356 . S
N602 C594 1.356 . S
N602 H608 0.984 . S
N602 H609 0.984 . S
N603 C596 1.356 . S
N603 H606 0.984 . S
N603 H607 0.985 . S
H604 N599 0.984 . S
H605 N599 0.985 . S
H606 N603 0.984 . S
H607 N603 0.985 . S
H608 N602 0.984 . S
H609 N602 0.984 . S
H610 N598 0.984 . S
H611 N598 0.985 . S
C181 C76 1.594 . S
C183 C112 1.501 1_545 S
C201 C130 1.502 . S
C199 C88 1.595 . S
C219 C151 1.501 . S
C217 C52 1.594 . S
C237 C175 1.502 1_455 S
C235 C64 1.595 . S
C255 C109 1.388 1_565 S
C253 C28 1.500 1_556 S
C271 C40 1.501 1_556 S
C273 C133 1.389 . S
C289 C4 1.500 1_556 S
C291 C154 1.388 . S
C307 C16 1.501 1_556 S
C309 C172 1.389 1_655 S
C327 C114 0.927 1_455 S
C325 C69 0.913 . S
C345 C132 0.915 1_545 S
C343 C81 0.912 . S
C363 C153 0.927 . S
C361 C93 0.913 . S
C379 C57 0.912 . S
C381 C177 0.926 . S
C397 C21 0.968 1_556 S
C399 C113 1.004 . S
C417 C131 1.003 . S
C415 C33 0.967 1_556 S
C435 C152 1.005 . S
C433 C45 0.968 1_556 S
C451 C9 0.967 1_556 S
C453 C176 1.003 . S
C469 C66 1.592 . S
C471 C110 1.560 . S
C487 C78 1.591 . S
C489 C134 1.560 . S
C507 C155 1.560 . S
C505 C90 1.591 . S
C525 C173 1.560 . S
C523 C54 1.591 . S
C541 C18 1.474 . S
C543 C111 1.443 . S
C561 C135 1.443 . S
C559 C30 1.474 . S
C579 C156 1.443 . S
C577 C42 1.474 . S
C595 C6 1.473 . S
C597 C174 1.442 . S
