# Generated by pormake.
# Topology anh, (6,3)-cn, num edge types: 1
# Building blocks:
#     Node 0, Type 0, BuildingBlock: BETDEL_clean_sbu_0, # of connection points: 6
#     Node 1, Type 0, BuildingBlock: BETDEL_clean_sbu_0, # of connection points: 6
#     Node 2, Type 0, BuildingBlock: BETDEL_clean_sbu_0, # of connection points: 6
#     Node 3, Type 1, BuildingBlock: BETDAH_clean_linker_0, # of connection points: 3
#     Node 4, Type 1, BuildingBlock: BETDAH_clean_linker_0, # of connection points: 3
#     Node 5, Type 1, BuildingBlock: BETDAH_clean_linker_0, # of connection points: 3
#     Node 6, Type 1, BuildingBlock: BETDAH_clean_linker_0, # of connection points: 3
#     Node 7, Type 1, BuildingBlock: BETDAH_clean_linker_0, # of connection points: 3
#     Node 8, Type 1, BuildingBlock: BETDAH_clean_linker_0, # of connection points: 3
#     Edge 9, Type (0, 1), BuildingBlock: ZUJKAS_clean_linker_0, # of connection points: 2
#     Edge 10, Type (0, 1), BuildingBlock: ZUJKAS_clean_linker_0, # of connection points: 2
#     Edge 11, Type (0, 1), BuildingBlock: ZUJKAS_clean_linker_0, # of connection points: 2
#     Edge 12, Type (0, 1), BuildingBlock: ZUJKAS_clean_linker_0, # of connection points: 2
#     Edge 13, Type (0, 1), BuildingBlock: ZUJKAS_clean_linker_0, # of connection points: 2
#     Edge 14, Type (0, 1), BuildingBlock: ZUJKAS_clean_linker_0, # of connection points: 2
#     Edge 15, Type (0, 1), BuildingBlock: ZUJKAS_clean_linker_0, # of connection points: 2
#     Edge 16, Type (0, 1), BuildingBlock: ZUJKAS_clean_linker_0, # of connection points: 2
#     Edge 17, Type (0, 1), BuildingBlock: ZUJKAS_clean_linker_0, # of connection points: 2
#     Edge 18, Type (0, 1), BuildingBlock: ZUJKAS_clean_linker_0, # of connection points: 2
#     Edge 19, Type (0, 1), BuildingBlock: ZUJKAS_clean_linker_0, # of connection points: 2
#     Edge 20, Type (0, 1), BuildingBlock: ZUJKAS_clean_linker_0, # of connection points: 2
#     Edge 21, Type (0, 1), BuildingBlock: ZUJKAS_clean_linker_0, # of connection points: 2
#     Edge 22, Type (0, 1), BuildingBlock: ZUJKAS_clean_linker_0, # of connection points: 2
#     Edge 23, Type (0, 1), BuildingBlock: ZUJKAS_clean_linker_0, # of connection points: 2
#     Edge 24, Type (0, 1), BuildingBlock: ZUJKAS_clean_linker_0, # of connection points: 2
#     Edge 25, Type (0, 1), BuildingBlock: ZUJKAS_clean_linker_0, # of connection points: 2
#     Edge 26, Type (0, 1), BuildingBlock: ZUJKAS_clean_linker_0, # of connection points: 2
# Relax obj value: 0.088
# Max RMSD: 0.133
# Mean RMSD: 0.101
data_MOF--net-anh--node1-BETDEL_clean_sbu_0--node2-BETDAH_clean_linker_0--edge1-ZUJKAS_clean_linker_0
_symmetry_space_group_name_H-M    P1
_symmetry_Int_Tables_number       1
_symmetry_cell_setting            triclinic
loop_
_symmetry_equiv_pos_as_xyz
'x, y, z'
_cell_length_a     38.97157
_cell_length_b     38.984524
_cell_length_c     62.339592
_cell_angle_alpha  92.022292
_cell_angle_beta   92.317635
_cell_angle_gamma 119.85696
loop_
_atom_site_label
_atom_site_type_symbol
_atom_site_fract_x
_atom_site_fract_y
_atom_site_fract_z
_atom_type_partial_charge
Dy0 Dy 0.05731 0.48648 0.16486 0.0
C1 C 0.96648 0.55891 0.18877 0.0
C2 C 0.10305 0.45959 0.14716 0.0
Dy3 Dy 0.01458 0.53229 0.17398 0.0
O4 O 0.09005 0.45265 0.16627 0.0
O5 O 0.09091 0.48107 0.13765 0.0
O6 O 0.04298 0.45997 0.19684 0.0
O7 O 0.05224 0.51746 0.19335 0.0
C8 C 0.04137 0.48965 0.20586 0.0
C9 C 0.02995 0.52788 0.13279 0.0
O10 O 0.07632 0.58129 0.18298 0.0
O11 O 0.10729 0.55048 0.16669 0.0
O12 O 0.98533 0.56923 0.17135 0.0
O13 O 0.97453 0.53448 0.19837 0.0
O14 O 0.02944 0.55808 0.14183 0.0
O15 O 0.0189 0.50043 0.14552 0.0
O16 O 0.99489 0.43599 0.15873 0.0
O17 O 0.96517 0.46889 0.1741 0.0
C18 C 0.10843 0.58251 0.17572 0.0
C19 C 0.9635 0.4359 0.16633 0.0
Dy20 Dy 0.5165 0.02572 0.49932 0.0
C21 C 0.68394 0.12248 0.52959 0.0
C22 C 0.44158 0.9762 0.48187 0.0
Dy23 Dy 0.61011 0.07429 0.51052 0.0
O24 O 0.45052 0.99268 0.50125 0.0
O25 O 0.47367 0.987 0.47183 0.0
O26 O 0.50769 0.04367 0.53235 0.0
O27 O 0.55726 0.03746 0.52734 0.0
C28 C 0.54092 0.0484 0.54085 0.0
C29 C 0.59214 0.06643 0.46757 0.0
O30 O 0.59787 0.01226 0.51496 0.0
O31 O 0.53182 0.97692 0.50094 0.0
O32 O 0.67449 0.09292 0.51571 0.0
O33 O 0.65246 0.12441 0.53373 0.0
O34 O 0.62823 0.0832 0.47601 0.0
O35 O 0.56966 0.0556 0.48272 0.0
O36 O 0.52985 0.08729 0.49319 0.0
O37 O 0.59073 0.11989 0.51316 0.0
C38 C 0.56509 0.97841 0.50851 0.0
C39 C 0.55988 0.11979 0.50312 0.0
Dy40 Dy 0.59379 0.58048 0.83493 0.0
C41 C 0.52664 0.41243 0.85766 0.0
C42 C 0.62095 0.65178 0.81761 0.0
Dy43 Dy 0.55049 0.48426 0.84152 0.0
O44 O 0.6411 0.64349 0.83154 0.0
O45 O 0.58609 0.62092 0.81297 0.0
O46 O 0.60129 0.59867 0.87076 0.0
O47 O 0.57501 0.54007 0.85983 0.0
C48 C 0.58461 0.56235 0.87657 0.0
C49 C 0.55878 0.50232 0.79965 0.0
O50 O 0.50228 0.49818 0.84822 0.0
O51 O 0.52869 0.56099 0.83418 0.0
O52 O 0.50504 0.42029 0.84448 0.0
O53 O 0.56075 0.44419 0.86241 0.0
O54 O 0.54159 0.46617 0.80564 0.0
O55 O 0.56976 0.52479 0.81639 0.0
O56 O 0.64357 0.56741 0.83096 0.0
O57 O 0.61539 0.50421 0.8445 0.0
C58 C 0.4991 0.52899 0.84205 0.0
C59 C 0.64609 0.53667 0.83787 0.0
H60 H 0.47194 0.94519 0.24336 0.0
H61 H 0.57135 0.05528 0.22745 0.0
H62 H 0.49281 0.97063 0.17702 0.0
C63 C 0.48973 0.9645 0.23129 0.0
C64 C 0.47827 0.95303 0.20941 0.0
C65 C 0.52296 1.00129 0.2379 0.0
C66 C 0.54559 0.02696 0.22234 0.0
C67 C 0.53498 0.01576 0.20028 0.0
C68 C 0.50101 0.97909 0.19399 0.0
N69 N 0.55746 0.04035 0.18393 0.0
C70 C 0.59421 0.07502 0.18722 0.0
H71 H 0.56631 0.47701 0.57643 0.0
H72 H 0.56252 0.583 0.56361 0.0
H73 H 0.55032 0.50171 0.51138 0.0
C74 C 0.56432 0.49653 0.56512 0.0
C75 C 0.55907 0.48544 0.54304 0.0
C76 C 0.56566 0.53161 0.57281 0.0
C77 C 0.56125 0.5558 0.55794 0.0
C78 C 0.55554 0.5449 0.53573 0.0
C79 C 0.55431 0.50972 0.5285 0.0
N80 N 0.55096 0.56832 0.52009 0.0
C81 C 0.55353 0.60498 0.5241 0.0
H82 H 1.0041 0.54038 0.91093 0.0
H83 H 0.10353 0.52583 0.89723 0.0
H84 H 0.03196 0.53393 0.84537 0.0
C85 C 0.02302 0.53811 0.89935 0.0
C86 C 1.01419 0.53825 0.8773 0.0
C87 C 0.05497 0.53348 0.90667 0.0
C88 C 0.07877 0.52923 0.89163 0.0
C89 C 0.07064 0.52962 0.86945 0.0
C90 C 0.03811 0.53365 0.86246 0.0
N91 N 0.09426 0.52595 0.85368 0.0
C92 C 0.12995 0.52647 0.85793 0.0
H93 H 0.06516 0.60895 0.41439 0.0
H94 H 0.99645 0.50129 0.446 0.0
H95 H 0.08567 0.60619 0.4824 0.0
C96 C 0.05768 0.59318 0.42901 0.0
C97 C 0.07901 0.6126 0.44846 0.0
C98 C 0.028 0.55311 0.42796 0.0
C99 C 0.01891 0.53238 0.44683 0.0
C100 C 0.0393 0.55204 0.46663 0.0
C101 C 0.06918 0.59185 0.46724 0.0
N102 N 0.03175 0.53283 0.48623 0.0
C103 C 1.00248 0.49398 0.4886 0.0
H104 H 0.57408 0.11049 0.77136 0.0
H105 H 0.64144 0.05042 0.77468 0.0
H106 H 0.62741 0.10538 0.83201 0.0
C107 C 0.59087 0.10017 0.78067 0.0
C108 C 0.59789 0.10956 0.80295 0.0
C109 C 0.6068 0.07923 0.77021 0.0
C110 C 0.62941 0.06701 0.78248 0.0
C111 C 0.63694 0.07661 0.80478 0.0
C112 C 0.62167 0.09833 0.8148 0.0
N113 N 0.6598 0.06487 0.81753 0.0
C114 C 0.66224 0.03133 0.81217 0.0
H115 H 0.61369 0.50101 0.10257 0.0
H116 H 0.48748 0.45257 0.10144 0.0
H117 H 0.55378 0.46885 0.16132 0.0
C118 C 0.58673 0.48943 0.11102 0.0
C119 C 0.58844 0.48667 0.13341 0.0
C120 C 0.55047 0.47735 0.09937 0.0
C121 C 0.51555 0.46236 0.11037 0.0
C122 C 0.51686 0.45891 0.13274 0.0
C123 C 0.55316 0.47101 0.14404 0.0
N124 N 0.48234 0.4431 0.14446 0.0
C125 C 0.44603 0.43735 0.1364 0.0
H126 H 0.13994 0.48039 0.10965 0.0
H127 H 0.19283 0.46873 0.09787 0.0
H128 H 0.18278 0.40346 0.15399 0.0
H129 H 0.13 0.41479 0.16571 0.0
H130 H 0.26362 0.49616 0.12218 0.0
H131 H 0.191 0.33379 0.10636 0.0
H132 H 0.16344 0.35978 0.10734 0.0
H133 H 0.17946 0.34712 0.1318 0.0
C134 C 0.14852 0.46285 0.11919 0.0
C135 C 0.13108 0.44853 0.1386 0.0
C136 C 0.17863 0.4562 0.11245 0.0
C137 C 0.19129 0.43475 0.12489 0.0
C138 C 0.17282 0.41926 0.14388 0.0
H139 H 0.38146 0.4021 0.15871 0.0
H140 H 0.31814 0.39967 0.15087 0.0
C141 C 0.1429 0.42602 0.15065 0.0
C142 C 0.22693 0.43263 0.11974 0.0
H143 H 0.2618 0.3681 0.11537 0.0
C144 C 0.26323 0.46822 0.12013 0.0
C145 C 0.22619 0.39611 0.11707 0.0
C146 C 0.18784 0.35705 0.11539 0.0
C147 C 0.2992 0.46827 0.11961 0.0
C148 C 0.29861 0.43167 0.11824 0.0
C149 C 0.26213 0.3961 0.1165 0.0
C150 C 0.33542 0.42974 0.12131 0.0
C151 C 0.33756 0.50741 0.12204 0.0
C152 C 0.36572 0.44666 0.10701 0.0
C153 C 0.40195 0.44823 0.11158 0.0
C154 C 0.40787 0.43252 0.13033 0.0
C155 C 0.37718 0.41424 0.14413 0.0
C156 C 0.34112 0.41279 0.13963 0.0
H157 H 0.33282 0.53248 0.12659 0.0
H158 H 0.35831 0.50648 0.13444 0.0
H159 H 0.35194 0.51342 0.10655 0.0
H160 H 0.36166 0.45941 0.09264 0.0
H161 H 0.42553 0.46248 0.10079 0.0
H162 H 0.70701 0.1938 0.55057 0.0
H163 H 0.76989 0.25491 0.54738 0.0
H164 H 0.81543 0.18857 0.51424 0.0
H165 H 0.75232 0.12734 0.51706 0.0
H166 H 0.85331 0.28439 0.55651 0.0
H167 H 0.80844 0.26028 0.4689 0.0
H168 H 0.77485 0.23197 0.48875 0.0
H169 H 0.81236 0.22101 0.48086 0.0
C170 C 0.73087 0.19204 0.54323 0.0
C171 C 0.72465 0.156 0.53374 0.0
C172 C 0.76674 0.22699 0.54138 0.0
C173 C 0.79681 0.22628 0.53008 0.0
C174 C 0.79221 0.18974 0.52264 0.0
H175 H 0.99747 0.42508 0.47492 0.0
H176 H 0.94999 0.35855 0.48583 0.0
C177 C 0.75628 0.15478 0.52441 0.0
C178 C 0.83037 0.26392 0.52376 0.0
H179 H 0.86763 0.31845 0.48018 0.0
C180 C 0.85672 0.29178 0.53982 0.0
C181 C 0.83448 0.27348 0.50196 0.0
C182 C 0.80592 0.24534 0.48409 0.0
C183 C 0.8871 0.32912 0.53465 0.0
C184 C 0.89061 0.33896 0.5129 0.0
C185 C 0.86485 0.31074 0.49682 0.0
C186 C 0.91957 0.37897 0.50651 0.0
C187 C 0.91515 0.3577 0.55249 0.0
C188 C 0.9175 0.41218 0.51411 0.0
C189 C 0.94434 0.44988 0.50782 0.0
C190 C 0.97329 0.45474 0.49372 0.0
C191 C 0.97508 0.42166 0.48577 0.0
C192 C 0.9482 0.38388 0.49205 0.0
H193 H 0.91593 0.34205 0.5669 0.0
H194 H 0.94571 0.37508 0.54714 0.0
H195 H 0.90502 0.3787 0.55733 0.0
H196 H 0.89502 0.40892 0.52484 0.0
H197 H 0.94268 0.47525 0.51412 0.0
H198 H 0.68984 0.71996 0.8294 0.0
H199 H 0.70472 0.78771 0.82355 0.0
H200 H 0.59426 0.74186 0.7854 0.0
H201 H 0.57927 0.67402 0.79108 0.0
H202 H 0.6641 0.81407 0.77036 0.0
H203 H 0.63433 0.82354 0.85639 0.0
H204 H 0.67069 0.80936 0.85095 0.0
H205 H 0.61973 0.77696 0.84184 0.0
C206 C 0.66917 0.72435 0.81937 0.0
C207 C 0.63319 0.69189 0.81091 0.0
C208 C 0.67769 0.76299 0.81607 0.0
C209 C 0.65033 0.76961 0.80428 0.0
C210 C 0.61569 0.73724 0.79455 0.0
H211 H 0.59965 0.95893 0.81437 0.0
H212 H 0.59866 0.89561 0.81027 0.0
C213 C 0.60713 0.69858 0.79786 0.0
C214 C 0.65538 0.80975 0.80425 0.0
H215 H 0.65117 0.87957 0.83681 0.0
C216 C 0.66161 0.82865 0.78487 0.0
C217 C 0.65155 0.82824 0.82321 0.0
C218 C 0.64342 0.80852 0.84429 0.0
C219 C 0.66407 0.86579 0.784 0.0
C220 C 0.6602 0.88416 0.80297 0.0
C221 C 0.65425 0.86533 0.82233 0.0
C222 C 0.66031 0.92211 0.80312 0.0
C223 C 0.66964 0.88468 0.76277 0.0
C224 C 0.69526 0.9578 0.8003 0.0
C225 C 0.69582 0.99392 0.80271 0.0
C226 C 0.66146 0.99448 0.80795 0.0
C227 C 0.62637 0.95887 0.81026 0.0
C228 C 0.62581 0.92287 0.80792 0.0
H229 H 0.66608 0.86396 0.74904 0.0
H230 H 0.64804 0.89507 0.76008 0.0
H231 H 0.69987 0.91092 0.76307 0.0
H232 H 0.72229 0.95778 0.79692 0.0
H233 H 0.7232 0.02134 0.80099 0.0
H234 H 0.91418 0.52644 0.21986 0.0
H235 H 0.84931 0.52214 0.22069 0.0
H236 H 0.87822 0.59948 0.16839 0.0
H237 H 0.94309 0.60425 0.16763 0.0
H238 H 0.82803 0.60732 0.19997 0.0
H239 H 0.77518 0.45265 0.16768 0.0
H240 H 0.80306 0.46774 0.19328 0.0
H241 H 0.82692 0.49018 0.16948 0.0
C242 C 0.90719 0.54361 0.20906 0.0
C243 C 0.9332 0.56511 0.19342 0.0
C244 C 0.87016 0.54104 0.20952 0.0
C245 C 0.85885 0.55987 0.19431 0.0
C246 C 0.88643 0.58465 0.1802 0.0
H247 H 0.66048 0.55201 0.12782 0.0
H248 H 0.72434 0.57094 0.14636 0.0
C249 C 0.92342 0.58726 0.17975 0.0
C250 C 0.81685 0.54883 0.1905 0.0
H251 H 0.72877 0.47378 0.16806 0.0
C252 C 0.80606 0.57798 0.19331 0.0
C253 C 0.78843 0.51054 0.18172 0.0
C254 C 0.7988 0.47843 0.17768 0.0
C255 C 0.76757 0.57 0.18716 0.0
C256 C 0.73969 0.5322 0.17752 0.0
C257 C 0.75016 0.5027 0.1755 0.0
C258 C 0.70047 0.52311 0.16787 0.0
C259 C 0.75731 0.60218 0.19091 0.0
C260 C 0.66591 0.4894 0.17343 0.0
C261 C 0.6295 0.47787 0.16245 0.0
C262 C 0.62691 0.49985 0.14567 0.0
C263 C 0.66148 0.53411 0.14046 0.0
C264 C 0.69794 0.54543 0.15134 0.0
H265 H 0.77592 0.62314 0.20462 0.0
H266 H 0.76306 0.61934 0.17635 0.0
H267 H 0.7256 0.58962 0.19417 0.0
H268 H 0.66728 0.47145 0.18595 0.0
H269 H 0.6036 0.45104 0.1667 0.0
H270 H 0.41962 0.93074 0.44412 0.0
H271 H 0.35422 0.87336 0.43349 0.0
H272 H 0.30832 0.89473 0.49116 0.0
H273 H 0.3733 0.95205 0.50174 0.0
H274 H 0.31936 0.80884 0.45914 0.0
H275 H 0.2198 0.87044 0.44513 0.0
H276 H 0.27313 0.90026 0.44511 0.0
H277 H 0.24947 0.88851 0.47011 0.0
C278 C 0.39528 0.92368 0.45423 0.0
C279 C 0.40139 0.94561 0.47376 0.0
C280 C 0.35803 0.89097 0.44817 0.0
C281 C 0.32638 0.8801 0.46143 0.0
C282 C 0.3321 0.90309 0.48048 0.0
H283 H 0.10042 0.6742 0.4785 0.0
H284 H 0.16006 0.73993 0.48015 0.0
C285 C 0.3693 0.93565 0.48657 0.0
C286 C 0.28897 0.84212 0.4569 0.0
H287 H 0.18844 0.80091 0.4503 0.0
C288 C 0.29076 0.80707 0.45688 0.0
C289 C 0.25177 0.84003 0.45423 0.0
C290 C 0.24832 0.87683 0.45344 0.0
C291 C 0.25621 0.76985 0.45493 0.0
C292 C 0.21894 0.76771 0.45249 0.0
C293 C 0.21711 0.80274 0.45218 0.0
C294 C 0.1816 0.7292 0.45065 0.0
C295 C 0.25984 0.73318 0.4563 0.0
C296 C 0.17373 0.70189 0.43331 0.0
C297 C 0.14007 0.66432 0.43245 0.0
C298 C 0.11337 0.6535 0.44882 0.0
C299 C 0.12069 0.68147 0.46581 0.0
C300 C 0.15451 0.71908 0.46669 0.0
H301 H 0.28944 0.7402 0.46334 0.0
H302 H 0.23676 0.71127 0.46616 0.0
H303 H 0.25571 0.71916 0.43989 0.0
H304 H 0.19406 0.70938 0.42064 0.0
H305 H 0.13562 0.64338 0.41926 0.0
H306 H 0.4618 0.34219 0.84334 0.0
H307 H 0.45782 0.27747 0.84121 0.0
H308 H 0.57089 0.32787 0.87735 0.0
H309 H 0.57454 0.39214 0.87991 0.0
H310 H 0.51245 0.27196 0.81906 0.0
H311 H 0.51466 0.21874 0.89975 0.0
H312 H 0.50103 0.25599 0.89496 0.0
H313 H 0.55245 0.26953 0.89843 0.0
C314 C 0.48499 0.33901 0.85157 0.0
C315 C 0.51868 0.37216 0.86158 0.0
C316 C 0.48271 0.30205 0.85033 0.0
C317 C 0.514 0.29775 0.85915 0.0
C318 C 0.546 0.33016 0.87079 0.0
H319 H 0.63512 0.17292 0.83242 0.0
H320 H 0.60845 0.21294 0.84757 0.0
C321 C 0.5482 0.36703 0.87211 0.0
C322 C 0.51729 0.26262 0.85264 0.0
H323 H 0.54109 0.1955 0.87168 0.0
C324 C 0.51772 0.25457 0.83056 0.0
C325 C 0.52464 0.2403 0.86766 0.0
C326 C 0.52278 0.24634 0.89151 0.0
C327 C 0.52747 0.22639 0.8231 0.0
C328 C 0.53629 0.20509 0.83814 0.0
C329 C 0.53437 0.21196 0.8602 0.0
C330 C 0.5503 0.17777 0.83116 0.0
C331 C 0.53046 0.22132 0.79923 0.0
C332 C 0.52606 0.14419 0.81739 0.0
C333 C 0.54129 0.12149 0.8086 0.0
C334 C 0.58089 0.13177 0.81364 0.0
C335 C 0.60448 0.16424 0.82831 0.0
C336 C 0.58928 0.18708 0.83698 0.0
H337 H 0.53078 0.2457 0.79036 0.0
H338 H 0.55771 0.22018 0.79605 0.0
H339 H 0.50451 0.19302 0.79267 0.0
H340 H 0.49568 0.13616 0.813 0.0
H341 H 0.52223 0.09616 0.79765 0.0
H342 H 0.50451 0.90268 0.49739 0.0
H343 H 0.50391 0.84041 0.502 0.0
H344 H 0.62394 0.90503 0.53005 0.0
H345 H 0.62511 0.96757 0.52524 0.0
H346 H 0.61329 0.84684 0.5003 0.0
H347 H 0.49452 0.78503 0.55734 0.0
H348 H 0.47997 0.79878 0.53289 0.0
H349 H 0.51881 0.83634 0.55091 0.0
C350 C 0.53083 0.90379 0.50459 0.0
C351 C 0.56483 0.94037 0.511 0.0
C352 C 0.5303 0.86801 0.50737 0.0
C353 C 0.56361 0.86787 0.51677 0.0
C354 C 0.59776 0.9043 0.52291 0.0
H355 H 0.56509 0.6551 0.55873 0.0
H356 H 0.56917 0.72027 0.55794 0.0
C357 C 0.59836 0.94011 0.52012 0.0
C358 C 0.5633 0.82986 0.51955 0.0
H359 H 0.51361 0.74049 0.5421 0.0
C360 C 0.59162 0.82371 0.50955 0.0
C361 C 0.53545 0.7998 0.5319 0.0
C362 C 0.5057 0.80536 0.54406 0.0
C363 C 0.59215 0.78805 0.51103 0.0
C364 C 0.56317 0.75729 0.52255 0.0
C365 C 0.53558 0.76385 0.53309 0.0
C366 C 0.5604 0.7178 0.52327 0.0
C367 C 0.624 0.78377 0.50034 0.0
C368 C 0.55345 0.69448 0.50414 0.0
C369 C 0.55117 0.65755 0.50462 0.0
C370 C 0.5555 0.64309 0.52422 0.0
C371 C 0.5618 0.66586 0.54344 0.0
C372 C 0.56408 0.70296 0.54297 0.0
H373 H 0.65006 0.8131 0.49775 0.0
H374 H 0.63411 0.76677 0.51009 0.0
H375 H 0.6119 0.76759 0.48439 0.0
H376 H 0.54962 0.70478 0.48881 0.0
H377 H 0.54602 0.64026 0.48962 0.0
H378 H 0.66186 0.47786 0.8479 0.0
H379 H 0.72605 0.48155 0.85207 0.0
H380 H 0.78408 0.60297 0.83484 0.0
H381 H 0.71955 0.59955 0.83035 0.0
H382 H 0.81491 0.55764 0.81564 0.0
H383 H 0.8056 0.54088 0.9035 0.0
H384 H 0.76366 0.50213 0.88777 0.0
H385 H 0.77303 0.55221 0.88777 0.0
C386 C 0.68813 0.50545 0.8449 0.0
C387 C 0.68533 0.53857 0.83897 0.0
C388 C 0.72494 0.50749 0.84739 0.0
C389 C 0.76002 0.54275 0.84419 0.0
C390 C 0.75742 0.57551 0.83754 0.0
H391 H 0.99226 0.58968 0.89419 0.0
H392 H 0.93263 0.59312 0.88474 0.0
C393 C 0.72046 0.57349 0.83499 0.0
C394 C 0.79925 0.54538 0.84832 0.0
H395 H 0.85705 0.53538 0.88748 0.0
C396 C 0.82427 0.553 0.83136 0.0
C397 C 0.81175 0.53984 0.86891 0.0
C398 C 0.78732 0.53369 0.8881 0.0
C399 C 0.86095 0.55426 0.83433 0.0
C400 C 0.87271 0.5472 0.85474 0.0
C401 C 0.84801 0.54046 0.87177 0.0
C402 C 0.9106 0.54704 0.85904 0.0
C403 C 0.887 0.56371 0.81566 0.0
C404 C 0.91848 0.52019 0.84766 0.0
C405 C 0.95275 0.51819 0.85304 0.0
C406 C 0.97961 0.54265 0.8701 0.0
C407 C 0.97199 0.57004 0.88115 0.0
C408 C 0.93793 0.57214 0.87571 0.0
H409 H 0.87932 0.57908 0.8033 0.0
H410 H 0.91879 0.5826 0.82112 0.0
H411 H 0.88281 0.5357 0.80792 0.0
H412 H 0.89752 0.49986 0.83506 0.0
H413 H 0.95741 0.49643 0.84439 0.0
H414 H 0.12188 0.65537 0.19085 0.0
H415 H 0.18462 0.71808 0.19422 0.0
H416 H 0.245 0.65903 0.16979 0.0
H417 H 0.1822 0.59628 0.16593 0.0
H418 H 0.25156 0.73921 0.21829 0.0
H419 H 0.28483 0.75233 0.13243 0.0
H420 H 0.23693 0.71683 0.14113 0.0
H421 H 0.27722 0.7067 0.14257 0.0
C422 C 0.14842 0.65563 0.1861 0.0
C423 C 0.14681 0.62062 0.17805 0.0
C424 C 0.18435 0.69162 0.18803 0.0
C425 C 0.21957 0.69359 0.18192 0.0
C426 C 0.21816 0.65861 0.1741 0.0
H427 H 0.45664 0.88126 0.22558 0.0
H428 H 0.39452 0.81874 0.21807 0.0
C429 C 0.18218 0.6226 0.17207 0.0
C430 C 0.25785 0.73192 0.18455 0.0
H431 H 0.33696 0.7975 0.15768 0.0
C432 C 0.27012 0.75197 0.205 0.0
C433 C 0.28192 0.74904 0.16717 0.0
C434 C 0.26943 0.73036 0.14454 0.0
C435 C 0.30592 0.78809 0.20864 0.0
C436 C 0.3308 0.80437 0.19147 0.0
C437 C 0.3182 0.78481 0.17091 0.0
C438 C 0.3699 0.84166 0.19466 0.0
C439 C 0.31641 0.80881 0.23082 0.0
C440 C 0.37771 0.87501 0.18325 0.0
C441 C 0.4135 0.91087 0.18741 0.0
C442 C 0.44214 0.91405 0.20307 0.0
C443 C 0.43489 0.88007 0.21374 0.0
C444 C 0.39931 0.84429 0.2095 0.0
H445 H 0.28979 0.79877 0.24024 0.0
H446 H 0.33728 0.80192 0.2397 0.0
H447 H 0.33096 0.84145 0.22994 0.0
H448 H 0.3556 0.87364 0.17161 0.0
H449 H 0.41808 0.93649 0.17897 0.0
H450 H 0.61286 0.19061 0.52443 0.0
H451 H 0.60953 0.25136 0.52742 0.0
H452 H 0.5014 0.19602 0.48657 0.0
H453 H 0.50399 0.13449 0.48383 0.0
H454 H 0.6101 0.30014 0.49707 0.0
H455 H 0.46902 0.23741 0.53791 0.0
H456 H 0.4959 0.21116 0.53472 0.0
H457 H 0.46582 0.21251 0.5125 0.0
C458 C 0.58828 0.19115 0.51603 0.0
C459 C 0.55853 0.15735 0.50398 0.0
C460 C 0.58646 0.22608 0.51776 0.0
C461 C 0.55489 0.22821 0.50753 0.0
C462 C 0.52559 0.19489 0.49505 0.0
H463 H 0.50781 0.4274 0.51272 0.0
H464 H 0.50615 0.36535 0.50182 0.0
C465 C 0.52727 0.15976 0.49337 0.0
C466 C 0.55314 0.26552 0.51001 0.0
H467 H 0.49815 0.30445 0.52964 0.0
C468 C 0.58552 0.30099 0.50412 0.0
C469 C 0.52104 0.26675 0.51916 0.0
C470 C 0.48609 0.23004 0.52663 0.0
C471 C 0.58689 0.33756 0.50733 0.0
C472 C 0.55525 0.33889 0.51692 0.0
C473 C 0.52235 0.30336 0.52226 0.0
C474 C 0.55693 0.37708 0.52278 0.0
C475 C 0.62228 0.37455 0.50047 0.0
C476 C 0.58588 0.4042 0.53822 0.0
C477 C 0.58684 0.43948 0.54448 0.0
C478 C 0.55881 0.44854 0.53547 0.0
C479 C 0.53004 0.42152 0.51982 0.0
C480 C 0.52893 0.38597 0.51366 0.0
H481 H 0.63832 0.36752 0.48831 0.0
H482 H 0.6132 0.39501 0.49368 0.0
H483 H 0.64321 0.39019 0.51469 0.0
H484 H 0.60744 0.39776 0.54571 0.0
H485 H 0.60957 0.45974 0.55645 0.0
H486 H 0.48072 0.5867 0.83311 0.0
H487 H 0.41822 0.58561 0.83761 0.0
H488 H 0.36751 0.46824 0.86058 0.0
H489 H 0.43012 0.46923 0.85649 0.0
H490 H 0.34429 0.53542 0.81861 0.0
H491 H 0.3411 0.52522 0.90711 0.0
H492 H 0.38498 0.5376 0.89302 0.0
H493 H 0.34589 0.48688 0.89318 0.0
C494 C 0.45641 0.56063 0.8392 0.0
C495 C 0.46075 0.5281 0.84451 0.0
C496 C 0.42059 0.56009 0.84176 0.0
C497 C 0.38824 0.52714 0.84978 0.0
C498 C 0.39226 0.49442 0.85486 0.0
H499 H 0.14376 0.46754 0.86886 0.0
H500 H 0.20687 0.46763 0.86739 0.0
C501 C 0.42811 0.49494 0.85234 0.0
C502 C 0.35007 0.5267 0.85217 0.0
H503 H 0.2831 0.51782 0.88859 0.0
C504 C 0.33104 0.53174 0.83394 0.0
C505 C 0.33259 0.52176 0.87216 0.0
C506 C 0.35231 0.51792 0.89254 0.0
C507 C 0.29495 0.53153 0.83506 0.0
C508 C 0.27758 0.5268 0.85506 0.0
C509 C 0.2964 0.52147 0.87328 0.0
C510 C 0.24 0.52755 0.8573 0.0
C511 C 0.27533 0.53561 0.81471 0.0
C512 C 0.23786 0.56151 0.8527 0.0
C513 C 0.20197 0.56147 0.85361 0.0
C514 C 0.16773 0.52761 0.85928 0.0
C515 C 0.16996 0.49405 0.86455 0.0
C516 C 0.20592 0.49409 0.86368 0.0
H517 H 0.28671 0.52864 0.8001 0.0
H518 H 0.24268 0.51578 0.81414 0.0
H519 H 0.28157 0.56661 0.81423 0.0
H520 H 0.26386 0.58792 0.84814 0.0
H521 H 0.20081 0.58763 0.84943 0.0
H522 H 0.8926 0.4253 0.17906 0.0
H523 H 0.83132 0.36314 0.1827 0.0
H524 H 0.88579 0.29771 0.15897 0.0
H525 H 0.94773 0.36001 0.15549 0.0
H526 H 0.78254 0.30273 0.15238 0.0
H527 H 0.84331 0.24648 0.21531 0.0
H528 H 0.86934 0.29727 0.20799 0.0
H529 H 0.86971 0.259 0.19124 0.0
C530 C 0.89173 0.39778 0.17453 0.0
C531 C 0.92539 0.39784 0.16704 0.0
C532 C 0.85651 0.36216 0.17665 0.0
C533 C 0.85401 0.32562 0.17148 0.0
C534 C 0.88719 0.32547 0.1635 0.0
H535 H 0.66269 0.0806 0.17578 0.0
H536 H 0.72609 0.14162 0.17225 0.0
C537 C 0.92253 0.36119 0.16134 0.0
C538 C 0.8165 0.28793 0.17436 0.0
H539 H 0.7772 0.20321 0.20162 0.0
C540 C 0.78138 0.28101 0.16318 0.0
C541 C 0.81489 0.25952 0.18846 0.0
C542 C 0.8512 0.26594 0.20161 0.0
C543 C 0.74493 0.24638 0.16548 0.0
C544 C 0.74323 0.21809 0.1797 0.0
C545 C 0.7784 0.22487 0.19078 0.0
C546 C 0.70534 0.1811 0.18306 0.0
C547 C 0.7087 0.24004 0.15226 0.0
C548 C 0.67279 0.18279 0.19087 0.0
C549 C 0.63662 0.14793 0.19291 0.0
C550 C 0.63256 0.11084 0.18738 0.0
C551 C 0.6653 0.10896 0.18025 0.0
C552 C 0.70145 0.14378 0.1782 0.0
H553 H 0.71679 0.25867 0.1382 0.0
H554 H 0.6899 0.2085 0.14637 0.0
H555 H 0.69083 0.24826 0.1624 0.0
H556 H 0.67522 0.21111 0.19516 0.0
H557 H 0.61165 0.15 0.19839 0.0
H558 H 0.02527 0.46423 0.10972 0.0
H559 H 0.03926 0.46098 0.07183 0.0
H560 H 0.06686 0.5821 0.06701 0.0
H561 H 0.05405 0.58578 0.10475 0.0
H562 H 1.00208 0.4698 0.0365 0.0
H563 H 0.16038 0.58484 0.04008 0.0
H564 H 0.13479 0.56399 0.06392 0.0
H565 H 0.13122 0.60352 0.05184 0.0
C566 C 0.03487 0.49026 0.10059 0.0
C567 C 0.03884 0.52534 0.11018 0.0
C568 C 0.0428 0.48838 0.07898 0.0
C569 C 0.05495 0.52157 0.06667 0.0
C570 C 0.05869 0.55648 0.07629 0.0
H571 H 0.05904 0.58484 0.93879 0.0
H572 H 0.06327 0.57883 0.97763 0.0
C573 C 0.05096 0.55842 0.09783 0.0
C574 C 0.06104 0.51933 0.0434 0.0
H575 H 0.12486 0.56962 0.00511 0.0
C576 C 0.02924 0.49104 0.02966 0.0
C577 C 0.09658 0.54694 0.03448 0.0
C578 C 0.1328 0.57624 0.0484 0.0
C579 C 0.03114 0.49126 0.00721 0.0
C580 C 0.06578 0.52038 0.99831 0.0
C581 C 0.09826 0.54747 0.01202 0.0
C582 C 0.06719 0.52545 0.97487 0.0
C583 C 0.9954 0.46173 0.99305 0.0
C584 C 0.06901 0.49793 0.96051 0.0
C585 C 0.06681 0.50142 0.93827 0.0
C586 C 0.06239 0.53229 0.93012 0.0
C587 C 0.06205 0.56055 0.94462 0.0
C588 C 0.0646 0.55724 0.96678 0.0
H589 H 0.96953 0.44328 0.00248 0.0
H590 H 0.98681 0.47739 0.98134 0.0
H591 H 1.00289 0.44181 0.98376 0.0
H592 H 0.07121 0.4733 0.96651 0.0
H593 H 0.06693 0.47913 0.92745 0.0
H594 H 0.52103 0.0476 0.44645 0.0
H595 H 0.50578 0.03938 0.40728 0.0
H596 H 0.62355 0.06038 0.39746 0.0
H597 H 0.63909 0.0699 0.43621 0.0
H598 H 0.60572 0.10176 0.37146 0.0
H599 H 0.4806 0.94656 0.3666 0.0
H600 H 0.47319 0.98032 0.38342 0.0
H601 H 0.51185 0.9697 0.39089 0.0
C602 C 0.54334 0.04996 0.43584 0.0
C603 C 0.58108 0.05904 0.44428 0.0
C604 C 0.53464 0.0452 0.4135 0.0
C605 C 0.56337 0.04876 0.39936 0.0
C606 C 0.6009 0.05755 0.40796 0.0
H607 H 0.53482 0.95931 0.26825 0.0
H608 H 0.54484 0.97384 0.30723 0.0
C609 C 0.60972 0.06284 0.43013 0.0
C610 C 0.55538 0.04429 0.37559 0.0
H611 H 0.49675 0.97883 0.33415 0.0
C612 C 0.5818 0.0749 0.3633 0.0
C613 C 0.52434 0.00915 0.36493 0.0
C614 C 0.49606 0.97439 0.37708 0.0
C615 C 0.57883 0.07096 0.34071 0.0
C616 C 0.54769 0.0359 0.33004 0.0
C617 C 0.52059 1.00573 0.34233 0.0
C618 C 0.54379 0.02879 0.30622 0.0
C619 C 0.61018 0.1037 0.32863 0.0
C620 C 0.54039 0.05507 0.29258 0.0
C621 C 0.5355 0.04717 0.27022 0.0
C622 C 0.53303 0.01241 0.26121 0.0
C623 C 0.5367 0.98634 0.27484 0.0
C624 C 0.54221 0.99453 0.29709 0.0
H625 H 0.63749 0.12285 0.3391 0.0
H626 H 0.6183 0.09152 0.3146 0.0
H627 H 0.59856 0.1227 0.32266 0.0
H628 H 0.54053 0.08118 0.2992 0.0
H629 H 0.53206 0.06735 0.26004 0.0
H630 H 0.53323 0.45266 0.76392 0.0
H631 H 0.53814 0.46944 0.72643 0.0
H632 H 0.59629 0.59376 0.74676 0.0
H633 H 0.59313 0.57685 0.78448 0.0
H634 H 0.50635 0.50518 0.7048 0.0
H635 H 0.67036 0.59401 0.7037 0.0
H636 H 0.64609 0.56491 0.72593 0.0
H637 H 0.64936 0.61217 0.72305 0.0
C638 C 0.54731 0.48361 0.76042 0.0
C639 C 0.56254 0.51351 0.77711 0.0
C640 C 0.54998 0.49318 0.73897 0.0
C641 C 0.56782 0.53289 0.73367 0.0
C642 C 0.583 0.56294 0.75036 0.0
H643 H 0.52909 0.56351 0.59669 0.0
H644 H 0.53193 0.5724 0.63593 0.0
C645 C 0.58075 0.5533 0.77193 0.0
C646 C 0.56956 0.542 0.71062 0.0
H647 H 0.63327 0.5874 0.67146 0.0
C648 C 0.53409 0.5234 0.69752 0.0
C649 C 0.6058 0.56566 0.70112 0.0
C650 C 0.64513 0.58509 0.7141 0.0
C651 C 0.53389 0.52635 0.67514 0.0
C652 C 0.57014 0.54982 0.66558 0.0
C653 C 0.60548 0.56969 0.67879 0.0
C654 C 0.5725 0.55045 0.64181 0.0
C655 C 0.49506 0.50238 0.66189 0.0
C656 C 0.59635 0.53771 0.632 0.0
C657 C 0.59561 0.53362 0.60963 0.0
C658 C 0.57063 0.54174 0.59646 0.0
C659 C 0.54855 0.55682 0.60628 0.0
C660 C 0.54972 0.56141 0.62875 0.0
H661 H 0.47203 0.47896 0.67114 0.0
H662 H 0.48389 0.52226 0.65686 0.0
H663 H 0.49894 0.48803 0.64721 0.0
H664 H 0.61454 0.52949 0.64167 0.0
H665 H 0.61391 0.52305 0.60265 0.0
H666 H 0.49983 0.05726 0.57273 0.0
H667 H 0.51503 0.06205 0.6116 0.0
H668 H 0.62188 0.05882 0.6004 0.0
H669 H 0.60674 0.05378 0.56141 0.0
H670 H 0.5284 1.00169 0.63368 0.0
H671 H 0.65427 0.15694 0.64498 0.0
H672 H 0.61796 0.1404 0.6224 0.0
H673 H 0.6549 0.12577 0.62315 0.0
C674 C 0.52678 0.05802 0.57855 0.0
C675 C 0.55208 0.05507 0.56412 0.0
C676 C 0.53535 0.06065 0.60071 0.0
C677 C 0.56957 0.06088 0.60878 0.0
C678 C 0.59548 0.05899 0.59442 0.0
H679 H 0.66107 0.08475 0.74188 0.0
H680 H 0.65236 0.07635 0.7026 0.0
C681 C 0.58678 0.05608 0.57222 0.0
C682 C 0.57701 0.0612 0.63223 0.0
H683 H 0.63558 0.11979 0.67566 0.0
C684 C 0.55188 0.02742 0.64291 0.0
C685 C 0.60792 0.09467 0.64405 0.0
C686 C 0.63533 0.13171 0.6332 0.0
C687 C 0.5567 0.0263 0.66525 0.0
C688 C 0.5868 0.0603 0.67725 0.0
C689 C 0.61247 0.09379 0.66645 0.0
C690 C 0.59115 0.06242 0.70108 0.0
C691 C 0.52976 0.98856 0.67571 0.0
C692 C 0.55959 0.0572 0.71327 0.0
C693 C 0.56429 0.06143 0.7357 0.0
C694 C 0.60087 0.07156 0.74643 0.0
C695 C 0.63233 0.07636 0.73417 0.0
C696 C 0.62752 0.0719 0.71171 0.0
H697 H 0.51778 0.96233 0.66407 0.0
H698 H 0.5455 0.98388 0.68954 0.0
H699 H 0.50423 0.99038 0.68167 0.0
H700 H 0.53151 0.0507 0.70543 0.0
H701 H 0.53934 0.05716 0.74464 0.0
H702 H 0.54751 0.48724 0.89049 0.0
H703 H 0.53859 0.46827 0.92785 0.0
H704 H 0.59654 0.5917 0.95001 0.0
H705 H 0.60666 0.61063 0.91284 0.0
H706 H 0.6249 0.55197 0.97212 0.0
H707 H 0.46037 0.46933 0.96846 0.0
H708 H 0.48126 0.45133 0.94895 0.0
H709 H 0.48801 0.50028 0.94748 0.0
C710 C 0.55846 0.51019 0.90337 0.0
C711 C 0.57804 0.55034 0.89885 0.0
C712 C 0.55295 0.49937 0.92468 0.0
C713 C 0.56644 0.52857 0.94172 0.0
C714 C 0.58581 0.56867 0.93712 0.0
H715 H 0.51229 0.50756 0.07564 0.0
H716 H 0.51506 0.51772 0.03702 0.0
C717 C 0.59154 0.57945 0.9159 0.0
C718 C 0.5619 0.51781 0.96443 0.0
H719 H 0.49358 0.46721 1.00073 0.0
C720 C 0.59618 0.53342 0.97837 0.0
C721 C 0.52436 0.49399 0.97261 0.0
C722 C 0.48634 0.47804 0.95867 0.0
C723 C 0.59404 0.52597 1.00026 0.0
C724 C 0.55661 0.50133 0.00834 0.0
C725 C 0.52226 0.48575 0.99444 0.0
C726 C 0.55258 0.49245 0.03134 0.0
C727 C 0.63185 0.54554 0.01462 0.0
C728 C 0.57183 0.4739 0.04082 0.0
C729 C 0.57053 0.46835 0.06284 0.0
C730 C 0.54945 0.48073 0.07575 0.0
C731 C 0.52868 0.49766 0.06607 0.0
C732 C 0.53029 0.50352 0.04404 0.0
H733 H 0.65595 0.57149 0.00729 0.0
H734 H 0.62706 0.55556 0.03054 0.0
H735 H 0.64204 0.52393 0.0172 0.0
H736 H 0.58832 0.46417 0.03121 0.0
H737 H 0.58616 0.45451 0.06981 0.0
H738 H 0.01623 0.4312 0.23382 0.0
H739 H 1.00186 0.43482 0.27143 0.0
H740 H 0.02865 0.55553 0.26588 0.0
H741 H 0.04347 0.55221 0.22825 0.0
H742 H 0.06878 0.5448 0.30091 0.0
H743 H 0.90751 0.43594 0.29816 0.0
H744 H 0.93697 0.41776 0.28609 0.0
H745 H 0.93309 0.45725 0.27437 0.0
C746 C 0.01874 0.45841 0.24059 0.0
C747 C 0.03109 0.49149 0.2282 0.0
C748 C 1.01018 0.46029 0.262 0.0
C749 C 1.01364 0.49523 0.27134 0.0
C750 C 0.02552 0.52819 0.2589 0.0
H751 H 0.99235 0.57548 0.39753 0.0
H752 H 0.98165 0.55529 0.35907 0.0
C753 C 0.03402 0.52629 0.23746 0.0
C754 C 1.00809 0.49848 0.29454 0.0
H755 H 0.94093 0.45957 0.33298 0.0
C756 C 0.04078 0.52629 0.30788 0.0
C757 C 0.9715 0.4742 0.30358 0.0
C758 C 0.93511 0.44481 0.28982 0.0
C759 C 0.03805 0.53019 0.33008 0.0
C760 C 1.00168 0.50569 0.33915 0.0
C761 C 0.96881 0.478 0.32589 0.0
C762 C 0.99782 0.51006 0.3624 0.0
C763 C 0.07405 0.56048 0.34383 0.0
C764 C 1.00862 0.4899 0.37697 0.0
C765 C 0.01459 0.50127 0.39897 0.0
C766 C 1.01014 0.53313 0.40651 0.0
C767 C 0.99596 0.55083 0.39207 0.0
C768 C 0.98981 0.53934 0.37015 0.0
H769 H 0.10041 0.5767 0.33433 0.0
H770 H 0.06752 0.5823 0.35183 0.0
H771 H 0.08139 0.54566 0.35665 0.0
H772 H 0.01519 0.46742 0.37117 0.0
H773 H 0.02594 0.48749 0.40975 0.0
loop_
_geom_bond_atom_site_label_1
_geom_bond_atom_site_label_2
_geom_bond_distance
_geom_bond_site_symmetry_2
_ccdc_geom_bond_type
Dy0 O4 2.398 . S
Dy0 O5 2.491 . S
Dy0 O6 2.403 . S
Dy0 O7 2.664 . S
Dy0 O11 2.326 . S
Dy0 O15 2.310 . S
Dy0 O16 2.351 . S
C1 O12 1.185 . S
C1 O13 1.355 . S
C2 O4 1.185 . S
C2 O5 1.355 . S
Dy3 O7 2.310 . S
Dy3 O10 2.351 . S
Dy3 O12 2.398 1_455 S
Dy3 O13 2.491 1_455 S
Dy3 O14 2.403 . S
Dy3 O15 2.664 . S
Dy3 O17 2.326 1_455 S
O4 Dy0 2.398 . S
O4 C2 1.185 . S
O5 Dy0 2.491 . S
O5 C2 1.355 . S
O6 Dy0 2.403 . S
O6 C8 1.254 . S
O7 Dy0 2.664 . S
O7 Dy3 2.310 . S
O7 C8 1.268 . S
C8 O6 1.254 . S
C8 O7 1.268 . S
C9 O14 1.254 . S
C9 O15 1.268 . S
O10 Dy3 2.351 . S
O10 C18 1.249 . S
O11 Dy0 2.326 . S
O11 C18 1.267 . S
O12 C1 1.185 . S
O12 Dy3 2.398 1_655 S
O13 C1 1.355 . S
O13 Dy3 2.491 1_655 S
O14 Dy3 2.403 . S
O14 C9 1.254 . S
O15 Dy0 2.310 . S
O15 Dy3 2.664 . S
O15 C9 1.268 . S
O16 Dy0 2.351 . S
O16 C19 1.249 1_455 S
O17 Dy3 2.326 1_655 S
O17 C19 1.267 . S
C18 O10 1.249 . S
C18 O11 1.267 . S
C19 O16 1.249 1_655 S
C19 O17 1.267 . S
Dy20 O24 2.398 . S
Dy20 O25 2.491 . S
Dy20 O26 2.403 1_565 S
Dy20 O27 2.664 1_565 S
Dy20 O31 2.326 . S
Dy20 O35 2.310 1_565 S
Dy20 O36 2.351 1_565 S
C21 O32 1.185 . S
C21 O33 1.355 . S
C22 O24 1.185 . S
C22 O25 1.355 . S
Dy23 O27 2.310 . S
Dy23 O30 2.351 1_545 S
Dy23 O32 2.398 . S
Dy23 O33 2.491 . S
Dy23 O34 2.403 . S
Dy23 O35 2.664 . S
Dy23 O37 2.326 . S
O24 Dy20 2.398 . S
O24 C22 1.185 . S
O25 Dy20 2.491 . S
O25 C22 1.355 . S
O26 Dy20 2.403 1_545 S
O26 C28 1.254 . S
O27 Dy20 2.664 1_545 S
O27 Dy23 2.310 . S
O27 C28 1.268 . S
C28 O26 1.254 . S
C28 O27 1.268 . S
C29 O34 1.254 . S
C29 O35 1.268 . S
O30 Dy23 2.351 1_565 S
O30 C38 1.249 . S
O31 Dy20 2.326 . S
O31 C38 1.267 . S
O32 C21 1.185 . S
O32 Dy23 2.398 . S
O33 C21 1.355 . S
O33 Dy23 2.491 . S
O34 Dy23 2.403 . S
O34 C29 1.254 . S
O35 Dy20 2.310 1_545 S
O35 Dy23 2.664 . S
O35 C29 1.268 . S
O36 Dy20 2.351 1_545 S
O36 C39 1.249 . S
O37 Dy23 2.326 . S
O37 C39 1.267 . S
C38 O30 1.249 . S
C38 O31 1.267 . S
C39 O36 1.249 . S
C39 O37 1.267 . S
Dy40 O44 2.398 . S
Dy40 O45 2.491 . S
Dy40 O46 2.403 . S
Dy40 O47 2.664 . S
Dy40 O51 2.326 . S
Dy40 O55 2.310 . S
Dy40 O56 2.351 . S
C41 O52 1.185 . S
C41 O53 1.355 . S
C42 O44 1.185 . S
C42 O45 1.355 . S
Dy43 O47 2.310 . S
Dy43 O50 2.351 . S
Dy43 O52 2.398 . S
Dy43 O53 2.491 . S
Dy43 O54 2.403 . S
Dy43 O55 2.664 . S
Dy43 O57 2.326 . S
O44 Dy40 2.398 . S
O44 C42 1.185 . S
O45 Dy40 2.491 . S
O45 C42 1.355 . S
O46 Dy40 2.403 . S
O46 C48 1.254 . S
O47 Dy40 2.664 . S
O47 Dy43 2.310 . S
O47 C48 1.268 . S
C48 O46 1.254 . S
C48 O47 1.268 . S
C49 O54 1.254 . S
C49 O55 1.268 . S
O50 Dy43 2.351 . S
O50 C58 1.249 . S
O51 Dy40 2.326 . S
O51 C58 1.267 . S
O52 C41 1.185 . S
O52 Dy43 2.398 . S
O53 C41 1.355 . S
O53 Dy43 2.491 . S
O54 Dy43 2.403 . S
O54 C49 1.254 . S
O55 Dy40 2.310 . S
O55 Dy43 2.664 . S
O55 C49 1.268 . S
O56 Dy40 2.351 . S
O56 C59 1.249 . S
O57 Dy43 2.326 . S
O57 C59 1.267 . S
C58 O50 1.249 . S
C58 O51 1.267 . S
C59 O56 1.249 . S
C59 O57 1.267 . S
H60 C63 0.929 . S
H61 C66 0.929 . S
H62 C68 0.930 . S
C63 H60 0.929 . S
C63 C64 1.398 . S
C63 C65 1.396 1_565 S
C64 C63 1.398 . S
C64 C68 1.407 . S
C65 C63 1.396 1_545 S
C65 C66 1.394 . S
C66 H61 0.929 . S
C66 C65 1.394 . S
C66 C67 1.382 . S
C67 C66 1.382 . S
C67 C68 1.392 1_545 S
C67 N69 1.420 . S
C68 H62 0.930 . S
C68 C64 1.407 . S
C68 C67 1.392 1_565 S
N69 C67 1.420 . S
N69 C70 1.244 . S
C70 N69 1.244 . S
H71 C74 0.929 . S
H72 C77 0.929 . S
H73 C79 0.930 . S
C74 H71 0.929 . S
C74 C75 1.398 . S
C74 C76 1.396 . S
C75 C74 1.398 . S
C75 C79 1.407 . S
C76 C74 1.396 . S
C76 C77 1.394 . S
C77 H72 0.929 . S
C77 C76 1.394 . S
C77 C78 1.382 . S
C78 C77 1.382 . S
C78 C79 1.392 . S
C78 N80 1.420 . S
C79 H73 0.930 . S
C79 C75 1.407 . S
C79 C78 1.392 . S
N80 C78 1.420 . S
N80 C81 1.244 . S
C81 N80 1.244 . S
H82 C85 0.929 . S
H83 C88 0.929 . S
H84 C90 0.930 . S
C85 H82 0.929 . S
C85 C86 1.398 . S
C85 C87 1.396 . S
C86 C85 1.398 . S
C86 C90 1.407 . S
C87 C85 1.396 . S
C87 C88 1.394 . S
C88 H83 0.929 . S
C88 C87 1.394 . S
C88 C89 1.382 . S
C89 C88 1.382 . S
C89 C90 1.392 . S
C89 N91 1.420 . S
C90 H84 0.930 . S
C90 C86 1.407 . S
C90 C89 1.392 . S
N91 C89 1.420 . S
N91 C92 1.244 . S
C92 N91 1.244 . S
H93 C96 0.929 . S
H94 C99 0.929 . S
H95 C101 0.930 . S
C96 H93 0.929 . S
C96 C97 1.398 . S
C96 C98 1.396 . S
C97 C96 1.398 . S
C97 C101 1.407 . S
C98 C96 1.396 . S
C98 C99 1.394 1_455 S
C99 H94 0.929 . S
C99 C98 1.394 1_655 S
C99 C100 1.382 . S
C100 C99 1.382 . S
C100 C101 1.392 1_655 S
C100 N102 1.420 . S
C101 H95 0.930 . S
C101 C97 1.407 . S
C101 C100 1.392 1_455 S
N102 C100 1.420 . S
N102 C103 1.244 . S
C103 N102 1.244 . S
H104 C107 0.929 . S
H105 C110 0.929 1_565 S
H106 C112 0.930 . S
C107 H104 0.929 . S
C107 C108 1.398 . S
C107 C109 1.396 . S
C108 C107 1.398 . S
C108 C112 1.407 . S
C109 C107 1.396 . S
C109 C110 1.394 . S
C110 H105 0.929 1_545 S
C110 C109 1.394 . S
C110 C111 1.382 . S
C111 C110 1.382 . S
C111 C112 1.392 . S
C111 N113 1.420 1_545 S
C112 H106 0.930 . S
C112 C108 1.407 . S
C112 C111 1.392 . S
N113 C111 1.420 1_565 S
N113 C114 1.244 . S
C114 N113 1.244 . S
H115 C118 0.929 . S
H116 C121 0.929 . S
H117 C123 0.930 . S
C118 H115 0.929 . S
C118 C119 1.398 . S
C118 C120 1.396 . S
C119 C118 1.398 . S
C119 C123 1.407 . S
C120 C118 1.396 . S
C120 C121 1.394 . S
C121 H116 0.929 . S
C121 C120 1.394 . S
C121 C122 1.382 . S
C122 C121 1.382 . S
C122 C123 1.392 . S
C122 N124 1.420 . S
C123 H117 0.930 . S
C123 C119 1.407 . S
C123 C122 1.392 . S
N124 C122 1.420 . S
N124 C125 1.244 . S
C125 N124 1.244 . S
H126 C134 0.929 . S
H127 C136 0.930 . S
H128 C138 0.930 . S
H129 C141 0.929 . S
H130 C144 0.930 . S
H131 C146 0.960 . S
H132 C146 0.960 . S
H133 C146 0.960 . S
C134 H126 0.929 . S
C134 C135 1.377 . S
C134 C136 1.384 . S
C135 C134 1.377 . S
C135 C141 1.390 . S
C136 H127 0.930 . S
C136 C134 1.384 . S
C136 C137 1.372 . S
C137 C136 1.372 . S
C137 C138 1.400 . S
C137 C142 1.490 . S
C138 H128 0.930 . S
C138 C137 1.400 . S
C138 C141 1.386 . S
H139 C155 0.930 . S
H140 C156 0.931 . S
C141 H129 0.929 . S
C141 C135 1.390 . S
C141 C138 1.386 . S
C142 C137 1.490 . S
C142 C144 1.395 . S
C142 C145 1.403 . S
H143 C149 0.930 . S
C144 H130 0.930 . S
C144 C142 1.395 . S
C144 C147 1.403 . S
C145 C142 1.403 . S
C145 C146 1.524 . S
C145 C149 1.400 . S
C146 H131 0.960 . S
C146 H132 0.960 . S
C146 H133 0.960 . S
C146 C145 1.524 . S
C147 C144 1.403 . S
C147 C148 1.392 . S
C147 C151 1.495 . S
C148 C147 1.392 . S
C148 C149 1.385 . S
C148 C150 1.478 . S
C149 H143 0.930 . S
C149 C145 1.400 . S
C149 C148 1.385 . S
C150 C148 1.478 . S
C150 C152 1.381 . S
C150 C156 1.383 . S
C151 C147 1.495 . S
C151 H157 0.959 . S
C151 H158 0.961 . S
C151 H159 0.960 . S
C152 C150 1.381 . S
C152 C153 1.394 . S
C152 H160 0.930 . S
C153 C152 1.394 . S
C153 C154 1.383 . S
C153 H161 0.929 . S
C154 C153 1.383 . S
C154 C155 1.377 . S
C155 H139 0.930 . S
C155 C154 1.377 . S
C155 C156 1.379 . S
C156 H140 0.931 . S
C156 C150 1.383 . S
C156 C155 1.379 . S
H157 C151 0.959 . S
H158 C151 0.961 . S
H159 C151 0.960 . S
H160 C152 0.930 . S
H161 C153 0.929 . S
H162 C170 0.929 . S
H163 C172 0.930 . S
H164 C174 0.930 . S
H165 C177 0.929 . S
H166 C180 0.930 . S
H167 C182 0.960 . S
H168 C182 0.960 . S
H169 C182 0.960 . S
C170 H162 0.929 . S
C170 C171 1.377 . S
C170 C172 1.384 . S
C171 C170 1.377 . S
C171 C177 1.390 . S
C172 H163 0.930 . S
C172 C170 1.384 . S
C172 C173 1.372 . S
C173 C172 1.372 . S
C173 C174 1.400 . S
C173 C178 1.490 . S
C174 H164 0.930 . S
C174 C173 1.400 . S
C174 C177 1.386 . S
H175 C191 0.930 . S
H176 C192 0.931 . S
C177 H165 0.929 . S
C177 C171 1.390 . S
C177 C174 1.386 . S
C178 C173 1.490 . S
C178 C180 1.395 . S
C178 C181 1.403 . S
H179 C185 0.930 . S
C180 H166 0.930 . S
C180 C178 1.395 . S
C180 C183 1.403 . S
C181 C178 1.403 . S
C181 C182 1.524 . S
C181 C185 1.400 . S
C182 H167 0.960 . S
C182 H168 0.960 . S
C182 H169 0.960 . S
C182 C181 1.524 . S
C183 C180 1.403 . S
C183 C184 1.392 . S
C183 C187 1.495 . S
C184 C183 1.392 . S
C184 C185 1.385 . S
C184 C186 1.478 . S
C185 H179 0.930 . S
C185 C181 1.400 . S
C185 C184 1.385 . S
C186 C184 1.478 . S
C186 C188 1.381 . S
C186 C192 1.383 . S
C187 C183 1.495 . S
C187 H193 0.959 . S
C187 H194 0.961 . S
C187 H195 0.960 . S
C188 C186 1.381 . S
C188 C189 1.394 . S
C188 H196 0.930 . S
C189 C188 1.394 . S
C189 C190 1.383 . S
C189 H197 0.929 . S
C190 C189 1.383 . S
C190 C191 1.377 . S
C191 H175 0.930 . S
C191 C190 1.377 . S
C191 C192 1.379 . S
C192 H176 0.931 . S
C192 C186 1.383 . S
C192 C191 1.379 . S
H193 C187 0.959 . S
H194 C187 0.961 . S
H195 C187 0.960 . S
H196 C188 0.930 . S
H197 C189 0.929 . S
H198 C206 0.929 . S
H199 C208 0.930 . S
H200 C210 0.930 . S
H201 C213 0.929 . S
H202 C216 0.930 . S
H203 C218 0.960 . S
H204 C218 0.960 . S
H205 C218 0.960 . S
C206 H198 0.929 . S
C206 C207 1.377 . S
C206 C208 1.384 . S
C207 C206 1.377 . S
C207 C213 1.390 . S
C208 H199 0.930 . S
C208 C206 1.384 . S
C208 C209 1.372 . S
C209 C208 1.372 . S
C209 C210 1.400 . S
C209 C214 1.490 . S
C210 H200 0.930 . S
C210 C209 1.400 . S
C210 C213 1.386 . S
H211 C227 0.930 . S
H212 C228 0.931 . S
C213 H201 0.929 . S
C213 C207 1.390 . S
C213 C210 1.386 . S
C214 C209 1.490 . S
C214 C216 1.395 . S
C214 C217 1.403 . S
H215 C221 0.930 . S
C216 H202 0.930 . S
C216 C214 1.395 . S
C216 C219 1.403 . S
C217 C214 1.403 . S
C217 C218 1.524 . S
C217 C221 1.400 . S
C218 H203 0.960 . S
C218 H204 0.960 . S
C218 H205 0.960 . S
C218 C217 1.524 . S
C219 C216 1.403 . S
C219 C220 1.392 . S
C219 C223 1.495 . S
C220 C219 1.392 . S
C220 C221 1.385 . S
C220 C222 1.478 . S
C221 H215 0.930 . S
C221 C217 1.400 . S
C221 C220 1.385 . S
C222 C220 1.478 . S
C222 C224 1.381 . S
C222 C228 1.383 . S
C223 C219 1.495 . S
C223 H229 0.959 . S
C223 H230 0.961 . S
C223 H231 0.960 . S
C224 C222 1.381 . S
C224 C225 1.394 . S
C224 H232 0.930 . S
C225 C224 1.394 . S
C225 C226 1.383 . S
C225 H233 0.929 . S
C226 C225 1.383 . S
C226 C227 1.377 . S
C227 H211 0.930 . S
C227 C226 1.377 . S
C227 C228 1.379 . S
C228 H212 0.931 . S
C228 C222 1.383 . S
C228 C227 1.379 . S
H229 C223 0.959 . S
H230 C223 0.961 . S
H231 C223 0.960 . S
H232 C224 0.930 . S
H233 C225 0.929 . S
H234 C242 0.929 . S
H235 C244 0.930 . S
H236 C246 0.930 . S
H237 C249 0.929 . S
H238 C252 0.930 . S
H239 C254 0.960 . S
H240 C254 0.960 . S
H241 C254 0.960 . S
C242 H234 0.929 . S
C242 C243 1.377 . S
C242 C244 1.384 . S
C243 C242 1.377 . S
C243 C249 1.390 . S
C244 H235 0.930 . S
C244 C242 1.384 . S
C244 C245 1.372 . S
C245 C244 1.372 . S
C245 C246 1.400 . S
C245 C250 1.490 . S
C246 H236 0.930 . S
C246 C245 1.400 . S
C246 C249 1.386 . S
H247 C263 0.930 . S
H248 C264 0.931 . S
C249 H237 0.929 . S
C249 C243 1.390 . S
C249 C246 1.386 . S
C250 C245 1.490 . S
C250 C252 1.395 . S
C250 C253 1.403 . S
H251 C257 0.930 . S
C252 H238 0.930 . S
C252 C250 1.395 . S
C252 C255 1.403 . S
C253 C250 1.403 . S
C253 C254 1.524 . S
C253 C257 1.400 . S
C254 H239 0.960 . S
C254 H240 0.960 . S
C254 H241 0.960 . S
C254 C253 1.524 . S
C255 C252 1.403 . S
C255 C256 1.392 . S
C255 C259 1.495 . S
C256 C255 1.392 . S
C256 C257 1.385 . S
C256 C258 1.478 . S
C257 H251 0.930 . S
C257 C253 1.400 . S
C257 C256 1.385 . S
C258 C256 1.478 . S
C258 C260 1.381 . S
C258 C264 1.383 . S
C259 C255 1.495 . S
C259 H265 0.959 . S
C259 H266 0.961 . S
C259 H267 0.960 . S
C260 C258 1.381 . S
C260 C261 1.394 . S
C260 H268 0.930 . S
C261 C260 1.394 . S
C261 C262 1.383 . S
C261 H269 0.929 . S
C262 C261 1.383 . S
C262 C263 1.377 . S
C263 H247 0.930 . S
C263 C262 1.377 . S
C263 C264 1.379 . S
C264 H248 0.931 . S
C264 C258 1.383 . S
C264 C263 1.379 . S
H265 C259 0.959 . S
H266 C259 0.961 . S
H267 C259 0.960 . S
H268 C260 0.930 . S
H269 C261 0.929 . S
H270 C278 0.929 . S
H271 C280 0.930 . S
H272 C282 0.930 . S
H273 C285 0.929 . S
H274 C288 0.930 . S
H275 C290 0.960 . S
H276 C290 0.960 . S
H277 C290 0.960 . S
C278 H270 0.929 . S
C278 C279 1.377 . S
C278 C280 1.384 . S
C279 C278 1.377 . S
C279 C285 1.390 . S
C280 H271 0.930 . S
C280 C278 1.384 . S
C280 C281 1.372 . S
C281 C280 1.372 . S
C281 C282 1.400 . S
C281 C286 1.490 . S
C282 H272 0.930 . S
C282 C281 1.400 . S
C282 C285 1.386 . S
H283 C299 0.930 . S
H284 C300 0.931 . S
C285 H273 0.929 . S
C285 C279 1.390 . S
C285 C282 1.386 . S
C286 C281 1.490 . S
C286 C288 1.395 . S
C286 C289 1.403 . S
H287 C293 0.930 . S
C288 H274 0.930 . S
C288 C286 1.395 . S
C288 C291 1.403 . S
C289 C286 1.403 . S
C289 C290 1.524 . S
C289 C293 1.400 . S
C290 H275 0.960 . S
C290 H276 0.960 . S
C290 H277 0.960 . S
C290 C289 1.524 . S
C291 C288 1.403 . S
C291 C292 1.392 . S
C291 C295 1.495 . S
C292 C291 1.392 . S
C292 C293 1.385 . S
C292 C294 1.478 . S
C293 H287 0.930 . S
C293 C289 1.400 . S
C293 C292 1.385 . S
C294 C292 1.478 . S
C294 C296 1.381 . S
C294 C300 1.383 . S
C295 C291 1.495 . S
C295 H301 0.959 . S
C295 H302 0.961 . S
C295 H303 0.960 . S
C296 C294 1.381 . S
C296 C297 1.394 . S
C296 H304 0.930 . S
C297 C296 1.394 . S
C297 C298 1.383 . S
C297 H305 0.929 . S
C298 C297 1.383 . S
C298 C299 1.377 . S
C299 H283 0.930 . S
C299 C298 1.377 . S
C299 C300 1.379 . S
C300 H284 0.931 . S
C300 C294 1.383 . S
C300 C299 1.379 . S
H301 C295 0.959 . S
H302 C295 0.961 . S
H303 C295 0.960 . S
H304 C296 0.930 . S
H305 C297 0.929 . S
H306 C314 0.929 . S
H307 C316 0.930 . S
H308 C318 0.930 . S
H309 C321 0.929 . S
H310 C324 0.930 . S
H311 C326 0.960 . S
H312 C326 0.960 . S
H313 C326 0.960 . S
C314 H306 0.929 . S
C314 C315 1.377 . S
C314 C316 1.384 . S
C315 C314 1.377 . S
C315 C321 1.390 . S
C316 H307 0.930 . S
C316 C314 1.384 . S
C316 C317 1.372 . S
C317 C316 1.372 . S
C317 C318 1.400 . S
C317 C322 1.490 . S
C318 H308 0.930 . S
C318 C317 1.400 . S
C318 C321 1.386 . S
H319 C335 0.930 . S
H320 C336 0.931 . S
C321 H309 0.929 . S
C321 C315 1.390 . S
C321 C318 1.386 . S
C322 C317 1.490 . S
C322 C324 1.395 . S
C322 C325 1.403 . S
H323 C329 0.930 . S
C324 H310 0.930 . S
C324 C322 1.395 . S
C324 C327 1.403 . S
C325 C322 1.403 . S
C325 C326 1.524 . S
C325 C329 1.400 . S
C326 H311 0.960 . S
C326 H312 0.960 . S
C326 H313 0.960 . S
C326 C325 1.524 . S
C327 C324 1.403 . S
C327 C328 1.392 . S
C327 C331 1.495 . S
C328 C327 1.392 . S
C328 C329 1.385 . S
C328 C330 1.478 . S
C329 H323 0.930 . S
C329 C325 1.400 . S
C329 C328 1.385 . S
C330 C328 1.478 . S
C330 C332 1.381 . S
C330 C336 1.383 . S
C331 C327 1.495 . S
C331 H337 0.959 . S
C331 H338 0.961 . S
C331 H339 0.960 . S
C332 C330 1.381 . S
C332 C333 1.394 . S
C332 H340 0.930 . S
C333 C332 1.394 . S
C333 C334 1.383 . S
C333 H341 0.929 . S
C334 C333 1.383 . S
C334 C335 1.377 . S
C335 H319 0.930 . S
C335 C334 1.377 . S
C335 C336 1.379 . S
C336 H320 0.931 . S
C336 C330 1.383 . S
C336 C335 1.379 . S
H337 C331 0.959 . S
H338 C331 0.961 . S
H339 C331 0.960 . S
H340 C332 0.930 . S
H341 C333 0.929 . S
H342 C350 0.929 . S
H343 C352 0.930 . S
H344 C354 0.930 . S
H345 C357 0.929 . S
H346 C360 0.930 . S
H347 C362 0.960 . S
H348 C362 0.960 . S
H349 C362 0.960 . S
C350 H342 0.929 . S
C350 C351 1.377 . S
C350 C352 1.384 . S
C351 C350 1.377 . S
C351 C357 1.390 . S
C352 H343 0.930 . S
C352 C350 1.384 . S
C352 C353 1.372 . S
C353 C352 1.372 . S
C353 C354 1.400 . S
C353 C358 1.490 . S
C354 H344 0.930 . S
C354 C353 1.400 . S
C354 C357 1.386 . S
H355 C371 0.930 . S
H356 C372 0.931 . S
C357 H345 0.929 . S
C357 C351 1.390 . S
C357 C354 1.386 . S
C358 C353 1.490 . S
C358 C360 1.395 . S
C358 C361 1.403 . S
H359 C365 0.930 . S
C360 H346 0.930 . S
C360 C358 1.395 . S
C360 C363 1.403 . S
C361 C358 1.403 . S
C361 C362 1.524 . S
C361 C365 1.400 . S
C362 H347 0.960 . S
C362 H348 0.960 . S
C362 H349 0.960 . S
C362 C361 1.524 . S
C363 C360 1.403 . S
C363 C364 1.392 . S
C363 C367 1.495 . S
C364 C363 1.392 . S
C364 C365 1.385 . S
C364 C366 1.478 . S
C365 H359 0.930 . S
C365 C361 1.400 . S
C365 C364 1.385 . S
C366 C364 1.478 . S
C366 C368 1.381 . S
C366 C372 1.383 . S
C367 C363 1.495 . S
C367 H373 0.959 . S
C367 H374 0.961 . S
C367 H375 0.960 . S
C368 C366 1.381 . S
C368 C369 1.394 . S
C368 H376 0.930 . S
C369 C368 1.394 . S
C369 C370 1.383 . S
C369 H377 0.929 . S
C370 C369 1.383 . S
C370 C371 1.377 . S
C371 H355 0.930 . S
C371 C370 1.377 . S
C371 C372 1.379 . S
C372 H356 0.931 . S
C372 C366 1.383 . S
C372 C371 1.379 . S
H373 C367 0.959 . S
H374 C367 0.961 . S
H375 C367 0.960 . S
H376 C368 0.930 . S
H377 C369 0.929 . S
H378 C386 0.929 . S
H379 C388 0.930 . S
H380 C390 0.930 . S
H381 C393 0.929 . S
H382 C396 0.930 . S
H383 C398 0.960 . S
H384 C398 0.960 . S
H385 C398 0.960 . S
C386 H378 0.929 . S
C386 C387 1.377 . S
C386 C388 1.384 . S
C387 C386 1.377 . S
C387 C393 1.390 . S
C388 H379 0.930 . S
C388 C386 1.384 . S
C388 C389 1.372 . S
C389 C388 1.372 . S
C389 C390 1.400 . S
C389 C394 1.490 . S
C390 H380 0.930 . S
C390 C389 1.400 . S
C390 C393 1.386 . S
H391 C407 0.930 . S
H392 C408 0.931 . S
C393 H381 0.929 . S
C393 C387 1.390 . S
C393 C390 1.386 . S
C394 C389 1.490 . S
C394 C396 1.395 . S
C394 C397 1.403 . S
H395 C401 0.930 . S
C396 H382 0.930 . S
C396 C394 1.395 . S
C396 C399 1.403 . S
C397 C394 1.403 . S
C397 C398 1.524 . S
C397 C401 1.400 . S
C398 H383 0.960 . S
C398 H384 0.960 . S
C398 H385 0.960 . S
C398 C397 1.524 . S
C399 C396 1.403 . S
C399 C400 1.392 . S
C399 C403 1.495 . S
C400 C399 1.392 . S
C400 C401 1.385 . S
C400 C402 1.478 . S
C401 H395 0.930 . S
C401 C397 1.400 . S
C401 C400 1.385 . S
C402 C400 1.478 . S
C402 C404 1.381 . S
C402 C408 1.383 . S
C403 C399 1.495 . S
C403 H409 0.959 . S
C403 H410 0.961 . S
C403 H411 0.960 . S
C404 C402 1.381 . S
C404 C405 1.394 . S
C404 H412 0.930 . S
C405 C404 1.394 . S
C405 C406 1.383 . S
C405 H413 0.929 . S
C406 C405 1.383 . S
C406 C407 1.377 . S
C407 H391 0.930 . S
C407 C406 1.377 . S
C407 C408 1.379 . S
C408 H392 0.931 . S
C408 C402 1.383 . S
C408 C407 1.379 . S
H409 C403 0.959 . S
H410 C403 0.961 . S
H411 C403 0.960 . S
H412 C404 0.930 . S
H413 C405 0.929 . S
H414 C422 0.929 . S
H415 C424 0.930 . S
H416 C426 0.930 . S
H417 C429 0.929 . S
H418 C432 0.930 . S
H419 C434 0.960 . S
H420 C434 0.960 . S
H421 C434 0.960 . S
C422 H414 0.929 . S
C422 C423 1.377 . S
C422 C424 1.384 . S
C423 C422 1.377 . S
C423 C429 1.390 . S
C424 H415 0.930 . S
C424 C422 1.384 . S
C424 C425 1.372 . S
C425 C424 1.372 . S
C425 C426 1.400 . S
C425 C430 1.490 . S
C426 H416 0.930 . S
C426 C425 1.400 . S
C426 C429 1.386 . S
H427 C443 0.930 . S
H428 C444 0.931 . S
C429 H417 0.929 . S
C429 C423 1.390 . S
C429 C426 1.386 . S
C430 C425 1.490 . S
C430 C432 1.395 . S
C430 C433 1.403 . S
H431 C437 0.930 . S
C432 H418 0.930 . S
C432 C430 1.395 . S
C432 C435 1.403 . S
C433 C430 1.403 . S
C433 C434 1.524 . S
C433 C437 1.400 . S
C434 H419 0.960 . S
C434 H420 0.960 . S
C434 H421 0.960 . S
C434 C433 1.524 . S
C435 C432 1.403 . S
C435 C436 1.392 . S
C435 C439 1.495 . S
C436 C435 1.392 . S
C436 C437 1.385 . S
C436 C438 1.478 . S
C437 H431 0.930 . S
C437 C433 1.400 . S
C437 C436 1.385 . S
C438 C436 1.478 . S
C438 C440 1.381 . S
C438 C444 1.383 . S
C439 C435 1.495 . S
C439 H445 0.959 . S
C439 H446 0.961 . S
C439 H447 0.960 . S
C440 C438 1.381 . S
C440 C441 1.394 . S
C440 H448 0.930 . S
C441 C440 1.394 . S
C441 C442 1.383 . S
C441 H449 0.929 . S
C442 C441 1.383 . S
C442 C443 1.377 . S
C443 H427 0.930 . S
C443 C442 1.377 . S
C443 C444 1.379 . S
C444 H428 0.931 . S
C444 C438 1.383 . S
C444 C443 1.379 . S
H445 C439 0.959 . S
H446 C439 0.961 . S
H447 C439 0.960 . S
H448 C440 0.930 . S
H449 C441 0.929 . S
H450 C458 0.929 . S
H451 C460 0.930 . S
H452 C462 0.930 . S
H453 C465 0.929 . S
H454 C468 0.930 . S
H455 C470 0.960 . S
H456 C470 0.960 . S
H457 C470 0.960 . S
C458 H450 0.929 . S
C458 C459 1.377 . S
C458 C460 1.384 . S
C459 C458 1.377 . S
C459 C465 1.390 . S
C460 H451 0.930 . S
C460 C458 1.384 . S
C460 C461 1.372 . S
C461 C460 1.372 . S
C461 C462 1.400 . S
C461 C466 1.490 . S
C462 H452 0.930 . S
C462 C461 1.400 . S
C462 C465 1.386 . S
H463 C479 0.930 . S
H464 C480 0.931 . S
C465 H453 0.929 . S
C465 C459 1.390 . S
C465 C462 1.386 . S
C466 C461 1.490 . S
C466 C468 1.395 . S
C466 C469 1.403 . S
H467 C473 0.930 . S
C468 H454 0.930 . S
C468 C466 1.395 . S
C468 C471 1.403 . S
C469 C466 1.403 . S
C469 C470 1.524 . S
C469 C473 1.400 . S
C470 H455 0.960 . S
C470 H456 0.960 . S
C470 H457 0.960 . S
C470 C469 1.524 . S
C471 C468 1.403 . S
C471 C472 1.392 . S
C471 C475 1.495 . S
C472 C471 1.392 . S
C472 C473 1.385 . S
C472 C474 1.478 . S
C473 H467 0.930 . S
C473 C469 1.400 . S
C473 C472 1.385 . S
C474 C472 1.478 . S
C474 C476 1.381 . S
C474 C480 1.383 . S
C475 C471 1.495 . S
C475 H481 0.959 . S
C475 H482 0.961 . S
C475 H483 0.960 . S
C476 C474 1.381 . S
C476 C477 1.394 . S
C476 H484 0.930 . S
C477 C476 1.394 . S
C477 C478 1.383 . S
C477 H485 0.929 . S
C478 C477 1.383 . S
C478 C479 1.377 . S
C479 H463 0.930 . S
C479 C478 1.377 . S
C479 C480 1.379 . S
C480 H464 0.931 . S
C480 C474 1.383 . S
C480 C479 1.379 . S
H481 C475 0.959 . S
H482 C475 0.961 . S
H483 C475 0.960 . S
H484 C476 0.930 . S
H485 C477 0.929 . S
H486 C494 0.929 . S
H487 C496 0.930 . S
H488 C498 0.930 . S
H489 C501 0.929 . S
H490 C504 0.930 . S
H491 C506 0.960 . S
H492 C506 0.960 . S
H493 C506 0.960 . S
C494 H486 0.929 . S
C494 C495 1.377 . S
C494 C496 1.384 . S
C495 C494 1.377 . S
C495 C501 1.390 . S
C496 H487 0.930 . S
C496 C494 1.384 . S
C496 C497 1.372 . S
C497 C496 1.372 . S
C497 C498 1.400 . S
C497 C502 1.490 . S
C498 H488 0.930 . S
C498 C497 1.400 . S
C498 C501 1.386 . S
H499 C515 0.930 . S
H500 C516 0.931 . S
C501 H489 0.929 . S
C501 C495 1.390 . S
C501 C498 1.386 . S
C502 C497 1.490 . S
C502 C504 1.395 . S
C502 C505 1.403 . S
H503 C509 0.930 . S
C504 H490 0.930 . S
C504 C502 1.395 . S
C504 C507 1.403 . S
C505 C502 1.403 . S
C505 C506 1.524 . S
C505 C509 1.400 . S
C506 H491 0.960 . S
C506 H492 0.960 . S
C506 H493 0.960 . S
C506 C505 1.524 . S
C507 C504 1.403 . S
C507 C508 1.392 . S
C507 C511 1.495 . S
C508 C507 1.392 . S
C508 C509 1.385 . S
C508 C510 1.478 . S
C509 H503 0.930 . S
C509 C505 1.400 . S
C509 C508 1.385 . S
C510 C508 1.478 . S
C510 C512 1.381 . S
C510 C516 1.383 . S
C511 C507 1.495 . S
C511 H517 0.959 . S
C511 H518 0.961 . S
C511 H519 0.960 . S
C512 C510 1.381 . S
C512 C513 1.394 . S
C512 H520 0.930 . S
C513 C512 1.394 . S
C513 C514 1.383 . S
C513 H521 0.929 . S
C514 C513 1.383 . S
C514 C515 1.377 . S
C515 H499 0.930 . S
C515 C514 1.377 . S
C515 C516 1.379 . S
C516 H500 0.931 . S
C516 C510 1.383 . S
C516 C515 1.379 . S
H517 C511 0.959 . S
H518 C511 0.961 . S
H519 C511 0.960 . S
H520 C512 0.930 . S
H521 C513 0.929 . S
H522 C530 0.929 . S
H523 C532 0.930 . S
H524 C534 0.930 . S
H525 C537 0.929 . S
H526 C540 0.930 . S
H527 C542 0.960 . S
H528 C542 0.960 . S
H529 C542 0.960 . S
C530 H522 0.929 . S
C530 C531 1.377 . S
C530 C532 1.384 . S
C531 C530 1.377 . S
C531 C537 1.390 . S
C532 H523 0.930 . S
C532 C530 1.384 . S
C532 C533 1.372 . S
C533 C532 1.372 . S
C533 C534 1.400 . S
C533 C538 1.490 . S
C534 H524 0.930 . S
C534 C533 1.400 . S
C534 C537 1.386 . S
H535 C551 0.930 . S
H536 C552 0.931 . S
C537 H525 0.929 . S
C537 C531 1.390 . S
C537 C534 1.386 . S
C538 C533 1.490 . S
C538 C540 1.395 . S
C538 C541 1.403 . S
H539 C545 0.930 . S
C540 H526 0.930 . S
C540 C538 1.395 . S
C540 C543 1.403 . S
C541 C538 1.403 . S
C541 C542 1.524 . S
C541 C545 1.400 . S
C542 H527 0.960 . S
C542 H528 0.960 . S
C542 H529 0.960 . S
C542 C541 1.524 . S
C543 C540 1.403 . S
C543 C544 1.392 . S
C543 C547 1.495 . S
C544 C543 1.392 . S
C544 C545 1.385 . S
C544 C546 1.478 . S
C545 H539 0.930 . S
C545 C541 1.400 . S
C545 C544 1.385 . S
C546 C544 1.478 . S
C546 C548 1.381 . S
C546 C552 1.383 . S
C547 C543 1.495 . S
C547 H553 0.959 . S
C547 H554 0.961 . S
C547 H555 0.960 . S
C548 C546 1.381 . S
C548 C549 1.394 . S
C548 H556 0.930 . S
C549 C548 1.394 . S
C549 C550 1.383 . S
C549 H557 0.929 . S
C550 C549 1.383 . S
C550 C551 1.377 . S
C551 H535 0.930 . S
C551 C550 1.377 . S
C551 C552 1.379 . S
C552 H536 0.931 . S
C552 C546 1.383 . S
C552 C551 1.379 . S
H553 C547 0.959 . S
H554 C547 0.961 . S
H555 C547 0.960 . S
H556 C548 0.930 . S
H557 C549 0.929 . S
H558 C566 0.929 . S
H559 C568 0.930 . S
H560 C570 0.930 . S
H561 C573 0.929 . S
H562 C576 0.930 . S
H563 C578 0.960 . S
H564 C578 0.960 . S
H565 C578 0.960 . S
C566 H558 0.929 . S
C566 C567 1.377 . S
C566 C568 1.384 . S
C567 C566 1.377 . S
C567 C573 1.390 . S
C568 H559 0.930 . S
C568 C566 1.384 . S
C568 C569 1.372 . S
C569 C568 1.372 . S
C569 C570 1.400 . S
C569 C574 1.490 . S
C570 H560 0.930 . S
C570 C569 1.400 . S
C570 C573 1.386 . S
H571 C587 0.930 . S
H572 C588 0.931 . S
C573 H561 0.929 . S
C573 C567 1.390 . S
C573 C570 1.386 . S
C574 C569 1.490 . S
C574 C576 1.395 . S
C574 C577 1.403 . S
H575 C581 0.930 1_556 S
C576 H562 0.930 . S
C576 C574 1.395 . S
C576 C579 1.403 . S
C577 C574 1.403 . S
C577 C578 1.524 . S
C577 C581 1.400 . S
C578 H563 0.960 . S
C578 H564 0.960 . S
C578 H565 0.960 . S
C578 C577 1.524 . S
C579 C576 1.403 . S
C579 C580 1.392 1_554 S
C579 C583 1.495 1_554 S
C580 C579 1.392 1_556 S
C580 C581 1.385 1_556 S
C580 C582 1.478 . S
C581 H575 0.930 1_554 S
C581 C577 1.400 . S
C581 C580 1.385 1_554 S
C582 C580 1.478 . S
C582 C584 1.381 . S
C582 C588 1.383 . S
C583 C579 1.495 1_556 S
C583 H589 0.959 1_556 S
C583 H590 0.961 . S
C583 H591 0.960 . S
C584 C582 1.381 . S
C584 C585 1.394 . S
C584 H592 0.930 . S
C585 C584 1.394 . S
C585 C586 1.383 . S
C585 H593 0.929 . S
C586 C585 1.383 . S
C586 C587 1.377 . S
C587 H571 0.930 . S
C587 C586 1.377 . S
C587 C588 1.379 . S
C588 H572 0.931 . S
C588 C582 1.383 . S
C588 C587 1.379 . S
H589 C583 0.959 1_554 S
H590 C583 0.961 . S
H591 C583 0.960 . S
H592 C584 0.930 . S
H593 C585 0.929 . S
H594 C602 0.929 . S
H595 C604 0.930 . S
H596 C606 0.930 . S
H597 C609 0.929 . S
H598 C612 0.930 . S
H599 C614 0.960 . S
H600 C614 0.960 . S
H601 C614 0.960 . S
C602 H594 0.929 . S
C602 C603 1.377 . S
C602 C604 1.384 . S
C603 C602 1.377 . S
C603 C609 1.390 1_545 S
C604 H595 0.930 . S
C604 C602 1.384 . S
C604 C605 1.372 . S
C605 C604 1.372 . S
C605 C606 1.400 1_545 S
C605 C610 1.490 . S
C606 H596 0.930 . S
C606 C605 1.400 1_565 S
C606 C609 1.386 . S
H607 C623 0.930 . S
H608 C624 0.931 . S
C609 H597 0.929 . S
C609 C603 1.390 1_565 S
C609 C606 1.386 . S
C610 C605 1.490 . S
C610 C612 1.395 . S
C610 C613 1.403 1_545 S
H611 C617 0.930 . S
C612 H598 0.930 . S
C612 C610 1.395 . S
C612 C615 1.403 . S
C613 C610 1.403 1_565 S
C613 C614 1.524 . S
C613 C617 1.400 . S
C614 H599 0.960 . S
C614 H600 0.960 . S
C614 H601 0.960 . S
C614 C613 1.524 . S
C615 C612 1.403 . S
C615 C616 1.392 . S
C615 C619 1.495 . S
C616 C615 1.392 . S
C616 C617 1.385 1_545 S
C616 C618 1.478 . S
C617 H611 0.930 . S
C617 C613 1.400 . S
C617 C616 1.385 1_565 S
C618 C616 1.478 . S
C618 C620 1.381 . S
C618 C624 1.383 1_545 S
C619 C615 1.495 . S
C619 H625 0.959 . S
C619 H626 0.961 . S
C619 H627 0.960 . S
C620 C618 1.381 . S
C620 C621 1.394 . S
C620 H628 0.930 . S
C621 C620 1.394 . S
C621 C622 1.383 . S
C621 H629 0.929 . S
C622 C621 1.383 . S
C622 C623 1.377 1_545 S
C623 H607 0.930 . S
C623 C622 1.377 1_565 S
C623 C624 1.379 . S
C624 H608 0.931 . S
C624 C618 1.383 1_565 S
C624 C623 1.379 . S
H625 C619 0.959 . S
H626 C619 0.961 . S
H627 C619 0.960 . S
H628 C620 0.930 . S
H629 C621 0.929 . S
H630 C638 0.929 . S
H631 C640 0.930 . S
H632 C642 0.930 . S
H633 C645 0.929 . S
H634 C648 0.930 . S
H635 C650 0.960 . S
H636 C650 0.960 . S
H637 C650 0.960 . S
C638 H630 0.929 . S
C638 C639 1.377 . S
C638 C640 1.384 . S
C639 C638 1.377 . S
C639 C645 1.390 . S
C640 H631 0.930 . S
C640 C638 1.384 . S
C640 C641 1.372 . S
C641 C640 1.372 . S
C641 C642 1.400 . S
C641 C646 1.490 . S
C642 H632 0.930 . S
C642 C641 1.400 . S
C642 C645 1.386 . S
H643 C659 0.930 . S
H644 C660 0.931 . S
C645 H633 0.929 . S
C645 C639 1.390 . S
C645 C642 1.386 . S
C646 C641 1.490 . S
C646 C648 1.395 . S
C646 C649 1.403 . S
H647 C653 0.930 . S
C648 H634 0.930 . S
C648 C646 1.395 . S
C648 C651 1.403 . S
C649 C646 1.403 . S
C649 C650 1.524 . S
C649 C653 1.400 . S
C650 H635 0.960 . S
C650 H636 0.960 . S
C650 H637 0.960 . S
C650 C649 1.524 . S
C651 C648 1.403 . S
C651 C652 1.392 . S
C651 C655 1.495 . S
C652 C651 1.392 . S
C652 C653 1.385 . S
C652 C654 1.478 . S
C653 H647 0.930 . S
C653 C649 1.400 . S
C653 C652 1.385 . S
C654 C652 1.478 . S
C654 C656 1.381 . S
C654 C660 1.383 . S
C655 C651 1.495 . S
C655 H661 0.959 . S
C655 H662 0.961 . S
C655 H663 0.960 . S
C656 C654 1.381 . S
C656 C657 1.394 . S
C656 H664 0.930 . S
C657 C656 1.394 . S
C657 C658 1.383 . S
C657 H665 0.929 . S
C658 C657 1.383 . S
C658 C659 1.377 . S
C659 H643 0.930 . S
C659 C658 1.377 . S
C659 C660 1.379 . S
C660 H644 0.931 . S
C660 C654 1.383 . S
C660 C659 1.379 . S
H661 C655 0.959 . S
H662 C655 0.961 . S
H663 C655 0.960 . S
H664 C656 0.930 . S
H665 C657 0.929 . S
H666 C674 0.929 . S
H667 C676 0.930 . S
H668 C678 0.930 . S
H669 C681 0.929 1_565 S
H670 C684 0.930 . S
H671 C686 0.960 . S
H672 C686 0.960 . S
H673 C686 0.960 . S
C674 H666 0.929 . S
C674 C675 1.377 . S
C674 C676 1.384 . S
C675 C674 1.377 . S
C675 C681 1.390 . S
C676 H667 0.930 . S
C676 C674 1.384 . S
C676 C677 1.372 . S
C677 C676 1.372 . S
C677 C678 1.400 . S
C677 C682 1.490 . S
C678 H668 0.930 . S
C678 C677 1.400 . S
C678 C681 1.386 . S
H679 C695 0.930 1_565 S
H680 C696 0.931 1_565 S
C681 H669 0.929 1_545 S
C681 C675 1.390 . S
C681 C678 1.386 . S
C682 C677 1.490 . S
C682 C684 1.395 . S
C682 C685 1.403 . S
H683 C689 0.930 . S
C684 H670 0.930 . S
C684 C682 1.395 . S
C684 C687 1.403 . S
C685 C682 1.403 . S
C685 C686 1.524 . S
C685 C689 1.400 . S
C686 H671 0.960 . S
C686 H672 0.960 . S
C686 H673 0.960 . S
C686 C685 1.524 . S
C687 C684 1.403 . S
C687 C688 1.392 . S
C687 C691 1.496 . S
C688 C687 1.392 . S
C688 C689 1.385 . S
C688 C690 1.478 . S
C689 H683 0.930 . S
C689 C685 1.400 . S
C689 C688 1.385 . S
C690 C688 1.478 . S
C690 C692 1.381 . S
C690 C696 1.383 . S
C691 C687 1.496 . S
C691 H697 0.966 1_545 S
C691 H698 0.930 1_545 S
C691 H699 0.985 . S
C692 C690 1.381 . S
C692 C693 1.394 . S
C692 H700 0.930 . S
C693 C692 1.394 . S
C693 C694 1.383 . S
C693 H701 0.929 . S
C694 C693 1.383 . S
C694 C695 1.377 . S
C695 H679 0.930 1_545 S
C695 C694 1.377 . S
C695 C696 1.379 . S
C696 H680 0.931 1_545 S
C696 C690 1.383 . S
C696 C695 1.379 . S
H697 C691 0.966 1_565 S
H698 C691 0.930 1_565 S
H699 C691 0.985 . S
H700 C692 0.930 . S
H701 C693 0.929 . S
H702 C710 0.929 . S
H703 C712 0.930 . S
H704 C714 0.930 . S
H705 C717 0.929 . S
H706 C720 0.930 . S
H707 C722 0.960 . S
H708 C722 0.960 . S
H709 C722 0.960 . S
C710 H702 0.929 . S
C710 C711 1.377 . S
C710 C712 1.384 . S
C711 C710 1.377 . S
C711 C717 1.390 . S
C712 H703 0.930 . S
C712 C710 1.384 . S
C712 C713 1.372 . S
C713 C712 1.372 . S
C713 C714 1.400 . S
C713 C718 1.490 . S
C714 H704 0.930 . S
C714 C713 1.400 . S
C714 C717 1.386 . S
H715 C731 0.930 . S
H716 C732 0.931 . S
C717 H705 0.929 . S
C717 C711 1.390 . S
C717 C714 1.386 . S
C718 C713 1.490 . S
C718 C720 1.395 . S
C718 C721 1.403 . S
H719 C725 0.930 1_554 S
C720 H706 0.930 . S
C720 C718 1.395 . S
C720 C723 1.403 1_556 S
C721 C718 1.403 . S
C721 C722 1.524 . S
C721 C725 1.400 . S
C722 H707 0.960 . S
C722 H708 0.960 . S
C722 H709 0.960 . S
C722 C721 1.524 . S
C723 C720 1.403 1_554 S
C723 C724 1.392 . S
C723 C727 1.495 . S
C724 C723 1.392 . S
C724 C725 1.385 1_554 S
C724 C726 1.478 . S
C725 H719 0.930 1_556 S
C725 C721 1.400 . S
C725 C724 1.385 1_556 S
C726 C724 1.478 . S
C726 C728 1.381 . S
C726 C732 1.383 . S
C727 C723 1.495 . S
C727 H733 0.959 . S
C727 H734 0.961 . S
C727 H735 0.960 . S
C728 C726 1.381 . S
C728 C729 1.394 . S
C728 H736 0.930 . S
C729 C728 1.394 . S
C729 C730 1.383 . S
C729 H737 0.929 . S
C730 C729 1.383 . S
C730 C731 1.377 . S
C731 H715 0.930 . S
C731 C730 1.377 . S
C731 C732 1.379 . S
C732 H716 0.931 . S
C732 C726 1.383 . S
C732 C731 1.379 . S
H733 C727 0.959 . S
H734 C727 0.961 . S
H735 C727 0.960 . S
H736 C728 0.930 . S
H737 C729 0.929 . S
H738 C746 0.929 . S
H739 C748 0.930 . S
H740 C750 0.930 1_655 S
H741 C753 0.929 1_655 S
H742 C756 0.930 . S
H743 C758 0.960 . S
H744 C758 0.960 . S
H745 C758 0.960 . S
C746 H738 0.929 . S
C746 C747 1.377 . S
C746 C748 1.384 . S
C747 C746 1.377 . S
C747 C753 1.390 . S
C748 H739 0.930 . S
C748 C746 1.384 . S
C748 C749 1.372 . S
C749 C748 1.372 . S
C749 C750 1.400 . S
C749 C754 1.490 . S
C750 H740 0.930 1_455 S
C750 C749 1.400 . S
C750 C753 1.386 . S
H751 C767 0.930 . S
H752 C768 0.931 . S
C753 H741 0.929 1_455 S
C753 C747 1.390 . S
C753 C750 1.386 . S
C754 C749 1.490 . S
C754 C756 1.395 . S
C754 C757 1.403 . S
H755 C761 0.930 1_655 S
C756 H742 0.930 . S
C756 C754 1.395 . S
C756 C759 1.403 . S
C757 C754 1.403 . S
C757 C758 1.524 1_455 S
C757 C761 1.400 . S
C758 H743 0.960 . S
C758 H744 0.960 . S
C758 H745 0.960 . S
C758 C757 1.524 1_655 S
C759 C756 1.403 . S
C759 C760 1.392 . S
C759 C763 1.495 . S
C760 C759 1.392 . S
C760 C761 1.385 . S
C760 C762 1.478 . S
C761 H755 0.930 1_455 S
C761 C757 1.400 . S
C761 C760 1.385 . S
C762 C760 1.478 . S
C762 C764 1.381 . S
C762 C768 1.383 1_455 S
C763 C759 1.495 . S
C763 H769 0.959 . S
C763 H770 0.961 . S
C763 H771 0.960 . S
C764 C762 1.381 . S
C764 C765 1.394 . S
C764 H772 0.930 . S
C765 C764 1.394 . S
C765 C766 1.383 . S
C765 H773 0.929 . S
C766 C765 1.383 . S
C766 C767 1.377 1_455 S
C767 H751 0.930 . S
C767 C766 1.377 1_655 S
C767 C768 1.379 . S
C768 H752 0.931 . S
C768 C762 1.383 1_655 S
C768 C767 1.379 . S
H769 C763 0.959 . S
H770 C763 0.961 . S
H771 C763 0.960 . S
H772 C764 0.930 . S
H773 C765 0.929 . S
C135 C2 1.127 . S
C154 C125 1.093 . S
C171 C21 1.027 . S
C190 C103 1.041 . S
C207 C42 1.098 . S
C226 C114 1.056 . S
C243 C1 0.873 . S
C262 C119 0.884 . S
C298 C97 0.955 . S
C279 C22 0.964 . S
C334 C108 0.844 . S
C315 C41 0.874 . S
C351 C38 1.895 . S
C370 C81 1.874 . S
C387 C59 1.831 . S
C406 C86 1.810 1_655 S
C423 C18 1.731 . S
C442 C64 1.700 . S
C478 C75 1.788 . S
C459 C39 1.827 . S
C514 C92 1.860 . S
C495 C58 1.873 . S
C531 C19 1.993 . S
C550 C70 1.933 . S
C586 C87 1.563 . S
C567 C9 1.537 . S
C603 C29 1.543 . S
C622 C65 1.629 . S
C639 C49 1.553 . S
C658 C76 1.579 . S
C694 C109 1.503 . S
C675 C28 1.490 . S
C730 C120 1.465 . S
C711 C48 1.448 . S
C747 C8 1.397 . S
C766 C98 1.432 . S
