# Generated by pormake.
# Topology rtl, (3,6)-cn, num edge types: 1
# Building blocks:
#     Node 0, Type 0, BuildingBlock: BELTOD_clean_linker_0, # of connection points: 3
#     Node 1, Type 0, BuildingBlock: BELTOD_clean_linker_0, # of connection points: 3
#     Node 2, Type 0, BuildingBlock: BELTOD_clean_linker_0, # of connection points: 3
#     Node 3, Type 0, BuildingBlock: BELTOD_clean_linker_0, # of connection points: 3
#     Node 4, Type 1, BuildingBlock: VOLQOD_clean_sbu_1, # of connection points: 6
#     Node 5, Type 1, BuildingBlock: VOLQOD_clean_sbu_1, # of connection points: 6
#     Edge 6, Type (0, 1), BuildingBlock: OJICUG_clean_linker_0, # of connection points: 2
#     Edge 7, Type (0, 1), BuildingBlock: OJICUG_clean_linker_0, # of connection points: 2
#     Edge 8, Type (0, 1), BuildingBlock: OJICUG_clean_linker_0, # of connection points: 2
#     Edge 9, Type (0, 1), BuildingBlock: OJICUG_clean_linker_0, # of connection points: 2
#     Edge 10, Type (0, 1), BuildingBlock: OJICUG_clean_linker_0, # of connection points: 2
#     Edge 11, Type (0, 1), BuildingBlock: OJICUG_clean_linker_0, # of connection points: 2
#     Edge 12, Type (0, 1), BuildingBlock: OJICUG_clean_linker_0, # of connection points: 2
#     Edge 13, Type (0, 1), BuildingBlock: OJICUG_clean_linker_0, # of connection points: 2
#     Edge 14, Type (0, 1), BuildingBlock: OJICUG_clean_linker_0, # of connection points: 2
#     Edge 15, Type (0, 1), BuildingBlock: OJICUG_clean_linker_0, # of connection points: 2
#     Edge 16, Type (0, 1), BuildingBlock: OJICUG_clean_linker_0, # of connection points: 2
#     Edge 17, Type (0, 1), BuildingBlock: OJICUG_clean_linker_0, # of connection points: 2
# Relax obj value: 0.074
# Max RMSD: 0.154
# Mean RMSD: 0.084
data_MOF--net-rtl--node1-VOLQOD_clean_sbu_1--node2-BELTOD_clean_linker_0--edge1-OJICUG_clean_linker_0
_symmetry_space_group_name_H-M    P1
_symmetry_Int_Tables_number       1
_symmetry_cell_setting            triclinic
loop_
_symmetry_equiv_pos_as_xyz
'x, y, z'
_cell_length_a     32.282892
_cell_length_b     27.917295
_cell_length_c     20.801436
_cell_angle_alpha  88.848102
_cell_angle_beta   89.901573
_cell_angle_gamma 90.194184
loop_
_atom_site_label
_atom_site_type_symbol
_atom_site_fract_x
_atom_site_fract_y
_atom_site_fract_z
_atom_type_partial_charge
P0 P 0.1566 0.77693 0.97479 0.0
H1 H 0.17438 0.86491 0.04246 0.0
H2 H 0.1463 0.89998 0.13804 0.0
H3 H 0.07297 0.77222 0.17443 0.0
H4 H 0.09937 0.73851 0.07468 0.0
H5 H 0.21637 0.73638 0.88796 0.0
H6 H 0.26262 0.66846 0.89568 0.0
H7 H 0.20893 0.62814 0.07945 0.0
H8 H 0.16254 0.69687 0.0716 0.0
H9 H 0.06779 0.80212 0.98318 0.0
H10 H 0.1529 0.75188 0.83938 0.0
O11 O 0.18959 0.81774 0.94458 0.0
H12 H 0.01891 0.82438 0.89958 0.0
H13 H 0.1048 0.77603 0.75546 0.0
C14 C 0.13974 0.79851 0.05181 0.0
C15 C 0.15271 0.8439 0.07113 0.0
C16 C 0.13671 0.86395 0.12662 0.0
C17 C 0.1076 0.83886 0.16498 0.0
C18 C 0.09514 0.79281 0.14611 0.0
C19 C 0.11081 0.77302 0.08967 0.0
C20 C 0.18552 0.72182 0.97878 0.0
C21 C 0.21349 0.71229 0.92914 0.0
C22 C 0.24006 0.67319 0.9336 0.0
C23 C 0.23943 0.64265 0.98812 0.0
C24 C 0.21033 0.65118 0.03698 0.0
C25 C 0.18351 0.69045 0.03229 0.0
C26 C 0.11452 0.77547 0.91797 0.0
C27 C 0.07564 0.79413 0.93407 0.0
C28 C 0.04759 0.8073 0.8859 0.0
C29 C 0.05835 0.80317 0.82071 0.0
C30 C 0.09535 0.77965 0.80509 0.0
C31 C 0.12315 0.76592 0.8534 0.0
P32 P 0.65965 0.74684 0.49659 0.0
H33 H 0.67742 0.74825 0.35957 0.0
H34 H 0.64047 0.71591 0.26835 0.0
H35 H 0.53706 0.67945 0.39291 0.0
H36 H 0.57231 0.71669 0.48186 0.0
H37 H 0.7006 0.79924 0.59774 0.0
H38 H 0.74594 0.86947 0.59145 0.0
H39 H 0.70669 0.89664 0.39604 0.0
H40 H 0.66011 0.82779 0.40321 0.0
H41 H 0.64611 0.65044 0.54281 0.0
H42 H 0.61414 0.79265 0.60287 0.0
O43 O 0.70255 0.71431 0.48857 0.0
H44 H 0.60563 0.6159 0.63137 0.0
H45 H 0.57413 0.75786 0.69354 0.0
C46 C 0.628 0.73441 0.42773 0.0
C47 C 0.64614 0.73496 0.36663 0.0
C48 C 0.62516 0.71555 0.3147 0.0
C49 C 0.58628 0.69325 0.3235 0.0
C50 C 0.5669 0.69606 0.38394 0.0
C51 C 0.58741 0.71701 0.4354 0.0
C52 C 0.67709 0.80795 0.50092 0.0
C53 C 0.70001 0.82173 0.55472 0.0
C54 C 0.72601 0.86183 0.55105 0.0
C55 C 0.72999 0.888 0.49302 0.0
C56 C 0.70416 0.87683 0.44121 0.0
C57 C 0.67763 0.83726 0.44533 0.0
C58 C 0.63384 0.72401 0.56733 0.0
C59 C 0.63092 0.67424 0.57585 0.0
C60 C 0.60739 0.65454 0.62587 0.0
C61 C 0.58661 0.68431 0.66868 0.0
C62 C 0.58997 0.73432 0.6609 0.0
C63 C 0.61301 0.75412 0.60968 0.0
P64 P 0.91507 0.35145 0.98634 0.0
H65 H 0.94535 0.3661 0.85403 0.0
H66 H 0.95386 0.31086 0.76447 0.0
H67 H 0.90154 0.19629 0.88146 0.0
H68 H 0.89237 0.25154 0.96999 0.0
H69 H 0.87078 0.43695 0.94192 0.0
H70 H 0.7975 0.45842 0.94248 0.0
H71 H 0.76857 0.32399 0.03976 0.0
H72 H 0.84158 0.30213 0.03634 0.0
H73 H 0.97741 0.27761 0.00995 0.0
H74 H 0.88953 0.35694 0.12187 0.0
O75 O 0.94523 0.39961 0.97567 0.0
H76 H 0.99261 0.22663 0.10301 0.0
H77 H 0.90565 0.30697 0.2164 0.0
C78 C 0.91936 0.31244 0.91905 0.0
C79 C 0.93557 0.32916 0.86018 0.0
C80 C 0.94016 0.29776 0.80907 0.0
C81 C 0.92877 0.24936 0.81664 0.0
C82 C 0.91105 0.23333 0.87487 0.0
C83 C 0.90588 0.26481 0.92537 0.0
C84 C 0.86164 0.36861 0.99073 0.0
C85 C 0.84865 0.41237 0.96383 0.0
C86 C 0.80673 0.4246 0.96436 0.0
C87 C 0.7771 0.39311 0.99167 0.0
C88 C 0.7904 0.34894 0.01783 0.0
C89 C 0.83224 0.33663 0.01668 0.0
C90 C 0.93099 0.31963 0.05827 0.0
C91 C 0.96155 0.28429 0.05478 0.0
C92 C 0.97054 0.25541 0.10839 0.0
C93 C 0.94981 0.26213 0.16707 0.0
C94 C 0.92131 0.29996 0.1715 0.0
C95 C 0.91219 0.32869 0.11756 0.0
P96 P 0.41361 0.15608 0.5106 0.0
H97 H 0.43157 0.13932 0.64643 0.0
H98 H 0.44332 0.19365 0.73561 0.0
H99 H 0.43491 0.31474 0.60342 0.0
H100 H 0.42171 0.26068 0.5157 0.0
H101 H 0.36945 0.06387 0.51023 0.0
H102 H 0.29564 0.04333 0.51969 0.0
H103 H 0.26634 0.19282 0.54191 0.0
H104 H 0.34002 0.21311 0.53416 0.0
H105 H 0.48927 0.18492 0.44448 0.0
H106 H 0.35779 0.19556 0.41012 0.0
O107 O 0.44337 0.10741 0.51574 0.0
H108 H 0.50244 0.23779 0.35124 0.0
H109 H 0.37076 0.24851 0.3179 0.0
C110 C 0.42674 0.19585 0.57431 0.0
C111 C 0.43278 0.17757 0.63676 0.0
C112 C 0.43951 0.20866 0.68759 0.0
C113 C 0.44004 0.25857 0.67664 0.0
C114 C 0.43416 0.27657 0.61373 0.0
C115 C 0.4272 0.24553 0.56319 0.0
C116 C 0.36007 0.13999 0.52138 0.0
C117 C 0.34721 0.09211 0.51801 0.0
C118 C 0.30519 0.08039 0.52366 0.0
C119 C 0.27561 0.11659 0.5315 0.0
C120 C 0.28868 0.16439 0.53582 0.0
C121 C 0.33066 0.17592 0.53147 0.0
C122 C 0.42264 0.18623 0.43445 0.0
C123 C 0.46331 0.19774 0.41612 0.0
C124 C 0.47078 0.22801 0.36299 0.0
C125 C 0.43756 0.24762 0.3278 0.0
C126 C 0.3969 0.23448 0.3448 0.0
C127 C 0.38951 0.20395 0.39757 0.0
O128 O 0.89253 0.02921 0.48889 0.0
Zn129 Zn 0.9452 0.06873 0.49144 0.0
O130 O 0.99396 0.02686 0.49487 0.0
Zn131 Zn 0.02192 0.03404 0.5768 0.0
Zn132 Zn 0.97768 0.9596 0.48422 0.0
Zn133 Zn 0.03248 0.04575 0.42734 0.0
O134 O 0.08256 0.05086 0.56648 0.0
O135 O 0.08622 0.06918 0.46238 0.0
O136 O 0.94268 0.1112 0.56891 0.0
O137 O 0.99562 0.08554 0.62814 0.0
O138 O 0.01781 0.97381 0.62883 0.0
O139 O 0.99128 0.9193 0.5642 0.0
O140 O 0.00646 0.92984 0.40813 0.0
O141 O 0.94722 0.11272 0.41288 0.0
O142 O 0.04664 0.98969 0.37296 0.0
O143 O 0.00921 0.09809 0.37133 0.0
C144 C 0.88628 0.98503 0.47784 0.0
C145 C 0.10269 0.06658 0.51776 0.0
C146 C 0.00598 0.93118 0.61846 0.0
C147 C 0.96484 0.11323 0.61939 0.0
C148 C 0.03404 0.94656 0.36989 0.0
C149 C 0.97522 0.12104 0.37078 0.0
O150 O 0.91605 0.95558 0.47175 0.0
O151 O 0.59432 0.48932 -0.00305 0.0
Zn152 Zn 0.54089 0.52497 0.00098 0.0
O153 O 0.49337 0.48227 0.00347 0.0
Zn154 Zn 0.45974 0.49434 0.92684 0.0
Zn155 Zn 0.51349 0.41625 0.00371 0.0
Zn156 Zn 0.46074 0.49425 0.08143 0.0
O157 O 0.40306 0.51729 0.95151 0.0
O158 O 0.40386 0.51901 0.05826 0.0
O159 O 0.53948 0.5701 0.92557 0.0
O160 O 0.48558 0.54545 0.86894 0.0
O161 O 0.45366 0.43472 0.8749 0.0
O162 O 0.49256 0.38121 0.92683 0.0
O163 O 0.49371 0.38061 0.08266 0.0
O164 O 0.54393 0.5634 0.07946 0.0
O165 O 0.45473 0.4329 0.13443 0.0
O166 O 0.48824 0.54423 0.13736 0.0
C167 C 0.60374 0.44516 -0.00187 0.0
C168 C 0.38534 0.52587 0.00481 0.0
C169 C 0.46892 0.39282 0.88019 0.0
C170 C 0.5165 0.5733 0.87616 0.0
C171 C 0.47024 0.39115 0.12953 0.0
C172 C 0.52166 0.56805 0.12927 0.0
O173 O 0.57589 0.4128 0.00126 0.0
C174 C 0.21406 0.07117 0.57411 0.0
C175 C 0.231 0.10507 0.53071 0.0
H176 H 0.15947 0.03311 0.60507 0.0
C177 C 0.20531 0.12741 0.48492 0.0
H178 H 0.23344 0.05364 0.60988 0.0
C179 C 0.16349 0.11519 0.48139 0.0
C180 C 0.14639 0.08112 0.52448 0.0
H181 H 0.21785 0.15348 0.45078 0.0
H182 H 0.14452 0.13235 0.44475 0.0
C183 C 0.17187 0.0597 0.57155 0.0
C184 C 0.2929 0.59951 0.05463 0.0
C185 C 0.27189 0.60538 -0.00415 0.0
H186 H 0.34517 0.56944 0.10379 0.0
C187 C 0.28552 0.57959 0.94249 0.0
H188 H 0.28341 0.61909 0.09656 0.0
C189 C 0.32123 0.55164 0.94638 0.0
C190 C 0.34394 0.54853 0.00389 0.0
H191 H 0.2695 0.58254 0.89688 0.0
H192 H 0.33188 0.53397 0.90354 0.0
C193 C 0.3285 0.57123 0.05866 0.0
C194 C 0.7757 0.95655 0.52483 0.0
C195 C 0.76649 0.9193 0.48274 0.0
H196 H 0.821 0.00798 0.55481 0.0
C197 C 0.79535 0.90734 0.43515 0.0
H198 H 0.75397 0.96601 0.5622 0.0
C199 C 0.83378 0.93019 0.43206 0.0
C200 C 0.84366 0.96626 0.47546 0.0
H201 H 0.78918 0.87826 0.40275 0.0
H202 H 0.85628 0.91869 0.39692 0.0
C203 C 0.81386 0.98046 0.52052 0.0
C204 C 0.7016 0.37165 0.98292 0.0
C205 C 0.73256 0.4063 -0.00702 0.0
H206 H 0.63667 0.35662 0.97677 0.0
C207 C 0.72064 0.4537 0.00471 0.0
H208 H 0.70968 0.33495 0.97274 0.0
C209 C 0.67886 0.46622 0.00607 0.0
C210 C 0.64794 0.43156 -0.00368 0.0
H211 H 0.74358 0.48112 0.01381 0.0
H212 H 0.67083 0.50306 0.0155 0.0
C213 C 0.65974 0.3841 0.98488 0.0
C214 C 0.0474 0.85524 0.23925 0.0
C215 C 0.08934 0.86215 0.22236 0.0
H216 H 0.99697 0.87627 0.29999 0.0
C217 C 0.11321 0.8943 0.25827 0.0
H218 H 0.02785 0.83119 0.2125 0.0
C219 C 0.09513 0.9211 0.30658 0.0
C220 C 0.05304 0.91541 0.32174 0.0
H221 H 0.14587 0.89951 0.24844 0.0
H222 H 0.11414 0.94653 0.33206 0.0
C223 C 0.02954 0.88128 0.28903 0.0
C224 C 0.57274 0.67275 0.7859 0.0
C225 C 0.56276 0.66224 0.72217 0.0
H226 H 0.56576 0.65252 0.88509 0.0
C227 C 0.53351 0.62623 0.70986 0.0
H228 H 0.59536 0.70025 0.79639 0.0
C229 C 0.51624 0.59921 0.76042 0.0
C230 C 0.52856 0.60725 0.82402 0.0
H231 H 0.52528 0.61775 0.6609 0.0
H232 H 0.49515 0.57027 0.74934 0.0
C233 C 0.55599 0.64523 0.83645 0.0
C234 C 0.99629 0.20961 0.23441 0.0
C235 C 0.95668 0.22835 0.22215 0.0
H236 H 0.03312 0.16109 0.29046 0.0
C237 C 0.92328 0.21258 0.26077 0.0
H238 H 0.02284 0.22157 0.20646 0.0
C239 C 0.92927 0.17818 0.30964 0.0
C240 C 0.9687 0.15853 0.32054 0.0
H241 H 0.89224 0.22575 0.2521 0.0
H242 H 0.90283 0.16629 0.33792 0.0
C243 C 0.00219 0.17497 0.28276 0.0
C244 C 0.47526 0.28166 0.7791 0.0
C245 C 0.44628 0.29195 0.73046 0.0
H246 H 0.5051 0.3053 0.86457 0.0
C247 C 0.42374 0.3349 0.7329 0.0
H248 H 0.49343 0.24914 0.77829 0.0
C249 C 0.43071 0.36733 0.78193 0.0
C250 C 0.46018 0.35743 0.82996 0.0
H251 H 0.40057 0.34348 0.69692 0.0
H252 H 0.41306 0.40026 0.78196 0.0
C253 C 0.48206 0.31399 0.82841 0.0
C254 C 0.52547 0.6567 0.26493 0.0
C255 C 0.56858 0.66279 0.27231 0.0
H256 H 0.47653 0.62116 0.2143 0.0
C257 C 0.59535 0.63685 0.23265 0.0
H258 H 0.50382 0.67628 0.29418 0.0
C259 C 0.57972 0.60652 0.18638 0.0
C260 C 0.53687 0.6002 0.17934 0.0
H261 H 0.62864 0.63887 0.23808 0.0
H262 H 0.6014 0.58713 0.15684 0.0
C263 C 0.50975 0.62524 0.21923 0.0
C264 C 0.92381 0.22315 0.70229 0.0
C265 C 0.93742 0.2148 0.76558 0.0
H266 H 0.92119 0.19689 0.60616 0.0
C267 C 0.95974 0.173 0.78041 0.0
H268 H 0.90645 0.25516 0.68994 0.0
C269 C 0.96864 0.14019 0.73274 0.0
C270 C 0.95481 0.14813 0.66943 0.0
H271 H 0.97081 0.16601 0.82884 0.0
H272 H 0.98613 0.10839 0.74566 0.0
C273 C 0.93206 0.18977 0.65465 0.0
C274 C 0.42206 0.32621 0.27308 0.0
C275 C 0.44516 0.28362 0.27577 0.0
H276 H 0.41201 0.39373 0.2252 0.0
C277 C 0.4762 0.27641 0.22969 0.0
H278 H 0.39826 0.33295 0.30851 0.0
C279 C 0.48402 0.31111 0.18183 0.0
C280 C 0.46126 0.35403 0.17952 0.0
H281 H 0.49431 0.2438 0.23047 0.0
H282 H 0.50825 0.30447 0.14708 0.0
C283 C 0.43015 0.36115 0.22565 0.0
C284 C 0.03167 0.81539 0.70743 0.0
C285 C 0.03623 0.83182 0.77061 0.0
H286 H 0.01777 0.83402 0.60907 0.0
C287 C 0.02531 0.87933 0.78376 0.0
H288 H 0.03958 0.77888 0.69589 0.0
C289 C 0.01316 0.91059 0.73447 0.0
C290 C 0.0114 0.89521 0.67072 0.0
H291 H 0.02895 0.89361 0.83145 0.0
H292 H 0.00696 0.94756 0.74599 0.0
C293 C 0.01905 0.84682 0.65784 0.0
loop_
_geom_bond_atom_site_label_1
_geom_bond_atom_site_label_2
_geom_bond_distance
_geom_bond_site_symmetry_2
_ccdc_geom_bond_type
P0 O11 1.490 . S
P0 C14 1.812 . S
P0 C20 1.803 . S
P0 C26 1.819 1_554 S
H1 C15 0.941 . S
H2 C16 0.939 . S
H3 C18 0.940 . S
H4 C19 0.940 . S
H5 C21 0.939 . S
H6 C22 0.942 . S
H7 C24 0.940 . S
H8 C25 0.939 . S
H9 C27 0.941 . S
H10 C31 0.939 . S
O11 P0 1.490 . S
H12 C28 0.939 . S
H13 C30 0.940 . S
C14 P0 1.812 . S
C14 C15 1.389 . S
C14 C19 1.391 . S
C15 H1 0.941 . S
C15 C14 1.389 . S
C15 C16 1.397 . S
C16 H2 0.939 . S
C16 C15 1.397 . S
C16 C17 1.378 . S
C17 C16 1.378 . S
C17 C18 1.378 . S
C18 H3 0.940 . S
C18 C17 1.378 . S
C18 C19 1.396 . S
C19 H4 0.940 . S
C19 C14 1.391 . S
C19 C18 1.396 . S
C20 P0 1.803 . S
C20 C21 1.378 1_554 S
C20 C25 1.400 . S
C21 H5 0.939 . S
C21 C20 1.378 1_556 S
C21 C22 1.361 . S
C22 H6 0.942 . S
C22 C21 1.361 . S
C22 C23 1.369 1_556 S
C23 C22 1.369 1_554 S
C23 C24 1.404 . S
C24 H7 0.940 . S
C24 C23 1.404 . S
C24 C25 1.389 . S
C25 H8 0.939 . S
C25 C20 1.400 . S
C25 C24 1.389 . S
C26 P0 1.819 1_556 S
C26 C27 1.391 . S
C26 C31 1.391 . S
C27 H9 0.941 . S
C27 C26 1.391 . S
C27 C28 1.396 . S
C28 H12 0.939 . S
C28 C27 1.396 . S
C28 C29 1.397 . S
C29 C28 1.397 . S
C29 C30 1.385 . S
C30 H13 0.940 . S
C30 C29 1.385 . S
C30 C31 1.388 . S
C31 H10 0.939 . S
C31 C26 1.391 . S
C31 C30 1.388 . S
P32 O43 1.490 . S
P32 C46 1.812 . S
P32 C52 1.803 . S
P32 C58 1.819 . S
H33 C47 0.941 . S
H34 C48 0.939 . S
H35 C50 0.940 . S
H36 C51 0.940 . S
H37 C53 0.939 . S
H38 C54 0.942 . S
H39 C56 0.940 . S
H40 C57 0.939 . S
H41 C59 0.941 . S
H42 C63 0.939 . S
O43 P32 1.490 . S
H44 C60 0.939 . S
H45 C62 0.940 . S
C46 P32 1.812 . S
C46 C47 1.389 . S
C46 C51 1.391 . S
C47 H33 0.941 . S
C47 C46 1.389 . S
C47 C48 1.397 . S
C48 H34 0.939 . S
C48 C47 1.397 . S
C48 C49 1.378 . S
C49 C48 1.378 . S
C49 C50 1.378 . S
C50 H35 0.940 . S
C50 C49 1.378 . S
C50 C51 1.396 . S
C51 H36 0.940 . S
C51 C46 1.391 . S
C51 C50 1.396 . S
C52 P32 1.803 . S
C52 C53 1.378 . S
C52 C57 1.400 . S
C53 H37 0.939 . S
C53 C52 1.378 . S
C53 C54 1.361 . S
C54 H38 0.942 . S
C54 C53 1.361 . S
C54 C55 1.369 . S
C55 C54 1.369 . S
C55 C56 1.404 . S
C56 H39 0.940 . S
C56 C55 1.404 . S
C56 C57 1.389 . S
C57 H40 0.939 . S
C57 C52 1.400 . S
C57 C56 1.389 . S
C58 P32 1.819 . S
C58 C59 1.391 . S
C58 C63 1.391 . S
C59 H41 0.941 . S
C59 C58 1.391 . S
C59 C60 1.396 . S
C60 H44 0.939 . S
C60 C59 1.396 . S
C60 C61 1.397 . S
C61 C60 1.397 . S
C61 C62 1.385 . S
C62 H45 0.940 . S
C62 C61 1.385 . S
C62 C63 1.388 . S
C63 H42 0.939 . S
C63 C58 1.391 . S
C63 C62 1.388 . S
P64 O75 1.490 . S
P64 C78 1.812 . S
P64 C84 1.803 . S
P64 C90 1.819 1_556 S
H65 C79 0.941 . S
H66 C80 0.939 . S
H67 C82 0.940 . S
H68 C83 0.940 . S
H69 C85 0.939 . S
H70 C86 0.942 . S
H71 C88 0.940 . S
H72 C89 0.939 . S
H73 C91 0.941 . S
H74 C95 0.939 . S
O75 P64 1.490 . S
H76 C92 0.939 . S
H77 C94 0.940 . S
C78 P64 1.812 . S
C78 C79 1.389 . S
C78 C83 1.391 . S
C79 H65 0.941 . S
C79 C78 1.389 . S
C79 C80 1.397 . S
C80 H66 0.939 . S
C80 C79 1.397 . S
C80 C81 1.378 . S
C81 C80 1.378 . S
C81 C82 1.378 . S
C82 H67 0.940 . S
C82 C81 1.378 . S
C82 C83 1.396 . S
C83 H68 0.940 . S
C83 C78 1.391 . S
C83 C82 1.396 . S
C84 P64 1.803 . S
C84 C85 1.378 1_556 S
C84 C89 1.400 . S
C85 H69 0.939 . S
C85 C84 1.378 1_554 S
C85 C86 1.361 . S
C86 H70 0.942 . S
C86 C85 1.361 . S
C86 C87 1.369 . S
C87 C86 1.369 . S
C87 C88 1.404 1_554 S
C88 H71 0.940 . S
C88 C87 1.404 1_556 S
C88 C89 1.389 . S
C89 H72 0.939 . S
C89 C84 1.400 . S
C89 C88 1.389 . S
C90 P64 1.819 1_554 S
C90 C91 1.391 . S
C90 C95 1.391 . S
C91 H73 0.941 . S
C91 C90 1.391 . S
C91 C92 1.396 . S
C92 H76 0.939 . S
C92 C91 1.396 . S
C92 C93 1.397 . S
C93 C92 1.397 . S
C93 C94 1.385 . S
C94 H77 0.940 . S
C94 C93 1.385 . S
C94 C95 1.388 . S
C95 H74 0.939 . S
C95 C90 1.391 . S
C95 C94 1.388 . S
P96 O107 1.490 . S
P96 C110 1.812 . S
P96 C116 1.803 . S
P96 C122 1.819 . S
H97 C111 0.941 . S
H98 C112 0.939 . S
H99 C114 0.940 . S
H100 C115 0.940 . S
H101 C117 0.939 . S
H102 C118 0.942 . S
H103 C120 0.940 . S
H104 C121 0.939 . S
H105 C123 0.941 . S
H106 C127 0.939 . S
O107 P96 1.490 . S
H108 C124 0.939 . S
H109 C126 0.940 . S
C110 P96 1.812 . S
C110 C111 1.389 . S
C110 C115 1.391 . S
C111 H97 0.941 . S
C111 C110 1.389 . S
C111 C112 1.397 . S
C112 H98 0.939 . S
C112 C111 1.397 . S
C112 C113 1.378 . S
C113 C112 1.378 . S
C113 C114 1.378 . S
C114 H99 0.940 . S
C114 C113 1.378 . S
C114 C115 1.396 . S
C115 H100 0.940 . S
C115 C110 1.391 . S
C115 C114 1.396 . S
C116 P96 1.803 . S
C116 C117 1.378 . S
C116 C121 1.400 . S
C117 H101 0.939 . S
C117 C116 1.378 . S
C117 C118 1.361 . S
C118 H102 0.942 . S
C118 C117 1.361 . S
C118 C119 1.369 . S
C119 C118 1.369 . S
C119 C120 1.404 . S
C120 H103 0.940 . S
C120 C119 1.404 . S
C120 C121 1.389 . S
C121 H104 0.939 . S
C121 C116 1.400 . S
C121 C120 1.389 . S
C122 P96 1.819 . S
C122 C123 1.391 . S
C122 C127 1.391 . S
C123 H105 0.941 . S
C123 C122 1.391 . S
C123 C124 1.396 . S
C124 H108 0.939 . S
C124 C123 1.396 . S
C124 C125 1.397 . S
C125 C124 1.397 . S
C125 C126 1.385 . S
C126 H109 0.940 . S
C126 C125 1.385 . S
C126 C127 1.388 . S
C127 H106 0.939 . S
C127 C122 1.391 . S
C127 C126 1.388 . S
O128 Zn129 1.953 1_565 S
O128 C144 1.225 . S
Zn129 O128 1.953 1_545 S
Zn129 O130 1.949 1_655 S
Zn129 O136 1.919 . S
Zn129 O141 1.924 . S
O130 Zn129 1.949 1_455 S
O130 Zn131 1.923 . S
O130 Zn132 1.950 1_445 S
O130 Zn133 1.945 . S
Zn131 O130 1.923 . S
Zn131 O134 1.933 . S
Zn131 O137 1.941 . S
Zn131 O138 1.965 1_545 S
Zn132 O130 1.950 1_665 S
Zn132 O139 1.938 1_655 S
Zn132 O140 1.906 1_655 S
Zn132 O150 1.953 . S
Zn133 O130 1.945 . S
Zn133 O135 1.932 . S
Zn133 O142 1.977 1_545 S
Zn133 O143 1.910 1_455 S
O134 Zn131 1.933 . S
O134 C145 1.226 . S
O135 Zn133 1.932 . S
O135 C145 1.307 . S
O136 Zn129 1.919 . S
O136 C147 1.253 . S
O137 Zn131 1.941 . S
O137 C147 1.283 1_455 S
O138 Zn131 1.965 1_565 S
O138 C146 1.303 . S
O139 Zn132 1.938 1_455 S
O139 C146 1.247 . S
O140 Zn132 1.906 1_455 S
O140 C148 1.304 . S
O141 Zn129 1.924 . S
O141 C149 1.311 . S
O142 Zn133 1.977 1_565 S
O142 C148 1.272 . S
O143 Zn133 1.910 1_655 S
O143 C149 1.231 . S
C144 O128 1.225 . S
C144 O150 1.298 . S
C145 O134 1.226 . S
C145 O135 1.307 . S
C146 O138 1.303 . S
C146 O139 1.247 . S
C147 O136 1.253 . S
C147 O137 1.283 1_655 S
C148 O140 1.304 . S
C148 O142 1.272 . S
C149 O141 1.311 . S
C149 O143 1.231 . S
O150 Zn132 1.953 . S
O150 C144 1.298 . S
O151 Zn152 1.953 . S
O151 C167 1.225 1_556 S
Zn152 O151 1.953 . S
Zn152 O153 1.949 1_556 S
Zn152 O159 1.919 . S
Zn152 O164 1.924 1_556 S
O153 Zn152 1.949 1_554 S
O153 Zn154 1.923 1_554 S
O153 Zn155 1.950 . S
O153 Zn156 1.945 . S
Zn154 O153 1.923 1_556 S
Zn154 O157 1.933 . S
Zn154 O160 1.941 . S
Zn154 O161 1.965 . S
Zn155 O153 1.950 . S
Zn155 O162 1.938 1_554 S
Zn155 O163 1.906 . S
Zn155 O173 1.953 . S
Zn156 O153 1.945 . S
Zn156 O158 1.932 . S
Zn156 O165 1.977 . S
Zn156 O166 1.910 . S
O157 Zn154 1.933 . S
O157 C168 1.226 1_556 S
O158 Zn156 1.932 . S
O158 C168 1.307 . S
O159 Zn152 1.919 . S
O159 C170 1.253 . S
O160 Zn154 1.941 . S
O160 C170 1.283 . S
O161 Zn154 1.965 . S
O161 C169 1.303 . S
O162 Zn155 1.938 1_556 S
O162 C169 1.247 . S
O163 Zn155 1.906 . S
O163 C171 1.304 . S
O164 Zn152 1.924 1_554 S
O164 C172 1.311 . S
O165 Zn156 1.977 . S
O165 C171 1.272 . S
O166 Zn156 1.910 . S
O166 C172 1.231 . S
C167 O151 1.225 1_554 S
C167 O173 1.298 . S
C168 O157 1.226 1_554 S
C168 O158 1.307 . S
C169 O161 1.303 . S
C169 O162 1.247 . S
C170 O159 1.253 . S
C170 O160 1.283 . S
C171 O163 1.304 . S
C171 O165 1.272 . S
C172 O164 1.311 . S
C172 O166 1.231 . S
O173 Zn155 1.953 . S
O173 C167 1.298 . S
C174 C175 1.387 . S
C174 H178 0.950 . S
C174 C183 1.390 . S
C175 C174 1.387 . S
C175 C177 1.387 . S
H176 C183 0.950 . S
C177 C175 1.387 . S
C177 C179 1.390 . S
C177 H181 0.950 . S
H178 C174 0.950 . S
C179 C177 1.390 . S
C179 C180 1.387 . S
C179 H182 0.950 . S
C180 C179 1.387 . S
C180 C183 1.387 . S
H181 C177 0.950 . S
H182 C179 0.950 . S
C183 C174 1.390 . S
C183 H176 0.950 . S
C183 C180 1.387 . S
C184 C185 1.387 . S
C184 H188 0.950 . S
C184 C193 1.390 . S
C185 C184 1.387 . S
C185 C187 1.387 1_554 S
H186 C193 0.950 . S
C187 C185 1.387 1_556 S
C187 C189 1.390 . S
C187 H191 0.950 . S
H188 C184 0.950 . S
C189 C187 1.390 . S
C189 C190 1.387 1_556 S
C189 H192 0.950 . S
C190 C189 1.387 1_554 S
C190 C193 1.387 . S
H191 C187 0.950 . S
H192 C189 0.950 . S
C193 C184 1.390 . S
C193 H186 0.950 . S
C193 C190 1.387 . S
C194 C195 1.387 . S
C194 H198 0.950 . S
C194 C203 1.390 . S
C195 C194 1.387 . S
C195 C197 1.387 . S
H196 C203 0.950 . S
C197 C195 1.387 . S
C197 C199 1.390 . S
C197 H201 0.950 . S
H198 C194 0.950 . S
C199 C197 1.390 . S
C199 C200 1.387 . S
C199 H202 0.950 . S
C200 C199 1.387 . S
C200 C203 1.387 . S
H201 C197 0.950 . S
H202 C199 0.950 . S
C203 C194 1.390 . S
C203 H196 0.950 . S
C203 C200 1.387 . S
C204 C205 1.387 1_556 S
C204 H208 0.950 . S
C204 C213 1.390 . S
C205 C204 1.387 1_554 S
C205 C207 1.387 . S
H206 C213 0.950 . S
C207 C205 1.387 . S
C207 C209 1.390 . S
C207 H211 0.950 . S
H208 C204 0.950 . S
C209 C207 1.390 . S
C209 C210 1.387 . S
C209 H212 0.950 . S
C210 C209 1.387 . S
C210 C213 1.387 1_554 S
H211 C207 0.950 . S
H212 C209 0.950 . S
C213 C204 1.390 . S
C213 H206 0.950 . S
C213 C210 1.387 1_556 S
C214 C215 1.387 . S
C214 H218 0.950 . S
C214 C223 1.390 . S
C215 C214 1.387 . S
C215 C217 1.387 . S
H216 C223 0.950 . S
C217 C215 1.387 . S
C217 C219 1.390 . S
C217 H221 0.950 . S
H218 C214 0.950 . S
C219 C217 1.390 . S
C219 C220 1.387 . S
C219 H222 0.950 . S
C220 C219 1.387 . S
C220 C223 1.387 . S
H221 C217 0.950 . S
H222 C219 0.950 . S
C223 C214 1.390 . S
C223 H216 0.950 . S
C223 C220 1.387 . S
C224 C225 1.387 . S
C224 H228 0.950 . S
C224 C233 1.390 . S
C225 C224 1.387 . S
C225 C227 1.387 . S
H226 C233 0.950 . S
C227 C225 1.387 . S
C227 C229 1.390 . S
C227 H231 0.950 . S
H228 C224 0.950 . S
C229 C227 1.390 . S
C229 C230 1.387 . S
C229 H232 0.950 . S
C230 C229 1.387 . S
C230 C233 1.387 . S
H231 C227 0.950 . S
H232 C229 0.950 . S
C233 C224 1.390 . S
C233 H226 0.950 . S
C233 C230 1.387 . S
C234 C235 1.387 . S
C234 H238 0.950 1_655 S
C234 C243 1.390 . S
C235 C234 1.387 . S
C235 C237 1.387 . S
H236 C243 0.950 1_455 S
C237 C235 1.387 . S
C237 C239 1.390 . S
C237 H241 0.950 . S
H238 C234 0.950 1_455 S
C239 C237 1.390 . S
C239 C240 1.387 . S
C239 H242 0.950 . S
C240 C239 1.387 . S
C240 C243 1.387 . S
H241 C237 0.950 . S
H242 C239 0.950 . S
C243 C234 1.390 . S
C243 H236 0.950 1_655 S
C243 C240 1.387 . S
C244 C245 1.387 . S
C244 H248 0.950 . S
C244 C253 1.390 . S
C245 C244 1.387 . S
C245 C247 1.387 . S
H246 C253 0.950 . S
C247 C245 1.387 . S
C247 C249 1.390 . S
C247 H251 0.950 . S
H248 C244 0.950 . S
C249 C247 1.390 . S
C249 C250 1.387 . S
C249 H252 0.950 . S
C250 C249 1.387 . S
C250 C253 1.387 . S
H251 C247 0.950 . S
H252 C249 0.950 . S
C253 C244 1.390 . S
C253 H246 0.950 . S
C253 C250 1.387 . S
C254 C255 1.387 . S
C254 H258 0.950 . S
C254 C263 1.390 . S
C255 C254 1.387 . S
C255 C257 1.387 . S
H256 C263 0.950 . S
C257 C255 1.387 . S
C257 C259 1.390 . S
C257 H261 0.950 . S
H258 C254 0.950 . S
C259 C257 1.390 . S
C259 C260 1.387 . S
C259 H262 0.950 . S
C260 C259 1.387 . S
C260 C263 1.387 . S
H261 C257 0.950 . S
H262 C259 0.950 . S
C263 C254 1.390 . S
C263 H256 0.950 . S
C263 C260 1.387 . S
C264 C265 1.387 . S
C264 H268 0.950 . S
C264 C273 1.390 . S
C265 C264 1.387 . S
C265 C267 1.387 . S
H266 C273 0.950 . S
C267 C265 1.387 . S
C267 C269 1.390 . S
C267 H271 0.950 . S
H268 C264 0.950 . S
C269 C267 1.390 . S
C269 C270 1.387 . S
C269 H272 0.950 . S
C270 C269 1.387 . S
C270 C273 1.387 . S
H271 C267 0.950 . S
H272 C269 0.950 . S
C273 C264 1.390 . S
C273 H266 0.950 . S
C273 C270 1.387 . S
C274 C275 1.387 . S
C274 H278 0.950 . S
C274 C283 1.390 . S
C275 C274 1.387 . S
C275 C277 1.387 . S
H276 C283 0.950 . S
C277 C275 1.387 . S
C277 C279 1.390 . S
C277 H281 0.950 . S
H278 C274 0.950 . S
C279 C277 1.390 . S
C279 C280 1.387 . S
C279 H282 0.950 . S
C280 C279 1.387 . S
C280 C283 1.387 . S
H281 C277 0.950 . S
H282 C279 0.950 . S
C283 C274 1.390 . S
C283 H276 0.950 . S
C283 C280 1.387 . S
C284 C285 1.387 . S
C284 H288 0.950 . S
C284 C293 1.390 . S
C285 C284 1.387 . S
C285 C287 1.387 . S
H286 C293 0.950 . S
C287 C285 1.387 . S
C287 C289 1.390 . S
C287 H291 0.950 . S
H288 C284 0.950 . S
C289 C287 1.390 . S
C289 C290 1.387 . S
C289 H292 0.950 . S
C290 C289 1.387 . S
C290 C293 1.387 . S
H291 C287 0.950 . S
H292 C289 0.950 . S
C293 C284 1.390 . S
C293 H286 0.950 . S
C293 C290 1.387 . S
C180 C145 1.627 . S
C175 C119 1.647 . S
C185 C23 1.487 . S
C190 C168 1.622 . S
C195 C55 1.502 . S
C200 C144 1.633 . S
C205 C87 1.649 . S
C210 C167 1.636 . S
C220 C148 1.614 . S
C215 C17 1.535 . S
C230 C170 1.602 . S
C225 C61 1.521 . S
C235 C93 1.732 . S
C240 C149 1.605 . S
C245 C113 1.611 . S
C250 C169 1.568 . S
C260 C172 1.606 . S
C255 C49 1.548 . S
C270 C147 1.601 . S
C265 C81 1.629 . S
C280 C171 1.615 . S
C275 C125 1.719 . S
C285 C29 1.508 . S
C290 C146 1.569 . S
