# Generated by pormake.
# Topology wbl, (4,4)-cn, num edge types: 1
# Building blocks:
#     Node 0, Type 0, BuildingBlock: NAWXER_clean_linker_0, # of connection points: 4
#     Node 1, Type 0, BuildingBlock: NAWXER_clean_linker_0, # of connection points: 4
#     Node 2, Type 0, BuildingBlock: NAWXER_clean_linker_0, # of connection points: 4
#     Node 3, Type 0, BuildingBlock: NAWXER_clean_linker_0, # of connection points: 4
#     Node 4, Type 0, BuildingBlock: NAWXER_clean_linker_0, # of connection points: 4
#     Node 5, Type 0, BuildingBlock: NAWXER_clean_linker_0, # of connection points: 4
#     Node 6, Type 0, BuildingBlock: NAWXER_clean_linker_0, # of connection points: 4
#     Node 7, Type 0, BuildingBlock: NAWXER_clean_linker_0, # of connection points: 4
#     Node 8, Type 1, BuildingBlock: QUQFOY_clean_sbu_1, # of connection points: 4
#     Node 9, Type 1, BuildingBlock: QUQFOY_clean_sbu_1, # of connection points: 4
#     Node 10, Type 1, BuildingBlock: QUQFOY_clean_sbu_1, # of connection points: 4
#     Node 11, Type 1, BuildingBlock: QUQFOY_clean_sbu_1, # of connection points: 4
#     Node 12, Type 1, BuildingBlock: QUQFOY_clean_sbu_1, # of connection points: 4
#     Node 13, Type 1, BuildingBlock: QUQFOY_clean_sbu_1, # of connection points: 4
#     Node 14, Type 1, BuildingBlock: QUQFOY_clean_sbu_1, # of connection points: 4
#     Node 15, Type 1, BuildingBlock: QUQFOY_clean_sbu_1, # of connection points: 4
#     Edge 16, Type (0, 1), BuildingBlock: MIFKUJ_clean_linker_0, # of connection points: 2
#     Edge 17, Type (0, 1), BuildingBlock: MIFKUJ_clean_linker_0, # of connection points: 2
#     Edge 18, Type (0, 1), BuildingBlock: MIFKUJ_clean_linker_0, # of connection points: 2
#     Edge 19, Type (0, 1), BuildingBlock: MIFKUJ_clean_linker_0, # of connection points: 2
#     Edge 20, Type (0, 1), BuildingBlock: MIFKUJ_clean_linker_0, # of connection points: 2
#     Edge 21, Type (0, 1), BuildingBlock: MIFKUJ_clean_linker_0, # of connection points: 2
#     Edge 22, Type (0, 1), BuildingBlock: MIFKUJ_clean_linker_0, # of connection points: 2
#     Edge 23, Type (0, 1), BuildingBlock: MIFKUJ_clean_linker_0, # of connection points: 2
#     Edge 24, Type (0, 1), BuildingBlock: MIFKUJ_clean_linker_0, # of connection points: 2
#     Edge 25, Type (0, 1), BuildingBlock: MIFKUJ_clean_linker_0, # of connection points: 2
#     Edge 26, Type (0, 1), BuildingBlock: MIFKUJ_clean_linker_0, # of connection points: 2
#     Edge 27, Type (0, 1), BuildingBlock: MIFKUJ_clean_linker_0, # of connection points: 2
#     Edge 28, Type (0, 1), BuildingBlock: MIFKUJ_clean_linker_0, # of connection points: 2
#     Edge 29, Type (0, 1), BuildingBlock: MIFKUJ_clean_linker_0, # of connection points: 2
#     Edge 30, Type (0, 1), BuildingBlock: MIFKUJ_clean_linker_0, # of connection points: 2
#     Edge 31, Type (0, 1), BuildingBlock: MIFKUJ_clean_linker_0, # of connection points: 2
#     Edge 32, Type (0, 1), BuildingBlock: MIFKUJ_clean_linker_0, # of connection points: 2
#     Edge 33, Type (0, 1), BuildingBlock: MIFKUJ_clean_linker_0, # of connection points: 2
#     Edge 34, Type (0, 1), BuildingBlock: MIFKUJ_clean_linker_0, # of connection points: 2
#     Edge 35, Type (0, 1), BuildingBlock: MIFKUJ_clean_linker_0, # of connection points: 2
#     Edge 36, Type (0, 1), BuildingBlock: MIFKUJ_clean_linker_0, # of connection points: 2
#     Edge 37, Type (0, 1), BuildingBlock: MIFKUJ_clean_linker_0, # of connection points: 2
#     Edge 38, Type (0, 1), BuildingBlock: MIFKUJ_clean_linker_0, # of connection points: 2
#     Edge 39, Type (0, 1), BuildingBlock: MIFKUJ_clean_linker_0, # of connection points: 2
#     Edge 40, Type (0, 1), BuildingBlock: MIFKUJ_clean_linker_0, # of connection points: 2
#     Edge 41, Type (0, 1), BuildingBlock: MIFKUJ_clean_linker_0, # of connection points: 2
#     Edge 42, Type (0, 1), BuildingBlock: MIFKUJ_clean_linker_0, # of connection points: 2
#     Edge 43, Type (0, 1), BuildingBlock: MIFKUJ_clean_linker_0, # of connection points: 2
#     Edge 44, Type (0, 1), BuildingBlock: MIFKUJ_clean_linker_0, # of connection points: 2
#     Edge 45, Type (0, 1), BuildingBlock: MIFKUJ_clean_linker_0, # of connection points: 2
#     Edge 46, Type (0, 1), BuildingBlock: MIFKUJ_clean_linker_0, # of connection points: 2
#     Edge 47, Type (0, 1), BuildingBlock: MIFKUJ_clean_linker_0, # of connection points: 2
# Relax obj value: 0.184
# Max RMSD: 0.221
# Mean RMSD: 0.164
data_MOF--net-wbl--node1-QUQFOY_clean_sbu_1--node2-NAWXER_clean_linker_0--edge1-MIFKUJ_clean_linker_0
_symmetry_space_group_name_H-M    P1
_symmetry_Int_Tables_number       1
_symmetry_cell_setting            triclinic
loop_
_symmetry_equiv_pos_as_xyz
'x, y, z'
_cell_length_a     55.576903
_cell_length_b     55.588709
_cell_length_c     99.159292
_cell_angle_alpha  93.191468
_cell_angle_beta   93.216269
_cell_angle_gamma 90.416938
loop_
_atom_site_label
_atom_site_type_symbol
_atom_site_fract_x
_atom_site_fract_y
_atom_site_fract_z
_atom_type_partial_charge
C0 C 0.2152 0.02851 0.39198 0.0
C1 C 0.23173 0.04164 0.40086 0.0
C2 C 0.20131 0.04011 0.38216 0.0
C3 C 0.20376 0.06506 0.38097 0.0
C4 C 0.23474 0.06646 0.39929 0.0
C5 C 0.22075 0.07807 0.38953 0.0
C6 C 0.18669 0.07809 0.37208 0.0
C7 C 0.23064 0.03403 0.34339 0.0
C8 C 0.21759 0.01601 0.33553 0.0
C9 C 0.21865 0.05151 0.35106 0.0
C10 C 0.19339 0.05127 0.35103 0.0
C11 C 0.1923 0.01575 0.33555 0.0
C12 C 0.18031 0.03338 0.34313 0.0
C13 C 0.18049 0.07051 0.35849 0.0
C14 C 0.11351 0.14799 0.33983 0.0
C15 C 0.09321 0.13434 0.33474 0.0
C16 C 0.13242 0.13715 0.34705 0.0
C17 C 0.13149 0.11244 0.34918 0.0
C18 C 0.09274 0.10943 0.33668 0.0
C19 C 0.11184 0.09857 0.34368 0.0
C20 C 0.15059 0.10098 0.35743 0.0
C21 C 0.10699 0.14519 0.38655 0.0
C22 C 0.12026 0.16208 0.39508 0.0
C23 C 0.11879 0.12813 0.37849 0.0
C24 C 0.1441 0.12803 0.37852 0.0
C25 C 0.14554 0.16205 0.39508 0.0
C26 C 0.15733 0.14519 0.38688 0.0
C27 C 0.15697 0.1088 0.37096 0.0
H28 H 0.21209 0.00947 0.39305 0.0
H29 H 0.18784 0.02977 0.37595 0.0
H30 H 0.24756 0.07706 0.40582 0.0
H31 H 0.22284 0.09735 0.38884 0.0
H32 H 0.25015 0.03457 0.34364 0.0
H33 H 0.22913 0.06546 0.35682 0.0
H34 H 0.18179 0.0022 0.32949 0.0
H35 H 0.16079 0.03302 0.34285 0.0
H36 H 0.11481 0.16707 0.3383 0.0
H37 H 0.14768 0.14806 0.35107 0.0
H38 H 0.07731 0.09835 0.33318 0.0
H39 H 0.11084 0.07945 0.34525 0.0
H40 H 0.08751 0.14446 0.38657 0.0
H41 H 0.10809 0.11449 0.37263 0.0
H42 H 0.15621 0.17489 0.40156 0.0
H43 H 0.17685 0.14531 0.38721 0.0
N44 N 0.17481 0.09705 0.37773 0.0
N45 N 0.16253 0.08213 0.35172 0.0
C46 C 0.95193 0.60734 0.61855 0.0
C47 C 0.95801 0.5962 0.63065 0.0
C48 C 0.96895 0.62148 0.6126 0.0
C49 C 0.99233 0.62464 0.61866 0.0
C50 C 0.98133 0.59968 0.63673 0.0
C51 C 0.99824 0.61377 0.63082 0.0
C52 C 0.01062 0.63998 0.61288 0.0
C53 C 0.99907 0.57724 0.58307 0.0
C54 C 0.98868 0.58285 0.57039 0.0
C55 C 0.00751 0.59543 0.59241 0.0
C56 C 0.00563 0.6197 0.58934 0.0
C57 C 0.98713 0.60718 0.56723 0.0
C58 C 0.99568 0.62546 0.57661 0.0
C59 C 0.01574 0.63875 0.59906 0.0
C60 C 0.1089 0.69338 0.59912 0.0
C61 C 0.10451 0.70901 0.58861 0.0
C62 C 0.09005 0.68014 0.60391 0.0
C63 C 0.06641 0.68245 0.59837 0.0
C64 C 0.08093 0.71069 0.5828 0.0
C65 C 0.06208 0.69739 0.58759 0.0
C66 C 0.04629 0.66897 0.60363 0.0
C67 C 0.07353 0.72264 0.63705 0.0
C68 C 0.08225 0.71166 0.64878 0.0
C69 C 0.06022 0.70923 0.62679 0.0
C70 C 0.05558 0.6846 0.62806 0.0
C71 C 0.07714 0.68712 0.65008 0.0
C72 C 0.06393 0.67379 0.63986 0.0
C73 C 0.0415 0.6698 0.61749 0.0
H74 H 0.9341 0.605 0.61364 0.0
H75 H 0.96374 0.63016 0.60339 0.0
H76 H 0.98646 0.5918 0.6462 0.0
H77 H 0.01606 0.6161 0.63577 0.0
H78 H 0.00124 0.5587 0.5857 0.0
H79 H 0.01597 0.59048 0.60195 0.0
H80 H 0.97921 0.6121 0.55755 0.0
H81 H 0.99443 0.64407 0.57397 0.0
H82 H 0.12682 0.69176 0.60384 0.0
H83 H 0.09389 0.66822 0.61202 0.0
H84 H 0.07707 0.72227 0.57454 0.0
H85 H 0.04403 0.69912 0.58305 0.0
H86 H 0.07715 0.74152 0.63576 0.0
H87 H 0.05347 0.71813 0.61792 0.0
H88 H 0.08309 0.67823 0.65911 0.0
H89 H 0.06036 0.65489 0.64115 0.0
N90 N 0.02385 0.65531 0.62153 0.0
N91 N 0.03317 0.65352 0.59493 0.0
C92 C 0.55455 0.47076 0.86199 0.0
C93 C 0.56641 0.47799 0.87449 0.0
C94 C 0.5406 0.48715 0.85477 0.0
C95 C 0.53844 0.5111 0.85988 0.0
C96 C 0.56416 0.50197 0.87952 0.0
C97 C 0.55034 0.51828 0.87231 0.0
C98 C 0.52247 0.52849 0.85304 0.0
C99 C 0.58036 0.51318 0.82421 0.0
C100 C 0.57238 0.50097 0.81194 0.0
C101 C 0.56388 0.52285 0.83307 0.0
C102 C 0.53903 0.52051 0.82989 0.0
C103 C 0.54743 0.49883 0.80873 0.0
C104 C 0.53091 0.5087 0.81759 0.0
C105 C 0.5217 0.53187 0.83899 0.0
C106 C 0.46655 0.62359 0.83549 0.0
C107 C 0.44822 0.61802 0.82544 0.0
C108 C 0.4811 0.60545 0.84057 0.0
C109 C 0.47755 0.5814 0.83572 0.0
C110 C 0.44527 0.59403 0.82026 0.0
C111 C 0.45998 0.57588 0.8253 0.0
C112 C 0.49184 0.56206 0.84181 0.0
C113 C 0.43974 0.5873 0.8729 0.0
C114 C 0.45139 0.59906 0.8844 0.0
C115 C 0.4531 0.57441 0.86343 0.0
C116 C 0.47828 0.57299 0.86539 0.0
C117 C 0.47658 0.59765 0.88627 0.0
C118 C 0.48986 0.58459 0.87691 0.0
C119 C 0.49274 0.55878 0.85582 0.0
H120 H 0.55594 0.45244 0.85782 0.0
H121 H 0.53109 0.48093 0.84538 0.0
H122 H 0.57257 0.50807 0.88924 0.0
H123 H 0.54877 0.53655 0.87656 0.0
H124 H 0.5994 0.51579 0.82686 0.0
H125 H 0.57058 0.5326 0.8423 0.0
H126 H 0.54065 0.48944 0.79941 0.0
H127 H 0.5118 0.50698 0.81488 0.0
H128 H 0.46916 0.64185 0.83975 0.0
H129 H 0.49488 0.61013 0.84846 0.0
H130 H 0.43147 0.58928 0.8124 0.0
H131 H 0.45715 0.55745 0.82135 0.0
H132 H 0.42033 0.58806 0.87126 0.0
H133 H 0.44377 0.56524 0.85471 0.0
H134 H 0.48598 0.60617 0.89517 0.0
H135 H 0.50924 0.58358 0.87865 0.0
N136 N 0.50802 0.5422 0.86088 0.0
N137 N 0.50626 0.54842 0.83387 0.0
C138 C 0.56104 0.95931 0.08716 0.0
C139 C 0.54232 0.96684 0.07829 0.0
C140 C 0.57772 0.97593 0.09328 0.0
C141 C 0.57585 0.00047 0.09078 0.0
C142 C 0.5408 0.99135 0.07556 0.0
C143 C 0.55756 0.008 0.08168 0.0
C144 C 0.59324 0.01814 0.09745 0.0
C145 C 0.54895 0.9921 0.13047 0.0
C146 C 0.56196 0.98155 0.14116 0.0
C147 C 0.56095 0.00409 0.12075 0.0
C148 C 0.58627 0.00532 0.1213 0.0
C149 C 0.5873 0.9831 0.14177 0.0
C150 C 0.59927 0.99484 0.13197 0.0
C151 C 0.59932 0.01903 0.11149 0.0
C152 C 0.66267 0.10388 0.12437 0.0
C153 C 0.67983 0.09313 0.13305 0.0
C154 C 0.64702 0.08954 0.11568 0.0
C155 C 0.64851 0.06432 0.11552 0.0
C156 C 0.68212 0.06795 0.13221 0.0
C157 C 0.66649 0.05371 0.12362 0.0
C158 C 0.62958 0.04869 0.10858 0.0
C159 C 0.66924 0.08285 0.07608 0.0
C160 C 0.65457 0.09358 0.06608 0.0
C161 C 0.65918 0.06806 0.08529 0.0
C162 C 0.63412 0.06426 0.08502 0.0
C163 C 0.62961 0.0889 0.06552 0.0
C164 C 0.61954 0.07453 0.07489 0.0
C165 C 0.62279 0.04866 0.09462 0.0
H166 H 0.5626 0.94059 0.08956 0.0
H167 H 0.59204 0.96962 0.10002 0.0
H168 H 0.52675 0.99761 0.06863 0.0
H169 H 0.55601 0.02683 0.07949 0.0
H170 H 0.52946 0.99117 0.1296 0.0
H171 H 0.55035 0.01275 0.11294 0.0
H172 H 0.59795 0.97569 0.15 0.0
H173 H 0.61878 0.99587 0.13278 0.0
H174 H 0.66039 0.12324 0.12487 0.0
H175 H 0.633 0.09806 0.10965 0.0
H176 H 0.69542 0.05918 0.13861 0.0
H177 H 0.66789 0.03427 0.12364 0.0
H178 H 0.68851 0.08604 0.07693 0.0
H179 H 0.67113 0.05949 0.09252 0.0
H180 H 0.61774 0.0962 0.05777 0.0
H181 H 0.60021 0.07152 0.07423 0.0
N182 N 0.60492 0.03322 0.08962 0.0
N183 N 0.61749 0.034 0.11642 0.0
C184 C 0.05508 0.69986 0.93464 0.0
C185 C 0.06658 0.69391 0.92263 0.0
C186 C 0.04074 0.68279 0.94039 0.0
C187 C 0.03772 0.65945 0.93426 0.0
C188 C 0.0634 0.67057 0.91653 0.0
C189 C 0.0491 0.6536 0.92226 0.0
C190 C 0.02176 0.64131 0.9397 0.0
C191 C 0.0828 0.65051 0.97112 0.0
C192 C 0.07632 0.66271 0.98314 0.0
C193 C 0.06514 0.64232 0.96138 0.0
C194 C 0.04068 0.64611 0.9635 0.0
C195 C 0.05184 0.66665 0.98525 0.0
C196 C 0.0341 0.65808 0.97555 0.0
C197 C 0.02214 0.63614 0.95349 0.0
C198 C 0.96694 0.54325 0.95217 0.0
C199 C 0.95121 0.54737 0.96264 0.0
C200 C 0.98033 0.56222 0.94761 0.0
C201 C 0.97807 0.5857 0.95337 0.0
C202 C 0.94955 0.57079 0.96866 0.0
C203 C 0.96301 0.58975 0.96412 0.0
C204 C 0.99182 0.60593 0.94841 0.0
C205 C 0.93782 0.58082 0.91491 0.0
C206 C 0.94849 0.57208 0.9031 0.0
C207 C 0.9516 0.59362 0.9252 0.0
C208 C 0.97633 0.59768 0.92389 0.0
C209 C 0.97312 0.57667 0.90174 0.0
C210 C 0.98685 0.58937 0.912 0.0
C211 C 0.99149 0.61103 0.9346 0.0
H212 H 0.05718 0.71769 0.93957 0.0
H213 H 0.03166 0.68798 0.94947 0.0
H214 H 0.07157 0.66552 0.90714 0.0
H215 H 0.04689 0.63583 0.91725 0.0
H216 H 0.10157 0.64747 0.96922 0.0
H217 H 0.07056 0.63273 0.95225 0.0
H218 H 0.04648 0.67598 0.99446 0.0
H219 H 0.01527 0.66089 0.97741 0.0
H220 H 0.96854 0.52545 0.9473 0.0
H221 H 0.99234 0.55858 0.93953 0.0
H222 H 0.93787 0.57443 0.9769 0.0
H223 H 0.96132 0.60767 0.96883 0.0
H224 H 0.91888 0.5776 0.91625 0.0
H225 H 0.94293 0.60039 0.93414 0.0
H226 H 0.98178 0.57069 0.89264 0.0
H227 H 0.00582 0.59252 0.91069 0.0
N228 N 0.00651 0.62846 0.93081 0.0
N229 N 0.00704 0.61877 0.95735 0.0
C230 C 0.50366 0.54244 0.16889 0.0
C231 C 0.51152 0.55264 0.15721 0.0
C232 C 0.51931 0.52871 0.17682 0.0
C233 C 0.5433 0.52526 0.17338 0.0
C234 C 0.53533 0.54852 0.1536 0.0
C235 C 0.551 0.53501 0.16158 0.0
C236 C 0.56033 0.51093 0.18168 0.0
C237 C 0.54317 0.57471 0.20854 0.0
C238 C 0.53009 0.56951 0.21976 0.0
C239 C 0.55342 0.55625 0.20077 0.0
C240 C 0.55055 0.53215 0.20396 0.0
C241 C 0.52732 0.54537 0.223 0.0
C242 C 0.53768 0.52684 0.21522 0.0
C243 C 0.56223 0.5128 0.19596 0.0
C244 C 0.65026 0.4553 0.21022 0.0
C245 C 0.64204 0.44315 0.2212 0.0
C246 C 0.63425 0.46802 0.20198 0.0
C247 C 0.60956 0.46841 0.20433 0.0
C248 C 0.61739 0.44409 0.2237 0.0
C249 C 0.60137 0.45662 0.21538 0.0
C250 C 0.59236 0.4824 0.19601 0.0
C251 C 0.62372 0.42795 0.16578 0.0
C252 C 0.63545 0.43899 0.15549 0.0
C253 C 0.6097 0.44163 0.17463 0.0
C254 C 0.60729 0.46654 0.1733 0.0
C255 C 0.63311 0.46396 0.15435 0.0
C256 C 0.61916 0.47752 0.16312 0.0
C257 C 0.59129 0.48139 0.18171 0.0
H258 H 0.48549 0.54527 0.17201 0.0
H259 H 0.51259 0.52074 0.1856 0.0
H260 H 0.54187 0.55555 0.1445 0.0
H261 H 0.56928 0.53235 0.15858 0.0
H262 H 0.54545 0.5931 0.20572 0.0
H263 H 0.56381 0.56085 0.19234 0.0
H264 H 0.51754 0.54089 0.23168 0.0
H265 H 0.53559 0.50837 0.21795 0.0
H266 H 0.66907 0.45485 0.20791 0.0
H267 H 0.64126 0.47774 0.19386 0.0
H268 H 0.61048 0.43538 0.23221 0.0
H269 H 0.58248 0.45708 0.21756 0.0
H270 H 0.62516 0.40873 0.1669 0.0
H271 H 0.60034 0.43269 0.18226 0.0
H272 H 0.6414 0.47298 0.14637 0.0
H273 H 0.61739 0.49668 0.16184 0.0
N274 N 0.5752 0.49556 0.17515 0.0
N275 N 0.57782 0.49817 0.20257 0.0
C276 C 0.57464 0.9816 0.43237 0.0
C277 C 0.56352 0.99141 0.42086 0.0
C278 C 0.5895 0.99603 0.44146 0.0
C279 C 0.59322 0.02046 0.43917 0.0
C280 C 0.56627 0.01615 0.41907 0.0
C281 C 0.58108 0.03046 0.42808 0.0
C282 C 0.61203 0.03502 0.44703 0.0
C283 C 0.55424 0.02187 0.47543 0.0
C284 C 0.56169 0.00888 0.48668 0.0
C285 C 0.57116 0.03129 0.46721 0.0
C286 C 0.5959 0.02769 0.46996 0.0
C287 C 0.5865 0.00579 0.48959 0.0
C288 C 0.60344 0.0152 0.48134 0.0
C289 C 0.61397 0.0377 0.46131 0.0
C290 C 0.68431 0.10779 0.48301 0.0
C291 C 0.70805 0.10393 0.47922 0.0
C292 C 0.66537 0.09333 0.47719 0.0
C293 C 0.66986 0.075 0.46739 0.0
C294 C 0.71259 0.0847 0.46993 0.0
C295 C 0.69368 0.07031 0.46412 0.0
C296 C 0.64961 0.06155 0.46014 0.0
C297 C 0.68797 0.07045 0.41776 0.0
C298 C 0.68903 0.0958 0.41796 0.0
C299 C 0.67479 0.05877 0.42708 0.0
C300 C 0.66296 0.0721 0.43706 0.0
C301 C 0.67761 0.1091 0.42825 0.0
C302 C 0.66476 0.09734 0.43774 0.0
C303 C 0.64704 0.05959 0.4459 0.0
H304 H 0.57294 0.96255 0.43395 0.0
H305 H 0.59903 0.98783 0.44983 0.0
H306 H 0.55756 0.0243 0.41043 0.0
H307 H 0.58368 0.04928 0.42614 0.0
H308 H 0.53531 0.02506 0.47309 0.0
H309 H 0.56488 0.04161 0.45878 0.0
H310 H 0.59282 0.99575 0.49813 0.0
H311 H 0.62244 0.01242 0.48373 0.0
H312 H 0.68032 0.12225 0.49029 0.0
H313 H 0.64713 0.09706 0.47994 0.0
H314 H 0.73063 0.08134 0.46672 0.0
H315 H 0.69761 0.05589 0.45679 0.0
H316 H 0.69704 0.05953 0.41026 0.0
H317 H 0.67365 0.03927 0.42642 0.0
H318 H 0.67774 0.1286 0.42868 0.0
H319 H 0.65544 0.10797 0.44527 0.0
N320 N 0.62853 0.04623 0.43992 0.0
N321 N 0.63286 0.05074 0.46736 0.0
C322 C 0.18562 0.10172 0.68864 0.0
C323 C 0.17886 0.08925 0.67626 0.0
C324 C 0.16901 0.11612 0.69539 0.0
C325 C 0.14524 0.11812 0.68994 0.0
C326 C 0.15507 0.09139 0.67085 0.0
C327 C 0.13852 0.10567 0.6776 0.0
C328 C 0.12768 0.13446 0.69635 0.0
C329 C 0.14117 0.07806 0.72654 0.0
C330 C 0.15476 0.08667 0.73821 0.0
C331 C 0.13156 0.09407 0.71738 0.0
C332 C 0.13522 0.11898 0.71977 0.0
C333 C 0.15854 0.11159 0.74057 0.0
C334 C 0.14854 0.12767 0.7315 0.0
C335 C 0.12407 0.13589 0.71038 0.0
C336 C 0.03333 0.19278 0.71286 0.0
C337 C 0.03899 0.21075 0.7231 0.0
C338 C 0.05133 0.17805 0.7078 0.0
C339 C 0.07535 0.18107 0.71282 0.0
C340 C 0.06296 0.21331 0.72837 0.0
C341 C 0.08098 0.19843 0.72334 0.0
C342 C 0.09446 0.16609 0.70702 0.0
C343 C 0.07455 0.21894 0.67532 0.0
C344 C 0.05985 0.20797 0.66472 0.0
C345 C 0.08674 0.20486 0.6847 0.0
C346 C 0.08473 0.17964 0.68342 0.0
C347 C 0.05764 0.18276 0.66355 0.0
C348 C 0.07026 0.16867 0.67274 0.0
C349 C 0.09801 0.16458 0.69305 0.0
H350 H 0.20377 0.10043 0.6931 0.0
H351 H 0.17494 0.12611 0.70468 0.0
H352 H 0.14934 0.0825 0.6612 0.0
H353 H 0.12041 0.10713 0.67308 0.0
H354 H 0.13815 0.0589 0.72447 0.0
H355 H 0.12099 0.08703 0.7085 0.0
H356 H 0.16888 0.11862 0.74954 0.0
H357 H 0.15134 0.14686 0.73356 0.0
H358 H 0.01507 0.19047 0.70853 0.0
H359 H 0.04652 0.16441 0.69986 0.0
H360 H 0.06778 0.22684 0.73637 0.0
H361 H 0.09938 0.20083 0.72744 0.0
H362 H 0.07652 0.23837 0.67635 0.0
H363 H 0.09799 0.21361 0.69284 0.0
H364 H 0.04654 0.17397 0.65536 0.0
H365 H 0.06857 0.14923 0.67159 0.0
N366 N 0.11438 0.14882 0.68822 0.0
N367 N 0.10768 0.15176 0.71522 0.0
O368 O 0.35609 0.72072 0.00933 0.0
Cd369 Cd 0.34626 0.73733 0.02731 0.0
Cd370 Cd 0.38407 0.71177 0.0378 0.0
O371 O 0.38165 0.69543 0.0186 0.0
O372 O 0.31311 0.74924 0.02378 0.0
O373 O 0.32191 0.72027 0.03768 0.0
C374 C 0.30594 0.73358 0.03183 0.0
C375 C 0.39411 0.68768 0.05584 0.0
C376 C 0.37012 0.70286 0.00823 0.0
C377 C 0.38776 0.76627 0.03931 0.0
O378 O 0.3983 0.74621 0.04035 0.0
O379 O 0.36579 0.76691 0.03512 0.0
O380 O 0.40965 0.69342 0.0474 0.0
O381 O 0.37228 0.69506 0.05386 0.0
O382 O 0.44128 0.84588 0.3033 0.0
Cd383 Cd 0.42191 0.83389 0.28586 0.0
Cd384 Cd 0.46185 0.8482 0.27383 0.0
O385 O 0.46996 0.86379 0.29294 0.0
O386 O 0.38762 0.83405 0.29041 0.0
O387 O 0.40278 0.8588 0.27621 0.0
C388 C 0.38468 0.85192 0.28273 0.0
C389 C 0.47115 0.8698 0.25518 0.0
C390 C 0.45993 0.85931 0.30375 0.0
C391 C 0.4489 0.79495 0.27231 0.0
O392 O 0.46444 0.8113 0.27077 0.0
O393 O 0.42906 0.80026 0.27743 0.0
O394 O 0.48762 0.85989 0.26259 0.0
O395 O 0.44912 0.86805 0.25856 0.0
O396 O 0.31317 0.91259 0.5247 0.0
Cd397 Cd 0.3251 0.90001 0.54302 0.0
Cd398 Cd 0.29402 0.93187 0.55278 0.0
O399 O 0.2972 0.94527 0.5339 0.0
O400 O 0.35859 0.8892 0.54079 0.0
O401 O 0.34918 0.92136 0.55364 0.0
C402 C 0.36549 0.90811 0.54821 0.0
C403 C 0.28851 0.95878 0.57133 0.0
C404 C 0.30394 0.93325 0.52351 0.0
C405 C 0.28352 0.87828 0.55431 0.0
O406 O 0.27571 0.89971 0.55435 0.0
O407 O 0.30498 0.87391 0.55124 0.0
O408 O 0.27184 0.95451 0.56195 0.0
O409 O 0.30911 0.94863 0.5699 0.0
O410 O 0.21924 0.81994 0.77294 0.0
Cd411 Cd 0.23862 0.83302 0.79017 0.0
Cd412 Cd 0.21103 0.80027 0.80197 0.0
O413 O 0.19317 0.79811 0.78313 0.0
O414 O 0.2514 0.86494 0.78581 0.0
O415 O 0.22355 0.86035 0.80064 0.0
C416 C 0.23644 0.8745 0.79398 0.0
C417 C 0.18882 0.79674 0.82114 0.0
C418 C 0.20046 0.80666 0.77243 0.0
C419 C 0.26513 0.79251 0.8018 0.0
O420 O 0.24429 0.78433 0.80375 0.0
O421 O 0.26753 0.81319 0.79718 0.0
O422 O 0.1922 0.77865 0.81282 0.0
O423 O 0.19723 0.81747 0.81833 0.0
O424 O 0.93821 0.30847 0.54145 0.0
Cd425 Cd 0.92561 0.31574 0.52216 0.0
Cd426 Cd 0.95744 0.28317 0.51469 0.0
O427 O 0.97065 0.29034 0.53439 0.0
O428 O 0.9123 0.34875 0.5231 0.0
O429 O 0.9449 0.33881 0.51222 0.0
C430 C 0.93013 0.35521 0.51626 0.0
C431 C 0.98529 0.27692 0.4981 0.0
C432 C 0.95865 0.29916 0.54398 0.0
C433 C 0.90471 0.27037 0.51009 0.0
O434 O 0.92618 0.26271 0.5113 0.0
O435 O 0.90036 0.29247 0.51272 0.0
O436 O 0.98261 0.26182 0.50729 0.0
O437 O 0.97239 0.29615 0.49841 0.0
O438 O 0.83638 0.43753 0.77914 0.0
Cd439 Cd 0.82395 0.4186 0.76161 0.0
Cd440 Cd 0.85612 0.4463 0.75021 0.0
O441 O 0.85854 0.46358 0.76917 0.0
O442 O 0.79089 0.40734 0.76475 0.0
O443 O 0.79876 0.43482 0.75018 0.0
C444 C 0.7831 0.42267 0.75627 0.0
C445 C 0.85886 0.46942 0.73136 0.0
C446 C 0.84982 0.4562 0.77979 0.0
C447 C 0.86439 0.3923 0.74997 0.0
O448 O 0.8723 0.41323 0.74801 0.0
O449 O 0.84385 0.38967 0.75473 0.0
O450 O 0.87722 0.46582 0.73946 0.0
O451 O 0.83833 0.46057 0.73419 0.0
O452 O 0.74281 0.34543 0.02731 0.0
Cd453 Cd 0.75407 0.33293 0.00875 0.0
Cd454 Cd 0.72375 0.36678 0.99948 0.0
O455 O 0.71345 0.36788 0.01916 0.0
O456 O 0.76516 0.2995 0.01108 0.0
O457 O 0.7321 0.30842 0.99884 0.0
C458 C 0.74593 0.29234 0.00405 0.0
C459 C 0.69475 0.37168 0.98183 0.0
C460 C 0.72469 0.35879 0.02914 0.0
C461 C 0.77733 0.37316 0.99617 0.0
O462 O 0.7564 0.38218 0.99598 0.0
O463 O 0.78067 0.35201 1.00008 0.0
O464 O 0.70127 0.38915 0.99034 0.0
O465 O 0.70392 0.35076 0.98367 0.0
O466 O 0.81188 0.22071 0.25383 0.0
Cd467 Cd 0.82246 0.23851 0.27207 0.0
Cd468 Cd 0.81001 0.19698 0.28211 0.0
O469 O 0.79357 0.19103 0.26308 0.0
O470 O 0.82168 0.27333 0.26865 0.0
O471 O 0.79617 0.25582 0.28155 0.0
C472 C 0.80303 0.27485 0.27582 0.0
C473 C 0.78912 0.18816 0.30104 0.0
C474 C 0.79833 0.20212 0.25266 0.0
C475 C 0.86225 0.21072 0.28452 0.0
O476 O 0.8469 0.19365 0.28437 0.0
O477 O 0.85578 0.23153 0.28118 0.0
O478 O 0.79703 0.17138 0.293 0.0
O479 O 0.79253 0.21026 0.29814 0.0
H480 H 0.25442 0.02318 0.31907 0.0
H481 H 0.27707 0.99262 0.30654 0.0
H482 H 0.23231 0.93681 0.32086 0.0
H483 H 0.20969 0.96733 0.33354 0.0
H484 H 0.28069 0.92835 0.32497 0.0
H485 H 0.22664 0.94921 0.2884 0.0
H486 H 0.20513 0.97652 0.27322 0.0
H487 H 0.27255 0.00109 0.25957 0.0
H488 H 0.2945 0.97418 0.27482 0.0
H489 H 0.34104 0.83705 0.29055 0.0
H490 H 0.30663 0.86243 0.29559 0.0
H491 H 0.34332 0.92367 0.28101 0.0
H492 H 0.37752 0.89817 0.27554 0.0
H493 H 0.29522 0.92696 0.276 0.0
H494 H 0.34915 0.91143 0.31424 0.0
H495 H 0.37205 0.88581 0.32981 0.0
H496 H 0.30612 0.85343 0.34086 0.0
H497 H 0.28285 0.87864 0.3252 0.0
C498 C 0.24937 0.0044 0.31951 0.0
C499 C 0.23038 0.9976 0.32733 0.0
C500 C 0.26215 0.98699 0.31224 0.0
C501 C 0.25621 0.96248 0.31268 0.0
C502 C 0.23705 0.95565 0.32033 0.0
C503 C 0.22413 0.97308 0.32752 0.0
C504 C 0.27126 0.94395 0.30603 0.0
C505 C 0.28345 0.92769 0.31421 0.0
C506 C 0.27536 0.94362 0.29206 0.0
C507 C 0.26223 0.9598 0.28284 0.0
C508 C 0.2369 0.96058 0.28225 0.0
C509 C 0.22462 0.97596 0.27361 0.0
C510 C 0.23747 0.99057 0.26546 0.0
C511 C 0.26262 0.98978 0.2659 0.0
C512 C 0.27499 0.97444 0.27453 0.0
C513 C 0.34151 0.85578 0.28808 0.0
C514 C 0.3621 0.86573 0.28285 0.0
C515 C 0.32186 0.87028 0.291 0.0
C516 C 0.32271 0.89507 0.28902 0.0
C517 C 0.34236 0.90461 0.2827 0.0
C518 C 0.3619 0.89001 0.27959 0.0
C519 C 0.30466 0.91143 0.29497 0.0
C520 C 0.29209 0.92737 0.28671 0.0
C521 C 0.30036 0.91174 0.30893 0.0
C522 C 0.3143 0.89671 0.31844 0.0
C523 C 0.33956 0.89872 0.31992 0.0
C524 C 0.3526 0.88429 0.32877 0.0
C525 C 0.34055 0.86795 0.3363 0.0
C526 C 0.31543 0.86606 0.33501 0.0
C527 C 0.30231 0.88042 0.32615 0.0
H528 H 0.35068 0.8568 0.34314 0.0
H529 H 0.22793 0.00247 0.25878 0.0
H530 H 0.10308 0.75646 0.58296 0.0
H531 H 0.13576 0.78147 0.57582 0.0
H532 H 0.18357 0.72071 0.57679 0.0
H533 H 0.15083 0.6955 0.58399 0.0
H534 H 0.20523 0.76036 0.58854 0.0
H535 H 0.16169 0.74035 0.54668 0.0
H536 H 0.12599 0.73539 0.53082 0.0
H537 H 0.11299 0.81143 0.53485 0.0
H538 H 0.14842 0.81681 0.55089 0.0
H539 H 0.29361 0.83017 0.55629 0.0
H540 H 0.26553 0.79787 0.56108 0.0
H541 H 0.2084 0.84962 0.56436 0.0
H542 H 0.23606 0.88178 0.55957 0.0
H543 H 0.19448 0.80967 0.54848 0.0
H544 H 0.23582 0.82826 0.59225 0.0
H545 H 0.27155 0.83283 0.60812 0.0
H546 H 0.28911 0.75852 0.59997 0.0
H547 H 0.25362 0.75361 0.58391 0.0
C548 C 0.12045 0.74832 0.58148 0.0
C549 C 0.12432 0.72397 0.58396 0.0
C550 C 0.13913 0.76264 0.57741 0.0
C551 C 0.16203 0.75287 0.57558 0.0
C552 C 0.16604 0.7286 0.57812 0.0
C553 C 0.14734 0.71425 0.58225 0.0
C554 C 0.1818 0.76831 0.57133 0.0
C555 C 0.20309 0.77079 0.57963 0.0
C556 C 0.17891 0.78207 0.55977 0.0
C557 C 0.15764 0.77895 0.55007 0.0
C558 C 0.15113 0.75599 0.54426 0.0
C559 C 0.13095 0.75311 0.53523 0.0
C560 C 0.11721 0.77307 0.53185 0.0
C561 C 0.12365 0.79598 0.53748 0.0
C562 C 0.1438 0.79896 0.54653 0.0
C563 C 0.27508 0.83465 0.55806 0.0
C564 C 0.2671 0.85856 0.55754 0.0
C565 C 0.25909 0.8162 0.56083 0.0
C566 C 0.23491 0.82139 0.56309 0.0
C567 C 0.22697 0.84521 0.56258 0.0
C568 C 0.24287 0.8636 0.55989 0.0
C569 C 0.21755 0.8022 0.56589 0.0
C570 C 0.19674 0.79897 0.55728 0.0
C571 C 0.22095 0.7877 0.57711 0.0
C572 C 0.24226 0.79065 0.58676 0.0
C573 C 0.24743 0.81296 0.59375 0.0
C574 C 0.26761 0.8156 0.6028 0.0
C575 C 0.28264 0.796 0.60502 0.0
C576 C 0.27748 0.7737 0.59822 0.0
C577 C 0.25733 0.77098 0.58915 0.0
H578 H 0.29825 0.79807 0.61203 0.0
H579 H 0.10159 0.7708 0.52485 0.0
H580 H 0.39928 0.6151 0.82192 0.0
H581 H 0.37138 0.64707 0.81609 0.0
H582 H 0.43124 0.69602 0.81314 0.0
H583 H 0.45932 0.66404 0.81916 0.0
H584 H 0.39762 0.71727 0.82708 0.0
H585 H 0.39837 0.67338 0.78461 0.0
H586 H 0.3962 0.63771 0.76864 0.0
H587 H 0.32339 0.624 0.77866 0.0
H588 H 0.32522 0.6594 0.79483 0.0
H589 H 0.31311 0.80353 0.79972 0.0
H590 H 0.34744 0.7763 0.80235 0.0
H591 H 0.29919 0.71922 0.81167 0.0
H592 H 0.26503 0.74604 0.80915 0.0
H593 H 0.3308 0.70535 0.79198 0.0
H594 H 0.33275 0.74731 0.83631 0.0
H595 H 0.33548 0.7834 0.85198 0.0
H596 H 0.40428 0.80151 0.83744 0.0
H597 H 0.4018 0.76567 0.82155 0.0
C598 C 0.40653 0.63254 0.8198 0.0
C599 C 0.43149 0.63703 0.82093 0.0
C600 C 0.39057 0.65083 0.81647 0.0
C601 C 0.39922 0.67389 0.81399 0.0
C602 C 0.42416 0.67837 0.815 0.0
C603 C 0.44016 0.66011 0.81843 0.0
C604 C 0.38205 0.69345 0.81095 0.0
C605 C 0.38331 0.71485 0.81921 0.0
C606 C 0.36324 0.69027 0.80076 0.0
C607 C 0.362 0.66898 0.79101 0.0
C608 C 0.38195 0.66267 0.78348 0.0
C609 C 0.38077 0.64251 0.77438 0.0
C610 C 0.35969 0.62857 0.77266 0.0
C611 C 0.33971 0.63481 0.78001 0.0
C612 C 0.3408 0.65494 0.78913 0.0
C613 C 0.30987 0.78524 0.80243 0.0
C614 C 0.28631 0.77698 0.8042 0.0
C615 C 0.32948 0.76973 0.80393 0.0
C616 C 0.32578 0.74575 0.80717 0.0
C617 C 0.30238 0.73762 0.8091 0.0
C618 C 0.28288 0.75306 0.80771 0.0
C619 C 0.34605 0.72872 0.80834 0.0
C620 C 0.34537 0.70785 0.79969 0.0
C621 C 0.36547 0.73249 0.81807 0.0
C622 C 0.36695 0.75399 0.82763 0.0
C623 C 0.34836 0.75911 0.83637 0.0
C624 C 0.34988 0.77949 0.84531 0.0
C625 C 0.37 0.79478 0.84567 0.0
C626 C 0.38868 0.78968 0.83712 0.0
C627 C 0.38723 0.76934 0.82815 0.0
H628 H 0.37115 0.81055 0.8526 0.0
H629 H 0.35881 0.61297 0.76561 0.0
H630 H 0.55066 0.92172 0.06739 0.0
H631 H 0.52093 0.89127 0.0589 0.0
H632 H 0.46363 0.94136 0.06645 0.0
H633 H 0.49337 0.97177 0.0754 0.0
H634 H 0.4542 0.89869 0.07614 0.0
H635 H 0.47748 0.92568 0.03419 0.0
H636 H 0.50514 0.93738 0.01705 0.0
H637 H 0.53358 0.86575 0.0148 0.0
H638 H 0.50633 0.85369 0.03208 0.0
H639 H 0.37012 0.81195 0.043 0.0
H640 H 0.39336 0.84934 0.04809 0.0
H641 H 0.45942 0.80914 0.04788 0.0
H642 H 0.43648 0.77178 0.04293 0.0
H643 H 0.45975 0.85084 0.03269 0.0
H644 H 0.4395 0.82625 0.07686 0.0
H645 H 0.41156 0.81498 0.09396 0.0
H646 H 0.37652 0.88331 0.09146 0.0
H647 H 0.40407 0.89485 0.07418 0.0
C648 C 0.53173 0.92627 0.06724 0.0
C649 C 0.52434 0.9491 0.07211 0.0
C650 C 0.51477 0.90895 0.06224 0.0
C651 C 0.49008 0.91414 0.06191 0.0
C652 C 0.48261 0.93704 0.06657 0.0
C653 C 0.49961 0.95443 0.07158 0.0
C654 C 0.47217 0.89507 0.05743 0.0
C655 C 0.45506 0.88858 0.0665 0.0
C656 C 0.4735 0.88169 0.04493 0.0
C657 C 0.48995 0.88883 0.03451 0.0
C658 C 0.48975 0.91246 0.03012 0.0
C659 C 0.50534 0.91915 0.02037 0.0
C660 C 0.52113 0.90233 0.01486 0.0
C661 C 0.52134 0.87876 0.01908 0.0
C662 C 0.5058 0.87198 0.02885 0.0
C663 C 0.38959 0.81108 0.04405 0.0
C664 C 0.40147 0.78891 0.0426 0.0
C665 C 0.4028 0.83243 0.04696 0.0
C666 C 0.42805 0.83191 0.04834 0.0
C667 C 0.43993 0.80986 0.0468 0.0
C668 C 0.42677 0.78853 0.04406 0.0
C669 C 0.4423 0.85424 0.05152 0.0
C670 C 0.45868 0.86129 0.04221 0.0
C671 C 0.44019 0.86822 0.06374 0.0
C672 C 0.42363 0.86128 0.07411 0.0
C673 C 0.42568 0.83877 0.07986 0.0
C674 C 0.40995 0.83236 0.0896 0.0
C675 C 0.39222 0.84839 0.09376 0.0
C676 C 0.39022 0.87089 0.08821 0.0
C677 C 0.4059 0.87738 0.07844 0.0
H678 H 0.38006 0.84339 0.10132 0.0
H679 H 0.53318 0.90754 0.0073 0.0
H680 H 0.08261 0.70825 0.99453 0.0
H681 H 0.11772 0.72397 0.00851 0.0
H682 H 0.1479 0.65269 0.00831 0.0
H683 H 0.11301 0.63698 0.99426 0.0
H684 H 0.15563 0.68114 0.03381 0.0
H685 H 0.16396 0.68519 0.98532 0.0
H686 H 0.15079 0.69728 0.96253 0.0
H687 H 0.1526 0.77163 0.97687 0.0
H688 H 0.16543 0.75991 0.99982 0.0
H689 H 0.28295 0.692 0.03722 0.0
H690 H 0.23967 0.68381 0.03446 0.0
H691 H 0.22701 0.75859 0.02699 0.0
H692 H 0.27038 0.76648 0.02905 0.0
H693 H 0.20678 0.73306 0.00778 0.0
H694 H 0.20586 0.72967 0.05555 0.0
H695 H 0.21887 0.71765 0.07836 0.0
H696 H 0.2031 0.64358 0.06628 0.0
H697 H 0.19031 0.6551 0.04333 0.0
C698 C 0.09648 0.6959 0.99776 0.0
C699 C 0.09534 0.6715 0.99325 0.0
C700 C 0.11646 0.70486 0.00573 0.0
C701 C 0.13537 0.68946 0.00936 0.0
C702 C 0.13342 0.66479 0.00564 0.0
C703 C 0.11364 0.6559 0.99755 0.0
C704 C 0.15852 0.69936 0.01539 0.0
C705 C 0.16692 0.69252 0.0282 0.0
C706 C 0.17286 0.71459 0.00811 0.0
C707 C 0.16533 0.72166 0.99431 0.0
C708 C 0.16134 0.70409 0.98364 0.0
C709 C 0.15397 0.71088 0.97069 0.0
C710 C 0.15078 0.7352 0.96827 0.0
C711 C 0.15502 0.75279 0.97878 0.0
C712 C 0.16234 0.74609 0.99175 0.0
C713 C 0.27085 0.70679 0.03535 0.0
C714 C 0.27995 0.7298 0.03321 0.0
C715 C 0.24606 0.70214 0.03384 0.0
C716 C 0.22995 0.7206 0.03054 0.0
C717 C 0.23903 0.74401 0.02945 0.0
C718 C 0.2638 0.74853 0.03065 0.0
C719 C 0.20435 0.71487 0.02635 0.0
C720 C 0.19545 0.72228 0.01372 0.0
C721 C 0.18961 0.70029 0.03387 0.0
C722 C 0.19726 0.69326 0.04768 0.0
C723 C 0.20533 0.71079 0.05772 0.0
C724 C 0.21264 0.70407 0.07069 0.0
C725 C 0.21185 0.67986 0.07376 0.0
C726 C 0.2037 0.66233 0.06388 0.0
C727 C 0.19638 0.66895 0.0509 0.0
H728 H 0.21752 0.6747 0.08381 0.0
H729 H 0.14506 0.74041 0.95824 0.0
H730 H 0.55181 0.61198 0.22859 0.0
H731 H 0.53398 0.64625 0.24059 0.0
H732 H 0.46733 0.6064 0.24199 0.0
H733 H 0.48499 0.57205 0.22957 0.0
H734 H 0.45955 0.65084 0.2334 0.0
H735 H 0.50211 0.61842 0.27085 0.0
H736 H 0.53645 0.60109 0.28367 0.0
H737 H 0.5775 0.66612 0.28067 0.0
H738 H 0.54354 0.68372 0.26765 0.0
H739 H 0.41904 0.75531 0.27205 0.0
H740 H 0.42898 0.71336 0.2659 0.0
H741 H 0.50107 0.73543 0.25778 0.0
H742 H 0.49142 0.77716 0.26388 0.0
H743 H 0.50033 0.6955 0.27309 0.0
H744 H 0.46009 0.72413 0.23228 0.0
H745 H 0.42598 0.74124 0.21914 0.0
H746 H 0.38043 0.68263 0.22881 0.0
H747 H 0.41424 0.66533 0.24216 0.0
C748 C 0.53337 0.61047 0.23147 0.0
C749 C 0.51973 0.58941 0.22807 0.0
C750 C 0.52328 0.62997 0.23847 0.0
C751 C 0.49941 0.62878 0.24232 0.0
C752 C 0.48583 0.60762 0.23917 0.0
C753 C 0.49596 0.588 0.23215 0.0
C754 C 0.48845 0.65036 0.24882 0.0
C755 C 0.4681 0.6603 0.2423 0.0
C756 C 0.49977 0.66281 0.26033 0.0
C757 C 0.52027 0.65235 0.26821 0.0
C758 C 0.51851 0.62897 0.27284 0.0
C759 C 0.53791 0.61911 0.28016 0.0
C760 C 0.55915 0.63248 0.28297 0.0
C761 C 0.56103 0.65578 0.27849 0.0
C762 C 0.54169 0.66573 0.27116 0.0
C763 C 0.437 0.75122 0.26895 0.0
C764 C 0.45442 0.76959 0.26843 0.0
C765 C 0.44262 0.72727 0.26543 0.0
C766 C 0.46574 0.72136 0.26139 0.0
C767 C 0.48315 0.73963 0.26094 0.0
C768 C 0.47754 0.7635 0.26436 0.0
C769 C 0.47204 0.69626 0.25738 0.0
C770 C 0.49148 0.6857 0.2644 0.0
C771 C 0.45986 0.68322 0.24636 0.0
C772 C 0.43958 0.69362 0.23836 0.0
C773 C 0.44274 0.71502 0.23171 0.0
C774 C 0.42348 0.72472 0.2242 0.0
C775 C 0.40103 0.71307 0.22318 0.0
C776 C 0.39782 0.69166 0.22964 0.0
C777 C 0.41701 0.6819 0.23717 0.0
H778 H 0.38614 0.72061 0.21736 0.0
H779 H 0.57415 0.62481 0.28863 0.0
H780 H 0.56309 0.00828 0.51437 0.0
H781 H 0.5329 0.99145 0.52836 0.0
H782 H 0.48919 0.96946 0.4924 0.0
H783 H 0.51926 0.98609 0.47839 0.0
H784 H 0.4621 0.99013 0.51095 0.0
H785 H 0.52288 0.92899 0.5096 0.0
H786 H 0.56392 0.91282 0.5126 0.0
H787 H 0.56533 0.93306 0.55507 0.0
H788 H 0.52439 0.94965 0.55228 0.0
H789 H 0.40382 0.88366 0.53845 0.0
H790 H 0.44174 0.90145 0.53247 0.0
H791 H 0.42253 0.96925 0.55205 0.0
H792 H 0.38435 0.95167 0.55798 0.0
H793 H 0.48197 0.92724 0.54332 0.0
H794 H 0.42972 0.01154 0.52898 0.0
H795 H 0.38741 0.02384 0.52502 0.0
H796 H 0.36778 0.95153 0.51095 0.0
H797 H 0.41003 0.93893 0.51458 0.0
C798 C 0.54714 -0.00033 0.50945 0.0
C799 C 0.54356 0.99855 0.49526 0.0
C800 C 0.52988 0.99012 0.51745 0.0
C801 C 0.50882 0.97911 0.51142 0.0
C802 C 0.50522 0.97801 0.49728 0.0
C803 C 0.52241 0.98758 0.48928 0.0
C804 C 0.49042 0.9687 0.51976 0.0
C805 C 0.46654 0.97653 0.5181 0.0
C806 C 0.4961 0.95077 0.52901 0.0
C807 C 0.5207 0.94081 0.5307 0.0
C808 C 0.53202 0.93018 0.51956 0.0
C809 C 0.55525 0.9209 0.52122 0.0
C810 C 0.56725 0.92198 0.53401 0.0
C811 C 0.55603 0.93228 0.54516 0.0
C812 C 0.53281 0.94161 0.54355 0.0
C813 C 0.40797 0.90214 0.54189 0.0
C814 C 0.39085 0.91642 0.54843 0.0
C815 C 0.42974 0.91225 0.5385 0.0
C816 C 0.43466 0.93678 0.54156 0.0
C817 C 0.41887 0.95034 0.54946 0.0
C818 C 0.39708 0.94023 0.55286 0.0
C819 C 0.45385 0.94883 0.53454 0.0
C820 C 0.47775 0.94123 0.53638 0.0
C821 C 0.44814 0.96658 0.5252 0.0
C822 C 0.42296 0.97426 0.52224 0.0
C823 C 0.41639 0.99832 0.52496 0.0
C824 C 0.39242 0.00532 0.5228 0.0
C825 C 0.37489 0.98841 0.51788 0.0
C826 C 0.38135 0.96455 0.51488 0.0
C827 C 0.40531 0.95749 0.51696 0.0
H828 H 0.35633 0.99384 0.51627 0.0
H829 H 0.58523 0.91478 0.53528 0.0
H830 H 0.20145 0.08357 0.74792 0.0
H831 H 0.21902 0.05229 0.76189 0.0
H832 H 0.14864 0.01998 0.76399 0.0
H833 H 0.13109 0.05096 0.74989 0.0
H834 H 0.17934 0.02208 0.78938 0.0
H835 H 0.17968 0.99725 0.74146 0.0
H836 H 0.1897 0.00283 0.71791 0.0
H837 H 0.26493 0.00775 0.73033 0.0
H838 H 0.25528 0.00256 0.75401 0.0
H839 H 0.19519 0.89812 0.79977 0.0
H840 H 0.18525 0.93946 0.79475 0.0
H841 H 0.25829 0.95151 0.78377 0.0
H842 H 0.26787 0.90971 0.7881 0.0
H843 H 0.23046 0.96385 0.76463 0.0
H844 H 0.2316 0.98241 0.812 0.0
H845 H 0.22245 0.97774 0.83576 0.0
H846 H 0.14699 0.98595 0.82548 0.0
H847 H 0.15563 0.99033 0.80161 0.0
C848 C 0.18973 0.07001 0.75158 0.0
C849 C 0.16499 0.06948 0.74779 0.0
C850 C 0.19975 0.05222 0.75953 0.0
C851 C 0.18508 0.03389 0.76393 0.0
C852 C 0.16019 0.03406 0.76073 0.0
C853 C 0.15025 0.0516 0.75261 0.0
C854 C 0.19588 0.01316 0.77068 0.0
C855 C 0.1905 0.00923 0.78403 0.0
C856 C 0.21093 0.9969 0.76376 0.0
C857 C 0.21674 -0.00017 0.74952 0.0
C858 C 0.19833 -0.00025 0.73919 0.0
C859 C 0.20395 0.00279 0.72582 0.0
C860 C 0.22793 0.00572 0.72264 0.0
C861 C 0.24635 0.00553 0.73282 0.0
C862 C 0.24083 0.00254 0.74621 0.0
C863 C 0.2093 0.90981 0.79667 0.0
C864 C 0.23225 0.9007 0.79424 0.0
C865 C 0.20363 0.93354 0.79384 0.0
C866 C 0.22102 0.94878 0.78889 0.0
C867 C 0.2445 0.94013 0.78748 0.0
C868 C 0.25 0.91627 0.79001 0.0
C869 C 0.21394 0.97233 0.7835 0.0
C870 C 0.21983 0.9768 0.77025 0.0
C871 C 0.19959 0.98916 0.79062 0.0
C872 C 0.19427 0.98654 0.80498 0.0
C873 C 0.21303 0.98304 0.81478 0.0
C874 C 0.20794 0.98048 0.82827 0.0
C875 C 0.18415 0.98151 0.83212 0.0
C876 C 0.16541 0.98515 0.82248 0.0
C877 C 0.1704 0.98772 0.80897 0.0
H878 H 0.18024 0.97952 0.84257 0.0
H879 H 0.23224 0.00808 0.71228 0.0
H880 H 0.61491 0.47874 0.81834 0.0
H881 H 0.64609 0.46623 0.80316 0.0
H882 H 0.6014 0.48718 0.76893 0.0
H883 H 0.57028 0.5007 0.78413 0.0
H884 H 0.62716 0.44024 0.76572 0.0
H885 H 0.64085 0.5243 0.77715 0.0
H886 H 0.64483 0.56045 0.79272 0.0
H887 H 0.70492 0.52897 0.81416 0.0
H888 H 0.70105 0.49246 0.79885 0.0
H889 H 0.7617 0.46162 0.74508 0.0
H890 H 0.72035 0.47513 0.74785 0.0
H891 H 0.70477 0.41022 0.76777 0.0
H892 H 0.74589 0.39662 0.76502 0.0
H893 H 0.70498 0.4848 0.77265 0.0
H894 H 0.64498 0.39792 0.76517 0.0
H895 H 0.64065 0.36195 0.74949 0.0
H896 H 0.67292 0.40029 0.71859 0.0
H897 H 0.67714 0.43661 0.73401 0.0
C898 C 0.61167 0.48083 0.8076 0.0
C899 C 0.59019 0.49108 0.8025 0.0
C900 C 0.62944 0.47348 0.79894 0.0
C901 C 0.62605 0.47599 0.78497 0.0
C902 C 0.60425 0.48509 0.7797 0.0
C903 C 0.58649 0.49272 0.78841 0.0
C904 C 0.64607 0.4703 0.77616 0.0
C905 C 0.64416 0.45003 0.76708 0.0
C906 C 0.66794 0.48352 0.77776 0.0
C907 C 0.67056 0.50559 0.7869 0.0
C908 C 0.6548 0.52502 0.78525 0.0
C909 C 0.65705 0.54559 0.79402 0.0
C910 C 0.67509 0.547 0.80444 0.0
C911 C 0.69095 0.52786 0.80609 0.0
C912 C 0.68876 0.50723 0.79735 0.0
C913 C 0.74924 0.44988 0.74966 0.0
C914 C 0.75711 0.42818 0.75498 0.0
C915 C 0.72564 0.45766 0.75127 0.0
C916 C 0.70948 0.44371 0.75802 0.0
C917 C 0.7168 0.42117 0.76238 0.0
C918 C 0.74039 0.41347 0.76087 0.0
C919 C 0.68654 0.45407 0.7625 0.0
C920 C 0.6879 0.47524 0.77092 0.0
C921 C 0.66419 0.44171 0.76018 0.0
C922 C 0.66149 0.41998 0.75079 0.0
C923 C 0.65102 0.39874 0.75501 0.0
C924 C 0.64862 0.37827 0.74617 0.0
C925 C 0.65655 0.37882 0.73306 0.0
C926 C 0.66686 0.39986 0.72876 0.0
C927 C 0.6693 0.42039 0.73756 0.0
H928 H 0.65468 0.36295 0.72624 0.0
H929 H 0.6768 0.56293 0.81122 0.0
H930 H 0.63443 0.13388 0.05546 0.0
H931 H 0.65201 0.16111 0.04021 0.0
H932 H 0.71671 0.11888 0.04016 0.0
H933 H 0.69881 0.09055 0.05483 0.0
H934 H 0.72218 0.17082 0.04731 0.0
H935 H 0.68655 0.11598 0.01271 0.0
H936 H 0.6537 0.09133 0.00117 0.0
H937 H 0.61213 0.155 0.99503 0.0
H938 H 0.6446 0.18003 0.00672 0.0
H939 H 0.77442 0.25314 0.00737 0.0
H940 H 0.76115 0.21305 0.01298 0.0
H941 H 0.68698 0.23452 0.0072 0.0
H942 H 0.70019 0.27417 0.00092 0.0
H943 H 0.68971 0.1883 0.00127 0.0
H944 H 0.71887 0.2418 0.03854 0.0
H945 H 0.74843 0.26862 0.05149 0.0
H946 H 0.79816 0.21011 0.05436 0.0
H947 H 0.76897 0.18302 0.04126 0.0
C948 C 0.65214 0.12988 0.05197 0.0
C949 C 0.66512 0.10986 0.05645 0.0
C950 C 0.6622 0.14559 0.04328 0.0
C951 C 0.68555 0.14188 0.03902 0.0
C952 C 0.69861 0.12197 0.04335 0.0
C953 C 0.6884 0.10595 0.05186 0.0
C954 C 0.69684 0.15991 0.03088 0.0
C955 C 0.71553 0.17429 0.0371 0.0
C956 C 0.68749 0.16485 0.01778 0.0
C957 C 0.66795 0.14987 0.01069 0.0
C958 C 0.67032 0.12472 0.00901 0.0
C959 C 0.65178 0.11068 0.00241 0.0
C960 C 0.63082 0.12159 0.99739 0.0
C961 C 0.62838 0.14657 0.99893 0.0
C962 C 0.64686 0.1607 0.00552 0.0
C963 C 0.7553 0.24901 0.00686 0.0
C964 C 0.73832 0.26683 0.00389 0.0
C965 C 0.74772 0.22616 0.01015 0.0
C966 C 0.72307 0.22104 0.01096 0.0
C967 C 0.7061 0.23808 0.00676 0.0
C968 C 0.71368 0.26078 0.00316 0.0
C969 C 0.71502 0.19942 0.01773 0.0
C970 C 0.6968 0.1845 0.01133 0.0
C971 C 0.72436 0.19429 0.03086 0.0
C972 C 0.74188 0.21048 0.03879 0.0
C973 C 0.73617 0.23471 0.04186 0.0
C974 C 0.75285 0.24995 0.04923 0.0
C975 C 0.77519 0.24109 0.05371 0.0
C976 C 0.78087 0.21695 0.05085 0.0
C977 C 0.76427 0.20165 0.04346 0.0
H978 H 0.78808 0.25291 0.05941 0.0
H979 H 0.61649 0.11068 0.99229 0.0
H980 H 0.07526 0.17957 0.34033 0.0
H981 H 0.03925 0.1975 0.3302 0.0
H982 H 0.0261 0.13304 0.30446 0.0
H983 H 0.06326 0.11584 0.31363 0.0
H984 H 0.01365 0.16895 0.29094 0.0
H985 H 0.99792 0.14521 0.33556 0.0
H986 H 0.00481 0.14435 0.36032 0.0
H987 H 0.99403 0.22076 0.36444 0.0
H988 H 0.98738 0.22211 0.33968 0.0
H989 H 0.88518 0.16761 0.28383 0.0
H990 H 0.92709 0.15973 0.29096 0.0
H991 H 0.93858 0.23526 0.30187 0.0
H992 H 0.89669 0.24347 0.29443 0.0
H993 H 0.95293 0.19896 0.32247 0.0
H994 H 0.96363 0.21937 0.27659 0.0
H995 H 0.95447 0.21653 0.25193 0.0
H996 H 0.97197 0.14135 0.25051 0.0
H997 H 0.98088 0.14366 0.27521 0.0
C998 C 0.06513 0.16939 0.33227 0.0
C999 C 0.07214 0.14605 0.32795 0.0
C1000 C 0.04426 0.17957 0.32662 0.0
C1001 C 0.02956 0.16638 0.31682 0.0
C1002 C 0.03701 0.14352 0.3121 0.0
C1003 C 0.05814 0.13354 0.31751 0.0
C1004 C 0.00594 0.17584 0.31187 0.0
C1005 C 0.00037 0.17538 0.29786 0.0
C1006 C 0.98863 0.1846 0.32087 0.0
C1007 C 0.99243 0.1838 0.33576 0.0
C1008 C 0.99717 0.16185 0.34175 0.0
C1009 C 0.00102 0.16127 0.35578 0.0
C1010 C -6e-05 0.1825 0.36395 0.0
C1011 C 0.99492 0.20434 0.3581 0.0
C1012 C 0.99109 0.20502 0.34407 0.0
C1013 C 0.89663 0.18257 0.28769 0.0
C1014 C 0.88769 0.20616 0.28859 0.0
C1015 C 0.92055 0.17804 0.29171 0.0
C1016 C 0.93581 0.19694 0.29687 0.0
C1017 C 0.92699 0.2205 0.29786 0.0
C1018 C 0.90315 0.22514 0.29358 0.0
C1019 C 0.96075 0.19171 0.30165 0.0
C1020 C 0.96645 0.19287 0.31561 0.0
C1021 C 0.97792 0.18306 0.29264 0.0
C1022 C 0.97273 0.18166 0.27777 0.0
C1023 C 0.96532 0.20219 0.27104 0.0
C1024 C 0.96022 0.20068 0.25705 0.0
C1025 C 0.96258 0.17876 0.24966 0.0
C1026 C 0.97012 0.15831 0.25625 0.0
C1027 C 0.97523 0.15972 0.27024 0.0
H1028 H 0.95862 0.17763 0.23883 0.0
H1029 H 0.00294 0.18202 0.37481 0.0
H1030 H 0.96447 0.54172 0.57544 0.0
H1031 H 0.95562 0.50678 0.55993 0.0
H1032 H 0.98409 0.54424 0.52731 0.0
H1033 H 0.99385 0.57923 0.54292 0.0
H1034 H 0.93757 0.514 0.52146 0.0
H1035 H 0.02048 0.51013 0.53768 0.0
H1036 H 0.05368 0.51345 0.55527 0.0
H1037 H 0.02127 0.45745 0.57649 0.0
H1038 H 0.98764 0.45408 0.55913 0.0
H1039 H 0.97053 0.37593 0.50712 0.0
H1040 H 0.98137 0.41879 0.50899 0.0
H1041 H 0.91158 0.43553 0.52382 0.0
H1042 H 0.90059 0.39295 0.52187 0.0
H1043 H 0.98556 0.44224 0.53291 0.0
H1044 H 0.89659 0.49294 0.51896 0.0
H1045 H 0.86336 0.49004 0.50139 0.0
H1046 H 0.90919 0.45224 0.47412 0.0
H1047 H 0.94282 0.45521 0.49144 0.0
C1048 C 0.96884 0.54262 0.56497 0.0
C1049 C 0.98026 0.56312 0.56048 0.0
C1050 C 0.96358 0.52272 0.55611 0.0
C1051 C 0.9694 0.52296 0.54255 0.0
C1052 C 0.97944 0.54383 0.53776 0.0
C1053 C 0.98494 0.56378 0.54669 0.0
C1054 C 0.96681 0.50048 0.5339 0.0
C1055 C 0.94815 0.49829 0.52378 0.0
C1056 C 0.98109 0.48029 0.53679 0.0
C1057 C 0.00148 0.48196 0.54714 0.0
C1058 C 0.02035 0.49864 0.54615 0.0
C1059 C 0.03925 0.50052 0.55607 0.0
C1060 C 0.03957 0.48569 0.567 0.0
C1061 C 0.021 0.46892 0.56801 0.0
C1062 C 0.00203 0.467 0.55813 0.0
C1063 C 0.95724 0.38882 0.51039 0.0
C1064 C 0.93482 0.38104 0.51452 0.0
C1065 C 0.96347 0.4133 0.51146 0.0
C1066 C 0.9473 0.43039 0.51654 0.0
C1067 C 0.92425 0.42278 0.5197 0.0
C1068 C 0.91805 0.39835 0.51867 0.0
C1069 C 0.95559 0.45526 0.5207 0.0
C1070 C 0.97531 0.45794 0.53016 0.0
C1071 C 0.94234 0.47584 0.51709 0.0
C1072 C 0.92223 0.47421 0.50655 0.0
C1073 C 0.89965 0.48414 0.50919 0.0
C1074 C 0.88072 0.48245 0.49928 0.0
C1075 C 0.88414 0.47093 0.48666 0.0
C1076 C 0.90653 0.4611 0.48391 0.0
C1077 C 0.92553 0.46275 0.49379 0.0
H1078 H 0.86946 0.46963 0.479 0.0
H1079 H 0.05422 0.48718 0.57468 0.0
H1080 H 0.70651 0.15303 0.48184 0.0
H1081 H 0.73997 0.18103 0.4878 0.0
H1082 H 0.78796 0.12122 0.49309 0.0
H1083 H 0.75435 0.09302 0.48753 0.0
H1084 H 0.79706 0.15718 0.51248 0.0
H1085 H 0.78655 0.14931 0.46426 0.0
H1086 H 0.76381 0.14922 0.44217 0.0
H1087 H 0.74685 0.22387 0.44954 0.0
H1088 H 0.76917 0.22429 0.47178 0.0
H1089 H 0.9067 0.22124 0.50719 0.0
H1090 H 0.87314 0.19292 0.5022 0.0
H1091 H 0.82385 0.25221 0.49935 0.0
H1092 H 0.8573 0.28076 0.50434 0.0
H1093 H 0.81582 0.21619 0.47867 0.0
H1094 H 0.8271 0.22311 0.52731 0.0
H1095 H 0.85083 0.22222 0.54904 0.0
H1096 H 0.86779 0.14796 0.54027 0.0
H1097 H 0.84443 0.1485 0.51837 0.0
C1098 C 0.72406 0.14581 0.48455 0.0
C1099 C 0.72782 0.1208 0.48415 0.0
C1100 C 0.74321 0.16184 0.48782 0.0
C1101 C 0.7665 0.15317 0.49065 0.0
C1102 C 0.77013 0.12825 0.49085 0.0
C1103 C 0.75097 0.11218 0.48759 0.0
C1104 C 0.78719 0.17012 0.49288 0.0
C1105 C 0.80135 0.16989 0.50503 0.0
C1106 C 0.79256 0.18687 0.48319 0.0
C1107 C 0.77933 0.18677 0.46975 0.0
C1108 C 0.77782 0.16566 0.46122 0.0
C1109 C 0.76502 0.16555 0.44866 0.0
C1110 C 0.75384 0.18651 0.44447 0.0
C1111 C 0.75549 0.20763 0.45281 0.0
C1112 C 0.76822 0.20783 0.46539 0.0
C1113 C 0.88876 0.22831 0.50542 0.0
C1114 C 0.88465 0.25327 0.50624 0.0
C1115 C 0.86961 0.21208 0.50262 0.0
C1116 C 0.84603 0.22051 0.50056 0.0
C1117 C 0.84194 0.24539 0.50095 0.0
C1118 C 0.86106 0.26165 0.50383 0.0
C1119 C 0.82556 0.20333 0.4983 0.0
C1120 C 0.81149 0.20349 0.48612 0.0
C1121 C 0.82041 0.18637 0.50791 0.0
C1122 C 0.83421 0.18592 0.52114 0.0
C1123 C 0.83604 0.20664 0.52997 0.0
C1124 C 0.8494 0.20619 0.54232 0.0
C1125 C 0.86087 0.18507 0.54602 0.0
C1126 C 0.85892 0.16432 0.53738 0.0
C1127 C 0.84561 0.16468 0.525 0.0
H1128 H 0.87123 0.18476 0.55558 0.0
H1129 H 0.74394 0.18638 0.43475 0.0
H1130 H 0.04201 0.25959 0.72729 0.0
H1131 H 0.01013 0.28723 0.73366 0.0
H1132 H 0.96115 0.22715 0.73582 0.0
H1133 H 0.99302 0.19936 0.72927 0.0
H1134 H 0.93978 0.2615 0.72252 0.0
H1135 H 0.98426 0.25846 0.76473 0.0
H1136 H 0.02016 0.25983 0.78054 0.0
H1137 H 0.03362 0.33333 0.77175 0.0
H1138 H 0.99798 0.33231 0.75574 0.0
H1139 H 0.85365 0.34414 0.75156 0.0
H1140 H 0.88102 0.31005 0.7484 0.0
H1141 H 0.93781 0.35908 0.73962 0.0
H1142 H 0.91085 0.39299 0.74266 0.0
H1143 H 0.95206 0.32639 0.75872 0.0
H1144 H 0.90952 0.32683 0.71459 0.0
H1145 H 0.87323 0.3249 0.69906 0.0
H1146 H 0.8554 0.25515 0.71244 0.0
H1147 H 0.89145 0.25683 0.7282 0.0
C1148 C 0.02457 0.25224 0.72934 0.0
C1149 C 0.02003 0.22731 0.72783 0.0
C1150 C 0.00634 0.26805 0.73298 0.0
C1151 C 0.98331 0.25925 0.73539 0.0
C1152 C 0.97878 0.23434 0.73401 0.0
C1153 C 0.99698 0.2185 0.73027 0.0
C1154 C 0.96379 0.27624 0.7388 0.0
C1155 C 0.94228 0.27538 0.73062 0.0
C1156 C 0.96709 0.29449 0.74929 0.0
C1157 C 0.98852 0.29524 0.75896 0.0
C1158 C 0.99497 0.27487 0.7661 0.0
C1159 C 0.01526 0.27559 0.77511 0.0
C1160 C 0.02919 0.29664 0.77713 0.0
C1161 C 0.02282 0.31703 0.77017 0.0
C1162 C 0.00255 0.3164 0.76114 0.0
C1163 C 0.87192 0.34761 0.74887 0.0
C1164 C 0.88005 0.3713 0.74737 0.0
C1165 C 0.8875 0.32814 0.74707 0.0
C1166 C 0.91143 0.33211 0.74382 0.0
C1167 C 0.91945 0.35567 0.7422 0.0
C1168 C 0.90393 0.37502 0.74388 0.0
C1169 C 0.92848 0.31196 0.74223 0.0
C1170 C 0.94948 0.31224 0.75077 0.0
C1171 C 0.92463 0.2931 0.73216 0.0
C1172 C 0.903 0.29209 0.72269 0.0
C1173 C 0.89774 0.31119 0.71431 0.0
C1174 C 0.87724 0.31012 0.70545 0.0
C1175 C 0.86198 0.28995 0.7048 0.0
C1176 C 0.86722 0.27078 0.71298 0.0
C1177 C 0.88768 0.27178 0.72187 0.0
H1178 H 0.84612 0.28915 0.69792 0.0
H1179 H 0.04489 0.29716 0.78411 0.0
H1180 H 0.90361 0.54877 0.96787 0.0
H1181 H 0.87835 0.51606 0.97473 0.0
H1182 H 0.93904 0.46813 0.97401 0.0
H1183 H 0.96451 0.50093 0.96707 0.0
H1184 H 0.89942 0.44642 0.9622 0.0
H1185 H 0.91913 0.48974 0.00406 0.0
H1186 H 0.92438 0.52532 0.01996 0.0
H1187 H 0.84857 0.53945 0.01559 0.0
H1188 H 0.8429 0.50414 0.9995 0.0
H1189 H 0.82509 0.36075 0.99479 0.0
H1190 H 0.85878 0.38714 0.98988 0.0
H1191 H 0.80939 0.44573 0.9844 0.0
H1192 H 0.77589 0.41979 0.9892 0.0
H1193 H 0.84901 0.45815 0.00174 0.0
H1194 H 0.83121 0.41715 0.95765 0.0
H1195 H 0.82654 0.38134 0.94186 0.0
H1196 H 0.90004 0.3621 0.95124 0.0
H1197 H 0.90503 0.39767 0.96724 0.0
C1198 C 0.91167 0.53136 0.96934 0.0
C1199 C 0.93609 0.52748 0.96704 0.0
C1200 C 0.89721 0.51266 0.97324 0.0
C1201 C 0.9069 0.48974 0.97509 0.0
C1202 C 0.93122 0.48569 0.97268 0.0
C1203 C 0.94571 0.50442 0.9687 0.0
C1204 C 0.89132 0.47005 0.9793 0.0
C1205 C 0.88876 0.44876 0.97101 0.0
C1206 C 0.87735 0.47315 0.99075 0.0
C1207 C 0.88062 0.49435 0.0005 0.0
C1208 C 0.9036 0.50052 0.00641 0.0
C1209 C 0.90664 0.52063 0.01547 0.0
C1210 C 0.88683 0.53466 0.01877 0.0
C1211 C 0.86391 0.52857 0.01302 0.0
C1212 C 0.86076 0.50848 0.00395 0.0
C1213 C 0.82142 0.3792 0.99245 0.0
C1214 C 0.7978 0.38816 0.99244 0.0
C1215 C 0.84066 0.39422 0.98964 0.0
C1216 C 0.83652 0.41838 0.98683 0.0
C1217 C 0.81296 0.42718 0.98663 0.0
C1218 C 0.79381 0.41225 0.98933 0.0
C1219 C 0.85654 0.43499 0.98439 0.0
C1220 C 0.86 0.45566 0.99307 0.0
C1221 C 0.87141 0.43122 0.97337 0.0
C1222 C 0.8684 0.40988 0.96376 0.0
C1223 C 0.8463 0.40516 0.95645 0.0
C1224 C 0.84361 0.38493 0.94744 0.0
C1225 C 0.86296 0.36941 0.94559 0.0
C1226 C 0.88505 0.37411 0.95271 0.0
C1227 C 0.88783 0.3943 0.96174 0.0
H1228 H 0.86085 0.35376 0.93861 0.0
H1229 H 0.88922 0.55023 0.02578 0.0
H1230 H 0.68859 0.4552 0.22986 0.0
H1231 H 0.71722 0.43119 0.24291 0.0
H1232 H 0.66264 0.37648 0.24569 0.0
H1233 H 0.63408 0.39991 0.2323 0.0
H1234 H 0.69118 0.3869 0.27035 0.0
H1235 H 0.70062 0.36819 0.22253 0.0
H1236 H 0.70776 0.37863 0.19922 0.0
H1237 H 0.77636 0.40998 0.21273 0.0
H1238 H 0.76945 0.40004 0.23616 0.0
H1239 H 0.75531 0.27897 0.28047 0.0
H1240 H 0.72945 0.3129 0.2753 0.0
H1241 H 0.7918 0.35457 0.26624 0.0
H1242 H 0.81757 0.32022 0.27081 0.0
H1243 H 0.76122 0.35517 0.24634 0.0
H1244 H 0.75494 0.36988 0.29366 0.0
H1245 H 0.74838 0.3604 0.31718 0.0
H1246 H 0.6756 0.33833 0.3056 0.0
H1247 H 0.68181 0.34735 0.28197 0.0
C1248 C 0.68266 0.43801 0.23318 0.0
C1249 C 0.65905 0.42941 0.2299 0.0
C1250 C 0.69899 0.42444 0.24075 0.0
C1251 C 0.69202 0.40207 0.24522 0.0
C1252 C 0.66828 0.3938 0.24241 0.0
C1253 C 0.65199 0.40726 0.23476 0.0
C1254 C 0.70991 0.38642 0.25192 0.0
C1255 C 0.70648 0.3798 0.26514 0.0
C1256 C 0.73017 0.37782 0.24521 0.0
C1257 C 0.7344 0.38363 0.23111 0.0
C1258 C 0.71713 0.37749 0.22054 0.0
C1259 C 0.72115 0.38329 0.20731 0.0
C1260 C 0.74247 0.39503 0.2045 0.0
C1261 C 0.75984 0.40093 0.21492 0.0
C1262 C 0.75589 0.39522 0.22818 0.0
C1263 C 0.76357 0.2956 0.27775 0.0
C1264 C 0.78841 0.29691 0.27593 0.0
C1265 C 0.74876 0.31508 0.27484 0.0
C1266 C 0.75862 0.3364 0.27038 0.0
C1267 C 0.78371 0.33829 0.26957 0.0
C1268 C 0.79845 0.31868 0.27223 0.0
C1269 C 0.74266 0.35533 0.26489 0.0
C1270 C 0.74629 0.3625 0.25178 0.0
C1271 C 0.72277 0.36458 0.27179 0.0
C1272 C 0.71891 0.35914 0.28601 0.0
C1273 C 0.73759 0.36284 0.29611 0.0
C1274 C 0.73392 0.35757 0.30946 0.0
C1275 C 0.7116 0.34873 0.31288 0.0
C1276 C 0.69288 0.34517 0.30294 0.0
C1277 C 0.69646 0.3504 0.28956 0.0
H1278 H 0.7088 0.34466 0.32322 0.0
H1279 H 0.74555 0.39949 0.19425 0.0
H1280 H 0.25141 0.9964 0.40102 0.0
H1281 H 0.2688 0.97615 0.42055 0.0
H1282 H 0.25789 0.03996 0.44615 0.0
H1283 H 0.24018 0.06013 0.42684 0.0
H1284 H 0.30179 0.01954 0.45189 0.0
H1285 H 0.21827 0.99402 0.44494 0.0
H1286 H 0.18304 0.97603 0.43176 0.0
H1287 H 0.22085 0.9094 0.42632 0.0
H1288 H 0.25645 0.92714 0.43932 0.0
H1289 H 0.29326 0.9796 0.5178 0.0
H1290 H 0.28705 0.99603 0.49555 0.0
H1291 H 0.30173 0.92648 0.47645 0.0
H1292 H 0.30806 0.90985 0.49872 0.0
H1293 H 0.26027 0.94637 0.46583 0.0
H1294 H 0.34247 0.97006 0.47411 0.0
H1295 H 0.3784 0.98765 0.48679 0.0
H1296 H 0.3439 0.05645 0.48976 0.0
H1297 H 0.30777 0.03929 0.47702 0.0
C1298 C 0.25274 0.00613 0.4108 0.0
C1299 C 0.24432 0.02989 0.41235 0.0
C1300 C 0.26275 0.99456 0.42194 0.0
C1301 C 0.26446 0.00651 0.43481 0.0
C1302 C 0.25686 0.03046 0.43629 0.0
C1303 C 0.24681 0.042 0.4252 0.0
C1304 C 0.27302 0.99386 0.44692 0.0
C1305 C 0.29265 0.00362 0.45499 0.0
C1306 C 0.26151 0.97268 0.45074 0.0
C1307 C 0.24011 0.962 0.44296 0.0
C1308 C 0.21914 0.9756 0.44083 0.0
C1309 C 0.19909 0.96544 0.43341 0.0
C1310 C 0.19973 0.94161 0.42817 0.0
C1311 C 0.2204 0.92788 0.43037 0.0
C1312 C 0.24051 0.93797 0.43776 0.0
C1313 C 0.29528 0.9678 0.50888 0.0
C1314 C 0.30101 0.94338 0.51003 0.0
C1315 C 0.2919 0.97726 0.49617 0.0
C1316 C 0.29411 0.9625 0.48436 0.0
C1317 C 0.30002 0.93817 0.48545 0.0
C1318 C 0.30364 0.92873 0.49818 0.0
C1319 C 0.28878 0.9723 0.47093 0.0
C1320 C 0.26969 0.96206 0.46263 0.0
C1321 C 0.30084 0.99296 0.46688 0.0
C1322 C 0.32236 0.00335 0.47469 0.0
C1323 C 0.34248 0.98891 0.47754 0.0
C1324 C 0.36292 0.99882 0.48469 0.0
C1325 C 0.3634 0.02313 0.48912 0.0
C1326 C 0.34349 0.03762 0.48633 0.0
C1327 C 0.32307 0.02784 0.47909 0.0
H1328 H 0.37922 0.03075 0.4947 0.0
H1329 H 0.18419 0.93377 0.42243 0.0
H1330 H 0.1222 0.69736 0.66337 0.0
H1331 H 0.14227 0.71799 0.68329 0.0
H1332 H 0.09478 0.77847 0.6789 0.0
H1333 H 0.07387 0.7574 0.65923 0.0
H1334 H 0.16671 0.75828 0.68865 0.0
H1335 H 0.08201 0.80095 0.71053 0.0
H1336 H 0.03794 0.79445 0.70949 0.0
H1337 H 0.04769 0.71877 0.70059 0.0
H1338 H 0.09179 0.7248 0.70176 0.0
H1339 H 0.20586 0.82728 0.74833 0.0
H1340 H 0.18544 0.8159 0.7264 0.0
H1341 H 0.14569 0.76053 0.74471 0.0
H1342 H 0.16544 0.77228 0.76671 0.0
H1343 H 0.11718 0.78143 0.72732 0.0
H1344 H 0.19701 0.74821 0.72689 0.0
H1345 H 0.24145 0.74963 0.72889 0.0
H1346 H 0.24213 0.79765 0.69645 0.0
H1347 H 0.19766 0.79673 0.69438 0.0
C1348 C 0.11598 0.71504 0.66665 0.0
C1349 C 0.09619 0.72557 0.65985 0.0
C1350 C 0.12764 0.72693 0.67796 0.0
C1351 C 0.11982 0.74963 0.68271 0.0
C1352 C 0.10088 0.76079 0.67553 0.0
C1353 C 0.08909 0.74883 0.66422 0.0
C1354 C 0.13072 0.76077 0.69559 0.0
C1355 C 0.15586 0.76355 0.69707 0.0
C1356 C 0.11662 0.76728 0.70665 0.0
C1357 C 0.09016 0.7634 0.70607 0.0
C1358 C 0.07473 0.78293 0.70839 0.0
C1359 C 0.04976 0.77932 0.70777 0.0
C1360 C 0.04002 0.75623 0.70492 0.0
C1361 C 0.05525 0.73667 0.70274 0.0
C1362 C 0.08023 0.74017 0.70336 0.0
C1363 C 0.19267 0.81276 0.7477 0.0
C1364 C 0.1874 0.80057 0.75925 0.0
C1365 C 0.18106 0.80624 0.73515 0.0
C1366 C 0.16428 0.78712 0.73386 0.0
C1367 C 0.15855 0.77535 0.74545 0.0
C1368 C 0.16994 0.78204 0.75802 0.0
C1369 C 0.1532 0.77876 0.72043 0.0
C1370 C 0.12802 0.77654 0.71884 0.0
C1371 C 0.16732 0.7721 0.70939 0.0
C1372 C 0.19403 0.77261 0.71059 0.0
C1373 C 0.20664 0.7592 0.72025 0.0
C1374 C 0.23183 0.7599 0.72139 0.0
C1375 C 0.2446 0.77378 0.71283 0.0
C1376 C 0.23221 0.78694 0.70309 0.0
C1377 C 0.20702 0.78633 0.70193 0.0
H1378 H 0.2641 0.7743 0.71372 0.0
H1379 H 0.02069 0.75348 0.70444 0.0
H1380 H 0.46041 0.64367 0.89651 0.0
H1381 H 0.44145 0.66201 0.91618 0.0
H1382 H 0.39253 0.60134 0.91584 0.0
H1383 H 0.41128 0.58304 0.89602 0.0
H1384 H 0.37047 0.64336 0.92356 0.0
H1385 H 0.443 0.60132 0.93544 0.0
H1386 H 0.48598 0.59123 0.93415 0.0
H1387 H 0.50591 0.66402 0.94707 0.0
H1388 H 0.46301 0.67464 0.94822 0.0
H1389 H 0.39184 0.65987 0.00269 0.0
H1390 H 0.40035 0.64152 0.98059 0.0
H1391 H 0.36615 0.70099 0.96121 0.0
H1392 H 0.35693 0.71916 0.98333 0.0
H1393 H 0.42833 0.65751 0.96323 0.0
H1394 H 0.34512 0.68284 0.92911 0.0
H1395 H 0.30146 0.68903 0.93083 0.0
H1396 H 0.30128 0.64241 0.96393 0.0
H1397 H 0.34486 0.63569 0.96229 0.0
C1398 C 0.44538 0.63444 0.90052 0.0
C1399 C 0.4375 0.6118 0.89488 0.0
C1400 C 0.43454 0.64493 0.91172 0.0
C1401 C 0.4159 0.6328 0.91761 0.0
C1402 C 0.40692 0.61096 0.91146 0.0
C1403 C 0.41764 0.60053 0.90015 0.0
C1404 C 0.40758 0.64168 0.93091 0.0
C1405 C 0.38307 0.64654 0.93224 0.0
C1406 C 0.42397 0.64521 0.94231 0.0
C1407 C 0.4498 0.63882 0.94179 0.0
C1408 C 0.45655 0.61521 0.93792 0.0
C1409 C 0.48089 0.60939 0.93722 0.0
C1410 C 0.49866 0.62698 0.9405 0.0
C1411 C 0.49212 0.65042 0.94452 0.0
C1412 C 0.4678 0.65634 0.9452 0.0
C1413 C 0.3859 0.66895 0.99373 0.0
C1414 C 0.3738 0.69104 0.99477 0.0
C1415 C 0.39079 0.65843 0.98109 0.0
C1416 C 0.38384 0.66981 0.96922 0.0
C1417 C 0.37135 0.69166 0.9702 0.0
C1418 C 0.3662 0.70209 0.98287 0.0
C1419 C 0.39115 0.65955 0.95594 0.0
C1420 C 0.41561 0.65442 0.95458 0.0
C1421 C 0.37457 0.65525 0.94467 0.0
C1422 C 0.34831 0.65898 0.94566 0.0
C1423 C 0.33575 0.67385 0.93672 0.0
C1424 C 0.31101 0.67745 0.93769 0.0
C1425 C 0.29862 0.66618 0.94751 0.0
C1426 C 0.31092 0.65121 0.95636 0.0
C1427 C 0.33564 0.64753 0.95543 0.0
H1428 H 0.27948 0.66901 0.94825 0.0
H1429 H 0.5175 0.62245 0.93995 0.0
H1430 H 0.57547 0.94103 0.15414 0.0
H1431 H 0.55597 0.92272 0.17247 0.0
H1432 H 0.49943 0.97538 0.17032 0.0
H1433 H 0.51971 0.99482 0.15254 0.0
H1434 H 0.51207 0.97024 0.1954 0.0
H1435 H 0.49053 0.91512 0.15832 0.0
H1436 H 0.49653 0.88812 0.13823 0.0
H1437 H 0.54228 0.84318 0.16221 0.0
H1438 H 0.53684 0.87009 0.18241 0.0
H1439 H 0.44366 0.90064 0.24017 0.0
H1440 H 0.45495 0.92021 0.21976 0.0
H1441 H 0.52401 0.88539 0.22211 0.0
H1442 H 0.51315 0.86622 0.24249 0.0
H1443 H 0.49919 0.88188 0.19581 0.0
H1444 H 0.52262 0.9409 0.23232 0.0
H1445 H 0.51488 0.9681 0.25207 0.0
H1446 H 0.46205 0.00562 0.22819 0.0
H1447 H 0.46925 0.97839 0.20833 0.0
C1448 C 0.559 0.9489 0.15761 0.0
C1449 C 0.54924 0.96949 0.15182 0.0
C1450 C 0.54764 0.93815 0.16799 0.0
C1451 C 0.52596 0.94739 0.17265 0.0
C1452 C 0.51606 0.96782 0.16685 0.0
C1453 C 0.52757 0.97877 0.15657 0.0
C1454 C 0.51427 0.93624 0.18395 0.0
C1455 C 0.50881 0.95097 0.19534 0.0
C1456 C 0.51012 0.91106 0.18399 0.0
C1457 C 0.51341 0.89475 0.17187 0.0
C1458 C 0.50201 0.89958 0.15929 0.0
C1459 C 0.50529 0.88427 0.14789 0.0
C1460 C 0.51981 0.86398 0.14894 0.0
C1461 C 0.53104 0.85891 0.16141 0.0
C1462 C 0.52784 0.87417 0.17285 0.0
C1463 C 0.46125 0.89723 0.23633 0.0
C1464 C 0.47755 0.88197 0.24296 0.0
C1465 C 0.46766 0.9084 0.2247 0.0
C1466 C 0.4903 0.90418 0.21946 0.0
C1467 C 0.50644 0.8888 0.22599 0.0
C1468 C 0.50023 0.87797 0.23768 0.0
C1469 C 0.49753 0.91584 0.20722 0.0
C1470 C 0.50214 0.90119 0.19569 0.0
C1471 C 0.50054 0.94107 0.20697 0.0
C1472 C 0.49624 0.95742 0.2189 0.0
C1473 C 0.50918 0.95479 0.23132 0.0
C1474 C 0.50493 0.97025 0.24252 0.0
C1475 C 0.48792 0.98852 0.2414 0.0
C1476 C 0.47518 0.99142 0.22905 0.0
C1477 C 0.47934 0.97599 0.21782 0.0
H1478 H 0.48467 0.00048 0.25008 0.0
H1479 H 0.52233 0.85215 0.1401 0.0
H1480 H 0.10961 0.68684 0.91117 0.0
H1481 H 0.13116 0.71447 0.89787 0.0
H1482 H 0.0791 0.76976 0.90628 0.0
H1483 H 0.05669 0.7416 0.91919 0.0
H1484 H 0.08589 0.76704 0.88053 0.0
H1485 H 0.13854 0.77587 0.91916 0.0
H1486 H 0.1634 0.76396 0.93901 0.0
H1487 H 0.20949 0.72354 0.91302 0.0
H1488 H 0.18474 0.73494 0.893 0.0
H1489 H 0.16607 0.83022 0.8374 0.0
H1490 H 0.14602 0.82283 0.85837 0.0
H1491 H 0.16557 0.74795 0.85449 0.0
H1492 H 0.18482 0.75493 0.83356 0.0
H1493 H 0.17507 0.7737 0.88173 0.0
H1494 H 0.11323 0.75859 0.84432 0.0
H1495 H 0.08775 0.77195 0.82503 0.0
H1496 H 0.05917 0.82852 0.85054 0.0
H1497 H 0.08476 0.81564 0.86994 0.0
C1498 C 0.10277 0.70491 0.91026 0.0
C1499 C 0.0813 0.71193 0.91613 0.0
C1500 C 0.11532 0.72086 0.9028 0.0
C1501 C 0.10697 0.74437 0.90119 0.0
C1502 C 0.08597 0.75176 0.90743 0.0
C1503 C 0.07328 0.7357 0.91489 0.0
C1504 C 0.1191 0.76008 0.89193 0.0
C1505 C 0.10535 0.76913 0.88105 0.0
C1506 C 0.14449 0.76302 0.89257 0.0
C1507 C 0.15969 0.75623 0.90456 0.0
C1508 C 0.1539 0.76433 0.91767 0.0
C1509 C 0.16798 0.75767 0.92895 0.0
C1510 C 0.18798 0.74296 0.92728 0.0
C1511 C 0.19399 0.73495 0.9143 0.0
C1512 C 0.17997 0.74156 0.90297 0.0
C1513 C 0.16605 0.81222 0.84107 0.0
C1514 C 0.17684 0.79311 0.83381 0.0
C1515 C 0.15468 0.80806 0.85302 0.0
C1516 C 0.1545 0.78488 0.85797 0.0
C1517 C 0.16567 0.76598 0.85086 0.0
C1518 C 0.17649 0.76998 0.83884 0.0
C1519 C 0.14188 0.77949 0.8702 0.0
C1520 C 0.15557 0.77236 0.88158 0.0
C1521 C 0.11647 0.77875 0.87016 0.0
C1522 C 0.10113 0.78639 0.85851 0.0
C1523 C 0.10169 0.77403 0.84577 0.0
C1524 C 0.08719 0.78147 0.83483 0.0
C1525 C 0.07192 0.80113 0.83654 0.0
C1526 C 0.07106 0.81334 0.84921 0.0
C1527 C 0.08555 0.80598 0.86018 0.0
H1528 H 0.06069 0.80687 0.82806 0.0
H1529 H 0.19884 0.7378 0.93603 0.0
H1530 H 0.52271 0.59333 0.14446 0.0
H1531 H 0.49665 0.61628 0.12955 0.0
H1532 H 0.43663 0.56969 0.1364 0.0
H1533 H 0.46309 0.54559 0.15074 0.0
H1534 H 0.43667 0.57686 0.11086 0.0
H1535 H 0.44073 0.62905 0.15021 0.0
H1536 H 0.45928 0.65241 0.17002 0.0
H1537 H 0.49872 0.69523 0.14388 0.0
H1538 H 0.4807 0.6719 0.12391 0.0
H1539 H 0.3658 0.66232 0.0721 0.0
H1540 H 0.37951 0.63945 0.09163 0.0
H1541 H 0.45302 0.6599 0.0858 0.0
H1542 H 0.43969 0.68215 0.06628 0.0
H1543 H 0.43756 0.66626 0.11348 0.0
H1544 H 0.43707 0.60755 0.07474 0.0
H1545 H 0.41701 0.58408 0.05539 0.0
H1546 H 0.36754 0.55409 0.08184 0.0
H1547 H 0.38714 0.57767 0.10131 0.0
C1548 C 0.50403 0.58778 0.14274 0.0
C1549 C 0.49509 0.56748 0.14877 0.0
C1550 C 0.489 0.6012 0.13436 0.0
C1551 C 0.46452 0.59502 0.13202 0.0
C1552 C 0.45541 0.57492 0.13812 0.0
C1553 C 0.47054 0.56128 0.14642 0.0
C1554 C 0.44897 0.60889 0.12261 0.0
C1555 C 0.43641 0.5964 0.11165 0.0
C1556 C 0.44855 0.63441 0.12357 0.0
C1557 C 0.45942 0.64861 0.13555 0.0
C1558 C 0.45347 0.64334 0.14868 0.0
C1559 C 0.46388 0.65659 0.15994 0.0
C1560 C 0.48019 0.67527 0.15821 0.0
C1561 C 0.48609 0.68076 0.14521 0.0
C1562 C 0.47574 0.66755 0.13391 0.0
C1563 C 0.38486 0.66189 0.07502 0.0
C1564 C 0.40169 0.6739 0.06764 0.0
C1565 C 0.39263 0.64887 0.08614 0.0
C1566 C 0.41725 0.6481 0.09013 0.0
C1567 C 0.43395 0.66038 0.08289 0.0
C1568 C 0.42629 0.67295 0.07169 0.0
C1569 C 0.42613 0.63419 0.10165 0.0
C1570 C 0.4374 0.64671 0.11297 0.0
C1571 C 0.42504 0.60876 0.10113 0.0
C1572 C 0.41333 0.59461 0.08943 0.0
C1573 C 0.42176 0.59614 0.0764 0.0
C1574 C 0.41051 0.58278 0.06542 0.0
C1575 C 0.39095 0.56767 0.06738 0.0
C1576 C 0.38265 0.56585 0.08033 0.0
C1577 C 0.39382 0.5792 0.09134 0.0
H1578 H 0.38228 0.55733 0.05886 0.0
H1579 H 0.48823 0.68551 0.16694 0.0
H1580 H 0.56846 0.99215 0.39383 0.0
H1581 H 0.54734 0.96761 0.37576 0.0
H1582 H 0.50919 0.93029 0.40518 0.0
H1583 H 0.53055 0.955 0.42351 0.0
H1584 H 0.52472 0.89939 0.38502 0.0
H1585 H 0.48 0.9718 0.38755 0.0
H1586 H 0.47365 0.01569 0.38907 0.0
H1587 H 0.50436 0.02186 0.35062 0.0
H1588 H 0.51125 0.97804 0.34896 0.0
H1589 H 0.44616 0.85059 0.32918 0.0
H1590 H 0.46096 0.87076 0.35068 0.0
H1591 H 0.50978 0.91374 0.32946 0.0
H1592 H 0.49524 0.89372 0.30799 0.0
H1593 H 0.48259 0.94064 0.3475 0.0
H1594 H 0.53099 0.86839 0.34661 0.0
H1595 H 0.5371 0.82445 0.34537 0.0
H1596 H 0.49779 0.818 0.38108 0.0
H1597 H 0.49116 0.8619 0.38242 0.0
C1598 C 0.55539 0.97891 0.39648 0.0
C1599 C 0.55081 0.9758 0.41007 0.0
C1600 C 0.54338 0.96485 0.38614 0.0
C1601 C 0.52632 0.94749 0.38911 0.0
C1602 C 0.52217 0.94374 0.40268 0.0
C1603 C 0.53435 0.95782 0.41311 0.0
C1604 C 0.51301 0.93352 0.37787 0.0
C1605 C 0.51505 0.90834 0.37695 0.0
C1606 C 0.50056 0.94525 0.3673 0.0
C1607 C 0.49626 0.97162 0.36817 0.0
C1608 C 0.48554 0.98253 0.37946 0.0
C1609 C 0.48183 0.0074 0.38034 0.0
C1610 C 0.48863 0.02156 0.36995 0.0
C1611 C 0.4991 0.01086 0.35865 0.0
C1612 C 0.50288 0.986 0.35773 0.0
C1613 C 0.46015 0.86424 0.3291 0.0
C1614 C 0.46952 0.87056 0.31686 0.0
C1615 C 0.4686 0.87569 0.34139 0.0
C1616 C 0.48646 0.89369 0.34163 0.0
C1617 C 0.49594 0.89991 0.32946 0.0
C1618 C 0.48766 0.88837 0.31721 0.0
C1619 C 0.49499 0.90665 0.35446 0.0
C1620 C 0.49193 0.93167 0.35568 0.0
C1621 C 0.50629 0.89474 0.36532 0.0
C1622 C 0.51032 0.86838 0.36452 0.0
C1623 C 0.52345 0.85757 0.35412 0.0
C1624 C 0.52705 0.83268 0.35342 0.0
C1625 C 0.51777 0.81843 0.36311 0.0
C1626 C 0.50492 0.82906 0.37356 0.0
C1627 C 0.50125 0.85394 0.3743 0.0
H1628 H 0.52058 0.79916 0.36255 0.0
H1629 H 0.48574 0.04081 0.37065 0.0
H1630 H 0.17113 0.04583 0.66231 0.0
H1631 H 0.19837 0.02413 0.64776 0.0
H1632 H 0.25429 0.07702 0.65878 0.0
H1633 H 0.2265 0.09969 0.67286 0.0
H1634 H 0.2525 0.06877 0.63289 0.0
H1635 H 0.25851 0.01806 0.66921 0.0
H1636 H 0.24521 0.99406 0.68763 0.0
H1637 H 0.20562 0.94638 0.65875 0.0
H1638 H 0.21838 0.97028 0.64015 0.0
H1639 H 0.32045 0.98067 0.59054 0.0
H1640 H 0.31045 0.00356 0.61148 0.0
H1641 H 0.23481 0.99144 0.60114 0.0
H1642 H 0.24444 0.96943 0.58022 0.0
H1643 H 0.25826 0.97961 0.63016 0.0
H1644 H 0.2465 0.04028 0.59537 0.0
H1645 H 0.2623 0.0647 0.57774 0.0
H1646 H 0.31817 0.09317 0.60598 0.0
H1647 H 0.30284 0.06862 0.62372 0.0
C1648 C 0.18921 0.0529 0.66167 0.0
C1649 C 0.19652 0.07463 0.66868 0.0
C1650 C 0.20495 0.04025 0.65348 0.0
C1651 C 0.22858 0.04871 0.65229 0.0
C1652 C 0.23621 0.07006 0.65958 0.0
C1653 C 0.22035 0.08289 0.66772 0.0
C1654 C 0.24435 0.03609 0.6426 0.0
C1655 C 0.25427 0.04933 0.63255 0.0
C1656 C 0.24699 0.01072 0.64213 0.0
C1657 C 0.23936 0.99606 0.65326 0.0
C1658 C 0.24685 0.00254 0.66678 0.0
C1659 C 0.23941 0.98894 0.67726 0.0
C1660 C 0.22455 0.96873 0.67437 0.0
C1661 C 0.21715 0.96204 0.66098 0.0
C1662 C 0.22452 0.97558 0.65045 0.0
C1663 C 0.30172 0.98308 0.59272 0.0
C1664 C 0.28323 0.97339 0.58371 0.0
C1665 C 0.29607 0.99606 0.60466 0.0
C1666 C 0.27192 0.99901 0.6078 0.0
C1667 C 0.25354 0.98925 0.59886 0.0
C1668 C 0.25911 0.97682 0.58687 0.0
C1669 C 0.26524 0.01227 0.62035 0.0
C1670 C 0.25706 0.99911 0.63087 0.0
C1671 C 0.26467 0.03767 0.62142 0.0
C1672 C 0.27377 0.05239 0.61078 0.0
C1673 C 0.26231 0.05155 0.59776 0.0
C1674 C 0.27114 0.06546 0.58777 0.0
C1675 C 0.29129 0.0804 0.59072 0.0
C1676 C 0.30261 0.08153 0.60369 0.0
C1677 C 0.29386 0.06763 0.61372 0.0
H1678 H 0.29809 0.09117 0.58297 0.0
H1679 H 0.2188 0.95824 0.6825 0.0
H1680 H 0.55536 0.43066 0.8784 0.0
H1681 H 0.57649 0.40378 0.89371 0.0
H1682 H 0.62936 0.45967 0.90484 0.0
H1683 H 0.6092 0.486 0.88907 0.0
H1684 H 0.65094 0.41864 0.90365 0.0
H1685 H 0.5788 0.44891 0.92378 0.0
H1686 H 0.53503 0.45511 0.92486 0.0
H1687 H 0.52314 0.37855 0.92295 0.0
H1688 H 0.56686 0.37191 0.92169 0.0
H1689 H 0.68003 0.41518 0.97354 0.0
H1690 H 0.65703 0.42377 0.95275 0.0
H1691 H 0.64987 0.34776 0.94204 0.0
H1692 H 0.67361 0.33882 0.96286 0.0
H1693 H 0.60439 0.38857 0.94065 0.0
H1694 H 0.68054 0.36064 0.92365 0.0
H1695 H 0.72493 0.35872 0.92476 0.0
H1696 H 0.72934 0.43558 0.92271 0.0
H1697 H 0.68496 0.43797 0.92181 0.0
C1698 C 0.57181 0.43701 0.88387 0.0
C1699 C 0.5804 0.46063 0.88264 0.0
C1700 C 0.58372 0.4217 0.89274 0.0
C1701 C 0.60427 0.42983 0.90064 0.0
C1702 C 0.61349 0.45297 0.89891 0.0
C1703 C 0.60177 0.46814 0.88999 0.0
C1704 C 0.61559 0.41509 0.91129 0.0
C1705 C 0.64066 0.41189 0.91165 0.0
C1706 C 0.60225 0.40594 0.9217 0.0
C1707 C 0.57602 0.40991 0.92246 0.0
C1708 C 0.56682 0.43341 0.92348 0.0
C1709 C 0.54204 0.437 0.92415 0.0
C1710 C 0.52631 0.41724 0.92392 0.0
C1711 C 0.53534 0.39384 0.92308 0.0
C1712 C 0.56011 0.39015 0.9224 0.0
C1713 C 0.67342 0.40019 0.96687 0.0
C1714 C 0.67872 0.37629 0.96984 0.0
C1715 C 0.6603 0.40517 0.95499 0.0
C1716 C 0.65193 0.38641 0.9459 0.0
C1717 C 0.65629 0.36244 0.94898 0.0
C1718 C 0.66981 0.3574 0.96085 0.0
C1719 C 0.63955 0.39253 0.93298 0.0
C1720 C 0.6144 0.39444 0.93232 0.0
C1721 C 0.6528 0.40087 0.9224 0.0
C1722 C 0.67946 0.39948 0.92278 0.0
C1723 C 0.69099 0.37714 0.92356 0.0
C1724 C 0.71614 0.37597 0.92413 0.0
C1725 C 0.72995 0.39702 0.92384 0.0
C1726 C 0.71863 0.41929 0.92295 0.0
C1727 C 0.69348 0.42055 0.92239 0.0
H1728 H 0.74942 0.39608 0.92428 0.0
H1729 H 0.50712 0.42006 0.92444 0.0
H1730 H 0.6865 0.08263 0.15937 0.0
H1731 H 0.70759 0.10644 0.17777 0.0
H1732 H 0.72451 0.16068 0.15021 0.0
H1733 H 0.70348 0.13654 0.1315 0.0
H1734 H 0.76399 0.14817 0.16864 0.0
H1735 H 0.68245 0.17376 0.16989 0.0
H1736 H 0.63833 0.16846 0.16947 0.0
H1737 H 0.64522 0.12974 0.20575 0.0
H1738 H 0.68942 0.13448 0.20628 0.0
H1739 H 0.80283 0.22215 0.22822 0.0
H1740 H 0.78359 0.20846 0.20627 0.0
H1741 H 0.75035 0.14922 0.22482 0.0
H1742 H 0.76917 0.16283 0.24672 0.0
H1743 H 0.71836 0.17183 0.20881 0.0
H1744 H 0.79938 0.14119 0.20576 0.0
H1745 H 0.84367 0.14471 0.20606 0.0
H1746 H 0.83785 0.19197 0.17325 0.0
H1747 H 0.79348 0.18897 0.17288 0.0
C1748 C 0.69498 0.09945 0.15714 0.0
C1749 C 0.69347 0.10765 0.14396 0.0
C1750 C 0.70685 0.11313 0.16769 0.0
C1751 C 0.71739 0.13538 0.16536 0.0
C1752 C 0.71639 0.14354 0.15219 0.0
C1753 C 0.70431 0.12984 0.14156 0.0
C1754 C 0.729 0.14995 0.1769 0.0
C1755 C 0.75399 0.1539 0.17732 0.0
C1756 C 0.71592 0.15705 0.18826 0.0
C1757 C 0.68929 0.15438 0.18808 0.0
C1758 C 0.67457 0.16398 0.17773 0.0
C1759 C 0.64954 0.16109 0.17748 0.0
C1760 C 0.63898 0.14875 0.18757 0.0
C1761 C 0.65343 0.13931 0.19794 0.0
C1762 C 0.67847 0.14212 0.19824 0.0
C1763 C 0.79149 0.20615 0.22761 0.0
C1764 C 0.78753 0.19359 0.23924 0.0
C1765 C 0.78056 0.19834 0.21505 0.0
C1766 C 0.7656 0.17778 0.21391 0.0
C1767 C 0.76175 0.16519 0.22548 0.0
C1768 C 0.77261 0.17296 0.238 0.0
C1769 C 0.75352 0.16935 0.20077 0.0
C1770 C 0.72836 0.16659 0.20005 0.0
C1771 C 0.76649 0.16331 0.18918 0.0
C1772 C 0.79313 0.16511 0.18941 0.0
C1773 C 0.80755 0.15251 0.19869 0.0
C1774 C 0.83266 0.15437 0.19886 0.0
C1775 C 0.84357 0.16862 0.18972 0.0
C1776 C 0.82938 0.18098 0.18035 0.0
C1777 C 0.80425 0.1792 0.18015 0.0
H1778 H 0.86302 0.17003 0.18986 0.0
H1779 H 0.61959 0.14652 0.18735 0.0
H1780 H 0.08066 0.18998 0.39002 0.0
H1781 H 0.05844 0.21417 0.4066 0.0
H1782 H 0.1092 0.19421 0.43844 0.0
H1783 H 0.1315 0.17024 0.42199 0.0
H1784 H 0.05887 0.18541 0.44263 0.0
H1785 H 0.11234 0.24831 0.42938 0.0
H1786 H 0.13005 0.27366 0.41279 0.0
H1787 H 0.05985 0.30002 0.4013 0.0
H1788 H 0.04167 0.27454 0.4177 0.0
H1789 H 0.02602 0.25058 0.49978 0.0
H1790 H 0.05 0.23583 0.48125 0.0
H1791 H 0.00474 0.27428 0.45313 0.0
H1792 H 0.98131 0.29011 0.47188 0.0
H1793 H 0.04937 0.27423 0.44534 0.0
H1794 H 0.99499 0.21393 0.4576 0.0
H1795 H 0.97442 0.18789 0.47279 0.0
H1796 H 0.04181 0.15517 0.48405 0.0
H1797 H 0.06285 0.18127 0.46908 0.0
C1798 C 0.08716 0.19099 0.40055 0.0
C1799 C 0.10782 0.1783 0.40474 0.0
C1800 C 0.07455 0.20486 0.40996 0.0
C1801 C 0.08227 0.20598 0.42371 0.0
C1802 C 0.10305 0.19361 0.42786 0.0
C1803 C 0.11582 0.18005 0.41845 0.0
C1804 C 0.06793 0.21869 0.43396 0.0
C1805 C 0.057 0.20485 0.44334 0.0
C1806 C 0.06467 0.24391 0.43444 0.0
C1807 C 0.07562 0.25932 0.42466 0.0
C1808 C 0.10065 0.25934 0.42323 0.0
C1809 C 0.11078 0.27377 0.41388 0.0
C1810 C 0.09608 0.28839 0.40597 0.0
C1811 C 0.07122 0.28866 0.40742 0.0
C1812 C 0.06099 0.27425 0.41675 0.0
C1813 C 0.02145 0.25623 0.48968 0.0
C1814 C 0.00168 0.27125 0.48721 0.0
C1815 C 0.03507 0.24769 0.47908 0.0
C1816 C 0.02871 0.25332 0.46573 0.0
C1817 C 0.00985 0.26953 0.46333 0.0
C1818 C 0.9965 0.27856 0.47403 0.0
C1819 C 0.04085 0.24099 0.45432 0.0
C1820 C 0.05116 0.25479 0.44465 0.0
C1821 C 0.04312 0.21558 0.45334 0.0
C1822 C 0.03052 0.1997 0.4623 0.0
C1823 C 0.00545 0.20129 0.46339 0.0
C1824 C 0.9937 0.18651 0.47195 0.0
C1825 C 0.00681 0.16992 0.4794 0.0
C1826 C 0.03168 0.16804 0.47828 0.0
C1827 C 0.04353 0.18281 0.46975 0.0
H1828 H 0.99768 0.1585 0.48603 0.0
H1829 H 0.10396 0.29955 0.39874 0.0
H1830 H 0.96581 0.55337 0.64216 0.0
H1831 H 0.93854 0.53129 0.65541 0.0
H1832 H 0.88235 0.58243 0.64699 0.0
H1833 H 0.91017 0.60538 0.63412 0.0
H1834 H 0.88521 0.57529 0.6728 0.0
H1835 H 0.87746 0.52306 0.63388 0.0
H1836 H 0.88985 0.49857 0.61402 0.0
H1837 H 0.93081 0.45283 0.63998 0.0
H1838 H 0.91899 0.47724 0.66001 0.0
H1839 H 0.82451 0.49207 0.71562 0.0
H1840 H 0.83098 0.51328 0.6949 0.0
H1841 H 0.90644 0.49574 0.69824 0.0
H1842 H 0.90037 0.47533 0.7189 0.0
H1843 H 0.88016 0.48602 0.67118 0.0
H1844 H 0.89472 0.54741 0.70881 0.0
H1845 H 0.88123 0.57228 0.7283 0.0
H1846 H 0.82373 0.60032 0.7032 0.0
H1847 H 0.83674 0.57533 0.68361 0.0
C1848 C 0.94762 0.5599 0.64306 0.0
C1849 C 0.94024 0.58126 0.6372 0.0
C1850 C 0.93189 0.54704 0.65049 0.0
C1851 C 0.90822 0.55496 0.65206 0.0
C1852 C 0.90048 0.57588 0.64585 0.0
C1853 C 0.91633 0.58888 0.63843 0.0
C1854 C 0.89269 0.54241 0.66124 0.0
C1855 C 0.88346 0.5558 0.67219 0.0
C1856 C 0.89022 0.51698 0.66048 0.0
C1857 C 0.89735 0.50206 0.64847 0.0
C1858 C 0.88922 0.50786 0.63536 0.0
C1859 C 0.89614 0.49398 0.62407 0.0
C1860 C 0.91111 0.47417 0.62574 0.0
C1861 C 0.91918 0.46817 0.63871 0.0
C1862 C 0.91233 0.482 0.65004 0.0
C1863 C 0.84244 0.4928 0.71189 0.0
C1864 C 0.86197 0.48219 0.7189 0.0
C1865 C 0.84607 0.50485 0.7001 0.0
C1866 C 0.86915 0.50589 0.69507 0.0
C1867 C 0.88848 0.49498 0.70194 0.0
C1868 C 0.88499 0.48347 0.7138 0.0
C1869 C 0.87394 0.51889 0.68288 0.0
C1870 C 0.88113 0.50554 0.67141 0.0
C1871 C 0.8742 0.5443 0.68306 0.0
C1872 C 0.86646 0.55927 0.69482 0.0
C1873 C 0.87905 0.55869 0.70749 0.0
C1874 C 0.87153 0.57285 0.71854 0.0
C1875 C 0.85157 0.5878 0.717 0.0
C1876 C 0.83914 0.58868 0.70439 0.0
C1877 C 0.84658 0.57453 0.69331 0.0
H1878 H 0.84579 0.59876 0.72556 0.0
H1879 H 0.91645 0.46345 0.61698 0.0
H1880 H 0.6896 0.08118 0.39115 0.0
H1881 H 0.70891 0.10082 0.37323 0.0
H1882 H 0.73301 0.1589 0.40147 0.0
H1883 H 0.71477 0.13871 0.41982 0.0
H1884 H 0.7084 0.17148 0.37443 0.0
H1885 H 0.77402 0.12689 0.39393 0.0
H1886 H 0.79336 0.09089 0.40293 0.0
H1887 H 0.77991 0.05222 0.36451 0.0
H1888 H 0.76013 0.08788 0.35534 0.0
H1889 H 0.78084 0.21767 0.32338 0.0
H1890 H 0.76515 0.20586 0.34469 0.0
H1891 H 0.75526 0.13291 0.3279 0.0
H1892 H 0.77158 0.1444 0.30686 0.0
H1893 H 0.77628 0.13202 0.35178 0.0
H1894 H 0.70743 0.1733 0.33275 0.0
H1895 H 0.68569 0.20757 0.32324 0.0
H1896 H 0.70275 0.25077 0.35983 0.0
H1897 H 0.72486 0.21682 0.36949 0.0
C1898 C 0.69939 0.09786 0.39371 0.0
C1899 C 0.70081 0.10813 0.40705 0.0
C1900 C 0.71019 0.1092 0.38338 0.0
C1901 C 0.72238 0.13123 0.38606 0.0
C1902 C 0.72357 0.1419 0.39923 0.0
C1903 C 0.71305 0.13035 0.40968 0.0
C1904 C 0.734 0.14266 0.37494 0.0
C1905 C 0.72359 0.16324 0.36961 0.0
C1906 C 0.75339 0.13146 0.36853 0.0
C1907 C 0.76542 0.11001 0.37398 0.0
C1908 C 0.775 0.11065 0.38743 0.0
C1909 C 0.78608 0.09031 0.39256 0.0
C1910 C 0.78782 0.06926 0.3843 0.0
C1911 C 0.77853 0.06853 0.37089 0.0
C1912 C 0.76741 0.08881 0.36572 0.0
C1913 C 0.77507 0.19918 0.32421 0.0
C1914 C 0.7775 0.18194 0.31346 0.0
C1915 C 0.76607 0.19246 0.33639 0.0
C1916 C 0.75894 0.16848 0.33792 0.0
C1917 C 0.7608 0.15147 0.32703 0.0
C1918 C 0.77004 0.15809 0.31497 0.0
C1919 C 0.75033 0.16063 0.35093 0.0
C1920 C 0.76134 0.14062 0.35665 0.0
C1921 C 0.73129 0.17222 0.35757 0.0
C1922 C 0.71805 0.19263 0.35177 0.0
C1923 C 0.70672 0.19018 0.33872 0.0
C1924 C 0.6943 0.20952 0.33331 0.0
C1925 C 0.69291 0.23136 0.34091 0.0
C1926 C 0.70388 0.23386 0.35395 0.0
C1927 C 0.71635 0.21457 0.3594 0.0
H1928 H 0.68328 0.24631 0.33671 0.0
H1929 H 0.79641 0.05354 0.38829 0.0
H1930 H 0.08045 0.23788 0.6479 0.0
H1931 H 0.06056 0.259 0.62946 0.0
H1932 H 0.99145 0.23268 0.64054 0.0
H1933 H 0.01168 0.21035 0.65848 0.0
H1934 H 0.99228 0.22687 0.6155 0.0
H1935 H 0.01112 0.29479 0.6453 0.0
H1936 H 0.03588 0.32228 0.66086 0.0
H1937 H 0.08176 0.33714 0.62884 0.0
H1938 H 0.05748 0.30947 0.61312 0.0
H1939 H 0.93275 0.29879 0.56658 0.0
H1940 H 0.94759 0.2893 0.58941 0.0
H1941 H 0.02004 0.28498 0.57611 0.0
H1942 H 0.00533 0.29389 0.55321 0.0
H1943 H 0.01299 0.3098 0.60368 0.0
H1944 H 0.99442 0.23597 0.57537 0.0
H1945 H 0.96676 0.21025 0.5604 0.0
H1946 H 0.91609 0.20951 0.59151 0.0
H1947 H 0.94333 0.23555 0.6066 0.0
C1948 C 0.06099 0.23692 0.64645 0.0
C1949 C 0.04751 0.22262 0.65454 0.0
C1950 C 0.04958 0.24913 0.63599 0.0
C1951 C 0.02438 0.24784 0.63369 0.0
C1952 C 0.01088 0.234 0.64207 0.0
C1953 C 0.02238 0.22132 0.65233 0.0
C1954 C 0.0124 0.2593 0.6219 0.0
C1955 C 0.99649 0.24521 0.61316 0.0
C1956 C 0.01788 0.2832 0.61864 0.0
C1957 C 0.03256 0.2999 0.62805 0.0
C1958 C 0.02659 0.30378 0.6416 0.0
C1959 C 0.04053 0.31942 0.65044 0.0
C1960 C 0.0604 0.33142 0.64585 0.0
C1961 C 0.06636 0.32783 0.63239 0.0
C1962 C 0.0525 0.31219 0.6235 0.0
C1963 C 0.95189 0.29626 0.56859 0.0
C1964 C 0.96788 0.29688 0.55811 0.0
C1965 C 0.96031 0.29086 0.58161 0.0
C1966 C 0.98486 0.28643 0.58437 0.0
C1967 C 0.00105 0.28845 0.57414 0.0
C1968 C 0.99259 0.29339 0.56107 0.0
C1969 C 0.99339 0.2772 0.59746 0.0
C1970 C 0.00862 0.29166 0.60632 0.0
C1971 C 0.98691 0.25388 0.60102 0.0
C1972 C 0.97076 0.23791 0.59204 0.0
C1973 C 0.97729 0.23048 0.57897 0.0
C1974 C 0.96171 0.21582 0.57047 0.0
C1975 C 0.93964 0.20831 0.57498 0.0
C1976 C 0.93316 0.21538 0.58802 0.0
C1977 C 0.94867 0.23007 0.59655 0.0
H1978 H 0.92759 0.19698 0.56839 0.0
H1979 H 0.07117 0.34352 0.65272 0.0
H1980 H 0.96174 0.53204 0.88822 0.0
H1981 H 0.94016 0.51239 0.86848 0.0
H1982 H 0.88077 0.56103 0.87348 0.0
H1983 H 0.90276 0.5815 0.89297 0.0
H1984 H 0.89909 0.48875 0.86358 0.0
H1985 H 0.85782 0.57435 0.84203 0.0
H1986 H 0.86533 0.61825 0.843 0.0
H1987 H 0.94094 0.60676 0.8512 0.0
H1988 H 0.93391 0.56282 0.8501 0.0
H1989 H 0.82905 0.45077 0.80387 0.0
H1990 H 0.84067 0.47088 0.82587 0.0
H1991 H 0.89663 0.51002 0.80768 0.0
H1992 H 0.88464 0.49064 0.78565 0.0
H1993 H 0.87622 0.5387 0.82503 0.0
H1994 H 0.90794 0.4581 0.82538 0.0
H1995 H 0.90551 0.4137 0.82344 0.0
H1996 H 0.85769 0.41426 0.856 0.0
H1997 H 0.85961 0.4587 0.85802 0.0
C1998 C 0.94411 0.53862 0.88511 0.0
C1999 C 0.93413 0.55857 0.89204 0.0
C2000 C 0.93167 0.52719 0.87391 0.0
C2001 C 0.90899 0.53543 0.8694 0.0
C2002 C 0.89841 0.55459 0.87668 0.0
C2003 C 0.91091 0.56614 0.88788 0.0
C2004 C 0.89726 0.52475 0.85662 0.0
C2005 C 0.89387 0.49968 0.85519 0.0
C2006 C 0.89079 0.53898 0.84561 0.0
C2007 C 0.89527 0.56535 0.84615 0.0
C2008 C 0.87604 0.58122 0.84401 0.0
C2009 C 0.88022 0.6061 0.84458 0.0
C2010 C 0.90358 0.6153 0.84721 0.0
C2011 C 0.92284 0.59963 0.84922 0.0
C2012 C 0.91876 0.57474 0.84863 0.0
C2013 C 0.84374 0.46377 0.80455 0.0
C2014 C 0.85603 0.469 0.79303 0.0
C2015 C 0.8504 0.4752 0.81714 0.0
C2016 C 0.86975 0.49172 0.81847 0.0
C2017 C 0.88162 0.49737 0.80691 0.0
C2018 C 0.87479 0.4862 0.79431 0.0
C2019 C 0.87829 0.50263 0.83191 0.0
C2020 C 0.88102 0.52777 0.83349 0.0
C2021 C 0.88482 0.4884 0.84292 0.0
C2022 C 0.8837 0.4617 0.84174 0.0
C2023 C 0.89677 0.44875 0.83206 0.0
C2024 C 0.89551 0.42359 0.83096 0.0
C2025 C 0.8814 0.41117 0.83956 0.0
C2026 C 0.86857 0.4239 0.84932 0.0
C2027 C 0.86975 0.44907 0.85045 0.0
H2028 H 0.88044 0.39169 0.83869 0.0
H2029 H 0.90677 0.63456 0.84766 0.0
H2030 H 0.67815 0.45034 0.14484 0.0
H2031 H 0.69525 0.43128 0.12484 0.0
H2032 H 0.64039 0.37571 0.12317 0.0
H2033 H 0.62247 0.39536 0.14282 0.0
H2034 H 0.71367 0.39011 0.11623 0.0
H2035 H 0.62064 0.36428 0.09044 0.0
H2036 H 0.57807 0.37625 0.09152 0.0
H2037 H 0.60023 0.44744 0.10647 0.0
H2038 H 0.64288 0.43597 0.10529 0.0
H2039 H 0.73453 0.33338 0.05163 0.0
H2040 H 0.72079 0.34199 0.0744 0.0
H2041 H 0.68384 0.40495 0.06067 0.0
H2042 H 0.69663 0.39584 0.03784 0.0
H2043 H 0.65645 0.38355 0.07592 0.0
H2044 H 0.74011 0.40717 0.07966 0.0
H2045 H 0.78383 0.40147 0.07795 0.0
H2046 H 0.78262 0.3453 0.10595 0.0
H2047 H 0.73882 0.35049 0.10769 0.0
C2048 C 0.66983 0.43394 0.14028 0.0
C2049 C 0.64864 0.42466 0.14524 0.0
C2050 C 0.67978 0.42292 0.12893 0.0
C2051 C 0.66882 0.40235 0.12234 0.0
C2052 C 0.6489 0.39183 0.12796 0.0
C2053 C 0.63879 0.40297 0.13928 0.0
C2054 C 0.67672 0.39362 0.1089 0.0
C2055 C 0.70115 0.38843 0.10743 0.0
C2056 C 0.6605 0.392 0.09734 0.0
C2057 C 0.63491 0.39915 0.09794 0.0
C2058 C 0.6164 0.38249 0.09392 0.0
C2059 C 0.59226 0.38919 0.09455 0.0
C2060 C 0.58645 0.41256 0.09911 0.0
C2061 C 0.60475 0.42931 0.10299 0.0
C2062 C 0.6289 0.42272 0.10235 0.0
C2063 C 0.72348 0.34906 0.05349 0.0
C2064 C 0.71669 0.36397 0.04296 0.0
C2065 C 0.71571 0.35401 0.06652 0.0
C2066 C 0.7015 0.3743 0.06932 0.0
C2067 C 0.6947 0.38914 0.05878 0.0
C2068 C 0.70208 0.38396 0.04572 0.0
C2069 C 0.69352 0.3802 0.08317 0.0
C2070 C 0.669 0.38481 0.08472 0.0
C2071 C 0.70984 0.38214 0.09469 0.0
C2072 C 0.73616 0.37904 0.09368 0.0
C2073 C 0.74915 0.39349 0.08537 0.0
C2074 C 0.77394 0.39037 0.08441 0.0
C2075 C 0.78598 0.37298 0.0918 0.0
C2076 C 0.77326 0.35873 0.10021 0.0
C2077 C 0.74846 0.36176 0.10119 0.0
H2078 H 0.80518 0.3706 0.09105 0.0
H2079 H 0.56776 0.4177 0.0996 0.0
loop_
_geom_bond_atom_site_label_1
_geom_bond_atom_site_label_2
_geom_bond_distance
_geom_bond_site_symmetry_2
_ccdc_geom_bond_type
C0 C1 1.384 . S
C0 C2 1.384 . S
C0 H28 0.931 1_545 S
C1 C0 1.384 . S
C1 C4 1.382 . S
C2 C0 1.384 . S
C2 C3 1.381 . S
C2 H29 0.956 . S
C3 C2 1.381 . S
C3 C5 1.381 . S
C3 C6 1.487 . S
C4 C1 1.382 . S
C4 C5 1.387 . S
C4 H30 0.930 . S
C5 C3 1.381 . S
C5 C4 1.387 . S
C5 H31 0.931 . S
C6 C3 1.487 . S
C6 C13 1.399 . S
C6 N44 1.343 . S
C7 C8 1.384 1_545 S
C7 C9 1.384 . S
C7 H32 0.931 . S
C8 C7 1.384 1_565 S
C8 C11 1.382 . S
C9 C7 1.384 . S
C9 C10 1.381 . S
C9 H33 0.930 . S
C10 C9 1.381 . S
C10 C12 1.381 . S
C10 C13 1.487 . S
C11 C8 1.382 . S
C11 C12 1.387 1_565 S
C11 H34 0.930 . S
C12 C10 1.381 . S
C12 C11 1.387 1_545 S
C12 H35 0.931 . S
C13 C6 1.399 . S
C13 C10 1.487 . S
C13 N45 1.343 . S
C14 C15 1.384 . S
C14 C16 1.384 . S
C14 H36 0.931 . S
C15 C14 1.384 . S
C15 C18 1.382 . S
C16 C14 1.384 . S
C16 C17 1.381 . S
C16 H37 0.930 . S
C17 C16 1.381 . S
C17 C19 1.381 . S
C17 C20 1.487 . S
C18 C15 1.382 . S
C18 C19 1.387 . S
C18 H38 0.930 . S
C19 C17 1.381 . S
C19 C18 1.387 . S
C19 H39 0.931 . S
C20 C17 1.487 . S
C20 C27 1.399 . S
C20 N45 1.343 . S
C21 C22 1.384 . S
C21 C23 1.384 . S
C21 H40 0.931 . S
C22 C21 1.384 . S
C22 C25 1.382 . S
C23 C21 1.384 . S
C23 C24 1.381 . S
C23 H41 0.930 . S
C24 C23 1.381 . S
C24 C26 1.381 . S
C24 C27 1.487 . S
C25 C22 1.382 . S
C25 C26 1.387 . S
C25 H42 0.930 . S
C26 C24 1.381 . S
C26 C25 1.387 . S
C26 H43 0.931 . S
C27 C20 1.399 . S
C27 C24 1.487 . S
C27 N44 1.343 . S
H28 C0 0.931 1_565 S
H29 C2 0.956 . S
H30 C4 0.930 . S
H31 C5 0.931 . S
H32 C7 0.931 . S
H33 C9 0.930 . S
H34 C11 0.930 . S
H35 C12 0.931 . S
H36 C14 0.931 . S
H37 C16 0.930 . S
H38 C18 0.930 . S
H39 C19 0.931 . S
H40 C21 0.931 . S
H41 C23 0.930 . S
H42 C25 0.930 . S
H43 C26 0.931 . S
N44 C6 1.343 . S
N44 C27 1.343 . S
N45 C13 1.343 . S
N45 C20 1.343 . S
C46 C47 1.384 . S
C46 C48 1.384 . S
C46 H74 0.931 . S
C47 C46 1.384 . S
C47 C50 1.382 1_655 S
C48 C46 1.384 . S
C48 C49 1.381 1_655 S
C48 H75 0.930 . S
C49 C48 1.381 1_455 S
C49 C51 1.381 . S
C49 C52 1.487 . S
C50 C47 1.382 1_455 S
C50 C51 1.387 . S
C50 H76 0.930 . S
C51 C49 1.381 . S
C51 C50 1.387 . S
C51 H77 0.931 . S
C52 C49 1.487 . S
C52 C59 1.399 . S
C52 N90 1.343 . S
C53 C54 1.384 . S
C53 C55 1.384 . S
C53 H78 0.931 . S
C54 C53 1.384 . S
C54 C57 1.382 . S
C55 C53 1.384 . S
C55 C56 1.381 . S
C55 H79 0.930 . S
C56 C55 1.381 . S
C56 C58 1.381 . S
C56 C59 1.487 . S
C57 C54 1.382 . S
C57 C58 1.387 . S
C57 H80 0.930 1_455 S
C58 C56 1.381 . S
C58 C57 1.387 . S
C58 H81 0.931 . S
C59 C52 1.399 . S
C59 C56 1.487 . S
C59 N91 1.343 . S
C60 C61 1.384 . S
C60 C62 1.384 . S
C60 H82 0.931 . S
C61 C60 1.384 . S
C61 C64 1.382 . S
C62 C60 1.384 . S
C62 C63 1.381 . S
C62 H83 0.930 . S
C63 C62 1.381 . S
C63 C65 1.381 . S
C63 C66 1.487 . S
C64 C61 1.382 . S
C64 C65 1.387 . S
C64 H84 0.930 . S
C65 C63 1.381 . S
C65 C64 1.387 . S
C65 H85 0.931 . S
C66 C63 1.487 . S
C66 C73 1.399 . S
C66 N91 1.343 . S
C67 C68 1.384 . S
C67 C69 1.384 . S
C67 H86 0.931 . S
C68 C67 1.384 . S
C68 C71 1.382 . S
C69 C67 1.384 . S
C69 C70 1.381 . S
C69 H87 0.930 . S
C70 C69 1.381 . S
C70 C72 1.381 . S
C70 C73 1.487 . S
C71 C68 1.382 . S
C71 C72 1.387 . S
C71 H88 0.930 . S
C72 C70 1.381 . S
C72 C71 1.387 . S
C72 H89 0.931 . S
C73 C66 1.399 . S
C73 C70 1.487 . S
C73 N90 1.343 . S
H74 C46 0.931 . S
H75 C48 0.930 . S
H76 C50 0.930 . S
H77 C51 0.931 . S
H78 C53 0.931 . S
H79 C55 0.930 . S
H80 C57 0.930 1_655 S
H81 C58 0.931 . S
H82 C60 0.931 . S
H83 C62 0.930 . S
H84 C64 0.930 . S
H85 C65 0.931 . S
H86 C67 0.931 . S
H87 C69 0.930 . S
H88 C71 0.930 . S
H89 C72 0.931 . S
N90 C52 1.343 . S
N90 C73 1.343 . S
N91 C59 1.343 . S
N91 C66 1.343 . S
C92 C93 1.384 . S
C92 C94 1.384 . S
C92 H120 0.931 . S
C93 C92 1.384 . S
C93 C96 1.382 . S
C94 C92 1.384 . S
C94 C95 1.381 . S
C94 H121 0.930 . S
C95 C94 1.381 . S
C95 C97 1.381 . S
C95 C98 1.487 . S
C96 C93 1.382 . S
C96 C97 1.387 . S
C96 H122 0.930 . S
C97 C95 1.381 . S
C97 C96 1.387 . S
C97 H123 0.931 . S
C98 C95 1.487 . S
C98 C105 1.399 . S
C98 N136 1.343 . S
C99 C100 1.384 . S
C99 C101 1.384 . S
C99 H124 0.931 . S
C100 C99 1.384 . S
C100 C103 1.382 . S
C101 C99 1.384 . S
C101 C102 1.381 . S
C101 H125 0.930 . S
C102 C101 1.381 . S
C102 C104 1.381 . S
C102 C105 1.487 . S
C103 C100 1.382 . S
C103 C104 1.387 . S
C103 H126 0.930 . S
C104 C102 1.381 . S
C104 C103 1.387 . S
C104 H127 0.931 . S
C105 C98 1.399 . S
C105 C102 1.487 . S
C105 N137 1.343 . S
C106 C107 1.384 . S
C106 C108 1.384 . S
C106 H128 0.931 . S
C107 C106 1.384 . S
C107 C110 1.382 . S
C108 C106 1.384 . S
C108 C109 1.381 . S
C108 H129 0.930 . S
C109 C108 1.381 . S
C109 C111 1.381 . S
C109 C112 1.487 . S
C110 C107 1.382 . S
C110 C111 1.387 . S
C110 H130 0.930 . S
C111 C109 1.381 . S
C111 C110 1.387 . S
C111 H131 0.931 . S
C112 C109 1.487 . S
C112 C119 1.399 . S
C112 N137 1.343 . S
C113 C114 1.384 . S
C113 C115 1.384 . S
C113 H132 0.931 . S
C114 C113 1.384 . S
C114 C117 1.382 . S
C115 C113 1.384 . S
C115 C116 1.381 . S
C115 H133 0.930 . S
C116 C115 1.381 . S
C116 C118 1.381 . S
C116 C119 1.487 . S
C117 C114 1.382 . S
C117 C118 1.387 . S
C117 H134 0.930 . S
C118 C116 1.381 . S
C118 C117 1.387 . S
C118 H135 0.931 . S
C119 C112 1.399 . S
C119 C116 1.487 . S
C119 N136 1.343 . S
H120 C92 0.931 . S
H121 C94 0.930 . S
H122 C96 0.930 . S
H123 C97 0.931 . S
H124 C99 0.931 . S
H125 C101 0.930 . S
H126 C103 0.930 . S
H127 C104 0.931 . S
H128 C106 0.931 . S
H129 C108 0.930 . S
H130 C110 0.930 . S
H131 C111 0.931 . S
H132 C113 0.931 . S
H133 C115 0.930 . S
H134 C117 0.930 . S
H135 C118 0.931 . S
N136 C98 1.343 . S
N136 C119 1.343 . S
N137 C105 1.343 . S
N137 C112 1.343 . S
C138 C139 1.384 . S
C138 C140 1.384 . S
C138 H166 0.931 . S
C139 C138 1.384 . S
C139 C142 1.382 . S
C140 C138 1.384 . S
C140 C141 1.381 . S
C140 H167 0.930 . S
C141 C140 1.381 . S
C141 C143 1.381 . S
C141 C144 1.487 . S
C142 C139 1.382 . S
C142 C143 1.387 . S
C142 H168 0.930 . S
C143 C141 1.381 . S
C143 C142 1.387 . S
C143 H169 0.931 . S
C144 C141 1.487 . S
C144 C151 1.399 . S
C144 N182 1.343 1_565 S
C145 C146 1.384 . S
C145 C147 1.384 . S
C145 H170 0.931 . S
C146 C145 1.384 . S
C146 C149 1.382 . S
C147 C145 1.384 . S
C147 C148 1.381 . S
C147 H171 0.930 . S
C148 C147 1.381 . S
C148 C150 1.381 . S
C148 C151 1.487 . S
C149 C146 1.382 . S
C149 C150 1.387 . S
C149 H172 0.930 . S
C150 C148 1.381 . S
C150 C149 1.387 . S
C150 H173 0.931 . S
C151 C144 1.399 . S
C151 C148 1.487 . S
C151 N183 1.343 . S
C152 C153 1.384 . S
C152 C154 1.384 . S
C152 H174 0.931 . S
C153 C152 1.384 . S
C153 C156 1.382 . S
C154 C152 1.384 . S
C154 C155 1.381 . S
C154 H175 0.930 . S
C155 C154 1.381 . S
C155 C157 1.381 . S
C155 C158 1.487 . S
C156 C153 1.382 . S
C156 C157 1.387 . S
C156 H176 0.930 . S
C157 C155 1.381 . S
C157 C156 1.387 . S
C157 H177 0.931 . S
C158 C155 1.487 . S
C158 C165 1.399 . S
C158 N183 1.343 1_545 S
C159 C160 1.384 . S
C159 C161 1.384 . S
C159 H178 0.931 . S
C160 C159 1.384 . S
C160 C163 1.382 . S
C161 C159 1.384 . S
C161 C162 1.381 . S
C161 H179 0.930 . S
C162 C161 1.381 . S
C162 C164 1.381 . S
C162 C165 1.487 . S
C163 C160 1.382 . S
C163 C164 1.387 . S
C163 H180 0.930 . S
C164 C162 1.381 . S
C164 C163 1.387 . S
C164 H181 0.931 . S
C165 C158 1.399 . S
C165 C162 1.487 . S
C165 N182 1.343 . S
H166 C138 0.931 . S
H167 C140 0.930 . S
H168 C142 0.930 . S
H169 C143 0.931 . S
H170 C145 0.931 . S
H171 C147 0.930 . S
H172 C149 0.930 . S
H173 C150 0.931 . S
H174 C152 0.931 . S
H175 C154 0.930 . S
H176 C156 0.930 . S
H177 C157 0.931 . S
H178 C159 0.931 . S
H179 C161 0.930 . S
H180 C163 0.930 . S
H181 C164 0.931 . S
N182 C144 1.343 1_545 S
N182 C165 1.343 . S
N183 C151 1.343 . S
N183 C158 1.343 1_565 S
C184 C185 1.384 . S
C184 C186 1.384 . S
C184 H212 0.931 . S
C185 C184 1.384 . S
C185 C188 1.382 . S
C186 C184 1.384 . S
C186 C187 1.381 . S
C186 H213 0.930 . S
C187 C186 1.381 . S
C187 C189 1.381 . S
C187 C190 1.487 . S
C188 C185 1.382 . S
C188 C189 1.387 . S
C188 H214 0.930 . S
C189 C187 1.381 . S
C189 C188 1.387 . S
C189 H215 0.931 . S
C190 C187 1.487 . S
C190 C197 1.399 . S
C190 N228 1.345 1_455 S
C191 C192 1.384 . S
C191 C193 1.384 . S
C191 H216 0.931 . S
C192 C191 1.384 . S
C192 C195 1.382 . S
C193 C191 1.384 . S
C193 C194 1.381 . S
C193 H217 0.930 . S
C194 C193 1.381 . S
C194 C196 1.381 . S
C194 C197 1.487 . S
C195 C192 1.382 . S
C195 C196 1.387 . S
C195 H218 0.930 . S
C196 C194 1.381 . S
C196 C195 1.387 . S
C196 H219 0.931 . S
C197 C190 1.399 . S
C197 C194 1.487 . S
C197 N229 1.355 . S
C198 C199 1.384 . S
C198 C200 1.384 . S
C198 H220 0.931 . S
C199 C198 1.384 . S
C199 C202 1.382 . S
C200 C198 1.384 . S
C200 C201 1.381 . S
C200 H221 0.930 . S
C201 C200 1.381 . S
C201 C203 1.381 . S
C201 C204 1.487 . S
C202 C199 1.382 . S
C202 C203 1.387 . S
C202 H222 0.930 . S
C203 C201 1.381 . S
C203 C202 1.387 . S
C203 H223 0.931 . S
C204 C201 1.487 . S
C204 C211 1.399 . S
C204 N229 1.332 1_655 S
C205 C206 1.384 . S
C205 C207 1.384 . S
C205 H224 0.931 . S
C206 C205 1.384 . S
C206 C209 1.382 . S
C207 C205 1.384 . S
C207 C208 1.381 . S
C207 H225 0.930 . S
C208 C207 1.381 . S
C208 C210 1.381 . S
C208 C211 1.487 . S
C209 C206 1.382 . S
C209 C210 1.387 . S
C209 H226 0.930 . S
C210 C208 1.381 . S
C210 C209 1.387 . S
C210 H227 0.931 . S
C211 C204 1.399 . S
C211 C208 1.487 . S
C211 N228 1.341 . S
H212 C184 0.931 . S
H213 C186 0.930 . S
H214 C188 0.930 . S
H215 C189 0.931 . S
H216 C191 0.931 . S
H217 C193 0.930 . S
H218 C195 0.930 . S
H219 C196 0.931 . S
H220 C198 0.931 . S
H221 C200 0.930 . S
H222 C202 0.930 . S
H223 C203 0.931 . S
H224 C205 0.931 . S
H225 C207 0.930 . S
H226 C209 0.930 . S
H227 C210 0.931 . S
N228 C190 1.345 1_655 S
N228 C211 1.341 . S
N229 C197 1.355 . S
N229 C204 1.332 1_455 S
C230 C231 1.384 . S
C230 C232 1.384 . S
C230 H258 0.931 . S
C231 C230 1.384 . S
C231 C234 1.382 . S
C232 C230 1.384 . S
C232 C233 1.381 . S
C232 H259 0.930 . S
C233 C232 1.381 . S
C233 C235 1.381 . S
C233 C236 1.487 . S
C234 C231 1.382 . S
C234 C235 1.387 . S
C234 H260 0.930 . S
C235 C233 1.381 . S
C235 C234 1.387 . S
C235 H261 0.931 . S
C236 C233 1.487 . S
C236 C243 1.399 . S
C236 N274 1.343 . S
C237 C238 1.384 . S
C237 C239 1.384 . S
C237 H262 0.931 . S
C238 C237 1.384 . S
C238 C241 1.382 . S
C239 C237 1.384 . S
C239 C240 1.381 . S
C239 H263 0.930 . S
C240 C239 1.381 . S
C240 C242 1.381 . S
C240 C243 1.487 . S
C241 C238 1.382 . S
C241 C242 1.387 . S
C241 H264 0.930 . S
C242 C240 1.381 . S
C242 C241 1.387 . S
C242 H265 0.931 . S
C243 C236 1.399 . S
C243 C240 1.487 . S
C243 N275 1.343 . S
C244 C245 1.384 . S
C244 C246 1.384 . S
C244 H266 0.931 . S
C245 C244 1.384 . S
C245 C248 1.382 . S
C246 C244 1.384 . S
C246 C247 1.381 . S
C246 H267 0.930 . S
C247 C246 1.381 . S
C247 C249 1.381 . S
C247 C250 1.487 . S
C248 C245 1.382 . S
C248 C249 1.387 . S
C248 H268 0.930 . S
C249 C247 1.381 . S
C249 C248 1.387 . S
C249 H269 0.931 . S
C250 C247 1.487 . S
C250 C257 1.399 . S
C250 N275 1.343 . S
C251 C252 1.384 . S
C251 C253 1.384 . S
C251 H270 0.931 . S
C252 C251 1.384 . S
C252 C255 1.382 . S
C253 C251 1.384 . S
C253 C254 1.381 . S
C253 H271 0.930 . S
C254 C253 1.381 . S
C254 C256 1.381 . S
C254 C257 1.487 . S
C255 C252 1.382 . S
C255 C256 1.387 . S
C255 H272 0.930 . S
C256 C254 1.381 . S
C256 C255 1.387 . S
C256 H273 0.931 . S
C257 C250 1.399 . S
C257 C254 1.487 . S
C257 N274 1.343 . S
H258 C230 0.931 . S
H259 C232 0.930 . S
H260 C234 0.930 . S
H261 C235 0.931 . S
H262 C237 0.931 . S
H263 C239 0.930 . S
H264 C241 0.930 . S
H265 C242 0.931 . S
H266 C244 0.931 . S
H267 C246 0.930 . S
H268 C248 0.930 . S
H269 C249 0.931 . S
H270 C251 0.931 . S
H271 C253 0.930 . S
H272 C255 0.930 . S
H273 C256 0.931 . S
N274 C236 1.343 . S
N274 C257 1.343 . S
N275 C243 1.343 . S
N275 C250 1.343 . S
C276 C277 1.384 . S
C276 C278 1.384 . S
C276 H304 0.931 . S
C277 C276 1.384 . S
C277 C280 1.382 . S
C278 C276 1.384 . S
C278 C279 1.381 . S
C278 H305 0.930 . S
C279 C278 1.381 . S
C279 C281 1.381 1_565 S
C279 C282 1.487 1_565 S
C280 C277 1.382 . S
C280 C281 1.387 1_565 S
C280 H306 0.930 . S
C281 C279 1.381 1_545 S
C281 C280 1.387 1_545 S
C281 H307 0.931 . S
C282 C279 1.487 1_545 S
C282 C289 1.399 . S
C282 N320 1.343 . S
C283 C284 1.397 . S
C283 C285 1.374 1_565 S
C283 H308 0.929 1_565 S
C284 C283 1.397 . S
C284 C287 1.382 . S
C285 C283 1.374 1_545 S
C285 C286 1.381 . S
C285 H309 0.930 . S
C286 C285 1.381 . S
C286 C288 1.381 1_545 S
C286 C289 1.487 . S
C287 C284 1.382 . S
C287 C288 1.387 . S
C287 H310 0.930 . S
C288 C286 1.381 1_565 S
C288 C287 1.387 . S
C288 H311 0.931 . S
C289 C282 1.399 . S
C289 C286 1.487 . S
C289 N321 1.343 . S
C290 C291 1.384 . S
C290 C292 1.384 . S
C290 H312 0.931 . S
C291 C290 1.384 . S
C291 C294 1.382 . S
C292 C290 1.384 . S
C292 C293 1.381 . S
C292 H313 0.930 . S
C293 C292 1.381 . S
C293 C295 1.381 . S
C293 C296 1.487 . S
C294 C291 1.382 . S
C294 C295 1.387 . S
C294 H314 0.930 . S
C295 C293 1.381 . S
C295 C294 1.387 . S
C295 H315 0.931 . S
C296 C293 1.487 . S
C296 C303 1.399 . S
C296 N321 1.343 . S
C297 C298 1.384 . S
C297 C299 1.384 . S
C297 H316 0.931 . S
C298 C297 1.384 . S
C298 C301 1.382 . S
C299 C297 1.384 . S
C299 C300 1.381 . S
C299 H317 0.930 . S
C300 C299 1.381 . S
C300 C302 1.381 . S
C300 C303 1.487 . S
C301 C298 1.382 . S
C301 C302 1.387 . S
C301 H318 0.930 . S
C302 C300 1.381 . S
C302 C301 1.387 . S
C302 H319 0.931 . S
C303 C296 1.399 . S
C303 C300 1.487 . S
C303 N320 1.343 . S
H304 C276 0.931 . S
H305 C278 0.930 . S
H306 C280 0.930 . S
H307 C281 0.931 . S
H308 C283 0.929 1_545 S
H309 C285 0.930 . S
H310 C287 0.930 . S
H311 C288 0.931 . S
H312 C290 0.931 . S
H313 C292 0.930 . S
H314 C294 0.930 . S
H315 C295 0.931 . S
H316 C297 0.931 . S
H317 C299 0.930 . S
H318 C301 0.930 . S
H319 C302 0.931 . S
N320 C282 1.343 . S
N320 C303 1.343 . S
N321 C289 1.343 . S
N321 C296 1.343 . S
C322 C323 1.384 . S
C322 C324 1.384 . S
C322 H350 0.931 . S
C323 C322 1.384 . S
C323 C326 1.382 . S
C324 C322 1.384 . S
C324 C325 1.381 . S
C324 H351 0.930 . S
C325 C324 1.381 . S
C325 C327 1.381 . S
C325 C328 1.487 . S
C326 C323 1.382 . S
C326 C327 1.387 . S
C326 H352 0.930 . S
C327 C325 1.381 . S
C327 C326 1.387 . S
C327 H353 0.931 . S
C328 C325 1.487 . S
C328 C335 1.399 . S
C328 N366 1.343 . S
C329 C330 1.384 . S
C329 C331 1.384 . S
C329 H354 0.931 . S
C330 C329 1.384 . S
C330 C333 1.382 . S
C331 C329 1.384 . S
C331 C332 1.381 . S
C331 H355 0.930 . S
C332 C331 1.381 . S
C332 C334 1.381 . S
C332 C335 1.487 . S
C333 C330 1.382 . S
C333 C334 1.387 . S
C333 H356 0.930 . S
C334 C332 1.381 . S
C334 C333 1.387 . S
C334 H357 0.931 . S
C335 C328 1.399 . S
C335 C332 1.487 . S
C335 N367 1.343 . S
C336 C337 1.384 . S
C336 C338 1.384 . S
C336 H358 0.931 . S
C337 C336 1.384 . S
C337 C340 1.382 . S
C338 C336 1.384 . S
C338 C339 1.381 . S
C338 H359 0.930 . S
C339 C338 1.381 . S
C339 C341 1.381 . S
C339 C342 1.487 . S
C340 C337 1.382 . S
C340 C341 1.387 . S
C340 H360 0.930 . S
C341 C339 1.381 . S
C341 C340 1.387 . S
C341 H361 0.931 . S
C342 C339 1.487 . S
C342 C349 1.399 . S
C342 N367 1.343 . S
C343 C344 1.384 . S
C343 C345 1.384 . S
C343 H362 0.931 . S
C344 C343 1.384 . S
C344 C347 1.382 . S
C345 C343 1.384 . S
C345 C346 1.381 . S
C345 H363 0.930 . S
C346 C345 1.381 . S
C346 C348 1.381 . S
C346 C349 1.487 . S
C347 C344 1.382 . S
C347 C348 1.387 . S
C347 H364 0.930 . S
C348 C346 1.381 . S
C348 C347 1.387 . S
C348 H365 0.931 . S
C349 C342 1.399 . S
C349 C346 1.487 . S
C349 N366 1.343 . S
H350 C322 0.931 . S
H351 C324 0.930 . S
H352 C326 0.930 . S
H353 C327 0.931 . S
H354 C329 0.931 . S
H355 C331 0.930 . S
H356 C333 0.930 . S
H357 C334 0.931 . S
H358 C336 0.931 . S
H359 C338 0.930 . S
H360 C340 0.930 . S
H361 C341 0.931 . S
H362 C343 0.931 . S
H363 C345 0.930 . S
H364 C347 0.930 . S
H365 C348 0.931 . S
N366 C328 1.343 . S
N366 C349 1.343 . S
N367 C335 1.343 . S
N367 C342 1.343 . S
O368 Cd369 2.223 . S
O368 C376 1.315 . S
Cd369 O368 2.223 . S
Cd369 O372 2.297 . S
Cd369 O373 2.439 . S
Cd369 O379 2.240 . S
Cd370 O371 2.240 . S
Cd370 O378 2.223 . S
Cd370 O380 2.297 . S
Cd370 O381 2.439 . S
O371 Cd370 2.240 . S
O371 C376 1.279 . S
O372 Cd369 2.297 . S
O372 C374 1.247 . S
O373 Cd369 2.439 . S
O373 C374 1.208 . S
C374 O372 1.247 . S
C374 O373 1.208 . S
C375 O380 1.247 . S
C375 O381 1.208 . S
C376 O368 1.315 . S
C376 O371 1.279 . S
C377 O378 1.315 . S
C377 O379 1.279 . S
O378 Cd370 2.223 . S
O378 C377 1.315 . S
O379 Cd369 2.240 . S
O379 C377 1.279 . S
O380 Cd370 2.297 . S
O380 C375 1.247 . S
O381 Cd370 2.439 . S
O381 C375 1.208 . S
O382 Cd383 2.223 . S
O382 C390 1.315 . S
Cd383 O382 2.223 . S
Cd383 O386 2.297 . S
Cd383 O387 2.439 . S
Cd383 O393 2.240 . S
Cd384 O385 2.240 . S
Cd384 O392 2.223 . S
Cd384 O394 2.297 . S
Cd384 O395 2.439 . S
O385 Cd384 2.240 . S
O385 C390 1.279 . S
O386 Cd383 2.297 . S
O386 C388 1.247 . S
O387 Cd383 2.439 . S
O387 C388 1.208 . S
C388 O386 1.247 . S
C388 O387 1.208 . S
C389 O394 1.247 . S
C389 O395 1.208 . S
C390 O382 1.315 . S
C390 O385 1.279 . S
C391 O392 1.315 . S
C391 O393 1.279 . S
O392 Cd384 2.223 . S
O392 C391 1.315 . S
O393 Cd383 2.240 . S
O393 C391 1.279 . S
O394 Cd384 2.297 . S
O394 C389 1.247 . S
O395 Cd384 2.439 . S
O395 C389 1.208 . S
O396 Cd397 2.223 . S
O396 C404 1.315 . S
Cd397 O396 2.223 . S
Cd397 O400 2.297 . S
Cd397 O401 2.439 . S
Cd397 O407 2.240 . S
Cd398 O399 2.240 . S
Cd398 O406 2.223 . S
Cd398 O408 2.297 . S
Cd398 O409 2.439 . S
O399 Cd398 2.240 . S
O399 C404 1.279 . S
O400 Cd397 2.297 . S
O400 C402 1.247 . S
O401 Cd397 2.439 . S
O401 C402 1.208 . S
C402 O400 1.247 . S
C402 O401 1.208 . S
C403 O408 1.247 . S
C403 O409 1.208 . S
C404 O396 1.315 . S
C404 O399 1.279 . S
C405 O406 1.315 . S
C405 O407 1.279 . S
O406 Cd398 2.223 . S
O406 C405 1.315 . S
O407 Cd397 2.240 . S
O407 C405 1.279 . S
O408 Cd398 2.297 . S
O408 C403 1.247 . S
O409 Cd398 2.439 . S
O409 C403 1.208 . S
O410 Cd411 2.223 . S
O410 C418 1.315 . S
Cd411 O410 2.223 . S
Cd411 O414 2.297 . S
Cd411 O415 2.439 . S
Cd411 O421 2.240 . S
Cd412 O413 2.240 . S
Cd412 O420 2.223 . S
Cd412 O422 2.297 . S
Cd412 O423 2.439 . S
O413 Cd412 2.240 . S
O413 C418 1.279 . S
O414 Cd411 2.297 . S
O414 C416 1.247 . S
O415 Cd411 2.439 . S
O415 C416 1.208 . S
C416 O414 1.247 . S
C416 O415 1.208 . S
C417 O422 1.247 . S
C417 O423 1.208 . S
C418 O410 1.315 . S
C418 O413 1.279 . S
C419 O420 1.315 . S
C419 O421 1.279 . S
O420 Cd412 2.223 . S
O420 C419 1.315 . S
O421 Cd411 2.240 . S
O421 C419 1.279 . S
O422 Cd412 2.297 . S
O422 C417 1.247 . S
O423 Cd412 2.439 . S
O423 C417 1.208 . S
O424 Cd425 2.223 . S
O424 C432 1.315 . S
Cd425 O424 2.223 . S
Cd425 O428 2.297 . S
Cd425 O429 2.439 . S
Cd425 O435 2.240 . S
Cd426 O427 2.240 . S
Cd426 O434 2.223 . S
Cd426 O436 2.297 . S
Cd426 O437 2.439 . S
O427 Cd426 2.240 . S
O427 C432 1.279 . S
O428 Cd425 2.297 . S
O428 C430 1.247 . S
O429 Cd425 2.439 . S
O429 C430 1.208 . S
C430 O428 1.247 . S
C430 O429 1.208 . S
C431 O436 1.247 . S
C431 O437 1.208 . S
C432 O424 1.315 . S
C432 O427 1.279 . S
C433 O434 1.315 . S
C433 O435 1.279 . S
O434 Cd426 2.223 . S
O434 C433 1.315 . S
O435 Cd425 2.240 . S
O435 C433 1.279 . S
O436 Cd426 2.297 . S
O436 C431 1.247 . S
O437 Cd426 2.439 . S
O437 C431 1.208 . S
O438 Cd439 2.223 . S
O438 C446 1.315 . S
Cd439 O438 2.223 . S
Cd439 O442 2.297 . S
Cd439 O443 2.439 . S
Cd439 O449 2.240 . S
Cd440 O441 2.240 . S
Cd440 O448 2.223 . S
Cd440 O450 2.297 . S
Cd440 O451 2.439 . S
O441 Cd440 2.240 . S
O441 C446 1.279 . S
O442 Cd439 2.297 . S
O442 C444 1.247 . S
O443 Cd439 2.439 . S
O443 C444 1.208 . S
C444 O442 1.247 . S
C444 O443 1.208 . S
C445 O450 1.247 . S
C445 O451 1.208 . S
C446 O438 1.315 . S
C446 O441 1.279 . S
C447 O448 1.315 . S
C447 O449 1.279 . S
O448 Cd440 2.223 . S
O448 C447 1.315 . S
O449 Cd439 2.240 . S
O449 C447 1.279 . S
O450 Cd440 2.297 . S
O450 C445 1.247 . S
O451 Cd440 2.439 . S
O451 C445 1.208 . S
O452 Cd453 2.223 . S
O452 C460 1.315 . S
Cd453 O452 2.223 . S
Cd453 O456 2.297 . S
Cd453 O457 2.439 . S
Cd453 O463 2.240 1_554 S
Cd454 O455 2.209 1_556 S
Cd454 O462 2.223 1_556 S
Cd454 O464 2.332 . S
Cd454 O465 2.465 . S
O455 Cd454 2.209 1_554 S
O455 C460 1.279 . S
O456 Cd453 2.297 . S
O456 C458 1.247 . S
O457 Cd453 2.439 . S
O457 C458 1.208 . S
C458 O456 1.247 . S
C458 O457 1.208 . S
C459 O464 1.247 . S
C459 O465 1.208 . S
C460 O452 1.315 . S
C460 O455 1.279 . S
C461 O462 1.308 1_556 S
C461 O463 1.289 . S
O462 Cd454 2.223 1_554 S
O462 C461 1.308 1_554 S
O463 Cd453 2.240 1_556 S
O463 C461 1.289 . S
O464 Cd454 2.332 . S
O464 C459 1.247 . S
O465 Cd454 2.465 . S
O465 C459 1.208 . S
O466 Cd467 2.223 . S
O466 C474 1.315 . S
Cd467 O466 2.223 . S
Cd467 O470 2.297 . S
Cd467 O471 2.439 . S
Cd467 O477 2.240 . S
Cd468 O469 2.240 . S
Cd468 O476 2.223 . S
Cd468 O478 2.297 . S
Cd468 O479 2.439 . S
O469 Cd468 2.240 . S
O469 C474 1.279 . S
O470 Cd467 2.297 . S
O470 C472 1.247 . S
O471 Cd467 2.439 . S
O471 C472 1.208 . S
C472 O470 1.247 . S
C472 O471 1.208 . S
C473 O478 1.247 . S
C473 O479 1.208 . S
C474 O466 1.315 . S
C474 O469 1.279 . S
C475 O476 1.315 . S
C475 O477 1.279 . S
O476 Cd468 2.223 . S
O476 C475 1.315 . S
O477 Cd467 2.240 . S
O477 C475 1.279 . S
O478 Cd468 2.297 . S
O478 C473 1.247 . S
O479 Cd468 2.439 . S
O479 C473 1.208 . S
H480 C498 0.951 1_545 S
H481 C500 0.951 . S
H482 C502 0.950 . S
H483 C503 0.950 . S
H484 C505 0.950 . S
H485 C508 0.950 . S
H486 C509 0.950 . S
H487 C511 0.950 . S
H488 C512 0.950 . S
H489 C513 0.951 . S
H490 C515 0.951 . S
H491 C517 0.950 . S
H492 C518 0.950 . S
H493 C520 0.950 . S
H494 C523 0.950 . S
H495 C524 0.950 . S
H496 C526 0.950 . S
H497 C527 0.950 . S
C498 H480 0.951 1_565 S
C498 C499 1.366 . S
C498 C500 1.388 . S
C499 C498 1.366 . S
C499 C503 1.385 . S
C500 H481 0.951 . S
C500 C498 1.388 . S
C500 C501 1.366 . S
C501 C500 1.366 . S
C501 C502 1.414 . S
C501 C504 1.499 . S
C502 H482 0.950 . S
C502 C501 1.414 . S
C502 C503 1.374 . S
C503 H483 0.950 . S
C503 C499 1.385 . S
C503 C502 1.374 . S
C504 C501 1.499 . S
C504 C505 1.373 . S
C504 C506 1.389 . S
C505 H484 0.950 . S
C505 C504 1.373 . S
C505 C521 1.377 . S
C506 C504 1.389 . S
C506 C507 1.524 . S
C506 C520 1.377 . S
C507 C506 1.524 . S
C507 C508 1.397 . S
C507 C512 1.363 . S
C508 H485 0.950 . S
C508 C507 1.397 . S
C508 C509 1.334 1_565 S
C509 H486 0.950 . S
C509 C508 1.334 1_545 S
C509 C510 1.287 . S
C510 C509 1.287 . S
C510 C511 1.524 . S
C510 H529 0.913 . S
C511 H487 0.950 . S
C511 C510 1.524 . S
C511 C512 1.415 1_545 S
C512 H488 0.950 . S
C512 C507 1.363 . S
C512 C511 1.415 1_565 S
C513 H489 0.951 . S
C513 C514 1.366 . S
C513 C515 1.388 . S
C514 C513 1.366 . S
C514 C518 1.385 . S
C515 H490 0.951 . S
C515 C513 1.388 . S
C515 C516 1.366 . S
C516 C515 1.366 . S
C516 C517 1.414 . S
C516 C519 1.499 . S
C517 H491 0.950 . S
C517 C516 1.414 . S
C517 C518 1.374 . S
C518 H492 0.950 . S
C518 C514 1.385 . S
C518 C517 1.374 . S
C519 C516 1.499 . S
C519 C520 1.373 . S
C519 C521 1.389 . S
C520 H493 0.950 . S
C520 C506 1.377 . S
C520 C519 1.373 . S
C521 C505 1.377 . S
C521 C519 1.389 . S
C521 C522 1.524 . S
C522 C521 1.524 . S
C522 C523 1.397 . S
C522 C527 1.363 . S
C523 H494 0.950 . S
C523 C522 1.397 . S
C523 C524 1.334 . S
C524 H495 0.950 . S
C524 C523 1.334 . S
C524 C525 1.287 . S
C525 C524 1.287 . S
C525 C526 1.524 . S
C525 H528 0.999 . S
C526 H496 0.950 . S
C526 C525 1.524 . S
C526 C527 1.415 . S
C527 H497 0.950 . S
C527 C522 1.363 . S
C527 C526 1.415 . S
H528 C525 0.999 . S
H529 C510 0.913 . S
H530 C548 0.951 . S
H531 C550 0.951 . S
H532 C552 0.950 . S
H533 C553 0.950 . S
H534 C555 0.950 . S
H535 C558 0.950 . S
H536 C559 0.950 . S
H537 C561 0.950 . S
H538 C562 0.950 . S
H539 C563 0.951 . S
H540 C565 0.951 . S
H541 C567 0.950 . S
H542 C568 0.950 . S
H543 C570 0.950 . S
H544 C573 0.950 . S
H545 C574 0.950 . S
H546 C576 0.950 . S
H547 C577 0.950 . S
C548 H530 0.951 . S
C548 C549 1.366 . S
C548 C550 1.388 . S
C549 C548 1.366 . S
C549 C553 1.385 . S
C550 H531 0.951 . S
C550 C548 1.388 . S
C550 C551 1.366 . S
C551 C550 1.366 . S
C551 C552 1.414 . S
C551 C554 1.499 . S
C552 H532 0.950 . S
C552 C551 1.414 . S
C552 C553 1.374 . S
C553 H533 0.950 . S
C553 C549 1.385 . S
C553 C552 1.374 . S
C554 C551 1.499 . S
C554 C555 1.373 . S
C554 C556 1.389 . S
C555 H534 0.950 . S
C555 C554 1.373 . S
C555 C571 1.377 . S
C556 C554 1.389 . S
C556 C557 1.524 . S
C556 C570 1.377 . S
C557 C556 1.524 . S
C557 C558 1.397 . S
C557 C562 1.363 . S
C558 H535 0.950 . S
C558 C557 1.397 . S
C558 C559 1.334 . S
C559 H536 0.950 . S
C559 C558 1.334 . S
C559 C560 1.287 . S
C560 C559 1.287 . S
C560 C561 1.524 . S
C560 H579 0.913 . S
C561 H537 0.950 . S
C561 C560 1.524 . S
C561 C562 1.415 . S
C562 H538 0.950 . S
C562 C557 1.363 . S
C562 C561 1.415 . S
C563 H539 0.951 . S
C563 C564 1.366 . S
C563 C565 1.388 . S
C564 C563 1.366 . S
C564 C568 1.385 . S
C565 H540 0.951 . S
C565 C563 1.388 . S
C565 C566 1.366 . S
C566 C565 1.366 . S
C566 C567 1.414 . S
C566 C569 1.499 . S
C567 H541 0.950 . S
C567 C566 1.414 . S
C567 C568 1.374 . S
C568 H542 0.950 . S
C568 C564 1.385 . S
C568 C567 1.374 . S
C569 C566 1.499 . S
C569 C570 1.373 . S
C569 C571 1.389 . S
C570 H543 0.950 . S
C570 C556 1.377 . S
C570 C569 1.373 . S
C571 C555 1.377 . S
C571 C569 1.389 . S
C571 C572 1.524 . S
C572 C571 1.524 . S
C572 C573 1.397 . S
C572 C577 1.363 . S
C573 H544 0.950 . S
C573 C572 1.397 . S
C573 C574 1.334 . S
C574 H545 0.950 . S
C574 C573 1.334 . S
C574 C575 1.287 . S
C575 C574 1.287 . S
C575 C576 1.524 . S
C575 H578 0.999 . S
C576 H546 0.950 . S
C576 C575 1.524 . S
C576 C577 1.415 . S
C577 H547 0.950 . S
C577 C572 1.363 . S
C577 C576 1.415 . S
H578 C575 0.999 . S
H579 C560 0.913 . S
H580 C598 0.951 . S
H581 C600 0.951 . S
H582 C602 0.950 . S
H583 C603 0.950 . S
H584 C605 0.950 . S
H585 C608 0.950 . S
H586 C609 0.950 . S
H587 C611 0.950 . S
H588 C612 0.950 . S
H589 C613 0.951 . S
H590 C615 0.951 . S
H591 C617 0.950 . S
H592 C618 0.950 . S
H593 C620 0.950 . S
H594 C623 0.950 . S
H595 C624 0.950 . S
H596 C626 0.950 . S
H597 C627 0.950 . S
C598 H580 0.951 . S
C598 C599 1.366 . S
C598 C600 1.388 . S
C599 C598 1.366 . S
C599 C603 1.385 . S
C600 H581 0.951 . S
C600 C598 1.388 . S
C600 C601 1.366 . S
C601 C600 1.366 . S
C601 C602 1.414 . S
C601 C604 1.499 . S
C602 H582 0.950 . S
C602 C601 1.414 . S
C602 C603 1.374 . S
C603 H583 0.950 . S
C603 C599 1.385 . S
C603 C602 1.374 . S
C604 C601 1.499 . S
C604 C605 1.373 . S
C604 C606 1.389 . S
C605 H584 0.950 . S
C605 C604 1.373 . S
C605 C621 1.377 . S
C606 C604 1.389 . S
C606 C607 1.524 . S
C606 C620 1.377 . S
C607 C606 1.524 . S
C607 C608 1.397 . S
C607 C612 1.363 . S
C608 H585 0.950 . S
C608 C607 1.397 . S
C608 C609 1.334 . S
C609 H586 0.950 . S
C609 C608 1.334 . S
C609 C610 1.287 . S
C610 C609 1.287 . S
C610 C611 1.524 . S
C610 H629 0.913 . S
C611 H587 0.950 . S
C611 C610 1.524 . S
C611 C612 1.415 . S
C612 H588 0.950 . S
C612 C607 1.363 . S
C612 C611 1.415 . S
C613 H589 0.951 . S
C613 C614 1.366 . S
C613 C615 1.388 . S
C614 C613 1.366 . S
C614 C618 1.385 . S
C615 H590 0.951 . S
C615 C613 1.388 . S
C615 C616 1.366 . S
C616 C615 1.366 . S
C616 C617 1.414 . S
C616 C619 1.499 . S
C617 H591 0.950 . S
C617 C616 1.414 . S
C617 C618 1.374 . S
C618 H592 0.950 . S
C618 C614 1.385 . S
C618 C617 1.374 . S
C619 C616 1.499 . S
C619 C620 1.373 . S
C619 C621 1.389 . S
C620 H593 0.950 . S
C620 C606 1.377 . S
C620 C619 1.373 . S
C621 C605 1.377 . S
C621 C619 1.389 . S
C621 C622 1.524 . S
C622 C621 1.524 . S
C622 C623 1.397 . S
C622 C627 1.363 . S
C623 H594 0.950 . S
C623 C622 1.397 . S
C623 C624 1.334 . S
C624 H595 0.950 . S
C624 C623 1.334 . S
C624 C625 1.287 . S
C625 C624 1.287 . S
C625 C626 1.524 . S
C625 H628 0.999 . S
C626 H596 0.950 . S
C626 C625 1.524 . S
C626 C627 1.415 . S
C627 H597 0.950 . S
C627 C622 1.363 . S
C627 C626 1.415 . S
H628 C625 0.999 . S
H629 C610 0.913 . S
H630 C648 0.951 . S
H631 C650 0.951 . S
H632 C652 0.950 . S
H633 C653 0.950 . S
H634 C655 0.950 . S
H635 C658 0.950 . S
H636 C659 0.950 . S
H637 C661 0.950 . S
H638 C662 0.950 . S
H639 C663 0.951 . S
H640 C665 0.951 . S
H641 C667 0.950 . S
H642 C668 0.950 . S
H643 C670 0.950 . S
H644 C673 0.950 . S
H645 C674 0.950 . S
H646 C676 0.950 . S
H647 C677 0.950 . S
C648 H630 0.951 . S
C648 C649 1.366 . S
C648 C650 1.388 . S
C649 C648 1.366 . S
C649 C653 1.385 . S
C650 H631 0.951 . S
C650 C648 1.388 . S
C650 C651 1.366 . S
C651 C650 1.366 . S
C651 C652 1.414 . S
C651 C654 1.499 . S
C652 H632 0.950 . S
C652 C651 1.414 . S
C652 C653 1.374 . S
C653 H633 0.950 . S
C653 C649 1.385 . S
C653 C652 1.374 . S
C654 C651 1.499 . S
C654 C655 1.373 . S
C654 C656 1.389 . S
C655 H634 0.950 . S
C655 C654 1.373 . S
C655 C671 1.377 . S
C656 C654 1.389 . S
C656 C657 1.524 . S
C656 C670 1.377 . S
C657 C656 1.524 . S
C657 C658 1.397 . S
C657 C662 1.363 . S
C658 H635 0.950 . S
C658 C657 1.397 . S
C658 C659 1.334 . S
C659 H636 0.950 . S
C659 C658 1.334 . S
C659 C660 1.287 . S
C660 C659 1.287 . S
C660 C661 1.524 . S
C660 H679 0.913 . S
C661 H637 0.950 . S
C661 C660 1.524 . S
C661 C662 1.415 . S
C662 H638 0.950 . S
C662 C657 1.363 . S
C662 C661 1.415 . S
C663 H639 0.951 . S
C663 C664 1.366 . S
C663 C665 1.388 . S
C664 C663 1.366 . S
C664 C668 1.385 . S
C665 H640 0.951 . S
C665 C663 1.388 . S
C665 C666 1.366 . S
C666 C665 1.366 . S
C666 C667 1.414 . S
C666 C669 1.499 . S
C667 H641 0.950 . S
C667 C666 1.414 . S
C667 C668 1.374 . S
C668 H642 0.950 . S
C668 C664 1.385 . S
C668 C667 1.374 . S
C669 C666 1.499 . S
C669 C670 1.373 . S
C669 C671 1.389 . S
C670 H643 0.950 . S
C670 C656 1.377 . S
C670 C669 1.373 . S
C671 C655 1.377 . S
C671 C669 1.389 . S
C671 C672 1.524 . S
C672 C671 1.524 . S
C672 C673 1.397 . S
C672 C677 1.363 . S
C673 H644 0.950 . S
C673 C672 1.397 . S
C673 C674 1.334 . S
C674 H645 0.950 . S
C674 C673 1.334 . S
C674 C675 1.287 . S
C675 C674 1.287 . S
C675 C676 1.524 . S
C675 H678 0.999 . S
C676 H646 0.950 . S
C676 C675 1.524 . S
C676 C677 1.415 . S
C677 H647 0.950 . S
C677 C672 1.363 . S
C677 C676 1.415 . S
H678 C675 0.999 . S
H679 C660 0.913 . S
H680 C698 0.951 . S
H681 C700 0.951 . S
H682 C702 0.950 . S
H683 C703 0.950 . S
H684 C705 0.950 . S
H685 C708 0.950 . S
H686 C709 0.950 . S
H687 C711 0.950 . S
H688 C712 0.950 . S
H689 C713 0.951 . S
H690 C715 0.951 . S
H691 C717 0.950 . S
H692 C718 0.950 . S
H693 C720 0.950 . S
H694 C723 0.950 . S
H695 C724 0.950 . S
H696 C726 0.950 . S
H697 C727 0.905 1_556 S
C698 H680 0.951 . S
C698 C699 1.366 1_554 S
C698 C700 1.388 . S
C699 C698 1.366 1_556 S
C699 C703 1.385 . S
C700 H681 0.951 . S
C700 C698 1.388 . S
C700 C701 1.366 . S
C701 C700 1.366 . S
C701 C702 1.414 1_554 S
C701 C704 1.499 . S
C702 H682 0.950 . S
C702 C701 1.414 1_556 S
C702 C703 1.374 . S
C703 H683 0.950 . S
C703 C699 1.385 . S
C703 C702 1.374 . S
C704 C701 1.499 . S
C704 C705 1.373 . S
C704 C706 1.389 . S
C705 H684 0.950 . S
C705 C704 1.373 . S
C705 C721 1.377 . S
C706 C704 1.389 . S
C706 C707 1.524 . S
C706 C720 1.377 . S
C707 C706 1.524 . S
C707 C708 1.397 1_554 S
C707 C712 1.363 . S
C708 H685 0.950 . S
C708 C707 1.397 1_556 S
C708 C709 1.334 . S
C709 H686 0.950 . S
C709 C708 1.334 . S
C709 C710 1.232 1_556 S
C710 C709 1.232 1_554 S
C710 C711 1.604 . S
C710 H729 0.896 1_554 S
C711 H687 0.950 . S
C711 C710 1.604 . S
C711 C712 1.415 . S
C712 H688 0.950 . S
C712 C707 1.363 . S
C712 C711 1.415 . S
C713 H689 0.951 . S
C713 C714 1.366 . S
C713 C715 1.388 . S
C714 C713 1.366 . S
C714 C718 1.385 . S
C715 H690 0.951 . S
C715 C713 1.388 . S
C715 C716 1.366 . S
C716 C715 1.366 . S
C716 C717 1.414 . S
C716 C719 1.499 . S
C717 H691 0.950 . S
C717 C716 1.414 . S
C717 C718 1.374 . S
C718 H692 0.950 . S
C718 C714 1.385 . S
C718 C717 1.374 . S
C719 C716 1.499 . S
C719 C720 1.373 . S
C719 C721 1.389 . S
C720 H693 0.950 . S
C720 C706 1.377 . S
C720 C719 1.373 . S
C721 C705 1.377 . S
C721 C719 1.389 . S
C721 C722 1.524 . S
C722 C721 1.524 . S
C722 C723 1.397 . S
C722 C727 1.363 . S
C723 H694 0.950 . S
C723 C722 1.397 . S
C723 C724 1.334 . S
C724 H695 0.950 . S
C724 C723 1.334 . S
C724 C725 1.287 . S
C725 C724 1.287 . S
C725 C726 1.524 . S
C725 H728 0.999 . S
C726 H696 0.950 . S
C726 C725 1.524 . S
C726 C727 1.415 . S
C727 H697 0.905 1_554 S
C727 C722 1.363 . S
C727 C726 1.415 . S
H728 C725 0.999 . S
H729 C710 0.896 1_556 S
H730 C748 0.951 . S
H731 C750 0.951 . S
H732 C752 0.950 . S
H733 C753 0.950 . S
H734 C755 0.950 . S
H735 C758 0.950 . S
H736 C759 0.950 . S
H737 C761 0.950 . S
H738 C762 0.950 . S
H739 C763 0.951 . S
H740 C765 0.951 . S
H741 C767 0.950 . S
H742 C768 0.950 . S
H743 C770 0.950 . S
H744 C773 0.950 . S
H745 C774 0.950 . S
H746 C776 0.950 . S
H747 C777 0.950 . S
C748 H730 0.951 . S
C748 C749 1.366 . S
C748 C750 1.388 . S
C749 C748 1.366 . S
C749 C753 1.385 . S
C750 H731 0.951 . S
C750 C748 1.388 . S
C750 C751 1.366 . S
C751 C750 1.366 . S
C751 C752 1.414 . S
C751 C754 1.499 . S
C752 H732 0.950 . S
C752 C751 1.414 . S
C752 C753 1.374 . S
C753 H733 0.950 . S
C753 C749 1.385 . S
C753 C752 1.374 . S
C754 C751 1.499 . S
C754 C755 1.373 . S
C754 C756 1.389 . S
C755 H734 0.950 . S
C755 C754 1.373 . S
C755 C771 1.377 . S
C756 C754 1.389 . S
C756 C757 1.524 . S
C756 C770 1.377 . S
C757 C756 1.524 . S
C757 C758 1.397 . S
C757 C762 1.363 . S
C758 H735 0.950 . S
C758 C757 1.397 . S
C758 C759 1.334 . S
C759 H736 0.950 . S
C759 C758 1.334 . S
C759 C760 1.287 . S
C760 C759 1.287 . S
C760 C761 1.524 . S
C760 H779 0.913 . S
C761 H737 0.950 . S
C761 C760 1.524 . S
C761 C762 1.415 . S
C762 H738 0.950 . S
C762 C757 1.363 . S
C762 C761 1.415 . S
C763 H739 0.951 . S
C763 C764 1.366 . S
C763 C765 1.388 . S
C764 C763 1.366 . S
C764 C768 1.385 . S
C765 H740 0.951 . S
C765 C763 1.388 . S
C765 C766 1.366 . S
C766 C765 1.366 . S
C766 C767 1.414 . S
C766 C769 1.499 . S
C767 H741 0.950 . S
C767 C766 1.414 . S
C767 C768 1.374 . S
C768 H742 0.950 . S
C768 C764 1.385 . S
C768 C767 1.374 . S
C769 C766 1.499 . S
C769 C770 1.373 . S
C769 C771 1.389 . S
C770 H743 0.950 . S
C770 C756 1.377 . S
C770 C769 1.373 . S
C771 C755 1.377 . S
C771 C769 1.389 . S
C771 C772 1.524 . S
C772 C771 1.524 . S
C772 C773 1.397 . S
C772 C777 1.363 . S
C773 H744 0.950 . S
C773 C772 1.397 . S
C773 C774 1.334 . S
C774 H745 0.950 . S
C774 C773 1.334 . S
C774 C775 1.287 . S
C775 C774 1.287 . S
C775 C776 1.524 . S
C775 H778 0.999 . S
C776 H746 0.950 . S
C776 C775 1.524 . S
C776 C777 1.415 . S
C777 H747 0.950 . S
C777 C772 1.363 . S
C777 C776 1.415 . S
H778 C775 0.999 . S
H779 C760 0.913 . S
H780 C798 0.951 . S
H781 C800 0.951 . S
H782 C802 0.950 . S
H783 C803 0.950 . S
H784 C805 0.950 . S
H785 C808 0.950 . S
H786 C809 0.950 . S
H787 C811 0.950 . S
H788 C812 0.950 . S
H789 C813 0.951 . S
H790 C815 0.951 . S
H791 C817 0.950 . S
H792 C818 0.950 . S
H793 C820 0.950 . S
H794 C823 0.950 . S
H795 C824 0.950 . S
H796 C826 0.950 . S
H797 C827 0.950 . S
C798 H780 0.951 . S
C798 C799 1.366 . S
C798 C800 1.388 . S
C799 C798 1.366 . S
C799 C803 1.385 . S
C800 H781 0.951 . S
C800 C798 1.388 . S
C800 C801 1.366 . S
C801 C800 1.366 . S
C801 C802 1.414 . S
C801 C804 1.499 . S
C802 H782 0.950 . S
C802 C801 1.414 . S
C802 C803 1.374 . S
C803 H783 0.950 . S
C803 C799 1.385 . S
C803 C802 1.374 . S
C804 C801 1.499 . S
C804 C805 1.373 . S
C804 C806 1.389 . S
C805 H784 0.950 . S
C805 C804 1.373 . S
C805 C821 1.377 . S
C806 C804 1.389 . S
C806 C807 1.524 . S
C806 C820 1.377 . S
C807 C806 1.524 . S
C807 C808 1.397 . S
C807 C812 1.363 . S
C808 H785 0.950 . S
C808 C807 1.397 . S
C808 C809 1.334 . S
C809 H786 0.950 . S
C809 C808 1.334 . S
C809 C810 1.287 . S
C810 C809 1.287 . S
C810 C811 1.524 . S
C810 H829 0.913 . S
C811 H787 0.950 . S
C811 C810 1.524 . S
C811 C812 1.415 . S
C812 H788 0.950 . S
C812 C807 1.363 . S
C812 C811 1.415 . S
C813 H789 0.951 . S
C813 C814 1.366 . S
C813 C815 1.388 . S
C814 C813 1.366 . S
C814 C818 1.385 . S
C815 H790 0.951 . S
C815 C813 1.388 . S
C815 C816 1.366 . S
C816 C815 1.366 . S
C816 C817 1.414 . S
C816 C819 1.499 . S
C817 H791 0.950 . S
C817 C816 1.414 . S
C817 C818 1.374 . S
C818 H792 0.950 . S
C818 C814 1.385 . S
C818 C817 1.374 . S
C819 C816 1.499 . S
C819 C820 1.373 . S
C819 C821 1.389 . S
C820 H793 0.950 . S
C820 C806 1.377 . S
C820 C819 1.373 . S
C821 C805 1.377 . S
C821 C819 1.389 . S
C821 C822 1.524 . S
C822 C821 1.524 . S
C822 C823 1.397 1_565 S
C822 C827 1.363 . S
C823 H794 0.950 . S
C823 C822 1.397 1_545 S
C823 C824 1.334 . S
C824 H795 0.950 . S
C824 C823 1.334 . S
C824 C825 1.287 . S
C825 C824 1.287 . S
C825 C826 1.524 . S
C825 H828 0.999 . S
C826 H796 0.950 . S
C826 C825 1.524 . S
C826 C827 1.415 1_545 S
C827 H797 0.950 . S
C827 C822 1.363 . S
C827 C826 1.415 1_565 S
H828 C825 0.999 . S
H829 C810 0.913 . S
H830 C848 0.951 . S
H831 C850 0.951 . S
H832 C852 0.950 . S
H833 C853 0.950 . S
H834 C855 0.950 . S
H835 C858 0.950 . S
H836 C859 0.950 . S
H837 C861 0.950 . S
H838 C862 0.950 . S
H839 C863 0.951 . S
H840 C865 0.951 . S
H841 C867 0.950 . S
H842 C868 0.950 . S
H843 C870 0.950 . S
H844 C873 0.950 . S
H845 C874 0.950 . S
H846 C876 0.950 . S
H847 C877 0.950 . S
C848 H830 0.951 . S
C848 C849 1.366 . S
C848 C850 1.388 . S
C849 C848 1.366 . S
C849 C853 1.385 . S
C850 H831 0.951 . S
C850 C848 1.388 . S
C850 C851 1.366 . S
C851 C850 1.366 . S
C851 C852 1.414 . S
C851 C854 1.499 . S
C852 H832 0.950 . S
C852 C851 1.414 . S
C852 C853 1.374 . S
C853 H833 0.950 . S
C853 C849 1.385 . S
C853 C852 1.374 . S
C854 C851 1.499 . S
C854 C855 1.373 . S
C854 C856 1.389 . S
C855 H834 0.950 . S
C855 C854 1.373 . S
C855 C871 1.377 1_545 S
C856 C854 1.389 . S
C856 C857 1.524 . S
C856 C870 1.377 1_545 S
C857 C856 1.524 . S
C857 C858 1.397 . S
C857 C862 1.363 . S
C858 H835 0.950 . S
C858 C857 1.397 . S
C858 C859 1.334 . S
C859 H836 0.950 . S
C859 C858 1.334 . S
C859 C860 1.287 . S
C860 C859 1.287 . S
C860 C861 1.524 . S
C860 H879 0.913 . S
C861 H837 0.950 . S
C861 C860 1.524 . S
C861 C862 1.415 . S
C862 H838 0.950 . S
C862 C857 1.363 . S
C862 C861 1.415 . S
C863 H839 0.951 . S
C863 C864 1.366 . S
C863 C865 1.388 . S
C864 C863 1.366 . S
C864 C868 1.385 . S
C865 H840 0.951 . S
C865 C863 1.388 . S
C865 C866 1.366 . S
C866 C865 1.366 . S
C866 C867 1.414 . S
C866 C869 1.499 . S
C867 H841 0.950 . S
C867 C866 1.414 . S
C867 C868 1.374 . S
C868 H842 0.950 . S
C868 C864 1.385 . S
C868 C867 1.374 . S
C869 C866 1.499 . S
C869 C870 1.373 . S
C869 C871 1.389 . S
C870 H843 0.950 . S
C870 C856 1.377 1_565 S
C870 C869 1.373 . S
C871 C855 1.377 1_565 S
C871 C869 1.389 . S
C871 C872 1.524 . S
C872 C871 1.524 . S
C872 C873 1.397 . S
C872 C877 1.363 . S
C873 H844 0.950 . S
C873 C872 1.397 . S
C873 C874 1.334 . S
C874 H845 0.950 . S
C874 C873 1.334 . S
C874 C875 1.287 . S
C875 C874 1.287 . S
C875 C876 1.524 . S
C875 H878 0.999 . S
C876 H846 0.950 . S
C876 C875 1.524 . S
C876 C877 1.415 . S
C877 H847 0.950 . S
C877 C872 1.363 . S
C877 C876 1.415 . S
H878 C875 0.999 . S
H879 C860 0.913 . S
H880 C898 0.951 . S
H881 C900 0.951 . S
H882 C902 0.950 . S
H883 C903 0.950 . S
H884 C905 0.950 . S
H885 C908 0.950 . S
H886 C909 0.950 . S
H887 C911 0.950 . S
H888 C912 0.950 . S
H889 C913 0.951 . S
H890 C915 0.951 . S
H891 C917 0.950 . S
H892 C918 0.950 . S
H893 C920 0.950 . S
H894 C923 0.950 . S
H895 C924 0.950 . S
H896 C926 0.950 . S
H897 C927 0.950 . S
C898 H880 0.951 . S
C898 C899 1.366 . S
C898 C900 1.388 . S
C899 C898 1.366 . S
C899 C903 1.385 . S
C900 H881 0.951 . S
C900 C898 1.388 . S
C900 C901 1.366 . S
C901 C900 1.366 . S
C901 C902 1.414 . S
C901 C904 1.499 . S
C902 H882 0.950 . S
C902 C901 1.414 . S
C902 C903 1.374 . S
C903 H883 0.950 . S
C903 C899 1.385 . S
C903 C902 1.374 . S
C904 C901 1.499 . S
C904 C905 1.373 . S
C904 C906 1.389 . S
C905 H884 0.950 . S
C905 C904 1.373 . S
C905 C921 1.377 . S
C906 C904 1.389 . S
C906 C907 1.524 . S
C906 C920 1.377 . S
C907 C906 1.524 . S
C907 C908 1.397 . S
C907 C912 1.363 . S
C908 H885 0.950 . S
C908 C907 1.397 . S
C908 C909 1.334 . S
C909 H886 0.950 . S
C909 C908 1.334 . S
C909 C910 1.287 . S
C910 C909 1.287 . S
C910 C911 1.524 . S
C910 H929 0.913 . S
C911 H887 0.950 . S
C911 C910 1.524 . S
C911 C912 1.415 . S
C912 H888 0.950 . S
C912 C907 1.363 . S
C912 C911 1.415 . S
C913 H889 0.951 . S
C913 C914 1.366 . S
C913 C915 1.388 . S
C914 C913 1.366 . S
C914 C918 1.385 . S
C915 H890 0.951 . S
C915 C913 1.388 . S
C915 C916 1.366 . S
C916 C915 1.366 . S
C916 C917 1.414 . S
C916 C919 1.499 . S
C917 H891 0.950 . S
C917 C916 1.414 . S
C917 C918 1.374 . S
C918 H892 0.950 . S
C918 C914 1.385 . S
C918 C917 1.374 . S
C919 C916 1.499 . S
C919 C920 1.373 . S
C919 C921 1.389 . S
C920 H893 0.950 . S
C920 C906 1.377 . S
C920 C919 1.373 . S
C921 C905 1.377 . S
C921 C919 1.389 . S
C921 C922 1.524 . S
C922 C921 1.524 . S
C922 C923 1.397 . S
C922 C927 1.363 . S
C923 H894 0.950 . S
C923 C922 1.397 . S
C923 C924 1.334 . S
C924 H895 0.950 . S
C924 C923 1.334 . S
C924 C925 1.287 . S
C925 C924 1.287 . S
C925 C926 1.524 . S
C925 H928 0.999 . S
C926 H896 0.950 . S
C926 C925 1.524 . S
C926 C927 1.415 . S
C927 H897 0.950 . S
C927 C922 1.363 . S
C927 C926 1.415 . S
H928 C925 0.999 . S
H929 C910 0.913 . S
H930 C948 0.951 . S
H931 C950 0.951 . S
H932 C952 0.950 . S
H933 C953 0.950 . S
H934 C955 0.950 . S
H935 C958 0.950 . S
H936 C959 0.950 . S
H937 C961 0.950 . S
H938 C962 0.950 . S
H939 C963 0.951 . S
H940 C965 0.951 . S
H941 C967 0.950 . S
H942 C968 0.950 . S
H943 C970 0.950 . S
H944 C973 0.950 . S
H945 C974 0.950 . S
H946 C976 0.950 . S
H947 C977 0.950 . S
C948 H930 0.951 . S
C948 C949 1.366 . S
C948 C950 1.388 . S
C949 C948 1.366 . S
C949 C953 1.385 . S
C950 H931 0.951 . S
C950 C948 1.388 . S
C950 C951 1.366 . S
C951 C950 1.366 . S
C951 C952 1.414 . S
C951 C954 1.499 . S
C952 H932 0.950 . S
C952 C951 1.414 . S
C952 C953 1.374 . S
C953 H933 0.950 . S
C953 C949 1.385 . S
C953 C952 1.374 . S
C954 C951 1.499 . S
C954 C955 1.373 . S
C954 C956 1.389 . S
C955 H934 0.950 . S
C955 C954 1.373 . S
C955 C971 1.377 . S
C956 C954 1.389 . S
C956 C957 1.524 . S
C956 C970 1.377 . S
C957 C956 1.524 . S
C957 C958 1.397 . S
C957 C962 1.363 . S
C958 H935 0.950 . S
C958 C957 1.397 . S
C958 C959 1.334 . S
C959 H936 0.950 . S
C959 C958 1.334 . S
C959 C960 1.287 . S
C960 C959 1.287 . S
C960 C961 1.524 . S
C960 H979 0.913 . S
C961 H937 0.950 . S
C961 C960 1.524 . S
C961 C962 1.415 . S
C962 H938 0.950 . S
C962 C957 1.363 . S
C962 C961 1.415 . S
C963 H939 0.951 . S
C963 C964 1.366 . S
C963 C965 1.388 . S
C964 C963 1.366 . S
C964 C968 1.385 . S
C965 H940 0.951 . S
C965 C963 1.388 . S
C965 C966 1.366 . S
C966 C965 1.366 . S
C966 C967 1.414 . S
C966 C969 1.499 . S
C967 H941 0.950 . S
C967 C966 1.414 . S
C967 C968 1.374 . S
C968 H942 0.950 . S
C968 C964 1.385 . S
C968 C967 1.374 . S
C969 C966 1.499 . S
C969 C970 1.373 . S
C969 C971 1.389 . S
C970 H943 0.950 . S
C970 C956 1.377 . S
C970 C969 1.373 . S
C971 C955 1.377 . S
C971 C969 1.389 . S
C971 C972 1.524 . S
C972 C971 1.524 . S
C972 C973 1.397 . S
C972 C977 1.363 . S
C973 H944 0.950 . S
C973 C972 1.397 . S
C973 C974 1.334 . S
C974 H945 0.950 . S
C974 C973 1.334 . S
C974 C975 1.287 . S
C975 C974 1.287 . S
C975 C976 1.524 . S
C975 H978 0.999 . S
C976 H946 0.950 . S
C976 C975 1.524 . S
C976 C977 1.415 . S
C977 H947 0.950 . S
C977 C972 1.363 . S
C977 C976 1.415 . S
H978 C975 0.999 . S
H979 C960 0.913 . S
H980 C998 0.951 . S
H981 C1000 0.951 . S
H982 C1002 0.950 . S
H983 C1003 0.950 . S
H984 C1005 0.950 . S
H985 C1008 0.950 . S
H986 C1009 0.950 . S
H987 C1011 0.950 . S
H988 C1012 0.950 . S
H989 C1013 0.951 . S
H990 C1015 0.951 . S
H991 C1017 0.950 . S
H992 C1018 0.950 . S
H993 C1020 0.950 . S
H994 C1023 0.950 . S
H995 C1024 0.950 . S
H996 C1026 0.950 . S
H997 C1027 0.950 . S
C998 H980 0.951 . S
C998 C999 1.366 . S
C998 C1000 1.388 . S
C999 C998 1.366 . S
C999 C1003 1.385 . S
C1000 H981 0.951 . S
C1000 C998 1.388 . S
C1000 C1001 1.366 . S
C1001 C1000 1.366 . S
C1001 C1002 1.414 . S
C1001 C1004 1.499 1_455 S
C1002 H982 0.950 . S
C1002 C1001 1.414 . S
C1002 C1003 1.374 . S
C1003 H983 0.950 . S
C1003 C999 1.385 . S
C1003 C1002 1.374 . S
C1004 C1001 1.499 1_655 S
C1004 C1005 1.373 . S
C1004 C1006 1.389 . S
C1005 H984 0.950 . S
C1005 C1004 1.373 . S
C1005 C1021 1.377 . S
C1006 C1004 1.389 . S
C1006 C1007 1.524 . S
C1006 C1020 1.377 . S
C1007 C1006 1.524 . S
C1007 C1008 1.397 . S
C1007 C1012 1.363 . S
C1008 H985 0.950 . S
C1008 C1007 1.397 . S
C1008 C1009 1.334 . S
C1009 H986 0.950 . S
C1009 C1008 1.334 . S
C1009 C1010 1.287 . S
C1010 C1009 1.287 . S
C1010 C1011 1.524 . S
C1010 H1029 0.913 . S
C1011 H987 0.950 . S
C1011 C1010 1.524 . S
C1011 C1012 1.415 . S
C1012 H988 0.950 . S
C1012 C1007 1.363 . S
C1012 C1011 1.415 . S
C1013 H989 0.951 . S
C1013 C1014 1.366 . S
C1013 C1015 1.388 . S
C1014 C1013 1.366 . S
C1014 C1018 1.385 . S
C1015 H990 0.951 . S
C1015 C1013 1.388 . S
C1015 C1016 1.366 . S
C1016 C1015 1.366 . S
C1016 C1017 1.414 . S
C1016 C1019 1.499 . S
C1017 H991 0.950 . S
C1017 C1016 1.414 . S
C1017 C1018 1.374 . S
C1018 H992 0.950 . S
C1018 C1014 1.385 . S
C1018 C1017 1.374 . S
C1019 C1016 1.499 . S
C1019 C1020 1.373 . S
C1019 C1021 1.389 . S
C1020 H993 0.950 . S
C1020 C1006 1.377 . S
C1020 C1019 1.373 . S
C1021 C1005 1.377 . S
C1021 C1019 1.389 . S
C1021 C1022 1.524 . S
C1022 C1021 1.524 . S
C1022 C1023 1.397 . S
C1022 C1027 1.363 . S
C1023 H994 0.950 . S
C1023 C1022 1.397 . S
C1023 C1024 1.334 . S
C1024 H995 0.950 . S
C1024 C1023 1.334 . S
C1024 C1025 1.287 . S
C1025 C1024 1.287 . S
C1025 C1026 1.524 . S
C1025 H1028 0.999 . S
C1026 H996 0.950 . S
C1026 C1025 1.524 . S
C1026 C1027 1.415 . S
C1027 H997 0.950 . S
C1027 C1022 1.363 . S
C1027 C1026 1.415 . S
H1028 C1025 0.999 . S
H1029 C1010 0.913 . S
H1030 C1048 0.951 . S
H1031 C1050 0.951 . S
H1032 C1052 0.950 . S
H1033 C1053 0.950 . S
H1034 C1055 0.950 . S
H1035 C1058 0.950 . S
H1036 C1059 0.950 . S
H1037 C1061 0.950 . S
H1038 C1062 0.950 . S
H1039 C1063 0.951 . S
H1040 C1065 0.951 . S
H1041 C1067 0.950 . S
H1042 C1068 0.950 . S
H1043 C1070 0.950 . S
H1044 C1073 0.950 . S
H1045 C1074 0.950 . S
H1046 C1076 0.950 . S
H1047 C1077 0.950 . S
C1048 H1030 0.951 . S
C1048 C1049 1.366 . S
C1048 C1050 1.388 . S
C1049 C1048 1.366 . S
C1049 C1053 1.385 . S
C1050 H1031 0.951 . S
C1050 C1048 1.388 . S
C1050 C1051 1.366 . S
C1051 C1050 1.366 . S
C1051 C1052 1.414 . S
C1051 C1054 1.499 . S
C1052 H1032 0.950 . S
C1052 C1051 1.414 . S
C1052 C1053 1.374 . S
C1053 H1033 0.950 . S
C1053 C1049 1.385 . S
C1053 C1052 1.374 . S
C1054 C1051 1.499 . S
C1054 C1055 1.373 . S
C1054 C1056 1.389 . S
C1055 H1034 0.950 . S
C1055 C1054 1.373 . S
C1055 C1071 1.377 . S
C1056 C1054 1.389 . S
C1056 C1057 1.524 1_655 S
C1056 C1070 1.377 . S
C1057 C1056 1.524 1_455 S
C1057 C1058 1.397 . S
C1057 C1062 1.363 . S
C1058 H1035 0.950 . S
C1058 C1057 1.397 . S
C1058 C1059 1.334 . S
C1059 H1036 0.950 . S
C1059 C1058 1.334 . S
C1059 C1060 1.287 . S
C1060 C1059 1.287 . S
C1060 C1061 1.524 . S
C1060 H1079 0.913 . S
C1061 H1037 0.950 . S
C1061 C1060 1.524 . S
C1061 C1062 1.415 . S
C1062 H1038 0.950 . S
C1062 C1057 1.363 . S
C1062 C1061 1.415 . S
C1063 H1039 0.951 . S
C1063 C1064 1.366 . S
C1063 C1065 1.388 . S
C1064 C1063 1.366 . S
C1064 C1068 1.385 . S
C1065 H1040 0.951 . S
C1065 C1063 1.388 . S
C1065 C1066 1.366 . S
C1066 C1065 1.366 . S
C1066 C1067 1.414 . S
C1066 C1069 1.499 . S
C1067 H1041 0.950 . S
C1067 C1066 1.414 . S
C1067 C1068 1.374 . S
C1068 H1042 0.950 . S
C1068 C1064 1.385 . S
C1068 C1067 1.374 . S
C1069 C1066 1.499 . S
C1069 C1070 1.373 . S
C1069 C1071 1.389 . S
C1070 H1043 0.950 . S
C1070 C1056 1.377 . S
C1070 C1069 1.373 . S
C1071 C1055 1.377 . S
C1071 C1069 1.389 . S
C1071 C1072 1.524 . S
C1072 C1071 1.524 . S
C1072 C1073 1.397 . S
C1072 C1077 1.363 . S
C1073 H1044 0.950 . S
C1073 C1072 1.397 . S
C1073 C1074 1.334 . S
C1074 H1045 0.950 . S
C1074 C1073 1.334 . S
C1074 C1075 1.287 . S
C1075 C1074 1.287 . S
C1075 C1076 1.524 . S
C1075 H1078 0.999 . S
C1076 H1046 0.950 . S
C1076 C1075 1.524 . S
C1076 C1077 1.415 . S
C1077 H1047 0.950 . S
C1077 C1072 1.363 . S
C1077 C1076 1.415 . S
H1078 C1075 0.999 . S
H1079 C1060 0.913 . S
H1080 C1098 0.951 . S
H1081 C1100 0.951 . S
H1082 C1102 0.950 . S
H1083 C1103 0.950 . S
H1084 C1105 0.950 . S
H1085 C1108 0.950 . S
H1086 C1109 0.950 . S
H1087 C1111 0.950 . S
H1088 C1112 0.950 . S
H1089 C1113 0.951 . S
H1090 C1115 0.951 . S
H1091 C1117 0.950 . S
H1092 C1118 0.950 . S
H1093 C1120 0.950 . S
H1094 C1123 0.950 . S
H1095 C1124 0.950 . S
H1096 C1126 0.950 . S
H1097 C1127 0.950 . S
C1098 H1080 0.951 . S
C1098 C1099 1.366 . S
C1098 C1100 1.388 . S
C1099 C1098 1.366 . S
C1099 C1103 1.385 . S
C1100 H1081 0.951 . S
C1100 C1098 1.388 . S
C1100 C1101 1.366 . S
C1101 C1100 1.366 . S
C1101 C1102 1.414 . S
C1101 C1104 1.499 . S
C1102 H1082 0.950 . S
C1102 C1101 1.414 . S
C1102 C1103 1.374 . S
C1103 H1083 0.950 . S
C1103 C1099 1.385 . S
C1103 C1102 1.374 . S
C1104 C1101 1.499 . S
C1104 C1105 1.373 . S
C1104 C1106 1.389 . S
C1105 H1084 0.950 . S
C1105 C1104 1.373 . S
C1105 C1121 1.377 . S
C1106 C1104 1.389 . S
C1106 C1107 1.524 . S
C1106 C1120 1.377 . S
C1107 C1106 1.524 . S
C1107 C1108 1.397 . S
C1107 C1112 1.363 . S
C1108 H1085 0.950 . S
C1108 C1107 1.397 . S
C1108 C1109 1.334 . S
C1109 H1086 0.950 . S
C1109 C1108 1.334 . S
C1109 C1110 1.287 . S
C1110 C1109 1.287 . S
C1110 C1111 1.524 . S
C1110 H1129 0.913 . S
C1111 H1087 0.950 . S
C1111 C1110 1.524 . S
C1111 C1112 1.415 . S
C1112 H1088 0.950 . S
C1112 C1107 1.363 . S
C1112 C1111 1.415 . S
C1113 H1089 0.951 . S
C1113 C1114 1.366 . S
C1113 C1115 1.388 . S
C1114 C1113 1.366 . S
C1114 C1118 1.385 . S
C1115 H1090 0.951 . S
C1115 C1113 1.388 . S
C1115 C1116 1.366 . S
C1116 C1115 1.366 . S
C1116 C1117 1.414 . S
C1116 C1119 1.499 . S
C1117 H1091 0.950 . S
C1117 C1116 1.414 . S
C1117 C1118 1.374 . S
C1118 H1092 0.950 . S
C1118 C1114 1.385 . S
C1118 C1117 1.374 . S
C1119 C1116 1.499 . S
C1119 C1120 1.373 . S
C1119 C1121 1.389 . S
C1120 H1093 0.950 . S
C1120 C1106 1.377 . S
C1120 C1119 1.373 . S
C1121 C1105 1.377 . S
C1121 C1119 1.389 . S
C1121 C1122 1.524 . S
C1122 C1121 1.524 . S
C1122 C1123 1.397 . S
C1122 C1127 1.363 . S
C1123 H1094 0.950 . S
C1123 C1122 1.397 . S
C1123 C1124 1.334 . S
C1124 H1095 0.950 . S
C1124 C1123 1.334 . S
C1124 C1125 1.287 . S
C1125 C1124 1.287 . S
C1125 C1126 1.524 . S
C1125 H1128 0.999 . S
C1126 H1096 0.950 . S
C1126 C1125 1.524 . S
C1126 C1127 1.415 . S
C1127 H1097 0.950 . S
C1127 C1122 1.363 . S
C1127 C1126 1.415 . S
H1128 C1125 0.999 . S
H1129 C1110 0.913 . S
H1130 C1148 0.951 . S
H1131 C1150 0.951 . S
H1132 C1152 0.950 . S
H1133 C1153 0.950 . S
H1134 C1155 0.950 . S
H1135 C1158 0.950 1_655 S
H1136 C1159 0.950 . S
H1137 C1161 0.950 . S
H1138 C1162 0.950 . S
H1139 C1163 0.951 . S
H1140 C1165 0.951 . S
H1141 C1167 0.950 . S
H1142 C1168 0.950 . S
H1143 C1170 0.950 . S
H1144 C1173 0.950 . S
H1145 C1174 0.950 . S
H1146 C1176 0.950 . S
H1147 C1177 0.950 . S
C1148 H1130 0.951 . S
C1148 C1149 1.366 . S
C1148 C1150 1.388 . S
C1149 C1148 1.366 . S
C1149 C1153 1.385 . S
C1150 H1131 0.951 . S
C1150 C1148 1.388 . S
C1150 C1151 1.366 1_455 S
C1151 C1150 1.366 1_655 S
C1151 C1152 1.414 . S
C1151 C1154 1.499 . S
C1152 H1132 0.950 . S
C1152 C1151 1.414 . S
C1152 C1153 1.374 1_655 S
C1153 H1133 0.950 . S
C1153 C1149 1.385 . S
C1153 C1152 1.374 1_455 S
C1154 C1151 1.499 . S
C1154 C1155 1.373 . S
C1154 C1156 1.389 . S
C1155 H1134 0.950 . S
C1155 C1154 1.373 . S
C1155 C1171 1.377 . S
C1156 C1154 1.389 . S
C1156 C1157 1.524 . S
C1156 C1170 1.377 . S
C1157 C1156 1.524 . S
C1157 C1158 1.397 1_655 S
C1157 C1162 1.363 1_655 S
C1158 H1135 0.950 1_455 S
C1158 C1157 1.397 1_455 S
C1158 C1159 1.334 . S
C1159 H1136 0.950 . S
C1159 C1158 1.334 . S
C1159 C1160 1.287 . S
C1160 C1159 1.287 . S
C1160 C1161 1.524 . S
C1160 H1179 0.913 . S
C1161 H1137 0.950 . S
C1161 C1160 1.524 . S
C1161 C1162 1.415 . S
C1162 H1138 0.950 . S
C1162 C1157 1.363 1_455 S
C1162 C1161 1.415 . S
C1163 H1139 0.951 . S
C1163 C1164 1.366 . S
C1163 C1165 1.388 . S
C1164 C1163 1.366 . S
C1164 C1168 1.385 . S
C1165 H1140 0.951 . S
C1165 C1163 1.388 . S
C1165 C1166 1.366 . S
C1166 C1165 1.366 . S
C1166 C1167 1.414 . S
C1166 C1169 1.499 . S
C1167 H1141 0.950 . S
C1167 C1166 1.414 . S
C1167 C1168 1.374 . S
C1168 H1142 0.950 . S
C1168 C1164 1.385 . S
C1168 C1167 1.374 . S
C1169 C1166 1.499 . S
C1169 C1170 1.373 . S
C1169 C1171 1.389 . S
C1170 H1143 0.950 . S
C1170 C1156 1.377 . S
C1170 C1169 1.373 . S
C1171 C1155 1.377 . S
C1171 C1169 1.389 . S
C1171 C1172 1.524 . S
C1172 C1171 1.524 . S
C1172 C1173 1.397 . S
C1172 C1177 1.363 . S
C1173 H1144 0.950 . S
C1173 C1172 1.397 . S
C1173 C1174 1.334 . S
C1174 H1145 0.950 . S
C1174 C1173 1.334 . S
C1174 C1175 1.287 . S
C1175 C1174 1.287 . S
C1175 C1176 1.524 . S
C1175 H1178 0.999 . S
C1176 H1146 0.950 . S
C1176 C1175 1.524 . S
C1176 C1177 1.415 . S
C1177 H1147 0.950 . S
C1177 C1172 1.363 . S
C1177 C1176 1.415 . S
H1178 C1175 0.999 . S
H1179 C1160 0.913 . S
H1180 C1198 0.951 . S
H1181 C1200 0.951 . S
H1182 C1202 0.950 . S
H1183 C1203 0.950 . S
H1184 C1205 0.950 . S
H1185 C1208 0.950 . S
H1186 C1209 0.950 . S
H1187 C1211 0.950 . S
H1188 C1212 0.950 1_556 S
H1189 C1213 0.947 1_554 S
H1190 C1215 0.951 . S
H1191 C1217 0.950 . S
H1192 C1218 0.950 . S
H1193 C1220 0.950 1_554 S
H1194 C1223 0.950 . S
H1195 C1224 0.950 . S
H1196 C1226 0.950 . S
H1197 C1227 0.950 . S
C1198 H1180 0.951 . S
C1198 C1199 1.366 . S
C1198 C1200 1.388 . S
C1199 C1198 1.366 . S
C1199 C1203 1.385 . S
C1200 H1181 0.951 . S
C1200 C1198 1.388 . S
C1200 C1201 1.366 . S
C1201 C1200 1.366 . S
C1201 C1202 1.414 . S
C1201 C1204 1.499 . S
C1202 H1182 0.950 . S
C1202 C1201 1.414 . S
C1202 C1203 1.374 . S
C1203 H1183 0.950 . S
C1203 C1199 1.385 . S
C1203 C1202 1.374 . S
C1204 C1201 1.499 . S
C1204 C1205 1.373 . S
C1204 C1206 1.389 . S
C1205 H1184 0.950 . S
C1205 C1204 1.373 . S
C1205 C1221 1.377 . S
C1206 C1204 1.389 . S
C1206 C1207 1.524 1_556 S
C1206 C1220 1.377 . S
C1207 C1206 1.524 1_554 S
C1207 C1208 1.397 . S
C1207 C1212 1.363 . S
C1208 H1185 0.950 . S
C1208 C1207 1.397 . S
C1208 C1209 1.334 . S
C1209 H1186 0.950 . S
C1209 C1208 1.334 . S
C1209 C1210 1.287 . S
C1210 C1209 1.287 . S
C1210 C1211 1.524 . S
C1210 H1229 0.913 . S
C1211 H1187 0.950 . S
C1211 C1210 1.524 . S
C1211 C1212 1.415 . S
C1212 H1188 0.950 1_554 S
C1212 C1207 1.363 . S
C1212 C1211 1.415 . S
C1213 H1189 0.947 1_556 S
C1213 C1214 1.367 . S
C1213 C1215 1.391 . S
C1214 C1213 1.367 . S
C1214 C1218 1.385 . S
C1215 H1190 0.951 . S
C1215 C1213 1.391 . S
C1215 C1216 1.366 . S
C1216 C1215 1.366 . S
C1216 C1217 1.414 . S
C1216 C1219 1.499 . S
C1217 H1191 0.950 . S
C1217 C1216 1.414 . S
C1217 C1218 1.374 . S
C1218 H1192 0.950 . S
C1218 C1214 1.385 . S
C1218 C1217 1.374 . S
C1219 C1216 1.499 . S
C1219 C1220 1.373 . S
C1219 C1221 1.389 . S
C1220 H1193 0.950 1_556 S
C1220 C1206 1.377 . S
C1220 C1219 1.373 . S
C1221 C1205 1.377 . S
C1221 C1219 1.389 . S
C1221 C1222 1.524 . S
C1222 C1221 1.524 . S
C1222 C1223 1.397 . S
C1222 C1227 1.363 . S
C1223 H1194 0.950 . S
C1223 C1222 1.397 . S
C1223 C1224 1.334 . S
C1224 H1195 0.950 . S
C1224 C1223 1.334 . S
C1224 C1225 1.287 . S
C1225 C1224 1.287 . S
C1225 C1226 1.524 . S
C1225 H1228 0.999 . S
C1226 H1196 0.950 . S
C1226 C1225 1.524 . S
C1226 C1227 1.415 . S
C1227 H1197 0.950 . S
C1227 C1222 1.363 . S
C1227 C1226 1.415 . S
H1228 C1225 0.999 . S
H1229 C1210 0.913 . S
H1230 C1248 0.951 . S
H1231 C1250 0.951 . S
H1232 C1252 0.950 . S
H1233 C1253 0.950 . S
H1234 C1255 0.950 . S
H1235 C1258 0.950 . S
H1236 C1259 0.950 . S
H1237 C1261 0.950 . S
H1238 C1262 0.950 . S
H1239 C1263 0.951 . S
H1240 C1265 0.951 . S
H1241 C1267 0.950 . S
H1242 C1268 0.950 . S
H1243 C1270 0.950 . S
H1244 C1273 0.950 . S
H1245 C1274 0.950 . S
H1246 C1276 0.950 . S
H1247 C1277 0.950 . S
C1248 H1230 0.951 . S
C1248 C1249 1.366 . S
C1248 C1250 1.388 . S
C1249 C1248 1.366 . S
C1249 C1253 1.385 . S
C1250 H1231 0.951 . S
C1250 C1248 1.388 . S
C1250 C1251 1.366 . S
C1251 C1250 1.366 . S
C1251 C1252 1.414 . S
C1251 C1254 1.499 . S
C1252 H1232 0.950 . S
C1252 C1251 1.414 . S
C1252 C1253 1.374 . S
C1253 H1233 0.950 . S
C1253 C1249 1.385 . S
C1253 C1252 1.374 . S
C1254 C1251 1.499 . S
C1254 C1255 1.373 . S
C1254 C1256 1.389 . S
C1255 H1234 0.950 . S
C1255 C1254 1.373 . S
C1255 C1271 1.377 . S
C1256 C1254 1.389 . S
C1256 C1257 1.524 . S
C1256 C1270 1.377 . S
C1257 C1256 1.524 . S
C1257 C1258 1.397 . S
C1257 C1262 1.363 . S
C1258 H1235 0.950 . S
C1258 C1257 1.397 . S
C1258 C1259 1.334 . S
C1259 H1236 0.950 . S
C1259 C1258 1.334 . S
C1259 C1260 1.287 . S
C1260 C1259 1.287 . S
C1260 C1261 1.524 . S
C1260 H1279 0.913 . S
C1261 H1237 0.950 . S
C1261 C1260 1.524 . S
C1261 C1262 1.415 . S
C1262 H1238 0.950 . S
C1262 C1257 1.363 . S
C1262 C1261 1.415 . S
C1263 H1239 0.951 . S
C1263 C1264 1.366 . S
C1263 C1265 1.388 . S
C1264 C1263 1.366 . S
C1264 C1268 1.385 . S
C1265 H1240 0.951 . S
C1265 C1263 1.388 . S
C1265 C1266 1.366 . S
C1266 C1265 1.366 . S
C1266 C1267 1.414 . S
C1266 C1269 1.499 . S
C1267 H1241 0.950 . S
C1267 C1266 1.414 . S
C1267 C1268 1.374 . S
C1268 H1242 0.950 . S
C1268 C1264 1.385 . S
C1268 C1267 1.374 . S
C1269 C1266 1.499 . S
C1269 C1270 1.373 . S
C1269 C1271 1.389 . S
C1270 H1243 0.950 . S
C1270 C1256 1.377 . S
C1270 C1269 1.373 . S
C1271 C1255 1.377 . S
C1271 C1269 1.389 . S
C1271 C1272 1.524 . S
C1272 C1271 1.524 . S
C1272 C1273 1.397 . S
C1272 C1277 1.363 . S
C1273 H1244 0.950 . S
C1273 C1272 1.397 . S
C1273 C1274 1.334 . S
C1274 H1245 0.950 . S
C1274 C1273 1.334 . S
C1274 C1275 1.287 . S
C1275 C1274 1.287 . S
C1275 C1276 1.524 . S
C1275 H1278 0.999 . S
C1276 H1246 0.950 . S
C1276 C1275 1.524 . S
C1276 C1277 1.415 . S
C1277 H1247 0.950 . S
C1277 C1272 1.363 . S
C1277 C1276 1.415 . S
H1278 C1275 0.999 . S
H1279 C1260 0.913 . S
H1280 C1298 0.951 . S
H1281 C1300 0.951 . S
H1282 C1302 0.950 . S
H1283 C1303 0.950 . S
H1284 C1305 0.959 . S
H1285 C1308 0.950 . S
H1286 C1309 0.950 . S
H1287 C1311 0.950 . S
H1288 C1312 0.950 . S
H1289 C1313 0.951 . S
H1290 C1315 0.951 . S
H1291 C1317 0.950 . S
H1292 C1318 0.950 . S
H1293 C1320 0.950 . S
H1294 C1323 0.950 . S
H1295 C1324 0.950 . S
H1296 C1326 0.950 . S
H1297 C1327 0.950 . S
C1298 H1280 0.951 . S
C1298 C1299 1.366 1_565 S
C1298 C1300 1.388 . S
C1299 C1298 1.366 1_545 S
C1299 C1303 1.385 . S
C1300 H1281 0.951 . S
C1300 C1298 1.388 . S
C1300 C1301 1.366 . S
C1301 C1300 1.366 . S
C1301 C1302 1.414 1_565 S
C1301 C1304 1.499 . S
C1302 H1282 0.950 . S
C1302 C1301 1.414 1_545 S
C1302 C1303 1.374 . S
C1303 H1283 0.950 . S
C1303 C1299 1.385 . S
C1303 C1302 1.374 . S
C1304 C1301 1.499 . S
C1304 C1305 1.373 . S
C1304 C1306 1.389 . S
C1305 H1284 0.959 . S
C1305 C1304 1.373 . S
C1305 C1321 1.377 . S
C1306 C1304 1.389 . S
C1306 C1307 1.524 . S
C1306 C1320 1.377 . S
C1307 C1306 1.524 . S
C1307 C1308 1.397 . S
C1307 C1312 1.363 . S
C1308 H1285 0.950 . S
C1308 C1307 1.397 . S
C1308 C1309 1.334 . S
C1309 H1286 0.950 . S
C1309 C1308 1.334 . S
C1309 C1310 1.287 . S
C1310 C1309 1.287 . S
C1310 C1311 1.524 . S
C1310 H1329 0.913 . S
C1311 H1287 0.950 . S
C1311 C1310 1.524 . S
C1311 C1312 1.415 . S
C1312 H1288 0.950 . S
C1312 C1307 1.363 . S
C1312 C1311 1.415 . S
C1313 H1289 0.951 . S
C1313 C1314 1.366 . S
C1313 C1315 1.388 . S
C1314 C1313 1.366 . S
C1314 C1318 1.385 . S
C1315 H1290 0.951 . S
C1315 C1313 1.388 . S
C1315 C1316 1.366 . S
C1316 C1315 1.366 . S
C1316 C1317 1.414 . S
C1316 C1319 1.499 . S
C1317 H1291 0.950 . S
C1317 C1316 1.414 . S
C1317 C1318 1.374 . S
C1318 H1292 0.950 . S
C1318 C1314 1.385 . S
C1318 C1317 1.374 . S
C1319 C1316 1.499 . S
C1319 C1320 1.373 . S
C1319 C1321 1.389 . S
C1320 H1293 0.950 . S
C1320 C1306 1.377 . S
C1320 C1319 1.373 . S
C1321 C1305 1.377 . S
C1321 C1319 1.389 . S
C1321 C1322 1.524 . S
C1322 C1321 1.524 . S
C1322 C1323 1.397 . S
C1322 C1327 1.363 1_565 S
C1323 H1294 0.950 . S
C1323 C1322 1.397 . S
C1323 C1324 1.334 . S
C1324 H1295 0.950 . S
C1324 C1323 1.334 . S
C1324 C1325 1.287 1_565 S
C1325 C1324 1.287 1_545 S
C1325 C1326 1.524 . S
C1325 H1328 0.999 . S
C1326 H1296 0.950 . S
C1326 C1325 1.524 . S
C1326 C1327 1.415 . S
C1327 H1297 0.950 . S
C1327 C1322 1.363 1_545 S
C1327 C1326 1.415 . S
H1328 C1325 0.999 . S
H1329 C1310 0.913 . S
H1330 C1348 0.951 . S
H1331 C1350 0.951 . S
H1332 C1352 0.950 . S
H1333 C1353 0.950 . S
H1334 C1355 0.950 . S
H1335 C1358 0.950 . S
H1336 C1359 0.950 . S
H1337 C1361 0.950 . S
H1338 C1362 0.950 . S
H1339 C1363 0.951 . S
H1340 C1365 0.951 . S
H1341 C1367 0.950 . S
H1342 C1368 0.950 . S
H1343 C1370 0.950 . S
H1344 C1373 0.950 . S
H1345 C1374 0.950 . S
H1346 C1376 0.950 . S
H1347 C1377 0.950 . S
C1348 H1330 0.951 . S
C1348 C1349 1.366 . S
C1348 C1350 1.388 . S
C1349 C1348 1.366 . S
C1349 C1353 1.385 . S
C1350 H1331 0.951 . S
C1350 C1348 1.388 . S
C1350 C1351 1.366 . S
C1351 C1350 1.366 . S
C1351 C1352 1.414 . S
C1351 C1354 1.499 . S
C1352 H1332 0.950 . S
C1352 C1351 1.414 . S
C1352 C1353 1.374 . S
C1353 H1333 0.950 . S
C1353 C1349 1.385 . S
C1353 C1352 1.374 . S
C1354 C1351 1.499 . S
C1354 C1355 1.373 . S
C1354 C1356 1.389 . S
C1355 H1334 0.950 . S
C1355 C1354 1.373 . S
C1355 C1371 1.377 . S
C1356 C1354 1.389 . S
C1356 C1357 1.524 . S
C1356 C1370 1.377 . S
C1357 C1356 1.524 . S
C1357 C1358 1.397 . S
C1357 C1362 1.363 . S
C1358 H1335 0.950 . S
C1358 C1357 1.397 . S
C1358 C1359 1.334 . S
C1359 H1336 0.950 . S
C1359 C1358 1.334 . S
C1359 C1360 1.287 . S
C1360 C1359 1.287 . S
C1360 C1361 1.524 . S
C1360 H1379 0.913 . S
C1361 H1337 0.950 . S
C1361 C1360 1.524 . S
C1361 C1362 1.415 . S
C1362 H1338 0.950 . S
C1362 C1357 1.363 . S
C1362 C1361 1.415 . S
C1363 H1339 0.951 . S
C1363 C1364 1.366 . S
C1363 C1365 1.388 . S
C1364 C1363 1.366 . S
C1364 C1368 1.385 . S
C1365 H1340 0.951 . S
C1365 C1363 1.388 . S
C1365 C1366 1.366 . S
C1366 C1365 1.366 . S
C1366 C1367 1.414 . S
C1366 C1369 1.499 . S
C1367 H1341 0.950 . S
C1367 C1366 1.414 . S
C1367 C1368 1.374 . S
C1368 H1342 0.950 . S
C1368 C1364 1.385 . S
C1368 C1367 1.374 . S
C1369 C1366 1.499 . S
C1369 C1370 1.373 . S
C1369 C1371 1.389 . S
C1370 H1343 0.950 . S
C1370 C1356 1.377 . S
C1370 C1369 1.373 . S
C1371 C1355 1.377 . S
C1371 C1369 1.389 . S
C1371 C1372 1.524 . S
C1372 C1371 1.524 . S
C1372 C1373 1.397 . S
C1372 C1377 1.363 . S
C1373 H1344 0.950 . S
C1373 C1372 1.397 . S
C1373 C1374 1.334 . S
C1374 H1345 0.950 . S
C1374 C1373 1.334 . S
C1374 C1375 1.287 . S
C1375 C1374 1.287 . S
C1375 C1376 1.524 . S
C1375 H1378 0.999 . S
C1376 H1346 0.950 . S
C1376 C1375 1.524 . S
C1376 C1377 1.415 . S
C1377 H1347 0.950 . S
C1377 C1372 1.363 . S
C1377 C1376 1.415 . S
H1378 C1375 0.999 . S
H1379 C1360 0.913 . S
H1380 C1398 0.951 . S
H1381 C1400 0.951 . S
H1382 C1402 0.950 . S
H1383 C1403 0.950 . S
H1384 C1405 0.950 . S
H1385 C1408 0.950 . S
H1386 C1409 0.950 . S
H1387 C1411 0.950 . S
H1388 C1412 0.950 . S
H1389 C1413 0.951 1_554 S
H1390 C1415 0.951 . S
H1391 C1417 0.950 . S
H1392 C1418 0.950 . S
H1393 C1420 0.950 . S
H1394 C1423 0.950 . S
H1395 C1424 0.950 . S
H1396 C1426 0.950 . S
H1397 C1427 0.950 . S
C1398 H1380 0.951 . S
C1398 C1399 1.366 . S
C1398 C1400 1.388 . S
C1399 C1398 1.366 . S
C1399 C1403 1.385 . S
C1400 H1381 0.951 . S
C1400 C1398 1.388 . S
C1400 C1401 1.366 . S
C1401 C1400 1.366 . S
C1401 C1402 1.414 . S
C1401 C1404 1.499 . S
C1402 H1382 0.950 . S
C1402 C1401 1.414 . S
C1402 C1403 1.374 . S
C1403 H1383 0.950 . S
C1403 C1399 1.385 . S
C1403 C1402 1.374 . S
C1404 C1401 1.499 . S
C1404 C1405 1.373 . S
C1404 C1406 1.389 . S
C1405 H1384 0.950 . S
C1405 C1404 1.373 . S
C1405 C1421 1.377 . S
C1406 C1404 1.389 . S
C1406 C1407 1.524 . S
C1406 C1420 1.377 . S
C1407 C1406 1.524 . S
C1407 C1408 1.397 . S
C1407 C1412 1.363 . S
C1408 H1385 0.950 . S
C1408 C1407 1.397 . S
C1408 C1409 1.334 . S
C1409 H1386 0.950 . S
C1409 C1408 1.334 . S
C1409 C1410 1.287 . S
C1410 C1409 1.287 . S
C1410 C1411 1.524 . S
C1410 H1429 0.913 . S
C1411 H1387 0.950 . S
C1411 C1410 1.524 . S
C1411 C1412 1.415 . S
C1412 H1388 0.950 . S
C1412 C1407 1.363 . S
C1412 C1411 1.415 . S
C1413 H1389 0.951 1_556 S
C1413 C1414 1.366 1_556 S
C1413 C1415 1.388 . S
C1414 C1413 1.366 1_554 S
C1414 C1418 1.385 1_554 S
C1415 H1390 0.951 . S
C1415 C1413 1.388 . S
C1415 C1416 1.366 . S
C1416 C1415 1.366 . S
C1416 C1417 1.414 . S
C1416 C1419 1.499 . S
C1417 H1391 0.950 . S
C1417 C1416 1.414 . S
C1417 C1418 1.374 . S
C1418 H1392 0.950 . S
C1418 C1414 1.385 1_556 S
C1418 C1417 1.374 . S
C1419 C1416 1.499 . S
C1419 C1420 1.373 . S
C1419 C1421 1.389 . S
C1420 H1393 0.950 . S
C1420 C1406 1.377 . S
C1420 C1419 1.373 . S
C1421 C1405 1.377 . S
C1421 C1419 1.389 . S
C1421 C1422 1.524 . S
C1422 C1421 1.524 . S
C1422 C1423 1.397 . S
C1422 C1427 1.363 . S
C1423 H1394 0.950 . S
C1423 C1422 1.397 . S
C1423 C1424 1.334 . S
C1424 H1395 0.950 . S
C1424 C1423 1.334 . S
C1424 C1425 1.287 . S
C1425 C1424 1.287 . S
C1425 C1426 1.524 . S
C1425 H1428 0.999 . S
C1426 H1396 0.950 . S
C1426 C1425 1.524 . S
C1426 C1427 1.415 . S
C1427 H1397 0.950 . S
C1427 C1422 1.363 . S
C1427 C1426 1.415 . S
H1428 C1425 0.999 . S
H1429 C1410 0.913 . S
H1430 C1448 0.951 . S
H1431 C1450 0.951 . S
H1432 C1452 0.950 . S
H1433 C1453 0.950 . S
H1434 C1455 0.950 . S
H1435 C1458 0.950 . S
H1436 C1459 0.950 . S
H1437 C1461 0.950 . S
H1438 C1462 0.950 . S
H1439 C1463 0.951 . S
H1440 C1465 0.951 . S
H1441 C1467 0.950 . S
H1442 C1468 0.950 . S
H1443 C1470 0.950 . S
H1444 C1473 0.950 . S
H1445 C1474 0.950 . S
H1446 C1476 0.950 . S
H1447 C1477 0.950 . S
C1448 H1430 0.951 . S
C1448 C1449 1.366 . S
C1448 C1450 1.388 . S
C1449 C1448 1.366 . S
C1449 C1453 1.385 . S
C1450 H1431 0.951 . S
C1450 C1448 1.388 . S
C1450 C1451 1.366 . S
C1451 C1450 1.366 . S
C1451 C1452 1.414 . S
C1451 C1454 1.499 . S
C1452 H1432 0.950 . S
C1452 C1451 1.414 . S
C1452 C1453 1.374 . S
C1453 H1433 0.950 . S
C1453 C1449 1.385 . S
C1453 C1452 1.374 . S
C1454 C1451 1.499 . S
C1454 C1455 1.373 . S
C1454 C1456 1.389 . S
C1455 H1434 0.950 . S
C1455 C1454 1.373 . S
C1455 C1471 1.377 . S
C1456 C1454 1.389 . S
C1456 C1457 1.524 . S
C1456 C1470 1.377 . S
C1457 C1456 1.524 . S
C1457 C1458 1.397 . S
C1457 C1462 1.363 . S
C1458 H1435 0.950 . S
C1458 C1457 1.397 . S
C1458 C1459 1.334 . S
C1459 H1436 0.950 . S
C1459 C1458 1.334 . S
C1459 C1460 1.287 . S
C1460 C1459 1.287 . S
C1460 C1461 1.524 . S
C1460 H1479 0.913 . S
C1461 H1437 0.950 . S
C1461 C1460 1.524 . S
C1461 C1462 1.415 . S
C1462 H1438 0.950 . S
C1462 C1457 1.363 . S
C1462 C1461 1.415 . S
C1463 H1439 0.951 . S
C1463 C1464 1.366 . S
C1463 C1465 1.388 . S
C1464 C1463 1.366 . S
C1464 C1468 1.385 . S
C1465 H1440 0.951 . S
C1465 C1463 1.388 . S
C1465 C1466 1.366 . S
C1466 C1465 1.366 . S
C1466 C1467 1.414 . S
C1466 C1469 1.499 . S
C1467 H1441 0.950 . S
C1467 C1466 1.414 . S
C1467 C1468 1.374 . S
C1468 H1442 0.950 . S
C1468 C1464 1.385 . S
C1468 C1467 1.374 . S
C1469 C1466 1.499 . S
C1469 C1470 1.373 . S
C1469 C1471 1.389 . S
C1470 H1443 0.950 . S
C1470 C1456 1.377 . S
C1470 C1469 1.373 . S
C1471 C1455 1.377 . S
C1471 C1469 1.389 . S
C1471 C1472 1.524 . S
C1472 C1471 1.524 . S
C1472 C1473 1.397 . S
C1472 C1477 1.363 . S
C1473 H1444 0.950 . S
C1473 C1472 1.397 . S
C1473 C1474 1.334 . S
C1474 H1445 0.950 . S
C1474 C1473 1.334 . S
C1474 C1475 1.287 . S
C1475 C1474 1.287 . S
C1475 C1476 1.524 . S
C1475 H1478 0.999 . S
C1476 H1446 0.950 . S
C1476 C1475 1.524 . S
C1476 C1477 1.415 . S
C1477 H1447 0.950 . S
C1477 C1472 1.363 . S
C1477 C1476 1.415 . S
H1478 C1475 0.999 . S
H1479 C1460 0.913 . S
H1480 C1498 0.951 . S
H1481 C1500 0.951 . S
H1482 C1502 0.950 . S
H1483 C1503 0.950 . S
H1484 C1505 0.950 . S
H1485 C1508 0.950 . S
H1486 C1509 0.950 . S
H1487 C1511 0.950 . S
H1488 C1512 0.950 . S
H1489 C1513 0.951 . S
H1490 C1515 0.951 . S
H1491 C1517 0.950 . S
H1492 C1518 0.950 . S
H1493 C1520 0.950 . S
H1494 C1523 0.950 . S
H1495 C1524 0.950 . S
H1496 C1526 0.950 . S
H1497 C1527 0.950 . S
C1498 H1480 0.951 . S
C1498 C1499 1.366 . S
C1498 C1500 1.388 . S
C1499 C1498 1.366 . S
C1499 C1503 1.385 . S
C1500 H1481 0.951 . S
C1500 C1498 1.388 . S
C1500 C1501 1.366 . S
C1501 C1500 1.366 . S
C1501 C1502 1.414 . S
C1501 C1504 1.499 . S
C1502 H1482 0.950 . S
C1502 C1501 1.414 . S
C1502 C1503 1.374 . S
C1503 H1483 0.950 . S
C1503 C1499 1.385 . S
C1503 C1502 1.374 . S
C1504 C1501 1.499 . S
C1504 C1505 1.373 . S
C1504 C1506 1.389 . S
C1505 H1484 0.950 . S
C1505 C1504 1.373 . S
C1505 C1521 1.377 . S
C1506 C1504 1.389 . S
C1506 C1507 1.524 . S
C1506 C1520 1.377 . S
C1507 C1506 1.524 . S
C1507 C1508 1.397 . S
C1507 C1512 1.363 . S
C1508 H1485 0.950 . S
C1508 C1507 1.397 . S
C1508 C1509 1.334 . S
C1509 H1486 0.950 . S
C1509 C1508 1.334 . S
C1509 C1510 1.287 . S
C1510 C1509 1.287 . S
C1510 C1511 1.524 . S
C1510 H1529 0.913 . S
C1511 H1487 0.950 . S
C1511 C1510 1.524 . S
C1511 C1512 1.415 . S
C1512 H1488 0.950 . S
C1512 C1507 1.363 . S
C1512 C1511 1.415 . S
C1513 H1489 0.951 . S
C1513 C1514 1.366 . S
C1513 C1515 1.388 . S
C1514 C1513 1.366 . S
C1514 C1518 1.385 . S
C1515 H1490 0.951 . S
C1515 C1513 1.388 . S
C1515 C1516 1.366 . S
C1516 C1515 1.366 . S
C1516 C1517 1.414 . S
C1516 C1519 1.499 . S
C1517 H1491 0.950 . S
C1517 C1516 1.414 . S
C1517 C1518 1.374 . S
C1518 H1492 0.950 . S
C1518 C1514 1.385 . S
C1518 C1517 1.374 . S
C1519 C1516 1.499 . S
C1519 C1520 1.373 . S
C1519 C1521 1.389 . S
C1520 H1493 0.950 . S
C1520 C1506 1.377 . S
C1520 C1519 1.373 . S
C1521 C1505 1.377 . S
C1521 C1519 1.389 . S
C1521 C1522 1.524 . S
C1522 C1521 1.524 . S
C1522 C1523 1.397 . S
C1522 C1527 1.363 . S
C1523 H1494 0.950 . S
C1523 C1522 1.397 . S
C1523 C1524 1.334 . S
C1524 H1495 0.950 . S
C1524 C1523 1.334 . S
C1524 C1525 1.287 . S
C1525 C1524 1.287 . S
C1525 C1526 1.524 . S
C1525 H1528 0.999 . S
C1526 H1496 0.950 . S
C1526 C1525 1.524 . S
C1526 C1527 1.415 . S
C1527 H1497 0.950 . S
C1527 C1522 1.363 . S
C1527 C1526 1.415 . S
H1528 C1525 0.999 . S
H1529 C1510 0.913 . S
H1530 C1548 0.951 . S
H1531 C1550 0.951 . S
H1532 C1552 0.950 . S
H1533 C1553 0.950 . S
H1534 C1555 0.950 . S
H1535 C1558 0.950 . S
H1536 C1559 0.950 . S
H1537 C1561 0.950 . S
H1538 C1562 0.950 . S
H1539 C1563 0.951 . S
H1540 C1565 0.951 . S
H1541 C1567 0.950 . S
H1542 C1568 0.950 . S
H1543 C1570 0.950 . S
H1544 C1573 0.950 . S
H1545 C1574 0.950 . S
H1546 C1576 0.950 . S
H1547 C1577 0.950 . S
C1548 H1530 0.951 . S
C1548 C1549 1.366 . S
C1548 C1550 1.388 . S
C1549 C1548 1.366 . S
C1549 C1553 1.385 . S
C1550 H1531 0.951 . S
C1550 C1548 1.388 . S
C1550 C1551 1.366 . S
C1551 C1550 1.366 . S
C1551 C1552 1.414 . S
C1551 C1554 1.499 . S
C1552 H1532 0.950 . S
C1552 C1551 1.414 . S
C1552 C1553 1.374 . S
C1553 H1533 0.950 . S
C1553 C1549 1.385 . S
C1553 C1552 1.374 . S
C1554 C1551 1.499 . S
C1554 C1555 1.373 . S
C1554 C1556 1.389 . S
C1555 H1534 0.950 . S
C1555 C1554 1.373 . S
C1555 C1571 1.377 . S
C1556 C1554 1.389 . S
C1556 C1557 1.524 . S
C1556 C1570 1.377 . S
C1557 C1556 1.524 . S
C1557 C1558 1.397 . S
C1557 C1562 1.363 . S
C1558 H1535 0.950 . S
C1558 C1557 1.397 . S
C1558 C1559 1.334 . S
C1559 H1536 0.950 . S
C1559 C1558 1.334 . S
C1559 C1560 1.287 . S
C1560 C1559 1.287 . S
C1560 C1561 1.524 . S
C1560 H1579 0.913 . S
C1561 H1537 0.950 . S
C1561 C1560 1.524 . S
C1561 C1562 1.415 . S
C1562 H1538 0.950 . S
C1562 C1557 1.363 . S
C1562 C1561 1.415 . S
C1563 H1539 0.951 . S
C1563 C1564 1.366 . S
C1563 C1565 1.388 . S
C1564 C1563 1.366 . S
C1564 C1568 1.385 . S
C1565 H1540 0.951 . S
C1565 C1563 1.388 . S
C1565 C1566 1.366 . S
C1566 C1565 1.366 . S
C1566 C1567 1.414 . S
C1566 C1569 1.499 . S
C1567 H1541 0.950 . S
C1567 C1566 1.414 . S
C1567 C1568 1.374 . S
C1568 H1542 0.950 . S
C1568 C1564 1.385 . S
C1568 C1567 1.374 . S
C1569 C1566 1.499 . S
C1569 C1570 1.373 . S
C1569 C1571 1.389 . S
C1570 H1543 0.950 . S
C1570 C1556 1.377 . S
C1570 C1569 1.373 . S
C1571 C1555 1.377 . S
C1571 C1569 1.389 . S
C1571 C1572 1.524 . S
C1572 C1571 1.524 . S
C1572 C1573 1.397 . S
C1572 C1577 1.363 . S
C1573 H1544 0.950 . S
C1573 C1572 1.397 . S
C1573 C1574 1.334 . S
C1574 H1545 0.950 . S
C1574 C1573 1.334 . S
C1574 C1575 1.287 . S
C1575 C1574 1.287 . S
C1575 C1576 1.524 . S
C1575 H1578 0.999 . S
C1576 H1546 0.950 . S
C1576 C1575 1.524 . S
C1576 C1577 1.415 . S
C1577 H1547 0.950 . S
C1577 C1572 1.363 . S
C1577 C1576 1.415 . S
H1578 C1575 0.999 . S
H1579 C1560 0.913 . S
H1580 C1598 0.951 . S
H1581 C1600 0.951 . S
H1582 C1602 0.950 . S
H1583 C1603 0.950 . S
H1584 C1605 0.950 . S
H1585 C1608 0.950 . S
H1586 C1609 0.950 . S
H1587 C1611 0.980 . S
H1588 C1612 0.950 . S
H1589 C1613 0.951 . S
H1590 C1615 0.951 . S
H1591 C1617 0.950 . S
H1592 C1618 0.950 . S
H1593 C1620 0.950 . S
H1594 C1623 0.950 . S
H1595 C1624 0.950 . S
H1596 C1626 0.950 . S
H1597 C1627 0.950 . S
C1598 H1580 0.951 . S
C1598 C1599 1.366 . S
C1598 C1600 1.388 . S
C1599 C1598 1.366 . S
C1599 C1603 1.385 . S
C1600 H1581 0.951 . S
C1600 C1598 1.388 . S
C1600 C1601 1.366 . S
C1601 C1600 1.366 . S
C1601 C1602 1.414 . S
C1601 C1604 1.499 . S
C1602 H1582 0.950 . S
C1602 C1601 1.414 . S
C1602 C1603 1.374 . S
C1603 H1583 0.950 . S
C1603 C1599 1.385 . S
C1603 C1602 1.374 . S
C1604 C1601 1.499 . S
C1604 C1605 1.373 . S
C1604 C1606 1.389 . S
C1605 H1584 0.950 . S
C1605 C1604 1.373 . S
C1605 C1621 1.377 . S
C1606 C1604 1.389 . S
C1606 C1607 1.524 . S
C1606 C1620 1.377 . S
C1607 C1606 1.524 . S
C1607 C1608 1.397 . S
C1607 C1612 1.363 . S
C1608 H1585 0.950 . S
C1608 C1607 1.397 . S
C1608 C1609 1.334 . S
C1609 H1586 0.950 . S
C1609 C1608 1.334 . S
C1609 C1610 1.287 . S
C1610 C1609 1.287 . S
C1610 C1611 1.524 . S
C1610 H1629 0.913 . S
C1611 H1587 0.980 . S
C1611 C1610 1.524 . S
C1611 C1612 1.415 . S
C1612 H1588 0.950 . S
C1612 C1607 1.363 . S
C1612 C1611 1.415 . S
C1613 H1589 0.951 . S
C1613 C1614 1.366 . S
C1613 C1615 1.388 . S
C1614 C1613 1.366 . S
C1614 C1618 1.385 . S
C1615 H1590 0.951 . S
C1615 C1613 1.388 . S
C1615 C1616 1.366 . S
C1616 C1615 1.366 . S
C1616 C1617 1.414 . S
C1616 C1619 1.499 . S
C1617 H1591 0.950 . S
C1617 C1616 1.414 . S
C1617 C1618 1.374 . S
C1618 H1592 0.950 . S
C1618 C1614 1.385 . S
C1618 C1617 1.374 . S
C1619 C1616 1.499 . S
C1619 C1620 1.373 . S
C1619 C1621 1.389 . S
C1620 H1593 0.950 . S
C1620 C1606 1.377 . S
C1620 C1619 1.373 . S
C1621 C1605 1.377 . S
C1621 C1619 1.389 . S
C1621 C1622 1.524 . S
C1622 C1621 1.524 . S
C1622 C1623 1.397 . S
C1622 C1627 1.363 . S
C1623 H1594 0.950 . S
C1623 C1622 1.397 . S
C1623 C1624 1.334 . S
C1624 H1595 0.950 . S
C1624 C1623 1.334 . S
C1624 C1625 1.287 . S
C1625 C1624 1.287 . S
C1625 C1626 1.524 . S
C1625 H1628 0.999 . S
C1626 H1596 0.950 . S
C1626 C1625 1.524 . S
C1626 C1627 1.415 . S
C1627 H1597 0.950 . S
C1627 C1622 1.363 . S
C1627 C1626 1.415 . S
H1628 C1625 0.999 . S
H1629 C1610 0.913 . S
H1630 C1648 0.951 . S
H1631 C1650 0.951 . S
H1632 C1652 0.950 . S
H1633 C1653 0.950 . S
H1634 C1655 0.950 . S
H1635 C1658 0.950 . S
H1636 C1659 0.950 . S
H1637 C1661 0.950 . S
H1638 C1662 0.950 . S
H1639 C1663 0.951 . S
H1640 C1665 0.948 1_545 S
H1641 C1667 0.950 . S
H1642 C1668 0.950 . S
H1643 C1670 0.950 1_565 S
H1644 C1673 0.950 . S
H1645 C1674 0.950 . S
H1646 C1676 0.950 . S
H1647 C1677 0.950 . S
C1648 H1630 0.951 . S
C1648 C1649 1.366 . S
C1648 C1650 1.388 . S
C1649 C1648 1.366 . S
C1649 C1653 1.385 . S
C1650 H1631 0.951 . S
C1650 C1648 1.388 . S
C1650 C1651 1.366 . S
C1651 C1650 1.366 . S
C1651 C1652 1.414 . S
C1651 C1654 1.499 . S
C1652 H1632 0.950 . S
C1652 C1651 1.414 . S
C1652 C1653 1.374 . S
C1653 H1633 0.950 . S
C1653 C1649 1.385 . S
C1653 C1652 1.374 . S
C1654 C1651 1.499 . S
C1654 C1655 1.373 . S
C1654 C1656 1.389 . S
C1655 H1634 0.950 . S
C1655 C1654 1.373 . S
C1655 C1671 1.377 . S
C1656 C1654 1.389 . S
C1656 C1657 1.524 . S
C1656 C1670 1.377 . S
C1657 C1656 1.524 . S
C1657 C1658 1.397 . S
C1657 C1662 1.363 1_545 S
C1658 H1635 0.950 . S
C1658 C1657 1.397 . S
C1658 C1659 1.334 1_545 S
C1659 H1636 0.950 . S
C1659 C1658 1.334 1_565 S
C1659 C1660 1.287 . S
C1660 C1659 1.287 . S
C1660 C1661 1.524 . S
C1660 H1679 0.913 . S
C1661 H1637 0.950 . S
C1661 C1660 1.524 . S
C1661 C1662 1.415 . S
C1662 H1638 0.950 . S
C1662 C1657 1.363 1_565 S
C1662 C1661 1.415 . S
C1663 H1639 0.951 . S
C1663 C1664 1.366 . S
C1663 C1665 1.390 . S
C1664 C1663 1.366 . S
C1664 C1668 1.385 . S
C1665 H1640 0.948 1_565 S
C1665 C1663 1.390 . S
C1665 C1666 1.365 1_565 S
C1666 C1665 1.365 1_545 S
C1666 C1667 1.412 1_545 S
C1666 C1669 1.501 . S
C1667 H1641 0.950 . S
C1667 C1666 1.412 1_565 S
C1667 C1668 1.374 . S
C1668 H1642 0.950 . S
C1668 C1664 1.385 . S
C1668 C1667 1.374 . S
C1669 C1666 1.501 . S
C1669 C1670 1.373 . S
C1669 C1671 1.389 . S
C1670 H1643 0.950 1_545 S
C1670 C1656 1.377 . S
C1670 C1669 1.373 . S
C1671 C1655 1.377 . S
C1671 C1669 1.389 . S
C1671 C1672 1.524 . S
C1672 C1671 1.524 . S
C1672 C1673 1.397 . S
C1672 C1677 1.363 . S
C1673 H1644 0.950 . S
C1673 C1672 1.397 . S
C1673 C1674 1.334 . S
C1674 H1645 0.950 . S
C1674 C1673 1.334 . S
C1674 C1675 1.287 . S
C1675 C1674 1.287 . S
C1675 C1676 1.524 . S
C1675 H1678 0.999 . S
C1676 H1646 0.950 . S
C1676 C1675 1.524 . S
C1676 C1677 1.415 . S
C1677 H1647 0.950 . S
C1677 C1672 1.363 . S
C1677 C1676 1.415 . S
H1678 C1675 0.999 . S
H1679 C1660 0.913 . S
H1680 C1698 0.951 . S
H1681 C1700 0.951 . S
H1682 C1702 0.950 . S
H1683 C1703 0.950 . S
H1684 C1705 0.950 . S
H1685 C1708 0.950 . S
H1686 C1709 0.950 . S
H1687 C1711 0.950 . S
H1688 C1712 0.950 . S
H1689 C1713 0.951 . S
H1690 C1715 0.951 . S
H1691 C1717 0.950 . S
H1692 C1718 0.950 . S
H1693 C1720 0.950 . S
H1694 C1723 0.950 . S
H1695 C1724 0.950 . S
H1696 C1726 0.950 . S
H1697 C1727 0.950 . S
C1698 H1680 0.951 . S
C1698 C1699 1.366 . S
C1698 C1700 1.388 . S
C1699 C1698 1.366 . S
C1699 C1703 1.385 . S
C1700 H1681 0.951 . S
C1700 C1698 1.388 . S
C1700 C1701 1.366 . S
C1701 C1700 1.366 . S
C1701 C1702 1.414 . S
C1701 C1704 1.499 . S
C1702 H1682 0.950 . S
C1702 C1701 1.414 . S
C1702 C1703 1.374 . S
C1703 H1683 0.950 . S
C1703 C1699 1.385 . S
C1703 C1702 1.374 . S
C1704 C1701 1.499 . S
C1704 C1705 1.373 . S
C1704 C1706 1.389 . S
C1705 H1684 0.950 . S
C1705 C1704 1.373 . S
C1705 C1721 1.377 . S
C1706 C1704 1.389 . S
C1706 C1707 1.524 . S
C1706 C1720 1.377 . S
C1707 C1706 1.524 . S
C1707 C1708 1.397 . S
C1707 C1712 1.363 . S
C1708 H1685 0.950 . S
C1708 C1707 1.397 . S
C1708 C1709 1.334 . S
C1709 H1686 0.950 . S
C1709 C1708 1.334 . S
C1709 C1710 1.287 . S
C1710 C1709 1.287 . S
C1710 C1711 1.524 . S
C1710 H1729 0.913 . S
C1711 H1687 0.950 . S
C1711 C1710 1.524 . S
C1711 C1712 1.415 . S
C1712 H1688 0.950 . S
C1712 C1707 1.363 . S
C1712 C1711 1.415 . S
C1713 H1689 0.951 . S
C1713 C1714 1.366 . S
C1713 C1715 1.388 . S
C1714 C1713 1.366 . S
C1714 C1718 1.385 . S
C1715 H1690 0.951 . S
C1715 C1713 1.388 . S
C1715 C1716 1.366 . S
C1716 C1715 1.366 . S
C1716 C1717 1.414 . S
C1716 C1719 1.499 . S
C1717 H1691 0.950 . S
C1717 C1716 1.414 . S
C1717 C1718 1.374 . S
C1718 H1692 0.950 . S
C1718 C1714 1.385 . S
C1718 C1717 1.374 . S
C1719 C1716 1.499 . S
C1719 C1720 1.373 . S
C1719 C1721 1.389 . S
C1720 H1693 0.950 . S
C1720 C1706 1.377 . S
C1720 C1719 1.373 . S
C1721 C1705 1.377 . S
C1721 C1719 1.389 . S
C1721 C1722 1.524 . S
C1722 C1721 1.524 . S
C1722 C1723 1.397 . S
C1722 C1727 1.363 . S
C1723 H1694 0.950 . S
C1723 C1722 1.397 . S
C1723 C1724 1.334 . S
C1724 H1695 0.950 . S
C1724 C1723 1.334 . S
C1724 C1725 1.287 . S
C1725 C1724 1.287 . S
C1725 C1726 1.524 . S
C1725 H1728 0.999 . S
C1726 H1696 0.950 . S
C1726 C1725 1.524 . S
C1726 C1727 1.415 . S
C1727 H1697 0.950 . S
C1727 C1722 1.363 . S
C1727 C1726 1.415 . S
H1728 C1725 0.999 . S
H1729 C1710 0.913 . S
H1730 C1748 0.951 . S
H1731 C1750 0.951 . S
H1732 C1752 0.950 . S
H1733 C1753 0.950 . S
H1734 C1755 0.950 . S
H1735 C1758 0.950 . S
H1736 C1759 0.950 . S
H1737 C1761 0.950 . S
H1738 C1762 0.950 . S
H1739 C1763 0.951 . S
H1740 C1765 0.951 . S
H1741 C1767 0.950 . S
H1742 C1768 0.950 . S
H1743 C1770 0.950 . S
H1744 C1773 0.950 . S
H1745 C1774 0.950 . S
H1746 C1776 0.950 . S
H1747 C1777 0.950 . S
C1748 H1730 0.951 . S
C1748 C1749 1.366 . S
C1748 C1750 1.388 . S
C1749 C1748 1.366 . S
C1749 C1753 1.385 . S
C1750 H1731 0.951 . S
C1750 C1748 1.388 . S
C1750 C1751 1.366 . S
C1751 C1750 1.366 . S
C1751 C1752 1.414 . S
C1751 C1754 1.499 . S
C1752 H1732 0.950 . S
C1752 C1751 1.414 . S
C1752 C1753 1.374 . S
C1753 H1733 0.950 . S
C1753 C1749 1.385 . S
C1753 C1752 1.374 . S
C1754 C1751 1.499 . S
C1754 C1755 1.373 . S
C1754 C1756 1.389 . S
C1755 H1734 0.950 . S
C1755 C1754 1.373 . S
C1755 C1771 1.377 . S
C1756 C1754 1.389 . S
C1756 C1757 1.524 . S
C1756 C1770 1.377 . S
C1757 C1756 1.524 . S
C1757 C1758 1.397 . S
C1757 C1762 1.363 . S
C1758 H1735 0.950 . S
C1758 C1757 1.397 . S
C1758 C1759 1.334 . S
C1759 H1736 0.950 . S
C1759 C1758 1.334 . S
C1759 C1760 1.287 . S
C1760 C1759 1.287 . S
C1760 C1761 1.524 . S
C1760 H1779 0.913 . S
C1761 H1737 0.950 . S
C1761 C1760 1.524 . S
C1761 C1762 1.415 . S
C1762 H1738 0.950 . S
C1762 C1757 1.363 . S
C1762 C1761 1.415 . S
C1763 H1739 0.951 . S
C1763 C1764 1.366 . S
C1763 C1765 1.388 . S
C1764 C1763 1.366 . S
C1764 C1768 1.385 . S
C1765 H1740 0.951 . S
C1765 C1763 1.388 . S
C1765 C1766 1.366 . S
C1766 C1765 1.366 . S
C1766 C1767 1.414 . S
C1766 C1769 1.499 . S
C1767 H1741 0.950 . S
C1767 C1766 1.414 . S
C1767 C1768 1.374 . S
C1768 H1742 0.950 . S
C1768 C1764 1.385 . S
C1768 C1767 1.374 . S
C1769 C1766 1.499 . S
C1769 C1770 1.373 . S
C1769 C1771 1.389 . S
C1770 H1743 0.950 . S
C1770 C1756 1.377 . S
C1770 C1769 1.373 . S
C1771 C1755 1.377 . S
C1771 C1769 1.389 . S
C1771 C1772 1.524 . S
C1772 C1771 1.524 . S
C1772 C1773 1.397 . S
C1772 C1777 1.363 . S
C1773 H1744 0.950 . S
C1773 C1772 1.397 . S
C1773 C1774 1.334 . S
C1774 H1745 0.950 . S
C1774 C1773 1.334 . S
C1774 C1775 1.287 . S
C1775 C1774 1.287 . S
C1775 C1776 1.524 . S
C1775 H1778 0.999 . S
C1776 H1746 0.950 . S
C1776 C1775 1.524 . S
C1776 C1777 1.415 . S
C1777 H1747 0.950 . S
C1777 C1772 1.363 . S
C1777 C1776 1.415 . S
H1778 C1775 0.999 . S
H1779 C1760 0.913 . S
H1780 C1798 0.951 . S
H1781 C1800 0.951 1_655 S
H1782 C1802 0.950 . S
H1783 C1803 0.950 . S
H1784 C1805 0.950 . S
H1785 C1808 0.950 . S
H1786 C1809 0.950 . S
H1787 C1811 0.950 . S
H1788 C1812 0.950 . S
H1789 C1813 0.951 . S
H1790 C1815 0.951 1_455 S
H1791 C1817 0.950 . S
H1792 C1818 0.950 . S
H1793 C1820 0.950 . S
H1794 C1823 0.950 . S
H1795 C1824 0.950 1_655 S
H1796 C1826 0.950 . S
H1797 C1827 0.950 . S
C1798 H1780 0.951 . S
C1798 C1799 1.366 . S
C1798 C1800 1.388 . S
C1799 C1798 1.366 . S
C1799 C1803 1.385 . S
C1800 H1781 0.951 1_455 S
C1800 C1798 1.388 . S
C1800 C1801 1.366 . S
C1801 C1800 1.366 . S
C1801 C1802 1.414 . S
C1801 C1804 1.499 . S
C1802 H1782 0.950 . S
C1802 C1801 1.414 . S
C1802 C1803 1.374 . S
C1803 H1783 0.950 . S
C1803 C1799 1.385 . S
C1803 C1802 1.374 . S
C1804 C1801 1.499 . S
C1804 C1805 1.373 . S
C1804 C1806 1.389 1_455 S
C1805 H1784 0.950 . S
C1805 C1804 1.373 . S
C1805 C1821 1.377 . S
C1806 C1804 1.389 1_655 S
C1806 C1807 1.524 . S
C1806 C1820 1.377 . S
C1807 C1806 1.524 . S
C1807 C1808 1.397 1_655 S
C1807 C1812 1.363 . S
C1808 H1785 0.950 . S
C1808 C1807 1.397 1_455 S
C1808 C1809 1.334 . S
C1809 H1786 0.950 . S
C1809 C1808 1.334 . S
C1809 C1810 1.287 1_455 S
C1810 C1809 1.287 1_655 S
C1810 C1811 1.524 . S
C1810 H1829 0.913 . S
C1811 H1787 0.950 . S
C1811 C1810 1.524 . S
C1811 C1812 1.415 . S
C1812 H1788 0.950 . S
C1812 C1807 1.363 . S
C1812 C1811 1.415 . S
C1813 H1789 0.951 . S
C1813 C1814 1.366 . S
C1813 C1815 1.388 . S
C1814 C1813 1.366 . S
C1814 C1818 1.385 . S
C1815 H1790 0.951 1_655 S
C1815 C1813 1.388 . S
C1815 C1816 1.366 . S
C1816 C1815 1.366 . S
C1816 C1817 1.414 . S
C1816 C1819 1.499 . S
C1817 H1791 0.950 . S
C1817 C1816 1.414 . S
C1817 C1818 1.374 . S
C1818 H1792 0.950 . S
C1818 C1814 1.385 . S
C1818 C1817 1.374 . S
C1819 C1816 1.499 . S
C1819 C1820 1.373 . S
C1819 C1821 1.389 1_655 S
C1820 H1793 0.950 . S
C1820 C1806 1.377 . S
C1820 C1819 1.373 . S
C1821 C1805 1.377 . S
C1821 C1819 1.389 1_455 S
C1821 C1822 1.524 . S
C1822 C1821 1.524 . S
C1822 C1823 1.397 1_455 S
C1822 C1827 1.363 . S
C1823 H1794 0.950 . S
C1823 C1822 1.397 1_655 S
C1823 C1824 1.334 1_655 S
C1824 H1795 0.950 1_455 S
C1824 C1823 1.334 1_455 S
C1824 C1825 1.287 . S
C1825 C1824 1.287 . S
C1825 C1826 1.524 . S
C1825 H1828 0.999 . S
C1826 H1796 0.950 . S
C1826 C1825 1.524 . S
C1826 C1827 1.415 . S
C1827 H1797 0.950 . S
C1827 C1822 1.363 . S
C1827 C1826 1.415 . S
H1828 C1825 0.999 . S
H1829 C1810 0.913 . S
H1830 C1848 0.951 . S
H1831 C1850 0.951 . S
H1832 C1852 0.950 . S
H1833 C1853 0.950 . S
H1834 C1855 0.950 . S
H1835 C1858 0.950 . S
H1836 C1859 0.950 . S
H1837 C1861 0.950 . S
H1838 C1862 0.950 . S
H1839 C1863 0.951 . S
H1840 C1865 0.951 . S
H1841 C1867 0.950 . S
H1842 C1868 0.950 . S
H1843 C1870 0.950 . S
H1844 C1873 0.950 . S
H1845 C1874 0.950 . S
H1846 C1876 0.950 . S
H1847 C1877 0.950 . S
C1848 H1830 0.951 . S
C1848 C1849 1.366 . S
C1848 C1850 1.388 . S
C1849 C1848 1.366 . S
C1849 C1853 1.385 . S
C1850 H1831 0.951 . S
C1850 C1848 1.388 . S
C1850 C1851 1.366 . S
C1851 C1850 1.366 . S
C1851 C1852 1.414 . S
C1851 C1854 1.499 . S
C1852 H1832 0.950 . S
C1852 C1851 1.414 . S
C1852 C1853 1.374 . S
C1853 H1833 0.950 . S
C1853 C1849 1.385 . S
C1853 C1852 1.374 . S
C1854 C1851 1.499 . S
C1854 C1855 1.373 . S
C1854 C1856 1.389 . S
C1855 H1834 0.950 . S
C1855 C1854 1.373 . S
C1855 C1871 1.377 . S
C1856 C1854 1.389 . S
C1856 C1857 1.524 . S
C1856 C1870 1.377 . S
C1857 C1856 1.524 . S
C1857 C1858 1.397 . S
C1857 C1862 1.363 . S
C1858 H1835 0.950 . S
C1858 C1857 1.397 . S
C1858 C1859 1.334 . S
C1859 H1836 0.950 . S
C1859 C1858 1.334 . S
C1859 C1860 1.287 . S
C1860 C1859 1.287 . S
C1860 C1861 1.524 . S
C1860 H1879 0.913 . S
C1861 H1837 0.950 . S
C1861 C1860 1.524 . S
C1861 C1862 1.415 . S
C1862 H1838 0.950 . S
C1862 C1857 1.363 . S
C1862 C1861 1.415 . S
C1863 H1839 0.951 . S
C1863 C1864 1.366 . S
C1863 C1865 1.388 . S
C1864 C1863 1.366 . S
C1864 C1868 1.385 . S
C1865 H1840 0.951 . S
C1865 C1863 1.388 . S
C1865 C1866 1.366 . S
C1866 C1865 1.366 . S
C1866 C1867 1.414 . S
C1866 C1869 1.499 . S
C1867 H1841 0.950 . S
C1867 C1866 1.414 . S
C1867 C1868 1.374 . S
C1868 H1842 0.950 . S
C1868 C1864 1.385 . S
C1868 C1867 1.374 . S
C1869 C1866 1.499 . S
C1869 C1870 1.373 . S
C1869 C1871 1.389 . S
C1870 H1843 0.950 . S
C1870 C1856 1.377 . S
C1870 C1869 1.373 . S
C1871 C1855 1.377 . S
C1871 C1869 1.389 . S
C1871 C1872 1.524 . S
C1872 C1871 1.524 . S
C1872 C1873 1.397 . S
C1872 C1877 1.363 . S
C1873 H1844 0.950 . S
C1873 C1872 1.397 . S
C1873 C1874 1.334 . S
C1874 H1845 0.950 . S
C1874 C1873 1.334 . S
C1874 C1875 1.287 . S
C1875 C1874 1.287 . S
C1875 C1876 1.524 . S
C1875 H1878 0.999 . S
C1876 H1846 0.950 . S
C1876 C1875 1.524 . S
C1876 C1877 1.415 . S
C1877 H1847 0.950 . S
C1877 C1872 1.363 . S
C1877 C1876 1.415 . S
H1878 C1875 0.999 . S
H1879 C1860 0.913 . S
H1880 C1898 0.951 . S
H1881 C1900 0.951 . S
H1882 C1902 0.950 . S
H1883 C1903 0.950 . S
H1884 C1905 0.950 . S
H1885 C1908 0.950 . S
H1886 C1909 0.950 . S
H1887 C1911 0.950 . S
H1888 C1912 0.950 . S
H1889 C1913 0.951 . S
H1890 C1915 0.951 . S
H1891 C1917 0.950 . S
H1892 C1918 0.950 . S
H1893 C1920 0.950 . S
H1894 C1923 0.950 . S
H1895 C1924 0.950 . S
H1896 C1926 0.950 . S
H1897 C1927 0.950 . S
C1898 H1880 0.951 . S
C1898 C1899 1.366 . S
C1898 C1900 1.388 . S
C1899 C1898 1.366 . S
C1899 C1903 1.385 . S
C1900 H1881 0.951 . S
C1900 C1898 1.388 . S
C1900 C1901 1.366 . S
C1901 C1900 1.366 . S
C1901 C1902 1.414 . S
C1901 C1904 1.499 . S
C1902 H1882 0.950 . S
C1902 C1901 1.414 . S
C1902 C1903 1.374 . S
C1903 H1883 0.950 . S
C1903 C1899 1.385 . S
C1903 C1902 1.374 . S
C1904 C1901 1.499 . S
C1904 C1905 1.373 . S
C1904 C1906 1.389 . S
C1905 H1884 0.950 . S
C1905 C1904 1.373 . S
C1905 C1921 1.377 . S
C1906 C1904 1.389 . S
C1906 C1907 1.524 . S
C1906 C1920 1.377 . S
C1907 C1906 1.524 . S
C1907 C1908 1.397 . S
C1907 C1912 1.363 . S
C1908 H1885 0.950 . S
C1908 C1907 1.397 . S
C1908 C1909 1.334 . S
C1909 H1886 0.950 . S
C1909 C1908 1.334 . S
C1909 C1910 1.287 . S
C1910 C1909 1.287 . S
C1910 C1911 1.524 . S
C1910 H1929 0.913 . S
C1911 H1887 0.950 . S
C1911 C1910 1.524 . S
C1911 C1912 1.415 . S
C1912 H1888 0.950 . S
C1912 C1907 1.363 . S
C1912 C1911 1.415 . S
C1913 H1889 0.951 . S
C1913 C1914 1.366 . S
C1913 C1915 1.388 . S
C1914 C1913 1.366 . S
C1914 C1918 1.385 . S
C1915 H1890 0.951 . S
C1915 C1913 1.388 . S
C1915 C1916 1.366 . S
C1916 C1915 1.366 . S
C1916 C1917 1.414 . S
C1916 C1919 1.499 . S
C1917 H1891 0.950 . S
C1917 C1916 1.414 . S
C1917 C1918 1.374 . S
C1918 H1892 0.950 . S
C1918 C1914 1.385 . S
C1918 C1917 1.374 . S
C1919 C1916 1.499 . S
C1919 C1920 1.373 . S
C1919 C1921 1.389 . S
C1920 H1893 0.950 . S
C1920 C1906 1.377 . S
C1920 C1919 1.373 . S
C1921 C1905 1.377 . S
C1921 C1919 1.389 . S
C1921 C1922 1.524 . S
C1922 C1921 1.524 . S
C1922 C1923 1.397 . S
C1922 C1927 1.363 . S
C1923 H1894 0.950 . S
C1923 C1922 1.397 . S
C1923 C1924 1.334 . S
C1924 H1895 0.950 . S
C1924 C1923 1.334 . S
C1924 C1925 1.287 . S
C1925 C1924 1.287 . S
C1925 C1926 1.524 . S
C1925 H1928 0.999 . S
C1926 H1896 0.950 . S
C1926 C1925 1.524 . S
C1926 C1927 1.415 . S
C1927 H1897 0.950 . S
C1927 C1922 1.363 . S
C1927 C1926 1.415 . S
H1928 C1925 0.999 . S
H1929 C1910 0.913 . S
H1930 C1948 0.951 . S
H1931 C1950 0.951 . S
H1932 C1952 0.919 1_655 S
H1933 C1953 0.950 . S
H1934 C1955 0.950 . S
H1935 C1958 0.950 . S
H1936 C1959 0.950 . S
H1937 C1961 0.950 . S
H1938 C1962 0.950 . S
H1939 C1963 0.951 . S
H1940 C1965 0.951 . S
H1941 C1967 0.950 1_455 S
H1942 C1968 0.950 . S
H1943 C1970 0.950 . S
H1944 C1973 0.950 . S
H1945 C1974 0.950 . S
H1946 C1976 0.950 . S
H1947 C1977 0.950 . S
C1948 H1930 0.951 . S
C1948 C1949 1.366 . S
C1948 C1950 1.388 . S
C1949 C1948 1.366 . S
C1949 C1953 1.385 . S
C1950 H1931 0.951 . S
C1950 C1948 1.388 . S
C1950 C1951 1.366 . S
C1951 C1950 1.366 . S
C1951 C1952 1.414 . S
C1951 C1954 1.499 . S
C1952 H1932 0.919 1_455 S
C1952 C1951 1.414 . S
C1952 C1953 1.374 . S
C1953 H1933 0.950 . S
C1953 C1949 1.385 . S
C1953 C1952 1.374 . S
C1954 C1951 1.499 . S
C1954 C1955 1.373 1_455 S
C1954 C1956 1.389 . S
C1955 H1934 0.950 . S
C1955 C1954 1.373 1_655 S
C1955 C1971 1.377 . S
C1956 C1954 1.389 . S
C1956 C1957 1.524 . S
C1956 C1970 1.377 . S
C1957 C1956 1.524 . S
C1957 C1958 1.397 . S
C1957 C1962 1.363 . S
C1958 H1935 0.950 . S
C1958 C1957 1.397 . S
C1958 C1959 1.334 . S
C1959 H1936 0.950 . S
C1959 C1958 1.334 . S
C1959 C1960 1.287 . S
C1960 C1959 1.287 . S
C1960 C1961 1.524 . S
C1960 H1979 0.913 . S
C1961 H1937 0.950 . S
C1961 C1960 1.524 . S
C1961 C1962 1.415 . S
C1962 H1938 0.950 . S
C1962 C1957 1.363 . S
C1962 C1961 1.415 . S
C1963 H1939 0.951 . S
C1963 C1964 1.366 . S
C1963 C1965 1.388 . S
C1964 C1963 1.366 . S
C1964 C1968 1.385 . S
C1965 H1940 0.951 . S
C1965 C1963 1.388 . S
C1965 C1966 1.366 . S
C1966 C1965 1.366 . S
C1966 C1967 1.414 . S
C1966 C1969 1.499 . S
C1967 H1941 0.950 1_655 S
C1967 C1966 1.414 . S
C1967 C1968 1.374 . S
C1968 H1942 0.950 . S
C1968 C1964 1.385 . S
C1968 C1967 1.374 . S
C1969 C1966 1.499 . S
C1969 C1970 1.373 1_655 S
C1969 C1971 1.389 . S
C1970 H1943 0.950 . S
C1970 C1956 1.377 . S
C1970 C1969 1.373 1_455 S
C1971 C1955 1.377 . S
C1971 C1969 1.389 . S
C1971 C1972 1.524 . S
C1972 C1971 1.524 . S
C1972 C1973 1.397 . S
C1972 C1977 1.363 . S
C1973 H1944 0.950 . S
C1973 C1972 1.397 . S
C1973 C1974 1.334 . S
C1974 H1945 0.950 . S
C1974 C1973 1.334 . S
C1974 C1975 1.287 . S
C1975 C1974 1.287 . S
C1975 C1976 1.524 . S
C1975 H1978 0.999 . S
C1976 H1946 0.950 . S
C1976 C1975 1.524 . S
C1976 C1977 1.415 . S
C1977 H1947 0.950 . S
C1977 C1972 1.363 . S
C1977 C1976 1.415 . S
H1978 C1975 0.999 . S
H1979 C1960 0.913 . S
H1980 C1998 0.951 . S
H1981 C2000 0.951 . S
H1982 C2002 0.950 . S
H1983 C2003 0.950 . S
H1984 C2005 0.950 . S
H1985 C2008 0.950 . S
H1986 C2009 0.950 . S
H1987 C2011 0.950 . S
H1988 C2012 0.950 . S
H1989 C2013 0.951 . S
H1990 C2015 0.951 . S
H1991 C2017 0.950 . S
H1992 C2018 0.950 . S
H1993 C2020 0.950 . S
H1994 C2023 0.950 . S
H1995 C2024 0.950 . S
H1996 C2026 0.950 . S
H1997 C2027 0.950 . S
C1998 H1980 0.951 . S
C1998 C1999 1.366 . S
C1998 C2000 1.388 . S
C1999 C1998 1.366 . S
C1999 C2003 1.385 . S
C2000 H1981 0.951 . S
C2000 C1998 1.388 . S
C2000 C2001 1.366 . S
C2001 C2000 1.366 . S
C2001 C2002 1.414 . S
C2001 C2004 1.499 . S
C2002 H1982 0.950 . S
C2002 C2001 1.414 . S
C2002 C2003 1.374 . S
C2003 H1983 0.950 . S
C2003 C1999 1.385 . S
C2003 C2002 1.374 . S
C2004 C2001 1.499 . S
C2004 C2005 1.373 . S
C2004 C2006 1.389 . S
C2005 H1984 0.950 . S
C2005 C2004 1.373 . S
C2005 C2021 1.377 . S
C2006 C2004 1.389 . S
C2006 C2007 1.524 . S
C2006 C2020 1.377 . S
C2007 C2006 1.524 . S
C2007 C2008 1.397 . S
C2007 C2012 1.363 . S
C2008 H1985 0.950 . S
C2008 C2007 1.397 . S
C2008 C2009 1.334 . S
C2009 H1986 0.950 . S
C2009 C2008 1.334 . S
C2009 C2010 1.287 . S
C2010 C2009 1.287 . S
C2010 C2011 1.524 . S
C2010 H2029 0.913 . S
C2011 H1987 0.950 . S
C2011 C2010 1.524 . S
C2011 C2012 1.415 . S
C2012 H1988 0.950 . S
C2012 C2007 1.363 . S
C2012 C2011 1.415 . S
C2013 H1989 0.951 . S
C2013 C2014 1.366 . S
C2013 C2015 1.388 . S
C2014 C2013 1.366 . S
C2014 C2018 1.385 . S
C2015 H1990 0.951 . S
C2015 C2013 1.388 . S
C2015 C2016 1.366 . S
C2016 C2015 1.366 . S
C2016 C2017 1.414 . S
C2016 C2019 1.499 . S
C2017 H1991 0.950 . S
C2017 C2016 1.414 . S
C2017 C2018 1.374 . S
C2018 H1992 0.950 . S
C2018 C2014 1.385 . S
C2018 C2017 1.374 . S
C2019 C2016 1.499 . S
C2019 C2020 1.373 . S
C2019 C2021 1.389 . S
C2020 H1993 0.950 . S
C2020 C2006 1.377 . S
C2020 C2019 1.373 . S
C2021 C2005 1.377 . S
C2021 C2019 1.389 . S
C2021 C2022 1.524 . S
C2022 C2021 1.524 . S
C2022 C2023 1.397 . S
C2022 C2027 1.363 . S
C2023 H1994 0.950 . S
C2023 C2022 1.397 . S
C2023 C2024 1.334 . S
C2024 H1995 0.950 . S
C2024 C2023 1.334 . S
C2024 C2025 1.287 . S
C2025 C2024 1.287 . S
C2025 C2026 1.524 . S
C2025 H2028 0.999 . S
C2026 H1996 0.950 . S
C2026 C2025 1.524 . S
C2026 C2027 1.415 . S
C2027 H1997 0.950 . S
C2027 C2022 1.363 . S
C2027 C2026 1.415 . S
H2028 C2025 0.999 . S
H2029 C2010 0.913 . S
H2030 C2048 0.951 . S
H2031 C2050 0.951 . S
H2032 C2052 0.950 . S
H2033 C2053 0.950 . S
H2034 C2055 0.950 . S
H2035 C2058 0.950 . S
H2036 C2059 0.950 . S
H2037 C2061 0.950 . S
H2038 C2062 0.950 . S
H2039 C2063 0.951 . S
H2040 C2065 0.951 . S
H2041 C2067 0.950 . S
H2042 C2068 0.950 . S
H2043 C2070 0.950 . S
H2044 C2073 0.950 . S
H2045 C2074 0.950 . S
H2046 C2076 0.950 . S
H2047 C2077 0.950 . S
C2048 H2030 0.951 . S
C2048 C2049 1.366 . S
C2048 C2050 1.388 . S
C2049 C2048 1.366 . S
C2049 C2053 1.385 . S
C2050 H2031 0.951 . S
C2050 C2048 1.388 . S
C2050 C2051 1.366 . S
C2051 C2050 1.366 . S
C2051 C2052 1.414 . S
C2051 C2054 1.499 . S
C2052 H2032 0.950 . S
C2052 C2051 1.414 . S
C2052 C2053 1.374 . S
C2053 H2033 0.950 . S
C2053 C2049 1.385 . S
C2053 C2052 1.374 . S
C2054 C2051 1.499 . S
C2054 C2055 1.373 . S
C2054 C2056 1.389 . S
C2055 H2034 0.950 . S
C2055 C2054 1.373 . S
C2055 C2071 1.377 . S
C2056 C2054 1.389 . S
C2056 C2057 1.524 . S
C2056 C2070 1.377 . S
C2057 C2056 1.524 . S
C2057 C2058 1.397 . S
C2057 C2062 1.363 . S
C2058 H2035 0.950 . S
C2058 C2057 1.397 . S
C2058 C2059 1.334 . S
C2059 H2036 0.950 . S
C2059 C2058 1.334 . S
C2059 C2060 1.287 . S
C2060 C2059 1.287 . S
C2060 C2061 1.524 . S
C2060 H2079 0.913 . S
C2061 H2037 0.950 . S
C2061 C2060 1.524 . S
C2061 C2062 1.415 . S
C2062 H2038 0.950 . S
C2062 C2057 1.363 . S
C2062 C2061 1.415 . S
C2063 H2039 0.951 . S
C2063 C2064 1.366 . S
C2063 C2065 1.388 . S
C2064 C2063 1.366 . S
C2064 C2068 1.385 . S
C2065 H2040 0.951 . S
C2065 C2063 1.388 . S
C2065 C2066 1.366 . S
C2066 C2065 1.366 . S
C2066 C2067 1.414 . S
C2066 C2069 1.499 . S
C2067 H2041 0.950 . S
C2067 C2066 1.414 . S
C2067 C2068 1.374 . S
C2068 H2042 0.950 . S
C2068 C2064 1.385 . S
C2068 C2067 1.374 . S
C2069 C2066 1.499 . S
C2069 C2070 1.373 . S
C2069 C2071 1.389 . S
C2070 H2043 0.950 . S
C2070 C2056 1.377 . S
C2070 C2069 1.373 . S
C2071 C2055 1.377 . S
C2071 C2069 1.389 . S
C2071 C2072 1.524 . S
C2072 C2071 1.524 . S
C2072 C2073 1.397 . S
C2072 C2077 1.363 . S
C2073 H2044 0.950 . S
C2073 C2072 1.397 . S
C2073 C2074 1.334 . S
C2074 H2045 0.950 . S
C2074 C2073 1.334 . S
C2074 C2075 1.287 . S
C2075 C2074 1.287 . S
C2075 C2076 1.524 . S
C2075 H2078 0.999 . S
C2076 H2046 0.950 . S
C2076 C2075 1.524 . S
C2076 C2077 1.415 . S
C2077 H2047 0.950 . S
C2077 C2072 1.363 . S
C2077 C2076 1.415 . S
H2078 C2075 0.999 . S
H2079 C2060 0.913 . S
C514 C388 1.230 . S
C499 C8 1.217 . S
C564 C405 1.344 . S
C549 C61 1.376 . S
C614 C419 1.508 . S
C599 C107 1.534 . S
C649 C139 1.244 . S
C664 C377 1.232 . S
C699 C192 1.158 . S
C714 C374 1.171 . S
C749 C238 0.980 . S
C764 C391 0.967 . S
C814 C402 1.471 . S
C799 C284 1.466 . S
C864 C416 1.291 . S
C849 C330 1.283 . S
C899 C100 1.283 . S
C914 C444 1.292 . S
C964 C458 1.472 . S
C949 C160 1.455 . S
C999 C15 0.980 . S
C1014 C475 0.967 . S
C1064 C430 1.172 . S
C1049 C54 1.158 1_655 S
C1099 C291 1.249 . S
C1114 C433 1.230 . S
C1149 C337 1.534 . S
C1164 C447 1.508 . S
C1214 C461 1.354 . S
C1199 C199 1.376 . S
C1249 C245 1.214 . S
C1264 C472 1.229 . S
C1314 C404 1.963 . S
C1299 C1 1.971 . S
C1364 C418 2.055 . S
C1349 C68 2.039 . S
C1399 C114 1.961 . S
C1414 C376 1.975 . S
C1449 C146 1.856 . S
C1464 C389 1.752 . S
C1499 C185 1.625 . S
C1514 C417 1.501 . S
C1564 C375 1.424 . S
C1549 C231 1.551 . S
C1614 C390 1.829 . S
C1599 C277 1.841 . S
C1664 C403 1.633 . S
C1649 C323 1.751 . S
C1714 C459 1.632 . S
C1699 C93 1.751 . S
C1764 C474 1.829 . S
C1749 C153 1.844 . S
C1799 C22 1.544 . S
C1814 C431 1.425 . S
C1864 C445 1.501 . S
C1849 C47 1.624 . S
C1914 C473 1.752 . S
C1899 C298 1.839 . S
C1949 C344 1.961 . S
C1964 C432 1.974 . S
C2014 C446 2.055 . S
C1999 C206 2.039 . S
C2064 C460 1.963 . S
C2049 C252 1.964 . S
