# Generated by pormake.
# Topology rtl, (3,6)-cn, num edge types: 1
# Building blocks:
#     Node 0, Type 0, BuildingBlock: KAKCAD_clean_linker_0, # of connection points: 3
#     Node 1, Type 0, BuildingBlock: KAKCAD_clean_linker_0, # of connection points: 3
#     Node 2, Type 0, BuildingBlock: KAKCAD_clean_linker_0, # of connection points: 3
#     Node 3, Type 0, BuildingBlock: KAKCAD_clean_linker_0, # of connection points: 3
#     Node 4, Type 1, BuildingBlock: LEVNOQ01_clean_sbu_1, # of connection points: 6
#     Node 5, Type 1, BuildingBlock: LEVNOQ01_clean_sbu_1, # of connection points: 6
#     Edge 6, Type (0, 1), BuildingBlock: XUDNAN_clean_linker_2, # of connection points: 2
#     Edge 7, Type (0, 1), BuildingBlock: XUDNAN_clean_linker_2, # of connection points: 2
#     Edge 8, Type (0, 1), BuildingBlock: XUDNAN_clean_linker_2, # of connection points: 2
#     Edge 9, Type (0, 1), BuildingBlock: XUDNAN_clean_linker_2, # of connection points: 2
#     Edge 10, Type (0, 1), BuildingBlock: XUDNAN_clean_linker_2, # of connection points: 2
#     Edge 11, Type (0, 1), BuildingBlock: XUDNAN_clean_linker_2, # of connection points: 2
#     Edge 12, Type (0, 1), BuildingBlock: XUDNAN_clean_linker_2, # of connection points: 2
#     Edge 13, Type (0, 1), BuildingBlock: XUDNAN_clean_linker_2, # of connection points: 2
#     Edge 14, Type (0, 1), BuildingBlock: XUDNAN_clean_linker_2, # of connection points: 2
#     Edge 15, Type (0, 1), BuildingBlock: XUDNAN_clean_linker_2, # of connection points: 2
#     Edge 16, Type (0, 1), BuildingBlock: XUDNAN_clean_linker_2, # of connection points: 2
#     Edge 17, Type (0, 1), BuildingBlock: XUDNAN_clean_linker_2, # of connection points: 2
# Relax obj value: 0.026
# Max RMSD: 0.060
# Mean RMSD: 0.046
data_MOF--net-rtl--node1-LEVNOQ01_clean_sbu_1--node2-KAKCAD_clean_linker_0--edge1-XUDNAN_clean_linker_2
_symmetry_space_group_name_H-M    P1
_symmetry_Int_Tables_number       1
_symmetry_cell_setting            triclinic
loop_
_symmetry_equiv_pos_as_xyz
'x, y, z'
_cell_length_a     37.734981
_cell_length_b     42.893814
_cell_length_c     29.750385
_cell_angle_alpha  89.849026
_cell_angle_beta   97.735251
_cell_angle_gamma 90.101025
loop_
_atom_site_label
_atom_site_type_symbol
_atom_site_fract_x
_atom_site_fract_y
_atom_site_fract_z
_atom_type_partial_charge
C0 C 0.18576 0.88006 0.93177 0.0
C1 C 0.1867 0.91113 0.91678 0.0
C2 C 0.20164 0.87166 0.9752 0.0
C3 C 0.21871 0.89412 0.00493 0.0
C4 C 0.21941 0.92526 0.99031 0.0
C5 C 0.2037 0.93367 0.94663 0.0
C6 C 0.23561 0.88479 0.05098 0.0
C7 C 0.25661 0.8577 0.0567 0.0
C8 C 0.27119 0.84738 0.1001 0.0
C9 C 0.26443 0.8646 0.13814 0.0
C10 C 0.24342 0.89181 0.13328 0.0
C11 C 0.22949 0.90193 0.08939 0.0
C12 C 0.23407 0.9081 0.17428 0.0
C13 C 0.25917 0.91068 0.21363 0.0
C14 C 0.19909 0.91904 0.17561 0.0
C15 C 0.18904 0.93081 0.21581 0.0
C16 C 0.21364 0.93174 0.25569 0.0
C17 C 0.29238 0.81802 0.10555 0.0
C18 C 0.28789 0.79665 0.14032 0.0
C19 C 0.31659 0.81073 0.07516 0.0
C20 C 0.33534 0.7826 0.07889 0.0
C21 C 0.33069 0.76107 0.11342 0.0
C22 C 0.30687 0.76855 0.14426 0.0
C23 C 0.24902 0.9222 0.25392 0.0
H24 H 0.1722 0.8622 0.91022 0.0
H25 H 0.20007 0.84758 0.98579 0.0
H26 H 0.23262 0.94302 0.01238 0.0
H27 H 0.20529 0.95775 0.93608 0.0
H28 H 0.26106 0.84431 0.02714 0.0
H29 H 0.21311 0.92272 0.0851 0.0
H30 H 0.27501 0.8564 0.17173 0.0
H31 H 0.28654 0.90313 0.2136 0.0
H32 H 0.1789 0.91709 0.14624 0.0
H33 H 0.16146 0.93764 0.2162 0.0
H34 H 0.26914 0.8013 0.16401 0.0
H35 H 0.32104 0.82677 0.04829 0.0
H36 H 0.26868 0.92303 0.28399 0.0
H37 H 0.30282 0.75269 0.17149 0.0
H38 H 0.35294 0.77751 0.05397 0.0
C39 C 0.69079 0.61749 0.73977 0.0
C40 C 0.70324 0.58713 0.75123 0.0
C41 C 0.70045 0.63278 0.70178 0.0
C42 C 0.72203 0.61787 0.67372 0.0
C43 C 0.73402 0.58745 0.68414 0.0
C44 C 0.72497 0.57228 0.72277 0.0
C45 C 0.73262 0.63452 0.63421 0.0
C46 C 0.75601 0.65997 0.64094 0.0
C47 C 0.76598 0.6766 0.60386 0.0
C48 C 0.75173 0.66737 0.55968 0.0
C49 C 0.7269 0.64272 0.55232 0.0
C50 C 0.71796 0.62609 0.59012 0.0
C51 C 0.70923 0.63533 0.50552 0.0
C52 C 0.70101 0.65923 0.47325 0.0
C53 C 0.6994 0.60459 0.49299 0.0
C54 C 0.68137 0.59803 0.44984 0.0
C55 C 0.67321 0.62194 0.41756 0.0
C56 C 0.79031 0.70412 0.61129 0.0
C57 C 0.7851 0.73032 0.58267 0.0
C58 C 0.81857 0.70471 0.64738 0.0
C59 C 0.84085 0.73083 0.65472 0.0
C60 C 0.83581 0.75692 0.62581 0.0
C61 C 0.80769 0.75618 0.58956 0.0
C62 C 0.68359 0.65259 0.42984 0.0
H63 H 0.6731 0.62946 0.75973 0.0
H64 H 0.69075 0.65621 0.694 0.0
H65 H 0.7509 0.57567 0.66285 0.0
H66 H 0.7354 0.54911 0.73055 0.0
H67 H 0.76593 0.667 0.67531 0.0
H68 H 0.69853 0.60735 0.5857 0.0
H69 H 0.76015 0.67936 0.53085 0.0
H70 H 0.70745 0.6833 0.48162 0.0
H71 H 0.70559 0.58543 0.51648 0.0
H72 H 0.67338 0.57418 0.44219 0.0
H73 H 0.76334 0.73106 0.55497 0.0
H74 H 0.82377 0.68487 0.66985 0.0
H75 H 0.67838 0.67162 0.40591 0.0
H76 H 0.80329 0.77541 0.56584 0.0
H77 H 0.86197 0.73053 0.68322 0.0
C78 C 0.78616 0.12888 0.16017 0.0
C79 C 0.82015 0.11518 0.16775 0.0
C80 C 0.77084 0.13679 0.11616 0.0
C81 C 0.78955 0.13176 0.07887 0.0
C82 C 0.8239 0.11841 0.08694 0.0
C83 C 0.83884 0.10994 0.13077 0.0
C84 C 0.77374 0.14081 0.03189 0.0
C85 C 0.75183 0.16727 0.0244 0.0
C86 C 0.73774 0.17645 0.98032 0.0
C87 C 0.74659 0.15964 0.94307 0.0
C88 C 0.76797 0.13269 0.94954 0.0
C89 C 0.78085 0.12328 0.99419 0.0
C90 C 0.7771 0.11448 0.90992 0.0
C91 C 0.7528 0.11213 0.86968 0.0
C92 C 0.81056 0.09964 0.91171 0.0
C93 C 0.81948 0.08311 0.87443 0.0
C94 C 0.79549 0.08156 0.83424 0.0
C95 C 0.71284 0.20319 0.97386 0.0
C96 C 0.68271 0.20353 0.99672 0.0
C97 C 0.7195 0.22883 0.9467 0.0
C98 C 0.69735 0.25517 0.94457 0.0
C99 C 0.66804 0.25605 0.96922 0.0
C100 C 0.66039 0.22948 0.99407 0.0
C101 C 0.76213 0.09617 0.83203 0.0
H102 H 0.77112 0.13283 0.18818 0.0
H103 H 0.74411 0.14645 0.11144 0.0
H104 H 0.8396 0.11482 0.0595 0.0
H105 H 0.86527 0.09963 0.13591 0.0
H106 H 0.74611 0.1813 0.05278 0.0
H107 H 0.79601 0.10189 0.9997 0.0
H108 H 0.73646 0.16754 0.90917 0.0
H109 H 0.72653 0.12259 0.8671 0.0
H110 H 0.83039 0.10139 0.94149 0.0
H111 H 0.84563 0.07239 0.87645 0.0
H112 H 0.67669 0.18377 0.0172 0.0
H113 H 0.74262 0.22899 0.92871 0.0
H114 H 0.74333 0.09528 0.80114 0.0
H115 H 0.63748 0.22896 0.01244 0.0
H116 H 0.70408 0.27525 0.92526 0.0
C117 C 0.25115 0.42452 0.3298 0.0
C118 C 0.28612 0.43419 0.32528 0.0
C119 C 0.24385 0.40953 0.36942 0.0
C120 C 0.27138 0.40385 0.40534 0.0
C121 C 0.30614 0.41415 0.40114 0.0
C122 C 0.31342 0.42908 0.36166 0.0
C123 C 0.26453 0.38579 0.44609 0.0
C124 C 0.24329 0.35873 0.44126 0.0
C125 C 0.2388 0.34012 0.47905 0.0
C126 C 0.25573 0.34901 0.52212 0.0
C127 C 0.277 0.376 0.52774 0.0
C128 C 0.281 0.39439 0.48956 0.0
C129 C 0.2963 0.3842 0.57314 0.0
C130 C 0.29794 0.41522 0.58844 0.0
C131 C 0.31381 0.36097 0.60122 0.0
C132 C 0.3327 0.36857 0.64344 0.0
C133 C 0.33462 0.3996 0.65867 0.0
C134 C 0.21718 0.31098 0.47355 0.0
C135 C 0.19428 0.30303 0.50531 0.0
C136 C 0.21977 0.29061 0.43713 0.0
C137 C 0.20004 0.26285 0.43277 0.0
C138 C 0.17724 0.25487 0.46468 0.0
C139 C 0.17466 0.27532 0.50101 0.0
C140 C 0.31685 0.42283 0.63075 0.0
H141 H 0.22946 0.42837 0.30262 0.0
H142 H 0.21669 0.40221 0.37184 0.0
H143 H 0.3281 0.40966 0.42773 0.0
H144 H 0.34082 0.43554 0.35906 0.0
H145 H 0.23071 0.35181 0.40788 0.0
H146 H 0.29766 0.41506 0.49354 0.0
H147 H 0.25276 0.33461 0.55137 0.0
H148 H 0.28451 0.43361 0.56776 0.0
H149 H 0.31344 0.3369 0.59026 0.0
H150 H 0.3457 0.35004 0.66424 0.0
H151 H 0.19139 0.31829 0.53354 0.0
H152 H 0.23751 0.29584 0.41237 0.0
H153 H 0.31805 0.44702 0.64119 0.0
H154 H 0.15787 0.26972 0.52671 0.0
H155 H 0.20252 0.24773 0.40427 0.0
O156 O 0.9565 0.06337 0.60932 0.0
Mg157 Mg 0.0105 0.05739 0.60445 0.0
O158 O 0.95078 0.01614 0.58085 0.0
Mg159 Mg -0.0007 0.00578 0.53981 0.0
O160 O 0.02455 0.05618 0.54035 0.0
O161 O 0.03423 0.09696 0.58783 0.0
O162 O 0.04685 0.99299 0.49921 0.0
O163 O 0.96247 0.02337 0.47479 0.0
Mg164 Mg 0.97899 0.952 0.46932 0.0
O165 O 0.97514 0.95608 0.53701 0.0
O166 O 0.03279 0.95023 0.45868 0.0
O167 O 0.94565 0.98366 0.4295 0.0
O168 O 0.95709 0.91384 0.49636 0.0
C169 C 0.04824 0.00058 0.64322 0.0
C170 C 0.93812 0.03899 0.60104 0.0
C171 C 0.03665 0.08434 0.54903 0.0
C172 C 0.05497 0.97127 0.47309 0.0
C173 C 0.94478 0.01248 0.43856 0.0
C174 C 0.96162 0.92818 0.53476 0.0
O175 O 0.04131 0.02859 0.6522 0.0
O176 O 0.03602 0.98875 0.6049 0.0
O177 O 0.54889 0.49731 0.15513 0.0
Mg178 Mg 0.51218 0.46881 0.11689 0.0
O179 O 0.5297 0.53419 0.10635 0.0
Mg180 Mg 0.49742 0.51026 0.04099 0.0
O181 O 0.52215 0.45951 0.05206 0.0
O182 O 0.5313 0.42596 0.11058 0.0
O183 O 0.46669 0.48829 0.97489 0.0
O184 O 0.54782 0.51933 0.00408 0.0
Mg185 Mg 0.4815 0.55947 0.96203 0.0
O186 O 0.47334 0.55966 0.02825 0.0
O187 O 0.44912 0.5255 0.92491 0.0
O188 O 0.53653 0.55934 0.95693 0.0
O189 O 0.45906 0.59973 0.98123 0.0
C190 C 0.43707 0.48551 0.10893 0.0
C191 C 0.54823 0.52561 0.14349 0.0
C192 C 0.53354 0.43257 0.06872 0.0
C193 C 0.4499 0.49709 0.93682 0.0
C194 C 0.5578 0.53898 0.97594 0.0
C195 C 0.45987 0.58735 0.02094 0.0
O196 O 0.46001 0.46873 0.13229 0.0
O197 O 0.44542 0.50162 0.07581 0.0
H198 H 0.1086 0.24552 0.48181 0.0
H199 H 0.19951 0.19684 0.44056 0.0
H200 H 0.1671 0.14683 0.44293 0.0
H201 H 0.09304 0.19337 0.5635 0.0
H202 H 0.04501 0.19693 0.55458 0.0
H203 H 0.07231 0.22877 0.5402 0.0
H204 H 0.0389 0.22854 0.45805 0.0
H205 H 0.01165 0.19633 0.47221 0.0
H206 H 0.03698 0.19317 0.4252 0.0
H207 H 0.12781 0.10122 0.46087 0.0
H208 H 0.08836 0.06573 0.49794 0.0
H209 H 0.02524 0.14489 0.52956 0.0
C210 C 0.12155 0.22443 0.47256 0.0
C211 C 0.15659 0.22517 0.46095 0.0
C212 C 0.17245 0.19698 0.44889 0.0
C213 C 0.15422 0.16842 0.45015 0.0
C214 C 0.12003 0.16846 0.46309 0.0
C215 C 0.1039 0.19588 0.47394 0.0
C216 C 0.06909 0.18969 0.49221 0.0
C217 C 0.06996 0.20295 0.54046 0.0
C218 C 0.03727 0.20271 0.45998 0.0
C219 C 0.06895 0.15447 0.49222 0.0
C220 C 0.09792 0.14246 0.47413 0.0
C221 C 0.10469 0.11039 0.47429 0.0
C222 C 0.0821 0.09036 0.49512 0.0
C223 C 0.05377 0.10274 0.5161 0.0
C224 C 0.04649 0.13493 0.51308 0.0
H225 H 0.39921 0.74957 0.09663 0.0
H226 H 0.3052 0.70335 0.13453 0.0
H227 H 0.33499 0.65243 0.1308 0.0
H228 H 0.41211 0.6985 0.01288 0.0
H229 H 0.46029 0.70006 0.02213 0.0
H230 H 0.4348 0.73259 0.03782 0.0
H231 H 0.46799 0.72939 0.11995 0.0
H232 H 0.49333 0.69643 0.10446 0.0
H233 H 0.46769 0.69335 0.15122 0.0
H234 H 0.37169 0.60595 0.11195 0.0
H235 H 0.40853 0.56967 0.0728 0.0
H236 H 0.47624 0.64662 0.04375 0.0
C237 C 0.38499 0.72883 0.10485 0.0
C238 C 0.34987 0.73062 0.11609 0.0
C239 C 0.33239 0.70278 0.12671 0.0
C240 C 0.34912 0.67366 0.12467 0.0
C241 C 0.38345 0.67272 0.11223 0.0
C242 C 0.40112 0.69968 0.10249 0.0
C243 C 0.43559 0.69248 0.08403 0.0
C244 C 0.43566 0.70673 0.03641 0.0
C245 C 0.46807 0.70357 0.11689 0.0
C246 C 0.43367 0.65728 0.0825 0.0
C247 C 0.40407 0.64611 0.10027 0.0
C248 C 0.39532 0.6144 0.09881 0.0
C249 C 0.41646 0.5939 0.07685 0.0
C250 C 0.44532 0.6055 0.05603 0.0
C251 C 0.45468 0.63725 0.06039 0.0
H252 H 0.81953 0.81885 0.60945 0.0
H253 H 0.90834 0.75711 0.65458 0.0
H254 H 0.94988 0.80143 0.65598 0.0
H255 H 0.85999 0.85541 0.53021 0.0
H256 H 0.84116 0.89347 0.53685 0.0
H257 H 0.81788 0.85937 0.55199 0.0
H258 H 0.81723 0.88175 0.63279 0.0
H259 H 0.84121 0.91585 0.61789 0.0
H260 H 0.85873 0.89265 0.6664 0.0
H261 H 0.9829 0.84905 0.63831 0.0
H262 H 0.00409 0.89303 0.59516 0.0
H263 H 0.89499 0.92329 0.55709 0.0
C264 C 0.84764 0.81465 0.62044 0.0
C265 C 0.86043 0.78432 0.63213 0.0
C266 C 0.89751 0.7801 0.64645 0.0
C267 C 0.92143 0.80524 0.64738 0.0
C268 C 0.90802 0.83461 0.6341 0.0
C269 C 0.8719 0.83939 0.62083 0.0
C270 C 0.86485 0.87163 0.60075 0.0
C271 C 0.84484 0.86983 0.55208 0.0
C272 C 0.84429 0.89165 0.63129 0.0
C273 C 0.90282 0.88337 0.60151 0.0
C274 C 0.9273 0.86222 0.62273 0.0
C275 C 0.96404 0.8662 0.62286 0.0
C276 C 0.97593 0.89137 0.5986 0.0
C277 C 0.95112 0.91188 0.57423 0.0
C278 C 0.91437 0.9086 0.57726 0.0
H279 H 0.64439 0.27924 0.0447 0.0
H280 H 0.64498 0.29912 0.90178 0.0
H281 H 0.60996 0.34732 0.90977 0.0
H282 H 0.55467 0.30353 0.05033 0.0
H283 H 0.56544 0.31911 0.10673 0.0
H284 H 0.59089 0.28711 0.08876 0.0
H285 H 0.64944 0.31889 0.10899 0.0
H286 H 0.62417 0.35099 0.127 0.0
H287 H 0.65318 0.35699 0.08431 0.0
H288 H 0.57404 0.39461 0.93606 0.0
H289 H 0.54227 0.43402 0.97719 0.0
H290 H 0.56519 0.3789 0.10023 0.0
C291 C 0.63677 0.29333 0.01471 0.0
C292 C 0.64707 0.28513 0.97249 0.0
C293 C 0.63745 0.30497 0.93458 0.0
C294 C 0.61743 0.3323 0.93877 0.0
C295 C 0.60734 0.33938 0.98106 0.0
C296 C 0.61683 0.32025 0.01821 0.0
C297 C 0.60319 0.33238 0.0601 0.0
C298 C 0.57699 0.30915 0.07747 0.0
C299 C 0.63435 0.34028 0.09727 0.0
C300 C 0.58429 0.36138 0.04101 0.0
C301 C 0.58689 0.36545 0.9955 0.0
C302 C 0.57178 0.39143 0.97166 0.0
C303 C 0.55376 0.41367 0.99519 0.0
C304 C 0.55096 0.40951 0.04187 0.0
C305 C 0.56641 0.38287 0.0645 0.0
H306 H 0.17003 0.98009 0.27403 0.0
H307 H 0.22824 0.90039 0.3359 0.0
H308 H 0.20149 0.90875 0.40605 0.0
H309 H 0.17256 0.02699 0.38268 0.0
H310 H 0.1281 0.04176 0.36553 0.0
H311 H 0.15695 0.03338 0.32342 0.0
H312 H 0.10857 -0.00316 0.28171 0.0
H313 H 0.07966 0.0052 0.32337 0.0
H314 H 0.09114 0.96538 0.31261 0.0
H315 H 0.16048 0.91917 0.46285 0.0
H316 H 0.10854 0.93146 0.50221 0.0
H317 H 0.07789 0.00553 0.40593 0.0
C318 C 0.17782 0.96494 0.30282 0.0
C319 C 0.20146 0.93977 0.29967 0.0
C320 C 0.21077 0.9202 0.33785 0.0
C321 C 0.19567 0.92476 0.37786 0.0
C322 C 0.17178 0.94934 0.37953 0.0
C323 C 0.16323 0.96939 0.34322 0.0
C324 C 0.1342 0.99205 0.35213 0.0
C325 C 0.14883 0.02554 0.35618 0.0
C326 C 0.10147 0.98969 0.31529 0.0
C327 C 0.12594 0.98016 0.39759 0.0
C328 C 0.14853 0.95596 0.41331 0.0
C329 C 0.14347 0.93877 0.4518 0.0
C330 C 0.11405 0.94593 0.47406 0.0
C331 C 0.0903 0.97011 0.45788 0.0
C332 C 0.09678 0.98791 0.41995 0.0
H333 H 0.69185 0.61341 0.83228 0.0
H334 H 0.68942 0.5245 0.76249 0.0
H335 H 0.66518 0.49954 0.82648 0.0
H336 H 0.70586 0.58306 0.95233 0.0
H337 H 0.6755 0.61165 0.96967 0.0
H338 H 0.70205 0.62079 0.92528 0.0
H339 H 0.64454 0.63477 0.87101 0.0
H340 H 0.61812 0.6261 0.91526 0.0
H341 H 0.60888 0.60653 0.86138 0.0
H342 H 0.63184 0.48587 0.89141 0.0
H343 H 0.58609 0.48664 0.94369 0.0
H344 H 0.60495 0.58523 0.96637 0.0
C345 C 0.68674 0.58859 0.83049 0.0
C346 C 0.69273 0.57106 0.79205 0.0
C347 C 0.68589 0.53852 0.79175 0.0
C348 C 0.67206 0.52405 0.82809 0.0
C349 C 0.66519 0.54235 0.86463 0.0
C350 C 0.6722 0.574 0.86588 0.0
C351 C 0.65686 0.5896 0.90451 0.0
C352 C 0.68686 0.602 0.94006 0.0
C353 C 0.63053 0.61575 0.88697 0.0
C354 C 0.63796 0.56221 0.92294 0.0
C355 C 0.6444 0.53483 0.90092 0.0
C356 C 0.6272 0.50701 0.9095 0.0
C357 C 0.60144 0.50757 0.93948 0.0
C358 C 0.59257 0.53593 0.95927 0.0
C359 C 0.61204 0.56318 0.95233 0.0
H360 H 0.84536 0.05782 0.19459 0.0
H361 H 0.83045 0.15102 0.24454 0.0
H362 H 0.85954 0.13509 0.32098 0.0
H363 H 0.82736 0.01744 0.29678 0.0
H364 H 0.8599 0.98745 0.29138 0.0
H365 H 0.83743 0.00643 0.24146 0.0
H366 H 0.89873 0.02163 0.21737 0.0
H367 H 0.92136 0.00273 0.26718 0.0
H368 H 0.93049 0.04311 0.25624 0.0
H369 H 0.89409 0.10892 0.39104 0.0
H370 H 0.9273 0.07431 0.44892 0.0
H371 H 0.91608 -0.00177 0.35207 0.0
C372 C 0.84819 0.07482 0.22171 0.0
C373 C 0.83598 0.10564 0.21391 0.0
C374 C 0.83965 0.12724 0.25014 0.0
C375 C 0.85617 0.11842 0.29349 0.0
C376 C 0.86826 0.0878 0.3 0.0
C377 C 0.864 0.06629 0.26513 0.0
C378 C 0.87892 0.03482 0.28064 0.0
C379 C 0.84912 0.01008 0.27738 0.0
C380 C 0.90917 0.02502 0.25377 0.0
C381 C 0.89302 0.04207 0.32945 0.0
C382 C 0.88675 0.0727 0.3402 0.0
C383 C 0.89877 0.0848 0.38308 0.0
C384 C 0.91765 0.06502 0.4157 0.0
C385 C 0.92407 0.03349 0.40521 0.0
C386 C 0.91131 0.02207 0.36151 0.0
H387 H 0.31744 0.44177 0.72196 0.0
H388 H 0.39974 0.37626 0.6957 0.0
H389 H 0.43492 0.38989 0.76901 0.0
H390 H 0.37535 0.50092 0.76867 0.0
H391 H 0.34788 0.51256 0.81082 0.0
H392 H 0.32759 0.49513 0.7587 0.0
H393 H 0.29871 0.45282 0.80454 0.0
H394 H 0.31931 0.46999 0.8569 0.0
H395 H 0.32671 0.42946 0.84539 0.0
H396 H 0.46218 0.41184 0.84429 0.0
H397 H 0.48235 0.44485 0.91109 0.0
H398 H 0.3845 0.49849 0.88525 0.0
C399 C 0.34283 0.43024 0.7316 0.0
C400 C 0.35559 0.40767 0.70316 0.0
C401 C 0.38895 0.39308 0.71728 0.0
C402 C 0.40919 0.40071 0.75886 0.0
C403 C 0.39575 0.42294 0.78609 0.0
C404 C 0.36345 0.43766 0.77289 0.0
C405 C 0.35605 0.46211 0.80705 0.0
C406 C 0.35148 0.4946 0.78498 0.0
C407 C 0.32324 0.45305 0.82981 0.0
C408 C 0.39003 0.45992 0.84035 0.0
C409 C 0.41207 0.43648 0.82849 0.0
C410 C 0.44505 0.43013 0.85406 0.0
C411 C 0.45618 0.4488 0.89205 0.0
C412 C 0.43477 0.4739 0.90322 0.0
C413 C 0.40113 0.47921 0.87745 0.0
H414 H 0.67762 0.56908 0.36607 0.0
H415 H 0.62369 0.65857 0.36472 0.0
H416 H 0.59071 0.64631 0.2896 0.0
H417 H 0.68334 0.5632 0.24589 0.0
H418 H 0.67354 0.52204 0.24416 0.0
H419 H 0.69586 0.53933 0.29545 0.0
H420 H 0.64665 0.51795 0.34031 0.0
H421 H 0.62443 0.50037 0.28932 0.0
H422 H 0.60044 0.52694 0.32104 0.0
H423 H 0.56084 0.62267 0.21537 0.0
H424 H 0.53389 0.58805 0.15319 0.0
H425 H 0.60523 0.5137 0.20688 0.0
C426 C 0.65888 0.58621 0.35029 0.0
C427 C 0.65369 0.61497 0.37159 0.0
C428 C 0.629 0.63666 0.34896 0.0
C429 C 0.60991 0.62986 0.30624 0.0
C430 C 0.61557 0.60119 0.28652 0.0
C431 C 0.63927 0.57965 0.3081 0.0
C432 C 0.63856 0.54955 0.28172 0.0
C433 C 0.675 0.54317 0.26586 0.0
C434 C 0.62681 0.5221 0.30976 0.0
C435 C 0.61045 0.55734 0.24216 0.0
C436 C 0.59777 0.58736 0.24497 0.0
C437 C 0.57075 0.59918 0.21271 0.0
C438 C 0.55573 0.57947 0.1774 0.0
C439 C 0.56749 0.54826 0.17528 0.0
C440 C 0.5957 0.53748 0.20758 0.0
H441 H 0.80988 0.11068 0.75806 0.0
H442 H 0.80871 0.01986 0.82142 0.0
H443 H 0.83452 -0.00355 0.7569 0.0
H444 H 0.79499 0.08489 0.63618 0.0
H445 H 0.82629 0.11343 0.62053 0.0
H446 H 0.80046 0.12152 0.66592 0.0
H447 H 0.85881 0.13235 0.72035 0.0
H448 H 0.88463 0.12457 0.67519 0.0
H449 H 0.89331 0.10304 0.72763 0.0
H450 H 0.86735 0.98441 0.69048 0.0
H451 H 0.91087 0.98604 0.63525 0.0
H452 H 0.89316 0.0854 0.61809 0.0
C453 C 0.81389 0.08569 0.7573 0.0
C454 C 0.80665 0.0668 0.79372 0.0
C455 C 0.8136 0.03444 0.7931 0.0
C456 C 0.82803 0.02102 0.75656 0.0
C457 C 0.83554 0.04039 0.72124 0.0
C458 C 0.82889 0.07212 0.72158 0.0
C459 C 0.84449 0.0887 0.68382 0.0
C460 C 0.81478 0.10297 0.64958 0.0
C461 C 0.87194 0.1136 0.7029 0.0
C462 C 0.86223 0.06162 0.66326 0.0
C463 C 0.85588 0.03375 0.68427 0.0
C464 C 0.87203 0.00601 0.67331 0.0
C465 C 0.89654 0.00708 0.64169 0.0
C466 C 0.90517 0.03584 0.62238 0.0
C467 C 0.88666 0.06307 0.63199 0.0
H468 H 0.33261 0.48193 0.31453 0.0
H469 H 0.26099 0.416 0.23831 0.0
H470 H 0.28349 0.43242 0.16779 0.0
H471 H 0.33347 0.54248 0.22127 0.0
H472 H 0.38044 0.54976 0.23807 0.0
H473 H 0.35229 0.539 0.28005 0.0
H474 H 0.3945 0.49279 0.30583 0.0
H475 H 0.42271 0.50354 0.2644 0.0
H476 H 0.4045 0.46465 0.26442 0.0
H477 H 0.3223 0.44767 0.10906 0.0
H478 H 0.37495 0.45862 0.0698 0.0
H479 H 0.42181 0.51356 0.18426 0.0
C480 C 0.32099 0.47151 0.28283 0.0
C481 C 0.29496 0.44774 0.28201 0.0
C482 C 0.28048 0.43465 0.2398 0.0
C483 C 0.29314 0.44384 0.19948 0.0
C484 C 0.31998 0.46643 0.20178 0.0
C485 C 0.33349 0.48027 0.24247 0.0
C486 C 0.36568 0.5004 0.23743 0.0
C487 C 0.35746 0.53497 0.24463 0.0
C488 C 0.39877 0.48967 0.2699 0.0
C489 C 0.36973 0.49407 0.18839 0.0
C490 C 0.3425 0.47521 0.16783 0.0
C491 C 0.3431 0.46323 0.12428 0.0
C492 C 0.37292 0.46967 0.10205 0.0
C493 C 0.40163 0.48762 0.12372 0.0
C494 C 0.3994 0.50077 0.16656 0.0
H495 H 0.14846 0.96425 0.8907 0.0
H496 H 0.1858 0.8778 0.83778 0.0
H497 H 0.15438 0.89091 0.76193 0.0
H498 H 0.06244 0.96488 0.82643 0.0
H499 H 0.06167 0.00641 0.81696 0.0
H500 H 0.08752 0.99046 0.86698 0.0
H501 H 0.14444 0.0178 0.84608 0.0
H502 H 0.11868 0.03404 0.79615 0.0
H503 H 0.158 0.01122 0.79105 0.0
H504 H 0.11667 0.91275 0.69203 0.0
H505 H 0.07847 0.94304 0.63331 0.0
H506 H 0.06852 0.01578 0.73207 0.0
C507 C 0.15057 0.94824 0.86311 0.0
C508 C 0.16947 0.91986 0.87046 0.0
C509 C 0.17097 0.89942 0.83333 0.0
C510 C 0.15339 0.90674 0.78999 0.0
C511 C 0.13464 0.93471 0.78415 0.0
C512 C 0.13343 0.95526 0.81963 0.0
C513 C 0.11142 0.98377 0.80449 0.0
C514 C 0.07883 0.98652 0.83025 0.0
C515 C 0.13452 0.01346 0.80975 0.0
C516 C 0.10022 0.97594 0.75507 0.0
C517 C 0.11374 0.94752 0.7439 0.0
C518 C 0.10615 0.93516 0.70031 0.0
C519 C 0.08437 0.95247 0.66723 0.0
C520 C 0.07067 0.98185 0.67796 0.0
C521 C 0.07879 0.99353 0.72256 0.0
loop_
_geom_bond_atom_site_label_1
_geom_bond_atom_site_label_2
_geom_bond_distance
_geom_bond_site_symmetry_2
_ccdc_geom_bond_type
C0 C1 1.386 . S
C0 C2 1.397 . S
C0 H24 0.931 . S
C1 C0 1.386 . S
C1 C5 1.397 . S
C2 C0 1.397 . S
C2 C3 1.384 1_556 S
C2 H25 0.930 . S
C3 C2 1.384 1_554 S
C3 C4 1.377 1_554 S
C3 C6 1.481 . S
C4 C3 1.377 1_556 S
C4 C5 1.389 . S
C4 H26 0.929 1_556 S
C5 C1 1.397 . S
C5 C4 1.389 . S
C5 H27 0.931 . S
C6 C3 1.481 . S
C6 C7 1.387 . S
C6 C11 1.390 . S
C7 C6 1.387 . S
C7 C8 1.401 . S
C7 H28 0.930 . S
C8 C7 1.401 . S
C8 C9 1.376 . S
C8 C17 1.511 . S
C9 C8 1.376 . S
C9 C10 1.392 . S
C9 H30 0.931 . S
C10 C9 1.392 . S
C10 C11 1.361 . S
C10 C12 1.500 . S
C11 C6 1.390 . S
C11 C10 1.361 . S
C11 H29 0.931 . S
C12 C10 1.500 . S
C12 C13 1.371 . S
C12 C14 1.365 . S
C13 C12 1.371 . S
C13 C23 1.386 . S
C13 H31 0.931 . S
C14 C12 1.365 . S
C14 C15 1.409 . S
C14 H32 0.929 . S
C15 C14 1.409 . S
C15 C16 1.380 . S
C15 H33 0.930 . S
C16 C15 1.380 . S
C16 C23 1.357 . S
C17 C8 1.511 . S
C17 C18 1.341 . S
C17 C19 1.371 . S
C18 C17 1.341 . S
C18 C22 1.394 . S
C18 H34 0.930 . S
C19 C17 1.371 . S
C19 C20 1.392 . S
C19 H35 0.931 . S
C20 C19 1.392 . S
C20 C21 1.331 . S
C20 H38 0.932 . S
C21 C20 1.331 . S
C21 C22 1.336 . S
C22 C18 1.394 . S
C22 C21 1.336 . S
C22 H37 0.929 . S
C23 C13 1.386 . S
C23 C16 1.357 . S
C23 H36 0.928 . S
H24 C0 0.931 . S
H25 C2 0.930 . S
H26 C4 0.929 1_554 S
H27 C5 0.931 . S
H28 C7 0.930 . S
H29 C11 0.931 . S
H30 C9 0.931 . S
H31 C13 0.931 . S
H32 C14 0.929 . S
H33 C15 0.930 . S
H34 C18 0.930 . S
H35 C19 0.931 . S
H36 C23 0.928 . S
H37 C22 0.929 . S
H38 C20 0.932 . S
C39 C40 1.386 . S
C39 C41 1.397 . S
C39 H63 0.931 . S
C40 C39 1.386 . S
C40 C44 1.397 . S
C41 C39 1.397 . S
C41 C42 1.384 . S
C41 H64 0.930 . S
C42 C41 1.384 . S
C42 C43 1.377 . S
C42 C45 1.481 . S
C43 C42 1.377 . S
C43 C44 1.389 . S
C43 H65 0.929 . S
C44 C40 1.397 . S
C44 C43 1.389 . S
C44 H66 0.931 . S
C45 C42 1.481 . S
C45 C46 1.387 . S
C45 C50 1.390 . S
C46 C45 1.387 . S
C46 C47 1.401 . S
C46 H67 0.930 . S
C47 C46 1.401 . S
C47 C48 1.376 . S
C47 C56 1.511 . S
C48 C47 1.376 . S
C48 C49 1.392 . S
C48 H69 0.931 . S
C49 C48 1.392 . S
C49 C50 1.361 . S
C49 C51 1.500 . S
C50 C45 1.390 . S
C50 C49 1.361 . S
C50 H68 0.931 . S
C51 C49 1.500 . S
C51 C52 1.371 . S
C51 C53 1.365 . S
C52 C51 1.371 . S
C52 C62 1.386 . S
C52 H70 0.931 . S
C53 C51 1.365 . S
C53 C54 1.409 . S
C53 H71 0.929 . S
C54 C53 1.409 . S
C54 C55 1.380 . S
C54 H72 0.930 . S
C55 C54 1.380 . S
C55 C62 1.357 . S
C56 C47 1.511 . S
C56 C57 1.341 . S
C56 C58 1.371 . S
C57 C56 1.341 . S
C57 C61 1.394 . S
C57 H73 0.930 . S
C58 C56 1.371 . S
C58 C59 1.392 . S
C58 H74 0.931 . S
C59 C58 1.392 . S
C59 C60 1.331 . S
C59 H77 0.932 . S
C60 C59 1.331 . S
C60 C61 1.336 . S
C61 C57 1.394 . S
C61 C60 1.336 . S
C61 H76 0.929 . S
C62 C52 1.386 . S
C62 C55 1.357 . S
C62 H75 0.928 . S
H63 C39 0.931 . S
H64 C41 0.930 . S
H65 C43 0.929 . S
H66 C44 0.931 . S
H67 C46 0.930 . S
H68 C50 0.931 . S
H69 C48 0.931 . S
H70 C52 0.931 . S
H71 C53 0.929 . S
H72 C54 0.930 . S
H73 C57 0.930 . S
H74 C58 0.931 . S
H75 C62 0.928 . S
H76 C61 0.929 . S
H77 C59 0.932 . S
C78 C79 1.386 . S
C78 C80 1.397 . S
C78 H102 0.931 . S
C79 C78 1.386 . S
C79 C83 1.397 . S
C80 C78 1.397 . S
C80 C81 1.384 . S
C80 H103 0.930 . S
C81 C80 1.384 . S
C81 C82 1.377 . S
C81 C84 1.481 . S
C82 C81 1.377 . S
C82 C83 1.389 . S
C82 H104 0.929 . S
C83 C79 1.397 . S
C83 C82 1.389 . S
C83 H105 0.931 . S
C84 C81 1.481 . S
C84 C85 1.387 . S
C84 C89 1.390 . S
C85 C84 1.387 . S
C85 C86 1.401 1_554 S
C85 H106 0.930 . S
C86 C85 1.401 1_556 S
C86 C87 1.376 . S
C86 C95 1.511 . S
C87 C86 1.376 . S
C87 C88 1.392 . S
C87 H108 0.931 . S
C88 C87 1.392 . S
C88 C89 1.361 1_556 S
C88 C90 1.500 . S
C89 C84 1.390 . S
C89 C88 1.361 1_554 S
C89 H107 0.931 . S
C90 C88 1.500 . S
C90 C91 1.371 . S
C90 C92 1.365 . S
C91 C90 1.371 . S
C91 C101 1.386 . S
C91 H109 0.931 . S
C92 C90 1.365 . S
C92 C93 1.409 . S
C92 H110 0.929 . S
C93 C92 1.409 . S
C93 C94 1.380 . S
C93 H111 0.930 . S
C94 C93 1.380 . S
C94 C101 1.357 . S
C95 C86 1.511 . S
C95 C96 1.341 1_556 S
C95 C97 1.371 . S
C96 C95 1.341 1_554 S
C96 C100 1.394 . S
C96 H112 0.930 . S
C97 C95 1.371 . S
C97 C98 1.392 . S
C97 H113 0.931 . S
C98 C97 1.392 . S
C98 C99 1.331 . S
C98 H116 0.932 . S
C99 C98 1.331 . S
C99 C100 1.336 1_556 S
C100 C96 1.394 . S
C100 C99 1.336 1_554 S
C100 H115 0.929 . S
C101 C91 1.386 . S
C101 C94 1.357 . S
C101 H114 0.928 . S
H102 C78 0.931 . S
H103 C80 0.930 . S
H104 C82 0.929 . S
H105 C83 0.931 . S
H106 C85 0.930 . S
H107 C89 0.931 . S
H108 C87 0.931 . S
H109 C91 0.931 . S
H110 C92 0.929 . S
H111 C93 0.930 . S
H112 C96 0.930 . S
H113 C97 0.931 . S
H114 C101 0.928 . S
H115 C100 0.929 . S
H116 C98 0.932 . S
C117 C118 1.386 . S
C117 C119 1.397 . S
C117 H141 0.931 . S
C118 C117 1.386 . S
C118 C122 1.397 . S
C119 C117 1.397 . S
C119 C120 1.384 . S
C119 H142 0.930 . S
C120 C119 1.384 . S
C120 C121 1.377 . S
C120 C123 1.481 . S
C121 C120 1.377 . S
C121 C122 1.389 . S
C121 H143 0.929 . S
C122 C118 1.397 . S
C122 C121 1.389 . S
C122 H144 0.931 . S
C123 C120 1.481 . S
C123 C124 1.387 . S
C123 C128 1.390 . S
C124 C123 1.387 . S
C124 C125 1.401 . S
C124 H145 0.930 . S
C125 C124 1.401 . S
C125 C126 1.376 . S
C125 C134 1.511 . S
C126 C125 1.376 . S
C126 C127 1.392 . S
C126 H147 0.931 . S
C127 C126 1.392 . S
C127 C128 1.361 . S
C127 C129 1.500 . S
C128 C123 1.390 . S
C128 C127 1.361 . S
C128 H146 0.931 . S
C129 C127 1.500 . S
C129 C130 1.371 . S
C129 C131 1.365 . S
C130 C129 1.371 . S
C130 C140 1.386 . S
C130 H148 0.931 . S
C131 C129 1.365 . S
C131 C132 1.409 . S
C131 H149 0.929 . S
C132 C131 1.409 . S
C132 C133 1.380 . S
C132 H150 0.930 . S
C133 C132 1.380 . S
C133 C140 1.357 . S
C134 C125 1.511 . S
C134 C135 1.341 . S
C134 C136 1.371 . S
C135 C134 1.341 . S
C135 C139 1.394 . S
C135 H151 0.930 . S
C136 C134 1.371 . S
C136 C137 1.392 . S
C136 H152 0.931 . S
C137 C136 1.392 . S
C137 C138 1.331 . S
C137 H155 0.932 . S
C138 C137 1.331 . S
C138 C139 1.336 . S
C139 C135 1.394 . S
C139 C138 1.336 . S
C139 H154 0.929 . S
C140 C130 1.386 . S
C140 C133 1.357 . S
C140 H153 0.928 . S
H141 C117 0.931 . S
H142 C119 0.930 . S
H143 C121 0.929 . S
H144 C122 0.931 . S
H145 C124 0.930 . S
H146 C128 0.931 . S
H147 C126 0.931 . S
H148 C130 0.931 . S
H149 C131 0.929 . S
H150 C132 0.930 . S
H151 C135 0.930 . S
H152 C136 0.931 . S
H153 C140 0.928 . S
H154 C139 0.929 . S
H155 C137 0.932 . S
O156 Mg157 1.990 1_655 S
O156 C170 1.253 . S
Mg157 O156 1.990 1_455 S
Mg157 O160 2.180 . S
Mg157 O161 2.117 . S
Mg157 O175 2.030 . S
O158 Mg159 2.072 1_655 S
O158 C170 1.260 . S
Mg159 O158 2.072 1_455 S
Mg159 O160 2.099 . S
Mg159 O162 2.079 1_545 S
Mg159 O163 2.072 1_455 S
Mg159 O165 2.099 1_445 S
Mg159 O176 2.079 1_545 S
O160 Mg157 2.180 . S
O160 Mg159 2.099 . S
O160 C171 1.279 . S
O161 Mg157 2.117 . S
O161 C171 1.250 . S
O162 Mg159 2.079 1_565 S
O162 C172 1.264 . S
O163 Mg159 2.072 1_655 S
O163 C173 1.260 . S
Mg164 O165 2.180 . S
Mg164 O166 2.030 1_655 S
Mg164 O167 1.990 1_565 S
Mg164 O168 2.117 . S
O165 Mg159 2.099 1_665 S
O165 Mg164 2.180 . S
O165 C174 1.279 . S
O166 Mg164 2.030 1_455 S
O166 C172 1.248 . S
O167 Mg164 1.990 1_545 S
O167 C173 1.253 . S
O168 Mg164 2.117 . S
O168 C174 1.250 . S
C169 O175 1.248 1_565 S
C169 O176 1.264 . S
C170 O156 1.253 . S
C170 O158 1.260 . S
C171 O160 1.279 . S
C171 O161 1.250 . S
C172 O162 1.264 . S
C172 O166 1.248 . S
C173 O163 1.260 . S
C173 O167 1.253 . S
C174 O165 1.279 . S
C174 O168 1.250 . S
O175 Mg157 2.030 . S
O175 C169 1.248 1_545 S
O176 Mg159 2.079 1_565 S
O176 C169 1.264 . S
O177 Mg178 1.990 . S
O177 C191 1.253 . S
Mg178 O177 1.990 . S
Mg178 O181 2.180 . S
Mg178 O182 2.117 . S
Mg178 O196 2.030 . S
O179 Mg180 2.072 . S
O179 C191 1.260 . S
Mg180 O179 2.072 . S
Mg180 O181 2.099 . S
Mg180 O183 2.079 1_554 S
Mg180 O184 2.072 1_554 S
Mg180 O186 2.099 . S
Mg180 O197 2.079 . S
O181 Mg178 2.180 . S
O181 Mg180 2.099 . S
O181 C192 1.279 . S
O182 Mg178 2.117 . S
O182 C192 1.250 . S
O183 Mg180 2.079 1_556 S
O183 C193 1.264 . S
O184 Mg180 2.072 1_556 S
O184 C194 1.260 . S
Mg185 O186 2.180 1_556 S
Mg185 O187 2.030 . S
Mg185 O188 1.990 . S
Mg185 O189 2.133 . S
O186 Mg180 2.099 . S
O186 Mg185 2.180 1_554 S
O186 C195 1.279 . S
O187 Mg185 2.030 . S
O187 C193 1.248 . S
O188 Mg185 1.990 . S
O188 C194 1.253 . S
O189 Mg185 2.133 . S
O189 C195 1.233 1_556 S
C190 O196 1.248 . S
C190 O197 1.264 . S
C191 O177 1.253 . S
C191 O179 1.260 . S
C192 O181 1.279 . S
C192 O182 1.250 . S
C193 O183 1.264 . S
C193 O187 1.248 . S
C194 O184 1.260 . S
C194 O188 1.253 . S
C195 O186 1.279 . S
C195 O189 1.233 1_554 S
O196 Mg178 2.030 . S
O196 C190 1.248 . S
O197 Mg180 2.079 . S
O197 C190 1.264 . S
H198 C210 0.930 . S
H199 C212 0.930 . S
H200 C213 0.930 . S
H201 C217 0.959 . S
H202 C217 0.959 . S
H203 C217 0.961 . S
H204 C218 0.960 . S
H205 C218 0.961 . S
H206 C218 0.959 . S
H207 C221 0.929 . S
H208 C222 0.931 . S
H209 C224 0.930 . S
C210 H198 0.930 . S
C210 C211 1.399 . S
C210 C215 1.399 . S
C211 C210 1.399 . S
C211 C212 1.376 . S
C212 H199 0.930 . S
C212 C211 1.376 . S
C212 C213 1.388 . S
C213 H200 0.930 . S
C213 C212 1.388 . S
C213 C214 1.390 . S
C214 C213 1.390 . S
C214 C215 1.394 . S
C214 C220 1.465 . S
C215 C210 1.399 . S
C215 C214 1.394 . S
C215 C216 1.516 . S
C216 C215 1.516 . S
C216 C217 1.502 . S
C216 C218 1.561 . S
C216 C219 1.526 . S
C217 H201 0.959 . S
C217 H202 0.959 . S
C217 H203 0.961 . S
C217 C216 1.502 . S
C218 H204 0.960 . S
C218 H205 0.961 . S
C218 H206 0.959 . S
C218 C216 1.561 . S
C219 C216 1.526 . S
C219 C220 1.396 . S
C219 C224 1.390 . S
C220 C214 1.465 . S
C220 C219 1.396 . S
C220 C221 1.399 . S
C221 H207 0.929 . S
C221 C220 1.399 . S
C221 C222 1.385 . S
C222 H208 0.931 . S
C222 C221 1.385 . S
C222 C223 1.389 . S
C223 C222 1.389 . S
C223 C224 1.387 . S
C224 H209 0.930 . S
C224 C219 1.390 . S
C224 C223 1.387 . S
H225 C237 0.930 . S
H226 C239 0.930 . S
H227 C240 0.930 1_556 S
H228 C244 0.959 . S
H229 C244 0.959 . S
H230 C244 0.961 . S
H231 C245 0.960 . S
H232 C245 0.961 . S
H233 C245 0.959 . S
H234 C248 0.929 1_556 S
H235 C249 0.931 1_556 S
H236 C251 0.930 . S
C237 H225 0.930 . S
C237 C238 1.399 . S
C237 C242 1.399 . S
C238 C237 1.399 . S
C238 C239 1.376 . S
C239 H226 0.930 . S
C239 C238 1.376 . S
C239 C240 1.388 . S
C240 H227 0.930 1_554 S
C240 C239 1.388 . S
C240 C241 1.390 . S
C241 C240 1.390 . S
C241 C242 1.394 . S
C241 C247 1.465 . S
C242 C237 1.399 . S
C242 C241 1.394 . S
C242 C243 1.516 . S
C243 C242 1.516 . S
C243 C244 1.502 . S
C243 C245 1.561 . S
C243 C246 1.526 . S
C244 H228 0.959 . S
C244 H229 0.959 . S
C244 H230 0.961 . S
C244 C243 1.502 . S
C245 H231 0.960 . S
C245 H232 0.961 . S
C245 H233 0.959 . S
C245 C243 1.561 . S
C246 C243 1.526 . S
C246 C247 1.396 . S
C246 C251 1.390 . S
C247 C241 1.465 . S
C247 C246 1.396 . S
C247 C248 1.399 . S
C248 H234 0.929 1_554 S
C248 C247 1.399 . S
C248 C249 1.385 . S
C249 H235 0.931 1_554 S
C249 C248 1.385 . S
C249 C250 1.389 . S
C250 C249 1.389 . S
C250 C251 1.387 . S
C251 H236 0.930 . S
C251 C246 1.390 . S
C251 C250 1.387 . S
H252 C264 0.930 . S
H253 C266 0.930 . S
H254 C267 0.930 . S
H255 C271 0.959 . S
H256 C271 0.959 . S
H257 C271 0.961 . S
H258 C272 0.960 . S
H259 C272 0.961 . S
H260 C272 0.959 . S
H261 C275 0.929 . S
H262 C276 0.931 . S
H263 C278 0.930 . S
C264 H252 0.930 . S
C264 C265 1.399 . S
C264 C269 1.399 . S
C265 C264 1.399 . S
C265 C266 1.376 . S
C266 H253 0.930 . S
C266 C265 1.376 . S
C266 C267 1.388 . S
C267 H254 0.930 . S
C267 C266 1.388 . S
C267 C268 1.390 . S
C268 C267 1.390 . S
C268 C269 1.394 . S
C268 C274 1.465 . S
C269 C264 1.399 . S
C269 C268 1.394 . S
C269 C270 1.516 . S
C270 C269 1.516 . S
C270 C271 1.502 . S
C270 C272 1.561 . S
C270 C273 1.526 . S
C271 H255 0.959 . S
C271 H256 0.959 . S
C271 H257 0.961 . S
C271 C270 1.502 . S
C272 H258 0.960 . S
C272 H259 0.961 . S
C272 H260 0.959 . S
C272 C270 1.561 . S
C273 C270 1.526 . S
C273 C274 1.396 . S
C273 C278 1.390 . S
C274 C268 1.465 . S
C274 C273 1.396 . S
C274 C275 1.399 . S
C275 H261 0.929 . S
C275 C274 1.399 . S
C275 C276 1.385 . S
C276 H262 0.931 . S
C276 C275 1.385 . S
C276 C277 1.389 . S
C277 C276 1.389 . S
C277 C278 1.387 . S
C278 H263 0.930 . S
C278 C273 1.390 . S
C278 C277 1.387 . S
H279 C291 0.930 . S
H280 C293 0.930 . S
H281 C294 0.930 . S
H282 C298 0.959 . S
H283 C298 0.959 . S
H284 C298 0.961 . S
H285 C299 0.960 . S
H286 C299 0.961 . S
H287 C299 0.959 . S
H288 C302 0.929 . S
H289 C303 0.931 . S
H290 C305 0.930 . S
C291 H279 0.930 . S
C291 C292 1.399 1_554 S
C291 C296 1.399 . S
C292 C291 1.399 1_556 S
C292 C293 1.376 . S
C293 H280 0.930 . S
C293 C292 1.376 . S
C293 C294 1.388 . S
C294 H281 0.930 . S
C294 C293 1.388 . S
C294 C295 1.390 . S
C295 C294 1.390 . S
C295 C296 1.394 1_556 S
C295 C301 1.465 . S
C296 C291 1.399 . S
C296 C295 1.394 1_554 S
C296 C297 1.516 . S
C297 C296 1.516 . S
C297 C298 1.502 . S
C297 C299 1.561 . S
C297 C300 1.526 . S
C298 H282 0.959 . S
C298 H283 0.959 . S
C298 H284 0.961 . S
C298 C297 1.502 . S
C299 H285 0.960 . S
C299 H286 0.961 . S
C299 H287 0.959 . S
C299 C297 1.561 . S
C300 C297 1.526 . S
C300 C301 1.396 1_554 S
C300 C305 1.390 . S
C301 C295 1.465 . S
C301 C300 1.396 1_556 S
C301 C302 1.399 . S
C302 H288 0.929 . S
C302 C301 1.399 . S
C302 C303 1.385 . S
C303 H289 0.931 . S
C303 C302 1.385 . S
C303 C304 1.389 1_556 S
C304 C303 1.389 1_554 S
C304 C305 1.387 . S
C305 H290 0.930 . S
C305 C300 1.390 . S
C305 C304 1.387 . S
H306 C318 0.930 . S
H307 C320 0.930 . S
H308 C321 0.930 . S
H309 C325 0.964 . S
H310 C325 0.955 1_545 S
H311 C325 0.960 1_545 S
H312 C326 0.960 . S
H313 C326 0.961 . S
H314 C326 0.959 . S
H315 C329 0.929 . S
H316 C330 0.931 . S
H317 C332 0.930 1_545 S
C318 H306 0.930 . S
C318 C319 1.399 . S
C318 C323 1.399 . S
C319 C318 1.399 . S
C319 C320 1.376 . S
C320 H307 0.930 . S
C320 C319 1.376 . S
C320 C321 1.388 . S
C321 H308 0.930 . S
C321 C320 1.388 . S
C321 C322 1.390 . S
C322 C321 1.390 . S
C322 C323 1.394 . S
C322 C328 1.465 . S
C323 C318 1.399 . S
C323 C322 1.394 . S
C323 C324 1.516 . S
C324 C323 1.516 . S
C324 C325 1.502 . S
C324 C326 1.561 1_565 S
C324 C327 1.526 . S
C325 H309 0.964 . S
C325 H310 0.955 1_565 S
C325 H311 0.960 1_565 S
C325 C324 1.502 . S
C326 H312 0.960 . S
C326 H313 0.961 . S
C326 H314 0.959 . S
C326 C324 1.561 1_545 S
C327 C324 1.526 . S
C327 C328 1.396 . S
C327 C332 1.390 . S
C328 C322 1.465 . S
C328 C327 1.396 . S
C328 C329 1.399 . S
C329 H315 0.929 . S
C329 C328 1.399 . S
C329 C330 1.385 . S
C330 H316 0.931 . S
C330 C329 1.385 . S
C330 C331 1.389 . S
C331 C330 1.389 . S
C331 C332 1.387 . S
C332 H317 0.930 1_565 S
C332 C327 1.390 . S
C332 C331 1.387 . S
H333 C345 0.930 . S
H334 C347 0.930 . S
H335 C348 0.930 . S
H336 C352 0.959 . S
H337 C352 0.959 . S
H338 C352 0.961 . S
H339 C353 0.960 . S
H340 C353 0.961 . S
H341 C353 0.959 . S
H342 C356 0.929 . S
H343 C357 0.931 . S
H344 C359 0.930 . S
C345 H333 0.930 . S
C345 C346 1.399 . S
C345 C350 1.399 . S
C346 C345 1.399 . S
C346 C347 1.376 . S
C347 H334 0.930 . S
C347 C346 1.376 . S
C347 C348 1.388 . S
C348 H335 0.930 . S
C348 C347 1.388 . S
C348 C349 1.390 . S
C349 C348 1.390 . S
C349 C350 1.394 . S
C349 C355 1.465 . S
C350 C345 1.399 . S
C350 C349 1.394 . S
C350 C351 1.516 . S
C351 C350 1.516 . S
C351 C352 1.502 . S
C351 C353 1.561 . S
C351 C354 1.526 . S
C352 H336 0.959 . S
C352 H337 0.959 . S
C352 H338 0.961 . S
C352 C351 1.502 . S
C353 H339 0.960 . S
C353 H340 0.961 . S
C353 H341 0.959 . S
C353 C351 1.561 . S
C354 C351 1.526 . S
C354 C355 1.396 . S
C354 C359 1.390 . S
C355 C349 1.465 . S
C355 C354 1.396 . S
C355 C356 1.399 . S
C356 H342 0.929 . S
C356 C355 1.399 . S
C356 C357 1.385 . S
C357 H343 0.931 . S
C357 C356 1.385 . S
C357 C358 1.389 . S
C358 C357 1.389 . S
C358 C359 1.387 . S
C359 H344 0.930 . S
C359 C354 1.390 . S
C359 C358 1.387 . S
H360 C372 0.930 . S
H361 C374 0.930 . S
H362 C375 0.930 . S
H363 C379 0.958 1_545 S
H364 C379 0.963 . S
H365 C379 0.963 . S
H366 C380 0.960 . S
H367 C380 0.961 1_565 S
H368 C380 0.959 . S
H369 C383 0.929 . S
H370 C384 0.931 . S
H371 C386 0.930 . S
C372 H360 0.930 . S
C372 C373 1.399 . S
C372 C377 1.399 . S
C373 C372 1.399 . S
C373 C374 1.376 . S
C374 H361 0.930 . S
C374 C373 1.376 . S
C374 C375 1.388 . S
C375 H362 0.930 . S
C375 C374 1.388 . S
C375 C376 1.390 . S
C376 C375 1.390 . S
C376 C377 1.394 . S
C376 C382 1.465 . S
C377 C372 1.399 . S
C377 C376 1.394 . S
C377 C378 1.516 . S
C378 C377 1.516 . S
C378 C379 1.498 1_545 S
C378 C380 1.561 . S
C378 C381 1.526 . S
C379 H363 0.958 1_565 S
C379 H364 0.963 . S
C379 H365 0.963 . S
C379 C378 1.498 1_565 S
C380 H366 0.960 . S
C380 H367 0.961 1_545 S
C380 H368 0.959 . S
C380 C378 1.561 . S
C381 C378 1.526 . S
C381 C382 1.396 . S
C381 C386 1.390 . S
C382 C376 1.465 . S
C382 C381 1.396 . S
C382 C383 1.399 . S
C383 H369 0.929 . S
C383 C382 1.399 . S
C383 C384 1.385 . S
C384 H370 0.931 . S
C384 C383 1.385 . S
C384 C385 1.389 . S
C385 C384 1.389 . S
C385 C386 1.387 . S
C386 H371 0.930 . S
C386 C381 1.390 . S
C386 C385 1.387 . S
H387 C399 0.930 . S
H388 C401 0.930 . S
H389 C402 0.930 . S
H390 C406 0.959 . S
H391 C406 0.959 . S
H392 C406 0.961 . S
H393 C407 0.960 . S
H394 C407 0.961 . S
H395 C407 0.959 . S
H396 C410 0.929 . S
H397 C411 0.931 . S
H398 C413 0.930 . S
C399 H387 0.930 . S
C399 C400 1.399 . S
C399 C404 1.399 . S
C400 C399 1.399 . S
C400 C401 1.376 . S
C401 H388 0.930 . S
C401 C400 1.376 . S
C401 C402 1.388 . S
C402 H389 0.930 . S
C402 C401 1.388 . S
C402 C403 1.390 . S
C403 C402 1.390 . S
C403 C404 1.394 . S
C403 C409 1.465 . S
C404 C399 1.399 . S
C404 C403 1.394 . S
C404 C405 1.516 . S
C405 C404 1.516 . S
C405 C406 1.502 . S
C405 C407 1.561 . S
C405 C408 1.526 . S
C406 H390 0.959 . S
C406 H391 0.959 . S
C406 H392 0.961 . S
C406 C405 1.502 . S
C407 H393 0.960 . S
C407 H394 0.961 . S
C407 H395 0.959 . S
C407 C405 1.561 . S
C408 C405 1.526 . S
C408 C409 1.396 . S
C408 C413 1.390 . S
C409 C403 1.465 . S
C409 C408 1.396 . S
C409 C410 1.399 . S
C410 H396 0.929 . S
C410 C409 1.399 . S
C410 C411 1.385 . S
C411 H397 0.931 . S
C411 C410 1.385 . S
C411 C412 1.389 . S
C412 C411 1.389 . S
C412 C413 1.387 . S
C413 H398 0.930 . S
C413 C408 1.390 . S
C413 C412 1.387 . S
H414 C426 0.930 . S
H415 C428 0.930 . S
H416 C429 0.930 . S
H417 C433 0.959 . S
H418 C433 0.959 . S
H419 C433 0.961 . S
H420 C434 0.960 . S
H421 C434 0.961 . S
H422 C434 0.959 . S
H423 C437 0.929 . S
H424 C438 0.931 . S
H425 C440 0.930 . S
C426 H414 0.930 . S
C426 C427 1.399 . S
C426 C431 1.399 . S
C427 C426 1.399 . S
C427 C428 1.376 . S
C428 H415 0.930 . S
C428 C427 1.376 . S
C428 C429 1.388 . S
C429 H416 0.930 . S
C429 C428 1.388 . S
C429 C430 1.390 . S
C430 C429 1.390 . S
C430 C431 1.394 . S
C430 C436 1.465 . S
C431 C426 1.399 . S
C431 C430 1.394 . S
C431 C432 1.516 . S
C432 C431 1.516 . S
C432 C433 1.502 . S
C432 C434 1.561 . S
C432 C435 1.526 . S
C433 H417 0.959 . S
C433 H418 0.959 . S
C433 H419 0.961 . S
C433 C432 1.502 . S
C434 H420 0.960 . S
C434 H421 0.961 . S
C434 H422 0.959 . S
C434 C432 1.561 . S
C435 C432 1.526 . S
C435 C436 1.396 . S
C435 C440 1.390 . S
C436 C430 1.465 . S
C436 C435 1.396 . S
C436 C437 1.399 . S
C437 H423 0.929 . S
C437 C436 1.399 . S
C437 C438 1.385 . S
C438 H424 0.931 . S
C438 C437 1.385 . S
C438 C439 1.389 . S
C439 C438 1.389 . S
C439 C440 1.387 . S
C440 H425 0.930 . S
C440 C435 1.390 . S
C440 C439 1.387 . S
H441 C453 0.930 . S
H442 C455 0.930 . S
H443 C456 0.930 . S
H444 C460 0.959 . S
H445 C460 0.959 . S
H446 C460 0.961 . S
H447 C461 0.960 . S
H448 C461 0.961 . S
H449 C461 0.959 . S
H450 C464 0.929 . S
H451 C465 0.931 . S
H452 C467 0.930 . S
C453 H441 0.930 . S
C453 C454 1.399 . S
C453 C458 1.399 . S
C454 C453 1.399 . S
C454 C455 1.376 . S
C455 H442 0.930 . S
C455 C454 1.376 . S
C455 C456 1.388 . S
C456 H443 0.930 . S
C456 C455 1.388 . S
C456 C457 1.390 . S
C457 C456 1.390 . S
C457 C458 1.394 . S
C457 C463 1.465 . S
C458 C453 1.399 . S
C458 C457 1.394 . S
C458 C459 1.516 . S
C459 C458 1.516 . S
C459 C460 1.502 . S
C459 C461 1.561 . S
C459 C462 1.526 . S
C460 H444 0.959 . S
C460 H445 0.959 . S
C460 H446 0.961 . S
C460 C459 1.502 . S
C461 H447 0.960 . S
C461 H448 0.961 . S
C461 H449 0.959 . S
C461 C459 1.561 . S
C462 C459 1.526 . S
C462 C463 1.396 . S
C462 C467 1.390 . S
C463 C457 1.465 . S
C463 C462 1.396 . S
C463 C464 1.399 . S
C464 H450 0.929 . S
C464 C463 1.399 . S
C464 C465 1.385 . S
C465 H451 0.931 . S
C465 C464 1.385 . S
C465 C466 1.389 . S
C466 C465 1.389 . S
C466 C467 1.387 . S
C467 H452 0.930 . S
C467 C462 1.390 . S
C467 C466 1.387 . S
H468 C480 0.930 . S
H469 C482 0.930 . S
H470 C483 0.930 . S
H471 C487 0.959 . S
H472 C487 0.959 . S
H473 C487 0.961 . S
H474 C488 0.960 . S
H475 C488 0.961 . S
H476 C488 0.959 . S
H477 C491 0.929 . S
H478 C492 0.931 . S
H479 C494 0.930 . S
C480 H468 0.930 . S
C480 C481 1.399 . S
C480 C485 1.399 . S
C481 C480 1.399 . S
C481 C482 1.376 . S
C482 H469 0.930 . S
C482 C481 1.376 . S
C482 C483 1.388 . S
C483 H470 0.930 . S
C483 C482 1.388 . S
C483 C484 1.390 . S
C484 C483 1.390 . S
C484 C485 1.394 . S
C484 C490 1.465 . S
C485 C480 1.399 . S
C485 C484 1.394 . S
C485 C486 1.516 . S
C486 C485 1.516 . S
C486 C487 1.502 . S
C486 C488 1.561 . S
C486 C489 1.526 . S
C487 H471 0.959 . S
C487 H472 0.959 . S
C487 H473 0.961 . S
C487 C486 1.502 . S
C488 H474 0.960 . S
C488 H475 0.961 . S
C488 H476 0.959 . S
C488 C486 1.561 . S
C489 C486 1.526 . S
C489 C490 1.396 . S
C489 C494 1.390 . S
C490 C484 1.465 . S
C490 C489 1.396 . S
C490 C491 1.399 . S
C491 H477 0.929 . S
C491 C490 1.399 . S
C491 C492 1.385 . S
C492 H478 0.931 . S
C492 C491 1.385 . S
C492 C493 1.389 . S
C493 C492 1.389 . S
C493 C494 1.387 . S
C494 H479 0.930 . S
C494 C489 1.390 . S
C494 C493 1.387 . S
H495 C507 0.930 . S
H496 C509 0.930 . S
H497 C510 0.930 . S
H498 C514 0.959 . S
H499 C514 0.959 . S
H500 C514 0.961 . S
H501 C515 0.960 . S
H502 C515 0.961 . S
H503 C515 0.959 . S
H504 C518 0.929 . S
H505 C519 0.931 . S
H506 C521 0.930 1_545 S
C507 H495 0.930 . S
C507 C508 1.399 . S
C507 C512 1.399 . S
C508 C507 1.399 . S
C508 C509 1.376 . S
C509 H496 0.930 . S
C509 C508 1.376 . S
C509 C510 1.388 . S
C510 H497 0.930 . S
C510 C509 1.388 . S
C510 C511 1.390 . S
C511 C510 1.390 . S
C511 C512 1.394 . S
C511 C517 1.465 . S
C512 C507 1.399 . S
C512 C511 1.394 . S
C512 C513 1.516 1_565 S
C513 C512 1.516 1_545 S
C513 C514 1.502 . S
C513 C515 1.561 . S
C513 C516 1.526 1_545 S
C514 H498 0.959 . S
C514 H499 0.959 . S
C514 H500 0.961 . S
C514 C513 1.502 . S
C515 H501 0.960 . S
C515 H502 0.961 . S
C515 H503 0.959 . S
C515 C513 1.561 . S
C516 C513 1.526 1_565 S
C516 C517 1.396 . S
C516 C521 1.390 . S
C517 C511 1.465 . S
C517 C516 1.396 . S
C517 C518 1.399 . S
C518 H504 0.929 . S
C518 C517 1.399 . S
C518 C519 1.385 . S
C519 H505 0.931 . S
C519 C518 1.385 . S
C519 C520 1.389 . S
C520 C519 1.389 . S
C520 C521 1.387 . S
C521 H506 0.930 1_565 S
C521 C516 1.390 . S
C521 C520 1.387 . S
C223 C171 1.291 . S
C211 C138 1.500 . S
C238 C21 1.496 . S
C250 C195 1.285 . S
C265 C60 1.656 . S
C277 C174 1.404 . S
C292 C99 1.661 . S
C304 C192 1.526 . S
C331 C172 1.585 . S
C319 C16 1.577 . S
C358 C194 1.590 . S
C346 C40 1.591 . S
C373 C79 1.566 . S
C385 C173 1.553 . S
C400 C133 1.566 . S
C412 C193 1.514 . S
C439 C191 1.553 . S
C427 C55 1.562 . S
C466 C170 1.567 . S
C454 C94 1.579 . S
C493 C190 1.602 . S
C481 C118 1.593 . S
C508 C1 1.578 . S
C520 C169 1.568 . S
