# Generated by pormake.
# Topology anh, (6,3)-cn, num edge types: 1
# Building blocks:
#     Node 0, Type 0, BuildingBlock: VOLQOD_clean_sbu_1, # of connection points: 6
#     Node 1, Type 0, BuildingBlock: VOLQOD_clean_sbu_1, # of connection points: 6
#     Node 2, Type 0, BuildingBlock: VOLQOD_clean_sbu_1, # of connection points: 6
#     Node 3, Type 1, BuildingBlock: INOVEN_clean_linker_0, # of connection points: 3
#     Node 4, Type 1, BuildingBlock: INOVEN_clean_linker_0, # of connection points: 3
#     Node 5, Type 1, BuildingBlock: INOVEN_clean_linker_0, # of connection points: 3
#     Node 6, Type 1, BuildingBlock: INOVEN_clean_linker_0, # of connection points: 3
#     Node 7, Type 1, BuildingBlock: INOVEN_clean_linker_0, # of connection points: 3
#     Node 8, Type 1, BuildingBlock: INOVEN_clean_linker_0, # of connection points: 3
#     Edge 9, Type (0, 1), BuildingBlock: FUNLAD_clean_linker_1, # of connection points: 2
#     Edge 10, Type (0, 1), BuildingBlock: FUNLAD_clean_linker_1, # of connection points: 2
#     Edge 11, Type (0, 1), BuildingBlock: FUNLAD_clean_linker_1, # of connection points: 2
#     Edge 12, Type (0, 1), BuildingBlock: FUNLAD_clean_linker_1, # of connection points: 2
#     Edge 13, Type (0, 1), BuildingBlock: FUNLAD_clean_linker_1, # of connection points: 2
#     Edge 14, Type (0, 1), BuildingBlock: FUNLAD_clean_linker_1, # of connection points: 2
#     Edge 15, Type (0, 1), BuildingBlock: FUNLAD_clean_linker_1, # of connection points: 2
#     Edge 16, Type (0, 1), BuildingBlock: FUNLAD_clean_linker_1, # of connection points: 2
#     Edge 17, Type (0, 1), BuildingBlock: FUNLAD_clean_linker_1, # of connection points: 2
#     Edge 18, Type (0, 1), BuildingBlock: FUNLAD_clean_linker_1, # of connection points: 2
#     Edge 19, Type (0, 1), BuildingBlock: FUNLAD_clean_linker_1, # of connection points: 2
#     Edge 20, Type (0, 1), BuildingBlock: FUNLAD_clean_linker_1, # of connection points: 2
#     Edge 21, Type (0, 1), BuildingBlock: FUNLAD_clean_linker_1, # of connection points: 2
#     Edge 22, Type (0, 1), BuildingBlock: FUNLAD_clean_linker_1, # of connection points: 2
#     Edge 23, Type (0, 1), BuildingBlock: FUNLAD_clean_linker_1, # of connection points: 2
#     Edge 24, Type (0, 1), BuildingBlock: FUNLAD_clean_linker_1, # of connection points: 2
#     Edge 25, Type (0, 1), BuildingBlock: FUNLAD_clean_linker_1, # of connection points: 2
#     Edge 26, Type (0, 1), BuildingBlock: FUNLAD_clean_linker_1, # of connection points: 2
# Relax obj value: 0.155
# Max RMSD: 0.215
# Mean RMSD: 0.134
data_MOF--net-anh--node1-VOLQOD_clean_sbu_1--node2-INOVEN_clean_linker_0--edge1-FUNLAD_clean_linker_1
_symmetry_space_group_name_H-M    P1
_symmetry_Int_Tables_number       1
_symmetry_cell_setting            triclinic
loop_
_symmetry_equiv_pos_as_xyz
'x, y, z'
_cell_length_a     30.757868
_cell_length_b     30.499636
_cell_length_c     58.899276
_cell_angle_alpha  92.590527
_cell_angle_beta   92.396716
_cell_angle_gamma 120.33728
loop_
_atom_site_label
_atom_site_type_symbol
_atom_site_fract_x
_atom_site_fract_y
_atom_site_fract_z
_atom_type_partial_charge
O0 O 0.05062 0.61828 0.21308 0.0
Zn1 Zn 0.04676 0.63638 0.18087 0.0
O2 O 0.04456 0.58402 0.15937 0.0
Zn3 Zn 0.98042 0.55051 0.14154 0.0
Zn4 Zn 0.05239 0.53324 0.17566 0.0
Zn5 Zn 0.09737 0.61526 0.13846 0.0
O6 O 0.98788 0.55041 0.10793 0.0
O7 O 0.0698 0.6044 0.10574 0.0
O8 O 0.98429 0.64263 0.17689 0.0
O9 O 0.94147 0.58442 0.14823 0.0
O10 O 0.93745 0.47927 0.1499 0.0
O11 O 0.98948 0.46368 0.17066 0.0
O12 O 0.1121 0.52808 0.16592 0.0
O13 O 0.10872 0.70466 0.17725 0.0
O14 O 0.14093 0.58423 0.1396 0.0
O15 O 0.14307 0.68951 0.1476 0.0
C16 C 0.05678 0.58424 0.22187 0.0
C17 C 0.02553 0.57539 0.09629 0.0
C18 C 0.94617 0.44939 0.16097 0.0
C19 C 0.94593 0.61897 0.16265 0.0
C20 C 0.14321 0.55104 0.15104 0.0
C21 C 0.14315 0.71961 0.16328 0.0
O22 O 0.06025 0.55074 0.20962 0.0
O23 O 0.45792 0.05588 0.44768 0.0
Zn24 Zn 0.44126 0.05497 0.48035 0.0
O25 O 0.49515 0.05704 0.50004 0.0
Zn26 Zn 0.52984 0.12044 0.51908 0.0
Zn27 Zn 0.54415 0.05123 0.48197 0.0
Zn28 Zn 0.4656 0.00142 0.51964 0.0
O29 O 0.53368 0.1077 0.55228 0.0
O30 O 0.47233 0.02672 0.55244 0.0
O31 O 0.43213 0.11497 0.48801 0.0
O32 O 0.49241 0.15784 0.51586 0.0
O33 O 0.59928 0.16725 0.50896 0.0
O34 O 0.61107 0.11665 0.4849 0.0
O35 O 0.55591 0.9951 0.49156 0.0
O36 O 0.37502 0.98971 0.48255 0.0
O37 O 0.50198 0.96262 0.51842 0.0
O38 O 0.39334 0.95142 0.5094 0.0
C39 C 0.48912 0.04745 0.43762 0.0
C40 C 0.50494 0.069 0.56292 0.0
C41 C 0.62673 0.15975 0.49562 0.0
C42 C 0.45563 0.1525 0.50287 0.0
C43 C 0.53613 0.96349 0.50664 0.0
C44 C 0.36239 0.95198 0.49454 0.0
O45 O 0.52181 0.04101 0.44861 0.0
O46 O 0.52509 0.49711 0.78099 0.0
Zn47 Zn 0.50524 0.47665 0.81256 0.0
O48 O 0.55382 0.52973 0.83518 0.0
Zn49 Zn 0.52223 0.56355 0.84998 0.0
Zn50 Zn 0.61311 0.57941 0.82049 0.0
Zn51 Zn 0.57492 0.49899 0.85802 0.0
O52 O 0.52348 0.55817 0.88402 0.0
O53 O 0.55081 0.50396 0.88874 0.0
O54 O 0.43509 0.46497 0.81475 0.0
O55 O 0.44921 0.52952 0.83901 0.0
O56 O 0.55605 0.6374 0.84332 0.0
O57 O 0.62504 0.65036 0.82689 0.0
O58 O 0.67578 0.57853 0.83123 0.0
O59 O 0.50356 0.41044 0.81614 0.0
O60 O 0.65008 0.53319 0.86148 0.0
O61 O 0.5522 0.42621 0.84799 0.0
C62 C 0.56475 0.53228 0.7732 0.0
C63 C 0.53333 0.53104 0.89666 0.0
C64 C 0.59767 0.6668 0.83489 0.0
C65 C 0.41946 0.49056 0.8257 0.0
C66 C 0.68465 0.56053 0.84877 0.0
C67 C 0.52457 0.39654 0.83093 0.0
O68 O 0.60214 0.56545 0.78632 0.0
H69 H 0.50621 0.08487 0.20128 0.0
H70 H 0.44664 0.99268 0.25799 0.0
H71 H 0.59434 0.12554 0.26563 0.0
N72 N 0.5956 0.15049 0.22205 0.0
N73 N 0.63231 0.18557 0.23393 0.0
C74 C 0.51036 0.07712 0.21877 0.0
C75 C 0.47105 0.03458 0.22789 0.0
C76 C 0.55525 0.10969 0.23212 0.0
C77 C 0.56007 0.10041 0.25501 0.0
C78 C 0.52106 0.05783 0.26414 0.0
C79 C 0.47713 0.02467 0.25051 0.0
H80 H 0.51331 0.52895 0.53896 0.0
H81 H 0.56617 0.48053 0.59622 0.0
H82 H 0.5838 0.62955 0.59942 0.0
N83 N 0.54222 0.62069 0.55694 0.0
N84 N 0.56977 0.66698 0.56273 0.0
C85 C 0.53093 0.53588 0.55605 0.0
C86 C 0.53715 0.49834 0.56621 0.0
C87 C 0.54884 0.58362 0.56768 0.0
C88 C 0.57152 0.59339 0.58998 0.0
C89 C 0.5775 0.55605 0.60026 0.0
C90 C 0.56166 0.50938 0.58811 0.0
H91 H 0.01684 0.50286 0.85505 0.0
H92 H 0.97162 0.54569 0.91626 0.0
H93 H 0.08757 0.50683 0.92016 0.0
N94 N 0.08632 0.48829 0.87485 0.0
N95 N 0.11722 0.48054 0.88565 0.0
C96 C 0.02031 0.50968 0.87344 0.0
C97 C 0.9906 0.52618 0.88407 0.0
C98 C 0.05517 0.50257 0.88629 0.0
C99 C 0.0602 0.51176 0.91013 0.0
C100 C 0.03043 0.52755 0.9212 0.0
C101 C -0.0046 0.5344 0.90802 0.0
H102 H 0.06793 0.55384 0.46003 0.0
H103 H 0.14244 0.61009 0.39877 0.0
H104 H 0.00108 0.4684 0.39538 0.0
N105 N 0.99232 0.46753 0.44112 0.0
N106 N 0.951 0.43421 0.43152 0.0
C107 C 0.06902 0.54977 0.44171 0.0
C108 C 0.10911 0.58761 0.43075 0.0
C109 C 0.03028 0.5064 0.42917 0.0
C110 C 0.03105 0.50158 0.40529 0.0
C111 C 0.07185 0.53884 0.39436 0.0
C112 C 0.11126 0.58096 0.40725 0.0
H113 H 0.60722 0.08789 0.80102 0.0
H114 H 0.60989 0.16365 0.74076 0.0
H115 H 0.60322 0.01955 0.7347 0.0
N116 N 0.60338 0.00716 0.77987 0.0
N117 N 0.59082 0.96637 0.7686 0.0
C118 C 0.60718 0.08903 0.78265 0.0
C119 C 0.60887 0.13048 0.77237 0.0
C120 C 0.60536 0.04891 0.7692 0.0
C121 C 0.60498 0.05045 0.74532 0.0
C122 C 0.60556 0.09116 0.73497 0.0
C123 C 0.60862 0.13158 0.74863 0.0
H124 H 0.55633 0.52152 0.13772 0.0
H125 H 0.61905 0.52147 0.0738 0.0
H126 H 0.46601 0.48977 0.07503 0.0
N127 N 0.46739 0.50059 0.12091 0.0
N128 N 0.42597 0.49127 0.11189 0.0
C129 C 0.55286 0.51745 0.11927 0.0
C130 C 0.59351 0.52356 0.10707 0.0
C131 C 0.50697 0.50528 0.10781 0.0
C132 C 0.50167 0.49947 0.08379 0.0
C133 C 0.54229 0.50573 0.07135 0.0
C134 C 0.58756 0.51673 0.08323 0.0
H135 H 0.20801 0.56042 0.13317 0.0
C136 C 0.18338 0.53997 0.14639 0.0
H137 H 0.16649 0.48452 0.1702 0.0
H138 H 0.27359 0.39336 0.1088 0.0
H139 H 0.18761 0.32184 0.10745 0.0
H140 H 0.1213 0.33021 0.12587 0.0
H141 H 0.14065 0.41004 0.14595 0.0
C142 C 0.19125 0.50673 0.1574 0.0
C143 C 0.23262 0.49804 0.15081 0.0
C144 C 0.22075 0.45102 0.13942 0.0
C145 C 0.25884 0.44643 0.12856 0.0
C146 C 0.24595 0.39911 0.11712 0.0
C147 C 0.19679 0.35774 0.11625 0.0
C148 C 0.15945 0.36245 0.12664 0.0
C149 C 0.17104 0.40849 0.13807 0.0
H150 H 0.39478 0.49378 0.144 0.0
C151 C 0.38824 0.48898 0.12551 0.0
H152 H 0.34 0.47979 0.09713 0.0
H153 H 0.26997 0.58867 0.17614 0.0
H154 H 0.35553 0.66104 0.17733 0.0
H155 H 0.41994 0.65641 0.15544 0.0
H156 H 0.39976 0.57945 0.13282 0.0
C157 C 0.3466 0.48541 0.11559 0.0
C158 C 0.30856 0.48893 0.12907 0.0
C159 C 0.321 0.5353 0.14151 0.0
C160 C 0.28326 0.53911 0.15303 0.0
C161 C 0.29688 0.58473 0.16628 0.0
C162 C 0.34585 0.62636 0.16722 0.0
C163 C 0.38214 0.62367 0.15498 0.0
C164 C 0.37007 0.5789 0.14219 0.0
H165 H 0.67814 0.24096 0.49158 0.0
C166 C 0.6748 0.20371 0.49013 0.0
H167 H 0.70814 0.16093 0.48047 0.0
H168 H 0.84027 0.29454 0.40528 0.0
H169 H 0.79195 0.2102 0.38593 0.0
H170 H 0.72464 0.13927 0.40473 0.0
H171 H 0.70568 0.15198 0.44296 0.0
C172 C 0.71193 0.19838 0.48166 0.0
C173 C 0.75475 0.24088 0.47092 0.0
C174 C 0.76392 0.23305 0.44806 0.0
C175 C 0.80155 0.2744 0.4369 0.0
C176 C 0.81134 0.26496 0.41443 0.0
C177 C 0.78402 0.2166 0.40311 0.0
C178 C 0.74626 0.17664 0.41372 0.0
C179 C 0.73588 0.18458 0.43581 0.0
H180 H 0.9274 0.38817 0.46049 0.0
C181 C 0.91534 0.395 0.44406 0.0
H182 H 0.85578 0.37402 0.41938 0.0
H183 H 0.75784 0.26641 0.51647 0.0
H184 H 0.80216 0.35175 0.53524 0.0
H185 H 0.85518 0.42607 0.5138 0.0
H186 H 0.8661 0.41516 0.47388 0.0
C187 C 0.86694 0.36707 0.43597 0.0
C188 C 0.82853 0.32399 0.4482 0.0
C189 C 0.81897 0.33186 0.47099 0.0
C190 C 0.7844 0.28972 0.48275 0.0
C191 C 0.78046 0.29765 0.50627 0.0
C192 C 0.80613 0.34636 0.51732 0.0
C193 C 0.83624 0.38812 0.5053 0.0
C194 C 0.84266 0.38121 0.4824 0.0
H195 H 0.65268 0.74776 0.83112 0.0
C196 C 0.61289 0.72037 0.83237 0.0
H197 H 0.53837 0.70641 0.82913 0.0
H198 H 0.57053 0.92474 0.83665 0.0
H199 H 0.52771 0.89062 0.87075 0.0
H200 H 0.51504 0.80916 0.8833 0.0
H201 H 0.54453 0.76098 0.86168 0.0
C202 C 0.57824 0.73404 0.82821 0.0
C203 C 0.59189 0.78607 0.82195 0.0
C204 C 0.57581 0.8146 0.83518 0.0
C205 C 0.5841 0.86215 0.82822 0.0
C206 C 0.56585 0.88877 0.84128 0.0
C207 C 0.54118 0.86963 0.86091 0.0
C208 C 0.53399 0.82373 0.86797 0.0
C209 C 0.55099 0.79638 0.85533 0.0
H210 H 0.57136 0.88803 0.76814 0.0
C211 C 0.58951 0.9241 0.77843 0.0
H212 H 0.62965 0.96309 0.80978 0.0
H213 H 0.62251 0.7393 0.79036 0.0
H214 H 0.6739 0.77813 0.75921 0.0
H215 H 0.69893 0.86593 0.75069 0.0
H216 H 0.67159 0.91487 0.7733 0.0
C217 C 0.61155 0.92746 0.79918 0.0
C218 C 0.60942 0.88164 0.80831 0.0
C219 C 0.62921 0.85519 0.79616 0.0
C220 C 0.61825 0.80622 0.80222 0.0
C221 C 0.63306 0.7782 0.78789 0.0
C222 C 0.66195 0.79975 0.76958 0.0
C223 C 0.67589 0.84908 0.76475 0.0
C224 C 0.65962 0.87656 0.77775 0.0
H225 H 0.90232 0.65024 0.17881 0.0
C226 C 0.90303 0.62759 0.1642 0.0
H227 H 0.86312 0.57945 0.13469 0.0
H228 H 0.64358 0.48245 0.15787 0.0
H229 H 0.66102 0.41678 0.16931 0.0
H230 H 0.74862 0.43421 0.17375 0.0
H231 H 0.81919 0.517 0.16655 0.0
C232 C 0.86287 0.60321 0.14895 0.0
C233 C 0.81343 0.59849 0.15259 0.0
C234 C 0.7729 0.55031 0.15736 0.0
C235 C 0.72259 0.54028 0.15484 0.0
C236 C 0.68254 0.49161 0.15927 0.0
C237 C 0.69205 0.45379 0.16595 0.0
C238 C 0.74136 0.46356 0.16841 0.0
C239 C 0.78148 0.51117 0.16417 0.0
H240 H 0.66593 0.52505 0.10946 0.0
C241 C 0.64261 0.53635 0.11856 0.0
H242 H 0.64142 0.57969 0.14753 0.0
H243 H 0.8834 0.697 0.14549 0.0
H244 H 0.866 0.76373 0.13617 0.0
H245 H 0.77843 0.74654 0.13237 0.0
H246 H 0.70765 0.66235 0.13776 0.0
C247 C 0.66144 0.56413 0.13863 0.0
C248 C 0.71312 0.57842 0.1475 0.0
C249 C 0.75389 0.62828 0.14531 0.0
C250 C 0.80435 0.6383 0.14769 0.0
C251 C 0.8444 0.68757 0.1441 0.0
C252 C 0.83491 0.72614 0.13873 0.0
C253 C 0.78558 0.71645 0.13658 0.0
C254 C 0.74534 0.66805 0.13969 0.0
H255 H 0.28399 0.9088 0.47909 0.0
C256 C 0.31271 0.90573 0.4891 0.0
H257 H 0.33415 0.85607 0.50286 0.0
H258 H 0.12752 0.65361 0.50014 0.0
H259 H 0.14732 0.67459 0.54089 0.0
H260 H 0.21777 0.75872 0.55598 0.0
H261 H 0.26923 0.8222 0.53043 0.0
C262 C 0.30538 0.85947 0.49306 0.0
C263 C 0.25949 0.81136 0.48377 0.0
C264 C 0.22892 0.77519 0.49896 0.0
C265 C 0.18767 0.72705 0.49027 0.0
C266 C 0.1589 0.69099 0.50581 0.0
C267 C 0.16986 0.70252 0.52925 0.0
C268 C 0.20956 0.74987 0.53775 0.0
C269 C 0.23889 0.78591 0.52288 0.0
H270 H 0.18711 0.65135 0.43837 0.0
C271 C 0.14852 0.63535 0.4432 0.0
H272 H 0.09838 0.64865 0.46172 0.0
H273 H 0.31422 0.86815 0.44923 0.0
H274 H 0.28917 0.85048 0.40891 0.0
H275 H 0.20977 0.77301 0.39444 0.0
H276 H 0.15626 0.71187 0.42032 0.0
C277 C 0.13702 0.66334 0.45728 0.0
C278 C 0.17647 0.7156 0.46643 0.0
C279 C 0.20458 0.75329 0.4513 0.0
C280 C 0.24776 0.80007 0.45985 0.0
C281 C 0.27884 0.83387 0.44402 0.0
C282 C 0.26522 0.8239 0.4207 0.0
C283 C 0.22073 0.78017 0.41254 0.0
C284 C 0.19064 0.74514 0.42758 0.0
H285 H 0.48888 0.31743 0.81591 0.0
C286 C 0.52104 0.34692 0.8266 0.0
H287 H 0.59314 0.37059 0.84242 0.0
H288 H 0.5842 0.16085 0.84298 0.0
H289 H 0.5934 0.18571 0.88342 0.0
H290 H 0.58708 0.25982 0.89707 0.0
H291 H 0.57212 0.30991 0.8704 0.0
C292 C 0.56038 0.34073 0.83216 0.0
C293 C 0.56199 0.29473 0.82381 0.0
C294 C 0.56952 0.26509 0.83969 0.0
C295 C 0.57225 0.22177 0.83186 0.0
C296 C 0.58129 0.19378 0.84803 0.0
C297 C 0.58664 0.20762 0.87129 0.0
C298 C 0.58312 0.24937 0.87897 0.0
C299 C 0.57461 0.27787 0.86346 0.0
H300 H 0.63417 0.21118 0.78083 0.0
C301 C 0.60934 0.17277 0.78572 0.0
H302 H 0.54692 0.12646 0.80438 0.0
H303 H 0.55938 0.34912 0.7881 0.0
H304 H 0.54367 0.32057 0.74807 0.0
H305 H 0.53318 0.23745 0.73514 0.0
H306 H 0.5407 0.18374 0.76221 0.0
C307 C 0.57331 0.16473 0.79986 0.0
C308 C 0.56646 0.20756 0.80822 0.0
C309 C 0.55643 0.23574 0.7924 0.0
C310 C 0.55733 0.28104 0.80006 0.0
C311 C 0.55457 0.31214 0.78354 0.0
C312 C 0.54624 0.29654 0.76039 0.0
C313 C 0.5407 0.24997 0.7531 0.0
C314 C 0.54567 0.21977 0.76883 0.0
H315 H 0.58758 0.93315 0.503 0.0
C316 C 0.55449 0.92824 0.51115 0.0
H317 H 0.49963 0.88713 0.53412 0.0
H318 H 0.59283 0.7359 0.51157 0.0
H319 H 0.56447 0.73097 0.47198 0.0
H320 H 0.52779 0.78251 0.45977 0.0
H321 H 0.52076 0.84032 0.48688 0.0
C322 C 0.53195 0.89136 0.52549 0.0
C323 C 0.55304 0.85918 0.53237 0.0
C324 C 0.55429 0.82366 0.5164 0.0
C325 C 0.57221 0.79143 0.5237 0.0
C326 C 0.57674 0.75905 0.50717 0.0
C327 C 0.56106 0.75621 0.48435 0.0
C328 C 0.54064 0.78541 0.47746 0.0
C329 C 0.53715 0.81875 0.49321 0.0
H330 H 0.52566 0.69035 0.54244 0.0
C331 C 0.56102 0.70311 0.55251 0.0
H332 H 0.63041 0.7648 0.56601 0.0
H333 H 0.56138 0.92733 0.56671 0.0
H334 H 0.58869 0.93125 0.60633 0.0
H335 H 0.61285 0.87045 0.6196 0.0
H336 H 0.61134 0.80638 0.59326 0.0
C337 C 0.59563 0.75278 0.55564 0.0
C338 C 0.58516 0.79208 0.54719 0.0
C339 C 0.58548 0.82874 0.563 0.0
C340 C 0.56997 0.86272 0.55551 0.0
C341 C 0.57167 0.89976 0.57155 0.0
C342 C 0.58731 0.90251 0.59436 0.0
C343 C 0.60111 0.86841 0.60181 0.0
C344 C 0.60016 0.83182 0.58643 0.0
H345 H 0.74191 0.55673 0.87052 0.0
C346 C 0.73463 0.56682 0.85387 0.0
H347 H 0.76159 0.58604 0.82112 0.0
H348 H 0.98295 0.65256 0.86594 0.0
H349 H -0.00355 0.73376 0.85443 0.0
H350 H 0.92568 0.7411 0.83772 0.0
H351 H 0.84094 0.66706 0.83223 0.0
C352 C 0.76789 0.5766 0.83804 0.0
C353 C 0.81217 0.57062 0.8433 0.0
C354 C 0.86123 0.61395 0.84614 0.0
C355 C 0.90177 0.60977 0.85606 0.0
C356 C 0.95058 0.65376 0.85882 0.0
C357 C 0.95888 0.70053 0.85221 0.0
C358 C 0.91903 0.70466 0.84279 0.0
C359 C 0.87063 0.66199 0.83978 0.0
H360 H 0.94103 0.5123 0.85292 0.0
C361 C 0.95335 0.53232 0.86978 0.0
H362 H 0.94784 0.58441 0.89275 0.0
H363 H 0.72577 0.47819 0.83399 0.0
H364 H 0.71094 0.39665 0.84566 0.0
H365 H 0.77842 0.39043 0.86675 0.0
H366 H 0.86099 0.4649 0.87569 0.0
C367 C 0.9334 0.56038 0.87694 0.0
C368 C 0.89282 0.56233 0.86328 0.0
C369 C 0.84411 0.51818 0.8591 0.0
C370 C 0.80429 0.52218 0.84827 0.0
C371 C 0.75662 0.47743 0.84313 0.0
C372 C 0.74771 0.43041 0.84959 0.0
C373 C 0.78575 0.42689 0.86137 0.0
C374 C 0.83334 0.4701 0.8662 0.0
H375 H 0.22244 0.77625 0.15979 0.0
C376 C 0.18828 0.77062 0.16713 0.0
H377 H 0.15628 0.80186 0.18866 0.0
H378 H 0.3555 0.92788 0.25317 0.0
H379 H 0.29267 0.87886 0.27918 0.0
H380 H 0.20521 0.81589 0.26485 0.0
H381 H 0.17997 0.8024 0.22458 0.0
C382 C 0.19034 0.80754 0.18125 0.0
C383 C 0.24024 0.85164 0.19012 0.0
C384 C 0.25423 0.85866 0.21384 0.0
C385 C 0.30501 0.89372 0.22204 0.0
C386 C 0.31785 0.90076 0.24587 0.0
C387 C 0.28207 0.87301 0.26106 0.0
C388 C 0.23284 0.83766 0.25299 0.0
C389 C 0.21887 0.83035 0.22972 0.0
H390 H 0.40704 0.0215 0.20428 0.0
C391 C 0.42227 0.00272 0.2144 0.0
H392 H 0.41144 0.93341 0.22537 0.0
H393 H 0.22259 0.85814 0.14489 0.0
H394 H 0.28582 0.90574 0.11848 0.0
H395 H 0.37598 0.95801 0.13185 0.0
H396 H 0.40321 0.9644 0.17166 0.0
C397 C 0.39573 0.95195 0.21537 0.0
C398 C 0.34196 0.92051 0.20649 0.0
C399 C 0.32744 0.91535 0.18289 0.0
C400 C 0.27604 0.88246 0.17489 0.0
C401 C 0.26164 0.88055 0.15156 0.0
C402 C 0.29744 0.90793 0.1363 0.0
C403 C 0.34816 0.93754 0.14385 0.0
C404 C 0.36324 0.94122 0.16683 0.0
H405 H 0.41187 0.18897 0.49254 0.0
C406 C 0.44191 0.19237 0.50422 0.0
H407 H 0.49768 0.23744 0.53071 0.0
H408 H 0.51323 0.43934 0.49696 0.0
H409 H 0.54995 0.42464 0.4637 0.0
H410 H 0.54507 0.34207 0.45567 0.0
H411 H 0.5034 0.2737 0.48069 0.0
C412 C 0.46797 0.2339 0.51877 0.0
C413 C 0.4587 0.27704 0.51952 0.0
C414 C 0.48207 0.31587 0.50433 0.0
C415 C 0.48527 0.36355 0.50902 0.0
C416 C 0.51012 0.40251 0.49411 0.0
C417 C 0.5312 0.39452 0.475 0.0
C418 C 0.52842 0.348 0.47047 0.0
C419 C 0.50439 0.30906 0.48497 0.0
H420 H 0.53388 0.42464 0.56185 0.0
C421 C 0.51863 0.44701 0.55487 0.0
H422 H 0.46478 0.44456 0.53009 0.0
H423 H 0.40341 0.2071 0.54939 0.0
H424 H 0.36313 0.22073 0.58149 0.0
H425 H 0.36847 0.30357 0.58946 0.0
H426 H 0.41429 0.37335 0.5654 0.0
C427 C 0.48242 0.42507 0.53766 0.0
C428 C 0.46574 0.37215 0.52895 0.0
C429 C 0.4374 0.33147 0.54262 0.0
C430 C 0.43411 0.28381 0.53796 0.0
C431 C 0.40717 0.2442 0.55233 0.0
C432 C 0.38379 0.25149 0.57071 0.0
C433 C 0.38681 0.29814 0.5752 0.0
C434 C 0.41332 0.33786 0.56138 0.0
H435 H 0.34029 0.44156 0.81143 0.0
C436 C 0.3653 0.47384 0.82335 0.0
H437 H 0.37136 0.52979 0.84781 0.0
H438 H 0.17964 0.53874 0.82533 0.0
H439 H 0.23983 0.612 0.80642 0.0
H440 H 0.32427 0.62548 0.79975 0.0
H441 H 0.34904 0.56575 0.81213 0.0
C442 C 0.34644 0.49672 0.83625 0.0
C443 C 0.29219 0.48085 0.83474 0.0
C444 C 0.27769 0.515 0.82668 0.0
C445 C 0.22888 0.50686 0.83027 0.0
C446 C 0.21613 0.54283 0.82294 0.0
C447 C 0.25033 0.58506 0.81202 0.0
C448 C 0.29788 0.59267 0.80828 0.0
C449 C 0.31166 0.55824 0.81553 0.0
H450 H 0.17976 0.4679 0.88548 0.0
C451 C 0.15093 0.46916 0.8747 0.0
H452 H 0.12357 0.46687 0.84085 0.0
H453 H 0.30598 0.40458 0.85021 0.0
H454 H 0.24293 0.32743 0.86575 0.0
H455 H 0.15637 0.31084 0.8695 0.0
H456 H 0.13286 0.37229 0.85807 0.0
C457 C 0.15134 0.46447 0.85189 0.0
C458 C 0.19491 0.46449 0.84189 0.0
C459 C 0.20708 0.42691 0.84718 0.0
C460 C 0.25629 0.43558 0.84412 0.0
C461 C 0.26874 0.39937 0.85141 0.0
C462 C 0.23288 0.3549 0.86045 0.0
C463 C 0.18419 0.34562 0.86263 0.0
C464 C 0.17126 0.38117 0.85615 0.0
H465 H 0.90902 0.36703 0.16589 0.0
C466 C 0.90351 0.39947 0.16531 0.0
H467 H 0.85624 0.42937 0.17143 0.0
H468 H 0.64279 0.23981 0.16922 0.0
H469 H 0.6346 0.28422 0.13772 0.0
H470 H 0.70972 0.35706 0.12379 0.0
H471 H 0.7933 0.38631 0.14146 0.0
C472 C 0.86039 0.396 0.17151 0.0
C473 C 0.81675 0.34819 0.17836 0.0
C474 C 0.76833 0.33012 0.16712 0.0
C475 C 0.72517 0.28732 0.17474 0.0
C476 C 0.67699 0.27162 0.16391 0.0
C477 C 0.67171 0.29678 0.14579 0.0
C478 C 0.71398 0.3378 0.13796 0.0
C479 C 0.76178 0.35433 0.14836 0.0
H480 H 0.70045 0.25878 0.23506 0.0
C481 C 0.67447 0.22501 0.22412 0.0
H482 H 0.65951 0.18671 0.19138 0.0
H483 H 0.90214 0.37716 0.20687 0.0
H484 H 0.91122 0.32795 0.2357 0.0
H485 H 0.83853 0.24609 0.24459 0.0
H486 H 0.75599 0.21385 0.2249 0.0
C487 C 0.685 0.22031 0.20252 0.0
C488 C 0.7307 0.26176 0.19313 0.0
C489 C 0.7795 0.27767 0.20337 0.0
C490 C 0.82222 0.32252 0.19685 0.0
C491 C 0.86918 0.34112 0.20956 0.0
C492 C 0.87479 0.31362 0.22653 0.0
C493 C 0.83385 0.26769 0.2316 0.0
C494 C 0.78662 0.24984 0.22029 0.0
H495 H 0.97873 0.54331 0.06391 0.0
C496 C 0.01714 0.56838 0.07129 0.0
H497 H 0.09359 0.61545 0.06436 0.0
H498 H 0.98425 0.45601 0.97138 0.0
H499 H 0.97939 0.39131 0.99533 0.0
H500 H 0.00635 0.41194 0.03635 0.0
H501 H 0.03746 0.49713 0.05369 0.0
C502 C 0.05502 0.58945 0.05749 0.0
C503 C 0.04478 0.57852 0.03239 0.0
C504 C 0.02867 0.52899 0.02239 0.0
C505 C 0.01525 0.51767 0.99859 0.0
C506 C -0.00331 0.46722 0.98922 0.0
C507 C -0.00657 0.4296 0.00281 0.0
C508 C 0.00843 0.44116 0.02591 0.0
C509 C 0.02591 0.49018 0.03567 0.0
H510 H 0.07058 0.53744 0.95478 0.0
C511 C 0.0383 0.53742 0.94646 0.0
H512 H 0.97544 0.54639 0.95272 0.0
H513 H 0.07602 0.6776 0.04614 0.0
H514 H 0.08405 0.74324 0.02192 0.0
H515 H 0.06329 0.72431 0.98041 0.0
H516 H 0.03412 0.63957 0.96287 0.0
C517 C 0.00812 0.5456 0.95971 0.0
C518 C 0.02015 0.55652 0.98473 0.0
C519 C 0.03729 0.60627 0.99465 0.0
C520 C 0.04968 0.61731 0.01853 0.0
C521 C 0.06637 0.66723 0.02806 0.0
C522 C 0.07114 0.70526 0.01435 0.0
C523 C 0.05942 0.69459 0.99099 0.0
C524 C 0.04269 0.64577 0.98115 0.0
H525 H 0.46082 0.05461 0.40387 0.0
C526 C 0.48858 0.04803 0.41266 0.0
H527 H 0.55208 0.0394 0.4093 0.0
H528 H 0.43658 0.00625 0.30507 0.0
H529 H 0.36628 0.93093 0.31835 0.0
H530 H 0.36897 0.90797 0.35782 0.0
H531 H 0.44151 0.9614 0.38437 0.0
C532 C 0.52269 0.04377 0.40071 0.0
C533 C 0.5251 0.0517 0.37598 0.0
C534 C 0.48413 0.01793 0.36026 0.0
C535 C 0.48429 0.02906 0.33709 0.0
C536 C 0.44033 0.99776 0.32241 0.0
C537 C 0.39928 0.95464 0.3299 0.0
C538 C 0.40068 0.94188 0.35214 0.0
C539 C 0.44244 0.97307 0.36724 0.0
H540 H 0.51716 0.01092 0.2923 0.0
C541 C 0.52456 0.04838 0.28822 0.0
H542 H 0.53546 0.11932 0.30062 0.0
H543 H 0.60873 0.12556 0.40191 0.0
H544 H 0.68006 0.19983 0.38833 0.0
H545 H 0.68438 0.21432 0.34747 0.0
H546 H 0.61609 0.15611 0.32 0.0
C547 C 0.52942 0.0824 0.30486 0.0
C548 C 0.52751 0.07152 0.32928 0.0
C549 C 0.56895 0.10462 0.34493 0.0
C550 C 0.56742 0.09512 0.36837 0.0
C551 C 0.60824 0.13025 0.38382 0.0
C552 C 0.6496 0.17298 0.37627 0.0
C553 C 0.65188 0.18133 0.35327 0.0
C554 C 0.61225 0.14763 0.33769 0.0
H555 H 0.5314 0.50874 0.73792 0.0
C556 C 0.56586 0.53492 0.74832 0.0
H557 H 0.64127 0.59556 0.74831 0.0
H558 H 0.54708 0.47799 0.64296 0.0
H559 H 0.542 0.40365 0.65847 0.0
H560 H 0.5692 0.40613 0.69875 0.0
H561 H 0.59979 0.48275 0.72389 0.0
C562 C 0.60688 0.56832 0.73817 0.0
C563 C 0.60454 0.57138 0.713 0.0
C564 C 0.59117 0.52789 0.6981 0.0
C565 C 0.57965 0.5279 0.67448 0.0
C566 C 0.56017 0.48171 0.66063 0.0
C567 C 0.5564 0.43836 0.6694 0.0
C568 C 0.57141 0.43966 0.69209 0.0
C569 C 0.5885 0.48374 0.70637 0.0
H570 H 0.62464 0.55265 0.62872 0.0
C571 C 0.59673 0.56333 0.6243 0.0
H572 H 0.54496 0.58316 0.63638 0.0
H573 H 0.63263 0.66252 0.73663 0.0
H574 H 0.64498 0.73947 0.72053 0.0
H575 H 0.63254 0.7419 0.67913 0.0
H576 H 0.60674 0.66712 0.65348 0.0
C577 C 0.57397 0.57397 0.64082 0.0
C578 C 0.58654 0.57325 0.66543 0.0
C579 C 0.60336 0.61781 0.68013 0.0
C580 C 0.6118 0.61675 0.70398 0.0
C581 C 0.62645 0.66127 0.71834 0.0
C582 C 0.63369 0.70577 0.70935 0.0
C583 C 0.62659 0.70713 0.68602 0.0
C584 C 0.61162 0.66383 0.6715 0.0
H585 H 0.47808 0.04471 0.59671 0.0
C586 C 0.51022 0.07181 0.58795 0.0
H587 H 0.58691 0.12987 0.59118 0.0
H588 H 0.60147 0.19738 0.69489 0.0
H589 H 0.62017 0.27422 0.67687 0.0
H590 H 0.61076 0.27361 0.63504 0.0
H591 H 0.58322 0.19629 0.61098 0.0
C592 C 0.55448 0.10309 0.59987 0.0
C593 C 0.56031 0.10301 0.62512 0.0
C594 C 0.57565 0.14842 0.63897 0.0
C595 C 0.57983 0.14846 0.66311 0.0
C596 C 0.59659 0.19476 0.67649 0.0
C597 C 0.60762 0.23928 0.66636 0.0
C598 C 0.6024 0.23896 0.64282 0.0
C599 C 0.58663 0.19423 0.6292 0.0
H600 H 0.62214 0.07598 0.70024 0.0
C601 C 0.602 0.09047 0.70984 0.0
H602 H 0.55039 0.11675 0.70828 0.0
H603 H 0.54052 0.01187 0.60388 0.0
H604 H 0.51446 0.93321 0.62177 0.0
H605 H 0.50911 0.93026 0.66338 0.0
H606 H 0.531 0.00621 0.68734 0.0
C607 C 0.57158 0.10348 0.69872 0.0
C608 C 0.56744 0.10278 0.67341 0.0
C609 C 0.55085 0.05702 0.65957 0.0
C610 C 0.5498 0.05774 0.63543 0.0
C611 C 0.53835 0.01276 0.62215 0.0
C612 C 0.524 0.96742 0.63223 0.0
C613 C 0.5212 0.9658 0.65566 0.0
C614 C 0.53442 0.00991 0.66925 0.0
H615 H 0.51192 0.55713 0.92755 0.0
C616 C 0.52475 0.53196 0.92108 0.0
H617 H 0.54415 0.47685 0.92921 0.0
H618 H 0.57819 0.59921 0.03027 0.0
H619 H 0.6476 0.67155 0.01447 0.0
H620 H 0.66274 0.66827 0.97379 0.0
H621 H 0.60824 0.59305 0.94864 0.0
C622 C 0.533 0.50353 0.93547 0.0
C623 C 0.52488 0.50563 0.96012 0.0
C624 C 0.55804 0.5496 0.97466 0.0
C625 C 0.55049 0.55082 0.99828 0.0
C626 C 0.5831 0.59572 0.01233 0.0
C627 C 0.62296 0.63761 0.00346 0.0
C628 C 0.63139 0.63582 0.98055 0.0
C629 C 0.59954 0.59243 0.96625 0.0
H630 H 0.56928 0.49817 0.03804 0.0
C631 C 0.53989 0.50187 0.04603 0.0
H632 H 0.4769 0.51157 0.03925 0.0
H633 H 0.45375 0.4161 0.93686 0.0
H634 H 0.3853 0.34332 0.95294 0.0
H635 H 0.37359 0.34489 0.9941 0.0
H636 H 0.43021 0.4194 0.01944 0.0
C637 C 0.50657 0.50674 0.03246 0.0
C638 C 0.511 0.50747 0.00743 0.0
C639 C 0.47747 0.46388 0.99288 0.0
C640 C 0.48447 0.46289 0.96919 0.0
C641 C 0.45044 0.41876 0.95502 0.0
C642 C 0.41094 0.37675 0.96402 0.0
C643 C 0.40433 0.37764 0.9872 0.0
C644 C 0.4371 0.42059 0.00155 0.0
H645 H 0.05076 0.60971 0.25659 0.0
C646 C 0.05699 0.58247 0.24685 0.0
H647 H 0.06685 0.51894 0.24814 0.0
H648 H 0.10506 0.6263 0.35512 0.0
H649 H 0.17468 0.70185 0.34155 0.0
H650 H 0.19357 0.70455 0.30116 0.0
H651 H 0.14175 0.63226 0.27404 0.0
C652 C 0.06236 0.5475 0.25774 0.0
C653 C 0.05668 0.54321 0.28269 0.0
C654 C 0.08983 0.58438 0.2986 0.0
C655 C 0.08145 0.5813 0.32218 0.0
C656 C 0.11182 0.62505 0.33731 0.0
C657 C 0.15162 0.669 0.32969 0.0
C658 C 0.16207 0.67062 0.30694 0.0
C659 C 0.13169 0.62895 0.29151 0.0
H660 H 0.11033 0.54487 0.36291 0.0
C661 C 0.0743 0.53552 0.36943 0.0
H662 H 0.00092 0.52212 0.36138 0.0
H663 H 0.98468 0.45803 0.25678 0.0
H664 H 0.91725 0.38121 0.27071 0.0
H665 H 0.90749 0.3731 0.31188 0.0
H666 H 0.96439 0.44232 0.33944 0.0
C667 C 0.03662 0.52997 0.35499 0.0
C668 C 0.04283 0.53525 0.33011 0.0
C669 C 0.01013 0.49389 0.31425 0.0
C670 C 0.01667 0.49807 0.29051 0.0
C671 C 0.98225 0.45671 0.27502 0.0
C672 C 0.94327 0.41232 0.28277 0.0
C673 C 0.93768 0.40781 0.30596 0.0
C674 C 0.97061 0.44793 0.3216 0.0
loop_
_geom_bond_atom_site_label_1
_geom_bond_atom_site_label_2
_geom_bond_distance
_geom_bond_site_symmetry_2
_ccdc_geom_bond_type
O0 Zn1 1.953 . S
O0 C16 1.225 . S
Zn1 O0 1.953 . S
Zn1 O2 1.949 . S
Zn1 O8 1.919 1_455 S
Zn1 O13 1.924 . S
O2 Zn1 1.949 . S
O2 Zn3 1.923 1_455 S
O2 Zn4 1.950 . S
O2 Zn5 1.945 . S
Zn3 O2 1.923 1_655 S
Zn3 O6 1.928 1_655 S
Zn3 O9 1.941 . S
Zn3 O10 1.965 . S
Zn4 O2 1.950 . S
Zn4 O11 1.938 1_455 S
Zn4 O12 1.906 . S
Zn4 O22 1.953 . S
Zn5 O2 1.945 . S
Zn5 O7 1.932 . S
Zn5 O14 1.977 . S
Zn5 O15 1.910 . S
O6 Zn3 1.928 1_455 S
O6 C17 1.243 . S
O7 Zn5 1.932 . S
O7 C17 1.307 . S
O8 Zn1 1.919 1_655 S
O8 C19 1.253 . S
O9 Zn3 1.941 . S
O9 C19 1.283 . S
O10 Zn3 1.965 . S
O10 C18 1.303 . S
O11 Zn4 1.938 1_655 S
O11 C18 1.247 . S
O12 Zn4 1.906 . S
O12 C20 1.304 . S
O13 Zn1 1.924 . S
O13 C21 1.311 . S
O14 Zn5 1.977 . S
O14 C20 1.272 . S
O15 Zn5 1.910 . S
O15 C21 1.231 . S
C16 O0 1.225 . S
C16 O22 1.298 . S
C17 O6 1.243 . S
C17 O7 1.307 . S
C18 O10 1.303 . S
C18 O11 1.247 . S
C19 O8 1.253 . S
C19 O9 1.283 . S
C20 O12 1.304 . S
C20 O14 1.272 . S
C21 O13 1.311 . S
C21 O15 1.231 . S
O22 Zn4 1.953 . S
O22 C16 1.298 . S
O23 Zn24 1.953 . S
O23 C39 1.225 . S
Zn24 O23 1.953 . S
Zn24 O25 1.949 . S
Zn24 O31 1.919 . S
Zn24 O36 1.924 . S
O25 Zn24 1.949 . S
O25 Zn26 1.923 . S
O25 Zn27 1.950 . S
O25 Zn28 1.945 1_545 S
Zn26 O25 1.923 . S
Zn26 O29 1.933 . S
Zn26 O32 1.941 . S
Zn26 O33 1.965 . S
Zn27 O25 1.950 . S
Zn27 O34 1.938 . S
Zn27 O35 1.906 1_545 S
Zn27 O45 1.953 . S
Zn28 O25 1.945 1_565 S
Zn28 O30 1.932 1_565 S
Zn28 O37 1.977 . S
Zn28 O38 1.910 . S
O29 Zn26 1.933 . S
O29 C40 1.226 . S
O30 Zn28 1.932 1_545 S
O30 C40 1.307 . S
O31 Zn24 1.919 . S
O31 C42 1.253 . S
O32 Zn26 1.941 . S
O32 C42 1.283 . S
O33 Zn26 1.965 . S
O33 C41 1.303 . S
O34 Zn27 1.938 . S
O34 C41 1.247 . S
O35 Zn27 1.906 1_565 S
O35 C43 1.304 . S
O36 Zn24 1.924 . S
O36 C44 1.311 1_545 S
O37 Zn28 1.977 . S
O37 C43 1.272 . S
O38 Zn28 1.910 . S
O38 C44 1.231 . S
C39 O23 1.225 . S
C39 O45 1.298 . S
C40 O29 1.226 . S
C40 O30 1.307 . S
C41 O33 1.303 . S
C41 O34 1.247 . S
C42 O31 1.253 . S
C42 O32 1.283 . S
C43 O35 1.304 . S
C43 O37 1.272 . S
C44 O36 1.311 1_565 S
C44 O38 1.231 . S
O45 Zn27 1.953 . S
O45 C39 1.298 . S
O46 Zn47 1.953 . S
O46 C62 1.225 . S
Zn47 O46 1.953 . S
Zn47 O48 1.949 . S
Zn47 O54 1.919 . S
Zn47 O59 1.924 . S
O48 Zn47 1.949 . S
O48 Zn49 1.923 . S
O48 Zn50 1.950 . S
O48 Zn51 1.945 . S
Zn49 O48 1.923 . S
Zn49 O52 1.933 . S
Zn49 O55 1.941 . S
Zn49 O56 1.965 . S
Zn50 O48 1.950 . S
Zn50 O57 1.938 . S
Zn50 O58 1.906 . S
Zn50 O68 1.953 . S
Zn51 O48 1.945 . S
Zn51 O53 1.932 . S
Zn51 O60 1.977 . S
Zn51 O61 1.910 . S
O52 Zn49 1.933 . S
O52 C63 1.226 . S
O53 Zn51 1.932 . S
O53 C63 1.307 . S
O54 Zn47 1.919 . S
O54 C65 1.253 . S
O55 Zn49 1.941 . S
O55 C65 1.283 . S
O56 Zn49 1.965 . S
O56 C64 1.303 . S
O57 Zn50 1.938 . S
O57 C64 1.247 . S
O58 Zn50 1.906 . S
O58 C66 1.304 . S
O59 Zn47 1.924 . S
O59 C67 1.311 . S
O60 Zn51 1.977 . S
O60 C66 1.272 . S
O61 Zn51 1.910 . S
O61 C67 1.231 . S
C62 O46 1.225 . S
C62 O68 1.298 . S
C63 O52 1.226 . S
C63 O53 1.307 . S
C64 O56 1.303 . S
C64 O57 1.247 . S
C65 O54 1.253 . S
C65 O55 1.283 . S
C66 O58 1.304 . S
C66 O60 1.272 . S
C67 O59 1.311 . S
C67 O61 1.231 . S
O68 Zn50 1.953 . S
O68 C62 1.298 . S
H69 C74 0.929 . S
H70 C79 0.931 1_565 S
H71 C77 0.930 . S
N72 N73 1.234 . S
N72 C76 1.453 . S
N73 N72 1.234 . S
C74 H69 0.929 . S
C74 C75 1.373 . S
C74 C76 1.368 . S
C75 C74 1.373 . S
C75 C79 1.397 . S
C76 N72 1.453 . S
C76 C74 1.368 . S
C76 C77 1.373 . S
C77 H71 0.930 . S
C77 C76 1.373 . S
C77 C78 1.371 . S
C78 C77 1.371 . S
C78 C79 1.383 . S
C79 H70 0.931 1_545 S
C79 C75 1.397 . S
C79 C78 1.383 . S
H80 C85 0.929 . S
H81 C90 0.931 . S
H82 C88 0.930 . S
N83 N84 1.234 . S
N83 C87 1.453 . S
N84 N83 1.234 . S
C85 H80 0.929 . S
C85 C86 1.373 . S
C85 C87 1.368 . S
C86 C85 1.373 . S
C86 C90 1.397 . S
C87 N83 1.453 . S
C87 C85 1.368 . S
C87 C88 1.373 . S
C88 H82 0.930 . S
C88 C87 1.373 . S
C88 C89 1.371 . S
C89 C88 1.371 . S
C89 C90 1.383 . S
C90 H81 0.931 . S
C90 C86 1.397 . S
C90 C89 1.383 . S
H91 C96 0.929 . S
H92 C101 0.931 1_655 S
H93 C99 0.930 . S
N94 N95 1.234 . S
N94 C98 1.453 . S
N95 N94 1.234 . S
C96 H91 0.929 . S
C96 C97 1.373 . S
C96 C98 1.368 . S
C97 C96 1.373 . S
C97 C101 1.397 . S
C98 N94 1.453 . S
C98 C96 1.368 . S
C98 C99 1.373 . S
C99 H93 0.930 . S
C99 C98 1.373 . S
C99 C100 1.371 . S
C100 C99 1.371 . S
C100 C101 1.383 . S
C101 H92 0.931 1_455 S
C101 C97 1.397 . S
C101 C100 1.383 . S
H102 C107 0.929 . S
H103 C112 0.931 . S
H104 C110 0.930 1_655 S
N105 N106 1.234 . S
N105 C109 1.453 1_655 S
N106 N105 1.234 . S
C107 H102 0.929 . S
C107 C108 1.373 . S
C107 C109 1.368 . S
C108 C107 1.373 . S
C108 C112 1.397 . S
C109 N105 1.453 1_455 S
C109 C107 1.368 . S
C109 C110 1.373 . S
C110 H104 0.930 1_455 S
C110 C109 1.373 . S
C110 C111 1.371 . S
C111 C110 1.371 . S
C111 C112 1.383 . S
C112 H103 0.931 . S
C112 C108 1.397 . S
C112 C111 1.383 . S
H113 C118 0.929 . S
H114 C123 0.931 . S
H115 C121 0.930 1_565 S
N116 N117 1.234 . S
N116 C120 1.453 1_565 S
N117 N116 1.234 . S
C118 H113 0.929 . S
C118 C119 1.373 . S
C118 C120 1.368 . S
C119 C118 1.373 . S
C119 C123 1.397 . S
C120 N116 1.453 1_545 S
C120 C118 1.368 . S
C120 C121 1.373 . S
C121 H115 0.930 1_545 S
C121 C120 1.373 . S
C121 C122 1.371 . S
C122 C121 1.371 . S
C122 C123 1.383 . S
C123 H114 0.931 . S
C123 C119 1.397 . S
C123 C122 1.383 . S
H124 C129 0.929 . S
H125 C134 0.931 . S
H126 C132 0.930 . S
N127 N128 1.234 . S
N127 C131 1.453 . S
N128 N127 1.234 . S
C129 H124 0.929 . S
C129 C130 1.373 . S
C129 C131 1.368 . S
C130 C129 1.373 . S
C130 C134 1.397 . S
C131 N127 1.453 . S
C131 C129 1.368 . S
C131 C132 1.373 . S
C132 H126 0.930 . S
C132 C131 1.373 . S
C132 C133 1.371 . S
C133 C132 1.371 . S
C133 C134 1.383 . S
C134 H125 0.931 . S
C134 C130 1.397 . S
C134 C133 1.383 . S
H135 C136 0.951 . S
C136 H135 0.951 . S
C136 C142 1.265 . S
H137 C142 0.950 . S
H138 C146 0.949 . S
H139 C147 0.950 . S
H140 C148 0.951 . S
H141 C149 0.951 . S
C142 C136 1.265 . S
C142 H137 0.950 . S
C142 C143 1.478 . S
C143 C142 1.478 . S
C143 C144 1.397 . S
C143 C160 1.394 . S
C144 C143 1.397 . S
C144 C145 1.438 . S
C144 C149 1.429 . S
C145 C144 1.438 . S
C145 C146 1.428 . S
C145 C158 1.394 . S
C146 H138 0.949 . S
C146 C145 1.428 . S
C146 C147 1.345 . S
C147 H139 0.950 . S
C147 C146 1.345 . S
C147 C148 1.424 . S
C148 H140 0.951 . S
C148 C147 1.424 . S
C148 C149 1.347 . S
C149 H141 0.951 . S
C149 C144 1.429 . S
C149 C148 1.347 . S
H150 C151 0.951 . S
C151 H150 0.951 . S
C151 C157 1.265 . S
H152 C157 0.950 . S
H153 C161 0.949 . S
H154 C162 0.950 . S
H155 C163 0.951 . S
H156 C164 0.951 . S
C157 C151 1.265 . S
C157 H152 0.950 . S
C157 C158 1.478 . S
C158 C145 1.394 . S
C158 C157 1.478 . S
C158 C159 1.397 . S
C159 C158 1.397 . S
C159 C160 1.438 . S
C159 C164 1.429 . S
C160 C143 1.394 . S
C160 C159 1.438 . S
C160 C161 1.428 . S
C161 H153 0.949 . S
C161 C160 1.428 . S
C161 C162 1.345 . S
C162 H154 0.950 . S
C162 C161 1.345 . S
C162 C163 1.424 . S
C163 H155 0.951 . S
C163 C162 1.424 . S
C163 C164 1.347 . S
C164 H156 0.951 . S
C164 C159 1.429 . S
C164 C163 1.347 . S
H165 C166 0.951 . S
C166 H165 0.951 . S
C166 C172 1.265 . S
H167 C172 0.950 . S
H168 C176 0.949 . S
H169 C177 0.950 . S
H170 C178 0.951 . S
H171 C179 0.951 . S
C172 C166 1.265 . S
C172 H167 0.950 . S
C172 C173 1.478 . S
C173 C172 1.478 . S
C173 C174 1.397 . S
C173 C190 1.394 . S
C174 C173 1.397 . S
C174 C175 1.438 . S
C174 C179 1.429 . S
C175 C174 1.438 . S
C175 C176 1.428 . S
C175 C188 1.394 . S
C176 H168 0.949 . S
C176 C175 1.428 . S
C176 C177 1.345 . S
C177 H169 0.950 . S
C177 C176 1.345 . S
C177 C178 1.424 . S
C178 H170 0.951 . S
C178 C177 1.424 . S
C178 C179 1.347 . S
C179 H171 0.951 . S
C179 C174 1.429 . S
C179 C178 1.347 . S
H180 C181 0.951 . S
C181 H180 0.951 . S
C181 C187 1.265 . S
H182 C187 0.950 . S
H183 C191 0.949 . S
H184 C192 0.950 . S
H185 C193 0.951 . S
H186 C194 0.951 . S
C187 C181 1.265 . S
C187 H182 0.950 . S
C187 C188 1.478 . S
C188 C175 1.394 . S
C188 C187 1.478 . S
C188 C189 1.397 . S
C189 C188 1.397 . S
C189 C190 1.438 . S
C189 C194 1.429 . S
C190 C173 1.394 . S
C190 C189 1.438 . S
C190 C191 1.428 . S
C191 H183 0.949 . S
C191 C190 1.428 . S
C191 C192 1.345 . S
C192 H184 0.950 . S
C192 C191 1.345 . S
C192 C193 1.424 . S
C193 H185 0.951 . S
C193 C192 1.424 . S
C193 C194 1.347 . S
C194 H186 0.951 . S
C194 C189 1.429 . S
C194 C193 1.347 . S
H195 C196 0.951 . S
C196 H195 0.951 . S
C196 C202 1.265 . S
H197 C202 0.950 . S
H198 C206 0.949 . S
H199 C207 0.950 . S
H200 C208 0.951 . S
H201 C209 0.951 . S
C202 C196 1.265 . S
C202 H197 0.950 . S
C202 C203 1.478 . S
C203 C202 1.478 . S
C203 C204 1.397 . S
C203 C220 1.394 . S
C204 C203 1.397 . S
C204 C205 1.438 . S
C204 C209 1.429 . S
C205 C204 1.438 . S
C205 C206 1.428 . S
C205 C218 1.394 . S
C206 H198 0.949 . S
C206 C205 1.428 . S
C206 C207 1.345 . S
C207 H199 0.950 . S
C207 C206 1.345 . S
C207 C208 1.424 . S
C208 H200 0.951 . S
C208 C207 1.424 . S
C208 C209 1.347 . S
C209 H201 0.951 . S
C209 C204 1.429 . S
C209 C208 1.347 . S
H210 C211 0.951 . S
C211 H210 0.951 . S
C211 C217 1.265 . S
H212 C217 0.950 . S
H213 C221 0.949 . S
H214 C222 0.950 . S
H215 C223 0.951 . S
H216 C224 0.951 . S
C217 C211 1.265 . S
C217 H212 0.950 . S
C217 C218 1.478 . S
C218 C205 1.394 . S
C218 C217 1.478 . S
C218 C219 1.397 . S
C219 C218 1.397 . S
C219 C220 1.438 . S
C219 C224 1.429 . S
C220 C203 1.394 . S
C220 C219 1.438 . S
C220 C221 1.428 . S
C221 H213 0.949 . S
C221 C220 1.428 . S
C221 C222 1.345 . S
C222 H214 0.950 . S
C222 C221 1.345 . S
C222 C223 1.424 . S
C223 H215 0.951 . S
C223 C222 1.424 . S
C223 C224 1.347 . S
C224 H216 0.951 . S
C224 C219 1.429 . S
C224 C223 1.347 . S
H225 C226 0.951 . S
C226 H225 0.951 . S
C226 C232 1.265 . S
H227 C232 0.950 . S
H228 C236 0.949 . S
H229 C237 0.950 . S
H230 C238 0.951 . S
H231 C239 0.951 . S
C232 C226 1.265 . S
C232 H227 0.950 . S
C232 C233 1.478 . S
C233 C232 1.478 . S
C233 C234 1.397 . S
C233 C250 1.394 . S
C234 C233 1.397 . S
C234 C235 1.438 . S
C234 C239 1.429 . S
C235 C234 1.438 . S
C235 C236 1.428 . S
C235 C248 1.394 . S
C236 H228 0.949 . S
C236 C235 1.428 . S
C236 C237 1.345 . S
C237 H229 0.950 . S
C237 C236 1.345 . S
C237 C238 1.424 . S
C238 H230 0.951 . S
C238 C237 1.424 . S
C238 C239 1.347 . S
C239 H231 0.951 . S
C239 C234 1.429 . S
C239 C238 1.347 . S
H240 C241 0.951 . S
C241 H240 0.951 . S
C241 C247 1.265 . S
H242 C247 0.950 . S
H243 C251 0.949 . S
H244 C252 0.950 . S
H245 C253 0.951 . S
H246 C254 0.951 . S
C247 C241 1.265 . S
C247 H242 0.950 . S
C247 C248 1.478 . S
C248 C235 1.394 . S
C248 C247 1.478 . S
C248 C249 1.397 . S
C249 C248 1.397 . S
C249 C250 1.438 . S
C249 C254 1.429 . S
C250 C233 1.394 . S
C250 C249 1.438 . S
C250 C251 1.428 . S
C251 H243 0.949 . S
C251 C250 1.428 . S
C251 C252 1.345 . S
C252 H244 0.950 . S
C252 C251 1.345 . S
C252 C253 1.424 . S
C253 H245 0.951 . S
C253 C252 1.424 . S
C253 C254 1.347 . S
C254 H246 0.951 . S
C254 C249 1.429 . S
C254 C253 1.347 . S
H255 C256 0.951 . S
C256 H255 0.951 . S
C256 C262 1.265 . S
H257 C262 0.950 . S
H258 C266 0.949 . S
H259 C267 0.950 . S
H260 C268 0.951 . S
H261 C269 0.951 . S
C262 C256 1.265 . S
C262 H257 0.950 . S
C262 C263 1.478 . S
C263 C262 1.478 . S
C263 C264 1.397 . S
C263 C280 1.394 . S
C264 C263 1.397 . S
C264 C265 1.438 . S
C264 C269 1.429 . S
C265 C264 1.438 . S
C265 C266 1.428 . S
C265 C278 1.394 . S
C266 H258 0.949 . S
C266 C265 1.428 . S
C266 C267 1.345 . S
C267 H259 0.950 . S
C267 C266 1.345 . S
C267 C268 1.424 . S
C268 H260 0.951 . S
C268 C267 1.424 . S
C268 C269 1.347 . S
C269 H261 0.951 . S
C269 C264 1.429 . S
C269 C268 1.347 . S
H270 C271 0.951 . S
C271 H270 0.951 . S
C271 C277 1.265 . S
H272 C277 0.950 . S
H273 C281 0.949 . S
H274 C282 0.950 . S
H275 C283 0.951 . S
H276 C284 0.951 . S
C277 C271 1.265 . S
C277 H272 0.950 . S
C277 C278 1.478 . S
C278 C265 1.394 . S
C278 C277 1.478 . S
C278 C279 1.397 . S
C279 C278 1.397 . S
C279 C280 1.438 . S
C279 C284 1.429 . S
C280 C263 1.394 . S
C280 C279 1.438 . S
C280 C281 1.428 . S
C281 H273 0.949 . S
C281 C280 1.428 . S
C281 C282 1.345 . S
C282 H274 0.950 . S
C282 C281 1.345 . S
C282 C283 1.424 . S
C283 H275 0.951 . S
C283 C282 1.424 . S
C283 C284 1.347 . S
C284 H276 0.951 . S
C284 C279 1.429 . S
C284 C283 1.347 . S
H285 C286 0.951 . S
C286 H285 0.951 . S
C286 C292 1.265 . S
H287 C292 0.950 . S
H288 C296 0.949 . S
H289 C297 0.950 . S
H290 C298 0.951 . S
H291 C299 0.951 . S
C292 C286 1.265 . S
C292 H287 0.950 . S
C292 C293 1.478 . S
C293 C292 1.478 . S
C293 C294 1.397 . S
C293 C310 1.394 . S
C294 C293 1.397 . S
C294 C295 1.438 . S
C294 C299 1.429 . S
C295 C294 1.438 . S
C295 C296 1.428 . S
C295 C308 1.394 . S
C296 H288 0.949 . S
C296 C295 1.428 . S
C296 C297 1.345 . S
C297 H289 0.950 . S
C297 C296 1.345 . S
C297 C298 1.424 . S
C298 H290 0.951 . S
C298 C297 1.424 . S
C298 C299 1.347 . S
C299 H291 0.951 . S
C299 C294 1.429 . S
C299 C298 1.347 . S
H300 C301 0.951 . S
C301 H300 0.951 . S
C301 C307 1.265 . S
H302 C307 0.950 . S
H303 C311 0.949 . S
H304 C312 0.950 . S
H305 C313 0.951 . S
H306 C314 0.951 . S
C307 C301 1.265 . S
C307 H302 0.950 . S
C307 C308 1.478 . S
C308 C295 1.394 . S
C308 C307 1.478 . S
C308 C309 1.397 . S
C309 C308 1.397 . S
C309 C310 1.438 . S
C309 C314 1.429 . S
C310 C293 1.394 . S
C310 C309 1.438 . S
C310 C311 1.428 . S
C311 H303 0.949 . S
C311 C310 1.428 . S
C311 C312 1.345 . S
C312 H304 0.950 . S
C312 C311 1.345 . S
C312 C313 1.424 . S
C313 H305 0.951 . S
C313 C312 1.424 . S
C313 C314 1.347 . S
C314 H306 0.951 . S
C314 C309 1.429 . S
C314 C313 1.347 . S
H315 C316 0.951 . S
C316 H315 0.951 . S
C316 C322 1.265 . S
H317 C322 0.950 . S
H318 C326 0.949 . S
H319 C327 0.950 . S
H320 C328 0.951 . S
H321 C329 0.951 . S
C322 C316 1.265 . S
C322 H317 0.950 . S
C322 C323 1.478 . S
C323 C322 1.478 . S
C323 C324 1.397 . S
C323 C340 1.394 . S
C324 C323 1.397 . S
C324 C325 1.438 . S
C324 C329 1.429 . S
C325 C324 1.438 . S
C325 C326 1.428 . S
C325 C338 1.394 . S
C326 H318 0.949 . S
C326 C325 1.428 . S
C326 C327 1.345 . S
C327 H319 0.950 . S
C327 C326 1.345 . S
C327 C328 1.424 . S
C328 H320 0.951 . S
C328 C327 1.424 . S
C328 C329 1.347 . S
C329 H321 0.951 . S
C329 C324 1.429 . S
C329 C328 1.347 . S
H330 C331 0.951 . S
C331 H330 0.951 . S
C331 C337 1.265 . S
H332 C337 0.950 . S
H333 C341 0.949 . S
H334 C342 0.950 . S
H335 C343 0.951 . S
H336 C344 0.951 . S
C337 C331 1.265 . S
C337 H332 0.950 . S
C337 C338 1.478 . S
C338 C325 1.394 . S
C338 C337 1.478 . S
C338 C339 1.397 . S
C339 C338 1.397 . S
C339 C340 1.438 . S
C339 C344 1.429 . S
C340 C323 1.394 . S
C340 C339 1.438 . S
C340 C341 1.428 . S
C341 H333 0.949 . S
C341 C340 1.428 . S
C341 C342 1.345 . S
C342 H334 0.950 . S
C342 C341 1.345 . S
C342 C343 1.424 . S
C343 H335 0.951 . S
C343 C342 1.424 . S
C343 C344 1.347 . S
C344 H336 0.951 . S
C344 C339 1.429 . S
C344 C343 1.347 . S
H345 C346 0.951 . S
C346 H345 0.951 . S
C346 C352 1.265 . S
H347 C352 0.950 . S
H348 C356 0.949 . S
H349 C357 0.950 1_455 S
H350 C358 0.951 . S
H351 C359 0.951 . S
C352 C346 1.265 . S
C352 H347 0.950 . S
C352 C353 1.478 . S
C353 C352 1.478 . S
C353 C354 1.397 . S
C353 C370 1.394 . S
C354 C353 1.397 . S
C354 C355 1.438 . S
C354 C359 1.429 . S
C355 C354 1.438 . S
C355 C356 1.428 . S
C355 C368 1.394 . S
C356 H348 0.949 . S
C356 C355 1.428 . S
C356 C357 1.345 . S
C357 H349 0.950 1_655 S
C357 C356 1.345 . S
C357 C358 1.424 . S
C358 H350 0.951 . S
C358 C357 1.424 . S
C358 C359 1.347 . S
C359 H351 0.951 . S
C359 C354 1.429 . S
C359 C358 1.347 . S
H360 C361 0.951 . S
C361 H360 0.951 . S
C361 C367 1.265 . S
H362 C367 0.950 . S
H363 C371 0.949 . S
H364 C372 0.950 . S
H365 C373 0.951 . S
H366 C374 0.951 . S
C367 C361 1.265 . S
C367 H362 0.950 . S
C367 C368 1.478 . S
C368 C355 1.394 . S
C368 C367 1.478 . S
C368 C369 1.397 . S
C369 C368 1.397 . S
C369 C370 1.438 . S
C369 C374 1.429 . S
C370 C353 1.394 . S
C370 C369 1.438 . S
C370 C371 1.428 . S
C371 H363 0.949 . S
C371 C370 1.428 . S
C371 C372 1.345 . S
C372 H364 0.950 . S
C372 C371 1.345 . S
C372 C373 1.424 . S
C373 H365 0.951 . S
C373 C372 1.424 . S
C373 C374 1.347 . S
C374 H366 0.951 . S
C374 C369 1.429 . S
C374 C373 1.347 . S
H375 C376 0.951 . S
C376 H375 0.951 . S
C376 C382 1.265 . S
H377 C382 0.950 . S
H378 C386 0.949 . S
H379 C387 0.950 . S
H380 C388 0.951 . S
H381 C389 0.951 . S
C382 C376 1.265 . S
C382 H377 0.950 . S
C382 C383 1.478 . S
C383 C382 1.478 . S
C383 C384 1.397 . S
C383 C400 1.394 . S
C384 C383 1.397 . S
C384 C385 1.438 . S
C384 C389 1.429 . S
C385 C384 1.438 . S
C385 C386 1.428 . S
C385 C398 1.394 . S
C386 H378 0.949 . S
C386 C385 1.428 . S
C386 C387 1.345 . S
C387 H379 0.950 . S
C387 C386 1.345 . S
C387 C388 1.424 . S
C388 H380 0.951 . S
C388 C387 1.424 . S
C388 C389 1.347 . S
C389 H381 0.951 . S
C389 C384 1.429 . S
C389 C388 1.347 . S
H390 C391 0.951 . S
C391 H390 0.951 . S
C391 C397 1.265 . S
H392 C397 0.950 . S
H393 C401 0.949 . S
H394 C402 0.950 . S
H395 C403 0.951 . S
H396 C404 0.951 . S
C397 C391 1.265 . S
C397 H392 0.950 . S
C397 C398 1.478 . S
C398 C385 1.394 . S
C398 C397 1.478 . S
C398 C399 1.397 . S
C399 C398 1.397 . S
C399 C400 1.438 . S
C399 C404 1.429 . S
C400 C383 1.394 . S
C400 C399 1.438 . S
C400 C401 1.428 . S
C401 H393 0.949 . S
C401 C400 1.428 . S
C401 C402 1.345 . S
C402 H394 0.950 . S
C402 C401 1.345 . S
C402 C403 1.424 . S
C403 H395 0.951 . S
C403 C402 1.424 . S
C403 C404 1.347 . S
C404 H396 0.951 . S
C404 C399 1.429 . S
C404 C403 1.347 . S
H405 C406 0.951 . S
C406 H405 0.951 . S
C406 C412 1.265 . S
H407 C412 0.950 . S
H408 C416 0.949 . S
H409 C417 0.950 . S
H410 C418 0.951 . S
H411 C419 0.951 . S
C412 C406 1.265 . S
C412 H407 0.950 . S
C412 C413 1.478 . S
C413 C412 1.478 . S
C413 C414 1.397 . S
C413 C430 1.394 . S
C414 C413 1.397 . S
C414 C415 1.438 . S
C414 C419 1.429 . S
C415 C414 1.438 . S
C415 C416 1.428 . S
C415 C428 1.394 . S
C416 H408 0.949 . S
C416 C415 1.428 . S
C416 C417 1.345 . S
C417 H409 0.950 . S
C417 C416 1.345 . S
C417 C418 1.424 . S
C418 H410 0.951 . S
C418 C417 1.424 . S
C418 C419 1.347 . S
C419 H411 0.951 . S
C419 C414 1.429 . S
C419 C418 1.347 . S
H420 C421 0.951 . S
C421 H420 0.951 . S
C421 C427 1.265 . S
H422 C427 0.950 . S
H423 C431 0.949 . S
H424 C432 0.950 . S
H425 C433 0.951 . S
H426 C434 0.951 . S
C427 C421 1.265 . S
C427 H422 0.950 . S
C427 C428 1.478 . S
C428 C415 1.394 . S
C428 C427 1.478 . S
C428 C429 1.397 . S
C429 C428 1.397 . S
C429 C430 1.438 . S
C429 C434 1.429 . S
C430 C413 1.394 . S
C430 C429 1.438 . S
C430 C431 1.428 . S
C431 H423 0.949 . S
C431 C430 1.428 . S
C431 C432 1.345 . S
C432 H424 0.950 . S
C432 C431 1.345 . S
C432 C433 1.424 . S
C433 H425 0.951 . S
C433 C432 1.424 . S
C433 C434 1.347 . S
C434 H426 0.951 . S
C434 C429 1.429 . S
C434 C433 1.347 . S
H435 C436 0.951 . S
C436 H435 0.951 . S
C436 C442 1.265 . S
H437 C442 0.950 . S
H438 C446 0.949 . S
H439 C447 0.950 . S
H440 C448 0.951 . S
H441 C449 0.951 . S
C442 C436 1.265 . S
C442 H437 0.950 . S
C442 C443 1.478 . S
C443 C442 1.478 . S
C443 C444 1.397 . S
C443 C460 1.394 . S
C444 C443 1.397 . S
C444 C445 1.438 . S
C444 C449 1.429 . S
C445 C444 1.438 . S
C445 C446 1.428 . S
C445 C458 1.394 . S
C446 H438 0.949 . S
C446 C445 1.428 . S
C446 C447 1.345 . S
C447 H439 0.950 . S
C447 C446 1.345 . S
C447 C448 1.424 . S
C448 H440 0.951 . S
C448 C447 1.424 . S
C448 C449 1.347 . S
C449 H441 0.951 . S
C449 C444 1.429 . S
C449 C448 1.347 . S
H450 C451 0.951 . S
C451 H450 0.951 . S
C451 C457 1.265 . S
H452 C457 0.950 . S
H453 C461 0.949 . S
H454 C462 0.950 . S
H455 C463 0.951 . S
H456 C464 0.951 . S
C457 C451 1.265 . S
C457 H452 0.950 . S
C457 C458 1.478 . S
C458 C445 1.394 . S
C458 C457 1.478 . S
C458 C459 1.397 . S
C459 C458 1.397 . S
C459 C460 1.438 . S
C459 C464 1.429 . S
C460 C443 1.394 . S
C460 C459 1.438 . S
C460 C461 1.428 . S
C461 H453 0.949 . S
C461 C460 1.428 . S
C461 C462 1.345 . S
C462 H454 0.950 . S
C462 C461 1.345 . S
C462 C463 1.424 . S
C463 H455 0.951 . S
C463 C462 1.424 . S
C463 C464 1.347 . S
C464 H456 0.951 . S
C464 C459 1.429 . S
C464 C463 1.347 . S
H465 C466 0.951 . S
C466 H465 0.951 . S
C466 C472 1.265 . S
H467 C472 0.950 . S
H468 C476 0.949 . S
H469 C477 0.950 . S
H470 C478 0.951 . S
H471 C479 0.951 . S
C472 C466 1.265 . S
C472 H467 0.950 . S
C472 C473 1.478 . S
C473 C472 1.478 . S
C473 C474 1.397 . S
C473 C490 1.394 . S
C474 C473 1.397 . S
C474 C475 1.438 . S
C474 C479 1.429 . S
C475 C474 1.438 . S
C475 C476 1.428 . S
C475 C488 1.394 . S
C476 H468 0.949 . S
C476 C475 1.428 . S
C476 C477 1.345 . S
C477 H469 0.950 . S
C477 C476 1.345 . S
C477 C478 1.424 . S
C478 H470 0.951 . S
C478 C477 1.424 . S
C478 C479 1.347 . S
C479 H471 0.951 . S
C479 C474 1.429 . S
C479 C478 1.347 . S
H480 C481 0.951 . S
C481 H480 0.951 . S
C481 C487 1.265 . S
H482 C487 0.950 . S
H483 C491 0.949 . S
H484 C492 0.950 . S
H485 C493 0.951 . S
H486 C494 0.951 . S
C487 C481 1.265 . S
C487 H482 0.950 . S
C487 C488 1.478 . S
C488 C475 1.394 . S
C488 C487 1.478 . S
C488 C489 1.397 . S
C489 C488 1.397 . S
C489 C490 1.438 . S
C489 C494 1.429 . S
C490 C473 1.394 . S
C490 C489 1.438 . S
C490 C491 1.428 . S
C491 H483 0.949 . S
C491 C490 1.428 . S
C491 C492 1.345 . S
C492 H484 0.950 . S
C492 C491 1.345 . S
C492 C493 1.424 . S
C493 H485 0.951 . S
C493 C492 1.424 . S
C493 C494 1.347 . S
C494 H486 0.951 . S
C494 C489 1.429 . S
C494 C493 1.347 . S
H495 C496 0.951 . S
C496 H495 0.951 . S
C496 C502 1.265 . S
H497 C502 0.950 . S
H498 C506 0.949 . S
H499 C507 0.950 1_556 S
H500 C508 0.951 . S
H501 C509 0.951 . S
C502 C496 1.265 . S
C502 H497 0.950 . S
C502 C503 1.478 . S
C503 C502 1.478 . S
C503 C504 1.397 . S
C503 C520 1.394 . S
C504 C503 1.397 . S
C504 C505 1.438 . S
C504 C509 1.429 . S
C505 C504 1.438 . S
C505 C506 1.428 1_554 S
C505 C518 1.394 1_554 S
C506 H498 0.949 . S
C506 C505 1.428 1_556 S
C506 C507 1.345 1_556 S
C507 H499 0.950 1_554 S
C507 C506 1.345 1_554 S
C507 C508 1.424 . S
C508 H500 0.951 . S
C508 C507 1.424 . S
C508 C509 1.347 . S
C509 H501 0.951 . S
C509 C504 1.429 . S
C509 C508 1.347 . S
H510 C511 0.951 . S
C511 H510 0.951 . S
C511 C517 1.265 . S
H512 C517 0.950 . S
H513 C521 0.949 . S
H514 C522 0.950 . S
H515 C523 0.951 1_556 S
H516 C524 0.951 . S
C517 C511 1.265 . S
C517 H512 0.950 . S
C517 C518 1.478 . S
C518 C505 1.394 1_556 S
C518 C517 1.478 . S
C518 C519 1.397 1_556 S
C519 C518 1.397 1_554 S
C519 C520 1.438 . S
C519 C524 1.429 1_554 S
C520 C503 1.394 . S
C520 C519 1.438 . S
C520 C521 1.428 . S
C521 H513 0.949 . S
C521 C520 1.428 . S
C521 C522 1.345 . S
C522 H514 0.950 . S
C522 C521 1.345 . S
C522 C523 1.424 . S
C523 H515 0.951 1_554 S
C523 C522 1.424 . S
C523 C524 1.347 1_554 S
C524 H516 0.951 . S
C524 C519 1.429 1_556 S
C524 C523 1.347 1_556 S
H525 C526 0.951 . S
C526 H525 0.951 . S
C526 C532 1.265 . S
H527 C532 0.950 1_565 S
H528 C536 0.949 1_545 S
H529 C537 0.950 . S
H530 C538 0.951 . S
H531 C539 0.951 . S
C532 C526 1.265 . S
C532 H527 0.950 1_545 S
C532 C533 1.478 . S
C533 C532 1.478 . S
C533 C534 1.397 . S
C533 C550 1.394 . S
C534 C533 1.397 . S
C534 C535 1.438 . S
C534 C539 1.429 1_545 S
C535 C534 1.438 . S
C535 C536 1.428 1_545 S
C535 C548 1.394 . S
C536 H528 0.949 1_565 S
C536 C535 1.428 1_565 S
C536 C537 1.345 . S
C537 H529 0.950 . S
C537 C536 1.345 . S
C537 C538 1.424 . S
C538 H530 0.951 . S
C538 C537 1.424 . S
C538 C539 1.347 . S
C539 H531 0.951 . S
C539 C534 1.429 1_565 S
C539 C538 1.347 . S
H540 C541 0.951 . S
C541 H540 0.951 . S
C541 C547 1.265 . S
H542 C547 0.950 . S
H543 C551 0.949 . S
H544 C552 0.950 . S
H545 C553 0.951 . S
H546 C554 0.951 . S
C547 C541 1.265 . S
C547 H542 0.950 . S
C547 C548 1.478 . S
C548 C535 1.394 . S
C548 C547 1.478 . S
C548 C549 1.397 . S
C549 C548 1.397 . S
C549 C550 1.438 . S
C549 C554 1.429 . S
C550 C533 1.394 . S
C550 C549 1.438 . S
C550 C551 1.428 . S
C551 H543 0.949 . S
C551 C550 1.428 . S
C551 C552 1.345 . S
C552 H544 0.950 . S
C552 C551 1.345 . S
C552 C553 1.424 . S
C553 H545 0.951 . S
C553 C552 1.424 . S
C553 C554 1.347 . S
C554 H546 0.951 . S
C554 C549 1.429 . S
C554 C553 1.347 . S
H555 C556 0.951 . S
C556 H555 0.951 . S
C556 C562 1.265 . S
H557 C562 0.950 . S
H558 C566 0.949 . S
H559 C567 0.950 . S
H560 C568 0.951 . S
H561 C569 0.951 . S
C562 C556 1.265 . S
C562 H557 0.950 . S
C562 C563 1.478 . S
C563 C562 1.478 . S
C563 C564 1.397 . S
C563 C580 1.394 . S
C564 C563 1.397 . S
C564 C565 1.438 . S
C564 C569 1.429 . S
C565 C564 1.438 . S
C565 C566 1.428 . S
C565 C578 1.394 . S
C566 H558 0.949 . S
C566 C565 1.428 . S
C566 C567 1.345 . S
C567 H559 0.950 . S
C567 C566 1.345 . S
C567 C568 1.424 . S
C568 H560 0.951 . S
C568 C567 1.424 . S
C568 C569 1.347 . S
C569 H561 0.951 . S
C569 C564 1.429 . S
C569 C568 1.347 . S
H570 C571 0.951 . S
C571 H570 0.951 . S
C571 C577 1.265 . S
H572 C577 0.950 . S
H573 C581 0.949 . S
H574 C582 0.950 . S
H575 C583 0.951 . S
H576 C584 0.951 . S
C577 C571 1.265 . S
C577 H572 0.950 . S
C577 C578 1.478 . S
C578 C565 1.394 . S
C578 C577 1.478 . S
C578 C579 1.397 . S
C579 C578 1.397 . S
C579 C580 1.438 . S
C579 C584 1.429 . S
C580 C563 1.394 . S
C580 C579 1.438 . S
C580 C581 1.428 . S
C581 H573 0.949 . S
C581 C580 1.428 . S
C581 C582 1.345 . S
C582 H574 0.950 . S
C582 C581 1.345 . S
C582 C583 1.424 . S
C583 H575 0.951 . S
C583 C582 1.424 . S
C583 C584 1.347 . S
C584 H576 0.951 . S
C584 C579 1.429 . S
C584 C583 1.347 . S
H585 C586 0.951 . S
C586 H585 0.951 . S
C586 C592 1.265 . S
H587 C592 0.950 . S
H588 C596 0.949 . S
H589 C597 0.950 . S
H590 C598 0.951 . S
H591 C599 0.951 . S
C592 C586 1.265 . S
C592 H587 0.950 . S
C592 C593 1.478 . S
C593 C592 1.478 . S
C593 C594 1.397 . S
C593 C610 1.394 . S
C594 C593 1.397 . S
C594 C595 1.438 . S
C594 C599 1.429 . S
C595 C594 1.438 . S
C595 C596 1.428 . S
C595 C608 1.394 . S
C596 H588 0.949 . S
C596 C595 1.428 . S
C596 C597 1.345 . S
C597 H589 0.950 . S
C597 C596 1.345 . S
C597 C598 1.424 . S
C598 H590 0.951 . S
C598 C597 1.424 . S
C598 C599 1.347 . S
C599 H591 0.951 . S
C599 C594 1.429 . S
C599 C598 1.347 . S
H600 C601 0.951 . S
C601 H600 0.951 . S
C601 C607 1.265 . S
H602 C607 0.950 . S
H603 C611 0.949 . S
H604 C612 0.950 . S
H605 C613 0.951 . S
H606 C614 0.951 . S
C607 C601 1.265 . S
C607 H602 0.950 . S
C607 C608 1.478 . S
C608 C595 1.394 . S
C608 C607 1.478 . S
C608 C609 1.397 . S
C609 C608 1.397 . S
C609 C610 1.438 . S
C609 C614 1.429 1_545 S
C610 C593 1.394 . S
C610 C609 1.438 . S
C610 C611 1.428 1_545 S
C611 H603 0.949 . S
C611 C610 1.428 1_565 S
C611 C612 1.345 . S
C612 H604 0.950 . S
C612 C611 1.345 . S
C612 C613 1.424 . S
C613 H605 0.951 . S
C613 C612 1.424 . S
C613 C614 1.347 . S
C614 H606 0.951 . S
C614 C609 1.429 1_565 S
C614 C613 1.347 . S
H615 C616 0.951 . S
C616 H615 0.951 . S
C616 C622 1.265 . S
H617 C622 0.950 . S
H618 C626 0.949 . S
H619 C627 0.950 . S
H620 C628 0.951 . S
H621 C629 0.951 . S
C622 C616 1.265 . S
C622 H617 0.950 . S
C622 C623 1.478 . S
C623 C622 1.478 . S
C623 C624 1.397 . S
C623 C640 1.394 . S
C624 C623 1.397 . S
C624 C625 1.475 . S
C624 C629 1.429 . S
C625 C624 1.475 . S
C625 C626 1.408 1_556 S
C625 C638 1.380 1_556 S
C626 H618 0.949 . S
C626 C625 1.408 1_554 S
C626 C627 1.345 . S
C627 H619 0.950 . S
C627 C626 1.345 . S
C627 C628 1.424 1_554 S
C628 H620 0.951 . S
C628 C627 1.424 1_556 S
C628 C629 1.347 . S
C629 H621 0.951 . S
C629 C624 1.429 . S
C629 C628 1.347 . S
H630 C631 0.951 . S
C631 H630 0.951 . S
C631 C637 1.265 . S
H632 C637 0.950 . S
H633 C641 0.949 . S
H634 C642 0.950 . S
H635 C643 0.951 . S
H636 C644 0.951 1_554 S
C637 C631 1.265 . S
C637 H632 0.950 . S
C637 C638 1.478 . S
C638 C625 1.380 1_554 S
C638 C637 1.478 . S
C638 C639 1.397 1_554 S
C639 C638 1.397 1_556 S
C639 C640 1.438 . S
C639 C644 1.429 . S
C640 C623 1.394 . S
C640 C639 1.438 . S
C640 C641 1.428 . S
C641 H633 0.949 . S
C641 C640 1.428 . S
C641 C642 1.345 . S
C642 H634 0.950 . S
C642 C641 1.345 . S
C642 C643 1.424 . S
C643 H635 0.951 . S
C643 C642 1.424 . S
C643 C644 1.347 . S
C644 H636 0.951 1_556 S
C644 C639 1.429 . S
C644 C643 1.347 . S
H645 C646 0.951 . S
C646 H645 0.951 . S
C646 C652 1.265 . S
H647 C652 0.950 . S
H648 C656 0.949 . S
H649 C657 0.950 . S
H650 C658 0.951 . S
H651 C659 0.951 . S
C652 C646 1.265 . S
C652 H647 0.950 . S
C652 C653 1.478 . S
C653 C652 1.478 . S
C653 C654 1.397 . S
C653 C670 1.394 . S
C654 C653 1.397 . S
C654 C655 1.438 . S
C654 C659 1.429 . S
C655 C654 1.438 . S
C655 C656 1.428 . S
C655 C668 1.394 . S
C656 H648 0.949 . S
C656 C655 1.428 . S
C656 C657 1.345 . S
C657 H649 0.950 . S
C657 C656 1.345 . S
C657 C658 1.424 . S
C658 H650 0.951 . S
C658 C657 1.424 . S
C658 C659 1.347 . S
C659 H651 0.951 . S
C659 C654 1.429 . S
C659 C658 1.347 . S
H660 C661 0.951 . S
C661 H660 0.951 . S
C661 C667 1.265 . S
H662 C667 0.950 1_655 S
H663 C671 0.949 . S
H664 C672 0.950 . S
H665 C673 0.951 . S
H666 C674 0.951 . S
C667 C661 1.265 . S
C667 H662 0.950 1_455 S
C667 C668 1.478 . S
C668 C655 1.394 . S
C668 C667 1.478 . S
C668 C669 1.397 1_455 S
C669 C668 1.397 1_655 S
C669 C670 1.438 1_655 S
C669 C674 1.429 . S
C670 C653 1.394 . S
C670 C669 1.438 1_455 S
C670 C671 1.428 1_455 S
C671 H663 0.949 . S
C671 C670 1.428 1_655 S
C671 C672 1.345 . S
C672 H664 0.950 . S
C672 C671 1.345 . S
C672 C673 1.424 . S
C673 H665 0.951 . S
C673 C672 1.424 . S
C673 C674 1.347 . S
C674 H666 0.951 . S
C674 C669 1.429 . S
C674 C673 1.347 . S
C136 C20 1.274 . S
C151 N128 1.307 . S
C166 C41 1.298 . S
C181 N106 1.278 . S
C196 C64 1.321 . S
C211 N117 1.301 . S
C226 C19 1.217 . S
C241 C130 1.283 . S
C271 C108 1.281 . S
C256 C44 1.289 . S
C301 C119 1.235 . S
C286 C67 1.245 . S
C316 C43 1.301 . S
C331 N84 1.273 . S
C346 C66 1.202 . S
C361 C97 1.236 1_655 S
C376 C21 1.222 . S
C391 C75 1.251 1_565 S
C421 C86 1.300 . S
C406 C42 1.289 . S
C451 N95 1.261 . S
C436 C65 1.269 . S
C466 C18 1.287 . S
C481 N73 1.252 . S
C511 C100 1.523 . S
C496 C17 1.520 . S
C526 C39 1.513 . S
C541 C78 1.499 . S
C556 C62 1.509 . S
C571 C89 1.502 . S
C601 C122 1.505 . S
C586 C40 1.515 . S
C631 C133 1.481 . S
C616 C63 1.500 . S
C646 C16 1.510 . S
C661 C111 1.496 . S
