# Generated by pormake.
# Topology pyr, (3,6)-cn, num edge types: 1
# Building blocks:
#     Node 0, Type 0, BuildingBlock: PAMTOO_clean_linker_0, # of connection points: 3
#     Node 1, Type 0, BuildingBlock: PAMTOO_clean_linker_0, # of connection points: 3
#     Node 2, Type 0, BuildingBlock: PAMTOO_clean_linker_0, # of connection points: 3
#     Node 3, Type 0, BuildingBlock: PAMTOO_clean_linker_0, # of connection points: 3
#     Node 4, Type 0, BuildingBlock: PAMTOO_clean_linker_0, # of connection points: 3
#     Node 5, Type 0, BuildingBlock: PAMTOO_clean_linker_0, # of connection points: 3
#     Node 6, Type 0, BuildingBlock: PAMTOO_clean_linker_0, # of connection points: 3
#     Node 7, Type 0, BuildingBlock: PAMTOO_clean_linker_0, # of connection points: 3
#     Node 8, Type 1, BuildingBlock: CIFDUS_clean_sbu_1, # of connection points: 6
#     Node 9, Type 1, BuildingBlock: CIFDUS_clean_sbu_1, # of connection points: 6
#     Node 10, Type 1, BuildingBlock: CIFDUS_clean_sbu_1, # of connection points: 6
#     Node 11, Type 1, BuildingBlock: CIFDUS_clean_sbu_1, # of connection points: 6
#     Edge 12, Type (0, 1), BuildingBlock: XIVTED_clean_linker_0, # of connection points: 2
#     Edge 13, Type (0, 1), BuildingBlock: XIVTED_clean_linker_0, # of connection points: 2
#     Edge 14, Type (0, 1), BuildingBlock: XIVTED_clean_linker_0, # of connection points: 2
#     Edge 15, Type (0, 1), BuildingBlock: XIVTED_clean_linker_0, # of connection points: 2
#     Edge 16, Type (0, 1), BuildingBlock: XIVTED_clean_linker_0, # of connection points: 2
#     Edge 17, Type (0, 1), BuildingBlock: XIVTED_clean_linker_0, # of connection points: 2
#     Edge 18, Type (0, 1), BuildingBlock: XIVTED_clean_linker_0, # of connection points: 2
#     Edge 19, Type (0, 1), BuildingBlock: XIVTED_clean_linker_0, # of connection points: 2
#     Edge 20, Type (0, 1), BuildingBlock: XIVTED_clean_linker_0, # of connection points: 2
#     Edge 21, Type (0, 1), BuildingBlock: XIVTED_clean_linker_0, # of connection points: 2
#     Edge 22, Type (0, 1), BuildingBlock: XIVTED_clean_linker_0, # of connection points: 2
#     Edge 23, Type (0, 1), BuildingBlock: XIVTED_clean_linker_0, # of connection points: 2
#     Edge 24, Type (0, 1), BuildingBlock: XIVTED_clean_linker_0, # of connection points: 2
#     Edge 25, Type (0, 1), BuildingBlock: XIVTED_clean_linker_0, # of connection points: 2
#     Edge 26, Type (0, 1), BuildingBlock: XIVTED_clean_linker_0, # of connection points: 2
#     Edge 27, Type (0, 1), BuildingBlock: XIVTED_clean_linker_0, # of connection points: 2
#     Edge 28, Type (0, 1), BuildingBlock: XIVTED_clean_linker_0, # of connection points: 2
#     Edge 29, Type (0, 1), BuildingBlock: XIVTED_clean_linker_0, # of connection points: 2
#     Edge 30, Type (0, 1), BuildingBlock: XIVTED_clean_linker_0, # of connection points: 2
#     Edge 31, Type (0, 1), BuildingBlock: XIVTED_clean_linker_0, # of connection points: 2
#     Edge 32, Type (0, 1), BuildingBlock: XIVTED_clean_linker_0, # of connection points: 2
#     Edge 33, Type (0, 1), BuildingBlock: XIVTED_clean_linker_0, # of connection points: 2
#     Edge 34, Type (0, 1), BuildingBlock: XIVTED_clean_linker_0, # of connection points: 2
#     Edge 35, Type (0, 1), BuildingBlock: XIVTED_clean_linker_0, # of connection points: 2
# Relax obj value: 0.094
# Max RMSD: 0.205
# Mean RMSD: 0.144
data_MOF--net-pry--node1-CIFDUS_clean_sbu_1--node2-PAMTOO_clean_linker_0--edge1-XIVTED_clean_linker_0
_symmetry_space_group_name_H-M    P1
_symmetry_Int_Tables_number       1
_symmetry_cell_setting            triclinic
loop_
_symmetry_equiv_pos_as_xyz
'x, y, z'
_cell_length_a     36.357034
_cell_length_b     35.915808
_cell_length_c     34.684721
_cell_angle_alpha  92.245249
_cell_angle_beta   92.474483
_cell_angle_gamma 97.663535
loop_
_atom_site_label
_atom_site_type_symbol
_atom_site_fract_x
_atom_site_fract_y
_atom_site_fract_z
_atom_type_partial_charge
H0 H 0.11762 0.20336 0.22303 0.0
H1 H 0.20271 0.13035 0.23079 0.0
H2 H 0.19059 0.19241 0.12961 0.0
H3 H 0.20512 0.11213 0.11569 0.0
C4 C 0.22272 0.10982 0.14231 0.0
O5 O 0.22758 0.144 0.16302 0.0
H6 H 0.20844 0.08761 0.15998 0.0
C7 C 0.14041 0.19116 0.21081 0.0
C8 C 0.15222 0.20195 0.17399 0.0
C9 C 0.15795 0.16485 0.23186 0.0
C10 C 0.18774 0.14963 0.21522 0.0
C11 C 0.19896 0.15916 0.17837 0.0
C12 C 0.1814 0.18529 0.15803 0.0
H13 H 0.34651 0.9414 0.69183 0.0
H14 H 0.3497 0.87792 0.58418 0.0
H15 H 0.43561 0.87587 0.67216 0.0
H16 H 0.4565 0.88275 0.5886 0.0
C17 C 0.43629 0.85824 0.57744 0.0
O18 O 0.40978 0.84902 0.60403 0.0
H19 H 0.42255 0.86626 0.55032 0.0
C20 C 0.36038 0.92343 0.67311 0.0
C21 C 0.39338 0.91068 0.68662 0.0
C22 C 0.34438 0.91193 0.63606 0.0
C23 C 0.3621 0.88791 0.61229 0.0
C24 C 0.39485 0.87495 0.62548 0.0
C25 C 0.41043 0.88645 0.66233 0.0
H26 H 0.74403 0.25533 0.87858 0.0
H27 H 0.67997 0.23715 0.77028 0.0
H28 H 0.75328 0.33963 0.79307 0.0
H29 H 0.66493 0.33323 0.77067 0.0
C30 C 0.66924 0.31786 0.74304 0.0
O31 O 0.70262 0.30337 0.74507 0.0
H32 H 0.64625 0.29412 0.73871 0.0
C33 C 0.73702 0.26429 0.85005 0.0
C34 C 0.75311 0.29984 0.83866 0.0
C35 C 0.71024 0.24132 0.82588 0.0
C36 C 0.70036 0.25416 0.78953 0.0
C37 C 0.71526 0.28986 0.77835 0.0
C38 C 0.74171 0.31237 0.80261 0.0
H39 H 0.88299 0.70078 0.44426 0.0
H40 H 0.85619 0.64266 0.33382 0.0
H41 H 0.95933 0.71382 0.3519 0.0
H42 H 0.92072 0.72003 0.27286 0.0
C43 C 0.90382 0.69179 0.27225 0.0
O44 O 0.91609 0.67145 0.30208 0.0
H45 H 0.87424 0.6958 0.27546 0.0
C46 C 0.89071 0.69418 0.41531 0.0
C47 C 0.92461 0.71152 0.40169 0.0
C48 C 0.86611 0.66854 0.39151 0.0
C49 C 0.87517 0.66113 0.35327 0.0
C50 C 0.90828 0.67826 0.33921 0.0
C51 C 0.9333 0.70233 0.36348 0.0
H52 H 0.83652 0.92188 0.8527 0.0
H53 H 0.83312 0.85126 0.95069 0.0
H54 H 0.90528 0.83296 0.86007 0.0
H55 H 0.86534 0.76486 0.89492 0.0
C56 C 0.86839 0.77538 0.92565 0.0
O57 O 0.88452 0.81256 0.92799 0.0
H58 H 0.84023 0.77344 0.9374 0.0
C59 C 0.84534 0.89832 0.86743 0.0
C60 C 0.87254 0.87859 0.85123 0.0
C61 C 0.83072 0.88898 0.90345 0.0
C62 C 0.8439 0.85941 0.92319 0.0
C63 C 0.87083 0.8396 0.90761 0.0
C64 C 0.88475 0.84895 0.87172 0.0
H65 H 0.72347 0.10072 0.37552 0.0
H66 H 0.6339 0.1682 0.3731 0.0
H67 H 0.71473 0.18222 0.46808 0.0
H68 H 0.64457 0.18818 0.49286 0.0
C69 C 0.6306 0.19933 0.46744 0.0
O70 O 0.65529 0.20563 0.43851 0.0
H71 H 0.60683 0.178 0.45698 0.0
C72 C 0.7091 0.12218 0.38869 0.0
C73 C 0.72278 0.13977 0.42442 0.0
C74 C 0.6771 0.13224 0.36971 0.0
C75 C 0.65843 0.15982 0.3873 0.0
C76 C 0.67228 0.17793 0.42254 0.0
C77 C 0.70453 0.16819 0.44072 0.0
H78 H 0.30692 0.7564 0.16764 0.0
H79 H 0.29852 0.68038 0.26123 0.0
H80 H 0.36953 0.78473 0.27586 0.0
H81 H 0.40656 0.7298 0.30018 0.0
C82 C 0.38419 0.70645 0.30538 0.0
O83 O 0.35044 0.72019 0.3051 0.0
H84 H 0.38418 0.68485 0.28142 0.0
C85 C 0.31383 0.75018 0.19716 0.0
C86 C 0.3404 0.7753 0.21964 0.0
C87 C 0.29786 0.71583 0.21186 0.0
C88 C 0.30948 0.70673 0.24924 0.0
C89 C 0.33572 0.73133 0.27162 0.0
C90 C 0.34967 0.76603 0.25757 0.0
H91 H 0.11517 0.33175 0.73563 0.0
H92 H 0.22037 0.40347 0.7512 0.0
H93 H 0.18573 0.35468 0.63992 0.0
H94 H 0.2614 0.34948 0.66117 0.0
C95 C 0.2683 0.37543 0.68014 0.0
O96 O 0.23838 0.39527 0.68045 0.0
H97 H 0.27511 0.36679 0.70981 0.0
C98 C 0.14026 0.34561 0.72401 0.0
C99 C 0.14759 0.3385 0.68478 0.0
C100 C 0.16563 0.37034 0.74833 0.0
C101 C 0.19906 0.38639 0.73309 0.0
C102 C 0.20585 0.38041 0.69431 0.0
C103 C 0.17978 0.3579 0.67008 0.0
O104 O 0.97697 0.04824 0.5389 0.0
Mn105 Mn 0.02632 0.02407 0.54815 0.0
O106 O 0.94883 0.02054 0.48389 0.0
Mn107 Mn 0.9895 1.00026 0.46703 0.0
O108 O 0.07551 0.99951 0.55718 0.0
O109 O 0.04331 0.06543 0.58838 0.0
Mn110 Mn 0.06298 0.046 0.62911 0.0
O111 O 0.99924 0.99073 0.59058 0.0
O112 O 0.10356 0.02495 0.61302 0.0
O113 O 0.05318 0.05706 0.50526 0.0
O114 O 0.02679 0.03338 0.44774 0.0
O115 O 0.06592 0.09645 0.64136 0.0
O116 O 0.02615 0.01255 0.64831 0.0
C117 C 1.00284 0.94976 0.49148 0.0
C118 C 0.94915 0.04187 0.51411 0.0
C119 C 0.10294 1.00406 0.58247 0.0
C120 C 0.0502 0.09753 0.60728 0.0
C121 C 1.00206 0.99044 0.62783 0.0
C122 C 0.05068 0.05609 0.4679 0.0
O123 O 0.00929 0.98264 0.50851 0.0
O124 O 0.98719 0.9492 0.45721 0.0
O125 O 0.51061 0.99152 0.97603 0.0
Mn126 Mn 0.53544 0.01027 0.03066 0.0
O127 O 0.51517 0.9294 0.97206 0.0
Mn128 Mn 0.53943 0.92536 0.01959 0.0
O129 O 0.56058 0.0274 0.08578 0.0
O130 O 0.54788 0.06227 1.01093 0.0
Mn131 Mn 0.53981 0.09576 0.04707 0.0
O132 O 0.4837 0.02318 0.04913 0.0
O133 O 0.57265 0.09048 0.08802 0.0
O134 O 0.58775 0.99846 1.01217 0.0
O135 O 0.59039 0.93737 0.02132 0.0
O136 O 0.55565 0.12302 1.00576 0.0
O137 O 0.4902 0.08634 0.05789 0.0
C138 C 0.50812 0.93057 0.0697 0.0
C139 C 0.50494 0.95897 0.95794 0.0
C140 C 0.57547 0.05887 0.10239 0.0
C141 C 0.5586 0.09035 0.99 0.0
C142 C 0.47103 0.05398 0.0587 0.0
C143 C 0.60572 0.96988 1.01338 0.0
O144 O 0.52237 0.95846 0.05031 0.0
O145 O 0.51548 0.89809 0.05722 0.0
O146 O 0.60528 0.55564 0.50422 0.0
Mn147 Mn 0.55686 0.5388 0.53222 0.0
O148 O 0.59629 0.53118 0.44311 0.0
Mn149 Mn 0.54843 0.50608 0.44762 0.0
O150 O 0.50896 0.52242 0.56081 0.0
O151 O 0.5859 0.54383 0.58308 0.0
Mn152 Mn 0.56729 0.57366 0.61616 0.0
O153 O 0.54636 0.5952 0.53676 0.0
O154 O 0.51894 0.5496 0.62093 0.0
O155 O 0.56661 0.4821 0.52756 0.0
O156 O 0.54568 0.45937 0.46818 0.0
O157 O 0.60646 0.55549 0.64213 0.0
O158 O 0.57062 0.61998 0.5942 0.0
C159 C 0.50396 0.53927 0.45417 0.0
C160 C 0.61633 0.55056 0.46995 0.0
C161 C 0.49858 0.52894 0.59512 0.0
C162 C 0.60808 0.5356 0.61052 0.0
C163 C 0.55548 0.6234 0.56098 0.0
C164 C 0.55797 0.4547 0.50228 0.0
O165 O 0.52784 0.53385 0.48125 0.0
O166 O 0.50789 0.52144 0.42181 0.0
O167 O 0.97814 0.46685 1.00878 0.0
Mn168 Mn 0.02686 0.49521 0.03647 0.0
O169 O 0.97755 0.49038 0.94928 0.0
Mn170 Mn 0.02428 0.51917 0.95283 0.0
O171 O 0.07541 0.52434 0.06359 0.0
O172 O 1.00295 0.49422 0.08724 0.0
Mn173 Mn 0.03011 0.47631 0.12329 0.0
O174 O 0.04612 0.44233 0.04573 0.0
O175 O 0.07505 0.50858 0.12597 0.0
O176 O 0.00691 0.54773 0.02857 0.0
O177 O 0.02594 0.56781 0.97176 0.0
O178 O 0.98945 0.49133 0.14699 0.0
O179 O 0.03212 0.42754 0.10643 0.0
C180 C 0.07123 0.48974 0.95647 0.0
C181 C 0.96281 0.46925 0.97489 0.0
C182 C 0.08983 0.52692 0.09835 0.0
C183 C 0.98124 0.50317 0.11338 0.0
C184 C 0.04304 0.41895 0.0733 0.0
C185 C 0.01222 0.57375 1.00402 0.0
O186 O 0.05105 0.49592 0.98526 0.0
O187 O 0.06199 0.5048 0.9248 0.0
H188 H 0.12861 0.20608 0.2899 0.0
H189 H 0.11145 0.03651 0.43474 0.0
H190 H 0.15805 0.09556 0.26354 0.0
H191 H 0.04658 0.12786 0.44582 0.0
H192 H 0.14145 0.06624 0.37977 0.0
H193 H 0.10832 0.18468 0.35285 0.0
C194 C 0.13083 0.17738 0.29704 0.0
C195 C 0.14536 0.15279 0.27083 0.0
C196 C 0.12133 0.08036 0.39473 0.0
C197 C 0.12309 0.12855 0.34378 0.0
C198 C 0.1047 0.0637 0.42655 0.0
C199 C 0.07717 0.08021 0.44539 0.0
C200 C 0.11015 0.11371 0.38124 0.0
C201 C 0.06837 0.11475 0.43264 0.0
C202 C 0.1195 0.16533 0.33326 0.0
C203 C 0.14799 0.11609 0.28261 0.0
N204 N 0.08458 0.13026 0.40115 0.0
N205 N 0.13713 0.10527 0.31799 0.0
H206 H 0.40229 0.97946 0.72708 0.0
H207 H 0.4792 0.89295 0.91874 0.0
H208 H 0.41878 0.86357 0.7383 0.0
H209 H 0.48662 0.01307 0.90751 0.0
H210 H 0.45122 0.88303 0.8542 0.0
H211 H 0.42774 0.99344 0.79386 0.0
C212 C 0.41118 0.95698 0.74356 0.0
C213 C 0.40867 0.92031 0.7269 0.0
C214 C 0.45892 0.91166 0.86558 0.0
C215 C 0.43754 0.93607 0.80312 0.0
C216 C 0.47501 0.91747 0.90274 0.0
C217 C 0.48581 0.95404 0.91882 0.0
C218 C 0.45323 0.94251 0.84363 0.0
C219 C 0.47889 0.98439 0.89636 0.0
C220 C 0.42583 0.96503 0.78155 0.0
C221 C 0.42073 0.89235 0.74954 0.0
N222 N 0.46313 0.97796 0.85976 0.0
N223 N 0.43449 0.9008 0.78629 0.0
H224 H 0.61999 0.31357 0.68003 0.0
H225 H 0.67933 0.52818 0.63187 0.0
H226 H 0.71468 0.38415 0.73434 0.0
H227 H 0.57337 0.46426 0.59809 0.0
H228 H 0.70109 0.47069 0.65456 0.0
H229 H 0.6113 0.36319 0.63539 0.0
C230 C 0.63942 0.33927 0.682 0.0
C231 C 0.668 0.34495 0.71099 0.0
C232 C 0.6735 0.46896 0.64096 0.0
C233 C 0.6579 0.40208 0.66045 0.0
C234 C 0.66127 0.50166 0.62761 0.0
C235 C 0.62499 0.50064 0.61179 0.0
C236 C 0.64894 0.43517 0.6392 0.0
C237 C 0.60209 0.46594 0.60837 0.0
C238 C 0.63437 0.36764 0.65662 0.0
C239 C 0.69232 0.37879 0.71236 0.0
N240 N 0.61429 0.43467 0.62236 0.0
N241 N 0.68647 0.40628 0.68777 0.0
H242 H 0.95732 0.70469 0.21886 0.0
H243 H 0.90821 0.49965 0.1272 0.0
H244 H 0.85846 0.63007 0.24149 0.0
H245 H 0.00426 0.57591 0.1 0.0
H246 H 0.88043 0.55267 0.15404 0.0
H247 H 0.96696 0.66402 0.16292 0.0
C248 C 0.93727 0.68007 0.21148 0.0
C249 C 0.90711 0.67053 0.23466 0.0
C250 C 0.90696 0.55815 0.14086 0.0
C251 C 0.9182 0.62349 0.1713 0.0
C252 C 0.92252 0.52789 0.12499 0.0
C253 C 0.95827 0.53359 0.11098 0.0
C254 C 0.92795 0.59406 0.14375 0.0
C255 C 0.97623 0.57051 0.10975 0.0
C256 C 0.94269 0.65687 0.17955 0.0
C257 C 0.88203 0.63826 0.22418 0.0
N258 N 0.9613 0.59929 0.12688 0.0
N259 N 0.8884 0.61561 0.19357 0.0
H260 H 0.28942 0.11994 0.1851 0.0
H261 H 0.4036 0.01527 0.0303 0.0
H262 H 0.23927 0.07107 0.07671 0.0
H263 H 0.45367 0.09263 0.12186 0.0
H264 H 0.34165 0.02497 0.05234 0.0
H265 H 0.34858 0.10022 0.16748 0.0
C266 C 0.29098 0.10536 0.1574 0.0
C267 C 0.25974 0.09837 0.13169 0.0
C268 C 0.36631 0.03942 0.06778 0.0
C269 C 0.32717 0.07456 0.11175 0.0
C270 C 0.40153 0.03363 0.05542 0.0
C271 C 0.43365 0.0534 0.07416 0.0
C272 C 0.36352 0.06464 0.09937 0.0
C273 C 0.42955 0.07711 0.10639 0.0
C274 C 0.32469 0.09389 0.14742 0.0
C275 C 0.26301 0.07798 0.09684 0.0
N276 N 0.39528 0.08212 0.11785 0.0
N277 N 0.29617 0.06698 0.08774 0.0
H278 H 0.32416 0.94033 0.56691 0.0
H279 H 0.11412 0.94567 0.62536 0.0
H280 H 0.28114 0.90698 0.67609 0.0
H281 H 0.16258 0.0135 0.53611 0.0
H282 H 0.17216 0.91904 0.63449 0.0
H283 H 0.26286 0.95718 0.54707 0.0
C284 C 0.30179 0.93648 0.58661 0.0
C285 C 0.30779 0.92263 0.62337 0.0
C286 C 0.17003 0.93924 0.61241 0.0
C287 C 0.23775 0.94108 0.60066 0.0
C288 C 0.13678 0.95405 0.60688 0.0
C289 C 0.13362 0.98138 0.57968 0.0
C290 C 0.20061 0.95216 0.59086 0.0
C291 C 0.16391 0.99199 0.55695 0.0
C292 C 0.26692 0.9461 0.5753 0.0
C293 C 0.27791 0.91812 0.64777 0.0
N294 N 0.19642 0.97758 0.56327 0.0
N295 N 0.24425 0.92721 0.63595 0.0
H296 H 0.80902 0.2791 0.88625 0.0
H297 H 0.90664 0.48867 0.92929 0.0
H298 H 0.76075 0.37667 0.851 0.0
H299 H 0.93854 0.39628 0.99279 0.0
H300 H 0.85254 0.4476 0.90121 0.0
H301 H 0.85611 0.32042 0.92609 0.0
C302 C 0.80801 0.30911 0.8871 0.0
C303 C 0.78097 0.32432 0.86468 0.0
C304 C 0.871 0.43627 0.92165 0.0
C305 C 0.83523 0.37183 0.90998 0.0
C306 C 0.90191 0.45975 0.93772 0.0
C307 C 0.92713 0.44581 0.96332 0.0
C308 C 0.8655 0.39819 0.93052 0.0
C309 C 0.91962 0.40815 0.97331 0.0
C310 C 0.83501 0.33269 0.90984 0.0
C311 C 0.78147 0.36356 0.86684 0.0
N312 N 0.88974 0.38541 0.95639 0.0
N313 N 0.80827 0.38585 0.88873 0.0
H314 H 0.83294 0.59605 0.37629 0.0
H315 H 0.66056 0.60962 0.50835 0.0
H316 H 0.81813 0.69841 0.43988 0.0
H317 H 0.65814 0.53044 0.41102 0.0
H318 H 0.72267 0.63796 0.49159 0.0
H319 H 0.77298 0.56694 0.39692 0.0
C320 C 0.81709 0.61251 0.39449 0.0
C321 C 0.83059 0.64996 0.40597 0.0
C322 C 0.70845 0.61437 0.47401 0.0
C323 C 0.76212 0.61634 0.43039 0.0
C324 C 0.67312 0.5981 0.48359 0.0
C325 C 0.65406 0.56772 0.46093 0.0
C326 C 0.72501 0.5997 0.44197 0.0
C327 C 0.67164 0.554 0.42912 0.0
C328 C 0.78292 0.59576 0.40639 0.0
C329 C 0.80913 0.66941 0.43054 0.0
N330 N 0.70615 0.56999 0.42069 0.0
N331 N 0.77592 0.65237 0.44191 0.0
H332 H 0.07808 0.21065 0.16663 0.0
H333 H 0.11147 0.40191 0.05352 0.0
H334 H 0.18575 0.25893 0.13118 0.0
H335 H 0.0051 0.35216 0.09034 0.0
H336 H 0.13794 0.34529 0.07242 0.0
H337 H 0.05004 0.25868 0.13211 0.0
C338 C 0.0959 0.23137 0.1517 0.0
C339 C 0.13446 0.23069 0.1522 0.0
C340 C 0.10858 0.34635 0.07544 0.0
C341 C 0.1023 0.28594 0.11191 0.0
C342 C 0.09336 0.37842 0.06399 0.0
C343 C 0.05597 0.38158 0.07009 0.0
C344 C 0.08622 0.31743 0.09322 0.0
C345 C 0.034 0.35073 0.0849 0.0
C346 C 0.0798 0.25869 0.13163 0.0
C347 C 0.15589 0.25803 0.13148 0.0
N348 N 0.04949 0.3203 0.09637 0.0
N349 N 0.13962 0.28459 0.1125 0.0
H350 H 0.73763 0.18825 0.87061 0.0
H351 H 0.62484 0.06585 0.9765 0.0
H352 H 0.63634 0.21361 0.81423 0.0
H353 H 0.53523 0.11452 0.92185 0.0
H354 H 0.66585 0.0908 0.92693 0.0
H355 H 0.70207 0.13617 0.90112 0.0
C356 C 0.70795 0.18256 0.86422 0.0
C357 C 0.69005 0.20591 0.84015 0.0
C358 C 0.63714 0.09561 0.92506 0.0
C359 C 0.64867 0.14533 0.8746 0.0
C360 C 0.61342 0.08032 0.95291 0.0
C361 C 0.57672 0.08825 0.95313 0.0
C362 C 0.62391 0.11942 0.89781 0.0
C363 C 0.56342 0.10782 0.92255 0.0
C364 C 0.6875 0.15232 0.88141 0.0
C365 C 0.65161 0.19652 0.83234 0.0
N366 N 0.58714 0.12334 0.89661 0.0
N367 N 0.63231 0.16744 0.84988 0.0
H368 H 0.97387 0.77061 0.37773 0.0
H369 H 0.96181 0.90471 0.53907 0.0
H370 H 0.93269 0.72122 0.48214 0.0
H371 H 0.06082 0.91368 0.47465 0.0
H372 H 0.95406 0.83634 0.52773 0.0
H373 H 0.00865 0.82142 0.41645 0.0
C374 C 0.97253 0.76949 0.40873 0.0
C375 C 0.94943 0.74095 0.42609 0.0
C376 C 0.97861 0.85302 0.51783 0.0
C377 C 0.98868 0.80134 0.47096 0.0
C378 C 0.98331 0.89204 0.52478 0.0
C379 C 0.01168 0.91465 0.50721 0.0
C380 C 1.00206 0.83724 0.49255 0.0
C381 C 0.03841 0.89703 0.48836 0.0
C382 C 0.99258 0.79902 0.43097 0.0
C383 C 0.94872 0.74292 0.46683 0.0
N384 N 0.03217 0.8594 0.4801 0.0
N385 N 0.96714 0.77315 0.48777 0.0
H386 H 0.41118 0.79428 0.53309 0.0
H387 H 0.59061 0.6936 0.58232 0.0
H388 H 0.50592 0.84595 0.60397 0.0
H389 H 0.48952 0.63592 0.52683 0.0
H390 H 0.56367 0.75253 0.58162 0.0
H391 H 0.44264 0.73862 0.52228 0.0
C392 C 0.43877 0.79393 0.54605 0.0
C393 C 0.45617 0.82475 0.56913 0.0
C394 C 0.54762 0.72715 0.56883 0.0
C395 C 0.49225 0.76131 0.55721 0.0
C396 C 0.5631 0.69357 0.569 0.0
C397 C 0.54261 0.65998 0.55367 0.0
C398 C 0.51115 0.72712 0.55364 0.0
C399 C 0.50684 0.66139 0.53739 0.0
C400 C 0.4567 0.76223 0.53994 0.0
C401 C 0.49172 0.82287 0.58571 0.0
N402 N 0.49213 0.69432 0.53805 0.0
N403 N 0.50857 0.7917 0.57944 0.0
H404 H 0.94485 0.87835 0.83109 0.0
H405 H 0.92592 0.98186 0.63288 0.0
H406 H 0.83939 0.90512 0.78602 0.0
H407 H 0.02477 0.9396 0.67513 0.0
H408 H 0.89135 0.94968 0.68454 0.0
H409 H 0.97256 0.89725 0.77133 0.0
C410 C 0.92723 0.88772 0.80851 0.0
C411 C 0.88947 0.88983 0.81398 0.0
C412 C 0.9204 0.94673 0.6819 0.0
C413 C 0.92175 0.91271 0.74484 0.0
C414 C 0.93994 0.96466 0.65212 0.0
C415 C 0.97811 0.96301 0.64962 0.0
C416 C 0.93939 0.92741 0.70934 0.0
C417 C 0.99529 0.9413 0.67592 0.0
C418 C 0.94326 0.8988 0.77423 0.0
C419 C 0.86869 0.90338 0.78357 0.0
N420 N 0.97598 0.92476 0.70478 0.0
N421 N 0.88511 0.91448 0.75048 0.0
H422 H 0.71823 0.1261 0.3063 0.0
H423 H 0.55184 0.022 0.16649 0.0
H424 H 0.60687 0.10003 0.34461 0.0
H425 H 0.64119 0.09984 0.1264 0.0
H426 H 0.57811 0.03501 0.23319 0.0
H427 H 0.69623 0.10146 0.24122 0.0
C428 C 0.68924 0.11474 0.3011 0.0
C429 C 0.66428 0.11526 0.33082 0.0
C430 C 0.59221 0.04868 0.20961 0.0
C431 C 0.63906 0.08666 0.25659 0.0
C432 C 0.57752 0.04097 0.17164 0.0
C433 C 0.5945 0.05985 0.14104 0.0
C434 C 0.62447 0.07477 0.2167 0.0
C435 C 0.62732 0.08471 0.14926 0.0
C436 C 0.67671 0.10083 0.26398 0.0
C437 C 0.62692 0.10044 0.32239 0.0
N438 N 0.64125 0.09143 0.18624 0.0
N439 N 0.61541 0.08666 0.28606 0.0
H440 H 0.43697 0.73222 0.36291 0.0
H441 H 0.42903 0.52828 0.44454 0.0
H442 H 0.3508 0.64013 0.3322 0.0
H443 H 0.52304 0.61476 0.46106 0.0
H444 H 0.39123 0.57505 0.42112 0.0
H445 H 0.45936 0.69613 0.41541 0.0
C446 C 0.42224 0.7047 0.36786 0.0
C447 C 0.39245 0.68871 0.34286 0.0
C448 C 0.41976 0.58415 0.4311 0.0
C449 C 0.41813 0.64712 0.40242 0.0
C450 C 0.44117 0.55755 0.44491 0.0
C451 C 0.47887 0.56799 0.45539 0.0
C452 C 0.43657 0.62123 0.42683 0.0
C453 C 0.49378 0.60588 0.45407 0.0
C454 C 0.43508 0.68407 0.39774 0.0
C455 C 0.37413 0.65316 0.35067 0.0
N456 N 0.47275 0.63109 0.4394 0.0
N457 N 0.38767 0.63324 0.37934 0.0
H458 H 0.1256 0.32716 0.80158 0.0
H459 H 0.14571 0.50227 0.95237 0.0
H460 H 0.18709 0.43733 0.78904 0.0
H461 H 0.05303 0.41408 0.94984 0.0
H462 H 0.1773 0.46396 0.90837 0.0
H463 H 0.11149 0.34722 0.86725 0.0
C464 C 0.13639 0.35534 0.81241 0.0
C465 C 0.1577 0.38045 0.7892 0.0
C466 C 0.15062 0.45227 0.91851 0.0
C467 C 0.14288 0.40279 0.86496 0.0
C468 C 0.13298 0.47383 0.94439 0.0
C469 C 0.09664 0.46142 0.95432 0.0
C470 C 0.13142 0.41839 0.90214 0.0
C471 C 0.08111 0.42459 0.94267 0.0
C472 C 0.1287 0.36651 0.85013 0.0
C473 C 0.17138 0.41637 0.80557 0.0
N474 N 0.09799 0.40475 0.91597 0.0
N475 N 0.16371 0.42632 0.84214 0.0
H476 H 0.82308 0.90826 0.9801 0.0
H477 H 0.63382 0.99694 0.94633 0.0
H478 H 0.77253 0.91817 0.86664 0.0
H479 H 0.66414 0.94513 0.05088 0.0
H480 H 0.69279 0.98429 0.9194 0.0
H481 H 0.7727 0.93678 1.00843 0.0
C482 C 0.80145 0.91633 0.96101 0.0
C483 C 0.80192 0.90989 0.92077 0.0
C484 C 0.68684 0.97649 0.94856 0.0
C485 C 0.74433 0.94379 0.95337 0.0
C486 C 0.6535 0.98419 0.96411 0.0
C487 C 0.64435 0.97232 1.00099 0.0
C488 C 0.71124 0.95725 0.97031 0.0
C489 C 0.67032 0.95492 0.02243 0.0
C490 C 0.7728 0.93296 0.97731 0.0
C491 C 0.77357 0.92246 0.89774 0.0
N492 N 0.70244 0.9478 1.00677 0.0
N493 N 0.74584 0.93854 0.91435 0.0
H494 H 0.78399 0.18419 0.45836 0.0
H495 H 0.87995 0.00646 0.52071 0.0
H496 H 0.73577 0.06833 0.43818 0.0
H497 H 0.94178 0.11684 0.51461 0.0
H498 H 0.82248 0.0325 0.50638 0.0
H499 H 0.83804 0.16316 0.49183 0.0
C500 C 0.7847 0.15436 0.4612 0.0
C501 C 0.75557 0.12789 0.44514 0.0
C502 C 0.84845 0.0513 0.50896 0.0
C503 C 0.81683 0.10381 0.48373 0.0
C504 C 0.88115 0.03651 0.51767 0.0
C505 C 0.91542 0.05965 0.51902 0.0
C506 C 0.85005 0.08945 0.50087 0.0
C507 C 0.91573 0.09827 0.51425 0.0
C508 C 0.8155 0.14243 0.48026 0.0
C509 C 0.75787 0.08964 0.44956 0.0
N510 N 0.88347 0.11197 0.50471 0.0
N511 N 0.78792 0.07879 0.46838 0.0
H512 H 0.24175 0.73123 0.16108 0.0
H513 H 0.11637 0.59064 0.06104 0.0
H514 H 0.29004 0.63835 0.20843 0.0
H515 H 0.14087 0.52508 0.15821 0.0
H516 H 0.16904 0.63809 0.08245 0.0
H517 H 0.1935 0.68624 0.12717 0.0
C518 C 0.24266 0.70145 0.16393 0.0
C519 C 0.26998 0.68882 0.18821 0.0
C520 C 0.16278 0.61339 0.09914 0.0
C521 C 0.21456 0.63695 0.14933 0.0
C522 C 0.13301 0.58604 0.08664 0.0
C523 C 0.12396 0.55393 0.10803 0.0
C524 C 0.18386 0.60837 0.13306 0.0
C525 C 0.14651 0.54953 0.14102 0.0
C526 C 0.21504 0.6757 0.14442 0.0
C527 C 0.26915 0.64972 0.19103 0.0
N528 N 0.17534 0.57634 0.15242 0.0
N529 N 0.24171 0.62536 0.17233 0.0
H530 H 0.29349 0.37761 0.60671 0.0
H531 H 0.46586 0.53561 0.66428 0.0
H532 H 0.31597 0.42946 0.72093 0.0
H533 H 0.44796 0.47928 0.5513 0.0
H534 H 0.40813 0.50069 0.68375 0.0
H535 H 0.34736 0.41798 0.5842 0.0
C536 C 0.31 0.39745 0.627 0.0
C537 C 0.3011 0.3998 0.66584 0.0
C538 C 0.41673 0.49608 0.65464 0.0
C539 C 0.36207 0.44628 0.64043 0.0
C540 C 0.44973 0.51608 0.64343 0.0
C541 C 0.46206 0.51019 0.60614 0.0
C542 C 0.39581 0.4699 0.62846 0.0
C543 C 0.43972 0.48463 0.5804 0.0
C544 C 0.34058 0.42052 0.6142 0.0
C545 C 0.32258 0.42646 0.69092 0.0
N546 N 0.40779 0.46526 0.59214 0.0
N547 N 0.35225 0.44856 0.67784 0.0
H548 H 0.84649 0.72106 0.97706 0.0
H549 H 0.04243 0.6429 0.98356 0.0
H550 H 0.94355 0.77258 0.92253 0.0
H551 H 0.9445 0.58505 0.03148 0.0
H552 H 0.00944 0.69669 0.97238 0.0
H553 H 0.88388 0.67672 1.00663 0.0
C554 C 0.87586 0.72344 0.97188 0.0
C555 C 0.89206 0.75085 0.94765 0.0
C556 C 0.99526 0.67263 0.98606 0.0
C557 C 0.93498 0.69982 0.981 0.0
C558 C 0.01424 0.64201 0.99281 0.0
C559 C 0.99623 0.60946 1.00856 0.0
C560 C 0.95765 0.67065 0.99456 0.0
C561 C 0.9596 0.60974 0.01972 0.0
C562 C 0.89717 0.69806 0.9887 0.0
C563 C 0.93007 0.75221 0.94138 0.0
N564 N 0.94129 0.63959 1.01191 0.0
N565 N 0.95014 0.72702 0.95778 0.0
H566 H 0.31614 0.82314 0.16579 0.0
H567 H 0.52196 0.92767 0.14651 0.0
H568 H 0.41363 0.80452 0.23424 0.0
H569 H 0.43391 0.93184 0.06049 0.0
H570 H 0.47655 0.89876 0.19008 0.0
H571 H 0.35372 0.87525 0.13591 0.0
C572 C 0.34519 0.83004 0.17487 0.0
C573 C 0.36145 0.80909 0.20281 0.0
C574 C 0.46683 0.90702 0.16214 0.0
C575 C 0.40436 0.86934 0.1693 0.0
C576 C 0.49272 0.92423 0.1376 0.0
C577 C 0.48153 0.93234 0.10011 0.0
C578 C 0.42962 0.89707 0.14867 0.0
C579 C 0.44345 0.92634 0.08947 0.0
C580 C 0.36653 0.86005 0.15802 0.0
C581 C 0.39925 0.81999 0.21363 0.0
N582 N 0.41887 0.90819 0.11327 0.0
N583 N 0.41924 0.84905 0.19681 0.0
H584 H 0.16968 0.29349 0.62655 0.0
H585 H 1.00139 0.14135 0.6341 0.0
H586 H 0.07149 0.31457 0.6854 0.0
H587 H 0.08649 0.13726 0.55225 0.0
H588 H 0.01688 0.20957 0.64072 0.0
H589 H 0.13331 0.24274 0.58915 0.0
C590 C 0.14024 0.28831 0.6312 0.0
C591 C 0.12396 0.30893 0.65968 0.0
C592 C 0.0312 0.19412 0.62001 0.0
C593 C 0.08198 0.24838 0.61731 0.0
C594 C 0.02189 0.15516 0.61573 0.0
C595 C 0.04311 0.13382 0.59301 0.0
C596 C 0.06244 0.21142 0.602 0.0
C597 C 0.06964 0.15283 0.57022 0.0
C598 C 0.11938 0.25879 0.60968 0.0
C599 C 0.08572 0.29918 0.66463 0.0
N600 N 0.0795 0.19053 0.57628 0.0
N601 N 0.06622 0.26916 0.64422 0.0
H602 H 0.56143 0.22064 0.45463 0.0
H603 H 0.62053 0.43253 0.53632 0.0
H604 H 0.66972 0.26053 0.50733 0.0
H605 H 0.51279 0.38978 0.48393 0.0
H606 H 0.63663 0.36821 0.53512 0.0
H607 H 0.54108 0.28092 0.47238 0.0
C608 C 0.58082 0.24212 0.4702 0.0
C609 C 0.61724 0.23575 0.4796 0.0
C610 C 0.60919 0.3728 0.52461 0.0
C611 C 0.59439 0.30502 0.49983 0.0
C612 C 0.59982 0.40942 0.52589 0.0
C613 C 0.56517 0.41629 0.51057 0.0
C614 C 0.58378 0.34312 0.50749 0.0
C615 C 0.5398 0.38558 0.49606 0.0
C616 C 0.56924 0.27653 0.48042 0.0
C617 C 0.64137 0.26452 0.49965 0.0
N618 N 0.54972 0.35047 0.49454 0.0
N619 N 0.6296 0.29803 0.50893 0.0
loop_
_geom_bond_atom_site_label_1
_geom_bond_atom_site_label_2
_geom_bond_distance
_geom_bond_site_symmetry_2
_ccdc_geom_bond_type
H0 C7 0.929 . S
H1 C10 0.930 . S
H2 C12 0.929 . S
H3 C4 0.969 . S
C4 H3 0.969 . S
C4 O5 1.550 . S
C4 H6 0.973 . S
O5 C4 1.550 . S
O5 C11 1.412 . S
H6 C4 0.973 . S
C7 H0 0.929 . S
C7 C8 1.400 . S
C7 C9 1.364 . S
C8 C7 1.400 . S
C8 C12 1.377 . S
C9 C7 1.364 . S
C9 C10 1.374 . S
C10 H1 0.930 . S
C10 C9 1.374 . S
C10 C11 1.383 . S
C11 O5 1.412 . S
C11 C10 1.383 . S
C11 C12 1.394 . S
C12 H2 0.929 . S
C12 C8 1.377 . S
C12 C11 1.394 . S
H13 C20 0.929 . S
H14 C23 0.930 . S
H15 C25 0.929 . S
H16 C17 0.969 . S
C17 H16 0.969 . S
C17 O18 1.550 . S
C17 H19 0.973 . S
O18 C17 1.550 . S
O18 C24 1.412 . S
H19 C17 0.973 . S
C20 H13 0.929 . S
C20 C21 1.400 . S
C20 C22 1.364 . S
C21 C20 1.400 . S
C21 C25 1.377 . S
C22 C20 1.364 . S
C22 C23 1.374 . S
C23 H14 0.930 . S
C23 C22 1.374 . S
C23 C24 1.383 . S
C24 O18 1.412 . S
C24 C23 1.383 . S
C24 C25 1.394 . S
C25 H15 0.929 . S
C25 C21 1.377 . S
C25 C24 1.394 . S
H26 C33 0.929 . S
H27 C36 0.930 . S
H28 C38 0.929 . S
H29 C30 0.969 . S
C30 H29 0.969 . S
C30 O31 1.550 . S
C30 H32 0.973 . S
O31 C30 1.550 . S
O31 C37 1.412 . S
H32 C30 0.973 . S
C33 H26 0.929 . S
C33 C34 1.400 . S
C33 C35 1.364 . S
C34 C33 1.400 . S
C34 C38 1.377 . S
C35 C33 1.364 . S
C35 C36 1.374 . S
C36 H27 0.930 . S
C36 C35 1.374 . S
C36 C37 1.383 . S
C37 O31 1.412 . S
C37 C36 1.383 . S
C37 C38 1.394 . S
C38 H28 0.929 . S
C38 C34 1.377 . S
C38 C37 1.394 . S
H39 C46 0.929 . S
H40 C49 0.930 . S
H41 C51 0.929 . S
H42 C43 0.969 . S
C43 H42 0.969 . S
C43 O44 1.550 . S
C43 H45 0.973 . S
O44 C43 1.550 . S
O44 C50 1.412 . S
H45 C43 0.973 . S
C46 H39 0.929 . S
C46 C47 1.400 . S
C46 C48 1.364 . S
C47 C46 1.400 . S
C47 C51 1.377 . S
C48 C46 1.364 . S
C48 C49 1.374 . S
C49 H40 0.930 . S
C49 C48 1.374 . S
C49 C50 1.383 . S
C50 O44 1.412 . S
C50 C49 1.383 . S
C50 C51 1.394 . S
C51 H41 0.929 . S
C51 C47 1.377 . S
C51 C50 1.394 . S
H52 C59 0.929 . S
H53 C62 0.930 . S
H54 C64 0.929 . S
H55 C56 0.969 . S
C56 H55 0.969 . S
C56 O57 1.550 . S
C56 H58 0.973 . S
O57 C56 1.550 . S
O57 C63 1.412 . S
H58 C56 0.973 . S
C59 H52 0.929 . S
C59 C60 1.400 . S
C59 C61 1.364 . S
C60 C59 1.400 . S
C60 C64 1.377 . S
C61 C59 1.364 . S
C61 C62 1.374 . S
C62 H53 0.930 . S
C62 C61 1.374 . S
C62 C63 1.383 . S
C63 O57 1.412 . S
C63 C62 1.383 . S
C63 C64 1.394 . S
C64 H54 0.929 . S
C64 C60 1.377 . S
C64 C63 1.394 . S
H65 C72 0.929 . S
H66 C75 0.930 . S
H67 C77 0.929 . S
H68 C69 0.969 . S
C69 H68 0.969 . S
C69 O70 1.550 . S
C69 H71 0.973 . S
O70 C69 1.550 . S
O70 C76 1.412 . S
H71 C69 0.973 . S
C72 H65 0.929 . S
C72 C73 1.400 . S
C72 C74 1.364 . S
C73 C72 1.400 . S
C73 C77 1.377 . S
C74 C72 1.364 . S
C74 C75 1.374 . S
C75 H66 0.930 . S
C75 C74 1.374 . S
C75 C76 1.383 . S
C76 O70 1.412 . S
C76 C75 1.383 . S
C76 C77 1.394 . S
C77 H67 0.929 . S
C77 C73 1.377 . S
C77 C76 1.394 . S
H78 C85 0.929 . S
H79 C88 0.930 . S
H80 C90 0.929 . S
H81 C82 0.969 . S
C82 H81 0.969 . S
C82 O83 1.550 . S
C82 H84 0.973 . S
O83 C82 1.550 . S
O83 C89 1.412 . S
H84 C82 0.973 . S
C85 H78 0.929 . S
C85 C86 1.400 . S
C85 C87 1.364 . S
C86 C85 1.400 . S
C86 C90 1.377 . S
C87 C85 1.364 . S
C87 C88 1.374 . S
C88 H79 0.930 . S
C88 C87 1.374 . S
C88 C89 1.383 . S
C89 O83 1.412 . S
C89 C88 1.383 . S
C89 C90 1.394 . S
C90 H80 0.929 . S
C90 C86 1.377 . S
C90 C89 1.394 . S
H91 C98 0.929 . S
H92 C101 0.930 . S
H93 C103 0.929 . S
H94 C95 0.969 . S
C95 H94 0.969 . S
C95 O96 1.550 . S
C95 H97 0.973 . S
O96 C95 1.550 . S
O96 C102 1.412 . S
H97 C95 0.973 . S
C98 H91 0.929 . S
C98 C99 1.400 . S
C98 C100 1.364 . S
C99 C98 1.400 . S
C99 C103 1.377 . S
C100 C98 1.364 . S
C100 C101 1.374 . S
C101 H92 0.930 . S
C101 C100 1.374 . S
C101 C102 1.383 . S
C102 O96 1.412 . S
C102 C101 1.383 . S
C102 C103 1.394 . S
C103 H93 0.929 . S
C103 C99 1.377 . S
C103 C102 1.394 . S
O104 Mn105 2.163 1_655 S
O104 C118 1.244 . S
Mn105 O104 2.163 1_455 S
Mn105 O108 2.160 1_545 S
Mn105 O109 2.221 . S
Mn105 O111 2.163 1_445 S
Mn105 O113 2.160 . S
Mn105 O123 2.221 1_445 S
O106 Mn107 2.087 1_545 S
O106 C118 1.256 . S
Mn107 O106 2.087 1_565 S
Mn107 O114 2.107 1_565 S
Mn107 O123 2.290 . S
Mn107 O124 2.251 . S
O108 Mn105 2.160 1_565 S
O108 C119 1.239 . S
O109 Mn105 2.221 . S
O109 Mn110 2.290 . S
O109 C120 1.278 . S
Mn110 O109 2.290 . S
Mn110 O112 2.089 . S
Mn110 O115 2.251 . S
Mn110 O116 2.087 . S
O111 Mn105 2.163 1_665 S
O111 C121 1.244 . S
O112 Mn110 2.089 . S
O112 C119 1.256 1_545 S
O113 Mn105 2.160 . S
O113 C122 1.239 . S
O114 Mn107 2.107 1_545 S
O114 C122 1.231 1_655 S
O115 Mn110 2.251 . S
O115 C120 1.241 . S
O116 Mn110 2.087 . S
O116 C121 1.256 1_445 S
C117 O123 1.278 . S
C117 O124 1.241 . S
C118 O104 1.244 . S
C118 O106 1.256 . S
C119 O108 1.239 . S
C119 O112 1.256 1_565 S
C120 O109 1.278 . S
C120 O115 1.241 . S
C121 O111 1.244 . S
C121 O116 1.256 1_665 S
C122 O113 1.239 . S
C122 O114 1.231 1_455 S
O123 Mn105 2.221 1_665 S
O123 Mn107 2.290 . S
O123 C117 1.278 . S
O124 Mn107 2.251 . S
O124 C117 1.241 . S
O125 Mn126 2.163 1_556 S
O125 C139 1.244 1_545 S
Mn126 O125 2.163 1_554 S
Mn126 O129 2.160 . S
Mn126 O130 2.221 1_554 S
Mn126 O132 2.163 . S
Mn126 O134 2.160 1_554 S
Mn126 O144 2.221 1_545 S
O127 Mn128 2.087 . S
O127 C139 1.256 . S
Mn128 O127 2.087 . S
Mn128 O135 2.089 . S
Mn128 O144 2.290 1_556 S
Mn128 O145 2.251 1_556 S
O129 Mn126 2.160 . S
O129 C140 1.239 . S
O130 Mn126 2.221 1_556 S
O130 Mn131 2.290 1_556 S
O130 C141 1.278 . S
Mn131 O130 2.290 1_554 S
Mn131 O133 2.089 . S
Mn131 O136 2.251 1_554 S
Mn131 O137 2.087 . S
O132 Mn126 2.163 . S
O132 C142 1.244 . S
O133 Mn131 2.089 . S
O133 C140 1.256 . S
O134 Mn126 2.160 1_556 S
O134 C143 1.239 1_545 S
O135 Mn128 2.089 . S
O135 C143 1.256 . S
O136 Mn131 2.251 1_556 S
O136 C141 1.241 . S
O137 Mn131 2.087 . S
O137 C142 1.256 . S
C138 O144 1.278 . S
C138 O145 1.241 . S
C139 O125 1.244 1_565 S
C139 O127 1.256 . S
C140 O129 1.239 . S
C140 O133 1.256 . S
C141 O130 1.278 . S
C141 O136 1.241 . S
C142 O132 1.244 . S
C142 O137 1.256 . S
C143 O134 1.239 1_565 S
C143 O135 1.256 . S
O144 Mn126 2.221 1_565 S
O144 Mn128 2.290 1_554 S
O144 C138 1.278 . S
O145 Mn128 2.251 1_554 S
O145 C138 1.241 . S
O146 Mn147 2.163 . S
O146 C160 1.244 . S
Mn147 O146 2.163 . S
Mn147 O150 2.160 . S
Mn147 O151 2.221 . S
Mn147 O153 2.163 . S
Mn147 O155 2.160 . S
Mn147 O165 2.221 . S
O148 Mn149 2.087 . S
O148 C160 1.256 . S
Mn149 O148 2.087 . S
Mn149 O156 2.089 . S
Mn149 O165 2.290 . S
Mn149 O166 2.251 . S
O150 Mn147 2.160 . S
O150 C161 1.239 . S
O151 Mn147 2.221 . S
O151 Mn152 2.290 . S
O151 C162 1.278 . S
Mn152 O151 2.290 . S
Mn152 O154 2.089 . S
Mn152 O157 2.251 . S
Mn152 O158 2.087 . S
O153 Mn147 2.163 . S
O153 C163 1.244 . S
O154 Mn152 2.089 . S
O154 C161 1.256 . S
O155 Mn147 2.160 . S
O155 C164 1.239 . S
O156 Mn149 2.089 . S
O156 C164 1.256 . S
O157 Mn152 2.251 . S
O157 C162 1.241 . S
O158 Mn152 2.087 . S
O158 C163 1.256 . S
C159 O165 1.278 . S
C159 O166 1.241 . S
C160 O146 1.244 . S
C160 O148 1.256 . S
C161 O150 1.239 . S
C161 O154 1.256 . S
C162 O151 1.278 . S
C162 O157 1.241 . S
C163 O153 1.244 . S
C163 O158 1.256 . S
C164 O155 1.239 . S
C164 O156 1.256 . S
O165 Mn147 2.221 . S
O165 Mn149 2.290 . S
O165 C159 1.278 . S
O166 Mn149 2.251 . S
O166 C159 1.241 . S
O167 Mn168 2.163 1_655 S
O167 C181 1.244 1_554 S
Mn168 O167 2.163 1_455 S
Mn168 O171 2.160 . S
Mn168 O172 2.221 . S
Mn168 O174 2.163 . S
Mn168 O176 2.160 . S
Mn168 O186 2.221 1_554 S
O169 Mn170 2.087 . S
O169 C181 1.256 . S
Mn170 O169 2.087 . S
Mn170 O177 2.089 . S
Mn170 O186 2.290 1_655 S
Mn170 O187 2.251 1_655 S
O171 Mn168 2.160 . S
O171 C182 1.239 . S
O172 Mn168 2.221 . S
O172 Mn173 2.290 . S
O172 C183 1.286 . S
Mn173 O172 2.290 . S
Mn173 O175 2.089 . S
Mn173 O178 2.251 . S
Mn173 O179 2.087 . S
O174 Mn168 2.163 . S
O174 C184 1.244 . S
O175 Mn173 2.089 . S
O175 C182 1.256 . S
O176 Mn168 2.160 . S
O176 C185 1.239 1_554 S
O177 Mn170 2.089 . S
O177 C185 1.256 1_655 S
O178 Mn173 2.251 . S
O178 C183 1.245 . S
O179 Mn173 2.087 . S
O179 C184 1.256 . S
C180 O186 1.278 . S
C180 O187 1.241 . S
C181 O167 1.244 1_556 S
C181 O169 1.256 . S
C182 O171 1.239 . S
C182 O175 1.256 . S
C183 O172 1.286 . S
C183 O178 1.245 . S
C184 O174 1.244 . S
C184 O179 1.256 . S
C185 O176 1.239 1_556 S
C185 O177 1.256 1_455 S
O186 Mn168 2.221 1_556 S
O186 Mn170 2.290 1_455 S
O186 C180 1.278 . S
O187 Mn170 2.251 1_455 S
O187 C180 1.241 . S
H188 C194 0.930 . S
H189 C198 0.930 . S
H190 C203 0.929 . S
H191 C201 0.929 . S
H192 C196 0.929 . S
H193 C202 0.929 . S
C194 H188 0.930 . S
C194 C195 1.367 . S
C194 C202 1.378 . S
C195 C194 1.367 . S
C195 C203 1.433 . S
C196 H192 0.929 . S
C196 C198 1.378 . S
C196 C200 1.350 . S
C197 C200 1.463 . S
C197 C202 1.350 . S
C197 N205 1.427 . S
C198 H189 0.930 . S
C198 C196 1.378 . S
C198 C199 1.367 . S
C199 C198 1.367 . S
C199 C201 1.433 . S
C200 C196 1.350 . S
C200 C197 1.463 . S
C200 N204 1.427 . S
C201 H191 0.929 . S
C201 C199 1.433 . S
C201 N204 1.384 . S
C202 H193 0.929 . S
C202 C194 1.378 . S
C202 C197 1.350 . S
C203 H190 0.929 . S
C203 C195 1.433 . S
C203 N205 1.384 . S
N204 C200 1.427 . S
N204 C201 1.384 . S
N205 C197 1.427 . S
N205 C203 1.384 . S
H206 C212 0.930 . S
H207 C216 0.930 . S
H208 C221 0.929 . S
H209 C219 0.929 . S
H210 C214 0.929 . S
H211 C220 0.929 1_545 S
C212 H206 0.930 . S
C212 C213 1.367 . S
C212 C220 1.378 . S
C213 C212 1.367 . S
C213 C221 1.433 . S
C214 H210 0.929 . S
C214 C216 1.378 . S
C214 C218 1.350 . S
C215 C218 1.463 . S
C215 C220 1.350 . S
C215 N223 1.427 . S
C216 H207 0.930 . S
C216 C214 1.378 . S
C216 C217 1.367 . S
C217 C216 1.367 . S
C217 C219 1.433 1_565 S
C218 C214 1.350 . S
C218 C215 1.463 . S
C218 N222 1.427 1_565 S
C219 H209 0.929 . S
C219 C217 1.433 1_545 S
C219 N222 1.384 . S
C220 H211 0.929 1_565 S
C220 C212 1.378 . S
C220 C215 1.350 . S
C221 H208 0.929 . S
C221 C213 1.433 . S
C221 N223 1.384 . S
N222 C218 1.427 1_545 S
N222 C219 1.384 . S
N223 C215 1.427 . S
N223 C221 1.384 . S
H224 C230 0.930 . S
H225 C234 0.930 . S
H226 C239 0.929 . S
H227 C237 0.929 . S
H228 C232 0.929 . S
H229 C238 0.929 . S
C230 H224 0.930 . S
C230 C231 1.367 . S
C230 C238 1.378 . S
C231 C230 1.367 . S
C231 C239 1.433 . S
C232 H228 0.929 . S
C232 C234 1.378 . S
C232 C236 1.350 . S
C233 C236 1.463 . S
C233 C238 1.350 . S
C233 N241 1.427 . S
C234 H225 0.930 . S
C234 C232 1.378 . S
C234 C235 1.367 . S
C235 C234 1.367 . S
C235 C237 1.433 . S
C236 C232 1.350 . S
C236 C233 1.463 . S
C236 N240 1.427 . S
C237 H227 0.929 . S
C237 C235 1.433 . S
C237 N240 1.384 . S
C238 H229 0.929 . S
C238 C230 1.378 . S
C238 C233 1.350 . S
C239 H226 0.929 . S
C239 C231 1.433 . S
C239 N241 1.384 . S
N240 C236 1.427 . S
N240 C237 1.384 . S
N241 C233 1.427 . S
N241 C239 1.384 . S
H242 C248 0.930 . S
H243 C252 0.930 . S
H244 C257 0.929 . S
H245 C255 0.929 1_455 S
H246 C250 0.929 . S
H247 C256 0.929 . S
C248 H242 0.930 . S
C248 C249 1.367 . S
C248 C256 1.378 . S
C249 C248 1.367 . S
C249 C257 1.433 . S
C250 H246 0.929 . S
C250 C252 1.378 . S
C250 C254 1.350 . S
C251 C254 1.463 . S
C251 C256 1.350 . S
C251 N259 1.427 . S
C252 H243 0.930 . S
C252 C250 1.378 . S
C252 C253 1.367 . S
C253 C252 1.367 . S
C253 C255 1.433 . S
C254 C250 1.350 . S
C254 C251 1.463 . S
C254 N258 1.427 . S
C255 H245 0.929 1_655 S
C255 C253 1.433 . S
C255 N258 1.384 . S
C256 H247 0.929 . S
C256 C248 1.378 . S
C256 C251 1.350 . S
C257 H244 0.929 . S
C257 C249 1.433 . S
C257 N259 1.384 . S
N258 C254 1.427 . S
N258 C255 1.384 . S
N259 C251 1.427 . S
N259 C257 1.384 . S
H260 C266 0.930 . S
H261 C270 0.930 1_556 S
H262 C275 0.929 . S
H263 C273 0.929 . S
H264 C268 0.929 . S
H265 C274 0.929 . S
C266 H260 0.930 . S
C266 C267 1.367 . S
C266 C274 1.378 . S
C267 C266 1.367 . S
C267 C275 1.433 . S
C268 H264 0.929 . S
C268 C270 1.378 . S
C268 C272 1.350 . S
C269 C272 1.463 . S
C269 C274 1.350 . S
C269 N277 1.427 . S
C270 H261 0.930 1_554 S
C270 C268 1.378 . S
C270 C271 1.367 . S
C271 C270 1.367 . S
C271 C273 1.433 . S
C272 C268 1.350 . S
C272 C269 1.463 . S
C272 N276 1.427 . S
C273 H263 0.929 . S
C273 C271 1.433 . S
C273 N276 1.384 . S
C274 H265 0.929 . S
C274 C266 1.378 . S
C274 C269 1.350 . S
C275 H262 0.929 . S
C275 C267 1.433 . S
C275 N277 1.384 . S
N276 C272 1.427 . S
N276 C273 1.384 . S
N277 C269 1.427 . S
N277 C275 1.384 . S
H278 C284 0.930 . S
H279 C288 0.930 . S
H280 C293 0.929 . S
H281 C291 0.929 . S
H282 C286 0.929 . S
H283 C292 0.929 . S
C284 H278 0.930 . S
C284 C285 1.367 . S
C284 C292 1.378 . S
C285 C284 1.367 . S
C285 C293 1.433 . S
C286 H282 0.929 . S
C286 C288 1.378 . S
C286 C290 1.350 . S
C287 C290 1.463 . S
C287 C292 1.350 . S
C287 N295 1.427 . S
C288 H279 0.930 . S
C288 C286 1.378 . S
C288 C289 1.367 . S
C289 C288 1.367 . S
C289 C291 1.433 . S
C290 C286 1.350 . S
C290 C287 1.463 . S
C290 N294 1.427 . S
C291 H281 0.929 . S
C291 C289 1.433 . S
C291 N294 1.384 . S
C292 H283 0.929 . S
C292 C284 1.378 . S
C292 C287 1.350 . S
C293 H280 0.929 . S
C293 C285 1.433 . S
C293 N295 1.384 . S
N294 C290 1.427 . S
N294 C291 1.384 . S
N295 C287 1.427 . S
N295 C293 1.384 . S
H296 C302 0.930 . S
H297 C306 0.930 . S
H298 C311 0.929 . S
H299 C309 0.929 . S
H300 C304 0.929 . S
H301 C310 0.929 . S
C302 H296 0.930 . S
C302 C303 1.367 . S
C302 C310 1.378 . S
C303 C302 1.367 . S
C303 C311 1.433 . S
C304 H300 0.929 . S
C304 C306 1.378 1_556 S
C304 C308 1.350 . S
C305 C308 1.463 . S
C305 C310 1.350 . S
C305 N313 1.427 . S
C306 H297 0.930 . S
C306 C304 1.378 1_554 S
C306 C307 1.367 1_554 S
C307 C306 1.367 1_556 S
C307 C309 1.433 . S
C308 C304 1.350 . S
C308 C305 1.463 . S
C308 N312 1.427 . S
C309 H299 0.929 . S
C309 C307 1.433 . S
C309 N312 1.384 . S
C310 H301 0.929 . S
C310 C302 1.378 . S
C310 C305 1.350 . S
C311 H298 0.929 . S
C311 C303 1.433 . S
C311 N313 1.384 . S
N312 C308 1.427 . S
N312 C309 1.384 . S
N313 C305 1.427 . S
N313 C311 1.384 . S
H314 C320 0.930 . S
H315 C324 0.930 . S
H316 C329 0.929 . S
H317 C327 0.929 . S
H318 C322 0.929 . S
H319 C328 0.929 . S
C320 H314 0.930 . S
C320 C321 1.367 . S
C320 C328 1.378 . S
C321 C320 1.367 . S
C321 C329 1.433 . S
C322 H318 0.929 . S
C322 C324 1.378 . S
C322 C326 1.350 . S
C323 C326 1.463 . S
C323 C328 1.350 . S
C323 N331 1.427 . S
C324 H315 0.930 . S
C324 C322 1.378 . S
C324 C325 1.367 . S
C325 C324 1.367 . S
C325 C327 1.433 . S
C326 C322 1.350 . S
C326 C323 1.463 . S
C326 N330 1.427 . S
C327 H317 0.929 . S
C327 C325 1.433 . S
C327 N330 1.384 . S
C328 H319 0.929 . S
C328 C320 1.378 . S
C328 C323 1.350 . S
C329 H316 0.929 . S
C329 C321 1.433 . S
C329 N331 1.384 . S
N330 C326 1.427 . S
N330 C327 1.384 . S
N331 C323 1.427 . S
N331 C329 1.384 . S
H332 C338 0.930 . S
H333 C342 0.930 . S
H334 C347 0.929 . S
H335 C345 0.929 . S
H336 C340 0.929 . S
H337 C346 0.929 . S
C338 H332 0.930 . S
C338 C339 1.367 . S
C338 C346 1.378 . S
C339 C338 1.367 . S
C339 C347 1.433 . S
C340 H336 0.929 . S
C340 C342 1.378 . S
C340 C344 1.350 . S
C341 C344 1.463 . S
C341 C346 1.350 . S
C341 N349 1.427 . S
C342 H333 0.930 . S
C342 C340 1.378 . S
C342 C343 1.367 . S
C343 C342 1.367 . S
C343 C345 1.433 . S
C344 C340 1.350 . S
C344 C341 1.463 . S
C344 N348 1.427 . S
C345 H335 0.929 . S
C345 C343 1.433 . S
C345 N348 1.384 . S
C346 H337 0.929 . S
C346 C338 1.378 . S
C346 C341 1.350 . S
C347 H334 0.929 . S
C347 C339 1.433 . S
C347 N349 1.384 . S
N348 C344 1.427 . S
N348 C345 1.384 . S
N349 C341 1.427 . S
N349 C347 1.384 . S
H350 C356 0.930 . S
H351 C360 0.930 . S
H352 C365 0.929 . S
H353 C363 0.929 . S
H354 C358 0.929 . S
H355 C364 0.929 . S
C356 H350 0.930 . S
C356 C357 1.367 . S
C356 C364 1.378 . S
C357 C356 1.367 . S
C357 C365 1.433 . S
C358 H354 0.929 . S
C358 C360 1.378 . S
C358 C362 1.350 . S
C359 C362 1.463 . S
C359 C364 1.350 . S
C359 N367 1.427 . S
C360 H351 0.930 . S
C360 C358 1.378 . S
C360 C361 1.367 . S
C361 C360 1.367 . S
C361 C363 1.433 . S
C362 C358 1.350 . S
C362 C359 1.463 . S
C362 N366 1.427 . S
C363 H353 0.929 . S
C363 C361 1.433 . S
C363 N366 1.384 . S
C364 H355 0.929 . S
C364 C356 1.378 . S
C364 C359 1.350 . S
C365 H352 0.929 . S
C365 C357 1.433 . S
C365 N367 1.384 . S
N366 C362 1.427 . S
N366 C363 1.384 . S
N367 C359 1.427 . S
N367 C365 1.384 . S
H368 C374 0.930 . S
H369 C378 0.930 . S
H370 C383 0.929 . S
H371 C381 0.929 . S
H372 C376 0.929 . S
H373 C382 0.929 . S
C374 H368 0.930 . S
C374 C375 1.367 . S
C374 C382 1.378 . S
C375 C374 1.367 . S
C375 C383 1.433 . S
C376 H372 0.929 . S
C376 C378 1.378 . S
C376 C380 1.350 . S
C377 C380 1.463 . S
C377 C382 1.350 . S
C377 N385 1.427 . S
C378 H369 0.930 . S
C378 C376 1.378 . S
C378 C379 1.367 . S
C379 C378 1.367 . S
C379 C381 1.433 . S
C380 C376 1.350 . S
C380 C377 1.463 . S
C380 N384 1.427 . S
C381 H371 0.929 . S
C381 C379 1.433 . S
C381 N384 1.384 . S
C382 H373 0.929 . S
C382 C374 1.378 . S
C382 C377 1.350 . S
C383 H370 0.929 . S
C383 C375 1.433 . S
C383 N385 1.384 . S
N384 C380 1.427 . S
N384 C381 1.384 . S
N385 C377 1.427 . S
N385 C383 1.384 . S
H386 C392 0.930 . S
H387 C396 0.930 . S
H388 C401 0.929 . S
H389 C399 0.929 . S
H390 C394 0.929 . S
H391 C400 0.929 . S
C392 H386 0.930 . S
C392 C393 1.367 . S
C392 C400 1.378 . S
C393 C392 1.367 . S
C393 C401 1.433 . S
C394 H390 0.929 . S
C394 C396 1.378 . S
C394 C398 1.350 . S
C395 C398 1.463 . S
C395 C400 1.350 . S
C395 N403 1.427 . S
C396 H387 0.930 . S
C396 C394 1.378 . S
C396 C397 1.367 . S
C397 C396 1.367 . S
C397 C399 1.433 . S
C398 C394 1.350 . S
C398 C395 1.463 . S
C398 N402 1.427 . S
C399 H389 0.929 . S
C399 C397 1.433 . S
C399 N402 1.384 . S
C400 H391 0.929 . S
C400 C392 1.378 . S
C400 C395 1.350 . S
C401 H388 0.929 . S
C401 C393 1.433 . S
C401 N403 1.384 . S
N402 C398 1.427 . S
N402 C399 1.384 . S
N403 C395 1.427 . S
N403 C401 1.384 . S
H404 C410 0.930 . S
H405 C414 0.930 . S
H406 C419 0.929 . S
H407 C417 0.929 . S
H408 C412 0.929 . S
H409 C418 0.929 . S
C410 H404 0.930 . S
C410 C411 1.367 . S
C410 C418 1.378 . S
C411 C410 1.367 . S
C411 C419 1.433 . S
C412 H408 0.929 . S
C412 C414 1.378 . S
C412 C416 1.350 . S
C413 C416 1.463 . S
C413 C418 1.350 . S
C413 N421 1.427 . S
C414 H405 0.930 . S
C414 C412 1.378 . S
C414 C415 1.367 . S
C415 C414 1.367 . S
C415 C417 1.433 1_655 S
C416 C412 1.350 . S
C416 C413 1.463 . S
C416 N420 1.427 . S
C417 H407 0.929 . S
C417 C415 1.433 1_455 S
C417 N420 1.384 1_455 S
C418 H409 0.929 . S
C418 C410 1.378 . S
C418 C413 1.350 . S
C419 H406 0.929 . S
C419 C411 1.433 . S
C419 N421 1.384 . S
N420 C416 1.427 . S
N420 C417 1.384 1_655 S
N421 C413 1.427 . S
N421 C419 1.384 . S
H422 C428 0.930 . S
H423 C432 0.930 . S
H424 C437 0.929 . S
H425 C435 0.929 . S
H426 C430 0.929 . S
H427 C436 0.929 . S
C428 H422 0.930 . S
C428 C429 1.367 . S
C428 C436 1.378 . S
C429 C428 1.367 . S
C429 C437 1.433 . S
C430 H426 0.929 . S
C430 C432 1.378 . S
C430 C434 1.350 . S
C431 C434 1.463 . S
C431 C436 1.350 . S
C431 N439 1.427 . S
C432 H423 0.930 . S
C432 C430 1.378 . S
C432 C433 1.367 . S
C433 C432 1.367 . S
C433 C435 1.433 . S
C434 C430 1.350 . S
C434 C431 1.463 . S
C434 N438 1.427 . S
C435 H425 0.929 . S
C435 C433 1.433 . S
C435 N438 1.384 . S
C436 H427 0.929 . S
C436 C428 1.378 . S
C436 C431 1.350 . S
C437 H424 0.929 . S
C437 C429 1.433 . S
C437 N439 1.384 . S
N438 C434 1.427 . S
N438 C435 1.384 . S
N439 C431 1.427 . S
N439 C437 1.384 . S
H440 C446 0.930 . S
H441 C450 0.930 . S
H442 C455 0.929 . S
H443 C453 0.929 . S
H444 C448 0.929 . S
H445 C454 0.929 . S
C446 H440 0.930 . S
C446 C447 1.367 . S
C446 C454 1.378 . S
C447 C446 1.367 . S
C447 C455 1.433 . S
C448 H444 0.929 . S
C448 C450 1.378 . S
C448 C452 1.350 . S
C449 C452 1.463 . S
C449 C454 1.350 . S
C449 N457 1.427 . S
C450 H441 0.930 . S
C450 C448 1.378 . S
C450 C451 1.367 . S
C451 C450 1.367 . S
C451 C453 1.433 . S
C452 C448 1.350 . S
C452 C449 1.463 . S
C452 N456 1.427 . S
C453 H443 0.929 . S
C453 C451 1.433 . S
C453 N456 1.384 . S
C454 H445 0.929 . S
C454 C446 1.378 . S
C454 C449 1.350 . S
C455 H442 0.929 . S
C455 C447 1.433 . S
C455 N457 1.384 . S
N456 C452 1.427 . S
N456 C453 1.384 . S
N457 C449 1.427 . S
N457 C455 1.384 . S
H458 C464 0.930 . S
H459 C468 0.930 . S
H460 C473 0.929 . S
H461 C471 0.929 . S
H462 C466 0.929 . S
H463 C472 0.929 . S
C464 H458 0.930 . S
C464 C465 1.367 . S
C464 C472 1.378 . S
C465 C464 1.367 . S
C465 C473 1.433 . S
C466 H462 0.929 . S
C466 C468 1.378 . S
C466 C470 1.350 . S
C467 C470 1.463 . S
C467 C472 1.350 . S
C467 N475 1.427 . S
C468 H459 0.930 . S
C468 C466 1.378 . S
C468 C469 1.367 . S
C469 C468 1.367 . S
C469 C471 1.433 . S
C470 C466 1.350 . S
C470 C467 1.463 . S
C470 N474 1.427 . S
C471 H461 0.929 . S
C471 C469 1.433 . S
C471 N474 1.384 . S
C472 H463 0.929 . S
C472 C464 1.378 . S
C472 C467 1.350 . S
C473 H460 0.929 . S
C473 C465 1.433 . S
C473 N475 1.384 . S
N474 C470 1.427 . S
N474 C471 1.384 . S
N475 C467 1.427 . S
N475 C473 1.384 . S
H476 C482 0.930 . S
H477 C486 0.930 . S
H478 C491 0.929 . S
H479 C489 0.929 1_554 S
H480 C484 0.929 . S
H481 C490 0.929 . S
C482 H476 0.930 . S
C482 C483 1.367 . S
C482 C490 1.378 . S
C483 C482 1.367 . S
C483 C491 1.433 . S
C484 H480 0.929 . S
C484 C486 1.378 . S
C484 C488 1.350 . S
C485 C488 1.463 . S
C485 C490 1.350 . S
C485 N493 1.427 . S
C486 H477 0.930 . S
C486 C484 1.378 . S
C486 C487 1.367 . S
C487 C486 1.367 . S
C487 C489 1.433 . S
C488 C484 1.350 . S
C488 C485 1.463 . S
C488 N492 1.427 . S
C489 H479 0.929 1_556 S
C489 C487 1.433 . S
C489 N492 1.384 . S
C490 H481 0.929 . S
C490 C482 1.378 . S
C490 C485 1.350 . S
C491 H478 0.929 . S
C491 C483 1.433 . S
C491 N493 1.384 . S
N492 C488 1.427 . S
N492 C489 1.384 . S
N493 C485 1.427 . S
N493 C491 1.384 . S
H494 C500 0.930 . S
H495 C504 0.930 . S
H496 C509 0.929 . S
H497 C507 0.929 . S
H498 C502 0.929 . S
H499 C508 0.929 . S
C500 H494 0.930 . S
C500 C501 1.367 . S
C500 C508 1.378 . S
C501 C500 1.367 . S
C501 C509 1.433 . S
C502 H498 0.929 . S
C502 C504 1.378 . S
C502 C506 1.350 . S
C503 C506 1.463 . S
C503 C508 1.350 . S
C503 N511 1.427 . S
C504 H495 0.930 . S
C504 C502 1.378 . S
C504 C505 1.367 . S
C505 C504 1.367 . S
C505 C507 1.433 . S
C506 C502 1.350 . S
C506 C503 1.463 . S
C506 N510 1.427 . S
C507 H497 0.929 . S
C507 C505 1.433 . S
C507 N510 1.384 . S
C508 H499 0.929 . S
C508 C500 1.378 . S
C508 C503 1.350 . S
C509 H496 0.929 . S
C509 C501 1.433 . S
C509 N511 1.384 . S
N510 C506 1.427 . S
N510 C507 1.384 . S
N511 C503 1.427 . S
N511 C509 1.384 . S
H512 C518 0.930 . S
H513 C522 0.930 . S
H514 C527 0.929 . S
H515 C525 0.929 . S
H516 C520 0.929 . S
H517 C526 0.929 . S
C518 H512 0.930 . S
C518 C519 1.367 . S
C518 C526 1.378 . S
C519 C518 1.367 . S
C519 C527 1.433 . S
C520 H516 0.929 . S
C520 C522 1.378 . S
C520 C524 1.350 . S
C521 C524 1.463 . S
C521 C526 1.350 . S
C521 N529 1.427 . S
C522 H513 0.930 . S
C522 C520 1.378 . S
C522 C523 1.367 . S
C523 C522 1.367 . S
C523 C525 1.433 . S
C524 C520 1.350 . S
C524 C521 1.463 . S
C524 N528 1.427 . S
C525 H515 0.929 . S
C525 C523 1.433 . S
C525 N528 1.384 . S
C526 H517 0.929 . S
C526 C518 1.378 . S
C526 C521 1.350 . S
C527 H514 0.929 . S
C527 C519 1.433 . S
C527 N529 1.384 . S
N528 C524 1.427 . S
N528 C525 1.384 . S
N529 C521 1.427 . S
N529 C527 1.384 . S
H530 C536 0.930 . S
H531 C540 0.930 . S
H532 C545 0.929 . S
H533 C543 0.929 . S
H534 C538 0.929 . S
H535 C544 0.929 . S
C536 H530 0.930 . S
C536 C537 1.367 . S
C536 C544 1.378 . S
C537 C536 1.367 . S
C537 C545 1.433 . S
C538 H534 0.929 . S
C538 C540 1.378 . S
C538 C542 1.350 . S
C539 C542 1.463 . S
C539 C544 1.350 . S
C539 N547 1.427 . S
C540 H531 0.930 . S
C540 C538 1.378 . S
C540 C541 1.367 . S
C541 C540 1.367 . S
C541 C543 1.433 . S
C542 C538 1.350 . S
C542 C539 1.463 . S
C542 N546 1.427 . S
C543 H533 0.929 . S
C543 C541 1.433 . S
C543 N546 1.384 . S
C544 H535 0.929 . S
C544 C536 1.378 . S
C544 C539 1.350 . S
C545 H532 0.929 . S
C545 C537 1.433 . S
C545 N547 1.384 . S
N546 C542 1.427 . S
N546 C543 1.384 . S
N547 C539 1.427 . S
N547 C545 1.384 . S
H548 C554 0.930 1_554 S
H549 C558 0.930 1_455 S
H550 C563 0.929 . S
H551 C561 0.929 . S
H552 C556 0.929 . S
H553 C562 0.929 1_554 S
C554 H548 0.930 1_556 S
C554 C555 1.367 . S
C554 C562 1.378 . S
C555 C554 1.367 . S
C555 C563 1.433 . S
C556 H552 0.929 . S
C556 C558 1.378 . S
C556 C560 1.350 . S
C557 C560 1.463 . S
C557 C562 1.350 . S
C557 N565 1.427 . S
C558 H549 0.930 1_655 S
C558 C556 1.378 . S
C558 C559 1.367 . S
C559 C558 1.367 . S
C559 C561 1.433 1_556 S
C560 C556 1.350 . S
C560 C557 1.463 . S
C560 N564 1.427 1_556 S
C561 H551 0.929 . S
C561 C559 1.433 1_554 S
C561 N564 1.384 . S
C562 H553 0.929 1_556 S
C562 C554 1.378 . S
C562 C557 1.350 . S
C563 H550 0.929 . S
C563 C555 1.433 . S
C563 N565 1.384 . S
N564 C560 1.427 1_554 S
N564 C561 1.384 . S
N565 C557 1.427 . S
N565 C563 1.384 . S
H566 C572 0.930 . S
H567 C576 0.930 . S
H568 C581 0.929 . S
H569 C579 0.929 . S
H570 C574 0.929 . S
H571 C580 0.929 . S
C572 H566 0.930 . S
C572 C573 1.367 . S
C572 C580 1.378 . S
C573 C572 1.367 . S
C573 C581 1.433 . S
C574 H570 0.929 . S
C574 C576 1.378 . S
C574 C578 1.350 . S
C575 C578 1.463 . S
C575 C580 1.350 . S
C575 N583 1.427 . S
C576 H567 0.930 . S
C576 C574 1.378 . S
C576 C577 1.367 . S
C577 C576 1.367 . S
C577 C579 1.433 . S
C578 C574 1.350 . S
C578 C575 1.463 . S
C578 N582 1.427 . S
C579 H569 0.929 . S
C579 C577 1.433 . S
C579 N582 1.384 . S
C580 H571 0.929 . S
C580 C572 1.378 . S
C580 C575 1.350 . S
C581 H568 0.929 . S
C581 C573 1.433 . S
C581 N583 1.384 . S
N582 C578 1.427 . S
N582 C579 1.384 . S
N583 C575 1.427 . S
N583 C581 1.384 . S
H584 C590 0.930 . S
H585 C594 0.930 1_655 S
H586 C599 0.929 . S
H587 C597 0.929 . S
H588 C592 0.929 . S
H589 C598 0.929 . S
C590 H584 0.930 . S
C590 C591 1.367 . S
C590 C598 1.378 . S
C591 C590 1.367 . S
C591 C599 1.433 . S
C592 H588 0.929 . S
C592 C594 1.378 . S
C592 C596 1.350 . S
C593 C596 1.463 . S
C593 C598 1.350 . S
C593 N601 1.427 . S
C594 H585 0.930 1_455 S
C594 C592 1.378 . S
C594 C595 1.367 . S
C595 C594 1.367 . S
C595 C597 1.433 . S
C596 C592 1.350 . S
C596 C593 1.463 . S
C596 N600 1.427 . S
C597 H587 0.929 . S
C597 C595 1.433 . S
C597 N600 1.384 . S
C598 H589 0.929 . S
C598 C590 1.378 . S
C598 C593 1.350 . S
C599 H586 0.929 . S
C599 C591 1.433 . S
C599 N601 1.384 . S
N600 C596 1.427 . S
N600 C597 1.384 . S
N601 C593 1.427 . S
N601 C599 1.384 . S
H602 C608 0.930 . S
H603 C612 0.930 . S
H604 C617 0.929 . S
H605 C615 0.929 . S
H606 C610 0.929 . S
H607 C616 0.929 . S
C608 H602 0.930 . S
C608 C609 1.367 . S
C608 C616 1.378 . S
C609 C608 1.367 . S
C609 C617 1.433 . S
C610 H606 0.929 . S
C610 C612 1.378 . S
C610 C614 1.350 . S
C611 C614 1.463 . S
C611 C616 1.350 . S
C611 N619 1.427 . S
C612 H603 0.930 . S
C612 C610 1.378 . S
C612 C613 1.367 . S
C613 C612 1.367 . S
C613 C615 1.433 . S
C614 C610 1.350 . S
C614 C611 1.463 . S
C614 N618 1.427 . S
C615 H605 0.929 . S
C615 C613 1.433 . S
C615 N618 1.384 . S
C616 H607 0.929 . S
C616 C608 1.378 . S
C616 C611 1.350 . S
C617 H604 0.929 . S
C617 C609 1.433 . S
C617 N619 1.384 . S
N618 C614 1.427 . S
N618 C615 1.384 . S
N619 C611 1.427 . S
N619 C617 1.384 . S
C195 C9 1.958 . S
C199 C122 1.909 . S
C213 C21 1.521 . S
C217 C139 1.479 . S
C235 C162 1.027 . S
C231 C30 1.199 . S
C249 C43 1.452 . S
C253 C183 1.271 1_655 S
C271 C142 1.624 . S
C267 C4 1.631 . S
C289 C119 2.090 . S
C285 C22 2.136 . S
C307 C181 1.044 . S
C303 C34 1.084 . S
C325 C160 1.244 . S
C321 C48 1.273 . S
C339 C8 1.791 . S
C343 C184 1.723 . S
C361 C141 1.328 . S
C357 C35 1.635 . S
C375 C47 1.703 . S
C379 C117 1.540 . S
C393 C17 1.374 . S
C397 C163 1.356 . S
C415 C121 1.591 . S
C411 C60 1.640 . S
C429 C74 1.594 . S
C433 C140 1.544 . S
C447 C82 1.036 . S
C451 C159 0.901 . S
C465 C100 1.899 . S
C469 C180 1.560 . S
C483 C61 2.022 . S
C487 C143 1.965 . S
C505 C118 1.698 . S
C501 C73 1.767 . S
C523 C182 1.344 . S
C519 C87 1.382 . S
C541 C161 1.157 . S
C537 C95 1.143 . S
C555 C56 1.548 . S
C559 C185 1.573 1_655 S
C577 C138 1.295 . S
C573 C86 1.559 . S
C595 C120 1.265 . S
C591 C99 1.418 . S
C609 C69 1.318 . S
C613 C164 1.346 . S
