# Generated by pormake.
# Topology wbl, (4,4)-cn, num edge types: 1
# Building blocks:
#     Node 0, Type 0, BuildingBlock: MUDLON_clean_linker_0, # of connection points: 4
#     Node 1, Type 0, BuildingBlock: MUDLON_clean_linker_0, # of connection points: 4
#     Node 2, Type 0, BuildingBlock: MUDLON_clean_linker_0, # of connection points: 4
#     Node 3, Type 0, BuildingBlock: MUDLON_clean_linker_0, # of connection points: 4
#     Node 4, Type 0, BuildingBlock: MUDLON_clean_linker_0, # of connection points: 4
#     Node 5, Type 0, BuildingBlock: MUDLON_clean_linker_0, # of connection points: 4
#     Node 6, Type 0, BuildingBlock: MUDLON_clean_linker_0, # of connection points: 4
#     Node 7, Type 0, BuildingBlock: MUDLON_clean_linker_0, # of connection points: 4
#     Node 8, Type 1, BuildingBlock: CEKHIL_clean_sbu_0, # of connection points: 4
#     Node 9, Type 1, BuildingBlock: CEKHIL_clean_sbu_0, # of connection points: 4
#     Node 10, Type 1, BuildingBlock: CEKHIL_clean_sbu_0, # of connection points: 4
#     Node 11, Type 1, BuildingBlock: CEKHIL_clean_sbu_0, # of connection points: 4
#     Node 12, Type 1, BuildingBlock: CEKHIL_clean_sbu_0, # of connection points: 4
#     Node 13, Type 1, BuildingBlock: CEKHIL_clean_sbu_0, # of connection points: 4
#     Node 14, Type 1, BuildingBlock: CEKHIL_clean_sbu_0, # of connection points: 4
#     Node 15, Type 1, BuildingBlock: CEKHIL_clean_sbu_0, # of connection points: 4
#     Edge 16, Type (0, 1), BuildingBlock: XUDNAN_clean_linker_2, # of connection points: 2
#     Edge 17, Type (0, 1), BuildingBlock: XUDNAN_clean_linker_2, # of connection points: 2
#     Edge 18, Type (0, 1), BuildingBlock: XUDNAN_clean_linker_2, # of connection points: 2
#     Edge 19, Type (0, 1), BuildingBlock: XUDNAN_clean_linker_2, # of connection points: 2
#     Edge 20, Type (0, 1), BuildingBlock: XUDNAN_clean_linker_2, # of connection points: 2
#     Edge 21, Type (0, 1), BuildingBlock: XUDNAN_clean_linker_2, # of connection points: 2
#     Edge 22, Type (0, 1), BuildingBlock: XUDNAN_clean_linker_2, # of connection points: 2
#     Edge 23, Type (0, 1), BuildingBlock: XUDNAN_clean_linker_2, # of connection points: 2
#     Edge 24, Type (0, 1), BuildingBlock: XUDNAN_clean_linker_2, # of connection points: 2
#     Edge 25, Type (0, 1), BuildingBlock: XUDNAN_clean_linker_2, # of connection points: 2
#     Edge 26, Type (0, 1), BuildingBlock: XUDNAN_clean_linker_2, # of connection points: 2
#     Edge 27, Type (0, 1), BuildingBlock: XUDNAN_clean_linker_2, # of connection points: 2
#     Edge 28, Type (0, 1), BuildingBlock: XUDNAN_clean_linker_2, # of connection points: 2
#     Edge 29, Type (0, 1), BuildingBlock: XUDNAN_clean_linker_2, # of connection points: 2
#     Edge 30, Type (0, 1), BuildingBlock: XUDNAN_clean_linker_2, # of connection points: 2
#     Edge 31, Type (0, 1), BuildingBlock: XUDNAN_clean_linker_2, # of connection points: 2
#     Edge 32, Type (0, 1), BuildingBlock: XUDNAN_clean_linker_2, # of connection points: 2
#     Edge 33, Type (0, 1), BuildingBlock: XUDNAN_clean_linker_2, # of connection points: 2
#     Edge 34, Type (0, 1), BuildingBlock: XUDNAN_clean_linker_2, # of connection points: 2
#     Edge 35, Type (0, 1), BuildingBlock: XUDNAN_clean_linker_2, # of connection points: 2
#     Edge 36, Type (0, 1), BuildingBlock: XUDNAN_clean_linker_2, # of connection points: 2
#     Edge 37, Type (0, 1), BuildingBlock: XUDNAN_clean_linker_2, # of connection points: 2
#     Edge 38, Type (0, 1), BuildingBlock: XUDNAN_clean_linker_2, # of connection points: 2
#     Edge 39, Type (0, 1), BuildingBlock: XUDNAN_clean_linker_2, # of connection points: 2
#     Edge 40, Type (0, 1), BuildingBlock: XUDNAN_clean_linker_2, # of connection points: 2
#     Edge 41, Type (0, 1), BuildingBlock: XUDNAN_clean_linker_2, # of connection points: 2
#     Edge 42, Type (0, 1), BuildingBlock: XUDNAN_clean_linker_2, # of connection points: 2
#     Edge 43, Type (0, 1), BuildingBlock: XUDNAN_clean_linker_2, # of connection points: 2
#     Edge 44, Type (0, 1), BuildingBlock: XUDNAN_clean_linker_2, # of connection points: 2
#     Edge 45, Type (0, 1), BuildingBlock: XUDNAN_clean_linker_2, # of connection points: 2
#     Edge 46, Type (0, 1), BuildingBlock: XUDNAN_clean_linker_2, # of connection points: 2
#     Edge 47, Type (0, 1), BuildingBlock: XUDNAN_clean_linker_2, # of connection points: 2
# Relax obj value: 0.123
# Max RMSD: 0.149
# Mean RMSD: 0.134
data_MOF--net-wbl--node1-CEKHIL_clean_sbu_0--node2-MUDLON_clean_linker_0--edge1-XUDNAN_clean_linker_2
_symmetry_space_group_name_H-M    P1
_symmetry_Int_Tables_number       1
_symmetry_cell_setting            triclinic
loop_
_symmetry_equiv_pos_as_xyz
'x, y, z'
_cell_length_a     53.537964
_cell_length_b     53.776588
_cell_length_c     76.855315
_cell_angle_alpha  90.298363
_cell_angle_beta   90.090917
_cell_angle_gamma 89.917692
loop_
_atom_site_label
_atom_site_type_symbol
_atom_site_fract_x
_atom_site_fract_y
_atom_site_fract_z
_atom_type_partial_charge
H0 H 0.08401 0.97831 0.32512 0.0
N1 N 0.06547 0.94384 0.30205 0.0
H2 H 0.09417 0.97144 0.35553 0.0
H3 H 0.05811 0.9027 0.32035 0.0
H4 H 0.06775 0.89575 0.35115 0.0
H5 H 0.06741 0.90871 0.27778 0.0
H6 H 0.10485 0.89212 0.26368 0.0
H7 H 0.11148 0.96637 0.30187 0.0
H8 H 0.14907 0.94934 0.28862 0.0
H9 H 0.07607 0.9932 0.29669 0.0
H10 H 0.01684 0.93912 0.29692 0.0
H11 H 0.04543 0.02663 0.29427 0.0
H12 H 0.986 0.97224 0.29339 0.0
H13 H 0.91012 0.06351 0.32373 0.0
H14 H 0.89813 0.08066 0.35188 0.0
H15 H 0.95161 0.13984 0.3456 0.0
H16 H 0.96455 0.12184 0.31755 0.0
H17 H 0.9072 0.0498 0.29258 0.0
H18 H 0.8671 0.05943 0.27904 0.0
H19 H 0.89117 0.13532 0.27146 0.0
H20 H 0.93142 0.12521 0.28452 0.0
H21 H 0.98493 0.08265 0.2817 0.0
H22 H 0.01463 0.04828 0.27823 0.0
H23 H 0.9684 0.00276 0.31134 0.0
N24 N 0.9437 0.08378 0.30085 0.0
H25 H 0.93864 0.03638 0.31394 0.0
C26 C 0.07012 0.94096 0.32041 0.0
C27 C 0.08018 0.96028 0.33062 0.0
C28 C 0.08594 0.95635 0.34811 0.0
C29 C 0.08177 0.93304 0.35579 0.0
C30 C 0.07148 0.91383 0.34558 0.0
C31 C 0.06575 0.9178 0.32807 0.0
C32 C 0.08656 0.93855 0.291 0.0
C33 C 0.08508 0.91811 0.2797 0.0
C34 C 0.10658 0.90848 0.27186 0.0
C35 C 0.13015 0.91898 0.27535 0.0
C36 C 0.1313 0.94075 0.28558 0.0
C37 C 0.1097 0.95052 0.29326 0.0
C38 C 0.04865 0.96363 0.29729 0.0
C39 C 0.05649 0.98846 0.29586 0.0
C40 C 0.03885 0.00761 0.29432 0.0
C41 C 0.01308 0.00227 0.29393 0.0
C42 C 0.00557 0.9772 0.29415 0.0
C43 C 0.02316 0.95818 0.29594 0.0
C44 C 0.93881 0.09107 0.31862 0.0
C45 C 0.92019 0.07946 0.32864 0.0
C46 C 0.91313 0.0894 0.34472 0.0
C47 C 0.924 0.11148 0.35085 0.0
C48 C 0.94303 0.12273 0.34111 0.0
C49 C 0.9505 0.11244 0.3252 0.0
C50 C 0.92241 0.08686 0.28954 0.0
C51 C 0.90416 0.06829 0.28754 0.0
C52 C 0.88106 0.07393 0.27995 0.0
C53 C 0.87567 0.09828 0.27436 0.0
C54 C 0.89461 0.11632 0.2754 0.0
C55 C 0.91769 0.11061 0.28287 0.0
C56 C 0.95962 0.06239 0.29817 0.0
C57 C 0.98113 0.06508 0.28798 0.0
C58 C 0.99818 0.04547 0.28614 0.0
C59 C 0.9941 0.02266 0.29457 0.0
C60 C 0.97212 0.01982 0.30441 0.0
C61 C 0.95502 0.03934 0.30609 0.0
H62 H 0.00063 0.39966 0.59702 0.0
N63 N 0.98793 0.41971 0.56675 0.0
H64 H 0.97312 0.39246 0.62195 0.0
H65 H 0.94222 0.44153 0.57191 0.0
H66 H 0.91496 0.4348 0.5967 0.0
H67 H 0.95243 0.43192 0.54255 0.0
H68 H 0.92703 0.402 0.52614 0.0
H69 H 0.99817 0.37211 0.56178 0.0
H70 H 0.9732 0.34213 0.54537 0.0
H71 H 0.0368 0.4207 0.56197 0.0
H72 H 0.97113 0.46691 0.55945 0.0
H73 H 0.063 0.45668 0.55554 0.0
H74 H 0.99711 0.50318 0.5538 0.0
H75 H 0.13015 0.58124 0.57648 0.0
H76 H 0.13074 0.59433 0.60703 0.0
H77 H 0.05001 0.59778 0.60674 0.0
H78 H 0.04971 0.5835 0.57655 0.0
H79 H 0.04821 0.59989 0.54818 0.0
H80 H 0.04724 0.63964 0.53383 0.0
H81 H 0.12768 0.63641 0.52793 0.0
H82 H 0.12758 0.59485 0.53995 0.0
H83 H 0.10083 0.52997 0.57135 0.0
H84 H 0.07621 0.49213 0.57134 0.0
H85 H 0.02518 0.52476 0.53431 0.0
N86 N 0.0904 0.57305 0.55644 0.0
H87 H 0.04973 0.56259 0.53432 0.0
C88 C 0.97365 0.42113 0.5826 0.0
C89 C 0.98223 0.40805 0.59717 0.0
C90 C 0.96647 0.40393 0.61136 0.0
C91 C 0.94176 0.41278 0.61116 0.0
C92 C 0.93379 0.42743 0.5971 0.0
C93 C 0.94955 0.43155 0.58295 0.0
C94 C 0.97708 0.4041 0.55351 0.0
C95 C 0.95742 0.41244 0.54287 0.0
C96 C 0.94284 0.39531 0.53358 0.0
C97 C 0.94792 0.36967 0.53462 0.0
C98 C 0.96887 0.36173 0.54415 0.0
C99 C 0.98322 0.37881 0.55352 0.0
C100 C 0.00213 0.4411 0.5615 0.0
C101 C 0.02806 0.43863 0.55997 0.0
C102 C 0.04297 0.45926 0.5564 0.0
C103 C 0.03224 0.48299 0.55442 0.0
C104 C 0.00604 0.48522 0.55515 0.0
C105 C 0.9911 0.46444 0.55859 0.0
C106 C 0.08999 0.58139 0.57431 0.0
C107 C 0.11266 0.58488 0.58309 0.0
C108 C 0.11292 0.59261 0.60046 0.0
C109 C 0.09041 0.59717 0.60936 0.0
C110 C 0.06768 0.59415 0.60037 0.0
C111 C 0.06745 0.5862 0.58305 0.0
C112 C 0.08795 0.59374 0.54464 0.0
C113 C 0.06544 0.60699 0.54284 0.0
C114 C 0.0651 0.63041 0.53508 0.0
C115 C 0.0875 0.64217 0.53009 0.0
C116 C 0.10985 0.62836 0.53127 0.0
C117 C 0.10992 0.60437 0.5382 0.0
C118 C 0.07683 0.54997 0.55361 0.0
C119 C 0.08443 0.52901 0.56311 0.0
C120 C 0.07035 0.50722 0.563 0.0
C121 C 0.04839 0.50546 0.55304 0.0
C122 C 0.04158 0.52576 0.54255 0.0
C123 C 0.0557 0.54771 0.54271 0.0
H124 H 0.60105 0.46373 0.8287 0.0
N125 N 0.56537 0.44666 0.80607 0.0
H126 H 0.61482 0.44309 0.85532 0.0
H127 H 0.5441 0.40806 0.8214 0.0
H128 H 0.55865 0.38664 0.8477 0.0
H129 H 0.56925 0.40505 0.78799 0.0
H130 H 0.60522 0.39037 0.77177 0.0
H131 H 0.60515 0.47565 0.79647 0.0
H132 H 0.64089 0.46186 0.77919 0.0
H133 H 0.5769 0.49402 0.81709 0.0
H134 H 0.52038 0.44972 0.79177 0.0
H135 H 0.54914 0.52996 0.81668 0.0
H136 H 0.4923 0.48578 0.79132 0.0
H137 H 0.45265 0.63182 0.83141 0.0
H138 H 0.43267 0.63897 0.85977 0.0
H139 H 0.39913 0.56612 0.85686 0.0
H140 H 0.41981 0.55874 0.82892 0.0
H141 H 0.41441 0.55755 0.79856 0.0
H142 H 0.37613 0.56666 0.78265 0.0
H143 H 0.3974 0.6441 0.78004 0.0
H144 H 0.43625 0.63445 0.79518 0.0
H145 H 0.48107 0.57512 0.83474 0.0
H146 H 0.51042 0.54106 0.83203 0.0
H147 H 0.48658 0.52864 0.77906 0.0
N148 N 0.44809 0.59213 0.81076 0.0
H149 H 0.45709 0.5629 0.78158 0.0
C150 C 0.57107 0.43771 0.82325 0.0
C151 C 0.59088 0.44763 0.83313 0.0
C152 C 0.59893 0.43569 0.84825 0.0
C153 C 0.58777 0.41333 0.85345 0.0
C154 C 0.56748 0.40389 0.84391 0.0
C155 C 0.55909 0.41614 0.82902 0.0
C156 C 0.58435 0.4414 0.79333 0.0
C157 C 0.58459 0.41773 0.78571 0.0
C158 C 0.60529 0.40943 0.77636 0.0
C159 C 0.62628 0.42484 0.77408 0.0
C160 C 0.62538 0.44923 0.7809 0.0
C161 C 0.60472 0.45735 0.7906 0.0
C162 C 0.55062 0.46899 0.80457 0.0
C163 C 0.55862 0.49197 0.81132 0.0
C164 C 0.54264 0.51258 0.81113 0.0
C165 C 0.51841 0.51068 0.80411 0.0
C166 C 0.51088 0.48793 0.79672 0.0
C167 C 0.52683 0.46731 0.79701 0.0
C168 C 0.43756 0.59495 0.82798 0.0
C169 C 0.44123 0.61734 0.83703 0.0
C170 C 0.42983 0.62137 0.85315 0.0
C171 C 0.41422 0.60316 0.86035 0.0
C172 C 0.41083 0.58055 0.85144 0.0
C173 C 0.42259 0.57635 0.83548 0.0
C174 C 0.42841 0.59537 0.79801 0.0
C175 C 0.41122 0.57634 0.7941 0.0
C176 C 0.3891 0.58168 0.78516 0.0
C177 C 0.38329 0.60625 0.78031 0.0
C178 C 0.4012 0.62492 0.78335 0.0
C179 C 0.4235 0.61946 0.79202 0.0
C180 C 0.46494 0.57087 0.80889 0.0
C181 C 0.48145 0.56485 0.82259 0.0
C182 C 0.49871 0.54551 0.82096 0.0
C183 C 0.50058 0.53187 0.80542 0.0
C184 C 0.48509 0.5384 0.79138 0.0
C185 C 0.46789 0.55797 0.79295 0.0
H186 H 0.47316 0.93418 0.0809 0.0
N187 N 0.44193 0.94104 0.05293 0.0
H188 H 0.46063 0.92595 0.11081 0.0
H189 H 0.39571 0.93833 0.06554 0.0
H190 H 0.38307 0.92935 0.09559 0.0
H191 H 0.41781 0.93587 0.02286 0.0
H192 H 0.40629 0.89685 0.0085 0.0
H193 H 0.462 0.89528 0.06005 0.0
H194 H 0.44927 0.85628 0.04675 0.0
H195 H 0.49065 0.92766 0.04572 0.0
H196 H 0.44174 0.99022 0.05443 0.0
H197 H 0.52625 0.95559 0.04387 0.0
H198 H 0.4774 0.01825 0.05371 0.0
H199 H 0.62745 0.05863 0.08022 0.0
H200 H 0.62978 0.07015 0.11113 0.0
H201 H 0.54983 0.0809 0.1119 0.0
H202 H 0.54766 0.06964 0.08109 0.0
H203 H 0.56307 0.10166 0.05921 0.0
H204 H 0.57799 0.13882 0.04456 0.0
H205 H 0.63743 0.09586 0.02104 0.0
H206 H 0.62273 0.0588 0.0363 0.0
H207 H 0.58611 0.00811 0.06623 0.0
H208 H 0.55146 0.97935 0.06211 0.0
H209 H 0.50847 0.03804 0.03801 0.0
N210 N 0.58696 0.05652 0.06013 0.0
H211 H 0.5425 0.06689 0.04319 0.0
C212 C 0.43528 0.93747 0.07097 0.0
C213 C 0.45346 0.93366 0.08396 0.0
C214 C 0.44629 0.92879 0.10105 0.0
C215 C 0.4209 0.92706 0.10545 0.0
C216 C 0.40276 0.9305 0.09248 0.0
C217 C 0.40993 0.93583 0.07542 0.0
C218 C 0.44027 0.91853 0.04268 0.0
C219 C 0.42536 0.91855 0.02772 0.0
C220 C 0.41854 0.89618 0.01971 0.0
C221 C 0.42618 0.87325 0.02674 0.0
C222 C 0.44297 0.87343 0.04087 0.0
C223 C 0.45015 0.89584 0.04864 0.0
C224 C 0.4633 0.9569 0.05006 0.0
C225 C 0.48745 0.94742 0.04706 0.0
C226 C 0.50795 0.9635 0.04622 0.0
C227 C 0.5049 0.98931 0.04872 0.0
C228 C 0.48061 0.99865 0.05135 0.0
C229 C 0.46013 0.98263 0.05189 0.0
C230 C 0.58745 0.06286 0.07842 0.0
C231 C 0.61047 0.06343 0.08711 0.0
C232 C 0.61178 0.07019 0.10467 0.0
C233 C 0.58997 0.07634 0.11389 0.0
C234 C 0.56689 0.07597 0.10514 0.0
C235 C 0.56563 0.06948 0.08755 0.0
C236 C 0.59202 0.07741 0.04897 0.0
C237 C 0.57902 0.10008 0.05065 0.0
C238 C 0.58751 0.12136 0.04216 0.0
C239 C 0.60913 0.12041 0.03181 0.0
C240 C 0.62101 0.09733 0.02919 0.0
C241 C 0.61253 0.07609 0.03774 0.0
C242 C 0.56716 0.03967 0.05509 0.0
C243 C 0.56929 0.01463 0.05986 0.0
C244 C 0.54944 0.99817 0.05737 0.0
C245 C 0.52694 0.00627 0.04976 0.0
C246 C 0.52524 0.03117 0.04424 0.0
C247 C 0.54497 0.04776 0.04704 0.0
H248 H 0.10059 0.5547 0.93491 0.0
N249 N 0.05686 0.57592 0.94613 0.0
H250 H 0.12091 0.56148 0.90705 0.0
H251 H 0.03979 0.60254 0.91956 0.0
H252 H 0.06034 0.60965 0.89147 0.0
H253 H 0.06369 0.62251 0.95578 0.0
H254 H 0.09852 0.63899 0.97241 0.0
H255 H 0.08752 0.5478 0.96725 0.0
H256 H 0.12183 0.56403 0.98476 0.0
H257 H 0.06994 0.52661 0.94228 0.0
H258 H 0.00913 0.57592 0.95534 0.0
H259 H 0.04152 0.49139 0.94239 0.0
H260 H 0.98038 0.54044 0.9555 0.0
H261 H 0.94534 0.38901 0.92227 0.0
H262 H 0.92843 0.37827 0.89347 0.0
H263 H 0.89868 0.45256 0.8887 0.0
H264 H 0.91643 0.46348 0.91711 0.0
H265 H 0.90217 0.46557 0.94559 0.0
H266 H 0.8629 0.45754 0.96057 0.0
H267 H 0.88884 0.38365 0.97331 0.0
H268 H 0.92831 0.39217 0.95866 0.0
H269 H 0.97796 0.44465 0.91889 0.0
H270 H 0.00704 0.47885 0.92261 0.0
H271 H 0.97058 0.4998 0.97051 0.0
N272 N 0.93965 0.43158 0.93967 0.0
H273 H 0.94153 0.46556 0.96706 0.0
C274 C 0.06836 0.57789 0.92924 0.0
C275 C 0.09132 0.56629 0.92544 0.0
C276 C 0.10303 0.57027 0.9095 0.0
C277 C 0.09222 0.58612 0.89714 0.0
C278 C 0.06918 0.59752 0.90086 0.0
C279 C 0.05734 0.59333 0.91677 0.0
C280 C 0.07295 0.58403 0.96011 0.0
C281 C 0.07586 0.60967 0.96256 0.0
C282 C 0.0959 0.61904 0.97214 0.0
C283 C 0.1134 0.60288 0.9798 0.0
C284 C 0.10914 0.57707 0.97868 0.0
C285 C 0.08921 0.5677 0.96883 0.0
C286 C 0.04163 0.55413 0.94869 0.0
C287 C 0.05058 0.52994 0.94541 0.0
C288 C 0.03423 0.50972 0.94538 0.0
C289 C 0.00866 0.5132 0.94873 0.0
C290 C 1.0 0.53716 0.95294 0.0
C291 C 0.01636 0.55742 0.95285 0.0
C292 C 0.93194 0.42686 0.92192 0.0
C293 C 0.93556 0.40305 0.91485 0.0
C294 C 0.92589 0.39697 0.89848 0.0
C295 C 0.91205 0.41454 0.88903 0.0
C296 C 0.909 0.43862 0.89587 0.0
C297 C 0.91909 0.44484 0.9121 0.0
C298 C 0.9183 0.4294 0.95106 0.0
C299 C 0.89959 0.44781 0.95186 0.0
C300 C 0.87704 0.44313 0.96037 0.0
C301 C 0.87256 0.41986 0.96803 0.0
C302 C 0.89172 0.40191 0.9678 0.0
C303 C 0.91431 0.4067 0.95942 0.0
C304 C 0.95601 0.45303 0.94193 0.0
C305 C 0.97565 0.45682 0.93004 0.0
C306 C 0.99264 0.47622 0.9323 0.0
C307 C 0.99089 0.4922 0.94674 0.0
C308 C 0.97199 0.48811 0.95902 0.0
C309 C 0.95507 0.46851 0.95686 0.0
H310 H 0.54751 0.40324 0.17039 0.0
N311 N 0.57471 0.43989 0.18638 0.0
H312 H 0.55429 0.3867 0.14118 0.0
H313 H 0.60427 0.45865 0.16191 0.0
H314 H 0.61136 0.44195 0.13255 0.0
H315 H 0.61708 0.41576 0.19192 0.0
H316 H 0.62217 0.37482 0.20456 0.0
H317 H 0.53957 0.41631 0.20713 0.0
H318 H 0.5449 0.37633 0.22099 0.0
H319 H 0.52399 0.43727 0.18095 0.0
H320 H 0.58299 0.4847 0.19993 0.0
H321 H 0.494 0.47091 0.18475 0.0
H322 H 0.55282 0.5187 0.20389 0.0
H323 H 0.40241 0.56038 0.18294 0.0
H324 H 0.38026 0.57231 0.15631 0.0
H325 H 0.4462 0.61055 0.13843 0.0
H326 H 0.46809 0.59875 0.16514 0.0
H327 H 0.47939 0.61486 0.19453 0.0
H328 H 0.47131 0.65431 0.20927 0.0
H329 H 0.40239 0.62426 0.2296 0.0
H330 H 0.41157 0.58463 0.21564 0.0
H331 H 0.44213 0.53012 0.20623 0.0
H332 H 0.47319 0.49662 0.20712 0.0
H333 H 0.5277 0.54574 0.18429 0.0
N334 N 0.4474 0.57514 0.19298 0.0
H335 H 0.49667 0.57901 0.18356 0.0
C336 C 0.5755 0.43225 0.16835 0.0
C337 C 0.56105 0.41223 0.16211 0.0
C338 C 0.56511 0.40261 0.14545 0.0
C339 C 0.58355 0.41285 0.13468 0.0
C340 C 0.59694 0.43376 0.14054 0.0
C341 C 0.59295 0.4433 0.15727 0.0
C342 C 0.57798 0.41924 0.19822 0.0
C343 C 0.60139 0.40747 0.1986 0.0
C344 C 0.60424 0.38393 0.20592 0.0
C345 C 0.58381 0.3717 0.21355 0.0
C346 C 0.56089 0.38459 0.21466 0.0
C347 C 0.55788 0.40789 0.20688 0.0
C348 C 0.55589 0.45839 0.19027 0.0
C349 C 0.5305 0.45479 0.18619 0.0
C350 C 0.51327 0.47409 0.18844 0.0
C351 C 0.52101 0.49751 0.19462 0.0
C352 C 0.5463 0.50094 0.19898 0.0
C353 C 0.5635 0.48152 0.19687 0.0
C354 C 0.43682 0.57855 0.17597 0.0
C355 C 0.41221 0.5708 0.17305 0.0
C356 C 0.3996 0.57777 0.15795 0.0
C357 C 0.4115 0.59251 0.14542 0.0
C358 C 0.43668 0.59903 0.14784 0.0
C359 C 0.44922 0.59225 0.16309 0.0
C360 C 0.44621 0.59659 0.20422 0.0
C361 C 0.46307 0.61646 0.20269 0.0
C362 C 0.45813 0.63926 0.21092 0.0
C363 C 0.43602 0.64279 0.22057 0.0
C364 C 0.41984 0.62238 0.22262 0.0
C365 C 0.425 0.59959 0.21463 0.0
C366 C 0.46702 0.55705 0.19494 0.0
C367 C 0.46092 0.5337 0.20169 0.0
C368 C 0.47862 0.51458 0.20207 0.0
C369 C 0.5029 0.51848 0.19571 0.0
C370 C 0.50925 0.54221 0.18947 0.0
C371 C 0.49144 0.56131 0.18901 0.0
H372 H 0.40377 0.99736 0.41039 0.0
N373 N 0.41421 0.97636 0.44086 0.0
H374 H 0.39295 0.97622 0.38299 0.0
H375 H 0.41739 0.92627 0.43433 0.0
H376 H 0.40619 0.90519 0.40728 0.0
H377 H 0.42057 0.93939 0.46487 0.0
H378 H 0.38678 0.91955 0.48128 0.0
H379 H 0.36882 0.9942 0.44577 0.0
H380 H 0.33506 0.97464 0.46177 0.0
H381 H 0.42768 0.0181 0.45692 0.0
H382 H 0.45753 0.94919 0.43696 0.0
H383 H 0.46998 0.03312 0.46247 0.0
H384 H 0.49957 0.96461 0.44098 0.0
H385 H 0.58945 0.08899 0.44075 0.0
H386 H 0.59695 0.11514 0.41592 0.0
H387 H 0.59053 0.05092 0.38196 0.0
H388 H 0.58578 0.02439 0.40742 0.0
H389 H 0.63461 0.02374 0.44004 0.0
H390 H 0.66908 0.04194 0.45623 0.0
H391 H 0.61658 0.08428 0.48725 0.0
H392 H 0.5821 0.06635 0.47037 0.0
H393 H 0.54439 0.06564 0.44327 0.0
H394 H 0.50256 0.04931 0.44707 0.0
H395 H 0.53352 0.97633 0.45704 0.0
N396 N 0.58739 0.03794 0.44083 0.0
H397 H 0.57531 0.99267 0.45165 0.0
C398 C 0.41121 0.96353 0.42443 0.0
C399 C 0.40476 0.97727 0.40966 0.0
C400 C 0.39855 0.96518 0.39409 0.0
C401 C 0.39843 0.93907 0.39313 0.0
C402 C 0.40572 0.92532 0.40776 0.0
C403 C 0.41222 0.93741 0.42323 0.0
C404 C 0.39704 0.96823 0.45405 0.0
C405 C 0.40209 0.94757 0.46463 0.0
C406 C 0.38271 0.93613 0.47385 0.0
C407 C 0.35811 0.94531 0.47273 0.0
C408 C 0.35373 0.96716 0.46319 0.0
C409 C 0.37301 0.97845 0.454 0.0
C410 C 0.43927 0.98281 0.44619 0.0
C411 C 0.44338 0.00616 0.45383 0.0
C412 C 0.46766 0.01482 0.45677 0.0
C413 C 0.48851 0.00044 0.45181 0.0
C414 C 0.48424 0.97633 0.44514 0.0
C415 C 0.45994 0.96748 0.44259 0.0
C416 C 0.58789 0.05444 0.42603 0.0
C417 C 0.58991 0.08039 0.42802 0.0
C418 C 0.59381 0.09554 0.41361 0.0
C419 C 0.59479 0.08533 0.39671 0.0
C420 C 0.59087 0.05953 0.39471 0.0
C421 C 0.58777 0.04428 0.40923 0.0
C422 C 0.60589 0.04369 0.45391 0.0
C423 C 0.63053 0.03627 0.45075 0.0
C424 C 0.65024 0.04677 0.46009 0.0
C425 C 0.64573 0.06488 0.47299 0.0
C426 C 0.62078 0.07074 0.4772 0.0
C427 C 0.60099 0.06023 0.46773 0.0
C428 C 0.56302 0.03016 0.44668 0.0
C429 C 0.54223 0.04616 0.44637 0.0
C430 C 0.51815 0.03672 0.44877 0.0
C431 C 0.51431 0.01122 0.45204 0.0
C432 C 0.53546 0.99584 0.45394 0.0
C433 C 0.55947 0.00519 0.45111 0.0
H434 H 0.04966 0.89702 0.68604 0.0
N435 N 0.06851 0.93776 0.70309 0.0
H436 H 0.06083 0.88265 0.65694 0.0
H437 H 0.09804 0.96049 0.68026 0.0
H438 H 0.10946 0.94606 0.65097 0.0
H439 H 0.11153 0.91649 0.71123 0.0
H440 H 0.11762 0.87591 0.72397 0.0
H441 H 0.03275 0.91265 0.72259 0.0
H442 H 0.03895 0.87307 0.73678 0.0
H443 H 0.01988 0.92828 0.69368 0.0
H444 H 0.06866 0.98406 0.71547 0.0
H445 H 0.98624 0.95864 0.69191 0.0
H446 H 0.03489 0.01486 0.71356 0.0
H447 H 0.89202 0.05529 0.66697 0.0
H448 H 0.88625 0.07259 0.63773 0.0
H449 H 0.95964 0.10552 0.64058 0.0
H450 H 0.96563 0.08747 0.66951 0.0
H451 H 0.963 0.09864 0.69897 0.0
H452 H 0.95118 0.13735 0.71353 0.0
H453 H 0.87502 0.11116 0.71706 0.0
H454 H 0.88733 0.07226 0.70309 0.0
H455 H 0.94724 0.02488 0.66742 0.0
H456 H 0.97956 0.99451 0.67319 0.0
H457 H 0.9921 0.02718 0.72384 0.0
N458 N 0.93074 0.06185 0.68825 0.0
H459 H 0.95973 0.05786 0.71817 0.0
C460 C 0.07314 0.92991 0.68536 0.0
C461 C 0.0625 0.90804 0.67844 0.0
C462 C 0.06907 0.89968 0.66185 0.0
C463 C 0.08619 0.9131 0.65177 0.0
C464 C 0.09614 0.9354 0.65844 0.0
C465 C 0.08969 0.94366 0.67512 0.0
C466 C 0.0717 0.91762 0.71539 0.0
C467 C 0.09567 0.90732 0.71712 0.0
C468 C 0.0991 0.88394 0.72454 0.0
C469 C 0.07867 0.87048 0.73109 0.0
C470 C 0.05504 0.88216 0.73119 0.0
C471 C 0.05148 0.90524 0.72319 0.0
C472 C 0.04699 0.95388 0.70472 0.0
C473 C 0.02331 0.94696 0.69835 0.0
C474 C 0.00407 0.96444 0.69722 0.0
C475 C 0.008 0.98929 0.70234 0.0
C476 C 0.03122 0.99587 0.70958 0.0
C477 C 0.05051 0.97831 0.71069 0.0
C478 C 0.92904 0.07031 0.67047 0.0
C479 C 0.90697 0.06591 0.66114 0.0
C480 C 0.90374 0.07576 0.6445 0.0
C481 C 0.92245 0.09052 0.63702 0.0
C482 C 0.94485 0.09443 0.64617 0.0
C483 C 0.94825 0.08419 0.66269 0.0
C484 C 0.92599 0.08239 0.70003 0.0
C485 C 0.94391 0.101 0.70327 0.0
C486 C 0.93703 0.12328 0.71146 0.0
C487 C 0.91204 0.12764 0.71632 0.0
C488 C 0.8945 0.10848 0.71378 0.0
C489 C 0.90147 0.08614 0.70578 0.0
C490 C 0.95159 0.04511 0.69177 0.0
C491 C 0.95723 0.02616 0.67965 0.0
C492 C 0.97554 0.00837 0.68308 0.0
C493 C 0.98852 0.00847 0.69895 0.0
C494 C 0.98275 0.02691 0.71134 0.0
C495 C 0.96424 0.04475 0.70794 0.0
Co496 Co 0.32676 0.66107 0.00858 0.0
O497 O 0.30105 0.63593 0.00688 0.0
O498 O 0.29682 0.67534 -0.00096 0.0
C499 C 0.33826 0.65218 0.03604 0.0
O500 O 0.34732 0.69282 0.00896 0.0
Co501 Co 0.38267 0.65 0.01421 0.0
O502 O 0.38668 0.68629 0.0178 0.0
C503 C 0.36033 0.64278 0.97932 0.0
C504 C 0.28673 0.65362 0.00112 0.0
C505 C 0.36903 0.70086 0.01341 0.0
O506 O 0.33949 0.65191 0.98472 0.0
O507 O 0.37921 0.63925 0.98926 0.0
O508 O 0.3189 0.66604 0.03296 0.0
O509 O 0.3492 0.6427 0.02253 0.0
Co510 Co 0.34198 0.85565 0.24367 0.0
O511 O 0.31567 0.88026 0.24546 0.0
O512 O 0.31093 0.83987 0.24973 0.0
C513 C 0.35795 0.87058 0.21865 0.0
O514 O 0.3633 0.82424 0.24262 0.0
Co515 Co 0.39857 0.86768 0.24302 0.0
O516 O 0.40333 0.83232 0.23617 0.0
C517 C 0.36941 0.87278 0.2757 0.0
C518 C 0.30091 0.86187 0.2492 0.0
C519 C 0.38555 0.8171 0.23872 0.0
O520 O 0.3508 0.86104 0.26892 0.0
O521 O 0.38886 0.87898 0.26705 0.0
O522 O 0.33882 0.85568 0.21817 0.0
O523 O 0.366 0.8764 0.23392 0.0
Co524 Co 0.14205 0.85451 0.49641 0.0
O525 O 0.11235 0.8347 0.49836 0.0
O526 O 0.15088 0.82059 0.50218 0.0
C527 C 0.13124 0.87345 0.47139 0.0
O528 O 0.17717 0.8692 0.49506 0.0
Co529 Co 0.13863 0.91225 0.49757 0.0
O530 O 0.17484 0.91082 0.49253 0.0
C531 C 0.13133 0.88335 0.52963 0.0
C532 C 0.12699 0.8162 0.50201 0.0
C533 C 0.18741 0.89069 0.49313 0.0
O534 O 0.1392 0.86358 0.52184 0.0
O535 O 0.12769 0.90397 0.52178 0.0
O536 O 0.14126 0.85141 0.47103 0.0
O537 O 0.12632 0.88219 0.48666 0.0
Co538 Co 0.15449 0.66269 0.75853 0.0
O539 O 0.12302 0.68005 0.75874 0.0
O540 O 0.15887 0.69622 0.74999 0.0
C541 C 0.15102 0.64655 0.78535 0.0
O542 O 0.19081 0.65085 0.7571 0.0
Co543 Co 0.15663 0.60486 0.76147 0.0
O544 O 0.19283 0.61062 0.76497 0.0
C545 C 0.13599 0.62896 0.73022 0.0
C546 C 0.13507 0.69908 0.75275 0.0
C547 C 0.20328 0.63116 0.76116 0.0
O548 O 0.14657 0.64964 0.73443 0.0
O549 O 0.13568 0.60993 0.74015 0.0
O550 O 0.15875 0.66928 0.78349 0.0
O551 O 0.14387 0.63541 0.77134 0.0
Co552 Co 0.85258 0.17685 0.49195 0.0
O553 O 0.87915 0.20081 0.49307 0.0
O554 O 0.84109 0.20682 0.50352 0.0
C555 C 0.85843 0.16708 0.46368 0.0
O556 O 0.81995 0.15715 0.49254 0.0
Co557 Co 0.86323 0.12153 0.4845 0.0
O558 O 0.82653 0.11816 0.48297 0.0
C559 C 0.87421 0.14189 0.51926 0.0
C560 C 0.86341 0.21552 0.50079 0.0
C561 C 0.81197 0.13541 0.48814 0.0
O562 O 0.86387 0.16251 0.51483 0.0
O563 O 0.87716 0.1236 0.50874 0.0
O564 O 0.84537 0.18644 0.46816 0.0
O565 O 0.86899 0.15516 0.47631 0.0
Co566 Co 0.83273 0.34803 0.74014 0.0
O567 O 0.81001 0.37596 0.74178 0.0
O568 O 0.8005 0.33689 0.74803 0.0
C569 C 0.84755 0.35744 0.71355 0.0
O570 O 0.84983 0.31406 0.73955 0.0
Co571 Co 0.88998 0.35324 0.73698 0.0
O572 O 0.88963 0.31741 0.7308 0.0
C573 C 0.86541 0.36187 0.77099 0.0
C574 C 0.79334 0.35987 0.74656 0.0
C575 C 0.87065 0.30432 0.73464 0.0
O576 O 0.84439 0.35447 0.76469 0.0
O577 O 0.88528 0.36399 0.76184 0.0
O578 O 0.82656 0.34561 0.71524 0.0
O579 O 0.85814 0.36456 0.72785 0.0
Co580 Co 0.65959 0.33019 0.9893 0.0
O581 O 0.63617 0.30285 0.99105 0.0
O582 O 0.6755 0.30222 3e-05 0.0
C583 C 0.65083 0.34007 0.96153 0.0
O584 O 0.68999 0.3527 0.98945 0.0
Co585 Co 0.64551 0.38494 0.98243 0.0
O586 O 0.68177 0.39045 0.97862 0.0
C587 C 0.63718 0.36335 0.01729 0.0
C588 C 0.65452 0.2905 0.99803 0.0
C589 C 0.69706 0.37423 0.98425 0.0
O590 O 0.64855 0.34333 0.01259 0.0
O591 O 0.6328 0.38143 0.00692 0.0
O592 O 0.66582 0.32172 0.96503 0.0
O593 O 0.6404 0.3508 0.97475 0.0
Co594 Co 0.64851 0.16621 0.25702 0.0
O595 O 0.61803 0.18473 0.25393 0.0
O596 O 0.65492 0.19585 0.24355 0.0
C597 C 0.64333 0.15975 0.28571 0.0
O598 O 0.68412 0.15248 0.25802 0.0
Co599 Co 0.64794 0.11115 0.26927 0.0
O600 O 0.68452 0.11557 0.27167 0.0
C601 C 0.6307 0.12438 0.23397 0.0
C602 C 0.6313 0.20083 0.24549 0.0
C603 C 0.69582 0.13385 0.26473 0.0
O604 O 0.64069 0.14607 0.23542 0.0
O605 O 0.62948 0.10893 0.24657 0.0
O606 O 0.65254 0.18066 0.28029 0.0
O607 O 0.63602 0.14447 0.27378 0.0
H608 H 0.17488 0.93929 0.26423 0.0
H609 H 0.13867 0.86877 0.27495 0.0
H610 H 0.17775 0.84671 0.26822 0.0
H611 H 0.21484 0.91706 0.2289 0.0
H612 H 0.24098 0.93599 0.23552 0.0
H613 H 0.20957 0.9463 0.2399 0.0
H614 H 0.22033 0.95047 0.27266 0.0
H615 H 0.25172 0.94007 0.2684 0.0
H616 H 0.23278 0.92401 0.28411 0.0
H617 H 0.22118 0.83222 0.26208 0.0
H618 H 0.26608 0.82628 0.2562 0.0
H619 H 0.27479 0.90601 0.25002 0.0
C620 C 0.17509 0.9192 0.26507 0.0
C621 C 0.15345 0.90583 0.26994 0.0
C622 C 0.15468 0.87951 0.27083 0.0
C623 C 0.1769 0.86675 0.26717 0.0
C624 C 0.19788 0.88051 0.26264 0.0
C625 C 0.1972 0.90613 0.2615 0.0
C626 C 0.2227 0.91644 0.25692 0.0
C627 C 0.22197 0.92973 0.23926 0.0
C628 C 0.23245 0.93377 0.27139 0.0
C629 C 0.23784 0.89262 0.2559 0.0
C630 C 0.2231 0.87212 0.25919 0.0
C631 C 0.2329 0.84811 0.25937 0.0
C632 C 0.25845 0.84494 0.25605 0.0
C633 C 0.27396 0.86566 0.25262 0.0
C634 C 0.26342 0.8898 0.25253 0.0
H635 H 0.12231 0.6682 0.51012 0.0
H636 H 0.05417 0.67888 0.54021 0.0
H637 H 0.05566 0.72331 0.53417 0.0
H638 H 0.15217 0.72146 0.52818 0.0
H639 H 0.16859 0.72934 0.50851 0.0
H640 H 0.16055 0.69745 0.51279 0.0
H641 H 0.13727 0.6948 0.48327 0.0
H642 H 0.14529 0.72669 0.47887 0.0
H643 H 0.11306 0.71706 0.47842 0.0
H644 H 0.06457 0.76692 0.52578 0.0
H645 H 0.0825 0.80741 0.51748 0.0
H646 H 0.14783 0.76995 0.49662 0.0
C647 C 0.10761 0.67963 0.51554 0.0
C648 C 0.0878 0.66926 0.5254 0.0
C649 C 0.06906 0.68554 0.532 0.0
C650 C 0.06985 0.71113 0.52883 0.0
C651 C 0.08977 0.72055 0.51938 0.0
C652 C 0.10851 0.70541 0.51302 0.0
C653 C 0.129 0.72067 0.50461 0.0
C654 C 0.15406 0.71701 0.5141 0.0
C655 C 0.13128 0.71443 0.48514 0.0
C656 C 0.11886 0.74673 0.5074 0.0
C657 C 0.09596 0.74612 0.51565 0.0
C658 C 0.08254 0.76769 0.51937 0.0
C659 C 0.09284 0.79056 0.51459 0.0
C660 C 0.11655 0.79172 0.50654 0.0
C661 C 0.12976 0.76953 0.50293 0.0
H662 H 0.33843 0.58581 0.7899 0.0
H663 H 0.3702 0.64193 0.75609 0.0
H664 H 0.32765 0.65503 0.74759 0.0
H665 H 0.2875 0.56846 0.76089 0.0
H666 H 0.2662 0.56333 0.77865 0.0
H667 H 0.2992 0.55847 0.78173 0.0
H668 H 0.29861 0.58919 0.80784 0.0
H669 H 0.26569 0.59438 0.80472 0.0
H670 H 0.28696 0.62033 0.80476 0.0
H671 H 0.28083 0.66336 0.7441 0.0
H672 H 0.2345 0.66368 0.74414 0.0
H673 H 0.23464 0.60038 0.77893 0.0
C674 C 0.33665 0.60046 0.78038 0.0
C675 C 0.35788 0.61278 0.7737 0.0
C676 C 0.35434 0.63235 0.76161 0.0
C677 C 0.33021 0.63987 0.75663 0.0
C678 C 0.30977 0.6275 0.7637 0.0
C679 C 0.31283 0.60798 0.77514 0.0
C680 C 0.28796 0.59765 0.78094 0.0
C681 C 0.28505 0.57037 0.7752 0.0
C682 C 0.28462 0.60058 0.80073 0.0
C683 C 0.27036 0.61448 0.77108 0.0
C684 C 0.28317 0.63174 0.76129 0.0
C685 C 0.27064 0.64975 0.75158 0.0
C686 C 0.24435 0.64987 0.75174 0.0
C687 C 0.23095 0.63193 0.7614 0.0
C688 C 0.24429 0.61415 0.77121 0.0
H689 H 0.44739 0.82625 0.02495 0.0
H690 H 0.37785 0.86606 0.016 0.0
H691 H 0.35681 0.82657 0.00953 0.0
H692 H 0.43762 0.77646 0.99254 0.0
H693 H 0.45096 0.75298 0.0064 0.0
H694 H 0.4616 0.78469 0.00801 0.0
H695 H 0.45134 0.78491 0.04095 0.0
H696 H 0.44049 0.75331 0.03942 0.0
H697 H 0.4202 0.77718 0.04798 0.0
H698 H 0.34213 0.7829 0.00661 0.0
H699 H 0.33499 0.73771 0.00693 0.0
H700 H 0.41334 0.7257 0.01922 0.0
C701 C 0.42781 0.82677 0.02146 0.0
C702 C 0.41448 0.84952 0.02081 0.0
C703 C 0.38882 0.84915 0.01613 0.0
C704 C 0.37655 0.82671 0.01257 0.0
C705 C 0.39009 0.80469 0.01379 0.0
C706 C 0.41516 0.80449 0.01805 0.0
C707 C 0.42489 0.77811 0.01963 0.0
C708 C 0.44495 0.77275 0.00582 0.0
C709 C 0.43481 0.77309 0.03809 0.0
C710 C 0.40121 0.76357 0.01599 0.0
C711 C 0.38144 0.7793 0.01248 0.0
C712 C 0.35751 0.77036 0.00919 0.0
C713 C 0.35364 0.74461 0.00945 0.0
C714 C 0.37358 0.72804 0.0131 0.0
C715 C 0.39769 0.73779 0.01637 0.0
H716 H 0.16046 0.58194 0.97843 0.0
H717 H 0.12059 0.64706 0.99749 0.0
H718 H 0.1607 0.66694 0.0047 0.0
H719 H 0.2094 0.58385 0.01268 0.0
H720 H 0.23314 0.5729 0.99789 0.0
H721 H 0.20114 0.56341 0.99492 0.0
H722 H 0.20239 0.57992 0.96333 0.0
H723 H 0.23419 0.58993 0.96629 0.0
H724 H 0.2107 0.6119 0.95952 0.0
H725 H 0.20492 0.68175 0.00636 0.0
H726 H 0.25062 0.68784 0.00734 0.0
H727 H 0.26183 0.61155 0.99048 0.0
C728 C 0.15996 0.60004 0.98463 0.0
C729 C 0.13716 0.613 0.98711 0.0
C730 C 0.1377 0.63692 0.99499 0.0
C731 C 0.16042 0.64835 -0.00076 0.0
C732 C 0.18247 0.63543 0.99597 0.0
C733 C 0.18243 0.61154 0.98931 0.0
C734 C 0.20882 0.60174 0.9871 0.0
C735 C 0.2134 0.57914 -0.00115 0.0
C736 C 0.21434 0.59551 0.96792 0.0
C737 C 0.22369 0.6241 0.99319 0.0
C738 C 0.20808 0.64343 0.99803 0.0
C739 C 0.21735 0.66661 0.00294 0.0
C740 C 0.24328 0.66995 0.00331 0.0
C741 C 0.25961 0.65011 -0.00092 0.0
C742 C 0.24969 0.62691 0.99395 0.0
H743 H 0.44528 0.68886 0.20602 0.0
H744 H 0.41004 0.65394 0.25057 0.0
H745 H 0.39333 0.69458 0.25972 0.0
H746 H 0.46346 0.74589 0.22964 0.0
H747 H 0.45823 0.76534 0.21095 0.0
H748 H 0.46782 0.73346 0.20803 0.0
H749 H 0.42927 0.72571 0.18834 0.0
H750 H 0.41936 0.75744 0.19138 0.0
H751 H 0.39847 0.73232 0.19663 0.0
H752 H 0.377 0.73807 0.26248 0.0
H753 H 0.36699 0.78288 0.26104 0.0
H754 H 0.41639 0.79066 0.21673 0.0
C755 C 0.43461 0.6897 0.21795 0.0
C756 C 0.42876 0.66787 0.22738 0.0
C757 C 0.41431 0.6701 0.24278 0.0
C758 C 0.40484 0.69318 0.24819 0.0
C759 C 0.41038 0.71408 0.23832 0.0
C760 C 0.42539 0.71269 0.22376 0.0
C761 C 0.42865 0.7381 0.21556 0.0
C762 C 0.45618 0.74617 0.21608 0.0
C763 C 0.41832 0.73839 0.19687 0.0
C764 C 0.41278 0.75389 0.22765 0.0
C765 C 0.40218 0.73957 0.24056 0.0
C766 C 0.38552 0.74957 0.25262 0.0
C767 C 0.37982 0.77497 0.25163 0.0
C768 C 0.39107 0.79018 0.23887 0.0
C769 C 0.40781 0.77948 0.22676 0.0
H770 H 0.31578 0.96371 0.48829 0.0
H771 H 0.351 0.89473 0.47198 0.0
H772 H 0.31209 0.87202 0.47843 0.0
H773 H 0.27452 0.93712 0.52245 0.0
H774 H 0.24935 0.95785 0.51676 0.0
H775 H 0.28129 0.9676 0.51405 0.0
H776 H 0.27232 0.97718 0.4816 0.0
H777 H 0.24052 0.96718 0.48414 0.0
H778 H 0.25997 0.953 0.46773 0.0
H779 H 0.26733 0.85777 0.4831 0.0
H780 H 0.22146 0.85346 0.48605 0.0
H781 H 0.21582 0.93235 0.49768 0.0
C782 C 0.31552 0.94374 0.4864 0.0
C783 C 0.33654 0.93104 0.47968 0.0
C784 C 0.33535 0.90487 0.47743 0.0
C785 C 0.31324 0.8918 0.48095 0.0
C786 C 0.29251 0.90514 0.4868 0.0
C787 C 0.29359 0.93052 0.48967 0.0
C788 C 0.26826 0.941 0.49438 0.0
C789 C 0.26837 0.95151 0.51302 0.0
C790 C 0.25978 0.96074 0.48117 0.0
C791 C 0.25252 0.91774 0.49309 0.0
C792 C 0.26681 0.89712 0.48901 0.0
C793 C 0.25602 0.87376 0.4865 0.0
C794 C 0.22995 0.8715 0.48815 0.0
C795 C 0.21499 0.89257 0.492 0.0
C796 C 0.22663 0.91586 0.49463 0.0
H797 H 0.12069 0.84631 0.7442 0.0
H798 H 0.04365 0.83298 0.72859 0.0
H799 H 0.04932 0.7885 0.73409 0.0
H800 H 0.14473 0.79395 0.72161 0.0
H801 H 0.16846 0.78706 0.73755 0.0
H802 H 0.15767 0.81854 0.73486 0.0
H803 H 0.1464 0.82094 0.76759 0.0
H804 H 0.15731 0.78951 0.77043 0.0
H805 H 0.12599 0.79785 0.77679 0.0
H806 H 0.06349 0.74502 0.74009 0.0
H807 H 0.08588 0.7055 0.74514 0.0
H808 H 0.15485 0.74621 0.75331 0.0
C809 C 0.10489 0.83424 0.74189 0.0
C810 C 0.08157 0.84371 0.7361 0.0
C811 C 0.06151 0.82678 0.73354 0.0
C812 C 0.0646 0.80125 0.73644 0.0
C813 C 0.08794 0.79265 0.74165 0.0
C814 C 0.10779 0.80858 0.74426 0.0
C815 C 0.13145 0.79432 0.7486 0.0
C816 C 0.15177 0.79873 0.73483 0.0
C817 C 0.14083 0.80106 0.76694 0.0
C818 C 0.1218 0.76785 0.74784 0.0
C819 C 0.09654 0.76737 0.74408 0.0
C820 C 0.08328 0.74515 0.74299 0.0
C821 C 0.09614 0.72282 0.74587 0.0
C822 C 0.12208 0.72284 0.74946 0.0
C823 C 0.13507 0.74566 0.75037 0.0
H824 H 0.67564 0.4363 0.78157 0.0
H825 H 0.62981 0.39004 0.74769 0.0
H826 H 0.66753 0.36852 0.73737 0.0
H827 H 0.72708 0.44283 0.74967 0.0
H828 H 0.75066 0.4429 0.76644 0.0
H829 H 0.71997 0.4551 0.77097 0.0
H830 H 0.7161 0.425 0.79702 0.0
H831 H 0.74657 0.41241 0.79242 0.0
H832 H 0.7199 0.39205 0.79346 0.0
H833 H 0.70937 0.34854 0.73344 0.0
H834 H 0.75389 0.3363 0.73208 0.0
H835 H 0.77343 0.39888 0.76513 0.0
C836 C 0.67342 0.42215 0.77163 0.0
C837 C 0.64942 0.41464 0.7658 0.0
C838 C 0.64772 0.39571 0.7529 0.0
C839 C 0.66911 0.38344 0.74681 0.0
C840 C 0.69225 0.39072 0.75331 0.0
C841 C 0.69465 0.4101 0.76504 0.0
C842 C 0.72186 0.41445 0.76972 0.0
C843 C 0.73039 0.44036 0.76384 0.0
C844 C 0.72636 0.41075 0.78932 0.0
C845 C 0.73426 0.39408 0.75909 0.0
C846 C 0.71674 0.3804 0.74992 0.0
C847 C 0.72333 0.35943 0.74024 0.0
C848 C 0.74856 0.35251 0.73965 0.0
C849 C 0.76689 0.36682 0.74836 0.0
C850 C 0.75969 0.3879 0.75816 0.0
H851 H 0.58571 0.16164 0.01789 0.0
H852 H 0.65867 0.13235 0.03179 0.0
H853 H 0.67799 0.1721 0.02364 0.0
H854 H 0.60659 0.19911 0.98095 0.0
H855 H 0.58525 0.22418 0.98571 0.0
H856 H 0.5772 0.19275 0.99144 0.0
H857 H 0.57049 0.20663 0.02342 0.0
H858 H 0.57868 0.23805 0.01783 0.0
H859 H 0.59541 0.22222 0.03488 0.0
H860 H 0.68919 0.21551 0.01622 0.0
H861 H 0.69204 0.2597 0.00828 0.0
H862 H 0.61201 0.26158 -0.00097 0.0
C863 C 0.60577 0.16352 0.01908 0.0
C864 C 0.62068 0.14372 0.02534 0.0
C865 C 0.64689 0.14698 0.02668 0.0
C866 C 0.65804 0.16958 0.02222 0.0
C867 C 0.64279 0.18879 0.01638 0.0
C868 C 0.61727 0.186 0.01464 0.0
C869 C 0.60516 0.20993 0.00849 0.0
C870 C 0.59283 0.20627 0.99058 0.0
C871 C 0.58632 0.21978 0.02196 0.0
C872 C 0.62786 0.22667 0.00731 0.0
C873 C 0.64934 0.21402 0.01193 0.0
C874 C 0.67256 0.22558 0.01242 0.0
C875 C 0.67394 0.25073 0.00795 0.0
C876 C 0.65226 0.26408 0.003 0.0
C877 C 0.62892 0.25182 0.00267 0.0
H878 H 0.8313 0.08232 0.28826 0.0
H879 H 0.86149 0.13112 0.24869 0.0
H880 H 0.8189 0.14621 0.24219 0.0
H881 H 0.77489 0.06544 0.26439 0.0
H882 H 0.7561 0.06456 0.28382 0.0
H883 H 0.78894 0.05744 0.28495 0.0
H884 H 0.79455 0.09152 0.3086 0.0
H885 H 0.76181 0.09898 0.30738 0.0
H886 H 0.78481 0.12294 0.30407 0.0
H887 H 0.7728 0.15745 0.24109 0.0
H888 H 0.72692 0.16131 0.24384 0.0
H889 H 0.72737 0.10381 0.28329 0.0
C890 C 0.82902 0.09576 0.27793 0.0
C891 C 0.84988 0.1055 0.26901 0.0
C892 C 0.8459 0.12355 0.25588 0.0
C893 C 0.82175 0.13219 0.25205 0.0
C894 C 0.80171 0.1225 0.26135 0.0
C895 C 0.80509 0.10445 0.27387 0.0
C896 C 0.78053 0.09709 0.28208 0.0
C897 C 0.77478 0.0695 0.27859 0.0
C898 C 0.78043 0.10299 0.30169 0.0
C899 C 0.76277 0.1139 0.27229 0.0
C900 C 0.77531 0.12855 0.26046 0.0
C901 C 0.76278 0.14592 0.25022 0.0
C902 C 0.73673 0.14808 0.25194 0.0
C903 C 0.72347 0.1328 0.26371 0.0
C904 C 0.73685 0.11565 0.27406 0.0
H905 H 0.95895 0.32642 0.51711 0.0
H906 H 0.8969 0.37017 0.53682 0.0
H907 H 0.86783 0.33627 0.52898 0.0
H908 H 0.92477 0.29647 0.48087 0.0
H909 H 0.94103 0.2674 0.48372 0.0
H910 H 0.95631 0.29627 0.48913 0.0
H911 H 0.96493 0.27994 0.52024 0.0
H912 H 0.94943 0.25118 0.51502 0.0
H913 H 0.93918 0.26947 0.53339 0.0
H914 H 0.8462 0.29559 0.52184 0.0
H915 H 0.83352 0.2527 0.51393 0.0
H916 H 0.90991 0.23602 0.49903 0.0
C917 C 0.93919 0.32904 0.51951 0.0
C918 C 0.93019 0.35099 0.52749 0.0
C919 C 0.90418 0.3537 0.53043 0.0
C920 C 0.88754 0.33446 0.52614 0.0
C921 C 0.89717 0.31274 0.51879 0.0
C922 C 0.92235 0.31009 0.51527 0.0
C923 C 0.92817 0.28453 0.50802 0.0
C924 C 0.93815 0.28628 0.48932 0.0
C925 C 0.94651 0.27046 0.51988 0.0
C926 C 0.90243 0.27297 0.50841 0.0
C927 C 0.88475 0.28951 0.5146 0.0
C928 C 0.85984 0.28258 0.51677 0.0
C929 C 0.85284 0.25818 0.51233 0.0
C930 C 0.8707 0.24107 0.50582 0.0
C931 C 0.89576 0.2487 0.50387 0.0
H932 H 0.69289 0.04811 0.48126 0.0
H933 H 0.6473 0.11493 0.48049 0.0
H934 H 0.68439 0.14008 0.48765 0.0
H935 H 0.73796 0.06833 0.51535 0.0
H936 H 0.76376 0.0539 0.50412 0.0
H937 H 0.73288 0.04083 0.50231 0.0
H938 H 0.73568 0.04362 0.46871 0.0
H939 H 0.76638 0.05691 0.4704 0.0
H940 H 0.74216 0.0732 0.45876 0.0
H941 H 0.72764 0.1586 0.49123 0.0
H942 H 0.77279 0.16843 0.49106 0.0
H943 H 0.78982 0.0896 0.48761 0.0
C944 C 0.69053 0.06798 0.48288 0.0
C945 C 0.66701 0.07942 0.48036 0.0
C946 C 0.6649 0.10553 0.4827 0.0
C947 C 0.68596 0.12006 0.48666 0.0
C948 C 0.70903 0.10825 0.48828 0.0
C949 C 0.71137 0.08275 0.48658 0.0
C950 C 0.73846 0.07476 0.48719 0.0
C951 C 0.74356 0.0585 0.5032 0.0
C952 C 0.7461 0.06134 0.47026 0.0
C953 C 0.75108 0.0998 0.48887 0.0
C954 C 0.73385 0.1189 0.4898 0.0
C955 C 0.74128 0.14374 0.49071 0.0
C956 C 0.76697 0.14916 0.49057 0.0
C957 C 0.78489 0.12982 0.48926 0.0
C958 C 0.77666 0.10486 0.48858 0.0
H959 H 0.92889 0.17367 0.70605 0.0
H960 H 0.87618 0.13835 0.74098 0.0
H961 H 0.85967 0.17958 0.74926 0.0
H962 H 0.9422 0.22683 0.73448 0.0
H963 H 0.94505 0.24802 0.71649 0.0
H964 H 0.95292 0.21568 0.71362 0.0
H965 H 0.92173 0.2128 0.68788 0.0
H966 H 0.91353 0.24503 0.69079 0.0
H967 H 0.88956 0.22154 0.69122 0.0
H968 H 0.8471 0.22464 0.75231 0.0
H969 H 0.84205 0.27032 0.75197 0.0
H970 H 0.90476 0.27619 0.7165 0.0
C971 C 0.91428 0.1745 0.71575 0.0
C972 C 0.90381 0.15257 0.72277 0.0
C973 C 0.88428 0.15474 0.73515 0.0
C974 C 0.87484 0.17811 0.74002 0.0
C975 C 0.88529 0.19924 0.73257 0.0
C976 C 0.90483 0.19767 0.7209 0.0
C977 C 0.91273 0.2232 0.71477 0.0
C978 C 0.93983 0.22876 0.72017 0.0
C979 C 0.90917 0.22578 0.69499 0.0
C980 C 0.89442 0.23939 0.72469 0.0
C981 C 0.87862 0.22521 0.73479 0.0
C982 C 0.85954 0.23595 0.7446 0.0
C983 C 0.85673 0.26191 0.74424 0.0
C984 C 0.87309 0.27686 0.73429 0.0
C985 C 0.89212 0.26532 0.72438 0.0
H986 H 0.82673 0.43279 0.95466 0.0
H987 H 0.86153 0.39215 0.99697 0.0
H988 H 0.82004 0.37773 0.00648 0.0
H989 H 0.77052 0.45209 0.97931 0.0
H990 H 0.75054 0.44883 0.96054 0.0
H991 H 0.78285 0.45733 0.95782 0.0
H992 H 0.78903 0.41997 0.93684 0.0
H993 H 0.75686 0.41119 0.93961 0.0
H994 H 0.78135 0.38908 0.9441 0.0
H995 H 0.7756 0.36438 0.00954 0.0
H996 H 0.73056 0.35532 0.00735 0.0
H997 H 0.72414 0.40665 0.96417 0.0
C998 C 0.82565 0.42145 0.96623 0.0
C999 C 0.84749 0.41358 0.97504 0.0
C1000 C 0.84515 0.39817 0.98986 0.0
C1001 C 0.82165 0.39001 0.99543 0.0
C1002 C 0.80061 0.39768 0.9862 0.0
C1003 C 0.80233 0.41333 0.97207 0.0
C1004 C 0.77689 0.41809 0.96405 0.0
C1005 C 0.76978 0.44573 0.96552 0.0
C1006 C 0.776 0.40903 0.94503 0.0
C1007 C 0.76067 0.40219 0.97565 0.0
C1008 C 0.77476 0.39057 0.98832 0.0
C1009 C 0.7643 0.37368 -0.00014 0.0
C1010 C 0.73873 0.36855 -0.00156 0.0
C1011 C 0.72386 0.38042 0.98567 0.0
C1012 C 0.73499 0.39763 0.97424 0.0
H1013 H 0.62528 0.34641 0.22626 0.0
H1014 H 0.54723 0.33572 0.21232 0.0
H1015 H 0.55097 0.29139 0.21926 0.0
H1016 H 0.64651 0.29 0.20609 0.0
H1017 H 0.66999 0.28383 0.22235 0.0
H1018 H 0.66086 0.31539 0.21778 0.0
H1019 H 0.65011 0.32241 0.25029 0.0
H1020 H 0.65935 0.29094 0.25499 0.0
H1021 H 0.62858 0.30168 0.26089 0.0
H1022 H 0.56294 0.24801 0.22761 0.0
H1023 H 0.5829 0.2084 0.23612 0.0
H1024 H 0.65406 0.24613 0.24155 0.0
C1025 C 0.60891 0.33488 0.22456 0.0
C1026 C 0.58584 0.34503 0.21889 0.0
C1027 C 0.56496 0.32893 0.21712 0.0
C1028 C 0.56694 0.30351 0.22083 0.0
C1029 C 0.59 0.2942 0.22607 0.0
C1030 C 0.61066 0.30933 0.22784 0.0
C1031 C 0.63354 0.29441 0.23299 0.0
C1032 C 0.65393 0.296 0.21896 0.0
C1033 C 0.64347 0.30286 0.25085 0.0
C1034 C 0.62247 0.26851 0.23384 0.0
C1035 C 0.59726 0.26888 0.22996 0.0
C1036 C 0.58271 0.24744 0.23053 0.0
C1037 C 0.59419 0.22506 0.23536 0.0
C1038 C 0.62002 0.22421 0.23926 0.0
C1039 C 0.63436 0.24619 0.2383 0.0
H1040 H 0.10394 0.89177 0.37015 0.0
H1041 H 0.07447 0.96474 0.38334 0.0
H1042 H 0.08602 0.95813 0.41406 0.0
H1043 H 0.08207 0.86104 0.40848 0.0
H1044 H 0.10919 0.84133 0.41042 0.0
H1045 H 0.09947 0.85221 0.38935 0.0
H1046 H 0.14347 0.87089 0.38436 0.0
H1047 H 0.15327 0.86019 0.40548 0.0
H1048 H 0.15606 0.89262 0.40001 0.0
H1049 H 0.09963 0.94334 0.44332 0.0
H1050 H 0.11347 0.92085 0.4695 0.0
H1051 H 0.13374 0.85722 0.43748 0.0
C1052 C 0.09976 0.90631 0.37951 0.0
C1053 C 0.08838 0.92883 0.37431 0.0
C1054 C 0.08352 0.94749 0.38696 0.0
C1055 C 0.08992 0.94388 0.40444 0.0
C1056 C 0.10118 0.92152 0.40909 0.0
C1057 C 0.10601 0.90301 0.39703 0.0
C1058 C 0.1178 0.8805 0.40554 0.0
C1059 C 0.10113 0.85741 0.40331 0.0
C1060 C 0.14422 0.87578 0.39842 0.0
C1061 C 0.11859 0.88916 0.42431 0.0
C1062 C 0.10902 0.91293 0.42603 0.0
C1063 C 0.10724 0.92476 0.44214 0.0
C1064 C 0.11516 0.91182 0.45692 0.0
C1065 C 0.12471 0.88732 0.4555 0.0
C1066 C 0.12668 0.87599 0.43894 0.0
H1067 H 0.12332 0.62772 0.62706 0.0
H1068 H 0.05853 0.58038 0.63443 0.0
H1069 H 0.06046 0.58817 0.66594 0.0
H1070 H 0.15648 0.60615 0.66301 0.0
H1071 H 0.16994 0.63571 0.66896 0.0
H1072 H 0.16149 0.62957 0.64669 0.0
H1073 H 0.13353 0.66893 0.64651 0.0
H1074 H 0.14191 0.67521 0.66884 0.0
H1075 H 0.10949 0.67251 0.66274 0.0
H1076 H 0.07208 0.59627 0.69641 0.0
H1077 H 0.09264 0.60473 0.72449 0.0
H1078 H 0.15012 0.64706 0.69821 0.0
C1079 C 0.10936 0.61922 0.63528 0.0
C1080 C 0.0906 0.60361 0.62819 0.0
C1081 C 0.07271 0.59286 0.63943 0.0
C1082 C 0.07371 0.59709 0.65739 0.0
C1083 C 0.09263 0.61219 0.66395 0.0
C1084 C 0.1101 0.62321 0.65329 0.0
C1085 C 0.12966 0.63702 0.66388 0.0
C1086 C 0.15594 0.62647 0.66043 0.0
C1087 C 0.12857 0.66509 0.66028 0.0
C1088 C 0.12091 0.63124 0.68217 0.0
C1089 C 0.09935 0.6171 0.68182 0.0
C1090 C 0.08869 0.60769 0.69689 0.0
C1091 C 0.10057 0.61249 0.71275 0.0
C1092 C 0.12282 0.62665 0.71345 0.0
C1093 C 0.13285 0.63661 0.69801 0.0
H1094 H 0.43479 0.6187 0.89107 0.0
H1095 H 0.36442 0.59816 0.86705 0.0
H1096 H 0.34247 0.60675 0.8948 0.0
H1097 H 0.42218 0.59072 0.93247 0.0
H1098 H 0.43787 0.61469 0.94476 0.0
H1099 H 0.44769 0.60765 0.92289 0.0
H1100 H 0.44132 0.6538 0.91433 0.0
H1101 H 0.43145 0.66098 0.93618 0.0
H1102 H 0.41144 0.66839 0.91805 0.0
H1103 H 0.32822 0.61894 0.92509 0.0
H1104 H 0.32325 0.63053 0.95612 0.0
H1105 H 0.40343 0.6408 0.96041 0.0
C1106 C 0.41474 0.61614 0.89167 0.0
C1107 C 0.4012 0.60791 0.87699 0.0
C1108 C 0.37506 0.60438 0.87825 0.0
C1109 C 0.36247 0.60932 0.89389 0.0
C1110 C 0.37637 0.61747 0.90816 0.0
C1111 C 0.40197 0.6206 0.90723 0.0
C1112 C 0.4127 0.62873 0.92456 0.0
C1113 C 0.4312 0.60928 0.93158 0.0
C1114 C 0.42494 0.65451 0.92319 0.0
C1115 C 0.38915 0.62974 0.9354 0.0
C1116 C 0.36834 0.62346 0.92569 0.0
C1117 C 0.34441 0.62372 0.93285 0.0
C1118 C 0.34176 0.63039 0.95044 0.0
C1119 C 0.36296 0.63634 0.96069 0.0
C1120 C 0.38689 0.63602 0.95298 0.0
H1121 H 0.38841 0.89152 0.11747 0.0
H1122 H 0.43694 0.95156 0.13433 0.0
H1123 H 0.4257 0.94335 0.1649 0.0
H1124 H 0.33953 0.90096 0.14914 0.0
H1125 H 0.33407 0.86827 0.15253 0.0
H1126 H 0.34556 0.87896 0.13186 0.0
H1127 H 0.38332 0.84901 0.13434 0.0
H1128 H 0.37198 0.83827 0.15504 0.0
H1129 H 0.40316 0.85058 0.15328 0.0
H1130 H 0.41021 0.92871 0.19316 0.0
H1131 H 0.39072 0.90875 0.21833 0.0
H1132 H 0.35154 0.85764 0.1839 0.0
C1133 C 0.39646 0.90301 0.12764 0.0
C1134 C 0.41352 0.92219 0.12364 0.0
C1135 C 0.42398 0.93669 0.13721 0.0
C1136 C 0.41766 0.9322 0.15456 0.0
C1137 C 0.40099 0.91305 0.15811 0.0
C1138 C 0.39052 0.8986 0.14511 0.0
C1139 C 0.37355 0.87881 0.15268 0.0
C1140 C 0.34657 0.88195 0.14617 0.0
C1141 C 0.38361 0.85262 0.14859 0.0
C1142 C 0.37578 0.88476 0.17194 0.0
C1143 C 0.3919 0.90447 0.17467 0.0
C1144 C 0.39752 0.91329 0.19122 0.0
C1145 C 0.38637 0.90173 0.20545 0.0
C1146 C 0.36959 0.88162 0.20309 0.0
C1147 C 0.3642 0.87303 0.18608 0.0
H1148 H 0.0998 0.63105 0.88133 0.0
H1149 H 0.11365 0.55193 0.87542 0.0
H1150 H 0.13469 0.55965 0.8474 0.0
H1151 H 0.08534 0.64296 0.8375 0.0
H1152 H 0.10037 0.67292 0.83688 0.0
H1153 H 0.08825 0.66133 0.85709 0.0
H1154 H 0.13183 0.66677 0.87134 0.0
H1155 H 0.14414 0.67822 0.85109 0.0
H1156 H 0.15866 0.652 0.86158 0.0
H1157 H 0.14999 0.57519 0.81899 0.0
H1158 H 0.1591 0.59771 0.79187 0.0
H1159 H 0.13738 0.66715 0.81648 0.0
C1160 C 0.10736 0.61539 0.87414 0.0
C1161 C 0.10514 0.59089 0.88049 0.0
C1162 C 0.11539 0.57086 0.87083 0.0
C1163 C 0.12736 0.57507 0.85493 0.0
C1164 C 0.12919 0.59943 0.84901 0.0
C1165 C 0.1196 0.61929 0.85833 0.0
C1166 C 0.1231 0.64351 0.84866 0.0
C1167 C 0.09776 0.6559 0.8448 0.0
C1168 C 0.14047 0.66116 0.85877 0.0
C1169 C 0.13543 0.63405 0.83218 0.0
C1170 C 0.13889 0.60857 0.83274 0.0
C1171 C 0.14787 0.59519 0.81851 0.0
C1172 C 0.15295 0.60812 0.80317 0.0
C1173 C 0.1493 0.63413 0.80227 0.0
C1174 C 0.141 0.64735 0.81706 0.0
H1175 H 0.42382 0.59301 0.11065 0.0
H1176 H 0.36657 0.61591 0.1473 0.0
H1177 H 0.34237 0.63467 0.12337 0.0
H1178 H 0.42063 0.64707 0.08303 0.0
H1179 H 0.42494 0.62976 0.06311 0.0
H1180 H 0.43815 0.61841 0.08314 0.0
H1181 H 0.4149 0.57656 0.07896 0.0
H1182 H 0.40172 0.58773 0.05889 0.0
H1183 H 0.38151 0.57663 0.07589 0.0
H1184 H 0.32483 0.65157 0.09589 0.0
H1185 H 0.31324 0.66307 0.06593 0.0
H1186 H 0.38099 0.62812 0.04662 0.0
C1187 C 0.40621 0.60203 0.11358 0.0
C1188 C 0.39696 0.60297 0.13078 0.0
C1189 C 0.37379 0.61475 0.13417 0.0
C1190 C 0.36002 0.62559 0.1207 0.0
C1191 C 0.36962 0.62438 0.10389 0.0
C1192 C 0.39204 0.61273 0.10022 0.0
C1193 C 0.39766 0.61345 0.0809 0.0
C1194 C 0.42178 0.62805 0.07734 0.0
C1195 C 0.39902 0.58702 0.07321 0.0
C1196 C 0.37488 0.62732 0.07434 0.0
C1197 C 0.3591 0.63364 0.08787 0.0
C1198 C 0.33697 0.64667 0.08515 0.0
C1199 C 0.3306 0.65318 0.0681 0.0
C1200 C 0.34618 0.64643 0.05397 0.0
C1201 C 0.36868 0.63346 0.05718 0.0
H1202 H 0.41313 0.94818 0.35971 0.0
H1203 H 0.36505 0.90081 0.39046 0.0
H1204 H 0.351 0.87925 0.36365 0.0
H1205 H 0.37206 0.95437 0.3226 0.0
H1206 H 0.39721 0.95333 0.30705 0.0
H1207 H 0.40266 0.96546 0.32861 0.0
H1208 H 0.43872 0.93382 0.33292 0.0
H1209 H 0.4334 0.92163 0.31137 0.0
H1210 H 0.43274 0.90111 0.32983 0.0
H1211 H 0.342 0.86319 0.33314 0.0
H1212 H 0.34109 0.85216 0.30179 0.0
H1213 H 0.39625 0.90936 0.29168 0.0
C1214 C 0.39949 0.9334 0.36076 0.0
C1215 C 0.39009 0.92616 0.37709 0.0
C1216 C 0.37257 0.90649 0.37803 0.0
C1217 C 0.36439 0.89426 0.36289 0.0
C1218 C 0.37405 0.90185 0.34696 0.0
C1219 C 0.39135 0.92085 0.34583 0.0
C1220 C 0.39959 0.92486 0.32726 0.0
C1221 C 0.39244 0.95106 0.32102 0.0
C1222 C 0.42778 0.92006 0.32523 0.0
C1223 C 0.38432 0.90509 0.31812 0.0
C1224 C 0.36947 0.89216 0.32961 0.0
C1225 C 0.35361 0.87315 0.32402 0.0
C1226 C 0.35316 0.86705 0.30621 0.0
C1227 C 0.36873 0.87974 0.29433 0.0
C1228 C 0.38431 0.8991 0.30045 0.0
H1229 H 0.09053 0.93929 0.62148 0.0
H1230 H 0.09937 0.86543 0.6431 0.0
H1231 H 0.11229 0.8495 0.61423 0.0
H1232 H 0.06544 0.91974 0.58039 0.0
H1233 H 0.08128 0.94355 0.56824 0.0
H1234 H 0.07302 0.94901 0.59064 0.0
H1235 H 0.11924 0.95916 0.59787 0.0
H1236 H 0.12763 0.95374 0.57548 0.0
H1237 H 0.14322 0.93683 0.59254 0.0
H1238 H 0.12439 0.84182 0.58285 0.0
H1239 H 0.13386 0.84285 0.55138 0.0
H1240 H 0.1169 0.92189 0.55076 0.0
C1241 C 0.09537 0.91981 0.62016 0.0
C1242 C 0.09397 0.90358 0.63449 0.0
C1243 C 0.10009 0.87812 0.63221 0.0
C1244 C 0.10756 0.86894 0.61591 0.0
C1245 C 0.10873 0.88546 0.60204 0.0
C1246 C 0.10273 0.91034 0.604 0.0
C1247 C 0.10509 0.92414 0.58701 0.0
C1248 C 0.07969 0.93473 0.58123 0.0
C1249 C 0.12498 0.94467 0.58831 0.0
C1250 C 0.11348 0.90318 0.57519 0.0
C1251 C 0.11551 0.88101 0.58406 0.0
C1252 C 0.12288 0.85909 0.57576 0.0
C1253 C 0.12825 0.85988 0.55789 0.0
C1254 C 0.12616 0.88244 0.54855 0.0
C1255 C 0.11871 0.90431 0.55744 0.0
H1256 H 0.59422 0.42738 0.8875 0.0
H1257 H 0.60605 0.36636 0.85137 0.0
H1258 H 0.62569 0.3417 0.87481 0.0
H1259 H 0.65095 0.4198 0.91269 0.0
H1260 H 0.63618 0.42684 0.93319 0.0
H1261 H 0.62422 0.44021 0.9134 0.0
H1262 H 0.58046 0.42193 0.91988 0.0
H1263 H 0.59225 0.40865 0.93973 0.0
H1264 H 0.57732 0.38904 0.92373 0.0
H1265 H 0.64462 0.32407 0.90199 0.0
H1266 H 0.6575 0.31281 0.93185 0.0
H1267 H 0.63085 0.38423 0.95073 0.0
C1268 C 0.60106 0.40886 0.8846 0.0
C1269 C 0.59877 0.39867 0.86772 0.0
C1270 C 0.60761 0.37432 0.8643 0.0
C1271 C 0.61889 0.36029 0.87748 0.0
C1272 C 0.62091 0.37082 0.89401 0.0
C1273 C 0.61196 0.39441 0.89769 0.0
C1274 C 0.61522 0.4008 0.91677 0.0
C1275 C 0.63269 0.42324 0.91915 0.0
C1276 C 0.5898 0.40536 0.92554 0.0
C1277 C 0.62732 0.3771 0.92324 0.0
C1278 C 0.63081 0.36021 0.90986 0.0
C1279 C 0.6419 0.33709 0.91261 0.0
C1280 C 0.64923 0.3309 0.92957 0.0
C1281 C 0.64505 0.3476 0.94355 0.0
C1282 C 0.63414 0.37105 0.94028 0.0
H1283 H 0.62242 0.10805 0.13063 0.0
H1284 H 0.56034 0.05794 0.13955 0.0
H1285 H 0.56289 0.06656 0.17108 0.0
H1286 H 0.65766 0.09187 0.16816 0.0
H1287 H 0.66832 0.12303 0.17264 0.0
H1288 H 0.661 0.11382 0.15067 0.0
H1289 H 0.62976 0.15049 0.14821 0.0
H1290 H 0.63698 0.15981 0.1702 0.0
H1291 H 0.60509 0.15362 0.16401 0.0
H1292 H 0.57389 0.07803 0.20145 0.0
H1293 H 0.59147 0.09321 0.22917 0.0
H1294 H 0.64551 0.13747 0.20092 0.0
C1295 C 0.60935 0.09898 0.13925 0.0
C1296 C 0.59114 0.08235 0.1327 0.0
C1297 C 0.57423 0.07094 0.14432 0.0
C1298 C 0.57559 0.07565 0.16222 0.0
C1299 C 0.5938 0.09203 0.16828 0.0
C1300 C 0.61026 0.10371 0.15718 0.0
C1301 C 0.62824 0.12026 0.16717 0.0
C1302 C 0.65541 0.11172 0.1645 0.0
C1303 C 0.6248 0.14767 0.16209 0.0
C1304 C 0.61959 0.11566 0.18565 0.0
C1305 C 0.59972 0.09928 0.18593 0.0
C1306 C 0.58925 0.09108 0.20142 0.0
C1307 C 0.59944 0.09974 0.21708 0.0
C1308 C 0.61975 0.11659 0.21717 0.0
C1309 C 0.62975 0.12488 0.20122 0.0
H1310 H 0.91862 0.09254 0.38372 0.0
H1311 H 0.90565 0.15847 0.35273 0.0
H1312 H 0.88547 0.17897 0.37793 0.0
H1313 H 0.86173 0.09473 0.40856 0.0
H1314 H 0.87613 0.08498 0.42861 0.0
H1315 H 0.88906 0.07512 0.40807 0.0
H1316 H 0.93204 0.09356 0.41676 0.0
H1317 H 0.9193 0.10324 0.43739 0.0
H1318 H 0.93401 0.1257 0.42342 0.0
H1319 H 0.8654 0.19158 0.4059 0.0
H1320 H 0.85135 0.19791 0.43614 0.0
H1321 H 0.8796 0.12485 0.44979 0.0
C1322 C 0.91157 0.11132 0.38234 0.0
C1323 C 0.91363 0.12403 0.36638 0.0
C1324 C 0.90438 0.1486 0.36495 0.0
C1325 C 0.89275 0.16027 0.37912 0.0
C1326 C 0.8908 0.14719 0.39466 0.0
C1327 C 0.9003 0.12343 0.39647 0.0
C1328 C 0.89671 0.114 0.41485 0.0
C1329 C 0.8799 0.09083 0.41502 0.0
C1330 C 0.92202 0.10883 0.42362 0.0
C1331 C 0.88369 0.13617 0.42306 0.0
C1332 C 0.88013 0.15493 0.41108 0.0
C1333 C 0.8682 0.17711 0.41544 0.0
C1334 C 0.86019 0.18047 0.43263 0.0
C1335 C 0.86449 0.16191 0.4453 0.0
C1336 C 0.87615 0.13937 0.44037 0.0
H1337 H 0.94838 0.41035 0.64671 0.0
H1338 H 0.89436 0.39594 0.60571 0.0
H1339 H 0.86469 0.37987 0.6274 0.0
H1340 H 0.93516 0.35599 0.6719 0.0
H1341 H 0.9388 0.3714 0.69263 0.0
H1342 H 0.9558 0.38231 0.67397 0.0
H1343 H 0.93707 0.42639 0.67825 0.0
H1344 H 0.92015 0.41564 0.697 0.0
H1345 H 0.90363 0.43016 0.67928 0.0
H1346 H 0.84149 0.36386 0.6532 0.0
H1347 H 0.82504 0.35166 0.68191 0.0
H1348 H 0.89366 0.37702 0.70634 0.0
C1349 C 0.93028 0.40387 0.64233 0.0
C1350 C 0.92362 0.40458 0.62453 0.0
C1351 C 0.89971 0.39601 0.61931 0.0
C1352 C 0.8828 0.38664 0.6315 0.0
C1353 C 0.89001 0.38602 0.6489 0.0
C1354 C 0.91307 0.39459 0.65436 0.0
C1355 C 0.91602 0.39199 0.67388 0.0
C1356 C 0.93773 0.37437 0.67835 0.0
C1357 C 0.91941 0.41757 0.68261 0.0
C1358 C 0.89105 0.38058 0.6785 0.0
C1359 C 0.87642 0.37713 0.66387 0.0
C1360 C 0.85271 0.36657 0.66477 0.0
C1361 C 0.84357 0.35962 0.68112 0.0
C1362 C 0.85804 0.36346 0.69633 0.0
C1363 C 0.88214 0.37394 0.69494 0.0
H1364 H 0.61934 0.07191 0.36642 0.0
H1365 H 0.58412 0.13528 0.39192 0.0
H1366 H 0.59707 0.16199 0.36771 0.0
H1367 H 0.67055 0.10346 0.34653 0.0
H1368 H 0.66858 0.08604 0.32648 0.0
H1369 H 0.65872 0.07209 0.34659 0.0
H1370 H 0.61508 0.06295 0.33336 0.0
H1371 H 0.62495 0.07649 0.31315 0.0
H1372 H 0.59734 0.08802 0.32391 0.0
H1373 H 0.61454 0.18217 0.34069 0.0
H1374 H 0.62863 0.19249 0.31088 0.0
H1375 H 0.64719 0.11503 0.3018 0.0
C1376 C 0.61393 0.09128 0.36698 0.0
C1377 C 0.60098 0.10133 0.38145 0.0
C1378 C 0.59474 0.12703 0.38141 0.0
C1379 C 0.60189 0.14244 0.36762 0.0
C1380 C 0.61487 0.13188 0.35375 0.0
C1381 C 0.6203 0.10679 0.35315 0.0
C1382 C 0.63256 0.09961 0.33612 0.0
C1383 C 0.65918 0.08972 0.33912 0.0
C1384 C 0.61652 0.08066 0.32604 0.0
C1385 C 0.63297 0.12458 0.32716 0.0
C1386 C 0.62328 0.1431 0.33771 0.0
C1387 C 0.62204 0.16779 0.33229 0.0
C1388 C 0.63022 0.17352 0.31543 0.0
C1389 C 0.63887 0.1545 0.30418 0.0
C1390 C 0.64057 0.12985 0.31021 0.0
H1391 H 0.9065 0.06889 0.60665 0.0
H1392 H 0.92821 0.13961 0.62936 0.0
H1393 H 0.91857 0.16063 0.60157 0.0
H1394 H 0.93235 0.08073 0.56374 0.0
H1395 H 0.90745 0.06473 0.55254 0.0
H1396 H 0.91632 0.05539 0.57416 0.0
H1397 H 0.87066 0.06153 0.58451 0.0
H1398 H 0.86168 0.07099 0.56294 0.0
H1399 H 0.85554 0.09113 0.58127 0.0
H1400 H 0.90396 0.17415 0.5719 0.0
H1401 H 0.88893 0.17878 0.54164 0.0
H1402 H 0.87903 0.09884 0.53785 0.0
C1403 C 0.9093 0.08878 0.6057 0.0
C1404 C 0.91806 0.10271 0.62007 0.0
C1405 C 0.92169 0.12866 0.6184 0.0
C1406 C 0.91616 0.14073 0.60272 0.0
C1407 C 0.90734 0.1265 0.58881 0.0
C1408 C 0.90425 0.10105 0.59007 0.0
C1409 C 0.89479 0.09004 0.57314 0.0
C1410 C 0.91387 0.07164 0.56544 0.0
C1411 C 0.86914 0.0777 0.57562 0.0
C1412 C 0.89277 0.11329 0.56221 0.0
C1413 C 0.89989 0.13416 0.57153 0.0
C1414 C 0.8986 0.15791 0.56441 0.0
C1415 C 0.88995 0.16037 0.54726 0.0
C1416 C 0.88303 0.13915 0.53738 0.0
C1417 C 0.88454 0.11535 0.545 0.0
H1418 H 0.93416 0.39319 0.86059 0.0
H1419 H 0.8631 0.42016 0.88004 0.0
H1420 H 0.84275 0.40773 0.85238 0.0
H1421 H 0.92565 0.41481 0.81702 0.0
H1422 H 0.94119 0.38856 0.80715 0.0
H1423 H 0.94969 0.39842 0.82878 0.0
H1424 H 0.94076 0.35409 0.84028 0.0
H1425 H 0.93213 0.34411 0.81869 0.0
H1426 H 0.91059 0.34023 0.83646 0.0
H1427 H 0.83021 0.39178 0.82266 0.0
H1428 H 0.82712 0.37716 0.79215 0.0
H1429 H 0.90691 0.36268 0.7918 0.0
C1430 C 0.91429 0.39631 0.85901 0.0
C1431 C 0.9001 0.4075 0.87237 0.0
C1432 C 0.87424 0.41168 0.86985 0.0
C1433 C 0.86253 0.40456 0.85426 0.0
C1434 C 0.87705 0.39352 0.84131 0.0
C1435 C 0.90241 0.38967 0.84345 0.0
C1436 C 0.914 0.3786 0.82721 0.0
C1437 C 0.9338 0.39615 0.81959 0.0
C1438 C 0.92501 0.35272 0.83089 0.0
C1439 C 0.89123 0.37691 0.81559 0.0
C1440 C 0.87002 0.38526 0.82402 0.0
C1441 C 0.8467 0.38526 0.8159 0.0
C1442 C 0.84511 0.37684 0.79861 0.0
C1443 C 0.86678 0.36891 0.78959 0.0
C1444 C 0.89004 0.3688 0.79831 0.0
H1445 H 0.59214 0.43487 0.10304 0.0
H1446 H 0.59024 0.36323 0.12874 0.0
H1447 H 0.60305 0.34264 0.10139 0.0
H1448 H 0.56837 0.41332 0.06136 0.0
H1449 H 0.58823 0.43364 0.04897 0.0
H1450 H 0.57827 0.44265 0.07048 0.0
H1451 H 0.62447 0.44842 0.07978 0.0
H1452 H 0.63456 0.43937 0.05833 0.0
H1453 H 0.64611 0.42298 0.0771 0.0
H1454 H 0.61805 0.33008 0.07173 0.0
H1455 H 0.63212 0.32615 0.04126 0.0
H1456 H 0.62347 0.40589 0.03474 0.0
C1457 C 0.59437 0.41485 0.10287 0.0
C1458 C 0.59008 0.40061 0.11796 0.0
C1459 C 0.59306 0.37444 0.11724 0.0
C1460 C 0.60048 0.3626 0.10181 0.0
C1461 C 0.60471 0.37717 0.0872 0.0
C1462 C 0.60159 0.4027 0.08754 0.0
C1463 C 0.60743 0.41402 0.07002 0.0
C1464 C 0.58418 0.42665 0.06225 0.0
C1465 C 0.62945 0.43227 0.0714 0.0
C1466 C 0.61453 0.39091 0.05984 0.0
C1467 C 0.61293 0.36986 0.07 0.0
C1468 C 0.61922 0.3464 0.06359 0.0
C1469 C 0.62727 0.34437 0.04629 0.0
C1470 C 0.6288 0.36568 0.03557 0.0
C1471 C 0.62228 0.3892 0.04251 0.0
loop_
_geom_bond_atom_site_label_1
_geom_bond_atom_site_label_2
_geom_bond_distance
_geom_bond_site_symmetry_2
_ccdc_geom_bond_type
H0 C27 0.929 . S
N1 C26 1.433 . S
N1 C32 1.435 . S
N1 C38 1.423 . S
H2 C28 0.930 . S
H3 C31 0.931 . S
H4 C30 0.929 . S
H5 C33 0.930 . S
H6 C34 0.932 . S
H7 C37 0.929 . S
H8 C36 0.931 . S
H9 C39 0.932 . S
H10 C43 0.932 . S
H11 C40 0.931 . S
H12 C42 0.929 . S
H13 C45 0.929 . S
H14 C46 0.930 . S
H15 C48 0.929 . S
H16 C49 0.931 . S
H17 C51 0.930 . S
H18 C52 0.932 . S
H19 C54 0.931 . S
H20 C55 0.929 . S
H21 C57 0.929 . S
H22 C58 0.957 . S
H23 C60 0.929 . S
N24 C44 1.433 . S
N24 C50 1.435 . S
N24 C56 1.423 . S
H25 C61 0.932 . S
C26 N1 1.433 . S
C26 C27 1.363 . S
C26 C31 1.370 . S
C27 H0 0.929 . S
C27 C26 1.363 . S
C27 C28 1.385 . S
C28 H2 0.930 . S
C28 C27 1.385 . S
C28 C29 1.357 . S
C29 C28 1.357 . S
C29 C30 1.406 . S
C30 H4 0.929 . S
C30 C29 1.406 . S
C30 C31 1.391 . S
C31 H3 0.931 . S
C31 C26 1.370 . S
C31 C30 1.391 . S
C32 N1 1.435 . S
C32 C33 1.358 . S
C32 C37 1.371 . S
C33 H5 0.930 . S
C33 C32 1.358 . S
C33 C34 1.405 . S
C34 H6 0.932 . S
C34 C33 1.405 . S
C34 C35 1.383 . S
C35 C34 1.383 . S
C35 C36 1.393 . S
C36 H8 0.931 . S
C36 C35 1.393 . S
C36 C37 1.382 . S
C37 H7 0.929 . S
C37 C32 1.371 . S
C37 C36 1.382 . S
C38 N1 1.423 . S
C38 C39 1.362 . S
C38 C43 1.388 . S
C39 H9 0.932 . S
C39 C38 1.362 . S
C39 C40 1.376 1_565 S
C40 H11 0.931 . S
C40 C39 1.376 1_545 S
C40 C41 1.396 . S
C41 C40 1.396 . S
C41 C42 1.348 1_545 S
C41 C59 1.472 . S
C42 H12 0.929 . S
C42 C41 1.348 1_565 S
C42 C43 1.443 . S
C43 H10 0.932 . S
C43 C38 1.388 . S
C43 C42 1.443 . S
C44 N24 1.433 . S
C44 C45 1.363 . S
C44 C49 1.370 . S
C45 H13 0.929 . S
C45 C44 1.363 . S
C45 C46 1.385 . S
C46 H14 0.930 . S
C46 C45 1.385 . S
C46 C47 1.357 . S
C47 C46 1.357 . S
C47 C48 1.406 . S
C48 H15 0.929 . S
C48 C47 1.406 . S
C48 C49 1.391 . S
C49 H16 0.931 . S
C49 C44 1.370 . S
C49 C48 1.391 . S
C50 N24 1.435 . S
C50 C51 1.358 . S
C50 C55 1.371 . S
C51 H17 0.930 . S
C51 C50 1.358 . S
C51 C52 1.405 . S
C52 H18 0.932 . S
C52 C51 1.405 . S
C52 C53 1.383 . S
C53 C52 1.383 . S
C53 C54 1.393 . S
C54 H19 0.931 . S
C54 C53 1.393 . S
C54 C55 1.382 . S
C55 H20 0.929 . S
C55 C50 1.371 . S
C55 C54 1.382 . S
C56 N24 1.423 . S
C56 C57 1.362 . S
C56 C61 1.388 . S
C57 H21 0.929 . S
C57 C56 1.362 . S
C57 C58 1.348 1_655 S
C58 H22 0.957 . S
C58 C57 1.348 1_455 S
C58 C59 1.400 . S
C59 C41 1.472 . S
C59 C58 1.400 . S
C59 C60 1.348 1_455 S
C60 H23 0.929 . S
C60 C59 1.348 1_655 S
C60 C61 1.443 . S
C61 H25 0.932 . S
C61 C56 1.388 . S
C61 C60 1.443 . S
H62 C89 0.929 . S
N63 C88 1.433 . S
N63 C94 1.435 . S
N63 C100 1.423 . S
H64 C90 0.930 . S
H65 C93 0.931 . S
H66 C92 0.929 . S
H67 C95 0.930 . S
H68 C96 0.932 . S
H69 C99 0.929 . S
H70 C98 0.931 . S
H71 C101 0.929 . S
H72 C105 0.932 . S
H73 C102 0.931 . S
H74 C104 0.929 . S
H75 C107 0.929 . S
H76 C108 0.930 . S
H77 C110 0.929 . S
H78 C111 0.931 . S
H79 C113 0.930 . S
H80 C114 0.932 . S
H81 C116 0.931 . S
H82 C117 0.929 . S
H83 C119 0.929 . S
H84 C120 0.931 . S
H85 C122 0.929 . S
N86 C106 1.433 . S
N86 C112 1.435 . S
N86 C118 1.423 . S
H87 C123 0.932 . S
C88 N63 1.433 . S
C88 C89 1.363 . S
C88 C93 1.370 . S
C89 H62 0.929 . S
C89 C88 1.363 . S
C89 C90 1.385 . S
C90 H64 0.930 . S
C90 C89 1.385 . S
C90 C91 1.357 . S
C91 C90 1.357 . S
C91 C92 1.406 . S
C92 H66 0.929 . S
C92 C91 1.406 . S
C92 C93 1.391 . S
C93 H65 0.931 . S
C93 C88 1.370 . S
C93 C92 1.391 . S
C94 N63 1.435 . S
C94 C95 1.358 . S
C94 C99 1.371 . S
C95 H67 0.930 . S
C95 C94 1.358 . S
C95 C96 1.405 . S
C96 H68 0.932 . S
C96 C95 1.405 . S
C96 C97 1.383 . S
C97 C96 1.383 . S
C97 C98 1.393 . S
C98 H70 0.931 . S
C98 C97 1.393 . S
C98 C99 1.382 . S
C99 H69 0.929 . S
C99 C94 1.371 . S
C99 C98 1.382 . S
C100 N63 1.423 . S
C100 C101 1.362 . S
C100 C105 1.388 . S
C101 H71 0.929 . S
C101 C100 1.362 . S
C101 C102 1.376 1_655 S
C102 H73 0.931 . S
C102 C101 1.376 1_455 S
C102 C103 1.396 . S
C103 C102 1.396 . S
C103 C104 1.348 1_455 S
C103 C121 1.472 . S
C104 H74 0.929 . S
C104 C103 1.348 1_655 S
C104 C105 1.443 . S
C105 H72 0.932 . S
C105 C100 1.388 . S
C105 C104 1.443 . S
C106 N86 1.433 . S
C106 C107 1.363 . S
C106 C111 1.370 . S
C107 H75 0.929 . S
C107 C106 1.363 . S
C107 C108 1.385 . S
C108 H76 0.930 . S
C108 C107 1.385 . S
C108 C109 1.357 . S
C109 C108 1.357 . S
C109 C110 1.406 . S
C110 H77 0.929 . S
C110 C109 1.406 . S
C110 C111 1.391 . S
C111 H78 0.931 . S
C111 C106 1.370 . S
C111 C110 1.391 . S
C112 N86 1.435 . S
C112 C113 1.358 . S
C112 C117 1.371 . S
C113 H79 0.930 . S
C113 C112 1.358 . S
C113 C114 1.405 . S
C114 H80 0.932 . S
C114 C113 1.405 . S
C114 C115 1.383 . S
C115 C114 1.383 . S
C115 C116 1.393 . S
C116 H81 0.931 . S
C116 C115 1.393 . S
C116 C117 1.382 . S
C117 H82 0.929 . S
C117 C112 1.371 . S
C117 C116 1.382 . S
C118 N86 1.423 . S
C118 C119 1.362 . S
C118 C123 1.388 . S
C119 H83 0.929 . S
C119 C118 1.362 . S
C119 C120 1.376 . S
C120 H84 0.931 . S
C120 C119 1.376 . S
C120 C121 1.396 . S
C121 C103 1.472 . S
C121 C120 1.396 . S
C121 C122 1.348 . S
C122 H85 0.929 . S
C122 C121 1.348 . S
C122 C123 1.443 . S
C123 H87 0.932 . S
C123 C118 1.388 . S
C123 C122 1.443 . S
H124 C151 0.929 . S
N125 C150 1.433 . S
N125 C156 1.435 . S
N125 C162 1.423 . S
H126 C152 0.930 . S
H127 C155 0.931 . S
H128 C154 0.929 . S
H129 C157 0.930 . S
H130 C158 0.932 . S
H131 C161 0.929 . S
H132 C160 0.931 . S
H133 C163 0.929 . S
H134 C167 0.932 . S
H135 C164 0.931 . S
H136 C166 0.929 . S
H137 C169 0.929 . S
H138 C170 0.930 . S
H139 C172 0.929 . S
H140 C173 0.931 . S
H141 C175 0.930 . S
H142 C176 0.932 . S
H143 C178 0.931 . S
H144 C179 0.929 . S
H145 C181 0.929 . S
H146 C182 0.931 . S
H147 C184 0.929 . S
N148 C168 1.433 . S
N148 C174 1.435 . S
N148 C180 1.423 . S
H149 C185 0.932 . S
C150 N125 1.433 . S
C150 C151 1.363 . S
C150 C155 1.370 . S
C151 H124 0.929 . S
C151 C150 1.363 . S
C151 C152 1.385 . S
C152 H126 0.930 . S
C152 C151 1.385 . S
C152 C153 1.357 . S
C153 C152 1.357 . S
C153 C154 1.406 . S
C154 H128 0.929 . S
C154 C153 1.406 . S
C154 C155 1.391 . S
C155 H127 0.931 . S
C155 C150 1.370 . S
C155 C154 1.391 . S
C156 N125 1.435 . S
C156 C157 1.358 . S
C156 C161 1.371 . S
C157 H129 0.930 . S
C157 C156 1.358 . S
C157 C158 1.405 . S
C158 H130 0.932 . S
C158 C157 1.405 . S
C158 C159 1.383 . S
C159 C158 1.383 . S
C159 C160 1.393 . S
C160 H132 0.931 . S
C160 C159 1.393 . S
C160 C161 1.382 . S
C161 H131 0.929 . S
C161 C156 1.371 . S
C161 C160 1.382 . S
C162 N125 1.423 . S
C162 C163 1.362 . S
C162 C167 1.388 . S
C163 H133 0.929 . S
C163 C162 1.362 . S
C163 C164 1.376 . S
C164 H135 0.931 . S
C164 C163 1.376 . S
C164 C165 1.396 . S
C165 C164 1.396 . S
C165 C166 1.348 . S
C165 C183 1.472 . S
C166 H136 0.929 . S
C166 C165 1.348 . S
C166 C167 1.443 . S
C167 H134 0.932 . S
C167 C162 1.388 . S
C167 C166 1.443 . S
C168 N148 1.433 . S
C168 C169 1.363 . S
C168 C173 1.370 . S
C169 H137 0.929 . S
C169 C168 1.363 . S
C169 C170 1.385 . S
C170 H138 0.930 . S
C170 C169 1.385 . S
C170 C171 1.357 . S
C171 C170 1.357 . S
C171 C172 1.406 . S
C172 H139 0.929 . S
C172 C171 1.406 . S
C172 C173 1.391 . S
C173 H140 0.931 . S
C173 C168 1.370 . S
C173 C172 1.391 . S
C174 N148 1.435 . S
C174 C175 1.358 . S
C174 C179 1.371 . S
C175 H141 0.930 . S
C175 C174 1.358 . S
C175 C176 1.405 . S
C176 H142 0.932 . S
C176 C175 1.405 . S
C176 C177 1.383 . S
C177 C176 1.383 . S
C177 C178 1.393 . S
C178 H143 0.931 . S
C178 C177 1.393 . S
C178 C179 1.382 . S
C179 H144 0.929 . S
C179 C174 1.371 . S
C179 C178 1.382 . S
C180 N148 1.423 . S
C180 C181 1.362 . S
C180 C185 1.388 . S
C181 H145 0.929 . S
C181 C180 1.362 . S
C181 C182 1.376 . S
C182 H146 0.931 . S
C182 C181 1.376 . S
C182 C183 1.396 . S
C183 C165 1.472 . S
C183 C182 1.396 . S
C183 C184 1.348 . S
C184 H147 0.929 . S
C184 C183 1.348 . S
C184 C185 1.443 . S
C185 H149 0.932 . S
C185 C180 1.388 . S
C185 C184 1.443 . S
H186 C213 0.929 . S
N187 C212 1.433 . S
N187 C218 1.435 . S
N187 C224 1.423 . S
H188 C214 0.930 . S
H189 C217 0.931 . S
H190 C216 0.929 . S
H191 C219 0.930 . S
H192 C220 0.932 . S
H193 C223 0.929 . S
H194 C222 0.931 . S
H195 C225 0.929 . S
H196 C229 0.932 . S
H197 C226 0.931 . S
H198 C228 0.929 . S
H199 C231 0.929 . S
H200 C232 0.930 . S
H201 C234 0.929 . S
H202 C235 0.931 . S
H203 C237 0.930 . S
H204 C238 0.932 . S
H205 C240 0.931 . S
H206 C241 0.929 . S
H207 C243 0.929 . S
H208 C244 0.931 1_565 S
H209 C246 0.929 . S
N210 C230 1.433 . S
N210 C236 1.435 . S
N210 C242 1.423 . S
H211 C247 0.932 . S
C212 N187 1.433 . S
C212 C213 1.363 . S
C212 C217 1.370 . S
C213 H186 0.929 . S
C213 C212 1.363 . S
C213 C214 1.385 . S
C214 H188 0.930 . S
C214 C213 1.385 . S
C214 C215 1.357 . S
C215 C214 1.357 . S
C215 C216 1.406 . S
C216 H190 0.929 . S
C216 C215 1.406 . S
C216 C217 1.391 . S
C217 H189 0.931 . S
C217 C212 1.370 . S
C217 C216 1.391 . S
C218 N187 1.435 . S
C218 C219 1.358 . S
C218 C223 1.371 . S
C219 H191 0.930 . S
C219 C218 1.358 . S
C219 C220 1.405 . S
C220 H192 0.932 . S
C220 C219 1.405 . S
C220 C221 1.383 . S
C221 C220 1.383 . S
C221 C222 1.393 . S
C222 H194 0.931 . S
C222 C221 1.393 . S
C222 C223 1.382 . S
C223 H193 0.929 . S
C223 C218 1.371 . S
C223 C222 1.382 . S
C224 N187 1.423 . S
C224 C225 1.362 . S
C224 C229 1.388 . S
C225 H195 0.929 . S
C225 C224 1.362 . S
C225 C226 1.376 . S
C226 H197 0.931 . S
C226 C225 1.376 . S
C226 C227 1.396 . S
C227 C226 1.396 . S
C227 C228 1.348 . S
C227 C245 1.472 1_565 S
C228 H198 0.929 . S
C228 C227 1.348 . S
C228 C229 1.443 . S
C229 H196 0.932 . S
C229 C224 1.388 . S
C229 C228 1.443 . S
C230 N210 1.433 . S
C230 C231 1.363 . S
C230 C235 1.370 . S
C231 H199 0.929 . S
C231 C230 1.363 . S
C231 C232 1.385 . S
C232 H200 0.930 . S
C232 C231 1.385 . S
C232 C233 1.357 . S
C233 C232 1.357 . S
C233 C234 1.406 . S
C234 H201 0.929 . S
C234 C233 1.406 . S
C234 C235 1.391 . S
C235 H202 0.931 . S
C235 C230 1.370 . S
C235 C234 1.391 . S
C236 N210 1.435 . S
C236 C237 1.358 . S
C236 C241 1.371 . S
C237 H203 0.930 . S
C237 C236 1.358 . S
C237 C238 1.405 . S
C238 H204 0.932 . S
C238 C237 1.405 . S
C238 C239 1.383 . S
C239 C238 1.383 . S
C239 C240 1.393 . S
C240 H205 0.931 . S
C240 C239 1.393 . S
C240 C241 1.382 . S
C241 H206 0.929 . S
C241 C236 1.371 . S
C241 C240 1.382 . S
C242 N210 1.423 . S
C242 C243 1.362 . S
C242 C247 1.388 . S
C243 H207 0.929 . S
C243 C242 1.362 . S
C243 C244 1.376 . S
C244 H208 0.931 1_545 S
C244 C243 1.376 . S
C244 C245 1.396 . S
C245 C227 1.472 1_545 S
C245 C244 1.396 . S
C245 C246 1.348 . S
C246 H209 0.929 . S
C246 C245 1.348 . S
C246 C247 1.443 . S
C247 H211 0.932 . S
C247 C242 1.388 . S
C247 C246 1.443 . S
H248 C275 0.929 . S
N249 C274 1.433 . S
N249 C280 1.435 . S
N249 C286 1.423 . S
H250 C276 0.930 . S
H251 C279 0.931 . S
H252 C278 0.929 . S
H253 C281 0.930 . S
H254 C282 0.932 . S
H255 C285 0.929 . S
H256 C284 0.931 . S
H257 C287 0.929 . S
H258 C291 0.932 . S
H259 C288 0.931 . S
H260 C290 0.929 . S
H261 C293 0.929 . S
H262 C294 0.930 . S
H263 C296 0.929 . S
H264 C297 0.931 . S
H265 C299 0.930 . S
H266 C300 0.932 . S
H267 C302 0.931 . S
H268 C303 0.929 . S
H269 C305 0.929 . S
H270 C306 0.931 1_455 S
H271 C308 0.929 . S
N272 C292 1.433 . S
N272 C298 1.435 . S
N272 C304 1.423 . S
H273 C309 0.932 . S
C274 N249 1.433 . S
C274 C275 1.363 . S
C274 C279 1.370 . S
C275 H248 0.929 . S
C275 C274 1.363 . S
C275 C276 1.385 . S
C276 H250 0.930 . S
C276 C275 1.385 . S
C276 C277 1.357 . S
C277 C276 1.357 . S
C277 C278 1.406 . S
C278 H252 0.929 . S
C278 C277 1.406 . S
C278 C279 1.391 . S
C279 H251 0.931 . S
C279 C274 1.370 . S
C279 C278 1.391 . S
C280 N249 1.435 . S
C280 C281 1.358 . S
C280 C285 1.371 . S
C281 H253 0.930 . S
C281 C280 1.358 . S
C281 C282 1.405 . S
C282 H254 0.932 . S
C282 C281 1.405 . S
C282 C283 1.383 . S
C283 C282 1.383 . S
C283 C284 1.393 . S
C284 H256 0.931 . S
C284 C283 1.393 . S
C284 C285 1.382 . S
C285 H255 0.929 . S
C285 C280 1.371 . S
C285 C284 1.382 . S
C286 N249 1.423 . S
C286 C287 1.362 . S
C286 C291 1.388 . S
C287 H257 0.929 . S
C287 C286 1.362 . S
C287 C288 1.376 . S
C288 H259 0.931 . S
C288 C287 1.376 . S
C288 C289 1.396 . S
C289 C288 1.396 . S
C289 C290 1.348 . S
C289 C307 1.496 . S
C290 H260 0.929 . S
C290 C289 1.348 . S
C290 C291 1.443 . S
C291 H258 0.932 . S
C291 C286 1.388 . S
C291 C290 1.443 . S
C292 N272 1.433 . S
C292 C293 1.363 . S
C292 C297 1.370 . S
C293 H261 0.929 . S
C293 C292 1.363 . S
C293 C294 1.385 . S
C294 H262 0.930 . S
C294 C293 1.385 . S
C294 C295 1.357 . S
C295 C294 1.357 . S
C295 C296 1.406 . S
C296 H263 0.929 . S
C296 C295 1.406 . S
C296 C297 1.391 . S
C297 H264 0.931 . S
C297 C292 1.370 . S
C297 C296 1.391 . S
C298 N272 1.435 . S
C298 C299 1.358 . S
C298 C303 1.371 . S
C299 H265 0.930 . S
C299 C298 1.358 . S
C299 C300 1.405 . S
C300 H266 0.932 . S
C300 C299 1.405 . S
C300 C301 1.383 . S
C301 C300 1.383 . S
C301 C302 1.393 . S
C302 H267 0.931 . S
C302 C301 1.393 . S
C302 C303 1.382 . S
C303 H268 0.929 . S
C303 C298 1.371 . S
C303 C302 1.382 . S
C304 N272 1.423 . S
C304 C305 1.362 . S
C304 C309 1.388 . S
C305 H269 0.929 . S
C305 C304 1.362 . S
C305 C306 1.376 . S
C306 H270 0.931 1_655 S
C306 C305 1.376 . S
C306 C307 1.393 1_655 S
C307 C289 1.496 . S
C307 C306 1.393 1_455 S
C307 C308 1.325 1_455 S
C308 H271 0.929 . S
C308 C307 1.325 1_655 S
C308 C309 1.443 . S
C309 H273 0.932 . S
C309 C304 1.388 . S
C309 C308 1.443 . S
H310 C337 0.929 . S
N311 C336 1.433 . S
N311 C342 1.435 . S
N311 C348 1.423 . S
H312 C338 0.930 . S
H313 C341 0.931 . S
H314 C340 0.929 . S
H315 C343 0.930 . S
H316 C344 0.932 . S
H317 C347 0.929 . S
H318 C346 0.931 . S
H319 C349 0.929 . S
H320 C353 0.932 . S
H321 C350 0.931 . S
H322 C352 0.929 . S
H323 C355 0.929 . S
H324 C356 0.930 . S
H325 C358 0.929 . S
H326 C359 0.931 . S
H327 C361 0.930 . S
H328 C362 0.932 . S
H329 C364 0.931 . S
H330 C365 0.929 . S
H331 C367 0.929 . S
H332 C368 0.931 . S
H333 C370 0.929 . S
N334 C354 1.433 . S
N334 C360 1.435 . S
N334 C366 1.423 . S
H335 C371 0.932 . S
C336 N311 1.433 . S
C336 C337 1.363 . S
C336 C341 1.370 . S
C337 H310 0.929 . S
C337 C336 1.363 . S
C337 C338 1.385 . S
C338 H312 0.930 . S
C338 C337 1.385 . S
C338 C339 1.357 . S
C339 C338 1.357 . S
C339 C340 1.406 . S
C340 H314 0.929 . S
C340 C339 1.406 . S
C340 C341 1.391 . S
C341 H313 0.931 . S
C341 C336 1.370 . S
C341 C340 1.391 . S
C342 N311 1.435 . S
C342 C343 1.358 . S
C342 C347 1.371 . S
C343 H315 0.930 . S
C343 C342 1.358 . S
C343 C344 1.405 . S
C344 H316 0.932 . S
C344 C343 1.405 . S
C344 C345 1.383 . S
C345 C344 1.383 . S
C345 C346 1.393 . S
C346 H318 0.931 . S
C346 C345 1.393 . S
C346 C347 1.382 . S
C347 H317 0.929 . S
C347 C342 1.371 . S
C347 C346 1.382 . S
C348 N311 1.423 . S
C348 C349 1.362 . S
C348 C353 1.388 . S
C349 H319 0.929 . S
C349 C348 1.362 . S
C349 C350 1.376 . S
C350 H321 0.931 . S
C350 C349 1.376 . S
C350 C351 1.396 . S
C351 C350 1.396 . S
C351 C352 1.348 . S
C351 C369 1.472 . S
C352 H322 0.929 . S
C352 C351 1.348 . S
C352 C353 1.443 . S
C353 H320 0.932 . S
C353 C348 1.388 . S
C353 C352 1.443 . S
C354 N334 1.433 . S
C354 C355 1.363 . S
C354 C359 1.370 . S
C355 H323 0.929 . S
C355 C354 1.363 . S
C355 C356 1.385 . S
C356 H324 0.930 . S
C356 C355 1.385 . S
C356 C357 1.357 . S
C357 C356 1.357 . S
C357 C358 1.406 . S
C358 H325 0.929 . S
C358 C357 1.406 . S
C358 C359 1.391 . S
C359 H326 0.931 . S
C359 C354 1.370 . S
C359 C358 1.391 . S
C360 N334 1.435 . S
C360 C361 1.358 . S
C360 C365 1.371 . S
C361 H327 0.930 . S
C361 C360 1.358 . S
C361 C362 1.405 . S
C362 H328 0.932 . S
C362 C361 1.405 . S
C362 C363 1.383 . S
C363 C362 1.383 . S
C363 C364 1.393 . S
C364 H329 0.931 . S
C364 C363 1.393 . S
C364 C365 1.382 . S
C365 H330 0.929 . S
C365 C360 1.371 . S
C365 C364 1.382 . S
C366 N334 1.423 . S
C366 C367 1.362 . S
C366 C371 1.388 . S
C367 H331 0.929 . S
C367 C366 1.362 . S
C367 C368 1.376 . S
C368 H332 0.931 . S
C368 C367 1.376 . S
C368 C369 1.396 . S
C369 C351 1.472 . S
C369 C368 1.396 . S
C369 C370 1.348 . S
C370 H333 0.929 . S
C370 C369 1.348 . S
C370 C371 1.443 . S
C371 H335 0.932 . S
C371 C366 1.388 . S
C371 C370 1.443 . S
H372 C399 0.929 . S
N373 C398 1.433 . S
N373 C404 1.435 . S
N373 C410 1.423 . S
H374 C400 0.930 . S
H375 C403 0.931 . S
H376 C402 0.929 . S
H377 C405 0.930 . S
H378 C406 0.932 . S
H379 C409 0.929 . S
H380 C408 0.931 . S
H381 C411 0.932 . S
H382 C415 0.932 . S
H383 C412 0.931 . S
H384 C414 0.929 . S
H385 C417 0.929 . S
H386 C418 0.930 . S
H387 C420 0.929 . S
H388 C421 0.931 . S
H389 C423 0.930 . S
H390 C424 0.932 . S
H391 C426 0.931 . S
H392 C427 0.929 . S
H393 C429 0.929 . S
H394 C430 0.931 . S
H395 C432 0.929 . S
N396 C416 1.433 . S
N396 C422 1.435 . S
N396 C428 1.423 . S
H397 C433 0.932 . S
C398 N373 1.433 . S
C398 C399 1.363 . S
C398 C403 1.370 . S
C399 H372 0.929 . S
C399 C398 1.363 . S
C399 C400 1.385 . S
C400 H374 0.930 . S
C400 C399 1.385 . S
C400 C401 1.357 . S
C401 C400 1.357 . S
C401 C402 1.406 . S
C402 H376 0.929 . S
C402 C401 1.406 . S
C402 C403 1.391 . S
C403 H375 0.931 . S
C403 C398 1.370 . S
C403 C402 1.391 . S
C404 N373 1.435 . S
C404 C405 1.358 . S
C404 C409 1.371 . S
C405 H377 0.930 . S
C405 C404 1.358 . S
C405 C406 1.405 . S
C406 H378 0.932 . S
C406 C405 1.405 . S
C406 C407 1.383 . S
C407 C406 1.383 . S
C407 C408 1.393 . S
C408 H380 0.931 . S
C408 C407 1.393 . S
C408 C409 1.382 . S
C409 H379 0.929 . S
C409 C404 1.371 . S
C409 C408 1.382 . S
C410 N373 1.423 . S
C410 C411 1.362 . S
C410 C415 1.388 . S
C411 H381 0.932 . S
C411 C410 1.362 . S
C411 C412 1.376 1_565 S
C412 H383 0.931 . S
C412 C411 1.376 1_545 S
C412 C413 1.396 . S
C413 C412 1.396 . S
C413 C414 1.348 1_545 S
C413 C431 1.472 . S
C414 H384 0.929 . S
C414 C413 1.348 1_565 S
C414 C415 1.443 . S
C415 H382 0.932 . S
C415 C410 1.388 . S
C415 C414 1.443 . S
C416 N396 1.433 . S
C416 C417 1.363 . S
C416 C421 1.370 . S
C417 H385 0.929 . S
C417 C416 1.363 . S
C417 C418 1.385 . S
C418 H386 0.930 . S
C418 C417 1.385 . S
C418 C419 1.357 . S
C419 C418 1.357 . S
C419 C420 1.406 . S
C420 H387 0.929 . S
C420 C419 1.406 . S
C420 C421 1.391 . S
C421 H388 0.931 . S
C421 C416 1.370 . S
C421 C420 1.391 . S
C422 N396 1.435 . S
C422 C423 1.358 . S
C422 C427 1.371 . S
C423 H389 0.930 . S
C423 C422 1.358 . S
C423 C424 1.405 . S
C424 H390 0.932 . S
C424 C423 1.405 . S
C424 C425 1.383 . S
C425 C424 1.383 . S
C425 C426 1.393 . S
C426 H391 0.931 . S
C426 C425 1.393 . S
C426 C427 1.382 . S
C427 H392 0.929 . S
C427 C422 1.371 . S
C427 C426 1.382 . S
C428 N396 1.423 . S
C428 C429 1.362 . S
C428 C433 1.388 . S
C429 H393 0.929 . S
C429 C428 1.362 . S
C429 C430 1.376 . S
C430 H394 0.931 . S
C430 C429 1.376 . S
C430 C431 1.396 . S
C431 C413 1.472 . S
C431 C430 1.396 . S
C431 C432 1.348 . S
C432 H395 0.929 . S
C432 C431 1.348 . S
C432 C433 1.443 . S
C433 H397 0.932 . S
C433 C428 1.388 . S
C433 C432 1.443 . S
H434 C461 0.929 . S
N435 C460 1.433 . S
N435 C466 1.435 . S
N435 C472 1.423 . S
H436 C462 0.930 . S
H437 C465 0.931 . S
H438 C464 0.929 . S
H439 C467 0.930 . S
H440 C468 0.932 . S
H441 C471 0.929 . S
H442 C470 0.931 . S
H443 C473 0.929 . S
H444 C477 0.932 . S
H445 C474 0.931 . S
H446 C476 0.929 . S
H447 C479 0.929 . S
H448 C480 0.930 . S
H449 C482 0.929 . S
H450 C483 0.931 . S
H451 C485 0.930 . S
H452 C486 0.932 . S
H453 C488 0.931 . S
H454 C489 0.929 . S
H455 C491 0.929 . S
H456 C492 0.931 . S
H457 C494 0.929 . S
N458 C478 1.433 . S
N458 C484 1.435 . S
N458 C490 1.423 . S
H459 C495 0.932 . S
C460 N435 1.433 . S
C460 C461 1.363 . S
C460 C465 1.370 . S
C461 H434 0.929 . S
C461 C460 1.363 . S
C461 C462 1.385 . S
C462 H436 0.930 . S
C462 C461 1.385 . S
C462 C463 1.357 . S
C463 C462 1.357 . S
C463 C464 1.406 . S
C464 H438 0.929 . S
C464 C463 1.406 . S
C464 C465 1.391 . S
C465 H437 0.931 . S
C465 C460 1.370 . S
C465 C464 1.391 . S
C466 N435 1.435 . S
C466 C467 1.358 . S
C466 C471 1.371 . S
C467 H439 0.930 . S
C467 C466 1.358 . S
C467 C468 1.405 . S
C468 H440 0.932 . S
C468 C467 1.405 . S
C468 C469 1.383 . S
C469 C468 1.383 . S
C469 C470 1.393 . S
C470 H442 0.931 . S
C470 C469 1.393 . S
C470 C471 1.382 . S
C471 H441 0.929 . S
C471 C466 1.371 . S
C471 C470 1.382 . S
C472 N435 1.423 . S
C472 C473 1.362 . S
C472 C477 1.388 . S
C473 H443 0.929 . S
C473 C472 1.362 . S
C473 C474 1.376 1_455 S
C474 H445 0.931 . S
C474 C473 1.376 1_655 S
C474 C475 1.401 . S
C475 C474 1.401 . S
C475 C476 1.314 1_655 S
C475 C493 1.500 1_565 S
C476 H446 0.929 . S
C476 C475 1.314 1_455 S
C476 C477 1.443 . S
C477 H444 0.932 . S
C477 C472 1.388 . S
C477 C476 1.443 . S
C478 N458 1.433 . S
C478 C479 1.363 . S
C478 C483 1.370 . S
C479 H447 0.929 . S
C479 C478 1.363 . S
C479 C480 1.385 . S
C480 H448 0.930 . S
C480 C479 1.385 . S
C480 C481 1.357 . S
C481 C480 1.357 . S
C481 C482 1.406 . S
C482 H449 0.929 . S
C482 C481 1.406 . S
C482 C483 1.391 . S
C483 H450 0.931 . S
C483 C478 1.370 . S
C483 C482 1.391 . S
C484 N458 1.435 . S
C484 C485 1.358 . S
C484 C489 1.371 . S
C485 H451 0.930 . S
C485 C484 1.358 . S
C485 C486 1.405 . S
C486 H452 0.932 . S
C486 C485 1.405 . S
C486 C487 1.383 . S
C487 C486 1.383 . S
C487 C488 1.393 . S
C488 H453 0.931 . S
C488 C487 1.393 . S
C488 C489 1.382 . S
C489 H454 0.929 . S
C489 C484 1.371 . S
C489 C488 1.382 . S
C490 N458 1.423 . S
C490 C491 1.362 . S
C490 C495 1.388 . S
C491 H455 0.929 . S
C491 C490 1.362 . S
C491 C492 1.376 . S
C492 H456 0.931 . S
C492 C491 1.376 . S
C492 C493 1.396 . S
C493 C475 1.500 1_545 S
C493 C492 1.396 . S
C493 C494 1.348 . S
C494 H457 0.929 . S
C494 C493 1.348 . S
C494 C495 1.443 . S
C495 H459 0.932 . S
C495 C490 1.388 . S
C495 C494 1.443 . S
Co496 O497 2.217 . S
Co496 O498 2.092 1_554 S
Co496 O500 2.004 . S
Co496 O506 2.021 1_554 S
Co496 O508 2.137 . S
Co496 O509 2.244 . S
O497 Co496 2.217 . S
O497 C504 1.246 1_554 S
O498 Co496 2.092 1_556 S
O498 C504 1.261 . S
C499 O508 1.247 . S
C499 O509 1.272 . S
O500 Co496 2.004 . S
O500 C505 1.259 . S
Co501 O502 2.061 . S
Co501 O507 2.052 1_554 S
Co501 O509 2.135 . S
O502 Co501 2.061 . S
O502 C505 1.235 . S
C503 O506 1.238 . S
C503 O507 1.241 . S
C504 O497 1.246 1_556 S
C504 O498 1.261 . S
C505 O500 1.259 . S
C505 O502 1.235 . S
O506 Co496 2.021 1_556 S
O506 C503 1.238 . S
O507 Co501 2.052 1_556 S
O507 C503 1.241 . S
O508 Co496 2.137 . S
O508 C499 1.247 . S
O509 Co496 2.244 . S
O509 C499 1.272 . S
O509 Co501 2.135 . S
Co510 O511 2.216 . S
Co510 O512 2.091 . S
Co510 O514 2.004 . S
Co510 O520 2.021 . S
Co510 O522 2.137 . S
Co510 O523 2.244 . S
O511 Co510 2.216 . S
O511 C518 1.247 . S
O512 Co510 2.091 . S
O512 C518 1.261 . S
C513 O522 1.247 . S
C513 O523 1.272 . S
O514 Co510 2.004 . S
O514 C519 1.259 . S
Co515 O516 2.061 . S
Co515 O521 2.052 . S
Co515 O523 2.135 . S
O516 Co515 2.061 . S
O516 C519 1.235 . S
C517 O520 1.238 . S
C517 O521 1.241 . S
C518 O511 1.247 . S
C518 O512 1.261 . S
C519 O514 1.259 . S
C519 O516 1.235 . S
O520 Co510 2.021 . S
O520 C517 1.238 . S
O521 Co515 2.052 . S
O521 C517 1.241 . S
O522 Co510 2.137 . S
O522 C513 1.247 . S
O523 Co510 2.244 . S
O523 C513 1.272 . S
O523 Co515 2.135 . S
Co524 O525 2.216 . S
Co524 O526 2.091 . S
Co524 O528 2.004 . S
Co524 O534 2.021 . S
Co524 O536 2.137 . S
Co524 O537 2.244 . S
O525 Co524 2.216 . S
O525 C532 1.247 . S
O526 Co524 2.091 . S
O526 C532 1.261 . S
C527 O536 1.247 . S
C527 O537 1.272 . S
O528 Co524 2.004 . S
O528 C533 1.259 . S
Co529 O530 2.061 . S
Co529 O535 2.052 . S
Co529 O537 2.135 . S
O530 Co529 2.061 . S
O530 C533 1.235 . S
C531 O534 1.238 . S
C531 O535 1.241 . S
C532 O525 1.247 . S
C532 O526 1.261 . S
C533 O528 1.259 . S
C533 O530 1.235 . S
O534 Co524 2.021 . S
O534 C531 1.238 . S
O535 Co529 2.052 . S
O535 C531 1.241 . S
O536 Co524 2.137 . S
O536 C527 1.247 . S
O537 Co524 2.244 . S
O537 C527 1.272 . S
O537 Co529 2.135 . S
Co538 O539 2.216 . S
Co538 O540 2.091 . S
Co538 O542 2.004 . S
Co538 O548 2.021 . S
Co538 O550 2.137 . S
Co538 O551 2.244 . S
O539 Co538 2.216 . S
O539 C546 1.247 . S
O540 Co538 2.091 . S
O540 C546 1.261 . S
C541 O550 1.247 . S
C541 O551 1.272 . S
O542 Co538 2.004 . S
O542 C547 1.259 . S
Co543 O544 2.061 . S
Co543 O549 2.052 . S
Co543 O551 2.135 . S
O544 Co543 2.061 . S
O544 C547 1.235 . S
C545 O548 1.238 . S
C545 O549 1.241 . S
C546 O539 1.247 . S
C546 O540 1.261 . S
C547 O542 1.259 . S
C547 O544 1.235 . S
O548 Co538 2.021 . S
O548 C545 1.238 . S
O549 Co543 2.052 . S
O549 C545 1.241 . S
O550 Co538 2.137 . S
O550 C541 1.247 . S
O551 Co538 2.244 . S
O551 C541 1.272 . S
O551 Co543 2.135 . S
Co552 O553 2.216 . S
Co552 O554 2.091 . S
Co552 O556 2.004 . S
Co552 O562 2.021 . S
Co552 O564 2.137 . S
Co552 O565 2.244 . S
O553 Co552 2.216 . S
O553 C560 1.247 . S
O554 Co552 2.091 . S
O554 C560 1.261 . S
C555 O564 1.247 . S
C555 O565 1.272 . S
O556 Co552 2.004 . S
O556 C561 1.259 . S
Co557 O558 2.061 . S
Co557 O563 2.052 . S
Co557 O565 2.135 . S
O558 Co557 2.061 . S
O558 C561 1.235 . S
C559 O562 1.238 . S
C559 O563 1.241 . S
C560 O553 1.247 . S
C560 O554 1.261 . S
C561 O556 1.259 . S
C561 O558 1.235 . S
O562 Co552 2.021 . S
O562 C559 1.238 . S
O563 Co557 2.052 . S
O563 C559 1.241 . S
O564 Co552 2.137 . S
O564 C555 1.247 . S
O565 Co552 2.244 . S
O565 C555 1.272 . S
O565 Co557 2.135 . S
Co566 O567 2.216 . S
Co566 O568 2.091 . S
Co566 O570 2.004 . S
Co566 O576 2.021 . S
Co566 O578 2.137 . S
Co566 O579 2.244 . S
O567 Co566 2.216 . S
O567 C574 1.247 . S
O568 Co566 2.091 . S
O568 C574 1.261 . S
C569 O578 1.247 . S
C569 O579 1.272 . S
O570 Co566 2.004 . S
O570 C575 1.259 . S
Co571 O572 2.061 . S
Co571 O577 2.052 . S
Co571 O579 2.135 . S
O572 Co571 2.061 . S
O572 C575 1.235 . S
C573 O576 1.238 . S
C573 O577 1.241 . S
C574 O567 1.247 . S
C574 O568 1.261 . S
C575 O570 1.259 . S
C575 O572 1.235 . S
O576 Co566 2.021 . S
O576 C573 1.238 . S
O577 Co571 2.052 . S
O577 C573 1.241 . S
O578 Co566 2.137 . S
O578 C569 1.247 . S
O579 Co566 2.244 . S
O579 C569 1.272 . S
O579 Co571 2.135 . S
Co580 O581 2.216 1_556 S
Co580 O582 2.091 1_556 S
Co580 O584 2.004 . S
Co580 O590 2.021 1_556 S
Co580 O592 2.137 . S
Co580 O593 2.244 . S
O581 Co580 2.216 1_554 S
O581 C588 1.247 . S
O582 Co580 2.091 1_554 S
O582 C588 1.261 . S
C583 O592 1.247 . S
C583 O593 1.272 . S
O584 Co580 2.004 . S
O584 C589 1.259 . S
Co585 O586 2.061 . S
Co585 O591 2.052 1_556 S
Co585 O593 2.135 . S
O586 Co585 2.061 . S
O586 C589 1.235 . S
C587 O590 1.238 . S
C587 O591 1.241 . S
C588 O581 1.247 . S
C588 O582 1.261 . S
C589 O584 1.259 . S
C589 O586 1.235 . S
O590 Co580 2.021 1_554 S
O590 C587 1.238 . S
O591 Co585 2.052 1_554 S
O591 C587 1.241 . S
O592 Co580 2.137 . S
O592 C583 1.247 . S
O593 Co580 2.244 . S
O593 C583 1.272 . S
O593 Co585 2.135 . S
Co594 O595 2.216 . S
Co594 O596 2.091 . S
Co594 O598 2.004 . S
Co594 O604 2.021 . S
Co594 O606 2.137 . S
Co594 O607 2.244 . S
O595 Co594 2.216 . S
O595 C602 1.247 . S
O596 Co594 2.091 . S
O596 C602 1.261 . S
C597 O606 1.247 . S
C597 O607 1.272 . S
O598 Co594 2.004 . S
O598 C603 1.259 . S
Co599 O600 2.061 . S
Co599 O605 2.052 . S
Co599 O607 2.135 . S
O600 Co599 2.061 . S
O600 C603 1.235 . S
C601 O604 1.238 . S
C601 O605 1.241 . S
C602 O595 1.247 . S
C602 O596 1.261 . S
C603 O598 1.259 . S
C603 O600 1.235 . S
O604 Co594 2.021 . S
O604 C601 1.238 . S
O605 Co599 2.052 . S
O605 C601 1.241 . S
O606 Co594 2.137 . S
O606 C597 1.247 . S
O607 Co594 2.244 . S
O607 C597 1.272 . S
O607 Co599 2.135 . S
H608 C620 0.930 . S
H609 C622 0.930 . S
H610 C623 0.930 . S
H611 C627 0.959 . S
H612 C627 0.959 . S
H613 C627 0.961 . S
H614 C628 0.960 . S
H615 C628 0.961 . S
H616 C628 0.959 . S
H617 C631 0.929 . S
H618 C632 0.931 . S
H619 C634 0.930 . S
C620 H608 0.930 . S
C620 C621 1.399 . S
C620 C625 1.399 . S
C621 C620 1.399 . S
C621 C622 1.376 . S
C622 H609 0.930 . S
C622 C621 1.376 . S
C622 C623 1.388 . S
C623 H610 0.930 . S
C623 C622 1.388 . S
C623 C624 1.390 . S
C624 C623 1.390 . S
C624 C625 1.394 . S
C624 C630 1.465 . S
C625 C620 1.399 . S
C625 C624 1.394 . S
C625 C626 1.516 . S
C626 C625 1.516 . S
C626 C627 1.502 . S
C626 C628 1.561 . S
C626 C629 1.526 . S
C627 H611 0.959 . S
C627 H612 0.959 . S
C627 H613 0.961 . S
C627 C626 1.502 . S
C628 H614 0.960 . S
C628 H615 0.961 . S
C628 H616 0.959 . S
C628 C626 1.561 . S
C629 C626 1.526 . S
C629 C630 1.396 . S
C629 C634 1.390 . S
C630 C624 1.465 . S
C630 C629 1.396 . S
C630 C631 1.399 . S
C631 H617 0.929 . S
C631 C630 1.399 . S
C631 C632 1.385 . S
C632 H618 0.931 . S
C632 C631 1.385 . S
C632 C633 1.389 . S
C633 C632 1.389 . S
C633 C634 1.387 . S
C634 H619 0.930 . S
C634 C629 1.390 . S
C634 C633 1.387 . S
H635 C647 0.930 . S
H636 C649 0.930 . S
H637 C650 0.930 . S
H638 C654 0.959 . S
H639 C654 0.959 . S
H640 C654 0.961 . S
H641 C655 0.960 . S
H642 C655 0.961 . S
H643 C655 0.959 . S
H644 C658 0.929 . S
H645 C659 0.931 . S
H646 C661 0.930 . S
C647 H635 0.930 . S
C647 C648 1.399 . S
C647 C652 1.399 . S
C648 C647 1.399 . S
C648 C649 1.376 . S
C649 H636 0.930 . S
C649 C648 1.376 . S
C649 C650 1.388 . S
C650 H637 0.930 . S
C650 C649 1.388 . S
C650 C651 1.390 . S
C651 C650 1.390 . S
C651 C652 1.394 . S
C651 C657 1.465 . S
C652 C647 1.399 . S
C652 C651 1.394 . S
C652 C653 1.516 . S
C653 C652 1.516 . S
C653 C654 1.502 . S
C653 C655 1.561 . S
C653 C656 1.526 . S
C654 H638 0.959 . S
C654 H639 0.959 . S
C654 H640 0.961 . S
C654 C653 1.502 . S
C655 H641 0.960 . S
C655 H642 0.961 . S
C655 H643 0.959 . S
C655 C653 1.561 . S
C656 C653 1.526 . S
C656 C657 1.396 . S
C656 C661 1.390 . S
C657 C651 1.465 . S
C657 C656 1.396 . S
C657 C658 1.399 . S
C658 H644 0.929 . S
C658 C657 1.399 . S
C658 C659 1.385 . S
C659 H645 0.931 . S
C659 C658 1.385 . S
C659 C660 1.389 . S
C660 C659 1.389 . S
C660 C661 1.387 . S
C661 H646 0.930 . S
C661 C656 1.390 . S
C661 C660 1.387 . S
H662 C674 0.930 . S
H663 C676 0.930 . S
H664 C677 0.930 . S
H665 C681 0.959 . S
H666 C681 0.959 . S
H667 C681 0.961 . S
H668 C682 0.960 . S
H669 C682 0.961 . S
H670 C682 0.959 . S
H671 C685 0.929 . S
H672 C686 0.931 . S
H673 C688 0.930 . S
C674 H662 0.930 . S
C674 C675 1.399 . S
C674 C679 1.399 . S
C675 C674 1.399 . S
C675 C676 1.376 . S
C676 H663 0.930 . S
C676 C675 1.376 . S
C676 C677 1.388 . S
C677 H664 0.930 . S
C677 C676 1.388 . S
C677 C678 1.390 . S
C678 C677 1.390 . S
C678 C679 1.394 . S
C678 C684 1.465 . S
C679 C674 1.399 . S
C679 C678 1.394 . S
C679 C680 1.516 . S
C680 C679 1.516 . S
C680 C681 1.502 . S
C680 C682 1.561 . S
C680 C683 1.526 . S
C681 H665 0.959 . S
C681 H666 0.959 . S
C681 H667 0.961 . S
C681 C680 1.502 . S
C682 H668 0.960 . S
C682 H669 0.961 . S
C682 H670 0.959 . S
C682 C680 1.561 . S
C683 C680 1.526 . S
C683 C684 1.396 . S
C683 C688 1.390 . S
C684 C678 1.465 . S
C684 C683 1.396 . S
C684 C685 1.399 . S
C685 H671 0.929 . S
C685 C684 1.399 . S
C685 C686 1.385 . S
C686 H672 0.931 . S
C686 C685 1.385 . S
C686 C687 1.389 . S
C687 C686 1.389 . S
C687 C688 1.387 . S
C688 H673 0.930 . S
C688 C683 1.390 . S
C688 C687 1.387 . S
H689 C701 0.967 . S
H690 C703 0.930 . S
H691 C704 0.930 . S
H692 C708 0.959 . S
H693 C708 0.959 . S
H694 C708 0.961 . S
H695 C709 0.960 . S
H696 C709 0.961 . S
H697 C709 0.959 . S
H698 C712 0.929 . S
H699 C713 0.931 . S
H700 C715 0.930 . S
C701 H689 0.967 . S
C701 C702 1.368 1_556 S
C701 C706 1.393 1_556 S
C702 C701 1.368 1_554 S
C702 C703 1.376 . S
C703 H690 0.930 . S
C703 C702 1.376 . S
C703 C704 1.388 . S
C704 H691 0.930 . S
C704 C703 1.388 . S
C704 C705 1.390 . S
C705 C704 1.390 . S
C705 C706 1.394 . S
C705 C711 1.465 . S
C706 C701 1.393 1_554 S
C706 C705 1.394 . S
C706 C707 1.516 1_554 S
C707 C706 1.516 1_556 S
C707 C708 1.502 . S
C707 C709 1.561 . S
C707 C710 1.526 1_556 S
C708 H692 0.959 . S
C708 H693 0.959 . S
C708 H694 0.961 . S
C708 C707 1.502 . S
C709 H695 0.960 . S
C709 H696 0.961 . S
C709 H697 0.959 . S
C709 C707 1.561 . S
C710 C707 1.526 1_554 S
C710 C711 1.396 . S
C710 C715 1.390 1_554 S
C711 C705 1.465 . S
C711 C710 1.396 . S
C711 C712 1.399 . S
C712 H698 0.929 . S
C712 C711 1.399 . S
C712 C713 1.385 . S
C713 H699 0.931 . S
C713 C712 1.385 . S
C713 C714 1.389 . S
C714 C713 1.389 . S
C714 C715 1.387 1_554 S
C715 H700 0.930 . S
C715 C710 1.390 1_556 S
C715 C714 1.387 1_556 S
H716 C728 0.930 . S
H717 C730 0.918 1_554 S
H718 C731 0.930 . S
H719 C735 0.959 1_554 S
H720 C735 0.959 . S
H721 C735 0.961 . S
H722 C736 0.960 . S
H723 C736 0.961 . S
H724 C736 0.959 . S
H725 C739 0.929 . S
H726 C740 0.931 . S
H727 C742 0.930 . S
C728 H716 0.930 . S
C728 C729 1.399 . S
C728 C733 1.399 . S
C729 C728 1.399 . S
C729 C730 1.395 . S
C730 H717 0.918 1_556 S
C730 C729 1.395 . S
C730 C731 1.384 1_556 S
C731 H718 0.930 . S
C731 C730 1.384 1_554 S
C731 C732 1.390 1_554 S
C732 C731 1.390 1_556 S
C732 C733 1.394 . S
C732 C738 1.465 . S
C733 C728 1.399 . S
C733 C732 1.394 . S
C733 C734 1.516 . S
C734 C733 1.516 . S
C734 C735 1.502 . S
C734 C736 1.561 . S
C734 C737 1.526 . S
C735 H719 0.959 1_556 S
C735 H720 0.959 . S
C735 H721 0.961 . S
C735 C734 1.502 . S
C736 H722 0.960 . S
C736 H723 0.961 . S
C736 H724 0.959 . S
C736 C734 1.561 . S
C737 C734 1.526 . S
C737 C738 1.396 . S
C737 C742 1.390 . S
C738 C732 1.465 . S
C738 C737 1.396 . S
C738 C739 1.399 1_556 S
C739 H725 0.929 . S
C739 C738 1.399 1_554 S
C739 C740 1.385 . S
C740 H726 0.931 . S
C740 C739 1.385 . S
C740 C741 1.389 1_554 S
C741 C740 1.389 1_556 S
C741 C742 1.387 . S
C742 H727 0.930 . S
C742 C737 1.390 . S
C742 C741 1.387 . S
H743 C755 0.930 . S
H744 C757 0.930 . S
H745 C758 0.930 . S
H746 C762 0.959 . S
H747 C762 0.959 . S
H748 C762 0.961 . S
H749 C763 0.960 . S
H750 C763 0.961 . S
H751 C763 0.959 . S
H752 C766 0.929 . S
H753 C767 0.931 . S
H754 C769 0.930 . S
C755 H743 0.930 . S
C755 C756 1.399 . S
C755 C760 1.399 . S
C756 C755 1.399 . S
C756 C757 1.376 . S
C757 H744 0.930 . S
C757 C756 1.376 . S
C757 C758 1.388 . S
C758 H745 0.930 . S
C758 C757 1.388 . S
C758 C759 1.390 . S
C759 C758 1.390 . S
C759 C760 1.394 . S
C759 C765 1.465 . S
C760 C755 1.399 . S
C760 C759 1.394 . S
C760 C761 1.516 . S
C761 C760 1.516 . S
C761 C762 1.502 . S
C761 C763 1.561 . S
C761 C764 1.526 . S
C762 H746 0.959 . S
C762 H747 0.959 . S
C762 H748 0.961 . S
C762 C761 1.502 . S
C763 H749 0.960 . S
C763 H750 0.961 . S
C763 H751 0.959 . S
C763 C761 1.561 . S
C764 C761 1.526 . S
C764 C765 1.396 . S
C764 C769 1.390 . S
C765 C759 1.465 . S
C765 C764 1.396 . S
C765 C766 1.399 . S
C766 H752 0.929 . S
C766 C765 1.399 . S
C766 C767 1.385 . S
C767 H753 0.931 . S
C767 C766 1.385 . S
C767 C768 1.389 . S
C768 C767 1.389 . S
C768 C769 1.387 . S
C769 H754 0.930 . S
C769 C764 1.390 . S
C769 C768 1.387 . S
H770 C782 0.930 . S
H771 C784 0.930 . S
H772 C785 0.930 . S
H773 C789 0.959 . S
H774 C789 0.959 . S
H775 C789 0.961 . S
H776 C790 0.960 . S
H777 C790 0.961 . S
H778 C790 0.959 . S
H779 C793 0.929 . S
H780 C794 0.931 . S
H781 C796 0.930 . S
C782 H770 0.930 . S
C782 C783 1.399 . S
C782 C787 1.399 . S
C783 C782 1.399 . S
C783 C784 1.376 . S
C784 H771 0.930 . S
C784 C783 1.376 . S
C784 C785 1.388 . S
C785 H772 0.930 . S
C785 C784 1.388 . S
C785 C786 1.390 . S
C786 C785 1.390 . S
C786 C787 1.394 . S
C786 C792 1.465 . S
C787 C782 1.399 . S
C787 C786 1.394 . S
C787 C788 1.516 . S
C788 C787 1.516 . S
C788 C789 1.502 . S
C788 C790 1.561 . S
C788 C791 1.526 . S
C789 H773 0.959 . S
C789 H774 0.959 . S
C789 H775 0.961 . S
C789 C788 1.502 . S
C790 H776 0.960 . S
C790 H777 0.961 . S
C790 H778 0.959 . S
C790 C788 1.561 . S
C791 C788 1.526 . S
C791 C792 1.396 . S
C791 C796 1.390 . S
C792 C786 1.465 . S
C792 C791 1.396 . S
C792 C793 1.399 . S
C793 H779 0.929 . S
C793 C792 1.399 . S
C793 C794 1.385 . S
C794 H780 0.931 . S
C794 C793 1.385 . S
C794 C795 1.389 . S
C795 C794 1.389 . S
C795 C796 1.387 . S
C796 H781 0.930 . S
C796 C791 1.390 . S
C796 C795 1.387 . S
H797 C809 0.930 . S
H798 C811 0.930 . S
H799 C812 0.930 . S
H800 C816 0.959 . S
H801 C816 0.959 . S
H802 C816 0.961 . S
H803 C817 0.960 . S
H804 C817 0.961 . S
H805 C817 0.959 . S
H806 C820 0.929 . S
H807 C821 0.931 . S
H808 C823 0.930 . S
C809 H797 0.930 . S
C809 C810 1.399 . S
C809 C814 1.399 . S
C810 C809 1.399 . S
C810 C811 1.376 . S
C811 H798 0.930 . S
C811 C810 1.376 . S
C811 C812 1.388 . S
C812 H799 0.930 . S
C812 C811 1.388 . S
C812 C813 1.390 . S
C813 C812 1.390 . S
C813 C814 1.394 . S
C813 C819 1.465 . S
C814 C809 1.399 . S
C814 C813 1.394 . S
C814 C815 1.516 . S
C815 C814 1.516 . S
C815 C816 1.502 . S
C815 C817 1.561 . S
C815 C818 1.526 . S
C816 H800 0.959 . S
C816 H801 0.959 . S
C816 H802 0.961 . S
C816 C815 1.502 . S
C817 H803 0.960 . S
C817 H804 0.961 . S
C817 H805 0.959 . S
C817 C815 1.561 . S
C818 C815 1.526 . S
C818 C819 1.396 . S
C818 C823 1.390 . S
C819 C813 1.465 . S
C819 C818 1.396 . S
C819 C820 1.399 . S
C820 H806 0.929 . S
C820 C819 1.399 . S
C820 C821 1.385 . S
C821 H807 0.931 . S
C821 C820 1.385 . S
C821 C822 1.389 . S
C822 C821 1.389 . S
C822 C823 1.387 . S
C823 H808 0.930 . S
C823 C818 1.390 . S
C823 C822 1.387 . S
H824 C836 0.930 . S
H825 C838 0.930 . S
H826 C839 0.930 . S
H827 C843 0.959 . S
H828 C843 0.959 . S
H829 C843 0.961 . S
H830 C844 0.960 . S
H831 C844 0.961 . S
H832 C844 0.959 . S
H833 C847 0.929 . S
H834 C848 0.931 . S
H835 C850 0.930 . S
C836 H824 0.930 . S
C836 C837 1.399 . S
C836 C841 1.399 . S
C837 C836 1.399 . S
C837 C838 1.376 . S
C838 H825 0.930 . S
C838 C837 1.376 . S
C838 C839 1.388 . S
C839 H826 0.930 . S
C839 C838 1.388 . S
C839 C840 1.390 . S
C840 C839 1.390 . S
C840 C841 1.394 . S
C840 C846 1.465 . S
C841 C836 1.399 . S
C841 C840 1.394 . S
C841 C842 1.516 . S
C842 C841 1.516 . S
C842 C843 1.502 . S
C842 C844 1.561 . S
C842 C845 1.526 . S
C843 H827 0.959 . S
C843 H828 0.959 . S
C843 H829 0.961 . S
C843 C842 1.502 . S
C844 H830 0.960 . S
C844 H831 0.961 . S
C844 H832 0.959 . S
C844 C842 1.561 . S
C845 C842 1.526 . S
C845 C846 1.396 . S
C845 C850 1.390 . S
C846 C840 1.465 . S
C846 C845 1.396 . S
C846 C847 1.399 . S
C847 H833 0.929 . S
C847 C846 1.399 . S
C847 C848 1.385 . S
C848 H834 0.931 . S
C848 C847 1.385 . S
C848 C849 1.389 . S
C849 C848 1.389 . S
C849 C850 1.387 . S
C850 H835 0.930 . S
C850 C845 1.390 . S
C850 C849 1.387 . S
H851 C863 0.930 . S
H852 C865 0.930 . S
H853 C866 0.930 . S
H854 C870 0.959 . S
H855 C870 0.959 . S
H856 C870 0.961 . S
H857 C871 0.960 . S
H858 C871 0.961 . S
H859 C871 0.959 . S
H860 C874 0.929 . S
H861 C875 0.931 . S
H862 C877 0.930 . S
C863 H851 0.930 . S
C863 C864 1.399 1_556 S
C863 C868 1.399 1_556 S
C864 C863 1.399 1_554 S
C864 C865 1.376 . S
C865 H852 0.930 . S
C865 C864 1.376 . S
C865 C866 1.388 . S
C866 H853 0.930 . S
C866 C865 1.388 . S
C866 C867 1.390 . S
C867 C866 1.390 . S
C867 C868 1.394 . S
C867 C873 1.465 . S
C868 C863 1.399 1_554 S
C868 C867 1.394 . S
C868 C869 1.516 1_554 S
C869 C868 1.516 1_556 S
C869 C870 1.502 . S
C869 C871 1.561 . S
C869 C872 1.522 1_556 S
C870 H854 0.959 . S
C870 H855 0.959 . S
C870 H856 0.961 . S
C870 C869 1.502 . S
C871 H857 0.960 . S
C871 H858 0.961 . S
C871 H859 0.959 . S
C871 C869 1.561 . S
C872 C869 1.522 1_554 S
C872 C873 1.402 . S
C872 C877 1.388 1_554 S
C873 C867 1.465 . S
C873 C872 1.402 . S
C873 C874 1.399 . S
C874 H860 0.929 . S
C874 C873 1.399 . S
C874 C875 1.385 . S
C875 H861 0.931 . S
C875 C874 1.385 . S
C875 C876 1.389 . S
C876 C875 1.389 . S
C876 C877 1.387 1_554 S
C877 H862 0.930 . S
C877 C872 1.388 1_556 S
C877 C876 1.387 1_556 S
H878 C890 0.930 . S
H879 C892 0.930 . S
H880 C893 0.930 . S
H881 C897 0.959 . S
H882 C897 0.959 . S
H883 C897 0.961 . S
H884 C898 0.960 . S
H885 C898 0.961 . S
H886 C898 0.959 . S
H887 C901 0.929 . S
H888 C902 0.931 . S
H889 C904 0.930 . S
C890 H878 0.930 . S
C890 C891 1.399 . S
C890 C895 1.399 . S
C891 C890 1.399 . S
C891 C892 1.376 . S
C892 H879 0.930 . S
C892 C891 1.376 . S
C892 C893 1.388 . S
C893 H880 0.930 . S
C893 C892 1.388 . S
C893 C894 1.390 . S
C894 C893 1.390 . S
C894 C895 1.394 . S
C894 C900 1.465 . S
C895 C890 1.399 . S
C895 C894 1.394 . S
C895 C896 1.516 . S
C896 C895 1.516 . S
C896 C897 1.502 . S
C896 C898 1.561 . S
C896 C899 1.526 . S
C897 H881 0.959 . S
C897 H882 0.959 . S
C897 H883 0.961 . S
C897 C896 1.502 . S
C898 H884 0.960 . S
C898 H885 0.961 . S
C898 H886 0.959 . S
C898 C896 1.561 . S
C899 C896 1.526 . S
C899 C900 1.396 . S
C899 C904 1.390 . S
C900 C894 1.465 . S
C900 C899 1.396 . S
C900 C901 1.399 . S
C901 H887 0.929 . S
C901 C900 1.399 . S
C901 C902 1.385 . S
C902 H888 0.931 . S
C902 C901 1.385 . S
C902 C903 1.389 . S
C903 C902 1.389 . S
C903 C904 1.387 . S
C904 H889 0.930 . S
C904 C899 1.390 . S
C904 C903 1.387 . S
H905 C917 0.930 . S
H906 C919 0.930 . S
H907 C920 0.930 . S
H908 C924 0.959 . S
H909 C924 0.959 . S
H910 C924 0.961 . S
H911 C925 0.960 . S
H912 C925 0.961 . S
H913 C925 0.959 . S
H914 C928 0.929 . S
H915 C929 0.931 . S
H916 C931 0.930 . S
C917 H905 0.930 . S
C917 C918 1.399 . S
C917 C922 1.399 . S
C918 C917 1.399 . S
C918 C919 1.376 . S
C919 H906 0.930 . S
C919 C918 1.376 . S
C919 C920 1.388 . S
C920 H907 0.930 . S
C920 C919 1.388 . S
C920 C921 1.390 . S
C921 C920 1.390 . S
C921 C922 1.394 . S
C921 C927 1.465 . S
C922 C917 1.399 . S
C922 C921 1.394 . S
C922 C923 1.516 . S
C923 C922 1.516 . S
C923 C924 1.502 . S
C923 C925 1.561 . S
C923 C926 1.526 . S
C924 H908 0.959 . S
C924 H909 0.959 . S
C924 H910 0.961 . S
C924 C923 1.502 . S
C925 H911 0.960 . S
C925 H912 0.961 . S
C925 H913 0.959 . S
C925 C923 1.561 . S
C926 C923 1.526 . S
C926 C927 1.396 . S
C926 C931 1.390 . S
C927 C921 1.465 . S
C927 C926 1.396 . S
C927 C928 1.399 . S
C928 H914 0.929 . S
C928 C927 1.399 . S
C928 C929 1.385 . S
C929 H915 0.931 . S
C929 C928 1.385 . S
C929 C930 1.389 . S
C930 C929 1.389 . S
C930 C931 1.387 . S
C931 H916 0.930 . S
C931 C926 1.390 . S
C931 C930 1.387 . S
H932 C944 0.930 . S
H933 C946 0.930 . S
H934 C947 0.930 . S
H935 C951 0.959 . S
H936 C951 0.959 . S
H937 C951 0.961 . S
H938 C952 0.960 . S
H939 C952 0.961 . S
H940 C952 0.959 . S
H941 C955 0.929 . S
H942 C956 0.931 . S
H943 C958 0.930 . S
C944 H932 0.930 . S
C944 C945 1.399 . S
C944 C949 1.399 . S
C945 C944 1.399 . S
C945 C946 1.376 . S
C946 H933 0.930 . S
C946 C945 1.376 . S
C946 C947 1.388 . S
C947 H934 0.930 . S
C947 C946 1.388 . S
C947 C948 1.390 . S
C948 C947 1.390 . S
C948 C949 1.394 . S
C948 C954 1.465 . S
C949 C944 1.399 . S
C949 C948 1.394 . S
C949 C950 1.516 . S
C950 C949 1.516 . S
C950 C951 1.502 . S
C950 C952 1.561 . S
C950 C953 1.526 . S
C951 H935 0.959 . S
C951 H936 0.959 . S
C951 H937 0.961 . S
C951 C950 1.502 . S
C952 H938 0.960 . S
C952 H939 0.961 . S
C952 H940 0.959 . S
C952 C950 1.561 . S
C953 C950 1.526 . S
C953 C954 1.396 . S
C953 C958 1.390 . S
C954 C948 1.465 . S
C954 C953 1.396 . S
C954 C955 1.399 . S
C955 H941 0.929 . S
C955 C954 1.399 . S
C955 C956 1.385 . S
C956 H942 0.931 . S
C956 C955 1.385 . S
C956 C957 1.389 . S
C957 C956 1.389 . S
C957 C958 1.387 . S
C958 H943 0.930 . S
C958 C953 1.390 . S
C958 C957 1.387 . S
H959 C971 0.930 . S
H960 C973 0.930 . S
H961 C974 0.930 . S
H962 C978 0.959 . S
H963 C978 0.959 . S
H964 C978 0.961 . S
H965 C979 0.960 . S
H966 C979 0.961 . S
H967 C979 0.959 . S
H968 C982 0.929 . S
H969 C983 0.931 . S
H970 C985 0.930 . S
C971 H959 0.930 . S
C971 C972 1.399 . S
C971 C976 1.399 . S
C972 C971 1.399 . S
C972 C973 1.376 . S
C973 H960 0.930 . S
C973 C972 1.376 . S
C973 C974 1.388 . S
C974 H961 0.930 . S
C974 C973 1.388 . S
C974 C975 1.390 . S
C975 C974 1.390 . S
C975 C976 1.394 . S
C975 C981 1.465 . S
C976 C971 1.399 . S
C976 C975 1.394 . S
C976 C977 1.516 . S
C977 C976 1.516 . S
C977 C978 1.502 . S
C977 C979 1.561 . S
C977 C980 1.526 . S
C978 H962 0.959 . S
C978 H963 0.959 . S
C978 H964 0.961 . S
C978 C977 1.502 . S
C979 H965 0.960 . S
C979 H966 0.961 . S
C979 H967 0.959 . S
C979 C977 1.561 . S
C980 C977 1.526 . S
C980 C981 1.396 . S
C980 C985 1.390 . S
C981 C975 1.465 . S
C981 C980 1.396 . S
C981 C982 1.399 . S
C982 H968 0.929 . S
C982 C981 1.399 . S
C982 C983 1.385 . S
C983 H969 0.931 . S
C983 C982 1.385 . S
C983 C984 1.389 . S
C984 C983 1.389 . S
C984 C985 1.387 . S
C985 H970 0.930 . S
C985 C980 1.390 . S
C985 C984 1.387 . S
H986 C998 0.930 . S
H987 C1000 0.930 . S
H988 C1001 0.930 . S
H989 C1005 0.959 . S
H990 C1005 0.959 . S
H991 C1005 0.961 . S
H992 C1006 0.960 . S
H993 C1006 0.961 . S
H994 C1006 0.959 . S
H995 C1009 0.929 . S
H996 C1010 0.931 . S
H997 C1012 0.930 . S
C998 H986 0.930 . S
C998 C999 1.399 . S
C998 C1003 1.399 . S
C999 C998 1.399 . S
C999 C1000 1.376 1_556 S
C1000 H987 0.930 . S
C1000 C999 1.376 1_554 S
C1000 C1001 1.388 . S
C1001 H988 0.930 . S
C1001 C1000 1.388 . S
C1001 C1002 1.427 . S
C1002 C1001 1.427 . S
C1002 C1003 1.345 1_554 S
C1002 C1008 1.468 . S
C1003 C998 1.399 . S
C1003 C1002 1.345 1_556 S
C1003 C1004 1.516 . S
C1004 C1003 1.516 . S
C1004 C1005 1.502 . S
C1004 C1006 1.561 . S
C1004 C1007 1.526 . S
C1005 H989 0.959 . S
C1005 H990 0.959 . S
C1005 H991 0.961 . S
C1005 C1004 1.502 . S
C1006 H992 0.960 . S
C1006 H993 0.961 . S
C1006 H994 0.959 . S
C1006 C1004 1.561 . S
C1007 C1004 1.526 . S
C1007 C1008 1.396 1_556 S
C1007 C1012 1.390 . S
C1008 C1002 1.468 . S
C1008 C1007 1.396 1_554 S
C1008 C1009 1.399 . S
C1009 H995 0.929 . S
C1009 C1008 1.399 . S
C1009 C1010 1.385 . S
C1010 H996 0.931 . S
C1010 C1009 1.385 . S
C1010 C1011 1.389 1_554 S
C1011 C1010 1.389 1_556 S
C1011 C1012 1.387 . S
C1012 H997 0.930 . S
C1012 C1007 1.390 . S
C1012 C1011 1.387 . S
H1013 C1025 0.930 . S
H1014 C1027 0.930 . S
H1015 C1028 0.930 . S
H1016 C1032 0.959 . S
H1017 C1032 0.959 . S
H1018 C1032 0.961 . S
H1019 C1033 0.960 . S
H1020 C1033 0.961 . S
H1021 C1033 0.959 . S
H1022 C1036 0.929 . S
H1023 C1037 0.931 . S
H1024 C1039 0.930 . S
C1025 H1013 0.930 . S
C1025 C1026 1.399 . S
C1025 C1030 1.399 . S
C1026 C1025 1.399 . S
C1026 C1027 1.376 . S
C1027 H1014 0.930 . S
C1027 C1026 1.376 . S
C1027 C1028 1.388 . S
C1028 H1015 0.930 . S
C1028 C1027 1.388 . S
C1028 C1029 1.390 . S
C1029 C1028 1.390 . S
C1029 C1030 1.394 . S
C1029 C1035 1.465 . S
C1030 C1025 1.399 . S
C1030 C1029 1.394 . S
C1030 C1031 1.516 . S
C1031 C1030 1.516 . S
C1031 C1032 1.502 . S
C1031 C1033 1.561 . S
C1031 C1034 1.526 . S
C1032 H1016 0.959 . S
C1032 H1017 0.959 . S
C1032 H1018 0.961 . S
C1032 C1031 1.502 . S
C1033 H1019 0.960 . S
C1033 H1020 0.961 . S
C1033 H1021 0.959 . S
C1033 C1031 1.561 . S
C1034 C1031 1.526 . S
C1034 C1035 1.396 . S
C1034 C1039 1.390 . S
C1035 C1029 1.465 . S
C1035 C1034 1.396 . S
C1035 C1036 1.399 . S
C1036 H1022 0.929 . S
C1036 C1035 1.399 . S
C1036 C1037 1.385 . S
C1037 H1023 0.931 . S
C1037 C1036 1.385 . S
C1037 C1038 1.389 . S
C1038 C1037 1.389 . S
C1038 C1039 1.387 . S
C1039 H1024 0.930 . S
C1039 C1034 1.390 . S
C1039 C1038 1.387 . S
H1040 C1052 0.930 . S
H1041 C1054 0.930 . S
H1042 C1055 0.930 . S
H1043 C1059 0.959 . S
H1044 C1059 0.959 . S
H1045 C1059 0.961 . S
H1046 C1060 0.960 . S
H1047 C1060 0.961 . S
H1048 C1060 0.959 . S
H1049 C1063 0.929 . S
H1050 C1064 0.931 . S
H1051 C1066 0.930 . S
C1052 H1040 0.930 . S
C1052 C1053 1.399 . S
C1052 C1057 1.399 . S
C1053 C1052 1.399 . S
C1053 C1054 1.376 . S
C1054 H1041 0.930 . S
C1054 C1053 1.376 . S
C1054 C1055 1.388 . S
C1055 H1042 0.930 . S
C1055 C1054 1.388 . S
C1055 C1056 1.390 . S
C1056 C1055 1.390 . S
C1056 C1057 1.394 . S
C1056 C1062 1.465 . S
C1057 C1052 1.399 . S
C1057 C1056 1.394 . S
C1057 C1058 1.516 . S
C1058 C1057 1.516 . S
C1058 C1059 1.502 . S
C1058 C1060 1.561 . S
C1058 C1061 1.526 . S
C1059 H1043 0.959 . S
C1059 H1044 0.959 . S
C1059 H1045 0.961 . S
C1059 C1058 1.502 . S
C1060 H1046 0.960 . S
C1060 H1047 0.961 . S
C1060 H1048 0.959 . S
C1060 C1058 1.561 . S
C1061 C1058 1.526 . S
C1061 C1062 1.396 . S
C1061 C1066 1.390 . S
C1062 C1056 1.465 . S
C1062 C1061 1.396 . S
C1062 C1063 1.399 . S
C1063 H1049 0.929 . S
C1063 C1062 1.399 . S
C1063 C1064 1.385 . S
C1064 H1050 0.931 . S
C1064 C1063 1.385 . S
C1064 C1065 1.389 . S
C1065 C1064 1.389 . S
C1065 C1066 1.387 . S
C1066 H1051 0.930 . S
C1066 C1061 1.390 . S
C1066 C1065 1.387 . S
H1067 C1079 0.930 . S
H1068 C1081 0.930 . S
H1069 C1082 0.930 . S
H1070 C1086 0.959 . S
H1071 C1086 0.959 . S
H1072 C1086 0.961 . S
H1073 C1087 0.960 . S
H1074 C1087 0.961 . S
H1075 C1087 0.959 . S
H1076 C1090 0.929 . S
H1077 C1091 0.931 . S
H1078 C1093 0.930 . S
C1079 H1067 0.930 . S
C1079 C1080 1.399 . S
C1079 C1084 1.399 . S
C1080 C1079 1.399 . S
C1080 C1081 1.376 . S
C1081 H1068 0.930 . S
C1081 C1080 1.376 . S
C1081 C1082 1.388 . S
C1082 H1069 0.930 . S
C1082 C1081 1.388 . S
C1082 C1083 1.390 . S
C1083 C1082 1.390 . S
C1083 C1084 1.394 . S
C1083 C1089 1.465 . S
C1084 C1079 1.399 . S
C1084 C1083 1.394 . S
C1084 C1085 1.516 . S
C1085 C1084 1.516 . S
C1085 C1086 1.502 . S
C1085 C1087 1.561 . S
C1085 C1088 1.526 . S
C1086 H1070 0.959 . S
C1086 H1071 0.959 . S
C1086 H1072 0.961 . S
C1086 C1085 1.502 . S
C1087 H1073 0.960 . S
C1087 H1074 0.961 . S
C1087 H1075 0.959 . S
C1087 C1085 1.561 . S
C1088 C1085 1.526 . S
C1088 C1089 1.396 . S
C1088 C1093 1.390 . S
C1089 C1083 1.465 . S
C1089 C1088 1.396 . S
C1089 C1090 1.399 . S
C1090 H1076 0.929 . S
C1090 C1089 1.399 . S
C1090 C1091 1.385 . S
C1091 H1077 0.931 . S
C1091 C1090 1.385 . S
C1091 C1092 1.389 . S
C1092 C1091 1.389 . S
C1092 C1093 1.387 . S
C1093 H1078 0.930 . S
C1093 C1088 1.390 . S
C1093 C1092 1.387 . S
H1094 C1106 0.930 . S
H1095 C1108 0.930 . S
H1096 C1109 0.930 . S
H1097 C1113 0.959 . S
H1098 C1113 0.959 . S
H1099 C1113 0.961 . S
H1100 C1114 0.960 . S
H1101 C1114 0.961 . S
H1102 C1114 0.959 . S
H1103 C1117 0.929 . S
H1104 C1118 0.931 . S
H1105 C1120 0.930 . S
C1106 H1094 0.930 . S
C1106 C1107 1.399 . S
C1106 C1111 1.399 . S
C1107 C1106 1.399 . S
C1107 C1108 1.376 . S
C1108 H1095 0.930 . S
C1108 C1107 1.376 . S
C1108 C1109 1.388 . S
C1109 H1096 0.930 . S
C1109 C1108 1.388 . S
C1109 C1110 1.390 . S
C1110 C1109 1.390 . S
C1110 C1111 1.394 . S
C1110 C1116 1.465 . S
C1111 C1106 1.399 . S
C1111 C1110 1.394 . S
C1111 C1112 1.516 . S
C1112 C1111 1.516 . S
C1112 C1113 1.502 . S
C1112 C1114 1.561 . S
C1112 C1115 1.526 . S
C1113 H1097 0.959 . S
C1113 H1098 0.959 . S
C1113 H1099 0.961 . S
C1113 C1112 1.502 . S
C1114 H1100 0.960 . S
C1114 H1101 0.961 . S
C1114 H1102 0.959 . S
C1114 C1112 1.561 . S
C1115 C1112 1.526 . S
C1115 C1116 1.396 . S
C1115 C1120 1.390 . S
C1116 C1110 1.465 . S
C1116 C1115 1.396 . S
C1116 C1117 1.399 . S
C1117 H1103 0.929 . S
C1117 C1116 1.399 . S
C1117 C1118 1.385 . S
C1118 H1104 0.931 . S
C1118 C1117 1.385 . S
C1118 C1119 1.389 . S
C1119 C1118 1.389 . S
C1119 C1120 1.387 . S
C1120 H1105 0.930 . S
C1120 C1115 1.390 . S
C1120 C1119 1.387 . S
H1121 C1133 0.930 . S
H1122 C1135 0.930 . S
H1123 C1136 0.930 . S
H1124 C1140 0.959 . S
H1125 C1140 0.959 . S
H1126 C1140 0.961 . S
H1127 C1141 0.960 . S
H1128 C1141 0.961 . S
H1129 C1141 0.959 . S
H1130 C1144 0.929 . S
H1131 C1145 0.931 . S
H1132 C1147 0.930 . S
C1133 H1121 0.930 . S
C1133 C1134 1.399 . S
C1133 C1138 1.399 . S
C1134 C1133 1.399 . S
C1134 C1135 1.376 . S
C1135 H1122 0.930 . S
C1135 C1134 1.376 . S
C1135 C1136 1.388 . S
C1136 H1123 0.930 . S
C1136 C1135 1.388 . S
C1136 C1137 1.390 . S
C1137 C1136 1.390 . S
C1137 C1138 1.394 . S
C1137 C1143 1.465 . S
C1138 C1133 1.399 . S
C1138 C1137 1.394 . S
C1138 C1139 1.516 . S
C1139 C1138 1.516 . S
C1139 C1140 1.502 . S
C1139 C1141 1.561 . S
C1139 C1142 1.526 . S
C1140 H1124 0.959 . S
C1140 H1125 0.959 . S
C1140 H1126 0.961 . S
C1140 C1139 1.502 . S
C1141 H1127 0.960 . S
C1141 H1128 0.961 . S
C1141 H1129 0.959 . S
C1141 C1139 1.561 . S
C1142 C1139 1.526 . S
C1142 C1143 1.396 . S
C1142 C1147 1.390 . S
C1143 C1137 1.465 . S
C1143 C1142 1.396 . S
C1143 C1144 1.399 . S
C1144 H1130 0.929 . S
C1144 C1143 1.399 . S
C1144 C1145 1.385 . S
C1145 H1131 0.931 . S
C1145 C1144 1.385 . S
C1145 C1146 1.389 . S
C1146 C1145 1.389 . S
C1146 C1147 1.387 . S
C1147 H1132 0.930 . S
C1147 C1142 1.390 . S
C1147 C1146 1.387 . S
H1148 C1160 0.930 . S
H1149 C1162 0.930 . S
H1150 C1163 0.930 . S
H1151 C1167 0.959 . S
H1152 C1167 0.959 . S
H1153 C1167 0.961 . S
H1154 C1168 0.960 . S
H1155 C1168 0.961 . S
H1156 C1168 0.959 . S
H1157 C1171 0.929 . S
H1158 C1172 0.931 . S
H1159 C1174 0.930 . S
C1160 H1148 0.930 . S
C1160 C1161 1.399 . S
C1160 C1165 1.399 . S
C1161 C1160 1.399 . S
C1161 C1162 1.376 . S
C1162 H1149 0.930 . S
C1162 C1161 1.376 . S
C1162 C1163 1.388 . S
C1163 H1150 0.930 . S
C1163 C1162 1.388 . S
C1163 C1164 1.390 . S
C1164 C1163 1.390 . S
C1164 C1165 1.394 . S
C1164 C1170 1.465 . S
C1165 C1160 1.399 . S
C1165 C1164 1.394 . S
C1165 C1166 1.516 . S
C1166 C1165 1.516 . S
C1166 C1167 1.502 . S
C1166 C1168 1.561 . S
C1166 C1169 1.526 . S
C1167 H1151 0.959 . S
C1167 H1152 0.959 . S
C1167 H1153 0.961 . S
C1167 C1166 1.502 . S
C1168 H1154 0.960 . S
C1168 H1155 0.961 . S
C1168 H1156 0.959 . S
C1168 C1166 1.561 . S
C1169 C1166 1.526 . S
C1169 C1170 1.396 . S
C1169 C1174 1.390 . S
C1170 C1164 1.465 . S
C1170 C1169 1.396 . S
C1170 C1171 1.399 . S
C1171 H1157 0.929 . S
C1171 C1170 1.399 . S
C1171 C1172 1.385 . S
C1172 H1158 0.931 . S
C1172 C1171 1.385 . S
C1172 C1173 1.389 . S
C1173 C1172 1.389 . S
C1173 C1174 1.387 . S
C1174 H1159 0.930 . S
C1174 C1169 1.390 . S
C1174 C1173 1.387 . S
H1175 C1187 0.930 . S
H1176 C1189 0.930 . S
H1177 C1190 0.930 . S
H1178 C1194 0.959 . S
H1179 C1194 0.959 . S
H1180 C1194 0.961 . S
H1181 C1195 0.960 . S
H1182 C1195 0.961 . S
H1183 C1195 0.959 . S
H1184 C1198 0.929 . S
H1185 C1199 0.931 . S
H1186 C1201 0.930 . S
C1187 H1175 0.930 . S
C1187 C1188 1.399 . S
C1187 C1192 1.399 . S
C1188 C1187 1.399 . S
C1188 C1189 1.376 . S
C1189 H1176 0.930 . S
C1189 C1188 1.376 . S
C1189 C1190 1.388 . S
C1190 H1177 0.930 . S
C1190 C1189 1.388 . S
C1190 C1191 1.390 . S
C1191 C1190 1.390 . S
C1191 C1192 1.394 . S
C1191 C1197 1.465 . S
C1192 C1187 1.399 . S
C1192 C1191 1.394 . S
C1192 C1193 1.516 . S
C1193 C1192 1.516 . S
C1193 C1194 1.502 . S
C1193 C1195 1.561 . S
C1193 C1196 1.526 . S
C1194 H1178 0.959 . S
C1194 H1179 0.959 . S
C1194 H1180 0.961 . S
C1194 C1193 1.502 . S
C1195 H1181 0.960 . S
C1195 H1182 0.961 . S
C1195 H1183 0.959 . S
C1195 C1193 1.561 . S
C1196 C1193 1.526 . S
C1196 C1197 1.396 . S
C1196 C1201 1.390 . S
C1197 C1191 1.465 . S
C1197 C1196 1.396 . S
C1197 C1198 1.399 . S
C1198 H1184 0.929 . S
C1198 C1197 1.399 . S
C1198 C1199 1.385 . S
C1199 H1185 0.931 . S
C1199 C1198 1.385 . S
C1199 C1200 1.389 . S
C1200 C1199 1.389 . S
C1200 C1201 1.387 . S
C1201 H1186 0.930 . S
C1201 C1196 1.390 . S
C1201 C1200 1.387 . S
H1202 C1214 0.930 . S
H1203 C1216 0.930 . S
H1204 C1217 0.930 . S
H1205 C1221 0.959 . S
H1206 C1221 0.959 . S
H1207 C1221 0.961 . S
H1208 C1222 0.960 . S
H1209 C1222 0.961 . S
H1210 C1222 0.959 . S
H1211 C1225 0.929 . S
H1212 C1226 0.931 . S
H1213 C1228 0.930 . S
C1214 H1202 0.930 . S
C1214 C1215 1.399 . S
C1214 C1219 1.399 . S
C1215 C1214 1.399 . S
C1215 C1216 1.376 . S
C1216 H1203 0.930 . S
C1216 C1215 1.376 . S
C1216 C1217 1.388 . S
C1217 H1204 0.930 . S
C1217 C1216 1.388 . S
C1217 C1218 1.390 . S
C1218 C1217 1.390 . S
C1218 C1219 1.394 . S
C1218 C1224 1.465 . S
C1219 C1214 1.399 . S
C1219 C1218 1.394 . S
C1219 C1220 1.516 . S
C1220 C1219 1.516 . S
C1220 C1221 1.502 . S
C1220 C1222 1.561 . S
C1220 C1223 1.526 . S
C1221 H1205 0.959 . S
C1221 H1206 0.959 . S
C1221 H1207 0.961 . S
C1221 C1220 1.502 . S
C1222 H1208 0.960 . S
C1222 H1209 0.961 . S
C1222 H1210 0.959 . S
C1222 C1220 1.561 . S
C1223 C1220 1.526 . S
C1223 C1224 1.396 . S
C1223 C1228 1.390 . S
C1224 C1218 1.465 . S
C1224 C1223 1.396 . S
C1224 C1225 1.399 . S
C1225 H1211 0.929 . S
C1225 C1224 1.399 . S
C1225 C1226 1.385 . S
C1226 H1212 0.931 . S
C1226 C1225 1.385 . S
C1226 C1227 1.389 . S
C1227 C1226 1.389 . S
C1227 C1228 1.387 . S
C1228 H1213 0.930 . S
C1228 C1223 1.390 . S
C1228 C1227 1.387 . S
H1229 C1241 0.930 . S
H1230 C1243 0.930 . S
H1231 C1244 0.930 . S
H1232 C1248 0.959 . S
H1233 C1248 0.959 . S
H1234 C1248 0.961 . S
H1235 C1249 0.960 . S
H1236 C1249 0.961 . S
H1237 C1249 0.959 . S
H1238 C1252 0.929 . S
H1239 C1253 0.931 . S
H1240 C1255 0.930 . S
C1241 H1229 0.930 . S
C1241 C1242 1.399 . S
C1241 C1246 1.399 . S
C1242 C1241 1.399 . S
C1242 C1243 1.376 . S
C1243 H1230 0.930 . S
C1243 C1242 1.376 . S
C1243 C1244 1.388 . S
C1244 H1231 0.930 . S
C1244 C1243 1.388 . S
C1244 C1245 1.390 . S
C1245 C1244 1.390 . S
C1245 C1246 1.394 . S
C1245 C1251 1.465 . S
C1246 C1241 1.399 . S
C1246 C1245 1.394 . S
C1246 C1247 1.516 . S
C1247 C1246 1.516 . S
C1247 C1248 1.502 . S
C1247 C1249 1.561 . S
C1247 C1250 1.526 . S
C1248 H1232 0.959 . S
C1248 H1233 0.959 . S
C1248 H1234 0.961 . S
C1248 C1247 1.502 . S
C1249 H1235 0.960 . S
C1249 H1236 0.961 . S
C1249 H1237 0.959 . S
C1249 C1247 1.561 . S
C1250 C1247 1.526 . S
C1250 C1251 1.396 . S
C1250 C1255 1.390 . S
C1251 C1245 1.465 . S
C1251 C1250 1.396 . S
C1251 C1252 1.399 . S
C1252 H1238 0.929 . S
C1252 C1251 1.399 . S
C1252 C1253 1.385 . S
C1253 H1239 0.931 . S
C1253 C1252 1.385 . S
C1253 C1254 1.389 . S
C1254 C1253 1.389 . S
C1254 C1255 1.387 . S
C1255 H1240 0.930 . S
C1255 C1250 1.390 . S
C1255 C1254 1.387 . S
H1256 C1268 0.930 . S
H1257 C1270 0.930 . S
H1258 C1271 0.930 . S
H1259 C1275 0.959 . S
H1260 C1275 0.959 . S
H1261 C1275 0.961 . S
H1262 C1276 0.960 . S
H1263 C1276 0.961 . S
H1264 C1276 0.959 . S
H1265 C1279 0.929 . S
H1266 C1280 0.931 . S
H1267 C1282 0.930 . S
C1268 H1256 0.930 . S
C1268 C1269 1.399 . S
C1268 C1273 1.399 . S
C1269 C1268 1.399 . S
C1269 C1270 1.376 . S
C1270 H1257 0.930 . S
C1270 C1269 1.376 . S
C1270 C1271 1.388 . S
C1271 H1258 0.930 . S
C1271 C1270 1.388 . S
C1271 C1272 1.390 . S
C1272 C1271 1.390 . S
C1272 C1273 1.394 . S
C1272 C1278 1.465 . S
C1273 C1268 1.399 . S
C1273 C1272 1.394 . S
C1273 C1274 1.516 . S
C1274 C1273 1.516 . S
C1274 C1275 1.502 . S
C1274 C1276 1.561 . S
C1274 C1277 1.526 . S
C1275 H1259 0.959 . S
C1275 H1260 0.959 . S
C1275 H1261 0.961 . S
C1275 C1274 1.502 . S
C1276 H1262 0.960 . S
C1276 H1263 0.961 . S
C1276 H1264 0.959 . S
C1276 C1274 1.561 . S
C1277 C1274 1.526 . S
C1277 C1278 1.396 . S
C1277 C1282 1.390 . S
C1278 C1272 1.465 . S
C1278 C1277 1.396 . S
C1278 C1279 1.399 . S
C1279 H1265 0.929 . S
C1279 C1278 1.399 . S
C1279 C1280 1.385 . S
C1280 H1266 0.931 . S
C1280 C1279 1.385 . S
C1280 C1281 1.389 . S
C1281 C1280 1.389 . S
C1281 C1282 1.387 . S
C1282 H1267 0.930 . S
C1282 C1277 1.390 . S
C1282 C1281 1.387 . S
H1283 C1295 0.930 . S
H1284 C1297 0.930 . S
H1285 C1298 0.930 . S
H1286 C1302 0.959 . S
H1287 C1302 0.959 . S
H1288 C1302 0.961 . S
H1289 C1303 0.960 . S
H1290 C1303 0.961 . S
H1291 C1303 0.959 . S
H1292 C1306 0.929 . S
H1293 C1307 0.931 . S
H1294 C1309 0.930 . S
C1295 H1283 0.930 . S
C1295 C1296 1.399 . S
C1295 C1300 1.399 . S
C1296 C1295 1.399 . S
C1296 C1297 1.376 . S
C1297 H1284 0.930 . S
C1297 C1296 1.376 . S
C1297 C1298 1.388 . S
C1298 H1285 0.930 . S
C1298 C1297 1.388 . S
C1298 C1299 1.390 . S
C1299 C1298 1.390 . S
C1299 C1300 1.394 . S
C1299 C1305 1.465 . S
C1300 C1295 1.399 . S
C1300 C1299 1.394 . S
C1300 C1301 1.516 . S
C1301 C1300 1.516 . S
C1301 C1302 1.502 . S
C1301 C1303 1.561 . S
C1301 C1304 1.526 . S
C1302 H1286 0.959 . S
C1302 H1287 0.959 . S
C1302 H1288 0.961 . S
C1302 C1301 1.502 . S
C1303 H1289 0.960 . S
C1303 H1290 0.961 . S
C1303 H1291 0.959 . S
C1303 C1301 1.561 . S
C1304 C1301 1.526 . S
C1304 C1305 1.396 . S
C1304 C1309 1.390 . S
C1305 C1299 1.465 . S
C1305 C1304 1.396 . S
C1305 C1306 1.399 . S
C1306 H1292 0.929 . S
C1306 C1305 1.399 . S
C1306 C1307 1.385 . S
C1307 H1293 0.931 . S
C1307 C1306 1.385 . S
C1307 C1308 1.389 . S
C1308 C1307 1.389 . S
C1308 C1309 1.387 . S
C1309 H1294 0.930 . S
C1309 C1304 1.390 . S
C1309 C1308 1.387 . S
H1310 C1322 0.930 . S
H1311 C1324 0.930 . S
H1312 C1325 0.930 . S
H1313 C1329 0.959 . S
H1314 C1329 0.959 . S
H1315 C1329 0.961 . S
H1316 C1330 0.960 . S
H1317 C1330 0.961 . S
H1318 C1330 0.959 . S
H1319 C1333 0.929 . S
H1320 C1334 0.931 . S
H1321 C1336 0.930 . S
C1322 H1310 0.930 . S
C1322 C1323 1.399 . S
C1322 C1327 1.399 . S
C1323 C1322 1.399 . S
C1323 C1324 1.376 . S
C1324 H1311 0.930 . S
C1324 C1323 1.376 . S
C1324 C1325 1.388 . S
C1325 H1312 0.930 . S
C1325 C1324 1.388 . S
C1325 C1326 1.390 . S
C1326 C1325 1.390 . S
C1326 C1327 1.394 . S
C1326 C1332 1.465 . S
C1327 C1322 1.399 . S
C1327 C1326 1.394 . S
C1327 C1328 1.516 . S
C1328 C1327 1.516 . S
C1328 C1329 1.502 . S
C1328 C1330 1.561 . S
C1328 C1331 1.526 . S
C1329 H1313 0.959 . S
C1329 H1314 0.959 . S
C1329 H1315 0.961 . S
C1329 C1328 1.502 . S
C1330 H1316 0.960 . S
C1330 H1317 0.961 . S
C1330 H1318 0.959 . S
C1330 C1328 1.561 . S
C1331 C1328 1.526 . S
C1331 C1332 1.396 . S
C1331 C1336 1.390 . S
C1332 C1326 1.465 . S
C1332 C1331 1.396 . S
C1332 C1333 1.399 . S
C1333 H1319 0.929 . S
C1333 C1332 1.399 . S
C1333 C1334 1.385 . S
C1334 H1320 0.931 . S
C1334 C1333 1.385 . S
C1334 C1335 1.389 . S
C1335 C1334 1.389 . S
C1335 C1336 1.387 . S
C1336 H1321 0.930 . S
C1336 C1331 1.390 . S
C1336 C1335 1.387 . S
H1337 C1349 0.930 . S
H1338 C1351 0.930 . S
H1339 C1352 0.930 . S
H1340 C1356 0.959 . S
H1341 C1356 0.959 . S
H1342 C1356 0.961 . S
H1343 C1357 0.960 . S
H1344 C1357 0.961 . S
H1345 C1357 0.959 . S
H1346 C1360 0.929 . S
H1347 C1361 0.931 . S
H1348 C1363 0.930 . S
C1349 H1337 0.930 . S
C1349 C1350 1.399 . S
C1349 C1354 1.399 . S
C1350 C1349 1.399 . S
C1350 C1351 1.376 . S
C1351 H1338 0.930 . S
C1351 C1350 1.376 . S
C1351 C1352 1.388 . S
C1352 H1339 0.930 . S
C1352 C1351 1.388 . S
C1352 C1353 1.390 . S
C1353 C1352 1.390 . S
C1353 C1354 1.394 . S
C1353 C1359 1.465 . S
C1354 C1349 1.399 . S
C1354 C1353 1.394 . S
C1354 C1355 1.516 . S
C1355 C1354 1.516 . S
C1355 C1356 1.502 . S
C1355 C1357 1.561 . S
C1355 C1358 1.526 . S
C1356 H1340 0.959 . S
C1356 H1341 0.959 . S
C1356 H1342 0.961 . S
C1356 C1355 1.502 . S
C1357 H1343 0.960 . S
C1357 H1344 0.961 . S
C1357 H1345 0.959 . S
C1357 C1355 1.561 . S
C1358 C1355 1.526 . S
C1358 C1359 1.396 . S
C1358 C1363 1.390 . S
C1359 C1353 1.465 . S
C1359 C1358 1.396 . S
C1359 C1360 1.399 . S
C1360 H1346 0.929 . S
C1360 C1359 1.399 . S
C1360 C1361 1.385 . S
C1361 H1347 0.931 . S
C1361 C1360 1.385 . S
C1361 C1362 1.389 . S
C1362 C1361 1.389 . S
C1362 C1363 1.387 . S
C1363 H1348 0.930 . S
C1363 C1358 1.390 . S
C1363 C1362 1.387 . S
H1364 C1376 0.930 . S
H1365 C1378 0.930 . S
H1366 C1379 0.930 . S
H1367 C1383 0.959 . S
H1368 C1383 0.959 . S
H1369 C1383 0.961 . S
H1370 C1384 0.960 . S
H1371 C1384 0.961 . S
H1372 C1384 0.959 . S
H1373 C1387 0.929 . S
H1374 C1388 0.931 . S
H1375 C1390 0.930 . S
C1376 H1364 0.930 . S
C1376 C1377 1.399 . S
C1376 C1381 1.399 . S
C1377 C1376 1.399 . S
C1377 C1378 1.376 . S
C1378 H1365 0.930 . S
C1378 C1377 1.376 . S
C1378 C1379 1.388 . S
C1379 H1366 0.930 . S
C1379 C1378 1.388 . S
C1379 C1380 1.390 . S
C1380 C1379 1.390 . S
C1380 C1381 1.394 . S
C1380 C1386 1.465 . S
C1381 C1376 1.399 . S
C1381 C1380 1.394 . S
C1381 C1382 1.516 . S
C1382 C1381 1.516 . S
C1382 C1383 1.502 . S
C1382 C1384 1.561 . S
C1382 C1385 1.526 . S
C1383 H1367 0.959 . S
C1383 H1368 0.959 . S
C1383 H1369 0.961 . S
C1383 C1382 1.502 . S
C1384 H1370 0.960 . S
C1384 H1371 0.961 . S
C1384 H1372 0.959 . S
C1384 C1382 1.561 . S
C1385 C1382 1.526 . S
C1385 C1386 1.396 . S
C1385 C1390 1.390 . S
C1386 C1380 1.465 . S
C1386 C1385 1.396 . S
C1386 C1387 1.399 . S
C1387 H1373 0.929 . S
C1387 C1386 1.399 . S
C1387 C1388 1.385 . S
C1388 H1374 0.931 . S
C1388 C1387 1.385 . S
C1388 C1389 1.389 . S
C1389 C1388 1.389 . S
C1389 C1390 1.387 . S
C1390 H1375 0.930 . S
C1390 C1385 1.390 . S
C1390 C1389 1.387 . S
H1391 C1403 0.930 . S
H1392 C1405 0.930 . S
H1393 C1406 0.930 . S
H1394 C1410 0.959 . S
H1395 C1410 0.959 . S
H1396 C1410 0.961 . S
H1397 C1411 0.960 . S
H1398 C1411 0.961 . S
H1399 C1411 0.959 . S
H1400 C1414 0.929 . S
H1401 C1415 0.931 . S
H1402 C1417 0.930 . S
C1403 H1391 0.930 . S
C1403 C1404 1.399 . S
C1403 C1408 1.399 . S
C1404 C1403 1.399 . S
C1404 C1405 1.376 . S
C1405 H1392 0.930 . S
C1405 C1404 1.376 . S
C1405 C1406 1.388 . S
C1406 H1393 0.930 . S
C1406 C1405 1.388 . S
C1406 C1407 1.390 . S
C1407 C1406 1.390 . S
C1407 C1408 1.394 . S
C1407 C1413 1.465 . S
C1408 C1403 1.399 . S
C1408 C1407 1.394 . S
C1408 C1409 1.516 . S
C1409 C1408 1.516 . S
C1409 C1410 1.502 . S
C1409 C1411 1.561 . S
C1409 C1412 1.526 . S
C1410 H1394 0.959 . S
C1410 H1395 0.959 . S
C1410 H1396 0.961 . S
C1410 C1409 1.502 . S
C1411 H1397 0.960 . S
C1411 H1398 0.961 . S
C1411 H1399 0.959 . S
C1411 C1409 1.561 . S
C1412 C1409 1.526 . S
C1412 C1413 1.396 . S
C1412 C1417 1.390 . S
C1413 C1407 1.465 . S
C1413 C1412 1.396 . S
C1413 C1414 1.399 . S
C1414 H1400 0.929 . S
C1414 C1413 1.399 . S
C1414 C1415 1.385 . S
C1415 H1401 0.931 . S
C1415 C1414 1.385 . S
C1415 C1416 1.389 . S
C1416 C1415 1.389 . S
C1416 C1417 1.387 . S
C1417 H1402 0.930 . S
C1417 C1412 1.390 . S
C1417 C1416 1.387 . S
H1418 C1430 0.930 . S
H1419 C1432 0.930 . S
H1420 C1433 0.930 . S
H1421 C1437 0.959 . S
H1422 C1437 0.959 . S
H1423 C1437 0.961 . S
H1424 C1438 0.960 . S
H1425 C1438 0.961 . S
H1426 C1438 0.959 . S
H1427 C1441 0.929 . S
H1428 C1442 0.931 . S
H1429 C1444 0.930 . S
C1430 H1418 0.930 . S
C1430 C1431 1.399 . S
C1430 C1435 1.399 . S
C1431 C1430 1.399 . S
C1431 C1432 1.376 . S
C1432 H1419 0.930 . S
C1432 C1431 1.376 . S
C1432 C1433 1.388 . S
C1433 H1420 0.930 . S
C1433 C1432 1.388 . S
C1433 C1434 1.390 . S
C1434 C1433 1.390 . S
C1434 C1435 1.394 . S
C1434 C1440 1.465 . S
C1435 C1430 1.399 . S
C1435 C1434 1.394 . S
C1435 C1436 1.516 . S
C1436 C1435 1.516 . S
C1436 C1437 1.502 . S
C1436 C1438 1.561 . S
C1436 C1439 1.526 . S
C1437 H1421 0.959 . S
C1437 H1422 0.959 . S
C1437 H1423 0.961 . S
C1437 C1436 1.502 . S
C1438 H1424 0.960 . S
C1438 H1425 0.961 . S
C1438 H1426 0.959 . S
C1438 C1436 1.561 . S
C1439 C1436 1.526 . S
C1439 C1440 1.396 . S
C1439 C1444 1.390 . S
C1440 C1434 1.465 . S
C1440 C1439 1.396 . S
C1440 C1441 1.399 . S
C1441 H1427 0.929 . S
C1441 C1440 1.399 . S
C1441 C1442 1.385 . S
C1442 H1428 0.931 . S
C1442 C1441 1.385 . S
C1442 C1443 1.389 . S
C1443 C1442 1.389 . S
C1443 C1444 1.387 . S
C1444 H1429 0.930 . S
C1444 C1439 1.390 . S
C1444 C1443 1.387 . S
H1445 C1457 0.930 . S
H1446 C1459 0.930 . S
H1447 C1460 0.930 . S
H1448 C1464 0.959 . S
H1449 C1464 0.959 . S
H1450 C1464 0.961 . S
H1451 C1465 0.960 . S
H1452 C1465 0.961 . S
H1453 C1465 0.959 . S
H1454 C1468 0.929 . S
H1455 C1469 0.931 . S
H1456 C1471 0.930 . S
C1457 H1445 0.930 . S
C1457 C1458 1.399 . S
C1457 C1462 1.399 . S
C1458 C1457 1.399 . S
C1458 C1459 1.376 . S
C1459 H1446 0.930 . S
C1459 C1458 1.376 . S
C1459 C1460 1.388 . S
C1460 H1447 0.930 . S
C1460 C1459 1.388 . S
C1460 C1461 1.390 . S
C1461 C1460 1.390 . S
C1461 C1462 1.394 . S
C1461 C1467 1.465 . S
C1462 C1457 1.399 . S
C1462 C1461 1.394 . S
C1462 C1463 1.516 . S
C1463 C1462 1.516 . S
C1463 C1464 1.502 . S
C1463 C1465 1.561 . S
C1463 C1466 1.526 . S
C1464 H1448 0.959 . S
C1464 H1449 0.959 . S
C1464 H1450 0.961 . S
C1464 C1463 1.502 . S
C1465 H1451 0.960 . S
C1465 H1452 0.961 . S
C1465 H1453 0.959 . S
C1465 C1463 1.561 . S
C1466 C1463 1.526 . S
C1466 C1467 1.396 . S
C1466 C1471 1.390 . S
C1467 C1461 1.465 . S
C1467 C1466 1.396 . S
C1467 C1468 1.399 . S
C1468 H1454 0.929 . S
C1468 C1467 1.399 . S
C1468 C1469 1.385 . S
C1469 H1455 0.931 . S
C1469 C1468 1.385 . S
C1469 C1470 1.389 . S
C1470 C1469 1.389 . S
C1470 C1471 1.387 . S
C1471 H1456 0.930 . S
C1471 C1466 1.390 . S
C1471 C1470 1.387 . S
C633 C518 1.468 . S
C621 C35 1.237 . S
C660 C532 1.463 . S
C648 C115 1.266 . S
C687 C547 1.463 . S
C675 C177 1.366 . S
C702 C221 1.240 . S
C714 C505 1.424 . S
C729 C283 1.308 . S
C741 C504 1.443 . S
C756 C363 1.343 . S
C768 C519 1.452 . S
C795 C533 1.467 . S
C783 C407 1.293 . S
C822 C546 1.478 . S
C810 C469 1.261 . S
C837 C159 1.328 . S
C849 C574 1.441 . S
C876 C588 1.496 . S
C864 C239 1.290 . S
C891 C53 1.365 . S
C903 C603 1.449 . S
C930 C560 1.436 . S
C918 C97 1.218 . S
C945 C425 1.269 . S
C957 C561 1.445 . S
C972 C487 1.374 . S
C984 C575 1.452 . S
C1011 C589 1.454 . S
C999 C301 1.382 . S
C1026 C345 1.284 . S
C1038 C602 1.488 . S
C1065 C527 1.871 . S
C1053 C29 1.864 . S
C1092 C545 1.815 . S
C1080 C109 1.857 . S
C1107 C171 1.857 . S
C1119 C503 1.835 . S
C1134 C215 1.898 . S
C1146 C513 1.898 . S
C1161 C277 1.865 . S
C1173 C541 1.867 . S
C1200 C499 1.893 . S
C1188 C357 1.808 . S
C1227 C517 1.822 . S
C1215 C401 1.881 . S
C1254 C531 1.851 . S
C1242 C463 1.864 . S
C1281 C583 1.895 . S
C1269 C153 1.858 . S
C1308 C601 1.809 . S
C1296 C233 1.849 . S
C1323 C47 1.797 . S
C1335 C555 1.895 . S
C1362 C569 1.882 . S
C1350 C91 1.882 . S
C1389 C597 1.910 . S
C1377 C419 1.815 . S
C1404 C481 1.816 . S
C1416 C559 1.880 . S
C1443 C573 1.849 . S
C1431 C295 1.848 . S
C1470 C587 1.867 . S
C1458 C339 1.847 . S
