# Generated by pormake.
# Topology ctn, (3,4)-cn, num edge types: 1
# Building blocks:
#     Node 0, Type 0, BuildingBlock: PAMTOO_clean_linker_0, # of connection points: 3
#     Node 1, Type 0, BuildingBlock: PAMTOO_clean_linker_0, # of connection points: 3
#     Node 2, Type 0, BuildingBlock: PAMTOO_clean_linker_0, # of connection points: 3
#     Node 3, Type 0, BuildingBlock: PAMTOO_clean_linker_0, # of connection points: 3
#     Node 4, Type 0, BuildingBlock: PAMTOO_clean_linker_0, # of connection points: 3
#     Node 5, Type 0, BuildingBlock: PAMTOO_clean_linker_0, # of connection points: 3
#     Node 6, Type 0, BuildingBlock: PAMTOO_clean_linker_0, # of connection points: 3
#     Node 7, Type 0, BuildingBlock: PAMTOO_clean_linker_0, # of connection points: 3
#     Node 8, Type 0, BuildingBlock: PAMTOO_clean_linker_0, # of connection points: 3
#     Node 9, Type 0, BuildingBlock: PAMTOO_clean_linker_0, # of connection points: 3
#     Node 10, Type 0, BuildingBlock: PAMTOO_clean_linker_0, # of connection points: 3
#     Node 11, Type 0, BuildingBlock: PAMTOO_clean_linker_0, # of connection points: 3
#     Node 12, Type 0, BuildingBlock: PAMTOO_clean_linker_0, # of connection points: 3
#     Node 13, Type 0, BuildingBlock: PAMTOO_clean_linker_0, # of connection points: 3
#     Node 14, Type 0, BuildingBlock: PAMTOO_clean_linker_0, # of connection points: 3
#     Node 15, Type 0, BuildingBlock: PAMTOO_clean_linker_0, # of connection points: 3
#     Node 16, Type 1, BuildingBlock: AZAVOO_clean_sbu_0, # of connection points: 4
#     Node 17, Type 1, BuildingBlock: AZAVOO_clean_sbu_0, # of connection points: 4
#     Node 18, Type 1, BuildingBlock: AZAVOO_clean_sbu_0, # of connection points: 4
#     Node 19, Type 1, BuildingBlock: AZAVOO_clean_sbu_0, # of connection points: 4
#     Node 20, Type 1, BuildingBlock: AZAVOO_clean_sbu_0, # of connection points: 4
#     Node 21, Type 1, BuildingBlock: AZAVOO_clean_sbu_0, # of connection points: 4
#     Node 22, Type 1, BuildingBlock: AZAVOO_clean_sbu_0, # of connection points: 4
#     Node 23, Type 1, BuildingBlock: AZAVOO_clean_sbu_0, # of connection points: 4
#     Node 24, Type 1, BuildingBlock: AZAVOO_clean_sbu_0, # of connection points: 4
#     Node 25, Type 1, BuildingBlock: AZAVOO_clean_sbu_0, # of connection points: 4
#     Node 26, Type 1, BuildingBlock: AZAVOO_clean_sbu_0, # of connection points: 4
#     Node 27, Type 1, BuildingBlock: AZAVOO_clean_sbu_0, # of connection points: 4
#     Edge 28, Type (0, 1), BuildingBlock: ZUJKAS_clean_linker_0, # of connection points: 2
#     Edge 29, Type (0, 1), BuildingBlock: ZUJKAS_clean_linker_0, # of connection points: 2
#     Edge 30, Type (0, 1), BuildingBlock: ZUJKAS_clean_linker_0, # of connection points: 2
#     Edge 31, Type (0, 1), BuildingBlock: ZUJKAS_clean_linker_0, # of connection points: 2
#     Edge 32, Type (0, 1), BuildingBlock: ZUJKAS_clean_linker_0, # of connection points: 2
#     Edge 33, Type (0, 1), BuildingBlock: ZUJKAS_clean_linker_0, # of connection points: 2
#     Edge 34, Type (0, 1), BuildingBlock: ZUJKAS_clean_linker_0, # of connection points: 2
#     Edge 35, Type (0, 1), BuildingBlock: ZUJKAS_clean_linker_0, # of connection points: 2
#     Edge 36, Type (0, 1), BuildingBlock: ZUJKAS_clean_linker_0, # of connection points: 2
#     Edge 37, Type (0, 1), BuildingBlock: ZUJKAS_clean_linker_0, # of connection points: 2
#     Edge 38, Type (0, 1), BuildingBlock: ZUJKAS_clean_linker_0, # of connection points: 2
#     Edge 39, Type (0, 1), BuildingBlock: ZUJKAS_clean_linker_0, # of connection points: 2
#     Edge 40, Type (0, 1), BuildingBlock: ZUJKAS_clean_linker_0, # of connection points: 2
#     Edge 41, Type (0, 1), BuildingBlock: ZUJKAS_clean_linker_0, # of connection points: 2
#     Edge 42, Type (0, 1), BuildingBlock: ZUJKAS_clean_linker_0, # of connection points: 2
#     Edge 43, Type (0, 1), BuildingBlock: ZUJKAS_clean_linker_0, # of connection points: 2
#     Edge 44, Type (0, 1), BuildingBlock: ZUJKAS_clean_linker_0, # of connection points: 2
#     Edge 45, Type (0, 1), BuildingBlock: ZUJKAS_clean_linker_0, # of connection points: 2
#     Edge 46, Type (0, 1), BuildingBlock: ZUJKAS_clean_linker_0, # of connection points: 2
#     Edge 47, Type (0, 1), BuildingBlock: ZUJKAS_clean_linker_0, # of connection points: 2
#     Edge 48, Type (0, 1), BuildingBlock: ZUJKAS_clean_linker_0, # of connection points: 2
#     Edge 49, Type (0, 1), BuildingBlock: ZUJKAS_clean_linker_0, # of connection points: 2
#     Edge 50, Type (0, 1), BuildingBlock: ZUJKAS_clean_linker_0, # of connection points: 2
#     Edge 51, Type (0, 1), BuildingBlock: ZUJKAS_clean_linker_0, # of connection points: 2
#     Edge 52, Type (0, 1), BuildingBlock: ZUJKAS_clean_linker_0, # of connection points: 2
#     Edge 53, Type (0, 1), BuildingBlock: ZUJKAS_clean_linker_0, # of connection points: 2
#     Edge 54, Type (0, 1), BuildingBlock: ZUJKAS_clean_linker_0, # of connection points: 2
#     Edge 55, Type (0, 1), BuildingBlock: ZUJKAS_clean_linker_0, # of connection points: 2
#     Edge 56, Type (0, 1), BuildingBlock: ZUJKAS_clean_linker_0, # of connection points: 2
#     Edge 57, Type (0, 1), BuildingBlock: ZUJKAS_clean_linker_0, # of connection points: 2
#     Edge 58, Type (0, 1), BuildingBlock: ZUJKAS_clean_linker_0, # of connection points: 2
#     Edge 59, Type (0, 1), BuildingBlock: ZUJKAS_clean_linker_0, # of connection points: 2
#     Edge 60, Type (0, 1), BuildingBlock: ZUJKAS_clean_linker_0, # of connection points: 2
#     Edge 61, Type (0, 1), BuildingBlock: ZUJKAS_clean_linker_0, # of connection points: 2
#     Edge 62, Type (0, 1), BuildingBlock: ZUJKAS_clean_linker_0, # of connection points: 2
#     Edge 63, Type (0, 1), BuildingBlock: ZUJKAS_clean_linker_0, # of connection points: 2
#     Edge 64, Type (0, 1), BuildingBlock: ZUJKAS_clean_linker_0, # of connection points: 2
#     Edge 65, Type (0, 1), BuildingBlock: ZUJKAS_clean_linker_0, # of connection points: 2
#     Edge 66, Type (0, 1), BuildingBlock: ZUJKAS_clean_linker_0, # of connection points: 2
#     Edge 67, Type (0, 1), BuildingBlock: ZUJKAS_clean_linker_0, # of connection points: 2
#     Edge 68, Type (0, 1), BuildingBlock: ZUJKAS_clean_linker_0, # of connection points: 2
#     Edge 69, Type (0, 1), BuildingBlock: ZUJKAS_clean_linker_0, # of connection points: 2
#     Edge 70, Type (0, 1), BuildingBlock: ZUJKAS_clean_linker_0, # of connection points: 2
#     Edge 71, Type (0, 1), BuildingBlock: ZUJKAS_clean_linker_0, # of connection points: 2
#     Edge 72, Type (0, 1), BuildingBlock: ZUJKAS_clean_linker_0, # of connection points: 2
#     Edge 73, Type (0, 1), BuildingBlock: ZUJKAS_clean_linker_0, # of connection points: 2
#     Edge 74, Type (0, 1), BuildingBlock: ZUJKAS_clean_linker_0, # of connection points: 2
#     Edge 75, Type (0, 1), BuildingBlock: ZUJKAS_clean_linker_0, # of connection points: 2
# Relax obj value: 0.056
# Max RMSD: 0.172
# Mean RMSD: 0.111
data_MOF--net-ctn--node1-AZAVOO_clean_sbu_0--node2-PAMTOO_clean_linker_0--edge1-ZUJKAS_clean_linker_0
_symmetry_space_group_name_H-M    P1
_symmetry_Int_Tables_number       1
_symmetry_cell_setting            triclinic
loop_
_symmetry_equiv_pos_as_xyz
'x, y, z'
_cell_length_a     68.824675
_cell_length_b     70.367647
_cell_length_c     71.646335
_cell_angle_alpha  85.248005
_cell_angle_beta   95.107158
_cell_angle_gamma 100.18954
loop_
_atom_site_label
_atom_site_type_symbol
_atom_site_fract_x
_atom_site_fract_y
_atom_site_fract_z
_atom_type_partial_charge
H0 H 0.0043 0.05634 0.0444 0.0
H1 H 0.02589 0.00234 0.05499 0.0
H2 H 0.04647 0.04187 0.0093 0.0
H3 H 0.03814 0.00221 1.00017 0.0
C4 C 0.04251 0.99484 0.01385 0.0
O5 O 0.04878 0.00833 0.027 0.0
H6 H 0.02935 0.98464 0.01867 0.0
C7 C 0.01343 0.04635 0.04073 0.0
C8 C 0.02521 0.05134 0.02543 0.0
C9 C 0.01359 0.02882 0.05163 0.0
C10 C 0.02553 0.01596 0.04682 0.0
C11 C 0.03711 0.02062 0.03141 0.0
C12 C 0.03704 0.03829 0.02086 0.0
H13 H 0.32046 0.70668 0.2779 0.0
H14 H 0.28861 0.72824 0.22845 0.0
H15 H 0.34076 0.76341 0.25199 0.0
H16 H 0.31125 0.78719 0.23558 0.0
C17 C 0.30184 0.77586 0.22726 0.0
O18 O 0.31241 0.76136 0.22515 0.0
H19 H 0.28848 0.7701 0.23504 0.0
C20 C 0.31884 0.71802 0.26697 0.0
C21 C 0.33271 0.73532 0.26671 0.0
C22 C 0.3028 0.71528 0.25329 0.0
C23 C 0.30077 0.73006 0.23921 0.0
C24 C 0.31451 0.74727 0.23878 0.0
C25 C 0.33044 0.74987 0.25241 0.0
H26 H 0.96948 0.51174 0.11012 0.0
H27 H 0.95098 0.4904 0.05555 0.0
H28 H 1.00086 0.47216 0.08722 0.0
H29 H 0.004 0.48369 0.04639 0.0
C30 C 0.98942 0.47543 0.0413 0.0
O31 O 0.97816 0.46871 0.05625 0.0
H32 H 0.98169 0.48542 0.0317 0.0
C33 C 0.97139 0.50292 0.09896 0.0
C34 C 0.9868 0.49191 0.10097 0.0
C35 C 0.95846 0.50271 0.08254 0.0
C36 C 0.96093 0.49109 0.06817 0.0
C37 C 0.97612 0.48008 0.07001 0.0
C38 C 0.989 0.48054 0.08628 0.0
H39 H 0.70876 0.85335 0.26478 0.0
H40 H 0.6852 0.79635 0.24683 0.0
H41 H 0.74037 0.82645 0.22793 0.0
H42 H 0.71022 0.80808 0.19968 0.0
C43 C 0.70674 0.79374 0.20758 0.0
O44 O 0.71422 0.79488 0.22607 0.0
H45 H 0.69038 0.78939 0.20724 0.0
C46 C 0.70991 0.84127 0.25674 0.0
C47 C 0.72643 0.84214 0.24626 0.0
C48 C 0.695 0.82478 0.25722 0.0
C49 C 0.69658 0.80915 0.24678 0.0
C50 C 0.71278 0.80997 0.23606 0.0
C51 C 0.7277 0.82631 0.23592 0.0
H52 H 0.08426 0.98768 0.53198 0.0
H53 H 0.03019 0.97596 0.49654 0.0
H54 H 0.06892 0.0302 0.48887 0.0
H55 H 0.02618 0.03239 0.48375 0.0
C56 C 0.02063 0.01796 0.47819 0.0
O57 O 0.03634 0.00869 0.47633 0.0
H58 H 0.01056 0.00937 0.4883 0.0
C59 C 0.07404 0.99236 0.5209 0.0
C60 C 0.07886 0.01066 0.51129 0.0
C61 C 0.05651 0.97967 0.51578 0.0
C62 C 0.04377 0.98545 0.50077 0.0
C63 C 0.04835 0.0036 0.49116 0.0
C64 C 0.06575 0.01615 0.49642 0.0
H65 H 0.17861 0.74185 0.79477 0.0
H66 H 0.20073 0.70216 0.76266 0.0
H67 H 0.2304 0.71792 0.81568 0.0
H68 H 0.25709 0.71498 0.78775 0.0
C69 C 0.2477 0.70413 0.77886 0.0
O70 O 0.23021 0.69712 0.78705 0.0
H71 H 0.24457 0.71157 0.76486 0.0
C72 C 0.18945 0.73284 0.79297 0.0
C73 C 0.20479 0.73145 0.80709 0.0
C74 C 0.18766 0.7223 0.77686 0.0
C75 C 0.20153 0.71019 0.77505 0.0
C76 C 0.21683 0.70863 0.78906 0.0
C77 C 0.21835 0.71911 0.80507 0.0
H78 H 0.93379 0.53451 0.50539 0.0
H79 H 0.95334 0.50077 0.46544 0.0
H80 H 0.98928 0.55411 0.48061 0.0
H81 H 0.98892 0.54813 0.44076 0.0
C82 C 0.9851 0.53207 0.44131 0.0
O83 O 0.986 0.52474 0.45978 0.0
H84 H 0.96977 0.52818 0.43473 0.0
C85 C 0.94465 0.53244 0.49604 0.0
C86 C 0.96199 0.54633 0.49455 0.0
C87 C 0.94119 0.51591 0.48559 0.0
C88 C 0.95542 0.51345 0.47348 0.0
C89 C 0.97262 0.52723 0.4717 0.0
C90 C 0.97595 0.54352 0.48228 0.0
H91 H 0.78273 0.79622 0.84019 0.0
H92 H 0.82874 0.7705 0.82006 0.0
H93 H 0.80821 0.81845 0.78844 0.0
H94 H 0.81627 0.78979 0.76459 0.0
C95 C 0.82675 0.78265 0.77431 0.0
O96 O 0.83251 0.7935 0.78967 0.0
H97 H 0.81883 0.76801 0.77883 0.0
C98 C 0.79296 0.79544 0.82973 0.0
C99 C 0.79378 0.80879 0.814 0.0
C100 C 0.80572 0.78167 0.83235 0.0
C101 C 0.81909 0.78123 0.81868 0.0
C102 C 0.8199 0.7944 0.80289 0.0
C103 C 0.80749 0.80833 0.80072 0.0
H104 H 0.28282 0.30085 0.34212 0.0
H105 H 0.3267 0.27399 0.31986 0.0
H106 H 0.30322 0.31977 0.28743 0.0
H107 H 0.31013 0.28991 0.26464 0.0
C108 C 0.32169 0.28378 0.27388 0.0
O109 O 0.32811 0.29554 0.28848 0.0
H110 H 0.31492 0.2691 0.2795 0.0
C111 C 0.29191 0.29945 0.33088 0.0
C112 C 0.29115 0.31184 0.31447 0.0
C113 C 0.30473 0.28574 0.33315 0.0
C114 C 0.31693 0.28461 0.31868 0.0
C115 C 0.31638 0.2969 0.30232 0.0
C116 C 0.30363 0.31052 0.30027 0.0
H117 H 0.47265 0.0136 0.61024 0.0
H118 H 0.45294 0.99398 0.55519 0.0
H119 H 0.50022 0.97127 0.58702 0.0
H120 H 0.50513 0.98231 0.54744 0.0
C121 C 0.49011 0.97588 0.54155 0.0
O122 O 0.47776 0.96984 0.55584 0.0
H123 H 0.48407 0.98721 0.53218 0.0
C124 C 0.47395 0.00477 0.59887 0.0
C125 C 0.48817 0.99242 0.60084 0.0
C126 C 0.46107 0.00551 0.58248 0.0
C127 C 0.46245 0.99352 0.56805 0.0
C128 C 0.47648 0.9812 0.56984 0.0
C129 C 0.48922 0.98064 0.58614 0.0
H130 H 0.20973 0.35516 0.76705 0.0
H131 H 0.18584 0.29849 0.74843 0.0
H132 H 0.24049 0.32904 0.72883 0.0
H133 H 0.20939 0.31124 0.70088 0.0
C134 C 0.20627 0.29673 0.70853 0.0
O135 O 0.21431 0.29751 0.72687 0.0
H136 H 0.18994 0.29223 0.70862 0.0
C137 C 0.21072 0.34323 0.75875 0.0
C138 C 0.22698 0.34435 0.74785 0.0
C139 C 0.19585 0.32671 0.75924 0.0
C140 C 0.19721 0.31128 0.74842 0.0
C141 C 0.21315 0.31235 0.73732 0.0
C142 C 0.22803 0.32872 0.73716 0.0
H143 H 0.82146 0.20428 0.77356 0.0
H144 H 0.78804 0.22502 0.72469 0.0
H145 H 0.83845 0.26215 0.74888 0.0
H146 H 0.80687 0.28419 0.73325 0.0
C147 C 0.79826 0.27273 0.72455 0.0
O148 O 0.80995 0.25924 0.72211 0.0
H149 H 0.78502 0.26589 0.73208 0.0
C150 C 0.81929 0.21553 0.76268 0.0
C151 C 0.83203 0.23351 0.76286 0.0
C152 C 0.8032 0.21231 0.74909 0.0
C153 C 0.8002 0.22722 0.73541 0.0
C154 C 0.8129 0.24509 0.73541 0.0
C155 C 0.82872 0.24824 0.74909 0.0
H156 H 0.50817 0.55746 0.54521 0.0
H157 H 0.52951 0.50333 0.55564 0.0
H158 H 0.5508 0.54325 0.51049 0.0
H159 H 0.54034 0.50204 0.50211 0.0
C160 C 0.54665 0.49552 0.51548 0.0
O161 O 0.55291 0.5096 0.52803 0.0
H162 H 0.53479 0.48442 0.52142 0.0
C163 C 0.51729 0.54746 0.54155 0.0
C164 C 0.52937 0.55262 0.52649 0.0
C165 C 0.51721 0.5298 0.55227 0.0
C166 C 0.52926 0.517 0.54755 0.0
C167 C 0.54107 0.52178 0.5323 0.0
C168 C 0.54116 0.53954 0.52187 0.0
H169 H 0.57953 0.49038 0.03473 0.0
H170 H 0.52596 0.47661 0.99879 0.0
H171 H 0.56607 0.52933 0.98762 0.0
H172 H 0.52339 0.53248 0.98395 0.0
C173 C 0.51735 0.51821 0.97822 0.0
O174 O 0.53253 0.50809 0.97681 0.0
H175 H 0.50669 0.51003 0.98803 0.0
C176 C 0.56976 0.49402 0.02276 0.0
C177 C 0.5751 0.51133 0.01171 0.0
C178 C 0.55203 0.48128 0.01832 0.0
C179 C 0.53952 0.48628 0.00275 0.0
C180 C 0.54457 0.50359 0.99185 0.0
C181 C 0.56234 0.51599 0.99623 0.0
H182 H 0.67879 0.24193 0.28968 0.0
H183 H 0.69847 0.19927 0.25953 0.0
H184 H 0.7295 0.21654 0.31159 0.0
H185 H 0.75523 0.21266 0.28225 0.0
C186 C 0.74563 0.2009 0.27459 0.0
O187 O 0.72849 0.19475 0.28359 0.0
H188 H 0.742 0.20694 0.26009 0.0
C189 C 0.68902 0.23207 0.28854 0.0
C190 C 0.70435 0.23068 0.30268 0.0
C191 C 0.68667 0.22076 0.27296 0.0
C192 C 0.69995 0.208 0.27151 0.0
C193 C 0.71552 0.20677 0.28529 0.0
C194 C 0.71762 0.21797 0.30086 0.0
H195 H 0.43691 0.03656 0.00459 0.0
H196 H 0.4542 0.00223 0.96383 0.0
H197 H 0.49294 0.0536 0.98025 0.0
H198 H 0.49226 0.04968 0.94048 0.0
C199 C 0.4868 0.03387 0.93998 0.0
O200 O 0.48746 0.0252 0.95799 0.0
H201 H 0.4712 0.0317 0.93376 0.0
C202 C 0.44769 0.0338 0.99548 0.0
C203 C 0.46556 0.04695 0.99413 0.0
C204 C 0.44331 0.0175 0.98472 0.0
C205 C 0.45703 0.01469 0.9722 0.0
C206 C 0.47469 0.02784 0.97047 0.0
C207 C 0.47904 0.04377 0.98154 0.0
Mg208 Mg 0.2216 0.85562 0.00995 0.0
O209 O 0.25218 0.87467 0.00579 0.0
O210 O 0.27435 0.85467 0.01083 0.0
Mg211 Mg 0.25888 0.82402 0.0187 0.0
C212 C 0.27 0.87149 0.00661 0.0
C213 C 0.18617 0.87447 0.99671 0.0
O214 O 0.17892 0.85625 0.00114 0.0
O215 O 0.22191 0.8428 0.98157 0.0
O216 O 0.24396 0.82298 0.9887 0.0
O217 O 0.22504 0.86066 0.04045 0.0
O218 O 0.23488 0.83638 0.02847 0.0
C219 C 0.23158 0.83015 0.97704 0.0
C220 C 0.23392 0.8458 0.04294 0.0
O221 O 0.20488 0.8796 0.99744 0.0
Mg222 Mg 0.15878 0.50077 0.29598 0.0
O223 O 0.1387 0.49803 0.26838 0.0
O224 O 0.15867 0.50187 0.24491 0.0
Mg225 Mg 0.19089 0.50764 0.25697 0.0
C226 C 0.14137 0.4988 0.25088 0.0
C227 C 0.13519 0.49542 0.33016 0.0
O228 O 0.15277 0.50482 0.33556 0.0
O229 O 0.1668 0.47057 0.29428 0.0
O230 O 0.18745 0.4769 0.27127 0.0
O231 O 0.15973 0.53276 0.29375 0.0
O232 O 0.18144 0.51841 0.28196 0.0
C233 C 0.17876 0.4653 0.28383 0.0
C234 C 0.17511 0.53415 0.28425 0.0
O235 O 0.13234 0.48987 0.31353 0.0
Mg236 Mg 0.79827 0.66808 0.05611 0.0
O237 O 0.76705 0.64944 0.05251 0.0
O238 O 0.74543 0.67 0.04899 0.0
Mg239 Mg 0.76201 0.70102 0.04913 0.0
C240 C 0.7493 0.65283 0.05021 0.0
C241 C 0.81338 0.6289 0.06643 0.0
O242 O 0.80344 0.62993 0.08103 0.0
O243 O 0.79718 0.67641 0.02441 0.0
O244 O 0.77544 0.69683 0.02184 0.0
O245 O 0.79577 0.66855 0.08719 0.0
O246 O 0.78639 0.69032 0.06606 0.0
C247 C 0.78732 0.68799 0.01459 0.0
C248 C 0.78765 0.6838 0.08335 0.0
O249 O 0.81333 0.64198 0.05306 0.0
Mg250 Mg 0.90989 0.04696 0.2518 0.0
O251 O 0.88925 0.01742 0.25053 0.0
O252 O 0.90812 0.99519 0.24763 0.0
Mg253 Mg 0.94044 0.00998 0.24756 0.0
C254 C 0.89122 0.99993 0.24887 0.0
C255 C 0.86904 0.06112 0.25067 0.0
O256 O 0.86656 0.05204 0.2351 0.0
O257 O 0.92048 0.03903 0.28223 0.0
O258 O 0.9397 0.01744 0.27813 0.0
O259 O 0.90765 0.051 0.22031 0.0
O260 O 0.93043 0.03703 0.23691 0.0
C261 C 0.93224 0.02751 0.28878 0.0
C262 C 0.92253 0.04198 0.22068 0.0
O263 O 0.88503 0.06103 0.26105 0.0
Mg264 Mg 0.29886 0.17121 0.55663 0.0
O265 O 0.26799 0.15202 0.55243 0.0
O266 O 0.24604 0.17215 0.54708 0.0
Mg267 Mg 0.26197 0.20335 0.54783 0.0
C268 C 0.2502 0.15509 0.54895 0.0
C269 C 0.3324 0.14777 0.56188 0.0
O270 O 0.33977 0.16425 0.56926 0.0
O271 O 0.29879 0.17924 0.52485 0.0
O272 O 0.2766 0.19924 0.52126 0.0
O273 O 0.2953 0.17178 0.58744 0.0
O274 O 0.28603 0.19317 0.5658 0.0
C275 C 0.28897 0.19056 0.51458 0.0
C276 C 0.28689 0.18679 0.58315 0.0
O277 O 0.31466 0.14544 0.5546 0.0
Mg278 Mg 0.41065 0.54928 0.75035 0.0
O279 O 0.38977 0.51984 0.74941 0.0
O280 O 0.4085 0.49736 0.74708 0.0
Mg281 Mg 0.44091 0.51186 0.74691 0.0
C282 C 0.39165 0.50226 0.7481 0.0
C283 C 0.37157 0.56675 0.74755 0.0
O284 O 0.37067 0.56036 0.73072 0.0
O285 O 0.42106 0.54171 0.78092 0.0
O286 O 0.44022 0.51993 0.77728 0.0
O287 O 0.40869 0.55287 0.7188 0.0
O288 O 0.43117 0.53889 0.73581 0.0
C289 C 0.43278 0.53022 0.78771 0.0
C290 C 0.42349 0.5437 0.71946 0.0
O291 O 0.3859 0.5638 0.75929 0.0
Mg292 Mg 0.71979 0.35307 0.50674 0.0
O293 O 0.75067 0.37178 0.50357 0.0
O294 O 0.77256 0.35157 0.50922 0.0
Mg295 Mg 0.75659 0.321 0.51677 0.0
C296 C 0.76845 0.36846 0.50489 0.0
C297 C 0.70621 0.39288 0.50236 0.0
O298 O 0.71957 0.395 0.51666 0.0
O299 O 0.72103 0.34032 0.47842 0.0
O300 O 0.74236 0.31997 0.48656 0.0
O301 O 0.72221 0.3578 0.53736 0.0
O302 O 0.73231 0.33354 0.52567 0.0
C303 C 0.73053 0.32731 0.47442 0.0
C304 C 0.73094 0.34286 0.54008 0.0
O305 O 0.70381 0.37746 0.49371 0.0
Mg306 Mg 0.66057 0.99769 0.79534 0.0
O307 O 0.64047 0.99382 0.76777 0.0
O308 O 0.66019 0.9965 0.74421 0.0
Mg309 Mg 0.69238 0.00198 0.75623 0.0
C310 C 0.64297 0.99389 0.75029 0.0
C311 C 0.61882 0.99582 0.80925 0.0
O312 O 0.6181 0.00746 0.79398 0.0
O313 O 0.66821 0.96719 0.79514 0.0
O314 O 0.68803 0.97159 0.77141 0.0
O315 O 0.66193 0.02966 0.79159 0.0
O316 O 0.68336 0.01429 0.78065 0.0
C317 C 0.6794 0.96092 0.7846 0.0
C318 C 0.67726 0.03032 0.78217 0.0
O319 O 0.63411 0.98798 0.8133 0.0
Mg320 Mg 0.03192 0.27816 0.92866 0.0
O321 O 1.00233 0.27128 0.91094 0.0
O322 O 0.97938 0.25764 0.93041 0.0
Mg323 Mg 0.99428 0.25521 0.96016 0.0
C324 C 0.98449 0.26378 0.91399 0.0
C325 C 0.06478 0.29879 0.90531 0.0
O326 O 0.0738 0.29213 0.92078 0.0
O327 O 0.02183 0.3038 0.94042 0.0
O328 O 1.00015 0.28848 0.96044 0.0
O329 O 0.03828 0.24897 0.92456 0.0
O330 O 0.02272 0.25546 0.94831 0.0
C331 C 0.00975 0.30406 0.95293 0.0
C332 C 0.02898 0.24283 0.9394 0.0
O333 O 0.04598 0.29648 0.90404 0.0
Mg334 Mg 0.53502 0.77999 0.42935 0.0
O335 O 0.50531 0.77164 0.41224 0.0
O336 O 0.48318 0.75717 0.43216 0.0
Mg337 Mg 0.49863 0.75629 0.46179 0.0
C338 C 0.48779 0.76331 0.41558 0.0
C339 C 0.56677 0.80069 0.4049 0.0
O340 O 0.57631 0.79452 0.42029 0.0
O341 O 0.52382 0.80528 0.44056 0.0
O342 O 0.50301 0.78961 0.46119 0.0
O343 O 0.54262 0.75112 0.42586 0.0
O344 O 0.52706 0.75752 0.44964 0.0
C345 C 0.51184 0.80532 0.45322 0.0
C346 C 0.53377 0.74501 0.44096 0.0
O347 O 0.54797 0.79807 0.4041 0.0
Mg348 Mg 0.98722 0.74694 0.61562 0.0
O349 O 0.01586 0.74218 0.63335 0.0
O350 O 0.03767 0.73828 0.61324 0.0
Mg351 Mg 0.02343 0.74028 0.58324 0.0
C352 C 0.03299 0.73925 0.62995 0.0
C353 C 0.97177 0.74655 0.65581 0.0
O354 O 0.97747 0.72959 0.65741 0.0
O355 O 1.0017 0.77776 0.60662 0.0
O356 O 0.02219 0.77244 0.58585 0.0
O357 O 0.9761 0.71493 0.61607 0.0
O358 O 0.99425 0.73134 0.59434 0.0
C359 C 0.01437 0.78396 0.59457 0.0
C360 C 0.98532 0.71492 0.60108 0.0
O361 O 0.97454 0.75725 0.64076 0.0
Mg362 Mg 0.48461 0.24671 0.11452 0.0
O363 O 0.51375 0.24283 0.13175 0.0
O364 O 0.53585 0.24118 0.11111 0.0
Mg365 Mg 0.52093 0.24264 0.0813 0.0
C366 C 0.53118 0.24125 0.12796 0.0
C367 C 0.45347 0.24824 0.14187 0.0
O368 O 0.44442 0.23625 0.12948 0.0
O369 O 0.49757 0.27816 0.10586 0.0
O370 O 0.51789 0.27425 0.08435 0.0
O371 O 0.47518 0.21452 0.11471 0.0
O372 O 0.49218 0.23208 0.09279 0.0
C373 C 0.50968 0.28512 0.09349 0.0
C374 C 0.48428 0.21526 0.09954 0.0
O375 O 0.47154 0.25561 0.14014 0.0
H376 H 0.21243 0.71963 0.84401 0.0
H377 H 0.21531 0.73885 0.87144 0.0
H378 H 0.2041 0.78854 0.83542 0.0
H379 H 0.20148 0.76952 0.8079 0.0
H380 H 0.23727 0.79579 0.86264 0.0
H381 H 0.16918 0.75761 0.89451 0.0
H382 H 0.18546 0.74206 0.88856 0.0
H383 H 0.17348 0.75589 0.87025 0.0
C384 C 0.21066 0.73467 0.84193 0.0
C385 C 0.20665 0.74303 0.8238 0.0
C386 C 0.21212 0.74557 0.85762 0.0
C387 C 0.20963 0.76502 0.85546 0.0
C388 C 0.20589 0.7735 0.83738 0.0
H389 H 0.20098 0.83415 0.95033 0.0
H390 H 0.195 0.82034 0.91952 0.0
C391 C 0.20431 0.76259 0.8217 0.0
C392 C 0.21148 0.77666 0.87205 0.0
H393 H 0.1915 0.77922 0.91355 0.0
C394 C 0.22718 0.79229 0.8737 0.0
C395 C 0.19811 0.77223 0.88631 0.0
C396 C 0.18048 0.75614 0.88482 0.0
C397 C 0.23033 0.80312 0.88964 0.0
C398 C 0.21752 0.7981 0.9043 0.0
C399 C 0.20135 0.78297 0.90231 0.0
C400 C 0.22149 0.80743 0.92236 0.0
C401 C 0.24748 0.81973 0.89077 0.0
C402 C 0.2383 0.80469 0.9341 0.0
C403 C 0.24168 0.8124 0.95165 0.0
C404 C 0.22831 0.82307 0.95787 0.0
C405 C 0.2116 0.8261 0.94593 0.0
C406 C 0.20814 0.81818 0.92837 0.0
H407 H 0.25264 0.82487 0.87668 0.0
H408 H 0.24335 0.83204 0.89736 0.0
H409 H 0.26002 0.81487 0.89957 0.0
H410 H 0.24863 0.79621 0.92984 0.0
H411 H 0.25473 0.80981 0.96043 0.0
H412 H 0.02551 0.53908 0.44615 0.0
H413 H 0.04928 0.5282 0.42753 0.0
H414 H 1.00095 0.49688 0.39386 0.0
H415 H 0.97719 0.50774 0.41242 0.0
H416 H 0.05342 0.4889 0.41985 0.0
H417 H 0.0342 0.53401 0.35561 0.0
H418 H 0.02768 0.53826 0.37858 0.0
H419 H 0.01392 0.51843 0.36618 0.0
C420 C 0.02004 0.52977 0.43484 0.0
C421 C 0.99958 0.52436 0.4306 0.0
C422 C 0.03357 0.52356 0.42425 0.0
C423 C 0.02685 0.51194 0.40918 0.0
C424 C 0.00642 0.50607 0.40526 0.0
H425 H 0.09566 0.48134 0.32215 0.0
H426 H 0.06833 0.48216 0.34168 0.0
C427 C 0.99289 0.51222 0.41589 0.0
C428 C 0.04126 0.50644 0.39728 0.0
H429 H 0.05832 0.5146 0.35351 0.0
C430 C 0.05445 0.49442 0.40531 0.0
C431 C 0.04246 0.51356 0.37829 0.0
C432 C 0.02894 0.52689 0.3691 0.0
C433 C 0.06896 0.48946 0.39489 0.0
C434 C 0.0706 0.49709 0.37607 0.0
C435 C 0.05704 0.5087 0.36791 0.0
C436 C 0.08714 0.49453 0.36502 0.0
C437 C 0.08232 0.47601 0.40414 0.0
C438 C 0.10678 0.50108 0.37166 0.0
C439 C 0.12237 0.50056 0.36061 0.0
C440 C 0.11868 0.49367 0.34252 0.0
C441 C 0.09903 0.48666 0.33603 0.0
C442 C 0.08339 0.48716 0.34716 0.0
H443 H 0.0751 0.46648 0.4156 0.0
H444 H 0.08656 0.46681 0.39384 0.0
H445 H 0.096 0.48471 0.41044 0.0
H446 H 0.11006 0.50727 0.38517 0.0
H447 H 0.13729 0.50615 0.36605 0.0
H448 H 0.8371 0.76928 0.85325 0.0
H449 H 0.83637 0.74797 0.882 0.0
H450 H 0.77285 0.74294 0.87968 0.0
H451 H 0.77331 0.76331 0.85044 0.0
H452 H 0.82479 0.75443 0.91484 0.0
H453 H 0.7784 0.68734 0.89072 0.0
H454 H 0.78881 0.70674 0.87454 0.0
H455 H 0.76616 0.70777 0.88498 0.0
C456 C 0.82291 0.76326 0.85858 0.0
C457 C 0.80526 0.76803 0.84945 0.0
C458 C 0.82254 0.75117 0.87511 0.0
C459 C 0.80453 0.74355 0.88287 0.0
C460 C 0.78689 0.74819 0.87374 0.0
H461 H 0.76245 0.70304 0.98799 0.0
H462 H 0.76852 0.71382 0.95546 0.0
C463 C 0.78722 0.76015 0.85715 0.0
C464 C 0.80426 0.73207 0.90125 0.0
H465 H 0.78079 0.69102 0.92418 0.0
C466 C 0.81549 0.74038 0.9168 0.0
C467 C 0.7922 0.71367 0.90383 0.0
C468 C 0.78089 0.70328 0.88757 0.0
C469 C 0.81413 0.7313 0.93495 0.0
C470 C 0.80125 0.71347 0.93762 0.0
C471 C 0.79062 0.70474 0.92205 0.0
C472 C 0.79708 0.70484 0.95669 0.0
C473 C 0.8257 0.74126 0.95134 0.0
C474 C 0.81098 0.69577 0.968 0.0
C475 C 0.8075 0.68943 0.98668 0.0
C476 C 0.79018 0.6923 0.99431 0.0
C477 C 0.77602 0.70075 0.98263 0.0
C478 C 0.77941 0.70687 0.964 0.0
H479 H 0.83411 0.7557 0.94703 0.0
H480 H 0.81552 0.74307 0.962 0.0
H481 H 0.83631 0.73215 0.95814 0.0
H482 H 0.82469 0.69406 0.96253 0.0
H483 H 0.8187 0.683 0.99531 0.0
H484 H 0.99289 0.99096 0.46097 0.0
H485 H 0.9761 0.99367 0.42938 0.0
H486 H 0.00686 0.05239 0.42138 0.0
H487 H 0.02388 0.04957 0.45282 0.0
H488 H 0.95155 0.01962 0.41299 0.0
H489 H 0.02058 0.02623 0.37648 0.0
H490 H 0.01934 0.01854 0.40107 0.0
H491 H 0.02128 0.04376 0.39348 0.0
C492 C 0.99589 0.00447 0.45247 0.0
C493 C 0.00946 0.02013 0.45932 0.0
C494 C 0.98632 0.00602 0.43449 0.0
C495 C 0.99035 0.02318 0.42299 0.0
C496 C 0.00372 0.03894 0.42993 0.0
H497 H 0.9255 0.05063 0.31588 0.0
H498 H 0.9384 0.04988 0.3489 0.0
C499 C 0.01332 0.03737 0.44789 0.0
C500 C 0.98097 0.02434 0.40356 0.0
H501 H 0.99143 0.03 0.35755 0.0
C502 C 0.96023 0.02192 0.40084 0.0
C503 C 0.99235 0.02713 0.38776 0.0
C504 C 0.01461 0.0289 0.38975 0.0
C505 C 0.95057 0.02226 0.38271 0.0
C506 C 0.96199 0.02533 0.36692 0.0
C507 C 0.98271 0.02778 0.36967 0.0
C508 C 0.95286 0.02518 0.34736 0.0
C509 C 0.92825 0.0188 0.38058 0.0
C510 C 0.95675 0.01162 0.33553 0.0
C511 C 0.94956 0.0121 0.31669 0.0
C512 C 0.93832 0.0262 0.3092 0.0
C513 C 0.93401 0.03952 0.3212 0.0
C514 C 0.94131 0.03906 0.3401 0.0
H515 H 0.92172 0.01231 0.39376 0.0
H516 H 0.92309 0.03281 0.37693 0.0
H517 H 0.92258 0.00911 0.36912 0.0
H518 H 0.96562 0.00078 0.34083 0.0
H519 H 0.95312 0.00154 0.30794 0.0
H520 H 0.24476 0.29011 0.7113 0.0
H521 H 0.25916 0.2692 0.69267 0.0
H522 H 0.20223 0.25248 0.66279 0.0
H523 H 0.18766 0.27285 0.68184 0.0
H524 H 0.22127 0.22162 0.67139 0.0
H525 H 0.27168 0.2834 0.63877 0.0
H526 H 0.27498 0.2811 0.66394 0.0
H527 H 0.25208 0.28673 0.65264 0.0
C528 C 0.23527 0.28168 0.70099 0.0
C529 C 0.215 0.28277 0.69827 0.0
C530 C 0.24355 0.26991 0.69022 0.0
C531 C 0.23183 0.25945 0.67616 0.0
C532 C 0.21155 0.26036 0.67359 0.0
H533 H 0.26906 0.21873 0.57794 0.0
H534 H 0.25556 0.23478 0.60136 0.0
C535 C 0.20323 0.27199 0.68446 0.0
C536 C 0.24072 0.24805 0.66368 0.0
H537 H 0.2749 0.25215 0.6312 0.0
C538 C 0.23304 0.22826 0.66263 0.0
C539 C 0.25591 0.2568 0.65209 0.0
C540 C 0.26404 0.2782 0.65173 0.0
C541 C 0.24003 0.21702 0.6502 0.0
C542 C 0.2554 0.22573 0.63881 0.0
C543 C 0.26321 0.24546 0.64003 0.0
C544 C 0.26287 0.21506 0.62468 0.0
C545 C 0.2304 0.19612 0.64893 0.0
C546 C 0.27148 0.19855 0.62994 0.0
C547 C 0.27899 0.18909 0.61643 0.0
C548 C 0.27821 0.19612 0.59746 0.0
C549 C 0.26965 0.2127 0.59232 0.0
C550 C 0.26203 0.22201 0.60575 0.0
H551 H 0.21578 0.19305 0.65501 0.0
H552 H 0.22832 0.19215 0.63411 0.0
H553 H 0.24007 0.18671 0.65688 0.0
H554 H 0.2727 0.19316 0.64452 0.0
H555 H 0.28566 0.17647 0.62089 0.0
H556 H 0.5287 0.51551 0.58744 0.0
H557 H 0.51085 0.51302 0.61588 0.0
H558 H 0.46166 0.53309 0.58346 0.0
H559 H 0.47914 0.53506 0.55495 0.0
H560 H 0.50001 0.54456 0.62984 0.0
H561 H 0.43364 0.48869 0.61653 0.0
H562 H 0.45512 0.49146 0.60315 0.0
H563 H 0.43723 0.5073 0.59785 0.0
C564 C 0.51385 0.51883 0.58628 0.0
C565 C 0.50536 0.52555 0.56896 0.0
C566 C 0.50372 0.51752 0.60256 0.0
C567 C 0.48485 0.52272 0.60178 0.0
C568 C 0.47603 0.52867 0.58437 0.0
H569 H 0.40919 0.54989 0.68289 0.0
H570 H 0.42379 0.54371 0.65444 0.0
C571 C 0.48614 0.52999 0.56812 0.0
C572 C 0.47534 0.52394 0.61934 0.0
H573 H 0.43294 0.50875 0.64176 0.0
C574 C 0.48544 0.53656 0.63255 0.0
C575 C 0.45624 0.51365 0.62275 0.0
C576 C 0.44498 0.49938 0.60941 0.0
C577 C 0.47682 0.5395 0.64886 0.0
C578 C 0.45769 0.52928 0.65224 0.0
C579 C 0.44759 0.51657 0.63911 0.0
C580 C 0.44804 0.5317 0.66939 0.0
C581 C 0.48804 0.55395 0.66208 0.0
C582 C 0.45659 0.52658 0.68718 0.0
C583 C 0.44837 0.53015 0.70341 0.0
C584 C 0.4313 0.53876 0.70219 0.0
C585 C 0.42237 0.54329 0.68432 0.0
C586 C 0.43065 0.53973 0.66806 0.0
H587 H 0.50012 0.56395 0.65523 0.0
H588 H 0.47799 0.56266 0.66736 0.0
H589 H 0.49482 0.54609 0.67432 0.0
H590 H 0.46984 0.5201 0.68852 0.0
H591 H 0.45569 0.52653 0.71689 0.0
H592 H 0.81397 0.30707 0.70626 0.0
H593 H 0.8032 0.32058 0.67513 0.0
H594 H 0.75759 0.27039 0.6689 0.0
H595 H 0.76817 0.25703 0.70013 0.0
H596 H 0.80139 0.30523 0.64051 0.0
H597 H 0.7269 0.31526 0.65737 0.0
H598 H 0.74605 0.31082 0.67528 0.0
H599 H 0.73173 0.29111 0.663 0.0
C600 C 0.80152 0.29908 0.69828 0.0
C601 C 0.79155 0.28127 0.70566 0.0
C602 C 0.79543 0.30674 0.68053 0.0
C603 C 0.77935 0.29667 0.66988 0.0
C604 C 0.7697 0.27863 0.67708 0.0
H605 H 0.74704 0.31043 0.55079 0.0
H606 H 0.75983 0.30026 0.58225 0.0
C607 C 0.77576 0.27099 0.69484 0.0
C608 C 0.77296 0.30478 0.65105 0.0
H609 H 0.7332 0.31865 0.62502 0.0
C610 C 0.78652 0.30828 0.63713 0.0
C611 C 0.75364 0.309 0.64677 0.0
C612 C 0.73878 0.30655 0.66143 0.0
C613 C 0.78112 0.31543 0.61888 0.0
C614 C 0.76155 0.31887 0.6144 0.0
C615 C 0.74815 0.31583 0.62845 0.0
C616 C 0.75456 0.32543 0.59517 0.0
C617 C 0.79646 0.31941 0.60463 0.0
C618 C 0.74702 0.34278 0.59205 0.0
C619 C 0.7396 0.34859 0.57409 0.0
C620 C 0.73952 0.3371 0.55893 0.0
C621 C 0.74713 0.31974 0.56209 0.0
C622 C 0.75452 0.31393 0.58007 0.0
H623 H 0.81174 0.32125 0.61149 0.0
H624 H 0.79455 0.30699 0.59565 0.0
H625 H 0.79482 0.33261 0.59543 0.0
H626 H 0.74682 0.35181 0.60355 0.0
H627 H 0.73379 0.36202 0.57213 0.0
H628 H 0.50611 0.02298 0.62132 0.0
H629 H 0.53024 0.0226 0.64841 0.0
H630 H 0.52719 0.96115 0.64571 0.0
H631 H 0.50217 0.96116 0.61931 0.0
H632 H 0.52875 0.97062 0.68158 0.0
H633 H 0.58749 0.0194 0.64432 0.0
H634 H 0.56573 0.02985 0.64557 0.0
H635 H 0.56438 0.00887 0.63244 0.0
C636 C 0.51028 0.0093 0.62665 0.0
C637 C 0.50225 0.99212 0.61793 0.0
C638 C 0.52432 0.00917 0.64201 0.0
C639 C 0.53091 0.99193 0.64883 0.0
C640 C 0.52249 0.97467 0.64059 0.0
H641 H 0.64162 0.98496 0.71379 0.0
H642 H 0.61365 0.98342 0.69023 0.0
C643 C 0.50831 0.97474 0.62534 0.0
C644 C 0.54685 0.9919 0.66429 0.0
H645 H 0.59475 0.01172 0.6767 0.0
C646 C 0.5432 0.97958 0.68052 0.0
C647 C 0.56582 0.00338 0.66279 0.0
C648 C 0.5712 0.01598 0.64528 0.0
C649 C 0.55794 0.97849 0.69531 0.0
C650 C 0.57671 0.9904 0.69402 0.0
C651 C 0.58033 0.00269 0.67777 0.0
C652 C 0.59313 0.98999 0.70898 0.0
C653 C 0.55341 0.96419 0.71188 0.0
C654 C 0.59093 0.99403 0.72749 0.0
C655 C 0.60691 0.99468 0.74113 0.0
C656 C 0.6255 0.99167 0.73641 0.0
C657 C 0.62756 0.98744 0.71792 0.0
C658 C 0.61156 0.98657 0.70439 0.0
H659 H 0.54078 0.95255 0.70832 0.0
H660 H 0.56647 0.95743 0.717 0.0
H661 H 0.54932 0.97184 0.72349 0.0
H662 H 0.57702 0.99718 0.7313 0.0
H663 H 0.60486 0.99814 0.75519 0.0
H664 H 0.85927 0.21042 0.77503 0.0
H665 H 0.88588 0.21609 0.80003 0.0
H666 H 0.86801 0.27004 0.80953 0.0
H667 H 0.84173 0.26466 0.78421 0.0
H668 H 0.90728 0.27421 0.81004 0.0
H669 H 0.87954 0.2092 0.85544 0.0
H670 H 0.88413 0.20345 0.83248 0.0
H671 H 0.86511 0.21741 0.83509 0.0
C672 C 0.86101 0.22344 0.78251 0.0
C673 C 0.8484 0.23706 0.77775 0.0
C674 C 0.87615 0.22663 0.79684 0.0
C675 C 0.87869 0.2433 0.80694 0.0
C676 C 0.86629 0.25705 0.80198 0.0
H677 H 0.94428 0.25687 0.91532 0.0
H678 H 0.9191 0.25293 0.88906 0.0
C679 C 0.85132 0.25398 0.7875 0.0
C680 C 0.89433 0.24651 0.82259 0.0
H681 H 0.91154 0.22626 0.86437 0.0
C682 C 0.90818 0.26376 0.82196 0.0
C683 C 0.89531 0.23301 0.83829 0.0
C684 C 0.88011 0.21483 0.84051 0.0
C685 C 0.92308 0.26781 0.8365 0.0
C686 C 0.92452 0.25397 0.85185 0.0
C687 C 0.91057 0.23679 0.85253 0.0
C688 C 0.94002 0.25713 0.86763 0.0
C689 C 0.93676 0.2871 0.83548 0.0
C690 C 0.96022 0.26077 0.86437 0.0
C691 C 0.97469 0.26329 0.87938 0.0
C692 C 0.96924 0.26183 0.89798 0.0
C693 C 0.94901 0.25804 0.90119 0.0
C694 C 0.93458 0.25577 0.88618 0.0
H695 H 0.93011 0.29802 0.82612 0.0
H696 H 0.94048 0.29276 0.8496 0.0
H697 H 0.9507 0.28533 0.82966 0.0
H698 H 0.96482 0.26136 0.85024 0.0
H699 H 0.99013 0.26598 0.87642 0.0
H700 H 0.50562 0.94373 0.5545 0.0
H701 H 0.50921 0.91614 0.53704 0.0
H702 H 0.48271 0.94248 0.48686 0.0
H703 H 0.47872 0.96986 0.50441 0.0
H704 H 0.46761 0.90418 0.49205 0.0
H705 H 0.54953 0.9148 0.49939 0.0
H706 H 0.53889 0.91292 0.52158 0.0
H707 H 0.53585 0.93298 0.50494 0.0
C708 C 0.50059 0.94356 0.53974 0.0
C709 C 0.49197 0.95888 0.53077 0.0
C710 C 0.50278 0.92791 0.52975 0.0
C711 C 0.4966 0.92742 0.51054 0.0
C712 C 0.48772 0.94262 0.50162 0.0
H713 H 0.52853 0.84226 0.44106 0.0
H714 H 0.5241 0.87275 0.45299 0.0
C715 C 0.48546 0.95823 0.51164 0.0
C716 C 0.49888 0.9108 0.4999 0.0
H717 H 0.53285 0.8844 0.48876 0.0
C718 C 0.4819 0.89996 0.49119 0.0
C719 C 0.51757 0.90549 0.49846 0.0
C720 C 0.53652 0.91727 0.50642 0.0
C721 C 0.483 0.88354 0.4817 0.0
C722 C 0.50154 0.87758 0.48121 0.0
C723 C 0.51862 0.88884 0.4893 0.0
C724 C 0.50342 0.85925 0.47318 0.0
C725 C 0.46429 0.87276 0.47225 0.0
C726 C 0.49333 0.84155 0.4806 0.0
C727 C 0.49576 0.82415 0.47381 0.0
C728 C 0.50852 0.82401 0.45952 0.0
C729 C 0.51855 0.8418 0.45201 0.0
C730 C 0.51606 0.85925 0.45883 0.0
H731 H 0.45302 0.88229 0.46873 0.0
H732 H 0.4673 0.86672 0.45917 0.0
H733 H 0.45787 0.86062 0.48194 0.0
H734 H 0.48387 0.84114 0.49198 0.0
H735 H 0.48787 0.81078 0.48004 0.0
H736 H 0.18062 0.29599 0.78251 0.0
H737 H 0.15492 0.29455 0.80427 0.0
H738 H 0.14808 0.35307 0.78576 0.0
H739 H 0.17391 0.35464 0.76399 0.0
H740 H 0.15166 0.34798 0.82351 0.0
H741 H 0.09545 0.28901 0.7954 0.0
H742 H 0.11927 0.28186 0.79993 0.0
H743 H 0.1159 0.30104 0.78232 0.0
C744 C 0.17338 0.30842 0.78281 0.0
C745 C 0.17928 0.32541 0.77151 0.0
C746 C 0.15865 0.30757 0.79522 0.0
C747 C 0.14933 0.32359 0.79643 0.0
C748 C 0.15501 0.3405 0.785 0.0
H749 H 0.05081 0.30919 0.86946 0.0
H750 H 0.07012 0.31836 0.84196 0.0
C751 C 0.16981 0.3414 0.77263 0.0
C752 C 0.13469 0.32309 0.81057 0.0
H753 H 0.09284 0.29608 0.82732 0.0
C754 C 0.13863 0.3368 0.82418 0.0
C755 C 0.11748 0.30875 0.81125 0.0
C756 C 0.11165 0.29447 0.79631 0.0
C757 C 0.12642 0.33592 0.83902 0.0
C758 C 0.11007 0.3207 0.8405 0.0
C759 C 0.10551 0.30763 0.82632 0.0
C760 C 0.09846 0.31714 0.85731 0.0
C761 C 0.1313 0.35121 0.85308 0.0
C762 C 0.10798 0.31354 0.87506 0.0
C763 C 0.09705 0.30838 0.89074 0.0
C764 C 0.0763 0.30651 0.889 0.0
C765 C 0.06678 0.31058 0.87129 0.0
C766 C 0.07778 0.31577 0.85556 0.0
H767 H 0.13948 0.36492 0.84675 0.0
H768 H 0.11771 0.35427 0.85867 0.0
H769 H 0.14092 0.34607 0.865 0.0
H770 H 0.12386 0.31406 0.8767 0.0
H771 H 0.10486 0.30528 0.90414 0.0
H772 H 0.52989 0.58735 0.54115 0.0
H773 H 0.52971 0.61889 0.52435 0.0
H774 H 0.53157 0.59368 0.47182 0.0
H775 H 0.5308 0.56174 0.4885 0.0
H776 H 0.55713 0.64014 0.50282 0.0
H777 H 0.48545 0.62273 0.4604 0.0
H778 H 0.4929 0.60698 0.47988 0.0
H779 H 0.50297 0.60727 0.45754 0.0
C780 C 0.52992 0.5884 0.52599 0.0
C781 C 0.53006 0.57193 0.51615 0.0
C782 C 0.52999 0.60649 0.51642 0.0
C783 C 0.53028 0.6086 0.49681 0.0
C784 C 0.53089 0.59232 0.48692 0.0
H785 H 0.54207 0.71472 0.42332 0.0
H786 H 0.54075 0.68111 0.43601 0.0
C787 C 0.53071 0.57412 0.4965 0.0
C788 C 0.53038 0.628 0.48696 0.0
H789 H 0.5042 0.65398 0.45457 0.0
C790 C 0.54556 0.64314 0.49226 0.0
C791 C 0.51525 0.6319 0.47319 0.0
C792 C 0.49811 0.61643 0.4675 0.0
C793 C 0.54596 0.66206 0.48426 0.0
C794 C 0.53078 0.66595 0.47064 0.0
C795 C 0.51579 0.65084 0.46504 0.0
C796 C 0.53014 0.68581 0.46246 0.0
C797 C 0.56254 0.67786 0.4904 0.0
C798 C 0.52425 0.69938 0.47307 0.0
C799 C 0.52487 0.71853 0.46587 0.0
C800 C 0.53151 0.72443 0.44796 0.0
C801 C 0.53694 0.71063 0.43719 0.0
C802 C 0.53617 0.69145 0.44437 0.0
H803 H 0.57459 0.67202 0.49915 0.0
H804 H 0.56886 0.68643 0.47797 0.0
H805 H 0.55662 0.68785 0.49875 0.0
H806 H 0.51951 0.6952 0.48707 0.0
H807 H 0.52066 0.7288 0.47453 0.0
H808 H 0.84218 0.8047 0.74397 0.0
H809 H 0.86966 0.79967 0.72634 0.0
H810 H 0.87921 0.75135 0.76509 0.0
H811 H 0.8516 0.75626 0.78261 0.0
H812 H 0.91033 0.79834 0.73737 0.0
H813 H 0.86975 0.72798 0.71348 0.0
H814 H 0.85765 0.74492 0.72371 0.0
H815 H 0.87209 0.72985 0.73847 0.0
C816 C 0.85022 0.79306 0.74871 0.0
C817 C 0.84455 0.78056 0.76434 0.0
C818 C 0.86592 0.79023 0.73869 0.0
C819 C 0.87621 0.77489 0.74419 0.0
C820 C 0.87119 0.76301 0.76038 0.0
H821 H 0.9629 0.72689 0.68941 0.0
H822 H 0.94156 0.73469 0.71218 0.0
C823 C 0.8555 0.76584 0.77039 0.0
C824 C 0.8917 0.77095 0.73259 0.0
H825 H 0.90256 0.73748 0.70502 0.0
C826 C 0.90868 0.78503 0.73031 0.0
C827 C 0.88949 0.75358 0.72338 0.0
C828 C 0.87121 0.73825 0.7247 0.0
C829 C 0.9236 0.78212 0.71919 0.0
C830 C 0.92128 0.76483 0.70982 0.0
C831 C 0.90437 0.7507 0.71226 0.0
C832 C 0.93581 0.76122 0.69693 0.0
C833 C 0.94183 0.79747 0.71779 0.0
C834 C 0.93982 0.77361 0.68082 0.0
C835 C 0.95208 0.76922 0.66779 0.0
C836 C 0.96042 0.75223 0.6705 0.0
C837 C 0.95673 0.74008 0.68686 0.0
C838 C 0.94451 0.74451 0.6999 0.0
H839 H 0.94408 0.80676 0.72988 0.0
H840 H 0.95528 0.79091 0.71719 0.0
H841 H 0.94008 0.80691 0.70477 0.0
H842 H 0.93294 0.78635 0.67799 0.0
H843 H 0.95452 0.77885 0.65531 0.0
H844 H 0.06035 0.97031 0.55367 0.0
H845 H 0.05305 0.9382 0.57004 0.0
H846 H 0.0346 0.9131 0.51707 0.0
H847 H 0.0419 0.94509 0.5006 0.0
H848 H 0.00858 0.89978 0.54493 0.0
H849 H 0.08636 0.89522 0.57062 0.0
H850 H 0.07748 0.9162 0.57684 0.0
H851 H 0.0801 0.9131 0.55261 0.0
C852 C 0.05489 0.95793 0.5455 0.0
C853 C 0.05178 0.96025 0.52582 0.0
C854 C 0.05072 0.9396 0.55488 0.0
C855 C 0.04353 0.92324 0.54475 0.0
C856 C 0.04015 0.92554 0.52515 0.0
H857 H 0.04126 0.80229 0.5703 0.0
H858 H 0.04794 0.83658 0.56019 0.0
C859 C 0.04426 0.94385 0.51577 0.0
C860 C 0.03948 0.90366 0.55445 0.0
H861 H 0.06176 0.86928 0.58014 0.0
C862 C 0.02016 0.89313 0.55273 0.0
C863 C 0.05468 0.895 0.56449 0.0
C864 C 0.07587 0.90535 0.56617 0.0
C865 C 0.01566 0.87405 0.56056 0.0
C866 C 0.03085 0.8654 0.57064 0.0
C867 C 0.05012 0.87603 0.57257 0.0
C868 C 0.0274 0.84482 0.57791 0.0
C869 C 0.99486 0.86306 0.55737 0.0
C870 C 0.01394 0.83811 0.59158 0.0
C871 C 0.01 0.8184 0.59741 0.0
C872 C 0.01954 0.80508 0.5897 0.0
C873 C 0.03353 0.81205 0.57649 0.0
C874 C 0.03742 0.83169 0.57069 0.0
H875 H 0.98605 0.87038 0.54615 0.0
H876 H 0.99506 0.84815 0.55348 0.0
H877 H 0.98726 0.86198 0.57053 0.0
H878 H 0.00631 0.84808 0.59759 0.0
H879 H 0.99923 0.81358 0.60768 0.0
H880 H 0.17299 0.75501 0.7635 0.0
H881 H 0.1456 0.75777 0.7399 0.0
H882 H 0.13869 0.69676 0.73209 0.0
H883 H 0.16546 0.69366 0.75637 0.0
H884 H 0.14207 0.75105 0.70334 0.0
H885 H 0.08246 0.70238 0.73944 0.0
H886 H 0.10632 0.71095 0.7512 0.0
H887 H 0.1032 0.69094 0.73649 0.0
C888 C 0.16545 0.74209 0.75701 0.0
C889 C 0.17135 0.72407 0.76201 0.0
C890 C 0.14987 0.74373 0.7434 0.0
C891 C 0.13983 0.72741 0.73446 0.0
C892 C 0.14589 0.70947 0.73912 0.0
H893 H 0.06922 0.7288 0.62852 0.0
H894 H 0.09456 0.72617 0.65417 0.0
C895 C 0.16142 0.70778 0.75282 0.0
C896 C 0.12347 0.72937 0.71981 0.0
H897 H 0.07488 0.71205 0.70729 0.0
C898 C 0.12736 0.74259 0.70426 0.0
C899 C 0.10416 0.71858 0.72116 0.0
C900 C 0.09869 0.70506 0.73806 0.0
C901 C 0.11263 0.745 0.68983 0.0
C902 C 0.09359 0.73354 0.69074 0.0
C903 C 0.08954 0.72066 0.7065 0.0
C904 C 0.07779 0.73455 0.67534 0.0
C905 C 0.11756 0.76 0.67388 0.0
C906 C 0.05958 0.73943 0.67883 0.0
C907 C 0.04488 0.74075 0.66418 0.0
C908 C 0.04813 0.73719 0.64576 0.0
C909 C 0.06625 0.73188 0.64246 0.0
C910 C 0.08084 0.73046 0.6571 0.0
H911 H 0.13035 0.77125 0.678 0.0
H912 H 0.1216 0.75286 0.66189 0.0
H913 H 0.10471 0.7672 0.66906 0.0
H914 H 0.05686 0.7425 0.69284 0.0
H915 H 0.0311 0.74481 0.66725 0.0
H916 H 0.99678 0.56382 0.51239 0.0
H917 H 1.00201 0.59211 0.53107 0.0
H918 H 0.94004 0.59598 0.52145 0.0
H919 H 0.93487 0.56837 0.50203 0.0
H920 H 0.96285 0.63079 0.51676 0.0
H921 H 0.98707 0.59412 0.58411 0.0
H922 H 1.00178 0.59195 0.56517 0.0
H923 H 0.97607 0.58096 0.56414 0.0
C924 C 0.98429 0.57079 0.5141 0.0
C925 C 0.96536 0.56369 0.50579 0.0
C926 C 0.98725 0.5868 0.52502 0.0
C927 C 0.97133 0.59592 0.52802 0.0
C928 C 0.95251 0.58906 0.51951 0.0
H929 H 0.96602 0.67839 0.61073 0.0
H930 H 0.96318 0.64941 0.59326 0.0
C931 C 0.94955 0.57316 0.50851 0.0
C932 C 0.97427 0.61297 0.53954 0.0
H933 H 0.99027 0.6284 0.58317 0.0
C934 C 0.96882 0.63024 0.53129 0.0
C935 C 0.98179 0.61219 0.5586 0.0
C936 C 0.98683 0.59377 0.56861 0.0
C937 C 0.97082 0.64678 0.54146 0.0
C938 C 0.97899 0.64621 0.56031 0.0
C939 C 0.98424 0.62889 0.56866 0.0
C940 C 0.98187 0.6634 0.57161 0.0
C941 C 0.96371 0.66456 0.53202 0.0
C942 C 0.99377 0.68073 0.56556 0.0
C943 C 0.99529 0.69733 0.57541 0.0
C944 C 0.98519 0.69687 0.59171 0.0
C945 C 0.97398 0.67926 0.59822 0.0
C946 C 0.97235 0.66267 0.58826 0.0
H947 H 0.95295 0.66095 0.5198 0.0
H948 H 0.95661 0.67194 0.54199 0.0
H949 H 0.97654 0.67484 0.5268 0.0
H950 H 1.00164 0.68153 0.55301 0.0
H951 H 0.00405 0.71059 0.56996 0.0
H952 H 0.74212 0.86322 0.27619 0.0
H953 H 0.7684 0.89149 0.27655 0.0
H954 H 0.77438 0.88767 0.21763 0.0
H955 H 0.7474 0.85995 0.2169 0.0
H956 H 0.80637 0.89401 0.26951 0.0
H957 H 0.77136 0.94434 0.21922 0.0
H958 H 0.75762 0.92211 0.22913 0.0
H959 H 0.77229 0.9218 0.20961 0.0
C960 C 0.74872 0.86861 0.26319 0.0
C961 C 0.7425 0.85937 0.24647 0.0
C962 C 0.76386 0.8847 0.26347 0.0
C963 C 0.77314 0.89192 0.24706 0.0
C964 C 0.76713 0.88265 0.23037 0.0
H965 H 0.88908 0.96203 0.24167 0.0
H966 H 0.86013 0.93647 0.24151 0.0
C967 C 0.75188 0.86661 0.23004 0.0
C968 C 0.78973 0.90856 0.24767 0.0
H969 H 0.80597 0.95361 0.22743 0.0
C970 C 0.80622 0.90709 0.26039 0.0
C971 C 0.78941 0.92575 0.23597 0.0
C972 C 0.77164 0.92872 0.22285 0.0
C973 C 0.82257 0.92212 0.26144 0.0
C974 C 0.82265 0.93891 0.24911 0.0
C975 C 0.80597 0.94062 0.23672 0.0
C976 C 0.84006 0.9547 0.2487 0.0
C977 C 0.83949 0.91993 0.27592 0.0
C978 C 0.83827 0.97365 0.25213 0.0
C979 C 0.85482 0.98843 0.25204 0.0
C980 C 0.87346 0.98451 0.24849 0.0
C981 C 0.87505 0.96557 0.24468 0.0
C982 C 0.85851 0.95087 0.24467 0.0
H983 H 0.83469 0.90929 0.28766 0.0
H984 H 0.85125 0.9146 0.26922 0.0
H985 H 0.84597 0.93398 0.2818 0.0
H986 H 0.82412 0.97695 0.25513 0.0
H987 H 0.85303 0.00286 0.25496 0.0
H988 H 0.77696 0.19136 0.29774 0.0
H989 H 0.79595 0.16548 0.29473 0.0
H990 H 0.75715 0.14667 0.24668 0.0
H991 H 0.73832 0.17274 0.24952 0.0
H992 H 0.7848 0.12495 0.29476 0.0
H993 H 0.81218 0.15663 0.2264 0.0
H994 H 0.8006 0.16996 0.2414 0.0
H995 H 0.78573 0.15234 0.22695 0.0
C996 C 0.77252 0.18167 0.28656 0.0
C997 C 0.75649 0.18424 0.27359 0.0
C998 C 0.78331 0.16688 0.28489 0.0
C999 C 0.77822 0.1544 0.27024 0.0
C1000 C 0.76162 0.15641 0.25781 0.0
H1001 H 0.83396 0.06504 0.23087 0.0
H1002 H 0.81093 0.0863 0.23662 0.0
C1003 C 0.75084 0.17121 0.25947 0.0
C1004 C 0.79057 0.13963 0.26773 0.0
H1005 H 0.82013 0.12609 0.23717 0.0
C1006 C 0.79254 0.12518 0.28218 0.0
C1007 C 0.8007 0.13999 0.25132 0.0
C1008 C 0.79989 0.15564 0.23568 0.0
C1009 C 0.80416 0.11093 0.28054 0.0
C1010 C 0.81432 0.11133 0.26415 0.0
C1011 C 0.81227 0.12574 0.24969 0.0
C1012 C 0.82747 0.09723 0.26173 0.0
C1013 C 0.80518 0.09537 0.29623 0.0
C1014 C 0.8444 0.09621 0.274 0.0
C1015 C 0.85761 0.08403 0.27077 0.0
C1016 C 0.85423 0.07274 0.25511 0.0
C1017 C 0.83704 0.07352 0.24307 0.0
C1018 C 0.82385 0.08569 0.24632 0.0
H1019 H 0.79255 0.09394 0.30519 0.0
H1020 H 0.80525 0.08115 0.29061 0.0
H1021 H 0.81906 0.09918 0.30526 0.0
H1022 H 0.84773 0.10527 0.28577 0.0
H1023 H 0.87074 0.08386 0.28028 0.0
H1024 H 0.42417 0.00527 0.01672 0.0
H1025 H 0.39343 0.98236 0.01983 0.0
H1026 H 0.38947 0.97411 0.96055 0.0
H1027 H 0.41956 0.99799 0.95704 0.0
H1028 H 0.35386 0.97641 0.97197 0.0
H1029 H 0.38894 0.92471 0.02059 0.0
H1030 H 0.39201 0.94831 0.02929 0.0
H1031 H 0.40321 0.94509 0.00825 0.0
C1032 C 0.41666 0.99884 0.00425 0.0
C1033 C 0.4245 0.00347 0.98662 0.0
C1034 C 0.39919 0.9855 0.00612 0.0
C1035 C 0.38936 0.97617 0.99051 0.0
C1036 C 0.39689 0.981 0.97284 0.0
H1037 H 0.30655 0.86902 0.99635 0.0
H1038 H 0.33436 0.89514 0.99151 0.0
C1039 C 0.41425 0.99451 0.9709 0.0
C1040 C 0.37132 0.96128 0.9926 0.0
H1041 H 0.3539 0.91838 0.01622 0.0
C1042 C 0.35386 0.96368 0.9816 0.0
C1043 C 0.37139 0.94455 0.005 0.0
C1044 C 0.38994 0.94037 0.01631 0.0
C1045 C 0.33648 0.94984 0.9827 0.0
C1046 C 0.33641 0.9334 0.99551 0.0
C1047 C 0.35388 0.93105 0.0065 0.0
C1048 C 0.31878 0.91792 0.99726 0.0
C1049 C 0.31857 0.95272 0.96972 0.0
C1050 C 0.3006 0.92199 0.00195 0.0
C1051 C 0.28447 0.90701 0.00447 0.0
C1052 C 0.2864 0.88768 0.00274 0.0
C1053 C 0.30458 0.88373 0.99792 0.0
C1054 C 0.32053 0.89866 0.99515 0.0
H1055 H 0.32267 0.96283 0.9574 0.0
H1056 H 0.31065 0.93876 0.96458 0.0
H1057 H 0.30824 0.95901 0.97746 0.0
H1058 H 0.299 0.93666 0.0041 0.0
H1059 H 0.27072 0.9105 0.00833 0.0
H1060 H 0.2525 0.3062 0.32326 0.0
H1061 H 0.22984 0.3297 0.31972 0.0
H1062 H 0.2756 0.37297 0.29681 0.0
H1063 H 0.29847 0.34969 0.30062 0.0
H1064 H 0.25501 0.38552 0.3255 0.0
H1065 H 0.20375 0.3501 0.26918 0.0
H1066 H 0.20885 0.33498 0.28989 0.0
H1067 H 0.22834 0.34464 0.27495 0.0
C1068 C 0.25778 0.32075 0.31756 0.0
C1069 C 0.2773 0.32606 0.31218 0.0
C1070 C 0.24475 0.3341 0.3154 0.0
C1071 C 0.25098 0.35301 0.30782 0.0
C1072 C 0.27048 0.35841 0.3026 0.0
H1073 H 0.19591 0.4463 0.25989 0.0
H1074 H 0.21084 0.41735 0.2671 0.0
C1075 C 0.28348 0.34506 0.30467 0.0
C1076 C 0.23731 0.3673 0.30547 0.0
H1077 H 0.19578 0.37826 0.28014 0.0
C1078 C 0.24195 0.38387 0.31571 0.0
C1079 C 0.22035 0.36512 0.29262 0.0
C1080 C 0.215 0.34784 0.28089 0.0
C1081 C 0.23028 0.39851 0.31323 0.0
C1082 C 0.2134 0.39641 0.30027 0.0
C1083 C 0.20858 0.3797 0.29023 0.0
C1084 C 0.20192 0.41237 0.29552 0.0
C1085 C 0.23655 0.41647 0.32391 0.0
C1086 C 0.19126 0.41879 0.3089 0.0
C1087 C 0.18256 0.43539 0.30479 0.0
C1088 C 0.18453 0.44588 0.28726 0.0
C1089 C 0.19425 0.43869 0.27359 0.0
C1090 C 0.20278 0.4221 0.27766 0.0
H1091 H 0.25165 0.41718 0.33103 0.0
H1092 H 0.23625 0.42967 0.31433 0.0
H1093 H 0.22604 0.41655 0.33477 0.0
H1094 H 0.1902 0.41131 0.3227 0.0
H1095 H 0.1752 0.44053 0.31563 0.0
H1096 H 0.10368 0.0344 0.48795 0.0
H1097 H 0.13402 0.05647 0.49667 0.0
H1098 H 0.12778 0.03819 0.5551 0.0
H1099 H 0.09675 0.01688 0.54661 0.0
H1100 H 0.13684 0.0762 0.55069 0.0
H1101 H 0.18837 0.045 0.51212 0.0
H1102 H 0.16814 0.05138 0.4968 0.0
H1103 H 0.16345 0.03278 0.51549 0.0
C1104 C 0.10862 0.03515 0.50268 0.0
C1105 C 0.09769 0.02381 0.51656 0.0
C1106 C 0.12621 0.04756 0.50762 0.0
C1107 C 0.13347 0.04868 0.52651 0.0
C1108 C 0.1226 0.03742 0.54041 0.0
H1109 H 0.25109 0.11616 0.55622 0.0
H1110 H 0.22331 0.08922 0.55268 0.0
C1111 C 0.10491 0.02513 0.5355 0.0
C1112 C 0.15177 0.06241 0.53181 0.0
H1113 H 0.19995 0.07728 0.52181 0.0
C1114 C 0.1507 0.07626 0.54454 0.0
C1115 C 0.17001 0.0623 0.52412 0.0
C1116 C 0.17264 0.04692 0.51154 0.0
C1117 C 0.16706 0.0905 0.54913 0.0
C1118 C 0.18485 0.09126 0.54036 0.0
C1119 C 0.18623 0.07688 0.52831 0.0
C1120 C 0.20175 0.10743 0.54274 0.0
C1121 C 0.16508 0.10459 0.56334 0.0
C1122 C 0.19893 0.12654 0.53802 0.0
C1123 C 0.21465 0.1419 0.54013 0.0
C1124 C 0.23369 0.13851 0.54677 0.0
C1125 C 0.23662 0.1193 0.55114 0.0
C1126 C 0.22077 0.10389 0.54912 0.0
H1127 H 0.15361 0.09829 0.57312 0.0
H1128 H 0.17932 0.109 0.57169 0.0
H1129 H 0.16047 0.11772 0.55589 0.0
H1130 H 0.18455 0.12961 0.53253 0.0
H1131 H 0.21184 0.15645 0.53638 0.0
H1132 H 0.76276 0.20679 0.74516 0.0
H1133 H 0.73963 0.17606 0.74744 0.0
H1134 H 0.78867 0.14503 0.7567 0.0
H1135 H 0.81197 0.17569 0.75433 0.0
H1136 H 0.75222 0.13135 0.72743 0.0
H1137 H 0.73593 0.14112 0.80053 0.0
H1138 H 0.73641 0.16139 0.78337 0.0
H1139 H 0.75889 0.15256 0.79098 0.0
C1140 C 0.76863 0.19341 0.74743 0.0
C1141 C 0.78919 0.19365 0.74961 0.0
C1142 C 0.7554 0.17592 0.7488 0.0
C1143 C 0.76251 0.15838 0.75227 0.0
C1144 C 0.78297 0.15847 0.75402 0.0
H1145 H 0.7132 0.0371 0.76725 0.0
H1146 H 0.73268 0.0684 0.75803 0.0
C1147 C 0.79622 0.17597 0.75279 0.0
C1148 C 0.74857 0.13998 0.75484 0.0
H1149 H 0.71941 0.11299 0.78678 0.0
C1150 C 0.74497 0.12729 0.74035 0.0
C1151 C 0.7391 0.13491 0.77166 0.0
C1152 C 0.74274 0.14809 0.78764 0.0
C1153 C 0.73201 0.10952 0.74228 0.0
C1154 C 0.72288 0.10419 0.75933 0.0
C1155 C 0.72636 0.11708 0.7737 0.0
C1156 C 0.71025 0.08505 0.763 0.0
C1157 C 0.72802 0.09682 0.72593 0.0
C1158 C 0.69119 0.08393 0.76902 0.0
C1159 C 0.68011 0.06605 0.77458 0.0
C1160 C 0.68789 0.04893 0.77418 0.0
C1161 C 0.7067 0.05 0.76754 0.0
C1162 C 0.71783 0.06791 0.76215 0.0
H1163 H 0.73069 0.10542 0.7124 0.0
H1164 H 0.7382 0.0861 0.72768 0.0
H1165 H 0.71256 0.08886 0.72513 0.0
H1166 H 0.68506 0.09697 0.76986 0.0
H1167 H 0.66567 0.0657 0.77963 0.0
H1168 H 0.46679 0.04309 0.59207 0.0
H1169 H 0.44324 0.06564 0.58763 0.0
H1170 H 0.39927 0.02168 0.56259 0.0
H1171 H 0.42254 0.99882 0.56748 0.0
H1172 H 0.42478 0.07831 0.5535 0.0
H1173 H 0.3692 0.04113 0.60206 0.0
H1174 H 0.39383 0.03543 0.60273 0.0
H1175 H 0.37531 0.02638 0.58487 0.0
C1176 C 0.452 0.03809 0.58591 0.0
C1177 C 0.44654 0.01909 0.58022 0.0
C1178 C 0.4386 0.05105 0.58326 0.0
C1179 C 0.41942 0.04529 0.57498 0.0
C1180 C 0.41388 0.02635 0.56929 0.0
H1181 H 0.32168 0.11096 0.5498 0.0
H1182 H 0.34224 0.08558 0.55156 0.0
C1183 C 0.42729 0.01336 0.57192 0.0
C1184 C 0.40553 0.05937 0.57174 0.0
H1185 H 0.3614 0.06875 0.58386 0.0
C1186 C 0.41092 0.07621 0.56013 0.0
C1187 C 0.38736 0.05653 0.58027 0.0
C1188 C 0.38108 0.03898 0.59331 0.0
C1189 C 0.3987 0.09035 0.55689 0.0
C1190 C 0.38077 0.08775 0.56577 0.0
C1191 C 0.37514 0.07071 0.57705 0.0
C1192 C 0.36827 0.10306 0.56439 0.0
C1193 C 0.40507 0.10791 0.54389 0.0
C1194 C 0.37599 0.1212 0.57122 0.0
C1195 C 0.36434 0.13565 0.57024 0.0
C1196 C 0.34462 0.13229 0.5625 0.0
C1197 C 0.33683 0.11405 0.55576 0.0
C1198 C 0.34854 0.09953 0.55679 0.0
H1199 H 0.41575 0.1051 0.53412 0.0
H1200 H 0.39215 0.11254 0.53551 0.0
H1201 H 0.41248 0.12002 0.55235 0.0
H1202 H 0.39103 0.12412 0.5775 0.0
H1203 H 0.37082 0.14946 0.57567 0.0
H1204 H 0.56766 0.5 0.48404 0.0
H1205 H 0.59507 0.48379 0.47808 0.0
H1206 H 0.59214 0.45421 0.53323 0.0
H1207 H 0.56447 0.47012 0.53902 0.0
H1208 H 0.63177 0.48423 0.49628 0.0
H1209 H 0.58912 0.40969 0.49986 0.0
H1210 H 0.57738 0.43083 0.4982 0.0
H1211 H 0.5879 0.42212 0.52049 0.0
C1212 C 0.57283 0.48994 0.49481 0.0
C1213 C 0.56378 0.48599 0.51186 0.0
C1214 C 0.58849 0.48073 0.49142 0.0
C1215 C 0.59538 0.46746 0.50504 0.0
C1216 C 0.58672 0.46398 0.52231 0.0
H1217 H 0.70532 0.4251 0.52083 0.0
H1218 H 0.67894 0.44432 0.51872 0.0
C1219 C 0.57103 0.47313 0.52567 0.0
C1220 C 0.61178 0.45743 0.50134 0.0
H1221 H 0.62432 0.41262 0.5012 0.0
C1222 C 0.63011 0.46857 0.49718 0.0
C1223 C 0.6095 0.437 0.50211 0.0
C1224 C 0.58986 0.4242 0.50521 0.0
C1225 C 0.64642 0.45983 0.49454 0.0
C1226 C 0.64446 0.43941 0.49646 0.0
C1227 C 0.62591 0.42828 0.49988 0.0
C1228 C 0.66159 0.42922 0.49605 0.0
C1229 C 0.66557 0.47258 0.48967 0.0
C1230 C 0.66069 0.41425 0.48402 0.0
C1231 C 0.67572 0.40303 0.48532 0.0
C1232 C 0.6919 0.40651 0.49878 0.0
C1233 C 0.69314 0.42203 0.51025 0.0
C1234 C 0.67809 0.43317 0.50899 0.0
H1235 H 0.6629 0.48663 0.48256 0.0
H1236 H 0.67506 0.47573 0.50278 0.0
H1237 H 0.67377 0.46544 0.48041 0.0
H1238 H 0.64807 0.41088 0.47397 0.0
H1239 H 0.67428 0.39118 0.47629 0.0
H1240 H 0.7382 0.25031 0.32008 0.0
H1241 H 0.74121 0.26858 0.34818 0.0
H1242 H 0.67786 0.25594 0.3509 0.0
H1243 H 0.67475 0.23729 0.32313 0.0
H1244 H 0.72298 0.30124 0.35505 0.0
H1245 H 0.7006 0.23631 0.40309 0.0
H1246 H 0.70818 0.23465 0.37988 0.0
H1247 H 0.68385 0.23936 0.38277 0.0
C1248 C 0.72492 0.25131 0.32673 0.0
C1249 C 0.70624 0.24225 0.31942 0.0
C1250 C 0.72665 0.26189 0.34268 0.0
C1251 C 0.70977 0.26346 0.35168 0.0
C1252 C 0.69109 0.25474 0.34425 0.0
H1253 H 0.70534 0.33702 0.44435 0.0
H1254 H 0.69963 0.32281 0.41374 0.0
C1255 C 0.68933 0.24421 0.3283 0.0
C1256 C 0.71178 0.27379 0.36915 0.0
H1257 H 0.70606 0.26663 0.41619 0.0
C1258 C 0.71921 0.29373 0.36843 0.0
C1259 C 0.70697 0.26389 0.38656 0.0
C1260 C 0.6996 0.24234 0.38827 0.0
C1261 C 0.72202 0.30404 0.38473 0.0
C1262 C 0.71716 0.29412 0.40212 0.0
C1263 C 0.70962 0.27421 0.40279 0.0
C1264 C 0.72111 0.3037 0.42007 0.0
C1265 C 0.7307 0.3253 0.38338 0.0
C1266 C 0.735 0.29763 0.43371 0.0
C1267 C 0.73826 0.30563 0.45111 0.0
C1268 C 0.7276 0.31985 0.45537 0.0
C1269 C 0.71384 0.32615 0.44155 0.0
C1270 C 0.71061 0.3181 0.42403 0.0
H1271 H 0.73667 0.33007 0.36954 0.0
H1272 H 0.71903 0.33383 0.38537 0.0
H1273 H 0.74275 0.32862 0.39461 0.0
H1274 H 0.74325 0.28653 0.43093 0.0
H1275 H 0.74902 0.30041 0.46132 0.0
H1276 H 0.47994 0.02824 0.9026 0.0
H1277 H 0.50189 0.0182 0.88159 0.0
H1278 H 0.54495 0.0123 0.92826 0.0
H1279 H 0.52312 0.02259 0.94936 0.0
H1280 H 0.54426 0.0394 0.87902 0.0
H1281 H 0.53673 0.96026 0.89842 0.0
H1282 H 0.51741 0.97379 0.90165 0.0
H1283 H 0.53965 0.97664 0.91692 0.0
C1284 C 0.49392 0.02444 0.90844 0.0
C1285 C 0.49959 0.02571 0.9277 0.0
C1286 C 0.50644 0.01875 0.89644 0.0
C1287 C 0.52487 0.01423 0.90345 0.0
C1288 C 0.5306 0.01538 0.92267 0.0
H1289 H 0.62112 0.98377 0.8467 0.0
H1290 H 0.59804 0.98718 0.86988 0.0
C1291 C 0.51813 0.02122 0.93469 0.0
C1292 C 0.53866 0.00984 0.89031 0.0
H1293 H 0.55872 0.97324 0.87531 0.0
C1294 C 0.54744 0.02494 0.87818 0.0
C1295 C 0.54291 0.99102 0.88946 0.0
C1296 C 0.53368 0.97438 0.90221 0.0
C1297 C 0.5604 0.02177 0.86516 0.0
C1298 C 0.5642 0.00279 0.86383 0.0
C1299 C 0.55566 0.98772 0.87622 0.0
C1300 C 0.577 0.9985 0.8496 0.0
C1301 C 0.5702 0.03889 0.85325 0.0
C1302 C 0.57243 0.00291 0.83042 0.0
C1303 C 0.58564 0.00114 0.8172 0.0
C1304 C 0.60355 0.9946 0.82284 0.0
C1305 C 0.60746 0.98887 0.8419 0.0
C1306 C 0.5943 0.99085 0.85517 0.0
H1307 H 0.57042 0.05273 0.85974 0.0
H1308 H 0.58565 0.03757 0.85101 0.0
H1309 H 0.56177 0.03962 0.83934 0.0
H1310 H 0.55889 0.00829 0.82572 0.0
H1311 H 0.58207 0.00544 0.8026 0.0
H1312 H 0.27367 0.26809 0.35333 0.0
H1313 H 0.27484 0.24812 0.38278 0.0
H1314 H 0.33803 0.25271 0.38151 0.0
H1315 H 0.33717 0.2736 0.35253 0.0
H1316 H 0.28682 0.21339 0.39167 0.0
H1317 H 0.33384 0.27023 0.43306 0.0
H1318 H 0.32265 0.27553 0.40993 0.0
H1319 H 0.34449 0.26452 0.41268 0.0
C1320 C 0.28788 0.2651 0.35941 0.0
C1321 C 0.30536 0.27271 0.35063 0.0
C1322 C 0.2885 0.2535 0.37617 0.0
C1323 C 0.30656 0.24916 0.38453 0.0
C1324 C 0.32397 0.25619 0.37554 0.0
H1325 H 0.32248 0.18923 0.49682 0.0
H1326 H 0.32876 0.20044 0.4641 0.0
C1327 C 0.3234 0.26795 0.35882 0.0
C1328 C 0.30699 0.23754 0.4028 0.0
H1329 H 0.32391 0.23997 0.44901 0.0
C1330 C 0.29509 0.21914 0.40416 0.0
C1331 C 0.31785 0.245 0.41911 0.0
C1332 C 0.33031 0.26496 0.41875 0.0
C1333 C 0.29327 0.2083 0.42147 0.0
C1334 C 0.30354 0.21608 0.43782 0.0
C1335 C 0.31616 0.23403 0.43637 0.0
C1336 C 0.29941 0.20711 0.45681 0.0
C1337 C 0.27999 0.1888 0.42223 0.0
C1338 C 0.28084 0.20706 0.46342 0.0
C1339 C 0.27731 0.20093 0.48201 0.0
C1340 C 0.29226 0.19461 0.49439 0.0
C1341 C 0.31065 0.1939 0.48757 0.0
C1342 C 0.31427 0.20034 0.46893 0.0
H1343 H 0.27749 0.18263 0.40827 0.0
H1344 H 0.28637 0.17845 0.43252 0.0
H1345 H 0.2654 0.19042 0.42677 0.0
H1346 H 0.26927 0.21248 0.45437 0.0
H1347 H 0.26297 0.20159 0.48681 0.0
H1348 H 0.52173 0.55041 0.95357 0.0
H1349 H 0.50513 0.55445 0.9221 0.0
H1350 H 0.47365 0.49581 0.92811 0.0
H1351 H 0.48998 0.49191 0.95973 0.0
H1352 H 0.50697 0.53452 0.89179 0.0
H1353 H 0.42909 0.5253 0.90983 0.0
H1354 H 0.44979 0.52949 0.92719 0.0
H1355 H 0.44121 0.50564 0.91926 0.0
C1356 C 0.51105 0.53851 0.94823 0.0
C1357 C 0.50679 0.52098 0.95913 0.0
C1358 C 0.50161 0.54081 0.93028 0.0
C1359 C 0.48781 0.52558 0.9229 0.0
C1360 C 0.48378 0.50794 0.93371 0.0
H1361 H 0.45447 0.50512 0.80722 0.0
H1362 H 0.46694 0.50502 0.84011 0.0
C1363 C 0.49318 0.50567 0.95168 0.0
C1364 C 0.47859 0.52773 0.90348 0.0
H1365 H 0.43413 0.5234 0.87743 0.0
C1366 C 0.49104 0.53226 0.88868 0.0
C1367 C 0.45781 0.52505 0.89943 0.0
C1368 C 0.44369 0.5213 0.91478 0.0
C1369 C 0.4833 0.53353 0.86992 0.0
C1370 C 0.46254 0.52983 0.86581 0.0
C1371 C 0.45005 0.52599 0.88061 0.0
C1372 C 0.45367 0.52925 0.84619 0.0
C1373 C 0.49744 0.53884 0.85464 0.0
C1374 C 0.44136 0.54243 0.83887 0.0
C1375 C 0.43404 0.54249 0.81997 0.0
C1376 C 0.43889 0.5293 0.80813 0.0
C1377 C 0.4506 0.51565 0.81581 0.0
C1378 C 0.45783 0.5156 0.83462 0.0
H1379 H 0.51211 0.54644 0.86017 0.0
H1380 H 0.49974 0.52545 0.84862 0.0
H1381 H 0.49143 0.54825 0.84316 0.0
H1382 H 0.43784 0.55299 0.84764 0.0
H1383 H 0.42502 0.55315 0.81456 0.0
H1384 H 0.68882 0.76918 0.18117 0.0
H1385 H 0.70387 0.74811 0.16339 0.0
H1386 H 0.76015 0.76558 0.19413 0.0
H1387 H 0.74525 0.78721 0.21149 0.0
H1388 H 0.76432 0.76749 0.15785 0.0
H1389 H 0.71986 0.69627 0.17698 0.0
H1390 H 0.70442 0.71342 0.16782 0.0
H1391 H 0.7195 0.71745 0.18947 0.0
C1392 C 0.70431 0.76821 0.18437 0.0
C1393 C 0.71573 0.77938 0.19808 0.0
C1394 C 0.71288 0.75608 0.17429 0.0
C1395 C 0.73304 0.75482 0.17776 0.0
C1396 C 0.74451 0.76607 0.1914 0.0
H1397 H 0.78611 0.67245 0.12087 0.0
H1398 H 0.77416 0.68917 0.14517 0.0
C1399 C 0.73597 0.77834 0.20138 0.0
C1400 C 0.74245 0.74305 0.16606 0.0
H1401 H 0.73756 0.6983 0.14913 0.0
C1402 C 0.75861 0.7523 0.15616 0.0
C1403 C 0.73527 0.72312 0.16405 0.0
C1404 C 0.71895 0.71194 0.17531 0.0
C1405 C 0.76721 0.74243 0.14372 0.0
C1406 C 0.75911 0.7229 0.1407 0.0
C1407 C 0.74356 0.71337 0.15122 0.0
C1408 C 0.76604 0.71246 0.12608 0.0
C1409 C 0.78489 0.75308 0.13391 0.0
C1410 C 0.76507 0.71977 0.10727 0.0
C1411 C 0.77197 0.71036 0.09345 0.0
C1412 C 0.77971 0.69323 0.09806 0.0
C1413 C 0.78025 0.68563 0.11686 0.0
C1414 C 0.77341 0.69515 0.13075 0.0
H1415 H 0.79302 0.7652 0.14204 0.0
H1416 H 0.79531 0.74323 0.13173 0.0
H1417 H 0.77977 0.75932 0.12 0.0
H1418 H 0.75902 0.73285 0.10325 0.0
H1419 H 0.77142 0.71672 0.07918 0.0
H1420 H 0.02569 0.0148 0.08671 0.0
H1421 H 0.00834 0.01241 0.11544 0.0
H1422 H 0.95865 0.03225 0.08369 0.0
H1423 H 0.97562 0.03412 0.05489 0.0
H1424 H 0.9976 0.04393 0.1296 0.0
H1425 H 0.9313 0.98775 0.11712 0.0
H1426 H 0.95256 0.9906 0.10343 0.0
H1427 H 0.93456 0.00636 0.09841 0.0
C1428 C 0.01083 0.01811 0.08576 0.0
C1429 C 1.00206 0.02472 0.06853 0.0
C1430 C 1.00099 0.01685 0.10221 0.0
C1431 C 0.98213 0.022 0.1017 0.0
C1432 C 0.97302 0.02787 0.0844 0.0
H1433 H 0.90766 0.04832 0.18434 0.0
H1434 H 0.92184 0.04247 0.15555 0.0
C1435 C 0.98284 0.02914 0.06797 0.0
C1436 C 0.97288 0.02318 0.11942 0.0
H1437 H 0.93097 0.00769 0.1425 0.0
C1438 C 0.98313 0.03583 0.13252 0.0
C1439 C 0.9539 0.01277 0.1231 0.0
C1440 C 0.9425 0.99847 0.10986 0.0
C1441 C 0.97478 0.03868 0.14901 0.0
C1442 C 0.95578 0.02833 0.15268 0.0
C1443 C 0.94552 0.01561 0.13964 0.0
C1444 C 0.94643 0.03061 0.17004 0.0
C1445 C 0.98615 0.05316 0.16213 0.0
C1446 C 0.95531 0.02549 0.18768 0.0
C1447 C 0.94731 0.02886 0.2041 0.0
C1448 C 0.93015 0.03729 0.20322 0.0
C1449 C 0.92091 0.04185 0.1855 0.0
C1450 C 0.92896 0.03848 0.16905 0.0
H1451 H 0.99804 0.06325 0.15511 0.0
H1452 H 0.97614 0.06176 0.16764 0.0
H1453 H 0.99319 0.04532 0.17424 0.0
H1454 H 0.96863 0.01913 0.18875 0.0
H1455 H 0.95487 0.02523 0.21746 0.0
H1456 H 0.31818 0.80975 0.20855 0.0
H1457 H 0.30756 0.82312 0.17732 0.0
H1458 H 0.26117 0.77349 0.17162 0.0
H1459 H 0.27159 0.76028 0.20296 0.0
H1460 H 0.30518 0.80758 0.14276 0.0
H1461 H 0.23127 0.81886 0.16009 0.0
H1462 H 0.25042 0.81417 0.17788 0.0
H1463 H 0.2357 0.79458 0.16572 0.0
C1464 C 0.30561 0.80184 0.20065 0.0
C1465 C 0.29538 0.78423 0.20822 0.0
C1466 C 0.29961 0.80942 0.18284 0.0
C1467 C 0.28333 0.79948 0.17232 0.0
C1468 C 0.27344 0.78163 0.17969 0.0
H1469 H 0.25025 0.81342 0.0533 0.0
H1470 H 0.2634 0.80322 0.08462 0.0
C1471 C 0.27941 0.77407 0.19751 0.0
C1472 C 0.27693 0.80759 0.15349 0.0
H1473 H 0.2373 0.82199 0.12769 0.0
C1474 C 0.29038 0.81084 0.13947 0.0
C1475 C 0.25771 0.8121 0.14932 0.0
C1476 C 0.24299 0.80994 0.16408 0.0
C1477 C 0.28496 0.81803 0.12124 0.0
C1478 C 0.26547 0.82176 0.11687 0.0
C1479 C 0.25218 0.81895 0.13102 0.0
C1480 C 0.25843 0.82841 0.09769 0.0
C1481 C 0.3002 0.82177 0.10689 0.0
C1482 C 0.25097 0.84582 0.09469 0.0
C1483 C 0.24333 0.85164 0.07682 0.0
C1484 C 0.24294 0.84012 0.06162 0.0
C1485 C 0.25055 0.82275 0.06464 0.0
C1486 C 0.25815 0.81692 0.08253 0.0
H1487 H 0.31551 0.82348 0.11368 0.0
H1488 H 0.29809 0.8093 0.09797 0.0
H1489 H 0.29866 0.83498 0.09765 0.0
H1490 H 0.25096 0.85485 0.10622 0.0
H1491 H 0.23754 0.86508 0.07497 0.0
H1492 H 0.00319 0.46202 0.11942 0.0
H1493 H 0.02761 0.46342 0.14631 0.0
H1494 H 0.02589 0.52407 0.1492 0.0
H1495 H 1.00237 0.5231 0.12156 0.0
H1496 H 0.06271 0.51825 0.15191 0.0
H1497 H 0.02129 0.46465 0.20111 0.0
H1498 H 0.02346 0.45454 0.17939 0.0
H1499 H 0.00971 0.47406 0.17956 0.0
C1500 C 0.00805 0.47571 0.12567 0.0
C1501 C 1.00075 0.49246 0.1182 0.0
C1502 C 0.0218 0.4764 0.1413 0.0
C1503 C 0.02834 0.49376 0.15008 0.0
C1504 C 0.02095 0.51046 0.1428 0.0
H1505 H 0.10274 0.50087 0.25618 0.0
H1506 H 0.0749 0.50014 0.23225 0.0
C1507 C 0.00734 0.50983 0.12705 0.0
C1508 C 0.04381 0.49479 0.16605 0.0
H1509 H 0.05625 0.47318 0.2089 0.0
C1510 C 0.06118 0.5085 0.16444 0.0
C1511 C 0.04176 0.48231 0.18258 0.0
C1512 C 0.02295 0.46821 0.18587 0.0
C1513 C 0.07675 0.50971 0.17858 0.0
C1514 C 0.0752 0.49644 0.19458 0.0
C1515 C 0.05758 0.48314 0.19651 0.0
C1516 C 0.09183 0.49603 0.20929 0.0
C1517 C 0.09461 0.52536 0.17629 0.0
C1518 C 0.11046 0.49342 0.20448 0.0
C1519 C 0.1264 0.494 0.21804 0.0
C1520 C 0.12401 0.49688 0.23685 0.0
C1521 C 0.10512 0.49867 0.24183 0.0
C1522 C 0.08919 0.49827 0.22816 0.0
H1523 H 0.09091 0.53771 0.16676 0.0
H1524 H 0.10084 0.53091 0.19002 0.0
H1525 H 0.1062 0.51937 0.17001 0.0
H1526 H 0.11273 0.49107 0.19014 0.0
H1527 H 0.14065 0.4923 0.21373 0.0
H1528 H 0.33153 0.72587 0.30449 0.0
H1529 H 0.3588 0.73087 0.32885 0.0
H1530 H 0.39864 0.75659 0.287 0.0
H1531 H 0.37147 0.75149 0.26248 0.0
H1532 H 0.39493 0.71674 0.3317 0.0
H1533 H 0.40697 0.79716 0.32644 0.0
H1534 H 0.38486 0.78266 0.31633 0.0
H1535 H 0.40744 0.78624 0.30473 0.0
C1536 C 0.34612 0.73246 0.30042 0.0
C1537 C 0.34931 0.73831 0.28153 0.0
C1538 C 0.36165 0.7354 0.31438 0.0
C1539 C 0.38066 0.74434 0.30976 0.0
C1540 C 0.38398 0.75004 0.29092 0.0
H1541 H 0.49159 0.77399 0.37817 0.0
H1542 H 0.46605 0.76894 0.35218 0.0
C1543 C 0.36844 0.74711 0.27693 0.0
C1544 C 0.39704 0.74734 0.32468 0.0
H1545 H 0.42971 0.78226 0.34682 0.0
C1546 C 0.40253 0.73106 0.33504 0.0
C1547 C 0.40696 0.76604 0.32892 0.0
C1548 C 0.4012 0.78406 0.31866 0.0
C1549 C 0.41778 0.73296 0.34948 0.0
C1550 C 0.42753 0.75166 0.35389 0.0
C1551 C 0.4222 0.76794 0.34339 0.0
C1552 C 0.44299 0.75465 0.36965 0.0
C1553 C 0.42351 0.71491 0.35971 0.0
C1554 C 0.4384 0.74855 0.38812 0.0
C1555 C 0.45292 0.75138 0.40301 0.0
C1556 C 0.47235 0.76051 0.39974 0.0
C1557 C 0.47682 0.76685 0.38121 0.0
C1558 C 0.46225 0.764 0.36633 0.0
H1559 H 0.41859 0.70202 0.35141 0.0
H1560 H 0.43979 0.71662 0.36293 0.0
H1561 H 0.41634 0.71211 0.37317 0.0
H1562 H 0.42351 0.74167 0.39104 0.0
H1563 H 0.44888 0.74641 0.41707 0.0
H1564 H 0.02215 0.45783 0.04313 0.0
H1565 H 0.0267 0.43015 0.02629 0.0
H1566 H 0.9674 0.42681 1.00004 0.0
H1567 H 0.96302 0.45476 0.01659 0.0
H1568 H 0.00641 0.39358 0.02811 0.0
H1569 H 0.99905 0.42568 0.95509 0.0
H1570 H 1.00256 0.44007 0.97522 0.0
H1571 H 0.97842 0.42707 0.96826 0.0
C1572 C 0.01021 0.4513 0.03358 0.0
C1573 C 0.99237 0.4586 0.03082 0.0
C1574 C 0.01279 0.43549 0.02401 0.0
C1575 C 0.99755 0.42666 0.01158 0.0
C1576 C 0.97957 0.43372 0.00912 0.0
H1577 H 0.98255 0.3104 0.97625 0.0
H1578 H 0.9801 0.34053 0.98966 0.0
C1579 C 0.97702 0.44958 0.01864 0.0
C1580 C 1.00015 0.40948 0.00192 0.0
H1581 H 0.99793 0.39145 0.95877 0.0
C1582 C 0.00468 0.39317 0.01294 0.0
C1583 C 0.99818 0.40904 0.98211 0.0
C1584 C 0.99448 0.42647 0.96946 0.0
C1585 C 0.00679 0.37628 0.00475 0.0
C1586 C 0.00388 0.37552 0.985 0.0
C1587 C 0.99991 0.39199 0.97392 0.0
C1588 C 0.00464 0.3576 0.97571 0.0
C1589 C 0.01228 0.35947 0.01734 0.0
C1590 C 0.01871 0.35735 0.96273 0.0
C1591 C 0.02008 0.3401 0.95485 0.0
C1592 C 0.00735 0.3228 0.9598 0.0
C1593 C 0.99278 0.32335 0.97226 0.0
C1594 C 0.99139 0.34056 0.98004 0.0
H1595 H 0.01939 0.36418 0.03112 0.0
H1596 H 0.99868 0.34886 0.02004 0.0
H1597 H 0.02253 0.35202 0.01066 0.0
H1598 H 0.02898 0.37039 0.95908 0.0
H1599 H 0.03143 0.34024 0.94527 0.0
H1600 H 0.67966 0.79455 0.28095 0.0
H1601 H 0.65402 0.79372 0.30264 0.0
H1602 H 0.64703 0.85182 0.28261 0.0
H1603 H 0.67283 0.85279 0.26095 0.0
H1604 H 0.65098 0.84804 0.32022 0.0
H1605 H 0.59459 0.7879 0.29466 0.0
H1606 H 0.61842 0.78081 0.29924 0.0
H1607 H 0.61484 0.7994 0.28105 0.0
C1608 C 0.67237 0.807 0.28089 0.0
C1609 C 0.67825 0.82372 0.26923 0.0
C1610 C 0.65767 0.8065 0.29326 0.0
C1611 C 0.64835 0.8226 0.29406 0.0
C1612 C 0.65395 0.8392 0.28219 0.0
H1613 H 0.55167 0.80983 0.36911 0.0
H1614 H 0.5701 0.81835 0.34098 0.0
C1615 C 0.66874 0.83976 0.26987 0.0
C1616 C 0.63394 0.82258 0.3083 0.0
H1617 H 0.59267 0.79591 0.32647 0.0
C1618 C 0.63805 0.83681 0.3214 0.0
C1619 C 0.61685 0.80818 0.30967 0.0
C1620 C 0.61079 0.79334 0.29527 0.0
C1621 C 0.62617 0.83639 0.33642 0.0
C1622 C 0.60999 0.8211 0.33862 0.0
C1623 C 0.60521 0.80751 0.32492 0.0
C1624 C 0.59888 0.81799 0.35575 0.0
C1625 C 0.63122 0.85222 0.34991 0.0
C1626 C 0.60893 0.8151 0.37338 0.0
C1627 C 0.5985 0.81031 0.38942 0.0
C1628 C 0.57773 0.80811 0.38817 0.0
C1629 C 0.56767 0.81149 0.37057 0.0
C1630 C 0.57817 0.8163 0.35448 0.0
H1631 H 0.63904 0.86579 0.34299 0.0
H1632 H 0.61775 0.85532 0.35568 0.0
H1633 H 0.64125 0.84761 0.36175 0.0
H1634 H 0.62485 0.81586 0.37468 0.0
H1635 H 0.60673 0.80774 0.40272 0.0
H1636 H 0.02573 0.05935 0.98725 0.0
H1637 H 0.02516 0.09074 0.96969 0.0
H1638 H 0.02394 0.11748 0.02145 0.0
H1639 H 0.02512 0.08648 0.03916 0.0
H1640 H 0.99291 0.12377 0.9881 0.0
H1641 H 0.07241 0.14031 0.97283 0.0
H1642 H 0.0587 0.11636 0.96949 0.0
H1643 H 0.06411 0.12444 0.99275 0.0
C1644 C 0.0256 0.07196 0.99492 0.0
C1645 C 0.02536 0.07036 0.01462 0.0
C1646 C 0.02516 0.08982 0.98486 0.0
C1647 C 0.02447 0.10632 0.99433 0.0
C1648 C 0.02435 0.10483 0.01393 0.0
H1649 H 0.0151 0.22628 0.97256 0.0
H1650 H 0.01251 0.1924 0.98428 0.0
C1651 C 0.02491 0.08707 0.02399 0.0
C1652 C 0.02373 0.12523 0.98392 0.0
H1653 H 0.05277 0.16384 0.96269 0.0
C1654 C 0.00593 0.13252 0.9824 0.0
C1655 C 0.04071 0.13644 0.97643 0.0
C1656 C 0.06016 0.12915 0.97793 0.0
C1657 C 0.00471 0.15095 0.97371 0.0
C1658 C 0.02192 0.16255 0.96687 0.0
C1659 C 0.0396 0.15498 0.96798 0.0
C1660 C 0.02221 0.18285 0.95923 0.0
C1661 C 0.98497 0.15772 0.97185 0.0
C1662 C 0.02884 0.18886 0.94137 0.0
C1663 C 0.03058 0.20829 0.93474 0.0
C1664 C 0.02572 0.22208 0.94584 0.0
C1665 C 0.01875 0.21598 0.96358 0.0
C1666 C 0.01716 0.19657 0.97026 0.0
H1667 H 0.9725 0.14529 0.97193 0.0
H1668 H 0.98392 0.16625 0.98396 0.0
H1669 H 0.98319 0.167 0.95872 0.0
H1670 H 0.03292 0.17854 0.93266 0.0
H1671 H 0.03601 0.21253 0.92101 0.0
H1672 H 0.33964 0.25237 0.27088 0.0
H1673 H 0.3655 0.24969 0.25038 0.0
H1674 H 0.36813 0.3097 0.23085 0.0
H1675 H 0.34186 0.31226 0.25113 0.0
H1676 H 0.36491 0.28684 0.20212 0.0
H1677 H 0.42457 0.26853 0.25375 0.0
H1678 H 0.40154 0.25255 0.25684 0.0
H1679 H 0.40359 0.27787 0.26045 0.0
C1680 C 0.34591 0.26503 0.26236 0.0
C1681 C 0.33873 0.28251 0.26247 0.0
C1682 C 0.36081 0.26355 0.25077 0.0
C1683 C 0.369 0.27958 0.23926 0.0
C1684 C 0.36212 0.29718 0.23968 0.0
H1685 H 0.46643 0.27435 0.16876 0.0
H1686 H 0.44705 0.28371 0.19261 0.0
C1687 C 0.34716 0.29864 0.25124 0.0
C1688 C 0.38347 0.27747 0.22566 0.0
H1689 H 0.42688 0.26133 0.22181 0.0
C1690 C 0.37859 0.28151 0.20647 0.0
C1691 C 0.40147 0.27077 0.2313 0.0
C1692 C 0.40822 0.26738 0.25173 0.0
C1693 C 0.39072 0.27822 0.19275 0.0
C1694 C 0.40804 0.27032 0.19832 0.0
C1695 C 0.41345 0.26713 0.21754 0.0
C1696 C 0.42011 0.26441 0.18434 0.0
C1697 C 0.3848 0.28313 0.17237 0.0
C1698 C 0.41152 0.25016 0.17211 0.0
C1699 C 0.42249 0.24482 0.15853 0.0
C1700 C 0.44237 0.25351 0.15695 0.0
C1701 C 0.45114 0.26743 0.16956 0.0
C1702 C 0.4401 0.27279 0.18319 0.0
H1703 H 0.37492 0.29415 0.17083 0.0
H1704 H 0.39798 0.28865 0.16438 0.0
H1705 H 0.37661 0.26989 0.16602 0.0
H1706 H 0.39626 0.24317 0.17302 0.0
H1707 H 0.41528 0.23393 0.14918 0.0
H1708 H 0.51557 0.46385 0.02933 0.0
H1709 H 0.50682 0.43199 0.04581 0.0
H1710 H 0.56786 0.42443 0.04902 0.0
H1711 H 0.57672 0.45607 0.03233 0.0
H1712 H 0.51225 0.39704 0.03311 0.0
H1713 H 0.55221 0.409 0.10296 0.0
H1714 H 0.54712 0.42867 0.08644 0.0
H1715 H 0.56746 0.41649 0.08369 0.0
C1716 C 0.52715 0.45543 0.03357 0.0
C1717 C 0.54686 0.46253 0.02948 0.0
C1718 C 0.52214 0.43729 0.0431 0.0
C1719 C 0.53673 0.42598 0.04888 0.0
C1720 C 0.55644 0.43312 0.04509 0.0
H1721 H 0.53252 0.30448 0.06635 0.0
H1722 H 0.53774 0.33897 0.05702 0.0
C1723 C 0.56147 0.45123 0.03553 0.0
C1724 C 0.53116 0.40607 0.05751 0.0
H1725 H 0.54101 0.37597 0.09579 0.0
C1726 C 0.51834 0.3925 0.04692 0.0
C1727 C 0.53898 0.40021 0.07559 0.0
C1728 C 0.55206 0.41439 0.08793 0.0
C1729 C 0.51381 0.37304 0.05358 0.0
C1730 C 0.52242 0.36699 0.07122 0.0
C1731 C 0.53456 0.38068 0.0822 0.0
C1732 C 0.51991 0.34628 0.07783 0.0
C1733 C 0.5001 0.35898 0.04157 0.0
C1734 C 0.5085 0.33906 0.09296 0.0
C1735 C 0.50538 0.31921 0.09836 0.0
C1736 C 0.5138 0.30634 0.0888 0.0
C1737 C 0.52573 0.31387 0.07402 0.0
C1738 C 0.52871 0.3336 0.0686 0.0
H1739 H 0.49131 0.36653 0.03051 0.0
H1740 H 0.50899 0.35034 0.03457 0.0
H1741 H 0.48979 0.34881 0.05031 0.0
H1742 H 0.50166 0.3487 0.10029 0.0
H1743 H 0.49618 0.31394 0.10983 0.0
H1744 H 0.67641 0.25364 0.25494 0.0
H1745 H 0.64914 0.25631 0.23106 0.0
H1746 H 0.63242 0.19413 0.23434 0.0
H1747 H 0.66013 0.1914 0.25782 0.0
H1748 H 0.63116 0.2077 0.19915 0.0
H1749 H 0.59163 0.25142 0.2385 0.0
H1750 H 0.61663 0.26304 0.23555 0.0
H1751 H 0.61192 0.24027 0.24924 0.0
C1752 C 0.66683 0.24056 0.25061 0.0
C1753 C 0.67029 0.22232 0.25829 0.0
C1754 C 0.65117 0.2421 0.23706 0.0
C1755 C 0.63837 0.22545 0.23122 0.0
C1756 C 0.64199 0.2072 0.23871 0.0
H1757 H 0.52593 0.23083 0.16518 0.0
H1758 H 0.55142 0.22599 0.19038 0.0
C1759 C 0.65783 0.20564 0.25207 0.0
C1760 C 0.62164 0.22705 0.21685 0.0
H1761 H 0.58171 0.24968 0.20571 0.0
C1762 C 0.62026 0.21676 0.20067 0.0
C1763 C 0.60715 0.23856 0.21895 0.0
C1764 C 0.60676 0.24877 0.2366 0.0
C1765 C 0.60515 0.21806 0.18635 0.0
C1766 C 0.59138 0.23051 0.18793 0.0
C1767 C 0.59242 0.24037 0.20434 0.0
C1768 C 0.57591 0.23361 0.17267 0.0
C1769 C 0.60395 0.2058 0.16983 0.0
C1770 C 0.58119 0.2399 0.15442 0.0
C1771 C 0.56667 0.24242 0.13996 0.0
C1772 C 0.54653 0.23913 0.14352 0.0
C1773 C 0.54129 0.23347 0.16195 0.0
C1774 C 0.55585 0.23069 0.17637 0.0
H1775 H 0.61099 0.19282 0.1736 0.0
H1776 H 0.58836 0.20094 0.16449 0.0
H1777 H 0.61197 0.21441 0.15833 0.0
H1778 H 0.5966 0.24289 0.15131 0.0
H1779 H 0.57126 0.24707 0.126 0.0
H1780 H 0.4583 0.0487 0.0309 0.0
H1781 H 0.46337 0.07728 0.04914 0.0
H1782 H 0.48837 0.11245 0.00209 0.0
H1783 H 0.48261 0.08411 0.98347 0.0
H1784 H 0.49728 0.10278 0.05963 0.0
H1785 H 0.44478 0.14084 0.01391 0.0
H1786 H 0.44591 0.11561 0.01226 0.0
H1787 H 0.46391 0.13409 0.00167 0.0
C1788 C 0.46471 0.06255 0.02435 0.0
C1789 C 0.46983 0.06413 0.00562 0.0
C1790 C 0.46774 0.07884 0.03486 0.0
C1791 C 0.47592 0.09706 0.02688 0.0
C1792 C 0.48166 0.0986 0.00841 0.0
H1793 H 0.4993 0.21292 0.06593 0.0
H1794 H 0.49874 0.18397 0.04916 0.0
C1795 C 0.47857 0.08233 0.99786 0.0
C1796 C 0.47821 0.11444 0.03783 0.0
H1797 H 0.46392 0.15851 0.0379 0.0
C1798 C 0.48996 0.11496 0.05491 0.0
C1799 C 0.46858 0.13028 0.03169 0.0
C1800 C 0.45493 0.13018 0.01398 0.0
C1801 C 0.49259 0.13103 0.06586 0.0
C1802 C 0.48303 0.14688 0.05964 0.0
C1803 C 0.47131 0.14637 0.04257 0.0
C1804 C 0.48478 0.16413 0.07066 0.0
C1805 C 0.50582 0.13109 0.08381 0.0
C1806 C 0.47718 0.16257 0.08837 0.0
C1807 C 0.47749 0.17914 0.09804 0.0
C1808 C 0.48536 0.19755 0.09012 0.0
C1809 C 0.49328 0.19898 0.07252 0.0
C1810 C 0.49291 0.18244 0.06287 0.0
H1811 H 0.51569 0.12012 0.08432 0.0
H1812 H 0.51509 0.14556 0.08544 0.0
H1813 H 0.49653 0.12768 0.09593 0.0
H1814 H 0.47051 0.14861 0.09449 0.0
H1815 H 0.47118 0.17754 0.11152 0.0
H1816 H 0.24324 0.36525 0.77776 0.0
H1817 H 0.26938 0.39365 0.77787 0.0
H1818 H 0.27406 0.39035 0.71863 0.0
H1819 H 0.24719 0.36254 0.71817 0.0
H1820 H 0.30706 0.39651 0.77014 0.0
H1821 H 0.27107 0.44685 0.72076 0.0
H1822 H 0.25759 0.4245 0.7307 0.0
H1823 H 0.27188 0.42443 0.71085 0.0
C1824 C 0.24951 0.37078 0.76465 0.0
C1825 C 0.24296 0.36166 0.74792 0.0
C1826 C 0.26459 0.38694 0.76478 0.0
C1827 C 0.27347 0.39435 0.7482 0.0
C1828 C 0.26712 0.38519 0.73151 0.0
H1829 H 0.38921 0.46431 0.74097 0.0
H1830 H 0.3602 0.43882 0.74131 0.0
C1831 C 0.25194 0.3691 0.73133 0.0
C1832 C 0.29002 0.41104 0.74862 0.0
H1833 H 0.30587 0.45609 0.72818 0.0
C1834 C 0.30673 0.40959 0.76105 0.0
C1835 C 0.28947 0.42824 0.73699 0.0
C1836 C 0.27145 0.43123 0.72421 0.0
C1837 C 0.32309 0.42463 0.76184 0.0
C1838 C 0.32296 0.44141 0.74952 0.0
C1839 C 0.30604 0.44311 0.73745 0.0
C1840 C 0.34038 0.45717 0.74877 0.0
C1841 C 0.34027 0.42245 0.77603 0.0
C1842 C 0.33873 0.47617 0.75215 0.0
C1843 C 0.3553 0.49092 0.75175 0.0
C1844 C 0.37382 0.48691 0.74795 0.0
C1845 C 0.37526 0.46791 0.74418 0.0
C1846 C 0.3587 0.45326 0.74446 0.0
H1847 H 0.33566 0.4119 0.7879 0.0
H1848 H 0.35181 0.41701 0.76913 0.0
H1849 H 0.34694 0.43652 0.78177 0.0
H1850 H 0.32467 0.47953 0.75535 0.0
H1851 H 0.35363 0.50538 0.75466 0.0
H1852 H 0.24775 0.68383 0.74781 0.0
H1853 H 0.2671 0.65849 0.74386 0.0
H1854 H 0.29161 0.6624 0.80124 0.0
H1855 H 0.27211 0.68763 0.80523 0.0
H1856 H 0.3083 0.66279 0.74775 0.0
H1857 H 0.27463 0.60396 0.79745 0.0
H1858 H 0.2628 0.62439 0.78927 0.0
H1859 H 0.28265 0.62689 0.80745 0.0
C1860 C 0.25717 0.67914 0.75959 0.0
C1861 C 0.25869 0.6878 0.77674 0.0
C1862 C 0.26819 0.66469 0.75734 0.0
C1863 C 0.28071 0.65845 0.77229 0.0
C1864 C 0.28184 0.66676 0.7896 0.0
H1865 H 0.36933 0.58299 0.7807 0.0
H1866 H 0.34692 0.60479 0.78703 0.0
C1867 C 0.27082 0.68123 0.79184 0.0
C1868 C 0.29345 0.64413 0.76936 0.0
H1869 H 0.304 0.59946 0.78453 0.0
C1870 C 0.30728 0.6489 0.75572 0.0
C1871 C 0.2922 0.62607 0.77986 0.0
C1872 C 0.27716 0.61988 0.79422 0.0
C1873 C 0.32001 0.63621 0.75242 0.0
C1874 C 0.31869 0.6181 0.76283 0.0
C1875 C 0.30496 0.61334 0.77656 0.0
C1876 C 0.33136 0.6039 0.75944 0.0
C1877 C 0.33506 0.64243 0.73806 0.0
C1878 C 0.32968 0.59579 0.74201 0.0
C1879 C 0.34241 0.58332 0.73836 0.0
C1880 C 0.35707 0.57868 0.75209 0.0
C1881 C 0.35827 0.58632 0.76978 0.0
C1882 C 0.34547 0.59876 0.77344 0.0
H1883 H 0.33742 0.65833 0.73466 0.0
H1884 H 0.3495 0.63816 0.74313 0.0
H1885 H 0.32972 0.63523 0.72491 0.0
H1886 H 0.31867 0.5993 0.73112 0.0
H1887 H 0.34097 0.57764 0.72462 0.0
H1888 H 0.92173 0.50319 0.51737 0.0
H1889 H 0.89133 0.47972 0.52008 0.0
H1890 H 0.88892 0.47115 0.46095 0.0
H1891 H 0.91864 0.49559 0.45782 0.0
H1892 H 0.85297 0.47312 0.47138 0.0
H1893 H 0.88737 0.42214 0.52142 0.0
H1894 H 0.88992 0.44577 0.52993 0.0
H1895 H 0.90181 0.44257 0.50929 0.0
C1896 C 0.91464 0.49655 0.50485 0.0
C1897 C 0.92277 0.50131 0.48736 0.0
C1898 C 0.89737 0.48288 0.5065 0.0
C1899 C 0.88805 0.47334 0.49081 0.0
C1900 C 0.89594 0.4782 0.4733 0.0
H1901 H 0.8055 0.36582 0.49607 0.0
H1902 H 0.83347 0.39191 0.49174 0.0
C1903 C 0.91308 0.49205 0.47158 0.0
C1904 C 0.87007 0.45832 0.49262 0.0
H1905 H 0.85236 0.41557 0.51635 0.0
C1906 C 0.85283 0.46049 0.48116 0.0
C1907 C 0.86997 0.44171 0.50522 0.0
C1908 C 0.88831 0.43777 0.51702 0.0
C1909 C 0.8355 0.44656 0.482 0.0
C1910 C 0.83523 0.43028 0.49504 0.0
C1911 C 0.85249 0.42813 0.50647 0.0
C1912 C 0.8176 0.41477 0.4966 0.0
C1913 C 0.81788 0.44919 0.46854 0.0
C1914 C 0.79922 0.41889 0.50066 0.0
C1915 C 0.78302 0.40394 0.50288 0.0
C1916 C 0.78505 0.38458 0.50148 0.0
C1917 C 0.80344 0.38055 0.49736 0.0
C1918 C 0.81948 0.39547 0.49488 0.0
H1919 H 0.82226 0.45912 0.45617 0.0
H1920 H 0.81014 0.43513 0.46348 0.0
H1921 H 0.80728 0.4556 0.47583 0.0
H1922 H 0.7975 0.4336 0.50251 0.0
H1923 H 0.76909 0.40749 0.50621 0.0
H1924 H 0.75349 0.80173 0.8128 0.0
H1925 H 0.73094 0.82534 0.80758 0.0
H1926 H 0.78113 0.87175 0.80557 0.0
H1927 H 0.80357 0.84806 0.80969 0.0
H1928 H 0.72398 0.85297 0.82602 0.0
H1929 H 0.75114 0.88634 0.75865 0.0
H1930 H 0.75889 0.8647 0.76974 0.0
H1931 H 0.77086 0.88821 0.77682 0.0
C1932 C 0.75962 0.81699 0.81111 0.0
C1933 C 0.7802 0.82312 0.8114 0.0
C1934 C 0.74676 0.83048 0.80817 0.0
C1935 C 0.75425 0.85038 0.80571 0.0
C1936 C 0.7749 0.8565 0.80671 0.0
H1937 H 0.69093 0.94438 0.81852 0.0
H1938 H 0.70709 0.91592 0.82398 0.0
C1939 C 0.78773 0.84298 0.80921 0.0
C1940 C 0.74051 0.8647 0.8023 0.0
H1941 H 0.73139 0.90407 0.77399 0.0
C1942 C 0.72546 0.86402 0.81451 0.0
C1943 C 0.74205 0.87889 0.78704 0.0
C1944 C 0.75646 0.87945 0.77221 0.0
C1945 C 0.71229 0.87737 0.81217 0.0
C1946 C 0.71471 0.89237 0.79766 0.0
C1947 C 0.72951 0.89275 0.78524 0.0
C1948 C 0.70246 0.90806 0.79508 0.0
C1949 C 0.69572 0.87492 0.82507 0.0
C1950 C 0.69445 0.91336 0.77705 0.0
C1951 C 0.68582 0.93 0.77384 0.0
C1952 C 0.68453 0.94143 0.78868 0.0
C1953 C 0.69136 0.93555 0.80693 0.0
C1954 C 0.70055 0.9192 0.81005 0.0
H1955 H 0.69149 0.85953 0.83022 0.0
H1956 H 0.70078 0.88338 0.83753 0.0
H1957 H 0.68238 0.88 0.81797 0.0
H1958 H 0.69562 0.90506 0.76524 0.0
H1959 H 0.68079 0.93433 0.75962 0.0
H1960 H 0.59043 0.52372 0.04603 0.0
H1961 H 0.62109 0.54637 0.05314 0.0
H1962 H 0.63338 0.55079 0.99479 0.0
H1963 H 0.60259 0.52847 0.98757 0.0
H1964 H 0.65985 0.54539 0.04912 0.0
H1965 H 0.63626 0.60685 0.00473 0.0
H1966 H 0.61937 0.58486 0.01033 0.0
H1967 H 0.63585 0.58587 0.99198 0.0
C1968 C 0.59973 0.52948 0.03475 0.0
C1969 C 0.59402 0.5245 0.01621 0.0
C1970 C 0.61722 0.54242 0.03882 0.0
C1971 C 0.62935 0.55057 0.02444 0.0
C1972 C 0.624 0.5451 0.00603 0.0
H1973 H 0.74995 0.61561 0.04154 0.0
H1974 H 0.72144 0.58991 0.03586 0.0
C1975 C 0.60642 0.53233 0.00192 0.0
C1976 C 0.64743 0.56499 0.02868 0.0
H1977 H 0.66963 0.61132 0.01731 0.0
C1978 C 0.662 0.55983 0.04221 0.0
C1979 C 0.65009 0.58391 0.01983 0.0
C1980 C 0.63448 0.5908 0.00605 0.0
C1981 C 0.67921 0.57304 0.04704 0.0
C1982 C 0.6821 0.59178 0.0378 0.0
C1983 C 0.6675 0.59691 0.0243 0.0
C1984 C 0.69969 0.6067 0.04233 0.0
C1985 C 0.69383 0.56697 0.06236 0.0
C1986 C 0.69698 0.62475 0.04764 0.0
C1987 C 0.71315 0.6395 0.05057 0.0
C1988 C 0.73248 0.63655 0.04836 0.0
C1989 C 0.73528 0.6183 0.0435 0.0
C1990 C 0.71899 0.60356 0.04035 0.0
H1991 H 0.68697 0.55443 0.0714 0.0
H1992 H 0.70628 0.56262 0.05588 0.0
H1993 H 0.69996 0.57907 0.07135 0.0
H1994 H 0.68226 0.62752 0.04929 0.0
H1995 H 0.71045 0.65332 0.05442 0.0
H1996 H 0.26242 0.71135 0.24889 0.0
H1997 H 0.23816 0.68131 0.25101 0.0
H1998 H 0.28557 0.64825 0.2613 0.0
H1999 H 0.30994 0.67816 0.2591 0.0
H2000 H 0.24798 0.63694 0.23053 0.0
H2001 H 0.23388 0.64501 0.30469 0.0
H2002 H 0.2361 0.66585 0.28808 0.0
H2003 H 0.25743 0.65503 0.29552 0.0
C2004 C 0.26768 0.69766 0.2514 0.0
C2005 C 0.28808 0.6971 0.2539 0.0
C2006 C 0.25382 0.68057 0.25266 0.0
C2007 C 0.26016 0.66267 0.25632 0.0
C2008 C 0.28046 0.66198 0.25847 0.0
H2009 H 0.21056 0.54196 0.26845 0.0
H2010 H 0.22951 0.57365 0.25973 0.0
C2011 C 0.29433 0.67906 0.25734 0.0
C2012 C 0.24562 0.64466 0.25857 0.0
H2013 H 0.21735 0.61697 0.29078 0.0
C2014 C 0.24115 0.63256 0.24363 0.0
C2015 C 0.23669 0.6392 0.27562 0.0
C2016 C 0.24119 0.65184 0.292 0.0
C2017 C 0.22802 0.6149 0.2454 0.0
C2018 C 0.2196 0.60905 0.26273 0.0
C2019 C 0.22379 0.62144 0.2775 0.0
C2020 C 0.20722 0.58976 0.26627 0.0
C2021 C 0.22319 0.60279 0.22864 0.0
C2022 C 0.18845 0.58822 0.27307 0.0
C2023 C 0.17765 0.57008 0.27831 0.0
C2024 C 0.18546 0.55315 0.27685 0.0
C2025 C 0.20402 0.5547 0.26955 0.0
C2026 C 0.21485 0.57283 0.26445 0.0
H2027 H 0.22526 0.61185 0.21527 0.0
H2028 H 0.23333 0.59207 0.22944 0.0
H2029 H 0.20773 0.59485 0.22827 0.0
H2030 H 0.18232 0.60109 0.27469 0.0
H2031 H 0.16341 0.56937 0.2839 0.0
H2032 H 0.93334 0.50792 0.10861 0.0
H2033 H 0.90738 0.52797 0.10485 0.0
H2034 H 0.92178 0.54494 0.04782 0.0
H2035 H 0.94766 0.52488 0.05144 0.0
H2036 H 0.91076 0.56693 0.09686 0.0
H2037 H 0.86229 0.52837 0.04096 0.0
H2038 H 0.882 0.5182 0.05424 0.0
H2039 H 0.88741 0.53597 0.03504 0.0
C2040 C 0.93099 0.51593 0.09527 0.0
C2041 C 0.94252 0.51472 0.08029 0.0
C2042 C 0.91609 0.52732 0.09311 0.0
C2043 C 0.91237 0.53769 0.07594 0.0
C2044 C 0.92398 0.53665 0.06103 0.0
H2045 H 0.83755 0.62352 0.03948 0.0
H2046 H 0.86105 0.60085 0.04155 0.0
C2047 C 0.93881 0.52521 0.06314 0.0
C2048 C 0.89693 0.55023 0.07392 0.0
H2049 H 0.85484 0.55872 0.04784 0.0
C2050 C 0.89847 0.56504 0.08622 0.0
C2051 C 0.8809 0.54781 0.05998 0.0
C2052 C 0.87789 0.53162 0.04691 0.0
C2053 C 0.88464 0.57767 0.0848 0.0
C2054 C 0.86868 0.57529 0.07084 0.0
C2055 C 0.86712 0.56052 0.0585 0.0
C2056 C 0.85345 0.58799 0.06899 0.0
C2057 C 0.88742 0.59371 0.09802 0.0
C2058 C 0.841 0.58787 0.08348 0.0
C2059 C 0.82754 0.60073 0.08233 0.0
C2060 C 0.82623 0.61398 0.06664 0.0
C2061 C 0.83821 0.61356 0.05179 0.0
C2062 C 0.85165 0.60062 0.05295 0.0
H2063 H 0.90266 0.59631 0.10495 0.0
H2064 H 0.88434 0.60741 0.09046 0.0
H2065 H 0.8769 0.5897 0.10914 0.0
H2066 H 0.84192 0.57801 0.09584 0.0
H2067 H 0.81848 0.60055 0.09398 0.0
H2068 H 0.04119 0.95557 0.01461 0.0
H2069 H 0.06761 0.93813 0.00866 0.0
H2070 H 0.10706 0.99239 0.99976 0.0
H2071 H 0.08057 0.00994 0.00569 0.0
H2072 H 0.08943 0.94265 0.97489 0.0
H2073 H 0.13777 0.95989 0.03996 0.0
H2074 H 0.11187 0.96197 0.03774 0.0
H2075 H 0.12948 0.97983 0.02605 0.0
C2076 C 0.05555 0.96376 0.01155 0.0
C2077 C 0.05899 0.98408 0.01095 0.0
C2078 C 0.07059 0.9538 0.00809 0.0
C2079 C 0.08934 0.96397 0.004 0.0
C2080 C 0.09278 0.98428 0.0032 0.0
H2081 H 0.19591 0.91418 0.99303 0.0
H2082 H 0.17329 0.93763 0.99199 0.0
C2083 C 0.0777 0.99426 0.00658 0.0
C2084 C 0.10513 0.95319 1.00034 0.0
H2085 H 0.1488 0.94064 0.01918 0.0
C2086 C 0.10249 0.94229 0.98449 0.0
C2087 C 0.12222 0.95293 0.01279 0.0
C2088 C 0.12558 0.96416 0.03018 0.0
C2089 C 0.11635 0.93085 0.98092 0.0
C2090 C 0.13305 0.92992 0.9938 0.0
C2091 C 0.13601 0.94135 0.00931 0.0
C2092 C 0.14669 0.91601 0.99236 0.0
C2093 C 0.11294 0.91985 0.96339 0.0
C2094 C 0.13927 0.89609 0.99277 0.0
C2095 C 0.1521 0.88271 0.99329 0.0
C2096 C 0.1727 0.88892 0.99363 0.0
C2097 C 0.18012 0.90891 0.9927 0.0
C2098 C 0.16722 0.92233 0.99217 0.0
H2099 H 0.10393 0.92703 0.95223 0.0
H2100 H 0.12714 0.9185 0.95782 0.0
H2101 H 0.10468 0.90511 0.96672 0.0
H2102 H 0.12356 0.89081 0.99338 0.0
H2103 H 0.14585 0.86745 0.99407 0.0
loop_
_geom_bond_atom_site_label_1
_geom_bond_atom_site_label_2
_geom_bond_distance
_geom_bond_site_symmetry_2
_ccdc_geom_bond_type
H0 C7 0.929 . S
H1 C10 0.930 . S
H2 C12 0.929 . S
H3 C4 0.969 1_565 S
C4 H3 0.969 1_545 S
C4 O5 1.550 . S
C4 H6 0.976 . S
O5 C4 1.550 . S
O5 C11 1.412 . S
H6 C4 0.976 . S
C7 H0 0.929 . S
C7 C8 1.400 1_655 S
C7 C9 1.353 1_655 S
C8 C7 1.400 1_455 S
C8 C12 1.377 . S
C9 C7 1.353 1_455 S
C9 C10 1.412 . S
C10 H1 0.930 . S
C10 C9 1.412 . S
C10 C11 1.383 . S
C11 O5 1.412 . S
C11 C10 1.383 . S
C11 C12 1.394 . S
C12 H2 0.929 . S
C12 C8 1.377 . S
C12 C11 1.394 . S
H13 C20 0.929 . S
H14 C23 0.930 . S
H15 C25 0.929 . S
H16 C17 0.969 . S
C17 H16 0.969 . S
C17 O18 1.550 . S
C17 H19 0.973 . S
O18 C17 1.550 . S
O18 C24 1.412 . S
H19 C17 0.973 . S
C20 H13 0.929 . S
C20 C21 1.400 . S
C20 C22 1.364 . S
C21 C20 1.400 . S
C21 C25 1.377 . S
C22 C20 1.364 . S
C22 C23 1.374 . S
C23 H14 0.930 . S
C23 C22 1.374 . S
C23 C24 1.383 . S
C24 O18 1.412 . S
C24 C23 1.383 . S
C24 C25 1.394 . S
C25 H15 0.929 . S
C25 C21 1.377 . S
C25 C24 1.394 . S
H26 C33 0.929 . S
H27 C36 0.930 . S
H28 C38 0.929 1_455 S
H29 C30 0.969 . S
C30 H29 0.969 . S
C30 O31 1.550 . S
C30 H32 0.973 . S
O31 C30 1.550 . S
O31 C37 1.412 . S
H32 C30 0.973 . S
C33 H26 0.929 . S
C33 C34 1.400 . S
C33 C35 1.364 . S
C34 C33 1.400 . S
C34 C38 1.377 . S
C35 C33 1.364 . S
C35 C36 1.374 . S
C36 H27 0.930 . S
C36 C35 1.374 . S
C36 C37 1.383 . S
C37 O31 1.412 . S
C37 C36 1.383 . S
C37 C38 1.394 . S
C38 H28 0.929 1_655 S
C38 C34 1.377 . S
C38 C37 1.394 . S
H39 C46 0.929 . S
H40 C49 0.930 . S
H41 C51 0.929 . S
H42 C43 0.969 . S
C43 H42 0.969 . S
C43 O44 1.550 . S
C43 H45 0.973 . S
O44 C43 1.550 . S
O44 C50 1.412 . S
H45 C43 0.973 . S
C46 H39 0.929 . S
C46 C47 1.400 . S
C46 C48 1.364 . S
C47 C46 1.400 . S
C47 C51 1.377 . S
C48 C46 1.364 . S
C48 C49 1.374 . S
C49 H40 0.930 . S
C49 C48 1.374 . S
C49 C50 1.383 . S
C50 O44 1.412 . S
C50 C49 1.383 . S
C50 C51 1.394 . S
C51 H41 0.929 . S
C51 C47 1.377 . S
C51 C50 1.394 . S
H52 C59 0.929 . S
H53 C62 0.930 . S
H54 C64 0.958 . S
H55 C56 0.969 . S
C56 H55 0.969 . S
C56 O57 1.550 . S
C56 H58 0.973 . S
O57 C56 1.550 . S
O57 C63 1.412 . S
H58 C56 0.973 . S
C59 H52 0.929 . S
C59 C60 1.400 . S
C59 C61 1.364 . S
C60 C59 1.400 . S
C60 C64 1.366 1_565 S
C61 C59 1.364 . S
C61 C62 1.374 . S
C62 H53 0.930 . S
C62 C61 1.374 . S
C62 C63 1.383 . S
C63 O57 1.412 . S
C63 C62 1.383 . S
C63 C64 1.378 1_565 S
C64 H54 0.958 . S
C64 C60 1.366 1_545 S
C64 C63 1.378 1_545 S
H65 C72 0.929 . S
H66 C75 0.930 . S
H67 C77 0.929 . S
H68 C69 0.969 . S
C69 H68 0.969 . S
C69 O70 1.550 . S
C69 H71 0.973 . S
O70 C69 1.550 . S
O70 C76 1.412 . S
H71 C69 0.973 . S
C72 H65 0.929 . S
C72 C73 1.400 . S
C72 C74 1.364 . S
C73 C72 1.400 . S
C73 C77 1.377 . S
C74 C72 1.364 . S
C74 C75 1.374 . S
C75 H66 0.930 . S
C75 C74 1.374 . S
C75 C76 1.383 . S
C76 O70 1.412 . S
C76 C75 1.383 . S
C76 C77 1.394 . S
C77 H67 0.929 . S
C77 C73 1.377 . S
C77 C76 1.394 . S
H78 C85 0.929 . S
H79 C88 0.930 . S
H80 C90 0.929 . S
H81 C82 0.969 . S
C82 H81 0.969 . S
C82 O83 1.550 1_655 S
C82 H84 0.973 . S
O83 C82 1.550 1_455 S
O83 C89 1.411 1_455 S
H84 C82 0.973 . S
C85 H78 0.929 . S
C85 C86 1.400 . S
C85 C87 1.364 . S
C86 C85 1.400 . S
C86 C90 1.377 . S
C87 C85 1.364 . S
C87 C88 1.374 . S
C88 H79 0.930 . S
C88 C87 1.374 . S
C88 C89 1.383 . S
C89 O83 1.411 1_655 S
C89 C88 1.383 . S
C89 C90 1.394 . S
C90 H80 0.929 . S
C90 C86 1.377 . S
C90 C89 1.394 . S
H91 C98 0.929 . S
H92 C101 0.930 . S
H93 C103 0.929 . S
H94 C95 0.969 . S
C95 H94 0.969 . S
C95 O96 1.550 . S
C95 H97 0.973 . S
O96 C95 1.550 . S
O96 C102 1.412 . S
H97 C95 0.973 . S
C98 H91 0.929 . S
C98 C99 1.400 . S
C98 C100 1.364 . S
C99 C98 1.400 . S
C99 C103 1.377 . S
C100 C98 1.364 . S
C100 C101 1.374 . S
C101 H92 0.930 . S
C101 C100 1.374 . S
C101 C102 1.383 . S
C102 O96 1.412 . S
C102 C101 1.383 . S
C102 C103 1.394 . S
C103 H93 0.929 . S
C103 C99 1.377 . S
C103 C102 1.394 . S
H104 C111 0.929 . S
H105 C114 0.930 . S
H106 C116 0.929 . S
H107 C108 0.969 . S
C108 H107 0.969 . S
C108 O109 1.550 . S
C108 H110 0.973 . S
O109 C108 1.550 . S
O109 C115 1.412 . S
H110 C108 0.973 . S
C111 H104 0.929 . S
C111 C112 1.400 . S
C111 C113 1.364 . S
C112 C111 1.400 . S
C112 C116 1.377 . S
C113 C111 1.364 . S
C113 C114 1.374 . S
C114 H105 0.930 . S
C114 C113 1.374 . S
C114 C115 1.383 . S
C115 O109 1.412 . S
C115 C114 1.383 . S
C115 C116 1.394 . S
C116 H106 0.929 . S
C116 C112 1.377 . S
C116 C115 1.394 . S
H117 C124 0.929 . S
H118 C127 0.930 . S
H119 C129 0.929 . S
H120 C121 0.969 . S
C121 H120 0.969 . S
C121 O122 1.550 . S
C121 H123 0.973 . S
O122 C121 1.550 . S
O122 C128 1.412 . S
H123 C121 0.973 . S
C124 H117 0.929 . S
C124 C125 1.400 . S
C124 C126 1.364 . S
C125 C124 1.400 . S
C125 C129 1.377 . S
C126 C124 1.364 . S
C126 C127 1.374 . S
C127 H118 0.930 . S
C127 C126 1.374 . S
C127 C128 1.383 . S
C128 O122 1.412 . S
C128 C127 1.383 . S
C128 C129 1.394 . S
C129 H119 0.929 . S
C129 C125 1.377 . S
C129 C128 1.394 . S
H130 C137 0.929 . S
H131 C140 0.930 . S
H132 C142 0.929 . S
H133 C134 0.969 . S
C134 H133 0.969 . S
C134 O135 1.550 . S
C134 H136 0.973 . S
O135 C134 1.550 . S
O135 C141 1.412 . S
H136 C134 0.973 . S
C137 H130 0.929 . S
C137 C138 1.400 . S
C137 C139 1.364 . S
C138 C137 1.400 . S
C138 C142 1.377 . S
C139 C137 1.364 . S
C139 C140 1.374 . S
C140 H131 0.930 . S
C140 C139 1.374 . S
C140 C141 1.383 . S
C141 O135 1.412 . S
C141 C140 1.383 . S
C141 C142 1.394 . S
C142 H132 0.929 . S
C142 C138 1.377 . S
C142 C141 1.394 . S
H143 C150 0.929 . S
H144 C153 0.930 . S
H145 C155 0.929 . S
H146 C147 0.969 . S
C147 H146 0.969 . S
C147 O148 1.550 . S
C147 H149 0.973 . S
O148 C147 1.550 . S
O148 C154 1.412 . S
H149 C147 0.973 . S
C150 H143 0.929 . S
C150 C151 1.400 . S
C150 C152 1.364 . S
C151 C150 1.400 . S
C151 C155 1.377 . S
C152 C150 1.364 . S
C152 C153 1.374 . S
C153 H144 0.930 . S
C153 C152 1.374 . S
C153 C154 1.383 . S
C154 O148 1.412 . S
C154 C153 1.383 . S
C154 C155 1.394 . S
C155 H145 0.929 . S
C155 C151 1.377 . S
C155 C154 1.394 . S
H156 C163 0.929 . S
H157 C166 0.930 . S
H158 C168 0.929 . S
H159 C160 0.969 . S
C160 H159 0.969 . S
C160 O161 1.550 . S
C160 H162 0.973 . S
O161 C160 1.550 . S
O161 C167 1.412 . S
H162 C160 0.973 . S
C163 H156 0.929 . S
C163 C164 1.400 . S
C163 C165 1.364 . S
C164 C163 1.400 . S
C164 C168 1.377 . S
C165 C163 1.364 . S
C165 C166 1.374 . S
C166 H157 0.930 . S
C166 C165 1.374 . S
C166 C167 1.383 . S
C167 O161 1.412 . S
C167 C166 1.383 . S
C167 C168 1.394 . S
C168 H158 0.929 . S
C168 C164 1.377 . S
C168 C167 1.394 . S
H169 C176 0.929 1_554 S
H170 C179 0.930 . S
H171 C181 0.929 . S
H172 C173 0.969 . S
C173 H172 0.969 . S
C173 O174 1.550 . S
C173 H175 0.973 . S
O174 C173 1.550 . S
O174 C180 1.412 . S
H175 C173 0.973 . S
C176 H169 0.929 1_556 S
C176 C177 1.400 . S
C176 C178 1.364 . S
C177 C176 1.400 . S
C177 C181 1.377 . S
C178 C176 1.364 . S
C178 C179 1.374 . S
C179 H170 0.930 . S
C179 C178 1.374 . S
C179 C180 1.383 . S
C180 O174 1.412 . S
C180 C179 1.383 . S
C180 C181 1.394 . S
C181 H171 0.929 . S
C181 C177 1.377 . S
C181 C180 1.394 . S
H182 C189 0.929 . S
H183 C192 0.930 . S
H184 C194 0.929 . S
H185 C186 0.969 . S
C186 H185 0.969 . S
C186 O187 1.550 . S
C186 H188 0.973 . S
O187 C186 1.550 . S
O187 C193 1.412 . S
H188 C186 0.973 . S
C189 H182 0.929 . S
C189 C190 1.400 . S
C189 C191 1.364 . S
C190 C189 1.400 . S
C190 C194 1.377 . S
C191 C189 1.364 . S
C191 C192 1.374 . S
C192 H183 0.930 . S
C192 C191 1.374 . S
C192 C193 1.383 . S
C193 O187 1.412 . S
C193 C192 1.383 . S
C193 C194 1.394 . S
C194 H184 0.929 . S
C194 C190 1.377 . S
C194 C193 1.394 . S
H195 C202 0.929 . S
H196 C205 0.930 . S
H197 C207 0.929 . S
H198 C199 0.969 . S
C199 H198 0.969 . S
C199 O200 1.550 . S
C199 H201 0.973 . S
O200 C199 1.550 . S
O200 C206 1.412 . S
H201 C199 0.973 . S
C202 H195 0.929 . S
C202 C203 1.400 . S
C202 C204 1.364 . S
C203 C202 1.400 . S
C203 C207 1.377 . S
C204 C202 1.364 . S
C204 C205 1.374 1_554 S
C205 H196 0.930 . S
C205 C204 1.374 1_556 S
C205 C206 1.383 . S
C206 O200 1.412 . S
C206 C205 1.383 . S
C206 C207 1.394 1_556 S
C207 H197 0.929 . S
C207 C203 1.377 . S
C207 C206 1.394 1_554 S
Mg208 O209 2.028 . S
Mg208 O215 1.986 1_554 S
Mg208 O217 2.114 . S
Mg208 O218 2.251 . S
Mg208 O221 2.010 . S
O209 Mg208 2.028 . S
O209 C212 1.250 . S
O210 Mg211 2.026 . S
O210 C212 1.249 1_556 S
Mg211 O210 2.026 . S
Mg211 O216 2.052 . S
Mg211 O218 2.062 1_556 S
C212 O209 1.250 . S
C212 O210 1.249 1_554 S
C213 O214 1.264 . S
C213 O221 1.249 . S
O214 C213 1.264 . S
O215 Mg208 1.986 1_556 S
O215 C219 1.246 . S
O216 Mg211 2.052 . S
O216 C219 1.259 . S
O217 Mg208 2.114 . S
O217 C220 1.252 . S
O218 Mg208 2.251 . S
O218 Mg211 2.062 1_554 S
O218 C220 1.273 . S
C219 O215 1.246 . S
C219 O216 1.259 . S
C220 O217 1.252 . S
C220 O218 1.273 . S
O221 Mg208 2.010 . S
O221 C213 1.249 . S
Mg222 O223 2.028 . S
Mg222 O229 1.986 . S
Mg222 O231 2.114 . S
Mg222 O232 2.251 . S
Mg222 O235 2.010 . S
O223 Mg222 2.028 . S
O223 C226 1.250 . S
O224 Mg225 2.028 . S
O224 C226 1.248 . S
Mg225 O224 2.028 . S
Mg225 O230 2.032 . S
Mg225 O232 2.079 . S
C226 O223 1.250 . S
C226 O224 1.248 . S
C227 O228 1.264 . S
C227 O235 1.249 . S
O228 C227 1.264 . S
O229 Mg222 1.986 . S
O229 C233 1.246 . S
O230 Mg225 2.032 . S
O230 C233 1.259 . S
O231 Mg222 2.114 . S
O231 C234 1.252 . S
O232 Mg222 2.251 . S
O232 Mg225 2.079 . S
O232 C234 1.273 . S
C233 O229 1.246 . S
C233 O230 1.259 . S
C234 O231 1.252 . S
C234 O232 1.273 . S
O235 Mg222 2.010 . S
O235 C227 1.249 . S
Mg236 O237 2.028 . S
Mg236 O243 1.986 . S
Mg236 O245 2.114 . S
Mg236 O246 2.251 . S
Mg236 O249 2.010 . S
O237 Mg236 2.028 . S
O237 C240 1.250 . S
O238 Mg239 2.028 . S
O238 C240 1.248 . S
Mg239 O238 2.028 . S
Mg239 O244 2.032 . S
Mg239 O246 2.079 . S
C240 O237 1.250 . S
C240 O238 1.248 . S
C241 O242 1.264 . S
C241 O249 1.249 . S
O242 C241 1.264 . S
O243 Mg236 1.986 . S
O243 C247 1.246 . S
O244 Mg239 2.032 . S
O244 C247 1.259 . S
O245 Mg236 2.114 . S
O245 C248 1.252 . S
O246 Mg236 2.251 . S
O246 Mg239 2.079 . S
O246 C248 1.273 . S
C247 O243 1.246 . S
C247 O244 1.259 . S
C248 O245 1.252 . S
C248 O246 1.273 . S
O249 Mg236 2.010 . S
O249 C241 1.249 . S
Mg250 O251 2.028 . S
Mg250 O257 1.986 . S
Mg250 O259 2.114 . S
Mg250 O260 2.251 . S
Mg250 O263 2.010 . S
O251 Mg250 2.028 . S
O251 C254 1.250 . S
O252 Mg253 2.028 1_565 S
O252 C254 1.248 1_565 S
Mg253 O252 2.028 1_545 S
Mg253 O258 2.038 . S
Mg253 O260 2.090 . S
C254 O251 1.250 . S
C254 O252 1.248 1_545 S
C255 O256 1.264 . S
C255 O263 1.249 . S
O256 C255 1.264 . S
O257 Mg250 1.986 . S
O257 C261 1.246 . S
O258 Mg253 2.038 . S
O258 C261 1.259 . S
O259 Mg250 2.114 . S
O259 C262 1.252 . S
O260 Mg250 2.251 . S
O260 Mg253 2.090 . S
O260 C262 1.273 . S
C261 O257 1.246 . S
C261 O258 1.259 . S
C262 O259 1.252 . S
C262 O260 1.273 . S
O263 Mg250 2.010 . S
O263 C255 1.249 . S
Mg264 O265 2.028 . S
Mg264 O271 1.986 . S
Mg264 O273 2.114 . S
Mg264 O274 2.251 . S
Mg264 O277 2.010 . S
O265 Mg264 2.028 . S
O265 C268 1.250 . S
O266 Mg267 2.028 . S
O266 C268 1.248 . S
Mg267 O266 2.028 . S
Mg267 O272 2.032 . S
Mg267 O274 2.079 . S
C268 O265 1.250 . S
C268 O266 1.248 . S
C269 O270 1.264 . S
C269 O277 1.249 . S
O270 C269 1.264 . S
O271 Mg264 1.986 . S
O271 C275 1.246 . S
O272 Mg267 2.032 . S
O272 C275 1.259 . S
O273 Mg264 2.114 . S
O273 C276 1.252 . S
O274 Mg264 2.251 . S
O274 Mg267 2.079 . S
O274 C276 1.273 . S
C275 O271 1.246 . S
C275 O272 1.259 . S
C276 O273 1.252 . S
C276 O274 1.273 . S
O277 Mg264 2.010 . S
O277 C269 1.249 . S
Mg278 O279 2.028 . S
Mg278 O285 1.986 . S
Mg278 O287 2.114 . S
Mg278 O288 2.251 . S
Mg278 O291 2.010 . S
O279 Mg278 2.028 . S
O279 C282 1.250 . S
O280 Mg281 2.028 . S
O280 C282 1.248 . S
Mg281 O280 2.028 . S
Mg281 O286 2.032 . S
Mg281 O288 2.079 . S
C282 O279 1.250 . S
C282 O280 1.248 . S
C283 O284 1.264 . S
C283 O291 1.249 . S
O284 C283 1.264 . S
O285 Mg278 1.986 . S
O285 C289 1.246 . S
O286 Mg281 2.032 . S
O286 C289 1.259 . S
O287 Mg278 2.114 . S
O287 C290 1.252 . S
O288 Mg278 2.251 . S
O288 Mg281 2.079 . S
O288 C290 1.273 . S
C289 O285 1.246 . S
C289 O286 1.259 . S
C290 O287 1.252 . S
C290 O288 1.273 . S
O291 Mg278 2.010 . S
O291 C283 1.249 . S
Mg292 O293 2.028 . S
Mg292 O299 1.986 . S
Mg292 O301 2.114 . S
Mg292 O302 2.251 . S
Mg292 O305 2.010 . S
O293 Mg292 2.028 . S
O293 C296 1.250 . S
O294 Mg295 2.028 . S
O294 C296 1.248 . S
Mg295 O294 2.028 . S
Mg295 O300 2.032 . S
Mg295 O302 2.079 . S
C296 O293 1.250 . S
C296 O294 1.248 . S
C297 O298 1.264 . S
C297 O305 1.249 . S
O298 C297 1.264 . S
O299 Mg292 1.986 . S
O299 C303 1.246 . S
O300 Mg295 2.032 . S
O300 C303 1.259 . S
O301 Mg292 2.114 . S
O301 C304 1.252 . S
O302 Mg292 2.251 . S
O302 Mg295 2.079 . S
O302 C304 1.273 . S
C303 O299 1.246 . S
C303 O300 1.259 . S
C304 O301 1.252 . S
C304 O302 1.273 . S
O305 Mg292 2.010 . S
O305 C297 1.249 . S
Mg306 O307 2.028 1_545 S
Mg306 O313 1.986 1_545 S
Mg306 O315 2.114 . S
Mg306 O316 2.251 . S
Mg306 O319 2.010 . S
O307 Mg306 2.028 1_565 S
O307 C310 1.250 . S
O308 Mg309 2.028 . S
O308 C310 1.248 . S
Mg309 O308 2.028 . S
Mg309 O314 2.032 . S
Mg309 O316 2.079 1_565 S
C310 O307 1.250 . S
C310 O308 1.248 . S
C311 O312 1.264 . S
C311 O319 1.249 . S
O312 C311 1.264 . S
O313 Mg306 1.986 1_565 S
O313 C317 1.246 . S
O314 Mg309 2.032 . S
O314 C317 1.259 . S
O315 Mg306 2.114 . S
O315 C318 1.252 . S
O316 Mg306 2.251 . S
O316 Mg309 2.079 1_545 S
O316 C318 1.273 . S
C317 O313 1.246 . S
C317 O314 1.259 . S
C318 O315 1.252 . S
C318 O316 1.273 . S
O319 Mg306 2.010 . S
O319 C311 1.249 . S
Mg320 O321 2.028 1_455 S
Mg320 O327 1.986 . S
Mg320 O329 2.114 . S
Mg320 O330 2.251 1_455 S
Mg320 O333 2.010 . S
O321 Mg320 2.028 1_655 S
O321 C324 1.250 . S
O322 Mg323 2.028 . S
O322 C324 1.248 . S
Mg323 O322 2.028 . S
Mg323 O328 2.032 . S
Mg323 O330 2.079 . S
C324 O321 1.250 . S
C324 O322 1.248 . S
C325 O326 1.264 . S
C325 O333 1.249 . S
O326 C325 1.264 . S
O327 Mg320 1.986 . S
O327 C331 1.246 . S
O328 Mg323 2.032 . S
O328 C331 1.259 1_655 S
O329 Mg320 2.114 . S
O329 C332 1.252 . S
O330 Mg320 2.251 1_655 S
O330 Mg323 2.079 . S
O330 C332 1.273 1_655 S
C331 O327 1.246 . S
C331 O328 1.259 1_455 S
C332 O329 1.252 . S
C332 O330 1.273 1_455 S
O333 Mg320 2.010 . S
O333 C325 1.249 . S
Mg334 O335 2.028 . S
Mg334 O341 1.986 . S
Mg334 O343 2.114 . S
Mg334 O344 2.251 . S
Mg334 O347 2.010 . S
O335 Mg334 2.028 . S
O335 C338 1.250 . S
O336 Mg337 2.028 . S
O336 C338 1.248 . S
Mg337 O336 2.028 . S
Mg337 O342 2.032 . S
Mg337 O344 2.079 . S
C338 O335 1.250 . S
C338 O336 1.248 . S
C339 O340 1.264 . S
C339 O347 1.249 . S
O340 C339 1.264 . S
O341 Mg334 1.986 . S
O341 C345 1.246 . S
O342 Mg337 2.032 . S
O342 C345 1.259 . S
O343 Mg334 2.114 . S
O343 C346 1.252 . S
O344 Mg334 2.251 . S
O344 Mg337 2.079 . S
O344 C346 1.273 . S
C345 O341 1.246 . S
C345 O342 1.259 . S
C346 O343 1.252 . S
C346 O344 1.273 . S
O347 Mg334 2.010 . S
O347 C339 1.249 . S
Mg348 O349 2.028 1_655 S
Mg348 O355 1.986 1_655 S
Mg348 O357 2.114 . S
Mg348 O358 2.251 1_655 S
Mg348 O361 2.010 . S
O349 Mg348 2.028 1_455 S
O349 C352 1.250 . S
O350 Mg351 2.028 . S
O350 C352 1.248 . S
Mg351 O350 2.028 . S
Mg351 O356 2.032 . S
Mg351 O358 2.079 . S
C352 O349 1.250 . S
C352 O350 1.248 . S
C353 O354 1.264 . S
C353 O361 1.249 . S
O354 C353 1.264 . S
O355 Mg348 1.986 1_455 S
O355 C359 1.246 . S
O356 Mg351 2.032 . S
O356 C359 1.259 . S
O357 Mg348 2.114 . S
O357 C360 1.252 . S
O358 Mg348 2.251 1_455 S
O358 Mg351 2.079 . S
O358 C360 1.273 1_455 S
C359 O355 1.246 . S
C359 O356 1.259 . S
C360 O357 1.252 . S
C360 O358 1.273 1_655 S
O361 Mg348 2.010 . S
O361 C353 1.249 . S
Mg362 O363 2.028 . S
Mg362 O369 1.986 . S
Mg362 O371 2.114 . S
Mg362 O372 2.251 . S
Mg362 O375 2.010 . S
O363 Mg362 2.028 . S
O363 C366 1.250 . S
O364 Mg365 2.028 . S
O364 C366 1.248 . S
Mg365 O364 2.028 . S
Mg365 O370 2.032 . S
Mg365 O372 2.079 . S
C366 O363 1.250 . S
C366 O364 1.248 . S
C367 O368 1.264 . S
C367 O375 1.249 . S
O368 C367 1.264 . S
O369 Mg362 1.986 . S
O369 C373 1.246 . S
O370 Mg365 2.032 . S
O370 C373 1.259 . S
O371 Mg362 2.114 . S
O371 C374 1.252 . S
O372 Mg362 2.251 . S
O372 Mg365 2.079 . S
O372 C374 1.273 . S
C373 O369 1.246 . S
C373 O370 1.259 . S
C374 O371 1.252 . S
C374 O372 1.273 . S
O375 Mg362 2.010 . S
O375 C367 1.249 . S
H376 C384 0.929 . S
H377 C386 0.930 . S
H378 C388 0.930 . S
H379 C391 0.929 . S
H380 C394 0.930 . S
H381 C396 0.960 . S
H382 C396 0.960 . S
H383 C396 0.960 . S
C384 H376 0.929 . S
C384 C385 1.377 . S
C384 C386 1.384 . S
C385 C384 1.377 . S
C385 C391 1.390 . S
C386 H377 0.930 . S
C386 C384 1.384 . S
C386 C387 1.372 . S
C387 C386 1.372 . S
C387 C388 1.400 . S
C387 C392 1.490 . S
C388 H378 0.930 . S
C388 C387 1.400 . S
C388 C391 1.386 . S
H389 C405 0.930 . S
H390 C406 0.931 . S
C391 H379 0.929 . S
C391 C385 1.390 . S
C391 C388 1.386 . S
C392 C387 1.490 . S
C392 C394 1.395 . S
C392 C395 1.403 . S
H393 C399 0.930 . S
C394 H380 0.930 . S
C394 C392 1.395 . S
C394 C397 1.403 . S
C395 C392 1.403 . S
C395 C396 1.524 . S
C395 C399 1.400 . S
C396 H381 0.960 . S
C396 H382 0.960 . S
C396 H383 0.960 . S
C396 C395 1.524 . S
C397 C394 1.403 . S
C397 C398 1.392 . S
C397 C401 1.495 . S
C398 C397 1.392 . S
C398 C399 1.385 . S
C398 C400 1.478 . S
C399 H393 0.930 . S
C399 C395 1.400 . S
C399 C398 1.385 . S
C400 C398 1.478 . S
C400 C402 1.381 . S
C400 C406 1.383 . S
C401 C397 1.495 . S
C401 H407 0.959 . S
C401 H408 0.961 . S
C401 H409 0.960 . S
C402 C400 1.381 . S
C402 C403 1.394 . S
C402 H410 0.930 . S
C403 C402 1.394 . S
C403 C404 1.383 . S
C403 H411 0.929 . S
C404 C403 1.383 . S
C404 C405 1.377 . S
C405 H389 0.930 . S
C405 C404 1.377 . S
C405 C406 1.379 . S
C406 H390 0.931 . S
C406 C400 1.383 . S
C406 C405 1.379 . S
H407 C401 0.959 . S
H408 C401 0.961 . S
H409 C401 0.960 . S
H410 C402 0.930 . S
H411 C403 0.929 . S
H412 C420 0.929 . S
H413 C422 0.930 . S
H414 C424 0.930 . S
H415 C427 0.929 1_655 S
H416 C430 0.930 . S
H417 C432 0.960 . S
H418 C432 0.960 . S
H419 C432 0.960 . S
C420 H412 0.929 . S
C420 C421 1.377 . S
C420 C422 1.384 . S
C421 C420 1.377 . S
C421 C427 1.390 . S
C422 H413 0.930 . S
C422 C420 1.384 . S
C422 C423 1.372 . S
C423 C422 1.372 . S
C423 C424 1.400 . S
C423 C428 1.490 . S
C424 H414 0.930 . S
C424 C423 1.400 . S
C424 C427 1.386 . S
H425 C441 0.930 . S
H426 C442 0.931 . S
C427 H415 0.929 1_455 S
C427 C421 1.390 . S
C427 C424 1.386 . S
C428 C423 1.490 . S
C428 C430 1.395 . S
C428 C431 1.403 . S
H429 C435 0.930 . S
C430 H416 0.930 . S
C430 C428 1.395 . S
C430 C433 1.403 . S
C431 C428 1.403 . S
C431 C432 1.524 . S
C431 C435 1.400 . S
C432 H417 0.960 . S
C432 H418 0.960 . S
C432 H419 0.960 . S
C432 C431 1.524 . S
C433 C430 1.403 . S
C433 C434 1.392 . S
C433 C437 1.495 . S
C434 C433 1.392 . S
C434 C435 1.385 . S
C434 C436 1.478 . S
C435 H429 0.930 . S
C435 C431 1.400 . S
C435 C434 1.385 . S
C436 C434 1.478 . S
C436 C438 1.381 . S
C436 C442 1.383 . S
C437 C433 1.495 . S
C437 H443 0.959 . S
C437 H444 0.961 . S
C437 H445 0.960 . S
C438 C436 1.381 . S
C438 C439 1.394 . S
C438 H446 0.930 . S
C439 C438 1.394 . S
C439 C440 1.383 . S
C439 H447 0.929 . S
C440 C439 1.383 . S
C440 C441 1.377 . S
C441 H425 0.930 . S
C441 C440 1.377 . S
C441 C442 1.379 . S
C442 H426 0.931 . S
C442 C436 1.383 . S
C442 C441 1.379 . S
H443 C437 0.959 . S
H444 C437 0.961 . S
H445 C437 0.960 . S
H446 C438 0.930 . S
H447 C439 0.929 . S
H448 C456 0.929 . S
H449 C458 0.930 . S
H450 C460 0.930 . S
H451 C463 0.929 . S
H452 C466 0.930 . S
H453 C468 0.960 . S
H454 C468 0.960 . S
H455 C468 0.960 . S
C456 H448 0.929 . S
C456 C457 1.377 . S
C456 C458 1.384 . S
C457 C456 1.377 . S
C457 C463 1.390 . S
C458 H449 0.930 . S
C458 C456 1.384 . S
C458 C459 1.372 . S
C459 C458 1.372 . S
C459 C460 1.400 . S
C459 C464 1.490 . S
C460 H450 0.930 . S
C460 C459 1.400 . S
C460 C463 1.386 . S
H461 C477 0.930 . S
H462 C478 0.931 . S
C463 H451 0.929 . S
C463 C457 1.390 . S
C463 C460 1.386 . S
C464 C459 1.490 . S
C464 C466 1.395 . S
C464 C467 1.403 . S
H465 C471 0.930 . S
C466 H452 0.930 . S
C466 C464 1.395 . S
C466 C469 1.403 . S
C467 C464 1.403 . S
C467 C468 1.524 . S
C467 C471 1.400 . S
C468 H453 0.960 . S
C468 H454 0.960 . S
C468 H455 0.960 . S
C468 C467 1.524 . S
C469 C466 1.403 . S
C469 C470 1.392 . S
C469 C473 1.495 . S
C470 C469 1.392 . S
C470 C471 1.385 . S
C470 C472 1.478 . S
C471 H465 0.930 . S
C471 C467 1.400 . S
C471 C470 1.385 . S
C472 C470 1.478 . S
C472 C474 1.381 . S
C472 C478 1.383 . S
C473 C469 1.495 . S
C473 H479 0.959 . S
C473 H480 0.961 . S
C473 H481 0.960 . S
C474 C472 1.381 . S
C474 C475 1.394 . S
C474 H482 0.930 . S
C475 C474 1.394 . S
C475 C476 1.383 . S
C475 H483 0.929 1_556 S
C476 C475 1.383 . S
C476 C477 1.377 . S
C477 H461 0.930 . S
C477 C476 1.377 . S
C477 C478 1.379 . S
C478 H462 0.931 . S
C478 C472 1.383 . S
C478 C477 1.379 . S
H479 C473 0.959 . S
H480 C473 0.961 . S
H481 C473 0.960 . S
H482 C474 0.930 . S
H483 C475 0.929 1_554 S
H484 C492 0.929 . S
H485 C494 0.930 . S
H486 C496 0.930 . S
H487 C499 0.929 . S
H488 C502 0.924 1_565 S
H489 C504 0.960 . S
H490 C504 0.988 . S
H491 C504 0.960 . S
C492 H484 0.929 . S
C492 C493 1.377 1_655 S
C492 C494 1.384 . S
C493 C492 1.377 1_455 S
C493 C499 1.390 1_565 S
C494 H485 0.930 . S
C494 C492 1.384 . S
C494 C495 1.410 . S
C495 C494 1.410 . S
C495 C496 1.373 1_665 S
C495 C500 1.480 1_565 S
C496 H486 0.930 . S
C496 C495 1.373 1_445 S
C496 C499 1.386 . S
H497 C513 0.930 . S
H498 C514 0.931 . S
C499 H487 0.929 . S
C499 C493 1.390 1_545 S
C499 C496 1.386 . S
C500 C495 1.480 1_545 S
C500 C502 1.394 . S
C500 C503 1.403 . S
H501 C507 0.930 . S
C502 H488 0.924 1_545 S
C502 C500 1.394 . S
C502 C505 1.411 . S
C503 C500 1.403 . S
C503 C504 1.524 1_655 S
C503 C507 1.400 . S
C504 H489 0.960 . S
C504 H490 0.988 . S
C504 H491 0.960 . S
C504 C503 1.524 1_455 S
C505 C502 1.411 . S
C505 C506 1.392 . S
C505 C509 1.495 . S
C506 C505 1.392 . S
C506 C507 1.385 . S
C506 C508 1.478 . S
C507 H501 0.930 . S
C507 C503 1.400 . S
C507 C506 1.385 . S
C508 C506 1.478 . S
C508 C510 1.381 . S
C508 C514 1.383 . S
C509 C505 1.495 . S
C509 H515 0.959 1_545 S
C509 H516 0.961 . S
C509 H517 0.960 1_545 S
C510 C508 1.381 . S
C510 C511 1.394 . S
C510 H518 0.930 1_545 S
C511 C510 1.394 . S
C511 C512 1.383 . S
C511 H519 0.929 1_545 S
C512 C511 1.383 . S
C512 C513 1.377 . S
C513 H497 0.930 . S
C513 C512 1.377 . S
C513 C514 1.379 . S
C514 H498 0.931 . S
C514 C508 1.383 . S
C514 C513 1.379 . S
H515 C509 0.959 1_565 S
H516 C509 0.961 . S
H517 C509 0.960 1_565 S
H518 C510 0.930 1_565 S
H519 C511 0.929 1_565 S
H520 C528 0.929 . S
H521 C530 0.930 . S
H522 C532 0.930 . S
H523 C535 0.929 . S
H524 C538 0.930 . S
H525 C540 0.960 . S
H526 C540 0.960 . S
H527 C540 0.960 . S
C528 H520 0.929 . S
C528 C529 1.377 . S
C528 C530 1.384 . S
C529 C528 1.377 . S
C529 C535 1.390 . S
C530 H521 0.930 . S
C530 C528 1.384 . S
C530 C531 1.372 . S
C531 C530 1.372 . S
C531 C532 1.400 . S
C531 C536 1.490 . S
C532 H522 0.930 . S
C532 C531 1.400 . S
C532 C535 1.386 . S
H533 C549 0.930 . S
H534 C550 0.931 . S
C535 H523 0.929 . S
C535 C529 1.390 . S
C535 C532 1.386 . S
C536 C531 1.490 . S
C536 C538 1.395 . S
C536 C539 1.403 . S
H537 C543 0.930 . S
C538 H524 0.930 . S
C538 C536 1.395 . S
C538 C541 1.403 . S
C539 C536 1.403 . S
C539 C540 1.524 . S
C539 C543 1.400 . S
C540 H525 0.960 . S
C540 H526 0.960 . S
C540 H527 0.960 . S
C540 C539 1.524 . S
C541 C538 1.403 . S
C541 C542 1.392 . S
C541 C545 1.495 . S
C542 C541 1.392 . S
C542 C543 1.385 . S
C542 C544 1.478 . S
C543 H537 0.930 . S
C543 C539 1.400 . S
C543 C542 1.385 . S
C544 C542 1.478 . S
C544 C546 1.381 . S
C544 C550 1.383 . S
C545 C541 1.495 . S
C545 H551 0.959 . S
C545 H552 0.961 . S
C545 H553 0.960 . S
C546 C544 1.381 . S
C546 C547 1.394 . S
C546 H554 0.930 . S
C547 C546 1.394 . S
C547 C548 1.383 . S
C547 H555 0.929 . S
C548 C547 1.383 . S
C548 C549 1.377 . S
C549 H533 0.930 . S
C549 C548 1.377 . S
C549 C550 1.379 . S
C550 H534 0.931 . S
C550 C544 1.383 . S
C550 C549 1.379 . S
H551 C545 0.959 . S
H552 C545 0.961 . S
H553 C545 0.960 . S
H554 C546 0.930 . S
H555 C547 0.929 . S
H556 C564 0.929 . S
H557 C566 0.930 . S
H558 C568 0.930 . S
H559 C571 0.929 . S
H560 C574 0.930 . S
H561 C576 0.960 . S
H562 C576 0.960 . S
H563 C576 0.960 . S
C564 H556 0.929 . S
C564 C565 1.377 . S
C564 C566 1.384 . S
C565 C564 1.377 . S
C565 C571 1.390 . S
C566 H557 0.930 . S
C566 C564 1.384 . S
C566 C567 1.372 . S
C567 C566 1.372 . S
C567 C568 1.400 . S
C567 C572 1.490 . S
C568 H558 0.930 . S
C568 C567 1.400 . S
C568 C571 1.386 . S
H569 C585 0.930 . S
H570 C586 0.931 . S
C571 H559 0.929 . S
C571 C565 1.390 . S
C571 C568 1.386 . S
C572 C567 1.490 . S
C572 C574 1.395 . S
C572 C575 1.403 . S
H573 C579 0.930 . S
C574 H560 0.930 . S
C574 C572 1.395 . S
C574 C577 1.403 . S
C575 C572 1.403 . S
C575 C576 1.524 . S
C575 C579 1.400 . S
C576 H561 0.960 . S
C576 H562 0.960 . S
C576 H563 0.960 . S
C576 C575 1.524 . S
C577 C574 1.403 . S
C577 C578 1.392 . S
C577 C581 1.495 . S
C578 C577 1.392 . S
C578 C579 1.385 . S
C578 C580 1.478 . S
C579 H573 0.930 . S
C579 C575 1.400 . S
C579 C578 1.385 . S
C580 C578 1.478 . S
C580 C582 1.381 . S
C580 C586 1.383 . S
C581 C577 1.495 . S
C581 H587 0.959 . S
C581 H588 0.961 . S
C581 H589 0.960 . S
C582 C580 1.381 . S
C582 C583 1.394 . S
C582 H590 0.930 . S
C583 C582 1.394 . S
C583 C584 1.383 . S
C583 H591 0.929 . S
C584 C583 1.383 . S
C584 C585 1.377 . S
C585 H569 0.930 . S
C585 C584 1.377 . S
C585 C586 1.379 . S
C586 H570 0.931 . S
C586 C580 1.383 . S
C586 C585 1.379 . S
H587 C581 0.959 . S
H588 C581 0.961 . S
H589 C581 0.960 . S
H590 C582 0.930 . S
H591 C583 0.929 . S
H592 C600 0.929 . S
H593 C602 0.930 . S
H594 C604 0.930 . S
H595 C607 0.929 . S
H596 C610 0.930 . S
H597 C612 0.960 . S
H598 C612 0.960 . S
H599 C612 0.960 . S
C600 H592 0.929 . S
C600 C601 1.377 . S
C600 C602 1.384 . S
C601 C600 1.377 . S
C601 C607 1.390 . S
C602 H593 0.930 . S
C602 C600 1.384 . S
C602 C603 1.372 . S
C603 C602 1.372 . S
C603 C604 1.400 . S
C603 C608 1.490 . S
C604 H594 0.930 . S
C604 C603 1.400 . S
C604 C607 1.386 . S
H605 C621 0.930 . S
H606 C622 0.931 . S
C607 H595 0.929 . S
C607 C601 1.390 . S
C607 C604 1.386 . S
C608 C603 1.490 . S
C608 C610 1.395 . S
C608 C611 1.403 . S
H609 C615 0.930 . S
C610 H596 0.930 . S
C610 C608 1.395 . S
C610 C613 1.403 . S
C611 C608 1.403 . S
C611 C612 1.524 . S
C611 C615 1.400 . S
C612 H597 0.960 . S
C612 H598 0.960 . S
C612 H599 0.960 . S
C612 C611 1.524 . S
C613 C610 1.403 . S
C613 C614 1.392 . S
C613 C617 1.495 . S
C614 C613 1.392 . S
C614 C615 1.385 . S
C614 C616 1.478 . S
C615 H609 0.930 . S
C615 C611 1.400 . S
C615 C614 1.385 . S
C616 C614 1.478 . S
C616 C618 1.381 . S
C616 C622 1.383 . S
C617 C613 1.495 . S
C617 H623 0.959 . S
C617 H624 0.961 . S
C617 H625 0.960 . S
C618 C616 1.381 . S
C618 C619 1.394 . S
C618 H626 0.930 . S
C619 C618 1.394 . S
C619 C620 1.383 . S
C619 H627 0.929 . S
C620 C619 1.383 . S
C620 C621 1.377 . S
C621 H605 0.930 . S
C621 C620 1.377 . S
C621 C622 1.379 . S
C622 H606 0.931 . S
C622 C616 1.383 . S
C622 C621 1.379 . S
H623 C617 0.959 . S
H624 C617 0.961 . S
H625 C617 0.960 . S
H626 C618 0.930 . S
H627 C619 0.929 . S
H628 C636 0.929 . S
H629 C638 0.930 . S
H630 C640 0.930 . S
H631 C643 0.929 . S
H632 C646 0.930 . S
H633 C648 0.960 . S
H634 C648 0.960 . S
H635 C648 0.960 . S
C636 H628 0.929 . S
C636 C637 1.377 . S
C636 C638 1.384 . S
C637 C636 1.377 . S
C637 C643 1.390 . S
C638 H629 0.930 . S
C638 C636 1.384 . S
C638 C639 1.372 . S
C639 C638 1.372 . S
C639 C640 1.400 . S
C639 C644 1.490 . S
C640 H630 0.930 . S
C640 C639 1.400 . S
C640 C643 1.386 . S
H641 C657 0.930 . S
H642 C658 0.931 . S
C643 H631 0.929 . S
C643 C637 1.390 . S
C643 C640 1.386 . S
C644 C639 1.490 . S
C644 C646 1.395 . S
C644 C647 1.403 . S
H645 C651 0.930 . S
C646 H632 0.930 . S
C646 C644 1.395 . S
C646 C649 1.403 . S
C647 C644 1.403 . S
C647 C648 1.524 . S
C647 C651 1.400 . S
C648 H633 0.960 . S
C648 H634 0.960 . S
C648 H635 0.960 . S
C648 C647 1.524 . S
C649 C646 1.403 . S
C649 C650 1.392 . S
C649 C653 1.495 . S
C650 C649 1.392 . S
C650 C651 1.385 . S
C650 C652 1.478 . S
C651 H645 0.930 . S
C651 C647 1.400 . S
C651 C650 1.385 . S
C652 C650 1.478 . S
C652 C654 1.381 1_565 S
C652 C658 1.383 . S
C653 C649 1.495 . S
C653 H659 0.959 . S
C653 H660 0.961 . S
C653 H661 0.960 . S
C654 C652 1.381 1_545 S
C654 C655 1.394 . S
C654 H662 0.930 . S
C655 C654 1.394 . S
C655 C656 1.383 1_545 S
C655 H663 0.929 . S
C656 C655 1.383 1_565 S
C656 C657 1.377 . S
C657 H641 0.930 . S
C657 C656 1.377 . S
C657 C658 1.379 . S
C658 H642 0.931 . S
C658 C652 1.383 . S
C658 C657 1.379 . S
H659 C653 0.959 . S
H660 C653 0.961 . S
H661 C653 0.960 . S
H662 C654 0.930 . S
H663 C655 0.929 . S
H664 C672 0.929 . S
H665 C674 0.930 . S
H666 C676 0.930 . S
H667 C679 0.929 . S
H668 C682 0.930 . S
H669 C684 0.960 . S
H670 C684 0.960 . S
H671 C684 0.960 . S
C672 H664 0.929 . S
C672 C673 1.377 . S
C672 C674 1.384 . S
C673 C672 1.377 . S
C673 C679 1.390 . S
C674 H665 0.930 . S
C674 C672 1.384 . S
C674 C675 1.372 . S
C675 C674 1.372 . S
C675 C676 1.400 . S
C675 C680 1.490 . S
C676 H666 0.930 . S
C676 C675 1.400 . S
C676 C679 1.386 . S
H677 C693 0.930 . S
H678 C694 0.931 . S
C679 H667 0.929 . S
C679 C673 1.390 . S
C679 C676 1.386 . S
C680 C675 1.490 . S
C680 C682 1.395 . S
C680 C683 1.403 . S
H681 C687 0.930 . S
C682 H668 0.930 . S
C682 C680 1.395 . S
C682 C685 1.403 . S
C683 C680 1.403 . S
C683 C684 1.524 . S
C683 C687 1.400 . S
C684 H669 0.960 . S
C684 H670 0.960 . S
C684 H671 0.960 . S
C684 C683 1.524 . S
C685 C682 1.403 . S
C685 C686 1.392 . S
C685 C689 1.495 . S
C686 C685 1.392 . S
C686 C687 1.385 . S
C686 C688 1.478 . S
C687 H681 0.930 . S
C687 C683 1.400 . S
C687 C686 1.385 . S
C688 C686 1.478 . S
C688 C690 1.381 . S
C688 C694 1.383 . S
C689 C685 1.495 . S
C689 H695 0.959 . S
C689 H696 0.961 . S
C689 H697 0.960 . S
C690 C688 1.381 . S
C690 C691 1.394 . S
C690 H698 0.930 . S
C691 C690 1.394 . S
C691 C692 1.383 . S
C691 H699 0.929 . S
C692 C691 1.383 . S
C692 C693 1.377 . S
C693 H677 0.930 . S
C693 C692 1.377 . S
C693 C694 1.379 . S
C694 H678 0.931 . S
C694 C688 1.383 . S
C694 C693 1.379 . S
H695 C689 0.959 . S
H696 C689 0.961 . S
H697 C689 0.960 . S
H698 C690 0.930 . S
H699 C691 0.929 . S
H700 C708 0.929 . S
H701 C710 0.930 . S
H702 C712 0.930 . S
H703 C715 0.929 . S
H704 C718 0.930 . S
H705 C720 0.960 . S
H706 C720 0.960 . S
H707 C720 0.960 . S
C708 H700 0.929 . S
C708 C709 1.377 . S
C708 C710 1.384 . S
C709 C708 1.377 . S
C709 C715 1.390 . S
C710 H701 0.930 . S
C710 C708 1.384 . S
C710 C711 1.372 . S
C711 C710 1.372 . S
C711 C712 1.400 . S
C711 C716 1.490 . S
C712 H702 0.930 . S
C712 C711 1.400 . S
C712 C715 1.386 . S
H713 C729 0.930 . S
H714 C730 0.931 . S
C715 H703 0.929 . S
C715 C709 1.390 . S
C715 C712 1.386 . S
C716 C711 1.490 . S
C716 C718 1.395 . S
C716 C719 1.403 . S
H717 C723 0.930 . S
C718 H704 0.930 . S
C718 C716 1.395 . S
C718 C721 1.403 . S
C719 C716 1.403 . S
C719 C720 1.524 . S
C719 C723 1.400 . S
C720 H705 0.960 . S
C720 H706 0.960 . S
C720 H707 0.960 . S
C720 C719 1.524 . S
C721 C718 1.403 . S
C721 C722 1.392 . S
C721 C725 1.495 . S
C722 C721 1.392 . S
C722 C723 1.385 . S
C722 C724 1.478 . S
C723 H717 0.930 . S
C723 C719 1.400 . S
C723 C722 1.385 . S
C724 C722 1.478 . S
C724 C726 1.381 . S
C724 C730 1.383 . S
C725 C721 1.495 . S
C725 H731 0.959 . S
C725 H732 0.961 . S
C725 H733 0.960 . S
C726 C724 1.381 . S
C726 C727 1.394 . S
C726 H734 0.930 . S
C727 C726 1.394 . S
C727 C728 1.383 . S
C727 H735 0.929 . S
C728 C727 1.383 . S
C728 C729 1.377 . S
C729 H713 0.930 . S
C729 C728 1.377 . S
C729 C730 1.379 . S
C730 H714 0.931 . S
C730 C724 1.383 . S
C730 C729 1.379 . S
H731 C725 0.959 . S
H732 C725 0.961 . S
H733 C725 0.960 . S
H734 C726 0.930 . S
H735 C727 0.929 . S
H736 C744 0.929 . S
H737 C746 0.930 . S
H738 C748 0.930 . S
H739 C751 0.929 . S
H740 C754 0.930 . S
H741 C756 0.960 . S
H742 C756 0.960 . S
H743 C756 0.960 . S
C744 H736 0.929 . S
C744 C745 1.377 . S
C744 C746 1.384 . S
C745 C744 1.377 . S
C745 C751 1.390 . S
C746 H737 0.930 . S
C746 C744 1.384 . S
C746 C747 1.372 . S
C747 C746 1.372 . S
C747 C748 1.400 . S
C747 C752 1.490 . S
C748 H738 0.930 . S
C748 C747 1.400 . S
C748 C751 1.386 . S
H749 C765 0.930 . S
H750 C766 0.931 . S
C751 H739 0.929 . S
C751 C745 1.390 . S
C751 C748 1.386 . S
C752 C747 1.490 . S
C752 C754 1.395 . S
C752 C755 1.403 . S
H753 C759 0.930 . S
C754 H740 0.930 . S
C754 C752 1.395 . S
C754 C757 1.403 . S
C755 C752 1.403 . S
C755 C756 1.524 . S
C755 C759 1.400 . S
C756 H741 0.960 . S
C756 H742 0.960 . S
C756 H743 0.960 . S
C756 C755 1.524 . S
C757 C754 1.403 . S
C757 C758 1.392 . S
C757 C761 1.495 . S
C758 C757 1.392 . S
C758 C759 1.385 . S
C758 C760 1.478 . S
C759 H753 0.930 . S
C759 C755 1.400 . S
C759 C758 1.385 . S
C760 C758 1.478 . S
C760 C762 1.381 . S
C760 C766 1.383 . S
C761 C757 1.495 . S
C761 H767 0.959 . S
C761 H768 0.961 . S
C761 H769 0.960 . S
C762 C760 1.381 . S
C762 C763 1.394 . S
C762 H770 0.930 . S
C763 C762 1.394 . S
C763 C764 1.383 . S
C763 H771 0.929 . S
C764 C763 1.383 . S
C764 C765 1.377 . S
C765 H749 0.930 . S
C765 C764 1.377 . S
C765 C766 1.379 . S
C766 H750 0.931 . S
C766 C760 1.383 . S
C766 C765 1.379 . S
H767 C761 0.959 . S
H768 C761 0.961 . S
H769 C761 0.960 . S
H770 C762 0.930 . S
H771 C763 0.929 . S
H772 C780 0.929 . S
H773 C782 0.930 . S
H774 C784 0.930 . S
H775 C787 0.929 . S
H776 C790 0.930 . S
H777 C792 0.960 . S
H778 C792 0.960 . S
H779 C792 0.960 . S
C780 H772 0.929 . S
C780 C781 1.377 . S
C780 C782 1.384 . S
C781 C780 1.377 . S
C781 C787 1.390 . S
C782 H773 0.930 . S
C782 C780 1.384 . S
C782 C783 1.372 . S
C783 C782 1.372 . S
C783 C784 1.400 . S
C783 C788 1.490 . S
C784 H774 0.930 . S
C784 C783 1.400 . S
C784 C787 1.386 . S
H785 C801 0.930 . S
H786 C802 0.931 . S
C787 H775 0.929 . S
C787 C781 1.390 . S
C787 C784 1.386 . S
C788 C783 1.490 . S
C788 C790 1.395 . S
C788 C791 1.403 . S
H789 C795 0.930 . S
C790 H776 0.930 . S
C790 C788 1.395 . S
C790 C793 1.403 . S
C791 C788 1.403 . S
C791 C792 1.524 . S
C791 C795 1.400 . S
C792 H777 0.960 . S
C792 H778 0.960 . S
C792 H779 0.960 . S
C792 C791 1.524 . S
C793 C790 1.403 . S
C793 C794 1.392 . S
C793 C797 1.495 . S
C794 C793 1.392 . S
C794 C795 1.385 . S
C794 C796 1.478 . S
C795 H789 0.930 . S
C795 C791 1.400 . S
C795 C794 1.385 . S
C796 C794 1.478 . S
C796 C798 1.381 . S
C796 C802 1.383 . S
C797 C793 1.495 . S
C797 H803 0.959 . S
C797 H804 0.961 . S
C797 H805 0.960 . S
C798 C796 1.381 . S
C798 C799 1.394 . S
C798 H806 0.930 . S
C799 C798 1.394 . S
C799 C800 1.383 . S
C799 H807 0.929 . S
C800 C799 1.383 . S
C800 C801 1.377 . S
C801 H785 0.930 . S
C801 C800 1.377 . S
C801 C802 1.379 . S
C802 H786 0.931 . S
C802 C796 1.383 . S
C802 C801 1.379 . S
H803 C797 0.959 . S
H804 C797 0.961 . S
H805 C797 0.960 . S
H806 C798 0.930 . S
H807 C799 0.929 . S
H808 C816 0.929 . S
H809 C818 0.930 . S
H810 C820 0.930 . S
H811 C823 0.929 . S
H812 C826 0.930 . S
H813 C828 0.960 . S
H814 C828 0.960 . S
H815 C828 0.960 . S
C816 H808 0.929 . S
C816 C817 1.377 . S
C816 C818 1.384 . S
C817 C816 1.377 . S
C817 C823 1.390 . S
C818 H809 0.930 . S
C818 C816 1.384 . S
C818 C819 1.372 . S
C819 C818 1.372 . S
C819 C820 1.400 . S
C819 C824 1.490 . S
C820 H810 0.930 . S
C820 C819 1.400 . S
C820 C823 1.386 . S
H821 C837 0.930 . S
H822 C838 0.931 . S
C823 H811 0.929 . S
C823 C817 1.390 . S
C823 C820 1.386 . S
C824 C819 1.490 . S
C824 C826 1.395 . S
C824 C827 1.403 . S
H825 C831 0.930 . S
C826 H812 0.930 . S
C826 C824 1.395 . S
C826 C829 1.403 . S
C827 C824 1.403 . S
C827 C828 1.524 . S
C827 C831 1.400 . S
C828 H813 0.960 . S
C828 H814 0.960 . S
C828 H815 0.960 . S
C828 C827 1.524 . S
C829 C826 1.403 . S
C829 C830 1.392 . S
C829 C833 1.495 . S
C830 C829 1.392 . S
C830 C831 1.385 . S
C830 C832 1.478 . S
C831 H825 0.930 . S
C831 C827 1.400 . S
C831 C830 1.385 . S
C832 C830 1.478 . S
C832 C834 1.381 . S
C832 C838 1.383 . S
C833 C829 1.495 . S
C833 H839 0.959 . S
C833 H840 0.961 . S
C833 H841 0.960 . S
C834 C832 1.381 . S
C834 C835 1.394 . S
C834 H842 0.930 . S
C835 C834 1.394 . S
C835 C836 1.383 . S
C835 H843 0.929 . S
C836 C835 1.383 . S
C836 C837 1.377 . S
C837 H821 0.930 . S
C837 C836 1.377 . S
C837 C838 1.379 . S
C838 H822 0.931 . S
C838 C832 1.383 . S
C838 C837 1.379 . S
H839 C833 0.959 . S
H840 C833 0.961 . S
H841 C833 0.960 . S
H842 C834 0.930 . S
H843 C835 0.929 . S
H844 C852 0.929 . S
H845 C854 0.930 . S
H846 C856 0.930 . S
H847 C859 0.929 . S
H848 C862 0.930 . S
H849 C864 0.960 . S
H850 C864 0.960 . S
H851 C864 0.960 . S
C852 H844 0.929 . S
C852 C853 1.377 . S
C852 C854 1.384 . S
C853 C852 1.377 . S
C853 C859 1.390 . S
C854 H845 0.930 . S
C854 C852 1.384 . S
C854 C855 1.372 . S
C855 C854 1.372 . S
C855 C856 1.400 . S
C855 C860 1.490 . S
C856 H846 0.930 . S
C856 C855 1.400 . S
C856 C859 1.386 . S
H857 C873 0.930 . S
H858 C874 0.931 . S
C859 H847 0.929 . S
C859 C853 1.390 . S
C859 C856 1.386 . S
C860 C855 1.490 . S
C860 C862 1.395 . S
C860 C863 1.403 . S
H861 C867 0.930 . S
C862 H848 0.930 . S
C862 C860 1.395 . S
C862 C865 1.403 . S
C863 C860 1.403 . S
C863 C864 1.524 . S
C863 C867 1.400 . S
C864 H849 0.960 . S
C864 H850 0.960 . S
C864 H851 0.960 . S
C864 C863 1.524 . S
C865 C862 1.403 . S
C865 C866 1.392 . S
C865 C869 1.495 1_455 S
C866 C865 1.392 . S
C866 C867 1.385 . S
C866 C868 1.478 . S
C867 H861 0.930 . S
C867 C863 1.400 . S
C867 C866 1.385 . S
C868 C866 1.478 . S
C868 C870 1.381 . S
C868 C874 1.383 . S
C869 C865 1.495 1_655 S
C869 H875 0.959 . S
C869 H876 0.961 . S
C869 H877 0.960 . S
C870 C868 1.381 . S
C870 C871 1.394 . S
C870 H878 0.930 . S
C871 C870 1.394 . S
C871 C872 1.383 . S
C871 H879 0.929 . S
C872 C871 1.383 . S
C872 C873 1.377 . S
C873 H857 0.930 . S
C873 C872 1.377 . S
C873 C874 1.379 . S
C874 H858 0.931 . S
C874 C868 1.383 . S
C874 C873 1.379 . S
H875 C869 0.959 . S
H876 C869 0.961 . S
H877 C869 0.960 . S
H878 C870 0.930 . S
H879 C871 0.929 . S
H880 C888 0.929 . S
H881 C890 0.930 . S
H882 C892 0.930 . S
H883 C895 0.929 . S
H884 C898 0.930 . S
H885 C900 0.960 . S
H886 C900 0.960 . S
H887 C900 0.960 . S
C888 H880 0.929 . S
C888 C889 1.377 . S
C888 C890 1.384 . S
C889 C888 1.377 . S
C889 C895 1.390 . S
C890 H881 0.930 . S
C890 C888 1.384 . S
C890 C891 1.372 . S
C891 C890 1.372 . S
C891 C892 1.400 . S
C891 C896 1.490 . S
C892 H882 0.930 . S
C892 C891 1.400 . S
C892 C895 1.386 . S
H893 C909 0.930 . S
H894 C910 0.931 . S
C895 H883 0.929 . S
C895 C889 1.390 . S
C895 C892 1.386 . S
C896 C891 1.490 . S
C896 C898 1.395 . S
C896 C899 1.403 . S
H897 C903 0.930 . S
C898 H884 0.930 . S
C898 C896 1.395 . S
C898 C901 1.403 . S
C899 C896 1.403 . S
C899 C900 1.524 . S
C899 C903 1.400 . S
C900 H885 0.960 . S
C900 H886 0.960 . S
C900 H887 0.960 . S
C900 C899 1.524 . S
C901 C898 1.403 . S
C901 C902 1.392 . S
C901 C905 1.495 . S
C902 C901 1.392 . S
C902 C903 1.385 . S
C902 C904 1.478 . S
C903 H897 0.930 . S
C903 C899 1.400 . S
C903 C902 1.385 . S
C904 C902 1.478 . S
C904 C906 1.381 . S
C904 C910 1.383 . S
C905 C901 1.495 . S
C905 H911 0.959 . S
C905 H912 0.961 . S
C905 H913 0.960 . S
C906 C904 1.381 . S
C906 C907 1.394 . S
C906 H914 0.930 . S
C907 C906 1.394 . S
C907 C908 1.383 . S
C907 H915 0.929 . S
C908 C907 1.383 . S
C908 C909 1.377 . S
C909 H893 0.930 . S
C909 C908 1.377 . S
C909 C910 1.379 . S
C910 H894 0.931 . S
C910 C904 1.383 . S
C910 C909 1.379 . S
H911 C905 0.959 . S
H912 C905 0.961 . S
H913 C905 0.960 . S
H914 C906 0.930 . S
H915 C907 0.929 . S
H916 C924 0.929 1_455 S
H917 C926 0.930 1_455 S
H918 C928 0.930 . S
H919 C931 0.929 . S
H920 C934 0.930 . S
H921 C936 0.960 . S
H922 C936 0.960 . S
H923 C936 0.960 . S
C924 H916 0.929 1_655 S
C924 C925 1.377 . S
C924 C926 1.384 . S
C925 C924 1.377 . S
C925 C931 1.390 . S
C926 H917 0.930 1_655 S
C926 C924 1.384 . S
C926 C927 1.372 . S
C927 C926 1.372 . S
C927 C928 1.400 . S
C927 C932 1.490 . S
C928 H918 0.930 . S
C928 C927 1.400 . S
C928 C931 1.386 . S
H929 C945 0.930 . S
H930 C946 0.931 . S
C931 H919 0.929 . S
C931 C925 1.390 . S
C931 C928 1.386 . S
C932 C927 1.490 . S
C932 C934 1.395 . S
C932 C935 1.403 . S
H933 C939 0.930 . S
C934 H920 0.930 . S
C934 C932 1.395 . S
C934 C937 1.403 . S
C935 C932 1.403 . S
C935 C936 1.524 . S
C935 C939 1.400 . S
C936 H921 0.960 . S
C936 H922 0.960 . S
C936 H923 0.960 . S
C936 C935 1.524 . S
C937 C934 1.403 . S
C937 C938 1.392 . S
C937 C941 1.495 1_655 S
C938 C937 1.392 . S
C938 C939 1.385 . S
C938 C940 1.478 . S
C939 H933 0.930 . S
C939 C935 1.400 . S
C939 C938 1.385 . S
C940 C938 1.478 . S
C940 C942 1.381 1_655 S
C940 C946 1.383 . S
C941 C937 1.495 1_455 S
C941 H947 0.959 . S
C941 H948 0.961 1_455 S
C941 H949 0.960 . S
C942 C940 1.381 1_455 S
C942 C943 1.394 . S
C942 H950 0.930 . S
C943 C942 1.394 . S
C943 C944 1.383 1_455 S
C943 H951 0.929 . S
C944 C943 1.383 1_655 S
C944 C945 1.377 . S
C945 H929 0.930 . S
C945 C944 1.377 . S
C945 C946 1.379 . S
C946 H930 0.931 . S
C946 C940 1.383 . S
C946 C945 1.379 . S
H947 C941 0.959 . S
H948 C941 0.961 1_655 S
H949 C941 0.960 . S
H950 C942 0.930 . S
H951 C943 0.929 . S
H952 C960 0.929 . S
H953 C962 0.930 . S
H954 C964 0.930 . S
H955 C967 0.929 . S
H956 C970 0.930 . S
H957 C972 0.960 . S
H958 C972 0.960 . S
H959 C972 0.960 . S
C960 H952 0.929 . S
C960 C961 1.377 . S
C960 C962 1.384 . S
C961 C960 1.377 . S
C961 C967 1.390 . S
C962 H953 0.930 . S
C962 C960 1.384 . S
C962 C963 1.372 . S
C963 C962 1.372 . S
C963 C964 1.400 . S
C963 C968 1.490 . S
C964 H954 0.930 . S
C964 C963 1.400 . S
C964 C967 1.386 . S
H965 C981 0.930 . S
H966 C982 0.931 . S
C967 H955 0.929 . S
C967 C961 1.390 . S
C967 C964 1.386 . S
C968 C963 1.490 . S
C968 C970 1.395 . S
C968 C971 1.403 . S
H969 C975 0.930 . S
C970 H956 0.930 . S
C970 C968 1.395 . S
C970 C973 1.403 . S
C971 C968 1.403 . S
C971 C972 1.524 . S
C971 C975 1.400 . S
C972 H957 0.960 . S
C972 H958 0.960 . S
C972 H959 0.960 . S
C972 C971 1.524 . S
C973 C970 1.403 . S
C973 C974 1.392 . S
C973 C977 1.495 . S
C974 C973 1.392 . S
C974 C975 1.385 . S
C974 C976 1.478 . S
C975 H969 0.930 . S
C975 C971 1.400 . S
C975 C974 1.385 . S
C976 C974 1.478 . S
C976 C978 1.381 . S
C976 C982 1.383 . S
C977 C973 1.495 . S
C977 H983 0.959 . S
C977 H984 0.961 . S
C977 H985 0.960 . S
C978 C976 1.381 . S
C978 C979 1.394 . S
C978 H986 0.930 . S
C979 C978 1.394 . S
C979 C980 1.383 . S
C979 H987 0.929 . S
C980 C979 1.383 . S
C980 C981 1.377 . S
C981 H965 0.930 . S
C981 C980 1.377 . S
C981 C982 1.379 . S
C982 H966 0.931 . S
C982 C976 1.383 . S
C982 C981 1.379 . S
H983 C977 0.959 . S
H984 C977 0.961 . S
H985 C977 0.960 . S
H986 C978 0.930 . S
H987 C979 0.929 . S
H988 C996 0.929 . S
H989 C998 0.930 . S
H990 C1000 0.930 . S
H991 C1003 0.929 . S
H992 C1006 0.930 . S
H993 C1008 0.960 . S
H994 C1008 0.960 . S
H995 C1008 0.960 . S
C996 H988 0.929 . S
C996 C997 1.377 . S
C996 C998 1.384 . S
C997 C996 1.377 . S
C997 C1003 1.390 . S
C998 H989 0.930 . S
C998 C996 1.384 . S
C998 C999 1.372 . S
C999 C998 1.372 . S
C999 C1000 1.400 . S
C999 C1004 1.490 . S
C1000 H990 0.930 . S
C1000 C999 1.400 . S
C1000 C1003 1.386 . S
H1001 C1017 0.930 . S
H1002 C1018 0.931 . S
C1003 H991 0.929 . S
C1003 C997 1.390 . S
C1003 C1000 1.386 . S
C1004 C999 1.490 . S
C1004 C1006 1.395 . S
C1004 C1007 1.403 . S
H1005 C1011 0.930 . S
C1006 H992 0.930 . S
C1006 C1004 1.395 . S
C1006 C1009 1.403 . S
C1007 C1004 1.403 . S
C1007 C1008 1.524 . S
C1007 C1011 1.400 . S
C1008 H993 0.960 . S
C1008 H994 0.960 . S
C1008 H995 0.960 . S
C1008 C1007 1.524 . S
C1009 C1006 1.403 . S
C1009 C1010 1.392 . S
C1009 C1013 1.495 . S
C1010 C1009 1.392 . S
C1010 C1011 1.385 . S
C1010 C1012 1.478 . S
C1011 H1005 0.930 . S
C1011 C1007 1.400 . S
C1011 C1010 1.385 . S
C1012 C1010 1.478 . S
C1012 C1014 1.381 . S
C1012 C1018 1.383 . S
C1013 C1009 1.495 . S
C1013 H1019 0.959 . S
C1013 H1020 0.961 . S
C1013 H1021 0.960 . S
C1014 C1012 1.381 . S
C1014 C1015 1.394 . S
C1014 H1022 0.930 . S
C1015 C1014 1.394 . S
C1015 C1016 1.383 . S
C1015 H1023 0.929 . S
C1016 C1015 1.383 . S
C1016 C1017 1.377 . S
C1017 H1001 0.930 . S
C1017 C1016 1.377 . S
C1017 C1018 1.379 . S
C1018 H1002 0.931 . S
C1018 C1012 1.383 . S
C1018 C1017 1.379 . S
H1019 C1013 0.959 . S
H1020 C1013 0.961 . S
H1021 C1013 0.960 . S
H1022 C1014 0.930 . S
H1023 C1015 0.929 . S
H1024 C1032 0.929 . S
H1025 C1034 0.930 . S
H1026 C1036 0.930 . S
H1027 C1039 0.929 . S
H1028 C1042 0.930 1_545 S
H1029 C1044 0.960 . S
H1030 C1044 0.960 . S
H1031 C1044 0.969 . S
C1032 H1024 0.929 . S
C1032 C1033 1.377 . S
C1032 C1034 1.384 . S
C1033 C1032 1.377 . S
C1033 C1039 1.390 1_554 S
C1034 H1025 0.930 . S
C1034 C1032 1.384 . S
C1034 C1035 1.372 1_545 S
C1035 C1034 1.372 1_565 S
C1035 C1036 1.400 1_554 S
C1035 C1040 1.490 . S
C1036 H1026 0.930 . S
C1036 C1035 1.400 1_556 S
C1036 C1039 1.386 1_565 S
H1037 C1053 0.930 . S
H1038 C1054 0.931 . S
C1039 H1027 0.929 . S
C1039 C1033 1.390 1_556 S
C1039 C1036 1.386 1_545 S
C1040 C1035 1.490 . S
C1040 C1042 1.395 1_554 S
C1040 C1043 1.403 . S
H1041 C1047 0.930 . S
C1042 H1028 0.930 1_565 S
C1042 C1040 1.395 1_556 S
C1042 C1045 1.403 . S
C1043 C1040 1.403 . S
C1043 C1044 1.524 . S
C1043 C1047 1.400 . S
C1044 H1029 0.960 . S
C1044 H1030 0.960 . S
C1044 H1031 0.969 . S
C1044 C1043 1.524 . S
C1045 C1042 1.403 . S
C1045 C1046 1.390 1_556 S
C1045 C1049 1.495 . S
C1046 C1045 1.390 1_554 S
C1046 C1047 1.388 . S
C1046 C1048 1.478 1_554 S
C1047 H1041 0.930 . S
C1047 C1043 1.400 . S
C1047 C1046 1.388 . S
C1048 C1046 1.478 1_556 S
C1048 C1050 1.375 1_556 S
C1048 C1054 1.389 . S
C1049 C1045 1.495 . S
C1049 H1055 0.959 1_565 S
C1049 H1056 0.961 . S
C1049 H1057 0.960 1_556 S
C1050 C1048 1.375 1_554 S
C1050 C1051 1.394 . S
C1050 H1058 0.930 . S
C1051 C1050 1.394 . S
C1051 C1052 1.358 1_554 S
C1051 H1059 0.929 . S
C1052 C1051 1.358 1_556 S
C1052 C1053 1.403 . S
C1053 H1037 0.930 . S
C1053 C1052 1.403 . S
C1053 C1054 1.379 . S
C1054 H1038 0.931 . S
C1054 C1048 1.389 . S
C1054 C1053 1.379 . S
H1055 C1049 0.959 1_545 S
H1056 C1049 0.961 . S
H1057 C1049 0.960 1_554 S
H1058 C1050 0.930 . S
H1059 C1051 0.929 . S
H1060 C1068 0.929 . S
H1061 C1070 0.930 . S
H1062 C1072 0.930 . S
H1063 C1075 0.929 . S
H1064 C1078 0.930 . S
H1065 C1080 0.960 . S
H1066 C1080 0.960 . S
H1067 C1080 0.960 . S
C1068 H1060 0.929 . S
C1068 C1069 1.377 . S
C1068 C1070 1.384 . S
C1069 C1068 1.377 . S
C1069 C1075 1.390 . S
C1070 H1061 0.930 . S
C1070 C1068 1.384 . S
C1070 C1071 1.372 . S
C1071 C1070 1.372 . S
C1071 C1072 1.400 . S
C1071 C1076 1.490 . S
C1072 H1062 0.930 . S
C1072 C1071 1.400 . S
C1072 C1075 1.386 . S
H1073 C1089 0.930 . S
H1074 C1090 0.931 . S
C1075 H1063 0.929 . S
C1075 C1069 1.390 . S
C1075 C1072 1.386 . S
C1076 C1071 1.490 . S
C1076 C1078 1.395 . S
C1076 C1079 1.403 . S
H1077 C1083 0.930 . S
C1078 H1064 0.930 . S
C1078 C1076 1.395 . S
C1078 C1081 1.403 . S
C1079 C1076 1.403 . S
C1079 C1080 1.524 . S
C1079 C1083 1.400 . S
C1080 H1065 0.960 . S
C1080 H1066 0.960 . S
C1080 H1067 0.960 . S
C1080 C1079 1.524 . S
C1081 C1078 1.403 . S
C1081 C1082 1.392 . S
C1081 C1085 1.495 . S
C1082 C1081 1.392 . S
C1082 C1083 1.385 . S
C1082 C1084 1.478 . S
C1083 H1077 0.930 . S
C1083 C1079 1.400 . S
C1083 C1082 1.385 . S
C1084 C1082 1.478 . S
C1084 C1086 1.381 . S
C1084 C1090 1.383 . S
C1085 C1081 1.495 . S
C1085 H1091 0.959 . S
C1085 H1092 0.961 . S
C1085 H1093 0.960 . S
C1086 C1084 1.381 . S
C1086 C1087 1.394 . S
C1086 H1094 0.930 . S
C1087 C1086 1.394 . S
C1087 C1088 1.383 . S
C1087 H1095 0.929 . S
C1088 C1087 1.383 . S
C1088 C1089 1.377 . S
C1089 H1073 0.930 . S
C1089 C1088 1.377 . S
C1089 C1090 1.379 . S
C1090 H1074 0.931 . S
C1090 C1084 1.383 . S
C1090 C1089 1.379 . S
H1091 C1085 0.959 . S
H1092 C1085 0.961 . S
H1093 C1085 0.960 . S
H1094 C1086 0.930 . S
H1095 C1087 0.929 . S
H1096 C1104 0.929 . S
H1097 C1106 0.930 . S
H1098 C1108 0.930 . S
H1099 C1111 0.929 1_565 S
H1100 C1114 0.930 . S
H1101 C1116 0.960 . S
H1102 C1116 0.960 . S
H1103 C1116 0.960 . S
C1104 H1096 0.929 . S
C1104 C1105 1.377 . S
C1104 C1106 1.384 . S
C1105 C1104 1.377 . S
C1105 C1111 1.390 . S
C1106 H1097 0.930 . S
C1106 C1104 1.384 . S
C1106 C1107 1.372 . S
C1107 C1106 1.372 . S
C1107 C1108 1.400 . S
C1107 C1112 1.490 . S
C1108 H1098 0.930 . S
C1108 C1107 1.400 . S
C1108 C1111 1.386 . S
H1109 C1125 0.930 . S
H1110 C1126 0.931 . S
C1111 H1099 0.929 1_545 S
C1111 C1105 1.390 . S
C1111 C1108 1.386 . S
C1112 C1107 1.490 . S
C1112 C1114 1.395 . S
C1112 C1115 1.403 . S
H1113 C1119 0.930 . S
C1114 H1100 0.930 . S
C1114 C1112 1.395 . S
C1114 C1117 1.403 . S
C1115 C1112 1.403 . S
C1115 C1116 1.524 . S
C1115 C1119 1.400 . S
C1116 H1101 0.960 . S
C1116 H1102 0.960 . S
C1116 H1103 0.960 . S
C1116 C1115 1.524 . S
C1117 C1114 1.403 . S
C1117 C1118 1.392 . S
C1117 C1121 1.495 . S
C1118 C1117 1.392 . S
C1118 C1119 1.385 . S
C1118 C1120 1.478 . S
C1119 H1113 0.930 . S
C1119 C1115 1.400 . S
C1119 C1118 1.385 . S
C1120 C1118 1.478 . S
C1120 C1122 1.381 . S
C1120 C1126 1.383 . S
C1121 C1117 1.495 . S
C1121 H1127 0.959 . S
C1121 H1128 0.961 . S
C1121 H1129 0.960 . S
C1122 C1120 1.381 . S
C1122 C1123 1.394 . S
C1122 H1130 0.930 . S
C1123 C1122 1.394 . S
C1123 C1124 1.383 . S
C1123 H1131 0.929 . S
C1124 C1123 1.383 . S
C1124 C1125 1.377 . S
C1125 H1109 0.930 . S
C1125 C1124 1.377 . S
C1125 C1126 1.379 . S
C1126 H1110 0.931 . S
C1126 C1120 1.383 . S
C1126 C1125 1.379 . S
H1127 C1121 0.959 . S
H1128 C1121 0.961 . S
H1129 C1121 0.960 . S
H1130 C1122 0.930 . S
H1131 C1123 0.929 . S
H1132 C1140 0.929 . S
H1133 C1142 0.930 . S
H1134 C1144 0.930 . S
H1135 C1147 0.929 . S
H1136 C1150 0.930 . S
H1137 C1152 0.960 . S
H1138 C1152 0.960 . S
H1139 C1152 0.960 . S
C1140 H1132 0.929 . S
C1140 C1141 1.377 . S
C1140 C1142 1.384 . S
C1141 C1140 1.377 . S
C1141 C1147 1.390 . S
C1142 H1133 0.930 . S
C1142 C1140 1.384 . S
C1142 C1143 1.372 . S
C1143 C1142 1.372 . S
C1143 C1144 1.400 . S
C1143 C1148 1.490 . S
C1144 H1134 0.930 . S
C1144 C1143 1.400 . S
C1144 C1147 1.386 . S
H1145 C1161 0.930 . S
H1146 C1162 0.931 . S
C1147 H1135 0.929 . S
C1147 C1141 1.390 . S
C1147 C1144 1.386 . S
C1148 C1143 1.490 . S
C1148 C1150 1.395 . S
C1148 C1151 1.403 . S
H1149 C1155 0.930 . S
C1150 H1136 0.930 . S
C1150 C1148 1.395 . S
C1150 C1153 1.403 . S
C1151 C1148 1.403 . S
C1151 C1152 1.524 . S
C1151 C1155 1.400 . S
C1152 H1137 0.960 . S
C1152 H1138 0.960 . S
C1152 H1139 0.960 . S
C1152 C1151 1.524 . S
C1153 C1150 1.403 . S
C1153 C1154 1.392 . S
C1153 C1157 1.495 . S
C1154 C1153 1.392 . S
C1154 C1155 1.385 . S
C1154 C1156 1.478 . S
C1155 H1149 0.930 . S
C1155 C1151 1.400 . S
C1155 C1154 1.385 . S
C1156 C1154 1.478 . S
C1156 C1158 1.381 . S
C1156 C1162 1.383 . S
C1157 C1153 1.495 . S
C1157 H1163 0.959 . S
C1157 H1164 0.961 . S
C1157 H1165 0.960 . S
C1158 C1156 1.381 . S
C1158 C1159 1.394 . S
C1158 H1166 0.930 . S
C1159 C1158 1.394 . S
C1159 C1160 1.383 . S
C1159 H1167 0.929 . S
C1160 C1159 1.383 . S
C1160 C1161 1.377 . S
C1161 H1145 0.930 . S
C1161 C1160 1.377 . S
C1161 C1162 1.379 . S
C1162 H1146 0.931 . S
C1162 C1156 1.383 . S
C1162 C1161 1.379 . S
H1163 C1157 0.959 . S
H1164 C1157 0.961 . S
H1165 C1157 0.960 . S
H1166 C1158 0.930 . S
H1167 C1159 0.929 . S
H1168 C1176 0.929 . S
H1169 C1178 0.930 . S
H1170 C1180 0.930 . S
H1171 C1183 0.929 . S
H1172 C1186 0.930 . S
H1173 C1188 0.960 . S
H1174 C1188 0.960 . S
H1175 C1188 0.960 . S
C1176 H1168 0.929 . S
C1176 C1177 1.377 1_545 S
C1176 C1178 1.384 . S
C1177 C1176 1.377 1_565 S
C1177 C1183 1.390 . S
C1178 H1169 0.930 . S
C1178 C1176 1.384 . S
C1178 C1179 1.372 . S
C1179 C1178 1.372 . S
C1179 C1180 1.400 1_545 S
C1179 C1184 1.490 . S
C1180 H1170 0.930 . S
C1180 C1179 1.400 1_565 S
C1180 C1183 1.386 . S
H1181 C1197 0.930 . S
H1182 C1198 0.931 . S
C1183 H1171 0.929 . S
C1183 C1177 1.390 . S
C1183 C1180 1.386 . S
C1184 C1179 1.490 . S
C1184 C1186 1.395 . S
C1184 C1187 1.403 . S
H1185 C1191 0.930 . S
C1186 H1172 0.930 . S
C1186 C1184 1.395 . S
C1186 C1189 1.403 . S
C1187 C1184 1.403 . S
C1187 C1188 1.524 1_545 S
C1187 C1191 1.400 . S
C1188 H1173 0.960 . S
C1188 H1174 0.960 . S
C1188 H1175 0.960 . S
C1188 C1187 1.524 1_565 S
C1189 C1186 1.403 . S
C1189 C1190 1.392 . S
C1189 C1193 1.495 . S
C1190 C1189 1.392 . S
C1190 C1191 1.385 . S
C1190 C1192 1.478 . S
C1191 H1185 0.930 . S
C1191 C1187 1.400 . S
C1191 C1190 1.385 . S
C1192 C1190 1.478 . S
C1192 C1194 1.381 . S
C1192 C1198 1.383 . S
C1193 C1189 1.495 . S
C1193 H1199 0.959 . S
C1193 H1200 0.961 . S
C1193 H1201 0.960 . S
C1194 C1192 1.381 . S
C1194 C1195 1.394 . S
C1194 H1202 0.930 . S
C1195 C1194 1.394 . S
C1195 C1196 1.383 . S
C1195 H1203 0.929 . S
C1196 C1195 1.383 . S
C1196 C1197 1.377 . S
C1197 H1181 0.930 . S
C1197 C1196 1.377 . S
C1197 C1198 1.379 . S
C1198 H1182 0.931 . S
C1198 C1192 1.383 . S
C1198 C1197 1.379 . S
H1199 C1193 0.959 . S
H1200 C1193 0.961 . S
H1201 C1193 0.960 . S
H1202 C1194 0.930 . S
H1203 C1195 0.929 . S
H1204 C1212 0.929 . S
H1205 C1214 0.930 . S
H1206 C1216 0.930 . S
H1207 C1219 0.929 . S
H1208 C1222 0.930 . S
H1209 C1224 0.960 . S
H1210 C1224 0.960 . S
H1211 C1224 0.960 . S
C1212 H1204 0.929 . S
C1212 C1213 1.377 . S
C1212 C1214 1.384 . S
C1213 C1212 1.377 . S
C1213 C1219 1.390 . S
C1214 H1205 0.930 . S
C1214 C1212 1.384 . S
C1214 C1215 1.372 . S
C1215 C1214 1.372 . S
C1215 C1216 1.400 . S
C1215 C1220 1.490 . S
C1216 H1206 0.930 . S
C1216 C1215 1.400 . S
C1216 C1219 1.386 . S
H1217 C1233 0.930 . S
H1218 C1234 0.931 . S
C1219 H1207 0.929 . S
C1219 C1213 1.390 . S
C1219 C1216 1.386 . S
C1220 C1215 1.490 . S
C1220 C1222 1.395 . S
C1220 C1223 1.403 . S
H1221 C1227 0.930 . S
C1222 H1208 0.930 . S
C1222 C1220 1.395 . S
C1222 C1225 1.403 . S
C1223 C1220 1.403 . S
C1223 C1224 1.524 . S
C1223 C1227 1.400 . S
C1224 H1209 0.960 . S
C1224 H1210 0.960 . S
C1224 H1211 0.960 . S
C1224 C1223 1.524 . S
C1225 C1222 1.403 . S
C1225 C1226 1.392 . S
C1225 C1229 1.495 . S
C1226 C1225 1.392 . S
C1226 C1227 1.385 . S
C1226 C1228 1.478 . S
C1227 H1221 0.930 . S
C1227 C1223 1.400 . S
C1227 C1226 1.385 . S
C1228 C1226 1.478 . S
C1228 C1230 1.381 . S
C1228 C1234 1.383 . S
C1229 C1225 1.495 . S
C1229 H1235 0.959 . S
C1229 H1236 0.961 . S
C1229 H1237 0.960 . S
C1230 C1228 1.381 . S
C1230 C1231 1.394 . S
C1230 H1238 0.930 . S
C1231 C1230 1.394 . S
C1231 C1232 1.383 . S
C1231 H1239 0.929 . S
C1232 C1231 1.383 . S
C1232 C1233 1.377 . S
C1233 H1217 0.930 . S
C1233 C1232 1.377 . S
C1233 C1234 1.379 . S
C1234 H1218 0.931 . S
C1234 C1228 1.383 . S
C1234 C1233 1.379 . S
H1235 C1229 0.959 . S
H1236 C1229 0.961 . S
H1237 C1229 0.960 . S
H1238 C1230 0.930 . S
H1239 C1231 0.929 . S
H1240 C1248 0.929 . S
H1241 C1250 0.930 . S
H1242 C1252 0.930 . S
H1243 C1255 0.929 . S
H1244 C1258 0.930 . S
H1245 C1260 0.960 . S
H1246 C1260 0.960 . S
H1247 C1260 0.960 . S
C1248 H1240 0.929 . S
C1248 C1249 1.377 . S
C1248 C1250 1.384 . S
C1249 C1248 1.377 . S
C1249 C1255 1.390 . S
C1250 H1241 0.930 . S
C1250 C1248 1.384 . S
C1250 C1251 1.372 . S
C1251 C1250 1.372 . S
C1251 C1252 1.400 . S
C1251 C1256 1.490 . S
C1252 H1242 0.930 . S
C1252 C1251 1.400 . S
C1252 C1255 1.386 . S
H1253 C1269 0.930 . S
H1254 C1270 0.931 . S
C1255 H1243 0.929 . S
C1255 C1249 1.390 . S
C1255 C1252 1.386 . S
C1256 C1251 1.490 . S
C1256 C1258 1.395 . S
C1256 C1259 1.403 . S
H1257 C1263 0.930 . S
C1258 H1244 0.930 . S
C1258 C1256 1.395 . S
C1258 C1261 1.403 . S
C1259 C1256 1.403 . S
C1259 C1260 1.524 . S
C1259 C1263 1.400 . S
C1260 H1245 0.960 . S
C1260 H1246 0.960 . S
C1260 H1247 0.960 . S
C1260 C1259 1.524 . S
C1261 C1258 1.403 . S
C1261 C1262 1.392 . S
C1261 C1265 1.495 . S
C1262 C1261 1.392 . S
C1262 C1263 1.385 . S
C1262 C1264 1.478 . S
C1263 H1257 0.930 . S
C1263 C1259 1.400 . S
C1263 C1262 1.385 . S
C1264 C1262 1.478 . S
C1264 C1266 1.381 . S
C1264 C1270 1.383 . S
C1265 C1261 1.495 . S
C1265 H1271 0.959 . S
C1265 H1272 0.961 . S
C1265 H1273 0.960 . S
C1266 C1264 1.381 . S
C1266 C1267 1.394 . S
C1266 H1274 0.930 . S
C1267 C1266 1.394 . S
C1267 C1268 1.383 . S
C1267 H1275 0.929 . S
C1268 C1267 1.383 . S
C1268 C1269 1.377 . S
C1269 H1253 0.930 . S
C1269 C1268 1.377 . S
C1269 C1270 1.379 . S
C1270 H1254 0.931 . S
C1270 C1264 1.383 . S
C1270 C1269 1.379 . S
H1271 C1265 0.959 . S
H1272 C1265 0.961 . S
H1273 C1265 0.960 . S
H1274 C1266 0.930 . S
H1275 C1267 0.929 . S
H1276 C1284 0.929 . S
H1277 C1286 0.930 . S
H1278 C1288 0.930 . S
H1279 C1291 0.929 . S
H1280 C1294 0.930 . S
H1281 C1296 0.960 . S
H1282 C1296 0.960 . S
H1283 C1296 0.960 . S
C1284 H1276 0.929 . S
C1284 C1285 1.377 . S
C1284 C1286 1.384 . S
C1285 C1284 1.377 . S
C1285 C1291 1.390 . S
C1286 H1277 0.930 . S
C1286 C1284 1.384 . S
C1286 C1287 1.372 . S
C1287 C1286 1.372 . S
C1287 C1288 1.400 . S
C1287 C1292 1.490 . S
C1288 H1278 0.930 . S
C1288 C1287 1.400 . S
C1288 C1291 1.386 . S
H1289 C1305 0.930 . S
H1290 C1306 0.931 . S
C1291 H1279 0.929 . S
C1291 C1285 1.390 . S
C1291 C1288 1.386 . S
C1292 C1287 1.490 . S
C1292 C1294 1.395 . S
C1292 C1295 1.403 . S
H1293 C1299 0.930 . S
C1294 H1280 0.930 . S
C1294 C1292 1.395 . S
C1294 C1297 1.403 . S
C1295 C1292 1.403 . S
C1295 C1296 1.524 . S
C1295 C1299 1.400 . S
C1296 H1281 0.960 . S
C1296 H1282 0.960 . S
C1296 H1283 0.960 . S
C1296 C1295 1.524 . S
C1297 C1294 1.403 . S
C1297 C1298 1.392 . S
C1297 C1301 1.495 . S
C1298 C1297 1.392 . S
C1298 C1299 1.385 . S
C1298 C1300 1.478 . S
C1299 H1293 0.930 . S
C1299 C1295 1.400 . S
C1299 C1298 1.385 . S
C1300 C1298 1.478 . S
C1300 C1302 1.381 1_545 S
C1300 C1306 1.383 . S
C1301 C1297 1.495 . S
C1301 H1307 0.959 . S
C1301 H1308 0.961 . S
C1301 H1309 0.960 . S
C1302 C1300 1.381 1_565 S
C1302 C1303 1.394 . S
C1302 H1310 0.930 . S
C1303 C1302 1.394 . S
C1303 C1304 1.383 1_565 S
C1303 H1311 0.929 . S
C1304 C1303 1.383 1_545 S
C1304 C1305 1.377 . S
C1305 H1289 0.930 . S
C1305 C1304 1.377 . S
C1305 C1306 1.379 . S
C1306 H1290 0.931 . S
C1306 C1300 1.383 . S
C1306 C1305 1.379 . S
H1307 C1301 0.959 . S
H1308 C1301 0.961 . S
H1309 C1301 0.960 . S
H1310 C1302 0.930 . S
H1311 C1303 0.929 . S
H1312 C1320 0.929 . S
H1313 C1322 0.930 . S
H1314 C1324 0.930 . S
H1315 C1327 0.929 . S
H1316 C1330 0.930 . S
H1317 C1332 0.960 . S
H1318 C1332 0.960 . S
H1319 C1332 0.960 . S
C1320 H1312 0.929 . S
C1320 C1321 1.377 . S
C1320 C1322 1.384 . S
C1321 C1320 1.377 . S
C1321 C1327 1.390 . S
C1322 H1313 0.930 . S
C1322 C1320 1.384 . S
C1322 C1323 1.372 . S
C1323 C1322 1.372 . S
C1323 C1324 1.400 . S
C1323 C1328 1.490 . S
C1324 H1314 0.930 . S
C1324 C1323 1.400 . S
C1324 C1327 1.386 . S
H1325 C1341 0.930 . S
H1326 C1342 0.931 . S
C1327 H1315 0.929 . S
C1327 C1321 1.390 . S
C1327 C1324 1.386 . S
C1328 C1323 1.490 . S
C1328 C1330 1.395 . S
C1328 C1331 1.403 . S
H1329 C1335 0.930 . S
C1330 H1316 0.930 . S
C1330 C1328 1.395 . S
C1330 C1333 1.403 . S
C1331 C1328 1.403 . S
C1331 C1332 1.524 . S
C1331 C1335 1.400 . S
C1332 H1317 0.960 . S
C1332 H1318 0.960 . S
C1332 H1319 0.960 . S
C1332 C1331 1.524 . S
C1333 C1330 1.403 . S
C1333 C1334 1.392 . S
C1333 C1337 1.495 . S
C1334 C1333 1.392 . S
C1334 C1335 1.385 . S
C1334 C1336 1.478 . S
C1335 H1329 0.930 . S
C1335 C1331 1.400 . S
C1335 C1334 1.385 . S
C1336 C1334 1.478 . S
C1336 C1338 1.381 . S
C1336 C1342 1.383 . S
C1337 C1333 1.495 . S
C1337 H1343 0.959 . S
C1337 H1344 0.961 . S
C1337 H1345 0.960 . S
C1338 C1336 1.381 . S
C1338 C1339 1.394 . S
C1338 H1346 0.930 . S
C1339 C1338 1.394 . S
C1339 C1340 1.383 . S
C1339 H1347 0.929 . S
C1340 C1339 1.383 . S
C1340 C1341 1.377 . S
C1341 H1325 0.930 . S
C1341 C1340 1.377 . S
C1341 C1342 1.379 . S
C1342 H1326 0.931 . S
C1342 C1336 1.383 . S
C1342 C1341 1.379 . S
H1343 C1337 0.959 . S
H1344 C1337 0.961 . S
H1345 C1337 0.960 . S
H1346 C1338 0.930 . S
H1347 C1339 0.929 . S
H1348 C1356 0.929 . S
H1349 C1358 0.930 . S
H1350 C1360 0.930 . S
H1351 C1363 0.929 . S
H1352 C1366 0.930 . S
H1353 C1368 0.960 . S
H1354 C1368 0.960 . S
H1355 C1368 0.960 . S
C1356 H1348 0.929 . S
C1356 C1357 1.377 . S
C1356 C1358 1.384 . S
C1357 C1356 1.377 . S
C1357 C1363 1.390 . S
C1358 H1349 0.930 . S
C1358 C1356 1.384 . S
C1358 C1359 1.372 . S
C1359 C1358 1.372 . S
C1359 C1360 1.400 . S
C1359 C1364 1.490 . S
C1360 H1350 0.930 . S
C1360 C1359 1.400 . S
C1360 C1363 1.386 . S
H1361 C1377 0.930 . S
H1362 C1378 0.931 . S
C1363 H1351 0.929 . S
C1363 C1357 1.390 . S
C1363 C1360 1.386 . S
C1364 C1359 1.490 . S
C1364 C1366 1.395 . S
C1364 C1367 1.403 . S
H1365 C1371 0.930 . S
C1366 H1352 0.930 . S
C1366 C1364 1.395 . S
C1366 C1369 1.403 . S
C1367 C1364 1.403 . S
C1367 C1368 1.524 . S
C1367 C1371 1.400 . S
C1368 H1353 0.960 . S
C1368 H1354 0.960 . S
C1368 H1355 0.960 . S
C1368 C1367 1.524 . S
C1369 C1366 1.403 . S
C1369 C1370 1.392 . S
C1369 C1373 1.495 . S
C1370 C1369 1.392 . S
C1370 C1371 1.385 . S
C1370 C1372 1.478 . S
C1371 H1365 0.930 . S
C1371 C1367 1.400 . S
C1371 C1370 1.385 . S
C1372 C1370 1.478 . S
C1372 C1374 1.381 . S
C1372 C1378 1.383 . S
C1373 C1369 1.495 . S
C1373 H1379 0.959 . S
C1373 H1380 0.961 . S
C1373 H1381 0.960 . S
C1374 C1372 1.381 . S
C1374 C1375 1.394 . S
C1374 H1382 0.930 . S
C1375 C1374 1.394 . S
C1375 C1376 1.383 . S
C1375 H1383 0.929 . S
C1376 C1375 1.383 . S
C1376 C1377 1.377 . S
C1377 H1361 0.930 . S
C1377 C1376 1.377 . S
C1377 C1378 1.379 . S
C1378 H1362 0.931 . S
C1378 C1372 1.383 . S
C1378 C1377 1.379 . S
H1379 C1373 0.959 . S
H1380 C1373 0.961 . S
H1381 C1373 0.960 . S
H1382 C1374 0.930 . S
H1383 C1375 0.929 . S
H1384 C1392 0.929 . S
H1385 C1394 0.930 . S
H1386 C1396 0.930 . S
H1387 C1399 0.929 . S
H1388 C1402 0.930 . S
H1389 C1404 0.960 . S
H1390 C1404 0.960 . S
H1391 C1404 0.960 . S
C1392 H1384 0.929 . S
C1392 C1393 1.377 . S
C1392 C1394 1.384 . S
C1393 C1392 1.377 . S
C1393 C1399 1.390 . S
C1394 H1385 0.930 . S
C1394 C1392 1.384 . S
C1394 C1395 1.372 . S
C1395 C1394 1.372 . S
C1395 C1396 1.400 . S
C1395 C1400 1.490 . S
C1396 H1386 0.930 . S
C1396 C1395 1.400 . S
C1396 C1399 1.386 . S
H1397 C1413 0.930 . S
H1398 C1414 0.931 . S
C1399 H1387 0.929 . S
C1399 C1393 1.390 . S
C1399 C1396 1.386 . S
C1400 C1395 1.490 . S
C1400 C1402 1.395 . S
C1400 C1403 1.403 . S
H1401 C1407 0.930 . S
C1402 H1388 0.930 . S
C1402 C1400 1.395 . S
C1402 C1405 1.403 . S
C1403 C1400 1.403 . S
C1403 C1404 1.524 . S
C1403 C1407 1.400 . S
C1404 H1389 0.960 . S
C1404 H1390 0.960 . S
C1404 H1391 0.960 . S
C1404 C1403 1.524 . S
C1405 C1402 1.403 . S
C1405 C1406 1.392 . S
C1405 C1409 1.495 . S
C1406 C1405 1.392 . S
C1406 C1407 1.385 . S
C1406 C1408 1.478 . S
C1407 H1401 0.930 . S
C1407 C1403 1.400 . S
C1407 C1406 1.385 . S
C1408 C1406 1.478 . S
C1408 C1410 1.381 . S
C1408 C1414 1.383 . S
C1409 C1405 1.495 . S
C1409 H1415 0.959 . S
C1409 H1416 0.961 . S
C1409 H1417 0.960 . S
C1410 C1408 1.381 . S
C1410 C1411 1.394 . S
C1410 H1418 0.930 . S
C1411 C1410 1.394 . S
C1411 C1412 1.383 . S
C1411 H1419 0.929 . S
C1412 C1411 1.383 . S
C1412 C1413 1.377 . S
C1413 H1397 0.930 . S
C1413 C1412 1.377 . S
C1413 C1414 1.379 . S
C1414 H1398 0.931 . S
C1414 C1408 1.383 . S
C1414 C1413 1.379 . S
H1415 C1409 0.959 . S
H1416 C1409 0.961 . S
H1417 C1409 0.960 . S
H1418 C1410 0.930 . S
H1419 C1411 0.929 . S
H1420 C1428 0.929 1_455 S
H1421 C1430 0.930 . S
H1422 C1432 0.930 . S
H1423 C1435 0.929 . S
H1424 C1438 0.930 . S
H1425 C1440 0.960 . S
H1426 C1440 0.960 1_565 S
H1427 C1440 0.960 . S
C1428 H1420 0.929 1_655 S
C1428 C1429 1.377 . S
C1428 C1430 1.384 . S
C1429 C1428 1.377 . S
C1429 C1435 1.390 . S
C1430 H1421 0.930 . S
C1430 C1428 1.384 . S
C1430 C1431 1.372 . S
C1431 C1430 1.372 . S
C1431 C1432 1.400 . S
C1431 C1436 1.490 . S
C1432 H1422 0.930 . S
C1432 C1431 1.400 . S
C1432 C1435 1.386 . S
H1433 C1449 0.930 . S
H1434 C1450 0.931 . S
C1435 H1423 0.929 . S
C1435 C1429 1.390 . S
C1435 C1432 1.386 . S
C1436 C1431 1.490 . S
C1436 C1438 1.395 . S
C1436 C1439 1.403 . S
H1437 C1443 0.930 . S
C1438 H1424 0.930 . S
C1438 C1436 1.395 . S
C1438 C1441 1.403 . S
C1439 C1436 1.403 . S
C1439 C1440 1.524 . S
C1439 C1443 1.400 . S
C1440 H1425 0.960 . S
C1440 H1426 0.960 1_545 S
C1440 H1427 0.960 . S
C1440 C1439 1.524 . S
C1441 C1438 1.403 . S
C1441 C1442 1.392 . S
C1441 C1445 1.495 . S
C1442 C1441 1.392 . S
C1442 C1443 1.385 . S
C1442 C1444 1.478 . S
C1443 H1437 0.930 . S
C1443 C1439 1.400 . S
C1443 C1442 1.385 . S
C1444 C1442 1.478 . S
C1444 C1446 1.381 . S
C1444 C1450 1.383 . S
C1445 C1441 1.495 . S
C1445 H1451 0.959 . S
C1445 H1452 0.961 . S
C1445 H1453 0.960 . S
C1446 C1444 1.381 . S
C1446 C1447 1.394 . S
C1446 H1454 0.930 . S
C1447 C1446 1.394 . S
C1447 C1448 1.383 . S
C1447 H1455 0.929 . S
C1448 C1447 1.383 . S
C1448 C1449 1.377 . S
C1449 H1433 0.930 . S
C1449 C1448 1.377 . S
C1449 C1450 1.379 . S
C1450 H1434 0.931 . S
C1450 C1444 1.383 . S
C1450 C1449 1.379 . S
H1451 C1445 0.959 . S
H1452 C1445 0.961 . S
H1453 C1445 0.960 . S
H1454 C1446 0.930 . S
H1455 C1447 0.929 . S
H1456 C1464 0.929 . S
H1457 C1466 0.930 . S
H1458 C1468 0.930 . S
H1459 C1471 0.929 . S
H1460 C1474 0.930 . S
H1461 C1476 0.960 . S
H1462 C1476 0.960 . S
H1463 C1476 0.960 . S
C1464 H1456 0.929 . S
C1464 C1465 1.377 . S
C1464 C1466 1.384 . S
C1465 C1464 1.377 . S
C1465 C1471 1.390 . S
C1466 H1457 0.930 . S
C1466 C1464 1.384 . S
C1466 C1467 1.372 . S
C1467 C1466 1.372 . S
C1467 C1468 1.400 . S
C1467 C1472 1.490 . S
C1468 H1458 0.930 . S
C1468 C1467 1.400 . S
C1468 C1471 1.386 . S
H1469 C1485 0.930 . S
H1470 C1486 0.931 . S
C1471 H1459 0.929 . S
C1471 C1465 1.390 . S
C1471 C1468 1.386 . S
C1472 C1467 1.490 . S
C1472 C1474 1.395 . S
C1472 C1475 1.403 . S
H1473 C1479 0.930 . S
C1474 H1460 0.930 . S
C1474 C1472 1.395 . S
C1474 C1477 1.403 . S
C1475 C1472 1.403 . S
C1475 C1476 1.524 . S
C1475 C1479 1.400 . S
C1476 H1461 0.960 . S
C1476 H1462 0.960 . S
C1476 H1463 0.960 . S
C1476 C1475 1.524 . S
C1477 C1474 1.403 . S
C1477 C1478 1.392 . S
C1477 C1481 1.495 . S
C1478 C1477 1.392 . S
C1478 C1479 1.385 . S
C1478 C1480 1.478 . S
C1479 H1473 0.930 . S
C1479 C1475 1.400 . S
C1479 C1478 1.385 . S
C1480 C1478 1.478 . S
C1480 C1482 1.381 . S
C1480 C1486 1.383 . S
C1481 C1477 1.495 . S
C1481 H1487 0.959 . S
C1481 H1488 0.961 . S
C1481 H1489 0.960 . S
C1482 C1480 1.381 . S
C1482 C1483 1.394 . S
C1482 H1490 0.930 . S
C1483 C1482 1.394 . S
C1483 C1484 1.383 . S
C1483 H1491 0.929 . S
C1484 C1483 1.383 . S
C1484 C1485 1.377 . S
C1485 H1469 0.930 . S
C1485 C1484 1.377 . S
C1485 C1486 1.379 . S
C1486 H1470 0.931 . S
C1486 C1480 1.383 . S
C1486 C1485 1.379 . S
H1487 C1481 0.959 . S
H1488 C1481 0.961 . S
H1489 C1481 0.960 . S
H1490 C1482 0.930 . S
H1491 C1483 0.929 . S
H1492 C1500 0.929 . S
H1493 C1502 0.930 . S
H1494 C1504 0.930 . S
H1495 C1507 0.929 1_655 S
H1496 C1510 0.930 . S
H1497 C1512 0.960 . S
H1498 C1512 0.960 . S
H1499 C1512 0.960 . S
C1500 H1492 0.929 . S
C1500 C1501 1.377 . S
C1500 C1502 1.384 . S
C1501 C1500 1.377 . S
C1501 C1507 1.390 . S
C1502 H1493 0.930 . S
C1502 C1500 1.384 . S
C1502 C1503 1.372 . S
C1503 C1502 1.372 . S
C1503 C1504 1.400 . S
C1503 C1508 1.490 . S
C1504 H1494 0.930 . S
C1504 C1503 1.400 . S
C1504 C1507 1.386 . S
H1505 C1521 0.930 . S
H1506 C1522 0.931 . S
C1507 H1495 0.929 1_455 S
C1507 C1501 1.390 . S
C1507 C1504 1.386 . S
C1508 C1503 1.490 . S
C1508 C1510 1.395 . S
C1508 C1511 1.403 . S
H1509 C1515 0.930 . S
C1510 H1496 0.930 . S
C1510 C1508 1.395 . S
C1510 C1513 1.403 . S
C1511 C1508 1.403 . S
C1511 C1512 1.524 . S
C1511 C1515 1.400 . S
C1512 H1497 0.960 . S
C1512 H1498 0.960 . S
C1512 H1499 0.960 . S
C1512 C1511 1.524 . S
C1513 C1510 1.403 . S
C1513 C1514 1.392 . S
C1513 C1517 1.495 . S
C1514 C1513 1.392 . S
C1514 C1515 1.385 . S
C1514 C1516 1.478 . S
C1515 H1509 0.930 . S
C1515 C1511 1.400 . S
C1515 C1514 1.385 . S
C1516 C1514 1.478 . S
C1516 C1518 1.381 . S
C1516 C1522 1.383 . S
C1517 C1513 1.495 . S
C1517 H1523 0.959 . S
C1517 H1524 0.961 . S
C1517 H1525 0.960 . S
C1518 C1516 1.381 . S
C1518 C1519 1.394 . S
C1518 H1526 0.930 . S
C1519 C1518 1.394 . S
C1519 C1520 1.383 . S
C1519 H1527 0.929 . S
C1520 C1519 1.383 . S
C1520 C1521 1.377 . S
C1521 H1505 0.930 . S
C1521 C1520 1.377 . S
C1521 C1522 1.379 . S
C1522 H1506 0.931 . S
C1522 C1516 1.383 . S
C1522 C1521 1.379 . S
H1523 C1517 0.959 . S
H1524 C1517 0.961 . S
H1525 C1517 0.960 . S
H1526 C1518 0.930 . S
H1527 C1519 0.929 . S
H1528 C1536 0.929 . S
H1529 C1538 0.930 . S
H1530 C1540 0.930 . S
H1531 C1543 0.929 . S
H1532 C1546 0.930 . S
H1533 C1548 0.960 . S
H1534 C1548 0.960 . S
H1535 C1548 0.960 . S
C1536 H1528 0.929 . S
C1536 C1537 1.377 . S
C1536 C1538 1.384 . S
C1537 C1536 1.377 . S
C1537 C1543 1.390 . S
C1538 H1529 0.930 . S
C1538 C1536 1.384 . S
C1538 C1539 1.372 . S
C1539 C1538 1.372 . S
C1539 C1540 1.400 . S
C1539 C1544 1.490 . S
C1540 H1530 0.930 . S
C1540 C1539 1.400 . S
C1540 C1543 1.386 . S
H1541 C1557 0.930 . S
H1542 C1558 0.931 . S
C1543 H1531 0.929 . S
C1543 C1537 1.390 . S
C1543 C1540 1.386 . S
C1544 C1539 1.490 . S
C1544 C1546 1.395 . S
C1544 C1547 1.403 . S
H1545 C1551 0.930 . S
C1546 H1532 0.930 . S
C1546 C1544 1.395 . S
C1546 C1549 1.403 . S
C1547 C1544 1.403 . S
C1547 C1548 1.524 . S
C1547 C1551 1.400 . S
C1548 H1533 0.960 . S
C1548 H1534 0.960 . S
C1548 H1535 0.960 . S
C1548 C1547 1.524 . S
C1549 C1546 1.403 . S
C1549 C1550 1.392 . S
C1549 C1553 1.495 . S
C1550 C1549 1.392 . S
C1550 C1551 1.385 . S
C1550 C1552 1.478 . S
C1551 H1545 0.930 . S
C1551 C1547 1.400 . S
C1551 C1550 1.385 . S
C1552 C1550 1.478 . S
C1552 C1554 1.381 . S
C1552 C1558 1.383 . S
C1553 C1549 1.495 . S
C1553 H1559 0.959 . S
C1553 H1560 0.961 . S
C1553 H1561 0.960 . S
C1554 C1552 1.381 . S
C1554 C1555 1.394 . S
C1554 H1562 0.930 . S
C1555 C1554 1.394 . S
C1555 C1556 1.383 . S
C1555 H1563 0.929 . S
C1556 C1555 1.383 . S
C1556 C1557 1.377 . S
C1557 H1541 0.930 . S
C1557 C1556 1.377 . S
C1557 C1558 1.379 . S
C1558 H1542 0.931 . S
C1558 C1552 1.383 . S
C1558 C1557 1.379 . S
H1559 C1553 0.959 . S
H1560 C1553 0.961 . S
H1561 C1553 0.960 . S
H1562 C1554 0.930 . S
H1563 C1555 0.929 . S
H1564 C1572 0.929 . S
H1565 C1574 0.930 . S
H1566 C1576 0.930 . S
H1567 C1579 0.929 . S
H1568 C1582 0.924 1_455 S
H1569 C1584 0.960 . S
H1570 C1584 0.960 . S
H1571 C1584 0.960 . S
C1572 H1564 0.929 . S
C1572 C1573 1.377 1_455 S
C1572 C1574 1.384 . S
C1573 C1572 1.377 1_655 S
C1573 C1579 1.390 . S
C1574 H1565 0.930 . S
C1574 C1572 1.384 . S
C1574 C1575 1.372 1_455 S
C1575 C1574 1.372 1_655 S
C1575 C1576 1.400 . S
C1575 C1580 1.481 1_554 S
C1576 H1566 0.930 . S
C1576 C1575 1.400 . S
C1576 C1579 1.386 . S
H1577 C1593 0.930 . S
H1578 C1594 0.931 . S
C1579 H1567 0.929 . S
C1579 C1573 1.390 . S
C1579 C1576 1.386 . S
C1580 C1575 1.481 1_556 S
C1580 C1582 1.409 1_556 S
C1580 C1583 1.415 . S
H1581 C1587 0.930 . S
C1582 H1568 0.924 1_655 S
C1582 C1580 1.409 1_554 S
C1582 C1585 1.393 1_654 S
C1583 C1580 1.415 . S
C1583 C1584 1.524 . S
C1583 C1587 1.400 . S
C1584 H1569 0.960 . S
C1584 H1570 0.960 . S
C1584 H1571 0.960 . S
C1584 C1583 1.524 . S
C1585 C1582 1.393 1_456 S
C1585 C1586 1.392 1_455 S
C1585 C1589 1.495 1_556 S
C1586 C1585 1.392 1_655 S
C1586 C1587 1.385 . S
C1586 C1588 1.487 . S
C1587 H1581 0.930 . S
C1587 C1583 1.400 . S
C1587 C1586 1.385 . S
C1588 C1586 1.487 . S
C1588 C1590 1.351 1_655 S
C1588 C1594 1.404 . S
C1589 C1585 1.495 1_554 S
C1589 H1595 0.959 . S
C1589 H1596 0.994 . S
C1589 H1597 0.960 1_554 S
C1590 C1588 1.351 1_455 S
C1590 C1591 1.394 . S
C1590 H1598 0.930 . S
C1591 C1590 1.394 . S
C1591 C1592 1.383 . S
C1591 H1599 0.929 . S
C1592 C1591 1.383 . S
C1592 C1593 1.377 1_455 S
C1593 H1577 0.930 . S
C1593 C1592 1.377 1_655 S
C1593 C1594 1.379 . S
C1594 H1578 0.931 . S
C1594 C1588 1.404 . S
C1594 C1593 1.379 . S
H1595 C1589 0.959 . S
H1596 C1589 0.994 . S
H1597 C1589 0.960 1_556 S
H1598 C1590 0.930 . S
H1599 C1591 0.929 . S
H1600 C1608 0.929 . S
H1601 C1610 0.930 . S
H1602 C1612 0.930 . S
H1603 C1615 0.929 . S
H1604 C1618 0.930 . S
H1605 C1620 0.960 . S
H1606 C1620 0.960 . S
H1607 C1620 0.960 . S
C1608 H1600 0.929 . S
C1608 C1609 1.377 . S
C1608 C1610 1.384 . S
C1609 C1608 1.377 . S
C1609 C1615 1.390 . S
C1610 H1601 0.930 . S
C1610 C1608 1.384 . S
C1610 C1611 1.372 . S
C1611 C1610 1.372 . S
C1611 C1612 1.400 . S
C1611 C1616 1.490 . S
C1612 H1602 0.930 . S
C1612 C1611 1.400 . S
C1612 C1615 1.386 . S
H1613 C1629 0.930 . S
H1614 C1630 0.931 . S
C1615 H1603 0.929 . S
C1615 C1609 1.390 . S
C1615 C1612 1.386 . S
C1616 C1611 1.490 . S
C1616 C1618 1.395 . S
C1616 C1619 1.403 . S
H1617 C1623 0.930 . S
C1618 H1604 0.930 . S
C1618 C1616 1.395 . S
C1618 C1621 1.403 . S
C1619 C1616 1.403 . S
C1619 C1620 1.524 . S
C1619 C1623 1.400 . S
C1620 H1605 0.960 . S
C1620 H1606 0.960 . S
C1620 H1607 0.960 . S
C1620 C1619 1.524 . S
C1621 C1618 1.403 . S
C1621 C1622 1.392 . S
C1621 C1625 1.495 . S
C1622 C1621 1.392 . S
C1622 C1623 1.385 . S
C1622 C1624 1.478 . S
C1623 H1617 0.930 . S
C1623 C1619 1.400 . S
C1623 C1622 1.385 . S
C1624 C1622 1.478 . S
C1624 C1626 1.381 . S
C1624 C1630 1.383 . S
C1625 C1621 1.495 . S
C1625 H1631 0.959 . S
C1625 H1632 0.961 . S
C1625 H1633 0.960 . S
C1626 C1624 1.381 . S
C1626 C1627 1.394 . S
C1626 H1634 0.930 . S
C1627 C1626 1.394 . S
C1627 C1628 1.383 . S
C1627 H1635 0.929 . S
C1628 C1627 1.383 . S
C1628 C1629 1.377 . S
C1629 H1613 0.930 . S
C1629 C1628 1.377 . S
C1629 C1630 1.379 . S
C1630 H1614 0.931 . S
C1630 C1624 1.383 . S
C1630 C1629 1.379 . S
H1631 C1625 0.959 . S
H1632 C1625 0.961 . S
H1633 C1625 0.960 . S
H1634 C1626 0.930 . S
H1635 C1627 0.929 . S
H1636 C1644 0.929 . S
H1637 C1646 0.930 . S
H1638 C1648 0.930 . S
H1639 C1651 0.929 . S
H1640 C1654 0.930 . S
H1641 C1656 0.960 . S
H1642 C1656 0.960 . S
H1643 C1656 0.960 . S
C1644 H1636 0.929 . S
C1644 C1645 1.377 1_556 S
C1644 C1646 1.384 . S
C1645 C1644 1.377 1_554 S
C1645 C1651 1.390 . S
C1646 H1637 0.930 . S
C1646 C1644 1.384 . S
C1646 C1647 1.372 . S
C1647 C1646 1.372 . S
C1647 C1648 1.400 1_556 S
C1647 C1652 1.490 . S
C1648 H1638 0.930 . S
C1648 C1647 1.400 1_554 S
C1648 C1651 1.386 . S
H1649 C1665 0.930 . S
H1650 C1666 0.931 . S
C1651 H1639 0.929 . S
C1651 C1645 1.390 . S
C1651 C1648 1.386 . S
C1652 C1647 1.490 . S
C1652 C1654 1.395 1_455 S
C1652 C1655 1.403 . S
H1653 C1659 0.930 . S
C1654 H1640 0.930 . S
C1654 C1652 1.395 1_655 S
C1654 C1657 1.403 . S
C1655 C1652 1.403 . S
C1655 C1656 1.524 . S
C1655 C1659 1.400 . S
C1656 H1641 0.960 . S
C1656 H1642 0.960 . S
C1656 H1643 0.960 . S
C1656 C1655 1.524 . S
C1657 C1654 1.403 . S
C1657 C1658 1.392 1_655 S
C1657 C1661 1.495 . S
C1658 C1657 1.392 1_455 S
C1658 C1659 1.385 . S
C1658 C1660 1.478 . S
C1659 H1653 0.930 . S
C1659 C1655 1.400 . S
C1659 C1658 1.385 . S
C1660 C1658 1.478 . S
C1660 C1662 1.381 . S
C1660 C1666 1.383 . S
C1661 C1657 1.495 . S
C1661 H1667 0.959 . S
C1661 H1668 0.961 . S
C1661 H1669 0.960 . S
C1662 C1660 1.381 . S
C1662 C1663 1.394 . S
C1662 H1670 0.927 . S
C1663 C1662 1.394 . S
C1663 C1664 1.383 . S
C1663 H1671 0.929 . S
C1664 C1663 1.383 . S
C1664 C1665 1.377 . S
C1665 H1649 0.930 . S
C1665 C1664 1.377 . S
C1665 C1666 1.379 . S
C1666 H1650 0.931 . S
C1666 C1660 1.383 . S
C1666 C1665 1.379 . S
H1667 C1661 0.959 . S
H1668 C1661 0.961 . S
H1669 C1661 0.960 . S
H1670 C1662 0.927 . S
H1671 C1663 0.929 . S
H1672 C1680 0.929 . S
H1673 C1682 0.930 . S
H1674 C1684 0.930 . S
H1675 C1687 0.929 . S
H1676 C1690 0.930 . S
H1677 C1692 0.960 . S
H1678 C1692 0.960 . S
H1679 C1692 0.960 . S
C1680 H1672 0.929 . S
C1680 C1681 1.377 . S
C1680 C1682 1.384 . S
C1681 C1680 1.377 . S
C1681 C1687 1.390 . S
C1682 H1673 0.930 . S
C1682 C1680 1.384 . S
C1682 C1683 1.372 . S
C1683 C1682 1.372 . S
C1683 C1684 1.400 . S
C1683 C1688 1.490 . S
C1684 H1674 0.930 . S
C1684 C1683 1.400 . S
C1684 C1687 1.386 . S
H1685 C1701 0.930 . S
H1686 C1702 0.931 . S
C1687 H1675 0.929 . S
C1687 C1681 1.390 . S
C1687 C1684 1.386 . S
C1688 C1683 1.490 . S
C1688 C1690 1.395 . S
C1688 C1691 1.403 . S
H1689 C1695 0.930 . S
C1690 H1676 0.930 . S
C1690 C1688 1.395 . S
C1690 C1693 1.403 . S
C1691 C1688 1.403 . S
C1691 C1692 1.524 . S
C1691 C1695 1.400 . S
C1692 H1677 0.960 . S
C1692 H1678 0.960 . S
C1692 H1679 0.960 . S
C1692 C1691 1.524 . S
C1693 C1690 1.403 . S
C1693 C1694 1.392 . S
C1693 C1697 1.495 . S
C1694 C1693 1.392 . S
C1694 C1695 1.385 . S
C1694 C1696 1.478 . S
C1695 H1689 0.930 . S
C1695 C1691 1.400 . S
C1695 C1694 1.385 . S
C1696 C1694 1.478 . S
C1696 C1698 1.381 . S
C1696 C1702 1.383 . S
C1697 C1693 1.495 . S
C1697 H1703 0.959 . S
C1697 H1704 0.961 . S
C1697 H1705 0.960 . S
C1698 C1696 1.381 . S
C1698 C1699 1.394 . S
C1698 H1706 0.930 . S
C1699 C1698 1.394 . S
C1699 C1700 1.383 . S
C1699 H1707 0.929 . S
C1700 C1699 1.383 . S
C1700 C1701 1.377 . S
C1701 H1685 0.930 . S
C1701 C1700 1.377 . S
C1701 C1702 1.379 . S
C1702 H1686 0.931 . S
C1702 C1696 1.383 . S
C1702 C1701 1.379 . S
H1703 C1697 0.959 . S
H1704 C1697 0.961 . S
H1705 C1697 0.960 . S
H1706 C1698 0.930 . S
H1707 C1699 0.929 . S
H1708 C1716 0.929 . S
H1709 C1718 0.930 . S
H1710 C1720 0.930 . S
H1711 C1723 0.929 . S
H1712 C1726 0.930 . S
H1713 C1728 0.960 . S
H1714 C1728 0.960 . S
H1715 C1728 0.960 . S
C1716 H1708 0.929 . S
C1716 C1717 1.377 . S
C1716 C1718 1.384 1_556 S
C1717 C1716 1.377 . S
C1717 C1723 1.390 1_556 S
C1718 H1709 0.930 . S
C1718 C1716 1.384 1_554 S
C1718 C1719 1.372 . S
C1719 C1718 1.372 . S
C1719 C1720 1.400 . S
C1719 C1724 1.490 . S
C1720 H1710 0.930 . S
C1720 C1719 1.400 . S
C1720 C1723 1.386 . S
H1721 C1737 0.930 . S
H1722 C1738 0.931 . S
C1723 H1711 0.929 . S
C1723 C1717 1.390 1_554 S
C1723 C1720 1.386 . S
C1724 C1719 1.490 . S
C1724 C1726 1.395 . S
C1724 C1727 1.403 . S
H1725 C1731 0.930 . S
C1726 H1712 0.930 . S
C1726 C1724 1.395 . S
C1726 C1729 1.403 . S
C1727 C1724 1.403 . S
C1727 C1728 1.524 . S
C1727 C1731 1.400 . S
C1728 H1713 0.960 . S
C1728 H1714 0.960 . S
C1728 H1715 0.960 . S
C1728 C1727 1.524 . S
C1729 C1726 1.403 . S
C1729 C1730 1.392 . S
C1729 C1733 1.495 . S
C1730 C1729 1.392 . S
C1730 C1731 1.385 . S
C1730 C1732 1.478 . S
C1731 H1725 0.930 . S
C1731 C1727 1.400 . S
C1731 C1730 1.385 . S
C1732 C1730 1.478 . S
C1732 C1734 1.381 . S
C1732 C1738 1.383 . S
C1733 C1729 1.495 . S
C1733 H1739 0.959 . S
C1733 H1740 0.961 . S
C1733 H1741 0.960 . S
C1734 C1732 1.381 . S
C1734 C1735 1.394 . S
C1734 H1742 0.930 . S
C1735 C1734 1.394 . S
C1735 C1736 1.383 . S
C1735 H1743 0.929 . S
C1736 C1735 1.383 . S
C1736 C1737 1.377 . S
C1737 H1721 0.930 . S
C1737 C1736 1.377 . S
C1737 C1738 1.379 . S
C1738 H1722 0.931 . S
C1738 C1732 1.383 . S
C1738 C1737 1.379 . S
H1739 C1733 0.959 . S
H1740 C1733 0.961 . S
H1741 C1733 0.960 . S
H1742 C1734 0.930 . S
H1743 C1735 0.929 . S
H1744 C1752 0.929 . S
H1745 C1754 0.930 . S
H1746 C1756 0.930 . S
H1747 C1759 0.929 . S
H1748 C1762 0.930 . S
H1749 C1764 0.960 . S
H1750 C1764 0.960 . S
H1751 C1764 0.960 . S
C1752 H1744 0.929 . S
C1752 C1753 1.377 . S
C1752 C1754 1.384 . S
C1753 C1752 1.377 . S
C1753 C1759 1.390 . S
C1754 H1745 0.930 . S
C1754 C1752 1.384 . S
C1754 C1755 1.372 . S
C1755 C1754 1.372 . S
C1755 C1756 1.400 . S
C1755 C1760 1.490 . S
C1756 H1746 0.930 . S
C1756 C1755 1.400 . S
C1756 C1759 1.386 . S
H1757 C1773 0.930 . S
H1758 C1774 0.931 . S
C1759 H1747 0.929 . S
C1759 C1753 1.390 . S
C1759 C1756 1.386 . S
C1760 C1755 1.490 . S
C1760 C1762 1.395 . S
C1760 C1763 1.403 . S
H1761 C1767 0.930 . S
C1762 H1748 0.930 . S
C1762 C1760 1.395 . S
C1762 C1765 1.403 . S
C1763 C1760 1.403 . S
C1763 C1764 1.524 . S
C1763 C1767 1.400 . S
C1764 H1749 0.960 . S
C1764 H1750 0.960 . S
C1764 H1751 0.960 . S
C1764 C1763 1.524 . S
C1765 C1762 1.403 . S
C1765 C1766 1.392 . S
C1765 C1769 1.495 . S
C1766 C1765 1.392 . S
C1766 C1767 1.385 . S
C1766 C1768 1.478 . S
C1767 H1761 0.930 . S
C1767 C1763 1.400 . S
C1767 C1766 1.385 . S
C1768 C1766 1.478 . S
C1768 C1770 1.381 . S
C1768 C1774 1.383 . S
C1769 C1765 1.495 . S
C1769 H1775 0.959 . S
C1769 H1776 0.961 . S
C1769 H1777 0.960 . S
C1770 C1768 1.381 . S
C1770 C1771 1.394 . S
C1770 H1778 0.930 . S
C1771 C1770 1.394 . S
C1771 C1772 1.383 . S
C1771 H1779 0.929 . S
C1772 C1771 1.383 . S
C1772 C1773 1.377 . S
C1773 H1757 0.930 . S
C1773 C1772 1.377 . S
C1773 C1774 1.379 . S
C1774 H1758 0.931 . S
C1774 C1768 1.383 . S
C1774 C1773 1.379 . S
H1775 C1769 0.959 . S
H1776 C1769 0.961 . S
H1777 C1769 0.960 . S
H1778 C1770 0.930 . S
H1779 C1771 0.929 . S
H1780 C1788 0.929 . S
H1781 C1790 0.930 . S
H1782 C1792 0.930 . S
H1783 C1795 0.929 . S
H1784 C1798 0.930 . S
H1785 C1800 0.960 . S
H1786 C1800 0.960 . S
H1787 C1800 0.960 . S
C1788 H1780 0.929 . S
C1788 C1789 1.377 . S
C1788 C1790 1.384 . S
C1789 C1788 1.377 . S
C1789 C1795 1.390 . S
C1790 H1781 0.930 . S
C1790 C1788 1.384 . S
C1790 C1791 1.372 . S
C1791 C1790 1.372 . S
C1791 C1792 1.400 . S
C1791 C1796 1.490 . S
C1792 H1782 0.930 . S
C1792 C1791 1.400 . S
C1792 C1795 1.386 . S
H1793 C1809 0.930 . S
H1794 C1810 0.931 . S
C1795 H1783 0.929 . S
C1795 C1789 1.390 . S
C1795 C1792 1.386 . S
C1796 C1791 1.490 . S
C1796 C1798 1.395 . S
C1796 C1799 1.403 . S
H1797 C1803 0.930 . S
C1798 H1784 0.930 . S
C1798 C1796 1.395 . S
C1798 C1801 1.403 . S
C1799 C1796 1.403 . S
C1799 C1800 1.524 . S
C1799 C1803 1.400 . S
C1800 H1785 0.960 . S
C1800 H1786 0.960 . S
C1800 H1787 0.960 . S
C1800 C1799 1.524 . S
C1801 C1798 1.403 . S
C1801 C1802 1.392 . S
C1801 C1805 1.495 . S
C1802 C1801 1.392 . S
C1802 C1803 1.385 . S
C1802 C1804 1.478 . S
C1803 H1797 0.930 . S
C1803 C1799 1.400 . S
C1803 C1802 1.385 . S
C1804 C1802 1.478 . S
C1804 C1806 1.381 . S
C1804 C1810 1.383 . S
C1805 C1801 1.495 . S
C1805 H1811 0.959 . S
C1805 H1812 0.961 . S
C1805 H1813 0.960 . S
C1806 C1804 1.381 . S
C1806 C1807 1.394 . S
C1806 H1814 0.930 . S
C1807 C1806 1.394 . S
C1807 C1808 1.383 . S
C1807 H1815 0.929 . S
C1808 C1807 1.383 . S
C1808 C1809 1.377 . S
C1809 H1793 0.930 . S
C1809 C1808 1.377 . S
C1809 C1810 1.379 . S
C1810 H1794 0.931 . S
C1810 C1804 1.383 . S
C1810 C1809 1.379 . S
H1811 C1805 0.959 . S
H1812 C1805 0.961 . S
H1813 C1805 0.960 . S
H1814 C1806 0.930 . S
H1815 C1807 0.929 . S
H1816 C1824 0.929 . S
H1817 C1826 0.930 . S
H1818 C1828 0.930 . S
H1819 C1831 0.929 . S
H1820 C1834 0.930 . S
H1821 C1836 0.960 . S
H1822 C1836 0.960 . S
H1823 C1836 0.960 . S
C1824 H1816 0.929 . S
C1824 C1825 1.377 . S
C1824 C1826 1.384 . S
C1825 C1824 1.377 . S
C1825 C1831 1.390 . S
C1826 H1817 0.930 . S
C1826 C1824 1.384 . S
C1826 C1827 1.372 . S
C1827 C1826 1.372 . S
C1827 C1828 1.400 . S
C1827 C1832 1.490 . S
C1828 H1818 0.930 . S
C1828 C1827 1.400 . S
C1828 C1831 1.386 . S
H1829 C1845 0.930 . S
H1830 C1846 0.931 . S
C1831 H1819 0.929 . S
C1831 C1825 1.390 . S
C1831 C1828 1.386 . S
C1832 C1827 1.490 . S
C1832 C1834 1.395 . S
C1832 C1835 1.403 . S
H1833 C1839 0.930 . S
C1834 H1820 0.930 . S
C1834 C1832 1.395 . S
C1834 C1837 1.403 . S
C1835 C1832 1.403 . S
C1835 C1836 1.524 . S
C1835 C1839 1.400 . S
C1836 H1821 0.960 . S
C1836 H1822 0.960 . S
C1836 H1823 0.960 . S
C1836 C1835 1.524 . S
C1837 C1834 1.403 . S
C1837 C1838 1.392 . S
C1837 C1841 1.495 . S
C1838 C1837 1.392 . S
C1838 C1839 1.385 . S
C1838 C1840 1.478 . S
C1839 H1833 0.930 . S
C1839 C1835 1.400 . S
C1839 C1838 1.385 . S
C1840 C1838 1.478 . S
C1840 C1842 1.381 . S
C1840 C1846 1.383 . S
C1841 C1837 1.495 . S
C1841 H1847 0.959 . S
C1841 H1848 0.961 . S
C1841 H1849 0.960 . S
C1842 C1840 1.381 . S
C1842 C1843 1.394 . S
C1842 H1850 0.930 . S
C1843 C1842 1.394 . S
C1843 C1844 1.383 . S
C1843 H1851 0.929 . S
C1844 C1843 1.383 . S
C1844 C1845 1.377 . S
C1845 H1829 0.930 . S
C1845 C1844 1.377 . S
C1845 C1846 1.379 . S
C1846 H1830 0.931 . S
C1846 C1840 1.383 . S
C1846 C1845 1.379 . S
H1847 C1841 0.959 . S
H1848 C1841 0.961 . S
H1849 C1841 0.960 . S
H1850 C1842 0.930 . S
H1851 C1843 0.929 . S
H1852 C1860 0.929 . S
H1853 C1862 0.930 . S
H1854 C1864 0.930 . S
H1855 C1867 0.929 . S
H1856 C1870 0.930 . S
H1857 C1872 0.960 . S
H1858 C1872 0.960 . S
H1859 C1872 0.960 . S
C1860 H1852 0.929 . S
C1860 C1861 1.377 . S
C1860 C1862 1.384 . S
C1861 C1860 1.377 . S
C1861 C1867 1.390 . S
C1862 H1853 0.930 . S
C1862 C1860 1.384 . S
C1862 C1863 1.372 . S
C1863 C1862 1.372 . S
C1863 C1864 1.400 . S
C1863 C1868 1.490 . S
C1864 H1854 0.930 . S
C1864 C1863 1.400 . S
C1864 C1867 1.386 . S
H1865 C1881 0.930 . S
H1866 C1882 0.931 . S
C1867 H1855 0.929 . S
C1867 C1861 1.390 . S
C1867 C1864 1.386 . S
C1868 C1863 1.490 . S
C1868 C1870 1.395 . S
C1868 C1871 1.403 . S
H1869 C1875 0.930 . S
C1870 H1856 0.930 . S
C1870 C1868 1.395 . S
C1870 C1873 1.403 . S
C1871 C1868 1.403 . S
C1871 C1872 1.524 . S
C1871 C1875 1.400 . S
C1872 H1857 0.960 . S
C1872 H1858 0.960 . S
C1872 H1859 0.960 . S
C1872 C1871 1.524 . S
C1873 C1870 1.403 . S
C1873 C1874 1.392 . S
C1873 C1877 1.495 . S
C1874 C1873 1.392 . S
C1874 C1875 1.385 . S
C1874 C1876 1.478 . S
C1875 H1869 0.930 . S
C1875 C1871 1.400 . S
C1875 C1874 1.385 . S
C1876 C1874 1.478 . S
C1876 C1878 1.381 . S
C1876 C1882 1.383 . S
C1877 C1873 1.495 . S
C1877 H1883 0.959 . S
C1877 H1884 0.961 . S
C1877 H1885 0.960 . S
C1878 C1876 1.381 . S
C1878 C1879 1.394 . S
C1878 H1886 0.930 . S
C1879 C1878 1.394 . S
C1879 C1880 1.383 . S
C1879 H1887 0.929 . S
C1880 C1879 1.383 . S
C1880 C1881 1.377 . S
C1881 H1865 0.930 . S
C1881 C1880 1.377 . S
C1881 C1882 1.379 . S
C1882 H1866 0.931 . S
C1882 C1876 1.383 . S
C1882 C1881 1.379 . S
H1883 C1877 0.959 . S
H1884 C1877 0.961 . S
H1885 C1877 0.960 . S
H1886 C1878 0.930 . S
H1887 C1879 0.929 . S
H1888 C1896 0.929 . S
H1889 C1898 0.930 . S
H1890 C1900 0.930 . S
H1891 C1903 0.929 . S
H1892 C1906 0.930 . S
H1893 C1908 0.960 . S
H1894 C1908 0.960 . S
H1895 C1908 0.960 . S
C1896 H1888 0.929 . S
C1896 C1897 1.377 . S
C1896 C1898 1.384 . S
C1897 C1896 1.377 . S
C1897 C1903 1.390 . S
C1898 H1889 0.930 . S
C1898 C1896 1.384 . S
C1898 C1899 1.372 . S
C1899 C1898 1.372 . S
C1899 C1900 1.400 . S
C1899 C1904 1.490 . S
C1900 H1890 0.930 . S
C1900 C1899 1.400 . S
C1900 C1903 1.386 . S
H1901 C1917 0.930 . S
H1902 C1918 0.931 . S
C1903 H1891 0.929 . S
C1903 C1897 1.390 . S
C1903 C1900 1.386 . S
C1904 C1899 1.490 . S
C1904 C1906 1.395 . S
C1904 C1907 1.403 . S
H1905 C1911 0.930 . S
C1906 H1892 0.930 . S
C1906 C1904 1.395 . S
C1906 C1909 1.403 . S
C1907 C1904 1.403 . S
C1907 C1908 1.524 . S
C1907 C1911 1.400 . S
C1908 H1893 0.960 . S
C1908 H1894 0.960 . S
C1908 H1895 0.960 . S
C1908 C1907 1.524 . S
C1909 C1906 1.403 . S
C1909 C1910 1.392 . S
C1909 C1913 1.495 . S
C1910 C1909 1.392 . S
C1910 C1911 1.385 . S
C1910 C1912 1.478 . S
C1911 H1905 0.930 . S
C1911 C1907 1.400 . S
C1911 C1910 1.385 . S
C1912 C1910 1.478 . S
C1912 C1914 1.381 . S
C1912 C1918 1.383 . S
C1913 C1909 1.495 . S
C1913 H1919 0.959 . S
C1913 H1920 0.961 . S
C1913 H1921 0.960 . S
C1914 C1912 1.381 . S
C1914 C1915 1.394 . S
C1914 H1922 0.930 . S
C1915 C1914 1.394 . S
C1915 C1916 1.383 . S
C1915 H1923 0.929 . S
C1916 C1915 1.383 . S
C1916 C1917 1.377 . S
C1917 H1901 0.930 . S
C1917 C1916 1.377 . S
C1917 C1918 1.379 . S
C1918 H1902 0.931 . S
C1918 C1912 1.383 . S
C1918 C1917 1.379 . S
H1919 C1913 0.959 . S
H1920 C1913 0.961 . S
H1921 C1913 0.960 . S
H1922 C1914 0.930 . S
H1923 C1915 0.929 . S
H1924 C1932 0.929 . S
H1925 C1934 0.930 . S
H1926 C1936 0.930 . S
H1927 C1939 0.929 . S
H1928 C1942 0.930 . S
H1929 C1944 0.960 . S
H1930 C1944 0.960 . S
H1931 C1944 0.960 . S
C1932 H1924 0.929 . S
C1932 C1933 1.377 . S
C1932 C1934 1.384 . S
C1933 C1932 1.377 . S
C1933 C1939 1.390 . S
C1934 H1925 0.930 . S
C1934 C1932 1.384 . S
C1934 C1935 1.372 . S
C1935 C1934 1.372 . S
C1935 C1936 1.400 . S
C1935 C1940 1.490 . S
C1936 H1926 0.930 . S
C1936 C1935 1.400 . S
C1936 C1939 1.386 . S
H1937 C1953 0.930 . S
H1938 C1954 0.931 . S
C1939 H1927 0.929 . S
C1939 C1933 1.390 . S
C1939 C1936 1.386 . S
C1940 C1935 1.490 . S
C1940 C1942 1.395 . S
C1940 C1943 1.403 . S
H1941 C1947 0.930 . S
C1942 H1928 0.930 . S
C1942 C1940 1.395 . S
C1942 C1945 1.403 . S
C1943 C1940 1.403 . S
C1943 C1944 1.524 . S
C1943 C1947 1.400 . S
C1944 H1929 0.960 . S
C1944 H1930 0.960 . S
C1944 H1931 0.960 . S
C1944 C1943 1.524 . S
C1945 C1942 1.403 . S
C1945 C1946 1.392 . S
C1945 C1949 1.495 . S
C1946 C1945 1.392 . S
C1946 C1947 1.385 . S
C1946 C1948 1.478 . S
C1947 H1941 0.930 . S
C1947 C1943 1.400 . S
C1947 C1946 1.385 . S
C1948 C1946 1.478 . S
C1948 C1950 1.381 . S
C1948 C1954 1.383 . S
C1949 C1945 1.495 . S
C1949 H1955 0.959 . S
C1949 H1956 0.961 . S
C1949 H1957 0.960 . S
C1950 C1948 1.381 . S
C1950 C1951 1.394 . S
C1950 H1958 0.930 . S
C1951 C1950 1.394 . S
C1951 C1952 1.383 . S
C1951 H1959 0.929 . S
C1952 C1951 1.383 . S
C1952 C1953 1.377 . S
C1953 H1937 0.930 . S
C1953 C1952 1.377 . S
C1953 C1954 1.379 . S
C1954 H1938 0.931 . S
C1954 C1948 1.383 . S
C1954 C1953 1.379 . S
H1955 C1949 0.959 . S
H1956 C1949 0.961 . S
H1957 C1949 0.960 . S
H1958 C1950 0.930 . S
H1959 C1951 0.929 . S
H1960 C1968 0.929 . S
H1961 C1970 0.930 . S
H1962 C1972 0.930 . S
H1963 C1975 0.929 . S
H1964 C1978 0.930 . S
H1965 C1980 0.960 . S
H1966 C1980 0.960 . S
H1967 C1980 0.960 . S
C1968 H1960 0.929 . S
C1968 C1969 1.377 1_554 S
C1968 C1970 1.384 . S
C1969 C1968 1.377 1_556 S
C1969 C1975 1.390 . S
C1970 H1961 0.930 . S
C1970 C1968 1.384 . S
C1970 C1971 1.391 . S
C1971 C1970 1.391 . S
C1971 C1972 1.369 1_554 S
C1971 C1976 1.502 . S
C1972 H1962 0.930 . S
C1972 C1971 1.369 1_556 S
C1972 C1975 1.386 . S
H1973 C1989 0.930 . S
H1974 C1990 0.931 . S
C1975 H1963 0.929 . S
C1975 C1969 1.390 . S
C1975 C1972 1.386 . S
C1976 C1971 1.502 . S
C1976 C1978 1.395 . S
C1976 C1979 1.403 1_554 S
H1977 C1983 0.930 1_556 S
C1978 H1964 0.930 . S
C1978 C1976 1.395 . S
C1978 C1981 1.403 . S
C1979 C1976 1.403 1_556 S
C1979 C1980 1.524 . S
C1979 C1983 1.400 1_556 S
C1980 H1965 0.960 . S
C1980 H1966 0.960 . S
C1980 H1967 0.960 . S
C1980 C1979 1.524 . S
C1981 C1978 1.403 . S
C1981 C1982 1.392 . S
C1981 C1985 1.495 . S
C1982 C1981 1.392 . S
C1982 C1983 1.385 . S
C1982 C1984 1.478 . S
C1983 H1977 0.930 1_554 S
C1983 C1979 1.400 1_554 S
C1983 C1982 1.385 . S
C1984 C1982 1.478 . S
C1984 C1986 1.381 . S
C1984 C1990 1.383 . S
C1985 C1981 1.495 . S
C1985 H1991 0.959 . S
C1985 H1992 0.961 . S
C1985 H1993 0.960 . S
C1986 C1984 1.381 . S
C1986 C1987 1.394 . S
C1986 H1994 0.930 . S
C1987 C1986 1.394 . S
C1987 C1988 1.383 . S
C1987 H1995 0.929 . S
C1988 C1987 1.383 . S
C1988 C1989 1.377 . S
C1989 H1973 0.930 . S
C1989 C1988 1.377 . S
C1989 C1990 1.379 . S
C1990 H1974 0.931 . S
C1990 C1984 1.383 . S
C1990 C1989 1.379 . S
H1991 C1985 0.959 . S
H1992 C1985 0.961 . S
H1993 C1985 0.960 . S
H1994 C1986 0.930 . S
H1995 C1987 0.929 . S
H1996 C2004 0.929 . S
H1997 C2006 0.930 . S
H1998 C2008 0.930 . S
H1999 C2011 0.929 . S
H2000 C2014 0.930 . S
H2001 C2016 0.960 . S
H2002 C2016 0.960 . S
H2003 C2016 0.960 . S
C2004 H1996 0.929 . S
C2004 C2005 1.377 . S
C2004 C2006 1.384 . S
C2005 C2004 1.377 . S
C2005 C2011 1.390 . S
C2006 H1997 0.930 . S
C2006 C2004 1.384 . S
C2006 C2007 1.372 . S
C2007 C2006 1.372 . S
C2007 C2008 1.400 . S
C2007 C2012 1.490 . S
C2008 H1998 0.930 . S
C2008 C2007 1.400 . S
C2008 C2011 1.386 . S
H2009 C2025 0.930 . S
H2010 C2026 0.931 . S
C2011 H1999 0.929 . S
C2011 C2005 1.390 . S
C2011 C2008 1.386 . S
C2012 C2007 1.490 . S
C2012 C2014 1.395 . S
C2012 C2015 1.403 . S
H2013 C2019 0.930 . S
C2014 H2000 0.930 . S
C2014 C2012 1.395 . S
C2014 C2017 1.403 . S
C2015 C2012 1.403 . S
C2015 C2016 1.524 . S
C2015 C2019 1.400 . S
C2016 H2001 0.960 . S
C2016 H2002 0.960 . S
C2016 H2003 0.960 . S
C2016 C2015 1.524 . S
C2017 C2014 1.403 . S
C2017 C2018 1.392 . S
C2017 C2021 1.495 . S
C2018 C2017 1.392 . S
C2018 C2019 1.385 . S
C2018 C2020 1.478 . S
C2019 H2013 0.930 . S
C2019 C2015 1.400 . S
C2019 C2018 1.385 . S
C2020 C2018 1.478 . S
C2020 C2022 1.381 . S
C2020 C2026 1.383 . S
C2021 C2017 1.495 . S
C2021 H2027 0.959 . S
C2021 H2028 0.961 . S
C2021 H2029 0.960 . S
C2022 C2020 1.381 . S
C2022 C2023 1.394 . S
C2022 H2030 0.930 . S
C2023 C2022 1.394 . S
C2023 C2024 1.383 . S
C2023 H2031 0.929 . S
C2024 C2023 1.383 . S
C2024 C2025 1.377 . S
C2025 H2009 0.930 . S
C2025 C2024 1.377 . S
C2025 C2026 1.379 . S
C2026 H2010 0.931 . S
C2026 C2020 1.383 . S
C2026 C2025 1.379 . S
H2027 C2021 0.959 . S
H2028 C2021 0.961 . S
H2029 C2021 0.960 . S
H2030 C2022 0.930 . S
H2031 C2023 0.929 . S
H2032 C2040 0.929 . S
H2033 C2042 0.930 . S
H2034 C2044 0.930 . S
H2035 C2047 0.929 . S
H2036 C2050 0.930 . S
H2037 C2052 0.960 . S
H2038 C2052 0.960 . S
H2039 C2052 0.960 . S
C2040 H2032 0.929 . S
C2040 C2041 1.377 . S
C2040 C2042 1.384 . S
C2041 C2040 1.377 . S
C2041 C2047 1.390 . S
C2042 H2033 0.930 . S
C2042 C2040 1.384 . S
C2042 C2043 1.372 . S
C2043 C2042 1.372 . S
C2043 C2044 1.400 . S
C2043 C2048 1.490 . S
C2044 H2034 0.930 . S
C2044 C2043 1.400 . S
C2044 C2047 1.386 . S
H2045 C2061 0.930 . S
H2046 C2062 0.931 . S
C2047 H2035 0.929 . S
C2047 C2041 1.390 . S
C2047 C2044 1.386 . S
C2048 C2043 1.490 . S
C2048 C2050 1.395 . S
C2048 C2051 1.403 . S
H2049 C2055 0.930 . S
C2050 H2036 0.930 . S
C2050 C2048 1.395 . S
C2050 C2053 1.403 . S
C2051 C2048 1.403 . S
C2051 C2052 1.524 . S
C2051 C2055 1.400 . S
C2052 H2037 0.960 . S
C2052 H2038 0.960 . S
C2052 H2039 0.960 . S
C2052 C2051 1.524 . S
C2053 C2050 1.403 . S
C2053 C2054 1.392 . S
C2053 C2057 1.495 . S
C2054 C2053 1.392 . S
C2054 C2055 1.385 . S
C2054 C2056 1.478 . S
C2055 H2049 0.930 . S
C2055 C2051 1.400 . S
C2055 C2054 1.385 . S
C2056 C2054 1.478 . S
C2056 C2058 1.381 . S
C2056 C2062 1.383 . S
C2057 C2053 1.495 . S
C2057 H2063 0.959 . S
C2057 H2064 0.961 . S
C2057 H2065 0.960 . S
C2058 C2056 1.381 . S
C2058 C2059 1.394 . S
C2058 H2066 0.930 . S
C2059 C2058 1.394 . S
C2059 C2060 1.383 . S
C2059 H2067 0.929 . S
C2060 C2059 1.383 . S
C2060 C2061 1.377 . S
C2061 H2045 0.930 . S
C2061 C2060 1.377 . S
C2061 C2062 1.379 . S
C2062 H2046 0.931 . S
C2062 C2056 1.383 . S
C2062 C2061 1.379 . S
H2063 C2057 0.959 . S
H2064 C2057 0.961 . S
H2065 C2057 0.960 . S
H2066 C2058 0.930 . S
H2067 C2059 0.929 . S
H2068 C2076 0.929 . S
H2069 C2078 0.930 . S
H2070 C2080 0.930 1_556 S
H2071 C2083 0.929 1_556 S
H2072 C2086 0.930 . S
H2073 C2088 0.966 . S
H2074 C2088 0.981 . S
H2075 C2088 0.986 . S
C2076 H2068 0.929 . S
C2076 C2077 1.377 . S
C2076 C2078 1.384 . S
C2077 C2076 1.377 . S
C2077 C2083 1.390 1_565 S
C2078 H2069 0.930 . S
C2078 C2076 1.384 . S
C2078 C2079 1.372 . S
C2079 C2078 1.372 . S
C2079 C2080 1.400 . S
C2079 C2084 1.490 . S
C2080 H2070 0.930 1_554 S
C2080 C2079 1.400 . S
C2080 C2083 1.386 1_565 S
H2081 C2097 0.930 . S
H2082 C2098 0.931 . S
C2083 H2071 0.929 1_554 S
C2083 C2077 1.390 1_545 S
C2083 C2080 1.386 1_545 S
C2084 C2079 1.490 . S
C2084 C2086 1.395 . S
C2084 C2087 1.403 . S
H2085 C2091 0.930 . S
C2086 H2072 0.930 . S
C2086 C2084 1.395 . S
C2086 C2089 1.403 . S
C2087 C2084 1.403 . S
C2087 C2088 1.473 1_565 S
C2087 C2091 1.400 . S
C2088 H2073 0.966 . S
C2088 H2074 0.981 . S
C2088 H2075 0.986 . S
C2088 C2087 1.473 1_545 S
C2089 C2086 1.403 . S
C2089 C2090 1.392 . S
C2089 C2093 1.495 . S
C2090 C2089 1.392 . S
C2090 C2091 1.385 . S
C2090 C2092 1.478 . S
C2091 H2085 0.930 . S
C2091 C2087 1.400 . S
C2091 C2090 1.385 . S
C2092 C2090 1.478 . S
C2092 C2094 1.381 . S
C2092 C2098 1.383 1_554 S
C2093 C2089 1.495 . S
C2093 H2099 0.959 . S
C2093 H2100 0.961 . S
C2093 H2101 0.960 . S
C2094 C2092 1.381 . S
C2094 C2095 1.394 . S
C2094 H2102 0.930 . S
C2095 C2094 1.394 . S
C2095 C2096 1.383 . S
C2095 H2103 0.929 . S
C2096 C2095 1.383 . S
C2096 C2097 1.377 1_554 S
C2097 H2081 0.930 . S
C2097 C2096 1.377 1_556 S
C2097 C2098 1.379 . S
C2098 H2082 0.931 . S
C2098 C2092 1.383 1_556 S
C2098 C2097 1.379 . S
H2099 C2093 0.959 . S
H2100 C2093 0.961 . S
H2101 C2093 0.960 . S
H2102 C2094 0.930 . S
H2103 C2095 0.929 . S
C404 C219 1.704 . S
C385 C73 1.763 . S
C440 C227 1.036 . S
C421 C82 1.237 1_455 S
C457 C100 1.808 . S
C476 C247 1.760 1_556 S
C512 C261 1.290 . S
C493 C56 1.273 . S
C548 C276 1.378 . S
C529 C134 1.350 . S
C584 C290 1.775 . S
C565 C165 1.764 . S
C601 C147 1.184 . S
C620 C304 1.221 . S
C656 C310 1.822 . S
C637 C125 1.859 . S
C673 C151 1.408 . S
C692 C324 1.396 . S
C728 C345 1.432 . S
C709 C121 1.448 . S
C745 C139 1.755 . S
C764 C325 1.455 . S
C800 C346 1.290 . S
C781 C164 1.293 . S
C817 C95 1.251 . S
C836 C353 1.157 . S
C853 C61 1.524 . S
C872 C359 1.515 . S
C889 C74 1.392 . S
C908 C352 1.336 . S
C925 C86 1.753 . S
C944 C360 1.749 . S
C961 C47 1.368 . S
C980 C254 1.300 1_565 S
C997 C186 1.263 . S
C1016 C255 1.142 . S
C1052 C212 1.512 1_556 S
C1033 C204 1.549 . S
C1088 C233 1.847 . S
C1069 C112 1.878 . S
C1105 C60 1.348 1_545 S
C1124 C268 1.274 . S
C1160 C318 1.443 . S
C1141 C152 1.438 . S
C1196 C269 1.601 . S
C1177 C126 1.912 . S
C1232 C297 1.117 . S
C1213 C160 1.284 . S
C1268 C303 1.721 . S
C1249 C190 1.764 . S
C1285 C199 1.238 . S
C1304 C311 1.149 . S
C1321 C113 1.807 . S
C1340 C275 1.775 . S
C1376 C289 1.274 . S
C1357 C173 1.270 . S
C1393 C43 1.343 . S
C1412 C248 1.363 . S
C1448 C262 1.775 . S
C1429 C9 1.738 1_655 S
C1484 C220 1.221 . S
C1465 C17 1.183 . S
C1520 C226 1.783 . S
C1501 C34 1.859 1_455 S
C1537 C21 1.409 . S
C1556 C338 1.355 . S
C1573 C30 1.441 . S
C1592 C331 1.445 . S
C1609 C48 1.755 . S
C1628 C339 1.447 . S
C1645 C8 1.291 . S
C1664 C332 1.295 . S
C1700 C367 1.047 . S
C1681 C108 1.240 . S
C1736 C373 1.489 . S
C1717 C178 1.527 . S
C1772 C366 1.335 . S
C1753 C191 1.393 . S
C1789 C203 1.753 . S
C1808 C374 1.750 . S
C1825 C138 1.369 . S
C1844 C282 1.296 . S
C1880 C283 1.012 . S
C1861 C69 1.251 . S
C1916 C296 1.512 . S
C1897 C87 1.549 . S
C1952 C317 1.846 . S
C1933 C99 1.879 . S
C1969 C177 1.347 . S
C1988 C240 1.322 . S
C2024 C234 1.443 . S
C2005 C22 1.439 . S
C2041 C35 1.914 . S
C2060 C241 1.603 . S
C2096 C213 1.002 . S
C2077 C4 1.286 1_565 S
