# Generated by pormake.
# Topology zzz, (3,6)-cn, num edge types: 1
# Building blocks:
#     Node 0, Type 0, BuildingBlock: KAKCAD_clean_linker_0, # of connection points: 3
#     Node 1, Type 0, BuildingBlock: KAKCAD_clean_linker_0, # of connection points: 3
#     Node 2, Type 0, BuildingBlock: KAKCAD_clean_linker_0, # of connection points: 3
#     Node 3, Type 0, BuildingBlock: KAKCAD_clean_linker_0, # of connection points: 3
#     Node 4, Type 0, BuildingBlock: KAKCAD_clean_linker_0, # of connection points: 3
#     Node 5, Type 0, BuildingBlock: KAKCAD_clean_linker_0, # of connection points: 3
#     Node 6, Type 0, BuildingBlock: KAKCAD_clean_linker_0, # of connection points: 3
#     Node 7, Type 0, BuildingBlock: KAKCAD_clean_linker_0, # of connection points: 3
#     Node 8, Type 1, BuildingBlock: BETFAJ_clean_sbu_0, # of connection points: 6
#     Node 9, Type 1, BuildingBlock: BETFAJ_clean_sbu_0, # of connection points: 6
#     Node 10, Type 1, BuildingBlock: BETFAJ_clean_sbu_0, # of connection points: 6
#     Node 11, Type 1, BuildingBlock: BETFAJ_clean_sbu_0, # of connection points: 6
#     Edge 12, Type (0, 1), BuildingBlock: XIVTED_clean_linker_0, # of connection points: 2
#     Edge 13, Type (0, 1), BuildingBlock: XIVTED_clean_linker_0, # of connection points: 2
#     Edge 14, Type (0, 1), BuildingBlock: XIVTED_clean_linker_0, # of connection points: 2
#     Edge 15, Type (0, 1), BuildingBlock: XIVTED_clean_linker_0, # of connection points: 2
#     Edge 16, Type (0, 1), BuildingBlock: XIVTED_clean_linker_0, # of connection points: 2
#     Edge 17, Type (0, 1), BuildingBlock: XIVTED_clean_linker_0, # of connection points: 2
#     Edge 18, Type (0, 1), BuildingBlock: XIVTED_clean_linker_0, # of connection points: 2
#     Edge 19, Type (0, 1), BuildingBlock: XIVTED_clean_linker_0, # of connection points: 2
#     Edge 20, Type (0, 1), BuildingBlock: XIVTED_clean_linker_0, # of connection points: 2
#     Edge 21, Type (0, 1), BuildingBlock: XIVTED_clean_linker_0, # of connection points: 2
#     Edge 22, Type (0, 1), BuildingBlock: XIVTED_clean_linker_0, # of connection points: 2
#     Edge 23, Type (0, 1), BuildingBlock: XIVTED_clean_linker_0, # of connection points: 2
#     Edge 24, Type (0, 1), BuildingBlock: XIVTED_clean_linker_0, # of connection points: 2
#     Edge 25, Type (0, 1), BuildingBlock: XIVTED_clean_linker_0, # of connection points: 2
#     Edge 26, Type (0, 1), BuildingBlock: XIVTED_clean_linker_0, # of connection points: 2
#     Edge 27, Type (0, 1), BuildingBlock: XIVTED_clean_linker_0, # of connection points: 2
#     Edge 28, Type (0, 1), BuildingBlock: XIVTED_clean_linker_0, # of connection points: 2
#     Edge 29, Type (0, 1), BuildingBlock: XIVTED_clean_linker_0, # of connection points: 2
#     Edge 30, Type (0, 1), BuildingBlock: XIVTED_clean_linker_0, # of connection points: 2
#     Edge 31, Type (0, 1), BuildingBlock: XIVTED_clean_linker_0, # of connection points: 2
#     Edge 32, Type (0, 1), BuildingBlock: XIVTED_clean_linker_0, # of connection points: 2
#     Edge 33, Type (0, 1), BuildingBlock: XIVTED_clean_linker_0, # of connection points: 2
#     Edge 34, Type (0, 1), BuildingBlock: XIVTED_clean_linker_0, # of connection points: 2
#     Edge 35, Type (0, 1), BuildingBlock: XIVTED_clean_linker_0, # of connection points: 2
# Relax obj value: 0.446
# Max RMSD: 0.271
# Mean RMSD: 0.254
data_MOF--net-zzz--node1-BETFAJ_clean_sbu_0--node2-KAKCAD_clean_linker_0--edge1-XIVTED_clean_linker_0
_symmetry_space_group_name_H-M    P1
_symmetry_Int_Tables_number       1
_symmetry_cell_setting            triclinic
loop_
_symmetry_equiv_pos_as_xyz
'x, y, z'
_cell_length_a     60.363482
_cell_length_b     60.327891
_cell_length_c     18.390277
_cell_angle_alpha  89.994065
_cell_angle_beta   90.070316
_cell_angle_gamma 90.056408
loop_
_atom_site_label
_atom_site_type_symbol
_atom_site_fract_x
_atom_site_fract_y
_atom_site_fract_z
_atom_type_partial_charge
C0 C 0.76271 0.42524 0.10918 0.0
C1 C 0.78183 0.4152 0.13819 0.0
C2 C 0.7491 0.43833 0.15296 0.0
C3 C 0.75371 0.44087 0.22755 0.0
C4 C 0.7703 0.42748 0.2585 0.0
C5 C 0.78447 0.41514 0.21432 0.0
C6 C 0.74421 0.45989 0.26919 0.0
C7 C 0.72334 0.4687 0.25203 0.0
C8 C 0.71647 0.48932 0.27985 0.0
C9 C 0.73053 0.50093 0.3283 0.0
C10 C 0.75089 0.4915 0.34984 0.0
C11 C 0.75755 0.4713 0.31935 0.0
C12 C 0.76663 0.50245 0.4007 0.0
C13 C 0.77844 0.52142 0.37936 0.0
C14 C 0.77365 0.49085 0.46282 0.0
C15 C 0.79292 0.49708 0.49989 0.0
C16 C 0.8058 0.51509 0.4757 0.0
C17 C 0.69548 0.49895 0.25126 0.0
C18 C 0.6956 0.51947 0.21519 0.0
C19 C 0.6762 0.48586 0.24814 0.0
C20 C 0.65809 0.49233 0.20559 0.0
C21 C 0.65884 0.51201 0.16462 0.0
C22 C 0.6775 0.5259 0.17212 0.0
C23 C 0.79783 0.52769 0.4165 0.0
H24 H 0.75924 0.42464 0.05147 0.0
H25 H 0.73626 0.4479 0.12655 0.0
H26 H 0.77362 0.42797 0.31635 0.0
H27 H 0.79858 0.40737 0.23999 0.0
H28 H 0.71276 0.46004 0.2138 0.0
H29 H 0.774 0.46525 0.33206 0.0
H30 H 0.72562 0.51695 0.34938 0.0
H31 H 0.77359 0.53044 0.33096 0.0
H32 H 0.76503 0.47594 0.47969 0.0
H33 H 0.79847 0.48676 0.54448 0.0
H34 H 0.71027 0.52983 0.21612 0.0
H35 H 0.67566 0.46995 0.27539 0.0
H36 H 0.80705 0.54189 0.39696 0.0
H37 H 0.67851 0.54134 0.14224 0.0
H38 H 0.64412 0.48113 0.20103 0.0
C39 C 0.90455 0.8035 0.2183 0.0
C40 C 0.90477 0.80303 0.14167 0.0
C41 C 0.91472 0.78667 0.25825 0.0
C42 C 0.92626 0.76961 0.22253 0.0
C43 C 0.92283 0.76699 0.14733 0.0
C44 C 0.91164 0.78326 0.10767 0.0
C45 C 0.94526 0.75831 0.25925 0.0
C46 C 0.953 0.73756 0.23588 0.0
C47 C 0.97399 0.72963 0.25722 0.0
C48 C 0.9871 0.74251 0.30511 0.0
C49 C 0.97884 0.76268 0.33258 0.0
C50 C 0.95816 0.77031 0.30919 0.0
C51 C 0.99175 0.77774 0.38033 0.0
C52 C 0.98325 0.78309 0.44922 0.0
C53 C 0.00816 0.79141 0.35007 0.0
C54 C 0.01461 0.81101 0.38541 0.0
C55 C 1.00475 0.81735 0.45171 0.0
C56 C 0.98245 0.70897 0.22261 0.0
C57 C 0.96864 0.69025 0.21681 0.0
C58 C 1.00286 0.70885 0.186 0.0
C59 C 0.00867 0.69102 0.14087 0.0
C60 C 0.99425 0.67283 0.13179 0.0
C61 C 0.97448 0.6724 0.17218 0.0
C62 C 0.98974 0.80258 0.48467 0.0
H63 H 0.89877 0.8178 0.24808 0.0
H64 H 0.91564 0.78845 0.31678 0.0
H65 H 0.93067 0.75373 0.11732 0.0
H66 H 0.91053 0.78124 0.04933 0.0
H67 H 0.94325 0.72805 0.19747 0.0
H68 H 0.95302 0.78669 0.3264 0.0
H69 H 1.00348 0.73693 0.32075 0.0
H70 H 0.9702 0.77309 0.47289 0.0
H71 H 0.01461 0.78793 0.29633 0.0
H72 H 0.0265 0.82176 0.35894 0.0
H73 H 0.95282 0.68983 0.24452 0.0
H74 H 0.01377 0.72309 0.18891 0.0
H75 H 0.98162 0.80688 0.53521 0.0
H76 H 0.96288 0.65881 0.16641 0.0
H77 H 0.02419 0.69176 0.11151 0.0
C78 C 0.74777 0.10339 0.04654 0.0
C79 C 0.73012 0.11521 0.07805 0.0
C80 C 0.75993 0.08817 0.08747 0.0
C81 C 0.75565 0.08523 0.16217 0.0
C82 C 0.74085 0.10002 0.19585 0.0
C83 C 0.7279 0.11443 0.1543 0.0
C84 C 0.7639 0.06509 0.20159 0.0
C85 C 0.78278 0.05366 0.17775 0.0
C86 C 0.78781 0.03236 0.20374 0.0
C87 C 0.77467 0.02285 0.25888 0.0
C88 C 0.7564 0.03465 0.28678 0.0
C89 C 0.75108 0.05542 0.25698 0.0
C90 C 0.74105 0.02525 0.34203 0.0
C91 C 0.72968 1.00533 0.32885 0.0
C92 C 0.73457 0.03839 0.40144 0.0
C93 C 0.71612 0.03268 0.44334 0.0
C94 C 0.70359 0.01365 0.42694 0.0
C95 C 0.80551 0.0199 0.16593 0.0
C96 C 0.80304 0.01551 0.09142 0.0
C97 C 0.8261 0.01604 0.19904 0.0
C98 C 0.84429 0.00921 0.15706 0.0
C99 C 0.84217 1.00617 0.08124 0.0
C100 C 0.82108 0.00873 0.04963 0.0
C101 C 0.71112 0.9996 0.37084 0.0
H102 H 0.75121 0.10448 0.98894 0.0
H103 H 0.7714 0.07765 0.05846 0.0
H104 H 0.73799 0.09946 0.2539 0.0
H105 H 0.71501 0.12346 0.1822 0.0
H106 H 0.79334 0.06083 0.13637 0.0
H107 H 0.73587 0.06327 0.27441 0.0
H108 H 0.77831 1.00632 0.27858 0.0
H109 H 0.73419 0.99498 0.28309 0.0
H110 H 0.74301 0.05388 0.41267 0.0
H111 H 0.71087 0.04404 0.4855 0.0
H112 H 0.78735 0.01862 0.06459 0.0
H113 H 0.82843 0.01955 0.25631 0.0
H114 H 0.70214 0.98459 0.35744 0.0
H115 H 0.81871 1.00691 0.99158 0.0
H116 H 0.86017 1.00709 0.18355 0.0
C117 C 0.48498 0.73146 0.50944 0.0
C118 C 0.5033 0.71932 0.48412 0.0
C119 C 0.47784 0.75046 0.47277 0.0
C120 C 0.48889 0.7579 0.41014 0.0
C121 C 0.5083 0.74698 0.38829 0.0
C122 C 0.51543 0.72784 0.42486 0.0
C123 C 0.47716 0.77284 0.35886 0.0
C124 C 0.48644 0.79269 0.33211 0.0
C125 C 0.47499 0.80525 0.27908 0.0
C126 C 0.4549 0.79705 0.25076 0.0
C127 C 0.44592 0.77706 0.27576 0.0
C128 C 0.45682 0.76547 0.33107 0.0
C129 C 0.42761 0.76594 0.23649 0.0
C130 C 0.41067 0.75518 0.27514 0.0
C131 C 0.42972 0.76201 0.16165 0.0
C132 C 0.41713 0.7455 0.12818 0.0
C133 C 0.40206 0.73271 0.16891 0.0
C134 C 0.48408 0.82627 0.24872 0.0
C135 C 0.4699 0.84441 0.23705 0.0
C136 C 0.50601 0.82759 0.22357 0.0
C137 C 0.51315 0.8461 0.18365 0.0
C138 C 0.49852 0.86371 0.16835 0.0
C139 C 0.477 0.86284 0.19741 0.0
C140 C 0.39785 0.73884 0.24143 0.0
H141 H 0.47509 0.72542 0.55436 0.0
H142 H 0.46267 0.75844 0.49016 0.0
H143 H 0.51694 0.75218 0.33959 0.0
H144 H 0.52984 0.71914 0.40459 0.0
H145 H 0.5023 0.79834 0.35266 0.0
H146 H 0.45033 0.74957 0.34866 0.0
H147 H 0.44663 0.80576 0.20688 0.0
H148 H 0.40854 0.75818 0.3328 0.0
H149 H 0.44272 0.77001 0.13061 0.0
H150 H 0.42099 0.74133 0.07236 0.0
H151 H 0.45295 0.84397 0.25632 0.0
H152 H 0.5173 0.81386 0.23148 0.0
H153 H 0.38591 0.7298 0.27386 0.0
H154 H 0.46515 0.87589 0.18647 0.0
H155 H 0.52995 0.84634 0.16316 0.0
C156 C 0.22913 0.42361 0.29985 0.0
C157 C 0.21462 0.41068 0.2574 0.0
C158 C 0.24775 0.43345 0.26847 0.0
C159 C 0.25209 0.43061 0.19413 0.0
C160 C 0.23957 0.41504 0.15472 0.0
C161 C 0.221 0.40508 0.18621 0.0
C162 C 0.26485 0.44792 0.15524 0.0
C163 C 0.28519 0.45572 0.18167 0.0
C164 C 0.29461 0.47547 0.15456 0.0
C165 C 0.28287 0.48776 0.10134 0.0
C166 C 0.26269 0.47961 0.07326 0.0
C167 C 0.2542 0.45959 0.0996 0.0
C168 C 0.24822 0.49237 0.02315 0.0
C169 C 0.2366 0.51085 0.04935 0.0
C170 C 0.24114 0.48239 0.9581 0.0
C171 C 0.22174 0.48945 0.92345 0.0
C172 C 0.20886 0.50662 0.95327 0.0
C173 C 0.31583 0.48354 0.1869 0.0
C174 C 0.31815 0.50554 0.2109 0.0
C175 C 0.33315 0.46852 0.20091 0.0
C176 C 0.35173 0.47496 0.24134 0.0
C177 C 0.35352 0.4966 0.26909 0.0
C178 C 0.33674 0.51198 0.25168 0.0
C179 C 0.2171 0.51791 0.01477 0.0
H180 H 0.22486 0.42832 0.35488 0.0
H181 H 0.25708 0.44538 0.30021 0.0
H182 H 0.24281 0.41231 0.09748 0.0
H183 H 0.21052 0.39467 0.15268 0.0
H184 H 0.29315 0.44694 0.226 0.0
H185 H 0.23802 0.45411 0.08103 0.0
H186 H 0.28934 0.50344 0.08197 0.0
H187 H 0.24146 0.51859 0.10008 0.0
H188 H 0.24959 0.46784 0.93756 0.0
H189 H 0.21597 0.48021 0.87663 0.0
H190 H 0.3051 0.5175 0.20132 0.0
H191 H 0.33199 0.4515 0.18256 0.0
H192 H 0.20785 0.53147 0.03852 0.0
H193 H 0.3377 0.52889 0.27116 0.0
H194 H 0.36415 0.46259 0.25385 0.0
C195 C 0.10992 0.22809 0.28896 0.0
C196 C 0.12171 0.21459 0.24 0.0
C197 C 0.09982 0.24757 0.2649 0.0
C198 C 0.10132 0.2538 0.19157 0.0
C199 C 0.11592 0.24225 0.14579 0.0
C200 C 0.12615 0.22283 0.16996 0.0
C201 C 0.08355 0.26769 0.15983 0.0
C202 C 0.07701 0.28765 0.19209 0.0
C203 C 0.05731 0.2984 0.17046 0.0
C204 C 0.04366 0.28819 0.11728 0.0
C205 C 0.05043 0.26826 0.08385 0.0
C206 C 0.07051 0.25856 0.10459 0.0
C207 C 0.0363 0.25526 0.0333 0.0
C208 C 0.018 0.24357 0.06068 0.0
C209 C 0.04486 0.2492 0.9651 0.0
C210 C 0.03668 0.23061 0.92822 0.0
C211 C 0.01979 0.21752 0.95891 0.0
C212 C 0.05101 0.31955 0.20742 0.0
C213 C 0.0293 0.3233 0.23232 0.0
C214 C 0.06743 0.33536 0.22399 0.0
C215 C 0.06267 0.35363 0.26796 0.0
C216 C 0.04129 0.35678 0.29616 0.0
C217 C 0.02448 0.34176 0.27612 0.0
C218 C 0.00982 0.22489 0.02387 0.0
H219 H 0.10615 0.22238 0.34339 0.0
H220 H 0.08868 0.25616 0.30142 0.0
H221 H 0.1176 0.24695 0.0892 0.0
H222 H 0.13566 0.21313 0.13153 0.0
H223 H 0.08689 0.29433 0.23622 0.0
H224 H 0.07504 0.24262 0.08164 0.0
H225 H 0.02804 0.29566 0.10182 0.0
H226 H 0.01134 0.24764 0.11371 0.0
H227 H 0.05925 0.25769 0.94346 0.0
H228 H 0.04491 0.2255 0.87871 0.0
H229 H 0.01628 0.31142 0.221 0.0
H230 H 0.08422 0.33331 0.2044 0.0
H231 H 0.9965 0.21549 0.04847 0.0
H232 H 0.00784 0.3437 0.2971 0.0
H233 H 0.07589 0.36514 0.28098 0.0
C234 C 0.27455 0.91635 0.26352 0.0
C235 C 0.28017 0.92123 0.33618 0.0
C236 C 0.26184 0.93119 0.22263 0.0
C237 C 0.25402 0.95086 0.25419 0.0
C238 C 0.25739 0.95446 0.32872 0.0
C239 C 0.27041 0.9399 0.36919 0.0
C240 C 0.24582 0.96929 0.20842 0.0
C241 C 0.22721 0.9815 0.22922 0.0
C242 C 0.22198 1.00156 0.19467 0.0
C243 C 0.23575 0.00961 0.13857 0.0
C244 C 0.25411 0.99697 0.1153 0.0
C245 C 0.25879 0.9768 0.15035 0.0
C246 C 0.27001 1.00496 0.05932 0.0
C247 C 0.27739 0.99033 0.005 0.0
C248 C 0.28074 0.02549 0.06714 0.0
C249 C 0.2995 0.03052 0.02519 0.0
C250 C 0.30786 0.01516 0.97437 0.0
C251 C 0.20272 0.01408 0.2226 0.0
C252 C 0.18146 1.00483 0.21634 0.0
C253 C 0.20598 0.03214 0.2695 0.0
C254 C 0.18859 0.03977 0.31338 0.0
C255 C 0.16763 0.0295 0.31083 0.0
C256 C 0.16406 0.01255 0.25956 0.0
C257 C 0.29603 0.99535 0.96308 0.0
H258 H 0.28115 0.90181 0.23674 0.0
H259 H 0.25917 0.92793 0.16536 0.0
H260 H 0.25166 0.96958 0.35433 0.0
H261 H 0.27437 0.94452 0.42456 0.0
H262 H 0.21723 0.97581 0.27458 0.0
H263 H 0.27363 0.96771 0.13584 0.0
H264 H 0.23216 0.02542 0.11321 0.0
H265 H 0.26943 0.97437 0.99777 0.0
H266 H 0.27553 0.03702 0.10888 0.0
H267 H 0.30794 0.04612 0.03449 0.0
H268 H 0.1787 0.99061 0.18149 0.0
H269 H 0.22234 0.03927 0.27611 0.0
H270 H 0.30194 0.983 0.92504 0.0
H271 H 0.14826 1.00408 0.25656 0.0
H272 H 0.19183 0.053 0.35175 0.0
C273 C 0.49978 0.31433 0.02836 0.0
C274 C 0.50262 0.31559 0.95245 0.0
C275 C 0.50565 0.29518 0.06657 0.0
C276 C 0.51451 0.2768 0.03009 0.0
C277 C 0.51586 0.27727 0.95397 0.0
C278 C 0.50983 0.29643 0.91543 0.0
C279 C 0.52776 0.26061 0.07216 0.0
C280 C 0.52014 0.23923 0.08969 0.0
C281 C 0.53299 0.2253 0.13499 0.0
C282 C 0.55349 0.23312 0.16162 0.0
C283 C 0.56096 0.25462 0.1457 0.0
C284 C 0.548 0.26802 0.10015 0.0
C285 C 0.58021 0.26469 0.18453 0.0
C286 C 0.58374 0.26043 0.25883 0.0
C287 C 0.59262 0.28163 0.15137 0.0
C288 C 0.60496 0.2964 0.19346 0.0
C289 C 0.60585 0.2941 0.26966 0.0
C290 C 0.52446 0.20358 0.16197 0.0
C291 C 0.50278 0.20169 0.18912 0.0
C292 C 0.5389 0.18544 0.16995 0.0
C293 C 0.53241 0.16659 0.20876 0.0
C294 C 0.51124 0.16527 0.24037 0.0
C295 C 0.49624 0.18276 0.2278 0.0
C296 C 0.59681 0.27473 0.30059 0.0
H297 H 0.49459 0.32866 0.05934 0.0
H298 H 0.50496 0.29538 0.12546 0.0
H299 H 0.52304 0.26343 0.92481 0.0
H300 H 0.51183 0.29654 0.85694 0.0
H301 H 0.50416 0.23372 0.06972 0.0
H302 H 0.55293 0.28498 0.0893 0.0
H303 H 0.56315 0.22281 0.19798 0.0
H304 H 0.5749 0.2473 0.28654 0.0
H305 H 0.59118 0.28476 0.09356 0.0
H306 H 0.61191 0.31069 0.16628 0.0
H307 H 0.49125 0.21536 0.18422 0.0
H308 H 0.55563 0.18623 0.14889 0.0
H309 H 0.59815 0.27153 0.35833 0.0
H310 H 0.47964 0.18217 0.24991 0.0
H311 H 0.54451 0.15361 0.21731 0.0
Sm312 Sm 0.01619 0.00896 0.78345 0.0
Sm313 Sm 0.99783 0.02723 0.62065 0.0
C314 C 0.01256 0.99055 0.91224 0.0
C315 C 0.99508 0.97505 0.9344 0.0
C316 C 0.99433 0.966 1.00445 0.0
C317 C 0.978 0.95036 0.02208 0.0
C318 C 0.96229 0.94366 0.9697 0.0
C319 C 0.96272 0.95349 0.90055 0.0
C320 C 0.97904 0.96888 0.88301 0.0
C321 C 0.05001 0.02216 0.69096 0.0
C322 C 0.00718 0.97396 0.64566 0.0
C323 C 0.9994 0.04398 0.48888 0.0
C324 C 0.0165 0.05792 0.45452 0.0
C325 C 0.02516 0.05214 0.38639 0.0
C326 C 0.04316 0.06381 0.35742 0.0
C327 C 0.05284 0.08144 0.39637 0.0
C328 C 0.0439 0.08726 0.4643 0.0
C329 C 0.02603 0.0756 0.49316 0.0
C330 C 0.96424 0.01452 0.71506 0.0
C331 C 0.00861 0.06241 0.75664 0.0
O332 O 1.00571 0.01077 0.89887 0.0
O333 O 0.02602 0.9829 0.86215 0.0
O334 O 0.02946 0.02225 0.68084 0.0
O335 O 0.05385 0.0149 0.75674 0.0
O336 O 0.00868 0.9771 0.71704 0.0
O337 O 1.00523 0.99046 0.59838 0.0
O338 O 1.00552 0.02358 0.5032 0.0
O339 O 0.98799 0.05316 0.54172 0.0
O340 O 0.98479 0.01408 0.72329 0.0
O341 O 0.96011 0.02161 0.64944 0.0
O342 O 0.00689 0.05907 0.68527 0.0
O343 O 0.01007 0.04603 0.80474 0.0
H344 H 1.00661 0.97061 0.04474 0.0
H345 H 0.97821 0.94288 0.07562 0.0
H346 H 0.9507 0.94894 0.85938 0.0
H347 H 0.97935 0.97574 0.82864 0.0
H348 H 0.01832 0.03828 0.35634 0.0
H349 H 0.04973 0.05877 0.30523 0.0
H350 H 0.05054 0.10104 0.49516 0.0
H351 H 0.01997 0.08022 0.54646 0.0
Sm352 Sm 0.51246 0.02983 0.75879 0.0
Sm353 Sm 0.49979 0.99831 0.64874 0.0
C354 C 0.5307 0.0541 0.86299 0.0
C355 C 0.54995 0.06894 0.86951 0.0
C356 C 0.57013 0.06366 0.83614 0.0
C357 C 0.58836 0.07771 0.84353 0.0
C358 C 0.58673 0.09751 0.88379 0.0
C359 C 0.56625 0.10302 0.91547 0.0
C360 C 0.54804 0.08882 0.90845 0.0
C361 C 0.49915 0.05015 0.63108 0.0
C362 C 0.55085 0.01146 0.6472 0.0
C363 C 0.48162 0.97465 0.54293 0.0
C364 C 0.46295 0.9593 0.53508 0.0
C365 C 0.45608 0.95298 0.4655 0.0
C366 C 0.43764 0.93928 0.45676 0.0
C367 C 0.42576 0.93157 0.51764 0.0
C368 C 0.43313 0.93755 0.58762 0.0
C369 C 0.45156 0.95137 0.59625 0.0
C370 C 0.51296 0.97797 0.77649 0.0
C371 C 0.46132 0.01675 0.75988 0.0
O372 O 0.5348 0.03297 0.85415 0.0
O373 O 0.51461 0.0612 0.82176 0.0
O374 O 0.51173 0.03352 0.63508 0.0
O375 O 0.4931 0.0564 0.69533 0.0
O376 O 0.54681 0.01867 0.71373 0.0
O377 O 0.53431 1.00588 0.60433 0.0
O378 O 0.47649 0.99533 0.55567 0.0
O379 O 0.49816 0.96766 0.58252 0.0
O380 O 0.50045 0.99465 0.77239 0.0
O381 O 0.51887 0.97156 0.71224 0.0
O382 O 0.46546 0.00927 0.69377 0.0
O383 O 0.47777 0.02262 0.80277 0.0
H384 H 0.57195 0.04851 0.8052 0.0
H385 H 0.60391 0.07262 0.81956 0.0
H386 H 0.56432 0.11822 0.94613 0.0
H387 H 0.53248 0.0933 0.93383 0.0
H388 H 0.46468 0.95906 0.41779 0.0
H389 H 0.43221 0.93548 0.40202 0.0
H390 H 0.42448 0.93181 0.63563 0.0
H391 H 0.45674 0.95614 0.65049 0.0
Sm392 Sm 0.49408 0.52483 0.78533 0.0
Sm393 Sm 0.52068 0.50858 0.63641 0.0
C394 C 0.4832 0.53954 0.91535 0.0
C395 C 0.46662 0.55544 0.941 0.0
C396 C 0.46735 0.56323 0.01259 0.0
C397 C 0.4523 0.57932 0.03582 0.0
C398 C 0.43626 0.58787 0.98766 0.0
C399 C 0.4353 0.57953 0.91632 0.0
C400 C 0.4504 0.56351 0.89316 0.0
C401 C 0.46557 0.52049 0.66705 0.0
C402 C 0.5099 0.56169 0.66279 0.0
C403 C 0.53263 0.49276 0.50891 0.0
C404 C 0.54911 0.47594 0.4895 0.0
C405 C 0.55078 0.46817 0.418 0.0
C406 C 0.56515 0.45069 0.40156 0.0
C407 C 0.57797 0.44071 0.4566 0.0
C408 C 0.57683 0.44922 0.52763 0.0
C409 C 0.56248 0.46663 0.54394 0.0
C410 C 0.54891 0.51386 0.75543 0.0
C411 C 0.5044 0.47154 0.7579 0.0
O412 O 0.49949 0.54803 0.87715 0.0
O413 O 0.47526 0.52111 0.88781 0.0
O414 O 0.48608 0.51697 0.66939 0.0
O415 O 0.45918 0.52672 0.73129 0.0
O416 O 0.50468 0.5578 0.73177 0.0
O417 O 0.51387 0.54565 0.61509 0.0
O418 O 0.51544 0.48525 0.54497 0.0
O419 O 0.5407 0.51123 0.53585 0.0
O420 O 0.52833 0.51632 0.75206 0.0
O421 O 0.55578 0.50836 0.69107 0.0
O422 O 0.51072 0.47545 0.69001 0.0
O423 O 0.49966 0.4875 0.80503 0.0
H424 H 0.47985 0.55722 0.05004 0.0
H425 H 0.45378 0.58565 0.09072 0.0
H426 H 0.42305 0.58559 0.87811 0.0
H427 H 0.44964 0.55767 0.83753 0.0
H428 H 0.5405 0.47515 0.37545 0.0
H429 H 0.56541 0.44431 0.34652 0.0
H430 H 0.58662 0.44205 0.57104 0.0
H431 H 0.56135 0.47242 0.59956 0.0
Sm432 Sm 1.00021 0.50167 0.78724 0.0
Sm433 Sm 0.01622 0.52327 0.6392 0.0
C434 C 0.98025 0.48922 0.90833 0.0
C435 C 0.96217 0.47356 0.92195 0.0
C436 C 0.95292 0.46159 0.86399 0.0
C437 C 0.93509 0.44731 0.87592 0.0
C438 C 0.92619 0.4448 0.94606 0.0
C439 C 0.93596 0.45641 1.00432 0.0
C440 C 0.95382 0.47071 0.99227 0.0
C441 C 0.01304 0.47233 0.6802 0.0
C442 C 0.96293 0.51832 0.66259 0.0
C443 C 0.0342 0.5225 0.50862 0.0
C444 C 0.04825 0.50492 0.47834 0.0
C445 C 0.05456 0.48731 0.52349 0.0
C446 C 0.06809 0.47044 0.49753 0.0
C447 C 0.07616 0.47104 0.42596 0.0
C448 C 0.06952 0.4886 0.38014 0.0
C449 C 0.05556 0.50539 0.40616 0.0
C450 C 0.01125 0.55612 0.74339 0.0
C451 C 0.05144 0.51224 0.76958 0.0
O452 O 0.97477 0.50714 0.87242 0.0
O453 O 0.99867 0.48031 0.88514 0.0
O454 O 1.00224 0.48993 0.67115 0.0
O455 O 0.0166 0.46896 0.74883 0.0
O456 O 0.96709 0.50829 0.7256 0.0
O457 O 0.97883 0.52608 0.61997 0.0
O458 O 0.0136 0.51675 0.52055 0.0
O459 O 0.04296 0.53332 0.56329 0.0
O460 O 0.0081 0.53565 0.74999 0.0
O461 O 0.01658 0.56041 0.67614 0.0
O462 O 0.04735 0.51008 0.6992 0.0
O463 O 0.03505 0.51386 0.81679 0.0
H464 H 0.95931 0.46356 0.80931 0.0
H465 H 0.92807 0.43847 0.83009 0.0
H466 H 0.92927 0.45513 0.05878 0.0
H467 H 0.96083 0.47985 0.03751 0.0
H468 H 0.04918 0.48676 0.57947 0.0
H469 H 0.07248 0.45707 0.53408 0.0
H470 H 0.07566 0.48979 0.325 0.0
H471 H 0.05086 0.5189 0.37053 0.0
H472 H 0.17353 0.03579 0.45716 0.0
H473 H 0.04392 0.0318 0.54781 0.0
H474 H 0.12245 0.03347 0.29299 0.0
H475 H 0.09498 0.02477 0.70932 0.0
H476 H 0.07228 0.03796 0.45498 0.0
H477 H 0.14496 0.03798 0.55082 0.0
C478 C 0.15631 0.0362 0.44057 0.0
C479 C 0.15043 0.0343 0.36687 0.0
C480 C 0.07731 0.03535 0.5108 0.0
C481 C 0.11752 0.03638 0.47442 0.0
C482 C 0.06109 0.03185 0.56371 0.0
C483 C 0.06706 0.0277 0.63602 0.0
C484 C 0.09979 0.03478 0.53044 0.0
C485 C 0.08965 0.02782 0.654 0.0
C486 C 0.13998 0.03723 0.49428 0.0
C487 C 0.12778 0.03459 0.34909 0.0
N488 N 0.1052 0.03121 0.60153 0.0
N489 N 0.11218 0.03544 0.40242 0.0
H490 H 0.48702 0.16723 0.36663 0.0
H491 H 0.51792 0.04446 0.49633 0.0
H492 H 0.52311 0.12105 0.23214 0.0
H493 H 0.47734 0.08956 0.61994 0.0
H494 H 0.5182 0.07114 0.39551 0.0
H495 H 0.4812 0.13795 0.45565 0.0
C496 C 0.49343 0.15085 0.35497 0.0
C497 C 0.50566 0.14677 0.29139 0.0
C498 C 0.50907 0.07511 0.44445 0.0
C499 C 0.49947 0.11304 0.39496 0.0
C500 C 0.50889 0.05988 0.50194 0.0
C501 C 0.49773 0.06489 0.56679 0.0
C502 C 0.49807 0.09553 0.45201 0.0
C503 C 0.48627 0.08508 0.57111 0.0
C504 C 0.49024 0.13412 0.40642 0.0
C505 C 0.5139 0.12519 0.28072 0.0
N506 N 0.48688 0.09969 0.51486 0.0
N507 N 0.5108 0.10922 0.33212 0.0
H508 H 0.39766 0.48426 0.26498 0.0
H509 H 0.42283 0.53345 0.66064 0.0
H510 H 0.35101 0.52188 0.3927 0.0
H511 H 0.47374 0.50333 0.52959 0.0
H512 H 0.39683 0.52954 0.56044 0.0
H513 H 0.42609 0.49122 0.35776 0.0
C514 C 0.39338 0.49407 0.31221 0.0
C515 C 0.37177 0.50244 0.3208 0.0
C516 C 0.41368 0.52382 0.55302 0.0
C517 C 0.40434 0.51046 0.42732 0.0
C518 C 0.42858 0.52602 0.61046 0.0
C519 C 0.45049 0.51861 0.60363 0.0
C520 C 0.42053 0.51392 0.48774 0.0
C521 C 0.45697 0.50921 0.53713 0.0
C522 C 0.40968 0.4981 0.36502 0.0
C523 C 0.3674 0.51528 0.38286 0.0
N524 N 0.442 0.50698 0.48178 0.0
N525 N 0.38342 0.51872 0.43365 0.0
H526 H 1.00608 0.38585 0.30252 0.0
H527 H 0.04112 0.43702 0.68631 0.0
H528 H 0.06687 0.36878 0.41256 0.0
H529 H 0.9956 0.47035 0.54247 0.0
H530 H 0.04846 0.40969 0.59081 0.0
H531 H 0.99953 0.41484 0.39397 0.0
C532 C 0.01803 0.38819 0.34585 0.0
C533 C 0.03707 0.37487 0.34972 0.0
C534 C 0.03688 0.42299 0.58003 0.0
C535 C 0.0296 0.40785 0.45471 0.0
C536 C 0.03263 0.43853 0.63463 0.0
C537 C 0.01769 0.4559 0.62233 0.0
C538 C 0.02584 0.4246 0.51289 0.0
C539 C 0.00723 0.45718 0.55415 0.0
C540 C 0.01435 0.4048 0.39772 0.0
C541 C 0.05208 0.37877 0.40687 0.0
N542 N 0.01138 0.44164 0.50213 0.0
N543 N 0.04794 0.39474 0.45724 0.0
H544 H 0.84557 0.98087 0.95659 0.0
H545 H 0.96775 0.02338 0.85946 0.0
H546 H 0.88403 0.02381 0.09602 0.0
H547 H 0.92265 0.99706 0.69991 0.0
H548 H 0.93982 0.01742 0.95397 0.0
H549 H 0.8762 0.98045 0.86972 0.0
C550 C 0.86046 0.99011 0.96937 0.0
C551 C 0.86195 1.00267 0.03368 0.0
C552 C 0.93607 0.01274 0.89846 0.0
C553 C 0.89728 1.00199 0.93431 0.0
C554 C 0.9521 0.01592 0.84475 0.0
C555 C 0.94762 0.0103 0.77231 0.0
C556 C 0.91529 1.00396 0.87949 0.0
C557 C 0.92674 1.00151 0.75535 0.0
C558 C 0.87797 0.9898 0.91966 0.0
C559 C 0.88201 0.01377 0.04771 0.0
N560 N 0.91134 0.99856 0.80858 0.0
N561 N 0.89877 0.0133 0.99828 0.0
H562 H 0.52357 0.86114 0.04389 0.0
H563 H 0.49458 0.98416 0.91144 0.0
H564 H 0.48757 0.90809 0.1756 0.0
H565 H 0.53418 0.93819 0.78787 0.0
H566 H 0.49403 0.95768 0.01268 0.0
H567 H 0.53015 0.89021 0.95433 0.0
C568 C 0.51735 0.87764 0.05478 0.0
C569 C 0.50485 0.88202 0.11757 0.0
C570 C 0.503 0.95346 0.96367 0.0
C571 C 0.51195 0.91546 0.0137 0.0
C572 C 0.50334 0.96859 0.90592 0.0
C573 C 0.51429 0.96329 0.84095 0.0
C574 C 0.51364 0.93284 0.9563 0.0
C575 C 0.52541 0.9429 0.83679 0.0
C576 C 0.52097 0.89424 1.0031 0.0
C577 C 0.49693 0.90374 0.12754 0.0
N578 N 0.52465 0.92838 0.89333 0.0
N579 N 0.50046 0.91956 0.076 0.0
H580 H 0.66474 0.52764 0.02626 0.0
H581 H 0.53774 0.51618 0.90104 0.0
H582 H 0.61341 0.50619 0.17355 0.0
H583 H 0.59349 0.51815 0.7549 0.0
H584 H 0.56366 0.51859 0.00478 0.0
H585 H 0.63715 0.53105 0.93007 0.0
C586 C 0.64759 0.52403 0.03893 0.0
C587 C 0.64149 0.51658 0.10845 0.0
C588 C 0.57013 0.51864 0.9499 0.0
C589 C 0.60965 0.52009 0.99728 0.0
C590 C 0.55537 0.51736 0.89086 0.0
C591 C 0.56353 0.51692 0.81942 0.0
C592 C 0.5931 0.51981 0.93701 0.0
C593 C 0.5865 0.51836 0.80909 0.0
C594 C 0.63184 0.52576 0.98356 0.0
C595 C 0.61896 0.51176 0.12067 0.0
N596 N 0.60042 0.51976 0.867 0.0
N597 N 0.60387 0.51352 0.06564 0.0
H598 H 0.01153 0.67773 0.99463 0.0
H599 H 0.99926 0.54938 0.88549 0.0
H600 H 0.98706 0.62773 0.142 0.0
H601 H 0.01846 0.60074 0.73517 0.0
H602 H 0.99631 0.57733 0.98195 0.0
H603 H 0.01639 0.64927 0.90165 0.0
C604 C 0.00745 0.66072 0.00793 0.0
C605 C 0.99887 0.65521 0.07662 0.0
C606 C 1.00115 0.5825 0.92788 0.0
C607 C 1.00407 0.62241 0.96926 0.0
C608 C 1.0028 0.56655 0.87279 0.0
C609 C 0.00901 0.57278 0.80217 0.0
C610 C 1.00585 0.60485 0.91233 0.0
C611 C 0.01353 0.59523 0.7888 0.0
C612 C 0.01004 0.64447 0.9544 0.0
C613 C 0.99349 0.63287 0.08973 0.0
N614 N 0.01187 0.61042 0.84326 0.0
N615 N 0.99615 0.61733 0.03666 0.0
H616 H 0.13319 0.19411 0.3691 0.0
H617 H 0.05924 0.09385 0.25436 0.0
H618 H 0.1143 0.17999 0.14734 0.0
H619 H 0.08892 0.09911 0.46742 0.0
H620 H 0.08563 0.12101 0.20916 0.0
H621 H 0.12405 0.15588 0.40168 0.0
C622 C 0.12774 0.18284 0.32685 0.0
C623 C 0.12398 0.19052 0.25579 0.0
C624 C 0.08667 0.11598 0.26558 0.0
C625 C 0.11323 0.14687 0.29277 0.0
C626 C 0.0716 0.10033 0.29143 0.0
C627 C 0.07139 0.09463 0.36538 0.0
C628 C 0.10139 0.12632 0.31422 0.0
C629 C 0.08788 0.10367 0.41059 0.0
C630 C 0.12251 0.16099 0.34545 0.0
C631 C 0.11735 0.17501 0.20298 0.0
N632 N 0.10189 0.11944 0.38471 0.0
N633 N 0.11167 0.15412 0.22291 0.0
H634 H 0.2867 0.91309 0.48299 0.0
H635 H 0.41605 0.89973 0.41534 0.0
H636 H 0.31754 0.90371 0.2732 0.0
H637 H 0.38714 0.93535 0.59544 0.0
H638 H 0.37913 0.88657 0.38149 0.0
H639 H 0.32255 0.9063 0.54086 0.0
C640 C 0.30079 0.90915 0.44898 0.0
C641 C 0.29911 0.9099 0.37269 0.0
C642 C 0.38101 0.89684 0.42942 0.0
C643 C 0.33996 0.90152 0.43895 0.0
C644 C 0.40203 0.9045 0.44852 0.0
C645 C 0.40466 0.91925 0.50703 0.0
C646 C 0.36251 0.90388 0.46928 0.0
C647 C 0.38597 0.92418 0.54955 0.0
C648 C 0.3212 0.90515 0.48224 0.0
C649 C 0.31781 0.90364 0.33198 0.0
N650 N 0.36562 0.91684 0.52903 0.0
N651 N 0.33752 0.90015 0.36556 0.0
H652 H 0.58989 0.30457 0.40586 0.0
H653 H 0.60389 0.43061 0.33799 0.0
H654 H 0.63484 0.32906 0.2411 0.0
H655 H 0.58025 0.40354 0.54088 0.0
H656 H 0.61905 0.39417 0.30674 0.0
H657 H 0.59106 0.34018 0.4644 0.0
C658 C 0.60058 0.31706 0.38249 0.0
C659 C 0.61173 0.3136 0.31626 0.0
C660 C 0.611 0.39637 0.35883 0.0
C661 C 0.61216 0.35536 0.3827 0.0
C662 C 0.60219 0.4171 0.37639 0.0
C663 C 0.59051 0.42005 0.44166 0.0
C664 C 0.60776 0.37842 0.40637 0.0
C665 C 0.58913 0.40209 0.49 0.0
C666 C 0.60101 0.33771 0.4161 0.0
C667 C 0.62505 0.33103 0.28987 0.0
N668 N 0.59728 0.38199 0.47081 0.0
N669 N 0.62437 0.35135 0.32191 0.0
H670 H 0.19866 0.40133 0.39467 0.0
H671 H 0.08085 0.45179 0.29071 0.0
H672 H 0.17703 0.41453 0.17496 0.0
H673 H 0.10966 0.45235 0.50586 0.0
H674 H 0.11133 0.42817 0.24961 0.0
H675 H 0.16108 0.40892 0.43733 0.0
C676 C 0.18593 0.40528 0.35517 0.0
C677 C 0.19124 0.40784 0.28132 0.0
C678 C 0.11071 0.4332 0.3061 0.0
C679 C 0.14826 0.41664 0.32978 0.0
C680 C 0.09342 0.44684 0.32946 0.0
C681 C 0.0928 0.45443 0.40162 0.0
C682 C 0.12748 0.42711 0.35523 0.0
C683 C 0.10926 0.44692 0.44982 0.0
C684 C 0.16449 0.40964 0.37957 0.0
C685 C 0.17388 0.41244 0.23246 0.0
N686 N 0.12602 0.43392 0.42556 0.0
N687 N 0.1533 0.41715 0.25773 0.0
H688 H 0.88274 0.84244 0.17616 0.0
H689 H 0.95207 0.90924 0.87971 0.0
H690 H 0.92359 0.81295 0.00861 0.0
H691 H 0.93762 0.93545 0.09285 0.0
H692 H 0.92988 0.87661 0.90781 0.0
H693 H 0.89137 0.87893 0.12602 0.0
C694 C 0.89321 0.84334 0.12859 0.0
C695 C 0.90314 0.82419 0.09915 0.0
C696 C 0.93126 0.88967 0.948 0.0
C697 C 0.91217 0.86604 0.03991 0.0
C698 C 0.94385 0.90836 0.93197 0.0
C699 C 0.94687 0.92503 0.98433 0.0
C700 C 0.92158 0.88753 0.01689 0.0
C701 C 0.93602 0.92279 0.05145 0.0
C702 C 0.89796 0.86428 0.09983 0.0
C703 C 0.91552 0.82678 0.03473 0.0
N704 N 0.92398 0.90424 0.06616 0.0
N705 N 0.91989 0.84726 0.00815 0.0
H706 H 0.69934 0.14836 0.11004 0.0
H707 H 0.62102 0.10662 0.78998 0.0
H708 H 0.71833 0.10321 0.93799 0.0
H709 H 0.59858 0.11953 0.00887 0.0
H710 H 0.65746 0.12121 0.82294 0.0
H711 H 0.66353 0.15314 0.05017 0.0
C712 C 0.69637 0.13969 0.0595 0.0
C713 C 0.71187 0.12443 0.03167 0.0
C714 C 0.64432 0.12135 0.86302 0.0
C715 C 0.67124 0.13092 0.96119 0.0
C716 C 0.62359 0.11284 0.84458 0.0
C717 C 0.60688 0.11112 0.8974 0.0
C718 C 0.64833 0.12836 0.93453 0.0
C719 C 0.61096 0.12028 0.96643 0.0
C720 C 0.67594 0.1427 0.02504 0.0
C721 C 0.70723 0.11491 0.96328 0.0
N722 N 0.63142 0.12814 0.98343 0.0
N723 N 0.68725 0.11803 0.93125 0.0
H724 H 0.3907 0.72082 0.02843 0.0
H725 H 0.41572 0.59435 0.11924 0.0
H726 H 0.39767 0.69388 0.24495 0.0
H727 H 0.42409 0.62425 0.90773 0.0
H728 H 0.39758 0.62821 0.16119 0.0
H729 H 0.3908 0.68307 0.97997 0.0
C730 C 0.39175 0.70703 0.06599 0.0
C731 C 0.39485 0.71069 0.1408 0.0
C732 C 0.40304 0.62719 0.10522 0.0
C733 C 0.39483 0.6675 0.08566 0.0
C734 C 0.41353 0.60792 0.08138 0.0
C735 C 0.42188 0.60661 0.01031 0.0
C736 C 0.40097 0.64531 0.05778 0.0
C737 C 0.41799 0.62449 0.96303 0.0
C738 C 0.39177 0.68548 0.03824 0.0
C739 C 0.39538 0.69209 0.18691 0.0
N740 N 0.40813 0.64323 0.98794 0.0
N741 N 0.39585 0.67135 0.15846 0.0
H742 H 0.81565 0.38454 0.16121 0.0
H743 H 0.88936 0.44368 0.85959 0.0
H744 H 0.79233 0.43255 1.00393 0.0
H745 H 0.91587 0.41663 0.05882 0.0
H746 H 0.85347 0.42744 0.88871 0.0
H747 H 0.85163 0.38461 0.10033 0.0
C748 C 0.81777 0.39481 0.11349 0.0
C749 C 0.80087 0.40923 0.08999 0.0
C750 C 0.86726 0.4247 0.92539 0.0
C751 C 0.84185 0.40868 0.01879 0.0
C752 C 0.88781 0.43387 0.90865 0.0
C753 C 0.90557 0.43184 0.95751 0.0
C754 C 0.86438 0.41348 0.99155 0.0
C755 C 0.90246 0.41905 0.02053 0.0
C756 C 0.83833 0.39468 0.07854 0.0
C757 C 0.80454 0.42122 0.02538 0.0
N758 N 0.88214 0.41061 0.03633 0.0
N759 N 0.82468 0.42093 0.99297 0.0
H760 H 0.01159 0.17888 0.03306 0.0
H761 H 0.00944 0.10141 0.67829 0.0
H762 H 0.01715 0.20456 0.81475 0.0
H763 H 0.00843 0.07665 0.89856 0.0
H764 H 0.01 0.13933 0.72594 0.0
H765 H 0.00739 0.14165 0.98346 0.0
C766 C 0.01154 0.17682 0.97457 0.0
C767 C 0.01471 0.19508 0.92821 0.0
C768 C 0.00963 0.12558 0.7638 0.0
C769 C 0.0104 0.15203 0.87072 0.0
C770 C 0.00931 0.10388 0.73662 0.0
C771 C 0.00896 0.08565 0.78433 0.0
C772 C 0.00951 0.12921 0.83932 0.0
C773 C 0.0088 0.09004 0.85944 0.0
C774 C 0.00938 0.15542 0.94624 0.0
C775 C 0.01499 0.19105 0.85281 0.0
N776 N 0.00908 0.11128 0.88442 0.0
N777 N 0.01295 0.17001 0.82652 0.0
H778 H 0.34566 0.03327 0.03279 0.0
H779 H 0.42284 1.00364 0.69146 0.0
H780 H 0.32052 1.00438 0.83439 0.0
H781 H 0.44694 0.03248 0.89129 0.0
H782 H 0.38505 1.00526 0.73981 0.0
H783 H 0.38239 0.03525 0.97813 0.0
C784 C 0.34772 0.02766 0.97728 0.0
C785 C 0.32981 0.01861 0.93839 0.0
C786 C 0.39861 0.0113 0.77294 0.0
C787 C 0.37226 0.02037 0.87568 0.0
C788 C 0.42022 0.01038 0.74536 0.0
C789 C 0.43818 0.01788 0.78735 0.0
C790 C 0.39488 0.01981 0.84307 0.0
C791 C 0.43369 0.02642 0.85689 0.0
C792 C 0.36883 0.0286 0.94627 0.0
C793 C 0.33381 0.01121 0.867 0.0
N794 N 0.41257 0.02711 0.88248 0.0
N795 N 0.35457 0.01216 0.83817 0.0
H796 H 0.52733 0.33188 0.83822 0.0
H797 H 0.48316 0.45557 0.87883 0.0
H798 H 0.47311 0.34962 0.97974 0.0
H799 H 0.52151 0.43403 0.69393 0.0
H800 H 0.48078 0.41714 0.92001 0.0
H801 H 0.52629 0.36907 0.78617 0.0
C802 C 0.51492 0.34337 0.85767 0.0
C803 C 0.50034 0.3374 0.9141 0.0
C804 C 0.48962 0.42079 0.87023 0.0
C805 C 0.4996 0.3805 0.8557 0.0
C806 C 0.49111 0.44279 0.84681 0.0
C807 C 0.50262 0.44814 0.78281 0.0
C808 C 0.49998 0.40393 0.83006 0.0
C809 C 0.51243 0.43074 0.7435 0.0
C810 C 0.51449 0.36475 0.82818 0.0
C811 C 0.485 0.35343 0.93759 0.0
N812 N 0.51103 0.40947 0.76803 0.0
N813 N 0.48519 0.37423 0.90888 0.0
H814 H 0.17122 0.51571 0.03176 0.0
H815 H 0.08941 0.50799 0.68869 0.0
H816 H 0.1938 0.5064 0.81126 0.0
H817 H 0.06699 0.5174 0.90934 0.0
H818 H 0.12771 0.50874 0.73187 0.0
H819 H 0.13325 0.51848 0.98707 0.0
C820 C 0.16831 0.51463 0.97376 0.0
C821 C 0.18593 0.51081 0.92535 0.0
C822 C 0.11443 0.51067 0.77089 0.0
C823 C 0.14208 0.51347 0.87376 0.0
C824 C 0.09249 0.51022 0.74627 0.0
C825 C 0.07483 0.51257 0.79542 0.0
C826 C 0.11889 0.5135 0.84534 0.0
C827 C 0.07999 0.51544 0.86938 0.0
C828 C 0.1465 0.51598 0.94833 0.0
C829 C 0.18083 0.50907 0.85089 0.0
N830 N 0.10149 0.51579 0.892 0.0
N831 N 0.15944 0.51032 0.82752 0.0
H832 H 0.00829 0.83022 0.59559 0.0
H833 H 0.00705 0.96026 0.50316 0.0
H834 H 0.00802 0.85676 0.37766 0.0
H835 H 0.00878 0.93468 0.7224 0.0
H836 H 0.00826 0.92238 0.45696 0.0
H837 H 0.00963 0.86809 0.64348 0.0
C838 C 0.00864 0.84395 0.5577 0.0
C839 C 0.00805 0.84013 0.48226 0.0
C840 C 0.00841 0.92501 0.5152 0.0
C841 C 0.00954 0.88371 0.53701 0.0
C842 C 0.00766 0.94672 0.54178 0.0
C843 C 0.00777 0.95083 0.61702 0.0
C844 C 0.00922 0.90708 0.56394 0.0
C845 C 0.00866 0.93243 0.664 0.0
C846 C 0.00944 0.86561 0.58517 0.0
C847 C 0.00878 0.85872 0.43609 0.0
N848 N 0.00931 0.91142 0.63673 0.0
N849 N 0.00935 0.87959 0.46414 0.0
H850 H 0.66496 0.99822 0.36602 0.0
H851 H 0.58994 0.02203 0.71726 0.0
H852 H 0.69189 0.0211 0.57027 0.0
H853 H 0.5645 0.9981 0.51232 0.0
H854 H 0.62754 0.02047 0.66715 0.0
H855 H 0.62846 0.99601 0.42192 0.0
C856 C 0.66335 1.00243 0.423 0.0
C857 C 0.68171 0.0099 0.46321 0.0
C858 C 0.61372 0.0155 0.63328 0.0
C859 C 0.63948 0.0079 0.52754 0.0
C860 C 0.59221 0.01643 0.66184 0.0
C861 C 0.57392 0.0103 0.61896 0.0
C862 C 0.617 0.00838 0.56126 0.0
C863 C 0.57799 1.00307 0.54754 0.0
C864 C 0.64235 1.00138 0.45479 0.0
C865 C 0.67825 0.01555 0.53662 0.0
N866 N 0.599 1.00237 0.52106 0.0
N867 N 0.65759 0.01455 0.56622 0.0
H868 H 0.50121 0.70517 0.62672 0.0
H869 H 0.51974 0.57714 0.52593 0.0
H870 H 0.51554 0.68173 0.4101 0.0
H871 H 0.50265 0.59988 0.74131 0.0
H872 H 0.5207 0.61558 0.48461 0.0
H873 H 0.50435 0.66712 0.67163 0.0
C874 C 0.50516 0.69208 0.58859 0.0
C875 C 0.50803 0.69679 0.5143 0.0
C876 C 0.51681 0.61219 0.54098 0.0
C877 C 0.51165 0.65301 0.56561 0.0
C878 C 0.51623 0.59017 0.56473 0.0
C879 C 0.51102 0.58511 0.63733 0.0
C880 C 0.51213 0.62943 0.59 0.0
C881 C 0.50669 0.60286 0.68483 0.0
C882 C 0.50698 0.67033 0.61436 0.0
C883 C 0.51344 0.67908 0.46788 0.0
N884 N 0.50729 0.62416 0.66031 0.0
N885 N 0.51491 0.65804 0.49416 0.0
H886 H 0.81939 0.51085 0.61872 0.0
H887 H 0.94754 0.53433 0.53204 0.0
H888 H 0.84401 0.52813 0.4058 0.0
H889 H 0.92466 0.50655 0.7349 0.0
H890 H 0.90926 0.53599 0.48941 0.0
H891 H 0.85719 0.51311 0.66618 0.0
C892 C 0.83266 0.51521 0.58184 0.0
C893 C 0.82831 0.51915 0.50773 0.0
C894 C 0.91258 0.5296 0.54335 0.0
C895 C 0.87186 0.52194 0.56236 0.0
C896 C 0.93451 0.52866 0.56793 0.0
C897 C 0.9395 0.52021 0.6373 0.0
C898 C 0.89533 0.52212 0.58835 0.0
C899 C 0.92173 0.51314 0.68098 0.0
C900 C 0.85429 0.51655 0.60917 0.0
C901 C 0.84631 0.52518 0.46334 0.0
N902 N 0.9005 0.51422 0.65579 0.0
N903 N 0.86721 0.52627 0.49119 0.0
loop_
_geom_bond_atom_site_label_1
_geom_bond_atom_site_label_2
_geom_bond_distance
_geom_bond_site_symmetry_2
_ccdc_geom_bond_type
C0 C1 1.386 . S
C0 C2 1.397 . S
C0 H24 0.931 . S
C1 C0 1.386 . S
C1 C5 1.397 . S
C2 C0 1.397 . S
C2 C3 1.384 . S
C2 H25 0.930 . S
C3 C2 1.384 . S
C3 C4 1.377 . S
C3 C6 1.481 . S
C4 C3 1.377 . S
C4 C5 1.389 . S
C4 H26 0.929 . S
C5 C1 1.397 . S
C5 C4 1.389 . S
C5 H27 0.931 . S
C6 C3 1.481 . S
C6 C7 1.387 . S
C6 C11 1.390 . S
C7 C6 1.387 . S
C7 C8 1.401 . S
C7 H28 0.930 . S
C8 C7 1.401 . S
C8 C9 1.376 . S
C8 C17 1.511 . S
C9 C8 1.376 . S
C9 C10 1.392 . S
C9 H30 0.931 . S
C10 C9 1.392 . S
C10 C11 1.361 . S
C10 C12 1.500 . S
C11 C6 1.390 . S
C11 C10 1.361 . S
C11 H29 0.931 . S
C12 C10 1.500 . S
C12 C13 1.371 . S
C12 C14 1.365 . S
C13 C12 1.371 . S
C13 C23 1.386 . S
C13 H31 0.931 . S
C14 C12 1.365 . S
C14 C15 1.409 . S
C14 H32 0.929 . S
C15 C14 1.409 . S
C15 C16 1.380 . S
C15 H33 0.930 . S
C16 C15 1.380 . S
C16 C23 1.357 . S
C17 C8 1.511 . S
C17 C18 1.341 . S
C17 C19 1.371 . S
C18 C17 1.341 . S
C18 C22 1.394 . S
C18 H34 0.930 . S
C19 C17 1.371 . S
C19 C20 1.392 . S
C19 H35 0.931 . S
C20 C19 1.392 . S
C20 C21 1.331 . S
C20 H38 0.932 . S
C21 C20 1.331 . S
C21 C22 1.336 . S
C22 C18 1.394 . S
C22 C21 1.336 . S
C22 H37 0.929 . S
C23 C13 1.386 . S
C23 C16 1.357 . S
C23 H36 0.928 . S
H24 C0 0.931 . S
H25 C2 0.930 . S
H26 C4 0.929 . S
H27 C5 0.931 . S
H28 C7 0.930 . S
H29 C11 0.931 . S
H30 C9 0.931 . S
H31 C13 0.931 . S
H32 C14 0.929 . S
H33 C15 0.930 . S
H34 C18 0.930 . S
H35 C19 0.931 . S
H36 C23 0.928 . S
H37 C22 0.929 . S
H38 C20 0.932 . S
C39 C40 1.394 . S
C39 C41 1.397 . S
C39 H63 0.931 . S
C40 C39 1.394 . S
C40 C44 1.389 1_655 S
C41 C39 1.397 . S
C41 C42 1.389 . S
C41 H64 0.930 . S
C42 C41 1.389 . S
C42 C43 1.373 1_655 S
C42 C45 1.480 . S
C43 C42 1.373 1_455 S
C43 C44 1.389 . S
C43 H65 0.929 . S
C44 C40 1.389 1_455 S
C44 C43 1.389 . S
C44 H66 0.931 . S
C45 C42 1.480 . S
C45 C46 1.388 . S
C45 C50 1.390 . S
C46 C45 1.388 . S
C46 C47 1.402 . S
C46 H67 0.930 . S
C47 C46 1.402 . S
C47 C48 1.376 . S
C47 C56 1.513 . S
C48 C47 1.376 . S
C48 C49 1.392 . S
C48 H69 0.934 . S
C49 C48 1.392 . S
C49 C50 1.361 . S
C49 C51 1.499 1_655 S
C50 C45 1.390 . S
C50 C49 1.361 . S
C50 H68 0.931 . S
C51 C49 1.499 1_455 S
C51 C52 1.362 1_455 S
C51 C53 1.374 . S
C52 C51 1.362 1_655 S
C52 C62 1.386 . S
C52 H70 0.931 . S
C53 C51 1.374 . S
C53 C54 1.409 . S
C53 H71 0.929 . S
C54 C53 1.409 . S
C54 C55 1.379 . S
C54 H72 0.930 . S
C55 C54 1.379 . S
C55 C62 1.359 1_455 S
C56 C47 1.513 . S
C56 C57 1.341 . S
C56 C58 1.371 1_655 S
C57 C56 1.341 . S
C57 C61 1.394 . S
C57 H73 0.930 . S
C58 C56 1.371 1_455 S
C58 C59 1.392 . S
C58 H74 0.931 . S
C59 C58 1.392 . S
C59 C60 1.322 1_455 S
C59 H77 0.932 . S
C60 C59 1.322 1_655 S
C60 C61 1.345 . S
C61 C57 1.394 . S
C61 C60 1.345 . S
C61 H76 0.929 . S
C62 C52 1.386 . S
C62 C55 1.359 1_655 S
C62 H75 0.928 . S
H63 C39 0.931 . S
H64 C41 0.930 . S
H65 C43 0.929 . S
H66 C44 0.931 . S
H67 C46 0.930 . S
H68 C50 0.931 . S
H69 C48 0.934 . S
H70 C52 0.931 . S
H71 C53 0.929 . S
H72 C54 0.930 . S
H73 C57 0.930 . S
H74 C58 0.931 . S
H75 C62 0.928 . S
H76 C61 0.929 . S
H77 C59 0.932 . S
C78 C79 1.394 . S
C78 C80 1.397 . S
C78 H102 0.931 . S
C79 C78 1.394 . S
C79 C83 1.389 1_565 S
C80 C78 1.397 . S
C80 C81 1.389 . S
C80 H103 0.930 . S
C81 C80 1.389 . S
C81 C82 1.373 1_565 S
C81 C84 1.480 . S
C82 C81 1.373 1_545 S
C82 C83 1.389 . S
C82 H104 0.929 . S
C83 C79 1.389 1_545 S
C83 C82 1.389 . S
C83 H105 0.931 . S
C84 C81 1.480 . S
C84 C85 1.388 . S
C84 C89 1.390 . S
C85 C84 1.388 . S
C85 C86 1.402 . S
C85 H106 0.930 . S
C86 C85 1.402 . S
C86 C87 1.376 . S
C86 C95 1.513 . S
C87 C86 1.376 . S
C87 C88 1.392 . S
C87 H108 0.934 . S
C88 C87 1.392 . S
C88 C89 1.361 . S
C88 C90 1.499 1_565 S
C89 C84 1.390 . S
C89 C88 1.361 . S
C89 H107 0.931 . S
C90 C88 1.499 1_545 S
C90 C91 1.362 1_545 S
C90 C92 1.374 . S
C91 C90 1.362 1_565 S
C91 C101 1.386 . S
C91 H109 0.931 . S
C92 C90 1.374 . S
C92 C93 1.409 . S
C92 H110 0.929 . S
C93 C92 1.409 . S
C93 C94 1.379 . S
C93 H111 0.930 . S
C94 C93 1.379 . S
C94 C101 1.359 1_545 S
C95 C86 1.513 . S
C95 C96 1.341 . S
C95 C97 1.371 1_565 S
C96 C95 1.341 . S
C96 C100 1.394 . S
C96 H112 0.930 . S
C97 C95 1.371 1_545 S
C97 C98 1.392 . S
C97 H113 0.931 . S
C98 C97 1.392 . S
C98 C99 1.322 1_545 S
C98 H116 0.932 . S
C99 C98 1.322 1_565 S
C99 C100 1.345 . S
C100 C96 1.394 . S
C100 C99 1.345 . S
C100 H115 0.929 . S
C101 C91 1.386 . S
C101 C94 1.359 1_565 S
C101 H114 0.928 . S
H102 C78 0.931 . S
H103 C80 0.930 . S
H104 C82 0.929 . S
H105 C83 0.931 . S
H106 C85 0.930 . S
H107 C89 0.931 . S
H108 C87 0.934 . S
H109 C91 0.931 . S
H110 C92 0.929 . S
H111 C93 0.930 . S
H112 C96 0.930 . S
H113 C97 0.931 . S
H114 C101 0.928 . S
H115 C100 0.929 . S
H116 C98 0.932 . S
C117 C118 1.386 . S
C117 C119 1.397 . S
C117 H141 0.931 . S
C118 C117 1.386 . S
C118 C122 1.397 . S
C119 C117 1.397 . S
C119 C120 1.384 . S
C119 H142 0.930 . S
C120 C119 1.384 . S
C120 C121 1.377 . S
C120 C123 1.481 . S
C121 C120 1.377 . S
C121 C122 1.389 . S
C121 H143 0.929 . S
C122 C118 1.397 . S
C122 C121 1.389 . S
C122 H144 0.931 . S
C123 C120 1.481 . S
C123 C124 1.387 . S
C123 C128 1.390 . S
C124 C123 1.387 . S
C124 C125 1.401 . S
C124 H145 0.930 . S
C125 C124 1.401 . S
C125 C126 1.376 . S
C125 C134 1.511 . S
C126 C125 1.376 . S
C126 C127 1.392 . S
C126 H147 0.931 . S
C127 C126 1.392 . S
C127 C128 1.361 . S
C127 C129 1.500 . S
C128 C123 1.390 . S
C128 C127 1.361 . S
C128 H146 0.931 . S
C129 C127 1.500 . S
C129 C130 1.371 . S
C129 C131 1.365 . S
C130 C129 1.371 . S
C130 C140 1.386 . S
C130 H148 0.931 . S
C131 C129 1.365 . S
C131 C132 1.409 . S
C131 H149 0.929 . S
C132 C131 1.409 . S
C132 C133 1.380 . S
C132 H150 0.930 . S
C133 C132 1.380 . S
C133 C140 1.357 . S
C134 C125 1.511 . S
C134 C135 1.341 . S
C134 C136 1.371 . S
C135 C134 1.341 . S
C135 C139 1.394 . S
C135 H151 0.930 . S
C136 C134 1.371 . S
C136 C137 1.392 . S
C136 H152 0.931 . S
C137 C136 1.392 . S
C137 C138 1.331 . S
C137 H155 0.932 . S
C138 C137 1.331 . S
C138 C139 1.336 . S
C139 C135 1.394 . S
C139 C138 1.336 . S
C139 H154 0.929 . S
C140 C130 1.386 . S
C140 C133 1.357 . S
C140 H153 0.928 . S
H141 C117 0.931 . S
H142 C119 0.930 . S
H143 C121 0.929 . S
H144 C122 0.931 . S
H145 C124 0.930 . S
H146 C128 0.931 . S
H147 C126 0.931 . S
H148 C130 0.931 . S
H149 C131 0.929 . S
H150 C132 0.930 . S
H151 C135 0.930 . S
H152 C136 0.931 . S
H153 C140 0.928 . S
H154 C139 0.929 . S
H155 C137 0.932 . S
C156 C157 1.386 . S
C156 C158 1.397 . S
C156 H180 0.931 . S
C157 C156 1.386 . S
C157 C161 1.397 . S
C158 C156 1.397 . S
C158 C159 1.384 . S
C158 H181 0.930 . S
C159 C158 1.384 . S
C159 C160 1.377 . S
C159 C162 1.481 . S
C160 C159 1.377 . S
C160 C161 1.389 . S
C160 H182 0.929 . S
C161 C157 1.397 . S
C161 C160 1.389 . S
C161 H183 0.931 . S
C162 C159 1.481 . S
C162 C163 1.387 . S
C162 C167 1.390 . S
C163 C162 1.387 . S
C163 C164 1.401 . S
C163 H184 0.930 . S
C164 C163 1.401 . S
C164 C165 1.376 1_554 S
C164 C173 1.511 . S
C165 C164 1.376 1_556 S
C165 C166 1.392 . S
C165 H186 0.931 . S
C166 C165 1.392 . S
C166 C167 1.361 1_556 S
C166 C168 1.500 . S
C167 C162 1.390 . S
C167 C166 1.361 1_554 S
C167 H185 0.931 . S
C168 C166 1.500 . S
C168 C169 1.371 . S
C168 C170 1.365 . S
C169 C168 1.371 . S
C169 C179 1.386 . S
C169 H187 0.931 . S
C170 C168 1.365 . S
C170 C171 1.409 . S
C170 H188 0.929 . S
C171 C170 1.409 . S
C171 C172 1.380 . S
C171 H189 0.930 . S
C172 C171 1.380 . S
C172 C179 1.357 . S
C173 C164 1.511 . S
C173 C174 1.341 . S
C173 C175 1.371 . S
C174 C173 1.341 . S
C174 C178 1.394 . S
C174 H190 0.930 . S
C175 C173 1.371 . S
C175 C176 1.392 . S
C175 H191 0.931 1_554 S
C176 C175 1.392 . S
C176 C177 1.331 . S
C176 H194 0.932 . S
C177 C176 1.331 . S
C177 C178 1.336 . S
C178 C174 1.394 . S
C178 C177 1.336 . S
C178 H193 0.929 . S
C179 C169 1.386 . S
C179 C172 1.357 . S
C179 H192 0.928 . S
H180 C156 0.931 . S
H181 C158 0.930 . S
H182 C160 0.929 . S
H183 C161 0.931 . S
H184 C163 0.930 . S
H185 C167 0.931 . S
H186 C165 0.931 . S
H187 C169 0.931 . S
H188 C170 0.929 . S
H189 C171 0.930 . S
H190 C174 0.930 . S
H191 C175 0.931 1_556 S
H192 C179 0.928 . S
H193 C178 0.929 . S
H194 C176 0.932 . S
C195 C196 1.387 . S
C195 C197 1.397 . S
C195 H219 0.931 . S
C196 C195 1.387 . S
C196 C200 1.396 1_655 S
C197 C195 1.397 . S
C197 C198 1.381 . S
C197 H220 0.930 . S
C198 C197 1.381 . S
C198 C199 1.380 1_655 S
C198 C201 1.480 . S
C199 C198 1.380 1_455 S
C199 C200 1.389 . S
C199 H221 0.929 . S
C200 C196 1.396 1_455 S
C200 C199 1.389 . S
C200 H222 0.931 . S
C201 C198 1.480 . S
C201 C202 1.388 . S
C201 C206 1.390 . S
C202 C201 1.388 . S
C202 C203 1.402 . S
C202 H223 0.930 . S
C203 C202 1.402 . S
C203 C204 1.376 1_554 S
C203 C212 1.512 . S
C204 C203 1.376 1_556 S
C204 C205 1.392 1_655 S
C204 H225 0.933 . S
C205 C204 1.392 1_455 S
C205 C206 1.361 1_456 S
C205 C207 1.499 . S
C206 C201 1.390 . S
C206 C205 1.361 1_654 S
C206 H224 0.931 . S
C207 C205 1.499 . S
C207 C208 1.357 1_455 S
C207 C209 1.380 . S
C208 C207 1.357 1_655 S
C208 C218 1.386 . S
C208 H226 0.931 . S
C209 C207 1.380 . S
C209 C210 1.409 . S
C209 H227 0.929 . S
C210 C209 1.409 . S
C210 C211 1.384 . S
C210 H228 0.930 . S
C211 C210 1.384 . S
C211 C218 1.353 1_455 S
C212 C203 1.512 . S
C212 C213 1.341 . S
C212 C214 1.371 1_655 S
C213 C212 1.341 . S
C213 C217 1.394 . S
C213 H229 0.930 . S
C214 C212 1.371 1_455 S
C214 C215 1.392 . S
C214 H230 0.931 1_554 S
C215 C214 1.392 . S
C215 C216 1.326 1_455 S
C215 H233 0.932 . S
C216 C215 1.326 1_655 S
C216 C217 1.341 . S
C217 C213 1.394 . S
C217 C216 1.341 . S
C217 H232 0.929 . S
C218 C208 1.386 . S
C218 C211 1.353 1_655 S
C218 H231 0.928 . S
H219 C195 0.931 . S
H220 C197 0.930 . S
H221 C199 0.929 . S
H222 C200 0.931 . S
H223 C202 0.930 . S
H224 C206 0.931 . S
H225 C204 0.933 . S
H226 C208 0.931 . S
H227 C209 0.929 . S
H228 C210 0.930 . S
H229 C213 0.930 . S
H230 C214 0.931 1_556 S
H231 C218 0.928 . S
H232 C217 0.929 . S
H233 C215 0.932 . S
C234 C235 1.387 . S
C234 C236 1.397 . S
C234 H258 0.931 . S
C235 C234 1.387 . S
C235 C239 1.396 1_565 S
C236 C234 1.397 . S
C236 C237 1.381 . S
C236 H259 0.930 . S
C237 C236 1.381 . S
C237 C238 1.380 1_565 S
C237 C240 1.480 . S
C238 C237 1.380 1_545 S
C238 C239 1.389 . S
C238 H260 0.929 . S
C239 C235 1.396 1_545 S
C239 C238 1.389 . S
C239 H261 0.931 . S
C240 C237 1.480 . S
C240 C241 1.388 . S
C240 C245 1.390 . S
C241 C240 1.388 . S
C241 C242 1.402 . S
C241 H262 0.930 . S
C242 C241 1.402 . S
C242 C243 1.376 1_554 S
C242 C251 1.512 . S
C243 C242 1.376 1_556 S
C243 C244 1.392 1_565 S
C243 H264 0.933 . S
C244 C243 1.392 1_545 S
C244 C245 1.361 1_546 S
C244 C246 1.499 . S
C245 C240 1.390 . S
C245 C244 1.361 1_564 S
C245 H263 0.931 . S
C246 C244 1.499 . S
C246 C247 1.357 1_545 S
C246 C248 1.380 . S
C247 C246 1.357 1_565 S
C247 C257 1.386 . S
C247 H265 0.931 . S
C248 C246 1.380 . S
C248 C249 1.409 . S
C248 H266 0.929 . S
C249 C248 1.409 . S
C249 C250 1.384 . S
C249 H267 0.930 . S
C250 C249 1.384 . S
C250 C257 1.353 1_545 S
C251 C242 1.512 . S
C251 C252 1.341 . S
C251 C253 1.371 1_565 S
C252 C251 1.341 . S
C252 C256 1.394 . S
C252 H268 0.930 . S
C253 C251 1.371 1_545 S
C253 C254 1.392 . S
C253 H269 0.931 1_554 S
C254 C253 1.392 . S
C254 C255 1.326 1_545 S
C254 H272 0.932 . S
C255 C254 1.326 1_565 S
C255 C256 1.341 . S
C256 C252 1.394 . S
C256 C255 1.341 . S
C256 H271 0.929 . S
C257 C247 1.386 . S
C257 C250 1.353 1_565 S
C257 H270 0.928 . S
H258 C234 0.931 . S
H259 C236 0.930 . S
H260 C238 0.929 . S
H261 C239 0.931 . S
H262 C241 0.930 . S
H263 C245 0.931 . S
H264 C243 0.933 . S
H265 C247 0.931 . S
H266 C248 0.929 . S
H267 C249 0.930 . S
H268 C252 0.930 . S
H269 C253 0.931 1_556 S
H270 C257 0.928 . S
H271 C256 0.929 . S
H272 C254 0.932 . S
C273 C274 1.386 . S
C273 C275 1.397 . S
C273 H297 0.931 . S
C274 C273 1.386 . S
C274 C278 1.397 . S
C275 C273 1.397 . S
C275 C276 1.384 . S
C275 H298 0.930 . S
C276 C275 1.384 . S
C276 C277 1.377 . S
C276 C279 1.481 . S
C277 C276 1.377 . S
C277 C278 1.389 . S
C277 H299 0.929 . S
C278 C274 1.397 . S
C278 C277 1.389 . S
C278 H300 0.931 . S
C279 C276 1.481 . S
C279 C280 1.387 . S
C279 C284 1.390 1_556 S
C280 C279 1.387 . S
C280 C281 1.401 1_556 S
C280 H301 0.930 . S
C281 C280 1.401 1_554 S
C281 C282 1.376 . S
C281 C290 1.511 . S
C282 C281 1.376 . S
C282 C283 1.392 . S
C282 H303 0.931 . S
C283 C282 1.392 . S
C283 C284 1.361 . S
C283 C285 1.500 . S
C284 C279 1.390 1_554 S
C284 C283 1.361 . S
C284 H302 0.931 . S
C285 C283 1.500 . S
C285 C286 1.371 . S
C285 C287 1.365 . S
C286 C285 1.371 . S
C286 C296 1.386 . S
C286 H304 0.931 . S
C287 C285 1.365 . S
C287 C288 1.409 . S
C287 H305 0.929 . S
C288 C287 1.409 . S
C288 C289 1.380 . S
C288 H306 0.930 . S
C289 C288 1.380 . S
C289 C296 1.357 . S
C290 C281 1.511 . S
C290 C291 1.341 . S
C290 C292 1.371 . S
C291 C290 1.341 . S
C291 C295 1.394 . S
C291 H307 0.930 1_554 S
C292 C290 1.371 . S
C292 C293 1.392 . S
C292 H308 0.931 . S
C293 C292 1.392 . S
C293 C294 1.331 . S
C293 H311 0.932 . S
C294 C293 1.331 . S
C294 C295 1.336 . S
C295 C291 1.394 . S
C295 C294 1.336 . S
C295 H310 0.929 . S
C296 C286 1.386 . S
C296 C289 1.357 . S
C296 H309 0.928 . S
H297 C273 0.931 . S
H298 C275 0.930 . S
H299 C277 0.929 . S
H300 C278 0.931 . S
H301 C280 0.930 . S
H302 C284 0.931 . S
H303 C282 0.931 . S
H304 C286 0.931 . S
H305 C287 0.929 . S
H306 C288 0.930 . S
H307 C291 0.930 1_556 S
H308 C292 0.931 . S
H309 C296 0.928 . S
H310 C295 0.929 . S
H311 C293 0.932 . S
Sm312 C314 2.846 . S
Sm312 O332 2.543 . S
Sm312 O333 2.450 . S
Sm312 O334 2.681 1_565 S
Sm312 O335 2.464 . S
Sm312 O336 2.396 . S
Sm312 O340 2.386 1_455 S
Sm312 O343 2.408 1_565 S
Sm313 C323 2.846 . S
Sm313 O334 2.386 1_655 S
Sm313 O337 2.408 1_545 S
Sm313 O338 2.543 . S
Sm313 O339 2.450 . S
Sm313 O340 2.681 1_545 S
Sm313 O341 2.464 . S
Sm313 O342 2.396 . S
C314 Sm312 2.846 . S
C314 C315 1.506 . S
C314 O332 1.261 . S
C314 O333 1.242 . S
C315 C314 1.506 . S
C315 C316 1.358 . S
C315 C320 1.382 . S
C316 C315 1.358 . S
C316 C317 1.385 . S
C316 H344 0.930 1_455 S
C317 C316 1.385 . S
C317 C318 1.395 . S
C317 H345 0.929 1_455 S
C318 C317 1.395 . S
C318 C319 1.335 . S
C319 C318 1.335 . S
C319 C320 1.398 . S
C319 H346 0.930 . S
C320 C315 1.382 . S
C320 C319 1.398 . S
C320 H347 0.929 . S
C321 O334 1.271 1_565 S
C321 O335 1.251 . S
C322 O336 1.252 1_655 S
C322 O337 1.272 . S
C323 Sm313 2.846 . S
C323 C324 1.506 . S
C323 O338 1.261 . S
C323 O339 1.242 . S
C324 C323 1.506 . S
C324 C325 1.358 . S
C324 C329 1.382 . S
C325 C324 1.358 . S
C325 C326 1.385 . S
C325 H348 0.930 1_655 S
C326 C325 1.385 . S
C326 C327 1.395 . S
C326 H349 0.929 1_655 S
C327 C326 1.395 . S
C327 C328 1.335 . S
C328 C327 1.335 . S
C328 C329 1.398 . S
C328 H350 0.930 . S
C329 C324 1.382 . S
C329 C328 1.398 . S
C329 H351 0.929 . S
C330 O340 1.271 1_545 S
C330 O341 1.251 . S
C331 O342 1.252 1_455 S
C331 O343 1.272 . S
O332 Sm312 2.543 . S
O332 C314 1.261 . S
O333 Sm312 2.450 . S
O333 C314 1.242 . S
O334 Sm312 2.681 1_545 S
O334 Sm313 2.386 1_455 S
O334 C321 1.271 1_545 S
O335 Sm312 2.464 . S
O335 C321 1.251 . S
O336 Sm312 2.396 . S
O336 C322 1.252 1_455 S
O337 Sm313 2.408 1_565 S
O337 C322 1.272 . S
O338 Sm313 2.543 . S
O338 C323 1.261 . S
O339 Sm313 2.450 . S
O339 C323 1.242 . S
O340 Sm312 2.386 1_655 S
O340 Sm313 2.681 1_565 S
O340 C330 1.271 1_565 S
O341 Sm313 2.464 . S
O341 C330 1.251 . S
O342 Sm313 2.396 . S
O342 C331 1.252 1_655 S
O343 Sm312 2.408 1_545 S
O343 C331 1.272 . S
H344 C316 0.930 1_655 S
H345 C317 0.929 1_655 S
H346 C319 0.930 . S
H347 C320 0.929 . S
H348 C325 0.930 1_455 S
H349 C326 0.929 1_455 S
H350 C328 0.930 . S
H351 C329 0.929 . S
Sm352 C354 2.846 . S
Sm352 O372 2.543 . S
Sm352 O373 2.450 . S
Sm352 O374 2.681 . S
Sm352 O375 2.464 . S
Sm352 O376 2.396 . S
Sm352 O380 2.386 1_545 S
Sm352 O383 2.408 . S
Sm353 C363 2.846 . S
Sm353 O374 2.386 1_565 S
Sm353 O377 2.408 . S
Sm353 O378 2.543 . S
Sm353 O379 2.450 . S
Sm353 O380 2.681 . S
Sm353 O381 2.464 . S
Sm353 O382 2.396 . S
C354 Sm352 2.846 . S
C354 C355 1.506 . S
C354 O372 1.261 . S
C354 O373 1.242 . S
C355 C354 1.506 . S
C355 C356 1.358 . S
C355 C360 1.382 . S
C356 C355 1.358 . S
C356 C357 1.385 . S
C356 H384 0.930 1_545 S
C357 C356 1.385 . S
C357 C358 1.395 . S
C357 H385 0.929 1_545 S
C358 C357 1.395 . S
C358 C359 1.335 . S
C359 C358 1.335 . S
C359 C360 1.398 . S
C359 H386 0.930 . S
C360 C355 1.382 . S
C360 C359 1.398 . S
C360 H387 0.929 . S
C361 O374 1.271 . S
C361 O375 1.251 . S
C362 O376 1.252 1_565 S
C362 O377 1.272 . S
C363 Sm353 2.846 . S
C363 C364 1.506 . S
C363 O378 1.261 . S
C363 O379 1.242 . S
C364 C363 1.506 . S
C364 C365 1.358 . S
C364 C369 1.382 . S
C365 C364 1.358 . S
C365 C366 1.385 . S
C365 H388 0.930 1_565 S
C366 C365 1.385 . S
C366 C367 1.395 . S
C366 H389 0.929 1_565 S
C367 C366 1.395 . S
C367 C368 1.335 . S
C368 C367 1.335 . S
C368 C369 1.398 . S
C368 H390 0.930 . S
C369 C364 1.382 . S
C369 C368 1.398 . S
C369 H391 0.929 . S
C370 O380 1.271 . S
C370 O381 1.251 . S
C371 O382 1.252 1_545 S
C371 O383 1.272 . S
O372 Sm352 2.543 . S
O372 C354 1.261 . S
O373 Sm352 2.450 . S
O373 C354 1.242 . S
O374 Sm352 2.681 . S
O374 Sm353 2.386 1_545 S
O374 C361 1.271 . S
O375 Sm352 2.464 . S
O375 C361 1.251 . S
O376 Sm352 2.396 . S
O376 C362 1.252 1_545 S
O377 Sm353 2.408 . S
O377 C362 1.272 . S
O378 Sm353 2.543 . S
O378 C363 1.261 . S
O379 Sm353 2.450 . S
O379 C363 1.242 . S
O380 Sm352 2.386 1_565 S
O380 Sm353 2.681 . S
O380 C370 1.271 . S
O381 Sm353 2.464 . S
O381 C370 1.251 . S
O382 Sm353 2.396 . S
O382 C371 1.252 1_565 S
O383 Sm352 2.408 . S
O383 C371 1.272 . S
H384 C356 0.930 1_565 S
H385 C357 0.929 1_565 S
H386 C359 0.930 . S
H387 C360 0.929 . S
H388 C365 0.930 1_545 S
H389 C366 0.929 1_545 S
H390 C368 0.930 . S
H391 C369 0.929 . S
Sm392 C394 2.846 . S
Sm392 O412 2.543 . S
Sm392 O413 2.450 . S
Sm392 O414 2.681 . S
Sm392 O415 2.464 . S
Sm392 O416 2.396 . S
Sm392 O420 2.386 . S
Sm392 O423 2.408 . S
Sm393 C403 2.846 . S
Sm393 O414 2.386 . S
Sm393 O417 2.408 . S
Sm393 O418 2.543 . S
Sm393 O419 2.450 . S
Sm393 O420 2.681 . S
Sm393 O421 2.464 . S
Sm393 O422 2.396 . S
C394 Sm392 2.846 . S
C394 C395 1.506 . S
C394 O412 1.261 . S
C394 O413 1.242 . S
C395 C394 1.506 . S
C395 C396 1.358 . S
C395 C400 1.382 . S
C396 C395 1.358 . S
C396 C397 1.385 . S
C396 H424 0.930 . S
C397 C396 1.385 . S
C397 C398 1.395 . S
C397 H425 0.929 . S
C398 C397 1.395 . S
C398 C399 1.335 . S
C399 C398 1.335 . S
C399 C400 1.398 . S
C399 H426 0.930 . S
C400 C395 1.382 . S
C400 C399 1.398 . S
C400 H427 0.929 . S
C401 O414 1.271 . S
C401 O415 1.251 . S
C402 O416 1.252 . S
C402 O417 1.272 . S
C403 Sm393 2.846 . S
C403 C404 1.506 . S
C403 O418 1.261 . S
C403 O419 1.242 . S
C404 C403 1.506 . S
C404 C405 1.358 . S
C404 C409 1.382 . S
C405 C404 1.358 . S
C405 C406 1.385 . S
C405 H428 0.930 . S
C406 C405 1.385 . S
C406 C407 1.395 . S
C406 H429 0.929 . S
C407 C406 1.395 . S
C407 C408 1.335 . S
C408 C407 1.335 . S
C408 C409 1.398 . S
C408 H430 0.930 . S
C409 C404 1.382 . S
C409 C408 1.398 . S
C409 H431 0.929 . S
C410 O420 1.271 . S
C410 O421 1.251 . S
C411 O422 1.252 . S
C411 O423 1.272 . S
O412 Sm392 2.543 . S
O412 C394 1.261 . S
O413 Sm392 2.450 . S
O413 C394 1.242 . S
O414 Sm392 2.681 . S
O414 Sm393 2.386 . S
O414 C401 1.271 . S
O415 Sm392 2.464 . S
O415 C401 1.251 . S
O416 Sm392 2.396 . S
O416 C402 1.252 . S
O417 Sm393 2.408 . S
O417 C402 1.272 . S
O418 Sm393 2.543 . S
O418 C403 1.261 . S
O419 Sm393 2.450 . S
O419 C403 1.242 . S
O420 Sm392 2.386 . S
O420 Sm393 2.681 . S
O420 C410 1.271 . S
O421 Sm393 2.464 . S
O421 C410 1.251 . S
O422 Sm393 2.396 . S
O422 C411 1.252 . S
O423 Sm392 2.408 . S
O423 C411 1.272 . S
H424 C396 0.930 . S
H425 C397 0.929 . S
H426 C399 0.930 . S
H427 C400 0.929 . S
H428 C405 0.930 . S
H429 C406 0.929 . S
H430 C408 0.930 . S
H431 C409 0.929 . S
Sm432 C434 2.846 . S
Sm432 O452 2.543 . S
Sm432 O453 2.450 . S
Sm432 O454 2.681 1_655 S
Sm432 O455 2.464 . S
Sm432 O456 2.396 . S
Sm432 O460 2.386 . S
Sm432 O463 2.408 1_655 S
Sm433 C443 2.846 . S
Sm433 O454 2.386 . S
Sm433 O457 2.408 1_455 S
Sm433 O458 2.543 . S
Sm433 O459 2.450 . S
Sm433 O460 2.681 1_455 S
Sm433 O461 2.464 . S
Sm433 O462 2.396 . S
C434 Sm432 2.846 . S
C434 C435 1.506 . S
C434 O452 1.261 . S
C434 O453 1.242 . S
C435 C434 1.506 . S
C435 C436 1.358 . S
C435 C440 1.382 . S
C436 C435 1.358 . S
C436 C437 1.385 . S
C436 H464 0.930 . S
C437 C436 1.385 . S
C437 C438 1.395 . S
C437 H465 0.929 . S
C438 C437 1.395 . S
C438 C439 1.335 . S
C439 C438 1.335 . S
C439 C440 1.398 . S
C439 H466 0.930 . S
C440 C435 1.382 . S
C440 C439 1.398 . S
C440 H467 0.929 . S
C441 O454 1.261 1_655 S
C441 O455 1.270 . S
C442 O456 1.252 . S
C442 O457 1.272 . S
C443 Sm433 2.846 . S
C443 C444 1.506 . S
C443 O458 1.261 . S
C443 O459 1.242 . S
C444 C443 1.506 . S
C444 C445 1.358 . S
C444 C449 1.382 . S
C445 C444 1.358 . S
C445 C446 1.385 . S
C445 H468 0.930 . S
C446 C445 1.385 . S
C446 C447 1.395 . S
C446 H469 0.929 . S
C447 C446 1.395 . S
C447 C448 1.335 . S
C448 C447 1.335 . S
C448 C449 1.398 . S
C448 H470 0.930 . S
C449 C444 1.382 . S
C449 C448 1.398 . S
C449 H471 0.929 . S
C450 O460 1.257 1_455 S
C450 O461 1.276 . S
C451 O462 1.252 . S
C451 O463 1.272 . S
O452 Sm432 2.543 . S
O452 C434 1.261 . S
O453 Sm432 2.450 . S
O453 C434 1.242 . S
O454 Sm432 2.681 1_455 S
O454 Sm433 2.386 . S
O454 C441 1.261 1_455 S
O455 Sm432 2.464 . S
O455 C441 1.270 . S
O456 Sm432 2.396 . S
O456 C442 1.252 . S
O457 Sm433 2.408 1_655 S
O457 C442 1.272 . S
O458 Sm433 2.543 . S
O458 C443 1.261 . S
O459 Sm433 2.450 . S
O459 C443 1.242 . S
O460 Sm432 2.386 . S
O460 Sm433 2.681 1_655 S
O460 C450 1.257 1_655 S
O461 Sm433 2.464 . S
O461 C450 1.276 . S
O462 Sm433 2.396 . S
O462 C451 1.252 . S
O463 Sm432 2.408 1_455 S
O463 C451 1.272 . S
H464 C436 0.930 . S
H465 C437 0.929 . S
H466 C439 0.930 . S
H467 C440 0.929 . S
H468 C445 0.930 . S
H469 C446 0.929 . S
H470 C448 0.930 . S
H471 C449 0.929 . S
H472 C478 0.930 . S
H473 C482 0.930 . S
H474 C487 0.929 . S
H475 C485 0.929 . S
H476 C480 0.929 . S
H477 C486 0.929 . S
C478 H472 0.930 . S
C478 C479 1.399 . S
C478 C486 1.378 . S
C479 C478 1.399 . S
C479 C487 1.402 1_545 S
C480 H476 0.929 . S
C480 C482 1.378 . S
C480 C484 1.346 1_565 S
C481 C484 1.463 . S
C481 C486 1.350 . S
C481 N489 1.427 1_545 S
C482 H473 0.930 . S
C482 C480 1.378 . S
C482 C483 1.336 1_565 S
C483 C482 1.336 1_545 S
C483 C485 1.464 . S
C484 C480 1.346 1_545 S
C484 C481 1.463 . S
C484 N488 1.432 . S
C485 H475 0.929 . S
C485 C483 1.464 . S
C485 N488 1.384 . S
C486 H477 0.929 . S
C486 C478 1.378 . S
C486 C481 1.350 . S
C487 H474 0.929 . S
C487 C479 1.402 1_565 S
C487 N489 1.384 . S
N488 C484 1.432 . S
N488 C485 1.384 . S
N489 C481 1.427 1_565 S
N489 C487 1.384 . S
H490 C496 0.930 . S
H491 C500 0.930 . S
H492 C505 0.929 . S
H493 C503 0.929 . S
H494 C498 0.929 . S
H495 C504 0.929 . S
C496 H490 0.930 . S
C496 C497 1.367 . S
C496 C504 1.378 . S
C497 C496 1.367 . S
C497 C505 1.433 . S
C498 H494 0.929 . S
C498 C500 1.378 . S
C498 C502 1.350 . S
C499 C502 1.463 . S
C499 C504 1.350 . S
C499 N507 1.427 . S
C500 H491 0.930 . S
C500 C498 1.378 . S
C500 C501 1.367 . S
C501 C500 1.367 . S
C501 C503 1.433 . S
C502 C498 1.350 . S
C502 C499 1.463 . S
C502 N506 1.427 . S
C503 H493 0.929 . S
C503 C501 1.433 . S
C503 N506 1.384 . S
C504 H495 0.929 . S
C504 C496 1.378 . S
C504 C499 1.350 . S
C505 H492 0.929 . S
C505 C497 1.433 . S
C505 N507 1.384 . S
N506 C502 1.427 . S
N506 C503 1.384 . S
N507 C499 1.427 . S
N507 C505 1.384 . S
H508 C514 0.930 . S
H509 C518 0.930 . S
H510 C523 0.929 . S
H511 C521 0.929 . S
H512 C516 0.929 . S
H513 C522 0.929 . S
C514 H508 0.930 . S
C514 C515 1.367 . S
C514 C522 1.378 . S
C515 C514 1.367 . S
C515 C523 1.433 . S
C516 H512 0.929 . S
C516 C518 1.378 . S
C516 C520 1.350 . S
C517 C520 1.463 . S
C517 C522 1.350 . S
C517 N525 1.427 . S
C518 H509 0.930 . S
C518 C516 1.378 . S
C518 C519 1.367 . S
C519 C518 1.367 . S
C519 C521 1.433 . S
C520 C516 1.350 . S
C520 C517 1.463 . S
C520 N524 1.427 . S
C521 H511 0.929 . S
C521 C519 1.433 . S
C521 N524 1.384 . S
C522 H513 0.929 . S
C522 C514 1.378 . S
C522 C517 1.350 . S
C523 H510 0.929 . S
C523 C515 1.433 . S
C523 N525 1.384 . S
N524 C520 1.427 . S
N524 C521 1.384 . S
N525 C517 1.427 . S
N525 C523 1.384 . S
H526 C532 0.930 . S
H527 C536 0.930 . S
H528 C541 0.929 . S
H529 C539 0.929 . S
H530 C534 0.929 . S
H531 C540 0.929 . S
C532 H526 0.930 . S
C532 C533 1.368 1_655 S
C532 C540 1.378 . S
C533 C532 1.368 1_455 S
C533 C541 1.432 . S
C534 H530 0.929 . S
C534 C536 1.378 . S
C534 C538 1.350 . S
C535 C538 1.463 . S
C535 C540 1.341 1_455 S
C535 N543 1.437 . S
C536 H527 0.930 . S
C536 C534 1.378 . S
C536 C537 1.367 . S
C537 C536 1.367 . S
C537 C539 1.433 1_455 S
C538 C534 1.350 . S
C538 C535 1.463 . S
C538 N542 1.427 1_455 S
C539 H529 0.929 . S
C539 C537 1.433 1_655 S
C539 N542 1.384 . S
C540 H531 0.929 . S
C540 C532 1.378 . S
C540 C535 1.341 1_655 S
C541 H528 0.929 . S
C541 C533 1.432 . S
C541 N543 1.384 . S
N542 C538 1.427 1_655 S
N542 C539 1.384 . S
N543 C535 1.437 . S
N543 C541 1.384 . S
H544 C550 0.930 . S
H545 C554 0.930 . S
H546 C559 0.929 . S
H547 C557 0.929 . S
H548 C552 0.929 1_554 S
H549 C558 0.929 . S
C550 H544 0.930 . S
C550 C551 1.390 . S
C550 C558 1.378 . S
C551 C550 1.390 . S
C551 C559 1.410 1_565 S
C552 H548 0.929 1_556 S
C552 C554 1.378 . S
C552 C556 1.347 1_556 S
C553 C556 1.463 1_565 S
C553 C558 1.350 . S
C553 N561 1.427 1_565 S
C554 H545 0.930 . S
C554 C552 1.378 . S
C554 C555 1.346 1_545 S
C555 C554 1.346 1_565 S
C555 C557 1.454 . S
C556 C552 1.347 1_554 S
C556 C553 1.463 1_545 S
C556 N560 1.430 1_544 S
C557 H547 0.929 . S
C557 C555 1.454 . S
C557 N560 1.384 . S
C558 H549 0.929 . S
C558 C550 1.378 . S
C558 C553 1.350 . S
C559 H546 0.929 . S
C559 C551 1.410 1_545 S
C559 N561 1.384 . S
N560 C556 1.430 1_566 S
N560 C557 1.384 . S
N561 C553 1.427 1_545 S
N561 C559 1.384 . S
H562 C568 0.930 . S
H563 C572 0.930 . S
H564 C577 0.929 . S
H565 C575 0.929 . S
H566 C570 0.929 1_554 S
H567 C576 0.929 . S
C568 H562 0.930 . S
C568 C569 1.367 . S
C568 C576 1.378 . S
C569 C568 1.367 . S
C569 C577 1.433 . S
C570 H566 0.929 1_556 S
C570 C572 1.378 . S
C570 C574 1.350 1_556 S
C571 C574 1.463 . S
C571 C576 1.350 . S
C571 N579 1.427 . S
C572 H563 0.930 . S
C572 C570 1.378 . S
C572 C573 1.367 . S
C573 C572 1.367 . S
C573 C575 1.433 . S
C574 C570 1.350 1_554 S
C574 C571 1.463 . S
C574 N578 1.427 1_554 S
C575 H565 0.929 . S
C575 C573 1.433 . S
C575 N578 1.384 . S
C576 H567 0.929 . S
C576 C568 1.378 . S
C576 C571 1.350 . S
C577 H564 0.929 . S
C577 C569 1.433 . S
C577 N579 1.384 . S
N578 C574 1.427 1_556 S
N578 C575 1.384 . S
N579 C571 1.427 . S
N579 C577 1.384 . S
H580 C586 0.930 . S
H581 C590 0.930 . S
H582 C595 0.929 . S
H583 C593 0.929 . S
H584 C588 0.929 1_554 S
H585 C594 0.929 . S
C586 H580 0.930 . S
C586 C587 1.367 . S
C586 C594 1.378 . S
C587 C586 1.367 . S
C587 C595 1.433 . S
C588 H584 0.929 1_556 S
C588 C590 1.378 . S
C588 C592 1.350 1_556 S
C589 C592 1.463 . S
C589 C594 1.350 . S
C589 N597 1.427 . S
C590 H581 0.930 . S
C590 C588 1.378 . S
C590 C591 1.367 . S
C591 C590 1.367 . S
C591 C593 1.433 . S
C592 C588 1.350 1_554 S
C592 C589 1.463 . S
C592 N596 1.427 1_554 S
C593 H583 0.929 . S
C593 C591 1.433 . S
C593 N596 1.384 . S
C594 H585 0.929 . S
C594 C586 1.378 . S
C594 C589 1.350 . S
C595 H582 0.929 . S
C595 C587 1.433 . S
C595 N597 1.384 . S
N596 C592 1.427 1_556 S
N596 C593 1.384 . S
N597 C589 1.427 . S
N597 C595 1.384 . S
H598 C604 0.930 . S
H599 C608 0.930 . S
H600 C613 0.929 . S
H601 C611 0.929 . S
H602 C606 0.929 1_554 S
H603 C612 0.929 . S
C604 H598 0.930 . S
C604 C605 1.365 1_455 S
C604 C612 1.378 . S
C605 C604 1.365 1_655 S
C605 C613 1.435 . S
C606 H602 0.929 1_556 S
C606 C608 1.378 . S
C606 C610 1.350 1_556 S
C607 C610 1.464 . S
C607 C612 1.345 1_655 S
C607 N615 1.433 . S
C608 H599 0.930 . S
C608 C606 1.378 . S
C608 C609 1.367 . S
C609 C608 1.367 . S
C609 C611 1.433 1_655 S
C610 C606 1.350 1_554 S
C610 C607 1.464 . S
C610 N614 1.427 1_654 S
C611 H601 0.929 . S
C611 C609 1.433 1_455 S
C611 N614 1.384 . S
C612 H603 0.929 . S
C612 C604 1.378 . S
C612 C607 1.345 1_455 S
C613 H600 0.929 . S
C613 C605 1.435 . S
C613 N615 1.384 . S
N614 C610 1.427 1_456 S
N614 C611 1.384 . S
N615 C607 1.433 . S
N615 C613 1.384 . S
H616 C622 0.930 . S
H617 C626 0.930 . S
H618 C631 0.929 . S
H619 C629 0.929 . S
H620 C624 0.929 . S
H621 C630 0.929 . S
C622 H616 0.930 . S
C622 C623 1.367 1_655 S
C622 C630 1.378 . S
C623 C622 1.367 1_455 S
C623 C631 1.433 . S
C624 H620 0.929 . S
C624 C626 1.378 . S
C624 C628 1.350 . S
C625 C628 1.463 . S
C625 C630 1.350 . S
C625 N633 1.427 1_655 S
C626 H617 0.930 . S
C626 C624 1.378 . S
C626 C627 1.367 . S
C627 C626 1.367 . S
C627 C629 1.433 . S
C628 C624 1.350 . S
C628 C625 1.463 . S
C628 N632 1.427 . S
C629 H619 0.929 . S
C629 C627 1.433 . S
C629 N632 1.384 . S
C630 H621 0.929 . S
C630 C622 1.378 . S
C630 C625 1.350 . S
C631 H618 0.929 . S
C631 C623 1.433 . S
C631 N633 1.384 . S
N632 C628 1.427 . S
N632 C629 1.384 . S
N633 C625 1.427 1_455 S
N633 C631 1.384 . S
H634 C640 0.930 . S
H635 C644 0.930 . S
H636 C649 0.929 . S
H637 C647 0.929 . S
H638 C642 0.929 . S
H639 C648 0.929 . S
C640 H634 0.930 . S
C640 C641 1.367 . S
C640 C648 1.378 . S
C641 C640 1.367 . S
C641 C649 1.433 1_545 S
C642 H638 0.929 . S
C642 C644 1.378 . S
C642 C646 1.350 . S
C643 C646 1.463 . S
C643 C648 1.350 1_565 S
C643 N651 1.427 . S
C644 H635 0.930 . S
C644 C642 1.378 . S
C644 C645 1.367 . S
C645 C644 1.367 . S
C645 C647 1.433 . S
C646 C642 1.350 . S
C646 C643 1.463 . S
C646 N650 1.427 . S
C647 H637 0.929 . S
C647 C645 1.433 . S
C647 N650 1.384 . S
C648 H639 0.929 . S
C648 C640 1.378 . S
C648 C643 1.350 1_545 S
C649 H636 0.929 . S
C649 C641 1.433 1_565 S
C649 N651 1.384 . S
N650 C646 1.427 . S
N650 C647 1.384 . S
N651 C643 1.427 . S
N651 C649 1.384 . S
H652 C658 0.930 . S
H653 C662 0.930 . S
H654 C667 0.929 . S
H655 C665 0.929 . S
H656 C660 0.929 . S
H657 C666 0.929 . S
C658 H652 0.930 . S
C658 C659 1.367 . S
C658 C666 1.378 . S
C659 C658 1.367 . S
C659 C667 1.433 . S
C660 H656 0.929 . S
C660 C662 1.378 . S
C660 C664 1.350 . S
C661 C664 1.463 . S
C661 C666 1.350 . S
C661 N669 1.427 . S
C662 H653 0.930 . S
C662 C660 1.378 . S
C662 C663 1.367 . S
C663 C662 1.367 . S
C663 C665 1.433 . S
C664 C660 1.350 . S
C664 C661 1.463 . S
C664 N668 1.427 . S
C665 H655 0.929 . S
C665 C663 1.433 . S
C665 N668 1.384 . S
C666 H657 0.929 . S
C666 C658 1.378 . S
C666 C661 1.350 . S
C667 H654 0.929 . S
C667 C659 1.433 . S
C667 N669 1.384 . S
N668 C664 1.427 . S
N668 C665 1.384 . S
N669 C661 1.427 . S
N669 C667 1.384 . S
H670 C676 0.930 . S
H671 C680 0.930 . S
H672 C685 0.929 . S
H673 C683 0.929 . S
H674 C678 0.929 . S
H675 C684 0.929 . S
C676 H670 0.930 . S
C676 C677 1.367 . S
C676 C684 1.378 . S
C677 C676 1.367 . S
C677 C685 1.433 . S
C678 H674 0.929 . S
C678 C680 1.378 . S
C678 C682 1.350 . S
C679 C682 1.463 . S
C679 C684 1.350 . S
C679 N687 1.427 . S
C680 H671 0.930 . S
C680 C678 1.378 . S
C680 C681 1.367 . S
C681 C680 1.367 . S
C681 C683 1.433 . S
C682 C678 1.350 . S
C682 C679 1.463 . S
C682 N686 1.427 . S
C683 H673 0.929 . S
C683 C681 1.433 . S
C683 N686 1.384 . S
C684 H675 0.929 . S
C684 C676 1.378 . S
C684 C679 1.350 . S
C685 H672 0.929 . S
C685 C677 1.433 . S
C685 N687 1.384 . S
N686 C682 1.427 . S
N686 C683 1.384 . S
N687 C679 1.427 . S
N687 C685 1.384 . S
H688 C694 0.930 . S
H689 C698 0.930 . S
H690 C703 0.929 . S
H691 C701 0.929 . S
H692 C696 0.929 . S
H693 C702 0.929 1_556 S
C694 H688 0.930 . S
C694 C695 1.367 . S
C694 C702 1.378 . S
C695 C694 1.367 . S
C695 C703 1.433 1_655 S
C696 H692 0.929 . S
C696 C698 1.378 . S
C696 C700 1.350 . S
C697 C700 1.463 . S
C697 C702 1.350 1_455 S
C697 N705 1.427 . S
C698 H689 0.930 . S
C698 C696 1.378 . S
C698 C699 1.367 1_554 S
C699 C698 1.367 1_556 S
C699 C701 1.433 . S
C700 C696 1.350 . S
C700 C697 1.463 . S
C700 N704 1.427 1_554 S
C701 H691 0.929 . S
C701 C699 1.433 . S
C701 N704 1.384 . S
C702 H693 0.929 1_554 S
C702 C694 1.378 . S
C702 C697 1.350 1_655 S
C703 H690 0.929 . S
C703 C695 1.433 1_455 S
C703 N705 1.384 . S
N704 C700 1.427 1_556 S
N704 C701 1.384 . S
N705 C697 1.427 . S
N705 C703 1.384 . S
H706 C712 0.930 . S
H707 C716 0.930 . S
H708 C721 0.929 . S
H709 C719 0.929 . S
H710 C714 0.929 1_565 S
H711 C720 0.929 . S
C712 H706 0.930 . S
C712 C713 1.367 1_545 S
C712 C720 1.378 . S
C713 C712 1.367 1_565 S
C713 C721 1.433 . S
C714 H710 0.929 1_545 S
C714 C716 1.378 . S
C714 C718 1.350 1_556 S
C715 C718 1.463 . S
C715 C720 1.350 . S
C715 N723 1.427 1_545 S
C716 H707 0.930 . S
C716 C714 1.378 . S
C716 C717 1.367 . S
C717 C716 1.367 . S
C717 C719 1.433 . S
C718 C714 1.350 1_554 S
C718 C715 1.463 . S
C718 N722 1.427 . S
C719 H709 0.929 . S
C719 C717 1.433 . S
C719 N722 1.384 1_556 S
C720 H711 0.929 . S
C720 C712 1.378 . S
C720 C715 1.350 . S
C721 H708 0.929 . S
C721 C713 1.433 . S
C721 N723 1.384 . S
N722 C718 1.427 . S
N722 C719 1.384 1_554 S
N723 C715 1.427 1_565 S
N723 C721 1.384 . S
H724 C730 0.930 . S
H725 C734 0.930 . S
H726 C739 0.929 . S
H727 C737 0.929 . S
H728 C732 0.929 . S
H729 C738 0.929 1_556 S
C730 H724 0.930 . S
C730 C731 1.367 . S
C730 C738 1.378 . S
C731 C730 1.367 . S
C731 C739 1.433 . S
C732 H728 0.929 . S
C732 C734 1.378 . S
C732 C736 1.350 . S
C733 C736 1.463 . S
C733 C738 1.350 . S
C733 N741 1.427 . S
C734 H725 0.930 . S
C734 C732 1.378 . S
C734 C735 1.367 1_554 S
C735 C734 1.367 1_556 S
C735 C737 1.433 . S
C736 C732 1.350 . S
C736 C733 1.463 . S
C736 N740 1.427 1_554 S
C737 H727 0.929 . S
C737 C735 1.433 . S
C737 N740 1.384 . S
C738 H729 0.929 1_554 S
C738 C730 1.378 . S
C738 C733 1.350 . S
C739 H726 0.929 . S
C739 C731 1.433 . S
C739 N741 1.384 . S
N740 C736 1.427 1_556 S
N740 C737 1.384 . S
N741 C733 1.427 . S
N741 C739 1.384 . S
H742 C748 0.930 . S
H743 C752 0.930 . S
H744 C757 0.929 . S
H745 C755 0.929 . S
H746 C750 0.929 . S
H747 C756 0.929 . S
C748 H742 0.930 . S
C748 C749 1.367 . S
C748 C756 1.378 . S
C749 C748 1.367 . S
C749 C757 1.433 . S
C750 H746 0.929 . S
C750 C752 1.378 . S
C750 C754 1.350 . S
C751 C754 1.463 . S
C751 C756 1.350 . S
C751 N759 1.427 . S
C752 H743 0.930 . S
C752 C750 1.378 . S
C752 C753 1.367 1_554 S
C753 C752 1.367 1_556 S
C753 C755 1.433 . S
C754 C750 1.350 . S
C754 C751 1.463 . S
C754 N758 1.427 1_554 S
C755 H745 0.929 . S
C755 C753 1.433 . S
C755 N758 1.384 . S
C756 H747 0.929 . S
C756 C748 1.378 . S
C756 C751 1.350 . S
C757 H744 0.929 . S
C757 C749 1.433 . S
C757 N759 1.384 . S
N758 C754 1.427 1_556 S
N758 C755 1.384 . S
N759 C751 1.427 . S
N759 C757 1.384 . S
H760 C766 0.930 . S
H761 C770 0.930 . S
H762 C775 0.929 . S
H763 C773 0.929 . S
H764 C768 0.929 . S
H765 C774 0.929 . S
C766 H760 0.930 . S
C766 C767 1.367 1_655 S
C766 C774 1.378 . S
C767 C766 1.367 1_455 S
C767 C775 1.433 . S
C768 H764 0.929 . S
C768 C770 1.378 . S
C768 C772 1.350 . S
C769 C772 1.463 . S
C769 C774 1.350 1_455 S
C769 N777 1.427 . S
C770 H761 0.930 . S
C770 C768 1.378 . S
C770 C771 1.367 . S
C771 C770 1.367 . S
C771 C773 1.433 1_455 S
C772 C768 1.350 . S
C772 C769 1.463 . S
C772 N776 1.427 1_455 S
C773 H763 0.929 . S
C773 C771 1.433 1_655 S
C773 N776 1.384 . S
C774 H765 0.929 . S
C774 C766 1.378 . S
C774 C769 1.350 1_655 S
C775 H762 0.929 . S
C775 C767 1.433 . S
C775 N777 1.384 . S
N776 C772 1.427 1_655 S
N776 C773 1.384 . S
N777 C769 1.427 . S
N777 C775 1.384 . S
H778 C784 0.930 . S
H779 C788 0.930 1_565 S
H780 C793 0.929 . S
H781 C791 0.929 . S
H782 C786 0.935 . S
H783 C792 0.929 . S
C784 H778 0.930 . S
C784 C785 1.367 . S
C784 C792 1.378 . S
C785 C784 1.367 . S
C785 C793 1.433 1_545 S
C786 H782 0.935 . S
C786 C788 1.377 1_565 S
C786 C790 1.345 1_565 S
C787 C790 1.463 . S
C787 C792 1.350 . S
C787 N795 1.427 1_545 S
C788 H779 0.930 1_545 S
C788 C786 1.377 1_545 S
C788 C789 1.367 . S
C789 C788 1.367 . S
C789 C791 1.433 . S
C790 C786 1.345 1_545 S
C790 C787 1.463 . S
C790 N794 1.427 . S
C791 H781 0.929 . S
C791 C789 1.433 . S
C791 N794 1.384 . S
C792 H783 0.929 . S
C792 C784 1.378 . S
C792 C787 1.350 . S
C793 H780 0.929 . S
C793 C785 1.433 1_565 S
C793 N795 1.384 . S
N794 C790 1.427 . S
N794 C791 1.384 . S
N795 C787 1.427 1_565 S
N795 C793 1.384 . S
H796 C802 0.930 . S
H797 C806 0.930 . S
H798 C811 0.929 . S
H799 C809 0.929 . S
H800 C804 0.929 . S
H801 C810 0.929 . S
C802 H796 0.930 . S
C802 C803 1.367 . S
C802 C810 1.378 . S
C803 C802 1.367 . S
C803 C811 1.433 . S
C804 H800 0.929 . S
C804 C806 1.378 . S
C804 C808 1.350 . S
C805 C808 1.463 . S
C805 C810 1.350 . S
C805 N813 1.427 . S
C806 H797 0.930 . S
C806 C804 1.378 . S
C806 C807 1.367 . S
C807 C806 1.367 . S
C807 C809 1.433 . S
C808 C804 1.350 . S
C808 C805 1.463 . S
C808 N812 1.427 . S
C809 H799 0.929 . S
C809 C807 1.433 . S
C809 N812 1.384 . S
C810 H801 0.929 . S
C810 C802 1.378 . S
C810 C805 1.350 . S
C811 H798 0.929 . S
C811 C803 1.433 . S
C811 N813 1.384 . S
N812 C808 1.427 . S
N812 C809 1.384 . S
N813 C805 1.427 . S
N813 C811 1.384 . S
H814 C820 0.930 . S
H815 C824 0.930 . S
H816 C829 0.929 . S
H817 C827 0.929 . S
H818 C822 0.929 . S
H819 C828 0.929 . S
C820 H814 0.930 . S
C820 C821 1.367 . S
C820 C828 1.378 . S
C821 C820 1.367 . S
C821 C829 1.433 . S
C822 H818 0.929 . S
C822 C824 1.378 . S
C822 C826 1.350 . S
C823 C826 1.463 . S
C823 C828 1.350 . S
C823 N831 1.427 . S
C824 H815 0.930 . S
C824 C822 1.378 . S
C824 C825 1.367 . S
C825 C824 1.367 . S
C825 C827 1.433 . S
C826 C822 1.350 . S
C826 C823 1.463 . S
C826 N830 1.427 . S
C827 H817 0.929 . S
C827 C825 1.433 . S
C827 N830 1.384 . S
C828 H819 0.929 . S
C828 C820 1.378 . S
C828 C823 1.350 . S
C829 H816 0.929 . S
C829 C821 1.433 . S
C829 N831 1.384 . S
N830 C826 1.427 . S
N830 C827 1.384 . S
N831 C823 1.427 . S
N831 C829 1.384 . S
H832 C838 0.930 . S
H833 C842 0.930 . S
H834 C847 0.929 . S
H835 C845 0.929 . S
H836 C840 0.929 . S
H837 C846 0.929 . S
C838 H832 0.930 . S
C838 C839 1.367 . S
C838 C846 1.378 . S
C839 C838 1.367 . S
C839 C847 1.433 1_655 S
C840 H836 0.929 . S
C840 C842 1.378 . S
C840 C844 1.350 1_455 S
C841 C844 1.463 . S
C841 C846 1.350 . S
C841 N849 1.427 1_655 S
C842 H833 0.930 . S
C842 C840 1.378 . S
C842 C843 1.367 1_455 S
C843 C842 1.367 1_655 S
C843 C845 1.433 . S
C844 C840 1.350 1_655 S
C844 C841 1.463 . S
C844 N848 1.427 . S
C845 H835 0.929 . S
C845 C843 1.433 . S
C845 N848 1.384 . S
C846 H837 0.929 . S
C846 C838 1.378 . S
C846 C841 1.350 . S
C847 H834 0.929 . S
C847 C839 1.433 1_455 S
C847 N849 1.384 . S
N848 C844 1.427 . S
N848 C845 1.384 . S
N849 C841 1.427 1_455 S
N849 C847 1.384 . S
H850 C856 0.930 1_545 S
H851 C860 0.930 . S
H852 C865 0.929 . S
H853 C863 0.929 . S
H854 C858 0.929 . S
H855 C864 0.929 . S
C856 H850 0.930 1_565 S
C856 C857 1.367 . S
C856 C864 1.378 . S
C857 C856 1.367 . S
C857 C865 1.433 . S
C858 H854 0.929 . S
C858 C860 1.378 . S
C858 C862 1.350 . S
C859 C862 1.463 . S
C859 C864 1.350 . S
C859 N867 1.427 . S
C860 H851 0.930 . S
C860 C858 1.378 . S
C860 C861 1.367 . S
C861 C860 1.367 . S
C861 C863 1.433 . S
C862 C858 1.350 . S
C862 C859 1.463 . S
C862 N866 1.427 . S
C863 H853 0.929 . S
C863 C861 1.433 . S
C863 N866 1.384 . S
C864 H855 0.929 . S
C864 C856 1.378 . S
C864 C859 1.350 . S
C865 H852 0.929 . S
C865 C857 1.433 . S
C865 N867 1.384 . S
N866 C862 1.427 . S
N866 C863 1.384 . S
N867 C859 1.427 . S
N867 C865 1.384 . S
H868 C874 0.930 . S
H869 C878 0.930 . S
H870 C883 0.929 . S
H871 C881 0.929 . S
H872 C876 0.929 . S
H873 C882 0.929 . S
C874 H868 0.930 . S
C874 C875 1.367 . S
C874 C882 1.378 . S
C875 C874 1.367 . S
C875 C883 1.433 . S
C876 H872 0.929 . S
C876 C878 1.378 . S
C876 C880 1.350 . S
C877 C880 1.463 . S
C877 C882 1.350 . S
C877 N885 1.427 . S
C878 H869 0.930 . S
C878 C876 1.378 . S
C878 C879 1.367 . S
C879 C878 1.367 . S
C879 C881 1.433 . S
C880 C876 1.350 . S
C880 C877 1.463 . S
C880 N884 1.427 . S
C881 H871 0.929 . S
C881 C879 1.433 . S
C881 N884 1.384 . S
C882 H873 0.929 . S
C882 C874 1.378 . S
C882 C877 1.350 . S
C883 H870 0.929 . S
C883 C875 1.433 . S
C883 N885 1.384 . S
N884 C880 1.427 . S
N884 C881 1.384 . S
N885 C877 1.427 . S
N885 C883 1.384 . S
H886 C892 0.930 . S
H887 C896 0.930 . S
H888 C901 0.929 . S
H889 C899 0.929 . S
H890 C894 0.929 . S
H891 C900 0.929 . S
C892 H886 0.930 . S
C892 C893 1.367 . S
C892 C900 1.378 . S
C893 C892 1.367 . S
C893 C901 1.433 . S
C894 H890 0.929 . S
C894 C896 1.378 . S
C894 C898 1.350 . S
C895 C898 1.463 . S
C895 C900 1.350 . S
C895 N903 1.427 . S
C896 H887 0.930 . S
C896 C894 1.378 . S
C896 C897 1.367 . S
C897 C896 1.367 . S
C897 C899 1.433 . S
C898 C894 1.350 . S
C898 C895 1.463 . S
C898 N902 1.427 . S
C899 H889 0.929 . S
C899 C897 1.433 . S
C899 N902 1.384 . S
C900 H891 0.929 . S
C900 C892 1.378 . S
C900 C895 1.350 . S
C901 H888 0.929 . S
C901 C893 1.433 . S
C901 N903 1.384 . S
N902 C898 1.427 . S
N902 C899 1.384 . S
N903 C895 1.427 . S
N903 C901 1.384 . S
C479 C255 2.165 1_545 S
C483 C321 2.343 1_545 S
C501 C361 2.364 . S
C497 C294 2.143 . S
C519 C401 2.359 . S
C515 C177 2.183 . S
C537 C441 2.357 1_455 S
C533 C216 2.179 1_455 S
C555 C330 2.347 1_565 S
C551 C99 2.166 . S
C569 C138 2.150 . S
C573 C370 2.368 . S
C587 C21 2.166 . S
C591 C410 2.356 . S
C605 C60 2.165 . S
C609 C450 2.354 1_655 S
C627 C327 0.430 . S
C623 C196 0.434 1_455 S
C645 C367 0.468 . S
C641 C235 0.458 1_545 S
C663 C407 0.456 . S
C659 C289 0.448 . S
C677 C157 0.446 . S
C681 C447 0.440 . S
C695 C40 0.452 . S
C699 C318 0.455 . S
C717 C358 0.422 . S
C713 C79 0.415 . S
C735 C398 0.452 . S
C731 C133 0.444 . S
C749 C1 0.421 . S
C753 C438 0.426 . S
C767 C211 2.833 . S
C771 C331 3.230 . S
C785 C250 2.809 . S
C789 C371 3.210 . S
C807 C411 3.214 . S
C803 C274 2.817 . S
C825 C451 3.219 . S
C821 C172 2.813 . S
C839 C55 2.843 1_655 S
C843 C322 3.239 . S
C861 C362 3.212 . S
C857 C94 2.808 1_565 S
C879 C402 3.215 . S
C875 C118 2.827 . S
C893 C16 2.822 . S
C897 C442 3.228 . S
