# Generated by pormake.
# Topology rtl, (3,6)-cn, num edge types: 1
# Building blocks:
#     Node 0, Type 0, BuildingBlock: MIDCAF_clean_linker_0, # of connection points: 3
#     Node 1, Type 0, BuildingBlock: MIDCAF_clean_linker_0, # of connection points: 3
#     Node 2, Type 0, BuildingBlock: MIDCAF_clean_linker_0, # of connection points: 3
#     Node 3, Type 0, BuildingBlock: MIDCAF_clean_linker_0, # of connection points: 3
#     Node 4, Type 1, BuildingBlock: VOLQOD_clean_sbu_1, # of connection points: 6
#     Node 5, Type 1, BuildingBlock: VOLQOD_clean_sbu_1, # of connection points: 6
#     Edge 6, Type (0, 1), BuildingBlock: XIVTED_clean_linker_0, # of connection points: 2
#     Edge 7, Type (0, 1), BuildingBlock: XIVTED_clean_linker_0, # of connection points: 2
#     Edge 8, Type (0, 1), BuildingBlock: XIVTED_clean_linker_0, # of connection points: 2
#     Edge 9, Type (0, 1), BuildingBlock: XIVTED_clean_linker_0, # of connection points: 2
#     Edge 10, Type (0, 1), BuildingBlock: XIVTED_clean_linker_0, # of connection points: 2
#     Edge 11, Type (0, 1), BuildingBlock: XIVTED_clean_linker_0, # of connection points: 2
#     Edge 12, Type (0, 1), BuildingBlock: XIVTED_clean_linker_0, # of connection points: 2
#     Edge 13, Type (0, 1), BuildingBlock: XIVTED_clean_linker_0, # of connection points: 2
#     Edge 14, Type (0, 1), BuildingBlock: XIVTED_clean_linker_0, # of connection points: 2
#     Edge 15, Type (0, 1), BuildingBlock: XIVTED_clean_linker_0, # of connection points: 2
#     Edge 16, Type (0, 1), BuildingBlock: XIVTED_clean_linker_0, # of connection points: 2
#     Edge 17, Type (0, 1), BuildingBlock: XIVTED_clean_linker_0, # of connection points: 2
# Relax obj value: 0.080
# Max RMSD: 0.156
# Mean RMSD: 0.090
data_MOF--net-rtl--node1-VOLQOD_clean_sbu_1--node2-MIDCAF_clean_linker_0--edge1-XIVTED_clean_linker_0
_symmetry_space_group_name_H-M    P1
_symmetry_Int_Tables_number       1
_symmetry_cell_setting            triclinic
loop_
_symmetry_equiv_pos_as_xyz
'x, y, z'
_cell_length_a     44.685191
_cell_length_b     38.509529
_cell_length_c     29.154595
_cell_angle_alpha  89.735271
_cell_angle_beta   90.286525
_cell_angle_gamma 90.013905
loop_
_atom_site_label
_atom_site_type_symbol
_atom_site_fract_x
_atom_site_fract_y
_atom_site_fract_z
_atom_type_partial_charge
C0 C 0.0521 0.7757 0.12236 0.0
C1 C 0.06973 0.77408 0.16221 0.0
C2 C 0.09353 0.75029 0.16455 0.0
C3 C 0.10084 0.73019 0.12626 0.0
H4 H 0.16546 0.66615 0.07308 0.0
H5 H 0.21191 0.63369 0.07126 0.0
H6 H 0.19889 0.61436 0.92659 0.0
H7 H 0.15276 0.648 0.92802 0.0
H8 H 0.10127 0.69692 0.87144 0.0
H9 H 0.08486 0.72764 0.80202 0.0
H10 H 0.04749 0.80892 0.88622 0.0
H11 H 0.06209 0.77779 0.95418 0.0
H12 H 0.04561 0.75846 0.05378 0.0
H13 H 0.03327 0.79336 0.12007 0.0
H14 H 0.1074 0.74857 0.19505 0.0
H15 H 0.12024 0.71339 0.12814 0.0
N16 N 0.11776 0.69468 0.04148 0.0
N17 N 0.1168 0.69483 0.96073 0.0
N18 N 0.08305 0.72896 0.0018 0.0
C19 C 0.12876 0.68289 0.00092 0.0
C20 C 0.09386 0.71798 0.96109 0.0
C21 C 0.09462 0.71752 0.04207 0.0
C22 C 0.15543 0.66 0.00059 0.0
C23 C 0.17226 0.65473 0.0409 0.0
C24 C 0.19892 0.63587 0.03993 0.0
C25 C 0.20932 0.62149 -0.00128 0.0
C26 C 0.19188 0.62564 0.95875 0.0
C27 C 0.16531 0.64477 0.95963 0.0
C28 C 0.08288 0.73472 0.91839 0.0
C29 C 0.08914 0.72112 0.87484 0.0
C30 C 0.07989 0.73887 0.83509 0.0
C31 C 0.06459 0.77078 0.83824 0.0
C32 C 0.05832 0.78401 0.88198 0.0
C33 C 0.06702 0.76613 0.92133 0.0
C34 C 0.08432 0.73355 0.08527 0.0
C35 C 0.05921 0.75559 0.08443 0.0
C36 C 0.54657 0.74789 0.37221 0.0
C37 C 0.566 0.74171 0.33532 0.0
C38 C 0.59511 0.75567 0.33713 0.0
C39 C 0.60499 0.77368 0.37591 0.0
H40 H 0.66379 0.8537 0.42843 0.0
H41 H 0.71195 0.88369 0.43026 0.0
H42 H 0.7195 0.86298 0.5755 0.0
H43 H 0.6716 0.83299 0.57397 0.0
H44 H 0.62643 0.78222 0.62135 0.0
H45 H 0.60929 0.75005 0.68814 0.0
H46 H 0.52436 0.73161 0.6208 0.0
H47 H 0.54204 0.76256 0.55323 0.0
H48 H 0.54136 0.76855 0.43966 0.0
H49 H 0.52375 0.73844 0.37153 0.0
H50 H 0.61082 0.75124 0.30963 0.0
H51 H 0.62794 0.78272 0.37704 0.0
N52 N 0.62319 0.81099 0.45892 0.0
N53 N 0.62295 0.80927 0.5394 0.0
N54 N 0.58541 0.78073 0.49784 0.0
C55 C 0.63562 0.82046 0.49969 0.0
C56 C 0.59776 0.78957 0.53876 0.0
C57 C 0.59797 0.79125 0.45781 0.0
C58 C 0.66385 0.84067 0.50097 0.0
C59 C 0.6756 0.8557 0.46083 0.0
C60 C 0.70309 0.87308 0.46188 0.0
C61 C 0.71951 0.87546 0.50296 0.0
C62 C 0.70747 0.86117 0.54324 0.0
C63 C 0.67992 0.84412 0.54233 0.0
C64 C 0.58574 0.77459 0.58172 0.0
C65 C 0.60394 0.77172 0.62101 0.0
C66 C 0.59403 0.75334 0.65949 0.0
C67 C 0.56554 0.73777 0.65977 0.0
C68 C 0.54673 0.74243 0.62139 0.0
C69 C 0.55678 0.7604 0.58272 0.0
C70 C 0.58613 0.77771 0.41393 0.0
C71 C 0.55658 0.76541 0.41117 0.0
C72 C 0.9573 0.25245 0.87162 0.0
C73 C 0.93709 0.24522 0.83576 0.0
C74 C 0.90798 0.25909 0.83797 0.0
C75 C 0.89887 0.27804 0.8763 0.0
H76 H 0.84182 0.36006 0.92748 0.0
H77 H 0.79387 0.39039 0.93008 0.0
H78 H 0.79125 0.3763 0.07698 0.0
H79 H 0.83894 0.346 0.07473 0.0
H80 H 0.89139 0.30953 0.12646 0.0
H81 H 0.90762 0.27943 0.19595 0.0
H82 H 0.97045 0.21955 0.11656 0.0
H83 H 0.955 0.25012 0.04761 0.0
H84 H 0.96388 0.27478 0.93791 0.0
H85 H 0.98014 0.24312 0.87055 0.0
H86 H 0.89171 0.2539 0.81123 0.0
H87 H 0.87592 0.28701 0.87792 0.0
N88 N 0.88318 0.31841 0.95836 0.0
N89 N 0.88504 0.31809 0.03885 0.0
N90 N 0.92057 0.287 -0.00292 0.0
C91 C 0.87192 0.32913 -0.00079 0.0
C92 C 0.90941 0.29707 0.0381 0.0
C93 C 0.9077 0.29755 0.95714 0.0
C94 C 0.84418 0.35023 0.00082 0.0
C95 C 0.83118 0.36367 0.96041 0.0
C96 C 0.8038 0.38124 0.96188 0.0
C97 C 0.78876 0.38544 0.00368 0.0
C98 C 0.80218 0.37303 0.04419 0.0
C99 C 0.82962 0.35577 0.04283 0.0
C100 C 0.92164 0.28206 0.08123 0.0
C101 C 0.90898 0.29031 0.1239 0.0
C102 C 0.91814 0.27288 0.16375 0.0
C103 C 0.94013 0.24681 0.16183 0.0
C104 C 0.95369 0.23971 0.1195 0.0
C105 C 0.94464 0.25717 0.07975 0.0
C106 C 0.91854 0.28307 0.9134 0.0
C107 C 0.94806 0.27086 0.91013 0.0
C108 C 0.46217 0.26646 0.62138 0.0
C109 C 0.44584 0.26436 0.66226 0.0
C110 C 0.42219 0.24044 0.66553 0.0
C111 C 0.41372 0.22073 0.62739 0.0
H112 H 0.34365 0.16393 0.57724 0.0
H113 H 0.29544 0.13486 0.57744 0.0
H114 H 0.30551 0.11112 0.43357 0.0
H115 H 0.35334 0.14135 0.43294 0.0
H116 H 0.39072 0.20274 0.37561 0.0
H117 H 0.40334 0.23722 0.30767 0.0
H118 H 0.47679 0.28408 0.38146 0.0
H119 H 0.46461 0.24989 0.44895 0.0
H120 H 0.46639 0.25001 0.55205 0.0
H121 H 0.48085 0.28424 0.61827 0.0
H122 H 0.40924 0.23836 0.69673 0.0
H123 H 0.39445 0.2038 0.63024 0.0
N124 N 0.39278 0.18756 0.54357 0.0
N125 N 0.39164 0.18699 0.46297 0.0
N126 N 0.42828 0.21896 0.50181 0.0
C127 C 0.38013 0.17624 0.5038 0.0
C128 C 0.41586 0.20831 0.46177 0.0
C129 C 0.41706 0.20875 0.5428 0.0
C130 C 0.3523 0.15531 0.50494 0.0
C131 C 0.33578 0.15224 0.54569 0.0
C132 C 0.30811 0.13535 0.54588 0.0
C133 C 0.2964 0.12082 0.50544 0.0
C134 C 0.31352 0.12266 0.46513 0.0
C135 C 0.34107 0.13983 0.46483 0.0
C136 C 0.42628 0.22395 0.4181 0.0
C137 C 0.40993 0.21986 0.37709 0.0
C138 C 0.41714 0.23954 0.33815 0.0
C139 C 0.44067 0.26371 0.33974 0.0
C140 C 0.45816 0.2661 0.37967 0.0
C141 C 0.45116 0.24637 0.41831 0.0
C142 C 0.42886 0.22456 0.58546 0.0
C143 C 0.45386 0.24672 0.58348 0.0
O144 O 0.93084 0.0097 0.49843 0.0
Zn145 Zn 0.96882 0.03841 0.49901 0.0
O146 O 0.00452 0.00869 0.50011 0.0
Zn147 Zn 0.02798 0.01727 0.55589 0.0
Zn148 Zn 0.99261 0.95999 0.49918 0.0
Zn149 Zn 0.02877 0.01844 0.44601 0.0
O150 O 0.07041 0.03135 0.54042 0.0
O151 O 0.07028 0.03271 0.46427 0.0
O152 O 0.96812 0.06967 0.55442 0.0
O153 O 0.00941 0.0555 0.59294 0.0
O154 O 0.03019 0.9745 0.59615 0.0
O155 O 0.00873 0.93384 0.55334 0.0
O156 O 0.0078 0.93557 0.44358 0.0
O157 O 0.96856 0.06982 0.44343 0.0
O158 O 0.03254 0.97637 0.40547 0.0
O159 O 0.01118 0.05729 0.40841 0.0
C160 C 0.92627 0.97703 0.49941 0.0
C161 C 0.08376 0.03653 0.50248 0.0
C162 C 0.02243 0.94309 0.58957 0.0
C163 C 0.98578 0.07373 0.58844 0.0
C164 C 0.0233 0.94521 0.40937 0.0
C165 C 0.98714 0.07489 0.4111 0.0
O166 O 0.94791 0.95553 0.50011 0.0
O167 O 0.57245 0.50755 0.00173 0.0
Zn168 Zn 0.53355 0.53463 0.0008 0.0
O169 O 0.49887 0.50322 0.00117 0.0
Zn170 Zn 0.47523 0.5107 0.94543 0.0
Zn171 Zn 0.51235 0.45498 0.00314 0.0
Zn172 Zn 0.47417 0.5121 0.05511 0.0
O173 O 0.43309 0.52482 0.9605 0.0
O174 O 0.43223 0.52574 0.03663 0.0
O175 O 0.53332 0.56554 0.94466 0.0
O176 O 0.49291 0.54846 0.90636 0.0
O177 O 0.47328 0.46748 0.90703 0.0
O178 O 0.49881 0.42851 0.9476 0.0
O179 O 0.49649 0.42952 0.05807 0.0
O180 O 0.53293 0.56618 0.0559 0.0
O181 O 0.47097 0.46968 0.09562 0.0
O182 O 0.49168 0.55072 0.09303 0.0
C183 C 0.57806 0.47514 0.0044 0.0
C184 C 0.41922 0.52968 -0.00203 0.0
C185 C 0.48352 0.43686 0.91232 0.0
C186 C 0.51576 0.56798 0.91025 0.0
C187 C 0.48062 0.4387 0.09201 0.0
C188 C 0.51492 0.56969 0.08931 0.0
O189 O 0.55713 0.45272 0.0058 0.0
H190 H 0.26869 0.08179 0.57239 0.0
H191 H 0.11695 0.05871 0.42944 0.0
H192 H 0.25403 0.12521 0.43725 0.0
H193 H 0.12314 0.03907 0.57517 0.0
H194 H 0.16914 0.07706 0.42965 0.0
H195 H 0.21724 0.06012 0.57195 0.0
C196 C 0.25473 0.08681 0.54263 0.0
C197 C 0.26583 0.10548 0.50482 0.0
C198 C 0.1591 0.06874 0.4616 0.0
C199 C 0.20703 0.08029 0.50396 0.0
C200 C 0.12927 0.05817 0.46153 0.0
C201 C 0.11554 0.04742 0.50241 0.0
C202 C 0.1755 0.06836 0.50276 0.0
C203 C 0.13274 0.04732 0.54289 0.0
C204 C 0.22538 0.07431 0.54239 0.0
C205 C 0.24676 0.11054 0.46691 0.0
N206 N 0.16185 0.0576 0.54203 0.0
N207 N 0.21834 0.09807 0.46749 0.0
H208 H 0.23524 0.57889 0.06375 0.0
H209 H 0.3866 0.55145 0.92341 0.0
H210 H 0.25127 0.62418 0.93028 0.0
H211 H 0.37935 0.53259 0.06908 0.0
H212 H 0.33453 0.57075 0.92209 0.0
H213 H 0.28567 0.5544 0.0629 0.0
C214 C 0.24929 0.5837 0.03424 0.0
C215 C 0.23894 0.6039 -0.00284 0.0
C216 C 0.34434 0.56232 0.9543 0.0
C217 C 0.29658 0.57545 0.99578 0.0
C218 C 0.37405 0.55122 0.9551 0.0
C219 C 0.38745 0.54054 0.99649 0.0
C220 C 0.32778 0.56247 0.99508 0.0
C221 C 0.37003 0.54081 0.03645 0.0
C222 C 0.27805 0.56959 0.03375 0.0
C223 C 0.25802 0.6085 0.95944 0.0
N224 N 0.34109 0.5516 0.03474 0.0
N225 N 0.28591 0.59448 0.95979 0.0
H226 H 0.77007 0.84972 0.54319 0.0
H227 H 0.87387 0.01187 0.4805 0.0
H228 H 0.73772 0.93694 0.4639 0.0
H229 H 0.90804 0.91119 0.52024 0.0
H230 H 0.82296 0.98801 0.48181 0.0
H231 H 0.82005 0.87531 0.54326 0.0
C232 C 0.77348 0.87442 0.52606 0.0
C233 C 0.74974 0.89129 0.50358 0.0
C234 C 0.84167 0.97123 0.49016 0.0
C235 C 0.80694 0.92067 0.50331 0.0
C236 C 0.87069 0.98482 0.48959 0.0
C237 C 0.89528 0.96348 0.50019 0.0
C238 C 0.83724 0.93622 0.50202 0.0
C239 C 0.88982 0.92859 0.5116 0.0
C240 C 0.80204 0.8889 0.52584 0.0
C241 C 0.75549 0.92301 0.48136 0.0
N242 N 0.86143 0.91613 0.51238 0.0
N243 N 0.78354 0.93679 0.48192 0.0
H244 H 0.76834 0.44464 0.96079 0.0
H245 H 0.59843 0.41119 0.03028 0.0
H246 H 0.73995 0.36066 0.04883 0.0
H247 H 0.62916 0.51104 0.98167 0.0
H248 H 0.64996 0.39058 0.03115 0.0
H249 H 0.71716 0.46792 0.96196 0.0
C250 C 0.75134 0.43117 0.98037 0.0
C251 C 0.75836 0.40076 0.00488 0.0
C252 C 0.64548 0.41705 0.02044 0.0
C253 C 0.70002 0.42699 0.00613 0.0
C254 C 0.61603 0.42882 0.01976 0.0
C255 C 0.60944 0.46292 0.00584 0.0
C256 C 0.66862 0.43932 0.00656 0.0
C257 C 0.63325 0.4846 0.99279 0.0
C258 C 0.72225 0.44453 0.98121 0.0
C259 C 0.73559 0.38439 0.02991 0.0
N260 N 0.66182 0.47236 0.99318 0.0
N261 N 0.70744 0.39758 0.02965 0.0
H262 H 0.06335 0.84391 0.15408 0.0
H263 H 0.01836 0.87445 0.41443 0.0
H264 H 0.06435 0.76139 0.25459 0.0
H265 H 0.04603 0.95726 0.32368 0.0
H266 H 0.03119 0.83229 0.35527 0.0
H267 H 0.0531 0.88558 0.21482 0.0
C268 C 0.06131 0.83461 0.18906 0.0
C269 C 0.06444 0.7992 0.19945 0.0
C270 C 0.03454 0.85968 0.34844 0.0
C271 C 0.05277 0.84669 0.26908 0.0
C272 C 0.02709 0.88379 0.38205 0.0
C273 C 0.03104 0.91948 0.37392 0.0
C274 C 0.04566 0.87136 0.3062 0.0
C275 C 0.04263 0.93004 0.33145 0.0
C276 C 0.05566 0.8584 0.2237 0.0
C277 C 0.06209 0.78851 0.24532 0.0
N278 N 0.04935 0.90608 0.29907 0.0
N279 N 0.05612 0.81219 0.27854 0.0
H280 H 0.57735 0.74537 0.75218 0.0
H281 H 0.48967 0.57315 0.82542 0.0
H282 H 0.53297 0.67746 0.65586 0.0
H283 H 0.55569 0.6222 0.91231 0.0
H284 H 0.5002 0.61592 0.76566 0.0
H285 H 0.56466 0.70492 0.81405 0.0
C286 C 0.56495 0.72205 0.74393 0.0
C287 C 0.55629 0.71491 0.69852 0.0
C288 C 0.51239 0.61732 0.79781 0.0
C289 C 0.54135 0.66882 0.76938 0.0
C290 C 0.50635 0.59295 0.83202 0.0
C291 C 0.52191 0.59397 0.87394 0.0
C292 C 0.53394 0.64317 0.8056 0.0
C293 C 0.54328 0.62028 0.88044 0.0
C294 C 0.55765 0.69904 0.77933 0.0
C295 C 0.53973 0.68451 0.69026 0.0
N296 N 0.54863 0.6439 0.84664 0.0
N297 N 0.53284 0.66264 0.72529 0.0
H298 H 0.90197 0.22222 0.22789 0.0
H299 H 0.02449 0.09893 0.34387 0.0
H300 H 0.99512 0.22201 0.18916 0.0
H301 H 0.93577 0.11299 0.39889 0.0
H302 H 0.01385 0.1435 0.28638 0.0
H303 H 0.91381 0.18271 0.29106 0.0
C304 C 0.92501 0.21433 0.23302 0.0
C305 C 0.94756 0.22541 0.20291 0.0
C306 C 0.99674 0.13694 0.31113 0.0
C307 C 0.96113 0.17944 0.2747 0.0
C308 C 0.00275 0.11135 0.34389 0.0
C309 C 0.98095 0.10205 0.37621 0.0
C310 C 0.96864 0.15323 0.31034 0.0
C311 C 0.95325 0.11926 0.37464 0.0
C312 C 0.9317 0.19151 0.26894 0.0
C313 C 0.9769 0.21371 0.21093 0.0
N314 N 0.94784 0.14389 0.34211 0.0
N315 N 0.98279 0.19119 0.24582 0.0
H316 H 0.45324 0.33416 0.65445 0.0
H317 H 0.49106 0.36629 0.91821 0.0
H318 H 0.45161 0.25146 0.75475 0.0
H319 H 0.46289 0.44752 0.82494 0.0
H320 H 0.48183 0.32348 0.85791 0.0
H321 H 0.46237 0.3758 0.71572 0.0
C322 C 0.45506 0.32476 0.68944 0.0
C323 C 0.45188 0.28932 0.69961 0.0
C324 C 0.4776 0.35068 0.85081 0.0
C325 C 0.4621 0.33688 0.76995 0.0
C326 C 0.48296 0.37514 0.88508 0.0
C327 C 0.47776 0.41057 0.87658 0.0
C328 C 0.46737 0.3618 0.80761 0.0
C329 C 0.46714 0.42051 0.83309 0.0
C330 C 0.46002 0.34856 0.72441 0.0
C331 C 0.45388 0.27861 0.74558 0.0
N332 N 0.46246 0.39627 0.80018 0.0
N333 N 0.45905 0.30232 0.77916 0.0
H334 H 0.58023 0.74686 0.24345 0.0
H335 H 0.48741 0.57777 0.17225 0.0
H336 H 0.53088 0.68338 0.33946 0.0
H337 H 0.55637 0.62232 0.08698 0.0
H338 H 0.49829 0.62124 0.23064 0.0
H339 H 0.56711 0.70603 0.18247 0.0
C340 C 0.56664 0.72445 0.25181 0.0
C341 C 0.55668 0.71869 0.29687 0.0
C342 C 0.51103 0.62151 0.19914 0.0
C343 C 0.54128 0.67217 0.22701 0.0
C344 C 0.5048 0.59674 0.1657 0.0
C345 C 0.52109 0.59626 0.12468 0.0
C346 C 0.53356 0.64625 0.19144 0.0
C347 C 0.54337 0.62155 0.1182 0.0
C348 C 0.55909 0.70123 0.21691 0.0
C349 C 0.53867 0.68942 0.30527 0.0
N350 N 0.54892 0.64557 0.15122 0.0
N351 N 0.5316 0.66732 0.27074 0.0
H352 H 0.9724 0.18717 0.84154 0.0
H353 H 0.94307 0.12499 0.58487 0.0
H354 H 0.92102 0.24785 0.74416 0.0
H355 H 0.01259 0.08276 0.67212 0.0
H356 H 0.932 0.16809 0.64388 0.0
H357 H 0.98509 0.1469 0.78074 0.0
C358 C 0.96408 0.19241 0.80726 0.0
C359 C 0.94574 0.22128 0.79809 0.0
C360 C 0.94973 0.14944 0.64995 0.0
C361 C 0.95963 0.17435 0.72825 0.0
C362 C 0.95599 0.12473 0.61639 0.0
C363 C 0.97877 0.10013 0.62355 0.0
C364 C 0.96614 0.1493 0.69115 0.0
C365 C 0.99486 0.10119 0.66501 0.0
C366 C 0.97119 0.16914 0.77256 0.0
C367 C 0.93496 0.22583 0.75307 0.0
N368 N 0.98813 0.12523 0.69727 0.0
N369 N 0.94197 0.20254 0.71986 0.0
H370 H 0.44515 0.25018 0.24753 0.0
H371 H 0.458 0.45057 0.1776 0.0
H372 H 0.4469 0.33372 0.34555 0.0
H373 H 0.48657 0.36793 0.08827 0.0
H374 H 0.44704 0.40752 0.23697 0.0
H375 H 0.45376 0.29267 0.18574 0.0
C376 C 0.44729 0.27744 0.25593 0.0
C377 C 0.44562 0.28851 0.3016 0.0
C378 C 0.45571 0.39883 0.20435 0.0
C379 C 0.45511 0.33699 0.23159 0.0
C380 C 0.46188 0.42338 0.17039 0.0
C381 C 0.47336 0.41287 0.12797 0.0
C382 C 0.46071 0.36347 0.1957 0.0
C383 C 0.47795 0.37722 0.1206 0.0
C384 C 0.4523 0.30159 0.22083 0.0
C385 C 0.44851 0.32408 0.31082 0.0
N386 N 0.47154 0.35376 0.15412 0.0
N387 N 0.45302 0.34705 0.27614 0.0
H388 H 0.09488 0.77651 0.7561 0.0
H389 H 0.02087 0.95093 0.68231 0.0
H390 H 0.01546 0.81276 0.82524 0.0
H391 H 0.03853 0.87554 0.57683 0.0
H392 H 0.02958 0.90575 0.74062 0.0
H393 H 0.08382 0.81674 0.69284 0.0
C394 C 0.07496 0.79243 0.75792 0.0
C395 C 0.05641 0.79153 0.79676 0.0
C396 C 0.03158 0.89928 0.70464 0.0
C397 C 0.04458 0.83832 0.72543 0.0
C398 C 0.02684 0.92495 0.67154 0.0
C399 C 0.02893 0.91675 0.62492 0.0
C400 C 0.03932 0.86561 0.69091 0.0
C401 C 0.03655 0.88269 0.61256 0.0
C402 C 0.06887 0.81551 0.72194 0.0
C403 C 0.03109 0.81327 0.79702 0.0
N404 N 0.04182 0.8583 0.64548 0.0
N405 N 0.02626 0.83624 0.76238 0.0
loop_
_geom_bond_atom_site_label_1
_geom_bond_atom_site_label_2
_geom_bond_distance
_geom_bond_site_symmetry_2
_ccdc_geom_bond_type
C0 C1 1.384 . S
C0 H13 0.947 . S
C0 C35 1.382 . S
C1 C0 1.384 . S
C1 C2 1.378 . S
C2 C1 1.378 . S
C2 C3 1.378 . S
C2 H14 0.952 . S
C3 C2 1.378 . S
C3 H15 0.950 . S
C3 C34 1.383 . S
H4 C23 0.947 . S
H5 C24 0.946 . S
H6 C26 0.953 . S
H7 C27 0.945 . S
H8 C29 0.952 . S
H9 C30 0.949 . S
H10 C32 0.950 . S
H11 C33 0.948 . S
H12 C35 0.951 . S
H13 C0 0.947 . S
H14 C2 0.952 . S
H15 C3 0.950 . S
N16 C19 1.382 . S
N16 C21 1.363 . S
N17 C19 1.371 1_556 S
N17 C20 1.372 . S
N18 C20 1.361 1_554 S
N18 C21 1.377 . S
C19 N16 1.382 . S
C19 N17 1.371 1_554 S
C19 C22 1.480 . S
C20 N17 1.372 . S
C20 N18 1.361 1_556 S
C20 C28 1.457 . S
C21 N16 1.363 . S
C21 N18 1.377 . S
C21 C34 1.479 . S
C22 C19 1.480 . S
C22 C23 1.383 . S
C22 C27 1.385 1_554 S
C23 H4 0.947 . S
C23 C22 1.383 . S
C23 C24 1.388 . S
C24 H5 0.946 . S
C24 C23 1.388 . S
C24 C25 1.384 . S
C25 C24 1.384 . S
C25 C26 1.377 1_554 S
C26 H6 0.953 . S
C26 C25 1.377 1_556 S
C26 C27 1.369 . S
C27 H7 0.945 . S
C27 C22 1.385 1_556 S
C27 C26 1.369 . S
C28 C20 1.457 . S
C28 C29 1.372 . S
C28 C33 1.364 . S
C29 H8 0.952 . S
C29 C28 1.372 . S
C29 C30 1.389 . S
C30 H9 0.949 . S
C30 C29 1.389 . S
C30 C31 1.387 . S
C31 C30 1.387 . S
C31 C32 1.372 . S
C32 H10 0.950 . S
C32 C31 1.372 . S
C32 C33 1.379 . S
C33 H11 0.948 . S
C33 C28 1.364 . S
C33 C32 1.379 . S
C34 C3 1.383 . S
C34 C21 1.479 . S
C34 C35 1.398 . S
C35 C0 1.382 . S
C35 H12 0.951 . S
C35 C34 1.398 . S
C36 C37 1.384 . S
C36 H49 0.947 . S
C36 C71 1.382 . S
C37 C36 1.384 . S
C37 C38 1.378 . S
C38 C37 1.378 . S
C38 C39 1.378 . S
C38 H50 0.952 . S
C39 C38 1.378 . S
C39 H51 0.950 . S
C39 C70 1.383 . S
H40 C59 0.947 . S
H41 C60 0.946 . S
H42 C62 0.953 . S
H43 C63 0.945 . S
H44 C65 0.952 . S
H45 C66 0.949 . S
H46 C68 0.950 . S
H47 C69 0.948 . S
H48 C71 0.951 . S
H49 C36 0.947 . S
H50 C38 0.952 . S
H51 C39 0.950 . S
N52 C55 1.382 . S
N52 C57 1.363 . S
N53 C55 1.371 . S
N53 C56 1.372 . S
N54 C56 1.361 . S
N54 C57 1.377 . S
C55 N52 1.382 . S
C55 N53 1.371 . S
C55 C58 1.480 . S
C56 N53 1.372 . S
C56 N54 1.361 . S
C56 C64 1.457 . S
C57 N52 1.363 . S
C57 N54 1.377 . S
C57 C70 1.479 . S
C58 C55 1.480 . S
C58 C59 1.383 . S
C58 C63 1.385 . S
C59 H40 0.947 . S
C59 C58 1.383 . S
C59 C60 1.388 . S
C60 H41 0.946 . S
C60 C59 1.388 . S
C60 C61 1.384 . S
C61 C60 1.384 . S
C61 C62 1.377 . S
C62 H42 0.953 . S
C62 C61 1.377 . S
C62 C63 1.369 . S
C63 H43 0.945 . S
C63 C58 1.385 . S
C63 C62 1.369 . S
C64 C56 1.457 . S
C64 C65 1.372 . S
C64 C69 1.364 . S
C65 H44 0.952 . S
C65 C64 1.372 . S
C65 C66 1.389 . S
C66 H45 0.949 . S
C66 C65 1.389 . S
C66 C67 1.387 . S
C67 C66 1.387 . S
C67 C68 1.372 . S
C68 H46 0.950 . S
C68 C67 1.372 . S
C68 C69 1.379 . S
C69 H47 0.948 . S
C69 C64 1.364 . S
C69 C68 1.379 . S
C70 C39 1.383 . S
C70 C57 1.479 . S
C70 C71 1.398 . S
C71 C36 1.382 . S
C71 H48 0.951 . S
C71 C70 1.398 . S
C72 C73 1.384 . S
C72 H85 0.947 . S
C72 C107 1.382 . S
C73 C72 1.384 . S
C73 C74 1.378 . S
C74 C73 1.378 . S
C74 C75 1.378 . S
C74 H86 0.952 . S
C75 C74 1.378 . S
C75 H87 0.950 . S
C75 C106 1.383 . S
H76 C95 0.947 . S
H77 C96 0.946 . S
H78 C98 0.953 . S
H79 C99 0.945 . S
H80 C101 0.952 . S
H81 C102 0.949 . S
H82 C104 0.950 . S
H83 C105 0.948 . S
H84 C107 0.951 . S
H85 C72 0.947 . S
H86 C74 0.952 . S
H87 C75 0.950 . S
N88 C91 1.382 1_556 S
N88 C93 1.363 . S
N89 C91 1.371 . S
N89 C92 1.372 . S
N90 C92 1.361 . S
N90 C93 1.377 1_554 S
C91 N88 1.382 1_554 S
C91 N89 1.371 . S
C91 C94 1.480 . S
C92 N89 1.372 . S
C92 N90 1.361 . S
C92 C100 1.457 . S
C93 N88 1.363 . S
C93 N90 1.377 1_556 S
C93 C106 1.479 . S
C94 C91 1.480 . S
C94 C95 1.383 1_554 S
C94 C99 1.385 . S
C95 H76 0.947 . S
C95 C94 1.383 1_556 S
C95 C96 1.388 . S
C96 H77 0.946 . S
C96 C95 1.388 . S
C96 C97 1.384 1_556 S
C97 C96 1.384 1_554 S
C97 C98 1.377 . S
C98 H78 0.953 . S
C98 C97 1.377 . S
C98 C99 1.369 . S
C99 H79 0.945 . S
C99 C94 1.385 . S
C99 C98 1.369 . S
C100 C92 1.457 . S
C100 C101 1.372 . S
C100 C105 1.364 . S
C101 H80 0.952 . S
C101 C100 1.372 . S
C101 C102 1.389 . S
C102 H81 0.949 . S
C102 C101 1.389 . S
C102 C103 1.387 . S
C103 C102 1.387 . S
C103 C104 1.372 . S
C104 H82 0.950 . S
C104 C103 1.372 . S
C104 C105 1.379 . S
C105 H83 0.948 . S
C105 C100 1.364 . S
C105 C104 1.379 . S
C106 C75 1.383 . S
C106 C93 1.479 . S
C106 C107 1.398 . S
C107 C72 1.382 . S
C107 H84 0.951 . S
C107 C106 1.398 . S
C108 C109 1.384 . S
C108 H121 0.947 . S
C108 C143 1.382 . S
C109 C108 1.384 . S
C109 C110 1.378 . S
C110 C109 1.378 . S
C110 C111 1.378 . S
C110 H122 0.952 . S
C111 C110 1.378 . S
C111 H123 0.950 . S
C111 C142 1.383 . S
H112 C131 0.947 . S
H113 C132 0.946 . S
H114 C134 0.953 . S
H115 C135 0.945 . S
H116 C137 0.952 . S
H117 C138 0.949 . S
H118 C140 0.950 . S
H119 C141 0.948 . S
H120 C143 0.951 . S
H121 C108 0.947 . S
H122 C110 0.952 . S
H123 C111 0.950 . S
N124 C127 1.382 . S
N124 C129 1.363 . S
N125 C127 1.371 . S
N125 C128 1.372 . S
N126 C128 1.361 . S
N126 C129 1.377 . S
C127 N124 1.382 . S
C127 N125 1.371 . S
C127 C130 1.480 . S
C128 N125 1.372 . S
C128 N126 1.361 . S
C128 C136 1.457 . S
C129 N124 1.363 . S
C129 N126 1.377 . S
C129 C142 1.479 . S
C130 C127 1.480 . S
C130 C131 1.383 . S
C130 C135 1.385 . S
C131 H112 0.947 . S
C131 C130 1.383 . S
C131 C132 1.388 . S
C132 H113 0.946 . S
C132 C131 1.388 . S
C132 C133 1.384 . S
C133 C132 1.384 . S
C133 C134 1.377 . S
C134 H114 0.953 . S
C134 C133 1.377 . S
C134 C135 1.369 . S
C135 H115 0.945 . S
C135 C130 1.385 . S
C135 C134 1.369 . S
C136 C128 1.457 . S
C136 C137 1.372 . S
C136 C141 1.364 . S
C137 H116 0.952 . S
C137 C136 1.372 . S
C137 C138 1.389 . S
C138 H117 0.949 . S
C138 C137 1.389 . S
C138 C139 1.387 . S
C139 C138 1.387 . S
C139 C140 1.372 . S
C140 H118 0.950 . S
C140 C139 1.372 . S
C140 C141 1.379 . S
C141 H119 0.948 . S
C141 C136 1.364 . S
C141 C140 1.379 . S
C142 C111 1.383 . S
C142 C129 1.479 . S
C142 C143 1.398 . S
C143 C108 1.382 . S
C143 H120 0.951 . S
C143 C142 1.398 . S
O144 Zn145 1.953 1_565 S
O144 C160 1.225 . S
Zn145 O144 1.953 1_545 S
Zn145 O146 1.949 1_655 S
Zn145 O152 1.919 . S
Zn145 O157 1.924 . S
O146 Zn145 1.949 1_455 S
O146 Zn147 1.923 . S
O146 Zn148 1.950 1_445 S
O146 Zn149 1.945 . S
Zn147 O146 1.923 . S
Zn147 O150 1.933 . S
Zn147 O153 1.941 . S
Zn147 O154 1.965 1_545 S
Zn148 O146 1.950 1_665 S
Zn148 O155 1.938 1_655 S
Zn148 O156 1.906 1_655 S
Zn148 O166 1.953 . S
Zn149 O146 1.945 . S
Zn149 O151 1.932 . S
Zn149 O158 1.977 1_545 S
Zn149 O159 1.910 1_455 S
O150 Zn147 1.933 . S
O150 C161 1.226 . S
O151 Zn149 1.932 . S
O151 C161 1.307 . S
O152 Zn145 1.919 . S
O152 C163 1.253 . S
O153 Zn147 1.941 . S
O153 C163 1.283 1_455 S
O154 Zn147 1.965 1_565 S
O154 C162 1.303 . S
O155 Zn148 1.938 1_455 S
O155 C162 1.247 . S
O156 Zn148 1.906 1_455 S
O156 C164 1.304 . S
O157 Zn145 1.924 . S
O157 C165 1.311 . S
O158 Zn149 1.977 1_565 S
O158 C164 1.272 . S
O159 Zn149 1.910 1_655 S
O159 C165 1.231 . S
C160 O144 1.225 . S
C160 O166 1.298 . S
C161 O150 1.226 . S
C161 O151 1.307 . S
C162 O154 1.303 . S
C162 O155 1.247 . S
C163 O152 1.253 . S
C163 O153 1.283 1_655 S
C164 O156 1.304 . S
C164 O158 1.272 . S
C165 O157 1.311 . S
C165 O159 1.231 . S
O166 Zn148 1.953 . S
O166 C160 1.298 . S
O167 Zn168 1.953 . S
O167 C183 1.225 1_556 S
Zn168 O167 1.953 . S
Zn168 O169 1.949 1_556 S
Zn168 O175 1.919 . S
Zn168 O180 1.924 1_556 S
O169 Zn168 1.949 1_554 S
O169 Zn170 1.923 1_554 S
O169 Zn171 1.950 . S
O169 Zn172 1.945 . S
Zn170 O169 1.923 1_556 S
Zn170 O173 1.933 . S
Zn170 O176 1.941 . S
Zn170 O177 1.965 . S
Zn171 O169 1.950 . S
Zn171 O178 1.938 1_554 S
Zn171 O179 1.906 . S
Zn171 O189 1.953 . S
Zn172 O169 1.945 . S
Zn172 O174 1.932 . S
Zn172 O181 1.977 . S
Zn172 O182 1.910 . S
O173 Zn170 1.933 . S
O173 C184 1.226 1_556 S
O174 Zn172 1.932 . S
O174 C184 1.307 . S
O175 Zn168 1.919 . S
O175 C186 1.253 . S
O176 Zn170 1.941 . S
O176 C186 1.283 . S
O177 Zn170 1.965 . S
O177 C185 1.303 . S
O178 Zn171 1.938 1_556 S
O178 C185 1.247 . S
O179 Zn171 1.906 . S
O179 C187 1.304 . S
O180 Zn168 1.924 1_554 S
O180 C188 1.311 . S
O181 Zn172 1.977 . S
O181 C187 1.272 . S
O182 Zn172 1.910 . S
O182 C188 1.231 . S
C183 O167 1.225 1_554 S
C183 O189 1.298 . S
C184 O173 1.226 1_554 S
C184 O174 1.307 . S
C185 O177 1.303 . S
C185 O178 1.247 . S
C186 O175 1.253 . S
C186 O176 1.283 . S
C187 O179 1.304 . S
C187 O181 1.272 . S
C188 O180 1.311 . S
C188 O182 1.231 . S
O189 Zn171 1.953 . S
O189 C183 1.298 . S
H190 C196 0.930 . S
H191 C200 0.930 . S
H192 C205 0.929 . S
H193 C203 0.929 . S
H194 C198 0.929 . S
H195 C204 0.929 . S
C196 H190 0.930 . S
C196 C197 1.367 . S
C196 C204 1.378 . S
C197 C196 1.367 . S
C197 C205 1.433 . S
C198 H194 0.929 . S
C198 C200 1.378 . S
C198 C202 1.350 . S
C199 C202 1.463 . S
C199 C204 1.350 . S
C199 N207 1.427 . S
C200 H191 0.930 . S
C200 C198 1.378 . S
C200 C201 1.367 . S
C201 C200 1.367 . S
C201 C203 1.433 . S
C202 C198 1.350 . S
C202 C199 1.463 . S
C202 N206 1.427 . S
C203 H193 0.929 . S
C203 C201 1.433 . S
C203 N206 1.384 . S
C204 H195 0.929 . S
C204 C196 1.378 . S
C204 C199 1.350 . S
C205 H192 0.929 . S
C205 C197 1.433 . S
C205 N207 1.384 . S
N206 C202 1.427 . S
N206 C203 1.384 . S
N207 C199 1.427 . S
N207 C205 1.384 . S
H208 C214 0.930 . S
H209 C218 0.930 . S
H210 C223 0.929 . S
H211 C221 0.929 . S
H212 C216 0.929 . S
H213 C222 0.929 . S
C214 H208 0.930 . S
C214 C215 1.367 . S
C214 C222 1.378 . S
C215 C214 1.367 . S
C215 C223 1.433 1_554 S
C216 H212 0.929 . S
C216 C218 1.378 . S
C216 C220 1.350 1_556 S
C217 C220 1.463 . S
C217 C222 1.350 . S
C217 N225 1.427 1_554 S
C218 H209 0.930 . S
C218 C216 1.378 . S
C218 C219 1.367 1_556 S
C219 C218 1.367 1_554 S
C219 C221 1.433 . S
C220 C216 1.350 1_554 S
C220 C217 1.463 . S
C220 N224 1.427 . S
C221 H211 0.929 . S
C221 C219 1.433 . S
C221 N224 1.384 . S
C222 H213 0.929 . S
C222 C214 1.378 . S
C222 C217 1.350 . S
C223 H210 0.929 . S
C223 C215 1.433 1_556 S
C223 N225 1.384 . S
N224 C220 1.427 . S
N224 C221 1.384 . S
N225 C217 1.427 1_556 S
N225 C223 1.384 . S
H226 C232 0.930 . S
H227 C236 0.930 . S
H228 C241 0.929 . S
H229 C239 0.929 . S
H230 C234 0.929 . S
H231 C240 0.929 . S
C232 H226 0.930 . S
C232 C233 1.367 . S
C232 C240 1.378 . S
C233 C232 1.367 . S
C233 C241 1.433 . S
C234 H230 0.929 . S
C234 C236 1.378 . S
C234 C238 1.350 . S
C235 C238 1.463 . S
C235 C240 1.350 . S
C235 N243 1.427 . S
C236 H227 0.930 . S
C236 C234 1.378 . S
C236 C237 1.367 . S
C237 C236 1.367 . S
C237 C239 1.433 . S
C238 C234 1.350 . S
C238 C235 1.463 . S
C238 N242 1.427 . S
C239 H229 0.929 . S
C239 C237 1.433 . S
C239 N242 1.384 . S
C240 H231 0.929 . S
C240 C232 1.378 . S
C240 C235 1.350 . S
C241 H228 0.929 . S
C241 C233 1.433 . S
C241 N243 1.384 . S
N242 C238 1.427 . S
N242 C239 1.384 . S
N243 C235 1.427 . S
N243 C241 1.384 . S
H244 C250 0.930 . S
H245 C254 0.930 . S
H246 C259 0.929 . S
H247 C257 0.929 . S
H248 C252 0.929 . S
H249 C258 0.929 . S
C250 H244 0.930 . S
C250 C251 1.367 1_556 S
C250 C258 1.378 . S
C251 C250 1.367 1_554 S
C251 C259 1.433 . S
C252 H248 0.929 . S
C252 C254 1.378 . S
C252 C256 1.350 . S
C253 C256 1.463 . S
C253 C258 1.350 1_554 S
C253 N261 1.427 . S
C254 H245 0.930 . S
C254 C252 1.378 . S
C254 C255 1.367 . S
C255 C254 1.367 . S
C255 C257 1.433 1_554 S
C256 C252 1.350 . S
C256 C253 1.463 . S
C256 N260 1.427 1_554 S
C257 H247 0.929 . S
C257 C255 1.433 1_556 S
C257 N260 1.384 . S
C258 H249 0.929 . S
C258 C250 1.378 . S
C258 C253 1.350 1_556 S
C259 H246 0.929 . S
C259 C251 1.433 . S
C259 N261 1.384 . S
N260 C256 1.427 1_556 S
N260 C257 1.384 . S
N261 C253 1.427 . S
N261 C259 1.384 . S
H262 C268 0.930 . S
H263 C272 0.930 . S
H264 C277 0.929 . S
H265 C275 0.929 . S
H266 C270 0.929 . S
H267 C276 0.929 . S
C268 H262 0.930 . S
C268 C269 1.367 . S
C268 C276 1.378 . S
C269 C268 1.367 . S
C269 C277 1.433 . S
C270 H266 0.929 . S
C270 C272 1.378 . S
C270 C274 1.350 . S
C271 C274 1.463 . S
C271 C276 1.350 . S
C271 N279 1.427 . S
C272 H263 0.930 . S
C272 C270 1.378 . S
C272 C273 1.367 . S
C273 C272 1.367 . S
C273 C275 1.433 . S
C274 C270 1.350 . S
C274 C271 1.463 . S
C274 N278 1.427 . S
C275 H265 0.929 . S
C275 C273 1.433 . S
C275 N278 1.384 . S
C276 H267 0.929 . S
C276 C268 1.378 . S
C276 C271 1.350 . S
C277 H264 0.929 . S
C277 C269 1.433 . S
C277 N279 1.384 . S
N278 C274 1.427 . S
N278 C275 1.384 . S
N279 C271 1.427 . S
N279 C277 1.384 . S
H280 C286 0.930 . S
H281 C290 0.930 . S
H282 C295 0.929 . S
H283 C293 0.929 . S
H284 C288 0.929 . S
H285 C294 0.929 . S
C286 H280 0.930 . S
C286 C287 1.367 . S
C286 C294 1.378 . S
C287 C286 1.367 . S
C287 C295 1.433 . S
C288 H284 0.929 . S
C288 C290 1.378 . S
C288 C292 1.350 . S
C289 C292 1.463 . S
C289 C294 1.350 . S
C289 N297 1.427 . S
C290 H281 0.930 . S
C290 C288 1.378 . S
C290 C291 1.367 . S
C291 C290 1.367 . S
C291 C293 1.433 . S
C292 C288 1.350 . S
C292 C289 1.463 . S
C292 N296 1.427 . S
C293 H283 0.929 . S
C293 C291 1.433 . S
C293 N296 1.384 . S
C294 H285 0.929 . S
C294 C286 1.378 . S
C294 C289 1.350 . S
C295 H282 0.929 . S
C295 C287 1.433 . S
C295 N297 1.384 . S
N296 C292 1.427 . S
N296 C293 1.384 . S
N297 C289 1.427 . S
N297 C295 1.384 . S
H298 C304 0.930 . S
H299 C308 0.930 . S
H300 C313 0.929 . S
H301 C311 0.929 . S
H302 C306 0.929 . S
H303 C312 0.929 . S
C304 H298 0.930 . S
C304 C305 1.367 . S
C304 C312 1.378 . S
C305 C304 1.367 . S
C305 C313 1.433 . S
C306 H302 0.929 . S
C306 C308 1.378 . S
C306 C310 1.350 . S
C307 C310 1.463 . S
C307 C312 1.350 . S
C307 N315 1.427 . S
C308 H299 0.930 . S
C308 C306 1.378 . S
C308 C309 1.367 . S
C309 C308 1.367 . S
C309 C311 1.433 . S
C310 C306 1.350 . S
C310 C307 1.463 . S
C310 N314 1.427 . S
C311 H301 0.929 . S
C311 C309 1.433 . S
C311 N314 1.384 . S
C312 H303 0.929 . S
C312 C304 1.378 . S
C312 C307 1.350 . S
C313 H300 0.929 . S
C313 C305 1.433 . S
C313 N315 1.384 . S
N314 C310 1.427 . S
N314 C311 1.384 . S
N315 C307 1.427 . S
N315 C313 1.384 . S
H316 C322 0.930 . S
H317 C326 0.930 . S
H318 C331 0.929 . S
H319 C329 0.929 . S
H320 C324 0.929 . S
H321 C330 0.929 . S
C322 H316 0.930 . S
C322 C323 1.367 . S
C322 C330 1.378 . S
C323 C322 1.367 . S
C323 C331 1.433 . S
C324 H320 0.929 . S
C324 C326 1.378 . S
C324 C328 1.350 . S
C325 C328 1.463 . S
C325 C330 1.350 . S
C325 N333 1.427 . S
C326 H317 0.930 . S
C326 C324 1.378 . S
C326 C327 1.367 . S
C327 C326 1.367 . S
C327 C329 1.433 . S
C328 C324 1.350 . S
C328 C325 1.463 . S
C328 N332 1.427 . S
C329 H319 0.929 . S
C329 C327 1.433 . S
C329 N332 1.384 . S
C330 H321 0.929 . S
C330 C322 1.378 . S
C330 C325 1.350 . S
C331 H318 0.929 . S
C331 C323 1.433 . S
C331 N333 1.384 . S
N332 C328 1.427 . S
N332 C329 1.384 . S
N333 C325 1.427 . S
N333 C331 1.384 . S
H334 C340 0.930 . S
H335 C344 0.930 . S
H336 C349 0.929 . S
H337 C347 0.929 . S
H338 C342 0.929 . S
H339 C348 0.929 . S
C340 H334 0.930 . S
C340 C341 1.367 . S
C340 C348 1.378 . S
C341 C340 1.367 . S
C341 C349 1.433 . S
C342 H338 0.929 . S
C342 C344 1.378 . S
C342 C346 1.350 . S
C343 C346 1.463 . S
C343 C348 1.350 . S
C343 N351 1.427 . S
C344 H335 0.930 . S
C344 C342 1.378 . S
C344 C345 1.367 . S
C345 C344 1.367 . S
C345 C347 1.433 . S
C346 C342 1.350 . S
C346 C343 1.463 . S
C346 N350 1.427 . S
C347 H337 0.929 . S
C347 C345 1.433 . S
C347 N350 1.384 . S
C348 H339 0.929 . S
C348 C340 1.378 . S
C348 C343 1.350 . S
C349 H336 0.929 . S
C349 C341 1.433 . S
C349 N351 1.384 . S
N350 C346 1.427 . S
N350 C347 1.384 . S
N351 C343 1.427 . S
N351 C349 1.384 . S
H352 C358 0.930 . S
H353 C362 0.930 . S
H354 C367 0.929 . S
H355 C365 0.933 . S
H356 C360 0.929 . S
H357 C366 0.929 . S
C358 H352 0.930 . S
C358 C359 1.367 . S
C358 C366 1.378 . S
C359 C358 1.367 . S
C359 C367 1.433 . S
C360 H356 0.929 . S
C360 C362 1.378 . S
C360 C364 1.350 . S
C361 C364 1.463 . S
C361 C366 1.350 . S
C361 N369 1.427 . S
C362 H353 0.930 . S
C362 C360 1.378 . S
C362 C363 1.367 . S
C363 C362 1.367 . S
C363 C365 1.433 . S
C364 C360 1.350 . S
C364 C361 1.463 . S
C364 N368 1.427 . S
C365 H355 0.933 . S
C365 C363 1.433 . S
C365 N368 1.384 . S
C366 H357 0.929 . S
C366 C358 1.378 . S
C366 C361 1.350 . S
C367 H354 0.929 . S
C367 C359 1.433 . S
C367 N369 1.384 . S
N368 C364 1.427 . S
N368 C365 1.384 . S
N369 C361 1.427 . S
N369 C367 1.384 . S
H370 C376 0.930 . S
H371 C380 0.930 . S
H372 C385 0.929 . S
H373 C383 0.929 . S
H374 C378 0.929 . S
H375 C384 0.929 . S
C376 H370 0.930 . S
C376 C377 1.367 . S
C376 C384 1.378 . S
C377 C376 1.367 . S
C377 C385 1.433 . S
C378 H374 0.929 . S
C378 C380 1.378 . S
C378 C382 1.350 . S
C379 C382 1.463 . S
C379 C384 1.350 . S
C379 N387 1.427 . S
C380 H371 0.930 . S
C380 C378 1.378 . S
C380 C381 1.367 . S
C381 C380 1.367 . S
C381 C383 1.433 . S
C382 C378 1.350 . S
C382 C379 1.463 . S
C382 N386 1.427 . S
C383 H373 0.929 . S
C383 C381 1.433 . S
C383 N386 1.384 . S
C384 H375 0.929 . S
C384 C376 1.378 . S
C384 C379 1.350 . S
C385 H372 0.929 . S
C385 C377 1.433 . S
C385 N387 1.384 . S
N386 C382 1.427 . S
N386 C383 1.384 . S
N387 C379 1.427 . S
N387 C385 1.384 . S
H388 C394 0.930 . S
H389 C398 0.930 1_655 S
H390 C403 0.929 . S
H391 C401 0.929 . S
H392 C396 0.929 . S
H393 C402 0.929 . S
C394 H388 0.930 . S
C394 C395 1.367 . S
C394 C402 1.378 . S
C395 C394 1.367 . S
C395 C403 1.433 . S
C396 H392 0.929 . S
C396 C398 1.378 . S
C396 C400 1.350 . S
C397 C400 1.463 . S
C397 C402 1.350 . S
C397 N405 1.427 . S
C398 H389 0.930 1_455 S
C398 C396 1.378 . S
C398 C399 1.367 . S
C399 C398 1.367 . S
C399 C401 1.433 . S
C400 C396 1.350 . S
C400 C397 1.463 . S
C400 N404 1.427 . S
C401 H391 0.929 . S
C401 C399 1.433 . S
C401 N404 1.384 . S
C402 H393 0.929 . S
C402 C394 1.378 . S
C402 C397 1.350 . S
C403 H390 0.929 . S
C403 C395 1.433 . S
C403 N405 1.384 . S
N404 C400 1.427 . S
N404 C401 1.384 . S
N405 C397 1.427 . S
N405 C403 1.384 . S
C201 C161 1.652 . S
C197 C133 1.648 . S
C215 C25 1.596 . S
C219 C184 1.649 . S
C233 C61 1.601 . S
C237 C160 1.662 . S
C251 C97 1.659 . S
C255 C183 1.666 . S
C273 C164 1.632 . S
C269 C1 1.631 . S
C291 C186 1.631 . S
C287 C67 1.616 . S
C305 C103 1.682 . S
C309 C165 1.620 . S
C323 C109 1.630 . S
C327 C185 1.603 . S
C345 C188 1.629 . S
C341 C37 1.648 . S
C363 C163 1.637 . S
C359 C73 1.652 . S
C381 C187 1.625 . S
C377 C139 1.677 . S
C395 C31 1.593 . S
C399 C162 1.610 . S
