# Generated by pormake.
# Topology sqc, (4,8)-cn, num edge types: 1
# Building blocks:
#     Node 0, Type 0, BuildingBlock: NAWXER_clean_linker_0, # of connection points: 4
#     Node 1, Type 0, BuildingBlock: NAWXER_clean_linker_0, # of connection points: 4
#     Node 2, Type 0, BuildingBlock: NAWXER_clean_linker_0, # of connection points: 4
#     Node 3, Type 0, BuildingBlock: NAWXER_clean_linker_0, # of connection points: 4
#     Node 4, Type 0, BuildingBlock: NAWXER_clean_linker_0, # of connection points: 4
#     Node 5, Type 0, BuildingBlock: NAWXER_clean_linker_0, # of connection points: 4
#     Node 6, Type 0, BuildingBlock: NAWXER_clean_linker_0, # of connection points: 4
#     Node 7, Type 0, BuildingBlock: NAWXER_clean_linker_0, # of connection points: 4
#     Node 8, Type 1, BuildingBlock: TAGTUT_clean_sbu_3, # of connection points: 8
#     Node 9, Type 1, BuildingBlock: TAGTUT_clean_sbu_3, # of connection points: 8
#     Node 10, Type 1, BuildingBlock: TAGTUT_clean_sbu_3, # of connection points: 8
#     Node 11, Type 1, BuildingBlock: TAGTUT_clean_sbu_3, # of connection points: 8
#     Edge 12, Type (0, 1), BuildingBlock: UVAHIK_clean_linker_0, # of connection points: 2
#     Edge 13, Type (0, 1), BuildingBlock: UVAHIK_clean_linker_0, # of connection points: 2
#     Edge 14, Type (0, 1), BuildingBlock: UVAHIK_clean_linker_0, # of connection points: 2
#     Edge 15, Type (0, 1), BuildingBlock: UVAHIK_clean_linker_0, # of connection points: 2
#     Edge 16, Type (0, 1), BuildingBlock: UVAHIK_clean_linker_0, # of connection points: 2
#     Edge 17, Type (0, 1), BuildingBlock: UVAHIK_clean_linker_0, # of connection points: 2
#     Edge 18, Type (0, 1), BuildingBlock: UVAHIK_clean_linker_0, # of connection points: 2
#     Edge 19, Type (0, 1), BuildingBlock: UVAHIK_clean_linker_0, # of connection points: 2
#     Edge 20, Type (0, 1), BuildingBlock: UVAHIK_clean_linker_0, # of connection points: 2
#     Edge 21, Type (0, 1), BuildingBlock: UVAHIK_clean_linker_0, # of connection points: 2
#     Edge 22, Type (0, 1), BuildingBlock: UVAHIK_clean_linker_0, # of connection points: 2
#     Edge 23, Type (0, 1), BuildingBlock: UVAHIK_clean_linker_0, # of connection points: 2
#     Edge 24, Type (0, 1), BuildingBlock: UVAHIK_clean_linker_0, # of connection points: 2
#     Edge 25, Type (0, 1), BuildingBlock: UVAHIK_clean_linker_0, # of connection points: 2
#     Edge 26, Type (0, 1), BuildingBlock: UVAHIK_clean_linker_0, # of connection points: 2
#     Edge 27, Type (0, 1), BuildingBlock: UVAHIK_clean_linker_0, # of connection points: 2
#     Edge 28, Type (0, 1), BuildingBlock: UVAHIK_clean_linker_0, # of connection points: 2
#     Edge 29, Type (0, 1), BuildingBlock: UVAHIK_clean_linker_0, # of connection points: 2
#     Edge 30, Type (0, 1), BuildingBlock: UVAHIK_clean_linker_0, # of connection points: 2
#     Edge 31, Type (0, 1), BuildingBlock: UVAHIK_clean_linker_0, # of connection points: 2
#     Edge 32, Type (0, 1), BuildingBlock: UVAHIK_clean_linker_0, # of connection points: 2
#     Edge 33, Type (0, 1), BuildingBlock: UVAHIK_clean_linker_0, # of connection points: 2
#     Edge 34, Type (0, 1), BuildingBlock: UVAHIK_clean_linker_0, # of connection points: 2
#     Edge 35, Type (0, 1), BuildingBlock: UVAHIK_clean_linker_0, # of connection points: 2
#     Edge 36, Type (0, 1), BuildingBlock: UVAHIK_clean_linker_0, # of connection points: 2
#     Edge 37, Type (0, 1), BuildingBlock: UVAHIK_clean_linker_0, # of connection points: 2
#     Edge 38, Type (0, 1), BuildingBlock: UVAHIK_clean_linker_0, # of connection points: 2
#     Edge 39, Type (0, 1), BuildingBlock: UVAHIK_clean_linker_0, # of connection points: 2
#     Edge 40, Type (0, 1), BuildingBlock: UVAHIK_clean_linker_0, # of connection points: 2
#     Edge 41, Type (0, 1), BuildingBlock: UVAHIK_clean_linker_0, # of connection points: 2
#     Edge 42, Type (0, 1), BuildingBlock: UVAHIK_clean_linker_0, # of connection points: 2
#     Edge 43, Type (0, 1), BuildingBlock: UVAHIK_clean_linker_0, # of connection points: 2
# Relax obj value: 0.136
# Max RMSD: 0.257
# Mean RMSD: 0.160
data_MOF--net-sqc--node1-TAGTUT_clean_sbu_3--node2-NAWXER_clean_linker_0--edge1-UVAHIK_clean_linker_0
_symmetry_space_group_name_H-M    P1
_symmetry_Int_Tables_number       1
_symmetry_cell_setting            triclinic
loop_
_symmetry_equiv_pos_as_xyz
'x, y, z'
_cell_length_a     34.427312
_cell_length_b     34.401001
_cell_length_c     106.55315
_cell_angle_alpha  90.850885
_cell_angle_beta   89.993204
_cell_angle_gamma 89.979732
loop_
_atom_site_label
_atom_site_type_symbol
_atom_site_fract_x
_atom_site_fract_y
_atom_site_fract_z
_atom_type_partial_charge
C0 C 0.18486 0.97971 0.47327 0.0
C1 C 0.18616 0.93932 0.47131 0.0
C2 C 0.15082 -0.00256 0.47767 0.0
C3 C 0.11817 0.97477 0.48064 0.0
C4 C 0.15315 0.91688 0.47379 0.0
C5 C 0.11951 0.93443 0.47846 0.0
C6 C 0.08217 0.9922 0.48586 0.0
C7 C 0.17994 0.02564 0.51191 0.0
C8 C 0.1866 0.06601 0.51197 0.0
C9 C 0.1455 0.01027 0.50698 0.0
C10 C 0.11732 0.03496 0.5019 0.0
C11 C 0.15774 0.09065 0.50718 0.0
C12 C 0.12336 0.07525 0.50225 0.0
C13 C 0.08171 0.01927 0.49601 0.0
C14 C 0.91779 0.00433 0.51313 0.0
C15 C 0.90807 0.04264 0.51659 0.0
C16 C 0.95162 0.9966 0.50637 0.0
C17 C 0.9763 0.02703 0.50283 0.0
C18 C 0.93277 0.07316 0.51305 0.0
C19 C 0.96685 0.06535 0.5063 0.0
C20 C 0.01258 0.01818 0.49596 0.0
C21 C 0.91758 0.00189 0.46811 0.0
C22 C 0.90766 0.96271 0.46614 0.0
C23 C 0.95192 0.01178 0.47432 0.0
C24 C 0.97711 0.98266 0.47855 0.0
C25 C 0.93289 0.93355 0.47036 0.0
C26 C 0.96767 0.94348 0.47638 0.0
C27 C 0.01304 0.99344 0.48531 0.0
H28 H 0.2099 -0.00247 0.47117 0.0
H29 H 0.15011 0.02877 0.47873 0.0
H30 H 0.15359 0.88568 0.47224 0.0
H31 H 0.09461 0.91636 0.48054 0.0
H32 H 0.20121 0.00594 0.51577 0.0
H33 H 0.14101 0.9791 0.50702 0.0
H34 H 0.16204 0.12182 0.507 0.0
H35 H 0.10184 0.09478 0.49842 0.0
H36 H 0.89927 0.98026 0.5157 0.0
H37 H 0.95879 0.96667 0.50407 0.0
H38 H 0.92621 0.10292 0.51575 0.0
H39 H 0.98574 0.08916 0.50377 0.0
H40 H 0.89856 0.02484 0.46493 0.0
H41 H 0.95891 0.04221 0.4758 0.0
H42 H 0.92594 0.90313 0.46882 0.0
H43 H 0.98683 0.92065 0.47956 0.0
N44 N 0.0477 0.98065 0.48081 0.0
N45 N 0.04688 0.03097 0.50076 0.0
C46 C 0.39893 0.59049 0.73401 0.0
C47 C 0.38194 0.57951 0.72252 0.0
C48 C 0.38535 0.62327 0.74056 0.0
C49 C 0.35519 0.64571 0.73555 0.0
C50 C 0.35152 0.60174 0.71761 0.0
C51 C 0.33858 0.63492 0.72401 0.0
C52 C 0.34155 0.6812 0.74204 0.0
C53 C 0.28793 0.58148 0.76139 0.0
C54 C 0.30137 0.57561 0.77366 0.0
C55 C 0.29625 0.61583 0.75521 0.0
C56 C 0.31877 0.64487 0.76105 0.0
C57 C 0.32393 0.6047 0.77955 0.0
C58 C 0.33232 0.63926 0.77331 0.0
C59 C 0.32679 0.68135 0.75439 0.0
C60 C 0.25196 0.83702 0.7583 0.0
C61 C 0.26737 0.85343 0.76936 0.0
C62 C 0.26801 0.80319 0.75313 0.0
C63 C 0.29959 0.78505 0.75897 0.0
C64 C 0.29892 0.83515 0.77524 0.0
C65 C 0.31467 0.80091 0.77013 0.0
C66 C 0.31674 0.7497 0.75329 0.0
C67 C 0.36422 0.84688 0.72937 0.0
C68 C 0.34865 0.84667 0.71718 0.0
C69 C 0.35697 0.81598 0.73739 0.0
C70 C 0.33442 0.78434 0.73325 0.0
C71 C 0.32473 0.81575 0.71327 0.0
C72 C 0.31802 0.78461 0.72121 0.0
C73 C 0.33102 0.74922 0.74089 0.0
H74 H 0.42252 0.57366 0.7379 0.0
H75 H 0.39874 0.63148 0.74941 0.0
H76 H 0.33832 0.59385 0.7087 0.0
H77 H 0.31538 0.65204 0.72 0.0
H78 H 0.2707 0.55954 0.75658 0.0
H79 H 0.2846 0.61988 0.74588 0.0
H80 H 0.33425 0.60114 0.78907 0.0
H81 H 0.34941 0.66153 0.77802 0.0
H82 H 0.22773 0.85061 0.75358 0.0
H83 H 0.25573 0.7911 0.74456 0.0
H84 H 0.31102 0.84706 0.78386 0.0
H85 H 0.33894 0.78717 0.77478 0.0
H86 H 0.38276 0.87048 0.73255 0.0
H87 H 0.37031 0.816 0.7466 0.0
H88 H 0.31278 0.81477 0.70387 0.0
H89 H 0.30074 0.76027 0.71786 0.0
N90 N 0.34288 0.71503 0.73572 0.0
N91 N 0.31505 0.71571 0.75965 0.0
C92 C 0.48088 0.00662 0.9731 0.0
C93 C 0.47998 0.04393 0.96785 0.0
C94 C 0.51144 0.99569 0.98094 0.0
C95 C 0.54119 0.02219 0.98392 0.0
C96 C 0.50954 0.07049 0.97105 0.0
C97 C 0.53964 0.05976 0.97901 0.0
C98 C 0.57642 0.01012 0.99079 0.0
C99 C 0.48241 0.9913 0.01981 0.0
C100 C 0.48224 0.95453 0.02533 0.0
C101 C 0.51196 0.00127 0.01145 0.0
C102 C 0.54107 0.97415 0.00827 0.0
C103 C 0.51048 0.92709 0.02185 0.0
C104 C 0.53954 0.93676 0.01335 0.0
C105 C 0.57632 0.98584 0.00137 0.0
C106 C 0.74236 0.98773 0.01847 0.0
C107 C 0.74673 0.94832 0.02151 0.0
C108 C 0.70969 0.00026 0.01191 0.0
C109 C 0.68117 0.97348 0.00805 0.0
C110 C 0.71791 0.92169 0.01771 0.0
C111 C 0.68542 0.93419 0.01108 0.0
C112 C 0.64566 0.98627 0.00154 0.0
C113 C 0.74515 0.01428 0.97599 0.0
C114 C 0.74828 0.05394 0.97312 0.0
C115 C 0.71187 0.0001 0.98183 0.0
C116 C 0.68149 0.02547 0.98515 0.0
C117 C 0.71754 0.07911 0.97631 0.0
C118 C 0.68446 0.06497 0.98224 0.0
C119 C 0.64576 0.01109 0.99114 0.0
H120 H 0.45841 0.98553 0.97096 0.0
H121 H 0.51243 0.96612 0.98426 0.0
H122 H 0.51043 0.09917 0.96702 0.0
H123 H 0.56246 0.08062 0.98105 0.0
H124 H 0.46102 0.01297 0.0225 0.0
H125 H 0.51312 0.03073 0.00804 0.0
H126 H 0.5107 0.89851 0.02599 0.0
H127 H 0.56177 0.91544 0.01113 0.0
H128 H 0.76411 0.00896 0.0212 0.0
H129 H 0.7065 0.03093 0.01 0.0
H130 H 0.71995 0.89129 0.02013 0.0
H131 H 0.66345 0.91315 0.00836 0.0
H132 H 0.76838 0.99416 0.97371 0.0
H133 H 0.70978 0.96928 0.98365 0.0
H134 H 0.71864 0.10963 0.97399 0.0
H135 H 0.66111 0.08494 0.98457 0.0
N136 N 0.6112 0.02195 0.98619 0.0
N137 N 0.61099 0.97467 0.00622 0.0
C138 C 0.31217 0.12774 0.23245 0.0
C139 C 0.27524 0.12541 0.22683 0.0
C140 C 0.32723 0.16339 0.23648 0.0
C141 C 0.30503 0.19754 0.23565 0.0
C142 C 0.25355 0.15991 0.22561 0.0
C143 C 0.2682 0.19547 0.23004 0.0
C144 C 0.32082 0.2356 0.24002 0.0
C145 C 0.31984 0.16331 0.27468 0.0
C146 C 0.35696 0.15254 0.27885 0.0
C147 C 0.31568 0.19146 0.26548 0.0
C148 C 0.34858 0.20927 0.26031 0.0
C149 C 0.38981 0.17068 0.27374 0.0
C150 C 0.38562 0.19912 0.26464 0.0
C151 C 0.34432 0.23983 0.25085 0.0
C152 C 0.36519 0.40836 0.25916 0.0
C153 C 0.4055 0.41057 0.26124 0.0
C154 C 0.34875 0.37506 0.25375 0.0
C155 C 0.37232 0.34345 0.25027 0.0
C156 C 0.42912 0.3793 0.25733 0.0
C157 C 0.4126 0.3459 0.25199 0.0
C158 C 0.3548 0.30635 0.24616 0.0
C159 C 0.33476 0.39191 0.21552 0.0
C160 C 0.29587 0.4047 0.21568 0.0
C161 C 0.34568 0.35842 0.2219 0.0
C162 C 0.31785 0.33682 0.2284 0.0
C163 C 0.26816 0.38259 0.22219 0.0
C164 C 0.27899 0.34875 0.22834 0.0
C165 C 0.3292 0.30301 0.23589 0.0
H166 H 0.32979 0.10207 0.23376 0.0
H167 H 0.35654 0.16405 0.24014 0.0
H168 H 0.2255 0.15978 0.22103 0.0
H169 H 0.2507 0.22143 0.22903 0.0
H170 H 0.29408 0.14967 0.27845 0.0
H171 H 0.28677 0.19953 0.26246 0.0
H172 H 0.41872 0.16321 0.27692 0.0
H173 H 0.41129 0.21294 0.26087 0.0
H174 H 0.34603 0.43152 0.26229 0.0
H175 H 0.31747 0.37334 0.25283 0.0
H176 H 0.4603 0.38026 0.25866 0.0
H177 H 0.43118 0.32163 0.24942 0.0
H178 H 0.35681 0.40758 0.21041 0.0
H179 H 0.37585 0.34944 0.22181 0.0
H180 H 0.23813 0.39176 0.22279 0.0
H181 H 0.25722 0.33259 0.23343 0.0
N182 N 0.31342 0.26771 0.23309 0.0
N183 N 0.3611 0.27476 0.25333 0.0
C184 C 0.90231 0.09062 0.24082 0.0
C185 C 0.90634 0.09049 0.2277 0.0
C186 C 0.88326 0.12141 0.24698 0.0
C187 C 0.867 0.15183 0.24003 0.0
C188 C 0.89083 0.12134 0.22084 0.0
C189 C 0.87137 0.15162 0.22694 0.0
C190 C 0.84673 0.18509 0.24609 0.0
C191 C 0.78182 0.07749 0.25587 0.0
C192 C 0.78113 0.07026 0.26883 0.0
C193 C 0.7927 0.11394 0.25147 0.0
C194 C 0.80397 0.1436 0.25991 0.0
C195 C 0.79108 0.10057 0.27726 0.0
C196 C 0.80233 0.13687 0.27283 0.0
C197 C 0.81756 0.1816 0.25535 0.0
C198 C 0.7311 0.32182 0.26527 0.0
C199 C 0.75301 0.35472 0.26883 0.0
C200 C 0.74964 0.2873 0.26156 0.0
C201 C 0.79032 0.28522 0.26126 0.0
C202 C 0.79374 0.35181 0.26908 0.0
C203 C 0.81218 0.31739 0.26538 0.0
C204 C 0.80993 0.25059 0.25584 0.0
C205 C 0.89477 0.33083 0.22975 0.0
C206 C 0.86521 0.35114 0.22353 0.0
C207 C 0.88559 0.30042 0.23772 0.0
C208 C 0.84675 0.29017 0.23976 0.0
C209 C 0.82622 0.34205 0.22606 0.0
C210 C 0.81706 0.31164 0.23407 0.0
C211 C 0.83788 0.2537 0.24624 0.0
H212 H 0.91433 0.06723 0.2463 0.0
H213 H 0.88139 0.1215 0.25712 0.0
H214 H 0.89313 0.1217 0.2107 0.0
H215 H 0.8593 0.17479 0.22137 0.0
H216 H 0.77438 0.05489 0.24911 0.0
H217 H 0.79271 0.1188 0.24145 0.0
H218 H 0.78983 0.09641 0.2873 0.0
H219 H 0.81033 0.15954 0.27951 0.0
H220 H 0.69969 0.32313 0.26497 0.0
H221 H 0.73224 0.26278 0.25843 0.0
H222 H 0.81144 0.37623 0.2721 0.0
H223 H 0.84362 0.31615 0.26549 0.0
H224 H 0.92506 0.33761 0.22812 0.0
H225 H 0.90889 0.28403 0.24197 0.0
H226 H 0.80285 0.35687 0.22129 0.0
H227 H 0.78689 0.30356 0.23525 0.0
N228 N 0.85537 0.221 0.24186 0.0
N229 N 0.80051 0.21457 0.26001 0.0
C230 C 0.77058 0.91621 0.73028 0.0
C231 C 0.78557 0.92077 0.71812 0.0
C232 C 0.77525 0.88118 0.73653 0.0
C233 C 0.79538 0.85015 0.7308 0.0
C234 C 0.80535 0.88949 0.71235 0.0
C235 C 0.80998 0.85437 0.71862 0.0
C236 C 0.80086 0.81327 0.7375 0.0
C237 C 0.87285 0.9033 0.75807 0.0
C238 C 0.86198 0.90932 0.77068 0.0
C239 C 0.85783 0.87187 0.75116 0.0
C240 C 0.83126 0.8463 0.7567 0.0
C241 C 0.83578 0.88331 0.7762 0.0
C242 C 0.82065 0.85215 0.76928 0.0
C243 C 0.81603 0.81196 0.74981 0.0
C244 C 0.83757 0.64371 0.75954 0.0
C245 C 0.82352 0.64189 0.77189 0.0
C246 C 0.83021 0.67633 0.75227 0.0
C247 C 0.80886 0.70764 0.7573 0.0
C248 C 0.80113 0.67274 0.77675 0.0
C249 C 0.7942 0.70555 0.76954 0.0
C250 C 0.80447 0.74387 0.75023 0.0
C251 C 0.72889 0.65478 0.73251 0.0
C252 C 0.74374 0.64071 0.72103 0.0
C253 C 0.74307 0.68923 0.73783 0.0
C254 C 0.77245 0.71021 0.7318 0.0
C255 C 0.77241 0.66237 0.71483 0.0
C256 C 0.78644 0.69705 0.72014 0.0
C257 C 0.7894 0.74499 0.73794 0.0
H258 H 0.75529 0.93978 0.73498 0.0
H259 H 0.76307 0.8783 0.74584 0.0
H260 H 0.81661 0.89191 0.7029 0.0
H261 H 0.82528 0.83062 0.71401 0.0
H262 H 0.89293 0.92284 0.75354 0.0
H263 H 0.86739 0.86731 0.74157 0.0
H264 H 0.82747 0.88654 0.78596 0.0
H265 H 0.80063 0.83247 0.7738 0.0
H266 H 0.8549 0.62023 0.7556 0.0
H267 H 0.84234 0.67768 0.74291 0.0
H268 H 0.79041 0.6722 0.78631 0.0
H269 H 0.7779 0.7296 0.77359 0.0
H270 H 0.70694 0.63868 0.73753 0.0
H271 H 0.73148 0.69923 0.74676 0.0
H272 H 0.78396 0.65249 0.70588 0.0
H273 H 0.80896 0.713 0.71532 0.0
N274 N 0.78829 0.77963 0.73195 0.0
N275 N 0.81705 0.77733 0.7557 0.0
C276 C 0.67638 0.4948 0.97597 0.0
C277 C 0.67952 0.45585 0.97199 0.0
C278 C 0.64218 0.50826 0.98165 0.0
C279 C 0.61126 0.48253 0.98388 0.0
C280 C 0.64809 0.43058 0.97377 0.0
C281 C 0.61434 0.44378 0.97969 0.0
C282 C 0.57507 0.4954 0.99022 0.0
C283 C 0.67451 0.52155 0.01646 0.0
C284 C 0.67606 0.5606 0.0204 0.0
C285 C 0.64105 0.50686 0.01065 0.0
C286 C 0.60938 0.53152 0.00823 0.0
C287 C 0.64383 0.58473 0.01854 0.0
C288 C 0.61084 0.57035 0.01246 0.0
C289 C 0.5742 0.51755 0.00156 0.0
C290 C 0.40881 0.50095 0.01742 0.0
C291 C 0.39727 0.53934 0.02004 0.0
C292 C 0.44392 0.49351 0.0113 0.0
C293 C 0.46828 0.5243 0.00788 0.0
C294 C 0.42164 0.57017 0.0166 0.0
C295 C 0.45719 0.56266 0.01069 0.0
C296 C 0.50501 0.51617 0.00121 0.0
C297 C 0.41173 0.51064 0.97227 0.0
C298 C 0.40247 0.47257 0.96842 0.0
C299 C 0.44525 0.51796 0.97926 0.0
C300 C 0.47018 0.48737 0.98248 0.0
C301 C 0.42738 0.44192 0.97168 0.0
C302 C 0.46124 0.44935 0.97856 0.0
C303 C 0.50586 0.49554 0.98973 0.0
H304 H 0.7001 0.5149 0.97448 0.0
H305 H 0.64 0.53866 0.98433 0.0
H306 H 0.64989 0.40043 0.97073 0.0
H307 H 0.59074 0.4235 0.98115 0.0
H308 H 0.69895 0.50238 0.01803 0.0
H309 H 0.6401 0.47641 0.00795 0.0
H310 H 0.64448 0.6149 0.0216 0.0
H311 H 0.58662 0.5898 0.01088 0.0
H312 H 0.39046 0.47677 0.02 0.0
H313 H 0.45218 0.46367 0.00927 0.0
H314 H 0.41342 0.6 0.01865 0.0
H315 H 0.47569 0.58673 0.00812 0.0
H316 H 0.393 0.53474 0.96989 0.0
H317 H 0.45198 0.54763 0.98203 0.0
H318 H 0.42108 0.41237 0.96867 0.0
H319 H 0.48027 0.42544 0.9809 0.0
N320 N 0.54074 0.48537 0.98474 0.0
N321 N 0.53908 0.52694 0.00663 0.0
C322 C 0.9806 0.4943 0.51722 0.0
C323 C 0.97854 0.45764 0.52277 0.0
C324 C 0.01018 0.50239 0.50865 0.0
C325 C 0.0374 0.47353 0.50528 0.0
C326 C 0.0049 0.42855 0.51916 0.0
C327 C 0.03392 0.43636 0.51044 0.0
C328 C 0.07283 0.48293 0.49807 0.0
C329 C 0.97845 0.50917 0.47001 0.0
C330 C 0.97971 0.54621 0.46458 0.0
C331 C 0.00808 0.49703 0.47801 0.0
C332 C 0.03907 0.52206 0.48099 0.0
C333 C 0.01017 0.57156 0.46791 0.0
C334 C 0.03941 0.55962 0.47603 0.0
C335 C 0.07386 0.50794 0.48766 0.0
C336 C 0.24189 0.50162 0.47173 0.0
C337 C 0.248 0.54129 0.46942 0.0
C338 C 0.20778 0.48922 0.47751 0.0
C339 C 0.17949 0.51634 0.48131 0.0
C340 C 0.21926 0.56826 0.47305 0.0
C341 C 0.18532 0.55587 0.47891 0.0
C342 C 0.1431 0.5039 0.48739 0.0
C343 C 0.23839 0.47083 0.51417 0.0
C344 C 0.24156 0.43046 0.51583 0.0
C345 C 0.20627 0.48641 0.50805 0.0
C346 C 0.17691 0.46187 0.50341 0.0
C347 C 0.21214 0.406 0.51109 0.0
C348 C 0.17996 0.42163 0.50502 0.0
C349 C 0.14193 0.47797 0.49748 0.0
H350 H 0.96066 0.5172 0.52002 0.0
H351 H 0.01287 0.5317 0.5052 0.0
H352 H 0.00364 0.40005 0.52334 0.0
H353 H 0.05464 0.41367 0.50809 0.0
H354 H 0.95516 0.48907 0.46779 0.0
H355 H 0.00754 0.4675 0.48138 0.0
H356 H 0.01258 0.60003 0.46379 0.0
H357 H 0.06319 0.57935 0.47808 0.0
H358 H 0.26349 0.4801 0.4691 0.0
H359 H 0.20345 0.45841 0.47892 0.0
H360 H 0.22265 0.59892 0.47116 0.0
H361 H 0.16362 0.57723 0.48161 0.0
H362 H 0.26014 0.49052 0.51793 0.0
H363 H 0.20396 0.51766 0.50716 0.0
H364 H 0.21393 0.37477 0.5121 0.0
H365 H 0.15744 0.40228 0.50155 0.0
N366 N 0.10696 0.46866 0.50244 0.0
N367 N 0.10904 0.51771 0.48286 0.0
C368 C 0.12001 0.67364 0.13789 0.0
C369 C 0.97715 0.62692 0.13154 0.0
C370 C 0.98272 0.69421 0.09765 0.0
Mg371 Mg 0.16257 0.75067 0.12893 0.0
Mg372 Mg 0.11485 0.83105 0.12218 0.0
O373 O 0.1208 0.77766 0.11909 0.0
Mg374 Mg 0.07686 0.74201 0.12279 0.0
O375 O 0.03613 0.70279 0.12657 0.0
Mg376 Mg 0.05565 0.65861 0.11576 0.0
Mg377 Mg 0.98324 0.71478 0.12555 0.0
C378 C 0.03866 0.81311 0.10642 0.0
O379 O 0.04859 0.78203 0.13779 0.0
O380 O 0.20484 0.7939 0.11951 0.0
O381 O 0.98471 0.76659 0.13745 0.0
O382 O 0.15722 0.79256 0.14615 0.0
O383 O 0.17059 0.84767 0.11487 0.0
O384 O 0.11569 0.84044 0.14203 0.0
O385 O 0.10113 0.70094 0.10774 0.0
O386 O 0.16445 0.7084 0.11211 0.0
C387 C 0.1369 0.69239 0.10578 0.0
C388 C 0.2023 0.8281 0.11486 0.0
O389 O 0.04079 0.77657 0.1087 0.0
O390 O 0.00919 0.62093 0.12562 0.0
O391 O 0.06167 0.83844 0.11138 0.0
O392 O 0.01133 0.67153 0.0999 0.0
O393 O 0.9621 0.66084 0.13278 0.0
O394 O 0.9691 0.71732 0.10603 0.0
O395 O 0.11541 0.71035 0.13668 0.0
O396 O 0.09993 0.649 0.13148 0.0
C397 C 0.13789 0.82265 0.1496 0.0
C398 C 0.01331 0.78734 0.14142 0.0
C399 C 0.63771 0.80155 0.38314 0.0
C400 C 0.70528 0.66855 0.37326 0.0
C401 C 0.62726 0.66523 0.34134 0.0
Mg402 Mg 0.55178 0.83127 0.37648 0.0
Mg403 Mg 0.47825 0.77261 0.36984 0.0
O404 O 0.52996 0.78588 0.36681 0.0
Mg405 Mg 0.57354 0.74842 0.36914 0.0
O406 O 0.62012 0.71499 0.37133 0.0
Mg407 Mg 0.65677 0.74194 0.35959 0.0
Mg408 Mg 0.61613 0.6611 0.36966 0.0
C409 C 0.50522 0.70061 0.35308 0.0
O410 O 0.54443 0.71393 0.38493 0.0
O411 O 0.50041 0.86708 0.36859 0.0
O412 O 0.5677 0.65287 0.38239 0.0
O413 O 0.51475 0.81788 0.39414 0.0
O414 O 0.45249 0.82562 0.3633 0.0
O415 O 0.47206 0.77061 0.38979 0.0
O416 O 0.6051 0.77987 0.35337 0.0
O417 O 0.58762 0.84054 0.35874 0.0
C418 C 0.60606 0.81665 0.35154 0.0
C419 C 0.46663 0.86004 0.36395 0.0
O420 O 0.54131 0.70672 0.35554 0.0
O421 O 0.70459 0.70187 0.36793 0.0
O422 O 0.47749 0.72073 0.35797 0.0
O423 O 0.64631 0.69685 0.34317 0.0
O424 O 0.6747 0.64802 0.3749 0.0
O425 O 0.60983 0.64833 0.35027 0.0
O426 O 0.60193 0.79128 0.38272 0.0
O427 O 0.66324 0.78628 0.37579 0.0
C428 C 0.48794 0.79441 0.39753 0.0
C429 C 0.54507 0.67772 0.38776 0.0
C430 C 0.61878 0.1717 0.63397 0.0
C431 C 0.47917 0.11731 0.62603 0.0
C432 C 0.48456 0.18665 0.59226 0.0
Mg433 Mg 0.65927 0.25073 0.62542 0.0
Mg434 Mg 0.60958 0.32959 0.61821 0.0
O435 O 0.61636 0.27626 0.61564 0.0
Mg436 Mg 0.57335 0.23862 0.61885 0.0
O437 O 0.53426 0.19693 0.62197 0.0
Mg438 Mg 0.55706 0.15433 0.61113 0.0
Mg439 Mg 0.4809 0.2053 0.62034 0.0
C440 C 0.53446 0.30885 0.60209 0.0
O441 O 0.541 0.27645 0.63372 0.0
O442 O 0.70073 0.29517 0.61619 0.0
O443 O 0.47823 0.25738 0.63197 0.0
O444 O 0.6523 0.29262 0.64263 0.0
O445 O 0.66515 0.34759 0.61112 0.0
O446 O 0.60931 0.33898 0.63809 0.0
O447 O 0.60067 0.19945 0.60382 0.0
O448 O 0.66344 0.20912 0.60854 0.0
C449 C 0.63679 0.19252 0.602 0.0
C450 C 0.69745 0.32909 0.6114 0.0
O451 O 0.53641 0.27257 0.60479 0.0
O452 O 0.51203 0.11346 0.62041 0.0
O453 O 0.5576 0.33468 0.60671 0.0
O454 O 0.51438 0.16565 0.59457 0.0
O455 O 0.46195 0.15018 0.62721 0.0
O456 O 0.4684 0.20729 0.6008 0.0
O457 O 0.61298 0.20831 0.63284 0.0
O458 O 0.59991 0.14666 0.62732 0.0
C459 C 0.63171 0.32212 0.64583 0.0
C460 C 0.5047 0.27976 0.63654 0.0
C461 C 0.13678 0.3106 0.88377 0.0
C462 C 0.20037 0.17178 0.87836 0.0
C463 C 0.1306 0.16572 0.84493 0.0
Mg464 Mg 0.05374 0.34175 0.87425 0.0
Mg465 Mg 0.97968 0.28337 0.86877 0.0
O466 O 0.03191 0.29443 0.86561 0.0
Mg467 Mg 0.07351 0.25631 0.86976 0.0
O468 O 0.11821 0.22171 0.8738 0.0
Mg469 Mg 0.1587 0.24452 0.86244 0.0
Mg470 Mg 0.11183 0.1679 0.87267 0.0
C471 C 0.00577 0.20606 0.85453 0.0
O472 O 0.03971 0.2265 0.88562 0.0
O473 O 0.0052 0.37586 0.86417 0.0
O474 O 0.06067 0.16426 0.88441 0.0
O475 O 0.0134 0.33592 0.89174 0.0
O476 O 0.95601 0.33444 0.86012 0.0
O477 O 0.97082 0.28786 0.88855 0.0
O478 O 0.11005 0.28237 0.85419 0.0
O479 O 0.09311 0.34477 0.85693 0.0
C480 C 0.11265 0.31819 0.8512 0.0
C481 C 0.97162 0.36819 0.85949 0.0
O482 O 0.04208 0.21283 0.85648 0.0
O483 O 0.20256 0.20446 0.87268 0.0
O484 O 0.9785 0.22732 0.85919 0.0
O485 O 0.1509 0.19641 0.84691 0.0
O486 O 0.16853 0.15281 0.87942 0.0
O487 O 0.10875 0.15179 0.8534 0.0
O488 O 0.10076 0.30173 0.88277 0.0
O489 O 0.16328 0.29235 0.87759 0.0
C490 C 0.98578 0.31414 0.89558 0.0
C491 C 0.03819 0.19074 0.88896 0.0
C492 C 0.22021 0.90128 0.45466 0.0
C493 C 0.22144 0.92047 0.46633 0.0
C494 C 0.25318 0.88267 0.44993 0.0
C495 C 0.36051 0.87678 0.45385 0.0
H496 H 0.34534 0.78983 0.43089 0.0
C497 C 0.47296 0.83541 0.41643 0.0
C498 C 0.47005 0.79951 0.41006 0.0
C499 C 0.44808 0.84432 0.42642 0.0
C500 C 0.35073 0.81334 0.43751 0.0
H501 H 0.25732 0.9352 0.48236 0.0
H502 H 0.31488 0.90107 0.4744 0.0
H503 H 0.29071 0.81573 0.44232 0.0
H504 H 0.4417 0.74332 0.41002 0.0
H505 H 0.40135 0.75713 0.4282 0.0
H506 H 0.42096 0.87311 0.44948 0.0
C507 C 0.28893 0.90129 0.46867 0.0
C508 C 0.31887 0.82894 0.44389 0.0
C509 C 0.25603 0.92069 0.47327 0.0
C510 C 0.44474 0.77122 0.41474 0.0
C511 C 0.42093 0.77956 0.42504 0.0
C512 C 0.39268 0.86045 0.44771 0.0
C513 C 0.28794 0.88196 0.45692 0.0
C514 C 0.32296 0.86195 0.45171 0.0
C515 C 0.42043 0.81709 0.43052 0.0
C516 C 0.38805 0.82949 0.43904 0.0
H517 H 0.19378 0.90111 0.44914 0.0
H518 H 0.2514 0.8693 0.44069 0.0
H519 H 0.36504 0.90209 0.45982 0.0
H520 H 0.49206 0.85796 0.41304 0.0
H521 H 0.44878 0.87364 0.43023 0.0
C522 C 0.33231 0.89549 0.70082 0.0
C523 C 0.36023 0.87651 0.70811 0.0
C524 C 0.34379 0.9213 0.69152 0.0
C525 C 0.42947 0.97706 0.68029 0.0
H526 H 0.37119 0.97947 0.64914 0.0
C527 C 0.48715 0.05381 0.63675 0.0
C528 C 0.4627 0.08379 0.63266 0.0
C529 C 0.47324 0.02596 0.64501 0.0
C530 C 0.38763 0.97897 0.65781 0.0
H531 H 0.42181 0.8691 0.71142 0.0
H532 H 0.44204 0.91298 0.69499 0.0
H533 H 0.34971 0.9373 0.66604 0.0
H534 H 0.40387 0.10641 0.63322 0.0
H535 H 0.37938 0.05694 0.64744 0.0
H536 H 0.46795 0.01792 0.67184 0.0
C537 C 0.41125 0.9092 0.69665 0.0
C538 C 0.37522 0.95516 0.66754 0.0
C539 C 0.39974 0.88396 0.70606 0.0
C540 C 0.42341 0.08375 0.63627 0.0
C541 C 0.40935 0.05546 0.64436 0.0
C542 C 0.4422 0.00024 0.67049 0.0
C543 C 0.38346 0.92805 0.6892 0.0
C544 C 0.396 0.95394 0.67891 0.0
C545 C 0.43452 0.02719 0.64912 0.0
C546 C 0.42141 0.00137 0.65919 0.0
H547 H 0.30163 0.89021 0.70229 0.0
H548 H 0.32155 0.93585 0.68616 0.0
H549 H 0.44572 0.97764 0.68899 0.0
H550 H 0.51757 0.05314 0.63417 0.0
H551 H 0.49303 0.00417 0.64852 0.0
C552 C 0.43623 0.09302 0.9578 0.0
C553 C 0.45 0.05457 0.95846 0.0
C554 C 0.41109 0.10394 0.94821 0.0
C555 C 0.33735 0.06933 0.92692 0.0
H556 H 0.36753 0.15517 0.90582 0.0
C557 C 0.23908 0.11648 0.88654 0.0
C558 C 0.2349 0.15661 0.8848 0.0
C559 C 0.26869 0.10224 0.89413 0.0
C560 C 0.35838 0.13146 0.9117 0.0
H561 H 0.44708 -0.00272 0.94962 0.0
H562 H 0.40158 0.0162 0.93325 0.0
H563 H 0.41073 0.13422 0.92258 0.0
H564 H 0.25901 0.21332 0.88921 0.0
H565 H 0.30966 0.18882 0.90291 0.0
H566 H 0.28427 0.06751 0.91663 0.0
C567 C 0.41091 0.03779 0.94012 0.0
C568 C 0.38323 0.11942 0.92124 0.0
C569 C 0.43668 0.02698 0.94957 0.0
C570 C 0.26182 0.1822 0.89034 0.0
C571 C 0.29095 0.16804 0.89816 0.0
C572 C 0.31214 0.08182 0.91755 0.0
C573 C 0.39852 0.07649 0.93925 0.0
C574 C 0.37277 0.08841 0.92895 0.0
C575 C 0.2942 0.12791 0.9004 0.0
C576 C 0.32222 0.11319 0.90984 0.0
H577 H 0.4451 0.11487 0.96463 0.0
H578 H 0.40133 0.13384 0.94781 0.0
H579 H 0.32865 0.0455 0.93283 0.0
H580 H 0.21891 0.09611 0.88224 0.0
H581 H 0.27096 0.07112 0.89531 0.0
C582 C 0.22006 0.07956 0.22153 0.0
C583 C 0.26017 0.08746 0.22187 0.0
C584 C 0.20607 0.04488 0.21622 0.0
C585 C 0.23771 0.96518 0.19448 0.0
H586 H 0.13884 0.92005 0.20385 0.0
C587 C 0.1796 0.83125 0.16868 0.0
C588 C 0.14568 0.84073 0.16204 0.0
C589 C 0.1919 0.85455 0.17877 0.0
C590 C 0.16669 0.9322 0.20127 0.0
H591 H 0.31692 0.06379 0.21701 0.0
H592 H 0.29294 0.00269 0.20887 0.0
H593 H 0.16528 0.97442 0.2162 0.0
H594 H 0.0963 0.87975 0.16156 0.0
H595 H 0.11715 0.9196 0.1794 0.0
H596 H 0.23918 0.92267 0.17966 0.0
C597 C 0.27198 0.0239 0.2122 0.0
C598 C 0.1817 0.96362 0.20822 0.0
C599 C 0.28588 0.05894 0.21717 0.0
C600 C 0.12245 0.87163 0.16647 0.0
C601 C 0.13436 0.89445 0.17671 0.0
C602 C 0.22318 0.93334 0.18776 0.0
C603 C 0.23184 0.01669 0.21136 0.0
C604 C 0.21711 0.98106 0.20477 0.0
C605 C 0.17007 0.88716 0.18255 0.0
C606 C 0.18729 0.91701 0.19095 0.0
H607 H 0.19923 0.10023 0.22529 0.0
H608 H 0.17495 0.04081 0.21565 0.0
H609 H 0.26444 0.97817 0.19124 0.0
H610 H 0.19816 0.80761 0.16554 0.0
H611 H 0.21953 0.84838 0.18318 0.0
C612 C 0.22288 0.11653 0.52452 0.0
C613 C 0.22334 0.08241 0.51709 0.0
C614 C 0.25723 0.13144 0.52962 0.0
C615 C 0.35387 0.1002 0.53957 0.0
H616 H 0.37188 0.21102 0.54347 0.0
C617 C 0.47758 0.15583 0.57086 0.0
C618 C 0.46529 0.18353 0.57985 0.0
C619 C 0.45479 0.14774 0.56027 0.0
C620 C 0.36733 0.17998 0.54243 0.0
H621 H 0.26053 0.038 0.50884 0.0
H622 H 0.32053 0.06386 0.51788 0.0
H623 H 0.3179 0.18778 0.53052 0.0
H624 H 0.42107 0.22667 0.58419 0.0
H625 H 0.38161 0.2126 0.56588 0.0
H626 H 0.40207 0.09227 0.55188 0.0
C627 C 0.29347 0.07882 0.51984 0.0
C628 C 0.33638 0.16669 0.53504 0.0
C629 C 0.25909 0.06394 0.51471 0.0
C630 C 0.43143 0.2051 0.57749 0.0
C631 C 0.40878 0.19711 0.56691 0.0
C632 C 0.38472 0.11347 0.54698 0.0
C633 C 0.29288 0.11256 0.52745 0.0
C634 C 0.32868 0.12667 0.53381 0.0
C635 C 0.41937 0.16727 0.55844 0.0
C636 C 0.39116 0.15354 0.54879 0.0
H637 H 0.1958 0.13119 0.52668 0.0
H638 H 0.25565 0.15706 0.53563 0.0
H639 H 0.34852 0.06921 0.53894 0.0
H640 H 0.50369 0.13892 0.57231 0.0
H641 H 0.4641 0.12506 0.55378 0.0
C642 C 0.27357 0.92062 0.77855 0.0
C643 C 0.25001 0.88914 0.77486 0.0
C644 C 0.25701 0.95406 0.78391 0.0
C645 C 0.17513 0.98397 0.80286 0.0
H646 H 0.20014 0.08898 0.79286 0.0
C647 C 0.11132 0.11136 0.83046 0.0
C648 C 0.13648 0.14237 0.83331 0.0
C649 C 0.12048 0.08448 0.82101 0.0
C650 C 0.19308 0.05988 0.79585 0.0
H651 H 0.19084 0.86785 0.77379 0.0
H652 H 0.16198 0.92604 0.7834 0.0
H653 H 0.22683 0.03359 0.78104 0.0
H654 H 0.19028 0.1705 0.82802 0.0
H655 H 0.20754 0.12234 0.81203 0.0
H656 H 0.14339 0.00933 0.81803 0.0
C657 C 0.19314 0.92495 0.78203 0.0
C658 C 0.20827 0.02824 0.78904 0.0
C659 C 0.20961 0.8918 0.77651 0.0
C660 C 0.17011 0.14706 0.82601 0.0
C661 C 0.17993 0.11942 0.81678 0.0
C662 C 0.16053 0.01542 0.80977 0.0
C663 C 0.21671 0.95628 0.78583 0.0
C664 C 0.1995 0.99005 0.79254 0.0
C665 C 0.15588 0.08696 0.81448 0.0
C666 C 0.16936 0.05387 0.80641 0.0
H667 H 0.30477 0.91934 0.77728 0.0
H668 H 0.27579 0.97773 0.78687 0.0
H669 H 0.16842 0.95478 0.80587 0.0
H670 H 0.08535 0.10664 0.83595 0.0
H671 H 0.10053 0.0607 0.81924 0.0
C672 C 0.46929 0.93522 0.04729 0.0
C673 C 0.45489 0.94572 0.03551 0.0
C674 C 0.44389 0.92613 0.05699 0.0
C675 C 0.34007 0.93252 0.06663 0.0
H676 H 0.37023 0.84945 0.08881 0.0
C677 C 0.23913 0.88449 0.10639 0.0
C678 C 0.23619 0.8443 0.1083 0.0
C679 C 0.2687 0.89939 0.0989 0.0
C680 C 0.36116 0.8725 0.08265 0.0
H681 H 0.40311 0.95539 0.02451 0.0
H682 H 0.3583 0.93768 0.04128 0.0
H683 H 0.41446 0.86979 0.07248 0.0
H684 H 0.26242 0.78825 0.10417 0.0
H685 H 0.31299 0.81388 0.09074 0.0
H686 H 0.28572 0.93339 0.07625 0.0
C687 C 0.38917 0.93755 0.04321 0.0
C688 C 0.38685 0.88465 0.07338 0.0
C689 C 0.41469 0.94741 0.03357 0.0
C690 C 0.26415 0.81941 0.10295 0.0
C691 C 0.29329 0.8342 0.09528 0.0
C692 C 0.31411 0.9199 0.07576 0.0
C693 C 0.40349 0.92659 0.05504 0.0
C694 C 0.37656 0.91467 0.06519 0.0
C695 C 0.29552 0.87432 0.09296 0.0
C696 C 0.32421 0.88951 0.08383 0.0
H697 H 0.5003 0.93433 0.04901 0.0
H698 H 0.45602 0.91881 0.06603 0.0
H699 H 0.33136 0.95616 0.06065 0.0
H700 H 0.21817 0.9044 0.11052 0.0
H701 H 0.27008 0.93051 0.09759 0.0
C702 C 0.33896 0.12356 0.29948 0.0
C703 C 0.36148 0.12239 0.28848 0.0
C704 C 0.34389 0.0954 0.30866 0.0
C705 C 0.37977 0.99628 0.31324 0.0
H706 H 0.39651 0.02864 0.34785 0.0
C707 C 0.4598 0.93024 0.35838 0.0
C708 C 0.4449 0.89218 0.3581 0.0
C709 C 0.44242 0.95934 0.35131 0.0
C710 C 0.39163 0.01922 0.33824 0.0
H711 H 0.40614 0.09065 0.2783 0.0
H712 H 0.41469 0.04136 0.29431 0.0
H713 H 0.38043 0.07723 0.33212 0.0
H714 H 0.39839 0.85559 0.35084 0.0
H715 H 0.36824 0.90645 0.3385 0.0
H716 H 0.39211 0.93855 0.3192 0.0
C717 C 0.39325 0.064 0.29584 0.0
C718 C 0.38221 0.04692 0.32927 0.0
C719 C 0.38864 0.09235 0.28674 0.0
C720 C 0.41086 0.88448 0.3512 0.0
C721 C 0.39363 0.91354 0.34409 0.0
C722 C 0.38883 0.9686 0.3222 0.0
C723 C 0.37105 0.06534 0.3069 0.0
C724 C 0.37704 0.03576 0.31664 0.0
C725 C 0.4099 0.95094 0.3438 0.0
C726 C 0.3956 0.97987 0.33474 0.0
H727 H 0.31799 0.1466 0.30106 0.0
H728 H 0.32634 0.09696 0.31709 0.0
H729 H 0.37555 0.98689 0.30358 0.0
H730 H 0.48584 0.93727 0.36365 0.0
H731 H 0.45574 0.98786 0.35121 0.0
C732 C 0.86531 0.02722 0.53481 0.0
C733 C 0.87314 0.05035 0.52435 0.0
C734 C 0.83336 0.03517 0.54247 0.0
C735 C 0.73944 0.08586 0.54429 0.0
H736 H 0.76429 0.09643 0.57964 0.0
C737 C 0.64613 0.1732 0.57972 0.0
C738 C 0.64894 0.16411 0.59245 0.0
C739 C 0.6669 0.15148 0.57078 0.0
C740 C 0.7563 0.09265 0.56988 0.0
H741 H 0.85302 0.09908 0.51345 0.0
H742 H 0.797 0.11318 0.52694 0.0
H743 H 0.81359 0.07375 0.56508 0.0
H744 H 0.67217 0.12387 0.60591 0.0
H745 H 0.70654 0.08429 0.59029 0.0
H746 H 0.68207 0.10506 0.5491 0.0
C747 C 0.81559 0.0888 0.52914 0.0
C748 C 0.7848 0.07986 0.56151 0.0
C749 C 0.84782 0.08103 0.52152 0.0
C750 C 0.66981 0.13122 0.59608 0.0
C751 C 0.6898 0.10897 0.58715 0.0
C752 C 0.71063 0.09826 0.55271 0.0
C753 C 0.80843 0.06627 0.53979 0.0
C754 C 0.77687 0.07691 0.54862 0.0
C755 C 0.69035 0.12007 0.57448 0.0
C756 C 0.71892 0.10241 0.5656 0.0
H757 H 0.88449 0.00355 0.53727 0.0
H758 H 0.82839 0.01727 0.55059 0.0
H759 H 0.73255 0.08348 0.53439 0.0
H760 H 0.63044 0.19885 0.57681 0.0
H761 H 0.66674 0.16113 0.56116 0.0
C762 C 0.73817 0.01119 0.26795 0.0
C763 C 0.76898 0.03175 0.27361 0.0
C764 C 0.72416 0.97705 0.27325 0.0
C765 C 0.7423 0.90475 0.29856 0.0
H766 H 0.63022 0.90879 0.30177 0.0
C767 C 0.62178 0.87188 0.33765 0.0
C768 C 0.62713 0.83261 0.34067 0.0
C769 C 0.63991 0.88758 0.32724 0.0
C770 C 0.66151 0.90694 0.30084 0.0
H771 H 0.81122 0.03072 0.28872 0.0
H772 H 0.78565 0.97243 0.29829 0.0
H773 H 0.66247 0.95131 0.28712 0.0
H774 H 0.65635 0.77911 0.33517 0.0
H775 H 0.689 0.80726 0.31687 0.0
H776 H 0.74098 0.8621 0.31306 0.0
C777 C 0.7726 0.98222 0.28965 0.0
C778 C 0.68006 0.93106 0.29234 0.0
C779 C 0.78683 0.01615 0.28428 0.0
C780 C 0.65162 0.80945 0.33307 0.0
C781 C 0.67027 0.82548 0.32263 0.0
C782 C 0.72362 0.88057 0.30712 0.0
C783 C 0.74035 0.96287 0.2844 0.0
C784 C 0.7208 0.93143 0.29145 0.0
C785 C 0.66409 0.86461 0.31957 0.0
C786 C 0.6832 0.88276 0.30869 0.0
H787 H 0.72365 0.02233 0.25974 0.0
H788 H 0.69968 0.96253 0.26885 0.0
H789 H 0.77368 0.90382 0.29793 0.0
H790 H 0.60318 0.89068 0.34325 0.0
H791 H 0.63527 0.91805 0.32527 0.0
C792 C 0.79819 0.89916 0.02647 0.0
C793 C 0.78033 0.93517 0.02905 0.0
C794 C 0.82826 0.8858 0.03406 0.0
C795 C 0.90202 0.91785 0.05687 0.0
H796 H 0.89461 0.81255 0.06917 0.0
C797 C 0.99537 0.86467 0.09794 0.0
C798 C 0.00956 0.82644 0.09732 0.0
C799 C 0.96859 0.87757 0.08909 0.0
C800 C 0.89746 0.84182 0.06568 0.0
H801 H 0.78032 0.98548 0.04159 0.0
H802 H 0.83322 0.9624 0.05469 0.0
H803 H 0.84663 0.83593 0.05425 0.0
H804 H 0.00784 0.77203 0.08681 0.0
H805 H 0.96181 0.79484 0.07116 0.0
H806 H 0.95285 0.92382 0.06825 0.0
C807 C 0.82409 0.94468 0.04674 0.0
C808 C 0.86996 0.85519 0.05715 0.0
C809 C 0.79385 0.95792 0.03921 0.0
C810 C 0.99678 0.80144 0.08764 0.0
C811 C 0.97041 0.8145 0.07869 0.0
C812 C 0.92966 0.90442 0.06535 0.0
C813 C 0.84127 0.90832 0.04432 0.0
C814 C 0.87176 0.89346 0.05277 0.0
C815 C 0.9559 0.85266 0.07935 0.0
C816 C 0.92745 0.8664 0.06995 0.0
H817 H 0.78889 0.88124 0.01859 0.0
H818 H 0.84138 0.85786 0.0319 0.0
H819 H 0.90435 0.94732 0.05351 0.0
H820 H 0.00469 0.88451 0.10533 0.0
H821 H 0.95753 0.90696 0.08998 0.0
C822 C 0.91803 0.95174 0.77729 0.0
C823 C 0.87849 0.94187 0.77825 0.0
C824 C 0.934 0.98041 0.78516 0.0
C825 C 0.91924 0.02534 0.81599 0.0
H826 H 0.98418 0.10899 0.80396 0.0
C827 C 0.95721 0.15711 0.84713 0.0
C828 C 0.99444 0.17343 0.84617 0.0
C829 C 0.94537 0.1278 0.83881 0.0
C830 C 0.96663 0.08545 0.8075 0.0
H831 H 0.82435 0.95587 0.78773 0.0
H832 H 0.85242 0.00528 0.80158 0.0
H833 H 0.95913 0.06026 0.78912 0.0
H834 H 0.04817 0.17254 0.83561 0.0
H835 H 0.02779 0.12059 0.82116 0.0
H836 H 0.92687 0.0499 0.83434 0.0
C837 C 0.87109 0.99045 0.79487 0.0
C838 C 0.9522 0.0577 0.799 0.0
C839 C 0.85508 0.96212 0.78695 0.0
C840 C 0.01964 0.15983 0.83673 0.0
C841 C 0.00775 0.1305 0.82836 0.0
C842 C 0.93391 0.05278 0.82449 0.0
C843 C 0.91078 -0.00056 0.79418 0.0
C844 C 0.92787 0.02779 0.80315 0.0
C845 C 0.97047 0.11415 0.82931 0.0
C846 C 0.95724 0.08353 0.82033 0.0
H847 H 0.93693 0.93642 0.77077 0.0
H848 H 0.96474 0.98676 0.7845 0.0
H849 H 0.90114 0.0021 0.81946 0.0
H850 H 0.93703 0.16717 0.85428 0.0
H851 H 0.91616 0.11647 0.83967 0.0
C852 C 0.84472 0.92653 0.46468 0.0
C853 C 0.87146 0.95242 0.45943 0.0
C854 C 0.81078 0.91649 0.45819 0.0
C855 C 0.75083 0.94338 0.43019 0.0
H856 H 0.71939 0.8353 0.43145 0.0
C857 C 0.68203 0.85474 0.38997 0.0
C858 C 0.65104 0.82977 0.39271 0.0
C859 C 0.69967 0.87665 0.39948 0.0
C860 C 0.7273 0.86577 0.4312 0.0
H861 H 0.88408 0.98812 0.44339 0.0
H862 H 0.8261 0.96933 0.43177 0.0
H863 H 0.76961 0.85917 0.44563 0.0
H864 H 0.6128 0.80938 0.40736 0.0
H865 H 0.64488 0.84685 0.42421 0.0
H866 H 0.71042 0.94869 0.41498 0.0
C867 C 0.83018 0.95776 0.44107 0.0
C868 C 0.7561 0.87957 0.43934 0.0
C869 C 0.86367 0.96832 0.44766 0.0
C870 C 0.63656 0.82862 0.40502 0.0
C871 C 0.65491 0.84985 0.41463 0.0
C872 C 0.72258 0.92931 0.42187 0.0
C873 C 0.80329 0.93156 0.44621 0.0
C874 C 0.76902 0.91833 0.43873 0.0
C875 C 0.68719 0.87331 0.41196 0.0
C876 C 0.71124 0.89019 0.42214 0.0
H877 H 0.84997 0.91429 0.47383 0.0
H878 H 0.79053 0.89682 0.46257 0.0
H879 H 0.75917 0.97365 0.42965 0.0
H880 H 0.6936 0.85616 0.38052 0.0
H881 H 0.72471 0.89428 0.39721 0.0
C882 C 0.9143 0.01947 0.22298 0.0
C883 C 0.92565 0.05804 0.22093 0.0
C884 C 0.92832 0.98947 0.21522 0.0
C885 C 0.96648 0.97518 0.18324 0.0
H886 H 0.98748 0.8704 0.1943 0.0
C887 C 0.02296 0.85472 0.14973 0.0
C888 C 0.00523 0.81823 0.15073 0.0
C889 C 0.01537 0.88396 0.15862 0.0
C890 C 0.98144 0.89951 0.19109 0.0
H891 H 0.96258 0.09533 0.20988 0.0
H892 H 0.98775 0.04295 0.19653 0.0
H893 H 0.97262 0.92135 0.2098 0.0
H894 H 0.96538 0.78348 0.16158 0.0
H895 H 0.95243 0.83447 0.17727 0.0
H896 H 0.97504 0.95338 0.16455 0.0
C897 C 0.96719 0.0359 0.20384 0.0
C898 C 0.97296 0.92865 0.19995 0.0
C899 C 0.95296 0.06584 0.21152 0.0
C900 C 0.97952 0.81143 0.16067 0.0
C901 C 0.9724 0.84045 0.16969 0.0
C902 C 0.97509 0.94614 0.17441 0.0
C903 C 0.95412 -0.00245 0.20535 0.0
C904 C 0.96518 0.96678 0.19611 0.0
C905 C 0.99034 0.87698 0.16877 0.0
C906 C 0.98239 0.90795 0.17822 0.0
H907 H 0.89306 0.0128 0.23013 0.0
H908 H 0.91746 0.96029 0.21658 0.0
H909 H 0.95982 0.00404 0.17993 0.0
H910 H 0.04218 0.86082 0.14196 0.0
H911 H 0.02955 0.91186 0.15767 0.0
C912 C 0.79829 0.10561 0.96936 0.0
C913 C 0.78273 0.06882 0.96637 0.0
C914 C 0.82929 0.12047 0.96248 0.0
C915 C 0.90875 0.09176 0.94127 0.0
H916 H 0.89732 0.19515 0.92768 0.0
C917 C 0.99628 0.14094 0.89884 0.0
C918 C 0.01011 0.17929 0.89863 0.0
C919 C 0.97098 0.12925 0.90826 0.0
C920 C 0.90129 0.16651 0.93157 0.0
H921 H 0.78771 0.01875 0.95383 0.0
H922 H 0.84214 0.04441 0.94199 0.0
H923 H 0.84928 0.17106 0.94252 0.0
H924 H 0.00904 0.23536 0.90815 0.0
H925 H 0.96501 0.21469 0.92482 0.0
H926 H 0.96042 0.08689 0.93025 0.0
C927 C 0.83055 0.06158 0.94973 0.0
C928 C 0.8738 0.15274 0.94006 0.0
C929 C 0.79942 0.04686 0.95654 0.0
C930 C -0.00178 0.20579 0.90801 0.0
C931 C 0.97313 0.19396 0.91753 0.0
C932 C 0.93629 0.10556 0.93285 0.0
C933 C 0.84551 0.09865 0.95256 0.0
C934 C 0.87685 0.11491 0.94475 0.0
C935 C 0.95933 0.15553 0.91775 0.0
C936 C 0.93234 0.14269 0.92768 0.0
H937 H 0.78647 0.12298 0.97702 0.0
H938 H 0.84057 0.14899 0.96491 0.0
H939 H 0.91209 0.06273 0.94492 0.0
H940 H 0.00484 0.11997 0.89168 0.0
H941 H 0.96024 0.09966 0.90801 0.0
C942 C 0.80876 0.97397 0.70405 0.0
C943 C 0.77905 0.95743 0.71128 0.0
C944 C 0.80157 0.00712 0.69697 0.0
C945 C 0.72845 0.08549 0.69163 0.0
H946 H 0.76279 0.07603 0.65708 0.0
C947 C 0.66297 0.11918 0.64101 0.0
C948 C 0.64898 0.15729 0.64257 0.0
C949 C 0.68881 0.10359 0.64961 0.0
C950 C 0.75328 0.07935 0.66673 0.0
H951 H 0.71878 0.96305 0.71693 0.0
H952 H 0.70606 0.02022 0.70449 0.0
H953 H 0.78859 0.03203 0.67266 0.0
H954 H 0.65258 0.20971 0.65406 0.0
H955 H 0.69783 0.18204 0.66934 0.0
H956 H 0.69085 0.13089 0.68544 0.0
C957 C 0.7352 0.00834 0.70449 0.0
C958 C 0.76836 0.05435 0.6757 0.0
C959 C 0.74242 0.97538 0.71159 0.0
C960 C 0.66276 0.18017 0.65266 0.0
C961 C 0.68853 0.16434 0.6614 0.0
C962 C 0.71322 0.11039 0.68263 0.0
C963 C 0.76448 0.02428 0.69694 0.0
C964 C 0.75485 0.05601 0.68815 0.0
C965 C 0.70131 0.12564 0.66005 0.0
C966 C 0.7242 0.10636 0.66998 0.0
H967 H 0.83747 0.96109 0.70379 0.0
H968 H 0.82488 0.01893 0.69137 0.0
H969 H 0.71809 0.08807 0.70121 0.0
H970 H 0.65328 0.10089 0.63326 0.0
H971 H 0.69754 0.07352 0.64838 0.0
C972 C 0.75131 0.44406 0.97185 0.0
C973 C 0.71519 0.44135 0.9658 0.0
C974 C 0.78452 0.42795 0.96625 0.0
C975 C 0.81346 0.35782 0.94083 0.0
H976 H 0.91436 0.40639 0.94464 0.0
C977 C 0.94131 0.29627 0.91312 0.0
C978 C 0.96624 0.32345 0.90763 0.0
C979 C 0.91646 0.30735 0.92289 0.0
C980 C 0.88639 0.39253 0.94338 0.0
H981 H 0.68535 0.42137 0.94905 0.0
H982 H 0.74324 0.39512 0.93895 0.0
H983 H 0.8585 0.43413 0.95548 0.0
H984 H 0.98609 0.38321 0.90853 0.0
H985 H 0.94114 0.40329 0.92491 0.0
H986 H 0.84013 0.31819 0.928 0.0
C987 C 0.74609 0.40799 0.94824 0.0
C988 C 0.85432 0.40818 0.94978 0.0
C989 C 0.71289 0.42337 0.95394 0.0
C990 C 0.96741 0.36146 0.91261 0.0
C991 C 0.94158 0.37293 0.9221 0.0
C992 C 0.8452 0.34272 0.93425 0.0
C993 C 0.78229 0.4094 0.95439 0.0
C994 C 0.81724 0.39144 0.94839 0.0
C995 C 0.91465 0.34637 0.92704 0.0
C996 C 0.8821 0.36012 0.93527 0.0
H997 H 0.7536 0.45764 0.98106 0.0
H998 H 0.81169 0.42931 0.97135 0.0
H999 H 0.78572 0.34333 0.93977 0.0
H1000 H 0.93951 0.26684 0.90945 0.0
H1001 H 0.89734 0.28556 0.92673 0.0
C1002 C 0.85452 0.41406 0.21237 0.0
C1003 C 0.87513 0.37906 0.21359 0.0
C1004 C 0.86317 0.43932 0.20261 0.0
C1005 C 0.9412 0.46373 0.1805 0.0
H1006 H 0.85895 0.51393 0.16186 0.0
C1007 C 0.97655 0.55739 0.13817 0.0
C1008 C 0.95903 0.59431 0.13827 0.0
C1009 C 0.96303 0.52842 0.14609 0.0
C1010 C 0.88219 0.50019 0.16702 0.0
H1011 H 0.92017 0.3426 0.20538 0.0
H1012 H 0.93534 0.38665 0.18845 0.0
H1013 H 0.84243 0.46975 0.17882 0.0
H1014 H 0.91177 0.62877 0.14613 0.0
H1015 H 0.8886 0.57838 0.16001 0.0
H1016 H 0.98098 0.49439 0.1689 0.0
C1017 C 0.91303 0.39496 0.19514 0.0
C1018 C 0.87275 0.47507 0.17674 0.0
C1019 C 0.90442 0.36979 0.20487 0.0
C1020 C 0.92614 0.60075 0.14586 0.0
C1021 C 0.91267 0.57179 0.15378 0.0
C1022 C 0.95061 0.48877 0.17081 0.0
C1023 C 0.89254 0.42998 0.1939 0.0
C1024 C 0.9022 0.45667 0.18359 0.0
C1025 C 0.93175 0.53576 0.15426 0.0
C1026 C 0.92124 0.50734 0.16399 0.0
H1027 H 0.83193 0.42201 0.219 0.0
H1028 H 0.84723 0.46637 0.20196 0.0
H1029 H 0.96454 0.45047 0.18575 0.0
H1030 H 0.00168 0.55128 0.13235 0.0
H1031 H 0.97781 0.50062 0.14609 0.0
C1032 C 0.93828 0.52976 0.44585 0.0
C1033 C 0.95133 0.55741 0.45476 0.0
C1034 C 0.91394 0.54075 0.43605 0.0
C1035 C 0.88818 0.62294 0.41677 0.0
H1036 H 0.79179 0.56772 0.41062 0.0
C1037 C 0.76704 0.68159 0.38477 0.0
C1038 C 0.74156 0.65493 0.37903 0.0
C1039 C 0.79671 0.66851 0.39259 0.0
C1040 C 0.81901 0.58296 0.41197 0.0
H1041 H 0.94781 0.61816 0.46051 0.0
H1042 H 0.9062 0.6374 0.44312 0.0
H1043 H 0.83442 0.54708 0.42745 0.0
H1044 H 0.7291 0.59383 0.37594 0.0
H1045 H 0.78214 0.57083 0.389 0.0
H1046 H 0.87331 0.65847 0.40118 0.0
C1047 C 0.91511 0.60729 0.44378 0.0
C1048 C 0.84321 0.57126 0.4217 0.0
C1049 C 0.93895 0.59622 0.4537 0.0
C1050 C 0.74814 0.61497 0.3804 0.0
C1051 C 0.77827 0.60187 0.38799 0.0
C1052 C 0.86426 0.6343 0.40688 0.0
C1053 C 0.90262 0.57968 0.43484 0.0
C1054 C 0.87773 0.59142 0.42427 0.0
C1055 C 0.80185 0.62848 0.39463 0.0
C1056 C 0.82913 0.61471 0.40444 0.0
H1057 H 0.94778 0.49979 0.44618 0.0
H1058 H 0.90479 0.519 0.42921 0.0
H1059 H 0.91498 0.63861 0.41851 0.0
H1060 H 0.76236 0.71259 0.38394 0.0
H1061 H 0.81402 0.68993 0.3976 0.0
C1062 C 0.75593 0.57587 0.71071 0.0
C1063 C 0.72962 0.60331 0.71566 0.0
C1064 C 0.7426 0.54054 0.70571 0.0
C1065 C 0.65692 0.49726 0.69101 0.0
H1066 H 0.71021 0.39956 0.69641 0.0
C1067 C 0.60828 0.36235 0.66394 0.0
C1068 C 0.63829 0.34127 0.65812 0.0
C1069 C 0.61626 0.38834 0.67377 0.0
C1070 C 0.69507 0.42661 0.69478 0.0
H1071 H 0.66877 0.61526 0.71929 0.0
H1072 H 0.64548 0.55357 0.71053 0.0
H1073 H 0.73101 0.45806 0.70785 0.0
H1074 H 0.69984 0.32834 0.65864 0.0
H1075 H 0.71425 0.37461 0.67553 0.0
H1076 H 0.62215 0.46681 0.67757 0.0
C1077 C 0.6764 0.5594 0.71053 0.0
C1078 C 0.70699 0.46008 0.70133 0.0
C1079 C 0.68974 0.59459 0.7156 0.0
C1080 C 0.67607 0.34416 0.663 0.0
C1081 C 0.68428 0.37072 0.67271 0.0
C1082 C 0.64522 0.464 0.6844 0.0
C1083 C 0.70267 0.53208 0.70548 0.0
C1084 C 0.68836 0.49584 0.69937 0.0
C1085 C 0.65469 0.39441 0.67782 0.0
C1086 C 0.66446 0.42833 0.68605 0.0
H1087 H 0.78686 0.58161 0.71078 0.0
H1088 H 0.76349 0.52023 0.70176 0.0
H1089 H 0.64234 0.52449 0.68916 0.0
H1090 H 0.57892 0.36006 0.6605 0.0
H1091 H 0.59253 0.40513 0.67775 0.0
C1092 C 0.70899 0.58992 0.03902 0.0
C1093 C 0.71102 0.57643 0.02658 0.0
C1094 C 0.74151 0.6065 0.04478 0.0
C1095 C 0.8489 0.61691 0.04155 0.0
H1096 H 0.83138 0.69497 0.06751 0.0
C1097 C 0.96386 0.65437 0.07884 0.0
C1098 C 0.96106 0.68936 0.08574 0.0
C1099 C 0.93729 0.64577 0.06929 0.0
C1100 C 0.83726 0.67395 0.06009 0.0
H1101 H 0.74789 0.56966 0.01026 0.0
H1102 H 0.80457 0.6003 0.02009 0.0
H1103 H 0.77712 0.67054 0.05548 0.0
H1104 H 0.93051 0.74431 0.08725 0.0
H1105 H 0.8864 0.7309 0.06993 0.0
H1106 H 0.90937 0.62175 0.04579 0.0
C1107 C 0.77839 0.59707 0.0256 0.0
C1108 C 0.80573 0.65914 0.05335 0.0
C1109 C 0.74598 0.57967 0.01993 0.0
C1110 C 0.9334 0.71704 0.08213 0.0
C1111 C 0.90762 0.70898 0.07231 0.0
C1112 C 0.88065 0.63243 0.04811 0.0
C1113 C 0.77656 0.61089 0.0381 0.0
C1114 C 0.81088 0.62948 0.04428 0.0
C1115 C 0.90785 0.6724 0.06618 0.0
C1116 C 0.87518 0.66031 0.05776 0.0
H1117 H 0.68224 0.58742 0.0443 0.0
H1118 H 0.7391 0.61562 0.05451 0.0
H1119 H 0.85421 0.5941 0.03466 0.0
H1120 H 0.98471 0.63228 0.08141 0.0
H1121 H 0.9385 0.61715 0.06496 0.0
C1122 C 0.70019 0.39282 0.2797 0.0
C1123 C 0.73376 0.39211 0.2722 0.0
C1124 C 0.68358 0.42821 0.28346 0.0
C1125 C 0.71119 0.5293 0.28966 0.0
H1126 H 0.60038 0.5433 0.29444 0.0
C1127 C 0.65411 0.65706 0.31945 0.0
C1128 C 0.62925 0.64452 0.32905 0.0
C1129 C 0.66155 0.63295 0.309 0.0
C1130 C 0.63141 0.53995 0.2931 0.0
H1131 H 0.77485 0.42797 0.26216 0.0
H1132 H 0.74606 0.48969 0.26883 0.0
H1133 H 0.6243 0.48648 0.28279 0.0
H1134 H 0.59088 0.59789 0.33472 0.0
H1135 H 0.60347 0.55659 0.31671 0.0
H1136 H 0.71855 0.58151 0.3005 0.0
C1137 C 0.73293 0.4629 0.27195 0.0
C1138 C 0.64508 0.50736 0.28646 0.0
C1139 C 0.7495 0.42754 0.26817 0.0
C1140 C 0.60984 0.60881 0.32749 0.0
C1141 C 0.61704 0.58499 0.31708 0.0
C1142 C 0.69754 0.56178 0.29633 0.0
C1143 C 0.70016 0.46366 0.2798 0.0
C1144 C 0.68519 0.50103 0.28503 0.0
C1145 C 0.64405 0.59605 0.30794 0.0
C1146 C 0.65757 0.56677 0.29851 0.0
H1147 H 0.68753 0.36608 0.28303 0.0
H1148 H 0.65868 0.42777 0.28967 0.0
H1149 H 0.74228 0.52516 0.28883 0.0
H1150 H 0.66946 0.68444 0.32033 0.0
H1151 H 0.68222 0.64247 0.30203 0.0
C1152 C 0.91095 0.45182 0.53105 0.0
C1153 C 0.95111 0.45037 0.53306 0.0
C1154 C 0.88532 0.44244 0.54072 0.0
C1155 C 0.88303 0.3905 0.57107 0.0
H1156 H 0.78058 0.43669 0.57327 0.0
C1157 C 0.76035 0.32215 0.59993 0.0
C1158 C 0.73127 0.34623 0.60502 0.0
C1159 C 0.78957 0.33774 0.59245 0.0
C1160 C 0.80932 0.42392 0.57298 0.0
H1161 H 0.99639 0.44007 0.54669 0.0
H1162 H 0.9519 0.42553 0.56377 0.0
H1163 H 0.8265 0.46039 0.55791 0.0
H1164 H 0.71128 0.40577 0.607 0.0
H1165 H 0.76327 0.4333 0.59443 0.0
H1166 H 0.86642 0.35508 0.58646 0.0
C1167 C 0.93987 0.43226 0.55467 0.0
C1168 C 0.83548 0.43708 0.56398 0.0
C1169 C 0.96539 0.44085 0.54494 0.0
C1170 C 0.73312 0.38646 0.60306 0.0
C1171 C 0.76275 0.40217 0.59577 0.0
C1172 C 0.85713 0.37782 0.58021 0.0
C1173 C 0.89949 0.43221 0.55264 0.0
C1174 C 0.87246 0.4201 0.56276 0.0
C1175 C 0.79076 0.37788 0.59008 0.0
C1176 C 0.81966 0.39384 0.58114 0.0
H1177 H 0.89948 0.459 0.52191 0.0
H1178 H 0.85449 0.44217 0.53872 0.0
H1179 H 0.91101 0.37628 0.57036 0.0
H1180 H 0.75949 0.29098 0.6012 0.0
H1181 H 0.81019 0.31796 0.5881 0.0
C1182 C 0.87426 0.59931 0.78108 0.0
C1183 C 0.83498 0.60959 0.78008 0.0
C1184 C 0.88597 0.57123 0.78958 0.0
C1185 C 0.85366 0.52217 0.81849 0.0
H1186 H 0.94307 0.45703 0.81121 0.0
C1187 C 0.91225 0.39519 0.84916 0.0
C1188 C 0.95205 0.39817 0.852 0.0
C1189 C 0.89499 0.42101 0.84082 0.0
C1190 C 0.9181 0.47514 0.81334 0.0
H1191 H 0.77688 0.59794 0.78683 0.0
H1192 H 0.79707 0.54763 0.80143 0.0
H1193 H 0.91749 0.49914 0.79499 0.0
H1194 H 0.00467 0.43119 0.84862 0.0
H1195 H 0.97457 0.47563 0.83387 0.0
H1196 H 0.85409 0.49697 0.83681 0.0
C1197 C 0.81904 0.56201 0.7959 0.0
C1198 C 0.90352 0.4994 0.8041 0.0
C1199 C 0.8074 0.59058 0.7875 0.0
C1200 C 0.97392 0.42821 0.84667 0.0
C1201 C 0.95684 0.45348 0.83818 0.0
C1202 C 0.86788 0.49728 0.82767 0.0
C1203 C 0.85856 0.55235 0.79716 0.0
C1204 C 0.87163 0.52387 0.80663 0.0
C1205 C 0.91746 0.44964 0.83504 0.0
C1206 C 0.90066 0.47422 0.82522 0.0
H1207 H 0.89616 0.61405 0.77561 0.0
H1208 H 0.91672 0.56529 0.79046 0.0
H1209 H 0.82938 0.54091 0.82084 0.0
H1210 H 0.89466 0.37239 0.85316 0.0
H1211 H 0.86452 0.41764 0.83851 0.0
C1212 C 0.35299 0.52968 0.03825 0.0
C1213 C 0.36038 0.54714 0.02669 0.0
C1214 C 0.31922 0.53864 0.04494 0.0
C1215 C 0.24431 0.61577 0.04758 0.0
H1216 H 0.20161 0.54504 0.072 0.0
C1217 C 0.13075 0.66589 0.08393 0.0
C1218 C 0.14755 0.66407 0.09591 0.0
C1219 C 0.14686 0.64458 0.07392 0.0
C1220 C 0.21286 0.56485 0.06507 0.0
H1221 H 0.33779 0.58604 0.01269 0.0
H1222 H 0.27783 0.6006 0.02408 0.0
H1223 H 0.24891 0.52114 0.05664 0.0
H1224 H 0.19168 0.6364 0.10718 0.0
H1225 H 0.2189 0.59817 0.08981 0.0
H1226 H 0.20833 0.65944 0.05615 0.0
C1227 C 0.29861 0.58103 0.02825 0.0
C1228 C 0.24031 0.55139 0.05637 0.0
C1229 C 0.33283 0.57263 0.02168 0.0
C1230 C 0.17841 0.63831 0.09799 0.0
C1231 C 0.19379 0.61632 0.08808 0.0
C1232 C 0.2163 0.62897 0.05611 0.0
C1233 C 0.29166 0.56474 0.0401 0.0
C1234 C 0.25759 0.57707 0.04784 0.0
C1235 C 0.17915 0.6204 0.07588 0.0
C1236 C 0.20142 0.60398 0.06521 0.0
H1237 H 0.37402 0.5101 0.04232 0.0
H1238 H 0.31555 0.5261 0.05412 0.0
H1239 H 0.25712 0.63667 0.04131 0.0
H1240 H 0.10703 0.68576 0.08214 0.0
H1241 H 0.13521 0.64818 0.06456 0.0
C1242 C 0.317 0.51917 0.78759 0.0
C1243 C 0.29003 0.53996 0.78039 0.0
C1244 C 0.30569 0.48534 0.79377 0.0
C1245 C 0.26501 0.43204 0.81245 0.0
H1246 H 0.18392 0.36753 0.7978 0.0
C1247 C 0.12503 0.35717 0.83234 0.0
C1248 C 0.13851 0.33004 0.841 0.0
C1249 C 0.15004 0.37222 0.82338 0.0
C1250 C 0.20708 0.38482 0.80192 0.0
H1251 H 0.22996 0.54229 0.77433 0.0
H1252 H 0.21022 0.48408 0.78515 0.0
H1253 H 0.21755 0.41469 0.78481 0.0
H1254 H 0.18825 0.2967 0.84709 0.0
H1255 H 0.23296 0.32461 0.83156 0.0
H1256 H 0.25332 0.40277 0.82968 0.0
C1257 C 0.24037 0.49291 0.78573 0.0
C1258 C 0.22608 0.41204 0.79455 0.0
C1259 C 0.25163 0.52646 0.77957 0.0
C1260 C 0.17725 0.31736 0.84039 0.0
C1261 C 0.20272 0.33332 0.83159 0.0
C1262 C 0.24627 0.40438 0.8198 0.0
C1263 C 0.26721 0.47181 0.79287 0.0
C1264 C 0.25383 0.43732 0.79989 0.0
C1265 C 0.18924 0.36112 0.8231 0.0
C1266 C 0.21597 0.38187 0.81471 0.0
H1267 H 0.34687 0.5288 0.78831 0.0
H1268 H 0.32705 0.4697 0.79919 0.0
H1269 H 0.28617 0.45108 0.81687 0.0
H1270 H 0.09524 0.36734 0.83266 0.0
H1271 H 0.13913 0.39399 0.81703 0.0
C1272 C 0.31214 0.42929 0.52166 0.0
C1273 C 0.27447 0.41419 0.52301 0.0
C1274 C 0.34247 0.41591 0.52913 0.0
C1275 C 0.37258 0.33589 0.54959 0.0
H1276 H 0.43412 0.41555 0.56635 0.0
C1277 C 0.46914 0.30287 0.59215 0.0
C1278 C 0.50545 0.32119 0.59284 0.0
C1279 C 0.4423 0.3135 0.58301 0.0
C1280 C 0.41764 0.3929 0.56161 0.0
H1281 H 0.23927 0.3727 0.53312 0.0
H1282 H 0.29231 0.34912 0.54606 0.0
H1283 H 0.38577 0.43417 0.55089 0.0
H1284 H 0.54232 0.36517 0.58468 0.0
H1285 H 0.49574 0.38335 0.56854 0.0
H1286 H 0.40434 0.29459 0.56035 0.0
C1287 C 0.29841 0.37105 0.53914 0.0
C1288 C 0.38997 0.40358 0.55275 0.0
C1289 C 0.26805 0.38455 0.53171 0.0
C1290 C 0.51436 0.35075 0.58437 0.0
C1291 C 0.48769 0.36115 0.57516 0.0
C1292 C 0.40043 0.32517 0.55841 0.0
C1293 C 0.33575 0.38705 0.53806 0.0
C1294 C 0.36692 0.37523 0.54675 0.0
C1295 C 0.45143 0.34249 0.57434 0.0
C1296 C 0.42297 0.35362 0.56461 0.0
H1297 H 0.31813 0.45167 0.51488 0.0
H1298 H 0.37113 0.42836 0.52801 0.0
H1299 H 0.35546 0.31343 0.54499 0.0
H1300 H 0.46126 0.28084 0.59882 0.0
H1301 H 0.41419 0.29939 0.58285 0.0
C1302 C 0.40757 0.48161 0.26701 0.0
C1303 C 0.4221 0.44376 0.2685 0.0
C1304 C 0.41948 0.51175 0.27504 0.0
C1305 C 0.49359 0.54143 0.29827 0.0
H1306 H 0.40854 0.59855 0.31373 0.0
C1307 C 0.51492 0.63559 0.34286 0.0
C1308 C 0.49521 0.6712 0.34348 0.0
C1309 C 0.50662 0.60874 0.33327 0.0
C1310 C 0.4327 0.58333 0.30939 0.0
H1311 H 0.46177 0.40833 0.27931 0.0
H1312 H 0.48298 0.46106 0.29314 0.0
H1313 H 0.39513 0.55182 0.29692 0.0
H1314 H 0.45125 0.70688 0.33476 0.0
H1315 H 0.43756 0.66063 0.31778 0.0
H1316 H 0.53117 0.57297 0.31074 0.0
C1317 C 0.46248 0.4674 0.28573 0.0
C1318 C 0.425 0.5566 0.29974 0.0
C1319 C 0.45037 0.43721 0.27777 0.0
C1320 C 0.46667 0.67941 0.33451 0.0
C1321 C 0.45881 0.6529 0.3248 0.0
C1322 C 0.50134 0.56842 0.30786 0.0
C1323 C 0.44639 0.50469 0.28465 0.0
C1324 C 0.4553 0.53515 0.29417 0.0
C1325 C 0.47892 0.61737 0.32402 0.0
C1326 C 0.47092 0.5894 0.31361 0.0
H1327 H 0.38631 0.48778 0.25982 0.0
H1328 H 0.40707 0.54042 0.2739 0.0
H1329 H 0.51751 0.52547 0.29405 0.0
H1330 H 0.53634 0.62834 0.34988 0.0
H1331 H 0.52168 0.58111 0.33314 0.0
C1332 C 0.34193 0.43493 0.96346 0.0
C1333 C 0.36773 0.46513 0.96058 0.0
C1334 C 0.31016 0.42692 0.95567 0.0
C1335 C 0.28333 0.4306 0.9231 0.0
H1336 H 0.17809 0.41167 0.93444 0.0
C1337 C 0.17281 0.37145 0.88819 0.0
C1338 C 0.14918 0.34137 0.89252 0.0
C1339 C 0.19233 0.39566 0.8967 0.0
C1340 C 0.20736 0.41658 0.93112 0.0
H1341 H 0.38039 0.51099 0.94746 0.0
H1342 H 0.32528 0.49644 0.9337 0.0
H1343 H 0.22696 0.43541 0.94936 0.0
H1344 H 0.12545 0.31376 0.90891 0.0
H1345 H 0.16111 0.3545 0.92387 0.0
H1346 H 0.26533 0.40955 0.90517 0.0
C1347 C 0.32943 0.47931 0.94205 0.0
C1348 C 0.23522 0.43033 0.93966 0.0
C1349 C 0.36081 0.48767 0.94992 0.0
C1350 C 0.14333 0.33718 0.90543 0.0
C1351 C 0.16376 0.36067 0.91398 0.0
C1352 C 0.25583 0.41624 0.91464 0.0
C1353 C 0.30408 0.44861 0.94478 0.0
C1354 C 0.27352 0.43708 0.93572 0.0
C1355 C 0.18979 0.38921 0.9097 0.0
C1356 C 0.21751 0.4086 0.91853 0.0
H1357 H 0.34652 0.41735 0.97168 0.0
H1358 H 0.2912 0.40287 0.9579 0.0
H1359 H 0.31283 0.43503 0.91988 0.0
H1360 H 0.17748 0.37513 0.87822 0.0
H1361 H 0.21094 0.41817 0.89304 0.0
C1362 C 0.37118 0.51529 0.71207 0.0
C1363 C 0.39647 0.54566 0.71535 0.0
C1364 C 0.38385 0.48491 0.70428 0.0
C1365 C 0.47259 0.4406 0.68985 0.0
H1366 H 0.39764 0.40033 0.66578 0.0
C1367 C 0.51264 0.3456 0.64644 0.0
C1368 C 0.49243 0.31029 0.64554 0.0
C1369 C 0.50118 0.37417 0.65512 0.0
C1370 C 0.41875 0.41125 0.6725 0.0
H1371 H 0.45467 0.56838 0.71335 0.0
H1372 H 0.47662 0.51622 0.69928 0.0
H1373 H 0.37779 0.45005 0.68096 0.0
H1374 H 0.44339 0.27762 0.65261 0.0
H1375 H 0.42309 0.32784 0.6677 0.0
H1376 H 0.51385 0.40255 0.6809 0.0
C1377 C 0.44738 0.51494 0.70298 0.0
C1378 C 0.4074 0.4395 0.68128 0.0
C1379 C 0.43487 0.54492 0.71099 0.0
C1380 C 0.4597 0.30451 0.65317 0.0
C1381 C 0.44807 0.33315 0.66178 0.0
C1382 C 0.48409 0.41283 0.68091 0.0
C1383 C 0.42182 0.48482 0.69937 0.0
C1384 C 0.43409 0.4544 0.69013 0.0
C1385 C 0.46902 0.36799 0.66292 0.0
C1386 C 0.45717 0.39785 0.67222 0.0
H1387 H 0.34148 0.51531 0.71544 0.0
H1388 H 0.36365 0.46174 0.70201 0.0
H1389 H 0.49382 0.4509 0.69662 0.0
H1390 H 0.53694 0.35134 0.64032 0.0
H1391 H 0.51724 0.40122 0.65569 0.0
C1392 C 0.29876 0.53278 0.45273 0.0
C1393 C 0.28358 0.55448 0.46289 0.0
C1394 C 0.3311 0.54607 0.44619 0.0
C1395 C 0.38124 0.6355 0.43818 0.0
H1396 H 0.46333 0.56568 0.42717 0.0
C1397 C 0.50826 0.68847 0.4077 0.0
C1398 C 0.51886 0.6639 0.39764 0.0
C1399 C 0.48344 0.67516 0.41707 0.0
C1400 C 0.44049 0.58547 0.43011 0.0
H1401 H 0.29135 0.6065 0.47439 0.0
H1402 H 0.34752 0.63004 0.46276 0.0
H1403 H 0.4126 0.54201 0.44111 0.0
H1404 H 0.51226 0.6062 0.38948 0.0
H1405 H 0.46761 0.58348 0.40551 0.0
H1406 H 0.40822 0.67862 0.42687 0.0
C1407 C 0.33412 0.60288 0.45986 0.0
C1408 C 0.41155 0.57194 0.4381 0.0
C1409 C 0.30191 0.58944 0.46647 0.0
C1410 C 0.50457 0.62571 0.39716 0.0
C1411 C 0.47924 0.61263 0.4064 0.0
C1412 C 0.41003 0.64899 0.43012 0.0
C1413 C 0.34881 0.58145 0.4496 0.0
C1414 C 0.38134 0.59666 0.44205 0.0
C1415 C 0.4682 0.63729 0.41642 0.0
C1416 C 0.43963 0.62393 0.42583 0.0
H1417 H 0.28498 0.50607 0.44959 0.0
H1418 H 0.34148 0.52926 0.43819 0.0
H1419 H 0.35803 0.65506 0.44097 0.0
H1420 H 0.51953 0.71782 0.4084 0.0
H1421 H 0.47614 0.69455 0.42481 0.0
C1422 C 0.24718 0.44348 0.20352 0.0
C1423 C 0.28409 0.4408 0.20912 0.0
C1424 C 0.23572 0.47734 0.19751 0.0
C1425 C 0.2706 0.55554 0.17923 0.0
H1426 H 0.1708 0.60309 0.18666 0.0
C1427 C 0.16945 0.62411 0.14329 0.0
C1428 C 0.14989 0.65871 0.14642 0.0
C1429 C 0.19414 0.60675 0.15192 0.0
C1430 C 0.1991 0.59071 0.18464 0.0
H1431 H 0.33776 0.47231 0.21277 0.0
H1432 H 0.31818 0.53076 0.2016 0.0
H1433 H 0.19688 0.55356 0.20059 0.0
H1434 H 0.14202 0.70346 0.16072 0.0
H1435 H 0.18434 0.67195 0.17614 0.0
H1436 H 0.27138 0.59058 0.16274 0.0
C1437 C 0.29815 0.50656 0.20213 0.0
C1438 C 0.21383 0.56226 0.19254 0.0
C1439 C 0.30939 0.47291 0.2084 0.0
C1440 C 0.15684 0.67674 0.15812 0.0
C1441 C 0.18091 0.65879 0.16691 0.0
C1442 C 0.25551 0.5835 0.17119 0.0
C1443 C 0.26112 0.50905 0.19672 0.0
C1444 C 0.24913 0.5437 0.18969 0.0
C1445 C 0.19915 0.62326 0.16393 0.0
C1446 C 0.21913 0.60049 0.17365 0.0
H1447 H 0.22719 0.4192 0.20356 0.0
H1448 H 0.20726 0.47839 0.19319 0.0
H1449 H 0.2978 0.54142 0.17684 0.0
H1450 H 0.16479 0.60987 0.13428 0.0
H1451 H 0.20754 0.57918 0.14945 0.0
loop_
_geom_bond_atom_site_label_1
_geom_bond_atom_site_label_2
_geom_bond_distance
_geom_bond_site_symmetry_2
_ccdc_geom_bond_type
C0 C1 1.384 . S
C0 C2 1.384 . S
C0 H28 0.931 1_565 S
C1 C0 1.384 . S
C1 C4 1.382 . S
C2 C0 1.384 . S
C2 C3 1.381 . S
C2 H29 0.930 1_565 S
C3 C2 1.381 . S
C3 C5 1.381 . S
C3 C6 1.487 . S
C4 C1 1.382 . S
C4 C5 1.387 . S
C4 H30 0.930 . S
C5 C3 1.381 . S
C5 C4 1.387 . S
C5 H31 0.931 . S
C6 C3 1.487 . S
C6 C13 1.399 1_565 S
C6 N44 1.343 . S
C7 C8 1.384 . S
C7 C9 1.384 . S
C7 H32 0.931 1_545 S
C8 C7 1.384 . S
C8 C11 1.382 . S
C9 C7 1.384 . S
C9 C10 1.381 . S
C9 H33 0.930 1_545 S
C10 C9 1.381 . S
C10 C12 1.381 . S
C10 C13 1.487 . S
C11 C8 1.382 . S
C11 C12 1.387 . S
C11 H34 0.930 . S
C12 C10 1.381 . S
C12 C11 1.387 . S
C12 H35 0.931 . S
C13 C6 1.399 1_545 S
C13 C10 1.487 . S
C13 N45 1.343 . S
C14 C15 1.384 . S
C14 C16 1.384 . S
C14 H36 0.931 1_545 S
C15 C14 1.384 . S
C15 C18 1.382 . S
C16 C14 1.384 . S
C16 C17 1.381 . S
C16 H37 0.930 1_545 S
C17 C16 1.381 . S
C17 C19 1.381 . S
C17 C20 1.487 . S
C18 C15 1.382 . S
C18 C19 1.387 . S
C18 H38 0.930 . S
C19 C17 1.381 . S
C19 C18 1.387 . S
C19 H39 0.931 . S
C20 C17 1.487 . S
C20 C27 1.399 1_545 S
C20 N45 1.343 1_655 S
C21 C22 1.384 . S
C21 C23 1.384 . S
C21 H40 0.931 1_565 S
C22 C21 1.384 . S
C22 C25 1.382 . S
C23 C21 1.384 . S
C23 C24 1.381 . S
C23 H41 0.930 1_565 S
C24 C23 1.381 . S
C24 C26 1.381 . S
C24 C27 1.487 . S
C25 C22 1.382 . S
C25 C26 1.387 . S
C25 H42 0.930 . S
C26 C24 1.381 . S
C26 C25 1.387 . S
C26 H43 0.931 . S
C27 C20 1.399 1_565 S
C27 C24 1.487 . S
C27 N44 1.343 1_655 S
H28 C0 0.931 1_545 S
H29 C2 0.930 1_545 S
H30 C4 0.930 . S
H31 C5 0.931 . S
H32 C7 0.931 1_565 S
H33 C9 0.930 1_565 S
H34 C11 0.930 . S
H35 C12 0.931 . S
H36 C14 0.931 1_565 S
H37 C16 0.930 1_565 S
H38 C18 0.930 . S
H39 C19 0.931 . S
H40 C21 0.931 1_545 S
H41 C23 0.930 1_545 S
H42 C25 0.930 . S
H43 C26 0.931 . S
N44 C6 1.343 . S
N44 C27 1.343 1_455 S
N45 C13 1.343 . S
N45 C20 1.343 1_455 S
C46 C47 1.384 . S
C46 C48 1.384 . S
C46 H74 0.931 . S
C47 C46 1.384 . S
C47 C50 1.382 . S
C48 C46 1.384 . S
C48 C49 1.381 . S
C48 H75 0.930 . S
C49 C48 1.381 . S
C49 C51 1.381 . S
C49 C52 1.487 . S
C50 C47 1.382 . S
C50 C51 1.387 . S
C50 H76 0.930 . S
C51 C49 1.381 . S
C51 C50 1.387 . S
C51 H77 0.931 . S
C52 C49 1.487 . S
C52 C59 1.399 . S
C52 N90 1.343 . S
C53 C54 1.384 . S
C53 C55 1.384 . S
C53 H78 0.931 . S
C54 C53 1.384 . S
C54 C57 1.382 . S
C55 C53 1.384 . S
C55 C56 1.381 . S
C55 H79 0.930 . S
C56 C55 1.381 . S
C56 C58 1.381 . S
C56 C59 1.487 . S
C57 C54 1.382 . S
C57 C58 1.387 . S
C57 H80 0.930 . S
C58 C56 1.381 . S
C58 C57 1.387 . S
C58 H81 0.931 . S
C59 C52 1.399 . S
C59 C56 1.487 . S
C59 N91 1.343 . S
C60 C61 1.384 . S
C60 C62 1.384 . S
C60 H82 0.931 . S
C61 C60 1.384 . S
C61 C64 1.382 . S
C62 C60 1.384 . S
C62 C63 1.381 . S
C62 H83 0.930 . S
C63 C62 1.381 . S
C63 C65 1.381 . S
C63 C66 1.487 . S
C64 C61 1.382 . S
C64 C65 1.387 . S
C64 H84 0.930 . S
C65 C63 1.381 . S
C65 C64 1.387 . S
C65 H85 0.931 . S
C66 C63 1.487 . S
C66 C73 1.399 . S
C66 N91 1.343 . S
C67 C68 1.384 . S
C67 C69 1.384 . S
C67 H86 0.931 . S
C68 C67 1.384 . S
C68 C71 1.382 . S
C69 C67 1.384 . S
C69 C70 1.381 . S
C69 H87 0.930 . S
C70 C69 1.381 . S
C70 C72 1.381 . S
C70 C73 1.487 . S
C71 C68 1.382 . S
C71 C72 1.387 . S
C71 H88 0.930 . S
C72 C70 1.381 . S
C72 C71 1.387 . S
C72 H89 0.931 . S
C73 C66 1.399 . S
C73 C70 1.487 . S
C73 N90 1.343 . S
H74 C46 0.931 . S
H75 C48 0.930 . S
H76 C50 0.930 . S
H77 C51 0.931 . S
H78 C53 0.931 . S
H79 C55 0.930 . S
H80 C57 0.930 . S
H81 C58 0.931 . S
H82 C60 0.931 . S
H83 C62 0.930 . S
H84 C64 0.930 . S
H85 C65 0.931 . S
H86 C67 0.931 . S
H87 C69 0.930 . S
H88 C71 0.930 . S
H89 C72 0.931 . S
N90 C52 1.343 . S
N90 C73 1.343 . S
N91 C59 1.343 . S
N91 C66 1.343 . S
C92 C93 1.384 . S
C92 C94 1.384 . S
C92 H120 0.931 1_545 S
C93 C92 1.384 . S
C93 C96 1.382 . S
C94 C92 1.384 . S
C94 C95 1.381 . S
C94 H121 0.930 1_545 S
C95 C94 1.381 . S
C95 C97 1.381 . S
C95 C98 1.487 . S
C96 C93 1.382 . S
C96 C97 1.387 . S
C96 H122 0.930 . S
C97 C95 1.381 . S
C97 C96 1.387 . S
C97 H123 0.931 . S
C98 C95 1.487 . S
C98 C105 1.399 1_546 S
C98 N136 1.343 . S
C99 C100 1.384 . S
C99 C101 1.394 . S
C99 H124 0.931 1_565 S
C100 C99 1.384 . S
C100 C103 1.382 . S
C101 C99 1.394 . S
C101 C102 1.399 . S
C101 H125 0.903 1_565 S
C102 C101 1.399 . S
C102 C104 1.381 . S
C102 C105 1.487 . S
C103 C100 1.382 . S
C103 C104 1.387 . S
C103 H126 0.930 . S
C104 C102 1.381 . S
C104 C103 1.387 . S
C104 H127 0.931 . S
C105 C98 1.399 1_564 S
C105 C102 1.487 . S
C105 N137 1.343 . S
C106 C107 1.384 . S
C106 C108 1.394 . S
C106 H128 0.931 1_565 S
C107 C106 1.384 . S
C107 C110 1.382 . S
C108 C106 1.394 . S
C108 C109 1.399 . S
C108 H129 0.903 1_565 S
C109 C108 1.399 . S
C109 C111 1.381 . S
C109 C112 1.487 . S
C110 C107 1.382 . S
C110 C111 1.387 . S
C110 H130 0.930 . S
C111 C109 1.381 . S
C111 C110 1.387 . S
C111 H131 0.931 . S
C112 C109 1.487 . S
C112 C119 1.399 1_564 S
C112 N137 1.343 . S
C113 C114 1.384 . S
C113 C115 1.384 . S
C113 H132 0.931 1_545 S
C114 C113 1.384 . S
C114 C117 1.382 . S
C115 C113 1.384 . S
C115 C116 1.381 . S
C115 H133 0.930 1_545 S
C116 C115 1.381 . S
C116 C118 1.381 . S
C116 C119 1.487 . S
C117 C114 1.382 . S
C117 C118 1.387 . S
C117 H134 0.930 . S
C118 C116 1.381 . S
C118 C117 1.387 . S
C118 H135 0.931 . S
C119 C112 1.399 1_546 S
C119 C116 1.487 . S
C119 N136 1.343 . S
H120 C92 0.931 1_565 S
H121 C94 0.930 1_565 S
H122 C96 0.930 . S
H123 C97 0.931 . S
H124 C99 0.931 1_545 S
H125 C101 0.903 1_545 S
H126 C103 0.930 . S
H127 C104 0.931 . S
H128 C106 0.931 1_545 S
H129 C108 0.903 1_545 S
H130 C110 0.930 . S
H131 C111 0.931 . S
H132 C113 0.931 1_565 S
H133 C115 0.930 1_565 S
H134 C117 0.930 . S
H135 C118 0.931 . S
N136 C98 1.343 . S
N136 C119 1.343 . S
N137 C105 1.343 . S
N137 C112 1.343 . S
C138 C139 1.384 . S
C138 C140 1.384 . S
C138 H166 0.931 . S
C139 C138 1.384 . S
C139 C142 1.382 . S
C140 C138 1.384 . S
C140 C141 1.381 . S
C140 H167 0.930 . S
C141 C140 1.381 . S
C141 C143 1.381 . S
C141 C144 1.487 . S
C142 C139 1.382 . S
C142 C143 1.387 . S
C142 H168 0.930 . S
C143 C141 1.381 . S
C143 C142 1.387 . S
C143 H169 0.931 . S
C144 C141 1.487 . S
C144 C151 1.399 . S
C144 N182 1.343 . S
C145 C146 1.384 . S
C145 C147 1.384 . S
C145 H170 0.931 . S
C146 C145 1.384 . S
C146 C149 1.382 . S
C147 C145 1.384 . S
C147 C148 1.381 . S
C147 H171 0.930 . S
C148 C147 1.381 . S
C148 C150 1.381 . S
C148 C151 1.487 . S
C149 C146 1.382 . S
C149 C150 1.387 . S
C149 H172 0.930 . S
C150 C148 1.381 . S
C150 C149 1.387 . S
C150 H173 0.931 . S
C151 C144 1.399 . S
C151 C148 1.487 . S
C151 N183 1.343 . S
C152 C153 1.384 . S
C152 C154 1.384 . S
C152 H174 0.931 . S
C153 C152 1.384 . S
C153 C156 1.382 . S
C154 C152 1.384 . S
C154 C155 1.381 . S
C154 H175 0.930 . S
C155 C154 1.381 . S
C155 C157 1.381 . S
C155 C158 1.487 . S
C156 C153 1.382 . S
C156 C157 1.387 . S
C156 H176 0.930 . S
C157 C155 1.381 . S
C157 C156 1.387 . S
C157 H177 0.931 . S
C158 C155 1.487 . S
C158 C165 1.399 . S
C158 N183 1.343 . S
C159 C160 1.384 . S
C159 C161 1.384 . S
C159 H178 0.931 . S
C160 C159 1.384 . S
C160 C163 1.382 . S
C161 C159 1.384 . S
C161 C162 1.381 . S
C161 H179 0.930 . S
C162 C161 1.381 . S
C162 C164 1.381 . S
C162 C165 1.487 . S
C163 C160 1.382 . S
C163 C164 1.387 . S
C163 H180 0.930 . S
C164 C162 1.381 . S
C164 C163 1.387 . S
C164 H181 0.931 . S
C165 C158 1.399 . S
C165 C162 1.487 . S
C165 N182 1.343 . S
H166 C138 0.931 . S
H167 C140 0.930 . S
H168 C142 0.930 . S
H169 C143 0.931 . S
H170 C145 0.931 . S
H171 C147 0.930 . S
H172 C149 0.930 . S
H173 C150 0.931 . S
H174 C152 0.931 . S
H175 C154 0.930 . S
H176 C156 0.930 . S
H177 C157 0.931 . S
H178 C159 0.931 . S
H179 C161 0.930 . S
H180 C163 0.930 . S
H181 C164 0.931 . S
N182 C144 1.343 . S
N182 C165 1.343 . S
N183 C151 1.343 . S
N183 C158 1.343 . S
C184 C185 1.384 . S
C184 C186 1.384 . S
C184 H212 0.931 . S
C185 C184 1.384 . S
C185 C188 1.382 . S
C186 C184 1.384 . S
C186 C187 1.381 . S
C186 H213 0.930 . S
C187 C186 1.381 . S
C187 C189 1.381 . S
C187 C190 1.487 . S
C188 C185 1.382 . S
C188 C189 1.387 . S
C188 H214 0.930 . S
C189 C187 1.381 . S
C189 C188 1.387 . S
C189 H215 0.931 . S
C190 C187 1.487 . S
C190 C197 1.399 . S
C190 N228 1.343 . S
C191 C192 1.384 . S
C191 C193 1.384 . S
C191 H216 0.931 . S
C192 C191 1.384 . S
C192 C195 1.382 . S
C193 C191 1.384 . S
C193 C194 1.381 . S
C193 H217 0.930 . S
C194 C193 1.381 . S
C194 C196 1.381 . S
C194 C197 1.487 . S
C195 C192 1.382 . S
C195 C196 1.387 . S
C195 H218 0.930 . S
C196 C194 1.381 . S
C196 C195 1.387 . S
C196 H219 0.931 . S
C197 C190 1.399 . S
C197 C194 1.487 . S
C197 N229 1.343 . S
C198 C199 1.384 . S
C198 C200 1.384 . S
C198 H220 0.931 . S
C199 C198 1.384 . S
C199 C202 1.382 . S
C200 C198 1.384 . S
C200 C201 1.381 . S
C200 H221 0.930 . S
C201 C200 1.381 . S
C201 C203 1.381 . S
C201 C204 1.487 . S
C202 C199 1.382 . S
C202 C203 1.387 . S
C202 H222 0.930 . S
C203 C201 1.381 . S
C203 C202 1.387 . S
C203 H223 0.931 . S
C204 C201 1.487 . S
C204 C211 1.399 . S
C204 N229 1.343 . S
C205 C206 1.384 . S
C205 C207 1.384 . S
C205 H224 0.931 . S
C206 C205 1.384 . S
C206 C209 1.382 . S
C207 C205 1.384 . S
C207 C208 1.381 . S
C207 H225 0.930 . S
C208 C207 1.381 . S
C208 C210 1.381 . S
C208 C211 1.487 . S
C209 C206 1.382 . S
C209 C210 1.387 . S
C209 H226 0.930 . S
C210 C208 1.381 . S
C210 C209 1.387 . S
C210 H227 0.931 . S
C211 C204 1.399 . S
C211 C208 1.487 . S
C211 N228 1.343 . S
H212 C184 0.931 . S
H213 C186 0.930 . S
H214 C188 0.930 . S
H215 C189 0.931 . S
H216 C191 0.931 . S
H217 C193 0.930 . S
H218 C195 0.930 . S
H219 C196 0.931 . S
H220 C198 0.931 . S
H221 C200 0.930 . S
H222 C202 0.930 . S
H223 C203 0.931 . S
H224 C205 0.931 . S
H225 C207 0.930 . S
H226 C209 0.930 . S
H227 C210 0.931 . S
N228 C190 1.343 . S
N228 C211 1.343 . S
N229 C197 1.343 . S
N229 C204 1.343 . S
C230 C231 1.384 . S
C230 C232 1.384 . S
C230 H258 0.931 . S
C231 C230 1.384 . S
C231 C234 1.382 . S
C232 C230 1.384 . S
C232 C233 1.381 . S
C232 H259 0.930 . S
C233 C232 1.381 . S
C233 C235 1.381 . S
C233 C236 1.487 . S
C234 C231 1.382 . S
C234 C235 1.387 . S
C234 H260 0.930 . S
C235 C233 1.381 . S
C235 C234 1.387 . S
C235 H261 0.931 . S
C236 C233 1.487 . S
C236 C243 1.399 . S
C236 N274 1.343 . S
C237 C238 1.384 . S
C237 C239 1.384 . S
C237 H262 0.931 . S
C238 C237 1.384 . S
C238 C241 1.382 . S
C239 C237 1.384 . S
C239 C240 1.381 . S
C239 H263 0.930 . S
C240 C239 1.381 . S
C240 C242 1.381 . S
C240 C243 1.487 . S
C241 C238 1.382 . S
C241 C242 1.387 . S
C241 H264 0.930 . S
C242 C240 1.381 . S
C242 C241 1.387 . S
C242 H265 0.931 . S
C243 C236 1.399 . S
C243 C240 1.487 . S
C243 N275 1.343 . S
C244 C245 1.384 . S
C244 C246 1.384 . S
C244 H266 0.931 . S
C245 C244 1.384 . S
C245 C248 1.382 . S
C246 C244 1.384 . S
C246 C247 1.381 . S
C246 H267 0.930 . S
C247 C246 1.381 . S
C247 C249 1.381 . S
C247 C250 1.487 . S
C248 C245 1.382 . S
C248 C249 1.387 . S
C248 H268 0.930 . S
C249 C247 1.381 . S
C249 C248 1.387 . S
C249 H269 0.931 . S
C250 C247 1.487 . S
C250 C257 1.399 . S
C250 N275 1.343 . S
C251 C252 1.384 . S
C251 C253 1.384 . S
C251 H270 0.931 . S
C252 C251 1.384 . S
C252 C255 1.382 . S
C253 C251 1.384 . S
C253 C254 1.381 . S
C253 H271 0.930 . S
C254 C253 1.381 . S
C254 C256 1.381 . S
C254 C257 1.487 . S
C255 C252 1.382 . S
C255 C256 1.387 . S
C255 H272 0.930 . S
C256 C254 1.381 . S
C256 C255 1.387 . S
C256 H273 0.931 . S
C257 C250 1.399 . S
C257 C254 1.487 . S
C257 N274 1.343 . S
H258 C230 0.931 . S
H259 C232 0.930 . S
H260 C234 0.930 . S
H261 C235 0.931 . S
H262 C237 0.931 . S
H263 C239 0.930 . S
H264 C241 0.930 . S
H265 C242 0.931 . S
H266 C244 0.931 . S
H267 C246 0.930 . S
H268 C248 0.930 . S
H269 C249 0.931 . S
H270 C251 0.931 . S
H271 C253 0.930 . S
H272 C255 0.930 . S
H273 C256 0.931 . S
N274 C236 1.343 . S
N274 C257 1.343 . S
N275 C243 1.343 . S
N275 C250 1.343 . S
C276 C277 1.384 . S
C276 C278 1.384 . S
C276 H304 0.931 . S
C277 C276 1.384 . S
C277 C280 1.382 . S
C278 C276 1.384 . S
C278 C279 1.381 . S
C278 H305 0.930 . S
C279 C278 1.381 . S
C279 C281 1.381 . S
C279 C282 1.487 . S
C280 C277 1.382 . S
C280 C281 1.387 . S
C280 H306 0.930 . S
C281 C279 1.381 . S
C281 C280 1.387 . S
C281 H307 0.931 . S
C282 C279 1.487 . S
C282 C289 1.399 1_556 S
C282 N320 1.343 . S
C283 C284 1.384 . S
C283 C285 1.384 . S
C283 H308 0.931 . S
C284 C283 1.384 . S
C284 C287 1.382 . S
C285 C283 1.384 . S
C285 C286 1.381 . S
C285 H309 0.930 . S
C286 C285 1.381 . S
C286 C288 1.381 . S
C286 C289 1.487 . S
C287 C284 1.382 . S
C287 C288 1.387 . S
C287 H310 0.930 . S
C288 C286 1.381 . S
C288 C287 1.387 . S
C288 H311 0.931 . S
C289 C282 1.399 1_554 S
C289 C286 1.487 . S
C289 N321 1.343 . S
C290 C291 1.384 . S
C290 C292 1.384 . S
C290 H312 0.931 . S
C291 C290 1.384 . S
C291 C294 1.382 . S
C292 C290 1.384 . S
C292 C293 1.381 . S
C292 H313 0.930 . S
C293 C292 1.381 . S
C293 C295 1.381 . S
C293 C296 1.487 . S
C294 C291 1.382 . S
C294 C295 1.387 . S
C294 H314 0.930 . S
C295 C293 1.381 . S
C295 C294 1.387 . S
C295 H315 0.931 . S
C296 C293 1.487 . S
C296 C303 1.399 1_554 S
C296 N321 1.343 . S
C297 C298 1.384 . S
C297 C299 1.384 . S
C297 H316 0.931 . S
C298 C297 1.384 . S
C298 C301 1.382 . S
C299 C297 1.384 . S
C299 C300 1.381 . S
C299 H317 0.930 . S
C300 C299 1.381 . S
C300 C302 1.381 . S
C300 C303 1.487 . S
C301 C298 1.382 . S
C301 C302 1.387 . S
C301 H318 0.930 . S
C302 C300 1.381 . S
C302 C301 1.387 . S
C302 H319 0.931 . S
C303 C296 1.399 1_556 S
C303 C300 1.487 . S
C303 N320 1.343 . S
H304 C276 0.931 . S
H305 C278 0.930 . S
H306 C280 0.930 . S
H307 C281 0.931 . S
H308 C283 0.931 . S
H309 C285 0.930 . S
H310 C287 0.930 . S
H311 C288 0.931 . S
H312 C290 0.931 . S
H313 C292 0.930 . S
H314 C294 0.930 . S
H315 C295 0.931 . S
H316 C297 0.931 . S
H317 C299 0.930 . S
H318 C301 0.930 . S
H319 C302 0.931 . S
N320 C282 1.343 . S
N320 C303 1.343 . S
N321 C289 1.343 . S
N321 C296 1.343 . S
C322 C323 1.384 . S
C322 C324 1.384 . S
C322 H350 0.931 1_455 S
C323 C322 1.384 . S
C323 C326 1.382 . S
C324 C322 1.384 . S
C324 C325 1.381 . S
C324 H351 0.930 . S
C325 C324 1.381 . S
C325 C327 1.381 . S
C325 C328 1.487 . S
C326 C323 1.382 . S
C326 C327 1.387 . S
C326 H352 0.930 . S
C327 C325 1.381 . S
C327 C326 1.387 . S
C327 H353 0.931 . S
C328 C325 1.487 . S
C328 C335 1.399 . S
C328 N366 1.343 . S
C329 C330 1.384 . S
C329 C331 1.384 . S
C329 H354 0.931 1_455 S
C330 C329 1.384 . S
C330 C333 1.382 . S
C331 C329 1.384 . S
C331 C332 1.381 . S
C331 H355 0.930 . S
C332 C331 1.381 . S
C332 C334 1.381 . S
C332 C335 1.487 . S
C333 C330 1.382 . S
C333 C334 1.387 . S
C333 H356 0.930 . S
C334 C332 1.381 . S
C334 C333 1.387 . S
C334 H357 0.931 . S
C335 C328 1.399 . S
C335 C332 1.487 . S
C335 N367 1.343 . S
C336 C337 1.384 . S
C336 C338 1.384 . S
C336 H358 0.931 . S
C337 C336 1.384 . S
C337 C340 1.382 . S
C338 C336 1.384 . S
C338 C339 1.381 . S
C338 H359 0.930 . S
C339 C338 1.381 . S
C339 C341 1.381 . S
C339 C342 1.487 . S
C340 C337 1.382 . S
C340 C341 1.387 . S
C340 H360 0.930 . S
C341 C339 1.381 . S
C341 C340 1.387 . S
C341 H361 0.931 . S
C342 C339 1.487 . S
C342 C349 1.399 . S
C342 N367 1.343 . S
C343 C344 1.384 . S
C343 C345 1.384 . S
C343 H362 0.931 . S
C344 C343 1.384 . S
C344 C347 1.382 . S
C345 C343 1.384 . S
C345 C346 1.381 . S
C345 H363 0.930 . S
C346 C345 1.381 . S
C346 C348 1.381 . S
C346 C349 1.487 . S
C347 C344 1.382 . S
C347 C348 1.387 . S
C347 H364 0.930 . S
C348 C346 1.381 . S
C348 C347 1.387 . S
C348 H365 0.931 . S
C349 C342 1.399 . S
C349 C346 1.487 . S
C349 N366 1.343 . S
H350 C322 0.931 1_655 S
H351 C324 0.930 . S
H352 C326 0.930 . S
H353 C327 0.931 . S
H354 C329 0.931 1_655 S
H355 C331 0.930 . S
H356 C333 0.930 . S
H357 C334 0.931 . S
H358 C336 0.931 . S
H359 C338 0.930 . S
H360 C340 0.930 . S
H361 C341 0.931 . S
H362 C343 0.931 . S
H363 C345 0.930 . S
H364 C347 0.930 . S
H365 C348 0.931 . S
N366 C328 1.343 . S
N366 C349 1.343 . S
N367 C335 1.343 . S
N367 C342 1.343 . S
C368 O395 1.312 . S
C368 O396 1.208 . S
C369 O390 1.331 1_655 S
C369 O393 1.244 . S
C370 O392 1.264 1_655 S
C370 O394 1.273 . S
Mg371 O373 1.936 . S
Mg371 O380 2.081 . S
Mg371 O382 2.023 . S
Mg371 O386 2.031 . S
Mg371 O395 2.291 . S
Mg372 O373 1.963 . S
Mg372 O383 1.942 . S
Mg372 O384 1.955 . S
Mg372 O391 1.986 . S
O373 Mg371 1.936 . S
O373 Mg372 1.963 . S
O373 Mg374 1.915 . S
Mg374 O373 1.915 . S
Mg374 O375 1.915 . S
Mg374 O379 2.013 . S
Mg374 O385 2.114 . S
Mg374 O389 2.013 . S
Mg374 O395 2.114 . S
O375 Mg374 1.915 . S
O375 Mg376 1.936 . S
O375 Mg377 1.963 1_455 S
Mg376 O375 1.936 . S
Mg376 O385 2.291 . S
Mg376 O390 2.081 . S
Mg376 O392 2.023 . S
Mg376 O396 2.031 . S
Mg377 O375 1.963 1_655 S
Mg377 O381 1.986 . S
Mg377 O393 1.942 . S
Mg377 O394 1.955 . S
C378 O389 1.191 . S
C378 O391 1.307 . S
O379 Mg374 2.013 . S
O379 C398 1.191 . S
O380 Mg371 2.081 . S
O380 C388 1.331 . S
O381 Mg377 1.986 . S
O381 C398 1.307 1_655 S
O382 Mg371 2.023 . S
O382 C397 1.264 . S
O383 Mg372 1.942 . S
O383 C388 1.244 . S
O384 Mg372 1.955 . S
O384 C397 1.273 . S
O385 Mg374 2.114 . S
O385 Mg376 2.291 . S
O385 C387 1.312 . S
O386 Mg371 2.031 . S
O386 C387 1.208 . S
C387 O385 1.312 . S
C387 O386 1.208 . S
C388 O380 1.331 . S
C388 O383 1.244 . S
O389 Mg374 2.013 . S
O389 C378 1.191 . S
O390 C369 1.331 1_455 S
O390 Mg376 2.081 . S
O391 Mg372 1.986 . S
O391 C378 1.307 . S
O392 C370 1.264 1_455 S
O392 Mg376 2.023 . S
O393 C369 1.244 . S
O393 Mg377 1.942 . S
O394 C370 1.273 . S
O394 Mg377 1.955 . S
O395 C368 1.312 . S
O395 Mg371 2.291 . S
O395 Mg374 2.114 . S
O396 C368 1.208 . S
O396 Mg376 2.031 . S
C397 O382 1.264 . S
C397 O384 1.273 . S
C398 O379 1.191 . S
C398 O381 1.307 1_455 S
C399 O426 1.312 . S
C399 O427 1.208 . S
C400 O421 1.331 . S
C400 O424 1.244 . S
C401 O423 1.264 . S
C401 O425 1.273 . S
Mg402 O404 1.936 . S
Mg402 O411 2.081 . S
Mg402 O413 2.023 . S
Mg402 O417 2.031 . S
Mg402 O426 2.291 . S
Mg403 O404 1.963 . S
Mg403 O414 1.942 . S
Mg403 O415 1.955 . S
Mg403 O422 1.986 . S
O404 Mg402 1.936 . S
O404 Mg403 1.963 . S
O404 Mg405 1.915 . S
Mg405 O404 1.915 . S
Mg405 O406 1.915 . S
Mg405 O410 2.013 . S
Mg405 O416 2.114 . S
Mg405 O420 2.013 . S
Mg405 O426 2.114 . S
O406 Mg405 1.915 . S
O406 Mg407 1.936 . S
O406 Mg408 1.963 . S
Mg407 O406 1.936 . S
Mg407 O416 2.291 . S
Mg407 O421 2.081 . S
Mg407 O423 2.023 . S
Mg407 O427 2.031 . S
Mg408 O406 1.963 . S
Mg408 O412 1.986 . S
Mg408 O424 1.942 . S
Mg408 O425 1.955 . S
C409 O420 1.191 . S
C409 O422 1.307 . S
O410 Mg405 2.013 . S
O410 C429 1.191 . S
O411 Mg402 2.081 . S
O411 C419 1.331 . S
O412 Mg408 1.986 . S
O412 C429 1.307 . S
O413 Mg402 2.023 . S
O413 C428 1.264 . S
O414 Mg403 1.942 . S
O414 C419 1.244 . S
O415 Mg403 1.955 . S
O415 C428 1.273 . S
O416 Mg405 2.114 . S
O416 Mg407 2.291 . S
O416 C418 1.312 . S
O417 Mg402 2.031 . S
O417 C418 1.208 . S
C418 O416 1.312 . S
C418 O417 1.208 . S
C419 O411 1.331 . S
C419 O414 1.244 . S
O420 Mg405 2.013 . S
O420 C409 1.191 . S
O421 C400 1.331 . S
O421 Mg407 2.081 . S
O422 Mg403 1.986 . S
O422 C409 1.307 . S
O423 C401 1.264 . S
O423 Mg407 2.023 . S
O424 C400 1.244 . S
O424 Mg408 1.942 . S
O425 C401 1.273 . S
O425 Mg408 1.955 . S
O426 C399 1.312 . S
O426 Mg402 2.291 . S
O426 Mg405 2.114 . S
O427 C399 1.208 . S
O427 Mg407 2.031 . S
C428 O413 1.264 . S
C428 O415 1.273 . S
C429 O410 1.191 . S
C429 O412 1.307 . S
C430 O457 1.312 . S
C430 O458 1.208 . S
C431 O452 1.331 . S
C431 O455 1.244 . S
C432 O454 1.264 . S
C432 O456 1.273 . S
Mg433 O435 1.936 . S
Mg433 O442 2.081 . S
Mg433 O444 2.023 . S
Mg433 O448 2.031 . S
Mg433 O457 2.291 . S
Mg434 O435 1.963 . S
Mg434 O445 1.942 . S
Mg434 O446 1.955 . S
Mg434 O453 1.986 . S
O435 Mg433 1.936 . S
O435 Mg434 1.963 . S
O435 Mg436 1.915 . S
Mg436 O435 1.915 . S
Mg436 O437 1.915 . S
Mg436 O441 2.013 . S
Mg436 O447 2.114 . S
Mg436 O451 2.013 . S
Mg436 O457 2.114 . S
O437 Mg436 1.915 . S
O437 Mg438 1.936 . S
O437 Mg439 1.963 . S
Mg438 O437 1.936 . S
Mg438 O447 2.291 . S
Mg438 O452 2.081 . S
Mg438 O454 2.023 . S
Mg438 O458 2.031 . S
Mg439 O437 1.963 . S
Mg439 O443 1.986 . S
Mg439 O455 1.942 . S
Mg439 O456 1.955 . S
C440 O451 1.191 . S
C440 O453 1.307 . S
O441 Mg436 2.013 . S
O441 C460 1.191 . S
O442 Mg433 2.081 . S
O442 C450 1.331 . S
O443 Mg439 1.986 . S
O443 C460 1.307 . S
O444 Mg433 2.023 . S
O444 C459 1.264 . S
O445 Mg434 1.942 . S
O445 C450 1.244 . S
O446 Mg434 1.955 . S
O446 C459 1.273 . S
O447 Mg436 2.114 . S
O447 Mg438 2.291 . S
O447 C449 1.312 . S
O448 Mg433 2.031 . S
O448 C449 1.208 . S
C449 O447 1.312 . S
C449 O448 1.208 . S
C450 O442 1.331 . S
C450 O445 1.244 . S
O451 Mg436 2.013 . S
O451 C440 1.191 . S
O452 C431 1.331 . S
O452 Mg438 2.081 . S
O453 Mg434 1.986 . S
O453 C440 1.307 . S
O454 C432 1.264 . S
O454 Mg438 2.023 . S
O455 C431 1.244 . S
O455 Mg439 1.942 . S
O456 C432 1.273 . S
O456 Mg439 1.955 . S
O457 C430 1.312 . S
O457 Mg433 2.291 . S
O457 Mg436 2.114 . S
O458 C430 1.208 . S
O458 Mg438 2.031 . S
C459 O444 1.264 . S
C459 O446 1.273 . S
C460 O441 1.191 . S
C460 O443 1.307 . S
C461 O488 1.312 . S
C461 O489 1.208 . S
C462 O483 1.331 . S
C462 O486 1.244 . S
C463 O485 1.264 . S
C463 O487 1.273 . S
Mg464 O466 1.936 . S
Mg464 O473 2.081 . S
Mg464 O475 2.023 . S
Mg464 O479 2.031 . S
Mg464 O488 2.291 . S
Mg465 O466 1.963 1_655 S
Mg465 O476 1.942 . S
Mg465 O477 1.955 . S
Mg465 O484 1.986 . S
O466 Mg464 1.936 . S
O466 Mg465 1.963 1_455 S
O466 Mg467 1.915 . S
Mg467 O466 1.915 . S
Mg467 O468 1.915 . S
Mg467 O472 2.013 . S
Mg467 O478 2.114 . S
Mg467 O482 2.013 . S
Mg467 O488 2.114 . S
O468 Mg467 1.915 . S
O468 Mg469 1.936 . S
O468 Mg470 1.963 . S
Mg469 O468 1.936 . S
Mg469 O478 2.291 . S
Mg469 O483 2.081 . S
Mg469 O485 2.023 . S
Mg469 O489 2.031 . S
Mg470 O468 1.963 . S
Mg470 O474 1.986 . S
Mg470 O486 1.942 . S
Mg470 O487 1.955 . S
C471 O482 1.191 . S
C471 O484 1.307 1_455 S
O472 Mg467 2.013 . S
O472 C491 1.191 . S
O473 Mg464 2.081 . S
O473 C481 1.331 1_455 S
O474 Mg470 1.986 . S
O474 C491 1.307 . S
O475 Mg464 2.023 . S
O475 C490 1.264 1_455 S
O476 Mg465 1.942 . S
O476 C481 1.244 . S
O477 Mg465 1.955 . S
O477 C490 1.273 . S
O478 Mg467 2.114 . S
O478 Mg469 2.291 . S
O478 C480 1.312 . S
O479 Mg464 2.031 . S
O479 C480 1.208 . S
C480 O478 1.312 . S
C480 O479 1.208 . S
C481 O473 1.331 1_655 S
C481 O476 1.244 . S
O482 Mg467 2.013 . S
O482 C471 1.191 . S
O483 C462 1.331 . S
O483 Mg469 2.081 . S
O484 Mg465 1.986 . S
O484 C471 1.307 1_655 S
O485 C463 1.264 . S
O485 Mg469 2.023 . S
O486 C462 1.244 . S
O486 Mg470 1.942 . S
O487 C463 1.273 . S
O487 Mg470 1.955 . S
O488 C461 1.312 . S
O488 Mg464 2.291 . S
O488 Mg467 2.114 . S
O489 C461 1.208 . S
O489 Mg469 2.031 . S
C490 O475 1.264 1_655 S
C490 O477 1.273 . S
C491 O472 1.191 . S
C491 O474 1.307 . S
C492 C493 1.349 . S
C492 C494 1.327 . S
C492 H517 0.950 . S
C493 C492 1.349 . S
C493 C509 1.349 . S
C494 C492 1.327 . S
C494 C513 1.429 . S
C494 H518 0.950 . S
C495 C512 1.574 . S
C495 C514 1.368 . S
C495 H519 0.949 . S
H496 C500 0.949 . S
C497 C498 1.349 . S
C497 C499 1.327 . S
C497 H520 0.950 . S
C498 C497 1.349 . S
C498 C510 1.349 . S
C499 C497 1.327 . S
C499 C515 1.429 . S
C499 H521 0.950 . S
C500 H496 0.949 . S
C500 C508 1.574 . S
C500 C516 1.368 . S
H501 C509 0.950 . S
H502 C507 0.950 . S
H503 C508 0.949 . S
H504 C510 0.950 . S
H505 C511 0.950 . S
H506 C512 0.949 . S
C507 H502 0.950 . S
C507 C509 1.327 . S
C507 C513 1.429 . S
C508 C500 1.574 . S
C508 H503 0.949 . S
C508 C514 1.368 . S
C509 C493 1.349 . S
C509 H501 0.950 . S
C509 C507 1.327 . S
C510 C498 1.349 . S
C510 H504 0.950 . S
C510 C511 1.327 . S
C511 H505 0.950 . S
C511 C510 1.327 . S
C511 C515 1.429 . S
C512 C495 1.574 . S
C512 H506 0.949 . S
C512 C516 1.368 . S
C513 C494 1.429 . S
C513 C507 1.429 . S
C513 C514 1.523 . S
C514 C495 1.368 . S
C514 C508 1.368 . S
C514 C513 1.523 . S
C515 C499 1.429 . S
C515 C511 1.429 . S
C515 C516 1.523 . S
C516 C500 1.368 . S
C516 C512 1.368 . S
C516 C515 1.523 . S
H517 C492 0.950 . S
H518 C494 0.950 . S
H519 C495 0.949 . S
H520 C497 0.950 . S
H521 C499 0.950 . S
C522 C523 1.349 . S
C522 C524 1.327 . S
C522 H547 0.950 . S
C523 C522 1.349 . S
C523 C539 1.349 . S
C524 C522 1.327 . S
C524 C543 1.429 . S
C524 H548 0.950 . S
C525 C542 1.574 1_565 S
C525 C544 1.368 . S
C525 H549 0.949 . S
H526 C530 0.949 . S
C527 C528 1.349 . S
C527 C529 1.327 . S
C527 H550 0.950 . S
C528 C527 1.349 . S
C528 C540 1.349 . S
C529 C527 1.327 . S
C529 C545 1.429 . S
C529 H551 0.950 . S
C530 H526 0.949 . S
C530 C538 1.574 1_545 S
C530 C546 1.368 . S
H531 C539 0.950 . S
H532 C537 0.950 . S
H533 C538 0.949 . S
H534 C540 0.950 . S
H535 C541 0.950 . S
H536 C542 0.949 . S
C537 H532 0.950 . S
C537 C539 1.327 . S
C537 C543 1.429 . S
C538 C530 1.574 1_565 S
C538 H533 0.949 . S
C538 C544 1.368 . S
C539 C523 1.349 . S
C539 H531 0.950 . S
C539 C537 1.327 . S
C540 C528 1.349 . S
C540 H534 0.950 . S
C540 C541 1.327 . S
C541 H535 0.950 . S
C541 C540 1.327 . S
C541 C545 1.429 . S
C542 C525 1.574 1_545 S
C542 H536 0.949 . S
C542 C546 1.368 . S
C543 C524 1.429 . S
C543 C537 1.429 . S
C543 C544 1.523 . S
C544 C525 1.368 . S
C544 C538 1.368 . S
C544 C543 1.523 . S
C545 C529 1.429 . S
C545 C541 1.429 . S
C545 C546 1.523 . S
C546 C530 1.368 . S
C546 C542 1.368 . S
C546 C545 1.523 . S
H547 C522 0.950 . S
H548 C524 0.950 . S
H549 C525 0.949 . S
H550 C527 0.950 . S
H551 C529 0.950 . S
C552 C553 1.349 . S
C552 C554 1.327 . S
C552 H577 0.950 . S
C553 C552 1.349 . S
C553 C569 1.349 . S
C554 C552 1.327 . S
C554 C573 1.429 . S
C554 H578 0.950 . S
C555 C572 1.574 . S
C555 C574 1.368 . S
C555 H579 0.949 . S
H556 C560 0.949 . S
C557 C558 1.349 . S
C557 C559 1.327 . S
C557 H580 0.950 . S
C558 C557 1.349 . S
C558 C570 1.349 . S
C559 C557 1.327 . S
C559 C575 1.429 . S
C559 H581 0.950 . S
C560 H556 0.949 . S
C560 C568 1.574 . S
C560 C576 1.368 . S
H561 C569 0.950 . S
H562 C567 0.950 . S
H563 C568 0.949 . S
H564 C570 0.950 . S
H565 C571 0.950 . S
H566 C572 0.949 . S
C567 H562 0.950 . S
C567 C569 1.327 . S
C567 C573 1.429 . S
C568 C560 1.574 . S
C568 H563 0.949 . S
C568 C574 1.368 . S
C569 C553 1.349 . S
C569 H561 0.950 . S
C569 C567 1.327 . S
C570 C558 1.349 . S
C570 H564 0.950 . S
C570 C571 1.327 . S
C571 H565 0.950 . S
C571 C570 1.327 . S
C571 C575 1.429 . S
C572 C555 1.574 . S
C572 H566 0.949 . S
C572 C576 1.368 . S
C573 C554 1.429 . S
C573 C567 1.429 . S
C573 C574 1.523 . S
C574 C555 1.368 . S
C574 C568 1.368 . S
C574 C573 1.523 . S
C575 C559 1.429 . S
C575 C571 1.429 . S
C575 C576 1.523 . S
C576 C560 1.368 . S
C576 C572 1.368 . S
C576 C575 1.523 . S
H577 C552 0.950 . S
H578 C554 0.950 . S
H579 C555 0.949 . S
H580 C557 0.950 . S
H581 C559 0.950 . S
C582 C583 1.349 . S
C582 C584 1.327 . S
C582 H607 0.950 . S
C583 C582 1.349 . S
C583 C599 1.349 . S
C584 C582 1.327 . S
C584 C603 1.429 . S
C584 H608 0.950 . S
C585 C602 1.574 1_545 S
C585 C604 1.368 . S
C585 H609 0.949 . S
H586 C590 0.949 . S
C587 C588 1.349 . S
C587 C589 1.327 . S
C587 H610 0.950 . S
C588 C587 1.349 . S
C588 C600 1.349 . S
C589 C587 1.327 . S
C589 C605 1.429 . S
C589 H611 0.950 . S
C590 H586 0.949 . S
C590 C598 1.574 1_565 S
C590 C606 1.368 . S
H591 C599 0.950 . S
H592 C597 0.950 . S
H593 C598 0.949 . S
H594 C600 0.950 . S
H595 C601 0.950 . S
H596 C602 0.949 . S
C597 H592 0.950 . S
C597 C599 1.327 . S
C597 C603 1.429 . S
C598 C590 1.574 1_545 S
C598 H593 0.949 . S
C598 C604 1.368 . S
C599 C583 1.349 . S
C599 H591 0.950 . S
C599 C597 1.327 . S
C600 C588 1.349 . S
C600 H594 0.950 . S
C600 C601 1.327 . S
C601 H595 0.950 . S
C601 C600 1.327 . S
C601 C605 1.429 . S
C602 C585 1.574 1_565 S
C602 H596 0.949 . S
C602 C606 1.368 . S
C603 C584 1.429 . S
C603 C597 1.429 . S
C603 C604 1.523 . S
C604 C585 1.368 . S
C604 C598 1.368 . S
C604 C603 1.523 . S
C605 C589 1.429 . S
C605 C601 1.429 . S
C605 C606 1.523 . S
C606 C590 1.368 . S
C606 C602 1.368 . S
C606 C605 1.523 . S
H607 C582 0.950 . S
H608 C584 0.950 . S
H609 C585 0.949 . S
H610 C587 0.950 . S
H611 C589 0.950 . S
C612 C613 1.349 . S
C612 C614 1.327 . S
C612 H637 0.950 . S
C613 C612 1.349 . S
C613 C629 1.349 . S
C614 C612 1.327 . S
C614 C633 1.429 . S
C614 H638 0.950 . S
C615 C632 1.574 . S
C615 C634 1.368 . S
C615 H639 0.949 . S
H616 C620 0.949 . S
C617 C618 1.349 . S
C617 C619 1.327 . S
C617 H640 0.950 . S
C618 C617 1.349 . S
C618 C630 1.349 . S
C619 C617 1.327 . S
C619 C635 1.429 . S
C619 H641 0.950 . S
C620 H616 0.949 . S
C620 C628 1.574 . S
C620 C636 1.368 . S
H621 C629 0.950 . S
H622 C627 0.950 . S
H623 C628 0.949 . S
H624 C630 0.950 . S
H625 C631 0.950 . S
H626 C632 0.949 . S
C627 H622 0.950 . S
C627 C629 1.327 . S
C627 C633 1.429 . S
C628 C620 1.574 . S
C628 H623 0.949 . S
C628 C634 1.368 . S
C629 C613 1.349 . S
C629 H621 0.950 . S
C629 C627 1.327 . S
C630 C618 1.349 . S
C630 H624 0.950 . S
C630 C631 1.327 . S
C631 H625 0.950 . S
C631 C630 1.327 . S
C631 C635 1.429 . S
C632 C615 1.574 . S
C632 H626 0.949 . S
C632 C636 1.368 . S
C633 C614 1.429 . S
C633 C627 1.429 . S
C633 C634 1.523 . S
C634 C615 1.368 . S
C634 C628 1.368 . S
C634 C633 1.523 . S
C635 C619 1.429 . S
C635 C631 1.429 . S
C635 C636 1.523 . S
C636 C620 1.368 . S
C636 C632 1.368 . S
C636 C635 1.523 . S
H637 C612 0.950 . S
H638 C614 0.950 . S
H639 C615 0.949 . S
H640 C617 0.950 . S
H641 C619 0.950 . S
C642 C643 1.349 . S
C642 C644 1.327 . S
C642 H667 0.950 . S
C643 C642 1.349 . S
C643 C659 1.349 . S
C644 C642 1.327 . S
C644 C663 1.429 . S
C644 H668 0.950 . S
C645 C662 1.574 1_565 S
C645 C664 1.368 . S
C645 H669 0.949 . S
H646 C650 0.949 . S
C647 C648 1.349 . S
C647 C649 1.327 . S
C647 H670 0.950 . S
C648 C647 1.349 . S
C648 C660 1.349 . S
C649 C647 1.327 . S
C649 C665 1.429 . S
C649 H671 0.950 . S
C650 H646 0.949 . S
C650 C658 1.574 1_545 S
C650 C666 1.368 . S
H651 C659 0.950 . S
H652 C657 0.950 . S
H653 C658 0.949 . S
H654 C660 0.950 . S
H655 C661 0.950 . S
H656 C662 0.949 . S
C657 H652 0.950 . S
C657 C659 1.327 . S
C657 C663 1.429 . S
C658 C650 1.574 1_565 S
C658 H653 0.949 . S
C658 C664 1.368 . S
C659 C643 1.349 . S
C659 H651 0.950 . S
C659 C657 1.327 . S
C660 C648 1.349 . S
C660 H654 0.950 . S
C660 C661 1.327 . S
C661 H655 0.950 . S
C661 C660 1.327 . S
C661 C665 1.429 . S
C662 C645 1.574 1_545 S
C662 H656 0.949 . S
C662 C666 1.368 . S
C663 C644 1.429 . S
C663 C657 1.429 . S
C663 C664 1.523 . S
C664 C645 1.368 . S
C664 C658 1.368 . S
C664 C663 1.523 . S
C665 C649 1.429 . S
C665 C661 1.429 . S
C665 C666 1.523 . S
C666 C650 1.368 . S
C666 C662 1.368 . S
C666 C665 1.523 . S
H667 C642 0.950 . S
H668 C644 0.950 . S
H669 C645 0.949 . S
H670 C647 0.950 . S
H671 C649 0.950 . S
C672 C673 1.349 . S
C672 C674 1.327 . S
C672 H697 0.950 . S
C673 C672 1.349 . S
C673 C689 1.349 . S
C674 C672 1.327 . S
C674 C693 1.429 . S
C674 H698 0.950 . S
C675 C692 1.574 . S
C675 C694 1.368 . S
C675 H699 0.949 . S
H676 C680 0.949 . S
C677 C678 1.349 . S
C677 C679 1.327 . S
C677 H700 0.950 . S
C678 C677 1.349 . S
C678 C690 1.349 . S
C679 C677 1.327 . S
C679 C695 1.429 . S
C679 H701 0.950 . S
C680 H676 0.949 . S
C680 C688 1.574 . S
C680 C696 1.368 . S
H681 C689 0.950 . S
H682 C687 0.950 . S
H683 C688 0.949 . S
H684 C690 0.950 . S
H685 C691 0.950 . S
H686 C692 0.949 . S
C687 H682 0.950 . S
C687 C689 1.327 . S
C687 C693 1.429 . S
C688 C680 1.574 . S
C688 H683 0.949 . S
C688 C694 1.368 . S
C689 C673 1.349 . S
C689 H681 0.950 . S
C689 C687 1.327 . S
C690 C678 1.349 . S
C690 H684 0.950 . S
C690 C691 1.327 . S
C691 H685 0.950 . S
C691 C690 1.327 . S
C691 C695 1.429 . S
C692 C675 1.574 . S
C692 H686 0.949 . S
C692 C696 1.368 . S
C693 C674 1.429 . S
C693 C687 1.429 . S
C693 C694 1.523 . S
C694 C675 1.368 . S
C694 C688 1.368 . S
C694 C693 1.523 . S
C695 C679 1.429 . S
C695 C691 1.429 . S
C695 C696 1.523 . S
C696 C680 1.368 . S
C696 C692 1.368 . S
C696 C695 1.523 . S
H697 C672 0.950 . S
H698 C674 0.950 . S
H699 C675 0.949 . S
H700 C677 0.950 . S
H701 C679 0.950 . S
C702 C703 1.349 . S
C702 C704 1.327 . S
C702 H727 0.950 . S
C703 C702 1.349 . S
C703 C719 1.349 . S
C704 C702 1.327 . S
C704 C723 1.429 . S
C704 H728 0.950 . S
C705 C722 1.574 1_545 S
C705 C724 1.368 . S
C705 H729 0.949 . S
H706 C710 0.949 . S
C707 C708 1.349 . S
C707 C709 1.327 . S
C707 H730 0.950 . S
C708 C707 1.349 . S
C708 C720 1.349 . S
C709 C707 1.327 . S
C709 C725 1.429 . S
C709 H731 0.950 . S
C710 H706 0.949 . S
C710 C718 1.574 1_565 S
C710 C726 1.368 . S
H711 C719 0.950 . S
H712 C717 0.950 . S
H713 C718 0.949 . S
H714 C720 0.950 . S
H715 C721 0.950 . S
H716 C722 0.949 . S
C717 H712 0.950 . S
C717 C719 1.327 . S
C717 C723 1.429 . S
C718 C710 1.574 1_545 S
C718 H713 0.949 . S
C718 C724 1.368 . S
C719 C703 1.349 . S
C719 H711 0.950 . S
C719 C717 1.327 . S
C720 C708 1.349 . S
C720 H714 0.950 . S
C720 C721 1.327 . S
C721 H715 0.950 . S
C721 C720 1.327 . S
C721 C725 1.429 . S
C722 C705 1.574 1_565 S
C722 H716 0.949 . S
C722 C726 1.368 . S
C723 C704 1.429 . S
C723 C717 1.429 . S
C723 C724 1.523 . S
C724 C705 1.368 . S
C724 C718 1.368 . S
C724 C723 1.523 . S
C725 C709 1.429 . S
C725 C721 1.429 . S
C725 C726 1.523 . S
C726 C710 1.368 . S
C726 C722 1.368 . S
C726 C725 1.523 . S
H727 C702 0.950 . S
H728 C704 0.950 . S
H729 C705 0.949 . S
H730 C707 0.950 . S
H731 C709 0.950 . S
C732 C733 1.349 . S
C732 C734 1.327 . S
C732 H757 0.950 . S
C733 C732 1.349 . S
C733 C749 1.349 . S
C734 C732 1.327 . S
C734 C753 1.429 . S
C734 H758 0.950 . S
C735 C752 1.574 . S
C735 C754 1.368 . S
C735 H759 0.949 . S
H736 C740 0.949 . S
C737 C738 1.349 . S
C737 C739 1.327 . S
C737 H760 0.950 . S
C738 C737 1.349 . S
C738 C750 1.349 . S
C739 C737 1.327 . S
C739 C755 1.429 . S
C739 H761 0.950 . S
C740 H736 0.949 . S
C740 C748 1.574 . S
C740 C756 1.368 . S
H741 C749 0.950 . S
H742 C747 0.950 . S
H743 C748 0.949 . S
H744 C750 0.950 . S
H745 C751 0.950 . S
H746 C752 0.949 . S
C747 H742 0.950 . S
C747 C749 1.327 . S
C747 C753 1.429 . S
C748 C740 1.574 . S
C748 H743 0.949 . S
C748 C754 1.368 . S
C749 C733 1.349 . S
C749 H741 0.950 . S
C749 C747 1.327 . S
C750 C738 1.349 . S
C750 H744 0.950 . S
C750 C751 1.327 . S
C751 H745 0.950 . S
C751 C750 1.327 . S
C751 C755 1.429 . S
C752 C735 1.574 . S
C752 H746 0.949 . S
C752 C756 1.368 . S
C753 C734 1.429 . S
C753 C747 1.429 . S
C753 C754 1.523 . S
C754 C735 1.368 . S
C754 C748 1.368 . S
C754 C753 1.523 . S
C755 C739 1.429 . S
C755 C751 1.429 . S
C755 C756 1.523 . S
C756 C740 1.368 . S
C756 C752 1.368 . S
C756 C755 1.523 . S
H757 C732 0.950 . S
H758 C734 0.950 . S
H759 C735 0.949 . S
H760 C737 0.950 . S
H761 C739 0.950 . S
C762 C763 1.349 . S
C762 C764 1.327 . S
C762 H787 0.950 . S
C763 C762 1.349 . S
C763 C779 1.349 . S
C764 C762 1.327 . S
C764 C783 1.429 1_545 S
C764 H788 0.950 . S
C765 C782 1.574 . S
C765 C784 1.368 . S
C765 H789 0.949 . S
H766 C770 0.949 . S
C767 C768 1.349 . S
C767 C769 1.327 . S
C767 H790 0.950 . S
C768 C767 1.349 . S
C768 C780 1.349 . S
C769 C767 1.327 . S
C769 C785 1.429 . S
C769 H791 0.950 . S
C770 H766 0.949 . S
C770 C778 1.574 . S
C770 C786 1.368 . S
H771 C779 0.950 1_565 S
H772 C777 0.950 . S
H773 C778 0.949 . S
H774 C780 0.950 . S
H775 C781 0.950 . S
H776 C782 0.949 . S
C777 H772 0.950 . S
C777 C779 1.327 1_565 S
C777 C783 1.429 . S
C778 C770 1.574 . S
C778 H773 0.949 . S
C778 C784 1.368 . S
C779 C763 1.349 . S
C779 H771 0.950 1_545 S
C779 C777 1.327 1_545 S
C780 C768 1.349 . S
C780 H774 0.950 . S
C780 C781 1.327 . S
C781 H775 0.950 . S
C781 C780 1.327 . S
C781 C785 1.429 . S
C782 C765 1.574 . S
C782 H776 0.949 . S
C782 C786 1.368 . S
C783 C764 1.429 1_565 S
C783 C777 1.429 . S
C783 C784 1.523 . S
C784 C765 1.368 . S
C784 C778 1.368 . S
C784 C783 1.523 . S
C785 C769 1.429 . S
C785 C781 1.429 . S
C785 C786 1.523 . S
C786 C770 1.368 . S
C786 C782 1.368 . S
C786 C785 1.523 . S
H787 C762 0.950 . S
H788 C764 0.950 . S
H789 C765 0.949 . S
H790 C767 0.950 . S
H791 C769 0.950 . S
C792 C793 1.349 . S
C792 C794 1.327 . S
C792 H817 0.950 . S
C793 C792 1.349 . S
C793 C809 1.349 . S
C794 C792 1.327 . S
C794 C813 1.429 . S
C794 H818 0.950 . S
C795 C812 1.574 . S
C795 C814 1.368 . S
C795 H819 0.949 . S
H796 C800 0.949 . S
C797 C798 1.349 1_655 S
C797 C799 1.327 . S
C797 H820 0.950 . S
C798 C797 1.349 1_455 S
C798 C810 1.349 . S
C799 C797 1.327 . S
C799 C815 1.429 . S
C799 H821 0.950 . S
C800 H796 0.949 . S
C800 C808 1.574 . S
C800 C816 1.368 . S
H801 C809 0.950 . S
H802 C807 0.950 . S
H803 C808 0.949 . S
H804 C810 0.950 . S
H805 C811 0.950 . S
H806 C812 0.949 . S
C807 H802 0.950 . S
C807 C809 1.327 . S
C807 C813 1.429 . S
C808 C800 1.574 . S
C808 H803 0.949 . S
C808 C814 1.368 . S
C809 C793 1.349 . S
C809 H801 0.950 . S
C809 C807 1.327 . S
C810 C798 1.349 . S
C810 H804 0.950 . S
C810 C811 1.327 1_455 S
C811 H805 0.950 . S
C811 C810 1.327 1_655 S
C811 C815 1.429 . S
C812 C795 1.574 . S
C812 H806 0.949 . S
C812 C816 1.368 . S
C813 C794 1.429 . S
C813 C807 1.429 . S
C813 C814 1.523 . S
C814 C795 1.368 . S
C814 C808 1.368 . S
C814 C813 1.523 . S
C815 C799 1.429 . S
C815 C811 1.429 . S
C815 C816 1.523 . S
C816 C800 1.368 . S
C816 C812 1.368 . S
C816 C815 1.523 . S
H817 C792 0.950 . S
H818 C794 0.950 . S
H819 C795 0.949 . S
H820 C797 0.950 . S
H821 C799 0.950 . S
C822 C823 1.349 . S
C822 C824 1.327 . S
C822 H847 0.950 . S
C823 C822 1.349 . S
C823 C839 1.349 . S
C824 C822 1.327 . S
C824 C843 1.429 1_565 S
C824 H848 0.950 1_565 S
C825 C842 1.574 . S
C825 C844 1.368 . S
C825 H849 0.949 . S
H826 C830 0.949 1_455 S
C827 C828 1.349 1_655 S
C827 C829 1.327 . S
C827 H850 0.950 . S
C828 C827 1.349 1_455 S
C828 C840 1.349 . S
C829 C827 1.327 . S
C829 C845 1.429 . S
C829 H851 0.950 . S
C830 H826 0.949 1_655 S
C830 C838 1.574 . S
C830 C846 1.368 . S
H831 C839 0.950 . S
H832 C837 0.950 . S
H833 C838 0.949 . S
H834 C840 0.950 . S
H835 C841 0.950 . S
H836 C842 0.949 . S
C837 H832 0.950 . S
C837 C839 1.327 1_545 S
C837 C843 1.429 . S
C838 C830 1.574 . S
C838 H833 0.949 . S
C838 C844 1.368 . S
C839 C823 1.349 . S
C839 H831 0.950 . S
C839 C837 1.327 1_565 S
C840 C828 1.349 . S
C840 H834 0.950 . S
C840 C841 1.327 . S
C841 H835 0.950 . S
C841 C840 1.327 . S
C841 C845 1.429 1_455 S
C842 C825 1.574 . S
C842 H836 0.949 . S
C842 C846 1.368 . S
C843 C824 1.429 1_545 S
C843 C837 1.429 . S
C843 C844 1.523 . S
C844 C825 1.368 . S
C844 C838 1.368 . S
C844 C843 1.523 . S
C845 C829 1.429 . S
C845 C841 1.429 1_655 S
C845 C846 1.523 . S
C846 C830 1.368 . S
C846 C842 1.368 . S
C846 C845 1.523 . S
H847 C822 0.950 . S
H848 C824 0.950 1_545 S
H849 C825 0.949 . S
H850 C827 0.950 . S
H851 C829 0.950 . S
C852 C853 1.349 . S
C852 C854 1.327 . S
C852 H877 0.950 . S
C853 C852 1.349 . S
C853 C869 1.349 . S
C854 C852 1.327 . S
C854 C873 1.429 . S
C854 H878 0.950 . S
C855 C872 1.574 . S
C855 C874 1.368 . S
C855 H879 0.949 . S
H856 C860 0.949 . S
C857 C858 1.349 . S
C857 C859 1.327 . S
C857 H880 0.950 . S
C858 C857 1.349 . S
C858 C870 1.349 . S
C859 C857 1.327 . S
C859 C875 1.429 . S
C859 H881 0.950 . S
C860 H856 0.949 . S
C860 C868 1.574 . S
C860 C876 1.368 . S
H861 C869 0.950 . S
H862 C867 0.950 . S
H863 C868 0.949 . S
H864 C870 0.950 . S
H865 C871 0.950 . S
H866 C872 0.949 . S
C867 H862 0.950 . S
C867 C869 1.327 . S
C867 C873 1.429 . S
C868 C860 1.574 . S
C868 H863 0.949 . S
C868 C874 1.368 . S
C869 C853 1.349 . S
C869 H861 0.950 . S
C869 C867 1.327 . S
C870 C858 1.349 . S
C870 H864 0.950 . S
C870 C871 1.327 . S
C871 H865 0.950 . S
C871 C870 1.327 . S
C871 C875 1.429 . S
C872 C855 1.574 . S
C872 H866 0.949 . S
C872 C876 1.368 . S
C873 C854 1.429 . S
C873 C867 1.429 . S
C873 C874 1.523 . S
C874 C855 1.368 . S
C874 C868 1.368 . S
C874 C873 1.523 . S
C875 C859 1.429 . S
C875 C871 1.429 . S
C875 C876 1.523 . S
C876 C860 1.368 . S
C876 C872 1.368 . S
C876 C875 1.523 . S
H877 C852 0.950 . S
H878 C854 0.950 . S
H879 C855 0.949 . S
H880 C857 0.950 . S
H881 C859 0.950 . S
C882 C883 1.349 1_565 S
C882 C884 1.327 . S
C882 H907 0.950 . S
C883 C882 1.349 1_545 S
C883 C899 1.349 . S
C884 C882 1.327 . S
C884 C903 1.429 . S
C884 H908 0.950 . S
C885 C902 1.574 . S
C885 C904 1.368 . S
C885 H909 0.949 . S
H886 C890 0.949 . S
C887 C888 1.349 . S
C887 C889 1.327 . S
C887 H910 0.950 . S
C888 C887 1.349 . S
C888 C900 1.335 1_455 S
C889 C887 1.327 . S
C889 C905 1.429 1_455 S
C889 H911 0.950 . S
C890 H886 0.949 . S
C890 C898 1.574 . S
C890 C906 1.368 . S
H891 C899 0.950 . S
H892 C897 0.950 . S
H893 C898 0.949 . S
H894 C900 0.953 . S
H895 C901 0.950 . S
H896 C902 0.949 . S
C897 H892 0.950 . S
C897 C899 1.327 . S
C897 C903 1.429 1_545 S
C898 C890 1.574 . S
C898 H893 0.949 . S
C898 C904 1.368 . S
C899 C883 1.349 . S
C899 H891 0.950 . S
C899 C897 1.327 . S
C900 C888 1.335 1_655 S
C900 H894 0.953 . S
C900 C901 1.339 . S
C901 H895 0.950 . S
C901 C900 1.339 . S
C901 C905 1.429 . S
C902 C885 1.574 . S
C902 H896 0.949 . S
C902 C906 1.368 . S
C903 C884 1.429 . S
C903 C897 1.429 1_565 S
C903 C904 1.523 . S
C904 C885 1.368 . S
C904 C898 1.368 . S
C904 C903 1.523 . S
C905 C889 1.429 1_655 S
C905 C901 1.429 . S
C905 C906 1.523 . S
C906 C890 1.368 . S
C906 C902 1.368 . S
C906 C905 1.523 . S
H907 C882 0.950 . S
H908 C884 0.950 . S
H909 C885 0.949 . S
H910 C887 0.950 . S
H911 C889 0.950 . S
C912 C913 1.349 . S
C912 C914 1.327 . S
C912 H937 0.950 . S
C913 C912 1.349 . S
C913 C929 1.349 . S
C914 C912 1.327 . S
C914 C933 1.429 . S
C914 H938 0.950 . S
C915 C932 1.574 . S
C915 C934 1.368 . S
C915 H939 0.949 . S
H916 C920 0.949 . S
C917 C918 1.349 . S
C917 C919 1.327 1_455 S
C917 H940 0.950 . S
C918 C917 1.349 . S
C918 C930 1.349 . S
C919 C917 1.327 1_655 S
C919 C935 1.429 . S
C919 H941 0.950 . S
C920 H916 0.949 . S
C920 C928 1.574 . S
C920 C936 1.368 . S
H921 C929 0.950 . S
H922 C927 0.950 . S
H923 C928 0.949 . S
H924 C930 0.950 . S
H925 C931 0.950 . S
H926 C932 0.949 . S
C927 H922 0.950 . S
C927 C929 1.327 . S
C927 C933 1.429 . S
C928 C920 1.574 . S
C928 H923 0.949 . S
C928 C934 1.368 . S
C929 C913 1.349 . S
C929 H921 0.950 . S
C929 C927 1.327 . S
C930 C918 1.349 . S
C930 H924 0.950 . S
C930 C931 1.327 1_455 S
C931 H925 0.950 . S
C931 C930 1.327 1_655 S
C931 C935 1.429 . S
C932 C915 1.574 . S
C932 H926 0.949 . S
C932 C936 1.368 . S
C933 C914 1.429 . S
C933 C927 1.429 . S
C933 C934 1.523 . S
C934 C915 1.368 . S
C934 C928 1.368 . S
C934 C933 1.523 . S
C935 C919 1.429 . S
C935 C931 1.429 . S
C935 C936 1.523 . S
C936 C920 1.368 . S
C936 C932 1.368 . S
C936 C935 1.523 . S
H937 C912 0.950 . S
H938 C914 0.950 . S
H939 C915 0.949 . S
H940 C917 0.950 . S
H941 C919 0.950 . S
C942 C943 1.349 1_545 S
C942 C944 1.327 . S
C942 H967 0.950 . S
C943 C942 1.349 1_565 S
C943 C959 1.349 . S
C944 C942 1.327 . S
C944 C963 1.429 . S
C944 H968 0.950 . S
C945 C962 1.574 . S
C945 C964 1.368 . S
C945 H969 0.949 . S
H946 C950 0.949 . S
C947 C948 1.349 . S
C947 C949 1.327 . S
C947 H970 0.950 . S
C948 C947 1.349 . S
C948 C960 1.349 . S
C949 C947 1.327 . S
C949 C965 1.429 . S
C949 H971 0.950 . S
C950 H946 0.949 . S
C950 C958 1.574 . S
C950 C966 1.368 . S
H951 C959 0.950 . S
H952 C957 0.950 . S
H953 C958 0.949 . S
H954 C960 0.950 . S
H955 C961 0.950 . S
H956 C962 0.949 . S
C957 H952 0.950 . S
C957 C959 1.327 . S
C957 C963 1.429 1_565 S
C958 C950 1.574 . S
C958 H953 0.949 . S
C958 C964 1.368 . S
C959 C943 1.349 . S
C959 H951 0.950 . S
C959 C957 1.327 . S
C960 C948 1.349 . S
C960 H954 0.950 . S
C960 C961 1.327 . S
C961 H955 0.950 . S
C961 C960 1.327 . S
C961 C965 1.429 . S
C962 C945 1.574 . S
C962 H956 0.949 . S
C962 C966 1.368 . S
C963 C944 1.429 . S
C963 C957 1.429 1_545 S
C963 C964 1.523 . S
C964 C945 1.368 . S
C964 C958 1.368 . S
C964 C963 1.523 . S
C965 C949 1.429 . S
C965 C961 1.429 . S
C965 C966 1.523 . S
C966 C950 1.368 . S
C966 C962 1.368 . S
C966 C965 1.523 . S
H967 C942 0.950 . S
H968 C944 0.950 . S
H969 C945 0.949 . S
H970 C947 0.950 . S
H971 C949 0.950 . S
C972 C973 1.349 . S
C972 C974 1.327 . S
C972 H997 0.950 . S
C973 C972 1.349 . S
C973 C989 1.349 . S
C974 C972 1.327 . S
C974 C993 1.429 . S
C974 H998 0.950 . S
C975 C992 1.574 . S
C975 C994 1.368 . S
C975 H999 0.949 . S
H976 C980 0.949 . S
C977 C978 1.349 . S
C977 C979 1.327 . S
C977 H1000 0.950 . S
C978 C977 1.349 . S
C978 C990 1.349 . S
C979 C977 1.327 . S
C979 C995 1.429 . S
C979 H1001 0.950 . S
C980 H976 0.949 . S
C980 C988 1.574 . S
C980 C996 1.368 . S
H981 C989 0.950 . S
H982 C987 0.950 . S
H983 C988 0.949 . S
H984 C990 0.950 . S
H985 C991 0.950 . S
H986 C992 0.949 . S
C987 H982 0.950 . S
C987 C989 1.327 . S
C987 C993 1.429 . S
C988 C980 1.574 . S
C988 H983 0.949 . S
C988 C994 1.368 . S
C989 C973 1.349 . S
C989 H981 0.950 . S
C989 C987 1.327 . S
C990 C978 1.349 . S
C990 H984 0.950 . S
C990 C991 1.327 . S
C991 H985 0.950 . S
C991 C990 1.327 . S
C991 C995 1.429 . S
C992 C975 1.574 . S
C992 H986 0.949 . S
C992 C996 1.368 . S
C993 C974 1.429 . S
C993 C987 1.429 . S
C993 C994 1.523 . S
C994 C975 1.368 . S
C994 C988 1.368 . S
C994 C993 1.523 . S
C995 C979 1.429 . S
C995 C991 1.429 . S
C995 C996 1.523 . S
C996 C980 1.368 . S
C996 C992 1.368 . S
C996 C995 1.523 . S
H997 C972 0.950 . S
H998 C974 0.950 . S
H999 C975 0.949 . S
H1000 C977 0.950 . S
H1001 C979 0.950 . S
C1002 C1003 1.349 . S
C1002 C1004 1.327 . S
C1002 H1027 0.950 . S
C1003 C1002 1.349 . S
C1003 C1019 1.349 . S
C1004 C1002 1.327 . S
C1004 C1023 1.429 . S
C1004 H1028 0.950 . S
C1005 C1022 1.574 . S
C1005 C1024 1.368 . S
C1005 H1029 0.949 . S
H1006 C1010 0.949 . S
C1007 C1008 1.349 . S
C1007 C1009 1.327 . S
C1007 H1030 0.950 1_655 S
C1008 C1007 1.349 . S
C1008 C1020 1.349 . S
C1009 C1007 1.327 . S
C1009 C1025 1.429 . S
C1009 H1031 0.950 . S
C1010 H1006 0.949 . S
C1010 C1018 1.574 . S
C1010 C1026 1.368 . S
H1011 C1019 0.950 . S
H1012 C1017 0.950 . S
H1013 C1018 0.949 . S
H1014 C1020 0.950 . S
H1015 C1021 0.950 . S
H1016 C1022 0.949 . S
C1017 H1012 0.950 . S
C1017 C1019 1.327 . S
C1017 C1023 1.429 . S
C1018 C1010 1.574 . S
C1018 H1013 0.949 . S
C1018 C1024 1.368 . S
C1019 C1003 1.349 . S
C1019 H1011 0.950 . S
C1019 C1017 1.327 . S
C1020 C1008 1.349 . S
C1020 H1014 0.950 . S
C1020 C1021 1.327 . S
C1021 H1015 0.950 . S
C1021 C1020 1.327 . S
C1021 C1025 1.429 . S
C1022 C1005 1.574 . S
C1022 H1016 0.949 . S
C1022 C1026 1.368 . S
C1023 C1004 1.429 . S
C1023 C1017 1.429 . S
C1023 C1024 1.523 . S
C1024 C1005 1.368 . S
C1024 C1018 1.368 . S
C1024 C1023 1.523 . S
C1025 C1009 1.429 . S
C1025 C1021 1.429 . S
C1025 C1026 1.523 . S
C1026 C1010 1.368 . S
C1026 C1022 1.368 . S
C1026 C1025 1.523 . S
H1027 C1002 0.950 . S
H1028 C1004 0.950 . S
H1029 C1005 0.949 . S
H1030 C1007 0.950 1_455 S
H1031 C1009 0.950 . S
C1032 C1033 1.349 . S
C1032 C1034 1.327 . S
C1032 H1057 0.950 . S
C1033 C1032 1.349 . S
C1033 C1049 1.349 . S
C1034 C1032 1.327 . S
C1034 C1053 1.429 . S
C1034 H1058 0.950 . S
C1035 C1052 1.574 . S
C1035 C1054 1.368 . S
C1035 H1059 0.949 . S
H1036 C1040 0.949 . S
C1037 C1038 1.349 . S
C1037 C1039 1.327 . S
C1037 H1060 0.950 . S
C1038 C1037 1.349 . S
C1038 C1050 1.349 . S
C1039 C1037 1.327 . S
C1039 C1055 1.429 . S
C1039 H1061 0.950 . S
C1040 H1036 0.949 . S
C1040 C1048 1.574 . S
C1040 C1056 1.368 . S
H1041 C1049 0.950 . S
H1042 C1047 0.950 . S
H1043 C1048 0.949 . S
H1044 C1050 0.950 . S
H1045 C1051 0.950 . S
H1046 C1052 0.949 . S
C1047 H1042 0.950 . S
C1047 C1049 1.327 . S
C1047 C1053 1.429 . S
C1048 C1040 1.574 . S
C1048 H1043 0.949 . S
C1048 C1054 1.368 . S
C1049 C1033 1.349 . S
C1049 H1041 0.950 . S
C1049 C1047 1.327 . S
C1050 C1038 1.349 . S
C1050 H1044 0.950 . S
C1050 C1051 1.327 . S
C1051 H1045 0.950 . S
C1051 C1050 1.327 . S
C1051 C1055 1.429 . S
C1052 C1035 1.574 . S
C1052 H1046 0.949 . S
C1052 C1056 1.368 . S
C1053 C1034 1.429 . S
C1053 C1047 1.429 . S
C1053 C1054 1.523 . S
C1054 C1035 1.368 . S
C1054 C1048 1.368 . S
C1054 C1053 1.523 . S
C1055 C1039 1.429 . S
C1055 C1051 1.429 . S
C1055 C1056 1.523 . S
C1056 C1040 1.368 . S
C1056 C1052 1.368 . S
C1056 C1055 1.523 . S
H1057 C1032 0.950 . S
H1058 C1034 0.950 . S
H1059 C1035 0.949 . S
H1060 C1037 0.950 . S
H1061 C1039 0.950 . S
C1062 C1063 1.349 . S
C1062 C1064 1.327 . S
C1062 H1087 0.950 . S
C1063 C1062 1.349 . S
C1063 C1079 1.349 . S
C1064 C1062 1.327 . S
C1064 C1083 1.429 . S
C1064 H1088 0.950 . S
C1065 C1082 1.574 . S
C1065 C1084 1.368 . S
C1065 H1089 0.949 . S
H1066 C1070 0.949 . S
C1067 C1068 1.349 . S
C1067 C1069 1.327 . S
C1067 H1090 0.950 . S
C1068 C1067 1.349 . S
C1068 C1080 1.349 . S
C1069 C1067 1.327 . S
C1069 C1085 1.429 . S
C1069 H1091 0.950 . S
C1070 H1066 0.949 . S
C1070 C1078 1.574 . S
C1070 C1086 1.368 . S
H1071 C1079 0.950 . S
H1072 C1077 0.950 . S
H1073 C1078 0.949 . S
H1074 C1080 0.950 . S
H1075 C1081 0.950 . S
H1076 C1082 0.949 . S
C1077 H1072 0.950 . S
C1077 C1079 1.327 . S
C1077 C1083 1.429 . S
C1078 C1070 1.574 . S
C1078 H1073 0.949 . S
C1078 C1084 1.368 . S
C1079 C1063 1.349 . S
C1079 H1071 0.950 . S
C1079 C1077 1.327 . S
C1080 C1068 1.349 . S
C1080 H1074 0.950 . S
C1080 C1081 1.327 . S
C1081 H1075 0.950 . S
C1081 C1080 1.327 . S
C1081 C1085 1.429 . S
C1082 C1065 1.574 . S
C1082 H1076 0.949 . S
C1082 C1086 1.368 . S
C1083 C1064 1.429 . S
C1083 C1077 1.429 . S
C1083 C1084 1.523 . S
C1084 C1065 1.368 . S
C1084 C1078 1.368 . S
C1084 C1083 1.523 . S
C1085 C1069 1.429 . S
C1085 C1081 1.429 . S
C1085 C1086 1.523 . S
C1086 C1070 1.368 . S
C1086 C1082 1.368 . S
C1086 C1085 1.523 . S
H1087 C1062 0.950 . S
H1088 C1064 0.950 . S
H1089 C1065 0.949 . S
H1090 C1067 0.950 . S
H1091 C1069 0.950 . S
C1092 C1093 1.349 . S
C1092 C1094 1.327 . S
C1092 H1117 0.950 . S
C1093 C1092 1.349 . S
C1093 C1109 1.349 . S
C1094 C1092 1.327 . S
C1094 C1113 1.429 . S
C1094 H1118 0.950 . S
C1095 C1112 1.574 . S
C1095 C1114 1.368 . S
C1095 H1119 0.949 . S
H1096 C1100 0.949 . S
C1097 C1098 1.349 . S
C1097 C1099 1.327 . S
C1097 H1120 0.950 . S
C1098 C1097 1.349 . S
C1098 C1110 1.349 . S
C1099 C1097 1.327 . S
C1099 C1115 1.429 . S
C1099 H1121 0.950 . S
C1100 H1096 0.949 . S
C1100 C1108 1.574 . S
C1100 C1116 1.368 . S
H1101 C1109 0.950 . S
H1102 C1107 0.950 . S
H1103 C1108 0.949 . S
H1104 C1110 0.950 . S
H1105 C1111 0.950 . S
H1106 C1112 0.949 . S
C1107 H1102 0.950 . S
C1107 C1109 1.327 . S
C1107 C1113 1.429 . S
C1108 C1100 1.574 . S
C1108 H1103 0.949 . S
C1108 C1114 1.368 . S
C1109 C1093 1.349 . S
C1109 H1101 0.950 . S
C1109 C1107 1.327 . S
C1110 C1098 1.349 . S
C1110 H1104 0.950 . S
C1110 C1111 1.327 . S
C1111 H1105 0.950 . S
C1111 C1110 1.327 . S
C1111 C1115 1.429 . S
C1112 C1095 1.574 . S
C1112 H1106 0.949 . S
C1112 C1116 1.368 . S
C1113 C1094 1.429 . S
C1113 C1107 1.429 . S
C1113 C1114 1.523 . S
C1114 C1095 1.368 . S
C1114 C1108 1.368 . S
C1114 C1113 1.523 . S
C1115 C1099 1.429 . S
C1115 C1111 1.429 . S
C1115 C1116 1.523 . S
C1116 C1100 1.368 . S
C1116 C1112 1.368 . S
C1116 C1115 1.523 . S
H1117 C1092 0.950 . S
H1118 C1094 0.950 . S
H1119 C1095 0.949 . S
H1120 C1097 0.950 . S
H1121 C1099 0.950 . S
C1122 C1123 1.349 . S
C1122 C1124 1.327 . S
C1122 H1147 0.950 . S
C1123 C1122 1.349 . S
C1123 C1139 1.349 . S
C1124 C1122 1.327 . S
C1124 C1143 1.429 . S
C1124 H1148 0.950 . S
C1125 C1142 1.574 . S
C1125 C1144 1.368 . S
C1125 H1149 0.949 . S
H1126 C1130 0.949 . S
C1127 C1128 1.349 . S
C1127 C1129 1.327 . S
C1127 H1150 0.950 . S
C1128 C1127 1.349 . S
C1128 C1140 1.349 . S
C1129 C1127 1.327 . S
C1129 C1145 1.429 . S
C1129 H1151 0.950 . S
C1130 H1126 0.949 . S
C1130 C1138 1.574 . S
C1130 C1146 1.368 . S
H1131 C1139 0.950 . S
H1132 C1137 0.950 . S
H1133 C1138 0.949 . S
H1134 C1140 0.950 . S
H1135 C1141 0.950 . S
H1136 C1142 0.949 . S
C1137 H1132 0.950 . S
C1137 C1139 1.327 . S
C1137 C1143 1.429 . S
C1138 C1130 1.574 . S
C1138 H1133 0.949 . S
C1138 C1144 1.368 . S
C1139 C1123 1.349 . S
C1139 H1131 0.950 . S
C1139 C1137 1.327 . S
C1140 C1128 1.349 . S
C1140 H1134 0.950 . S
C1140 C1141 1.327 . S
C1141 H1135 0.950 . S
C1141 C1140 1.327 . S
C1141 C1145 1.429 . S
C1142 C1125 1.574 . S
C1142 H1136 0.949 . S
C1142 C1146 1.368 . S
C1143 C1124 1.429 . S
C1143 C1137 1.429 . S
C1143 C1144 1.523 . S
C1144 C1125 1.368 . S
C1144 C1138 1.368 . S
C1144 C1143 1.523 . S
C1145 C1129 1.429 . S
C1145 C1141 1.429 . S
C1145 C1146 1.523 . S
C1146 C1130 1.368 . S
C1146 C1142 1.368 . S
C1146 C1145 1.523 . S
H1147 C1122 0.950 . S
H1148 C1124 0.950 . S
H1149 C1125 0.949 . S
H1150 C1127 0.950 . S
H1151 C1129 0.950 . S
C1152 C1153 1.349 . S
C1152 C1154 1.327 . S
C1152 H1177 0.950 . S
C1153 C1152 1.349 . S
C1153 C1169 1.349 . S
C1154 C1152 1.327 . S
C1154 C1173 1.429 . S
C1154 H1178 0.950 . S
C1155 C1172 1.574 . S
C1155 C1174 1.368 . S
C1155 H1179 0.949 . S
H1156 C1160 0.949 . S
C1157 C1158 1.349 . S
C1157 C1159 1.327 . S
C1157 H1180 0.950 . S
C1158 C1157 1.349 . S
C1158 C1170 1.349 . S
C1159 C1157 1.327 . S
C1159 C1175 1.429 . S
C1159 H1181 0.950 . S
C1160 H1156 0.949 . S
C1160 C1168 1.574 . S
C1160 C1176 1.368 . S
H1161 C1169 0.950 . S
H1162 C1167 0.950 . S
H1163 C1168 0.949 . S
H1164 C1170 0.950 . S
H1165 C1171 0.950 . S
H1166 C1172 0.949 . S
C1167 H1162 0.950 . S
C1167 C1169 1.327 . S
C1167 C1173 1.429 . S
C1168 C1160 1.574 . S
C1168 H1163 0.949 . S
C1168 C1174 1.368 . S
C1169 C1153 1.349 . S
C1169 H1161 0.950 . S
C1169 C1167 1.327 . S
C1170 C1158 1.349 . S
C1170 H1164 0.950 . S
C1170 C1171 1.327 . S
C1171 H1165 0.950 . S
C1171 C1170 1.327 . S
C1171 C1175 1.429 . S
C1172 C1155 1.574 . S
C1172 H1166 0.949 . S
C1172 C1176 1.368 . S
C1173 C1154 1.429 . S
C1173 C1167 1.429 . S
C1173 C1174 1.523 . S
C1174 C1155 1.368 . S
C1174 C1168 1.368 . S
C1174 C1173 1.523 . S
C1175 C1159 1.429 . S
C1175 C1171 1.429 . S
C1175 C1176 1.523 . S
C1176 C1160 1.368 . S
C1176 C1172 1.368 . S
C1176 C1175 1.523 . S
H1177 C1152 0.950 . S
H1178 C1154 0.950 . S
H1179 C1155 0.949 . S
H1180 C1157 0.950 . S
H1181 C1159 0.950 . S
C1182 C1183 1.349 . S
C1182 C1184 1.327 . S
C1182 H1207 0.950 . S
C1183 C1182 1.349 . S
C1183 C1199 1.349 . S
C1184 C1182 1.327 . S
C1184 C1203 1.429 . S
C1184 H1208 0.950 . S
C1185 C1202 1.574 . S
C1185 C1204 1.368 . S
C1185 H1209 0.949 . S
H1186 C1190 0.949 . S
C1187 C1188 1.349 . S
C1187 C1189 1.327 . S
C1187 H1210 0.950 . S
C1188 C1187 1.349 . S
C1188 C1200 1.349 . S
C1189 C1187 1.327 . S
C1189 C1205 1.429 . S
C1189 H1211 0.950 . S
C1190 H1186 0.949 . S
C1190 C1198 1.574 . S
C1190 C1206 1.368 . S
H1191 C1199 0.950 . S
H1192 C1197 0.950 . S
H1193 C1198 0.949 . S
H1194 C1200 0.950 1_455 S
H1195 C1201 0.941 1_455 S
H1196 C1202 0.949 . S
C1197 H1192 0.950 . S
C1197 C1199 1.327 . S
C1197 C1203 1.429 . S
C1198 C1190 1.574 . S
C1198 H1193 0.949 . S
C1198 C1204 1.368 . S
C1199 C1183 1.349 . S
C1199 H1191 0.950 . S
C1199 C1197 1.327 . S
C1200 C1188 1.349 . S
C1200 H1194 0.950 1_655 S
C1200 C1201 1.327 . S
C1201 H1195 0.941 1_655 S
C1201 C1200 1.327 . S
C1201 C1205 1.429 . S
C1202 C1185 1.574 . S
C1202 H1196 0.949 . S
C1202 C1206 1.368 . S
C1203 C1184 1.429 . S
C1203 C1197 1.429 . S
C1203 C1204 1.523 . S
C1204 C1185 1.368 . S
C1204 C1198 1.368 . S
C1204 C1203 1.523 . S
C1205 C1189 1.429 . S
C1205 C1201 1.429 . S
C1205 C1206 1.523 . S
C1206 C1190 1.368 . S
C1206 C1202 1.368 . S
C1206 C1205 1.523 . S
H1207 C1182 0.950 . S
H1208 C1184 0.950 . S
H1209 C1185 0.949 . S
H1210 C1187 0.950 . S
H1211 C1189 0.950 . S
C1212 C1213 1.349 . S
C1212 C1214 1.327 . S
C1212 H1237 0.950 . S
C1213 C1212 1.349 . S
C1213 C1229 1.349 . S
C1214 C1212 1.327 . S
C1214 C1233 1.429 . S
C1214 H1238 0.950 . S
C1215 C1232 1.574 . S
C1215 C1234 1.368 . S
C1215 H1239 0.949 . S
H1216 C1220 0.949 . S
C1217 C1218 1.349 . S
C1217 C1219 1.327 . S
C1217 H1240 0.950 . S
C1218 C1217 1.349 . S
C1218 C1230 1.349 . S
C1219 C1217 1.327 . S
C1219 C1235 1.429 . S
C1219 H1241 0.950 . S
C1220 H1216 0.949 . S
C1220 C1228 1.574 . S
C1220 C1236 1.368 . S
H1221 C1229 0.950 . S
H1222 C1227 0.950 . S
H1223 C1228 0.949 . S
H1224 C1230 0.950 . S
H1225 C1231 0.950 . S
H1226 C1232 0.949 . S
C1227 H1222 0.950 . S
C1227 C1229 1.327 . S
C1227 C1233 1.429 . S
C1228 C1220 1.574 . S
C1228 H1223 0.949 . S
C1228 C1234 1.368 . S
C1229 C1213 1.349 . S
C1229 H1221 0.950 . S
C1229 C1227 1.327 . S
C1230 C1218 1.349 . S
C1230 H1224 0.950 . S
C1230 C1231 1.327 . S
C1231 H1225 0.950 . S
C1231 C1230 1.327 . S
C1231 C1235 1.429 . S
C1232 C1215 1.574 . S
C1232 H1226 0.949 . S
C1232 C1236 1.368 . S
C1233 C1214 1.429 . S
C1233 C1227 1.429 . S
C1233 C1234 1.523 . S
C1234 C1215 1.368 . S
C1234 C1228 1.368 . S
C1234 C1233 1.523 . S
C1235 C1219 1.429 . S
C1235 C1231 1.429 . S
C1235 C1236 1.523 . S
C1236 C1220 1.368 . S
C1236 C1232 1.368 . S
C1236 C1235 1.523 . S
H1237 C1212 0.950 . S
H1238 C1214 0.950 . S
H1239 C1215 0.949 . S
H1240 C1217 0.950 . S
H1241 C1219 0.950 . S
C1242 C1243 1.349 . S
C1242 C1244 1.327 . S
C1242 H1267 0.950 . S
C1243 C1242 1.349 . S
C1243 C1259 1.349 . S
C1244 C1242 1.327 . S
C1244 C1263 1.429 . S
C1244 H1268 0.950 . S
C1245 C1262 1.574 . S
C1245 C1264 1.368 . S
C1245 H1269 0.949 . S
H1246 C1250 0.949 . S
C1247 C1248 1.349 . S
C1247 C1249 1.327 . S
C1247 H1270 0.950 . S
C1248 C1247 1.349 . S
C1248 C1260 1.349 . S
C1249 C1247 1.327 . S
C1249 C1265 1.429 . S
C1249 H1271 0.950 . S
C1250 H1246 0.949 . S
C1250 C1258 1.574 . S
C1250 C1266 1.368 . S
H1251 C1259 0.950 . S
H1252 C1257 0.950 . S
H1253 C1258 0.949 . S
H1254 C1260 0.950 . S
H1255 C1261 0.950 . S
H1256 C1262 0.949 . S
C1257 H1252 0.950 . S
C1257 C1259 1.327 . S
C1257 C1263 1.429 . S
C1258 C1250 1.574 . S
C1258 H1253 0.949 . S
C1258 C1264 1.368 . S
C1259 C1243 1.349 . S
C1259 H1251 0.950 . S
C1259 C1257 1.327 . S
C1260 C1248 1.349 . S
C1260 H1254 0.950 . S
C1260 C1261 1.327 . S
C1261 H1255 0.950 . S
C1261 C1260 1.327 . S
C1261 C1265 1.429 . S
C1262 C1245 1.574 . S
C1262 H1256 0.949 . S
C1262 C1266 1.368 . S
C1263 C1244 1.429 . S
C1263 C1257 1.429 . S
C1263 C1264 1.523 . S
C1264 C1245 1.368 . S
C1264 C1258 1.368 . S
C1264 C1263 1.523 . S
C1265 C1249 1.429 . S
C1265 C1261 1.429 . S
C1265 C1266 1.523 . S
C1266 C1250 1.368 . S
C1266 C1262 1.368 . S
C1266 C1265 1.523 . S
H1267 C1242 0.950 . S
H1268 C1244 0.950 . S
H1269 C1245 0.949 . S
H1270 C1247 0.950 . S
H1271 C1249 0.950 . S
C1272 C1273 1.349 . S
C1272 C1274 1.327 . S
C1272 H1297 0.950 . S
C1273 C1272 1.349 . S
C1273 C1289 1.349 . S
C1274 C1272 1.327 . S
C1274 C1293 1.429 . S
C1274 H1298 0.950 . S
C1275 C1292 1.574 . S
C1275 C1294 1.368 . S
C1275 H1299 0.949 . S
H1276 C1280 0.949 . S
C1277 C1278 1.349 . S
C1277 C1279 1.327 . S
C1277 H1300 0.950 . S
C1278 C1277 1.349 . S
C1278 C1290 1.349 . S
C1279 C1277 1.327 . S
C1279 C1295 1.429 . S
C1279 H1301 0.950 . S
C1280 H1276 0.949 . S
C1280 C1288 1.574 . S
C1280 C1296 1.368 . S
H1281 C1289 0.950 . S
H1282 C1287 0.950 . S
H1283 C1288 0.949 . S
H1284 C1290 0.950 . S
H1285 C1291 0.950 . S
H1286 C1292 0.949 . S
C1287 H1282 0.950 . S
C1287 C1289 1.327 . S
C1287 C1293 1.429 . S
C1288 C1280 1.574 . S
C1288 H1283 0.949 . S
C1288 C1294 1.368 . S
C1289 C1273 1.349 . S
C1289 H1281 0.950 . S
C1289 C1287 1.327 . S
C1290 C1278 1.349 . S
C1290 H1284 0.950 . S
C1290 C1291 1.327 . S
C1291 H1285 0.950 . S
C1291 C1290 1.327 . S
C1291 C1295 1.429 . S
C1292 C1275 1.574 . S
C1292 H1286 0.949 . S
C1292 C1296 1.368 . S
C1293 C1274 1.429 . S
C1293 C1287 1.429 . S
C1293 C1294 1.523 . S
C1294 C1275 1.368 . S
C1294 C1288 1.368 . S
C1294 C1293 1.523 . S
C1295 C1279 1.429 . S
C1295 C1291 1.429 . S
C1295 C1296 1.523 . S
C1296 C1280 1.368 . S
C1296 C1292 1.368 . S
C1296 C1295 1.523 . S
H1297 C1272 0.950 . S
H1298 C1274 0.950 . S
H1299 C1275 0.949 . S
H1300 C1277 0.950 . S
H1301 C1279 0.950 . S
C1302 C1303 1.349 . S
C1302 C1304 1.327 . S
C1302 H1327 0.950 . S
C1303 C1302 1.349 . S
C1303 C1319 1.349 . S
C1304 C1302 1.327 . S
C1304 C1323 1.429 . S
C1304 H1328 0.950 . S
C1305 C1322 1.574 . S
C1305 C1324 1.368 . S
C1305 H1329 0.949 . S
H1306 C1310 0.949 . S
C1307 C1308 1.349 . S
C1307 C1309 1.327 . S
C1307 H1330 0.950 . S
C1308 C1307 1.349 . S
C1308 C1320 1.349 . S
C1309 C1307 1.327 . S
C1309 C1325 1.429 . S
C1309 H1331 0.950 . S
C1310 H1306 0.949 . S
C1310 C1318 1.574 . S
C1310 C1326 1.368 . S
H1311 C1319 0.950 . S
H1312 C1317 0.950 . S
H1313 C1318 0.949 . S
H1314 C1320 0.950 . S
H1315 C1321 0.950 . S
H1316 C1322 0.949 . S
C1317 H1312 0.950 . S
C1317 C1319 1.327 . S
C1317 C1323 1.429 . S
C1318 C1310 1.574 . S
C1318 H1313 0.949 . S
C1318 C1324 1.368 . S
C1319 C1303 1.349 . S
C1319 H1311 0.950 . S
C1319 C1317 1.327 . S
C1320 C1308 1.349 . S
C1320 H1314 0.950 . S
C1320 C1321 1.327 . S
C1321 H1315 0.950 . S
C1321 C1320 1.327 . S
C1321 C1325 1.429 . S
C1322 C1305 1.574 . S
C1322 H1316 0.949 . S
C1322 C1326 1.368 . S
C1323 C1304 1.429 . S
C1323 C1317 1.429 . S
C1323 C1324 1.523 . S
C1324 C1305 1.368 . S
C1324 C1318 1.368 . S
C1324 C1323 1.523 . S
C1325 C1309 1.429 . S
C1325 C1321 1.429 . S
C1325 C1326 1.523 . S
C1326 C1310 1.368 . S
C1326 C1322 1.368 . S
C1326 C1325 1.523 . S
H1327 C1302 0.950 . S
H1328 C1304 0.950 . S
H1329 C1305 0.949 . S
H1330 C1307 0.950 . S
H1331 C1309 0.950 . S
C1332 C1333 1.349 . S
C1332 C1334 1.327 . S
C1332 H1357 0.950 . S
C1333 C1332 1.349 . S
C1333 C1349 1.349 . S
C1334 C1332 1.327 . S
C1334 C1353 1.429 . S
C1334 H1358 0.950 . S
C1335 C1352 1.574 . S
C1335 C1354 1.368 . S
C1335 H1359 0.949 . S
H1336 C1340 0.949 . S
C1337 C1338 1.349 . S
C1337 C1339 1.327 . S
C1337 H1360 0.950 . S
C1338 C1337 1.349 . S
C1338 C1350 1.349 . S
C1339 C1337 1.327 . S
C1339 C1355 1.429 . S
C1339 H1361 0.950 . S
C1340 H1336 0.949 . S
C1340 C1348 1.574 . S
C1340 C1356 1.368 . S
H1341 C1349 0.950 . S
H1342 C1347 0.950 . S
H1343 C1348 0.949 . S
H1344 C1350 0.950 . S
H1345 C1351 0.950 . S
H1346 C1352 0.949 . S
C1347 H1342 0.950 . S
C1347 C1349 1.327 . S
C1347 C1353 1.429 . S
C1348 C1340 1.574 . S
C1348 H1343 0.949 . S
C1348 C1354 1.368 . S
C1349 C1333 1.349 . S
C1349 H1341 0.950 . S
C1349 C1347 1.327 . S
C1350 C1338 1.349 . S
C1350 H1344 0.950 . S
C1350 C1351 1.327 . S
C1351 H1345 0.950 . S
C1351 C1350 1.327 . S
C1351 C1355 1.429 . S
C1352 C1335 1.574 . S
C1352 H1346 0.949 . S
C1352 C1356 1.368 . S
C1353 C1334 1.429 . S
C1353 C1347 1.429 . S
C1353 C1354 1.523 . S
C1354 C1335 1.368 . S
C1354 C1348 1.368 . S
C1354 C1353 1.523 . S
C1355 C1339 1.429 . S
C1355 C1351 1.429 . S
C1355 C1356 1.523 . S
C1356 C1340 1.368 . S
C1356 C1352 1.368 . S
C1356 C1355 1.523 . S
H1357 C1332 0.950 . S
H1358 C1334 0.950 . S
H1359 C1335 0.949 . S
H1360 C1337 0.950 . S
H1361 C1339 0.950 . S
C1362 C1363 1.349 . S
C1362 C1364 1.327 . S
C1362 H1387 0.950 . S
C1363 C1362 1.349 . S
C1363 C1379 1.349 . S
C1364 C1362 1.327 . S
C1364 C1383 1.429 . S
C1364 H1388 0.950 . S
C1365 C1382 1.574 . S
C1365 C1384 1.368 . S
C1365 H1389 0.949 . S
H1366 C1370 0.949 . S
C1367 C1368 1.349 . S
C1367 C1369 1.327 . S
C1367 H1390 0.950 . S
C1368 C1367 1.349 . S
C1368 C1380 1.349 . S
C1369 C1367 1.327 . S
C1369 C1385 1.429 . S
C1369 H1391 0.950 . S
C1370 H1366 0.949 . S
C1370 C1378 1.574 . S
C1370 C1386 1.368 . S
H1371 C1379 0.950 . S
H1372 C1377 0.950 . S
H1373 C1378 0.949 . S
H1374 C1380 0.950 . S
H1375 C1381 0.950 . S
H1376 C1382 0.949 . S
C1377 H1372 0.950 . S
C1377 C1379 1.327 . S
C1377 C1383 1.429 . S
C1378 C1370 1.574 . S
C1378 H1373 0.949 . S
C1378 C1384 1.368 . S
C1379 C1363 1.349 . S
C1379 H1371 0.950 . S
C1379 C1377 1.327 . S
C1380 C1368 1.349 . S
C1380 H1374 0.950 . S
C1380 C1381 1.327 . S
C1381 H1375 0.950 . S
C1381 C1380 1.327 . S
C1381 C1385 1.429 . S
C1382 C1365 1.574 . S
C1382 H1376 0.949 . S
C1382 C1386 1.368 . S
C1383 C1364 1.429 . S
C1383 C1377 1.429 . S
C1383 C1384 1.523 . S
C1384 C1365 1.368 . S
C1384 C1378 1.368 . S
C1384 C1383 1.523 . S
C1385 C1369 1.429 . S
C1385 C1381 1.429 . S
C1385 C1386 1.523 . S
C1386 C1370 1.368 . S
C1386 C1382 1.368 . S
C1386 C1385 1.523 . S
H1387 C1362 0.950 . S
H1388 C1364 0.950 . S
H1389 C1365 0.949 . S
H1390 C1367 0.950 . S
H1391 C1369 0.950 . S
C1392 C1393 1.349 . S
C1392 C1394 1.327 . S
C1392 H1417 0.950 . S
C1393 C1392 1.349 . S
C1393 C1409 1.349 . S
C1394 C1392 1.327 . S
C1394 C1413 1.429 . S
C1394 H1418 0.950 . S
C1395 C1412 1.574 . S
C1395 C1414 1.368 . S
C1395 H1419 0.949 . S
H1396 C1400 0.949 . S
C1397 C1398 1.349 . S
C1397 C1399 1.327 . S
C1397 H1420 0.950 . S
C1398 C1397 1.349 . S
C1398 C1410 1.349 . S
C1399 C1397 1.327 . S
C1399 C1415 1.429 . S
C1399 H1421 0.950 . S
C1400 H1396 0.949 . S
C1400 C1408 1.574 . S
C1400 C1416 1.368 . S
H1401 C1409 0.950 . S
H1402 C1407 0.950 . S
H1403 C1408 0.949 . S
H1404 C1410 0.950 . S
H1405 C1411 0.950 . S
H1406 C1412 0.949 . S
C1407 H1402 0.950 . S
C1407 C1409 1.327 . S
C1407 C1413 1.429 . S
C1408 C1400 1.574 . S
C1408 H1403 0.949 . S
C1408 C1414 1.368 . S
C1409 C1393 1.349 . S
C1409 H1401 0.950 . S
C1409 C1407 1.327 . S
C1410 C1398 1.349 . S
C1410 H1404 0.950 . S
C1410 C1411 1.327 . S
C1411 H1405 0.950 . S
C1411 C1410 1.327 . S
C1411 C1415 1.429 . S
C1412 C1395 1.574 . S
C1412 H1406 0.949 . S
C1412 C1416 1.368 . S
C1413 C1394 1.429 . S
C1413 C1407 1.429 . S
C1413 C1414 1.523 . S
C1414 C1395 1.368 . S
C1414 C1408 1.368 . S
C1414 C1413 1.523 . S
C1415 C1399 1.429 . S
C1415 C1411 1.429 . S
C1415 C1416 1.523 . S
C1416 C1400 1.368 . S
C1416 C1412 1.368 . S
C1416 C1415 1.523 . S
H1417 C1392 0.950 . S
H1418 C1394 0.950 . S
H1419 C1395 0.949 . S
H1420 C1397 0.950 . S
H1421 C1399 0.950 . S
C1422 C1423 1.349 . S
C1422 C1424 1.327 . S
C1422 H1447 0.950 . S
C1423 C1422 1.349 . S
C1423 C1439 1.349 . S
C1424 C1422 1.327 . S
C1424 C1443 1.429 . S
C1424 H1448 0.950 . S
C1425 C1442 1.574 . S
C1425 C1444 1.368 . S
C1425 H1449 0.949 . S
H1426 C1430 0.949 . S
C1427 C1428 1.349 . S
C1427 C1429 1.327 . S
C1427 H1450 0.950 . S
C1428 C1427 1.349 . S
C1428 C1440 1.349 . S
C1429 C1427 1.327 . S
C1429 C1445 1.429 . S
C1429 H1451 0.950 . S
C1430 H1426 0.949 . S
C1430 C1438 1.574 . S
C1430 C1446 1.368 . S
H1431 C1439 0.950 . S
H1432 C1437 0.950 . S
H1433 C1438 0.949 . S
H1434 C1440 0.950 . S
H1435 C1441 0.950 . S
H1436 C1442 0.949 . S
C1437 H1432 0.950 . S
C1437 C1439 1.327 . S
C1437 C1443 1.429 . S
C1438 C1430 1.574 . S
C1438 H1433 0.949 . S
C1438 C1444 1.368 . S
C1439 C1423 1.349 . S
C1439 H1431 0.950 . S
C1439 C1437 1.327 . S
C1440 C1428 1.349 . S
C1440 H1434 0.950 . S
C1440 C1441 1.327 . S
C1441 H1435 0.950 . S
C1441 C1440 1.327 . S
C1441 C1445 1.429 . S
C1442 C1425 1.574 . S
C1442 H1436 0.949 . S
C1442 C1446 1.368 . S
C1443 C1424 1.429 . S
C1443 C1437 1.429 . S
C1443 C1444 1.523 . S
C1444 C1425 1.368 . S
C1444 C1438 1.368 . S
C1444 C1443 1.523 . S
C1445 C1429 1.429 . S
C1445 C1441 1.429 . S
C1445 C1446 1.523 . S
C1446 C1430 1.368 . S
C1446 C1442 1.368 . S
C1446 C1445 1.523 . S
H1447 C1422 0.950 . S
H1448 C1424 0.950 . S
H1449 C1425 0.949 . S
H1450 C1427 0.950 . S
H1451 C1429 0.950 . S
C498 C428 1.819 . S
C493 C1 1.876 . S
C523 C68 1.793 . S
C528 C431 1.758 . S
C553 C93 1.770 . S
C558 C462 1.734 . S
C588 C397 1.792 . S
C583 C139 1.849 . S
C618 C432 1.819 . S
C613 C8 1.874 . S
C648 C463 1.792 . S
C643 C61 1.845 . S
C678 C388 1.730 . S
C673 C100 1.768 . S
C708 C419 1.758 . S
C703 C146 1.797 . S
C733 C15 1.203 . S
C738 C449 1.129 . S
C763 C192 1.188 . S
C768 C418 1.118 . S
C793 C107 1.113 . S
C798 C378 1.097 . S
C828 C471 1.117 . S
C823 C238 1.128 . S
C858 C399 1.131 . S
C853 C22 1.204 . S
C883 C185 1.128 . S
C888 C398 1.117 . S
C913 C114 1.113 . S
C918 C491 1.105 . S
C948 C430 1.118 . S
C943 C231 1.188 . S
C973 C277 1.875 . S
C978 C490 1.824 . S
C1003 C206 1.793 . S
C1008 C369 1.757 . S
C1033 C330 1.770 1_655 S
C1038 C400 1.730 . S
C1063 C252 1.845 . S
C1068 C459 1.791 . S
C1098 C370 1.820 . S
C1093 C284 1.872 . S
C1123 C199 1.845 . S
C1128 C401 1.791 . S
C1153 C323 1.770 1_655 S
C1158 C450 1.730 . S
C1188 C481 1.757 . S
C1183 C245 1.793 . S
C1213 C291 1.203 . S
C1218 C387 1.126 . S
C1243 C54 1.188 . S
C1248 C480 1.118 . S
C1273 C344 1.113 . S
C1278 C440 1.102 . S
C1308 C409 1.116 . S
C1303 C153 1.128 . S
C1338 C461 1.131 . S
C1333 C298 1.207 . S
C1368 C460 1.116 . S
C1363 C47 1.128 . S
C1398 C429 1.102 . S
C1393 C337 1.113 . S
C1428 C368 1.118 . S
C1423 C160 1.188 . S
