# Generated by pormake.
# Topology anh, (6,3)-cn, num edge types: 1
# Building blocks:
#     Node 0, Type 0, BuildingBlock: INOVEN_clean_sbu_0, # of connection points: 6
#     Node 1, Type 0, BuildingBlock: INOVEN_clean_sbu_0, # of connection points: 6
#     Node 2, Type 0, BuildingBlock: INOVEN_clean_sbu_0, # of connection points: 6
#     Node 3, Type 1, BuildingBlock: BELTOD_clean_linker_0, # of connection points: 3
#     Node 4, Type 1, BuildingBlock: BELTOD_clean_linker_0, # of connection points: 3
#     Node 5, Type 1, BuildingBlock: BELTOD_clean_linker_0, # of connection points: 3
#     Node 6, Type 1, BuildingBlock: BELTOD_clean_linker_0, # of connection points: 3
#     Node 7, Type 1, BuildingBlock: BELTOD_clean_linker_0, # of connection points: 3
#     Node 8, Type 1, BuildingBlock: BELTOD_clean_linker_0, # of connection points: 3
#     Edge 9, Type (0, 1), BuildingBlock: OJICUG_clean_linker_0, # of connection points: 2
#     Edge 10, Type (0, 1), BuildingBlock: OJICUG_clean_linker_0, # of connection points: 2
#     Edge 11, Type (0, 1), BuildingBlock: OJICUG_clean_linker_0, # of connection points: 2
#     Edge 12, Type (0, 1), BuildingBlock: OJICUG_clean_linker_0, # of connection points: 2
#     Edge 13, Type (0, 1), BuildingBlock: OJICUG_clean_linker_0, # of connection points: 2
#     Edge 14, Type (0, 1), BuildingBlock: OJICUG_clean_linker_0, # of connection points: 2
#     Edge 15, Type (0, 1), BuildingBlock: OJICUG_clean_linker_0, # of connection points: 2
#     Edge 16, Type (0, 1), BuildingBlock: OJICUG_clean_linker_0, # of connection points: 2
#     Edge 17, Type (0, 1), BuildingBlock: OJICUG_clean_linker_0, # of connection points: 2
#     Edge 18, Type (0, 1), BuildingBlock: OJICUG_clean_linker_0, # of connection points: 2
#     Edge 19, Type (0, 1), BuildingBlock: OJICUG_clean_linker_0, # of connection points: 2
#     Edge 20, Type (0, 1), BuildingBlock: OJICUG_clean_linker_0, # of connection points: 2
#     Edge 21, Type (0, 1), BuildingBlock: OJICUG_clean_linker_0, # of connection points: 2
#     Edge 22, Type (0, 1), BuildingBlock: OJICUG_clean_linker_0, # of connection points: 2
#     Edge 23, Type (0, 1), BuildingBlock: OJICUG_clean_linker_0, # of connection points: 2
#     Edge 24, Type (0, 1), BuildingBlock: OJICUG_clean_linker_0, # of connection points: 2
#     Edge 25, Type (0, 1), BuildingBlock: OJICUG_clean_linker_0, # of connection points: 2
#     Edge 26, Type (0, 1), BuildingBlock: OJICUG_clean_linker_0, # of connection points: 2
# Relax obj value: 0.215
# Max RMSD: 0.231
# Mean RMSD: 0.161
data_MOF--net-anh--node1-INOVEN_clean_sbu_0--node2-BELTOD_clean_linker_0--edge1-OJICUG_clean_linker_0
_symmetry_space_group_name_H-M    P1
_symmetry_Int_Tables_number       1
_symmetry_cell_setting            triclinic
loop_
_symmetry_equiv_pos_as_xyz
'x, y, z'
_cell_length_a     27.807142
_cell_length_b     33.39923
_cell_length_c     46.391253
_cell_angle_alpha  93.291447
_cell_angle_beta   88.818745
_cell_angle_gamma 130.97759
loop_
_atom_site_label
_atom_site_type_symbol
_atom_site_fract_x
_atom_site_fract_y
_atom_site_fract_z
_atom_type_partial_charge
Gd0 Gd 0.1273 0.50531 0.15726 0.0
Gd1 Gd 0.06305 0.54603 0.16395 0.0
C2 C 0.21307 0.63417 0.16243 0.0
C3 C 0.20567 0.49089 0.1517 0.0
C4 C 0.27231 0.52976 0.1614 0.0
C5 C 0.29279 0.51975 0.18508 0.0
C6 C 0.31581 0.57853 0.14837 0.0
C7 C 0.4011 0.59066 0.1719 0.0
C8 C 0.38068 0.61074 0.15489 0.0
C9 C 0.35759 0.55245 0.19148 0.0
C10 C 0.0934 0.50729 0.21175 0.0
C11 C 0.97884 0.41886 0.15391 0.0
C12 C 1.01094 0.57683 0.19177 0.0
C13 C 0.94758 0.55946 0.19249 0.0
C14 C 0.92204 0.5636 0.16832 0.0
C15 C 0.9088 0.53073 0.21587 0.0
C16 C 0.81795 0.50374 0.189 0.0
C17 C 0.84374 0.50203 0.21388 0.0
C18 C 0.85736 0.53587 0.16665 0.0
C19 C 0.06719 0.53245 0.10541 0.0
O20 O 0.21277 0.59467 0.1571 0.0
O21 O 0.16023 0.62497 0.16712 0.0
O22 O 0.16488 0.47065 0.1725 0.0
O23 O 0.18922 0.50298 0.12978 0.0
O24 O 0.08034 0.4659 0.19868 0.0
O25 O 0.12077 0.54466 0.19481 0.0
O26 O 0.98175 0.45688 0.16676 0.0
O27 O 1.03012 0.43039 0.14238 0.0
O28 O 1.04368 0.59889 0.16836 0.0
O29 O 1.01364 0.54208 0.20107 0.0
O30 O 1.03856 0.54741 0.11781 0.0
O31 O 0.08931 0.52246 0.12446 0.0
H32 H 0.25948 0.48472 0.19719 0.0
H33 H 0.30075 0.58973 0.1316 0.0
H34 H 0.41402 0.64335 0.1413 0.0
H35 H 0.37234 0.53942 0.20721 0.0
H36 H 0.95091 0.58527 0.14996 0.0
H37 H 0.92806 0.52725 0.23469 0.0
H38 H 0.81331 0.47666 0.231 0.0
H39 H 0.83742 0.53645 0.147 0.0
Gd40 Gd 0.60455 0.0049 0.47584 0.0
Gd41 Gd 0.52497 0.03107 0.47234 0.0
C42 C 0.45078 0.91001 0.47101 0.0
C43 C 0.65039 0.96041 0.48539 0.0
C44 C 0.62151 0.90498 0.48805 0.0
C45 C 0.64089 0.88326 0.4697 0.0
C46 C 0.57558 0.87363 0.5089 0.0
C47 C 0.57778 0.80327 0.49638 0.0
C48 C 0.55385 0.82312 0.513 0.0
C49 C 0.6191 0.8327 0.47377 0.0
C50 C 0.59046 0.02167 0.42163 0.0
C51 C 0.68019 0.12683 0.47613 0.0
C52 C 0.47933 0.07559 0.46201 0.0
C53 C 0.50119 0.12835 0.47067 0.0
C54 C 0.52438 0.15061 0.49886 0.0
C55 C 0.50126 0.15775 0.4503 0.0
C56 C 0.54222 0.22931 0.4868 0.0
C57 C 0.52157 0.20783 0.45826 0.0
C58 C 0.54456 0.20056 0.50685 0.0
C59 C 0.54453 0.01871 0.527 0.0
O60 O 0.50437 0.92669 0.48293 0.0
O61 O 0.44907 0.94429 0.45961 0.0
O62 O 0.64689 0.97234 0.45968 0.0
O63 O 0.63976 0.98197 0.50606 0.0
O64 O 0.64358 0.03866 0.43285 0.0
O65 O 0.54595 0.99494 0.43933 0.0
O66 O 0.62471 0.11087 0.46753 0.0
O67 O 0.68464 0.0925 0.48492 0.0
O68 O 0.45858 0.0428 0.48256 0.0
O69 O 0.51598 0.07538 0.44407 0.0
O70 O 0.49013 1.00095 0.51707 0.0
O71 O 0.58611 0.04353 0.50808 0.0
H72 H 0.67514 0.90636 0.45304 0.0
H73 H 0.55827 0.88879 0.52281 0.0
H74 H 0.52113 0.80081 0.53026 0.0
H75 H 0.6385 0.81854 0.46064 0.0
H76 H 0.52666 0.12935 0.51478 0.0
H77 H 0.48494 0.14169 0.42828 0.0
H78 H 0.51928 0.22895 0.44228 0.0
H79 H 0.56187 0.2166 0.52878 0.0
Gd80 Gd 0.67488 0.61031 0.84489 0.0
Gd81 Gd 0.57856 0.48805 0.8435 0.0
C82 C 0.51609 0.54541 0.8478 0.0
C83 C 0.72996 0.70676 0.83529 0.0
C84 C 0.70403 0.7329 0.83062 0.0
C85 C 0.70004 0.75932 0.85394 0.0
C86 C 0.68117 0.73037 0.80323 0.0
C87 C 0.65376 0.78237 0.82236 0.0
C88 C 0.65633 0.75488 0.79915 0.0
C89 C 0.67478 0.78345 0.8499 0.0
C90 C 0.64342 0.5662 0.89549 0.0
C91 C 0.73758 0.55428 0.84589 0.0
C92 C 0.52072 0.39426 0.85936 0.0
C93 C 0.52871 0.35575 0.85011 0.0
C94 C 0.49831 0.32284 0.82479 0.0
C95 C 0.57029 0.35406 0.86556 0.0
C96 C 0.55129 0.28777 0.83047 0.0
C97 C 0.58171 0.32068 0.85578 0.0
C98 C 0.50943 0.28924 0.81511 0.0
C99 C 0.60851 0.51688 0.78815 0.0
O100 O 0.57644 0.59095 0.84479 0.0
O101 O 0.50511 0.49999 0.8492 0.0
O102 O 0.72355 0.69066 0.86127 0.0
O103 O 0.71869 0.67253 0.81486 0.0
O104 O 0.70168 0.60798 0.89026 0.0
O105 O 0.60687 0.55162 0.87442 0.0
O106 O 0.67709 0.50879 0.84757 0.0
O107 O 0.74925 0.59952 0.84266 0.0
O108 O 0.49599 0.40411 0.84015 0.0
O109 O 0.56885 0.43711 0.8742 0.0
O110 O 0.56855 0.46822 0.79556 0.0
O111 O 0.6301 0.54743 0.81065 0.0
H112 H 0.71678 0.76163 0.87536 0.0
H113 H 0.68319 0.71007 0.78482 0.0
H114 H 0.64149 0.75403 0.77756 0.0
H115 H 0.67278 0.8038 0.86828 0.0
H116 H 0.46619 0.32323 0.81226 0.0
H117 H 0.59487 0.37917 0.88504 0.0
H118 H 0.61504 0.32121 0.86787 0.0
H119 H 0.48453 0.26391 0.79574 0.0
P120 P 0.62789 0.02004 0.20029 0.0
H121 H 0.59844 0.94093 0.15564 0.0
H122 H 0.50064 0.85074 0.14522 0.0
H123 H 0.39518 0.88701 0.19122 0.0
H124 H 0.49491 0.97686 0.2031 0.0
H125 H 0.75777 0.10885 0.21699 0.0
H126 H 0.83507 0.20133 0.20452 0.0
H127 H 0.69733 0.17536 0.14601 0.0
H128 H 0.61839 0.0815 0.1591 0.0
H129 H 0.55788 0.93421 0.23894 0.0
H130 H 0.65151 0.1006 0.2439 0.0
O131 O 0.6718 1.00233 0.19997 0.0
H132 H 0.53662 0.92985 0.29039 0.0
H133 H 0.63278 0.09703 0.29582 0.0
C134 C 0.55472 0.96588 0.18058 0.0
C135 C 0.55415 0.93016 0.16279 0.0
C136 C 0.4974 0.87787 0.15684 0.0
C137 C 0.43907 0.85996 0.16806 0.0
C138 C 0.43896 0.89799 0.18307 0.0
C139 C 0.49613 0.95023 0.18933 0.0
C140 C 0.68222 0.08792 0.18891 0.0
C141 C 0.74382 0.1227 0.20139 0.0
C142 C 0.78813 0.17575 0.19432 0.0
C143 C 0.77245 0.19569 0.17427 0.0
C144 C 0.71084 0.16089 0.16139 0.0
C145 C 0.66571 0.10738 0.16888 0.0
C146 C 0.60695 0.01779 0.2376 0.0
C147 C 0.57358 0.9698 0.25109 0.0
C148 C 0.56175 0.96742 0.28057 0.0
C149 C 0.5838 0.01326 0.29733 0.0
C150 C 0.61484 0.06093 0.28351 0.0
C151 C 0.62619 0.06314 0.25382 0.0
P152 P 0.68558 0.58781 0.57012 0.0
H153 H 0.73909 0.5613 0.52642 0.0
H154 H 0.70179 0.47705 0.50449 0.0
H155 H 0.52255 0.3954 0.54795 0.0
H156 H 0.56227 0.47996 0.57124 0.0
H157 H 0.74031 0.69652 0.56863 0.0
H158 H 0.70197 0.73809 0.54993 0.0
H159 H 0.52779 0.58434 0.5196 0.0
H160 H 0.56647 0.5424 0.53841 0.0
H161 H 0.71499 0.54522 0.61159 0.0
H162 H 0.62043 0.60832 0.61198 0.0
O163 O 0.76469 0.63045 0.5673 0.0
H164 H 0.69722 0.53259 0.66333 0.0
H165 H 0.60312 0.59611 0.66414 0.0
C166 C 0.65399 0.5265 0.55097 0.0
C167 C 0.69175 0.52525 0.53121 0.0
C168 C 0.66995 0.47695 0.51838 0.0
C169 C 0.60944 0.42913 0.52477 0.0
C170 C 0.57012 0.43121 0.54319 0.0
C171 C 0.59248 0.4795 0.55637 0.0
C172 C 0.65654 0.61659 0.55474 0.0
C173 C 0.6941 0.67167 0.55779 0.0
C174 C 0.6721 0.69531 0.54722 0.0
C175 C 0.61187 0.66413 0.53361 0.0
C176 C 0.57446 0.60893 0.52999 0.0
C177 C 0.59652 0.58512 0.54079 0.0
C178 C 0.66888 0.57742 0.60794 0.0
C179 C 0.69033 0.55628 0.62282 0.0
C180 C 0.68041 0.54929 0.65234 0.0
C181 C 0.64932 0.56379 0.66764 0.0
C182 C 0.628 0.58534 0.65282 0.0
C183 C 0.6375 0.59193 0.62303 0.0
P184 P 0.14009 0.56724 0.88211 0.0
H185 H 0.25757 0.62382 0.84525 0.0
H186 H 0.34081 0.61923 0.83784 0.0
H187 H 0.23149 0.47586 0.88397 0.0
H188 H 0.14804 0.48104 0.89124 0.0
H189 H 0.08965 0.61566 0.90654 0.0
H190 H 1.003 0.61342 0.89838 0.0
H191 H 0.93607 0.49918 0.8265 0.0
H192 H 1.02633 0.50268 0.8351 0.0
H193 H 0.22641 0.60758 0.93237 0.0
H194 H 1.02382 0.49026 0.91576 0.0
O195 O 0.19482 0.63349 0.88406 0.0
H196 H 0.20888 0.59528 0.98429 0.0
H197 H 1.00593 0.4785 0.96766 0.0
C198 C 0.19294 0.55221 0.86839 0.0
C199 C 0.24972 0.59019 0.85326 0.0
C200 C 0.29936 0.58795 0.84941 0.0
C201 C 0.29648 0.54739 0.86034 0.0
C202 C 0.23839 0.50821 0.87467 0.0
C203 C 0.18881 0.51076 0.87871 0.0
C204 C 0.0677 0.55981 0.87175 0.0
C205 C 0.05693 0.58985 0.88876 0.0
C206 C 1.00509 0.58814 0.88396 0.0
C207 C 0.95832 0.5558 0.86156 0.0
C208 C 0.96888 0.52521 0.84415 0.0
C209 C 1.02176 0.52704 0.84909 0.0
C210 C 0.12654 0.55067 0.91997 0.0
C211 C 0.17813 0.57871 0.93981 0.0
C212 C 0.16801 0.57155 0.96961 0.0
C213 C 0.10586 0.53642 0.98041 0.0
C214 C 1.05439 0.50662 0.96029 0.0
C215 C 0.06463 0.51323 0.93047 0.0
P216 P 0.0986 0.5055 0.43404 0.0
H217 H 0.19994 0.56718 0.4783 0.0
H218 H 0.27912 0.66191 0.48892 0.0
H219 H 0.16471 0.68287 0.4419 0.0
H220 H 0.08783 0.5875 0.42958 0.0
H221 H 1.05034 0.39814 0.42961 0.0
H222 H 0.95129 0.3125 0.44265 0.0
H223 H 0.88444 0.3893 0.4794 0.0
H224 H 0.9854 0.47664 0.46627 0.0
H225 H 0.18999 0.57624 0.39165 0.0
H226 H 0.98683 0.44722 0.39365 0.0
O227 O 0.15219 0.49784 0.43428 0.0
H228 H 0.18265 0.58033 0.33977 0.0
H229 H 0.97888 0.4514 0.34159 0.0
C230 C 0.13814 0.56987 0.4527 0.0
C231 C 0.19092 0.5919 0.47084 0.0
C232 C 0.23675 0.64691 0.47695 0.0
C233 C 0.23044 0.6817 0.46568 0.0
C234 C 0.17349 0.65847 0.45013 0.0
C235 C 0.1282 0.60333 0.44356 0.0
C236 C 1.02636 0.44433 0.44753 0.0
C237 C 1.01535 0.39724 0.44105 0.0
C238 C 0.95852 0.34806 0.44841 0.0
C239 C 0.9107 0.34439 0.46228 0.0
C240 C 0.92117 0.39133 0.46901 0.0
C241 C 0.97869 0.44111 0.46156 0.0
C242 C 0.0892 0.51111 0.39647 0.0
C243 C 0.14358 0.54926 0.38094 0.0
C244 C 0.13923 0.55182 0.35125 0.0
C245 C 0.0802 0.5161 0.33637 0.0
C246 C 1.02523 0.4791 0.35228 0.0
C247 C 1.02967 0.47671 0.38211 0.0
P248 P 0.65542 0.06229 0.74497 0.0
H249 H 0.68938 0.12002 0.80057 0.0
H250 H 0.66092 0.17005 0.82266 0.0
H251 H 0.51712 0.10466 0.75572 0.0
H252 H 0.54646 0.05536 0.73355 0.0
H253 H 0.73016 0.031 0.74539 0.0
H254 H 0.71652 0.95994 0.76774 0.0
H255 H 0.53392 0.8994 0.79957 0.0
H256 H 0.54826 0.9721 0.77736 0.0
H257 H 0.69568 0.13236 0.69905 0.0
H258 H 0.56168 0.96334 0.70876 0.0
O259 O 0.73409 0.11266 0.74663 0.0
H260 H 0.66831 0.11748 0.6477 0.0
H261 H 0.53387 0.94798 0.65693 0.0
C262 C 0.62106 0.08517 0.76512 0.0
C263 C 0.65075 0.11558 0.79105 0.0
C264 C 0.63438 0.14406 0.80367 0.0
C265 C 0.58781 0.14217 0.7905 0.0
C266 C 0.55435 0.10789 0.76588 0.0
C267 C 0.57079 0.07944 0.7533 0.0
C268 C 0.64088 0.0073 0.76029 0.0
C269 C 0.68721 1.00269 0.75722 0.0
C270 C 0.67942 0.96216 0.76991 0.0
C271 C 0.62461 0.92502 0.78548 0.0
C272 C 0.57665 0.92806 0.78769 0.0
C273 C 0.58489 0.96937 0.77514 0.0
C274 C 0.63192 0.04899 0.70746 0.0
C275 C 0.66066 0.09196 0.69001 0.0
C276 C 0.64512 0.08338 0.66065 0.0
C277 C 0.59985 0.03155 0.64817 0.0
C278 C 0.56922 0.98835 0.66595 0.0
C279 C 0.58523 0.99705 0.69548 0.0
P280 P 0.43925 0.34036 0.07272 0.0
H281 H 0.42936 0.28137 0.11902 0.0
H282 H 0.51243 0.31142 0.15464 0.0
H283 H 0.65583 0.42828 0.09716 0.0
H284 H 0.57451 0.39915 0.062 0.0
H285 H 0.33678 0.33688 0.09411 0.0
H286 H 0.34155 0.40578 0.11977 0.0
H287 H 0.54418 0.50303 0.13359 0.0
H288 H 0.54006 0.43597 0.10784 0.0
H289 H 0.49055 0.32991 0.01989 0.0
H290 H 0.45029 0.42846 0.05354 0.0
O291 O 0.368 0.27983 0.06763 0.0
H292 H 0.54562 0.38768 0.97924 0.0
H293 H 0.50503 0.4854 0.01372 0.0
C294 C 0.49539 0.33749 0.08771 0.0
C295 C 0.47885 0.311 0.11329 0.0
C296 C 0.52593 0.32858 0.13377 0.0
C297 C 0.5893 0.37237 0.12843 0.0
C298 C 0.60664 0.3943 0.10142 0.0
C299 C 0.55986 0.37667 0.08099 0.0
C300 C 0.43763 0.3806 0.09935 0.0
C301 C 0.38167 0.37207 0.1036 0.0
C302 C 0.38457 0.41144 0.11802 0.0
C303 C 0.44349 0.4594 0.12829 0.0
C304 C 0.49838 0.46607 0.12605 0.0
C305 C 0.49563 0.42721 0.11139 0.0
C306 C 0.46745 0.37533 0.04008 0.0
C307 C 0.49287 0.36338 0.0184 0.0
C308 C 0.52506 0.3967 0.99557 0.0
C309 C 0.53035 0.44127 0.99389 0.0
C310 C 0.50196 0.45144 0.01479 0.0
C311 C 0.47049 0.41862 0.0376 0.0
C312 C 0.42369 0.55954 0.12868 0.0
C313 C 0.44011 0.58012 0.15765 0.0
H314 H 0.40866 0.50256 0.09753 0.0
C315 C 0.47163 0.56958 0.17463 0.0
H316 H 0.39999 0.56688 0.11454 0.0
C317 C 0.47568 0.53164 0.16467 0.0
C318 C 0.44913 0.50492 0.13758 0.0
H319 H 0.48536 0.5853 0.19683 0.0
H320 H 0.49484 0.52027 0.1789 0.0
C321 C 0.42696 0.52142 0.119 0.0
C322 C 0.74827 0.20829 0.44808 0.0
C323 C 0.73813 0.18336 0.47367 0.0
H324 H 0.81129 0.27875 0.42448 0.0
C325 C 0.7836 0.21284 0.49634 0.0
H326 H 0.71434 0.18627 0.43016 0.0
C327 C 0.83837 0.26632 0.49333 0.0
C328 C 0.84893 0.29081 0.46746 0.0
H329 H 0.77666 0.19461 0.51636 0.0
H330 H 0.87327 0.28814 0.51089 0.0
C331 C 0.80343 0.2612 0.44488 0.0
C332 C 0.58764 0.79708 0.7971 0.0
C333 C 0.63628 0.81483 0.81714 0.0
H334 H 0.54489 0.81868 0.77156 0.0
C335 C 0.67346 0.86666 0.8299 0.0
H336 H 0.55773 0.75713 0.7872 0.0
C337 C 0.66555 0.90123 0.8212 0.0
C338 C 0.62023 0.88463 0.79971 0.0
H339 H 0.71181 0.88189 0.84511 0.0
H340 H 0.69762 0.94206 0.82991 0.0
C341 C 0.57968 0.83188 0.78841 0.0
C342 C 0.7192 0.41237 0.17806 0.0
C343 C 0.74975 0.46616 0.18355 0.0
H344 H 0.64187 0.33922 0.15554 0.0
C345 C 0.72019 0.4855 0.17599 0.0
H346 H 0.74256 0.39745 0.18336 0.0
C347 C 0.66358 0.45264 0.16005 0.0
C348 C 0.63664 0.40048 0.15176 0.0
H349 H 0.74407 0.52719 0.17987 0.0
H350 H 0.64374 0.46916 0.1521 0.0
C351 C 0.66236 0.37938 0.16208 0.0
C352 C 0.38473 0.82009 0.49158 0.0
C353 C 0.3929 0.85251 0.47046 0.0
H354 H 0.32654 0.74287 0.50799 0.0
C355 C 0.34592 0.82915 0.44859 0.0
H356 H 0.41971 0.83693 0.50895 0.0
C357 C 0.29317 0.77435 0.44727 0.0
C358 C 0.2847 0.74128 0.4683 0.0
H359 H 0.351 0.85294 0.43185 0.0
H360 H 0.26027 0.75802 0.42911 0.0
C361 C 0.33109 0.76563 0.4908 0.0
C362 C 0.56576 0.24253 0.79068 0.0
C363 C 0.56214 0.25131 0.82034 0.0
H364 H 0.57679 0.20129 0.75812 0.0
C365 C 0.56756 0.22409 0.8402 0.0
H366 H 0.56331 0.26373 0.77482 0.0
C367 C 0.57558 0.18842 0.8306 0.0
C368 C 0.57793 0.17899 0.80094 0.0
H369 H 0.5643 0.22947 0.86318 0.0
H370 H 0.57896 0.16763 0.84637 0.0
C371 C 0.57337 0.20666 0.7811 0.0
C372 C 0.58145 0.75788 0.53553 0.0
C373 C 0.57063 0.75833 0.50616 0.0
H374 H 0.60232 0.72686 0.5671 0.0
C375 C 0.56383 0.72131 0.48633 0.0
H376 H 0.58803 0.78642 0.5513 0.0
C377 C 0.57247 0.68717 0.49552 0.0
C378 C 0.58851 0.69026 0.52452 0.0
H379 H 0.5552 0.72074 0.46358 0.0
H380 H 0.57087 0.6611 0.47974 0.0
C381 C 0.59031 0.7242 0.54459 0.0
C382 C 0.80381 0.5261 0.82997 0.0
C383 C 0.79396 0.5547 0.84926 0.0
H384 H 0.85992 0.50445 0.81744 0.0
C385 C 0.83873 0.58308 0.87254 0.0
H386 H 0.77153 0.50348 0.81159 0.0
C387 C 0.88954 0.58274 0.87649 0.0
C388 C 0.90087 0.5549 0.85706 0.0
H389 H 0.83382 0.60521 0.88842 0.0
H390 H 0.91962 0.6048 0.89543 0.0
C391 C 0.8557 0.52664 0.83353 0.0
C392 C 0.31871 0.71184 0.14287 0.0
C393 C 0.27307 0.69051 0.16445 0.0
H394 H 0.40404 0.78171 0.12583 0.0
C395 C 0.28152 0.72489 0.18687 0.0
H396 H 0.31252 0.68642 0.12497 0.0
C397 C 0.33475 0.77933 0.18796 0.0
C398 C 0.38054 0.80158 0.16614 0.0
H399 H 0.24682 0.7095 0.20378 0.0
H400 H 0.34008 0.80361 0.20628 0.0
C401 C 0.37127 0.76673 0.14347 0.0
C402 C 0.59244 0.32316 0.47784 0.0
C403 C 0.55879 0.28042 0.496 0.0
H404 H 0.63318 0.40304 0.47219 0.0
C405 C 0.54001 0.28643 0.52308 0.0
H406 H 0.60797 0.31994 0.45691 0.0
C407 C 0.55553 0.33427 0.53209 0.0
C408 C 0.58961 0.37727 0.51411 0.0
H409 H 0.51303 0.25402 0.5374 0.0
H410 H 0.54193 0.33777 0.55349 0.0
C411 C 0.60745 0.37099 0.48675 0.0
C412 C 0.46761 0.59157 0.84691 0.0
C413 C 0.45985 0.54575 0.8509 0.0
H414 H 0.42745 0.62907 0.84662 0.0
C415 C 0.39704 0.50048 0.8583 0.0
H416 H 0.51407 0.62789 0.84139 0.0
C417 C 0.34573 0.50094 0.86138 0.0
C418 C 0.35303 0.54667 0.85714 0.0
H419 H 0.3871 0.46395 0.86191 0.0
H420 H 0.29965 0.46439 0.86687 0.0
C421 C 0.41632 0.592 0.84984 0.0
C422 C 0.89618 0.3228 0.13514 0.0
C423 C 0.9218 0.36215 0.15778 0.0
H424 H 0.82696 0.23928 0.12233 0.0
C425 C 0.89585 0.34634 0.18537 0.0
H426 H 0.91573 0.33373 0.11375 0.0
C427 C 0.84667 0.29252 0.19042 0.0
C428 C 0.82071 0.25306 0.16786 0.0
H429 H 0.9155 0.37552 0.20339 0.0
H430 H 0.82938 0.28156 0.21216 0.0
C431 C 0.84535 0.26885 0.14003 0.0
C432 C 0.12176 0.52937 0.06177 0.0
C433 C 0.07545 0.53054 0.07342 0.0
H434 H 0.16817 0.53075 0.02358 0.0
C435 C 1.03859 0.53239 0.05414 0.0
H436 H 0.15135 0.5283 0.07592 0.0
C437 C 1.0476 0.53307 0.02417 0.0
C438 C 0.09462 0.53291 0.01245 0.0
H439 H 1.00273 0.53359 0.06226 0.0
H440 H 1.01868 0.53516 0.01018 0.0
C441 C 0.13164 0.53108 0.03173 0.0
C442 C 0.56528 0.04106 0.37579 0.0
C443 C 0.58053 0.01475 0.39019 0.0
H444 H 0.55432 0.06137 0.33478 0.0
C445 C 0.59355 0.98613 0.37417 0.0
H446 H 0.55598 0.06398 0.3879 0.0
C447 C 0.59266 0.98454 0.34409 0.0
C448 C 0.57932 0.01204 0.32934 0.0
H449 H 0.60604 0.96602 0.38498 0.0
H450 H 0.60495 0.96339 0.33244 0.0
C451 C 0.56501 0.03997 0.34551 0.0
C452 C 0.59389 0.49031 0.73597 0.0
C453 C 0.61966 0.53117 0.75764 0.0
H454 H 0.58274 0.46886 0.69073 0.0
C455 C 0.65311 0.58331 0.74949 0.0
H456 H 0.56735 0.44961 0.74146 0.0
C457 C 0.66117 0.59418 0.72009 0.0
C458 C 0.63652 0.55312 0.69863 0.0
H459 H 0.67281 0.61541 0.76569 0.0
H460 H 0.68791 0.63467 0.71413 0.0
C461 C 0.60245 0.50117 0.70689 0.0
C462 C 0.62146 0.05002 0.56772 0.0
C463 C 0.55823 0.01812 0.55752 0.0
H464 H 0.68402 0.07885 0.60439 0.0
C465 C 0.50844 0.9871 0.57694 0.0
H466 H 0.6608 0.07395 0.55319 0.0
C467 C 0.52173 0.98955 0.60627 0.0
C468 C 0.58507 0.02358 0.61672 0.0
H469 H 0.45923 0.96169 0.56955 0.0
H470 H 0.48253 0.96649 0.62095 0.0
C471 C 0.63473 0.05292 0.59702 0.0
C472 C 0.65335 0.53072 0.93866 0.0
C473 C 0.6196 0.53981 0.92253 0.0
H474 H 0.65017 0.4905 0.97418 0.0
C475 C 0.55813 0.51811 0.93045 0.0
H476 H 0.70056 0.54671 0.93246 0.0
C477 C 0.52987 0.48676 0.95394 0.0
C478 C 0.56227 0.4759 0.96965 0.0
H479 H 0.53135 0.52466 0.91811 0.0
H480 H 0.48191 0.46978 0.95938 0.0
C481 C 0.62439 0.49827 0.96208 0.0
C482 C 0.11894 0.55981 0.25892 0.0
C483 C 0.0844 0.51075 0.24313 0.0
H484 H 0.14444 0.60016 0.3009 0.0
C485 C 1.04392 0.46381 0.25796 0.0
H486 H 0.15033 0.59661 0.24804 0.0
C487 C 1.04023 0.4657 0.28805 0.0
C488 C 0.07739 0.51466 0.30416 0.0
H489 H 1.01629 0.42536 0.24633 0.0
H490 H 1.01057 0.42865 0.29875 0.0
C491 C 0.11577 0.56176 0.28918 0.0
loop_
_geom_bond_atom_site_label_1
_geom_bond_atom_site_label_2
_geom_bond_distance
_geom_bond_site_symmetry_2
_ccdc_geom_bond_type
Gd0 C3 2.818 . S
Gd0 O20 2.377 . S
Gd0 O22 2.448 . S
Gd0 O23 2.506 . S
Gd0 O24 2.435 . S
Gd0 O25 2.717 . S
Gd0 O27 2.395 1_455 S
Gd0 O31 2.327 . S
Gd1 C12 2.818 . S
Gd1 O21 2.395 1_655 S
Gd1 O25 2.327 1_655 S
Gd1 O26 2.377 . S
Gd1 O28 2.448 . S
Gd1 O29 2.506 . S
Gd1 O30 2.435 1_655 S
Gd1 O31 2.717 1_655 S
C2 O20 1.240 . S
C2 O21 1.240 . S
C3 Gd0 2.818 . S
C3 C4 1.510 . S
C3 O22 1.249 . S
C3 O23 1.252 . S
C4 C3 1.510 . S
C4 C5 1.404 . S
C4 C6 1.352 . S
C5 C4 1.404 . S
C5 C9 1.389 . S
C5 H32 0.930 . S
C6 C4 1.352 . S
C6 C8 1.374 . S
C6 H33 0.931 . S
C7 C8 1.359 . S
C7 C9 1.364 . S
C8 C6 1.374 . S
C8 C7 1.359 . S
C8 H34 0.931 . S
C9 C5 1.389 . S
C9 C7 1.364 . S
C9 H35 0.931 . S
C10 O24 1.256 . S
C10 O25 1.257 . S
C11 O26 1.240 . S
C11 O27 1.240 . S
C12 Gd1 2.818 . S
C12 C13 1.510 . S
C12 O28 1.249 . S
C12 O29 1.252 . S
C13 C12 1.510 . S
C13 C14 1.404 . S
C13 C15 1.352 . S
C14 C13 1.404 . S
C14 C18 1.389 . S
C14 H36 0.930 . S
C15 C13 1.352 . S
C15 C17 1.374 . S
C15 H37 0.931 . S
C16 C17 1.359 . S
C16 C18 1.364 . S
C17 C15 1.374 . S
C17 C16 1.359 . S
C17 H38 0.931 . S
C18 C14 1.389 . S
C18 C16 1.364 . S
C18 H39 0.931 . S
C19 O30 1.256 . S
C19 O31 1.257 . S
O20 Gd0 2.377 . S
O20 C2 1.240 . S
O21 Gd1 2.395 1_455 S
O21 C2 1.240 . S
O22 Gd0 2.448 . S
O22 C3 1.249 . S
O23 Gd0 2.506 . S
O23 C3 1.252 . S
O24 Gd0 2.435 . S
O24 C10 1.256 . S
O25 Gd0 2.717 . S
O25 Gd1 2.327 1_455 S
O25 C10 1.257 . S
O26 Gd1 2.377 . S
O26 C11 1.240 . S
O27 Gd0 2.395 1_655 S
O27 C11 1.240 . S
O28 Gd1 2.448 . S
O28 C12 1.249 . S
O29 Gd1 2.506 . S
O29 C12 1.252 . S
O30 Gd1 2.435 1_455 S
O30 C19 1.256 . S
O31 Gd0 2.327 . S
O31 Gd1 2.717 1_455 S
O31 C19 1.257 . S
H32 C5 0.930 . S
H33 C6 0.931 . S
H34 C8 0.931 . S
H35 C9 0.931 . S
H36 C14 0.930 . S
H37 C15 0.931 . S
H38 C17 0.931 . S
H39 C18 0.931 . S
Gd40 C43 2.818 . S
Gd40 O60 2.377 . S
Gd40 O62 2.448 . S
Gd40 O63 2.506 . S
Gd40 O64 2.435 . S
Gd40 O65 2.717 1_565 S
Gd40 O67 2.395 1_565 S
Gd40 O71 2.327 1_565 S
Gd41 C52 2.818 . S
Gd41 O61 2.395 1_545 S
Gd41 O65 2.327 . S
Gd41 O66 2.377 . S
Gd41 O68 2.448 . S
Gd41 O69 2.506 . S
Gd41 O70 2.435 . S
Gd41 O71 2.717 . S
C42 O60 1.240 . S
C42 O61 1.240 . S
C43 Gd40 2.818 . S
C43 C44 1.510 . S
C43 O62 1.249 . S
C43 O63 1.252 . S
C44 C43 1.510 . S
C44 C45 1.404 . S
C44 C46 1.352 . S
C45 C44 1.404 . S
C45 C49 1.389 . S
C45 H72 0.930 . S
C46 C44 1.352 . S
C46 C48 1.374 . S
C46 H73 0.931 . S
C47 C48 1.359 . S
C47 C49 1.364 . S
C48 C46 1.374 . S
C48 C47 1.359 . S
C48 H74 0.931 . S
C49 C45 1.389 . S
C49 C47 1.364 . S
C49 H75 0.931 . S
C50 O64 1.256 1_545 S
C50 O65 1.257 . S
C51 O66 1.240 . S
C51 O67 1.240 . S
C52 Gd41 2.818 . S
C52 C53 1.510 . S
C52 O68 1.249 . S
C52 O69 1.252 . S
C53 C52 1.510 . S
C53 C54 1.404 . S
C53 C55 1.352 . S
C54 C53 1.404 . S
C54 C58 1.389 . S
C54 H76 0.930 . S
C55 C53 1.352 . S
C55 C57 1.374 . S
C55 H77 0.931 . S
C56 C57 1.359 . S
C56 C58 1.364 . S
C57 C55 1.374 . S
C57 C56 1.359 . S
C57 H78 0.931 . S
C58 C54 1.389 . S
C58 C56 1.364 . S
C58 H79 0.931 . S
C59 O70 1.256 . S
C59 O71 1.257 . S
O60 Gd40 2.377 . S
O60 C42 1.240 . S
O61 Gd41 2.395 1_565 S
O61 C42 1.240 . S
O62 Gd40 2.448 . S
O62 C43 1.249 . S
O63 Gd40 2.506 . S
O63 C43 1.252 . S
O64 Gd40 2.435 . S
O64 C50 1.256 1_565 S
O65 Gd40 2.717 1_545 S
O65 Gd41 2.327 . S
O65 C50 1.257 . S
O66 Gd41 2.377 . S
O66 C51 1.240 . S
O67 Gd40 2.395 1_545 S
O67 C51 1.240 . S
O68 Gd41 2.448 . S
O68 C52 1.249 . S
O69 Gd41 2.506 . S
O69 C52 1.252 . S
O70 Gd41 2.435 . S
O70 C59 1.256 . S
O71 Gd40 2.327 1_545 S
O71 Gd41 2.717 . S
O71 C59 1.257 . S
H72 C45 0.930 . S
H73 C46 0.931 . S
H74 C48 0.931 . S
H75 C49 0.931 . S
H76 C54 0.930 . S
H77 C55 0.931 . S
H78 C57 0.931 . S
H79 C58 0.931 . S
Gd80 C83 2.818 . S
Gd80 O100 2.377 . S
Gd80 O102 2.448 . S
Gd80 O103 2.506 . S
Gd80 O104 2.435 . S
Gd80 O105 2.717 . S
Gd80 O107 2.395 . S
Gd80 O111 2.327 . S
Gd81 C92 2.818 . S
Gd81 O101 2.395 . S
Gd81 O105 2.327 . S
Gd81 O106 2.377 . S
Gd81 O108 2.448 . S
Gd81 O109 2.506 . S
Gd81 O110 2.435 . S
Gd81 O111 2.717 . S
C82 O100 1.240 . S
C82 O101 1.240 . S
C83 Gd80 2.818 . S
C83 C84 1.510 . S
C83 O102 1.249 . S
C83 O103 1.252 . S
C84 C83 1.510 . S
C84 C85 1.404 . S
C84 C86 1.352 . S
C85 C84 1.404 . S
C85 C89 1.389 . S
C85 H112 0.930 . S
C86 C84 1.352 . S
C86 C88 1.374 . S
C86 H113 0.931 . S
C87 C88 1.359 . S
C87 C89 1.364 . S
C88 C86 1.374 . S
C88 C87 1.359 . S
C88 H114 0.931 . S
C89 C85 1.389 . S
C89 C87 1.364 . S
C89 H115 0.931 . S
C90 O104 1.256 . S
C90 O105 1.257 . S
C91 O106 1.240 . S
C91 O107 1.240 . S
C92 Gd81 2.818 . S
C92 C93 1.510 . S
C92 O108 1.249 . S
C92 O109 1.252 . S
C93 C92 1.510 . S
C93 C94 1.404 . S
C93 C95 1.352 . S
C94 C93 1.404 . S
C94 C98 1.389 . S
C94 H116 0.930 . S
C95 C93 1.352 . S
C95 C97 1.374 . S
C95 H117 0.931 . S
C96 C97 1.359 . S
C96 C98 1.364 . S
C97 C95 1.374 . S
C97 C96 1.359 . S
C97 H118 0.931 . S
C98 C94 1.389 . S
C98 C96 1.364 . S
C98 H119 0.931 . S
C99 O110 1.256 . S
C99 O111 1.257 . S
O100 Gd80 2.377 . S
O100 C82 1.240 . S
O101 Gd81 2.395 . S
O101 C82 1.240 . S
O102 Gd80 2.448 . S
O102 C83 1.249 . S
O103 Gd80 2.506 . S
O103 C83 1.252 . S
O104 Gd80 2.435 . S
O104 C90 1.256 . S
O105 Gd80 2.717 . S
O105 Gd81 2.327 . S
O105 C90 1.257 . S
O106 Gd81 2.377 . S
O106 C91 1.240 . S
O107 Gd80 2.395 . S
O107 C91 1.240 . S
O108 Gd81 2.448 . S
O108 C92 1.249 . S
O109 Gd81 2.506 . S
O109 C92 1.252 . S
O110 Gd81 2.435 . S
O110 C99 1.256 . S
O111 Gd80 2.327 . S
O111 Gd81 2.717 . S
O111 C99 1.257 . S
H112 C85 0.930 . S
H113 C86 0.931 . S
H114 C88 0.931 . S
H115 C89 0.931 . S
H116 C94 0.930 . S
H117 C95 0.931 . S
H118 C97 0.931 . S
H119 C98 0.931 . S
P120 O131 1.490 1_545 S
P120 C134 1.812 1_545 S
P120 C140 1.803 . S
P120 C146 1.819 . S
H121 C135 0.941 . S
H122 C136 0.939 . S
H123 C138 0.940 . S
H124 C139 0.940 . S
H125 C141 0.939 . S
H126 C142 0.942 . S
H127 C144 0.940 . S
H128 C145 0.939 . S
H129 C147 0.941 . S
H130 C151 0.939 . S
O131 P120 1.490 1_565 S
H132 C148 0.939 . S
H133 C150 0.940 . S
C134 P120 1.812 1_565 S
C134 C135 1.389 . S
C134 C139 1.391 . S
C135 H121 0.941 . S
C135 C134 1.389 . S
C135 C136 1.397 . S
C136 H122 0.939 . S
C136 C135 1.397 . S
C136 C137 1.378 . S
C137 C136 1.378 . S
C137 C138 1.378 . S
C138 H123 0.940 . S
C138 C137 1.378 . S
C138 C139 1.396 . S
C139 H124 0.940 . S
C139 C134 1.391 . S
C139 C138 1.396 . S
C140 P120 1.803 . S
C140 C141 1.378 . S
C140 C145 1.400 . S
C141 H125 0.939 . S
C141 C140 1.378 . S
C141 C142 1.361 . S
C142 H126 0.942 . S
C142 C141 1.361 . S
C142 C143 1.369 . S
C143 C142 1.369 . S
C143 C144 1.404 . S
C144 H127 0.940 . S
C144 C143 1.404 . S
C144 C145 1.389 . S
C145 H128 0.939 . S
C145 C140 1.400 . S
C145 C144 1.389 . S
C146 P120 1.819 . S
C146 C147 1.391 1_545 S
C146 C151 1.391 . S
C147 H129 0.941 . S
C147 C146 1.391 1_565 S
C147 C148 1.396 . S
C148 H132 0.939 . S
C148 C147 1.396 . S
C148 C149 1.397 1_565 S
C149 C148 1.397 1_545 S
C149 C150 1.385 . S
C150 H133 0.940 . S
C150 C149 1.385 . S
C150 C151 1.388 . S
C151 H130 0.939 . S
C151 C146 1.391 . S
C151 C150 1.388 . S
P152 O163 1.490 . S
P152 C166 1.812 . S
P152 C172 1.803 . S
P152 C178 1.819 . S
H153 C167 0.941 . S
H154 C168 0.939 . S
H155 C170 0.940 . S
H156 C171 0.940 . S
H157 C173 0.939 . S
H158 C174 0.942 . S
H159 C176 0.940 . S
H160 C177 0.939 . S
H161 C179 0.941 . S
H162 C183 0.939 . S
O163 P152 1.490 . S
H164 C180 0.939 . S
H165 C182 0.940 . S
C166 P152 1.812 . S
C166 C167 1.389 . S
C166 C171 1.391 . S
C167 H153 0.941 . S
C167 C166 1.389 . S
C167 C168 1.397 . S
C168 H154 0.939 . S
C168 C167 1.397 . S
C168 C169 1.378 . S
C169 C168 1.378 . S
C169 C170 1.378 . S
C170 H155 0.940 . S
C170 C169 1.378 . S
C170 C171 1.396 . S
C171 H156 0.940 . S
C171 C166 1.391 . S
C171 C170 1.396 . S
C172 P152 1.803 . S
C172 C173 1.378 . S
C172 C177 1.400 . S
C173 H157 0.939 . S
C173 C172 1.378 . S
C173 C174 1.361 . S
C174 H158 0.942 . S
C174 C173 1.361 . S
C174 C175 1.369 . S
C175 C174 1.369 . S
C175 C176 1.404 . S
C176 H159 0.940 . S
C176 C175 1.404 . S
C176 C177 1.389 . S
C177 H160 0.939 . S
C177 C172 1.400 . S
C177 C176 1.389 . S
C178 P152 1.819 . S
C178 C179 1.391 . S
C178 C183 1.391 . S
C179 H161 0.941 . S
C179 C178 1.391 . S
C179 C180 1.396 . S
C180 H164 0.939 . S
C180 C179 1.396 . S
C180 C181 1.397 . S
C181 C180 1.397 . S
C181 C182 1.385 . S
C182 H165 0.940 . S
C182 C181 1.385 . S
C182 C183 1.388 . S
C183 H162 0.939 . S
C183 C178 1.391 . S
C183 C182 1.388 . S
P184 O195 1.490 . S
P184 C198 1.812 . S
P184 C204 1.803 . S
P184 C210 1.819 . S
H185 C199 0.941 . S
H186 C200 0.939 . S
H187 C202 0.940 . S
H188 C203 0.940 . S
H189 C205 0.939 . S
H190 C206 0.942 . S
H191 C208 0.940 . S
H192 C209 0.939 . S
H193 C211 0.941 . S
H194 C215 0.939 . S
O195 P184 1.490 . S
H196 C212 0.939 . S
H197 C214 0.940 1_655 S
C198 P184 1.812 . S
C198 C199 1.389 . S
C198 C203 1.391 . S
C199 H185 0.941 . S
C199 C198 1.389 . S
C199 C200 1.397 . S
C200 H186 0.939 . S
C200 C199 1.397 . S
C200 C201 1.378 . S
C201 C200 1.378 . S
C201 C202 1.378 . S
C202 H187 0.940 . S
C202 C201 1.378 . S
C202 C203 1.396 . S
C203 H188 0.940 . S
C203 C198 1.391 . S
C203 C202 1.396 . S
C204 P184 1.803 . S
C204 C205 1.378 . S
C204 C209 1.400 . S
C205 H189 0.939 . S
C205 C204 1.378 . S
C205 C206 1.361 1_455 S
C206 H190 0.942 . S
C206 C205 1.361 1_655 S
C206 C207 1.369 . S
C207 C206 1.369 . S
C207 C208 1.404 . S
C208 H191 0.940 . S
C208 C207 1.404 . S
C208 C209 1.389 1_655 S
C209 H192 0.939 . S
C209 C204 1.400 . S
C209 C208 1.389 1_455 S
C210 P184 1.819 . S
C210 C211 1.391 . S
C210 C215 1.391 . S
C211 H193 0.941 . S
C211 C210 1.391 . S
C211 C212 1.396 . S
C212 H196 0.939 . S
C212 C211 1.396 . S
C212 C213 1.397 . S
C213 C212 1.397 . S
C213 C214 1.385 . S
C214 H197 0.940 1_455 S
C214 C213 1.385 . S
C214 C215 1.388 . S
C215 H194 0.939 . S
C215 C210 1.391 . S
C215 C214 1.388 . S
P216 O227 1.490 . S
P216 C230 1.812 . S
P216 C236 1.803 1_455 S
P216 C242 1.819 . S
H217 C231 0.941 . S
H218 C232 0.939 . S
H219 C234 0.940 . S
H220 C235 0.940 . S
H221 C237 0.939 . S
H222 C238 0.942 . S
H223 C240 0.940 . S
H224 C241 0.939 . S
H225 C243 0.941 . S
H226 C247 0.939 . S
O227 P216 1.490 . S
H228 C244 0.939 . S
H229 C246 0.940 . S
C230 P216 1.812 . S
C230 C231 1.389 . S
C230 C235 1.391 . S
C231 H217 0.941 . S
C231 C230 1.389 . S
C231 C232 1.397 . S
C232 H218 0.939 . S
C232 C231 1.397 . S
C232 C233 1.378 . S
C233 C232 1.378 . S
C233 C234 1.378 . S
C234 H219 0.940 . S
C234 C233 1.378 . S
C234 C235 1.396 . S
C235 H220 0.940 . S
C235 C230 1.391 . S
C235 C234 1.396 . S
C236 P216 1.803 1_655 S
C236 C237 1.378 . S
C236 C241 1.400 . S
C237 H221 0.939 . S
C237 C236 1.378 . S
C237 C238 1.361 . S
C238 H222 0.942 . S
C238 C237 1.361 . S
C238 C239 1.369 . S
C239 C238 1.369 . S
C239 C240 1.404 . S
C240 H223 0.940 . S
C240 C239 1.404 . S
C240 C241 1.389 . S
C241 H224 0.939 . S
C241 C236 1.400 . S
C241 C240 1.389 . S
C242 P216 1.819 . S
C242 C243 1.391 . S
C242 C247 1.391 1_455 S
C243 H225 0.941 . S
C243 C242 1.391 . S
C243 C244 1.396 . S
C244 H228 0.939 . S
C244 C243 1.396 . S
C244 C245 1.397 . S
C245 C244 1.397 . S
C245 C246 1.385 1_455 S
C246 H229 0.940 . S
C246 C245 1.385 1_655 S
C246 C247 1.388 . S
C247 H226 0.939 . S
C247 C242 1.391 1_655 S
C247 C246 1.388 . S
P248 O259 1.490 . S
P248 C262 1.812 . S
P248 C268 1.803 1_545 S
P248 C274 1.819 . S
H249 C263 0.941 . S
H250 C264 0.939 . S
H251 C266 0.940 . S
H252 C267 0.940 . S
H253 C269 0.939 1_545 S
H254 C270 0.942 . S
H255 C272 0.940 . S
H256 C273 0.939 . S
H257 C275 0.941 . S
H258 C279 0.939 . S
O259 P248 1.490 . S
H260 C276 0.939 . S
H261 C278 0.940 . S
C262 P248 1.812 . S
C262 C263 1.389 . S
C262 C267 1.391 . S
C263 H249 0.941 . S
C263 C262 1.389 . S
C263 C264 1.397 . S
C264 H250 0.939 . S
C264 C263 1.397 . S
C264 C265 1.378 . S
C265 C264 1.378 . S
C265 C266 1.378 . S
C266 H251 0.940 . S
C266 C265 1.378 . S
C266 C267 1.396 . S
C267 H252 0.940 . S
C267 C262 1.391 . S
C267 C266 1.396 . S
C268 P248 1.803 1_565 S
C268 C269 1.378 . S
C268 C273 1.400 . S
C269 H253 0.939 1_565 S
C269 C268 1.378 . S
C269 C270 1.361 . S
C270 H254 0.942 . S
C270 C269 1.361 . S
C270 C271 1.369 . S
C271 C270 1.369 . S
C271 C272 1.404 . S
C272 H255 0.940 . S
C272 C271 1.404 . S
C272 C273 1.389 . S
C273 H256 0.939 . S
C273 C268 1.400 . S
C273 C272 1.389 . S
C274 P248 1.819 . S
C274 C275 1.391 . S
C274 C279 1.391 1_545 S
C275 H257 0.941 . S
C275 C274 1.391 . S
C275 C276 1.396 . S
C276 H260 0.939 . S
C276 C275 1.396 . S
C276 C277 1.407 . S
C277 C276 1.407 . S
C277 C278 1.374 1_545 S
C278 H261 0.940 . S
C278 C277 1.374 1_565 S
C278 C279 1.388 . S
C279 H258 0.939 . S
C279 C274 1.391 1_565 S
C279 C278 1.388 . S
P280 O291 1.490 . S
P280 C294 1.812 . S
P280 C300 1.803 . S
P280 C306 1.819 . S
H281 C295 0.941 . S
H282 C296 0.939 . S
H283 C298 0.940 . S
H284 C299 0.940 . S
H285 C301 0.939 . S
H286 C302 0.942 . S
H287 C304 0.940 . S
H288 C305 0.939 . S
H289 C307 0.941 . S
H290 C311 0.939 . S
O291 P280 1.490 . S
H292 C308 0.939 . S
H293 C310 0.940 . S
C294 P280 1.812 . S
C294 C295 1.389 . S
C294 C299 1.391 . S
C295 H281 0.941 . S
C295 C294 1.389 . S
C295 C296 1.397 . S
C296 H282 0.939 . S
C296 C295 1.397 . S
C296 C297 1.378 . S
C297 C296 1.378 . S
C297 C298 1.378 . S
C298 H283 0.940 . S
C298 C297 1.378 . S
C298 C299 1.396 . S
C299 H284 0.940 . S
C299 C294 1.391 . S
C299 C298 1.396 . S
C300 P280 1.803 . S
C300 C301 1.378 . S
C300 C305 1.400 . S
C301 H285 0.939 . S
C301 C300 1.378 . S
C301 C302 1.361 . S
C302 H286 0.942 . S
C302 C301 1.361 . S
C302 C303 1.369 . S
C303 C302 1.369 . S
C303 C304 1.404 . S
C304 H287 0.940 . S
C304 C303 1.404 . S
C304 C305 1.389 . S
C305 H288 0.939 . S
C305 C300 1.400 . S
C305 C304 1.389 . S
C306 P280 1.819 . S
C306 C307 1.391 . S
C306 C311 1.391 . S
C307 H289 0.941 . S
C307 C306 1.391 . S
C307 C308 1.396 1_554 S
C308 H292 0.939 . S
C308 C307 1.396 1_556 S
C308 C309 1.397 . S
C309 C308 1.397 . S
C309 C310 1.385 1_556 S
C310 H293 0.940 . S
C310 C309 1.385 1_554 S
C310 C311 1.388 . S
C311 H290 0.939 . S
C311 C306 1.391 . S
C311 C310 1.388 . S
C312 C313 1.387 . S
C312 H316 0.950 . S
C312 C321 1.390 . S
C313 C312 1.387 . S
C313 C315 1.387 . S
H314 C321 0.950 . S
C315 C313 1.387 . S
C315 C317 1.390 . S
C315 H319 0.950 . S
H316 C312 0.950 . S
C317 C315 1.390 . S
C317 C318 1.387 . S
C317 H320 0.950 . S
C318 C317 1.387 . S
C318 C321 1.387 . S
H319 C315 0.950 . S
H320 C317 0.950 . S
C321 C312 1.390 . S
C321 H314 0.950 . S
C321 C318 1.387 . S
C322 C323 1.387 . S
C322 H326 0.950 . S
C322 C331 1.390 . S
C323 C322 1.387 . S
C323 C325 1.387 . S
H324 C331 0.950 . S
C325 C323 1.387 . S
C325 C327 1.390 . S
C325 H329 0.950 . S
H326 C322 0.950 . S
C327 C325 1.390 . S
C327 C328 1.387 . S
C327 H330 0.950 . S
C328 C327 1.387 . S
C328 C331 1.387 . S
H329 C325 0.950 . S
H330 C327 0.950 . S
C331 C322 1.390 . S
C331 H324 0.950 . S
C331 C328 1.387 . S
C332 C333 1.387 . S
C332 H336 0.950 . S
C332 C341 1.390 . S
C333 C332 1.387 . S
C333 C335 1.387 . S
H334 C341 0.950 . S
C335 C333 1.387 . S
C335 C337 1.390 . S
C335 H339 0.950 . S
H336 C332 0.950 . S
C337 C335 1.390 . S
C337 C338 1.387 . S
C337 H340 0.950 . S
C338 C337 1.387 . S
C338 C341 1.387 . S
H339 C335 0.950 . S
H340 C337 0.950 . S
C341 C332 1.390 . S
C341 H334 0.950 . S
C341 C338 1.387 . S
C342 C343 1.387 . S
C342 H346 0.950 . S
C342 C351 1.390 . S
C343 C342 1.387 . S
C343 C345 1.387 . S
H344 C351 0.950 . S
C345 C343 1.387 . S
C345 C347 1.390 . S
C345 H349 0.950 . S
H346 C342 0.950 . S
C347 C345 1.390 . S
C347 C348 1.387 . S
C347 H350 0.950 . S
C348 C347 1.387 . S
C348 C351 1.387 . S
H349 C345 0.950 . S
H350 C347 0.950 . S
C351 C342 1.390 . S
C351 H344 0.950 . S
C351 C348 1.387 . S
C352 C353 1.387 . S
C352 H356 0.950 . S
C352 C361 1.390 . S
C353 C352 1.387 . S
C353 C355 1.387 . S
H354 C361 0.950 . S
C355 C353 1.387 . S
C355 C357 1.390 . S
C355 H359 0.950 . S
H356 C352 0.950 . S
C357 C355 1.390 . S
C357 C358 1.387 . S
C357 H360 0.950 . S
C358 C357 1.387 . S
C358 C361 1.387 . S
H359 C355 0.950 . S
H360 C357 0.950 . S
C361 C352 1.390 . S
C361 H354 0.950 . S
C361 C358 1.387 . S
C362 C363 1.387 . S
C362 H366 0.950 . S
C362 C371 1.390 . S
C363 C362 1.387 . S
C363 C365 1.387 . S
H364 C371 0.950 . S
C365 C363 1.387 . S
C365 C367 1.390 . S
C365 H369 0.950 . S
H366 C362 0.950 . S
C367 C365 1.390 . S
C367 C368 1.387 . S
C367 H370 0.950 . S
C368 C367 1.387 . S
C368 C371 1.387 . S
H369 C365 0.950 . S
H370 C367 0.950 . S
C371 C362 1.390 . S
C371 H364 0.950 . S
C371 C368 1.387 . S
C372 C373 1.387 . S
C372 H376 0.950 . S
C372 C381 1.390 . S
C373 C372 1.387 . S
C373 C375 1.387 . S
H374 C381 0.950 . S
C375 C373 1.387 . S
C375 C377 1.390 . S
C375 H379 0.950 . S
H376 C372 0.950 . S
C377 C375 1.390 . S
C377 C378 1.387 . S
C377 H380 0.950 . S
C378 C377 1.387 . S
C378 C381 1.387 . S
H379 C375 0.950 . S
H380 C377 0.950 . S
C381 C372 1.390 . S
C381 H374 0.950 . S
C381 C378 1.387 . S
C382 C383 1.387 . S
C382 H386 0.950 . S
C382 C391 1.390 . S
C383 C382 1.387 . S
C383 C385 1.387 . S
H384 C391 0.950 . S
C385 C383 1.387 . S
C385 C387 1.390 . S
C385 H389 0.950 . S
H386 C382 0.950 . S
C387 C385 1.390 . S
C387 C388 1.387 . S
C387 H390 0.950 . S
C388 C387 1.387 . S
C388 C391 1.387 . S
H389 C385 0.950 . S
H390 C387 0.950 . S
C391 C382 1.390 . S
C391 H384 0.950 . S
C391 C388 1.387 . S
C392 C393 1.387 . S
C392 H396 0.950 . S
C392 C401 1.390 . S
C393 C392 1.387 . S
C393 C395 1.387 . S
H394 C401 0.950 . S
C395 C393 1.387 . S
C395 C397 1.390 . S
C395 H399 0.950 . S
H396 C392 0.950 . S
C397 C395 1.390 . S
C397 C398 1.387 . S
C397 H400 0.950 . S
C398 C397 1.387 . S
C398 C401 1.387 . S
H399 C395 0.950 . S
H400 C397 0.950 . S
C401 C392 1.390 . S
C401 H394 0.950 . S
C401 C398 1.387 . S
C402 C403 1.387 . S
C402 H406 0.950 . S
C402 C411 1.390 . S
C403 C402 1.387 . S
C403 C405 1.387 . S
H404 C411 0.950 . S
C405 C403 1.387 . S
C405 C407 1.390 . S
C405 H409 0.950 . S
H406 C402 0.950 . S
C407 C405 1.390 . S
C407 C408 1.387 . S
C407 H410 0.950 . S
C408 C407 1.387 . S
C408 C411 1.387 . S
H409 C405 0.950 . S
H410 C407 0.950 . S
C411 C402 1.390 . S
C411 H404 0.950 . S
C411 C408 1.387 . S
C412 C413 1.387 . S
C412 H416 0.950 . S
C412 C421 1.390 . S
C413 C412 1.387 . S
C413 C415 1.387 . S
H414 C421 0.950 . S
C415 C413 1.387 . S
C415 C417 1.390 . S
C415 H419 0.950 . S
H416 C412 0.950 . S
C417 C415 1.390 . S
C417 C418 1.387 . S
C417 H420 0.950 . S
C418 C417 1.387 . S
C418 C421 1.387 . S
H419 C415 0.950 . S
H420 C417 0.950 . S
C421 C412 1.390 . S
C421 H414 0.950 . S
C421 C418 1.387 . S
C422 C423 1.387 . S
C422 H426 0.950 . S
C422 C431 1.390 . S
C423 C422 1.387 . S
C423 C425 1.387 . S
H424 C431 0.950 . S
C425 C423 1.387 . S
C425 C427 1.390 . S
C425 H429 0.950 . S
H426 C422 0.950 . S
C427 C425 1.390 . S
C427 C428 1.387 . S
C427 H430 0.950 . S
C428 C427 1.387 . S
C428 C431 1.387 . S
H429 C425 0.950 . S
H430 C427 0.950 . S
C431 C422 1.390 . S
C431 H424 0.950 . S
C431 C428 1.387 . S
C432 C433 1.387 . S
C432 H436 0.950 . S
C432 C441 1.390 . S
C433 C432 1.387 . S
C433 C435 1.387 . S
H434 C441 0.950 . S
C435 C433 1.387 . S
C435 C437 1.390 . S
C435 H439 0.950 1_455 S
H436 C432 0.950 . S
C437 C435 1.390 . S
C437 C438 1.387 . S
C437 H440 0.950 1_455 S
C438 C437 1.387 . S
C438 C441 1.387 . S
H439 C435 0.950 1_655 S
H440 C437 0.950 1_655 S
C441 C432 1.390 . S
C441 H434 0.950 . S
C441 C438 1.387 . S
C442 C443 1.387 . S
C442 H446 0.950 . S
C442 C451 1.390 . S
C443 C442 1.387 . S
C443 C445 1.387 1_545 S
H444 C451 0.950 . S
C445 C443 1.387 1_565 S
C445 C447 1.390 . S
C445 H449 0.950 . S
H446 C442 0.950 . S
C447 C445 1.390 . S
C447 C448 1.387 1_565 S
C447 H450 0.950 . S
C448 C447 1.387 1_545 S
C448 C451 1.387 . S
H449 C445 0.950 . S
H450 C447 0.950 . S
C451 C442 1.390 . S
C451 H444 0.950 . S
C451 C448 1.387 . S
C452 C453 1.387 . S
C452 H456 0.950 . S
C452 C461 1.390 . S
C453 C452 1.387 . S
C453 C455 1.387 . S
H454 C461 0.950 . S
C455 C453 1.387 . S
C455 C457 1.390 . S
C455 H459 0.950 . S
H456 C452 0.950 . S
C457 C455 1.390 . S
C457 C458 1.387 . S
C457 H460 0.950 . S
C458 C457 1.387 . S
C458 C461 1.387 . S
H459 C455 0.950 . S
H460 C457 0.950 . S
C461 C452 1.390 . S
C461 H454 0.950 . S
C461 C458 1.387 . S
C462 C463 1.387 . S
C462 H466 0.950 . S
C462 C471 1.390 . S
C463 C462 1.387 . S
C463 C465 1.387 1_545 S
H464 C471 0.950 . S
C465 C463 1.387 1_565 S
C465 C467 1.390 . S
C465 H469 0.950 . S
H466 C462 0.950 . S
C467 C465 1.390 . S
C467 C468 1.387 . S
C467 H470 0.950 . S
C468 C467 1.387 . S
C468 C471 1.387 1_565 S
H469 C465 0.950 . S
H470 C467 0.950 . S
C471 C462 1.390 . S
C471 H464 0.950 . S
C471 C468 1.387 1_545 S
C472 C473 1.387 . S
C472 H476 0.950 . S
C472 C481 1.390 . S
C473 C472 1.387 . S
C473 C475 1.387 . S
H474 C481 0.950 . S
C475 C473 1.387 . S
C475 C477 1.390 . S
C475 H479 0.950 . S
H476 C472 0.950 . S
C477 C475 1.390 . S
C477 C478 1.387 . S
C477 H480 0.950 . S
C478 C477 1.387 . S
C478 C481 1.387 . S
H479 C475 0.950 . S
H480 C477 0.950 . S
C481 C472 1.390 . S
C481 H474 0.950 . S
C481 C478 1.387 . S
C482 C483 1.387 . S
C482 H486 0.950 . S
C482 C491 1.390 . S
C483 C482 1.387 . S
C483 C485 1.387 1_455 S
H484 C491 0.950 . S
C485 C483 1.387 1_655 S
C485 C487 1.390 . S
C485 H489 0.950 . S
H486 C482 0.950 . S
C487 C485 1.390 . S
C487 C488 1.387 1_655 S
C487 H490 0.950 . S
C488 C487 1.387 1_455 S
C488 C491 1.387 . S
H489 C485 0.950 . S
H490 C487 0.950 . S
C491 C482 1.390 . S
C491 H484 0.950 . S
C491 C488 1.387 . S
C313 C7 0.991 . S
C318 C303 1.163 . S
C323 C51 1.964 . S
C328 C239 1.886 . S
C333 C87 1.399 . S
C338 C271 1.400 . S
C343 C16 0.748 . S
C348 C297 0.751 . S
C358 C233 1.971 . S
C353 C42 2.069 . S
C368 C265 1.393 . S
C363 C96 1.384 . S
C373 C47 1.301 . S
C378 C175 1.351 . S
C383 C91 3.125 . S
C388 C207 3.036 . S
C393 C2 2.107 . S
C398 C137 2.017 . S
C408 C169 1.421 . S
C403 C56 1.393 . S
C418 C201 3.022 . S
C413 C82 3.065 . S
C423 C11 1.964 . S
C428 C143 1.913 . S
C438 C213 1.764 1_554 S
C433 C19 1.731 . S
C443 C50 1.332 . S
C448 C149 1.340 . S
C453 C99 1.457 . S
C458 C181 1.484 . S
C468 C277 1.441 1_565 S
C463 C59 1.450 . S
C478 C309 1.114 . S
C473 C90 1.108 . S
C483 C10 1.321 . S
C488 C245 1.320 . S
