# Generated by pormake.
# Topology hwx, (6,3)-cn, num edge types: 1
# Building blocks:
#     Node 0, Type 0, BuildingBlock: OJICUG_clean_sbu_0, # of connection points: 6
#     Node 1, Type 0, BuildingBlock: OJICUG_clean_sbu_0, # of connection points: 6
#     Node 2, Type 0, BuildingBlock: OJICUG_clean_sbu_0, # of connection points: 6
#     Node 3, Type 0, BuildingBlock: OJICUG_clean_sbu_0, # of connection points: 6
#     Node 4, Type 1, BuildingBlock: BELTOD_clean_linker_0, # of connection points: 3
#     Node 5, Type 1, BuildingBlock: BELTOD_clean_linker_0, # of connection points: 3
#     Node 6, Type 1, BuildingBlock: BELTOD_clean_linker_0, # of connection points: 3
#     Node 7, Type 1, BuildingBlock: BELTOD_clean_linker_0, # of connection points: 3
#     Node 8, Type 1, BuildingBlock: BELTOD_clean_linker_0, # of connection points: 3
#     Node 9, Type 1, BuildingBlock: BELTOD_clean_linker_0, # of connection points: 3
#     Node 10, Type 1, BuildingBlock: BELTOD_clean_linker_0, # of connection points: 3
#     Node 11, Type 1, BuildingBlock: BELTOD_clean_linker_0, # of connection points: 3
#     Edge 12, Type (0, 1), BuildingBlock: CIFDUS_clean_linker_0, # of connection points: 2
#     Edge 13, Type (0, 1), BuildingBlock: CIFDUS_clean_linker_0, # of connection points: 2
#     Edge 14, Type (0, 1), BuildingBlock: CIFDUS_clean_linker_0, # of connection points: 2
#     Edge 15, Type (0, 1), BuildingBlock: CIFDUS_clean_linker_0, # of connection points: 2
#     Edge 16, Type (0, 1), BuildingBlock: CIFDUS_clean_linker_0, # of connection points: 2
#     Edge 17, Type (0, 1), BuildingBlock: CIFDUS_clean_linker_0, # of connection points: 2
#     Edge 18, Type (0, 1), BuildingBlock: CIFDUS_clean_linker_0, # of connection points: 2
#     Edge 19, Type (0, 1), BuildingBlock: CIFDUS_clean_linker_0, # of connection points: 2
#     Edge 20, Type (0, 1), BuildingBlock: CIFDUS_clean_linker_0, # of connection points: 2
#     Edge 21, Type (0, 1), BuildingBlock: CIFDUS_clean_linker_0, # of connection points: 2
#     Edge 22, Type (0, 1), BuildingBlock: CIFDUS_clean_linker_0, # of connection points: 2
#     Edge 23, Type (0, 1), BuildingBlock: CIFDUS_clean_linker_0, # of connection points: 2
#     Edge 24, Type (0, 1), BuildingBlock: CIFDUS_clean_linker_0, # of connection points: 2
#     Edge 25, Type (0, 1), BuildingBlock: CIFDUS_clean_linker_0, # of connection points: 2
#     Edge 26, Type (0, 1), BuildingBlock: CIFDUS_clean_linker_0, # of connection points: 2
#     Edge 27, Type (0, 1), BuildingBlock: CIFDUS_clean_linker_0, # of connection points: 2
#     Edge 28, Type (0, 1), BuildingBlock: CIFDUS_clean_linker_0, # of connection points: 2
#     Edge 29, Type (0, 1), BuildingBlock: CIFDUS_clean_linker_0, # of connection points: 2
#     Edge 30, Type (0, 1), BuildingBlock: CIFDUS_clean_linker_0, # of connection points: 2
#     Edge 31, Type (0, 1), BuildingBlock: CIFDUS_clean_linker_0, # of connection points: 2
#     Edge 32, Type (0, 1), BuildingBlock: CIFDUS_clean_linker_0, # of connection points: 2
#     Edge 33, Type (0, 1), BuildingBlock: CIFDUS_clean_linker_0, # of connection points: 2
#     Edge 34, Type (0, 1), BuildingBlock: CIFDUS_clean_linker_0, # of connection points: 2
#     Edge 35, Type (0, 1), BuildingBlock: CIFDUS_clean_linker_0, # of connection points: 2
# Relax obj value: 0.069
# Max RMSD: 0.096
# Mean RMSD: 0.087
data_MOF--net-hwx--node1-OJICUG_clean_sbu_0--node2-BELTOD_clean_linker_0--edge1-CIFDUS_clean_linker_0
_symmetry_space_group_name_H-M    P1
_symmetry_Int_Tables_number       1
_symmetry_cell_setting            triclinic
loop_
_symmetry_equiv_pos_as_xyz
'x, y, z'
_cell_length_a     50.796881
_cell_length_b     50.786638
_cell_length_c     22.591011
_cell_angle_alpha  89.527276
_cell_angle_beta   90.34479
_cell_angle_gamma 90.047218
loop_
_atom_site_label
_atom_site_type_symbol
_atom_site_fract_x
_atom_site_fract_y
_atom_site_fract_z
_atom_type_partial_charge
Sc0 Sc 0.21017 0.21824 0.05298 0.0
Sc1 Sc 0.1679 0.17227 0.9836 0.0
Sc2 Sc 0.2107 0.21254 0.89899 0.0
O3 O 0.19616 0.20102 0.97851 0.0
C4 C 0.20635 0.26759 0.96562 0.0
C5 C 0.14917 0.21207 0.08377 0.0
C6 C 0.14922 0.20576 0.87115 0.0
C7 C 0.20694 0.15753 0.08999 0.0
C8 C 0.26284 0.21353 0.97733 0.0
C9 C 0.20532 0.15058 0.88158 0.0
O10 O 0.20675 0.25731 0.01707 0.0
O11 O 0.14496 0.19318 0.04835 0.0
O12 O 0.17226 0.21425 0.86068 0.0
O13 O 0.2155 0.18089 0.09525 0.0
O14 O 0.25091 0.21197 0.928 0.0
O15 O 0.1871 0.14748 0.91939 0.0
O16 O 0.25076 0.21585 0.0261 0.0
O17 O 0.18938 0.15096 0.05237 0.0
O18 O 0.21597 0.17272 0.8709 0.0
O19 O 0.17151 0.22304 0.08927 0.0
O20 O 0.2075 0.25399 0.91865 0.0
O21 O 0.14388 0.19085 0.91513 0.0
Sc22 Sc 0.27339 0.71201 0.4417 0.0
Sc23 Sc 0.32433 0.68596 0.53136 0.0
Sc24 Sc 0.26787 0.7131 0.5966 0.0
O25 O 0.28853 0.70361 0.52323 0.0
C26 C 0.26159 0.76416 0.51359 0.0
C27 C 0.33491 0.72346 0.42126 0.0
C28 C 0.32646 0.72698 0.63742 0.0
C29 C 0.29683 0.65487 0.42378 0.0
C30 C 0.22079 0.69685 0.51193 0.0
C31 C 0.29092 0.65678 0.63208 0.0
O32 O 0.26692 0.75246 0.46547 0.0
O33 O 0.3428 0.71195 0.4682 0.0
O34 O 0.30163 0.7289 0.64071 0.0
O35 O 0.27932 0.67221 0.41284 0.0
O36 O 0.23126 0.69866 0.56276 0.0
O37 O 0.3101 0.65798 0.59615 0.0
O38 O 0.23333 0.70183 0.46464 0.0
O39 O 0.31473 0.6578 0.46303 0.0
O40 O 0.274 0.67508 0.63678 0.0
O41 O 0.31087 0.7238 0.40535 0.0
O42 O 0.26011 0.75225 0.5633 0.0
O43 O 0.33782 0.71232 0.60001 0.0
Sc44 Sc 0.7641 0.76333 0.92009 0.0
Sc45 Sc 0.80113 0.80506 0.01146 0.0
Sc46 Sc 0.75804 0.75864 0.07501 0.0
O47 O 0.77449 0.77566 0.0022 0.0
C48 C 0.70922 0.76227 0.98576 0.0
C49 C 0.76938 0.82543 0.89906 0.0
C50 C 0.75797 0.81919 0.10928 0.0
C51 C 0.8258 0.77133 0.90597 0.0
C52 C 0.76785 0.70921 0.9937 0.0
C53 C 0.81726 0.76793 0.11908 0.0
O54 O 0.7227 0.76717 0.9397 0.0
O55 O 0.78214 0.82981 0.94645 0.0
O56 O 0.74746 0.79642 0.11155 0.0
O57 O 0.80466 0.75907 0.89315 0.0
O58 O 0.76734 0.71961 0.04473 0.0
O59 O 0.82332 0.78394 0.07785 0.0
O60 O 0.76494 0.72246 0.94612 0.0
O61 O 0.82695 0.78891 0.94574 0.0
O62 O 0.79431 0.7583 0.1246 0.0
O63 O 0.76259 0.80247 0.8831 0.0
O64 O 0.71944 0.7568 0.03577 0.0
O65 O 0.77795 0.82436 0.07753 0.0
Sc66 Sc 0.71752 0.26994 0.5809 0.0
Sc67 Sc 0.69107 0.32657 0.51106 0.0
Sc68 Sc 0.71076 0.27258 0.42616 0.0
O69 O 0.70644 0.28969 0.50623 0.0
C70 C 0.76536 0.26124 0.4913 0.0
C71 C 0.73401 0.32894 0.61421 0.0
C72 C 0.72437 0.33268 0.39486 0.0
C73 C 0.66262 0.29547 0.61701 0.0
C74 C 0.69737 0.22164 0.50401 0.0
C75 C 0.65494 0.29868 0.41222 0.0
O76 O 0.75568 0.26154 0.54332 0.0
O77 O 0.71924 0.3401 0.576 0.0
O78 O 0.72195 0.30849 0.38254 0.0
O79 O 0.68012 0.27762 0.62283 0.0
O80 O 0.7 0.23386 0.45533 0.0
O81 O 0.66064 0.31768 0.44653 0.0
O82 O 0.70215 0.23235 0.55345 0.0
O83 O 0.66432 0.31423 0.57942 0.0
O84 O 0.67037 0.27942 0.40346 0.0
O85 O 0.73505 0.30411 0.62053 0.0
O86 O 0.75164 0.26506 0.44461 0.0
O87 O 0.71647 0.34249 0.44313 0.0
P88 P 0.30635 0.4861 0.02856 0.0
H89 H 0.31365 0.48277 0.15646 0.0
H90 H 0.30365 0.51313 0.23685 0.0
H91 H 0.26862 0.56716 0.11019 0.0
H92 H 0.27785 0.53645 0.03093 0.0
H93 H 0.30929 0.43881 0.95876 0.0
H94 H 0.28096 0.40021 0.95008 0.0
H95 H 0.22583 0.43506 0.07162 0.0
H96 H 0.25457 0.47357 0.08062 0.0
H97 H 0.34756 0.51767 0.97381 0.0
H98 H 0.26734 0.49566 0.93481 0.0
O99 O 0.33632 0.47424 0.04337 0.0
H100 H 0.34813 0.54607 0.88592 0.0
H101 H 0.26787 0.52371 0.84633 0.0
C102 C 0.29707 0.50763 0.08767 0.0
C103 C 0.30367 0.5011 0.14624 0.0
C104 C 0.29802 0.51851 0.19205 0.0
C105 C 0.28559 0.54274 0.17992 0.0
C106 C 0.27801 0.54861 0.12128 0.0
C107 C 0.28356 0.53114 0.07565 0.0
C108 C 0.28425 0.45872 0.02108 0.0
C109 C 0.29104 0.43816 0.98332 0.0
C110 C 0.27466 0.41626 0.97791 0.0
C111 C 0.2511 0.41459 0.01012 0.0
C112 C 0.24397 0.43568 0.04668 0.0
C113 C 0.2604 0.45767 0.05192 0.0
C114 C 0.30759 0.50425 0.96009 0.0
C115 C 0.33027 0.51853 0.94556 0.0
C116 C 0.33059 0.53468 0.89525 0.0
C117 C 0.30807 0.53703 0.85908 0.0
C118 C 0.28547 0.52238 0.87349 0.0
C119 C 0.28521 0.50618 0.92374 0.0
P120 P 0.98903 0.76181 0.51534 0.0
H121 H 0.99754 0.76228 0.64296 0.0
H122 H 0.9684 0.75206 0.72574 0.0
H123 H 0.91075 0.72115 0.60283 0.0
H124 H 0.9406 0.72979 0.52148 0.0
H125 H 0.03474 0.77935 0.45114 0.0
H126 H 0.0774 0.75955 0.43132 0.0
H127 H 0.05391 0.6894 0.52708 0.0
H128 H 0.01103 0.70969 0.54732 0.0
H129 H 0.93978 0.78788 0.48787 0.0
H130 H 0.99394 0.73649 0.39831 0.0
O131 O 0.99525 0.79307 0.53281 0.0
H132 H 0.91072 0.78754 0.40102 0.0
H133 H 0.96523 0.7368 0.31078 0.0
C134 C 0.97093 0.74754 0.576 0.0
C135 C 0.97892 0.7526 0.63421 0.0
C136 C 0.96209 0.74699 0.68141 0.0
C137 C 0.93679 0.73651 0.671 0.0
C138 C 0.92997 0.72925 0.61288 0.0
C139 C 0.947 0.7345 0.56591 0.0
C140 C 0.02006 0.74619 0.50169 0.0
C141 C 0.03879 0.75971 0.46792 0.0
C142 C 0.06303 0.7482 0.45594 0.0
C143 C 0.06902 0.72283 0.47739 0.0
C144 C 0.04992 0.70905 0.51032 0.0
C145 C 0.02549 0.72061 0.52205 0.0
C146 C 0.969 0.76232 0.44948 0.0
C147 C 0.94552 0.77675 0.44934 0.0
C148 C 0.92894 0.77647 0.39998 0.0
C149 C 0.93584 0.7621 0.34959 0.0
C150 C 0.95964 0.74809 0.34918 0.0
C151 C 0.97601 0.74796 0.39915 0.0
P152 P 0.83326 0.47082 0.00708 0.0
H153 H 0.85574 0.4386 0.91287 0.0
H154 H 0.8361 0.41666 0.82724 0.0
H155 H 0.76002 0.44816 0.87344 0.0
H156 H 0.77981 0.47016 0.9585 0.0
H157 H 0.85515 0.52051 0.96392 0.0
H158 H 0.84019 0.56624 0.97071 0.0
H159 H 0.77125 0.54036 0.06584 0.0
H160 H 0.786 0.49469 0.05803 0.0
H161 H 0.81788 0.41571 0.02432 0.0
H162 H 0.82869 0.48449 0.13253 0.0
O163 O 0.86606 0.47046 0.00336 0.0
H164 H 0.80179 0.39126 0.10984 0.0
H165 H 0.81109 0.46063 0.21784 0.0
C166 C 0.81931 0.45638 0.94144 0.0
C167 C 0.83491 0.44107 0.90409 0.0
C168 C 0.82363 0.42839 0.85539 0.0
C169 C 0.79651 0.43075 0.84339 0.0
C170 C 0.78103 0.44632 0.8808 0.0
C171 C 0.79232 0.45889 0.92956 0.0
C172 C 0.82209 0.50434 0.01198 0.0
C173 C 0.83687 0.5247 0.98641 0.0
C174 C 0.82826 0.55075 0.99004 0.0
C175 C 0.80472 0.55678 0.01938 0.0
C176 C 0.78969 0.53626 0.04392 0.0
C177 C 0.79814 0.5102 0.03953 0.0
C178 C 0.82343 0.45224 0.07149 0.0
C179 C 0.81652 0.42567 0.06637 0.0
C180 C 0.80717 0.41174 0.11541 0.0
C181 C 0.80438 0.42416 0.17055 0.0
C182 C 0.81284 0.45041 0.17618 0.0
C183 C 0.82262 0.4642 0.1272 0.0
P184 P 0.00605 0.30785 0.47615 0.0
H185 H 0.02177 0.33447 0.36633 0.0
H186 H 0.04802 0.32003 0.28222 0.0
H187 H 0.05077 0.24136 0.35625 0.0
H188 H 0.02435 0.25588 0.4399 0.0
H189 H 0.96473 0.32606 0.55288 0.0
H190 H 0.91928 0.31217 0.56834 0.0
H191 H 0.92851 0.25211 0.43554 0.0
H192 H 0.97378 0.26664 0.41924 0.0
H193 H 0.05377 0.32681 0.53285 0.0
H194 H 0.00099 0.26073 0.55156 0.0
O195 O 0.00704 0.3407 0.47713 0.0
H196 H 0.08297 0.30757 0.60777 0.0
H197 H 0.03036 0.24113 0.62595 0.0
C198 C 0.02134 0.2963 0.40959 0.0
C199 C 0.02767 0.31403 0.36403 0.0
C200 C 0.04277 0.30579 0.31611 0.0
C201 C 0.05165 0.27961 0.3129 0.0
C202 C 0.04406 0.26159 0.3572 0.0
C203 C 0.02908 0.2699 0.40521 0.0
C204 C 0.9724 0.29772 0.48423 0.0
C205 C 0.95687 0.31004 0.52677 0.0
C206 C 0.93101 0.30185 0.53609 0.0
C207 C 0.9203 0.28096 0.5033 0.0
C208 C 0.9361 0.26844 0.46103 0.0
C209 C 0.96201 0.27673 0.45168 0.0
C210 C 0.02508 0.29541 0.53742 0.0
C211 C 0.04825 0.30839 0.55388 0.0
C212 C 0.065 0.29726 0.5963 0.0
C213 C 0.059 0.27276 0.62244 0.0
C214 C 0.03533 0.26015 0.60706 0.0
C215 C 0.01856 0.27134 0.56452 0.0
P216 P 0.75503 0.9904 0.48453 0.0
H217 H 0.7503 0.00463 0.35951 0.0
H218 H 0.7433 0.97783 0.27143 0.0
H219 H 0.72677 0.91043 0.38371 0.0
H220 H 0.73166 0.93763 0.47014 0.0
H221 H 0.76556 0.03041 0.57105 0.0
H222 H 0.745 0.07245 0.59284 0.0
H223 H 0.6841 0.05637 0.46346 0.0
H224 H 0.70531 0.01429 0.4411 0.0
H225 H 0.79137 0.94809 0.5115 0.0
H226 H 0.72277 0.98268 0.59132 0.0
O227 O 0.78555 -0.0001 0.46762 0.0
H228 H 0.79175 0.91358 0.58774 0.0
H229 H 0.72351 0.94846 0.66866 0.0
C230 C 0.74217 0.97305 0.4214 0.0
C231 C 0.74428 0.98428 0.36483 0.0
C232 C 0.74057 0.9688 0.31453 0.0
C233 C 0.73524 0.94164 0.3201 0.0
C234 C 0.73079 0.93116 0.37706 0.0
C235 C 0.73397 0.94678 0.4271 0.0
C236 C 0.73714 0.0195 0.50404 0.0
C237 C 0.74759 0.03581 0.54791 0.0
C238 C 0.73562 0.05974 0.56074 0.0
C239 C 0.71286 0.06784 0.5299 0.0
C240 C 0.70177 0.05083 0.48756 0.0
C241 C 0.71384 0.02677 0.47475 0.0
C242 C 0.75736 0.96814 0.54647 0.0
C243 C 0.77679 0.9486 0.54625 0.0
C244 C 0.77686 0.92883 0.58939 0.0
C245 C 0.75763 0.92848 0.63371 0.0
C246 C 0.73863 0.94852 0.63503 0.0
C247 C 0.73828 0.96808 0.5911 0.0
P248 P 0.49072 0.29766 0.00222 0.0
H249 H 0.48816 0.30525 0.8744 0.0
H250 H 0.51924 0.29553 0.79519 0.0
H251 H 0.57006 0.25605 0.92183 0.0
H252 H 0.53861 0.26497 -0.00016 0.0
H253 H 0.44487 0.30633 0.07393 0.0
H254 H 0.40303 0.28322 0.08411 0.0
H255 H 0.42864 0.2256 0.95696 0.0
H256 H 0.47052 0.24917 0.94654 0.0
H257 H 0.52715 0.33344 0.06039 0.0
H258 H 0.49438 0.25635 0.09309 0.0
O259 O 0.48325 0.32918 0.9892 0.0
H260 H 0.55534 0.32863 0.14773 0.0
H261 H 0.52219 0.25156 0.18122 0.0
C262 C 0.51136 0.28642 0.94314 0.0
C263 C 0.5058 0.29413 0.88477 0.0
C264 C 0.52365 0.28868 0.83967 0.0
C265 C 0.5474 0.27544 0.85236 0.0
C266 C 0.55197 0.26621 0.91036 0.0
C267 C 0.53403 0.27155 0.9553 0.0
C268 C 0.46048 0.27969 0.00882 0.0
C269 C 0.44146 0.2887 0.0483 0.0
C270 C 0.4177 0.27529 0.05458 0.0
C271 C 0.41256 0.25252 0.02146 0.0
C272 C 0.43197 0.24321 0.98268 0.0
C273 C 0.45586 0.25667 0.97661 0.0
C274 C 0.50839 0.29548 0.07106 0.0
C275 C 0.52556 0.31576 0.08728 0.0
C276 C 0.54159 0.31301 0.1373 0.0
C277 C 0.54086 0.28976 0.17152 0.0
C278 C 0.52323 0.26965 0.1556 0.0
C279 C 0.50718 0.27246 0.10557 0.0
P280 P 0.29432 0.00783 0.48492 0.0
H281 H 0.32221 0.01995 0.59499 0.0
H282 H 0.30933 0.04465 0.68275 0.0
H283 H 0.23026 0.0517 0.61277 0.0
H284 H 0.24323 0.0268 0.52553 0.0
H285 H 0.32222 0.96473 0.42968 0.0
H286 H 0.31313 0.9177 0.42201 0.0
H287 H 0.24195 0.92791 0.52319 0.0
H288 H 0.25152 0.97495 0.53167 0.0
H289 H 0.29362 0.06269 0.45055 0.0
H290 H 0.25885 0.99043 0.38818 0.0
O291 O 0.32664 0.01278 0.47782 0.0
H292 H 0.27181 0.08695 0.37062 0.0
H293 H 0.23741 0.01454 0.30708 0.0
C294 C 0.28378 0.02205 0.5534 0.0
C295 C 0.30202 0.02651 0.59896 0.0
C296 C 0.29466 0.04065 0.64899 0.0
C297 C 0.26886 0.05036 0.65432 0.0
C298 C 0.25023 0.04436 0.61015 0.0
C299 C 0.25766 0.03029 0.56008 0.0
C300 C 0.28791 0.97312 0.48254 0.0
C301 C 0.30482 0.95679 0.45077 0.0
C302 C 0.29941 0.92997 0.44577 0.0
C303 C 0.2768 0.91909 0.47198 0.0
C304 C 0.2597 0.93566 0.50322 0.0
C305 C 0.26517 0.96252 0.50819 0.0
C306 C 0.27804 0.02482 0.42504 0.0
C307 C 0.28141 0.05204 0.41936 0.0
C308 C 0.26902 0.06584 0.3735 0.0
C309 C 0.2531 0.0526 0.33213 0.0
C310 C 0.24944 0.02528 0.33842 0.0
C311 C 0.26186 0.01147 0.38459 0.0
P312 P 0.4719 0.82749 0.01982 0.0
H313 H 0.45778 0.84262 0.14072 0.0
H314 H 0.43077 0.82082 0.21651 0.0
H315 H 0.42506 0.75189 0.10674 0.0
H316 H 0.45239 0.77332 0.03211 0.0
H317 H 0.50873 0.84156 0.92799 0.0
H318 H 0.55505 0.83186 0.91241 0.0
H319 H 0.55845 0.79279 0.08325 0.0
H320 H 0.51149 0.80147 0.09684 0.0
H321 H 0.42621 0.84669 0.95281 0.0
H322 H 0.48323 0.78418 0.9395 0.0
O323 O 0.46692 0.85973 0.02786 0.0
H324 H 0.40325 0.82994 0.86533 0.0
H325 H 0.46012 0.76694 0.85338 0.0
C326 C 0.45654 0.80987 0.08008 0.0
C327 C 0.4511 0.82265 0.13345 0.0
C328 C 0.43575 0.81019 0.17675 0.0
C329 C 0.42551 0.78487 0.16688 0.0
C330 C 0.43237 0.77158 0.11495 0.0
C331 C 0.448 0.78386 0.07223 0.0
C332 C 0.50669 0.82198 0.01319 0.0
C333 C 0.51949 0.83092 0.96211 0.0
C334 C 0.54608 0.82549 0.95347 0.0
C335 C 0.56061 0.81143 0.99644 0.0
C336 C 0.54779 0.80317 0.04861 0.0
C337 C 0.52099 0.80833 0.0568 0.0
C338 C 0.4566 0.81693 0.95201 0.0
C339 C 0.43397 0.82958 0.93059 0.0
C340 C 0.42079 0.81986 0.88087 0.0
C341 C 0.42986 0.79707 0.85234 0.0
C342 C 0.45288 0.78478 0.87349 0.0
C343 C 0.46607 0.7946 0.92294 0.0
H344 H 0.14614 0.25888 0.14016 0.0
H345 H 0.10301 0.18682 0.11102 0.0
H346 H 0.06835 0.20182 0.17741 0.0
H347 H 0.05127 0.23471 0.24723 0.0
H348 H 0.09477 0.3066 0.2753 0.0
H349 H 0.12812 0.29247 0.20522 0.0
C350 C 0.12915 0.24642 0.1482 0.0
C351 C 0.12734 0.22164 0.1211 0.0
C352 C 0.10931 0.25518 0.18613 0.0
C353 C 0.10495 0.20597 0.13135 0.0
C354 C 0.08515 0.2145 0.16944 0.0
C355 C 0.06803 0.24727 0.23781 0.0
C356 C 0.07053 0.27165 0.26648 0.0
C357 C 0.08727 0.23895 0.19761 0.0
C358 C 0.09219 0.28789 0.25333 0.0
C359 C 0.11139 0.27974 0.2136 0.0
H360 H 0.32695 0.6177 0.64994 0.0
H361 H 0.25017 0.64405 0.70546 0.0
H362 H 0.24814 0.60831 0.77786 0.0
H363 H 0.2693 0.5715 0.83004 0.0
H364 H 0.34626 0.54541 0.77617 0.0
H365 H 0.34709 0.57926 0.6986 0.0
C366 C 0.30964 0.61551 0.67741 0.0
C367 C 0.28884 0.63372 0.67239 0.0
C368 C 0.3087 0.59509 0.7196 0.0
C369 C 0.26658 0.6305 0.70854 0.0
C370 C 0.26538 0.61005 0.75004 0.0
C371 C 0.28605 0.5729 0.80063 0.0
C372 C 0.3077 0.55601 0.80887 0.0
C373 C 0.28648 0.5925 0.75657 0.0
C374 C 0.32947 0.55838 0.77107 0.0
C375 C 0.32992 0.57767 0.72665 0.0
H376 H 0.87035 0.77547 0.11389 0.0
H377 H 0.80871 0.74682 0.22862 0.0
H378 H 0.84034 0.74139 0.30918 0.0
H379 H 0.88483 0.74771 0.34934 0.0
H380 H 0.94686 0.77523 0.23523 0.0
H381 H 0.9158 0.77807 0.15187 0.0
C382 C 0.86388 0.76784 0.15637 0.0
C383 C 0.83713 0.76185 0.1653 0.0
C384 C 0.8822 0.76471 0.20266 0.0
C385 C 0.82915 0.75164 0.22042 0.0
C386 C 0.8472 0.74862 0.2667 0.0
C387 C 0.89148 0.75418 0.30603 0.0
C388 C 0.91785 0.76156 0.29817 0.0
C389 C 0.87362 0.75558 0.25864 0.0
C390 C 0.92654 0.76951 0.24195 0.0
C391 C 0.90881 0.7712 0.19453 0.0
H392 H 0.72912 0.38159 0.63558 0.0
H393 H 0.77476 0.31307 0.68523 0.0
H394 H 0.7989 0.33885 0.75807 0.0
H395 H 0.80539 0.38005 0.81187 0.0
H396 H 0.75953 0.44851 0.764 0.0
H397 H 0.73708 0.4235 0.68661 0.0
C398 C 0.74453 0.37234 0.66188 0.0
C399 C 0.74995 0.34536 0.65501 0.0
C400 C 0.75818 0.38721 0.70444 0.0
C401 C 0.76995 0.33373 0.68978 0.0
C402 C 0.78382 0.34846 0.73152 0.0
C403 C 0.79079 0.38963 0.78388 0.0
C404 C 0.78413 0.4161 0.79379 0.0
C405 C 0.77785 0.3751 0.73981 0.0
C406 C 0.76482 0.42807 0.75774 0.0
C407 C 0.75204 0.41381 0.71334 0.0
H408 H 0.63371 0.26012 0.34431 0.0
H409 H 0.62018 0.33976 0.40254 0.0
H410 H 0.58212 0.3432 0.33652 0.0
H411 H 0.55499 0.32488 0.25629 0.0
H412 H 0.56976 0.24583 0.19625 0.0
H413 H 0.60477 0.24078 0.26976 0.0
C414 C 0.62236 0.2782 0.34303 0.0
C415 C 0.63007 0.29977 0.3778 0.0
C416 C 0.60072 0.28018 0.30456 0.0
C417 C 0.61483 0.32288 0.37606 0.0
C418 C 0.59309 0.32492 0.33816 0.0
C419 C 0.56582 0.30653 0.25955 0.0
C420 C 0.55992 0.28584 0.22067 0.0
C421 C 0.58625 0.30391 0.30123 0.0
C422 C 0.57377 0.26198 0.226 0.0
C423 C 0.59394 0.25914 0.2677 0.0
H424 H 0.25237 0.14494 0.82796 0.0
H425 H 0.17866 0.10484 0.85791 0.0
H426 H 0.19249 0.06915 0.79289 0.0
H427 H 0.2245 0.05096 0.72214 0.0
H428 H 0.29795 0.09173 0.69318 0.0
H429 H 0.28538 0.12534 0.76391 0.0
C430 C 0.23933 0.12834 0.82049 0.0
C431 C 0.21438 0.12772 0.84705 0.0
C432 C 0.2474 0.10799 0.78328 0.0
C433 C 0.19795 0.10583 0.83784 0.0
C434 C 0.20581 0.08547 0.80051 0.0
C435 C 0.23777 0.06713 0.73167 0.0
C436 C 0.26209 0.06887 0.70232 0.0
C437 C 0.23031 0.08659 0.77215 0.0
C438 C 0.27926 0.08975 0.71561 0.0
C439 C 0.272 0.10911 0.75569 0.0
H440 H 0.33053 0.73304 0.30344 0.0
H441 H 0.38364 0.74237 0.45155 0.0
H442 H 0.41624 0.76291 0.38646 0.0
H443 H 0.42988 0.77777 0.2865 0.0
H444 H 0.37731 0.7659 0.13855 0.0
H445 H 0.34431 0.74681 0.20437 0.0
C446 C 0.34917 0.73971 0.32162 0.0
C447 C 0.35456 0.73632 0.38232 0.0
C448 C 0.36799 0.75096 0.28382 0.0
C449 C 0.379 0.74472 0.40494 0.0
C450 C 0.39764 0.75649 0.36776 0.0
C451 C 0.41116 0.77102 0.26896 0.0
C452 C 0.406 0.77314 0.20788 0.0
C453 C 0.3924 0.75963 0.30703 0.0
C454 C 0.38178 0.7642 0.18539 0.0
C455 C 0.36288 0.75339 0.22299 0.0
H456 H 0.76086 0.82309 0.78103 0.0
H457 H 0.76655 0.87784 0.92564 0.0
H458 H 0.76152 0.9148 0.85631 0.0
H459 H 0.7582 0.93153 0.75354 0.0
H460 H 0.7556 0.87643 0.60949 0.0
H461 H 0.75666 0.83953 0.67962 0.0
C462 C 0.76064 0.84308 0.79755 0.0
C463 C 0.76403 0.84773 0.85835 0.0
C464 C 0.7585 0.86415 0.75743 0.0
C465 C 0.76406 0.87377 0.87894 0.0
C466 C 0.76121 0.89489 0.83936 0.0
C467 C 0.75762 0.9114 0.73786 0.0
C468 C 0.7569 0.90653 0.67679 0.0
C469 C 0.75884 0.89032 0.7784 0.0
C470 C 0.75637 0.88049 0.65649 0.0
C471 C 0.75692 0.85945 0.69647 0.0
H472 H 0.83585 0.72977 0.8329 0.0
H473 H 0.87009 0.80148 0.90049 0.0
H474 H 0.90822 0.79574 0.83742 0.0
H475 H 0.93 0.77279 0.75734 0.0
H476 H 0.89736 0.70017 0.69102 0.0
H477 H 0.8604 0.70405 0.75912 0.0
C478 C 0.85174 0.74404 0.83412 0.0
C479 C 0.84987 0.76618 0.87104 0.0
C480 C 0.87383 0.74062 0.79768 0.0
C481 C 0.87085 0.78428 0.87253 0.0
C482 C 0.89271 0.78107 0.83631 0.0
C483 C 0.91529 0.75733 0.75867 0.0
C484 C 0.91653 0.73631 0.71853 0.0
C485 C 0.8942 0.75958 0.79804 0.0
C486 C 0.89678 0.71685 0.72054 0.0
C487 C 0.87563 0.719 0.75964 0.0
H488 H 0.76195 0.37081 0.40668 0.0
H489 H 0.7116 0.33249 0.27935 0.0
H490 H 0.73111 0.35826 0.19929 0.0
H491 H 0.76302 0.3905 0.16508 0.0
H492 H 0.81663 0.42646 0.2895 0.0
H493 H 0.79506 0.4032 0.37112 0.0
C494 C 0.75519 0.36841 0.36141 0.0
C495 C 0.7354 0.34993 0.34864 0.0
C496 C 0.7671 0.38275 0.31515 0.0
C497 C 0.72691 0.3466 0.28992 0.0
C498 C 0.73804 0.36129 0.2442 0.0
C499 C 0.77036 0.39301 0.20986 0.0
C500 C 0.79161 0.41007 0.22081 0.0
C501 C 0.75837 0.37912 0.2562 0.0
C502 C 0.80019 0.41362 0.27961 0.0
C503 C 0.78795 0.40021 0.32636 0.0
H504 H 0.15577 0.22652 0.76225 0.0
H505 H 0.09535 0.20449 0.88678 0.0
H506 H 0.06163 0.22264 0.81969 0.0
H507 H 0.04992 0.24705 0.72748 0.0
H508 H 0.11157 0.26869 0.60555 0.0
H509 H 0.14434 0.24866 0.67059 0.0
C510 C 0.13524 0.22561 0.77505 0.0
C511 C 0.12814 0.21441 0.82982 0.0
C512 C 0.11623 0.23626 0.73695 0.0
C513 C 0.10136 0.21303 0.8449 0.0
C514 C 0.08212 0.22351 0.80669 0.0
C515 C 0.07051 0.24718 0.71513 0.0
C516 C 0.07836 0.25971 0.66222 0.0
C517 C 0.08939 0.23552 0.75289 0.0
C518 C 0.1051 0.25974 0.64666 0.0
C519 C 0.12383 0.24812 0.68359 0.0
H520 H 0.25905 0.63796 0.34677 0.0
H521 H 0.33551 0.61753 0.41814 0.0
H522 H 0.33791 0.58009 0.3516 0.0
H523 H 0.31993 0.55521 0.26818 0.0
H524 H 0.24324 0.57507 0.19767 0.0
H525 H 0.23948 0.61084 0.26866 0.0
C526 C 0.2762 0.62525 0.34811 0.0
C527 C 0.29717 0.6308 0.38709 0.0
C528 C 0.27754 0.60377 0.30955 0.0
C529 C 0.31908 0.61386 0.38855 0.0
C530 C 0.32053 0.59244 0.35037 0.0
C531 C 0.30213 0.56698 0.26908 0.0
C532 C 0.282 0.56255 0.22726 0.0
C533 C 0.30007 0.58747 0.31005 0.0
C534 C 0.25925 0.57831 0.22863 0.0
C535 C 0.25703 0.59871 0.26938 0.0
H536 H 0.37983 0.73483 0.63799 0.0
H537 H 0.30891 0.75356 0.73363 0.0
H538 H 0.3345 0.77769 0.80631 0.0
H539 H 0.37687 0.7919 0.84557 0.0
H540 H 0.4481 0.77446 0.75051 0.0
H541 H 0.4225 0.75124 0.67517 0.0
C542 C 0.36998 0.74421 0.67467 0.0
C543 C 0.34246 0.74219 0.68026 0.0
C544 C 0.38483 0.75824 0.71663 0.0
C545 C 0.33003 0.7547 0.72795 0.0
C546 C 0.34465 0.76854 0.76975 0.0
C547 C 0.38681 0.78351 0.8078 0.0
C548 C 0.41435 0.78495 0.80375 0.0
C549 C 0.37203 0.77029 0.76475 0.0
C550 C 0.42691 0.7734 0.75506 0.0
C551 C 0.41229 0.76018 0.71188 0.0
H552 H 0.77511 0.86974 0.11443 0.0
H553 H 0.71669 0.8171 0.18757 0.0
H554 H 0.70198 0.85179 0.2541 0.0
H555 H 0.70819 0.89585 0.29672 0.0
H556 H 0.76952 0.94637 0.22763 0.0
H557 H 0.77969 0.91406 0.15287 0.0
C558 C 0.75903 0.86576 0.14458 0.0
C559 C 0.74731 0.84063 0.14641 0.0
C560 C 0.75098 0.88557 0.18326 0.0
C561 C 0.72628 0.83613 0.18546 0.0
C562 C 0.71784 0.85598 0.22356 0.0
C563 C 0.72379 0.89987 0.26536 0.0
C564 C 0.7381 0.92365 0.2686 0.0
C565 C 0.73047 0.8806 0.22374 0.0
C566 C 0.75776 0.92861 0.22622 0.0
C567 C 0.76392 0.90991 0.1837 0.0
H568 H 0.64607 0.25535 0.68944 0.0
H569 H 0.62631 0.3343 0.63194 0.0
H570 H 0.58837 0.3343 0.69697 0.0
H571 H 0.56196 0.31302 0.7733 0.0
H572 H 0.58052 0.23388 0.8306 0.0
H573 H 0.61785 0.23296 0.76272 0.0
C574 C 0.63346 0.27255 0.6911 0.0
C575 C 0.63923 0.29483 0.65597 0.0
C576 C 0.61147 0.27245 0.72861 0.0
C577 C 0.62246 0.31685 0.65837 0.0
C578 C 0.60071 0.31691 0.69564 0.0
C579 C 0.57378 0.29531 0.77014 0.0
C580 C 0.56839 0.27356 0.80702 0.0
C581 C 0.59513 0.29492 0.73118 0.0
C582 C 0.58437 0.25102 0.80315 0.0
C583 C 0.60569 0.25046 0.76427 0.0
H584 H 0.18445 0.11384 0.14089 0.0
H585 H 0.25773 0.1563 0.12437 0.0
H586 H 0.27885 0.12627 0.19421 0.0
H587 H 0.27609 0.08996 0.26443 0.0
H588 H 0.2028 0.04834 0.28756 0.0
H589 H 0.18226 0.07556 0.21002 0.0
C590 C 0.20509 0.11621 0.15222 0.0
C591 C 0.21945 0.13736 0.12807 0.0
C592 C 0.2171 0.09912 0.19371 0.0
C593 C 0.24617 0.14037 0.14308 0.0
C594 C 0.25831 0.1232 0.18292 0.0
C595 C 0.25557 0.0869 0.25276 0.0
C596 C 0.2409 0.06746 0.28226 0.0
C597 C 0.24384 0.1029 0.20941 0.0
C598 C 0.21454 0.06321 0.26541 0.0
C599 C 0.20275 0.07886 0.22133 0.0
H600 H 0.20227 0.30299 0.05474 0.0
H601 H 0.21418 0.29778 0.86601 0.0
H602 H 0.22573 0.3444 0.86208 0.0
H603 H 0.2384 0.3848 0.91435 0.0
H604 H 0.2289 0.38885 0.10378 0.0
H605 H 0.20996 0.34472 0.105 0.0
C606 C 0.207 0.31207 0.01249 0.0
C607 C 0.20789 0.29669 0.96097 0.0
C608 C 0.21425 0.3387 0.01072 0.0
C609 C 0.21359 0.30901 0.90653 0.0
C610 C 0.22034 0.33568 0.90425 0.0
C611 C 0.23195 0.37608 0.9558 0.0
C612 C 0.23542 0.38994 0.00898 0.0
C613 C 0.22174 0.35041 0.95642 0.0
C614 C 0.22639 0.37868 0.06217 0.0
C615 C 0.21576 0.35333 0.06299 0.0
H616 H 0.18792 0.70478 0.41757 0.0
H617 H 0.18868 0.6792 0.60038 0.0
H618 H 0.14082 0.68151 0.60311 0.0
H619 H 0.09966 0.69758 0.55875 0.0
H620 H 0.09881 0.72421 0.37692 0.0
H621 H 0.14574 0.7146 0.3687 0.0
C622 C 0.17762 0.69909 0.4576 0.0
C623 C 0.19197 0.69233 0.50897 0.0
C624 C 0.15006 0.70107 0.45942 0.0
C625 C 0.1782 0.68488 0.56037 0.0
C626 C 0.15079 0.68627 0.5621 0.0
C627 C 0.10955 0.70057 0.51681 0.0
C628 C 0.09587 0.71202 0.46887 0.0
C629 C 0.13662 0.69538 0.51266 0.0
C630 C 0.10906 0.71593 0.41491 0.0
C631 C 0.13588 0.7104 0.41013 0.0
H632 H 0.76836 0.67202 0.08182 0.0
H633 H 0.78044 0.68224 0.89384 0.0
H634 H 0.79258 0.63611 0.88537 0.0
H635 H 0.80109 0.59305 0.93136 0.0
H636 H 0.7884 0.58218 0.11846 0.0
H637 H 0.77507 0.6283 0.12718 0.0
C638 C 0.77354 0.66415 0.03896 0.0
C639 C 0.77355 0.6807 0.98868 0.0
C640 C 0.78047 0.63748 0.0342 0.0
C641 C 0.78016 0.67004 0.93339 0.0
C642 C 0.78722 0.64363 0.92842 0.0
C643 C 0.79546 0.60086 0.97401 0.0
C644 C 0.79587 0.58442 0.02424 0.0
C645 C 0.78769 0.62725 0.97856 0.0
C646 C 0.78812 0.59454 0.07914 0.0
C647 C 0.7806 0.62088 0.08416 0.0
H648 H 0.8026 0.26234 0.57858 0.0
H649 H 0.7933 0.25573 0.38902 0.0
H650 H 0.84078 0.25916 0.37663 0.0
H651 H 0.88432 0.26868 0.41846 0.0
H652 H 0.89371 0.27571 0.60767 0.0
H653 H 0.84673 0.26765 0.62114 0.0
C654 C 0.81093 0.26119 0.53458 0.0
C655 C 0.79429 0.25906 0.48483 0.0
C656 C 0.83825 0.26364 0.52755 0.0
C657 C 0.80555 0.25759 0.42818 0.0
C658 C 0.83274 0.25962 0.42094 0.0
C659 C 0.87621 0.26789 0.46274 0.0
C660 C 0.89244 0.27308 0.5119 0.0
C661 C 0.84919 0.26335 0.47017 0.0
C662 C 0.88153 0.27228 0.56896 0.0
C663 C 0.8547 0.26755 0.57674 0.0
H664 H 0.69706 0.18639 0.59609 0.0
H665 H 0.68529 0.1922 0.40684 0.0
H666 H 0.68537 0.14445 0.39957 0.0
H667 H 0.69575 0.10167 0.44426 0.0
H668 H 0.70782 0.09542 0.63311 0.0
H669 H 0.70058 0.14271 0.643 0.0
C670 C 0.69397 0.17725 0.55338 0.0
C671 C 0.69177 0.19299 0.50199 0.0
C672 C 0.69449 0.14967 0.5492 0.0
C673 C 0.68747 0.18068 0.44714 0.0
C674 C 0.68757 0.15331 0.44281 0.0
C675 C 0.696 0.11044 0.48787 0.0
C676 C 0.70279 0.09507 0.5377 0.0
C677 C 0.6921 0.13766 0.49318 0.0
C678 C 0.70322 0.10691 0.5938 0.0
C679 C 0.69904 0.13395 0.59953 0.0
H680 H 0.29591 0.21843 0.07219 0.0
H681 H 0.29546 0.21178 0.88159 0.0
H682 H 0.34258 0.22041 0.87935 0.0
H683 H 0.38269 0.23498 0.93001 0.0
H684 H 0.3833 0.24215 0.12019 0.0
H685 H 0.33732 0.22814 0.12392 0.0
C686 C 0.30613 0.21853 0.03018 0.0
C687 C 0.29198 0.21491 0.97713 0.0
C688 C 0.33324 0.22385 0.02898 0.0
C689 C 0.30571 0.2148 0.92318 0.0
C690 C 0.3327 0.21978 0.92174 0.0
C691 C 0.37298 0.23285 0.97241 0.0
C692 C 0.38627 0.23991 0.02465 0.0
C693 C 0.3465 0.22507 0.97418 0.0
C694 C 0.37331 0.23728 0.07922 0.0
C695 C 0.34705 0.22923 0.0814 0.0
H696 H 0.26976 0.7976 0.42059 0.0
H697 H 0.24816 0.79625 0.60532 0.0
H698 H 0.24932 0.84418 0.60747 0.0
H699 H 0.26007 0.88623 0.55942 0.0
H700 H 0.28201 0.88765 0.37516 0.0
H701 H 0.27729 0.83986 0.37061 0.0
C702 C 0.26496 0.80774 0.46119 0.0
C703 C 0.2591 0.79323 0.51279 0.0
C704 C 0.26603 0.83532 0.46247 0.0
C705 C 0.25291 0.80682 0.56494 0.0
C706 C 0.25362 0.83427 0.56633 0.0
C707 C 0.26335 0.87614 0.51798 0.0
C708 C 0.27159 0.89044 0.46787 0.0
C709 C 0.26068 0.84868 0.51571 0.0
C710 C 0.27608 0.87703 0.41467 0.0
C711 C 0.27326 0.84973 0.41194 0.0
H712 H 0.68202 0.80284 0.93789 0.0
H713 H 0.67252 0.72937 0.03211 0.0
H714 H 0.62521 0.73749 0.04133 0.0
H715 H 0.58719 0.7666 0.02718 0.0
H716 H 0.59785 0.84243 0.94262 0.0
H717 H 0.64391 0.83218 0.92449 0.0
C718 C 0.66941 0.78843 0.95933 0.0
C719 C 0.68046 0.76541 0.98358 0.0
C720 C 0.64252 0.79379 0.96673 0.0
C721 C 0.66423 0.74713 0.01272 0.0
C722 C 0.63728 0.75184 0.01827 0.0
C723 C 0.59959 0.78105 0.00538 0.0
C724 C 0.58888 0.80525 0.98631 0.0
C725 C 0.62632 0.77537 0.99651 0.0
C726 C 0.60531 0.82346 0.95702 0.0
C727 C 0.63176 0.81769 0.94686 0.0
loop_
_geom_bond_atom_site_label_1
_geom_bond_atom_site_label_2
_geom_bond_distance
_geom_bond_site_symmetry_2
_ccdc_geom_bond_type
Sc0 O3 2.025 . S
Sc0 O10 2.105 . S
Sc0 O13 2.105 . S
Sc0 O16 2.105 . S
Sc0 O19 2.105 . S
Sc1 O3 2.025 . S
Sc1 O11 2.105 . S
Sc1 O15 2.105 1_554 S
Sc1 O17 2.105 . S
Sc1 O21 2.105 1_554 S
Sc2 O3 2.025 1_556 S
Sc2 O12 2.105 . S
Sc2 O14 2.105 . S
Sc2 O18 2.105 . S
Sc2 O20 2.105 . S
O3 Sc0 2.025 . S
O3 Sc1 2.025 . S
O3 Sc2 2.025 1_554 S
C4 O10 1.268 . S
C4 O20 1.268 1_554 S
C5 O11 1.268 . S
C5 O19 1.268 . S
C6 O12 1.268 . S
C6 O21 1.268 . S
C7 O13 1.268 . S
C7 O17 1.268 . S
C8 O14 1.268 1_554 S
C8 O16 1.268 . S
C9 O15 1.268 . S
C9 O18 1.268 . S
O10 Sc0 2.105 . S
O10 C4 1.268 . S
O11 Sc1 2.105 . S
O11 C5 1.268 . S
O12 Sc2 2.105 . S
O12 C6 1.268 . S
O13 Sc0 2.105 . S
O13 C7 1.268 . S
O14 Sc2 2.105 . S
O14 C8 1.268 1_556 S
O15 Sc1 2.105 1_556 S
O15 C9 1.268 . S
O16 Sc0 2.105 . S
O16 C8 1.268 . S
O17 Sc1 2.105 . S
O17 C7 1.268 . S
O18 Sc2 2.105 . S
O18 C9 1.268 . S
O19 Sc0 2.105 . S
O19 C5 1.268 . S
O20 Sc2 2.105 . S
O20 C4 1.268 1_556 S
O21 Sc1 2.105 1_556 S
O21 C6 1.268 . S
Sc22 O25 2.025 . S
Sc22 O32 2.105 . S
Sc22 O35 2.105 . S
Sc22 O38 2.105 . S
Sc22 O41 2.105 . S
Sc23 O25 2.025 . S
Sc23 O33 2.105 . S
Sc23 O37 2.105 . S
Sc23 O39 2.105 . S
Sc23 O43 2.105 . S
Sc24 O25 2.025 . S
Sc24 O34 2.105 . S
Sc24 O36 2.105 . S
Sc24 O40 2.105 . S
Sc24 O42 2.105 . S
O25 Sc22 2.025 . S
O25 Sc23 2.025 . S
O25 Sc24 2.025 . S
C26 O32 1.268 . S
C26 O42 1.268 . S
C27 O33 1.268 . S
C27 O41 1.268 . S
C28 O34 1.268 . S
C28 O43 1.268 . S
C29 O35 1.268 . S
C29 O39 1.268 . S
C30 O36 1.268 . S
C30 O38 1.268 . S
C31 O37 1.268 . S
C31 O40 1.268 . S
O32 Sc22 2.105 . S
O32 C26 1.268 . S
O33 Sc23 2.105 . S
O33 C27 1.268 . S
O34 Sc24 2.105 . S
O34 C28 1.268 . S
O35 Sc22 2.105 . S
O35 C29 1.268 . S
O36 Sc24 2.105 . S
O36 C30 1.268 . S
O37 Sc23 2.105 . S
O37 C31 1.268 . S
O38 Sc22 2.105 . S
O38 C30 1.268 . S
O39 Sc23 2.105 . S
O39 C29 1.268 . S
O40 Sc24 2.105 . S
O40 C31 1.268 . S
O41 Sc22 2.105 . S
O41 C27 1.268 . S
O42 Sc24 2.105 . S
O42 C26 1.268 . S
O43 Sc23 2.105 . S
O43 C28 1.268 . S
Sc44 O47 2.025 1_556 S
Sc44 O54 2.105 . S
Sc44 O57 2.105 . S
Sc44 O60 2.105 . S
Sc44 O63 2.105 . S
Sc45 O47 2.025 . S
Sc45 O55 2.105 1_554 S
Sc45 O59 2.105 . S
Sc45 O61 2.105 1_554 S
Sc45 O65 2.105 . S
Sc46 O47 2.025 . S
Sc46 O56 2.105 . S
Sc46 O58 2.105 . S
Sc46 O62 2.105 . S
Sc46 O64 2.105 . S
O47 Sc44 2.025 1_554 S
O47 Sc45 2.025 . S
O47 Sc46 2.025 . S
C48 O54 1.268 1_554 S
C48 O64 1.268 . S
C49 O55 1.268 . S
C49 O63 1.268 . S
C50 O56 1.268 . S
C50 O65 1.268 . S
C51 O57 1.268 . S
C51 O61 1.268 . S
C52 O58 1.268 . S
C52 O60 1.268 1_554 S
C53 O59 1.268 . S
C53 O62 1.268 . S
O54 Sc44 2.105 . S
O54 C48 1.268 1_556 S
O55 Sc45 2.105 1_556 S
O55 C49 1.268 . S
O56 Sc46 2.105 . S
O56 C50 1.268 . S
O57 Sc44 2.105 . S
O57 C51 1.268 . S
O58 Sc46 2.105 . S
O58 C52 1.268 . S
O59 Sc45 2.105 . S
O59 C53 1.268 . S
O60 Sc44 2.105 . S
O60 C52 1.268 1_556 S
O61 Sc45 2.105 1_556 S
O61 C51 1.268 . S
O62 Sc46 2.105 . S
O62 C53 1.268 . S
O63 Sc44 2.105 . S
O63 C49 1.268 . S
O64 Sc46 2.105 . S
O64 C48 1.268 . S
O65 Sc45 2.105 . S
O65 C50 1.268 . S
Sc66 O69 2.025 . S
Sc66 O76 2.105 . S
Sc66 O79 2.105 . S
Sc66 O82 2.105 . S
Sc66 O85 2.105 . S
Sc67 O69 2.025 . S
Sc67 O77 2.105 . S
Sc67 O81 2.105 . S
Sc67 O83 2.105 . S
Sc67 O87 2.105 . S
Sc68 O69 2.025 . S
Sc68 O78 2.105 . S
Sc68 O80 2.105 . S
Sc68 O84 2.105 . S
Sc68 O86 2.105 . S
O69 Sc66 2.025 . S
O69 Sc67 2.025 . S
O69 Sc68 2.025 . S
C70 O76 1.268 . S
C70 O86 1.268 . S
C71 O77 1.268 . S
C71 O85 1.268 . S
C72 O78 1.268 . S
C72 O87 1.268 . S
C73 O79 1.268 . S
C73 O83 1.268 . S
C74 O80 1.268 . S
C74 O82 1.268 . S
C75 O81 1.268 . S
C75 O84 1.268 . S
O76 Sc66 2.105 . S
O76 C70 1.268 . S
O77 Sc67 2.105 . S
O77 C71 1.268 . S
O78 Sc68 2.105 . S
O78 C72 1.268 . S
O79 Sc66 2.105 . S
O79 C73 1.268 . S
O80 Sc68 2.105 . S
O80 C74 1.268 . S
O81 Sc67 2.105 . S
O81 C75 1.268 . S
O82 Sc66 2.105 . S
O82 C74 1.268 . S
O83 Sc67 2.105 . S
O83 C73 1.268 . S
O84 Sc68 2.105 . S
O84 C75 1.268 . S
O85 Sc66 2.105 . S
O85 C71 1.268 . S
O86 Sc68 2.105 . S
O86 C70 1.268 . S
O87 Sc67 2.105 . S
O87 C72 1.268 . S
P88 O99 1.490 . S
P88 C102 1.812 . S
P88 C108 1.803 . S
P88 C114 1.819 1_554 S
H89 C103 0.941 . S
H90 C104 0.939 . S
H91 C106 0.940 . S
H92 C107 0.940 . S
H93 C109 0.939 . S
H94 C110 0.942 . S
H95 C112 0.940 . S
H96 C113 0.939 . S
H97 C115 0.941 . S
H98 C119 0.939 . S
O99 P88 1.490 . S
H100 C116 0.939 . S
H101 C118 0.940 . S
C102 P88 1.812 . S
C102 C103 1.389 . S
C102 C107 1.391 . S
C103 H89 0.941 . S
C103 C102 1.389 . S
C103 C104 1.397 . S
C104 H90 0.939 . S
C104 C103 1.397 . S
C104 C105 1.378 . S
C105 C104 1.378 . S
C105 C106 1.378 . S
C106 H91 0.940 . S
C106 C105 1.378 . S
C106 C107 1.396 . S
C107 H92 0.940 . S
C107 C102 1.391 . S
C107 C106 1.396 . S
C108 P88 1.803 . S
C108 C109 1.378 1_554 S
C108 C113 1.400 . S
C109 H93 0.939 . S
C109 C108 1.378 1_556 S
C109 C110 1.361 . S
C110 H94 0.942 . S
C110 C109 1.361 . S
C110 C111 1.369 1_556 S
C111 C110 1.369 1_554 S
C111 C112 1.404 . S
C112 H95 0.940 . S
C112 C111 1.404 . S
C112 C113 1.389 . S
C113 H96 0.939 . S
C113 C108 1.400 . S
C113 C112 1.389 . S
C114 P88 1.819 1_556 S
C114 C115 1.391 . S
C114 C119 1.391 . S
C115 H97 0.941 . S
C115 C114 1.391 . S
C115 C116 1.396 . S
C116 H100 0.939 . S
C116 C115 1.396 . S
C116 C117 1.397 . S
C117 C116 1.397 . S
C117 C118 1.385 . S
C118 H101 0.940 . S
C118 C117 1.385 . S
C118 C119 1.388 . S
C119 H98 0.939 . S
C119 C114 1.391 . S
C119 C118 1.388 . S
P120 O131 1.490 . S
P120 C134 1.812 . S
P120 C140 1.803 1_655 S
P120 C146 1.819 . S
H121 C135 0.941 . S
H122 C136 0.939 . S
H123 C138 0.940 . S
H124 C139 0.940 . S
H125 C141 0.939 . S
H126 C142 0.942 . S
H127 C144 0.940 . S
H128 C145 0.939 . S
H129 C147 0.941 . S
H130 C151 0.939 . S
O131 P120 1.490 . S
H132 C148 0.939 . S
H133 C150 0.940 . S
C134 P120 1.812 . S
C134 C135 1.389 . S
C134 C139 1.391 . S
C135 H121 0.941 . S
C135 C134 1.389 . S
C135 C136 1.397 . S
C136 H122 0.939 . S
C136 C135 1.397 . S
C136 C137 1.378 . S
C137 C136 1.378 . S
C137 C138 1.378 . S
C138 H123 0.940 . S
C138 C137 1.378 . S
C138 C139 1.396 . S
C139 H124 0.940 . S
C139 C134 1.391 . S
C139 C138 1.396 . S
C140 P120 1.803 1_455 S
C140 C141 1.378 . S
C140 C145 1.400 . S
C141 H125 0.939 . S
C141 C140 1.378 . S
C141 C142 1.361 . S
C142 H126 0.942 . S
C142 C141 1.361 . S
C142 C143 1.369 . S
C143 C142 1.369 . S
C143 C144 1.404 . S
C144 H127 0.940 . S
C144 C143 1.404 . S
C144 C145 1.389 . S
C145 H128 0.939 . S
C145 C140 1.400 . S
C145 C144 1.389 . S
C146 P120 1.819 . S
C146 C147 1.391 . S
C146 C151 1.391 . S
C147 H129 0.941 . S
C147 C146 1.391 . S
C147 C148 1.396 . S
C148 H132 0.939 . S
C148 C147 1.396 . S
C148 C149 1.397 . S
C149 C148 1.397 . S
C149 C150 1.385 . S
C150 H133 0.940 . S
C150 C149 1.385 . S
C150 C151 1.388 . S
C151 H130 0.939 . S
C151 C146 1.391 . S
C151 C150 1.388 . S
P152 O163 1.490 . S
P152 C166 1.812 . S
P152 C172 1.803 . S
P152 C178 1.819 1_556 S
H153 C167 0.941 . S
H154 C168 0.939 . S
H155 C170 0.940 . S
H156 C171 0.940 . S
H157 C173 0.939 . S
H158 C174 0.942 . S
H159 C176 0.940 . S
H160 C177 0.939 . S
H161 C179 0.941 . S
H162 C183 0.939 . S
O163 P152 1.490 . S
H164 C180 0.939 . S
H165 C182 0.940 . S
C166 P152 1.812 . S
C166 C167 1.389 . S
C166 C171 1.391 . S
C167 H153 0.941 . S
C167 C166 1.389 . S
C167 C168 1.397 . S
C168 H154 0.939 . S
C168 C167 1.397 . S
C168 C169 1.378 . S
C169 C168 1.378 . S
C169 C170 1.378 . S
C170 H155 0.940 . S
C170 C169 1.378 . S
C170 C171 1.396 . S
C171 H156 0.940 . S
C171 C166 1.391 . S
C171 C170 1.396 . S
C172 P152 1.803 . S
C172 C173 1.378 1_556 S
C172 C177 1.400 . S
C173 H157 0.939 . S
C173 C172 1.378 1_554 S
C173 C174 1.361 . S
C174 H158 0.942 . S
C174 C173 1.361 . S
C174 C175 1.369 . S
C175 C174 1.369 . S
C175 C176 1.404 1_554 S
C176 H159 0.940 . S
C176 C175 1.404 1_556 S
C176 C177 1.389 . S
C177 H160 0.939 . S
C177 C172 1.400 . S
C177 C176 1.389 . S
C178 P152 1.819 1_554 S
C178 C179 1.391 . S
C178 C183 1.391 . S
C179 H161 0.941 . S
C179 C178 1.391 . S
C179 C180 1.396 . S
C180 H164 0.939 . S
C180 C179 1.396 . S
C180 C181 1.397 . S
C181 C180 1.397 . S
C181 C182 1.385 . S
C182 H165 0.940 . S
C182 C181 1.385 . S
C182 C183 1.388 . S
C183 H162 0.939 . S
C183 C178 1.391 . S
C183 C182 1.388 . S
P184 O195 1.490 . S
P184 C198 1.812 . S
P184 C204 1.803 1_455 S
P184 C210 1.819 . S
H185 C199 0.941 . S
H186 C200 0.939 . S
H187 C202 0.940 . S
H188 C203 0.940 . S
H189 C205 0.939 . S
H190 C206 0.942 . S
H191 C208 0.940 . S
H192 C209 0.939 . S
H193 C211 0.941 . S
H194 C215 0.939 . S
O195 P184 1.490 . S
H196 C212 0.939 . S
H197 C214 0.940 . S
C198 P184 1.812 . S
C198 C199 1.389 . S
C198 C203 1.391 . S
C199 H185 0.941 . S
C199 C198 1.389 . S
C199 C200 1.397 . S
C200 H186 0.939 . S
C200 C199 1.397 . S
C200 C201 1.378 . S
C201 C200 1.378 . S
C201 C202 1.378 . S
C202 H187 0.940 . S
C202 C201 1.378 . S
C202 C203 1.396 . S
C203 H188 0.940 . S
C203 C198 1.391 . S
C203 C202 1.396 . S
C204 P184 1.803 1_655 S
C204 C205 1.378 . S
C204 C209 1.400 . S
C205 H189 0.939 . S
C205 C204 1.378 . S
C205 C206 1.361 . S
C206 H190 0.942 . S
C206 C205 1.361 . S
C206 C207 1.369 . S
C207 C206 1.369 . S
C207 C208 1.404 . S
C208 H191 0.940 . S
C208 C207 1.404 . S
C208 C209 1.389 . S
C209 H192 0.939 . S
C209 C204 1.400 . S
C209 C208 1.389 . S
C210 P184 1.819 . S
C210 C211 1.391 . S
C210 C215 1.391 . S
C211 H193 0.941 . S
C211 C210 1.391 . S
C211 C212 1.396 . S
C212 H196 0.939 . S
C212 C211 1.396 . S
C212 C213 1.397 . S
C213 C212 1.397 . S
C213 C214 1.385 . S
C214 H197 0.940 . S
C214 C213 1.385 . S
C214 C215 1.388 . S
C215 H194 0.939 . S
C215 C210 1.391 . S
C215 C214 1.388 . S
P216 O227 1.490 . S
P216 C230 1.812 . S
P216 C236 1.803 1_565 S
P216 C242 1.819 . S
H217 C231 0.941 . S
H218 C232 0.939 . S
H219 C234 0.940 . S
H220 C235 0.940 . S
H221 C237 0.939 . S
H222 C238 0.942 . S
H223 C240 0.940 . S
H224 C241 0.939 . S
H225 C243 0.941 . S
H226 C247 0.939 . S
O227 P216 1.490 . S
H228 C244 0.939 . S
H229 C246 0.940 . S
C230 P216 1.812 . S
C230 C231 1.389 . S
C230 C235 1.391 . S
C231 H217 0.941 . S
C231 C230 1.389 . S
C231 C232 1.397 . S
C232 H218 0.939 . S
C232 C231 1.397 . S
C232 C233 1.378 . S
C233 C232 1.378 . S
C233 C234 1.378 . S
C234 H219 0.940 . S
C234 C233 1.378 . S
C234 C235 1.396 . S
C235 H220 0.940 . S
C235 C230 1.391 . S
C235 C234 1.396 . S
C236 P216 1.803 1_545 S
C236 C237 1.378 . S
C236 C241 1.400 . S
C237 H221 0.939 . S
C237 C236 1.378 . S
C237 C238 1.361 . S
C238 H222 0.942 . S
C238 C237 1.361 . S
C238 C239 1.369 . S
C239 C238 1.369 . S
C239 C240 1.404 . S
C240 H223 0.940 . S
C240 C239 1.404 . S
C240 C241 1.389 . S
C241 H224 0.939 . S
C241 C236 1.400 . S
C241 C240 1.389 . S
C242 P216 1.819 . S
C242 C243 1.391 . S
C242 C247 1.391 . S
C243 H225 0.941 . S
C243 C242 1.391 . S
C243 C244 1.396 . S
C244 H228 0.939 . S
C244 C243 1.396 . S
C244 C245 1.397 . S
C245 C244 1.397 . S
C245 C246 1.385 . S
C246 H229 0.940 . S
C246 C245 1.385 . S
C246 C247 1.388 . S
C247 H226 0.939 . S
C247 C242 1.391 . S
C247 C246 1.388 . S
P248 O259 1.490 . S
P248 C262 1.812 . S
P248 C268 1.803 . S
P248 C274 1.819 1_556 S
H249 C263 0.941 . S
H250 C264 0.939 . S
H251 C266 0.940 . S
H252 C267 0.940 . S
H253 C269 0.939 . S
H254 C270 0.942 . S
H255 C272 0.940 . S
H256 C273 0.939 . S
H257 C275 0.941 . S
H258 C279 0.939 . S
O259 P248 1.490 . S
H260 C276 0.939 . S
H261 C278 0.940 . S
C262 P248 1.812 . S
C262 C263 1.389 . S
C262 C267 1.391 . S
C263 H249 0.941 . S
C263 C262 1.389 . S
C263 C264 1.397 . S
C264 H250 0.939 . S
C264 C263 1.397 . S
C264 C265 1.378 . S
C265 C264 1.378 . S
C265 C266 1.378 . S
C266 H251 0.940 . S
C266 C265 1.378 . S
C266 C267 1.396 . S
C267 H252 0.940 . S
C267 C262 1.391 . S
C267 C266 1.396 . S
C268 P248 1.803 . S
C268 C269 1.378 1_556 S
C268 C273 1.400 . S
C269 H253 0.939 . S
C269 C268 1.378 1_554 S
C269 C270 1.361 . S
C270 H254 0.942 . S
C270 C269 1.361 . S
C270 C271 1.369 . S
C271 C270 1.369 . S
C271 C272 1.404 1_554 S
C272 H255 0.940 . S
C272 C271 1.404 1_556 S
C272 C273 1.389 . S
C273 H256 0.939 . S
C273 C268 1.400 . S
C273 C272 1.389 . S
C274 P248 1.819 1_554 S
C274 C275 1.391 . S
C274 C279 1.391 . S
C275 H257 0.941 . S
C275 C274 1.391 . S
C275 C276 1.396 . S
C276 H260 0.939 . S
C276 C275 1.396 . S
C276 C277 1.397 . S
C277 C276 1.397 . S
C277 C278 1.385 . S
C278 H261 0.940 . S
C278 C277 1.385 . S
C278 C279 1.388 . S
C279 H258 0.939 . S
C279 C274 1.391 . S
C279 C278 1.388 . S
P280 O291 1.490 . S
P280 C294 1.812 . S
P280 C300 1.803 1_545 S
P280 C306 1.819 . S
H281 C295 0.941 . S
H282 C296 0.939 . S
H283 C298 0.940 . S
H284 C299 0.940 . S
H285 C301 0.939 . S
H286 C302 0.942 . S
H287 C304 0.940 . S
H288 C305 0.939 . S
H289 C307 0.941 . S
H290 C311 0.939 . S
O291 P280 1.490 . S
H292 C308 0.939 . S
H293 C310 0.940 . S
C294 P280 1.812 . S
C294 C295 1.389 . S
C294 C299 1.391 . S
C295 H281 0.941 . S
C295 C294 1.389 . S
C295 C296 1.397 . S
C296 H282 0.939 . S
C296 C295 1.397 . S
C296 C297 1.378 . S
C297 C296 1.378 . S
C297 C298 1.378 . S
C298 H283 0.940 . S
C298 C297 1.378 . S
C298 C299 1.396 . S
C299 H284 0.940 . S
C299 C294 1.391 . S
C299 C298 1.396 . S
C300 P280 1.803 1_565 S
C300 C301 1.378 . S
C300 C305 1.400 . S
C301 H285 0.939 . S
C301 C300 1.378 . S
C301 C302 1.361 . S
C302 H286 0.942 . S
C302 C301 1.361 . S
C302 C303 1.369 . S
C303 C302 1.369 . S
C303 C304 1.404 . S
C304 H287 0.940 . S
C304 C303 1.404 . S
C304 C305 1.389 . S
C305 H288 0.939 . S
C305 C300 1.400 . S
C305 C304 1.389 . S
C306 P280 1.819 . S
C306 C307 1.391 . S
C306 C311 1.391 . S
C307 H289 0.941 . S
C307 C306 1.391 . S
C307 C308 1.396 . S
C308 H292 0.939 . S
C308 C307 1.396 . S
C308 C309 1.397 . S
C309 C308 1.397 . S
C309 C310 1.385 . S
C310 H293 0.940 . S
C310 C309 1.385 . S
C310 C311 1.388 . S
C311 H290 0.939 . S
C311 C306 1.391 . S
C311 C310 1.388 . S
P312 O323 1.490 . S
P312 C326 1.812 . S
P312 C332 1.803 . S
P312 C338 1.819 1_554 S
H313 C327 0.941 . S
H314 C328 0.939 . S
H315 C330 0.940 . S
H316 C331 0.940 . S
H317 C333 0.939 . S
H318 C334 0.942 . S
H319 C336 0.940 . S
H320 C337 0.939 . S
H321 C339 0.941 . S
H322 C343 0.939 . S
O323 P312 1.490 . S
H324 C340 0.939 . S
H325 C342 0.940 . S
C326 P312 1.812 . S
C326 C327 1.389 . S
C326 C331 1.391 . S
C327 H313 0.941 . S
C327 C326 1.389 . S
C327 C328 1.397 . S
C328 H314 0.939 . S
C328 C327 1.397 . S
C328 C329 1.378 . S
C329 C328 1.378 . S
C329 C330 1.378 . S
C330 H315 0.940 . S
C330 C329 1.378 . S
C330 C331 1.396 . S
C331 H316 0.940 . S
C331 C326 1.391 . S
C331 C330 1.396 . S
C332 P312 1.803 . S
C332 C333 1.378 1_554 S
C332 C337 1.400 . S
C333 H317 0.939 . S
C333 C332 1.378 1_556 S
C333 C334 1.361 . S
C334 H318 0.942 . S
C334 C333 1.361 . S
C334 C335 1.369 1_556 S
C335 C334 1.369 1_554 S
C335 C336 1.404 . S
C336 H319 0.940 . S
C336 C335 1.404 . S
C336 C337 1.389 . S
C337 H320 0.939 . S
C337 C332 1.400 . S
C337 C336 1.389 . S
C338 P312 1.819 1_556 S
C338 C339 1.391 . S
C338 C343 1.391 . S
C339 H321 0.941 . S
C339 C338 1.391 . S
C339 C340 1.396 . S
C340 H324 0.939 . S
C340 C339 1.396 . S
C340 C341 1.397 . S
C341 C340 1.397 . S
C341 C342 1.385 . S
C342 H325 0.940 . S
C342 C341 1.385 . S
C342 C343 1.388 . S
C343 H322 0.939 . S
C343 C338 1.391 . S
C343 C342 1.388 . S
H344 C350 0.930 . S
H345 C353 0.930 . S
H346 C354 0.930 . S
H347 C355 0.930 . S
H348 C358 0.930 . S
H349 C359 0.930 . S
C350 H344 0.930 . S
C350 C351 1.355 . S
C350 C352 1.415 . S
C351 C350 1.355 . S
C351 C353 1.419 . S
C352 C350 1.415 . S
C352 C357 1.425 . S
C352 C359 1.409 . S
C353 H345 0.930 . S
C353 C351 1.419 . S
C353 C354 1.362 . S
C354 H346 0.930 . S
C354 C353 1.362 . S
C354 C357 1.409 . S
C355 H347 0.930 . S
C355 C356 1.355 . S
C355 C357 1.415 . S
C356 C355 1.355 . S
C356 C358 1.419 . S
C357 C352 1.425 . S
C357 C354 1.409 . S
C357 C355 1.415 . S
C358 H348 0.930 . S
C358 C356 1.419 . S
C358 C359 1.362 . S
C359 H349 0.930 . S
C359 C352 1.409 . S
C359 C358 1.362 . S
H360 C366 0.930 . S
H361 C369 0.930 . S
H362 C370 0.930 . S
H363 C371 0.930 . S
H364 C374 0.930 . S
H365 C375 0.930 . S
C366 H360 0.930 . S
C366 C367 1.355 . S
C366 C368 1.415 . S
C367 C366 1.355 . S
C367 C369 1.419 . S
C368 C366 1.415 . S
C368 C373 1.425 . S
C368 C375 1.409 . S
C369 H361 0.930 . S
C369 C367 1.419 . S
C369 C370 1.362 . S
C370 H362 0.930 . S
C370 C369 1.362 . S
C370 C373 1.409 . S
C371 H363 0.930 . S
C371 C372 1.355 . S
C371 C373 1.415 . S
C372 C371 1.355 . S
C372 C374 1.419 . S
C373 C368 1.425 . S
C373 C370 1.409 . S
C373 C371 1.415 . S
C374 H364 0.930 . S
C374 C372 1.419 . S
C374 C375 1.362 . S
C375 H365 0.930 . S
C375 C368 1.409 . S
C375 C374 1.362 . S
H376 C382 0.930 . S
H377 C385 0.930 . S
H378 C386 0.930 . S
H379 C387 0.930 . S
H380 C390 0.930 . S
H381 C391 0.930 . S
C382 H376 0.930 . S
C382 C383 1.355 . S
C382 C384 1.415 . S
C383 C382 1.355 . S
C383 C385 1.419 . S
C384 C382 1.415 . S
C384 C389 1.425 . S
C384 C391 1.409 . S
C385 H377 0.930 . S
C385 C383 1.419 . S
C385 C386 1.362 . S
C386 H378 0.930 . S
C386 C385 1.362 . S
C386 C389 1.409 . S
C387 H379 0.930 . S
C387 C388 1.355 . S
C387 C389 1.415 . S
C388 C387 1.355 . S
C388 C390 1.419 . S
C389 C384 1.425 . S
C389 C386 1.409 . S
C389 C387 1.415 . S
C390 H380 0.930 . S
C390 C388 1.419 . S
C390 C391 1.362 . S
C391 H381 0.930 . S
C391 C384 1.409 . S
C391 C390 1.362 . S
H392 C398 0.930 . S
H393 C401 0.930 . S
H394 C402 0.930 . S
H395 C403 0.930 . S
H396 C406 0.930 . S
H397 C407 0.930 . S
C398 H392 0.930 . S
C398 C399 1.355 . S
C398 C400 1.415 . S
C399 C398 1.355 . S
C399 C401 1.419 . S
C400 C398 1.415 . S
C400 C405 1.425 . S
C400 C407 1.409 . S
C401 H393 0.930 . S
C401 C399 1.419 . S
C401 C402 1.362 . S
C402 H394 0.930 . S
C402 C401 1.362 . S
C402 C405 1.409 . S
C403 H395 0.930 . S
C403 C404 1.355 . S
C403 C405 1.415 . S
C404 C403 1.355 . S
C404 C406 1.419 . S
C405 C400 1.425 . S
C405 C402 1.409 . S
C405 C403 1.415 . S
C406 H396 0.930 . S
C406 C404 1.419 . S
C406 C407 1.362 . S
C407 H397 0.930 . S
C407 C400 1.409 . S
C407 C406 1.362 . S
H408 C414 0.930 . S
H409 C417 0.930 . S
H410 C418 0.930 . S
H411 C419 0.930 . S
H412 C422 0.930 . S
H413 C423 0.930 . S
C414 H408 0.930 . S
C414 C415 1.355 . S
C414 C416 1.415 . S
C415 C414 1.355 . S
C415 C417 1.419 . S
C416 C414 1.415 . S
C416 C421 1.425 . S
C416 C423 1.409 . S
C417 H409 0.930 . S
C417 C415 1.419 . S
C417 C418 1.362 . S
C418 H410 0.930 . S
C418 C417 1.362 . S
C418 C421 1.409 . S
C419 H411 0.930 . S
C419 C420 1.355 . S
C419 C421 1.415 . S
C420 C419 1.355 . S
C420 C422 1.419 . S
C421 C416 1.425 . S
C421 C418 1.409 . S
C421 C419 1.415 . S
C422 H412 0.930 . S
C422 C420 1.419 . S
C422 C423 1.362 . S
C423 H413 0.930 . S
C423 C416 1.409 . S
C423 C422 1.362 . S
H424 C430 0.930 . S
H425 C433 0.930 . S
H426 C434 0.930 . S
H427 C435 0.930 . S
H428 C438 0.930 . S
H429 C439 0.930 . S
C430 H424 0.930 . S
C430 C431 1.355 . S
C430 C432 1.415 . S
C431 C430 1.355 . S
C431 C433 1.419 . S
C432 C430 1.415 . S
C432 C437 1.425 . S
C432 C439 1.409 . S
C433 H425 0.930 . S
C433 C431 1.419 . S
C433 C434 1.362 . S
C434 H426 0.930 . S
C434 C433 1.362 . S
C434 C437 1.409 . S
C435 H427 0.930 . S
C435 C436 1.355 . S
C435 C437 1.415 . S
C436 C435 1.355 . S
C436 C438 1.419 . S
C437 C432 1.425 . S
C437 C434 1.409 . S
C437 C435 1.415 . S
C438 H428 0.930 . S
C438 C436 1.419 . S
C438 C439 1.362 . S
C439 H429 0.930 . S
C439 C432 1.409 . S
C439 C438 1.362 . S
H440 C446 0.930 . S
H441 C449 0.930 . S
H442 C450 0.930 . S
H443 C451 0.930 . S
H444 C454 0.930 . S
H445 C455 0.930 . S
C446 H440 0.930 . S
C446 C447 1.355 . S
C446 C448 1.415 . S
C447 C446 1.355 . S
C447 C449 1.419 . S
C448 C446 1.415 . S
C448 C453 1.425 . S
C448 C455 1.409 . S
C449 H441 0.930 . S
C449 C447 1.419 . S
C449 C450 1.362 . S
C450 H442 0.930 . S
C450 C449 1.362 . S
C450 C453 1.409 . S
C451 H443 0.930 . S
C451 C452 1.355 . S
C451 C453 1.415 . S
C452 C451 1.355 . S
C452 C454 1.419 . S
C453 C448 1.425 . S
C453 C450 1.409 . S
C453 C451 1.415 . S
C454 H444 0.930 . S
C454 C452 1.419 . S
C454 C455 1.362 . S
C455 H445 0.930 . S
C455 C448 1.409 . S
C455 C454 1.362 . S
H456 C462 0.930 . S
H457 C465 0.930 . S
H458 C466 0.930 . S
H459 C467 0.930 . S
H460 C470 0.930 . S
H461 C471 0.930 . S
C462 H456 0.930 . S
C462 C463 1.355 . S
C462 C464 1.415 . S
C463 C462 1.355 . S
C463 C465 1.419 . S
C464 C462 1.415 . S
C464 C469 1.425 . S
C464 C471 1.409 . S
C465 H457 0.930 . S
C465 C463 1.419 . S
C465 C466 1.362 . S
C466 H458 0.930 . S
C466 C465 1.362 . S
C466 C469 1.409 . S
C467 H459 0.930 . S
C467 C468 1.355 . S
C467 C469 1.415 . S
C468 C467 1.355 . S
C468 C470 1.419 . S
C469 C464 1.425 . S
C469 C466 1.409 . S
C469 C467 1.415 . S
C470 H460 0.930 . S
C470 C468 1.419 . S
C470 C471 1.362 . S
C471 H461 0.930 . S
C471 C464 1.409 . S
C471 C470 1.362 . S
H472 C478 0.930 . S
H473 C481 0.930 . S
H474 C482 0.930 . S
H475 C483 0.930 . S
H476 C486 0.930 . S
H477 C487 0.930 . S
C478 H472 0.930 . S
C478 C479 1.355 . S
C478 C480 1.415 . S
C479 C478 1.355 . S
C479 C481 1.419 . S
C480 C478 1.415 . S
C480 C485 1.425 . S
C480 C487 1.409 . S
C481 H473 0.930 . S
C481 C479 1.419 . S
C481 C482 1.362 . S
C482 H474 0.930 . S
C482 C481 1.362 . S
C482 C485 1.409 . S
C483 H475 0.930 . S
C483 C484 1.355 . S
C483 C485 1.415 . S
C484 C483 1.355 . S
C484 C486 1.419 . S
C485 C480 1.425 . S
C485 C482 1.409 . S
C485 C483 1.415 . S
C486 H476 0.930 . S
C486 C484 1.419 . S
C486 C487 1.362 . S
C487 H477 0.930 . S
C487 C480 1.409 . S
C487 C486 1.362 . S
H488 C494 0.930 . S
H489 C497 0.930 . S
H490 C498 0.930 . S
H491 C499 0.930 . S
H492 C502 0.930 . S
H493 C503 0.930 . S
C494 H488 0.930 . S
C494 C495 1.355 . S
C494 C496 1.415 . S
C495 C494 1.355 . S
C495 C497 1.419 . S
C496 C494 1.415 . S
C496 C501 1.425 . S
C496 C503 1.409 . S
C497 H489 0.930 . S
C497 C495 1.419 . S
C497 C498 1.362 . S
C498 H490 0.930 . S
C498 C497 1.362 . S
C498 C501 1.409 . S
C499 H491 0.930 . S
C499 C500 1.355 . S
C499 C501 1.415 . S
C500 C499 1.355 . S
C500 C502 1.419 . S
C501 C496 1.425 . S
C501 C498 1.409 . S
C501 C499 1.415 . S
C502 H492 0.930 . S
C502 C500 1.419 . S
C502 C503 1.362 . S
C503 H493 0.930 . S
C503 C496 1.409 . S
C503 C502 1.362 . S
H504 C510 0.930 . S
H505 C513 0.930 . S
H506 C514 0.930 . S
H507 C515 0.930 . S
H508 C518 0.930 . S
H509 C519 0.930 . S
C510 H504 0.930 . S
C510 C511 1.355 . S
C510 C512 1.415 . S
C511 C510 1.355 . S
C511 C513 1.419 . S
C512 C510 1.415 . S
C512 C517 1.425 . S
C512 C519 1.409 . S
C513 H505 0.930 . S
C513 C511 1.419 . S
C513 C514 1.362 . S
C514 H506 0.930 . S
C514 C513 1.362 . S
C514 C517 1.409 . S
C515 H507 0.930 . S
C515 C516 1.355 . S
C515 C517 1.415 . S
C516 C515 1.355 . S
C516 C518 1.419 . S
C517 C512 1.425 . S
C517 C514 1.409 . S
C517 C515 1.415 . S
C518 H508 0.930 . S
C518 C516 1.419 . S
C518 C519 1.362 . S
C519 H509 0.930 . S
C519 C512 1.409 . S
C519 C518 1.362 . S
H520 C526 0.930 . S
H521 C529 0.930 . S
H522 C530 0.930 . S
H523 C531 0.930 . S
H524 C534 0.930 . S
H525 C535 0.930 . S
C526 H520 0.930 . S
C526 C527 1.355 . S
C526 C528 1.415 . S
C527 C526 1.355 . S
C527 C529 1.419 . S
C528 C526 1.415 . S
C528 C533 1.425 . S
C528 C535 1.409 . S
C529 H521 0.930 . S
C529 C527 1.419 . S
C529 C530 1.362 . S
C530 H522 0.930 . S
C530 C529 1.362 . S
C530 C533 1.409 . S
C531 H523 0.930 . S
C531 C532 1.355 . S
C531 C533 1.415 . S
C532 C531 1.355 . S
C532 C534 1.419 . S
C533 C528 1.425 . S
C533 C530 1.409 . S
C533 C531 1.415 . S
C534 H524 0.930 . S
C534 C532 1.419 . S
C534 C535 1.362 . S
C535 H525 0.930 . S
C535 C528 1.409 . S
C535 C534 1.362 . S
H536 C542 0.930 . S
H537 C545 0.930 . S
H538 C546 0.930 . S
H539 C547 0.930 . S
H540 C550 0.930 . S
H541 C551 0.930 . S
C542 H536 0.930 . S
C542 C543 1.355 . S
C542 C544 1.415 . S
C543 C542 1.355 . S
C543 C545 1.419 . S
C544 C542 1.415 . S
C544 C549 1.425 . S
C544 C551 1.409 . S
C545 H537 0.930 . S
C545 C543 1.419 . S
C545 C546 1.362 . S
C546 H538 0.930 . S
C546 C545 1.362 . S
C546 C549 1.409 . S
C547 H539 0.930 . S
C547 C548 1.355 . S
C547 C549 1.415 . S
C548 C547 1.355 . S
C548 C550 1.419 . S
C549 C544 1.425 . S
C549 C546 1.409 . S
C549 C547 1.415 . S
C550 H540 0.930 . S
C550 C548 1.419 . S
C550 C551 1.362 . S
C551 H541 0.930 . S
C551 C544 1.409 . S
C551 C550 1.362 . S
H552 C558 0.930 . S
H553 C561 0.930 . S
H554 C562 0.930 . S
H555 C563 0.930 . S
H556 C566 0.930 . S
H557 C567 0.930 . S
C558 H552 0.930 . S
C558 C559 1.355 . S
C558 C560 1.415 . S
C559 C558 1.355 . S
C559 C561 1.419 . S
C560 C558 1.415 . S
C560 C565 1.425 . S
C560 C567 1.409 . S
C561 H553 0.930 . S
C561 C559 1.419 . S
C561 C562 1.362 . S
C562 H554 0.930 . S
C562 C561 1.362 . S
C562 C565 1.409 . S
C563 H555 0.930 . S
C563 C564 1.355 . S
C563 C565 1.415 . S
C564 C563 1.355 . S
C564 C566 1.419 . S
C565 C560 1.425 . S
C565 C562 1.409 . S
C565 C563 1.415 . S
C566 H556 0.930 . S
C566 C564 1.419 . S
C566 C567 1.362 . S
C567 H557 0.930 . S
C567 C560 1.409 . S
C567 C566 1.362 . S
H568 C574 0.930 . S
H569 C577 0.930 . S
H570 C578 0.930 . S
H571 C579 0.930 . S
H572 C582 0.930 . S
H573 C583 0.930 . S
C574 H568 0.930 . S
C574 C575 1.355 . S
C574 C576 1.415 . S
C575 C574 1.355 . S
C575 C577 1.419 . S
C576 C574 1.415 . S
C576 C581 1.425 . S
C576 C583 1.409 . S
C577 H569 0.930 . S
C577 C575 1.419 . S
C577 C578 1.362 . S
C578 H570 0.930 . S
C578 C577 1.362 . S
C578 C581 1.409 . S
C579 H571 0.930 . S
C579 C580 1.355 . S
C579 C581 1.415 . S
C580 C579 1.355 . S
C580 C582 1.419 . S
C581 C576 1.425 . S
C581 C578 1.409 . S
C581 C579 1.415 . S
C582 H572 0.930 . S
C582 C580 1.419 . S
C582 C583 1.362 . S
C583 H573 0.930 . S
C583 C576 1.409 . S
C583 C582 1.362 . S
H584 C590 0.930 . S
H585 C593 0.930 . S
H586 C594 0.930 . S
H587 C595 0.930 . S
H588 C598 0.930 . S
H589 C599 0.930 . S
C590 H584 0.930 . S
C590 C591 1.355 . S
C590 C592 1.415 . S
C591 C590 1.355 . S
C591 C593 1.419 . S
C592 C590 1.415 . S
C592 C597 1.425 . S
C592 C599 1.409 . S
C593 H585 0.930 . S
C593 C591 1.419 . S
C593 C594 1.362 . S
C594 H586 0.930 . S
C594 C593 1.362 . S
C594 C597 1.409 . S
C595 H587 0.930 . S
C595 C596 1.355 . S
C595 C597 1.415 . S
C596 C595 1.355 . S
C596 C598 1.419 . S
C597 C592 1.425 . S
C597 C594 1.409 . S
C597 C595 1.415 . S
C598 H588 0.930 . S
C598 C596 1.419 . S
C598 C599 1.362 . S
C599 H589 0.930 . S
C599 C592 1.409 . S
C599 C598 1.362 . S
H600 C606 0.930 . S
H601 C609 0.930 . S
H602 C610 0.930 . S
H603 C611 0.930 . S
H604 C614 0.930 . S
H605 C615 0.930 . S
C606 H600 0.930 . S
C606 C607 1.355 1_554 S
C606 C608 1.415 . S
C607 C606 1.355 1_556 S
C607 C609 1.419 . S
C608 C606 1.415 . S
C608 C613 1.425 1_554 S
C608 C615 1.409 . S
C609 H601 0.930 . S
C609 C607 1.419 . S
C609 C610 1.362 . S
C610 H602 0.930 . S
C610 C609 1.362 . S
C610 C613 1.409 . S
C611 H603 0.930 . S
C611 C612 1.355 1_556 S
C611 C613 1.415 . S
C612 C611 1.355 1_554 S
C612 C614 1.419 . S
C613 C608 1.425 1_556 S
C613 C610 1.409 . S
C613 C611 1.415 . S
C614 H604 0.930 . S
C614 C612 1.419 . S
C614 C615 1.362 . S
C615 H605 0.930 . S
C615 C608 1.409 . S
C615 C614 1.362 . S
H616 C622 0.930 . S
H617 C625 0.930 . S
H618 C626 0.930 . S
H619 C627 0.930 . S
H620 C630 0.930 . S
H621 C631 0.930 . S
C622 H616 0.930 . S
C622 C623 1.355 . S
C622 C624 1.415 . S
C623 C622 1.355 . S
C623 C625 1.419 . S
C624 C622 1.415 . S
C624 C629 1.425 . S
C624 C631 1.409 . S
C625 H617 0.930 . S
C625 C623 1.419 . S
C625 C626 1.362 . S
C626 H618 0.930 . S
C626 C625 1.362 . S
C626 C629 1.409 . S
C627 H619 0.930 . S
C627 C628 1.355 . S
C627 C629 1.415 . S
C628 C627 1.355 . S
C628 C630 1.419 . S
C629 C624 1.425 . S
C629 C626 1.409 . S
C629 C627 1.415 . S
C630 H620 0.930 . S
C630 C628 1.419 . S
C630 C631 1.362 . S
C631 H621 0.930 . S
C631 C624 1.409 . S
C631 C630 1.362 . S
H632 C638 0.930 . S
H633 C641 0.930 . S
H634 C642 0.930 . S
H635 C643 0.930 . S
H636 C646 0.930 . S
H637 C647 0.930 . S
C638 H632 0.930 . S
C638 C639 1.365 . S
C638 C640 1.415 . S
C639 C638 1.365 . S
C639 C641 1.407 1_554 S
C640 C638 1.415 . S
C640 C645 1.425 1_554 S
C640 C647 1.409 . S
C641 H633 0.930 . S
C641 C639 1.407 1_556 S
C641 C642 1.362 . S
C642 H634 0.930 . S
C642 C641 1.362 . S
C642 C645 1.409 . S
C643 H635 0.930 . S
C643 C644 1.355 1_556 S
C643 C645 1.415 . S
C644 C643 1.355 1_554 S
C644 C646 1.419 . S
C645 C640 1.425 1_556 S
C645 C642 1.409 . S
C645 C643 1.415 . S
C646 H636 0.930 . S
C646 C644 1.419 . S
C646 C647 1.362 . S
C647 H637 0.930 . S
C647 C640 1.409 . S
C647 C646 1.362 . S
H648 C654 0.930 . S
H649 C657 0.930 . S
H650 C658 0.930 . S
H651 C659 0.930 . S
H652 C662 0.930 . S
H653 C663 0.930 . S
C654 H648 0.930 . S
C654 C655 1.355 . S
C654 C656 1.415 . S
C655 C654 1.355 . S
C655 C657 1.419 . S
C656 C654 1.415 . S
C656 C661 1.425 . S
C656 C663 1.409 . S
C657 H649 0.930 . S
C657 C655 1.419 . S
C657 C658 1.362 . S
C658 H650 0.930 . S
C658 C657 1.362 . S
C658 C661 1.409 . S
C659 H651 0.930 . S
C659 C660 1.355 . S
C659 C661 1.415 . S
C660 C659 1.355 . S
C660 C662 1.419 . S
C661 C656 1.425 . S
C661 C658 1.409 . S
C661 C659 1.415 . S
C662 H652 0.930 . S
C662 C660 1.419 . S
C662 C663 1.362 . S
C663 H653 0.930 . S
C663 C656 1.409 . S
C663 C662 1.362 . S
H664 C670 0.930 . S
H665 C673 0.930 . S
H666 C674 0.930 . S
H667 C675 0.930 . S
H668 C678 0.930 . S
H669 C679 0.930 . S
C670 H664 0.930 . S
C670 C671 1.355 . S
C670 C672 1.415 . S
C671 C670 1.355 . S
C671 C673 1.419 . S
C672 C670 1.415 . S
C672 C677 1.425 . S
C672 C679 1.409 . S
C673 H665 0.930 . S
C673 C671 1.419 . S
C673 C674 1.362 . S
C674 H666 0.930 . S
C674 C673 1.362 . S
C674 C677 1.409 . S
C675 H667 0.930 . S
C675 C676 1.355 . S
C675 C677 1.415 . S
C676 C675 1.355 . S
C676 C678 1.419 . S
C677 C672 1.425 . S
C677 C674 1.409 . S
C677 C675 1.415 . S
C678 H668 0.930 . S
C678 C676 1.419 . S
C678 C679 1.362 . S
C679 H669 0.930 . S
C679 C672 1.409 . S
C679 C678 1.362 . S
H680 C686 0.930 . S
H681 C689 0.930 . S
H682 C690 0.930 . S
H683 C691 0.930 . S
H684 C694 0.930 . S
H685 C695 0.930 . S
C686 H680 0.930 . S
C686 C687 1.355 . S
C686 C688 1.415 . S
C687 C686 1.355 . S
C687 C689 1.419 1_554 S
C688 C686 1.415 . S
C688 C693 1.425 1_554 S
C688 C695 1.409 . S
C689 H681 0.930 . S
C689 C687 1.419 1_556 S
C689 C690 1.362 . S
C690 H682 0.930 . S
C690 C689 1.362 . S
C690 C693 1.409 . S
C691 H683 0.930 . S
C691 C692 1.355 1_556 S
C691 C693 1.415 . S
C692 C691 1.355 1_554 S
C692 C694 1.419 . S
C693 C688 1.425 1_556 S
C693 C690 1.409 . S
C693 C691 1.415 . S
C694 H684 0.930 . S
C694 C692 1.419 . S
C694 C695 1.362 . S
C695 H685 0.930 . S
C695 C688 1.409 . S
C695 C694 1.362 . S
H696 C702 0.930 . S
H697 C705 0.930 . S
H698 C706 0.930 . S
H699 C707 0.930 . S
H700 C710 0.930 . S
H701 C711 0.930 . S
C702 H696 0.930 . S
C702 C703 1.355 . S
C702 C704 1.415 . S
C703 C702 1.355 . S
C703 C705 1.419 . S
C704 C702 1.415 . S
C704 C709 1.425 . S
C704 C711 1.409 . S
C705 H697 0.930 . S
C705 C703 1.419 . S
C705 C706 1.362 . S
C706 H698 0.930 . S
C706 C705 1.362 . S
C706 C709 1.409 . S
C707 H699 0.930 . S
C707 C708 1.355 . S
C707 C709 1.415 . S
C708 C707 1.355 . S
C708 C710 1.419 . S
C709 C704 1.425 . S
C709 C706 1.409 . S
C709 C707 1.415 . S
C710 H700 0.930 . S
C710 C708 1.419 . S
C710 C711 1.362 . S
C711 H701 0.930 . S
C711 C704 1.409 . S
C711 C710 1.362 . S
H712 C718 0.930 . S
H713 C721 0.930 . S
H714 C722 0.930 . S
H715 C723 0.930 . S
H716 C726 0.930 . S
H717 C727 0.930 . S
C718 H712 0.930 . S
C718 C719 1.355 1_556 S
C718 C720 1.415 . S
C719 C718 1.355 1_554 S
C719 C721 1.419 . S
C720 C718 1.415 . S
C720 C725 1.425 1_556 S
C720 C727 1.409 . S
C721 H713 0.930 . S
C721 C719 1.419 . S
C721 C722 1.362 . S
C722 H714 0.930 . S
C722 C721 1.362 . S
C722 C725 1.409 . S
C723 H715 0.930 . S
C723 C724 1.355 1_554 S
C723 C725 1.415 . S
C724 C723 1.355 1_556 S
C724 C726 1.419 . S
C725 C720 1.425 1_554 S
C725 C722 1.409 . S
C725 C723 1.415 . S
C726 H716 0.930 . S
C726 C724 1.419 . S
C726 C727 1.362 . S
C727 H717 0.930 . S
C727 C720 1.409 . S
C727 C726 1.362 . S
C351 C5 1.444 . S
C356 C201 1.474 . S
C367 C31 1.497 . S
C372 C117 1.386 . S
C388 C149 1.399 . S
C383 C53 1.456 . S
C399 C71 1.470 . S
C404 C169 1.475 . S
C420 C277 1.426 . S
C415 C75 1.490 . S
C436 C297 1.462 . S
C431 C9 1.467 . S
C452 C329 1.457 . S
C447 C27 1.474 . S
C468 C245 1.391 . S
C463 C49 1.491 . S
C479 C51 1.455 . S
C484 C137 1.457 . S
C495 C72 1.455 . S
C500 C181 1.487 . S
C511 C6 1.490 . S
C516 C213 1.467 . S
C532 C105 1.452 . S
C527 C29 1.440 . S
C543 C28 1.455 . S
C548 C341 1.490 . S
C564 C233 1.382 . S
C559 C50 1.466 . S
C580 C265 1.431 . S
C575 C73 1.467 . S
C591 C7 1.480 . S
C596 C309 1.488 . S
C612 C111 1.431 . S
C607 C4 1.499 1_556 S
C628 C143 1.478 . S
C623 C30 1.484 . S
C639 C52 1.511 . S
C644 C175 1.511 . S
C655 C70 1.496 . S
C660 C207 1.503 . S
C676 C239 1.470 . S
C671 C74 1.487 . S
C687 C8 1.484 . S
C692 C271 1.478 . S
C703 C26 1.498 . S
C708 C303 1.505 . S
C719 C48 1.485 . S
C724 C335 1.492 1_556 S
