# Generated by pormake.
# Topology zzz, (3,6)-cn, num edge types: 1
# Building blocks:
#     Node 0, Type 0, BuildingBlock: QEWDON_clean_linker_0, # of connection points: 3
#     Node 1, Type 0, BuildingBlock: QEWDON_clean_linker_0, # of connection points: 3
#     Node 2, Type 0, BuildingBlock: QEWDON_clean_linker_0, # of connection points: 3
#     Node 3, Type 0, BuildingBlock: QEWDON_clean_linker_0, # of connection points: 3
#     Node 4, Type 0, BuildingBlock: QEWDON_clean_linker_0, # of connection points: 3
#     Node 5, Type 0, BuildingBlock: QEWDON_clean_linker_0, # of connection points: 3
#     Node 6, Type 0, BuildingBlock: QEWDON_clean_linker_0, # of connection points: 3
#     Node 7, Type 0, BuildingBlock: QEWDON_clean_linker_0, # of connection points: 3
#     Node 8, Type 1, BuildingBlock: VOLQOD_clean_sbu_1, # of connection points: 6
#     Node 9, Type 1, BuildingBlock: VOLQOD_clean_sbu_1, # of connection points: 6
#     Node 10, Type 1, BuildingBlock: VOLQOD_clean_sbu_1, # of connection points: 6
#     Node 11, Type 1, BuildingBlock: VOLQOD_clean_sbu_1, # of connection points: 6
#     Edge 12, Type (0, 1), BuildingBlock: OJICUG_clean_linker_0, # of connection points: 2
#     Edge 13, Type (0, 1), BuildingBlock: OJICUG_clean_linker_0, # of connection points: 2
#     Edge 14, Type (0, 1), BuildingBlock: OJICUG_clean_linker_0, # of connection points: 2
#     Edge 15, Type (0, 1), BuildingBlock: OJICUG_clean_linker_0, # of connection points: 2
#     Edge 16, Type (0, 1), BuildingBlock: OJICUG_clean_linker_0, # of connection points: 2
#     Edge 17, Type (0, 1), BuildingBlock: OJICUG_clean_linker_0, # of connection points: 2
#     Edge 18, Type (0, 1), BuildingBlock: OJICUG_clean_linker_0, # of connection points: 2
#     Edge 19, Type (0, 1), BuildingBlock: OJICUG_clean_linker_0, # of connection points: 2
#     Edge 20, Type (0, 1), BuildingBlock: OJICUG_clean_linker_0, # of connection points: 2
#     Edge 21, Type (0, 1), BuildingBlock: OJICUG_clean_linker_0, # of connection points: 2
#     Edge 22, Type (0, 1), BuildingBlock: OJICUG_clean_linker_0, # of connection points: 2
#     Edge 23, Type (0, 1), BuildingBlock: OJICUG_clean_linker_0, # of connection points: 2
#     Edge 24, Type (0, 1), BuildingBlock: OJICUG_clean_linker_0, # of connection points: 2
#     Edge 25, Type (0, 1), BuildingBlock: OJICUG_clean_linker_0, # of connection points: 2
#     Edge 26, Type (0, 1), BuildingBlock: OJICUG_clean_linker_0, # of connection points: 2
#     Edge 27, Type (0, 1), BuildingBlock: OJICUG_clean_linker_0, # of connection points: 2
#     Edge 28, Type (0, 1), BuildingBlock: OJICUG_clean_linker_0, # of connection points: 2
#     Edge 29, Type (0, 1), BuildingBlock: OJICUG_clean_linker_0, # of connection points: 2
#     Edge 30, Type (0, 1), BuildingBlock: OJICUG_clean_linker_0, # of connection points: 2
#     Edge 31, Type (0, 1), BuildingBlock: OJICUG_clean_linker_0, # of connection points: 2
#     Edge 32, Type (0, 1), BuildingBlock: OJICUG_clean_linker_0, # of connection points: 2
#     Edge 33, Type (0, 1), BuildingBlock: OJICUG_clean_linker_0, # of connection points: 2
#     Edge 34, Type (0, 1), BuildingBlock: OJICUG_clean_linker_0, # of connection points: 2
#     Edge 35, Type (0, 1), BuildingBlock: OJICUG_clean_linker_0, # of connection points: 2
# Relax obj value: 0.135
# Max RMSD: 0.231
# Mean RMSD: 0.093
data_MOF--net-zzz--node1-VOLQOD_clean_sbu_1--node2-QEWDON_clean_linker_0--edge1-OJICUG_clean_linker_0
_symmetry_space_group_name_H-M    P1
_symmetry_Int_Tables_number       1
_symmetry_cell_setting            triclinic
loop_
_symmetry_equiv_pos_as_xyz
'x, y, z'
_cell_length_a     40.105918
_cell_length_b     39.932496
_cell_length_c     13.38569
_cell_angle_alpha  90.58365
_cell_angle_beta   89.923818
_cell_angle_gamma 90.658398
loop_
_atom_site_label
_atom_site_type_symbol
_atom_site_fract_x
_atom_site_fract_y
_atom_site_fract_z
_atom_type_partial_charge
H0 H 0.8144 0.52464 -0.00981 0.0
C1 C 0.82878 0.53206 0.0552 0.0
C2 C 0.86105 0.51911 0.06684 0.0
C3 C 0.81587 0.55538 0.12527 0.0
H4 H 0.90643 0.52263 0.15283 0.0
C5 C 0.88089 0.53094 0.14586 0.0
C6 C 0.86886 0.55384 0.21575 0.0
C7 C 0.83598 0.56492 0.20811 0.0
C8 C 0.78286 0.57182 0.10862 0.0
H9 H 0.82663 0.58155 0.26575 0.0
C10 C 0.75675 0.55592 0.05382 0.0
C11 C 0.72714 0.57321 0.03264 0.0
C12 C 0.77798 0.60491 0.14333 0.0
H13 H 0.79746 0.61882 0.18181 0.0
C14 C 0.74816 0.62134 0.12622 0.0
H15 H 0.75955 0.53064 0.02538 0.0
C16 C 0.72297 0.60574 0.07114 0.0
H17 H 0.70028 0.61938 0.05712 0.0
H18 H 0.74486 0.64667 0.1538 0.0
H19 H 0.03997 0.79351 -0.01208 0.0
C20 C 0.03378 0.80913 0.0517 0.0
C21 C 0.04858 0.84125 0.06052 0.0
C22 C 1.00923 0.79832 0.12058 0.0
H23 H 0.04889 0.88739 0.14557 0.0
C24 C 0.03875 0.86219 0.13956 0.0
C25 C 1.01364 0.85269 0.20601 0.0
C26 C 1.00002 0.8203 0.19921 0.0
C27 C 0.99076 0.7658 0.10539 0.0
H28 H 0.98127 0.81289 0.25311 0.0
C29 C 1.00612 0.73748 0.06153 0.0
C30 C 0.98805 0.70725 0.0477 0.0
C31 C 0.95683 0.76322 0.13268 0.0
H32 H 0.94344 0.78452 0.16206 0.0
C33 C 0.93918 0.73324 0.12036 0.0
H34 H 0.03209 0.7386 0.03943 0.0
C35 C 0.95463 0.70541 0.07864 0.0
H36 H 0.94011 0.6826 0.06791 0.0
H37 H 0.91318 0.73172 0.14194 0.0
H38 H 0.73918 0.02949 -0.02488 0.0
C39 C 0.72397 0.02554 0.0409 0.0
C40 C 0.69322 0.04224 0.04937 0.0
C41 C 0.73356 1.00169 0.11258 0.0
H42 H 0.64824 0.04647 0.13677 0.0
C43 C 0.67257 0.0351 0.1311 0.0
C44 C 0.68072 1.01053 0.19991 0.0
C45 C 0.71189 0.99528 0.19381 0.0
C46 C 0.76362 0.98026 0.09655 0.0
H47 H 0.71825 0.97703 0.24965 0.0
C48 C 0.7925 0.99215 0.04647 0.0
C49 C 0.81969 0.97071 0.02822 0.0
C50 C 0.76282 0.9466 0.12785 0.0
H51 H 0.74084 0.93567 0.16194 0.0
C52 C 0.79009 0.92592 0.11353 0.0
H53 H 0.79368 0.01768 0.02014 0.0
C54 C 0.81832 0.93781 0.06461 0.0
H55 H 0.83909 0.92101 0.0544 0.0
H56 H 0.78912 0.90029 0.13911 0.0
H57 H 0.50524 0.747 -0.00109 0.0
C58 C 0.50447 0.73258 0.06693 0.0
C59 C 0.4909 0.69994 0.06332 0.0
C60 C 0.51953 0.74523 0.15534 0.0
H61 H 0.48508 0.65393 0.1427 0.0
C62 C 0.49258 0.68005 0.14831 0.0
C63 C 0.50848 0.69129 0.23513 0.0
C64 C 0.52071 0.72427 0.23988 0.0
C65 C 0.5375 0.77836 0.15604 0.0
H66 H 0.53218 0.73293 0.30871 0.0
C67 C 0.52753 0.80487 0.09379 0.0
C68 C 0.54643 0.8348 0.08941 0.0
C69 C 0.56629 0.78303 0.21539 0.0
H70 H 0.5759 0.76318 0.26115 0.0
C71 C 0.58408 0.81317 0.21438 0.0
H72 H 0.50574 0.80206 0.0467 0.0
C73 C 0.57435 0.83884 0.15181 0.0
H74 H 0.58899 0.86181 0.15117 0.0
H75 H 0.60602 0.81634 0.26071 0.0
H76 H 0.25581 0.54522 0.32028 0.0
C77 C 0.23965 0.53288 0.26619 0.0
C78 C 0.20506 0.53767 0.27178 0.0
C79 C 0.25322 0.51273 0.18942 0.0
H80 H 0.1575 0.52525 0.20738 0.0
C81 C 0.18419 0.52159 0.20231 0.0
C82 C 0.19681 0.50017 0.12863 0.0
C83 C 0.23147 0.49615 0.12158 0.0
C84 C 0.28997 0.50973 0.17717 0.0
H85 H 0.24148 0.47981 0.06407 0.0
C86 C 0.31133 0.50562 0.25999 0.0
C87 C 0.34604 0.50233 0.24597 0.0
C88 C 0.3039 0.51116 0.08079 0.0
H89 H 0.28832 0.51499 0.01596 0.0
C90 C 0.33815 0.50827 0.06679 0.0
H91 H 0.30094 0.50412 0.33459 0.0
C92 C 0.35907 0.50387 0.14841 0.0
H93 H 0.38565 0.50219 0.13511 0.0
H94 H 0.34857 0.50963 -0.00773 0.0
H95 H 0.01964 0.24269 0.34438 0.0
C96 C 0.0343 0.22466 0.30278 0.0
C97 C 0.03654 0.1921 0.33842 0.0
C98 C 0.04916 0.23326 0.21079 0.0
H99 H 0.05623 0.14321 0.31467 0.0
C100 C 0.05443 0.16826 0.28455 0.0
C101 C 0.06429 0.17429 0.18605 0.0
C102 C 0.06321 0.20747 0.15085 0.0
C103 C 0.04665 0.26841 0.17494 0.0
H104 H 0.07176 0.21279 0.07593 0.0
C105 C 0.04831 0.29544 0.24368 0.0
C106 C 0.0422 0.32839 0.21323 0.0
C107 C 0.04034 0.27524 0.07383 0.0
H108 H 0.03827 0.25523 0.01898 0.0
C109 C 0.03524 0.30809 0.04277 0.0
H110 H 0.05331 0.2908 0.32183 0.0
C111 C 0.03576 0.33448 0.11202 0.0
H112 H 0.03111 0.35967 0.08659 0.0
H113 H 0.03014 0.31303 0.96494 0.0
H114 H 0.2948 1.01383 0.31559 0.0
C115 C 0.31161 0.02816 0.26883 0.0
C116 C 0.34601 0.02269 0.2769 0.0
C117 C 0.29923 0.05076 0.19746 0.0
H118 H 0.39467 0.03519 0.21996 0.0
C119 C 0.36818 0.04003 0.21467 0.0
C120 C 0.35681 0.06222 0.14289 0.0
C121 C 0.32244 0.06813 0.13623 0.0
C122 C 0.26238 0.05475 0.1817 0.0
H123 H 0.31406 0.08595 0.08162 0.0
C124 C 0.23889 0.0496 0.25956 0.0
C125 C 0.20429 0.0525 0.24179 0.0
C126 C 0.25028 0.06285 0.08612 0.0
H127 H 0.26678 0.06541 0.02265 0.0
C128 C 0.21639 0.06722 0.06956 0.0
H129 H 0.24729 0.04289 0.33335 0.0
C130 C 0.19361 0.06237 0.14651 0.0
H131 H 0.16745 0.06613 0.13079 0.0
H132 H 0.20766 0.07398 -0.00395 0.0
H133 H 0.54197 0.29753 0.31613 0.0
C134 C 0.52783 0.31368 0.26774 0.0
C135 C 0.53148 0.34854 0.27725 0.0
C136 C 0.5077 0.29984 0.19107 0.0
H137 H 0.51681 0.39639 0.22128 0.0
C138 C 0.51361 0.36946 0.21394 0.0
C139 C 0.4938 0.35643 0.13693 0.0
C140 C 0.49072 0.32151 0.1261 0.0
C141 C 0.5071 0.26306 0.17185 0.0
H142 H 0.47586 0.31129 0.06524 0.0
C143 C 0.50426 0.23991 0.25058 0.0
C144 C 0.50409 0.20512 0.23061 0.0
C145 C 0.51019 0.25095 0.07327 0.0
H146 H 0.51317 0.26801 0.01141 0.0
C147 C 0.51031 0.21668 0.05329 0.0
H148 H 0.50148 0.24897 0.32667 0.0
C149 C 0.50737 0.19392 0.131 0.0
H150 H 0.50821 0.16745 0.11296 0.0
H151 H 0.51301 0.20769 -0.02283 0.0
O152 O 0.10393 0.02447 0.62436 0.0
Zn153 Zn 0.07112 1.01521 0.7384 0.0
O154 O 0.02422 1.01614 0.68885 0.0
Zn155 Zn 0.99879 0.04993 0.76029 0.0
Zn156 Zn 0.02269 0.02473 0.54625 0.0
Zn157 Zn 1.00131 0.97427 0.70969 0.0
O158 O 0.95439 0.03327 0.81604 0.0
O159 O 0.95832 0.97887 0.78482 0.0
O160 O 0.07831 0.05118 0.84778 0.0
O161 O 0.02602 0.06782 0.87179 0.0
O162 O 0.99189 0.08957 0.67316 0.0
O163 O 1.00126 0.06923 0.52045 0.0
O164 O 1.00236 0.98642 0.46499 0.0
O165 O 0.08117 0.96837 0.7946 0.0
O166 O 0.99156 0.94984 0.58386 0.0
O167 O 0.03144 0.94371 0.77705 0.0
C168 C 0.09894 0.02861 0.53116 0.0
C169 C 0.94241 1.00364 0.82067 0.0
C170 C 0.99259 0.09301 0.57894 0.0
C171 C 0.05676 0.06857 0.89491 0.0
C172 C 0.99282 0.95736 0.49223 0.0
C173 C 0.0619 0.94279 0.8024 0.0
O174 O 0.06958 0.02878 0.495 0.0
O175 O 0.51395 0.1026 0.6115 0.0
Zn176 Zn 0.51982 0.06881 0.72409 0.0
O177 O 0.5149 0.02222 0.66941 0.0
Zn178 Zn 0.47796 0.99794 0.73214 0.0
Zn179 Zn 0.50786 0.02245 0.52613 0.0
Zn180 Zn 0.55497 0.9971 0.69147 0.0
O181 O 0.49304 0.95715 0.81047 0.0
O182 O 0.54719 0.95708 0.77673 0.0
O183 O 0.48288 0.07791 0.8279 0.0
O184 O 0.4548 0.02939 0.82345 0.0
O185 O 0.44248 0.98457 0.63252 0.0
O186 O 0.46615 0.99746 0.48768 0.0
O187 O 0.54748 1.00516 0.44932 0.0
O188 O 0.56665 0.07661 0.78476 0.0
O189 O 0.57922 0.98412 0.5677 0.0
O190 O 0.58794 0.02629 0.75705 0.0
C191 C 0.50574 0.09868 0.51994 0.0
C192 C 0.52183 0.94425 0.8196 0.0
C193 C 0.44191 0.98532 0.53759 0.0
C194 C 0.45836 0.05936 0.85492 0.0
C195 C 0.57398 0.99058 0.47657 0.0
C196 C 0.59103 0.05632 0.78766 0.0
O197 O 0.50185 0.06963 0.48134 0.0
O198 O 0.44915 0.51524 0.62557 0.0
Zn199 Zn 0.48535 0.52188 0.73226 0.0
O200 O 0.53041 0.51816 0.67261 0.0
Zn201 Zn 0.55722 0.48362 0.73293 0.0
Zn202 Zn 0.52533 0.50881 0.53256 0.0
Zn203 Zn 0.55552 0.55959 0.6827 0.0
O204 O 0.59944 0.50176 0.80298 0.0
O205 O 0.59925 0.55435 0.75124 0.0
O206 O 0.47863 0.48417 0.83422 0.0
O207 O 0.52793 0.45882 0.82653 0.0
O208 O 0.56956 0.44877 0.63039 0.0
O209 O 0.55537 0.47185 0.48631 0.0
O210 O 0.53005 0.55152 0.45658 0.0
O211 O 0.4794 0.56875 0.79347 0.0
O212 O 0.56127 0.58398 0.55452 0.0
O213 O 0.52876 0.59183 0.75931 0.0
C214 C 0.45079 0.50147 0.53928 0.0
C215 C 0.61312 0.53075 0.79826 0.0
C216 C 0.56852 0.44821 0.53541 0.0
C217 C 0.49816 0.46057 0.85903 0.0
C218 C 0.54531 0.57906 0.47392 0.0
C219 C 0.49951 0.59383 0.79509 0.0
O220 O 0.47874 0.49417 0.50026 0.0
O221 O 0.99585 0.56716 0.52172 0.0
Zn222 Zn 0.03466 0.55798 0.61772 0.0
O223 O 0.03168 0.51178 0.67214 0.0
Zn224 Zn 0.02695 0.51272 0.81708 0.0
Zn225 Zn 0.99374 0.48792 0.61429 0.0
Zn226 Zn 0.07136 0.48646 0.63939 0.0
O227 O 0.0666 0.49215 0.88551 0.0
O228 O 0.0966 0.47204 0.75966 0.0
O229 O 0.0305 0.59193 0.7308 0.0
O230 O 0.02412 0.56065 0.86595 0.0
O231 O 0.98388 0.49049 0.85904 0.0
O232 O 0.96032 0.47375 0.71676 0.0
O233 O 1.00734 0.44921 0.52541 0.0
O234 O 0.07986 0.56618 0.55025 0.0
O235 O 0.06217 0.44711 0.54639 0.0
O236 O 0.10358 0.51685 0.57394 0.0
C237 C 0.97036 0.54885 0.50174 0.0
C238 C 0.0923 0.47713 0.85257 0.0
C239 C 0.95969 0.47701 0.81121 0.0
C240 C 0.02607 0.58926 0.82477 0.0
C241 C 0.03542 0.43595 0.50623 0.0
C242 C 0.10497 0.54691 0.54399 0.0
O243 O 0.96771 0.51907 0.53309 0.0
C244 C 0.18346 0.05293 0.42128 0.0
C245 C 0.17881 0.04437 0.31978 0.0
H246 H 0.16189 0.05449 0.56863 0.0
C247 C 0.14866 0.0286 0.29143 0.0
H248 H 0.20627 0.06516 0.44598 0.0
C249 C 0.12326 0.02323 0.36068 0.0
C250 C 0.12736 0.03272 0.4612 0.0
H251 H 0.14445 0.02051 0.21497 0.0
H252 H 0.10021 1.0116 0.33513 0.0
C253 C 0.15802 0.04694 0.49153 0.0
C254 C 0.51838 0.18425 0.40295 0.0
C255 C 0.50109 0.18006 0.31209 0.0
H256 H 0.5333 0.16182 0.54092 0.0
C257 C 0.48259 0.15035 0.29616 0.0
H258 H 0.53296 0.20676 0.41757 0.0
C259 C 0.4832 0.12461 0.36572 0.0
C260 C 0.50191 0.12799 0.45401 0.0
H261 H 0.4682 0.14657 0.22846 0.0
H262 H 0.46952 0.10167 0.34912 0.0
C263 C 0.51867 0.15848 0.47353 0.0
C264 C 0.39608 0.47567 0.32202 0.0
C265 C 0.36928 0.49787 0.33144 0.0
H266 H 0.44244 0.45907 0.38091 0.0
C267 C 0.36702 0.51784 0.4184 0.0
H268 H 0.39817 0.45934 0.25722 0.0
C269 C 0.39242 0.51742 0.49051 0.0
C270 C 0.42053 0.49711 0.47654 0.0
H271 H 0.3467 0.53522 0.42786 0.0
H272 H 0.39104 0.53448 0.55375 0.0
C273 C 0.4214 0.47539 0.39331 0.0
C274 C 0.06664 0.36099 0.35763 0.0
C275 C 0.04083 0.35605 0.28795 0.0
H276 H 0.08537 0.39034 0.48077 0.0
C277 C 1.01314 0.37725 0.29138 0.0
H278 H 0.08828 0.34501 0.35643 0.0
C279 C 1.01116 0.40277 0.36338 0.0
C280 C 0.03711 0.40802 0.43255 0.0
H281 H 0.99275 0.37378 0.23915 0.0
H282 H 0.98946 0.41867 0.3639 0.0
C283 C 0.06496 0.38694 0.4286 0.0
C284 C 0.86504 1.0127 -0.0159 0.0
C285 C 0.8493 0.98141 0.96871 0.0
H286 H 0.90706 0.04446 0.9494 0.0
C287 C 0.86318 0.95896 0.89902 0.0
H288 H 0.85498 0.03053 0.03734 0.0
C289 C 0.89293 0.96665 0.85015 0.0
C290 C 0.90955 0.99725 0.86834 0.0
H291 H 0.85126 0.93501 0.88322 0.0
H292 H 0.90309 0.94832 0.79861 0.0
C293 C 0.89491 0.0206 0.9341 0.0
C294 C 0.50637 0.87359 0.00405 0.0
C295 C 0.53881 0.86124 0.01591 0.0
H296 H 0.47537 0.90982 0.93295 0.0
C297 C 0.56481 0.87504 0.95877 0.0
H298 H 0.48587 0.86337 0.04726 0.0
C299 C 0.55891 0.90132 0.89379 0.0
C300 C 0.5268 0.91467 0.88402 0.0
H301 H 0.58995 0.86562 0.96482 0.0
H302 H 0.57985 0.9115 0.85233 0.0
C303 C 0.50043 0.90021 0.93889 0.0
C304 C 0.6895 0.57872 0.88636 0.0
C305 C 0.70102 0.55909 0.9652 0.0
H306 H 0.65337 0.58502 0.77187 0.0
C307 C 0.68551 0.52793 -0.0171 0.0
H308 H 0.70133 0.60258 0.86992 0.0
C309 C 0.6576 0.51768 0.92621 0.0
C310 C 0.64495 0.53845 0.85103 0.0
H311 H 0.69395 0.51233 0.04333 0.0
H312 H 0.64518 0.49425 0.94392 0.0
C313 C 0.66193 0.56859 0.83017 0.0
C314 C 1.01735 0.68068 0.90189 0.0
C315 C 1.00291 0.67773 -0.00292 0.0
H316 H 0.03586 0.65501 0.77212 0.0
C317 C 0.99907 0.64574 0.03859 0.0
H318 H 0.02034 0.70504 0.86792 0.0
C319 C 1.00804 0.61716 -0.01569 0.0
C320 C 0.02069 0.61985 0.88658 0.0
H321 H 0.98811 0.64278 0.11206 0.0
H322 H 1.00373 0.59288 0.0176 0.0
C323 C 0.02598 0.652 0.84687 0.0
C324 C 0.02687 0.17656 0.51475 0.0
C325 C 1.01455 0.17934 0.41747 0.0
H326 H 0.02778 0.14658 0.64623 0.0
C327 C 0.98746 0.15908 0.38689 0.0
H328 H 0.04808 0.19161 0.53889 0.0
C329 C 0.97685 0.13248 0.44601 0.0
C330 C 0.99231 0.12689 0.53788 0.0
H331 H 0.97794 0.16071 0.31135 0.0
H332 H 0.95918 0.11437 0.41554 0.0
C333 C 1.01533 0.15065 0.57564 0.0
C334 C 0.38534 0.97755 0.32001 0.0
C335 C 0.36042 0.99986 0.3512 0.0
H336 H 0.4318 0.95505 0.3573 0.0
C337 C 0.35711 1.00735 0.45329 0.0
H338 H 0.38803 0.97105 0.24162 0.0
C339 C 0.3818 0.99741 0.5202 0.0
C340 C 0.41008 0.98046 0.48468 0.0
H341 H 0.33807 0.02443 0.47908 0.0
H342 H 0.38105 1.00707 0.5961 0.0
C343 C 0.41036 0.96833 0.3861 0.0
C344 C 0.54729 0.36176 0.45313 0.0
C345 C 0.55402 0.36473 0.35086 0.0
H346 H 0.54828 0.38663 0.59539 0.0
C347 C 0.57553 0.39049 0.31826 0.0
H348 H 0.53085 0.34208 0.4799 0.0
C349 C 0.58467 0.41646 0.38331 0.0
C350 C 0.5734 0.41624 0.48233 0.0
H351 H 0.58144 0.39292 0.23961 0.0
H352 H 0.59727 0.43835 0.35358 0.0
C353 C 0.55729 0.38735 0.51907 0.0
C354 C 0.16155 0.57571 0.33958 0.0
C355 C 0.18882 0.55461 0.3573 0.0
H356 H 0.11246 0.58976 0.38666 0.0
C357 C 0.19234 0.54038 0.45179 0.0
H358 H 0.15857 0.58727 0.26729 0.0
C359 C 0.16598 0.54171 0.51966 0.0
C360 C 0.13603 0.5575 0.49389 0.0
H361 H 0.21315 0.5242 0.46768 0.0
H362 H 0.16762 0.52718 0.58741 0.0
C363 C 0.13506 0.57701 0.40758 0.0
C364 C 0.09022 0.88348 -0.00299 0.0
C365 C 0.06724 0.85715 -0.02319 0.0
H366 H 0.10603 0.93314 0.95676 0.0
C367 C 0.0537 0.85453 0.88048 0.0
H368 H 0.10225 0.88541 0.06929 0.0
C369 C 0.05673 0.88134 0.81528 0.0
C370 C 0.07308 0.91107 0.8459 0.0
H371 H 0.03657 0.83439 0.86064 0.0
H372 H 0.04245 0.88051 0.74656 0.0
C373 C 0.09256 0.91084 0.93257 0.0
C374 C 0.65315 0.08417 -0.01925 0.0
C375 C 0.67762 0.05957 0.96336 0.0
H376 H 0.60482 0.10196 0.93871 0.0
C377 C 0.67846 0.04375 0.86937 0.0
H378 H 0.65262 0.09788 0.05099 0.0
C379 C 0.65164 0.04684 0.8043 0.0
C380 C 0.62353 0.06552 0.83254 0.0
H381 H 0.69712 0.02522 0.85162 0.0
H382 H 0.65115 0.03128 0.73747 0.0
C383 C 0.62573 0.08664 0.91649 0.0
C384 C 0.50843 0.68185 0.89445 0.0
C385 C 0.48352 0.68224 0.96787 0.0
H386 H 0.53294 0.65328 0.78185 0.0
C387 C 0.45842 0.65719 0.96504 0.0
H388 H 0.52796 0.70081 0.89373 0.0
C389 C 0.46197 0.62897 0.90326 0.0
C390 C 0.49013 0.62613 0.8417 0.0
H391 H 0.43852 0.65728 0.01989 0.0
H392 H 0.44435 0.60837 0.91016 0.0
C393 C 0.51169 0.65403 0.83185 0.0
C394 C 0.87578 0.50479 0.88997 0.0
C395 C 0.87689 0.49671 -0.0083 0.0
H396 H 0.90157 0.50318 0.75013 0.0
C397 C 0.90006 0.47277 0.02361 0.0
H398 H 0.85821 0.52294 0.86273 0.0
C399 C 0.92577 0.46262 0.96028 0.0
C400 C 0.92741 0.47474 0.8627 0.0
H401 H 0.90079 0.4652 0.10107 0.0
H402 H 0.94593 0.44797 -0.00975 0.0
C403 C 0.90076 0.49347 0.82543 0.0
C404 C 0.08968 0.14466 0.03454 0.0
C405 C 0.06798 0.14475 0.11742 0.0
H406 H 0.10405 0.11926 0.89843 0.0
C407 C 0.0467 0.11678 0.13119 0.0
H408 H 0.10635 0.16569 0.02146 0.0
C409 C 0.04607 0.09037 0.06323 0.0
C410 C 0.06617 0.0911 -0.02199 0.0
H411 H 0.02864 0.11595 0.19131 0.0
H412 H 0.02797 0.07033 0.07376 0.0
C413 C 0.08882 0.11788 0.96517 0.0
C414 C 0.37316 0.06736 0.96436 0.0
C415 C 0.38069 0.07383 0.06509 0.0
H416 H 0.39257 0.058 0.81801 0.0
C417 C 0.41356 0.08358 0.09072 0.0
H418 H 0.34826 0.0596 0.94211 0.0
C419 C 0.43908 0.08274 0.01901 0.0
C420 C 0.43194 0.07206 0.92122 0.0
H421 H 0.42002 0.08898 0.16783 0.0
H422 H 0.46463 0.08722 0.04221 0.0
C423 C 0.3986 0.06624 0.89332 0.0
C424 C 0.49302 0.37364 0.95941 0.0
C425 C 0.48285 0.37975 0.05809 0.0
H426 H 0.50575 0.39511 0.81871 0.0
C427 C 0.47038 0.41164 0.08365 0.0
H428 H 0.50291 0.34953 0.9374 0.0
C429 C 0.47209 0.43796 0.01522 0.0
C430 C 0.48641 0.43256 0.92099 0.0
H431 H 0.46215 0.41693 0.15926 0.0
H432 H 0.46517 0.46294 0.03906 0.0
C433 C 0.49501 0.39988 0.89177 0.0
C434 C 0.17929 0.48472 0.95404 0.0
C435 C 0.17301 0.48409 0.05719 0.0
H436 H 0.1583 0.48205 0.80736 0.0
C437 C 0.14135 0.4733 0.09068 0.0
H438 H 0.20335 0.49281 0.92572 0.0
C439 C 0.11528 0.46813 0.02314 0.0
C440 C 0.12072 0.47239 0.92066 0.0
H441 H 0.13603 0.47142 0.1698 0.0
H442 H 0.09047 0.46288 0.05149 0.0
C443 C 0.15338 0.47861 0.88623 0.0
C444 C 0.99673 0.87061 0.37895 0.0
C445 C 1.00079 0.87808 0.27762 0.0
H446 H 0.9902 0.88999 0.52679 0.0
C447 C 0.99571 0.91117 0.24583 0.0
H448 H 1.00024 0.84535 0.40544 0.0
C449 C 0.99045 0.93691 0.31512 0.0
C450 C 0.98955 0.92996 0.41751 0.0
H451 H 0.99759 0.91748 0.16747 0.0
H452 H 0.98895 0.96241 0.28882 0.0
C453 C 0.99099 0.89631 0.44831 0.0
C454 C 0.62174 0.99367 0.23529 0.0
C455 C 0.65457 0.99873 0.27012 0.0
H456 H 0.57033 0.98686 0.27356 0.0
C457 C 0.66123 0.9948 0.37207 0.0
H458 H 0.61604 0.99537 0.15641 0.0
C459 C 0.63502 0.98902 0.43903 0.0
C460 C 0.60178 0.98739 0.40491 0.0
H461 H 0.68629 0.99825 0.40073 0.0
H462 H 0.64059 0.98836 0.51815 0.0
C463 C 0.59558 0.98843 0.30206 0.0
C464 C 0.4937 0.64055 0.33349 0.0
C465 C 0.51693 0.66599 0.31113 0.0
H466 H 0.48514 0.5925 0.39734 0.0
C467 C 0.54985 0.66321 0.34631 0.0
H468 H 0.46804 0.64221 0.30894 0.0
C469 C 0.55956 0.63475 0.39876 0.0
C470 C 0.53675 0.60836 0.41401 0.0
H471 H 0.56843 0.68221 0.3293 0.0
H472 H 0.58501 0.63296 0.42506 0.0
C473 C 0.50363 0.61184 0.38259 0.0
C474 C 0.88431 0.5532 0.39506 0.0
C475 C 0.8913 0.56415 0.29825 0.0
H476 H 0.90461 0.54009 0.53684 0.0
C477 C 0.92327 0.57719 0.27641 0.0
H478 H 0.86 0.54281 0.41325 0.0
C479 C 0.94887 0.57581 0.34725 0.0
C480 C 0.94273 0.56098 0.43995 0.0
H481 H 0.92916 0.58563 0.20168 0.0
H482 H 0.97395 0.58319 0.326 0.0
C483 C 0.90991 0.55144 0.46524 0.0
loop_
_geom_bond_atom_site_label_1
_geom_bond_atom_site_label_2
_geom_bond_distance
_geom_bond_site_symmetry_2
_ccdc_geom_bond_type
H0 C1 0.949 . S
C1 H0 0.949 . S
C1 C2 1.395 . S
C1 C3 1.391 1_556 S
C2 C1 1.395 . S
C2 C5 1.390 1_556 S
C3 C1 1.391 1_554 S
C3 C7 1.387 . S
C3 C8 1.491 . S
H4 C5 0.950 . S
C5 C2 1.390 1_554 S
C5 H4 0.950 . S
C5 C6 1.378 . S
C6 C5 1.378 . S
C6 C7 1.409 . S
C7 C3 1.387 . S
C7 C6 1.409 . S
C7 H9 0.951 . S
C8 C3 1.491 . S
C8 C10 1.382 1_554 S
C8 C12 1.404 . S
H9 C7 0.951 . S
C10 C8 1.382 1_556 S
C10 C11 1.390 . S
C10 H15 0.949 . S
C11 C10 1.390 . S
C11 C16 1.399 1_556 S
C12 C8 1.404 . S
C12 H13 0.950 . S
C12 C14 1.375 . S
H13 C12 0.950 . S
C14 C12 1.375 . S
C14 C16 1.382 . S
C14 H18 0.950 . S
H15 C10 0.949 . S
C16 C11 1.399 1_554 S
C16 C14 1.382 . S
C16 H17 0.952 . S
H17 C16 0.952 . S
H18 C14 0.950 . S
H19 C20 0.949 1_556 S
C20 H19 0.949 1_554 S
C20 C21 1.395 1_655 S
C20 C22 1.391 . S
C21 C20 1.395 1_455 S
C21 C24 1.390 . S
C22 C20 1.391 . S
C22 C26 1.387 . S
C22 C27 1.491 . S
H23 C24 0.950 . S
C24 C21 1.390 . S
C24 H23 0.950 . S
C24 C25 1.380 . S
C25 C24 1.380 . S
C25 C26 1.406 1_455 S
C26 C22 1.387 . S
C26 C25 1.406 1_655 S
C26 H28 0.951 . S
C27 C22 1.491 . S
C27 C29 1.382 . S
C27 C31 1.404 . S
H28 C26 0.951 . S
C29 C27 1.382 . S
C29 C30 1.390 . S
C29 H34 0.949 1_655 S
C30 C29 1.390 . S
C30 C35 1.399 . S
C31 C27 1.404 . S
C31 H32 0.950 . S
C31 C33 1.375 . S
H32 C31 0.950 . S
C33 C31 1.375 . S
C33 C35 1.382 . S
C33 H37 0.950 . S
H34 C29 0.949 1_455 S
C35 C30 1.399 . S
C35 C33 1.382 . S
C35 H36 0.952 . S
H36 C35 0.952 . S
H37 C33 0.950 . S
H38 C39 0.949 1_556 S
C39 H38 0.949 1_554 S
C39 C40 1.392 1_565 S
C39 C41 1.391 . S
C40 C39 1.392 1_545 S
C40 C43 1.391 . S
C41 C39 1.391 . S
C41 C45 1.387 . S
C41 C46 1.491 . S
H42 C43 0.950 . S
C43 C40 1.391 . S
C43 H42 0.950 . S
C43 C44 1.378 . S
C44 C43 1.378 . S
C44 C45 1.410 1_545 S
C45 C41 1.387 . S
C45 C44 1.410 1_565 S
C45 H47 0.951 . S
C46 C41 1.491 . S
C46 C48 1.382 . S
C46 C50 1.404 . S
H47 C45 0.951 . S
C48 C46 1.382 . S
C48 C49 1.390 . S
C48 H53 0.949 1_564 S
C49 C48 1.390 . S
C49 C54 1.399 . S
C50 C46 1.404 . S
C50 H51 0.950 . S
C50 C52 1.375 . S
H51 C50 0.950 . S
C52 C50 1.375 . S
C52 C54 1.382 . S
C52 H56 0.950 . S
H53 C48 0.949 1_546 S
C54 C49 1.399 . S
C54 C52 1.382 . S
C54 H55 0.952 . S
H55 C54 0.952 . S
H56 C52 0.950 . S
H57 C58 0.949 . S
C58 H57 0.949 . S
C58 C59 1.395 . S
C58 C60 1.391 1_556 S
C59 C58 1.395 . S
C59 C62 1.390 1_556 S
C60 C58 1.391 1_554 S
C60 C64 1.387 . S
C60 C65 1.491 . S
H61 C62 0.950 . S
C62 C59 1.390 1_554 S
C62 H61 0.950 . S
C62 C63 1.378 . S
C63 C62 1.378 . S
C63 C64 1.409 . S
C64 C60 1.387 . S
C64 C63 1.409 . S
C64 H66 0.951 . S
C65 C60 1.491 . S
C65 C67 1.382 1_554 S
C65 C69 1.404 . S
H66 C64 0.951 . S
C67 C65 1.382 1_556 S
C67 C68 1.390 . S
C67 H72 0.949 . S
C68 C67 1.390 . S
C68 C73 1.399 1_556 S
C69 C65 1.404 . S
C69 H70 0.950 . S
C69 C71 1.375 . S
H70 C69 0.950 . S
C71 C69 1.375 . S
C71 C73 1.382 . S
C71 H75 0.950 . S
H72 C67 0.949 . S
C73 C68 1.399 1_554 S
C73 C71 1.382 . S
C73 H74 0.952 . S
H74 C73 0.952 . S
H75 C71 0.950 . S
H76 C77 0.949 . S
C77 H76 0.949 . S
C77 C78 1.395 . S
C77 C79 1.391 . S
C78 C77 1.395 . S
C78 C81 1.390 . S
C79 C77 1.391 . S
C79 C83 1.387 . S
C79 C84 1.491 . S
H80 C81 0.950 . S
C81 C78 1.390 . S
C81 H80 0.950 . S
C81 C82 1.378 . S
C82 C81 1.378 . S
C82 C83 1.409 . S
C83 C79 1.387 . S
C83 C82 1.409 . S
C83 H85 0.951 . S
C84 C79 1.491 . S
C84 C86 1.382 . S
C84 C88 1.404 . S
H85 C83 0.951 . S
C86 C84 1.382 . S
C86 C87 1.390 . S
C86 H91 0.949 . S
C87 C86 1.390 . S
C87 C92 1.399 . S
C88 C84 1.404 . S
C88 H89 0.950 . S
C88 C90 1.375 . S
H89 C88 0.950 . S
C90 C88 1.375 . S
C90 C92 1.382 . S
C90 H94 0.950 . S
H91 C86 0.949 . S
C92 C87 1.399 . S
C92 C90 1.382 . S
C92 H93 0.952 . S
H93 C92 0.952 . S
H94 C90 0.950 . S
H95 C96 0.949 . S
C96 H95 0.949 . S
C96 C97 1.395 . S
C96 C98 1.391 . S
C97 C96 1.395 . S
C97 C100 1.390 . S
C98 C96 1.391 . S
C98 C102 1.387 . S
C98 C103 1.491 . S
H99 C100 0.950 . S
C100 C97 1.390 . S
C100 H99 0.950 . S
C100 C101 1.378 . S
C101 C100 1.378 . S
C101 C102 1.409 . S
C102 C98 1.387 . S
C102 C101 1.409 . S
C102 H104 0.951 . S
C103 C98 1.491 . S
C103 C105 1.382 . S
C103 C107 1.404 1_455 S
H104 C102 0.951 . S
C105 C103 1.382 . S
C105 C106 1.390 . S
C105 H110 0.949 . S
C106 C105 1.390 . S
C106 C111 1.399 . S
C107 C103 1.404 1_655 S
C107 H108 0.950 . S
C107 C109 1.375 . S
H108 C107 0.950 . S
C109 C107 1.375 . S
C109 C111 1.382 1_655 S
C109 H113 0.950 . S
H110 C105 0.949 . S
C111 C106 1.399 . S
C111 C109 1.382 1_455 S
C111 H112 0.952 1_455 S
H112 C111 0.952 1_655 S
H113 C109 0.950 . S
H114 C115 0.949 . S
C115 H114 0.949 . S
C115 C116 1.395 . S
C115 C117 1.391 . S
C116 C115 1.395 . S
C116 C119 1.390 . S
C117 C115 1.391 . S
C117 C121 1.387 . S
C117 C122 1.491 1_545 S
H118 C119 0.950 . S
C119 C116 1.390 . S
C119 H118 0.950 . S
C119 C120 1.378 . S
C120 C119 1.378 . S
C120 C121 1.409 . S
C121 C117 1.387 . S
C121 C120 1.409 . S
C121 H123 0.951 . S
C122 C117 1.491 1_565 S
C122 C124 1.382 1_565 S
C122 C126 1.404 . S
H123 C121 0.951 . S
C124 C122 1.382 1_545 S
C124 C125 1.397 . S
C124 H129 0.949 . S
C125 C124 1.397 . S
C125 C130 1.378 1_545 S
C126 C122 1.404 . S
C126 H127 0.950 . S
C126 C128 1.375 . S
H127 C126 0.950 . S
C128 C126 1.375 . S
C128 C130 1.382 . S
C128 H132 0.950 . S
H129 C124 0.949 . S
C130 C125 1.378 1_565 S
C130 C128 1.382 . S
C130 H131 0.952 . S
H131 C130 0.952 . S
H132 C128 0.950 . S
H133 C134 0.949 . S
C134 H133 0.949 . S
C134 C135 1.395 . S
C134 C136 1.391 . S
C135 C134 1.395 . S
C135 C138 1.390 . S
C136 C134 1.391 . S
C136 C140 1.387 . S
C136 C141 1.491 . S
H137 C138 0.950 . S
C138 C135 1.390 . S
C138 H137 0.950 . S
C138 C139 1.378 . S
C139 C138 1.378 . S
C139 C140 1.409 . S
C140 C136 1.387 . S
C140 C139 1.409 . S
C140 H142 0.951 . S
C141 C136 1.491 . S
C141 C143 1.382 . S
C141 C145 1.404 . S
H142 C140 0.951 . S
C143 C141 1.382 . S
C143 C144 1.390 . S
C143 H148 0.949 . S
C144 C143 1.390 . S
C144 C149 1.399 . S
C145 C141 1.404 . S
C145 H146 0.950 . S
C145 C147 1.375 . S
H146 C145 0.950 . S
C147 C145 1.375 . S
C147 C149 1.382 . S
C147 H151 0.950 . S
H148 C143 0.949 . S
C149 C144 1.399 . S
C149 C147 1.382 . S
C149 H150 0.952 . S
H150 C149 0.952 . S
H151 C147 0.950 . S
O152 Zn153 1.955 . S
O152 C168 1.225 1_545 S
Zn153 O152 1.955 . S
Zn153 O154 1.948 1_545 S
Zn153 O160 1.938 . S
Zn153 O165 1.901 1_545 S
O154 Zn153 1.948 1_565 S
O154 Zn155 1.900 1_465 S
O154 Zn156 1.952 . S
O154 Zn157 1.967 1_455 S
Zn155 O154 1.900 1_645 S
Zn155 O158 1.933 . S
Zn155 O161 1.941 1_655 S
Zn155 O162 1.965 . S
Zn156 O154 1.952 . S
Zn156 O163 1.938 1_565 S
Zn156 O164 1.906 . S
Zn156 O174 1.953 . S
Zn157 O154 1.967 1_655 S
Zn157 O159 1.932 . S
Zn157 O166 1.977 . S
Zn157 O167 1.910 1_655 S
O158 Zn155 1.933 . S
O158 C169 1.226 . S
O159 Zn157 1.932 . S
O159 C169 1.307 1_565 S
O160 Zn153 1.938 . S
O160 C171 1.253 . S
O161 Zn155 1.941 1_455 S
O161 C171 1.283 . S
O162 Zn155 1.965 . S
O162 C170 1.303 1_655 S
O163 Zn156 1.938 1_545 S
O163 C170 1.247 . S
O164 Zn156 1.906 . S
O164 C172 1.304 1_455 S
O165 Zn153 1.901 1_565 S
O165 C173 1.311 . S
O166 Zn157 1.977 . S
O166 C172 1.272 . S
O167 Zn157 1.910 1_455 S
O167 C173 1.231 . S
C168 O152 1.225 1_565 S
C168 O174 1.298 . S
C169 O158 1.226 . S
C169 O159 1.307 1_545 S
C170 O162 1.303 1_455 S
C170 O163 1.247 . S
C171 O160 1.253 . S
C171 O161 1.283 . S
C172 O164 1.304 1_655 S
C172 O166 1.272 . S
C173 O165 1.311 . S
C173 O167 1.231 . S
O174 Zn156 1.953 . S
O174 C168 1.298 . S
O175 Zn176 1.953 . S
O175 C191 1.225 . S
Zn176 O175 1.953 . S
Zn176 O177 1.949 . S
Zn176 O183 1.919 . S
Zn176 O188 1.924 . S
O177 Zn176 1.949 . S
O177 Zn178 1.923 1_545 S
O177 Zn179 1.950 . S
O177 Zn180 1.945 1_545 S
Zn178 O177 1.923 1_565 S
Zn178 O181 1.933 . S
Zn178 O184 1.941 . S
Zn178 O185 1.965 . S
Zn179 O177 1.950 . S
Zn179 O186 1.938 . S
Zn179 O187 1.906 . S
Zn179 O197 1.953 . S
Zn180 O177 1.945 1_565 S
Zn180 O182 1.932 . S
Zn180 O189 1.977 . S
Zn180 O190 1.910 1_565 S
O181 Zn178 1.933 . S
O181 C192 1.226 . S
O182 Zn180 1.932 . S
O182 C192 1.307 . S
O183 Zn176 1.919 . S
O183 C194 1.253 . S
O184 Zn178 1.941 . S
O184 C194 1.283 1_565 S
O185 Zn178 1.965 . S
O185 C193 1.303 1_565 S
O186 Zn179 1.938 . S
O186 C193 1.247 . S
O187 Zn179 1.906 . S
O187 C195 1.304 1_545 S
O188 Zn176 1.924 . S
O188 C196 1.311 . S
O189 Zn180 1.977 . S
O189 C195 1.272 . S
O190 Zn180 1.910 1_545 S
O190 C196 1.231 . S
C191 O175 1.225 . S
C191 O197 1.298 . S
C192 O181 1.226 . S
C192 O182 1.307 . S
C193 O185 1.303 1_545 S
C193 O186 1.247 . S
C194 O183 1.253 . S
C194 O184 1.283 1_545 S
C195 O187 1.304 1_565 S
C195 O189 1.272 . S
C196 O188 1.311 . S
C196 O190 1.231 . S
O197 Zn179 1.953 . S
O197 C191 1.298 . S
O198 Zn199 1.953 . S
O198 C214 1.225 . S
Zn199 O198 1.953 . S
Zn199 O200 1.949 . S
Zn199 O206 1.919 . S
Zn199 O211 1.924 . S
O200 Zn199 1.949 . S
O200 Zn201 1.923 . S
O200 Zn202 1.950 . S
O200 Zn203 1.945 . S
Zn201 O200 1.923 . S
Zn201 O204 1.933 . S
Zn201 O207 1.941 . S
Zn201 O208 1.965 . S
Zn202 O200 1.950 . S
Zn202 O209 1.938 . S
Zn202 O210 1.906 . S
Zn202 O220 1.953 . S
Zn203 O200 1.945 . S
Zn203 O205 1.932 . S
Zn203 O212 1.977 . S
Zn203 O213 1.910 . S
O204 Zn201 1.933 . S
O204 C215 1.226 . S
O205 Zn203 1.932 . S
O205 C215 1.307 . S
O206 Zn199 1.919 . S
O206 C217 1.253 . S
O207 Zn201 1.941 . S
O207 C217 1.283 . S
O208 Zn201 1.965 . S
O208 C216 1.303 . S
O209 Zn202 1.938 . S
O209 C216 1.247 . S
O210 Zn202 1.906 . S
O210 C218 1.304 . S
O211 Zn199 1.924 . S
O211 C219 1.311 . S
O212 Zn203 1.977 . S
O212 C218 1.272 . S
O213 Zn203 1.910 . S
O213 C219 1.231 . S
C214 O198 1.225 . S
C214 O220 1.298 . S
C215 O204 1.226 . S
C215 O205 1.307 . S
C216 O208 1.303 . S
C216 O209 1.247 . S
C217 O206 1.253 . S
C217 O207 1.283 . S
C218 O210 1.304 . S
C218 O212 1.272 . S
C219 O211 1.311 . S
C219 O213 1.231 . S
O220 Zn202 1.953 . S
O220 C214 1.298 . S
O221 Zn222 1.953 1_655 S
O221 C237 1.225 . S
Zn222 O221 1.953 1_455 S
Zn222 O223 1.949 . S
Zn222 O229 1.919 . S
Zn222 O234 1.924 . S
O223 Zn222 1.949 . S
O223 Zn224 1.917 1_455 S
O223 Zn225 1.929 1_455 S
O223 Zn226 1.973 . S
Zn224 O223 1.917 1_655 S
Zn224 O227 1.933 1_655 S
Zn224 O230 1.941 . S
Zn224 O231 1.965 . S
Zn225 O223 1.929 1_655 S
Zn225 O232 1.938 . S
Zn225 O233 1.906 . S
Zn225 O243 1.953 . S
Zn226 O223 1.973 . S
Zn226 O228 1.932 . S
Zn226 O235 1.977 . S
Zn226 O236 1.910 . S
O227 Zn224 1.933 1_455 S
O227 C238 1.226 . S
O228 Zn226 1.932 . S
O228 C238 1.307 . S
O229 Zn222 1.919 . S
O229 C240 1.254 . S
O230 Zn224 1.941 . S
O230 C240 1.277 1_655 S
O231 Zn224 1.965 . S
O231 C239 1.303 . S
O232 Zn225 1.938 . S
O232 C239 1.247 . S
O233 Zn225 1.906 . S
O233 C241 1.304 1_655 S
O234 Zn222 1.924 . S
O234 C242 1.311 . S
O235 Zn226 1.977 . S
O235 C241 1.272 . S
O236 Zn226 1.910 . S
O236 C242 1.231 . S
C237 O221 1.225 . S
C237 O243 1.298 . S
C238 O227 1.226 . S
C238 O228 1.307 . S
C239 O231 1.303 . S
C239 O232 1.247 . S
C240 O229 1.254 . S
C240 O230 1.277 1_455 S
C241 O233 1.304 1_455 S
C241 O235 1.272 . S
C242 O234 1.311 . S
C242 O236 1.231 . S
O243 Zn225 1.953 . S
O243 C237 1.298 . S
C244 C245 1.387 . S
C244 H248 0.950 . S
C244 C253 1.390 . S
C245 C244 1.387 . S
C245 C247 1.387 1_545 S
H246 C253 0.950 . S
C247 C245 1.387 1_565 S
C247 C249 1.390 . S
C247 H251 0.950 . S
H248 C244 0.950 . S
C249 C247 1.390 . S
C249 C250 1.388 1_565 S
C249 H252 0.950 . S
C250 C249 1.388 1_545 S
C250 C253 1.387 . S
H251 C247 0.950 . S
H252 C249 0.950 . S
C253 C244 1.390 . S
C253 H246 0.950 . S
C253 C250 1.387 . S
C254 C255 1.387 . S
C254 H258 0.950 . S
C254 C263 1.390 . S
C255 C254 1.387 . S
C255 C257 1.387 . S
H256 C263 0.950 . S
C257 C255 1.387 . S
C257 C259 1.390 . S
C257 H261 0.950 . S
H258 C254 0.950 . S
C259 C257 1.390 . S
C259 C260 1.387 . S
C259 H262 0.950 . S
C260 C259 1.387 . S
C260 C263 1.387 . S
H261 C257 0.950 . S
H262 C259 0.950 . S
C263 C254 1.390 . S
C263 H256 0.950 . S
C263 C260 1.387 . S
C264 C265 1.387 . S
C264 H268 0.950 . S
C264 C273 1.390 . S
C265 C264 1.387 . S
C265 C267 1.387 . S
H266 C273 0.950 . S
C267 C265 1.387 . S
C267 C269 1.390 . S
C267 H271 0.950 . S
H268 C264 0.950 . S
C269 C267 1.390 . S
C269 C270 1.387 . S
C269 H272 0.950 . S
C270 C269 1.387 . S
C270 C273 1.387 . S
H271 C267 0.950 . S
H272 C269 0.950 . S
C273 C264 1.390 . S
C273 H266 0.950 . S
C273 C270 1.387 . S
C274 C275 1.387 . S
C274 H278 0.950 . S
C274 C283 1.390 . S
C275 C274 1.387 . S
C275 C277 1.387 . S
H276 C283 0.950 . S
C277 C275 1.387 . S
C277 C279 1.390 . S
C277 H281 0.950 . S
H278 C274 0.950 . S
C279 C277 1.390 . S
C279 C280 1.387 . S
C279 H282 0.950 1_455 S
C280 C279 1.387 . S
C280 C283 1.387 . S
H281 C277 0.950 . S
H282 C279 0.950 1_655 S
C283 C274 1.390 . S
C283 H276 0.950 . S
C283 C280 1.387 . S
C284 C285 1.364 1_545 S
C284 H288 0.950 . S
C284 C293 1.390 . S
C285 C284 1.364 1_565 S
C285 C287 1.411 . S
H286 C293 0.950 . S
C287 C285 1.411 . S
C287 C289 1.390 . S
C287 H291 0.950 . S
H288 C284 0.950 . S
C289 C287 1.390 . S
C289 C290 1.387 1_565 S
C289 H292 0.950 . S
C290 C289 1.387 1_545 S
C290 C293 1.387 . S
H291 C287 0.950 . S
H292 C289 0.950 . S
C293 C284 1.390 . S
C293 H286 0.950 . S
C293 C290 1.387 . S
C294 C295 1.387 . S
C294 H298 0.950 1_556 S
C294 C303 1.390 . S
C295 C294 1.387 . S
C295 C297 1.387 . S
H296 C303 0.950 . S
C297 C295 1.387 . S
C297 C299 1.390 . S
C297 H301 0.950 . S
H298 C294 0.950 1_554 S
C299 C297 1.390 . S
C299 C300 1.387 . S
C299 H302 0.950 . S
C300 C299 1.387 . S
C300 C303 1.387 . S
H301 C297 0.950 . S
H302 C299 0.950 . S
C303 C294 1.390 . S
C303 H296 0.950 . S
C303 C300 1.387 . S
C304 C305 1.387 . S
C304 H308 0.950 . S
C304 C313 1.390 . S
C305 C304 1.387 . S
C305 C307 1.387 . S
H306 C313 0.950 . S
C307 C305 1.387 . S
C307 C309 1.390 . S
C307 H311 0.950 . S
H308 C304 0.950 . S
C309 C307 1.390 . S
C309 C310 1.387 . S
C309 H312 0.950 . S
C310 C309 1.387 . S
C310 C313 1.387 . S
H311 C307 0.950 . S
H312 C309 0.950 . S
C313 C304 1.390 . S
C313 H306 0.950 . S
C313 C310 1.387 . S
C314 C315 1.387 . S
C314 H318 0.950 . S
C314 C323 1.390 . S
C315 C314 1.387 . S
C315 C317 1.387 1_655 S
H316 C323 0.950 . S
C317 C315 1.387 1_455 S
C317 C319 1.390 . S
C317 H321 0.950 . S
H318 C314 0.950 . S
C319 C317 1.390 . S
C319 C320 1.387 . S
C319 H322 0.950 . S
C320 C319 1.387 . S
C320 C323 1.387 1_455 S
H321 C317 0.950 . S
H322 C319 0.950 . S
C323 C314 1.390 . S
C323 H316 0.950 . S
C323 C320 1.387 1_655 S
C324 C325 1.387 . S
C324 H328 0.950 . S
C324 C333 1.390 . S
C325 C324 1.387 . S
C325 C327 1.387 . S
H326 C333 0.950 . S
C327 C325 1.387 . S
C327 C329 1.390 . S
C327 H331 0.950 . S
H328 C324 0.950 . S
C329 C327 1.390 . S
C329 C330 1.387 . S
C329 H332 0.950 . S
C330 C329 1.387 . S
C330 C333 1.387 . S
H331 C327 0.950 . S
H332 C329 0.950 . S
C333 C324 1.390 . S
C333 H326 0.950 . S
C333 C330 1.387 . S
C334 C335 1.387 1_565 S
C334 H338 0.950 . S
C334 C343 1.390 . S
C335 C334 1.387 1_545 S
C335 C337 1.387 . S
H336 C343 0.950 . S
C337 C335 1.387 . S
C337 C339 1.390 . S
C337 H341 0.950 . S
H338 C334 0.950 . S
C339 C337 1.390 . S
C339 C340 1.387 . S
C339 H342 0.950 . S
C340 C339 1.387 . S
C340 C343 1.387 1_545 S
H341 C337 0.950 . S
H342 C339 0.950 . S
C343 C334 1.390 . S
C343 H336 0.950 . S
C343 C340 1.387 1_565 S
C344 C345 1.387 . S
C344 H348 0.950 . S
C344 C353 1.390 . S
C345 C344 1.387 . S
C345 C347 1.387 . S
H346 C353 0.950 . S
C347 C345 1.387 . S
C347 C349 1.390 . S
C347 H351 0.950 . S
H348 C344 0.950 . S
C349 C347 1.390 . S
C349 C350 1.387 . S
C349 H352 0.950 . S
C350 C349 1.387 . S
C350 C353 1.387 . S
H351 C347 0.950 . S
H352 C349 0.950 . S
C353 C344 1.390 . S
C353 H346 0.950 . S
C353 C350 1.387 . S
C354 C355 1.387 . S
C354 H358 0.950 . S
C354 C363 1.390 . S
C355 C354 1.387 . S
C355 C357 1.387 . S
H356 C363 0.950 . S
C357 C355 1.387 . S
C357 C359 1.390 . S
C357 H361 0.950 . S
H358 C354 0.950 . S
C359 C357 1.390 . S
C359 C360 1.387 . S
C359 H362 0.950 . S
C360 C359 1.387 . S
C360 C363 1.387 . S
H361 C357 0.950 . S
H362 C359 0.950 . S
C363 C354 1.390 . S
C363 H356 0.950 . S
C363 C360 1.387 . S
C364 C365 1.387 1_556 S
C364 H368 0.950 . S
C364 C373 1.390 . S
C365 C364 1.387 1_554 S
C365 C367 1.387 . S
H366 C373 0.950 . S
C367 C365 1.387 . S
C367 C369 1.390 . S
C367 H371 0.950 1_455 S
H368 C364 0.950 . S
C369 C367 1.390 . S
C369 C370 1.387 1_554 S
C369 H372 0.950 . S
C370 C369 1.387 1_556 S
C370 C373 1.387 . S
H371 C367 0.950 1_655 S
H372 C369 0.950 . S
C373 C364 1.390 . S
C373 H366 0.950 . S
C373 C370 1.387 . S
C374 C375 1.387 1_554 S
C374 H378 0.950 . S
C374 C383 1.390 1_554 S
C375 C374 1.387 1_556 S
C375 C377 1.387 1_545 S
H376 C383 0.950 1_554 S
C377 C375 1.387 1_565 S
C377 C379 1.390 1_565 S
C377 H381 0.950 . S
H378 C374 0.950 . S
C379 C377 1.390 1_545 S
C379 C380 1.387 . S
C379 H382 0.950 . S
C380 C379 1.387 . S
C380 C383 1.387 . S
H381 C377 0.950 . S
H382 C379 0.950 . S
C383 C374 1.390 1_556 S
C383 H376 0.950 1_556 S
C383 C380 1.387 . S
C384 C385 1.387 . S
C384 H388 0.950 1_556 S
C384 C393 1.390 . S
C385 C384 1.387 . S
C385 C387 1.387 . S
H386 C393 0.956 . S
C387 C385 1.387 . S
C387 C389 1.390 . S
C387 H391 0.950 . S
H388 C384 0.950 1_554 S
C389 C387 1.390 . S
C389 C390 1.387 . S
C389 H392 0.950 . S
C390 C389 1.387 . S
C390 C393 1.387 . S
H391 C387 0.950 . S
H392 C389 0.950 . S
C393 C384 1.390 . S
C393 H386 0.956 . S
C393 C390 1.387 . S
C394 C395 1.387 . S
C394 H398 0.950 . S
C394 C403 1.390 . S
C395 C394 1.387 . S
C395 C397 1.387 . S
H396 C403 0.950 . S
C397 C395 1.387 . S
C397 C399 1.390 . S
C397 H401 0.950 . S
H398 C394 0.950 . S
C399 C397 1.390 . S
C399 C400 1.387 . S
C399 H402 0.950 . S
C400 C399 1.387 . S
C400 C403 1.387 . S
H401 C397 0.950 . S
H402 C399 0.950 . S
C403 C394 1.390 . S
C403 H396 0.950 . S
C403 C400 1.387 . S
C404 C405 1.387 . S
C404 H408 0.950 . S
C404 C413 1.390 1_554 S
C405 C404 1.387 . S
C405 C407 1.387 . S
H406 C413 0.950 . S
C407 C405 1.387 . S
C407 C409 1.390 . S
C407 H411 0.950 . S
H408 C404 0.950 . S
C409 C407 1.390 . S
C409 C410 1.387 . S
C409 H412 0.950 . S
C410 C409 1.387 . S
C410 C413 1.387 1_554 S
H411 C407 0.950 . S
H412 C409 0.950 . S
C413 C404 1.390 1_556 S
C413 H406 0.950 . S
C413 C410 1.387 1_556 S
C414 C415 1.387 1_565 S
C414 H418 0.950 . S
C414 C423 1.390 . S
C415 C414 1.387 1_545 S
C415 C417 1.387 . S
H416 C423 0.950 . S
C417 C415 1.387 . S
C417 C419 1.390 . S
C417 H421 0.950 . S
H418 C414 0.950 . S
C419 C417 1.390 . S
C419 C420 1.387 1_554 S
C419 H422 0.950 1_554 S
C420 C419 1.387 1_556 S
C420 C423 1.387 1_546 S
H421 C417 0.950 . S
H422 C419 0.950 1_556 S
C423 C414 1.390 . S
C423 H416 0.950 . S
C423 C420 1.387 1_564 S
C424 C425 1.387 . S
C424 H428 0.950 . S
C424 C433 1.390 1_554 S
C425 C424 1.387 . S
C425 C427 1.387 . S
H426 C433 0.950 . S
C427 C425 1.387 . S
C427 C429 1.390 . S
C427 H431 0.950 . S
H428 C424 0.950 . S
C429 C427 1.390 . S
C429 C430 1.387 1_554 S
C429 H432 0.950 . S
C430 C429 1.387 1_556 S
C430 C433 1.387 . S
H431 C427 0.950 . S
H432 C429 0.950 . S
C433 C424 1.390 1_556 S
C433 H426 0.950 . S
C433 C430 1.387 . S
C434 C435 1.387 . S
C434 H438 0.950 . S
C434 C443 1.390 . S
C435 C434 1.387 . S
C435 C437 1.387 . S
H436 C443 0.950 . S
C437 C435 1.387 . S
C437 C439 1.390 1_554 S
C437 H441 0.950 . S
H438 C434 0.950 . S
C439 C437 1.390 1_556 S
C439 C440 1.387 . S
C439 H442 0.950 . S
C440 C439 1.387 . S
C440 C443 1.387 1_556 S
H441 C437 0.950 . S
H442 C439 0.950 . S
C443 C434 1.390 . S
C443 H436 0.950 . S
C443 C440 1.387 1_554 S
C444 C445 1.387 . S
C444 H448 0.950 . S
C444 C453 1.390 . S
C445 C444 1.387 . S
C445 C447 1.387 . S
H446 C453 0.950 . S
C447 C445 1.387 . S
C447 C449 1.390 . S
C447 H451 0.950 . S
H448 C444 0.950 . S
C449 C447 1.390 . S
C449 C450 1.387 . S
C449 H452 0.950 . S
C450 C449 1.387 . S
C450 C453 1.387 . S
H451 C447 0.950 . S
H452 C449 0.950 . S
C453 C444 1.390 . S
C453 H446 0.950 . S
C453 C450 1.387 . S
C454 C455 1.387 . S
C454 H458 0.950 . S
C454 C463 1.390 . S
C455 C454 1.387 . S
C455 C457 1.387 1_565 S
H456 C463 0.950 . S
C457 C455 1.387 1_545 S
C457 C459 1.390 . S
C457 H461 0.950 . S
H458 C454 0.950 . S
C459 C457 1.390 . S
C459 C460 1.387 1_545 S
C459 H462 0.950 . S
C460 C459 1.387 1_565 S
C460 C463 1.387 . S
H461 C457 0.950 . S
H462 C459 0.950 . S
C463 C454 1.390 . S
C463 H456 0.950 . S
C463 C460 1.387 . S
C464 C465 1.387 . S
C464 H468 0.950 . S
C464 C473 1.390 . S
C465 C464 1.387 . S
C465 C467 1.387 . S
H466 C473 0.950 . S
C467 C465 1.387 . S
C467 C469 1.390 . S
C467 H471 0.950 . S
H468 C464 0.950 . S
C469 C467 1.390 . S
C469 C470 1.387 . S
C469 H472 0.950 . S
C470 C469 1.387 . S
C470 C473 1.387 . S
H471 C467 0.950 . S
H472 C469 0.950 . S
C473 C464 1.390 . S
C473 H466 0.950 . S
C473 C470 1.387 . S
C474 C475 1.387 . S
C474 H478 0.950 . S
C474 C483 1.390 . S
C475 C474 1.387 . S
C475 C477 1.387 . S
H476 C483 0.950 . S
C477 C475 1.387 . S
C477 C479 1.390 . S
C477 H481 0.950 . S
H478 C474 0.950 . S
C479 C477 1.390 . S
C479 C480 1.387 . S
C479 H482 0.950 . S
C480 C479 1.387 . S
C480 C483 1.387 . S
H481 C477 0.950 . S
H482 C479 0.950 . S
C483 C474 1.390 . S
C483 H476 0.950 . S
C483 C480 1.387 . S
C245 C125 1.588 . S
C250 C168 1.614 1_545 S
C260 C191 1.633 . S
C255 C144 1.582 . S
C270 C214 1.637 . S
C265 C87 1.598 . S
C280 C241 1.523 . S
C275 C106 1.520 . S
C290 C169 1.571 . S
C285 C49 1.525 1_556 S
C295 C68 1.497 . S
C300 C192 1.532 . S
C305 C11 1.494 . S
C310 C215 1.532 . S
C315 C30 1.601 1_556 S
C320 C240 1.595 . S
C330 C170 0.844 . S
C325 C97 0.812 . S
C340 C193 0.813 . S
C335 C116 0.804 . S
C350 C216 0.829 . S
C345 C135 0.812 . S
C355 C78 0.952 . S
C360 C242 0.934 . S
C365 C21 1.061 . S
C370 C173 1.017 . S
C380 C196 1.011 . S
C375 C40 1.053 1_556 S
C390 C219 0.978 . S
C385 C59 1.018 . S
C395 C2 0.788 . S
C400 C239 0.798 . S
C405 C101 1.583 . S
C410 C171 1.543 1_554 S
C415 C120 1.546 . S
C420 C194 1.527 . S
C430 C217 1.536 . S
C425 C139 1.557 . S
C440 C238 1.457 . S
C435 C82 1.419 . S
C445 C25 1.636 1_655 S
C450 C172 1.549 . S
C460 C195 1.506 . S
C455 C44 1.602 1_565 S
C470 C218 1.495 . S
C465 C63 1.584 . S
C475 C6 1.667 . S
C480 C237 1.700 . S
