# Generated by pormake.
# Topology anh, (6,3)-cn, num edge types: 1
# Building blocks:
#     Node 0, Type 0, BuildingBlock: GEDQOX_clean_sbu_0, # of connection points: 6
#     Node 1, Type 0, BuildingBlock: GEDQOX_clean_sbu_0, # of connection points: 6
#     Node 2, Type 0, BuildingBlock: GEDQOX_clean_sbu_0, # of connection points: 6
#     Node 3, Type 1, BuildingBlock: PAMTOO_clean_linker_0, # of connection points: 3
#     Node 4, Type 1, BuildingBlock: PAMTOO_clean_linker_0, # of connection points: 3
#     Node 5, Type 1, BuildingBlock: PAMTOO_clean_linker_0, # of connection points: 3
#     Node 6, Type 1, BuildingBlock: PAMTOO_clean_linker_0, # of connection points: 3
#     Node 7, Type 1, BuildingBlock: PAMTOO_clean_linker_0, # of connection points: 3
#     Node 8, Type 1, BuildingBlock: PAMTOO_clean_linker_0, # of connection points: 3
#     Edge 9, Type (0, 1), BuildingBlock: XIVTED_clean_linker_0, # of connection points: 2
#     Edge 10, Type (0, 1), BuildingBlock: XIVTED_clean_linker_0, # of connection points: 2
#     Edge 11, Type (0, 1), BuildingBlock: XIVTED_clean_linker_0, # of connection points: 2
#     Edge 12, Type (0, 1), BuildingBlock: XIVTED_clean_linker_0, # of connection points: 2
#     Edge 13, Type (0, 1), BuildingBlock: XIVTED_clean_linker_0, # of connection points: 2
#     Edge 14, Type (0, 1), BuildingBlock: XIVTED_clean_linker_0, # of connection points: 2
#     Edge 15, Type (0, 1), BuildingBlock: XIVTED_clean_linker_0, # of connection points: 2
#     Edge 16, Type (0, 1), BuildingBlock: XIVTED_clean_linker_0, # of connection points: 2
#     Edge 17, Type (0, 1), BuildingBlock: XIVTED_clean_linker_0, # of connection points: 2
#     Edge 18, Type (0, 1), BuildingBlock: XIVTED_clean_linker_0, # of connection points: 2
#     Edge 19, Type (0, 1), BuildingBlock: XIVTED_clean_linker_0, # of connection points: 2
#     Edge 20, Type (0, 1), BuildingBlock: XIVTED_clean_linker_0, # of connection points: 2
#     Edge 21, Type (0, 1), BuildingBlock: XIVTED_clean_linker_0, # of connection points: 2
#     Edge 22, Type (0, 1), BuildingBlock: XIVTED_clean_linker_0, # of connection points: 2
#     Edge 23, Type (0, 1), BuildingBlock: XIVTED_clean_linker_0, # of connection points: 2
#     Edge 24, Type (0, 1), BuildingBlock: XIVTED_clean_linker_0, # of connection points: 2
#     Edge 25, Type (0, 1), BuildingBlock: XIVTED_clean_linker_0, # of connection points: 2
#     Edge 26, Type (0, 1), BuildingBlock: XIVTED_clean_linker_0, # of connection points: 2
# Relax obj value: 0.165
# Max RMSD: 0.190
# Mean RMSD: 0.128
data_MOF--net-anh--node1-GEDQOX_clean_sbu_0--node2-PAMTOO_clean_linker_0--edge1-XIVTED_clean_linker_0
_symmetry_space_group_name_H-M    P1
_symmetry_Int_Tables_number       1
_symmetry_cell_setting            triclinic
loop_
_symmetry_equiv_pos_as_xyz
'x, y, z'
_cell_length_a     30.815748
_cell_length_b     29.943403
_cell_length_c     49.676277
_cell_angle_alpha  88.053316
_cell_angle_beta   92.491335
_cell_angle_gamma 102.20863
loop_
_atom_site_label
_atom_site_type_symbol
_atom_site_fract_x
_atom_site_fract_y
_atom_site_fract_z
_atom_type_partial_charge
Nd0 Nd 0.13218 0.56956 0.13716 0.0
Nd1 Nd 0.11185 0.46779 0.14788 0.0
C2 C 0.16495 0.65444 0.12062 0.0
C3 C 0.20519 0.68909 0.12745 0.0
C4 C 0.22699 0.7178 0.10715 0.0
C5 C 0.2656 0.75037 0.11333 0.0
C6 C 0.28309 0.75493 0.14002 0.0
C7 C 0.2611 0.7258 0.16027 0.0
C8 C 0.22273 0.69307 0.15403 0.0
C9 C 0.12327 0.54487 0.19055 0.0
C10 C 0.21709 0.51413 0.14422 0.0
C11 C 1.08057 0.38403 0.16679 0.0
C12 C 1.03689 0.35364 0.17149 0.0
C13 C 1.02661 0.337 0.1977 0.0
C14 C 0.9856 0.30825 0.20274 0.0
C15 C 0.95407 0.29519 0.18161 0.0
C16 C 0.96443 0.31172 0.15532 0.0
C17 C 1.00535 0.34082 0.15031 0.0
C18 C 0.12375 0.49463 0.09489 0.0
C19 C 1.02689 0.52148 0.13747 0.0
O20 O 0.17124 0.61868 0.10819 0.0
O21 O 0.13562 0.64393 0.1393 0.0
O22 O 0.10884 0.57887 0.17936 0.0
O23 O 0.1436 0.52643 0.17409 0.0
O24 O 0.20277 0.5511 0.1353 0.0
O25 O 0.18847 0.47796 0.15349 0.0
O26 O 0.09186 0.41955 0.18221 0.0
O27 O 0.09182 0.39322 0.14178 0.0
O28 O 0.13842 0.46042 0.1059 0.0
O29 O 0.10194 0.51123 0.11132 0.0
O30 O 1.04119 0.48612 0.14888 0.0
O31 O 1.056 0.55654 0.12735 0.0
H32 H 0.21425 0.71488 0.08646 0.0
H33 H 0.28199 0.77161 0.09713 0.0
H34 H 0.2731 0.72864 0.18108 0.0
H35 H 0.20671 0.67097 0.17003 0.0
H36 H 1.05041 0.34621 0.21433 0.0
H37 H 0.97885 0.29565 0.22316 0.0
H38 H 0.94065 0.30261 0.13868 0.0
H39 H 1.01218 0.35325 0.12988 0.0
Nd40 Nd 0.56907 0.98672 0.52084 0.0
Nd41 Nd 0.66416 1.00545 0.50584 0.0
C42 C 0.48977 0.95222 0.53978 0.0
C43 C 0.45586 0.91105 0.53334 0.0
C44 C 0.42438 0.89173 0.55223 0.0
C45 C 0.39224 0.85246 0.54611 0.0
C46 C 0.39094 0.83188 0.52089 0.0
C47 C 0.42302 0.85134 0.50215 0.0
C48 C 0.45526 0.89033 0.50837 0.0
C49 C 0.58175 0.9997 0.46654 0.0
C50 C 0.61697 0.89967 0.51023 0.0
C51 C 0.74162 0.03773 0.48384 0.0
C52 C 0.77341 0.08183 0.4807 0.0
C53 C 0.78851 0.09637 0.45499 0.0
C54 C 0.81871 0.13786 0.45138 0.0
C55 C 0.83467 0.16559 0.47347 0.0
C56 C 0.81958 0.15095 0.49926 0.0
C57 C 0.78904 0.10956 0.50284 0.0
C58 C 0.65229 0.9901 0.56004 0.0
C59 C 0.61677 0.09171 0.5188 0.0
O60 O 0.52663 0.945 0.55144 0.0
O61 O 0.49673 0.98397 0.52079 0.0
O62 O 0.55288 0.01619 0.47906 0.0
O63 O 0.60162 0.97633 0.4823 0.0
O64 O 0.58537 0.91475 0.522 0.0
O65 O 0.6499 0.92834 0.49873 0.0
O66 O 0.70356 0.03368 0.47044 0.0
O67 O 0.73768 0.01912 0.50805 0.0
O68 O 0.68144 0.97504 0.54684 0.0
O69 O 0.63179 0.0142 0.54501 0.0
O70 O 0.64684 0.07751 0.50496 0.0
O71 O 0.58603 0.06213 0.53151 0.0
H72 H 0.42468 0.90697 0.57173 0.0
H73 H 0.36866 0.83806 0.56124 0.0
H74 H 0.42282 0.837 0.48242 0.0
H75 H 0.47959 0.90453 0.49358 0.0
H76 H 0.777 0.0755 0.43765 0.0
H77 H 0.8301 0.14792 0.43131 0.0
H78 H 0.83095 0.17179 0.51662 0.0
H79 H 0.77769 0.09934 0.5229 0.0
Nd80 Nd 0.56663 0.45322 0.81702 0.0
Nd81 Nd 0.67012 0.47036 0.83534 0.0
C82 C 0.49266 0.45525 0.78917 0.0
C83 C 0.46091 0.48582 0.79125 0.0
C84 C 0.42261 0.47199 0.80633 0.0
C85 C 0.39725 0.50354 0.81269 0.0
C86 C 0.40956 0.54951 0.80397 0.0
C87 C 0.44598 0.56249 0.78727 0.0
C88 C 0.47128 0.53102 0.78091 0.0
C89 C 0.57875 0.46039 0.87267 0.0
C90 C 0.62378 0.5584 0.82892 0.0
C91 C 0.75112 0.47116 0.85494 0.0
C92 C 0.79696 0.49498 0.84896 0.0
C93 C 0.82364 0.47295 0.83405 0.0
C94 C 0.86719 0.4945 0.82852 0.0
C95 C 0.88532 0.53841 0.83805 0.0
C96 C 0.85849 0.56065 0.85278 0.0
C97 C 0.81477 0.53916 0.8582 0.0
C98 C 0.65145 0.48215 0.78154 0.0
C99 C 0.60985 0.36457 0.82878 0.0
O100 O 0.53205 0.47461 0.78054 0.0
O101 O 0.49452 0.42624 0.80944 0.0
O102 O 0.53984 0.45415 0.86053 0.0
O103 O 0.60693 0.46207 0.85517 0.0
O104 O 0.59019 0.53146 0.81604 0.0
O105 O 0.65679 0.54247 0.84115 0.0
O106 O 0.73083 0.4424 0.83687 0.0
O107 O 0.72488 0.49492 0.86525 0.0
O108 O 0.6857 0.50607 0.79434 0.0
O109 O 0.63034 0.45118 0.79671 0.0
O110 O 0.64366 0.39211 0.8413 0.0
O111 O 0.57796 0.38029 0.81528 0.0
H112 H 0.4134 0.4373 0.81431 0.0
H113 H 0.36885 0.49229 0.82519 0.0
H114 H 0.45662 0.59766 0.78036 0.0
H115 H 0.50034 0.54291 0.76904 0.0
H116 H 0.81095 0.4388 0.82675 0.0
H117 H 0.88677 0.47655 0.81692 0.0
H118 H 0.87166 0.59414 0.86086 0.0
H119 H 0.79522 0.55697 0.8699 0.0
H120 H 0.68812 0.08748 0.27385 0.0
H121 H 0.57318 0.98211 0.25588 0.0
H122 H 0.64924 0.05318 0.19133 0.0
H123 H 0.55311 0.03078 0.17655 0.0
C124 C 0.54263 1.00564 0.19325 0.0
O125 O 0.57947 0.99049 0.20358 0.0
H126 H 0.52807 0.02299 0.209 0.0
C127 C 0.66571 0.06772 0.25912 0.0
C128 C 0.67367 0.07468 0.23145 0.0
C129 C 0.62975 0.03435 0.26813 0.0
C130 C 0.60137 1.00766 0.24925 0.0
C131 C 0.60829 0.01487 0.22164 0.0
C132 C 0.64453 0.04791 0.21278 0.0
H133 H 0.61562 0.58775 0.58192 0.0
H134 H 0.63192 0.45003 0.57206 0.0
H135 H 0.62551 0.53822 0.50255 0.0
H136 H 0.59349 0.4319 0.48721 0.0
C137 C 0.59762 0.42404 0.50908 0.0
O138 O 0.63324 0.4555 0.51966 0.0
H139 H 0.56606 0.42667 0.51846 0.0
C140 C 0.61918 0.56043 0.56895 0.0
C141 C 0.61964 0.56824 0.54093 0.0
C142 C 0.62399 0.51822 0.58051 0.0
C143 C 0.62797 0.48282 0.56357 0.0
C144 C 0.62835 0.48989 0.53554 0.0
C145 C 0.62483 0.53281 0.52422 0.0
H146 H 0.16917 0.62659 0.90885 0.0
H147 H 0.26344 0.73829 0.94391 0.0
H148 H 0.20877 0.75279 0.86382 0.0
H149 H 0.3308 0.81001 0.91232 0.0
C150 C 0.30918 0.80315 0.89379 0.0
O151 O 0.26515 0.79254 0.90106 0.0
H152 H 0.3147 0.83541 0.8815 0.0
C153 C 0.19017 0.66046 0.90696 0.0
C154 C 0.1863 0.68705 0.88356 0.0
C155 C 0.21735 0.67865 0.92899 0.0
C156 C 0.24232 0.72359 0.92706 0.0
C157 C 0.24018 0.74968 0.90324 0.0
C158 C 0.21161 0.73173 0.88172 0.0
H159 H 1.04966 0.42987 0.38544 0.0
H160 H 0.15979 0.54184 0.40083 0.0
H161 H 0.09106 0.46712 0.46713 0.0
H162 H 0.11596 0.565 0.47676 0.0
C163 C 0.14184 0.57507 0.46149 0.0
O164 O 0.15449 0.53617 0.45333 0.0
H165 H 0.12738 0.59217 0.44409 0.0
C166 C 1.07149 0.45149 0.39966 0.0
C167 C 1.06607 0.44372 0.42749 0.0
C168 C 0.10523 0.4865 0.38984 0.0
C169 C 0.13413 0.51405 0.40812 0.0
C170 C 0.12867 0.50725 0.43593 0.0
C171 C 0.09517 0.47175 0.44559 0.0
H172 H 0.63206 0.87444 0.75854 0.0
H173 H 0.64015 0.01774 0.77063 0.0
H174 H 0.6333 0.92453 0.83885 0.0
H175 H 0.59435 0.01274 0.85238 0.0
C176 C 0.60013 0.02426 0.8311 0.0
O177 O 0.63779 0.01087 0.82295 0.0
H178 H 0.57021 1.00739 0.81898 0.0
C179 C 0.63352 0.9026 0.77195 0.0
C180 C 0.63224 0.89382 0.79989 0.0
C181 C 0.63673 0.94707 0.76108 0.0
C182 C 0.63758 0.98316 0.77857 0.0
C183 C 0.63623 0.97519 0.80652 0.0
C184 C 0.6342 0.93057 0.81724 0.0
H185 H 0.71328 0.51201 0.07015 0.0
H186 H 0.57417 0.50851 0.07903 0.0
H187 H 0.66299 0.52195 0.14892 0.0
H188 H 0.5531 0.46704 0.15562 0.0
C189 C 0.543 0.48365 0.1367 0.0
O190 O 0.57786 0.52013 0.13017 0.0
H191 H 0.53821 0.45755 0.12082 0.0
C192 C 0.68569 0.51224 0.08291 0.0
C193 C 0.69417 0.5168 0.11085 0.0
C194 C 0.64273 0.50866 0.07111 0.0
C195 C 0.60745 0.51105 0.08768 0.0
C196 C 0.61373 0.51554 0.11562 0.0
C197 C 0.65744 0.51782 0.1274 0.0
H198 H 0.28492 0.5736 0.11785 0.0
H199 H 0.47981 0.44752 0.17318 0.0
H200 H 0.26278 0.45234 0.16892 0.0
H201 H 0.49917 0.54431 0.1065 0.0
H202 H 0.40284 0.45618 0.17524 0.0
H203 H 0.36402 0.57012 0.11645 0.0
C204 C 0.29648 0.54629 0.12891 0.0
C205 C 0.26629 0.5132 0.14356 0.0
C206 C 0.42384 0.47613 0.16033 0.0
C207 C 0.35821 0.5093 0.14217 0.0
C208 C 0.4683 0.47158 0.1593 0.0
C209 C 0.49721 0.4962 0.14016 0.0
C210 C 0.40687 0.50557 0.14197 0.0
C211 C 0.47901 0.52551 0.12214 0.0
C212 C 0.34192 0.5443 0.128 0.0
C213 C 0.28409 0.47869 0.15728 0.0
N214 N 0.43542 0.52949 0.12357 0.0
N215 N 0.32835 0.47785 0.15634 0.0
H216 H 0.91014 0.20009 0.50392 0.0
H217 H 0.98027 0.42146 0.40765 0.0
H218 H 0.83297 0.23099 0.43387 0.0
H219 H 1.06841 0.38174 0.4695 0.0
H220 H 0.92246 0.35646 0.4208 0.0
H221 H 0.96487 0.27095 0.49537 0.0
C222 C 0.90451 0.22199 0.4869 0.0
C223 C 0.86709 0.20946 0.46946 0.0
C224 C 0.95436 0.36195 0.43159 0.0
C225 C 0.92954 0.29039 0.45953 0.0
C226 C 0.98749 0.39901 0.42402 0.0
C227 C 1.02954 0.40669 0.43721 0.0
C228 C 0.96311 0.33214 0.45258 0.0
C229 C 1.0365 0.37713 0.45878 0.0
C230 C 0.93586 0.26227 0.48195 0.0
C231 C 0.86166 0.23893 0.44759 0.0
N232 N 1.00372 0.34092 0.46567 0.0
N233 N 0.89253 0.27789 0.44324 0.0
H234 H 0.55792 0.60023 0.80935 0.0
H235 H 0.68763 0.85803 0.83582 0.0
H236 H 0.68886 0.63093 0.84777 0.0
H237 H 0.56841 0.81999 0.78597 0.0
H238 H 0.68519 0.7763 0.84617 0.0
H239 H 0.55802 0.6812 0.80635 0.0
C240 C 0.58686 0.62393 0.81725 0.0
C241 C 0.62369 0.6083 0.82863 0.0
C242 C 0.65934 0.78595 0.83321 0.0
C243 C 0.62388 0.70243 0.82516 0.0
C244 C 0.66051 0.83253 0.82751 0.0
C245 C 0.62816 0.84573 0.81001 0.0
C246 C 0.62531 0.75252 0.8215 0.0
C247 C 0.59408 0.81133 0.79949 0.0
C248 C 0.58682 0.67048 0.81551 0.0
C249 C 0.6598 0.64123 0.83872 0.0
N250 N 0.59365 0.76657 0.80532 0.0
N251 N 0.65911 0.68675 0.83663 0.0
H252 H 0.95596 0.45554 0.15609 0.0
H253 H 0.7649 0.5859 0.09895 0.0
H254 H 0.9832 0.58688 0.11488 0.0
H255 H 0.73463 0.45781 0.14317 0.0
H256 H 0.84443 0.58778 0.10656 0.0
H257 H 0.87612 0.45599 0.15291 0.0
C258 C 0.94543 0.4846 0.14637 0.0
C259 C 0.97729 0.52125 0.13573 0.0
C260 C 0.82066 0.55946 0.11501 0.0
C261 C 0.88436 0.52191 0.13202 0.0
C262 C 0.77493 0.5586 0.11089 0.0
C263 C 0.74234 0.52215 0.12089 0.0
C264 C 0.83504 0.52319 0.12901 0.0
C265 C 0.75806 0.48722 0.13558 0.0
C266 C 0.89948 0.4848 0.1446 0.0
C267 C 0.9606 0.55771 0.12342 0.0
N268 N 0.80289 0.48846 0.13901 0.0
N269 N 0.91586 0.55701 0.1219 0.0
H270 H 0.39822 0.75799 0.49107 0.0
H271 H 0.14324 0.6318 0.50363 0.0
H272 H 0.30324 0.81206 0.53461 0.0
H273 H 0.22807 0.59749 0.44432 0.0
H274 H 0.2046 0.69207 0.51972 0.0
H275 H 0.33916 0.69342 0.47795 0.0
C276 C 0.36501 0.75649 0.49784 0.0
C277 C 0.35585 0.79096 0.51388 0.0
C278 C 0.20999 0.67107 0.50337 0.0
C279 C 0.28814 0.71637 0.49926 0.0
C280 C 0.17509 0.63652 0.49432 0.0
C281 C 0.18095 0.60895 0.47307 0.0
C282 C 0.25109 0.6784 0.49097 0.0
C283 C 0.2225 0.61731 0.46117 0.0
C284 C 0.33134 0.71939 0.49043 0.0
C285 C 0.31223 0.78626 0.52253 0.0
N286 N 0.25605 0.65121 0.47034 0.0
N287 N 0.28009 0.74979 0.51508 0.0
H288 H 0.55022 0.29739 0.80234 0.0
H289 H 0.65934 0.09016 0.85904 0.0
H290 H 0.66657 0.31685 0.85577 0.0
H291 H 0.55219 0.07517 0.79919 0.0
H292 H 0.66286 0.17304 0.8585 0.0
H293 H 0.54987 0.21582 0.80183 0.0
C294 C 0.57565 0.28461 0.81409 0.0
C295 C 0.60844 0.31439 0.82918 0.0
C296 C 0.63875 0.15169 0.84535 0.0
C297 C 0.60829 0.22029 0.82857 0.0
C298 C 0.63689 0.10446 0.8456 0.0
C299 C 0.6055 0.07579 0.82913 0.0
C300 C 0.60877 0.17043 0.82861 0.0
C301 C 0.57694 0.09599 0.8122 0.0
C302 C 0.57551 0.23787 0.81369 0.0
C303 C 0.64057 0.29542 0.84386 0.0
N304 N 0.57911 0.14188 0.81249 0.0
N305 N 0.63964 0.24971 0.84321 0.0
H306 H 0.54988 0.83167 0.52803 0.0
H307 H 0.67482 0.62663 0.50697 0.0
H308 H 0.67853 0.85288 0.49283 0.0
H309 H 0.55525 0.6145 0.55097 0.0
H310 H 0.67258 0.70692 0.4957 0.0
H311 H 0.5475 0.75 0.53093 0.0
C312 C 0.5777 0.81922 0.52081 0.0
C313 C 0.61471 0.84952 0.5104 0.0
C314 C 0.64658 0.68647 0.50755 0.0
C315 C 0.61212 0.75512 0.51372 0.0
C316 C 0.64765 0.64062 0.51376 0.0
C317 C 0.61526 0.61402 0.53001 0.0
C318 C 0.61267 0.7056 0.51751 0.0
C319 C 0.58104 0.63391 0.53856 0.0
C320 C 0.57627 0.77234 0.52247 0.0
C321 C 0.64942 0.83091 0.50113 0.0
N322 N 0.58079 0.67838 0.53234 0.0
N323 N 0.64742 0.78495 0.50316 0.0
H324 H 0.95611 0.49647 0.8415 0.0
H325 H 0.17225 0.60685 0.85674 0.0
H326 H 0.92323 0.62852 0.82681 0.0
H327 H 0.11859 0.72698 0.8657 0.0
H328 H 0.10243 0.56925 0.8347 0.0
H329 H 1.03409 0.5322 0.84164 0.0
C330 C 0.96533 0.53296 0.83752 0.0
C331 C 0.93291 0.55952 0.83441 0.0
C332 C 0.1056 0.60378 0.84142 0.0
C333 C 1.0232 0.60137 0.83439 0.0
C334 C 0.14584 0.6255 0.85355 0.0
C335 C 0.15066 0.66963 0.86341 0.0
C336 C 1.0696 0.626 0.83999 0.0
C337 C 0.11594 0.69274 0.85851 0.0
C338 C 1.0103 0.55359 0.83749 0.0
C339 C 0.94707 0.6068 0.82987 0.0
N340 N 1.07646 0.67027 0.84767 0.0
N341 N 0.99114 0.62627 0.8304 0.0
H342 H 0.35105 0.74834 0.17681 0.0
H343 H 0.48879 1.00245 0.14768 0.0
H344 H 0.30811 0.84223 0.11879 0.0
H345 H 0.51444 0.92072 0.2173 0.0
H346 H 0.42735 0.94057 0.13357 0.0
H347 H 0.41568 0.80778 0.1889 0.0
C348 C 0.35501 0.78144 0.16665 0.0
C349 C 0.3237 0.7902 0.14682 0.0
C350 C 0.44664 0.93596 0.15181 0.0
C351 C 0.39832 0.85828 0.16032 0.0
C352 C 0.48182 0.97114 0.15977 0.0
C353 C 0.50728 0.96621 0.18334 0.0
C354 C 0.43662 0.8956 0.16764 0.0
C355 C 0.49618 0.92544 0.19867 0.0
C356 C 0.39212 0.81531 0.17349 0.0
C357 C 0.33144 0.83355 0.13395 0.0
N358 N 0.46176 0.89162 0.19052 0.0
N359 N 0.36787 0.86591 0.14095 0.0
H360 H 0.56425 0.13421 0.54795 0.0
H361 H 0.65438 0.38318 0.48224 0.0
H362 H 0.67005 0.16289 0.49166 0.0
H363 H 0.55865 0.35609 0.54455 0.0
H364 H 0.66242 0.30327 0.48617 0.0
H365 H 0.56301 0.21553 0.54761 0.0
C366 C 0.58737 0.15757 0.53557 0.0
C367 C 0.61719 0.14144 0.51973 0.0
C368 C 0.63981 0.3148 0.49909 0.0
C369 C 0.6158 0.23506 0.51917 0.0
C370 C 0.6353 0.36036 0.49686 0.0
C371 C 0.60545 0.37598 0.51285 0.0
C372 C 0.61418 0.28457 0.51746 0.0
C373 C 0.5817 0.34524 0.53164 0.0
C374 C 0.58667 0.20413 0.53542 0.0
C375 C 0.64641 0.1736 0.50418 0.0
N376 N 0.58629 0.30099 0.53327 0.0
N377 N 0.6448 0.21873 0.50418 0.0
H378 H 0.387 0.62332 0.77666 0.0
H379 H 0.29755 0.78789 0.8394 0.0
H380 H 0.38363 0.55696 0.85526 0.0
H381 H 0.3471 0.73277 0.91285 0.0
H382 H 0.31536 0.72513 0.81464 0.0
H383 H 0.36011 0.68585 0.79582 0.0
C384 C 0.37991 0.62157 0.79788 0.0
C385 C 0.38755 0.58474 0.81434 0.0
C386 C 0.32334 0.72712 0.83604 0.0
C387 C 0.35579 0.65593 0.83648 0.0
C388 C 0.31302 0.76289 0.85013 0.0
C389 C 0.32217 0.76602 0.87796 0.0
C390 C 0.34285 0.69425 0.85001 0.0
C391 C 0.34065 0.73206 0.89126 0.0
C392 C 0.36406 0.65716 0.80881 0.0
C393 C 0.37764 0.58424 0.84169 0.0
N394 N 0.35045 0.69763 0.87716 0.0
N395 N 0.36274 0.61947 0.8519 0.0
H396 H 0.91046 0.22146 0.1527 0.0
H397 H 0.70631 0.16012 0.25141 0.0
H398 H 0.89894 0.29835 0.22297 0.0
H399 H 0.72972 0.0692 0.19059 0.0
H400 H 0.77281 0.21498 0.23817 0.0
H401 H 0.84016 0.16942 0.16308 0.0
C402 C 0.89297 0.2276 0.17019 0.0
C403 C 0.91071 0.2642 0.18707 0.0
C404 C 0.76338 0.18307 0.22767 0.0
C405 C 0.83037 0.20472 0.19912 0.0
C406 C 0.72547 0.15157 0.23531 0.0
C407 C 0.71252 0.10963 0.22231 0.0
C408 C 0.78864 0.17284 0.20677 0.0
C409 C 0.73817 0.10114 0.20109 0.0
C410 C 0.85298 0.19774 0.17619 0.0
C411 C 0.88682 0.27024 0.20961 0.0
N412 N 0.77507 0.13236 0.19406 0.0
N413 N 0.84794 0.24085 0.21497 0.0
H414 H 0.18405 0.4732 0.06132 0.0
H415 H 0.22593 0.59017 0.93707 0.0
H416 H 0.1019 0.571 0.0718 0.0
H417 H 0.2005 0.70555 0.97865 0.0
H418 H 0.20689 0.5422 0.97746 0.0
H419 H 0.21528 0.51737 0.02167 0.0
C420 C 0.1722 0.50364 0.05503 0.0
C421 C 0.14024 0.51842 0.06971 0.0
C422 C 0.2067 0.57824 0.97808 0.0
C423 C 0.17564 0.56902 0.02454 0.0
C424 C 0.2174 0.60556 0.955 0.0
C425 C 0.21494 0.65185 0.95465 0.0
C426 C 0.19295 0.59734 0.00084 0.0
C427 C 0.20332 0.67015 0.97824 0.0
C428 C 0.18996 0.52879 0.0324 0.0
C429 C 0.1264 0.55837 0.06097 0.0
N430 N 0.19203 0.64264 0.00026 0.0
N431 N 0.14444 0.58247 0.03907 0.0
H432 H 0.55645 0.06271 0.43186 0.0
H433 H 0.62024 0.9554 0.29866 0.0
H434 H 0.62186 0.94864 0.43494 0.0
H435 H 0.621 0.09902 0.30363 0.0
H436 H 0.60842 0.94641 0.34736 0.0
H437 H 0.5677 0.07104 0.3832 0.0
C438 C 0.57303 0.03936 0.42224 0.0
C439 C 0.58827 1.00496 0.43731 0.0
C440 C 0.6112 0.97985 0.33773 0.0
C441 C 0.60065 0.01386 0.38187 0.0
C442 C 0.61767 0.98491 0.31004 0.0
C443 C 0.62168 0.02801 0.29729 0.0
C444 C 0.60775 0.01798 0.35255 0.0
C445 C 0.61835 0.0653 0.31284 0.0
C446 C 0.57957 0.04423 0.39457 0.0
C447 C 0.60973 0.97567 0.42397 0.0
N448 N 0.61126 0.05939 0.33965 0.0
N449 N 0.61499 0.98054 0.39691 0.0
H450 H 0.59223 0.42529 0.74823 0.0
H451 H 0.67128 0.57791 0.61658 0.0
H452 H 0.69235 0.55009 0.74837 0.0
H453 H 0.58344 0.44522 0.61219 0.0
H454 H 0.67487 0.56957 0.66544 0.0
H455 H 0.58367 0.43332 0.69892 0.0
C456 C 0.61216 0.45444 0.73789 0.0
C457 C 0.6432 0.48698 0.75226 0.0
C458 C 0.65472 0.54218 0.65389 0.0
C459 C 0.63373 0.49633 0.69625 0.0
C460 C 0.65248 0.54706 0.62595 0.0
C461 C 0.62677 0.51235 0.61028 0.0
C462 C 0.63108 0.50224 0.66648 0.0
C463 C 0.60384 0.4727 0.62354 0.0
C464 C 0.60741 0.45892 0.70981 0.0
C465 C 0.66822 0.5241 0.73802 0.0
N466 N 0.60642 0.46875 0.65093 0.0
N467 N 0.66298 0.5277 0.71086 0.0
H468 H 0.59937 0.02632 0.59262 0.0
H469 H 0.68721 0.91204 0.72685 0.0
H470 H 0.69719 0.94222 0.59452 0.0
H471 H 0.59405 1.00111 0.72793 0.0
H472 H 0.6904 0.92296 0.67813 0.0
H473 H 0.59574 0.0176 0.6419 0.0
C474 C 0.62003 1.00603 0.60343 0.0
C475 C 0.64871 0.98503 0.58956 0.0
C476 C 0.66924 0.94022 0.68893 0.0
C477 C 0.64477 0.97492 0.64568 0.0
C478 C 0.66725 0.9338 0.71679 0.0
C479 C 0.64003 0.95539 0.73149 0.0
C480 C 0.64377 0.96842 0.67546 0.0
C481 C 0.61563 0.98398 0.7174 0.0
C482 C 0.61801 1.00112 0.6315 0.0
C483 C 0.6747 0.95908 0.60443 0.0
N484 N 0.6179 0.98951 0.69013 0.0
N485 N 0.6721 0.95477 0.63163 0.0
H486 H 0.52325 0.48016 0.90959 0.0
H487 H 0.68314 0.45998 0.03724 0.0
H488 H 0.65553 0.45718 0.90172 0.0
H489 H 0.58371 0.54249 0.03675 0.0
H490 H 0.66889 0.44953 0.98888 0.0
H491 H 0.53951 0.49309 0.95782 0.0
C492 C 0.55568 0.47773 0.91807 0.0
C493 C 0.58817 0.46769 0.90175 0.0
C494 C 0.65035 0.47 -0.00057 0.0
C495 C 0.60679 0.48191 0.95679 0.0
C496 C 0.65861 0.4763 0.02707 0.0
C497 C 0.6347 0.5023 0.04141 0.0
C498 C 0.61736 0.48905 0.98596 0.0
C499 C 0.60248 0.52144 0.02692 0.0
C500 C 0.56499 0.4853 0.94551 0.0
C501 C 0.62969 0.46504 0.91367 0.0
N502 N 0.59459 0.51418 0.0001 0.0
N503 N 0.63775 0.47178 0.94054 0.0
H504 H 0.17342 0.49551 0.22151 0.0
H505 H 1.03988 0.5014 0.3544 0.0
H506 H 1.06807 0.56943 0.22559 0.0
H507 H 0.17747 0.49111 0.35868 0.0
H508 H 1.0443 0.51409 0.30556 0.0
H509 H 0.17014 0.48101 0.27056 0.0
C510 C 0.14951 0.50843 0.23273 0.0
C511 C 0.12107 0.53384 0.21965 0.0
C512 C 1.07355 0.50913 0.31718 0.0
C513 C 0.11686 0.51706 0.27523 0.0
C514 C 1.07101 0.50179 0.34496 0.0
C515 C 0.10841 0.49533 0.36044 0.0
C516 C 0.11356 0.50921 0.30471 0.0
C517 C 0.14804 0.49628 0.34735 0.0
C518 C 0.14783 0.50039 0.26062 0.0
C519 C 0.09072 0.5499 0.23499 0.0
N520 N 0.14955 0.50274 0.32011 0.0
N521 N 0.08923 0.54103 0.26195 0.0
loop_
_geom_bond_atom_site_label_1
_geom_bond_atom_site_label_2
_geom_bond_distance
_geom_bond_site_symmetry_2
_ccdc_geom_bond_type
Nd0 C2 2.836 . S
Nd0 O20 2.500 . S
Nd0 O21 2.492 . S
Nd0 O22 2.487 . S
Nd0 O23 2.680 1_455 S
Nd0 O24 2.410 . S
Nd0 O29 2.414 . S
Nd0 O31 2.424 1_455 S
Nd1 C11 2.836 . S
Nd1 O23 2.413 . S
Nd1 O25 2.424 1_655 S
Nd1 O26 2.500 . S
Nd1 O27 2.492 . S
Nd1 O28 2.487 . S
Nd1 O29 2.682 1_655 S
Nd1 O30 2.410 . S
C2 Nd0 2.836 . S
C2 C3 1.498 . S
C2 O20 1.258 . S
C2 O21 1.239 . S
C3 C2 1.498 . S
C3 C4 1.366 . S
C3 C8 1.407 . S
C4 C3 1.366 . S
C4 C5 1.392 . S
C4 H32 0.930 . S
C5 C4 1.392 . S
C5 C6 1.398 . S
C5 H33 0.929 . S
C6 C5 1.398 . S
C6 C7 1.352 . S
C7 C6 1.352 . S
C7 C8 1.384 . S
C7 H34 0.930 . S
C8 C3 1.407 . S
C8 C7 1.384 . S
C8 H35 0.929 . S
C9 O22 1.241 . S
C9 O23 1.272 1_455 S
C10 O24 1.251 . S
C10 O25 1.268 . S
C11 Nd1 2.836 . S
C11 C12 1.498 . S
C11 O26 1.258 . S
C11 O27 1.239 . S
C12 C11 1.498 . S
C12 C13 1.366 . S
C12 C17 1.407 . S
C13 C12 1.366 . S
C13 C14 1.392 . S
C13 H36 0.930 . S
C14 C13 1.392 . S
C14 C15 1.398 . S
C14 H37 0.929 . S
C15 C14 1.398 . S
C15 C16 1.352 . S
C16 C15 1.352 . S
C16 C17 1.384 . S
C16 H38 0.930 . S
C17 C12 1.407 . S
C17 C16 1.384 . S
C17 H39 0.929 . S
C18 O28 1.241 1_455 S
C18 O29 1.273 . S
C19 O30 1.251 . S
C19 O31 1.268 . S
O20 Nd0 2.500 . S
O20 C2 1.258 . S
O21 Nd0 2.492 . S
O21 C2 1.239 . S
O22 Nd0 2.487 . S
O22 C9 1.241 . S
O23 Nd0 2.680 1_655 S
O23 Nd1 2.413 . S
O23 C9 1.272 1_655 S
O24 Nd0 2.410 . S
O24 C10 1.251 . S
O25 Nd1 2.424 1_455 S
O25 C10 1.268 . S
O26 Nd1 2.500 . S
O26 C11 1.258 . S
O27 Nd1 2.492 . S
O27 C11 1.239 . S
O28 Nd1 2.487 . S
O28 C18 1.241 1_655 S
O29 Nd0 2.414 . S
O29 Nd1 2.682 1_455 S
O29 C18 1.273 . S
O30 Nd1 2.410 . S
O30 C19 1.251 . S
O31 Nd0 2.424 1_655 S
O31 C19 1.268 . S
H32 C4 0.930 . S
H33 C5 0.929 . S
H34 C7 0.930 . S
H35 C8 0.929 . S
H36 C13 0.930 . S
H37 C14 0.929 . S
H38 C16 0.930 . S
H39 C17 0.929 . S
Nd40 C42 2.836 . S
Nd40 O60 2.500 . S
Nd40 O61 2.492 . S
Nd40 O62 2.487 . S
Nd40 O63 2.682 1_565 S
Nd40 O64 2.410 . S
Nd40 O69 2.414 . S
Nd40 O71 2.424 1_565 S
Nd41 C51 2.836 . S
Nd41 O63 2.414 . S
Nd41 O65 2.424 1_545 S
Nd41 O66 2.500 . S
Nd41 O67 2.492 . S
Nd41 O68 2.487 . S
Nd41 O69 2.682 1_545 S
Nd41 O70 2.410 . S
C42 Nd40 2.836 . S
C42 C43 1.498 . S
C42 O60 1.258 . S
C42 O61 1.239 . S
C43 C42 1.498 . S
C43 C44 1.366 . S
C43 C48 1.407 . S
C44 C43 1.366 . S
C44 C45 1.392 . S
C44 H72 0.930 . S
C45 C44 1.392 . S
C45 C46 1.398 . S
C45 H73 0.929 . S
C46 C45 1.398 . S
C46 C47 1.352 . S
C47 C46 1.352 . S
C47 C48 1.384 . S
C47 H74 0.930 . S
C48 C43 1.407 . S
C48 C47 1.384 . S
C48 H75 0.929 . S
C49 O62 1.241 1_545 S
C49 O63 1.273 . S
C50 O64 1.251 . S
C50 O65 1.268 . S
C51 Nd41 2.836 . S
C51 C52 1.498 . S
C51 O66 1.258 . S
C51 O67 1.239 . S
C52 C51 1.498 . S
C52 C53 1.366 . S
C52 C57 1.407 . S
C53 C52 1.366 . S
C53 C54 1.392 . S
C53 H76 0.930 . S
C54 C53 1.392 . S
C54 C55 1.398 . S
C54 H77 0.929 . S
C55 C54 1.398 . S
C55 C56 1.352 . S
C56 C55 1.352 . S
C56 C57 1.384 . S
C56 H78 0.930 . S
C57 C52 1.407 . S
C57 C56 1.384 . S
C57 H79 0.929 . S
C58 O68 1.241 . S
C58 O69 1.273 1_545 S
C59 O70 1.251 . S
C59 O71 1.268 . S
O60 Nd40 2.500 . S
O60 C42 1.258 . S
O61 Nd40 2.492 . S
O61 C42 1.239 . S
O62 Nd40 2.487 . S
O62 C49 1.241 1_565 S
O63 Nd40 2.682 1_545 S
O63 Nd41 2.414 . S
O63 C49 1.273 . S
O64 Nd40 2.410 . S
O64 C50 1.251 . S
O65 Nd41 2.424 1_565 S
O65 C50 1.268 . S
O66 Nd41 2.500 . S
O66 C51 1.258 . S
O67 Nd41 2.492 . S
O67 C51 1.239 . S
O68 Nd41 2.487 . S
O68 C58 1.241 . S
O69 Nd40 2.414 . S
O69 Nd41 2.682 1_565 S
O69 C58 1.273 1_565 S
O70 Nd41 2.410 . S
O70 C59 1.251 . S
O71 Nd40 2.424 1_545 S
O71 C59 1.268 . S
H72 C44 0.930 . S
H73 C45 0.929 . S
H74 C47 0.930 . S
H75 C48 0.929 . S
H76 C53 0.930 . S
H77 C54 0.929 . S
H78 C56 0.930 . S
H79 C57 0.929 . S
Nd80 C82 2.836 . S
Nd80 O100 2.500 . S
Nd80 O101 2.492 . S
Nd80 O102 2.487 . S
Nd80 O103 2.682 . S
Nd80 O104 2.410 . S
Nd80 O109 2.414 . S
Nd80 O111 2.424 . S
Nd81 C91 2.836 . S
Nd81 O103 2.414 . S
Nd81 O105 2.424 . S
Nd81 O106 2.500 . S
Nd81 O107 2.492 . S
Nd81 O108 2.487 . S
Nd81 O109 2.682 . S
Nd81 O110 2.410 . S
C82 Nd80 2.836 . S
C82 C83 1.498 . S
C82 O100 1.258 . S
C82 O101 1.239 . S
C83 C82 1.498 . S
C83 C84 1.366 . S
C83 C88 1.407 . S
C84 C83 1.366 . S
C84 C85 1.392 . S
C84 H112 0.930 . S
C85 C84 1.392 . S
C85 C86 1.398 . S
C85 H113 0.929 . S
C86 C85 1.398 . S
C86 C87 1.352 . S
C87 C86 1.352 . S
C87 C88 1.384 . S
C87 H114 0.930 . S
C88 C83 1.407 . S
C88 C87 1.384 . S
C88 H115 0.929 . S
C89 O102 1.241 . S
C89 O103 1.273 . S
C90 O104 1.251 . S
C90 O105 1.268 . S
C91 Nd81 2.836 . S
C91 C92 1.498 . S
C91 O106 1.258 . S
C91 O107 1.239 . S
C92 C91 1.498 . S
C92 C93 1.366 . S
C92 C97 1.407 . S
C93 C92 1.366 . S
C93 C94 1.392 . S
C93 H116 0.930 . S
C94 C93 1.392 . S
C94 C95 1.398 . S
C94 H117 0.929 . S
C95 C94 1.398 . S
C95 C96 1.352 . S
C96 C95 1.352 . S
C96 C97 1.384 . S
C96 H118 0.930 . S
C97 C92 1.407 . S
C97 C96 1.384 . S
C97 H119 0.929 . S
C98 O108 1.241 . S
C98 O109 1.273 . S
C99 O110 1.251 . S
C99 O111 1.268 . S
O100 Nd80 2.500 . S
O100 C82 1.258 . S
O101 Nd80 2.492 . S
O101 C82 1.239 . S
O102 Nd80 2.487 . S
O102 C89 1.241 . S
O103 Nd80 2.682 . S
O103 Nd81 2.414 . S
O103 C89 1.273 . S
O104 Nd80 2.410 . S
O104 C90 1.251 . S
O105 Nd81 2.424 . S
O105 C90 1.268 . S
O106 Nd81 2.500 . S
O106 C91 1.258 . S
O107 Nd81 2.492 . S
O107 C91 1.239 . S
O108 Nd81 2.487 . S
O108 C98 1.241 . S
O109 Nd80 2.414 . S
O109 Nd81 2.682 . S
O109 C98 1.273 . S
O110 Nd81 2.410 . S
O110 C99 1.251 . S
O111 Nd80 2.424 . S
O111 C99 1.268 . S
H112 C84 0.930 . S
H113 C85 0.929 . S
H114 C87 0.930 . S
H115 C88 0.929 . S
H116 C93 0.930 . S
H117 C94 0.929 . S
H118 C96 0.930 . S
H119 C97 0.929 . S
H120 C127 0.929 . S
H121 C130 0.930 . S
H122 C132 0.929 . S
H123 C124 0.969 . S
C124 H123 0.969 . S
C124 O125 1.550 . S
C124 H126 0.973 . S
O125 C124 1.550 . S
O125 C131 1.412 . S
H126 C124 0.973 . S
C127 H120 0.929 . S
C127 C128 1.400 . S
C127 C129 1.364 . S
C128 C127 1.400 . S
C128 C132 1.377 . S
C129 C127 1.364 . S
C129 C130 1.374 1_545 S
C130 H121 0.930 . S
C130 C129 1.374 1_565 S
C130 C131 1.383 . S
C131 O125 1.412 . S
C131 C130 1.383 . S
C131 C132 1.394 1_565 S
C132 H122 0.929 . S
C132 C128 1.377 . S
C132 C131 1.394 1_545 S
H133 C140 0.929 . S
H134 C143 0.930 . S
H135 C145 0.929 . S
H136 C137 0.969 . S
C137 H136 0.969 . S
C137 O138 1.550 . S
C137 H139 0.973 . S
O138 C137 1.550 . S
O138 C144 1.412 . S
H139 C137 0.973 . S
C140 H133 0.929 . S
C140 C141 1.400 . S
C140 C142 1.364 . S
C141 C140 1.400 . S
C141 C145 1.377 . S
C142 C140 1.364 . S
C142 C143 1.374 . S
C143 H134 0.930 . S
C143 C142 1.374 . S
C143 C144 1.383 . S
C144 O138 1.412 . S
C144 C143 1.383 . S
C144 C145 1.394 . S
C145 H135 0.929 . S
C145 C141 1.377 . S
C145 C144 1.394 . S
H146 C153 0.929 1_655 S
H147 C156 0.930 . S
H148 C158 0.929 . S
H149 C150 0.969 . S
C150 H149 0.969 . S
C150 O151 1.550 . S
C150 H152 0.973 . S
O151 C150 1.550 . S
O151 C157 1.412 . S
H152 C150 0.973 . S
C153 H146 0.929 1_455 S
C153 C154 1.400 . S
C153 C155 1.364 . S
C154 C153 1.400 . S
C154 C158 1.377 . S
C155 C153 1.364 . S
C155 C156 1.374 . S
C156 H147 0.930 . S
C156 C155 1.374 . S
C156 C157 1.383 . S
C157 O151 1.412 . S
C157 C156 1.383 . S
C157 C158 1.394 . S
C158 H148 0.929 . S
C158 C154 1.377 . S
C158 C157 1.394 . S
H159 C166 0.929 . S
H160 C169 0.930 . S
H161 C171 0.929 . S
H162 C163 0.969 . S
C163 H162 0.969 . S
C163 O164 1.550 . S
C163 H165 0.973 . S
O164 C163 1.550 . S
O164 C170 1.412 . S
H165 C163 0.973 . S
C166 H159 0.929 . S
C166 C167 1.400 . S
C166 C168 1.364 1_655 S
C167 C166 1.400 . S
C167 C171 1.377 1_655 S
C168 C166 1.364 1_455 S
C168 C169 1.374 . S
C169 H160 0.930 . S
C169 C168 1.374 . S
C169 C170 1.383 . S
C170 O164 1.412 . S
C170 C169 1.383 . S
C170 C171 1.394 . S
C171 H161 0.929 . S
C171 C167 1.377 1_455 S
C171 C170 1.394 . S
H172 C179 0.929 . S
H173 C182 0.930 . S
H174 C184 0.929 . S
H175 C176 0.969 . S
C176 H175 0.969 . S
C176 O177 1.550 . S
C176 H178 0.973 . S
O177 C176 1.550 . S
O177 C183 1.412 . S
H178 C176 0.973 . S
C179 H172 0.929 . S
C179 C180 1.400 . S
C179 C181 1.364 . S
C180 C179 1.400 . S
C180 C184 1.377 . S
C181 C179 1.364 . S
C181 C182 1.374 1_565 S
C182 H173 0.930 . S
C182 C181 1.374 1_545 S
C182 C183 1.383 . S
C183 O177 1.412 . S
C183 C182 1.383 . S
C183 C184 1.394 1_545 S
C184 H174 0.929 . S
C184 C180 1.377 . S
C184 C183 1.394 1_565 S
H185 C192 0.929 . S
H186 C195 0.930 . S
H187 C197 0.929 . S
H188 C189 0.969 . S
C189 H188 0.969 . S
C189 O190 1.550 . S
C189 H191 0.973 . S
O190 C189 1.550 . S
O190 C196 1.412 . S
H191 C189 0.973 . S
C192 H185 0.929 . S
C192 C193 1.400 . S
C192 C194 1.364 . S
C193 C192 1.400 . S
C193 C197 1.377 . S
C194 C192 1.364 . S
C194 C195 1.374 . S
C195 H186 0.930 . S
C195 C194 1.374 . S
C195 C196 1.383 . S
C196 O190 1.412 . S
C196 C195 1.383 . S
C196 C197 1.394 . S
C197 H187 0.929 . S
C197 C193 1.377 . S
C197 C196 1.394 . S
H198 C204 0.930 . S
H199 C208 0.930 . S
H200 C213 0.929 . S
H201 C211 0.929 . S
H202 C206 0.929 . S
H203 C212 0.929 . S
C204 H198 0.930 . S
C204 C205 1.367 . S
C204 C212 1.378 . S
C205 C204 1.367 . S
C205 C213 1.433 . S
C206 H202 0.929 . S
C206 C208 1.378 . S
C206 C210 1.350 . S
C207 C210 1.463 . S
C207 C212 1.350 . S
C207 N215 1.427 . S
C208 H199 0.930 . S
C208 C206 1.378 . S
C208 C209 1.367 . S
C209 C208 1.367 . S
C209 C211 1.433 . S
C210 C206 1.350 . S
C210 C207 1.463 . S
C210 N214 1.427 . S
C211 H201 0.929 . S
C211 C209 1.433 . S
C211 N214 1.384 . S
C212 H203 0.929 . S
C212 C204 1.378 . S
C212 C207 1.350 . S
C213 H200 0.929 . S
C213 C205 1.433 . S
C213 N215 1.384 . S
N214 C210 1.427 . S
N214 C211 1.384 . S
N215 C207 1.427 . S
N215 C213 1.384 . S
H216 C222 0.930 . S
H217 C226 0.930 . S
H218 C231 0.929 . S
H219 C229 0.929 . S
H220 C224 0.929 . S
H221 C230 0.929 . S
C222 H216 0.930 . S
C222 C223 1.367 . S
C222 C230 1.378 . S
C223 C222 1.367 . S
C223 C231 1.433 . S
C224 H220 0.929 . S
C224 C226 1.378 . S
C224 C228 1.350 . S
C225 C228 1.463 . S
C225 C230 1.350 . S
C225 N233 1.427 . S
C226 H217 0.930 . S
C226 C224 1.378 . S
C226 C227 1.367 . S
C227 C226 1.367 . S
C227 C229 1.433 . S
C228 C224 1.350 . S
C228 C225 1.463 . S
C228 N232 1.427 . S
C229 H219 0.929 . S
C229 C227 1.433 . S
C229 N232 1.384 . S
C230 H221 0.929 . S
C230 C222 1.378 . S
C230 C225 1.350 . S
C231 H218 0.929 . S
C231 C223 1.433 . S
C231 N233 1.384 . S
N232 C228 1.427 . S
N232 C229 1.384 . S
N233 C225 1.427 . S
N233 C231 1.384 . S
H234 C240 0.930 . S
H235 C244 0.930 . S
H236 C249 0.929 . S
H237 C247 0.929 . S
H238 C242 0.929 . S
H239 C248 0.929 . S
C240 H234 0.930 . S
C240 C241 1.367 . S
C240 C248 1.378 . S
C241 C240 1.367 . S
C241 C249 1.433 . S
C242 H238 0.929 . S
C242 C244 1.378 . S
C242 C246 1.350 . S
C243 C246 1.463 . S
C243 C248 1.350 . S
C243 N251 1.427 . S
C244 H235 0.930 . S
C244 C242 1.378 . S
C244 C245 1.367 . S
C245 C244 1.367 . S
C245 C247 1.433 . S
C246 C242 1.350 . S
C246 C243 1.463 . S
C246 N250 1.427 . S
C247 H237 0.929 . S
C247 C245 1.433 . S
C247 N250 1.384 . S
C248 H239 0.929 . S
C248 C240 1.378 . S
C248 C243 1.350 . S
C249 H236 0.929 . S
C249 C241 1.433 . S
C249 N251 1.384 . S
N250 C246 1.427 . S
N250 C247 1.384 . S
N251 C243 1.427 . S
N251 C249 1.384 . S
H252 C258 0.930 . S
H253 C262 0.930 . S
H254 C267 0.929 . S
H255 C265 0.929 . S
H256 C260 0.929 . S
H257 C266 0.929 . S
C258 H252 0.930 . S
C258 C259 1.367 . S
C258 C266 1.378 . S
C259 C258 1.367 . S
C259 C267 1.433 . S
C260 H256 0.929 . S
C260 C262 1.378 . S
C260 C264 1.350 . S
C261 C264 1.463 . S
C261 C266 1.350 . S
C261 N269 1.427 . S
C262 H253 0.930 . S
C262 C260 1.378 . S
C262 C263 1.367 . S
C263 C262 1.367 . S
C263 C265 1.433 . S
C264 C260 1.350 . S
C264 C261 1.463 . S
C264 N268 1.427 . S
C265 H255 0.929 . S
C265 C263 1.433 . S
C265 N268 1.384 . S
C266 H257 0.929 . S
C266 C258 1.378 . S
C266 C261 1.350 . S
C267 H254 0.929 . S
C267 C259 1.433 . S
C267 N269 1.384 . S
N268 C264 1.427 . S
N268 C265 1.384 . S
N269 C261 1.427 . S
N269 C267 1.384 . S
H270 C276 0.930 . S
H271 C280 0.930 . S
H272 C285 0.929 . S
H273 C283 0.929 . S
H274 C278 0.929 . S
H275 C284 0.929 . S
C276 H270 0.930 . S
C276 C277 1.367 . S
C276 C284 1.378 . S
C277 C276 1.367 . S
C277 C285 1.433 . S
C278 H274 0.929 . S
C278 C280 1.378 . S
C278 C282 1.350 . S
C279 C282 1.463 . S
C279 C284 1.350 . S
C279 N287 1.427 . S
C280 H271 0.930 . S
C280 C278 1.378 . S
C280 C281 1.367 . S
C281 C280 1.367 . S
C281 C283 1.433 . S
C282 C278 1.350 . S
C282 C279 1.463 . S
C282 N286 1.427 . S
C283 H273 0.929 . S
C283 C281 1.433 . S
C283 N286 1.384 . S
C284 H275 0.929 . S
C284 C276 1.378 . S
C284 C279 1.350 . S
C285 H272 0.929 . S
C285 C277 1.433 . S
C285 N287 1.384 . S
N286 C282 1.427 . S
N286 C283 1.384 . S
N287 C279 1.427 . S
N287 C285 1.384 . S
H288 C294 0.930 . S
H289 C298 0.930 . S
H290 C303 0.929 . S
H291 C301 0.929 . S
H292 C296 0.929 . S
H293 C302 0.929 . S
C294 H288 0.930 . S
C294 C295 1.367 . S
C294 C302 1.378 . S
C295 C294 1.367 . S
C295 C303 1.433 . S
C296 H292 0.929 . S
C296 C298 1.378 . S
C296 C300 1.350 . S
C297 C300 1.463 . S
C297 C302 1.350 . S
C297 N305 1.427 . S
C298 H289 0.930 . S
C298 C296 1.378 . S
C298 C299 1.367 . S
C299 C298 1.367 . S
C299 C301 1.433 . S
C300 C296 1.350 . S
C300 C297 1.463 . S
C300 N304 1.427 . S
C301 H291 0.929 . S
C301 C299 1.433 . S
C301 N304 1.384 . S
C302 H293 0.929 . S
C302 C294 1.378 . S
C302 C297 1.350 . S
C303 H290 0.929 . S
C303 C295 1.433 . S
C303 N305 1.384 . S
N304 C300 1.427 . S
N304 C301 1.384 . S
N305 C297 1.427 . S
N305 C303 1.384 . S
H306 C312 0.930 . S
H307 C316 0.930 . S
H308 C321 0.929 . S
H309 C319 0.929 . S
H310 C314 0.929 . S
H311 C320 0.929 . S
C312 H306 0.930 . S
C312 C313 1.367 . S
C312 C320 1.378 . S
C313 C312 1.367 . S
C313 C321 1.433 . S
C314 H310 0.929 . S
C314 C316 1.378 . S
C314 C318 1.350 . S
C315 C318 1.463 . S
C315 C320 1.350 . S
C315 N323 1.427 . S
C316 H307 0.930 . S
C316 C314 1.378 . S
C316 C317 1.367 . S
C317 C316 1.367 . S
C317 C319 1.433 . S
C318 C314 1.350 . S
C318 C315 1.463 . S
C318 N322 1.427 . S
C319 H309 0.929 . S
C319 C317 1.433 . S
C319 N322 1.384 . S
C320 H311 0.929 . S
C320 C312 1.378 . S
C320 C315 1.350 . S
C321 H308 0.929 . S
C321 C313 1.433 . S
C321 N323 1.384 . S
N322 C318 1.427 . S
N322 C319 1.384 . S
N323 C315 1.427 . S
N323 C321 1.384 . S
H324 C330 0.930 . S
H325 C334 0.930 1_455 S
H326 C339 0.929 . S
H327 C337 0.929 . S
H328 C332 0.929 . S
H329 C338 0.929 . S
C330 H324 0.930 . S
C330 C331 1.367 . S
C330 C338 1.378 . S
C331 C330 1.367 . S
C331 C339 1.433 . S
C332 H328 0.929 . S
C332 C334 1.378 . S
C332 C336 1.350 . S
C333 C336 1.463 . S
C333 C338 1.350 . S
C333 N341 1.427 . S
C334 H325 0.930 1_655 S
C334 C332 1.378 . S
C334 C335 1.367 1_655 S
C335 C334 1.367 1_455 S
C335 C337 1.433 1_455 S
C336 C332 1.350 . S
C336 C333 1.463 . S
C336 N340 1.427 . S
C337 H327 0.929 . S
C337 C335 1.433 1_655 S
C337 N340 1.384 . S
C338 H329 0.929 . S
C338 C330 1.378 . S
C338 C333 1.350 . S
C339 H326 0.929 . S
C339 C331 1.433 . S
C339 N341 1.384 . S
N340 C336 1.427 . S
N340 C337 1.384 . S
N341 C333 1.427 . S
N341 C339 1.384 . S
H342 C348 0.930 . S
H343 C352 0.930 . S
H344 C357 0.929 . S
H345 C355 0.929 . S
H346 C350 0.929 . S
H347 C356 0.929 . S
C348 H342 0.930 . S
C348 C349 1.367 . S
C348 C356 1.378 . S
C349 C348 1.367 . S
C349 C357 1.433 . S
C350 H346 0.929 . S
C350 C352 1.378 . S
C350 C354 1.350 . S
C351 C354 1.463 . S
C351 C356 1.350 . S
C351 N359 1.427 . S
C352 H343 0.930 . S
C352 C350 1.378 . S
C352 C353 1.367 . S
C353 C352 1.367 . S
C353 C355 1.433 . S
C354 C350 1.350 . S
C354 C351 1.463 . S
C354 N358 1.427 . S
C355 H345 0.929 . S
C355 C353 1.433 . S
C355 N358 1.384 . S
C356 H347 0.929 . S
C356 C348 1.378 . S
C356 C351 1.350 . S
C357 H344 0.929 . S
C357 C349 1.433 . S
C357 N359 1.384 . S
N358 C354 1.427 . S
N358 C355 1.384 . S
N359 C351 1.427 . S
N359 C357 1.384 . S
H360 C366 0.930 . S
H361 C370 0.930 . S
H362 C375 0.929 . S
H363 C373 0.929 . S
H364 C368 0.929 . S
H365 C374 0.929 . S
C366 H360 0.930 . S
C366 C367 1.367 . S
C366 C374 1.378 . S
C367 C366 1.367 . S
C367 C375 1.433 . S
C368 H364 0.929 . S
C368 C370 1.378 . S
C368 C372 1.350 . S
C369 C372 1.463 . S
C369 C374 1.350 . S
C369 N377 1.427 . S
C370 H361 0.930 . S
C370 C368 1.378 . S
C370 C371 1.367 . S
C371 C370 1.367 . S
C371 C373 1.433 . S
C372 C368 1.350 . S
C372 C369 1.463 . S
C372 N376 1.427 . S
C373 H363 0.929 . S
C373 C371 1.433 . S
C373 N376 1.384 . S
C374 H365 0.929 . S
C374 C366 1.378 . S
C374 C369 1.350 . S
C375 H362 0.929 . S
C375 C367 1.433 . S
C375 N377 1.384 . S
N376 C372 1.427 . S
N376 C373 1.384 . S
N377 C369 1.427 . S
N377 C375 1.384 . S
H378 C384 0.930 . S
H379 C388 0.930 . S
H380 C393 0.929 . S
H381 C391 0.929 . S
H382 C386 0.929 . S
H383 C392 0.929 . S
C384 H378 0.930 . S
C384 C385 1.367 . S
C384 C392 1.378 . S
C385 C384 1.367 . S
C385 C393 1.433 . S
C386 H382 0.929 . S
C386 C388 1.378 . S
C386 C390 1.350 . S
C387 C390 1.463 . S
C387 C392 1.350 . S
C387 N395 1.427 . S
C388 H379 0.930 . S
C388 C386 1.378 . S
C388 C389 1.367 . S
C389 C388 1.367 . S
C389 C391 1.433 . S
C390 C386 1.350 . S
C390 C387 1.463 . S
C390 N394 1.427 . S
C391 H381 0.929 . S
C391 C389 1.433 . S
C391 N394 1.384 . S
C392 H383 0.929 . S
C392 C384 1.378 . S
C392 C387 1.350 . S
C393 H380 0.929 . S
C393 C385 1.433 . S
C393 N395 1.384 . S
N394 C390 1.427 . S
N394 C391 1.384 . S
N395 C387 1.427 . S
N395 C393 1.384 . S
H396 C402 0.930 . S
H397 C406 0.930 . S
H398 C411 0.929 . S
H399 C409 0.929 . S
H400 C404 0.929 . S
H401 C410 0.929 . S
C402 H396 0.930 . S
C402 C403 1.367 . S
C402 C410 1.378 . S
C403 C402 1.367 . S
C403 C411 1.433 . S
C404 H400 0.929 . S
C404 C406 1.378 . S
C404 C408 1.350 . S
C405 C408 1.463 . S
C405 C410 1.350 . S
C405 N413 1.427 . S
C406 H397 0.930 . S
C406 C404 1.378 . S
C406 C407 1.367 . S
C407 C406 1.367 . S
C407 C409 1.433 . S
C408 C404 1.350 . S
C408 C405 1.463 . S
C408 N412 1.427 . S
C409 H399 0.929 . S
C409 C407 1.433 . S
C409 N412 1.384 . S
C410 H401 0.929 . S
C410 C402 1.378 . S
C410 C405 1.350 . S
C411 H398 0.929 . S
C411 C403 1.433 . S
C411 N413 1.384 . S
N412 C408 1.427 . S
N412 C409 1.384 . S
N413 C405 1.427 . S
N413 C411 1.384 . S
H414 C420 0.930 . S
H415 C424 0.930 1_655 S
H416 C429 0.929 . S
H417 C427 0.929 . S
H418 C422 0.929 1_655 S
H419 C428 0.929 . S
C420 H414 0.930 . S
C420 C421 1.367 . S
C420 C428 1.378 . S
C421 C420 1.367 . S
C421 C429 1.433 1_455 S
C422 H418 0.929 1_455 S
C422 C424 1.378 . S
C422 C426 1.350 1_556 S
C423 C426 1.463 . S
C423 C428 1.350 . S
C423 N431 1.427 1_455 S
C424 H415 0.930 1_455 S
C424 C422 1.378 . S
C424 C425 1.367 . S
C425 C424 1.367 . S
C425 C427 1.433 . S
C426 C422 1.350 1_554 S
C426 C423 1.463 . S
C426 N430 1.427 1_554 S
C427 H417 0.929 . S
C427 C425 1.433 . S
C427 N430 1.384 . S
C428 H419 0.929 . S
C428 C420 1.378 . S
C428 C423 1.350 . S
C429 H416 0.929 . S
C429 C421 1.433 1_655 S
C429 N431 1.384 . S
N430 C426 1.427 1_556 S
N430 C427 1.384 . S
N431 C423 1.427 1_655 S
N431 C429 1.384 . S
H432 C438 0.930 . S
H433 C442 0.930 . S
H434 C447 0.929 . S
H435 C445 0.929 . S
H436 C440 0.929 . S
H437 C446 0.929 . S
C438 H432 0.930 . S
C438 C439 1.367 . S
C438 C446 1.378 . S
C439 C438 1.367 . S
C439 C447 1.433 1_545 S
C440 H436 0.929 . S
C440 C442 1.378 . S
C440 C444 1.350 1_565 S
C441 C444 1.463 . S
C441 C446 1.350 . S
C441 N449 1.427 1_545 S
C442 H433 0.930 . S
C442 C440 1.378 . S
C442 C443 1.367 1_565 S
C443 C442 1.367 1_545 S
C443 C445 1.433 . S
C444 C440 1.350 1_545 S
C444 C441 1.463 . S
C444 N448 1.427 . S
C445 H435 0.929 . S
C445 C443 1.433 . S
C445 N448 1.384 . S
C446 H437 0.929 . S
C446 C438 1.378 . S
C446 C441 1.350 . S
C447 H434 0.929 . S
C447 C439 1.433 1_565 S
C447 N449 1.384 . S
N448 C444 1.427 . S
N448 C445 1.384 . S
N449 C441 1.427 1_565 S
N449 C447 1.384 . S
H450 C456 0.930 . S
H451 C460 0.930 . S
H452 C465 0.929 . S
H453 C463 0.929 . S
H454 C458 0.929 . S
H455 C464 0.929 . S
C456 H450 0.930 . S
C456 C457 1.367 . S
C456 C464 1.378 . S
C457 C456 1.367 . S
C457 C465 1.433 . S
C458 H454 0.929 . S
C458 C460 1.378 . S
C458 C462 1.350 . S
C459 C462 1.463 . S
C459 C464 1.350 . S
C459 N467 1.427 . S
C460 H451 0.930 . S
C460 C458 1.378 . S
C460 C461 1.367 . S
C461 C460 1.367 . S
C461 C463 1.433 . S
C462 C458 1.350 . S
C462 C459 1.463 . S
C462 N466 1.427 . S
C463 H453 0.929 . S
C463 C461 1.433 . S
C463 N466 1.384 . S
C464 H455 0.929 . S
C464 C456 1.378 . S
C464 C459 1.350 . S
C465 H452 0.929 . S
C465 C457 1.433 . S
C465 N467 1.384 . S
N466 C462 1.427 . S
N466 C463 1.384 . S
N467 C459 1.427 . S
N467 C465 1.384 . S
H468 C474 0.930 . S
H469 C478 0.930 . S
H470 C483 0.929 . S
H471 C481 0.929 . S
H472 C476 0.929 . S
H473 C482 0.929 . S
C474 H468 0.930 . S
C474 C475 1.367 . S
C474 C482 1.378 . S
C475 C474 1.367 . S
C475 C483 1.433 1_565 S
C476 H472 0.929 . S
C476 C478 1.378 . S
C476 C480 1.354 . S
C477 C480 1.461 1_565 S
C477 C482 1.350 . S
C477 N485 1.427 1_565 S
C478 H469 0.930 . S
C478 C476 1.378 . S
C478 C479 1.367 . S
C479 C478 1.367 . S
C479 C481 1.433 1_545 S
C480 C476 1.354 . S
C480 C477 1.461 1_545 S
C480 N484 1.424 1_545 S
C481 H471 0.929 . S
C481 C479 1.433 1_565 S
C481 N484 1.384 . S
C482 H473 0.929 . S
C482 C474 1.378 . S
C482 C477 1.350 . S
C483 H470 0.929 . S
C483 C475 1.433 1_545 S
C483 N485 1.384 . S
N484 C480 1.424 1_565 S
N484 C481 1.384 . S
N485 C477 1.427 1_545 S
N485 C483 1.384 . S
H486 C492 0.930 . S
H487 C496 0.930 . S
H488 C501 0.929 . S
H489 C499 0.929 . S
H490 C494 0.929 . S
H491 C500 0.929 . S
C492 H486 0.930 . S
C492 C493 1.367 . S
C492 C500 1.378 . S
C493 C492 1.367 . S
C493 C501 1.433 . S
C494 H490 0.929 . S
C494 C496 1.378 . S
C494 C498 1.350 . S
C495 C498 1.463 1_556 S
C495 C500 1.350 . S
C495 N503 1.427 . S
C496 H487 0.930 . S
C496 C494 1.378 . S
C496 C497 1.367 . S
C497 C496 1.367 . S
C497 C499 1.433 . S
C498 C494 1.350 . S
C498 C495 1.463 1_554 S
C498 N502 1.427 . S
C499 H489 0.929 . S
C499 C497 1.433 . S
C499 N502 1.384 . S
C500 H491 0.929 . S
C500 C492 1.378 . S
C500 C495 1.350 . S
C501 H488 0.929 . S
C501 C493 1.433 . S
C501 N503 1.384 . S
N502 C498 1.427 . S
N502 C499 1.384 . S
N503 C495 1.427 . S
N503 C501 1.384 . S
H504 C510 0.930 . S
H505 C514 0.930 . S
H506 C519 0.929 . S
H507 C517 0.929 . S
H508 C512 0.929 . S
H509 C518 0.929 . S
C510 H504 0.930 . S
C510 C511 1.367 . S
C510 C518 1.378 . S
C511 C510 1.367 . S
C511 C519 1.433 1_455 S
C512 H508 0.929 . S
C512 C514 1.378 . S
C512 C516 1.350 1_655 S
C513 C516 1.463 . S
C513 C518 1.350 . S
C513 N521 1.427 1_455 S
C514 H505 0.930 . S
C514 C512 1.378 . S
C514 C515 1.367 1_655 S
C515 C514 1.367 1_455 S
C515 C517 1.433 . S
C516 C512 1.350 1_455 S
C516 C513 1.463 . S
C516 N520 1.427 . S
C517 H507 0.929 . S
C517 C515 1.433 . S
C517 N520 1.384 . S
C518 H509 0.929 . S
C518 C510 1.378 . S
C518 C513 1.350 . S
C519 H506 0.929 . S
C519 C511 1.433 1_655 S
C519 N521 1.384 . S
N520 C516 1.427 . S
N520 C517 1.384 . S
N521 C513 1.427 1_655 S
N521 C519 1.384 . S
C205 C10 3.160 . S
C209 C189 2.953 . S
C223 C55 1.098 . S
C227 C167 1.091 . S
C241 C90 1.842 . S
C245 C180 1.829 . S
C259 C19 2.938 . S
C263 C193 2.924 . S
C281 C163 1.353 . S
C277 C46 1.375 . S
C299 C176 1.903 . S
C295 C99 2.039 . S
C313 C50 1.840 . S
C317 C141 1.815 . S
C331 C95 0.409 . S
C335 C154 0.387 . S
C349 C6 1.307 . S
C353 C124 1.250 . S
C371 C137 1.880 . S
C367 C59 2.018 . S
C389 C150 0.537 . S
C385 C86 0.614 . S
C403 C15 1.162 . S
C407 C128 1.164 . S
C425 C155 1.254 . S
C421 C18 1.241 . S
C439 C49 1.474 . S
C443 C129 1.547 . S
C457 C98 1.458 . S
C461 C142 1.487 . S
C479 C181 1.494 1_545 S
C475 C58 1.464 1_565 S
C497 C194 1.756 . S
C493 C89 1.664 . S
C511 C9 1.499 . S
C515 C168 1.575 . S
