# Generated by pormake.
# Topology eea, (3,6)-cn, num edge types: 1
# Building blocks:
#     Node 0, Type 0, BuildingBlock: BETDAH_clean_linker_0, # of connection points: 3
#     Node 1, Type 0, BuildingBlock: BETDAH_clean_linker_0, # of connection points: 3
#     Node 2, Type 0, BuildingBlock: BETDAH_clean_linker_0, # of connection points: 3
#     Node 3, Type 0, BuildingBlock: BETDAH_clean_linker_0, # of connection points: 3
#     Node 4, Type 0, BuildingBlock: BETDAH_clean_linker_0, # of connection points: 3
#     Node 5, Type 0, BuildingBlock: BETDAH_clean_linker_0, # of connection points: 3
#     Node 6, Type 0, BuildingBlock: BETDAH_clean_linker_0, # of connection points: 3
#     Node 7, Type 0, BuildingBlock: BETDAH_clean_linker_0, # of connection points: 3
#     Node 8, Type 0, BuildingBlock: BETDAH_clean_linker_0, # of connection points: 3
#     Node 9, Type 0, BuildingBlock: BETDAH_clean_linker_0, # of connection points: 3
#     Node 10, Type 0, BuildingBlock: BETDAH_clean_linker_0, # of connection points: 3
#     Node 11, Type 0, BuildingBlock: BETDAH_clean_linker_0, # of connection points: 3
#     Node 12, Type 0, BuildingBlock: BETDAH_clean_linker_0, # of connection points: 3
#     Node 13, Type 0, BuildingBlock: BETDAH_clean_linker_0, # of connection points: 3
#     Node 14, Type 0, BuildingBlock: BETDAH_clean_linker_0, # of connection points: 3
#     Node 15, Type 0, BuildingBlock: BETDAH_clean_linker_0, # of connection points: 3
#     Node 16, Type 0, BuildingBlock: BETDAH_clean_linker_0, # of connection points: 3
#     Node 17, Type 0, BuildingBlock: BETDAH_clean_linker_0, # of connection points: 3
#     Node 18, Type 1, BuildingBlock: KUMBUR_clean_sbu_0, # of connection points: 6
#     Node 19, Type 1, BuildingBlock: KUMBUR_clean_sbu_0, # of connection points: 6
#     Node 20, Type 1, BuildingBlock: KUMBUR_clean_sbu_0, # of connection points: 6
#     Node 21, Type 1, BuildingBlock: KUMBUR_clean_sbu_0, # of connection points: 6
#     Node 22, Type 1, BuildingBlock: KUMBUR_clean_sbu_0, # of connection points: 6
#     Node 23, Type 1, BuildingBlock: KUMBUR_clean_sbu_0, # of connection points: 6
#     Node 24, Type 1, BuildingBlock: KUMBUR_clean_sbu_0, # of connection points: 6
#     Node 25, Type 1, BuildingBlock: KUMBUR_clean_sbu_0, # of connection points: 6
#     Node 26, Type 1, BuildingBlock: KUMBUR_clean_sbu_0, # of connection points: 6
#     Edge 27, Type (0, 1), BuildingBlock: AJUNOK_clean_linker_0, # of connection points: 2
#     Edge 28, Type (0, 1), BuildingBlock: AJUNOK_clean_linker_0, # of connection points: 2
#     Edge 29, Type (0, 1), BuildingBlock: AJUNOK_clean_linker_0, # of connection points: 2
#     Edge 30, Type (0, 1), BuildingBlock: AJUNOK_clean_linker_0, # of connection points: 2
#     Edge 31, Type (0, 1), BuildingBlock: AJUNOK_clean_linker_0, # of connection points: 2
#     Edge 32, Type (0, 1), BuildingBlock: AJUNOK_clean_linker_0, # of connection points: 2
#     Edge 33, Type (0, 1), BuildingBlock: AJUNOK_clean_linker_0, # of connection points: 2
#     Edge 34, Type (0, 1), BuildingBlock: AJUNOK_clean_linker_0, # of connection points: 2
#     Edge 35, Type (0, 1), BuildingBlock: AJUNOK_clean_linker_0, # of connection points: 2
#     Edge 36, Type (0, 1), BuildingBlock: AJUNOK_clean_linker_0, # of connection points: 2
#     Edge 37, Type (0, 1), BuildingBlock: AJUNOK_clean_linker_0, # of connection points: 2
#     Edge 38, Type (0, 1), BuildingBlock: AJUNOK_clean_linker_0, # of connection points: 2
#     Edge 39, Type (0, 1), BuildingBlock: AJUNOK_clean_linker_0, # of connection points: 2
#     Edge 40, Type (0, 1), BuildingBlock: AJUNOK_clean_linker_0, # of connection points: 2
#     Edge 41, Type (0, 1), BuildingBlock: AJUNOK_clean_linker_0, # of connection points: 2
#     Edge 42, Type (0, 1), BuildingBlock: AJUNOK_clean_linker_0, # of connection points: 2
#     Edge 43, Type (0, 1), BuildingBlock: AJUNOK_clean_linker_0, # of connection points: 2
#     Edge 44, Type (0, 1), BuildingBlock: AJUNOK_clean_linker_0, # of connection points: 2
#     Edge 45, Type (0, 1), BuildingBlock: AJUNOK_clean_linker_0, # of connection points: 2
#     Edge 46, Type (0, 1), BuildingBlock: AJUNOK_clean_linker_0, # of connection points: 2
#     Edge 47, Type (0, 1), BuildingBlock: AJUNOK_clean_linker_0, # of connection points: 2
#     Edge 48, Type (0, 1), BuildingBlock: AJUNOK_clean_linker_0, # of connection points: 2
#     Edge 49, Type (0, 1), BuildingBlock: AJUNOK_clean_linker_0, # of connection points: 2
#     Edge 50, Type (0, 1), BuildingBlock: AJUNOK_clean_linker_0, # of connection points: 2
#     Edge 51, Type (0, 1), BuildingBlock: AJUNOK_clean_linker_0, # of connection points: 2
#     Edge 52, Type (0, 1), BuildingBlock: AJUNOK_clean_linker_0, # of connection points: 2
#     Edge 53, Type (0, 1), BuildingBlock: AJUNOK_clean_linker_0, # of connection points: 2
#     Edge 54, Type (0, 1), BuildingBlock: AJUNOK_clean_linker_0, # of connection points: 2
#     Edge 55, Type (0, 1), BuildingBlock: AJUNOK_clean_linker_0, # of connection points: 2
#     Edge 56, Type (0, 1), BuildingBlock: AJUNOK_clean_linker_0, # of connection points: 2
#     Edge 57, Type (0, 1), BuildingBlock: AJUNOK_clean_linker_0, # of connection points: 2
#     Edge 58, Type (0, 1), BuildingBlock: AJUNOK_clean_linker_0, # of connection points: 2
#     Edge 59, Type (0, 1), BuildingBlock: AJUNOK_clean_linker_0, # of connection points: 2
#     Edge 60, Type (0, 1), BuildingBlock: AJUNOK_clean_linker_0, # of connection points: 2
#     Edge 61, Type (0, 1), BuildingBlock: AJUNOK_clean_linker_0, # of connection points: 2
#     Edge 62, Type (0, 1), BuildingBlock: AJUNOK_clean_linker_0, # of connection points: 2
#     Edge 63, Type (0, 1), BuildingBlock: AJUNOK_clean_linker_0, # of connection points: 2
#     Edge 64, Type (0, 1), BuildingBlock: AJUNOK_clean_linker_0, # of connection points: 2
#     Edge 65, Type (0, 1), BuildingBlock: AJUNOK_clean_linker_0, # of connection points: 2
#     Edge 66, Type (0, 1), BuildingBlock: AJUNOK_clean_linker_0, # of connection points: 2
#     Edge 67, Type (0, 1), BuildingBlock: AJUNOK_clean_linker_0, # of connection points: 2
#     Edge 68, Type (0, 1), BuildingBlock: AJUNOK_clean_linker_0, # of connection points: 2
#     Edge 69, Type (0, 1), BuildingBlock: AJUNOK_clean_linker_0, # of connection points: 2
#     Edge 70, Type (0, 1), BuildingBlock: AJUNOK_clean_linker_0, # of connection points: 2
#     Edge 71, Type (0, 1), BuildingBlock: AJUNOK_clean_linker_0, # of connection points: 2
#     Edge 72, Type (0, 1), BuildingBlock: AJUNOK_clean_linker_0, # of connection points: 2
#     Edge 73, Type (0, 1), BuildingBlock: AJUNOK_clean_linker_0, # of connection points: 2
#     Edge 74, Type (0, 1), BuildingBlock: AJUNOK_clean_linker_0, # of connection points: 2
#     Edge 75, Type (0, 1), BuildingBlock: AJUNOK_clean_linker_0, # of connection points: 2
#     Edge 76, Type (0, 1), BuildingBlock: AJUNOK_clean_linker_0, # of connection points: 2
#     Edge 77, Type (0, 1), BuildingBlock: AJUNOK_clean_linker_0, # of connection points: 2
#     Edge 78, Type (0, 1), BuildingBlock: AJUNOK_clean_linker_0, # of connection points: 2
#     Edge 79, Type (0, 1), BuildingBlock: AJUNOK_clean_linker_0, # of connection points: 2
#     Edge 80, Type (0, 1), BuildingBlock: AJUNOK_clean_linker_0, # of connection points: 2
# Relax obj value: 0.024
# Max RMSD: 0.184
# Mean RMSD: 0.130
data_MOF--net-eea--node1-KUMBUR_clean_sbu_0--node2-BETDAH_clean_linker_0--edge1-AJUNOK_clean_linker_0
_symmetry_space_group_name_H-M    P1
_symmetry_Int_Tables_number       1
_symmetry_cell_setting            triclinic
loop_
_symmetry_equiv_pos_as_xyz
'x, y, z'
_cell_length_a     39.617506
_cell_length_b     40.929163
_cell_length_c     51.680789
_cell_angle_alpha  89.73072
_cell_angle_beta   89.904579
_cell_angle_gamma 119.87723
loop_
_atom_site_label
_atom_site_type_symbol
_atom_site_fract_x
_atom_site_fract_y
_atom_site_fract_z
_atom_type_partial_charge
H0 H 0.25064 0.05314 0.44556 0.0
H1 H 0.28223 0.16939 0.43422 0.0
H2 H 0.24183 0.09337 0.37029 0.0
C3 C 0.25308 0.0756 0.43309 0.0
C4 C 0.24324 0.06819 0.40684 0.0
C5 C 0.26807 0.1121 0.44321 0.0
C6 C 0.26974 0.14083 0.42714 0.0
C7 C 0.25898 0.13347 0.40097 0.0
C8 C 0.24705 0.09769 0.39089 0.0
N9 N 0.2654 0.1627 0.38341 0.0
C10 C 0.2514 0.18752 0.38669 0.0
H11 H 0.96281 0.20635 0.44552 0.0
H12 H 0.8662 0.09313 0.43692 0.0
H13 H 0.95366 0.14272 0.37751 0.0
C14 C 0.94781 0.18027 0.43481 0.0
C15 C 0.96315 0.17769 0.41079 0.0
C16 C 0.91307 0.14974 0.44481 0.0
C17 C 0.89307 0.11673 0.42979 0.0
C18 C 0.90771 0.11439 0.40544 0.0
C19 C 0.94274 0.14466 0.39636 0.0
N20 N 0.88814 0.08275 0.38892 0.0
C21 C 0.85399 0.04899 0.39393 0.0
H22 H 0.80757 0.75468 0.44136 0.0
H23 H 0.92154 0.76689 0.4309 0.0
H24 H 0.87252 0.80491 0.3717 0.0
C25 C 0.83375 0.76403 0.42987 0.0
C26 C 0.83652 0.78092 0.40559 0.0
C27 C 0.86412 0.75875 0.43939 0.0
C28 C 0.89789 0.77057 0.42391 0.0
C29 C 0.90094 0.78719 0.39936 0.0
C30 C 0.87026 0.79237 0.39061 0.0
N31 N 0.93354 0.7986 0.3824 0.0
C32 C 0.96825 0.79831 0.38688 0.0
H33 H 0.06587 0.25882 0.60583 0.0
H34 H 0.16539 0.24306 0.6148 0.0
H35 H 0.07821 0.20595 0.67445 0.0
C36 C 0.08204 0.24873 0.61695 0.0
C37 C 0.06693 0.23086 0.64105 0.0
C38 C 0.11782 0.25382 0.60714 0.0
C39 C 0.13854 0.24047 0.6221 0.0
C40 C 0.12453 0.22361 0.64654 0.0
C41 C 0.0888 0.21882 0.65561 0.0
N42 N 0.14519 0.21138 0.66299 0.0
C43 C 0.18046 0.21216 0.65827 0.0
H44 H 0.74972 0.80542 0.60336 0.0
H45 H 0.74288 0.906 0.61771 0.0
H46 H 0.78296 0.8607 0.67708 0.0
C47 C 0.75417 0.82846 0.6158 0.0
C48 C 0.76872 0.83044 0.64099 0.0
C49 C 0.74346 0.85492 0.60723 0.0
C50 C 0.74968 0.88465 0.62393 0.0
C51 C 0.76282 0.88585 0.64929 0.0
C52 C 0.77223 0.85892 0.65756 0.0
N53 N 0.7635 0.91151 0.66783 0.0
C54 C 0.77612 0.94925 0.66303 0.0
H55 H 0.19886 0.95474 0.60447 0.0
H56 H 0.09691 0.84494 0.61406 0.0
H57 H 0.13902 0.92154 0.67767 0.0
C58 C 0.17535 0.93426 0.61652 0.0
C59 C 0.17198 0.94364 0.64223 0.0
C60 C 0.14925 0.89849 0.60614 0.0
C61 C 0.11711 0.87263 0.62144 0.0
C62 C 0.11295 0.88184 0.64712 0.0
C63 C 0.14118 0.91642 0.65738 0.0
N64 N 0.08279 0.85675 0.66431 0.0
C65 C 0.04687 0.82549 0.65834 0.0
H66 H 0.91881 0.3864 0.78021 0.0
H67 H 0.93093 0.4955 0.76473 0.0
H68 H 0.89261 0.41235 0.70491 0.0
C69 C 0.91561 0.40566 0.76734 0.0
C70 C 0.90261 0.39428 0.74197 0.0
C71 C 0.92587 0.44209 0.77589 0.0
C72 C 0.92246 0.46715 0.75865 0.0
C73 C 0.91004 0.45604 0.73307 0.0
C74 C 0.90076 0.42003 0.72493 0.0
N75 N 0.90987 0.4811 0.71414 0.0
C76 C 0.90038 0.50906 0.71835 0.0
H77 H 0.62678 0.54426 0.77666 0.0
H78 H 0.5259 0.43468 0.76437 0.0
H79 H 0.61245 0.48712 0.70463 0.0
C80 C 0.61046 0.51949 0.76484 0.0
C81 C 0.62457 0.51868 0.73994 0.0
C82 C 0.57501 0.48918 0.77418 0.0
C83 C 0.55346 0.45793 0.75783 0.0
C84 C 0.56688 0.45737 0.73268 0.0
C85 C 0.60246 0.48754 0.72412 0.0
N86 N 0.5446 0.42853 0.71459 0.0
C87 C 0.51423 0.39223 0.71988 0.0
H88 H 0.47886 0.08851 0.77745 0.0
H89 H 0.59475 0.10518 0.76753 0.0
H90 H 0.54496 0.14323 0.70893 0.0
C91 C 0.50533 0.09895 0.76611 0.0
C92 C 0.50807 0.11674 0.74218 0.0
C93 C 0.53624 0.09445 0.77562 0.0
C94 C 0.57058 0.10796 0.76045 0.0
C95 C 0.57381 0.12562 0.7363 0.0
C96 C 0.54251 0.12989 0.72755 0.0
N97 N 0.60762 0.1399 0.72004 0.0
C98 C 0.64153 0.13767 0.72352 0.0
H99 H 0.72811 0.58228 0.93709 0.0
H100 H 0.82314 0.55949 0.94451 0.0
H101 H 0.73444 0.52132 1.00317 0.0
C102 C 0.74277 0.57003 0.94762 0.0
C103 C 0.72632 0.55067 0.9711 0.0
C104 C 0.77796 0.57388 0.93767 0.0
C105 C 0.79685 0.55796 0.95197 0.0
C106 C 0.78134 0.53927 0.97572 0.0
C107 C 0.74609 0.53555 0.98484 0.0
N108 N 0.79956 0.52326 0.99106 0.0
C109 C 0.83682 0.52779 0.98803 0.0
H110 H 0.4236 0.13974 0.93605 0.0
H111 H 0.41222 0.23756 0.94993 0.0
H112 H 0.45685 0.19638 1.00944 0.0
C113 C 0.42764 0.16256 0.94857 0.0
C114 C 0.44281 0.16537 0.97362 0.0
C115 C 0.41666 0.18858 0.93976 0.0
C116 C 0.42142 0.21791 0.95621 0.0
C117 C 0.4353 0.22006 0.98148 0.0
C118 C 0.44581 0.19394 0.98994 0.0
N119 N 0.43609 0.24609 0.99974 0.0
C120 C 0.447 0.28326 0.99423 0.0
H121 H 0.87067 0.2895 0.93765 0.0
H122 H 0.76588 0.18185 0.94816 0.0
H123 H 0.802 0.26721 1.00657 0.0
C124 C 0.84529 0.27062 0.94905 0.0
C125 C 0.83985 0.28251 0.97336 0.0
C126 C 0.81939 0.23409 0.93983 0.0
C127 C 0.7859 0.21008 0.95477 0.0
C128 C 0.77975 0.22232 0.97898 0.0
C129 C 0.80685 0.25821 0.98791 0.0
N130 N 0.74842 0.1995 0.99609 0.0
C131 C 0.71473 0.16546 0.99118 0.0
H132 H 0.58762 0.71927 0.1144 0.0
H133 H 0.60206 0.829 0.09859 0.0
H134 H 0.5614 0.74543 0.03903 0.0
C135 C 0.58577 0.73886 0.10111 0.0
C136 C 0.57333 0.72768 0.0756 0.0
C137 C 0.59727 0.77561 0.10952 0.0
C138 C 0.5927 0.80039 0.09268 0.0
C139 C 0.5788 0.78884 0.06736 0.0
C140 C 0.5701 0.75309 0.05897 0.0
N141 N 0.57631 0.81311 0.04875 0.0
C142 C 0.57043 0.84319 0.05381 0.0
H143 H 0.29617 0.87666 0.11032 0.0
H144 H 0.1944 0.76795 0.09696 0.0
H145 H 0.28219 0.82034 0.03806 0.0
C146 C 0.27974 0.85202 0.09841 0.0
C147 C 0.29428 0.85107 0.07372 0.0
C148 C 0.24386 0.82193 0.10739 0.0
C149 C 0.22225 0.79109 0.09074 0.0
C150 C 0.23593 0.79085 0.06562 0.0
C151 C 0.27193 0.8206 0.05749 0.0
N152 N 0.21354 0.76279 0.04715 0.0
C153 C 0.18323 0.72646 0.05215 0.0
H154 H 0.1402 0.41974 0.10821 0.0
H155 H 0.25355 0.42983 0.09937 0.0
H156 H 0.20907 0.47298 0.04052 0.0
C157 C 0.16666 0.42879 0.0971 0.0
C158 C 0.17091 0.44712 0.07324 0.0
C159 C 0.19613 0.4224 0.10701 0.0
C160 C 0.23094 0.43513 0.09243 0.0
C161 C 0.23569 0.45361 0.06836 0.0
C162 C 0.20558 0.45936 0.05915 0.0
N163 N 0.26934 0.46641 0.05216 0.0
C164 C 0.30361 0.4652 0.05642 0.0
H165 H 0.39552 0.91976 0.27226 0.0
H166 H 0.48817 0.89395 0.2811 0.0
H167 H 0.39895 0.85884 0.33931 0.0
C168 C 0.40951 0.90723 0.28325 0.0
C169 C 0.39276 0.88903 0.30701 0.0
C170 C 0.44423 0.90975 0.2736 0.0
C171 C 0.46217 0.89328 0.28831 0.0
C172 C 0.44604 0.87511 0.31212 0.0
C173 C 0.41123 0.87277 0.32099 0.0
N174 N 0.46329 0.8584 0.32777 0.0
C175 C 0.50013 0.86181 0.32498 0.0
H176 H 0.09574 0.4812 0.26727 0.0
H177 H 0.09563 0.58458 0.28306 0.0
H178 H 0.12337 0.52968 0.34322 0.0
C179 C 0.1003 0.50352 0.28037 0.0
C180 C 0.11173 0.50237 0.30604 0.0
C181 C 0.09378 0.53275 0.27176 0.0
C182 C 0.10021 0.56176 0.2892 0.0
C183 C 0.11084 0.56042 0.31495 0.0
C184 C 0.11601 0.53067 0.32315 0.0
N185 N 0.11451 0.58717 0.33373 0.0
C186 C 0.12361 0.62404 0.32862 0.0
H187 H 0.53152 0.61844 0.26614 0.0
H188 H 0.42816 0.51111 0.28005 0.0
H189 H 0.46937 0.59734 0.33805 0.0
C190 C 0.50749 0.59983 0.27863 0.0
C191 C 0.50405 0.61243 0.30323 0.0
C192 C 0.48081 0.5632 0.27005 0.0
C193 C 0.44854 0.53958 0.28603 0.0
C194 C 0.44426 0.55237 0.31054 0.0
C195 C 0.47218 0.5884 0.31884 0.0
N196 N 0.41424 0.52969 0.32853 0.0
C197 C 0.37961 0.49634 0.32392 0.0
Tb198 Tb 0.49038 0.98454 0.99283 0.0
C199 C 0.56503 0.11076 0.07281 0.0
C200 C 0.63322 0.12985 0.0699 0.0
C201 C 0.61393 0.17574 0.08141 0.0
C202 C 0.59365 0.10212 0.06763 0.0
C203 C 0.57464 0.14737 0.08051 0.0
C204 C 0.64323 0.16698 0.07608 0.0
C205 C 0.50628 0.12397 0.08851 0.0
N206 N 0.52762 0.08244 0.07198 0.0
C207 C 0.49835 0.08807 0.08091 0.0
C208 C 0.54455 0.15392 0.08792 0.0
Tb209 Tb 0.5168 0.0251 0.05744 0.0
N210 N 0.58258 0.06587 0.06195 0.0
C211 C 0.60998 0.05482 0.06067 0.0
C212 C 0.66139 0.11911 0.0668 0.0
C213 C 0.64965 0.08127 0.06269 0.0
H214 H 0.46864 0.06515 0.08135 0.0
H215 H 0.67115 0.07244 0.06088 0.0
H216 H 0.67347 0.18881 0.07759 0.0
H217 H 0.48287 0.12849 0.09483 0.0
H218 H 0.60186 0.02588 0.05727 0.0
H219 H 0.33603 0.9372 0.99108 0.0
H220 H 0.69212 0.13953 0.06832 0.0
H221 H 0.53799 0.94451 0.96819 0.0
H222 H 0.40557 0.98396 0.99359 0.0
H223 H 0.5236 0.88086 0.95517 0.0
H224 H 0.62197 0.2042 0.08697 0.0
H225 H 0.31491 0.86994 0.98419 0.0
H226 H 0.33339 0.82053 0.97479 0.0
H227 H 0.55067 0.18166 0.09396 0.0
H228 H 0.38469 0.80506 0.96487 0.0
N229 N 0.42456 0.94381 0.98897 0.0
C230 C 0.39723 0.9549 0.99044 0.0
C231 C 0.34567 0.89043 0.98524 0.0
C232 C 0.37378 0.87966 0.98182 0.0
C233 C 0.3575 0.92836 0.98905 0.0
C234 C 0.4134 0.90746 0.98355 0.0
H235 H 0.45586 0.82758 0.95703 0.0
N236 N 0.47938 0.92708 0.97857 0.0
C237 C 0.50035 0.88541 0.9618 0.0
C238 C 0.44194 0.89873 0.97815 0.0
C239 C 0.50841 0.92142 0.96921 0.0
C240 C 0.4621 0.8554 0.96294 0.0
C241 C 0.43217 0.86202 0.97066 0.0
O242 O 0.5236 0.00238 0.95832 0.0
O243 O 0.53342 0.02865 0.01703 0.0
O244 O 0.50742 0.0648 0.0342 0.0
O245 O 0.47329 0.02744 0.99867 0.0
O246 O 0.55311 0.00656 0.98946 0.0
O247 O 0.47009 0.003 0.96134 0.0
O248 O 0.48257 0.00638 0.09153 0.0
O249 O 0.47353 0.98085 0.03328 0.0
O250 O 0.5002 0.94527 0.01583 0.0
O251 O 0.53522 0.98303 0.05093 0.0
O252 O 0.45472 0.00522 0.05979 0.0
O253 O 0.53568 0.00517 0.08894 0.0
C254 C 0.56419 0.0319 1.00705 0.0
C255 C 0.48953 0.99538 0.91928 0.0
C256 C 0.49732 0.007 0.87223 0.0
C257 C 0.50547 0.02054 0.89796 0.0
C258 C 0.47244 0.96818 0.86837 0.0
C259 C 0.46495 0.95689 0.91463 0.0
C260 C 0.45648 0.94347 0.88936 0.0
C261 C 0.48628 0.05814 1.01294 0.0
C262 C 0.49905 0.00923 0.94622 0.0
C263 C 0.39285 0.83361 0.97025 0.0
C264 C 0.36366 0.84242 0.97588 0.0
C265 C 0.44313 0.97908 0.04279 0.0
C266 C 0.51535 0.01195 0.13096 0.0
C267 C 0.4999 0.98626 0.1521 0.0
C268 C 0.50854 0.9992 0.178 0.0
C269 C 0.53178 0.03822 0.18213 0.0
C270 C 0.53905 0.05045 0.13597 0.0
C271 C 0.54697 0.06343 0.16135 0.0
C272 C 0.5225 0.95252 0.03647 0.0
C273 C 0.50642 0.99876 0.10379 0.0
H274 H 0.52444 0.05036 0.90139 0.0
H275 H 0.46477 0.95692 0.84899 0.0
H276 H 0.45219 0.9372 0.93054 0.0
H277 H 0.4373 0.9137 0.88601 0.0
H278 H 0.48167 0.95641 0.1484 0.0
H279 H 0.53799 0.04942 0.20157 0.0
H280 H 0.55131 0.07056 0.12025 0.0
H281 H 0.56495 0.0933 0.16496 0.0
Tb282 Tb 0.03343 0.50443 0.99081 0.0
C283 C 0.90349 0.45671 0.07026 0.0
C284 C 0.88379 0.50352 0.06523 0.0
C285 C 0.83652 0.44002 0.07914 0.0
C286 C 0.9124 0.49268 0.06363 0.0
C287 C 0.86583 0.43023 0.07897 0.0
C288 C 0.84549 0.47666 0.07224 0.0
C289 C 0.89048 0.38862 0.09004 0.0
N290 N 0.93286 0.44879 0.07032 0.0
C291 C 0.92742 0.41606 0.08139 0.0
C292 C 0.85933 0.39543 0.08835 0.0
Tb293 Tb 0.99204 0.49448 0.05465 0.0
N294 N 0.94985 0.51774 0.05734 0.0
C295 C 0.96119 0.55509 0.05438 0.0
C296 C 0.89485 0.54123 0.06061 0.0
C297 C 0.93387 0.56724 0.05562 0.0
H298 H 0.95137 0.41066 0.08297 0.0
H299 H 0.94293 0.59665 0.05251 0.0
H300 H 0.82296 0.48429 0.07323 0.0
H301 H 0.88611 0.36232 0.09808 0.0
H302 H 0.99101 0.57569 0.05021 0.0
H303 H 0.08542 0.40467 0.99331 0.0
H304 H 0.87376 0.55071 0.06154 0.0
H305 H 0.07169 0.5889 0.96376 0.0
H306 H 0.03646 0.42458 0.99636 0.0
H307 H 0.13419 0.63562 0.94402 0.0
H308 H 0.80723 0.41994 0.08544 0.0
H309 H 0.15346 0.45085 0.98153 0.0
H310 H 0.20177 0.51626 0.96619 0.0
H311 H 0.83083 0.37428 0.09525 0.0
H312 H 0.2147 0.57888 0.95167 0.0
N313 N 0.07647 0.48237 0.98783 0.0
C314 C 0.06595 0.44532 0.99132 0.0
C315 C 0.13209 0.45993 0.98306 0.0
C316 C 0.14195 0.49706 0.97732 0.0
C317 C 0.09371 0.43377 0.9896 0.0
C318 C 0.11307 0.50742 0.97984 0.0
H319 H 0.18909 0.623 0.94224 0.0
N320 N 0.09113 0.55041 0.97364 0.0
C321 C 0.1308 0.60962 0.95194 0.0
C322 C 0.12052 0.54259 0.97205 0.0
C323 C 0.09541 0.58305 0.96317 0.0
C324 C 0.16173 0.60242 0.95099 0.0
C325 C 0.15678 0.56847 0.96101 0.0
O326 O 0.01514 0.5155 0.95518 0.0
O327 O 0.98773 0.5037 1.01404 0.0
O328 O 0.94999 0.4448 0.03278 0.0
O329 O 0.98954 0.44528 0.99885 0.0
O330 O 0.00938 0.54217 0.98496 0.0
O331 O 0.01348 0.46283 0.962 0.0
O332 O 0.01177 0.48322 0.08962 0.0
O333 O 0.03837 0.495 0.03172 0.0
O334 O 0.07567 0.55365 1.01233 0.0
O335 O 0.03628 0.554 0.04587 0.0
O336 O 0.01283 0.45443 0.05966 0.0
O337 O 0.00986 0.53426 0.08477 0.0
C338 C 0.98325 0.52876 1.0028 0.0
C339 C 0.02323 0.48546 0.91885 0.0
C340 C 0.0129 0.48118 0.87202 0.0
C341 C 0.99913 0.4799 0.8974 0.0
C342 C 0.0514 0.48883 0.8685 0.0
C343 C 0.06132 0.49259 0.91482 0.0
C344 C 0.07535 0.49449 0.88977 0.0
C345 C 0.95699 0.42886 1.01271 0.0
C346 C 0.00812 0.48363 0.94519 0.0
C347 C 0.18641 0.55916 0.9597 0.0
C348 C 0.17906 0.52354 0.968 0.0
C349 C 0.04012 0.46796 0.04258 0.0
C350 C 1.00071 0.50878 0.12718 0.0
C351 C 0.02539 0.51789 0.14882 0.0
C352 C 0.0099 0.51073 0.17423 0.0
C353 C 0.96932 0.49455 0.17735 0.0
C354 C 0.96064 0.49364 0.13103 0.0
C355 C 0.94508 0.48646 0.15596 0.0
C356 C 0.06887 0.5705 0.03185 0.0
C357 C 0.01682 0.51369 0.10076 0.0
H358 H 0.96978 0.47469 0.9005 0.0
H359 H 0.06275 0.48968 0.84928 0.0
H360 H 0.08013 0.49642 0.93096 0.0
H361 H 0.10479 0.49998 0.88682 0.0
H362 H 0.05648 0.53077 0.14573 0.0
H363 H 0.95611 0.48783 0.19642 0.0
H364 H 0.94131 0.48717 0.11483 0.0
H365 H 0.914 0.4743 0.15871 0.0
Tb366 Tb 0.53085 0.50127 0.05503 0.0
C367 C 0.46356 0.56585 0.97745 0.0
C368 C 0.3942 0.52271 0.97867 0.0
C369 C 0.41875 0.58897 0.96901 0.0
C370 C 0.43278 0.53012 0.9815 0.0
C371 C 0.45707 0.59564 0.9706 0.0
C372 C 0.38733 0.55251 0.97304 0.0
C373 C 0.52653 0.63531 0.96514 0.0
N374 N 0.5 0.5709 0.97895 0.0
C375 C 0.5314 0.60476 0.97185 0.0
C376 C 0.48924 0.63089 0.96485 0.0
Tb377 Tb 0.50526 0.51975 0.99175 0.0
N378 N 0.44079 0.50224 0.98682 0.0
C379 C 0.41129 0.46559 0.98752 0.0
C380 C 0.36383 0.48548 0.98086 0.0
C381 C 0.37249 0.45672 0.98486 0.0
H382 H 0.56042 0.6087 0.97211 0.0
H383 H 0.34928 0.4277 0.98617 0.0
H384 H 0.35789 0.54748 0.9711 0.0
H385 H 0.55156 0.66225 0.96021 0.0
H386 H 0.41722 0.44305 0.99112 0.0
H387 H 0.68771 0.58929 0.05588 0.0
H388 H 0.33377 0.47856 0.9789 0.0
H389 H 0.47421 0.41392 0.07737 0.0
H390 H 0.62029 0.57599 0.05238 0.0
H391 H 0.48147 0.36018 0.09111 0.0
H392 H 0.41312 0.61155 0.96404 0.0
H393 H 0.70125 0.53751 0.06487 0.0
H394 H 0.67529 0.469 0.07553 0.0
H395 H 0.48553 0.65455 0.95953 0.0
H396 H 0.61902 0.40649 0.08525 0.0
N397 N 0.595 0.51703 0.05906 0.0
C398 C 0.62536 0.55311 0.05674 0.0
C399 C 0.67141 0.53151 0.06351 0.0
C400 C 0.64028 0.49501 0.06741 0.0
C401 C 0.66388 0.5608 0.05854 0.0
C402 C 0.60203 0.48876 0.06523 0.0
H403 H 0.54659 0.36577 0.09153 0.0
N404 N 0.53464 0.44987 0.06923 0.0
C405 C 0.50682 0.38633 0.08524 0.0
C406 C 0.57067 0.45384 0.07057 0.0
C407 C 0.50287 0.41702 0.07741 0.0
C408 C 0.5436 0.38956 0.08541 0.0
C409 C 0.57622 0.42382 0.07839 0.0
O410 O 0.49775 0.49094 0.0892 0.0
O411 O 0.48795 0.50631 0.03185 0.0
O412 O 0.5136 0.5659 0.01705 0.0
O413 O 0.55367 0.56196 0.0483 0.0
O414 O 0.46762 0.46436 0.05875 0.0
O415 O 0.55559 0.53806 0.08671 0.0
O416 O 0.53792 0.53363 0.95713 0.0
O417 O 0.54816 0.51418 1.0146 0.0
O418 O 0.5217 0.4544 0.03073 0.0
O419 O 0.48392 0.45876 0.99773 0.0
O420 O 0.56822 0.55692 0.98832 0.0
O421 O 0.48272 0.48279 0.96003 0.0
C422 C 0.45677 0.47996 0.04163 0.0
C423 C 0.53226 0.51101 0.12836 0.0
C424 C 0.52391 0.51353 0.17535 0.0
C425 C 0.51784 0.52192 0.14975 0.0
C426 C 0.54402 0.49362 0.17899 0.0
C427 C 0.55253 0.49159 0.13276 0.0
C428 C 0.55816 0.4828 0.1579 0.0
C429 C 0.53852 0.58043 0.03643 0.0
C430 C 0.52527 0.51911 0.10158 0.0
C431 C 0.61412 0.4293 0.07955 0.0
C432 C 0.64614 0.46487 0.07402 0.0
C433 C 0.57931 0.5406 1.00472 0.0
C434 C 0.50264 0.51096 0.9184 0.0
C435 C 0.51859 0.50244 0.89672 0.0
C436 C 0.51123 0.51031 0.87131 0.0
C437 C 0.48748 0.52664 0.8682 0.0
C438 C 0.47889 0.5269 0.91457 0.0
C439 C 0.4714 0.53468 0.88962 0.0
C440 C 0.49799 0.44007 1.01075 0.0
C441 C 0.5119 0.50416 0.94488 0.0
H442 H 0.50267 0.53746 0.14648 0.0
H443 H 0.54894 0.48644 0.19829 0.0
H444 H 0.56403 0.48319 0.11679 0.0
H445 H 0.57371 0.46764 0.16106 0.0
H446 H 0.53633 0.48944 0.89971 0.0
H447 H 0.4816 0.53363 0.84912 0.0
H448 H 0.46623 0.53347 0.93083 0.0
H449 H 0.45321 0.54723 0.88686 0.0
Tb450 Tb 0.15341 0.3149 0.32454 0.0
C451 C 0.22635 0.4442 0.40171 0.0
C452 C 0.29501 0.46474 0.40005 0.0
C453 C 0.27386 0.50996 0.40927 0.0
C454 C 0.25577 0.43621 0.39768 0.0
C455 C 0.23487 0.48091 0.40824 0.0
C456 C 0.30392 0.50187 0.40517 0.0
C457 C 0.16601 0.45653 0.41473 0.0
N458 N 0.18923 0.41527 0.40076 0.0
C459 C 0.15913 0.42056 0.40831 0.0
C460 C 0.20401 0.48698 0.41432 0.0
Tb461 Tb 0.18045 0.35781 0.38828 0.0
N462 N 0.24579 0.39996 0.39291 0.0
C463 C 0.27393 0.38984 0.39253 0.0
C464 C 0.32396 0.45485 0.39802 0.0
C465 C 0.3133 0.41711 0.39474 0.0
H466 H 0.12962 0.39728 0.40852 0.0
H467 H 0.33542 0.40898 0.3937 0.0
H468 H 0.3339 0.52429 0.40672 0.0
H469 H 0.14199 0.46074 0.41997 0.0
H470 H 0.26661 0.36099 0.38978 0.0
H471 H 0.99658 0.25217 0.32661 0.0
H472 H 0.35447 0.4759 0.39965 0.0
H473 H 0.20709 0.28266 0.29743 0.0
H474 H 0.06428 0.30401 0.32777 0.0
H475 H 0.19937 0.22135 0.28469 0.0
H476 H 0.28106 0.53848 0.41394 0.0
H477 H 0.98242 0.18672 0.31989 0.0
H478 H 1.0077 0.14258 0.30979 0.0
H479 H 0.20929 0.51478 0.41941 0.0
H480 H 0.06326 0.13408 0.29837 0.0
N481 N 0.089 0.26879 0.32221 0.0
C482 C 0.05885 0.27589 0.32443 0.0
C483 C 0.01233 0.20951 0.32025 0.0
C484 C 0.04317 0.20273 0.31608 0.0
C485 C 0.02021 0.24641 0.32393 0.0
C486 C 0.08153 0.23342 0.31692 0.0
H487 H 0.13499 0.16349 0.28852 0.0
N488 N 0.14833 0.2596 0.31011 0.0
C489 C 0.17471 0.2229 0.29222 0.0
C490 C 0.11244 0.2286 0.31066 0.0
C491 C 0.17902 0.25762 0.29962 0.0
C492 C 0.13835 0.1903 0.29446 0.0
C493 C 0.1064 0.19302 0.30319 0.0
O494 O 0.18607 0.33848 0.29031 0.0
O495 O 0.19633 0.36044 0.34795 0.0
O496 O 0.17151 0.39608 0.36301 0.0
O497 O 0.13149 0.35429 0.33141 0.0
O498 O 0.21639 0.33928 0.32 0.0
O499 O 0.1272 0.32637 0.29277 0.0
O500 O 0.14709 0.34115 0.42273 0.0
O501 O 0.13755 0.31152 0.36528 0.0
O502 O 0.16755 0.27818 0.34714 0.0
O503 O 0.20049 0.31664 0.38257 0.0
O504 O 0.11801 0.33589 0.39124 0.0
O505 O 0.20042 0.34013 0.42044 0.0
C506 C 0.22725 0.3644 0.3377 0.0
C507 C 0.15131 0.32364 0.25104 0.0
C508 C 0.15873 0.33396 0.2038 0.0
C509 C 0.16414 0.34835 0.22933 0.0
C510 C 0.14101 0.29467 0.20066 0.0
C511 C 0.13311 0.2847 0.24697 0.0
C512 C 0.12829 0.27041 0.222 0.0
C513 C 0.14663 0.38707 0.34355 0.0
C514 C 0.15765 0.3384 0.27784 0.0
C515 C 0.06853 0.16179 0.30373 0.0
C516 C 0.03691 0.16664 0.31021 0.0
C517 C 0.10685 0.30873 0.3751 0.0
C518 C 0.18075 0.34937 0.46208 0.0
C519 C 0.16692 0.32486 0.4839 0.0
C520 C 0.17543 0.33944 0.50941 0.0
C521 C 0.19682 0.37883 0.51244 0.0
C522 C 0.20277 0.38832 0.46601 0.0
C523 C 0.21051 0.40288 0.49099 0.0
C524 C 0.18971 0.28646 0.36796 0.0
C525 C 0.1714 0.33449 0.43532 0.0
H526 H 0.17753 0.37845 0.23232 0.0
H527 H 0.13684 0.28257 0.18153 0.0
H528 H 0.12259 0.26523 0.26309 0.0
H529 H 0.11446 0.24027 0.21915 0.0
H530 H 0.14999 0.29468 0.48104 0.0
H531 H 0.20277 0.39123 0.53153 0.0
H532 H 0.21373 0.40757 0.44975 0.0
H533 H 0.2271 0.43307 0.49375 0.0
Tb534 Tb 0.69755 0.83803 0.32561 0.0
C535 C 0.56152 0.77696 0.4007 0.0
C536 C 0.54054 0.82322 0.4004 0.0
C537 C 0.49345 0.75725 0.40838 0.0
C538 C 0.57003 0.81372 0.39765 0.0
C539 C 0.52336 0.74835 0.40675 0.0
C540 C 0.50204 0.79466 0.40519 0.0
C541 C 0.54801 0.70529 0.41167 0.0
N542 N 0.59133 0.7697 0.3993 0.0
C543 C 0.58544 0.73474 0.40586 0.0
C544 C 0.51671 0.71198 0.41178 0.0
Tb545 Tb 0.6513 0.81944 0.38845 0.0
N546 N 0.60759 0.8404 0.39311 0.0
C547 C 0.61798 0.87769 0.39273 0.0
C548 C 0.5508 0.86118 0.3988 0.0
C549 C 0.58979 0.88856 0.3953 0.0
H550 H 0.60939 0.72922 0.40575 0.0
H551 H 0.59815 0.91807 0.39433 0.0
H552 H 0.4789 0.80133 0.40708 0.0
H553 H 0.54334 0.67747 0.41612 0.0
H554 H 0.64776 0.89927 0.38964 0.0
H555 H 0.76178 0.74835 0.32348 0.0
H556 H 0.52902 0.86967 0.40069 0.0
H557 H 0.73248 0.92621 0.30472 0.0
H558 H 0.70862 0.7626 0.32702 0.0
H559 H 0.79579 0.97987 0.29175 0.0
H560 H 0.46384 0.73562 0.41275 0.0
H561 H 0.82922 0.79979 0.31557 0.0
H562 H 0.87485 0.86851 0.30606 0.0
H563 H 0.48779 0.68918 0.41645 0.0
H564 H 0.88411 0.93167 0.29722 0.0
N565 N 0.74501 0.82164 0.32164 0.0
C566 C 0.73758 0.7853 0.32324 0.0
C567 C 0.80583 0.80618 0.317 0.0
C568 C 0.81297 0.84302 0.31374 0.0
C569 C 0.76782 0.77709 0.32136 0.0
C570 C 0.78149 0.84977 0.316 0.0
H571 H 0.85461 0.97335 0.29138 0.0
N572 N 0.75503 0.88947 0.31238 0.0
C573 C 0.79368 0.95337 0.29728 0.0
C574 C 0.78672 0.88504 0.31111 0.0
C575 C 0.75774 0.92276 0.30462 0.0
C576 C 0.82684 0.94962 0.29713 0.0
C577 C 0.82352 0.91495 0.30373 0.0
O578 O 0.67854 0.85016 0.29071 0.0
O579 O 0.64987 0.83378 0.34857 0.0
O580 O 0.61162 0.77491 0.362 0.0
O581 O 0.65635 0.77729 0.33172 0.0
O582 O 0.67176 0.8746 0.32116 0.0
O583 O 0.68351 0.80046 0.29441 0.0
O584 O 0.66673 0.80245 0.42285 0.0
O585 O 0.69989 0.82414 0.36596 0.0
O586 O 0.73691 0.88398 0.35035 0.0
O587 O 0.69563 0.88038 0.38392 0.0
O588 O 0.67425 0.78077 0.39181 0.0
O589 O 0.66563 0.85432 0.42133 0.0
C590 C 0.64521 0.85951 0.33861 0.0
C591 C 0.69332 0.82827 0.25274 0.0
C592 C 0.68598 0.8252 0.20563 0.0
C593 C 0.66939 0.81785 0.23066 0.0
C594 C 0.72676 0.84356 0.20312 0.0
C595 C 0.73382 0.84608 0.24963 0.0
C596 C 0.7504 0.85387 0.22497 0.0
C597 C 0.6215 0.7597 0.34292 0.0
C598 C 0.67585 0.82103 0.27884 0.0
C599 C 0.85546 0.90896 0.30257 0.0
C600 C 0.8502 0.87302 0.3076 0.0
C601 C 0.70261 0.79698 0.37564 0.0
C602 C 0.65268 0.82265 0.46191 0.0
C603 C 0.67592 0.83391 0.48439 0.0
C604 C 0.65856 0.82372 0.50922 0.0
C605 C 0.61778 0.80117 0.51098 0.0
C606 C 0.61211 0.80147 0.46445 0.0
C607 C 0.59483 0.79061 0.4888 0.0
C608 C 0.72897 0.89851 0.37072 0.0
C609 C 0.67095 0.83127 0.43598 0.0
H610 H 0.63803 0.80339 0.23298 0.0
H611 H 0.74037 0.84981 0.18418 0.0
H612 H 0.75265 0.8539 0.26619 0.0
H613 H 0.78172 0.86778 0.22278 0.0
H614 H 0.7073 0.85057 0.48253 0.0
H615 H 0.60347 0.79128 0.52955 0.0
H616 H 0.59372 0.79277 0.44766 0.0
H617 H 0.56349 0.77358 0.4905 0.0
Tb618 Tb 0.19779 0.84161 0.38788 0.0
C619 C 0.12595 0.89737 0.30591 0.0
C620 C 0.05714 0.85242 0.30854 0.0
C621 C 0.07891 0.91651 0.29416 0.0
C622 C 0.09627 0.86178 0.31187 0.0
C623 C 0.11776 0.92483 0.29604 0.0
C624 C 0.04859 0.88034 0.30052 0.0
C625 C 0.18666 0.96526 0.28851 0.0
N626 N 0.16296 0.90405 0.30781 0.0
C627 C 0.19325 0.93709 0.29847 0.0
C628 C 0.14877 0.95927 0.28751 0.0
Tb629 Tb 0.17111 0.85597 0.32372 0.0
N630 N 0.10591 0.8355 0.31879 0.0
C631 C 0.07762 0.79838 0.32032 0.0
C632 C 0.02795 0.81495 0.31214 0.0
C633 C 0.03832 0.78768 0.31751 0.0
H634 H 0.22268 0.94213 0.29905 0.0
H635 H 0.01607 0.75839 0.31959 0.0
H636 H 0.01871 0.87384 0.29817 0.0
H637 H 0.21081 0.99156 0.28159 0.0
H638 H 0.08489 0.77682 0.32454 0.0
H639 H 0.35262 0.94074 0.39093 0.0
H640 H 0.99752 0.80657 0.30987 0.0
H641 H 0.14712 0.75307 0.40876 0.0
H642 H 0.28356 0.92169 0.3869 0.0
H643 H 0.16011 0.70268 0.4226 0.0
H644 H 0.07199 0.93741 0.28703 0.0
H645 H 0.37208 0.89299 0.39979 0.0
H646 H 0.35197 0.82551 0.40998 0.0
H647 H 0.14373 0.98108 0.27971 0.0
H648 H 0.29949 0.76066 0.41896 0.0
N649 N 0.26318 0.86313 0.39275 0.0
C650 C 0.29117 0.90033 0.39093 0.0
C651 C 0.34152 0.88436 0.39805 0.0
C652 C 0.31273 0.84667 0.40145 0.0
C653 C 0.33063 0.91138 0.39315 0.0
C654 C 0.2734 0.83695 0.39879 0.0
H655 H 0.22779 0.71472 0.42417 0.0
N656 N 0.20684 0.79321 0.40182 0.0
C657 C 0.18404 0.73009 0.41722 0.0
C658 C 0.24414 0.80066 0.40366 0.0
C659 C 0.1768 0.7588 0.40941 0.0
C660 C 0.22227 0.73698 0.41806 0.0
C661 C 0.25297 0.77278 0.41157 0.0
O662 O 0.16461 0.82735 0.4223 0.0
O663 O 0.15388 0.84396 0.36408 0.0
O664 O 0.1789 0.90422 0.34663 0.0
O665 O 0.21629 0.9014 0.38058 0.0
O666 O 0.13499 0.80224 0.39123 0.0
O667 O 0.21861 0.8793 0.41938 0.0
O668 O 0.20427 0.86782 0.2894 0.0
O669 O 0.21505 0.85412 0.34767 0.0
O670 O 0.19373 0.79639 0.36353 0.0
O671 O 0.15202 0.79588 0.33162 0.0
O672 O 0.23387 0.89498 0.32017 0.0
O673 O 0.14946 0.8169 0.2931 0.0
C674 C 0.12329 0.81697 0.37399 0.0
C675 C 0.19894 0.85157 0.46128 0.0
C676 C 0.19305 0.85567 0.50846 0.0
C677 C 0.18455 0.86212 0.48293 0.0
C678 C 0.2155 0.838 0.51173 0.0
C679 C 0.22163 0.83454 0.4654 0.0
C680 C 0.22963 0.82764 0.49043 0.0
C681 C 0.202 0.9193 0.36691 0.0
C682 C 0.18956 0.85747 0.4345 0.0
C683 C 0.29206 0.78179 0.41322 0.0
C684 C 0.32192 0.81869 0.4081 0.0
C685 C 0.24577 0.88085 0.33772 0.0
C686 C 0.16886 0.84311 0.25095 0.0
C687 C 0.18583 0.83517 0.22957 0.0
C688 C 0.17813 0.84204 0.20396 0.0
C689 C 0.15317 0.85695 0.20039 0.0
C690 C 0.14357 0.8572 0.24658 0.0
C691 C 0.13593 0.86418 0.22149 0.0
C692 C 0.16918 0.77981 0.34425 0.0
C693 C 0.17847 0.83766 0.27769 0.0
H694 H 0.16749 0.87584 0.47989 0.0
H695 H 0.22222 0.83219 0.53093 0.0
H696 H 0.23315 0.82649 0.44929 0.0
H697 H 0.247 0.81425 0.49334 0.0
H698 H 0.20454 0.82332 0.23296 0.0
H699 H 0.14708 0.86331 0.18117 0.0
H700 H 0.12975 0.86287 0.26253 0.0
H701 H 0.11665 0.87543 0.21837 0.0
Tb702 Tb 0.81773 0.65106 0.65694 0.0
C703 C 0.89944 0.7758 0.73725 0.0
C704 C 0.9666 0.7912 0.73425 0.0
C705 C 0.95103 0.83948 0.74646 0.0
C706 C 0.92652 0.76519 0.73179 0.0
C707 C 0.91117 0.81271 0.74546 0.0
C708 C 0.97876 0.82873 0.74083 0.0
C709 C 0.84365 0.7924 0.75433 0.0
N710 N 0.86142 0.74889 0.73654 0.0
C711 C 0.83365 0.75608 0.74632 0.0
C712 C 0.88255 0.82106 0.75347 0.0
Tb713 Tb 0.84708 0.69074 0.72158 0.0
N714 N 0.91339 0.72859 0.72586 0.0
C715 C 0.93911 0.71548 0.72437 0.0
C716 C 0.99309 0.77839 0.73096 0.0
C717 C 0.97921 0.7402 0.72648 0.0
H718 H 0.80362 0.73397 0.74741 0.0
H719 H 0.99938 0.72978 0.72448 0.0
H720 H 0.00943 0.84927 0.74248 0.0
H721 H 0.82139 0.79818 0.7613 0.0
H722 H 0.92929 0.68621 0.72074 0.0
H723 H 0.66515 0.61155 0.65808 0.0
H724 H 0.02414 0.79746 0.73259 0.0
H725 H 0.85925 0.60814 0.62827 0.0
H726 H 0.73544 0.65555 0.65916 0.0
H727 H 0.84072 0.54378 0.61405 0.0
H728 H 0.96071 0.86815 0.75241 0.0
H729 H 0.6401 0.54345 0.65155 0.0
H730 H 0.6544 0.49145 0.64124 0.0
H731 H 0.89031 0.84908 0.75992 0.0
H732 H 0.70257 0.47276 0.62909 0.0
N733 N 0.75116 0.613 0.65425 0.0
C734 C 0.72546 0.62609 0.65618 0.0
C735 C 0.67121 0.56271 0.65205 0.0
C736 C 0.69757 0.54991 0.64797 0.0
C737 C 0.68526 0.60112 0.65561 0.0
C738 C 0.73775 0.57617 0.649 0.0
H739 H 0.77231 0.49236 0.61827 0.0
N740 N 0.80244 0.5928 0.64171 0.0
C741 C 0.819 0.54942 0.62225 0.0
C742 C 0.76452 0.56562 0.64244 0.0
C743 C 0.8294 0.58582 0.63033 0.0
C744 C 0.7804 0.52045 0.62474 0.0
C745 C 0.75236 0.52859 0.63432 0.0
O746 O 0.85032 0.66835 0.62216 0.0
O747 O 0.86258 0.69382 0.68102 0.0
O748 O 0.84 0.73243 0.6987 0.0
O749 O 0.80349 0.6957 0.66361 0.0
O750 O 0.87982 0.67033 0.65284 0.0
O751 O 0.79832 0.6715 0.6261 0.0
O752 O 0.81328 0.67305 0.7559 0.0
O753 O 0.80217 0.64753 0.69766 0.0
O754 O 0.82711 0.61037 0.67869 0.0
O755 O 0.86183 0.64614 0.71466 0.0
O756 O 0.78563 0.67332 0.7246 0.0
O757 O 0.86514 0.66965 0.75285 0.0
C758 C 0.89238 0.69544 0.67065 0.0
C759 C 0.81547 0.66241 0.58373 0.0
C760 C 0.82291 0.67312 0.53662 0.0
C761 C 0.83241 0.68693 0.56222 0.0
C762 C 0.79583 0.63472 0.53306 0.0
C763 C 0.78854 0.62434 0.5794 0.0
C764 C 0.77886 0.61065 0.55426 0.0
C765 C 0.818 0.72643 0.67792 0.0
C766 C 0.82637 0.67646 0.61053 0.0
C767 C 0.71254 0.50154 0.63489 0.0
C768 C 0.68513 0.51219 0.64178 0.0
C769 C 0.77265 0.6471 0.70758 0.0
C770 C 0.84609 0.67723 0.7951 0.0
C771 C 0.83105 0.65143 0.8162 0.0
C772 C 0.84018 0.66425 0.84212 0.0
C773 C 0.86346 0.70326 0.84628 0.0
C774 C 0.86999 0.71569 0.80016 0.0
C775 C 0.87835 0.72855 0.82554 0.0
C776 C 0.84883 0.61616 0.69954 0.0
C777 C 0.83643 0.66425 0.76791 0.0
H778 H 0.85314 0.71645 0.56537 0.0
H779 H 0.78721 0.62335 0.51378 0.0
H780 H 0.77488 0.60516 0.59546 0.0
H781 H 0.75793 0.58121 0.55116 0.0
H782 H 0.81275 0.6216 0.81246 0.0
H783 H 0.86996 0.71441 0.86573 0.0
H784 H 0.88204 0.73588 0.78449 0.0
H785 H 0.89641 0.7584 0.82919 0.0
Tb786 Tb 0.36592 0.16787 0.66006 0.0
C787 C 0.23648 0.11979 0.74094 0.0
C788 C 0.21492 0.16523 0.73592 0.0
C789 C 0.16992 0.10235 0.75206 0.0
C790 C 0.24398 0.15508 0.73349 0.0
C791 C 0.1998 0.09336 0.75117 0.0
C792 C 0.17745 0.13825 0.74435 0.0
C793 C 0.226 0.0526 0.76084 0.0
N794 N 0.26621 0.11241 0.73993 0.0
C795 C 0.26182 0.07972 0.75045 0.0
C796 C 0.1947 0.05927 0.76099 0.0
Tb797 Tb 0.32432 0.1589 0.72336 0.0
N798 N 0.28087 0.18054 0.72626 0.0
C799 C 0.2914 0.21771 0.72358 0.0
C800 C 0.22496 0.20265 0.73116 0.0
C801 C 0.26359 0.22917 0.72556 0.0
H802 H 0.28572 0.07415 0.75049 0.0
H803 H 0.27199 0.25845 0.72261 0.0
H804 H 0.15459 0.14535 0.746 0.0
H805 H 0.22255 0.02656 0.76872 0.0
H806 H 0.32098 0.23871 0.71907 0.0
H807 H 0.41991 0.06967 0.66473 0.0
H808 H 0.20352 0.21161 0.73276 0.0
H809 H 0.40349 0.25115 0.63115 0.0
H810 H 0.37021 0.08865 0.66649 0.0
H811 H 0.46599 0.29787 0.61156 0.0
H812 H 0.14133 0.08223 0.75947 0.0
H813 H 0.48813 0.11651 0.65391 0.0
H814 H 0.53622 0.182 0.63867 0.0
H815 H 0.16701 0.03826 0.7691 0.0
H816 H 0.54846 0.24392 0.62303 0.0
N817 N 0.4098 0.14662 0.65809 0.0
C818 C 0.39971 0.1097 0.66181 0.0
C819 C 0.46641 0.12519 0.65486 0.0
C820 C 0.47593 0.16214 0.64885 0.0
C821 C 0.42792 0.09866 0.66084 0.0
C822 C 0.44658 0.172 0.65061 0.0
H823 H 0.52181 0.28659 0.61161 0.0
N824 N 0.42375 0.21395 0.64292 0.0
C825 C 0.463 0.27246 0.62028 0.0
C826 C 0.45369 0.20685 0.64232 0.0
C827 C 0.42759 0.24587 0.63146 0.0
C828 C 0.49445 0.26601 0.62036 0.0
C829 C 0.49 0.23278 0.63135 0.0
O830 O 0.34642 0.17722 0.62431 0.0
O831 O 0.31946 0.16751 0.68257 0.0
O832 O 0.282 0.10925 0.70143 0.0
O833 O 0.32299 0.10848 0.66937 0.0
O834 O 0.34289 0.20627 0.65356 0.0
O835 O 0.34777 0.1262 0.6313 0.0
O836 O 0.34234 0.14807 0.75922 0.0
O837 O 0.37128 0.15977 0.70104 0.0
O838 O 0.40772 0.2181 0.68112 0.0
O839 O 0.36793 0.21865 0.7143 0.0
O840 O 0.34667 0.12011 0.72942 0.0
O841 O 0.34365 0.20044 0.75226 0.0
C842 C 0.3164 0.19342 0.67114 0.0
C843 C 0.35861 0.14964 0.58831 0.0
C844 C 0.35216 0.14706 0.54116 0.0
C845 C 0.3357 0.14313 0.56602 0.0
C846 C 0.39193 0.15838 0.53903 0.0
C847 C 0.39786 0.15981 0.58554 0.0
C848 C 0.41449 0.16456 0.56107 0.0
C849 C 0.28953 0.09211 0.68235 0.0
C850 C 0.34155 0.14614 0.61427 0.0
C851 C 0.52012 0.2241 0.63094 0.0
C852 C 0.51316 0.18887 0.63986 0.0
C853 C 0.37401 0.13362 0.71243 0.0
C854 C 0.33181 0.17688 0.79529 0.0
C855 C 0.35348 0.17909 0.81747 0.0
C856 C 0.33709 0.1748 0.84234 0.0
C857 C 0.29904 0.16868 0.84476 0.0
C858 C 0.29403 0.17117 0.79823 0.0
C859 C 0.27777 0.16704 0.82283 0.0
C860 C 0.40061 0.23525 0.70033 0.0
C861 C 0.34853 0.17961 0.76929 0.0
H862 H 0.30507 0.13418 0.56809 0.0
H863 H 0.40554 0.16208 0.52023 0.0
H864 H 0.41565 0.16382 0.60222 0.0
H865 H 0.44491 0.17274 0.55918 0.0
H866 H 0.38272 0.18353 0.8154 0.0
H867 H 0.28593 0.16553 0.86369 0.0
H868 H 0.27708 0.16996 0.78159 0.0
H869 H 0.24857 0.16255 0.82489 0.0
Tb870 Tb 0.86714 0.17076 0.72415 0.0
C871 C 0.79454 0.22719 0.64364 0.0
C872 C 0.72585 0.18139 0.64462 0.0
C873 C 0.74723 0.24645 0.63299 0.0
C874 C 0.76501 0.19095 0.64814 0.0
C875 C 0.78617 0.25529 0.63546 0.0
C876 C 0.71708 0.20953 0.63759 0.0
C877 C 0.8553 0.29793 0.6312 0.0
N878 N 0.83169 0.23444 0.64618 0.0
C879 C 0.86208 0.26902 0.63922 0.0
C880 C 0.81718 0.29116 0.62954 0.0
Tb881 Tb 0.84003 0.18559 0.66032 0.0
N882 N 0.77483 0.16465 0.65466 0.0
C883 C 0.74664 0.12749 0.65614 0.0
C884 C 0.69683 0.14372 0.6476 0.0
C885 C 0.70734 0.11658 0.65302 0.0
H886 H 0.89173 0.27482 0.64043 0.0
H887 H 0.68519 0.08724 0.65498 0.0
H888 H 0.68716 0.20283 0.63507 0.0
H889 H 0.87949 0.32542 0.62629 0.0
H890 H 0.7539 0.10605 0.66061 0.0
H891 H 0.0225 0.26754 0.72497 0.0
H892 H 0.66638 0.13521 0.64519 0.0
H893 H 0.81555 0.08418 0.74804 0.0
H894 H 0.95358 0.24959 0.72149 0.0
H895 H 0.8276 0.03459 0.76508 0.0
H896 H 0.74015 0.26773 0.62701 0.0
H897 H 0.04084 0.21927 0.73492 0.0
H898 H 0.01958 0.15223 0.74737 0.0
H899 H 0.812 0.31358 0.62326 0.0
H900 H 0.9664 0.08884 0.75902 0.0
N901 N 0.93237 0.19105 0.72811 0.0
C902 C 0.96081 0.22801 0.72573 0.0
C903 C 0.01039 0.2111 0.73323 0.0
C904 C 0.98112 0.17384 0.73759 0.0
C905 C 1.00014 0.23842 0.72771 0.0
C906 C 0.94196 0.1647 0.73492 0.0
H907 H 0.89474 0.04518 0.76667 0.0
N908 N 0.87519 0.12227 0.73917 0.0
C909 C 0.85168 0.06096 0.7582 0.0
C910 C 0.91228 0.12904 0.74092 0.0
C911 C 0.84497 0.08916 0.74846 0.0
C912 C 0.88961 0.06703 0.75905 0.0
C913 C 0.92056 0.10153 0.75053 0.0
O914 O 0.83371 0.15973 0.75826 0.0
O915 O 0.82327 0.17277 0.7004 0.0
O916 O 0.84378 0.23047 0.68513 0.0
O917 O 0.88586 0.23058 0.71657 0.0
O918 O 0.804 0.13243 0.72833 0.0
O919 O 0.89065 0.20801 0.75583 0.0
O920 O 0.87283 0.19996 0.62575 0.0
O921 O 0.8846 0.18315 0.6836 0.0
O922 O 0.85881 0.12277 0.70104 0.0
O923 O 0.82067 0.12539 0.66754 0.0
O924 O 0.90238 0.22559 0.65719 0.0
O925 O 0.81975 0.1471 0.62936 0.0
C926 C 0.79243 0.14654 0.71052 0.0
C927 C 0.86786 0.18053 0.79755 0.0
C928 C 0.8611 0.18402 0.84467 0.0
C929 C 0.85521 0.19294 0.81914 0.0
C930 C 0.87821 0.16131 0.84803 0.0
C931 C 0.88624 0.1593 0.80183 0.0
C932 C 0.89094 0.1494 0.82682 0.0
C933 C 0.8682 0.24664 0.70459 0.0
C934 C 0.86053 0.18836 0.77071 0.0
C935 C 0.95942 0.10979 0.75208 0.0
C936 C 0.98969 0.14587 0.74546 0.0
C937 C 0.91494 0.21073 0.6737 0.0
C938 C 0.83795 0.17394 0.58727 0.0
C939 C 0.85487 0.16584 0.56596 0.0
C940 C 0.84644 0.17169 0.54031 0.0
C941 C 0.82062 0.18555 0.53658 0.0
C942 C 0.81212 0.18737 0.58284 0.0
C943 C 0.80357 0.19314 0.55765 0.0
C944 C 0.83504 0.1075 0.68116 0.0
C945 C 0.84822 0.16924 0.61398 0.0
H946 H 0.84147 0.20984 0.8161 0.0
H947 H 0.88206 0.15293 0.86721 0.0
H948 H 0.89677 0.15006 0.78588 0.0
H949 H 0.9046 0.13245 0.82978 0.0
H950 H 0.87421 0.15471 0.56942 0.0
H951 H 0.81384 0.19094 0.51728 0.0
H952 H 0.79863 0.1935 0.5988 0.0
H953 H 0.78376 0.20376 0.55444 0.0
C954 C 0.33771 0.91938 0.06302 0.0
C955 C 0.33201 0.8827 0.06422 0.0
C956 C 0.37324 0.94977 0.05457 0.0
C957 C 0.40462 0.94481 0.04708 0.0
H958 H 0.31456 0.92466 0.06879 0.0
H959 H 0.37653 0.97769 0.05444 0.0
S960 S 0.4049 0.85432 0.04773 0.0
N961 N 0.36048 0.84284 0.05723 0.0
N962 N 0.42788 0.90028 0.04254 0.0
C963 C 0.39927 0.9082 0.04817 0.0
C964 C 0.36277 0.87707 0.05637 0.0
C965 C 0.10009 0.42287 0.06274 0.0
C966 C 0.13873 0.45296 0.06309 0.0
C967 C 0.0691 0.42813 0.05491 0.0
C968 C 0.07513 0.46367 0.04693 0.0
H969 H 0.09365 0.39499 0.06888 0.0
H970 H 0.03985 0.40413 0.05553 0.0
S971 S 0.17052 0.55207 0.04579 0.0
N972 N 0.18118 0.51979 0.05533 0.0
N973 N 0.12299 0.52981 0.04108 0.0
C974 C 0.11365 0.49399 0.04706 0.0
C975 C 0.14534 0.48855 0.05492 0.0
C976 C 0.53344 0.66931 0.0493 0.0
C977 C 0.5653 0.69027 0.06576 0.0
C978 C 0.5258 0.6345 0.03931 0.0
C979 C 0.54904 0.61862 0.04586 0.0
H980 H 0.51396 0.6797 0.04419 0.0
H981 H 0.50103 0.61974 0.02667 0.0
S982 S 0.63842 0.6638 0.08611 0.0
N983 N 0.62254 0.69418 0.08608 0.0
N984 N 0.60686 0.62791 0.06867 0.0
C985 C 0.5814 0.63958 0.06196 0.0
C986 C 0.58975 0.67547 0.07163 0.0
C987 C 0.88341 0.35273 0.96888 0.0
C988 C 0.86935 0.31977 0.98403 0.0
C989 C 0.91142 0.38797 0.97856 0.0
C990 C 0.92623 0.3916 1.00375 0.0
H991 H 0.87255 0.35131 0.94946 0.0
H992 H 0.92154 0.41264 0.96624 0.0
S993 S 0.90258 0.31387 0.05015 0.0
N994 N 0.87467 0.29297 0.02491 0.0
N995 N 0.92733 0.3592 0.0428 0.0
C996 C 0.91305 0.359 0.01892 0.0
C997 C 0.88459 0.32309 1.00913 0.0
C998 C 0.68447 0.57903 0.98306 0.0
C999 C 0.68908 0.54713 0.98161 0.0
C1000 C 0.64954 0.5764 0.99191 0.0
C1001 C 0.6173 0.54178 0.99974 0.0
H1002 H 0.70805 0.60637 0.97713 0.0
H1003 H 0.64744 0.6018 0.9921 0.0
S1004 S 0.61352 0.44934 0.99894 0.0
N1005 N 0.65801 0.4795 0.98881 0.0
N1006 N 0.59225 0.47455 1.00458 0.0
C1007 C 0.62151 0.50963 0.99857 0.0
C1008 C 0.65737 0.51235 0.98982 0.0
C1009 C 0.44481 0.12363 1.00882 0.0
C1010 C 0.45467 0.13819 0.98337 0.0
C1011 C 0.45627 0.09867 0.01873 0.0
C1012 C 0.47749 0.08698 1.00344 0.0
H1013 H 0.42754 0.13109 0.0211 0.0
H1014 H 0.44742 0.08757 0.03816 0.0
S1015 S 0.51317 0.11819 0.93653 0.0
N1016 N 0.48935 0.14052 0.94384 0.0
N1017 N 0.50938 0.09247 0.96224 0.0
C1018 C 0.48789 0.10138 0.97818 0.0
C1019 C 0.4768 0.12721 0.96818 0.0
C1020 C 0.67221 0.09599 0.99356 0.0
C1021 C 0.67649 0.13214 0.99332 0.0
C1022 C 0.63573 0.06393 0.99849 0.0
C1023 C 0.60252 0.06697 1.00402 0.0
H1024 H 0.69722 0.09247 0.99023 0.0
H1025 H 0.63356 0.03647 0.99829 0.0
S1026 S 0.59866 0.15573 1.00425 0.0
N1027 N 0.64481 0.16943 0.99822 0.0
N1028 N 0.57639 0.10939 1.00704 0.0
C1029 C 0.60655 0.1031 1.0033 0.0
C1030 C 0.64359 0.13565 0.99818 0.0
C1031 C 0.87425 0.49521 0.99736 0.0
C1032 C 0.87385 0.52824 0.99013 0.0
C1033 C 0.9095 0.49536 1.00163 0.0
C1034 C 0.94574 0.52874 0.99925 0.0
H1035 H 0.84706 0.46908 1.00005 0.0
H1036 H 0.90828 0.46917 1.00688 0.0
S1037 S 0.96042 0.62252 0.98022 0.0
N1038 N 0.91261 0.59492 0.98035 0.0
N1039 N 0.97872 0.59539 0.9883 0.0
C1040 C 0.94557 0.56172 0.99147 0.0
C1041 C 0.9097 0.56151 0.98713 0.0
C1042 C 0.49394 0.34552 1.01023 0.0
C1043 C 0.46157 0.32326 0.9948 0.0
C1044 C 0.50612 0.38351 1.0144 0.0
C1045 C 0.48618 0.40068 1.00346 0.0
H1046 H 0.50934 0.33324 0.01983 0.0
H1047 H 0.53102 0.3992 0.02677 0.0
S1048 S 0.40118 0.35417 0.95942 0.0
N1049 N 0.41093 0.32052 0.96712 0.0
N1050 N 0.43384 0.39231 0.9746 0.0
C1051 C 0.45468 0.37881 0.98686 0.0
C1052 C 0.44226 0.3399 0.9827 0.0
C1053 C 0.11709 0.67072 0.05894 0.0
C1054 C 0.1554 0.6867 0.04962 0.0
C1055 C 0.08944 0.63289 0.05355 0.0
C1056 C 0.09902 0.61011 0.03822 0.0
H1057 H 0.10826 0.68764 0.07002 0.0
H1058 H 0.06015 0.6218 0.06097 0.0
S1059 S 0.19695 0.63988 1.01042 0.0
N1060 N 0.20235 0.67752 0.02556 0.0
N1061 N 0.15094 0.60731 1.01477 0.0
C1062 C 0.13776 0.62625 0.02923 0.0
C1063 C 0.16577 0.66433 0.0351 0.0
C1064 C 0.34753 0.43789 0.05329 0.0
C1065 C 0.34245 0.46947 0.05421 0.0
C1066 C 0.38458 0.4419 0.0488 0.0
C1067 C 0.41788 0.47751 0.04441 0.0
H1068 H 0.3227 0.40988 0.05581 0.0
H1069 H 0.38715 0.41676 0.04846 0.0
S1070 S 0.41992 0.5691 0.0464 0.0
N1071 N 0.37366 0.5375 0.05119 0.0
N1072 N 0.44304 0.54509 0.04324 0.0
C1073 C 0.41307 0.5093 0.0458 0.0
C1074 C 0.3754 0.5052 0.05046 0.0
C1075 C 0.53183 0.87294 0.06679 0.0
C1076 C 0.56197 0.87358 0.05203 0.0
C1077 C 0.51959 0.89934 0.06214 0.0
C1078 C 0.53693 0.92656 0.04243 0.0
H1079 H 0.51694 0.85134 0.08142 0.0
H1080 H 0.49585 0.89784 0.0735 0.0
S1081 S 0.61777 0.94061 0.99927 0.0
N1082 N 0.60945 0.90412 0.0176 0.0
N1083 N 0.58657 0.9537 1.00901 0.0
C1084 C 0.56766 0.92798 0.0281 0.0
C1085 C 0.58016 0.90137 0.03286 0.0
C1086 C 1.00318 0.24582 0.3981 0.0
C1087 C 0.99965 0.21001 0.40016 0.0
C1088 C 0.03742 0.27686 0.38863 0.0
C1089 C 0.06969 0.27354 0.38087 0.0
H1090 H 0.97928 0.24992 0.40396 0.0
H1091 H 0.03897 0.30404 0.38785 0.0
S1092 S 0.07587 0.1861 0.38327 0.0
N1093 N 0.03141 0.17288 0.39368 0.0
N1094 N 0.09623 0.23159 0.3768 0.0
C1095 C 0.06657 0.23785 0.38274 0.0
C1096 C 0.03141 0.20602 0.39208 0.0
C1097 C 0.7657 0.75471 0.39456 0.0
C1098 C 0.80366 0.78582 0.3958 0.0
C1099 C 0.73397 0.75885 0.38683 0.0
C1100 C 0.73854 0.79428 0.38009 0.0
H1101 H 0.76041 0.7269 0.39984 0.0
H1102 H 0.70528 0.73403 0.3866 0.0
S1103 S 0.83178 0.88506 0.38156 0.0
N1104 N 0.84405 0.8534 0.38992 0.0
N1105 N 0.78433 0.86141 0.37656 0.0
C1106 C 0.77639 0.82567 0.38132 0.0
C1107 C 0.8089 0.82135 0.38878 0.0
C1108 C 0.25266 0.0121 0.40329 0.0
C1109 C 0.23226 0.03055 0.3958 0.0
C1110 C 0.24295 0.97665 0.39351 0.0
C1111 C 0.2127 0.95805 0.37546 0.0
H1112 H 0.27661 0.02522 0.41679 0.0
H1113 H 0.25951 0.96383 0.4003 0.0
S1114 S 0.15045 0.99459 0.34927 0.0
N1115 N 0.18003 0.02747 0.36945 0.0
N1116 N 0.16295 0.96169 0.35012 0.0
C1117 C 0.19262 0.97662 0.36733 0.0
C1118 C 0.2021 0.01257 0.37769 0.0
C1119 C 0.52387 0.67345 0.32659 0.0
C1120 C 0.53451 0.64993 0.31324 0.0
C1121 C 0.55207 0.7085 0.33649 0.0
C1122 C 0.59216 0.72171 0.33328 0.0
H1123 H 0.49343 0.6649 0.32919 0.0
H1124 H 0.54229 0.72563 0.34634 0.0
S1125 S 0.63554 0.66944 0.30214 0.0
N1126 N 0.58815 0.64127 0.29928 0.0
N1127 N 0.64084 0.70723 0.31708 0.0
C1128 C 0.60316 0.69819 0.32036 0.0
C1129 C 0.57449 0.66238 0.31055 0.0
C1130 C 0.32414 0.85327 0.32598 0.0
C1131 C 0.35634 0.88753 0.31737 0.0
C1132 C 0.28887 0.85115 0.33396 0.0
C1133 C 0.28454 0.88329 0.33409 0.0
H1134 H 0.32567 0.82758 0.32563 0.0
H1135 H 0.26446 0.82401 0.33909 0.0
S1136 S 0.36117 0.98047 0.31672 0.0
N1137 N 0.38217 0.95483 0.31192 0.0
N1138 N 0.3165 0.95078 0.32675 0.0
C1139 C 0.31702 0.91783 0.32667 0.0
C1140 C 0.35268 0.92 0.31845 0.0
C1141 C 0.15123 0.48114 0.33183 0.0
C1142 C 0.11937 0.472 0.31541 0.0
C1143 C 0.15901 0.45344 0.34137 0.0
C1144 C 0.13599 0.41538 0.3344 0.0
H1145 H 0.1707 0.51012 0.33726 0.0
H1146 H 0.18377 0.46222 0.35399 0.0
S1147 S 0.04705 0.37576 0.29371 0.0
N1148 N 0.06261 0.42138 0.29441 0.0
N1149 N 0.07854 0.36975 0.31098 0.0
C1150 C 0.10374 0.4057 0.31821 0.0
C1151 C 0.09523 0.43384 0.30899 0.0
C1152 C 0.33607 0.42711 0.32679 0.0
C1153 C 0.341 0.46348 0.32576 0.0
C1154 C 0.29911 0.39548 0.3312 0.0
C1155 C 0.26597 0.39916 0.33545 0.0
H1156 H 0.36094 0.42308 0.32443 0.0
H1157 H 0.2965 0.36787 0.33158 0.0
S1158 S 0.2638 0.48869 0.3328 0.0
N1159 N 0.31008 0.50167 0.3283 0.0
N1160 N 0.24064 0.44236 0.3361 0.0
C1161 C 0.27064 0.4355 0.33386 0.0
C1162 C 0.30823 0.46764 0.32926 0.0
C1163 C 0.53658 0.82753 0.33204 0.0
C1164 C 0.53684 0.86153 0.32708 0.0
C1165 C 0.57146 0.8268 0.33611 0.0
C1166 C 0.60793 0.86018 0.33584 0.0
H1167 H 0.50918 0.80126 0.333 0.0
H1168 H 0.56974 0.79991 0.33939 0.0
S1169 S 0.62431 0.95641 0.32339 0.0
N1170 N 0.57653 0.92921 0.32185 0.0
N1171 N 0.64184 0.92803 0.32945 0.0
C1172 C 0.60841 0.89421 0.33046 0.0
C1173 C 0.57296 0.8949 0.3263 0.0
C1174 C 0.11055 0.67701 0.32417 0.0
C1175 C 0.13659 0.66384 0.32896 0.0
C1176 C 0.12177 0.71506 0.32818 0.0
C1177 C 0.15911 0.7408 0.33755 0.0
H1178 H 0.08107 0.65764 0.31805 0.0
H1179 H 0.10053 0.72394 0.32494 0.0
S1180 S 0.23865 0.72004 0.35087 0.0
N1181 N 0.20162 0.67923 0.34187 0.0
N1182 N 0.22283 0.75046 0.34955 0.0
C1183 C 0.18568 0.72788 0.34148 0.0
C1184 C 0.17434 0.6894 0.33717 0.0
C1185 C 0.82809 0.98727 0.37421 0.0
C1186 C 0.82227 0.0107 0.39102 0.0
C1187 C 0.79786 0.9512 0.36832 0.0
C1188 C 0.76022 0.93668 0.37897 0.0
H1189 H 0.85618 0.99717 0.36501 0.0
H1190 H 0.80438 0.93475 0.35506 0.0
S1191 S 0.73066 0.98718 0.42524 0.0
N1192 N 0.77695 0.01749 0.419 0.0
N1193 N 0.71966 0.94904 0.40827 0.0
C1194 C 0.75433 0.95973 0.39652 0.0
C1195 C 0.78543 0.99692 0.40242 0.0
C1196 C 0.01355 0.77239 0.38508 0.0
C1197 C 1.00744 0.80337 0.38533 0.0
C1198 C 0.05113 0.77734 0.3812 0.0
C1199 C 0.08385 0.81331 0.37667 0.0
H1200 H 0.98915 0.74413 0.38763 0.0
H1201 H 0.05453 0.75267 0.38129 0.0
S1202 S 0.08302 0.9035 0.3777 0.0
N1203 N 0.037 0.87114 0.38213 0.0
N1204 N 0.10733 0.88057 0.37494 0.0
C1205 C 0.07797 0.84448 0.37749 0.0
C1206 C 0.03981 0.83942 0.38168 0.0
C1207 C 0.20789 0.21246 0.39924 0.0
C1208 C 0.23782 0.2142 0.3836 0.0
C1209 C 0.19265 0.23652 0.39446 0.0
C1210 C 0.2067 0.26246 0.37377 0.0
H1211 H 0.19582 0.19208 0.41489 0.0
H1212 H 0.1693 0.23433 0.40663 0.0
S1213 S 0.28573 0.27868 0.3281 0.0
N1214 N 0.28154 0.24442 0.34728 0.0
N1215 N 0.25309 0.28951 0.33845 0.0
C1216 C 0.23703 0.26478 0.35845 0.0
C1217 C 0.25255 0.24058 0.36333 0.0
C1218 C 0.69215 0.54595 0.72086 0.0
C1219 C 0.66149 0.55113 0.72988 0.0
C1220 C 0.72782 0.57671 0.71245 0.0
C1221 C 0.73364 0.61356 0.71218 0.0
H1222 H 0.68894 0.51808 0.72109 0.0
H1223 H 0.75125 0.57176 0.70687 0.0
S1224 S 0.66127 0.64156 0.73111 0.0
N1225 N 0.63862 0.59559 0.73624 0.0
N1226 N 0.70498 0.653 0.72016 0.0
C1227 C 0.70267 0.61873 0.72021 0.0
C1228 C 0.66675 0.58766 0.72902 0.0
C1229 C 0.43649 0.09093 0.73272 0.0
C1230 C 0.47487 0.12156 0.73265 0.0
C1231 C 0.40475 0.09528 0.72519 0.0
C1232 C 0.4097 0.13039 0.71707 0.0
H1233 H 0.43086 0.0633 0.73883 0.0
H1234 H 0.37581 0.07085 0.726 0.0
S1235 S 0.50383 0.22013 0.71568 0.0
N1236 N 0.51573 0.18859 0.7249 0.0
N1237 N 0.45624 0.19689 0.71122 0.0
C1238 C 0.44789 0.16131 0.71707 0.0
C1239 C 0.48032 0.15681 0.72462 0.0
C1240 C 0.91832 0.3423 0.73727 0.0
C1241 C 0.89277 0.35621 0.73271 0.0
C1242 C 0.9102 0.30699 0.72798 0.0
C1243 C 0.87629 0.28423 0.71364 0.0
H1244 H 0.94513 0.35909 0.74778 0.0
H1245 H 0.93094 0.29769 0.73191 0.0
S1246 S 0.7984 0.30653 0.69822 0.0
N1247 N 0.83109 0.34364 0.71423 0.0
N1248 N 0.81601 0.27759 0.69652 0.0
C1249 C 0.85027 0.29767 0.7092 0.0
C1250 C 0.85846 0.33354 0.71879 0.0
C1251 C 0.24108 0.99804 0.64645 0.0
C1252 C 0.20143 0.98115 0.65346 0.0
C1253 C 0.26908 0.03323 0.65628 0.0
C1254 C 0.25918 0.05325 0.67403 0.0
H1255 H 0.25087 0.98394 0.63329 0.0
H1256 H 0.29888 0.04479 0.64975 0.0
S1257 S 0.15966 0.02122 0.69956 0.0
N1258 N 0.15382 0.98792 0.67923 0.0
N1259 N 0.20665 0.05221 0.69904 0.0
C1260 C 0.21988 0.03617 0.68187 0.0
C1261 C 0.19109 0.00075 0.67131 0.0
C1262 C 0.02108 0.25528 0.65202 0.0
C1263 C 0.02859 0.22511 0.65121 0.0
C1264 C 0.98496 0.2502 0.66068 0.0
C1265 C 0.95434 0.21471 0.66886 0.0
H1266 H 0.04328 0.28312 0.64578 0.0
H1267 H 0.98065 0.27435 0.66043 0.0
S1268 S 0.95843 0.12613 0.66918 0.0
N1269 N 1.00208 0.15826 0.65906 0.0
N1270 N 0.93403 0.14852 0.6744 0.0
C1271 C 0.96148 0.18429 0.66818 0.0
C1272 C 0.99856 0.18958 0.65967 0.0
C1273 C 0.80604 0.796 0.63595 0.0
C1274 C 0.78021 0.80295 0.65048 0.0
C1275 C 0.81922 0.7721 0.64544 0.0
C1276 C 0.80745 0.75474 0.66989 0.0
H1277 H 0.81649 0.80948 0.61728 0.0
H1278 H 0.83866 0.76701 0.63354 0.0
S1279 S 0.73656 0.75972 0.71407 0.0
N1280 N 0.74087 0.78777 0.68966 0.0
N1281 N 0.76594 0.74315 0.70728 0.0
C1282 C 0.78104 0.76066 0.68431 0.0
C1283 C 0.76739 0.78472 0.67467 0.0
C1284 C 0.97565 0.79737 0.66526 0.0
C1285 C 1.0078 0.79286 0.6593 0.0
C1286 C 0.93828 0.76594 0.66942 0.0
C1287 C 0.93203 0.72896 0.6682 0.0
H1288 H 0.9795 0.82538 0.66714 0.0
H1289 H 0.91423 0.77061 0.6736 0.0
S1290 S 1.0068 0.70229 0.65346 0.0
N1291 N 0.031 0.74884 0.65249 0.0
N1292 N 0.96117 0.68992 0.66017 0.0
C1293 C 0.96398 0.72431 0.6619 0.0
C1294 C 1.00182 0.75621 0.65767 0.0
C1295 C 0.25266 0.23813 0.65934 0.0
C1296 C 0.21458 0.20719 0.65947 0.0
C1297 C 0.28518 0.23314 0.66308 0.0
C1298 C 0.28083 0.19723 0.66803 0.0
H1299 H 0.25738 0.26637 0.65666 0.0
H1300 H 0.31401 0.25777 0.66278 0.0
S1301 S 0.18717 0.10712 0.66692 0.0
N1302 N 0.17445 0.13946 0.6626 0.0
N1303 N 0.23505 0.13002 0.6698 0.0
C1304 C 0.24284 0.16611 0.6673 0.0
C1305 C 0.2099 0.17118 0.66313 0.0
C1306 C 0.77232 0.00729 0.65628 0.0
C1307 C 0.79296 0.98956 0.66446 0.0
C1308 C 0.78679 0.0458 0.66104 0.0
C1309 C 0.82192 0.06754 0.67461 0.0
H1310 H 0.74447 0.99118 0.64677 0.0
H1311 H 0.7696 0.05817 0.65473 0.0
S1312 S 0.88758 0.03337 0.69816 0.0
N1313 N 0.85072 0.99599 0.68506 0.0
N1314 N 0.87768 0.06784 0.69463 0.0
C1315 C 0.84306 0.04979 0.68218 0.0
C1316 C 0.82859 0.0109 0.67694 0.0
C1317 C 0.44804 0.33608 0.72671 0.0
C1318 C 0.48646 0.35231 0.71748 0.0
C1319 C 0.42062 0.29805 0.72149 0.0
C1320 C 0.43049 0.27522 0.70642 0.0
H1321 H 0.43896 0.35295 0.7376 0.0
H1322 H 0.39128 0.28681 0.72886 0.0
S1323 S 0.52871 0.30562 0.67885 0.0
N1324 N 0.53371 0.34328 0.69372 0.0
N1325 N 0.48279 0.27281 0.68322 0.0
C1326 C 0.46929 0.29165 0.69746 0.0
C1327 C 0.49707 0.32992 0.70318 0.0
C1328 C 0.71302 0.17405 0.71525 0.0
C1329 C 0.67938 0.13961 0.72138 0.0
C1330 C 0.7494 0.17628 0.71122 0.0
C1331 C 0.75348 0.14405 0.71276 0.0
H1332 H 0.71121 0.19952 0.71338 0.0
H1333 H 0.77448 0.20343 0.70708 0.0
S1334 S 0.67415 0.04706 0.72795 0.0
N1335 N 0.65244 0.07261 0.72862 0.0
N1336 N 0.7204 0.07664 0.72112 0.0
C1337 C 0.71998 0.10953 0.71905 0.0
C1338 C 0.68304 0.1073 0.72317 0.0
C1339 C 0.89028 0.55136 0.69013 0.0
C1340 C 0.88881 0.53714 0.71509 0.0
C1341 C 0.87725 0.57692 0.68536 0.0
C1342 C 0.86201 0.58893 0.70534 0.0
H1343 H 0.90147 0.54255 0.67408 0.0
H1344 H 0.88002 0.58796 0.66599 0.0
S1345 S 0.85291 0.5605 0.77439 0.0
N1346 N 0.87187 0.53712 0.76024 0.0
N1347 N 0.8472 0.5854 0.7513 0.0
C1348 C 0.8611 0.57542 0.73057 0.0
C1349 C 0.87439 0.54926 0.73543 0.0
C1350 C 0.43791 0.92586 0.22686 0.0
C1351 C 0.46174 0.93027 0.24843 0.0
C1352 C 0.4533 0.9467 0.20372 0.0
C1353 C 0.49325 0.9731 0.20109 0.0
H1354 H 0.40688 0.90638 0.22793 0.0
H1355 H 0.4335 0.94309 0.18815 0.0
S1356 S 0.56893 0.99394 0.2508 0.0
N1357 N 0.52795 0.96264 0.26491 0.0
N1358 N 0.55675 1.00043 0.22149 0.0
C1359 C 0.51761 0.9767 0.22208 0.0
C1360 C 0.50197 0.95569 0.24562 0.0
C1361 C 0.04633 0.53956 0.2432 0.0
C1362 C 0.07648 0.53096 0.24563 0.0
C1363 C 0.02643 0.53446 0.21984 0.0
C1364 C 0.03506 0.5198 0.19777 0.0
H1365 H 0.03689 0.5491 0.25975 0.0
H1366 H 1.0034 0.5414 0.2193 0.0
S1367 S 0.11379 0.49579 0.19293 0.0
N1368 N 0.11668 0.51065 0.22292 0.0
N1369 N 0.07735 0.49838 0.17959 0.0
C1370 C 0.06607 0.51229 0.19956 0.0
C1371 C 0.08702 0.51831 0.22331 0.0
C1372 C 0.52783 0.5558 0.24156 0.0
C1373 C 0.48983 0.54947 0.24556 0.0
C1374 C 0.53838 0.54469 0.21873 0.0
C1375 C 0.51153 0.5267 0.19864 0.0
H1376 H 0.54976 0.56932 0.25637 0.0
H1377 H 0.56805 0.55034 0.21681 0.0
S1378 S 0.40817 0.50335 0.19912 0.0
N1379 N 0.42514 0.52409 0.22725 0.0
N1380 N 0.44492 0.50282 0.18433 0.0
C1381 C 0.47338 0.52023 0.20222 0.0
C1382 C 0.46251 0.53147 0.22568 0.0
C1383 C 0.98046 0.48785 0.80388 0.0
C1384 C 0.94412 0.45473 0.8018 0.0
C1385 C 1.0017 0.49702 0.82701 0.0
C1386 C 0.98739 0.47354 0.84903 0.0
H1387 H 0.99356 0.50586 0.78713 0.0
H1388 H 0.03012 0.52217 0.82741 0.0
S1389 S 0.89195 0.38548 0.85442 0.0
N1390 N 0.89318 0.4001 0.82442 0.0
N1391 N 0.93341 0.41685 0.86768 0.0
C1392 C 0.95015 0.4414 0.84763 0.0
C1393 C 0.92851 0.43208 0.82407 0.0
C1394 C 0.51954 0.48137 0.80244 0.0
C1395 C 0.55903 0.49162 0.80003 0.0
C1396 C 0.50431 0.48629 0.82572 0.0
C1397 C 0.52779 0.50191 0.84776 0.0
H1398 H 0.50033 0.47051 0.78594 0.0
H1399 H 0.47381 0.47828 0.82629 0.0
S1400 S 0.63261 0.53105 0.85243 0.0
N1401 N 0.62076 0.51559 0.82251 0.0
N1402 N 0.59255 0.52635 0.86583 0.0
C1403 C 0.56708 0.5112 0.84593 0.0
C1404 C 0.58258 0.50586 0.82221 0.0
C1405 C 0.5158 0.08411 0.82281 0.0
C1406 C 0.53155 0.07502 0.80128 0.0
C1407 C 0.50694 0.06351 0.84621 0.0
C1408 C 0.51307 0.03264 0.84907 0.0
H1409 H 0.50943 0.1069 0.82137 0.0
H1410 H 0.49353 0.07075 0.86176 0.0
S1411 S 0.55652 0.99885 0.79961 0.0
N1412 N 0.55485 0.03408 0.78517 0.0
N1413 N 0.53868 0.99586 0.82898 0.0
C1414 C 0.53043 0.02434 0.82815 0.0
C1415 C 0.5396 0.04538 0.80438 0.0
C1416 C 0.1089 0.26658 0.56007 0.0
C1417 C 0.13367 0.27378 0.58156 0.0
C1418 C 0.12274 0.28648 0.53643 0.0
C1419 C 0.16199 0.31466 0.5332 0.0
H1420 H 0.07835 0.24555 0.56156 0.0
H1421 H 0.10223 0.28064 0.52089 0.0
S1422 S 0.23963 0.3433 0.58259 0.0
N1423 N 0.19994 0.31097 0.5974 0.0
N1424 N 0.22595 0.34686 0.55306 0.0
C1425 C 0.18731 0.32116 0.55416 0.0
C1426 C 0.17323 0.30117 0.57822 0.0
C1427 C 0.73563 0.83861 0.55957 0.0
C1428 C 0.72335 0.84991 0.58175 0.0
C1429 C 0.71555 0.83153 0.53593 0.0
C1430 C 0.68233 0.83546 0.53345 0.0
H1431 H 0.76078 0.83483 0.56051 0.0
H1432 H 0.72542 0.82175 0.51972 0.0
S1433 S 0.63904 0.86616 0.58506 0.0
N1434 N 0.67557 0.86485 0.59932 0.0
N1435 N 0.63981 0.85406 0.55476 0.0
C1436 C 0.67065 0.8481 0.55517 0.0
C1437 C 0.6906 0.85469 0.57929 0.0
C1438 C 0.19736 0.89683 0.57521 0.0
C1439 C 0.15871 0.88783 0.58041 0.0
C1440 C 0.20801 0.88737 0.55172 0.0
C1441 C 0.18061 0.86825 0.5321 0.0
H1442 H 0.21975 0.91082 0.58968 0.0
H1443 H 0.23815 0.89485 0.54902 0.0
S1444 S 0.07562 0.83878 0.53529 0.0
N1445 N 0.09295 0.85945 0.56339 0.0
N1446 N 0.11291 0.841 0.51933 0.0
C1447 C 0.1419 0.85947 0.53673 0.0
C1448 C 0.13095 0.86917 0.56085 0.0
C1449 C 0.64865 0.78088 0.13994 0.0
C1450 C 0.61849 0.78864 0.13455 0.0
C1451 C 0.66962 0.79235 0.16305 0.0
C1452 C 0.66151 0.81217 0.1819 0.0
H1453 H 0.65652 0.7661 0.12599 0.0
H1454 H 0.69251 0.78559 0.16616 0.0
S1455 S 0.58545 0.83964 0.17751 0.0
N1456 N 0.5813 0.81718 0.15017 0.0
N1457 N 0.62122 0.83925 0.19367 0.0
C1458 C 0.63132 0.82004 0.17695 0.0
C1459 C 0.60988 0.80837 0.15322 0.0
C1460 C 0.18786 0.81336 0.13536 0.0
C1461 C 0.22751 0.82416 0.13316 0.0
C1462 C 0.17215 0.81789 0.15853 0.0
C1463 C 0.19532 0.83388 0.18065 0.0
H1464 H 0.16882 0.80236 0.11879 0.0
H1465 H 0.1415 0.80932 0.15891 0.0
S1466 S 0.30039 0.86427 0.18596 0.0
N1467 N 0.28902 0.84869 0.15604 0.0
N1468 N 0.25998 0.85915 0.19906 0.0
C1469 C 0.23479 0.84372 0.17905 0.0
C1470 C 0.25075 0.83858 0.15547 0.0
C1471 C 0.15212 0.36807 0.13605 0.0
C1472 C 0.18858 0.40067 0.13198 0.0
C1473 C 0.14281 0.34766 0.15939 0.0
C1474 C 0.16945 0.35855 0.18 0.0
H1475 H 0.13041 0.35795 0.12092 0.0
H1476 H 0.11422 0.32292 0.16126 0.0
S1477 S 0.26905 0.44184 0.1797 0.0
N1478 N 0.25152 0.44324 0.15097 0.0
N1479 N 0.23428 0.40433 0.19468 0.0
C1480 C 0.20607 0.39117 0.17637 0.0
C1481 C 0.21562 0.41213 0.15242 0.0
C1482 C 0.77067 0.59037 0.89119 0.0
C1483 C 0.7949 0.59496 0.91256 0.0
C1484 C 0.78557 0.61136 0.86805 0.0
C1485 C 0.8254 0.63807 0.86519 0.0
H1486 H 0.73973 0.57057 0.89239 0.0
H1487 H 0.76547 0.60758 0.85263 0.0
S1488 S 0.90197 0.65959 0.91437 0.0
N1489 N 0.86132 0.628 0.92866 0.0
N1490 N 0.88922 0.66591 0.8852 0.0
C1491 C 0.85014 0.64189 0.886 0.0
C1492 C 0.835 0.62079 0.90957 0.0
C1493 C 0.41221 0.21375 0.89615 0.0
C1494 C 0.3978 0.18374 0.91409 0.0
C1495 C 0.39342 0.21018 0.87238 0.0
C1496 C 0.3592 0.17671 0.866 0.0
H1497 H 0.43801 0.24026 0.90062 0.0
H1498 H 0.40498 0.23414 0.85931 0.0
S1499 S 0.30988 0.08982 0.90602 0.0
N1500 N 0.34762 0.1193 0.92354 0.0
N1501 N 0.31222 0.11283 0.87913 0.0
C1502 C 0.34487 0.14639 0.88358 0.0
C1503 C 0.3642 0.14983 0.90755 0.0
C1504 C 0.80271 0.20417 0.89524 0.0
C1505 C 0.82964 0.22093 0.91554 0.0
C1506 C 0.81318 0.19341 0.87193 0.0
C1507 C 0.85085 0.19869 0.86817 0.0
H1508 H 0.77348 0.19968 0.89728 0.0
H1509 H 0.79142 0.18015 0.857 0.0
S1510 S 0.93211 0.2412 0.91524 0.0
N1511 N 0.89547 0.24146 0.93026 0.0
N1512 N 0.91529 0.22273 0.88658 0.0
C1513 C 0.87799 0.21569 0.88826 0.0
C1514 C 0.86736 0.22634 0.91187 0.0
C1515 C 0.31223 0.10648 0.4751 0.0
C1516 C 0.28722 0.12062 0.46908 0.0
C1517 C 0.33208 0.11453 0.49861 0.0
C1518 C 0.32821 0.13739 0.51723 0.0
H1519 H 0.31725 0.08953 0.46125 0.0
H1520 H 0.35096 0.1029 0.50213 0.0
S1521 S 0.26585 0.18102 0.51152 0.0
N1522 N 0.25881 0.15787 0.48412 0.0
N1523 N 0.29709 0.17387 0.52829 0.0
C1524 C 0.30296 0.15144 0.51177 0.0
C1525 C 0.28247 0.14307 0.48767 0.0
C1526 C 0.8566 0.14077 0.47247 0.0
C1527 C 0.89662 0.15313 0.47019 0.0
C1528 C 0.84069 0.14583 0.49539 0.0
C1529 C 0.86399 0.16365 0.51716 0.0
H1530 H 0.83743 0.12797 0.45615 0.0
H1531 H 0.80977 0.13605 0.4959 0.0
S1532 S 0.97019 0.19908 0.52201 0.0
N1533 N 0.95883 0.18168 0.49252 0.0
N1534 N 0.92925 0.19265 0.5351 0.0
C1535 C 0.9039 0.17522 0.51544 0.0
C1536 C 0.92011 0.16976 0.49211 0.0
C1537 C 0.8449 0.75049 0.48672 0.0
C1538 C 0.85921 0.7398 0.46522 0.0
C1539 C 0.83545 0.73025 0.51029 0.0
C1540 C 0.83951 0.69819 0.5133 0.0
H1541 H 0.84005 0.77423 0.48512 0.0
H1542 H 0.82313 0.73873 0.52582 0.0
S1543 S 0.87846 0.65986 0.46393 0.0
N1544 N 0.87889 0.69601 0.44927 0.0
N1545 N 0.86153 0.65838 0.49339 0.0
C1546 C 0.85542 0.68822 0.49241 0.0
C1547 C 0.86522 0.70891 0.46848 0.0
loop_
_geom_bond_atom_site_label_1
_geom_bond_atom_site_label_2
_geom_bond_distance
_geom_bond_site_symmetry_2
_ccdc_geom_bond_type
H0 C3 0.929 . S
H1 C6 0.929 . S
H2 C8 0.930 . S
C3 H0 0.929 . S
C3 C4 1.398 . S
C3 C5 1.396 . S
C4 C3 1.398 . S
C4 C8 1.407 . S
C5 C3 1.396 . S
C5 C6 1.394 . S
C6 H1 0.929 . S
C6 C5 1.394 . S
C6 C7 1.382 . S
C7 C6 1.382 . S
C7 C8 1.392 . S
C7 N9 1.420 . S
C8 H2 0.930 . S
C8 C4 1.407 . S
C8 C7 1.392 . S
N9 C7 1.420 . S
N9 C10 1.244 . S
C10 N9 1.244 . S
H11 C14 0.929 . S
H12 C17 0.929 . S
H13 C19 0.930 . S
C14 H11 0.929 . S
C14 C15 1.398 . S
C14 C16 1.396 . S
C15 C14 1.398 . S
C15 C19 1.407 . S
C16 C14 1.396 . S
C16 C17 1.394 . S
C17 H12 0.929 . S
C17 C16 1.394 . S
C17 C18 1.382 . S
C18 C17 1.382 . S
C18 C19 1.392 . S
C18 N20 1.420 . S
C19 H13 0.930 . S
C19 C15 1.407 . S
C19 C18 1.392 . S
N20 C18 1.420 . S
N20 C21 1.244 . S
C21 N20 1.244 . S
H22 C25 0.929 . S
H23 C28 0.929 . S
H24 C30 0.930 . S
C25 H22 0.929 . S
C25 C26 1.398 . S
C25 C27 1.396 . S
C26 C25 1.398 . S
C26 C30 1.407 . S
C27 C25 1.396 . S
C27 C28 1.394 . S
C28 H23 0.929 . S
C28 C27 1.394 . S
C28 C29 1.382 . S
C29 C28 1.382 . S
C29 C30 1.392 . S
C29 N31 1.420 . S
C30 H24 0.930 . S
C30 C26 1.407 . S
C30 C29 1.392 . S
N31 C29 1.420 . S
N31 C32 1.244 . S
C32 N31 1.244 . S
H33 C36 0.929 . S
H34 C39 0.929 . S
H35 C41 0.930 . S
C36 H33 0.929 . S
C36 C37 1.398 . S
C36 C38 1.396 . S
C37 C36 1.398 . S
C37 C41 1.407 . S
C38 C36 1.396 . S
C38 C39 1.394 . S
C39 H34 0.929 . S
C39 C38 1.394 . S
C39 C40 1.382 . S
C40 C39 1.382 . S
C40 C41 1.392 . S
C40 N42 1.420 . S
C41 H35 0.930 . S
C41 C37 1.407 . S
C41 C40 1.392 . S
N42 C40 1.420 . S
N42 C43 1.244 . S
C43 N42 1.244 . S
H44 C47 0.929 . S
H45 C50 0.929 . S
H46 C52 0.930 . S
C47 H44 0.929 . S
C47 C48 1.398 . S
C47 C49 1.396 . S
C48 C47 1.398 . S
C48 C52 1.407 . S
C49 C47 1.396 . S
C49 C50 1.394 . S
C50 H45 0.929 . S
C50 C49 1.394 . S
C50 C51 1.382 . S
C51 C50 1.382 . S
C51 C52 1.392 . S
C51 N53 1.420 . S
C52 H46 0.930 . S
C52 C48 1.407 . S
C52 C51 1.392 . S
N53 C51 1.420 . S
N53 C54 1.244 . S
C54 N53 1.244 . S
H55 C58 0.929 . S
H56 C61 0.929 . S
H57 C63 0.930 . S
C58 H55 0.929 . S
C58 C59 1.398 . S
C58 C60 1.396 . S
C59 C58 1.398 . S
C59 C63 1.407 . S
C60 C58 1.396 . S
C60 C61 1.394 . S
C61 H56 0.929 . S
C61 C60 1.394 . S
C61 C62 1.382 . S
C62 C61 1.382 . S
C62 C63 1.392 . S
C62 N64 1.420 . S
C63 H57 0.930 . S
C63 C59 1.407 . S
C63 C62 1.392 . S
N64 C62 1.420 . S
N64 C65 1.244 . S
C65 N64 1.244 . S
H66 C69 0.929 . S
H67 C72 0.929 . S
H68 C74 0.930 . S
C69 H66 0.929 . S
C69 C70 1.398 . S
C69 C71 1.396 . S
C70 C69 1.398 . S
C70 C74 1.407 . S
C71 C69 1.396 . S
C71 C72 1.394 . S
C72 H67 0.929 . S
C72 C71 1.394 . S
C72 C73 1.382 . S
C73 C72 1.382 . S
C73 C74 1.392 . S
C73 N75 1.420 . S
C74 H68 0.930 . S
C74 C70 1.407 . S
C74 C73 1.392 . S
N75 C73 1.420 . S
N75 C76 1.244 . S
C76 N75 1.244 . S
H77 C80 0.929 . S
H78 C83 0.929 . S
H79 C85 0.930 . S
C80 H77 0.929 . S
C80 C81 1.398 . S
C80 C82 1.396 . S
C81 C80 1.398 . S
C81 C85 1.407 . S
C82 C80 1.396 . S
C82 C83 1.394 . S
C83 H78 0.929 . S
C83 C82 1.394 . S
C83 C84 1.382 . S
C84 C83 1.382 . S
C84 C85 1.392 . S
C84 N86 1.420 . S
C85 H79 0.930 . S
C85 C81 1.407 . S
C85 C84 1.392 . S
N86 C84 1.420 . S
N86 C87 1.244 . S
C87 N86 1.244 . S
H88 C91 0.929 . S
H89 C94 0.929 . S
H90 C96 0.930 . S
C91 H88 0.929 . S
C91 C92 1.398 . S
C91 C93 1.396 . S
C92 C91 1.398 . S
C92 C96 1.407 . S
C93 C91 1.396 . S
C93 C94 1.394 . S
C94 H89 0.929 . S
C94 C93 1.394 . S
C94 C95 1.382 . S
C95 C94 1.382 . S
C95 C96 1.392 . S
C95 N97 1.420 . S
C96 H90 0.930 . S
C96 C92 1.407 . S
C96 C95 1.392 . S
N97 C95 1.420 . S
N97 C98 1.244 . S
C98 N97 1.244 . S
H99 C102 0.929 . S
H100 C105 0.929 . S
H101 C107 0.930 . S
C102 H99 0.929 . S
C102 C103 1.398 . S
C102 C104 1.396 . S
C103 C102 1.398 . S
C103 C107 1.407 . S
C104 C102 1.396 . S
C104 C105 1.394 . S
C105 H100 0.929 . S
C105 C104 1.394 . S
C105 C106 1.382 . S
C106 C105 1.382 . S
C106 C107 1.392 . S
C106 N108 1.420 . S
C107 H101 0.930 . S
C107 C103 1.407 . S
C107 C106 1.392 . S
N108 C106 1.420 . S
N108 C109 1.244 . S
C109 N108 1.244 . S
H110 C113 0.929 . S
H111 C116 0.929 . S
H112 C118 0.930 . S
C113 H110 0.929 . S
C113 C114 1.398 . S
C113 C115 1.396 . S
C114 C113 1.398 . S
C114 C118 1.407 . S
C115 C113 1.396 . S
C115 C116 1.394 . S
C116 H111 0.929 . S
C116 C115 1.394 . S
C116 C117 1.382 . S
C117 C116 1.382 . S
C117 C118 1.392 . S
C117 N119 1.420 . S
C118 H112 0.930 . S
C118 C114 1.407 . S
C118 C117 1.392 . S
N119 C117 1.420 . S
N119 C120 1.244 . S
C120 N119 1.244 . S
H121 C124 0.929 . S
H122 C127 0.929 . S
H123 C129 0.930 . S
C124 H121 0.929 . S
C124 C125 1.398 . S
C124 C126 1.396 . S
C125 C124 1.398 . S
C125 C129 1.407 . S
C126 C124 1.396 . S
C126 C127 1.394 . S
C127 H122 0.929 . S
C127 C126 1.394 . S
C127 C128 1.382 . S
C128 C127 1.382 . S
C128 C129 1.392 . S
C128 N130 1.420 . S
C129 H123 0.930 . S
C129 C125 1.407 . S
C129 C128 1.392 . S
N130 C128 1.420 . S
N130 C131 1.244 . S
C131 N130 1.244 . S
H132 C135 0.929 . S
H133 C138 0.929 . S
H134 C140 0.930 . S
C135 H132 0.929 . S
C135 C136 1.398 . S
C135 C137 1.396 . S
C136 C135 1.398 . S
C136 C140 1.407 . S
C137 C135 1.396 . S
C137 C138 1.394 . S
C138 H133 0.929 . S
C138 C137 1.394 . S
C138 C139 1.382 . S
C139 C138 1.382 . S
C139 C140 1.392 . S
C139 N141 1.420 . S
C140 H134 0.930 . S
C140 C136 1.407 . S
C140 C139 1.392 . S
N141 C139 1.420 . S
N141 C142 1.244 . S
C142 N141 1.244 . S
H143 C146 0.929 . S
H144 C149 0.929 . S
H145 C151 0.930 . S
C146 H143 0.929 . S
C146 C147 1.398 . S
C146 C148 1.396 . S
C147 C146 1.398 . S
C147 C151 1.407 . S
C148 C146 1.396 . S
C148 C149 1.394 . S
C149 H144 0.929 . S
C149 C148 1.394 . S
C149 C150 1.382 . S
C150 C149 1.382 . S
C150 C151 1.392 . S
C150 N152 1.420 . S
C151 H145 0.930 . S
C151 C147 1.407 . S
C151 C150 1.392 . S
N152 C150 1.420 . S
N152 C153 1.244 . S
C153 N152 1.244 . S
H154 C157 0.929 . S
H155 C160 0.929 . S
H156 C162 0.930 . S
C157 H154 0.929 . S
C157 C158 1.398 . S
C157 C159 1.396 . S
C158 C157 1.398 . S
C158 C162 1.407 . S
C159 C157 1.396 . S
C159 C160 1.394 . S
C160 H155 0.929 . S
C160 C159 1.394 . S
C160 C161 1.382 . S
C161 C160 1.382 . S
C161 C162 1.392 . S
C161 N163 1.420 . S
C162 H156 0.930 . S
C162 C158 1.407 . S
C162 C161 1.392 . S
N163 C161 1.420 . S
N163 C164 1.244 . S
C164 N163 1.244 . S
H165 C168 0.929 . S
H166 C171 0.929 . S
H167 C173 0.930 . S
C168 H165 0.929 . S
C168 C169 1.398 . S
C168 C170 1.396 . S
C169 C168 1.398 . S
C169 C173 1.407 . S
C170 C168 1.396 . S
C170 C171 1.394 . S
C171 H166 0.929 . S
C171 C170 1.394 . S
C171 C172 1.382 . S
C172 C171 1.382 . S
C172 C173 1.392 . S
C172 N174 1.420 . S
C173 H167 0.930 . S
C173 C169 1.407 . S
C173 C172 1.392 . S
N174 C172 1.420 . S
N174 C175 1.244 . S
C175 N174 1.244 . S
H176 C179 0.929 . S
H177 C182 0.929 . S
H178 C184 0.930 . S
C179 H176 0.929 . S
C179 C180 1.398 . S
C179 C181 1.396 . S
C180 C179 1.398 . S
C180 C184 1.407 . S
C181 C179 1.396 . S
C181 C182 1.394 . S
C182 H177 0.929 . S
C182 C181 1.394 . S
C182 C183 1.382 . S
C183 C182 1.382 . S
C183 C184 1.392 . S
C183 N185 1.420 . S
C184 H178 0.930 . S
C184 C180 1.407 . S
C184 C183 1.392 . S
N185 C183 1.420 . S
N185 C186 1.244 . S
C186 N185 1.244 . S
H187 C190 0.929 . S
H188 C193 0.929 . S
H189 C195 0.930 . S
C190 H187 0.929 . S
C190 C191 1.398 . S
C190 C192 1.396 . S
C191 C190 1.398 . S
C191 C195 1.407 . S
C192 C190 1.396 . S
C192 C193 1.394 . S
C193 H188 0.929 . S
C193 C192 1.394 . S
C193 C194 1.382 . S
C194 C193 1.382 . S
C194 C195 1.392 . S
C194 N196 1.420 . S
C195 H189 0.930 . S
C195 C191 1.407 . S
C195 C194 1.392 . S
N196 C194 1.420 . S
N196 C197 1.244 . S
C197 N196 1.244 . S
Tb198 N229 2.660 . S
Tb198 N236 2.600 . S
Tb198 O242 2.546 . S
Tb198 O243 2.610 1_566 S
Tb198 O245 2.320 1_565 S
Tb198 O246 2.552 1_565 S
Tb198 O247 2.413 1_565 S
Tb198 O249 2.362 1_556 S
Tb198 O250 2.421 . S
Tb198 C262 2.833 . S
C199 C202 1.432 . S
C199 C203 1.414 . S
C199 N206 1.359 . S
C200 C202 1.417 . S
C200 C204 1.432 . S
C200 C212 1.410 . S
C201 C203 1.444 . S
C201 C204 1.317 . S
C201 H224 0.929 . S
C202 C199 1.432 . S
C202 C200 1.417 . S
C202 N210 1.360 . S
C203 C199 1.414 . S
C203 C201 1.444 . S
C203 C208 1.385 . S
C204 C200 1.432 . S
C204 C201 1.317 . S
C204 H216 0.930 . S
C205 C207 1.392 . S
C205 C208 1.370 . S
C205 H217 0.931 . S
N206 C199 1.359 . S
N206 C207 1.327 . S
N206 Tb209 2.600 . S
C207 C205 1.392 . S
C207 N206 1.327 . S
C207 H214 0.930 . S
C208 C203 1.385 . S
C208 C205 1.370 . S
C208 H227 0.930 . S
Tb209 N206 2.600 . S
Tb209 N210 2.660 . S
Tb209 O243 2.362 . S
Tb209 O244 2.421 . S
Tb209 O248 2.546 . S
Tb209 O249 2.610 1_545 S
Tb209 O251 2.320 1_545 S
Tb209 O252 2.552 1_545 S
Tb209 O253 2.413 1_545 S
Tb209 C273 2.833 . S
N210 C202 1.360 . S
N210 Tb209 2.660 . S
N210 C211 1.305 . S
C211 N210 1.305 . S
C211 C213 1.407 . S
C211 H218 0.930 . S
C212 C200 1.410 . S
C212 C213 1.345 . S
C212 H220 0.930 . S
C213 C211 1.407 . S
C213 C212 1.345 . S
C213 H215 0.930 . S
H214 C207 0.930 . S
H215 C213 0.930 . S
H216 C204 0.930 . S
H217 C205 0.931 . S
H218 C211 0.930 . S
H219 C233 0.930 . S
H220 C212 0.930 . S
H221 C239 0.930 . S
H222 C230 0.930 . S
H223 C237 0.931 . S
H224 C201 0.929 . S
H225 C231 0.930 . S
H226 C264 0.930 . S
H227 C208 0.930 . S
H228 C263 0.929 . S
N229 Tb198 2.660 . S
N229 C230 1.305 . S
N229 C234 1.360 . S
C230 H222 0.930 . S
C230 N229 1.305 . S
C230 C233 1.407 . S
C231 H225 0.930 . S
C231 C232 1.410 . S
C231 C233 1.345 . S
C232 C231 1.410 . S
C232 C234 1.417 . S
C232 C264 1.432 . S
C233 H219 0.930 . S
C233 C230 1.407 . S
C233 C231 1.345 . S
C234 N229 1.360 . S
C234 C232 1.417 . S
C234 C238 1.432 . S
H235 C240 0.930 . S
N236 Tb198 2.600 . S
N236 C238 1.359 . S
N236 C239 1.327 . S
C237 H223 0.931 . S
C237 C239 1.392 . S
C237 C240 1.370 . S
C238 C234 1.432 . S
C238 N236 1.359 . S
C238 C241 1.414 . S
C239 H221 0.930 . S
C239 N236 1.327 . S
C239 C237 1.392 . S
C240 H235 0.930 . S
C240 C237 1.370 . S
C240 C241 1.385 . S
C241 C238 1.414 . S
C241 C240 1.385 . S
C241 C263 1.444 . S
O242 Tb198 2.546 . S
O242 C262 1.251 . S
O243 Tb198 2.610 1_544 S
O243 Tb209 2.362 . S
O243 C254 1.283 1_554 S
O244 Tb209 2.421 . S
O244 C261 1.262 1_554 S
O245 Tb198 2.320 1_545 S
O245 C261 1.260 . S
O246 Tb198 2.552 1_545 S
O246 C254 1.243 . S
O247 Tb198 2.413 1_545 S
O247 C262 1.256 1_545 S
O248 Tb209 2.546 . S
O248 C273 1.251 . S
O249 Tb198 2.362 1_554 S
O249 Tb209 2.610 1_565 S
O249 C265 1.283 . S
O250 Tb198 2.421 . S
O250 C272 1.262 1_556 S
O251 Tb209 2.320 1_565 S
O251 C272 1.260 . S
O252 Tb209 2.552 1_565 S
O252 C265 1.243 . S
O253 Tb209 2.413 1_565 S
O253 C273 1.256 1_565 S
C254 O243 1.283 1_556 S
C254 O246 1.243 . S
C255 C257 1.382 . S
C255 C259 1.393 1_545 S
C255 C262 1.500 1_545 S
C256 C257 1.400 . S
C256 C258 1.384 . S
C257 C255 1.382 . S
C257 C256 1.400 . S
C257 H274 0.930 . S
C258 C256 1.384 . S
C258 C260 1.392 1_545 S
C258 H275 0.931 . S
C259 C255 1.393 1_565 S
C259 C260 1.401 . S
C259 H276 0.930 . S
C260 C258 1.392 1_565 S
C260 C259 1.401 . S
C260 H277 0.930 . S
C261 O244 1.262 1_556 S
C261 O245 1.260 . S
C262 Tb198 2.833 . S
C262 O242 1.251 . S
C262 O247 1.256 1_565 S
C262 C255 1.500 1_565 S
C263 H228 0.929 . S
C263 C241 1.444 . S
C263 C264 1.317 . S
C264 H226 0.930 . S
C264 C232 1.432 . S
C264 C263 1.317 . S
C265 O249 1.283 . S
C265 O252 1.243 . S
C266 C267 1.382 1_545 S
C266 C270 1.393 . S
C266 C273 1.500 . S
C267 C266 1.382 1_565 S
C267 C268 1.400 . S
C267 H278 0.930 . S
C268 C267 1.400 . S
C268 C269 1.384 . S
C269 C268 1.384 . S
C269 C271 1.392 1_565 S
C269 H279 0.931 . S
C270 C266 1.393 . S
C270 C271 1.401 . S
C270 H280 0.930 . S
C271 C269 1.392 1_545 S
C271 C270 1.401 . S
C271 H281 0.930 . S
C272 O250 1.262 1_554 S
C272 O251 1.260 . S
C273 Tb209 2.833 . S
C273 O248 1.251 . S
C273 O253 1.256 1_545 S
C273 C266 1.500 . S
H274 C257 0.930 . S
H275 C258 0.931 . S
H276 C259 0.930 . S
H277 C260 0.930 . S
H278 C267 0.930 . S
H279 C269 0.931 . S
H280 C270 0.930 . S
H281 C271 0.930 . S
Tb282 N313 2.660 . S
Tb282 N320 2.600 . S
Tb282 O326 2.546 . S
Tb282 O327 2.610 1_456 S
Tb282 O329 2.320 1_455 S
Tb282 O330 2.552 1_455 S
Tb282 O331 2.409 1_455 S
Tb282 O333 2.362 1_556 S
Tb282 O334 2.421 . S
Tb282 C346 2.833 . S
C283 C286 1.432 . S
C283 C287 1.414 . S
C283 N290 1.359 . S
C284 C286 1.417 . S
C284 C288 1.432 . S
C284 C296 1.410 . S
C285 C287 1.444 . S
C285 C288 1.317 . S
C285 H308 0.929 . S
C286 C283 1.432 . S
C286 C284 1.417 . S
C286 N294 1.360 . S
C287 C283 1.414 . S
C287 C285 1.444 . S
C287 C292 1.385 . S
C288 C284 1.432 . S
C288 C285 1.317 . S
C288 H300 0.930 . S
C289 C291 1.392 . S
C289 C292 1.370 . S
C289 H301 0.931 . S
N290 C283 1.359 . S
N290 C291 1.327 . S
N290 Tb293 2.600 . S
C291 C289 1.392 . S
C291 N290 1.327 . S
C291 H298 0.930 . S
C292 C287 1.385 . S
C292 C289 1.370 . S
C292 H311 0.930 . S
Tb293 N290 2.600 . S
Tb293 N294 2.660 . S
Tb293 O327 2.362 . S
Tb293 O328 2.421 . S
Tb293 O332 2.546 . S
Tb293 O333 2.610 1_655 S
Tb293 O335 2.320 1_655 S
Tb293 O336 2.552 1_655 S
Tb293 O337 2.413 1_655 S
Tb293 C357 2.833 . S
N294 C286 1.360 . S
N294 Tb293 2.660 . S
N294 C295 1.305 . S
C295 N294 1.305 . S
C295 C297 1.407 . S
C295 H302 0.930 . S
C296 C284 1.410 . S
C296 C297 1.345 . S
C296 H304 0.930 . S
C297 C295 1.407 . S
C297 C296 1.345 . S
C297 H299 0.930 . S
H298 C291 0.930 . S
H299 C297 0.930 . S
H300 C288 0.930 . S
H301 C289 0.931 . S
H302 C295 0.930 . S
H303 C317 0.930 . S
H304 C296 0.930 . S
H305 C323 0.930 . S
H306 C314 0.930 . S
H307 C321 0.931 . S
H308 C285 0.929 . S
H309 C315 0.930 . S
H310 C348 0.930 . S
H311 C292 0.930 . S
H312 C347 0.929 . S
N313 Tb282 2.660 . S
N313 C314 1.305 . S
N313 C318 1.360 . S
C314 H306 0.930 . S
C314 N313 1.305 . S
C314 C317 1.407 . S
C315 H309 0.930 . S
C315 C316 1.410 . S
C315 C317 1.345 . S
C316 C315 1.410 . S
C316 C318 1.417 . S
C316 C348 1.432 . S
C317 H303 0.930 . S
C317 C314 1.407 . S
C317 C315 1.345 . S
C318 N313 1.360 . S
C318 C316 1.417 . S
C318 C322 1.432 . S
H319 C324 0.930 . S
N320 Tb282 2.600 . S
N320 C322 1.359 . S
N320 C323 1.327 . S
C321 H307 0.931 . S
C321 C323 1.392 . S
C321 C324 1.370 . S
C322 C318 1.432 . S
C322 N320 1.359 . S
C322 C325 1.414 . S
C323 H305 0.930 . S
C323 N320 1.327 . S
C323 C321 1.392 . S
C324 H319 0.930 . S
C324 C321 1.370 . S
C324 C325 1.385 . S
C325 C322 1.414 . S
C325 C324 1.385 . S
C325 C347 1.444 . S
O326 Tb282 2.546 . S
O326 C346 1.251 . S
O327 Tb282 2.610 1_654 S
O327 Tb293 2.362 . S
O327 C338 1.283 1_554 S
O328 Tb293 2.421 . S
O328 C345 1.262 1_554 S
O329 Tb282 2.320 1_655 S
O329 C345 1.260 . S
O330 Tb282 2.552 1_655 S
O330 C338 1.243 . S
O331 Tb282 2.409 1_655 S
O331 C346 1.259 1_655 S
O332 Tb293 2.546 . S
O332 C357 1.251 . S
O333 Tb282 2.362 1_554 S
O333 Tb293 2.610 1_455 S
O333 C349 1.283 . S
O334 Tb282 2.421 . S
O334 C356 1.262 1_556 S
O335 Tb293 2.320 1_455 S
O335 C356 1.260 . S
O336 Tb293 2.552 1_455 S
O336 C349 1.243 . S
O337 Tb293 2.413 1_455 S
O337 C357 1.256 1_455 S
C338 O327 1.283 1_556 S
C338 O330 1.243 . S
C339 C341 1.382 1_455 S
C339 C343 1.393 . S
C339 C346 1.500 . S
C340 C341 1.400 . S
C340 C342 1.384 . S
C341 C339 1.382 1_655 S
C341 C340 1.400 . S
C341 H358 0.930 . S
C342 C340 1.384 . S
C342 C344 1.392 1_655 S
C342 H359 0.931 . S
C343 C339 1.393 . S
C343 C344 1.401 . S
C343 H360 0.930 . S
C344 C342 1.392 1_455 S
C344 C343 1.401 . S
C344 H361 0.930 . S
C345 O328 1.262 1_556 S
C345 O329 1.260 . S
C346 Tb282 2.833 . S
C346 O326 1.251 . S
C346 O331 1.259 1_455 S
C346 C339 1.500 . S
C347 H312 0.929 . S
C347 C325 1.444 . S
C347 C348 1.317 . S
C348 H310 0.930 . S
C348 C316 1.432 . S
C348 C347 1.317 . S
C349 O333 1.283 . S
C349 O336 1.243 . S
C350 C351 1.401 . S
C350 C354 1.384 1_455 S
C350 C357 1.493 1_455 S
C351 C350 1.401 . S
C351 C352 1.400 . S
C351 H362 0.930 . S
C352 C351 1.400 . S
C352 C353 1.384 . S
C353 C352 1.384 . S
C353 C355 1.392 1_455 S
C353 H363 0.931 . S
C354 C350 1.384 1_655 S
C354 C355 1.401 . S
C354 H364 0.930 . S
C355 C353 1.392 1_655 S
C355 C354 1.401 . S
C355 H365 0.930 . S
C356 O334 1.262 1_554 S
C356 O335 1.260 . S
C357 Tb293 2.833 . S
C357 O332 1.251 . S
C357 O337 1.256 1_655 S
C357 C350 1.493 1_655 S
H358 C341 0.930 . S
H359 C342 0.931 . S
H360 C343 0.930 . S
H361 C344 0.930 . S
H362 C351 0.930 . S
H363 C353 0.931 . S
H364 C354 0.930 . S
H365 C355 0.930 . S
Tb366 N397 2.660 . S
Tb366 N404 2.600 . S
Tb366 O410 2.546 . S
Tb366 O411 2.610 . S
Tb366 O413 2.320 . S
Tb366 O414 2.552 . S
Tb366 O415 2.413 . S
Tb366 O417 2.362 . S
Tb366 O418 2.421 . S
Tb366 C430 2.833 . S
C367 C370 1.432 . S
C367 C371 1.414 . S
C367 N374 1.359 . S
C368 C370 1.417 . S
C368 C372 1.432 . S
C368 C380 1.410 . S
C369 C371 1.444 . S
C369 C372 1.317 . S
C369 H392 0.929 . S
C370 C367 1.432 . S
C370 C368 1.417 . S
C370 N378 1.360 . S
C371 C367 1.414 . S
C371 C369 1.444 . S
C371 C376 1.385 . S
C372 C368 1.432 . S
C372 C369 1.317 . S
C372 H384 0.930 . S
C373 C375 1.392 . S
C373 C376 1.370 . S
C373 H385 0.931 . S
N374 C367 1.359 . S
N374 C375 1.327 . S
N374 Tb377 2.600 . S
C375 C373 1.392 . S
C375 N374 1.327 . S
C375 H382 0.930 . S
C376 C371 1.385 . S
C376 C373 1.370 . S
C376 H395 0.930 . S
Tb377 N374 2.600 . S
Tb377 N378 2.660 . S
Tb377 O411 2.362 1_556 S
Tb377 O412 2.421 . S
Tb377 O416 2.546 . S
Tb377 O417 2.610 1_556 S
Tb377 O419 2.320 . S
Tb377 O420 2.552 . S
Tb377 O421 2.413 . S
Tb377 C441 2.833 . S
N378 C370 1.360 . S
N378 Tb377 2.660 . S
N378 C379 1.305 . S
C379 N378 1.305 . S
C379 C381 1.407 . S
C379 H386 0.930 . S
C380 C368 1.410 . S
C380 C381 1.345 . S
C380 H388 0.930 . S
C381 C379 1.407 . S
C381 C380 1.345 . S
C381 H383 0.930 . S
H382 C375 0.930 . S
H383 C381 0.930 . S
H384 C372 0.930 . S
H385 C373 0.931 . S
H386 C379 0.930 . S
H387 C401 0.930 . S
H388 C380 0.930 . S
H389 C407 0.930 . S
H390 C398 0.930 . S
H391 C405 0.931 . S
H392 C369 0.929 . S
H393 C399 0.930 . S
H394 C432 0.930 . S
H395 C376 0.930 . S
H396 C431 0.929 . S
N397 Tb366 2.660 . S
N397 C398 1.305 . S
N397 C402 1.360 . S
C398 H390 0.930 . S
C398 N397 1.305 . S
C398 C401 1.407 . S
C399 H393 0.930 . S
C399 C400 1.410 . S
C399 C401 1.345 . S
C400 C399 1.410 . S
C400 C402 1.417 . S
C400 C432 1.432 . S
C401 H387 0.930 . S
C401 C398 1.407 . S
C401 C399 1.345 . S
C402 N397 1.360 . S
C402 C400 1.417 . S
C402 C406 1.432 . S
H403 C408 0.930 . S
N404 Tb366 2.600 . S
N404 C406 1.359 . S
N404 C407 1.327 . S
C405 H391 0.931 . S
C405 C407 1.392 . S
C405 C408 1.370 . S
C406 C402 1.432 . S
C406 N404 1.359 . S
C406 C409 1.414 . S
C407 H389 0.930 . S
C407 N404 1.327 . S
C407 C405 1.392 . S
C408 H403 0.930 . S
C408 C405 1.370 . S
C408 C409 1.385 . S
C409 C406 1.414 . S
C409 C408 1.385 . S
C409 C431 1.444 . S
O410 Tb366 2.546 . S
O410 C430 1.251 . S
O411 Tb366 2.610 . S
O411 Tb377 2.362 1_554 S
O411 C422 1.283 . S
O412 Tb377 2.421 . S
O412 C429 1.262 1_556 S
O413 Tb366 2.320 . S
O413 C429 1.260 . S
O414 Tb366 2.552 . S
O414 C422 1.243 . S
O415 Tb366 2.413 . S
O415 C430 1.256 . S
O416 Tb377 2.546 . S
O416 C441 1.251 . S
O417 Tb366 2.362 . S
O417 Tb377 2.610 1_554 S
O417 C433 1.283 1_554 S
O418 Tb366 2.421 . S
O418 C440 1.262 1_554 S
O419 Tb377 2.320 . S
O419 C440 1.260 . S
O420 Tb377 2.552 . S
O420 C433 1.243 . S
O421 Tb377 2.413 . S
O421 C441 1.256 . S
C422 O411 1.283 . S
C422 O414 1.243 . S
C423 C425 1.382 . S
C423 C427 1.393 . S
C423 C430 1.500 . S
C424 C425 1.400 . S
C424 C426 1.384 . S
C425 C423 1.382 . S
C425 C424 1.400 . S
C425 H442 0.930 . S
C426 C424 1.384 . S
C426 C428 1.392 . S
C426 H443 0.931 . S
C427 C423 1.393 . S
C427 C428 1.401 . S
C427 H444 0.930 . S
C428 C426 1.392 . S
C428 C427 1.401 . S
C428 H445 0.930 . S
C429 O412 1.262 1_554 S
C429 O413 1.260 . S
C430 Tb366 2.833 . S
C430 O410 1.251 . S
C430 O415 1.256 . S
C430 C423 1.500 . S
C431 H396 0.929 . S
C431 C409 1.444 . S
C431 C432 1.317 . S
C432 H394 0.930 . S
C432 C400 1.432 . S
C432 C431 1.317 . S
C433 O417 1.283 1_556 S
C433 O420 1.243 . S
C434 C435 1.382 . S
C434 C438 1.393 . S
C434 C441 1.500 . S
C435 C434 1.382 . S
C435 C436 1.400 . S
C435 H446 0.930 . S
C436 C435 1.400 . S
C436 C437 1.384 . S
C437 C436 1.384 . S
C437 C439 1.392 . S
C437 H447 0.931 . S
C438 C434 1.393 . S
C438 C439 1.401 . S
C438 H448 0.930 . S
C439 C437 1.392 . S
C439 C438 1.401 . S
C439 H449 0.930 . S
C440 O418 1.262 1_556 S
C440 O419 1.260 . S
C441 Tb377 2.833 . S
C441 O416 1.251 . S
C441 O421 1.256 . S
C441 C434 1.500 . S
H442 C425 0.930 . S
H443 C426 0.931 . S
H444 C427 0.930 . S
H445 C428 0.930 . S
H446 C435 0.930 . S
H447 C437 0.931 . S
H448 C438 0.930 . S
H449 C439 0.930 . S
Tb450 N481 2.660 . S
Tb450 N488 2.600 . S
Tb450 O494 2.546 . S
Tb450 O495 2.610 . S
Tb450 O497 2.320 . S
Tb450 O498 2.552 . S
Tb450 O499 2.413 . S
Tb450 O501 2.362 . S
Tb450 O502 2.421 . S
Tb450 C514 2.833 . S
C451 C454 1.432 . S
C451 C455 1.414 . S
C451 N458 1.359 . S
C452 C454 1.417 . S
C452 C456 1.432 . S
C452 C464 1.410 . S
C453 C455 1.444 . S
C453 C456 1.317 . S
C453 H476 0.929 . S
C454 C451 1.432 . S
C454 C452 1.417 . S
C454 N462 1.360 . S
C455 C451 1.414 . S
C455 C453 1.444 . S
C455 C460 1.385 . S
C456 C452 1.432 . S
C456 C453 1.317 . S
C456 H468 0.930 . S
C457 C459 1.392 . S
C457 C460 1.370 . S
C457 H469 0.931 . S
N458 C451 1.359 . S
N458 C459 1.327 . S
N458 Tb461 2.600 . S
C459 C457 1.392 . S
C459 N458 1.327 . S
C459 H466 0.930 . S
C460 C455 1.385 . S
C460 C457 1.370 . S
C460 H479 0.930 . S
Tb461 N458 2.600 . S
Tb461 N462 2.660 . S
Tb461 O495 2.362 . S
Tb461 O496 2.421 . S
Tb461 O500 2.546 . S
Tb461 O501 2.610 . S
Tb461 O503 2.320 . S
Tb461 O504 2.552 . S
Tb461 O505 2.413 . S
Tb461 C525 2.833 . S
N462 C454 1.360 . S
N462 Tb461 2.660 . S
N462 C463 1.305 . S
C463 N462 1.305 . S
C463 C465 1.407 . S
C463 H470 0.930 . S
C464 C452 1.410 . S
C464 C465 1.345 . S
C464 H472 0.930 . S
C465 C463 1.407 . S
C465 C464 1.345 . S
C465 H467 0.930 . S
H466 C459 0.930 . S
H467 C465 0.930 . S
H468 C456 0.930 . S
H469 C457 0.931 . S
H470 C463 0.930 . S
H471 C485 0.930 . S
H472 C464 0.930 . S
H473 C491 0.930 . S
H474 C482 0.930 . S
H475 C489 0.931 . S
H476 C453 0.929 . S
H477 C483 0.930 . S
H478 C516 0.930 . S
H479 C460 0.930 . S
H480 C515 0.929 . S
N481 Tb450 2.660 . S
N481 C482 1.305 . S
N481 C486 1.360 . S
C482 H474 0.930 . S
C482 N481 1.305 . S
C482 C485 1.407 1_455 S
C483 H477 0.930 . S
C483 C484 1.410 . S
C483 C485 1.345 . S
C484 C483 1.410 . S
C484 C486 1.417 1_655 S
C484 C516 1.432 . S
C485 H471 0.930 . S
C485 C482 1.407 1_655 S
C485 C483 1.345 . S
C486 N481 1.360 . S
C486 C484 1.417 1_455 S
C486 C490 1.432 . S
H487 C492 0.930 . S
N488 Tb450 2.600 . S
N488 C490 1.359 . S
N488 C491 1.327 . S
C489 H475 0.931 . S
C489 C491 1.392 . S
C489 C492 1.370 . S
C490 C486 1.432 . S
C490 N488 1.359 . S
C490 C493 1.414 . S
C491 H473 0.930 . S
C491 N488 1.327 . S
C491 C489 1.392 . S
C492 H487 0.930 . S
C492 C489 1.370 . S
C492 C493 1.385 . S
C493 C490 1.414 . S
C493 C492 1.385 . S
C493 C515 1.444 1_455 S
O494 Tb450 2.546 . S
O494 C514 1.251 . S
O495 Tb450 2.610 . S
O495 Tb461 2.362 . S
O495 C506 1.283 . S
O496 Tb461 2.421 . S
O496 C513 1.262 . S
O497 Tb450 2.320 . S
O497 C513 1.260 . S
O498 Tb450 2.552 . S
O498 C506 1.243 . S
O499 Tb450 2.413 . S
O499 C514 1.256 . S
O500 Tb461 2.546 . S
O500 C525 1.251 . S
O501 Tb450 2.362 . S
O501 Tb461 2.610 . S
O501 C517 1.283 . S
O502 Tb450 2.421 . S
O502 C524 1.262 . S
O503 Tb461 2.320 . S
O503 C524 1.260 . S
O504 Tb461 2.552 . S
O504 C517 1.243 . S
O505 Tb461 2.413 . S
O505 C525 1.256 . S
C506 O495 1.283 . S
C506 O498 1.243 . S
C507 C509 1.382 . S
C507 C511 1.393 . S
C507 C514 1.500 . S
C508 C509 1.400 . S
C508 C510 1.384 . S
C509 C507 1.382 . S
C509 C508 1.400 . S
C509 H526 0.930 . S
C510 C508 1.384 . S
C510 C512 1.392 . S
C510 H527 0.931 . S
C511 C507 1.393 . S
C511 C512 1.401 . S
C511 H528 0.930 . S
C512 C510 1.392 . S
C512 C511 1.401 . S
C512 H529 0.930 . S
C513 O496 1.262 . S
C513 O497 1.260 . S
C514 Tb450 2.833 . S
C514 O494 1.251 . S
C514 O499 1.256 . S
C514 C507 1.500 . S
C515 H480 0.929 . S
C515 C493 1.444 1_655 S
C515 C516 1.317 . S
C516 H478 0.930 . S
C516 C484 1.432 . S
C516 C515 1.317 . S
C517 O501 1.283 . S
C517 O504 1.243 . S
C518 C519 1.382 . S
C518 C522 1.393 . S
C518 C525 1.500 . S
C519 C518 1.382 . S
C519 C520 1.400 . S
C519 H530 0.930 . S
C520 C519 1.400 . S
C520 C521 1.384 . S
C521 C520 1.384 . S
C521 C523 1.392 . S
C521 H531 0.931 . S
C522 C518 1.393 . S
C522 C523 1.401 . S
C522 H532 0.930 . S
C523 C521 1.392 . S
C523 C522 1.401 . S
C523 H533 0.930 . S
C524 O502 1.262 . S
C524 O503 1.260 . S
C525 Tb461 2.833 . S
C525 O500 1.251 . S
C525 O505 1.256 . S
C525 C518 1.500 . S
H526 C509 0.930 . S
H527 C510 0.931 . S
H528 C511 0.930 . S
H529 C512 0.930 . S
H530 C519 0.930 . S
H531 C521 0.931 . S
H532 C522 0.930 . S
H533 C523 0.930 . S
Tb534 N565 2.660 . S
Tb534 N572 2.600 . S
Tb534 O578 2.546 . S
Tb534 O579 2.610 . S
Tb534 O581 2.320 . S
Tb534 O582 2.552 . S
Tb534 O583 2.413 . S
Tb534 O585 2.362 . S
Tb534 O586 2.421 . S
Tb534 C598 2.833 . S
C535 C538 1.432 . S
C535 C539 1.414 . S
C535 N542 1.359 . S
C536 C538 1.417 . S
C536 C540 1.432 . S
C536 C548 1.410 . S
C537 C539 1.444 . S
C537 C540 1.317 . S
C537 H560 0.929 . S
C538 C535 1.432 . S
C538 C536 1.417 . S
C538 N546 1.360 . S
C539 C535 1.414 . S
C539 C537 1.444 . S
C539 C544 1.385 . S
C540 C536 1.432 . S
C540 C537 1.317 . S
C540 H552 0.930 . S
C541 C543 1.392 . S
C541 C544 1.370 . S
C541 H553 0.931 . S
N542 C535 1.359 . S
N542 C543 1.327 . S
N542 Tb545 2.600 . S
C543 C541 1.392 . S
C543 N542 1.327 . S
C543 H550 0.930 . S
C544 C539 1.385 . S
C544 C541 1.370 . S
C544 H563 0.930 . S
Tb545 N542 2.600 . S
Tb545 N546 2.660 . S
Tb545 O579 2.362 . S
Tb545 O580 2.421 . S
Tb545 O584 2.546 . S
Tb545 O585 2.610 . S
Tb545 O587 2.320 . S
Tb545 O588 2.552 . S
Tb545 O589 2.413 . S
Tb545 C609 2.833 . S
N546 C538 1.360 . S
N546 Tb545 2.660 . S
N546 C547 1.305 . S
C547 N546 1.305 . S
C547 C549 1.407 . S
C547 H554 0.930 . S
C548 C536 1.410 . S
C548 C549 1.345 . S
C548 H556 0.930 . S
C549 C547 1.407 . S
C549 C548 1.345 . S
C549 H551 0.930 . S
H550 C543 0.930 . S
H551 C549 0.930 . S
H552 C540 0.930 . S
H553 C541 0.931 . S
H554 C547 0.930 . S
H555 C569 0.930 . S
H556 C548 0.930 . S
H557 C575 0.930 . S
H558 C566 0.930 . S
H559 C573 0.931 . S
H560 C537 0.929 . S
H561 C567 0.930 . S
H562 C600 0.930 . S
H563 C544 0.930 . S
H564 C599 0.929 . S
N565 Tb534 2.660 . S
N565 C566 1.305 . S
N565 C570 1.360 . S
C566 H558 0.930 . S
C566 N565 1.305 . S
C566 C569 1.407 . S
C567 H561 0.930 . S
C567 C568 1.410 . S
C567 C569 1.345 . S
C568 C567 1.410 . S
C568 C570 1.417 . S
C568 C600 1.432 . S
C569 H555 0.930 . S
C569 C566 1.407 . S
C569 C567 1.345 . S
C570 N565 1.360 . S
C570 C568 1.417 . S
C570 C574 1.432 . S
H571 C576 0.930 . S
N572 Tb534 2.600 . S
N572 C574 1.359 . S
N572 C575 1.327 . S
C573 H559 0.931 . S
C573 C575 1.392 . S
C573 C576 1.370 . S
C574 C570 1.432 . S
C574 N572 1.359 . S
C574 C577 1.414 . S
C575 H557 0.930 . S
C575 N572 1.327 . S
C575 C573 1.392 . S
C576 H571 0.930 . S
C576 C573 1.370 . S
C576 C577 1.385 . S
C577 C574 1.414 . S
C577 C576 1.385 . S
C577 C599 1.444 . S
O578 Tb534 2.546 . S
O578 C598 1.251 . S
O579 Tb534 2.610 . S
O579 Tb545 2.362 . S
O579 C590 1.283 . S
O580 Tb545 2.421 . S
O580 C597 1.262 . S
O581 Tb534 2.320 . S
O581 C597 1.260 . S
O582 Tb534 2.552 . S
O582 C590 1.243 . S
O583 Tb534 2.413 . S
O583 C598 1.256 . S
O584 Tb545 2.546 . S
O584 C609 1.251 . S
O585 Tb534 2.362 . S
O585 Tb545 2.610 . S
O585 C601 1.283 . S
O586 Tb534 2.421 . S
O586 C608 1.262 . S
O587 Tb545 2.320 . S
O587 C608 1.260 . S
O588 Tb545 2.552 . S
O588 C601 1.243 . S
O589 Tb545 2.413 . S
O589 C609 1.256 . S
C590 O579 1.283 . S
C590 O582 1.243 . S
C591 C593 1.382 . S
C591 C595 1.393 . S
C591 C598 1.500 . S
C592 C593 1.400 . S
C592 C594 1.384 . S
C593 C591 1.382 . S
C593 C592 1.400 . S
C593 H610 0.930 . S
C594 C592 1.384 . S
C594 C596 1.392 . S
C594 H611 0.931 . S
C595 C591 1.393 . S
C595 C596 1.401 . S
C595 H612 0.930 . S
C596 C594 1.392 . S
C596 C595 1.401 . S
C596 H613 0.930 . S
C597 O580 1.262 . S
C597 O581 1.260 . S
C598 Tb534 2.833 . S
C598 O578 1.251 . S
C598 O583 1.256 . S
C598 C591 1.500 . S
C599 H564 0.929 . S
C599 C577 1.444 . S
C599 C600 1.317 . S
C600 H562 0.930 . S
C600 C568 1.432 . S
C600 C599 1.317 . S
C601 O585 1.283 . S
C601 O588 1.243 . S
C602 C603 1.382 . S
C602 C606 1.393 . S
C602 C609 1.500 . S
C603 C602 1.382 . S
C603 C604 1.400 . S
C603 H614 0.930 . S
C604 C603 1.400 . S
C604 C605 1.384 . S
C605 C604 1.384 . S
C605 C607 1.392 . S
C605 H615 0.931 . S
C606 C602 1.393 . S
C606 C607 1.401 . S
C606 H616 0.930 . S
C607 C605 1.392 . S
C607 C606 1.401 . S
C607 H617 0.930 . S
C608 O586 1.262 . S
C608 O587 1.260 . S
C609 Tb545 2.833 . S
C609 O584 1.251 . S
C609 O589 1.256 . S
C609 C602 1.500 . S
H610 C593 0.930 . S
H611 C594 0.931 . S
H612 C595 0.930 . S
H613 C596 0.930 . S
H614 C603 0.930 . S
H615 C605 0.931 . S
H616 C606 0.930 . S
H617 C607 0.930 . S
Tb618 N649 2.660 . S
Tb618 N656 2.600 . S
Tb618 O662 2.546 . S
Tb618 O663 2.610 . S
Tb618 O665 2.320 . S
Tb618 O666 2.552 . S
Tb618 O667 2.413 . S
Tb618 O669 2.362 . S
Tb618 O670 2.421 . S
Tb618 C682 2.833 . S
C619 C622 1.432 . S
C619 C623 1.414 . S
C619 N626 1.359 . S
C620 C622 1.417 . S
C620 C624 1.432 . S
C620 C632 1.410 . S
C621 C623 1.444 . S
C621 C624 1.317 . S
C621 H644 0.929 . S
C622 C619 1.432 . S
C622 C620 1.417 . S
C622 N630 1.360 . S
C623 C619 1.414 . S
C623 C621 1.444 . S
C623 C628 1.385 . S
C624 C620 1.432 . S
C624 C621 1.317 . S
C624 H636 0.930 . S
C625 C627 1.392 . S
C625 C628 1.370 . S
C625 H637 0.931 . S
N626 C619 1.359 . S
N626 C627 1.327 . S
N626 Tb629 2.600 . S
C627 C625 1.392 . S
C627 N626 1.327 . S
C627 H634 0.930 . S
C628 C623 1.385 . S
C628 C625 1.370 . S
C628 H647 0.930 . S
Tb629 N626 2.600 . S
Tb629 N630 2.660 . S
Tb629 O663 2.362 . S
Tb629 O664 2.421 . S
Tb629 O668 2.546 . S
Tb629 O669 2.610 . S
Tb629 O671 2.320 . S
Tb629 O672 2.552 . S
Tb629 O673 2.413 . S
Tb629 C693 2.833 . S
N630 C622 1.360 . S
N630 Tb629 2.660 . S
N630 C631 1.305 . S
C631 N630 1.305 . S
C631 C633 1.407 . S
C631 H638 0.930 . S
C632 C620 1.410 . S
C632 C633 1.345 . S
C632 H640 0.930 . S
C633 C631 1.407 . S
C633 C632 1.345 . S
C633 H635 0.930 . S
H634 C627 0.930 . S
H635 C633 0.930 . S
H636 C624 0.930 . S
H637 C625 0.931 . S
H638 C631 0.930 . S
H639 C653 0.930 . S
H640 C632 0.930 . S
H641 C659 0.930 . S
H642 C650 0.930 . S
H643 C657 0.931 . S
H644 C621 0.929 . S
H645 C651 0.930 . S
H646 C684 0.930 . S
H647 C628 0.930 . S
H648 C683 0.929 . S
N649 Tb618 2.660 . S
N649 C650 1.305 . S
N649 C654 1.360 . S
C650 H642 0.930 . S
C650 N649 1.305 . S
C650 C653 1.407 . S
C651 H645 0.930 . S
C651 C652 1.410 . S
C651 C653 1.345 . S
C652 C651 1.410 . S
C652 C654 1.417 . S
C652 C684 1.432 . S
C653 H639 0.930 . S
C653 C650 1.407 . S
C653 C651 1.345 . S
C654 N649 1.360 . S
C654 C652 1.417 . S
C654 C658 1.432 . S
H655 C660 0.930 . S
N656 Tb618 2.600 . S
N656 C658 1.359 . S
N656 C659 1.327 . S
C657 H643 0.931 . S
C657 C659 1.392 . S
C657 C660 1.370 . S
C658 C654 1.432 . S
C658 N656 1.359 . S
C658 C661 1.414 . S
C659 H641 0.930 . S
C659 N656 1.327 . S
C659 C657 1.392 . S
C660 H655 0.930 . S
C660 C657 1.370 . S
C660 C661 1.385 . S
C661 C658 1.414 . S
C661 C660 1.385 . S
C661 C683 1.444 . S
O662 Tb618 2.546 . S
O662 C682 1.251 . S
O663 Tb618 2.610 . S
O663 Tb629 2.362 . S
O663 C674 1.283 . S
O664 Tb629 2.421 . S
O664 C681 1.262 . S
O665 Tb618 2.320 . S
O665 C681 1.260 . S
O666 Tb618 2.552 . S
O666 C674 1.243 . S
O667 Tb618 2.413 . S
O667 C682 1.256 . S
O668 Tb629 2.546 . S
O668 C693 1.251 . S
O669 Tb618 2.362 . S
O669 Tb629 2.610 . S
O669 C685 1.283 . S
O670 Tb618 2.421 . S
O670 C692 1.262 . S
O671 Tb629 2.320 . S
O671 C692 1.260 . S
O672 Tb629 2.552 . S
O672 C685 1.243 . S
O673 Tb629 2.413 . S
O673 C693 1.256 . S
C674 O663 1.283 . S
C674 O666 1.243 . S
C675 C677 1.382 . S
C675 C679 1.393 . S
C675 C682 1.500 . S
C676 C677 1.400 . S
C676 C678 1.384 . S
C677 C675 1.382 . S
C677 C676 1.400 . S
C677 H694 0.930 . S
C678 C676 1.384 . S
C678 C680 1.392 . S
C678 H695 0.931 . S
C679 C675 1.393 . S
C679 C680 1.401 . S
C679 H696 0.930 . S
C680 C678 1.392 . S
C680 C679 1.401 . S
C680 H697 0.930 . S
C681 O664 1.262 . S
C681 O665 1.260 . S
C682 Tb618 2.833 . S
C682 O662 1.251 . S
C682 O667 1.256 . S
C682 C675 1.500 . S
C683 H648 0.929 . S
C683 C661 1.444 . S
C683 C684 1.317 . S
C684 H646 0.930 . S
C684 C652 1.432 . S
C684 C683 1.317 . S
C685 O669 1.283 . S
C685 O672 1.243 . S
C686 C687 1.382 . S
C686 C690 1.393 . S
C686 C693 1.500 . S
C687 C686 1.382 . S
C687 C688 1.400 . S
C687 H698 0.930 . S
C688 C687 1.400 . S
C688 C689 1.384 . S
C689 C688 1.384 . S
C689 C691 1.392 . S
C689 H699 0.931 . S
C690 C686 1.393 . S
C690 C691 1.401 . S
C690 H700 0.930 . S
C691 C689 1.392 . S
C691 C690 1.401 . S
C691 H701 0.930 . S
C692 O670 1.262 . S
C692 O671 1.260 . S
C693 Tb629 2.833 . S
C693 O668 1.251 . S
C693 O673 1.256 . S
C693 C686 1.500 . S
H694 C677 0.930 . S
H695 C678 0.931 . S
H696 C679 0.930 . S
H697 C680 0.930 . S
H698 C687 0.930 . S
H699 C689 0.931 . S
H700 C690 0.930 . S
H701 C691 0.930 . S
Tb702 N733 2.660 . S
Tb702 N740 2.600 . S
Tb702 O746 2.546 . S
Tb702 O747 2.610 . S
Tb702 O749 2.320 . S
Tb702 O750 2.552 . S
Tb702 O751 2.413 . S
Tb702 O753 2.362 . S
Tb702 O754 2.421 . S
Tb702 C766 2.833 . S
C703 C706 1.432 . S
C703 C707 1.414 . S
C703 N710 1.359 . S
C704 C706 1.417 . S
C704 C708 1.432 . S
C704 C716 1.410 . S
C705 C707 1.444 . S
C705 C708 1.317 . S
C705 H728 0.929 . S
C706 C703 1.432 . S
C706 C704 1.417 . S
C706 N714 1.360 . S
C707 C703 1.414 . S
C707 C705 1.444 . S
C707 C712 1.385 . S
C708 C704 1.432 . S
C708 C705 1.317 . S
C708 H720 0.930 . S
C709 C711 1.392 . S
C709 C712 1.370 . S
C709 H721 0.931 . S
N710 C703 1.359 . S
N710 C711 1.327 . S
N710 Tb713 2.600 . S
C711 C709 1.392 . S
C711 N710 1.327 . S
C711 H718 0.930 . S
C712 C707 1.385 . S
C712 C709 1.370 . S
C712 H731 0.930 . S
Tb713 N710 2.600 . S
Tb713 N714 2.660 . S
Tb713 O747 2.362 . S
Tb713 O748 2.421 . S
Tb713 O752 2.546 . S
Tb713 O753 2.610 . S
Tb713 O755 2.320 . S
Tb713 O756 2.552 . S
Tb713 O757 2.413 . S
Tb713 C777 2.833 . S
N714 C706 1.360 . S
N714 Tb713 2.660 . S
N714 C715 1.305 . S
C715 N714 1.305 . S
C715 C717 1.407 . S
C715 H722 0.930 . S
C716 C704 1.410 . S
C716 C717 1.345 . S
C716 H724 0.930 . S
C717 C715 1.407 . S
C717 C716 1.345 . S
C717 H719 0.930 . S
H718 C711 0.930 . S
H719 C717 0.930 . S
H720 C708 0.930 . S
H721 C709 0.931 . S
H722 C715 0.930 . S
H723 C737 0.930 . S
H724 C716 0.930 . S
H725 C743 0.930 . S
H726 C734 0.930 . S
H727 C741 0.931 . S
H728 C705 0.929 . S
H729 C735 0.930 . S
H730 C768 0.930 . S
H731 C712 0.930 . S
H732 C767 0.929 . S
N733 Tb702 2.660 . S
N733 C734 1.305 . S
N733 C738 1.360 . S
C734 H726 0.930 . S
C734 N733 1.305 . S
C734 C737 1.407 . S
C735 H729 0.930 . S
C735 C736 1.410 . S
C735 C737 1.345 . S
C736 C735 1.410 . S
C736 C738 1.417 . S
C736 C768 1.432 . S
C737 H723 0.930 . S
C737 C734 1.407 . S
C737 C735 1.345 . S
C738 N733 1.360 . S
C738 C736 1.417 . S
C738 C742 1.432 . S
H739 C744 0.930 . S
N740 Tb702 2.600 . S
N740 C742 1.359 . S
N740 C743 1.327 . S
C741 H727 0.931 . S
C741 C743 1.392 . S
C741 C744 1.370 . S
C742 C738 1.432 . S
C742 N740 1.359 . S
C742 C745 1.414 . S
C743 H725 0.930 . S
C743 N740 1.327 . S
C743 C741 1.392 . S
C744 H739 0.930 . S
C744 C741 1.370 . S
C744 C745 1.385 . S
C745 C742 1.414 . S
C745 C744 1.385 . S
C745 C767 1.444 . S
O746 Tb702 2.546 . S
O746 C766 1.251 . S
O747 Tb702 2.610 . S
O747 Tb713 2.362 . S
O747 C758 1.283 . S
O748 Tb713 2.421 . S
O748 C765 1.262 . S
O749 Tb702 2.320 . S
O749 C765 1.260 . S
O750 Tb702 2.552 . S
O750 C758 1.243 . S
O751 Tb702 2.413 . S
O751 C766 1.256 . S
O752 Tb713 2.546 . S
O752 C777 1.251 . S
O753 Tb702 2.362 . S
O753 Tb713 2.610 . S
O753 C769 1.283 . S
O754 Tb702 2.421 . S
O754 C776 1.262 . S
O755 Tb713 2.320 . S
O755 C776 1.260 . S
O756 Tb713 2.552 . S
O756 C769 1.243 . S
O757 Tb713 2.413 . S
O757 C777 1.256 . S
C758 O747 1.283 . S
C758 O750 1.243 . S
C759 C761 1.382 . S
C759 C763 1.393 . S
C759 C766 1.500 . S
C760 C761 1.400 . S
C760 C762 1.384 . S
C761 C759 1.382 . S
C761 C760 1.400 . S
C761 H778 0.930 . S
C762 C760 1.384 . S
C762 C764 1.392 . S
C762 H779 0.931 . S
C763 C759 1.393 . S
C763 C764 1.401 . S
C763 H780 0.930 . S
C764 C762 1.392 . S
C764 C763 1.401 . S
C764 H781 0.930 . S
C765 O748 1.262 . S
C765 O749 1.260 . S
C766 Tb702 2.833 . S
C766 O746 1.251 . S
C766 O751 1.256 . S
C766 C759 1.500 . S
C767 H732 0.929 . S
C767 C745 1.444 . S
C767 C768 1.317 . S
C768 H730 0.930 . S
C768 C736 1.432 . S
C768 C767 1.317 . S
C769 O753 1.283 . S
C769 O756 1.243 . S
C770 C771 1.382 . S
C770 C774 1.393 . S
C770 C777 1.500 . S
C771 C770 1.382 . S
C771 C772 1.400 . S
C771 H782 0.930 . S
C772 C771 1.400 . S
C772 C773 1.384 . S
C773 C772 1.384 . S
C773 C775 1.392 . S
C773 H783 0.931 . S
C774 C770 1.393 . S
C774 C775 1.401 . S
C774 H784 0.930 . S
C775 C773 1.392 . S
C775 C774 1.401 . S
C775 H785 0.930 . S
C776 O754 1.262 . S
C776 O755 1.260 . S
C777 Tb713 2.833 . S
C777 O752 1.251 . S
C777 O757 1.256 . S
C777 C770 1.500 . S
H778 C761 0.930 . S
H779 C762 0.931 . S
H780 C763 0.930 . S
H781 C764 0.930 . S
H782 C771 0.930 . S
H783 C773 0.931 . S
H784 C774 0.930 . S
H785 C775 0.930 . S
Tb786 N817 2.660 . S
Tb786 N824 2.600 . S
Tb786 O830 2.546 . S
Tb786 O831 2.610 . S
Tb786 O833 2.320 . S
Tb786 O834 2.552 . S
Tb786 O835 2.413 . S
Tb786 O837 2.362 . S
Tb786 O838 2.421 . S
Tb786 C850 2.833 . S
C787 C790 1.432 . S
C787 C791 1.414 . S
C787 N794 1.359 . S
C788 C790 1.417 . S
C788 C792 1.432 . S
C788 C800 1.410 . S
C789 C791 1.444 . S
C789 C792 1.317 . S
C789 H812 0.929 . S
C790 C787 1.432 . S
C790 C788 1.417 . S
C790 N798 1.360 . S
C791 C787 1.414 . S
C791 C789 1.444 . S
C791 C796 1.385 . S
C792 C788 1.432 . S
C792 C789 1.317 . S
C792 H804 0.930 . S
C793 C795 1.392 . S
C793 C796 1.370 . S
C793 H805 0.931 . S
N794 C787 1.359 . S
N794 C795 1.327 . S
N794 Tb797 2.600 . S
C795 C793 1.392 . S
C795 N794 1.327 . S
C795 H802 0.930 . S
C796 C791 1.385 . S
C796 C793 1.370 . S
C796 H815 0.930 . S
Tb797 N794 2.600 . S
Tb797 N798 2.660 . S
Tb797 O831 2.362 . S
Tb797 O832 2.421 . S
Tb797 O836 2.546 . S
Tb797 O837 2.610 . S
Tb797 O839 2.320 . S
Tb797 O840 2.552 . S
Tb797 O841 2.413 . S
Tb797 C861 2.833 . S
N798 C790 1.360 . S
N798 Tb797 2.660 . S
N798 C799 1.305 . S
C799 N798 1.305 . S
C799 C801 1.407 . S
C799 H806 0.930 . S
C800 C788 1.410 . S
C800 C801 1.345 . S
C800 H808 0.930 . S
C801 C799 1.407 . S
C801 C800 1.345 . S
C801 H803 0.930 . S
H802 C795 0.930 . S
H803 C801 0.930 . S
H804 C792 0.930 . S
H805 C793 0.931 . S
H806 C799 0.930 . S
H807 C821 0.930 . S
H808 C800 0.930 . S
H809 C827 0.930 . S
H810 C818 0.930 . S
H811 C825 0.931 . S
H812 C789 0.929 . S
H813 C819 0.930 . S
H814 C852 0.930 . S
H815 C796 0.930 . S
H816 C851 0.929 . S
N817 Tb786 2.660 . S
N817 C818 1.305 . S
N817 C822 1.360 . S
C818 H810 0.930 . S
C818 N817 1.305 . S
C818 C821 1.407 . S
C819 H813 0.930 . S
C819 C820 1.410 . S
C819 C821 1.345 . S
C820 C819 1.410 . S
C820 C822 1.417 . S
C820 C852 1.432 . S
C821 H807 0.930 . S
C821 C818 1.407 . S
C821 C819 1.345 . S
C822 N817 1.360 . S
C822 C820 1.417 . S
C822 C826 1.432 . S
H823 C828 0.930 . S
N824 Tb786 2.600 . S
N824 C826 1.359 . S
N824 C827 1.327 . S
C825 H811 0.931 . S
C825 C827 1.392 . S
C825 C828 1.370 . S
C826 C822 1.432 . S
C826 N824 1.359 . S
C826 C829 1.414 . S
C827 H809 0.930 . S
C827 N824 1.327 . S
C827 C825 1.392 . S
C828 H823 0.930 . S
C828 C825 1.370 . S
C828 C829 1.385 . S
C829 C826 1.414 . S
C829 C828 1.385 . S
C829 C851 1.444 . S
O830 Tb786 2.546 . S
O830 C850 1.251 . S
O831 Tb786 2.610 . S
O831 Tb797 2.362 . S
O831 C842 1.283 . S
O832 Tb797 2.421 . S
O832 C849 1.262 . S
O833 Tb786 2.320 . S
O833 C849 1.260 . S
O834 Tb786 2.552 . S
O834 C842 1.243 . S
O835 Tb786 2.413 . S
O835 C850 1.256 . S
O836 Tb797 2.546 . S
O836 C861 1.251 . S
O837 Tb786 2.362 . S
O837 Tb797 2.610 . S
O837 C853 1.283 . S
O838 Tb786 2.421 . S
O838 C860 1.262 . S
O839 Tb797 2.320 . S
O839 C860 1.260 . S
O840 Tb797 2.552 . S
O840 C853 1.243 . S
O841 Tb797 2.413 . S
O841 C861 1.256 . S
C842 O831 1.283 . S
C842 O834 1.243 . S
C843 C845 1.382 . S
C843 C847 1.393 . S
C843 C850 1.500 . S
C844 C845 1.400 . S
C844 C846 1.384 . S
C845 C843 1.382 . S
C845 C844 1.400 . S
C845 H862 0.930 . S
C846 C844 1.384 . S
C846 C848 1.392 . S
C846 H863 0.931 . S
C847 C843 1.393 . S
C847 C848 1.401 . S
C847 H864 0.930 . S
C848 C846 1.392 . S
C848 C847 1.401 . S
C848 H865 0.930 . S
C849 O832 1.262 . S
C849 O833 1.260 . S
C850 Tb786 2.833 . S
C850 O830 1.251 . S
C850 O835 1.256 . S
C850 C843 1.500 . S
C851 H816 0.929 . S
C851 C829 1.444 . S
C851 C852 1.317 . S
C852 H814 0.930 . S
C852 C820 1.432 . S
C852 C851 1.317 . S
C853 O837 1.283 . S
C853 O840 1.243 . S
C854 C855 1.382 . S
C854 C858 1.393 . S
C854 C861 1.500 . S
C855 C854 1.382 . S
C855 C856 1.400 . S
C855 H866 0.930 . S
C856 C855 1.400 . S
C856 C857 1.384 . S
C857 C856 1.384 . S
C857 C859 1.392 . S
C857 H867 0.931 . S
C858 C854 1.393 . S
C858 C859 1.401 . S
C858 H868 0.930 . S
C859 C857 1.392 . S
C859 C858 1.401 . S
C859 H869 0.930 . S
C860 O838 1.262 . S
C860 O839 1.260 . S
C861 Tb797 2.833 . S
C861 O836 1.251 . S
C861 O841 1.256 . S
C861 C854 1.500 . S
H862 C845 0.930 . S
H863 C846 0.931 . S
H864 C847 0.930 . S
H865 C848 0.930 . S
H866 C855 0.930 . S
H867 C857 0.931 . S
H868 C858 0.930 . S
H869 C859 0.930 . S
Tb870 N901 2.660 . S
Tb870 N908 2.600 . S
Tb870 O914 2.546 . S
Tb870 O915 2.610 . S
Tb870 O917 2.320 . S
Tb870 O918 2.552 . S
Tb870 O919 2.413 . S
Tb870 O921 2.362 . S
Tb870 O922 2.421 . S
Tb870 C934 2.833 . S
C871 C874 1.432 . S
C871 C875 1.414 . S
C871 N878 1.359 . S
C872 C874 1.417 . S
C872 C876 1.432 . S
C872 C884 1.410 . S
C873 C875 1.444 . S
C873 C876 1.317 . S
C873 H896 0.929 . S
C874 C871 1.432 . S
C874 C872 1.417 . S
C874 N882 1.360 . S
C875 C871 1.414 . S
C875 C873 1.444 . S
C875 C880 1.385 . S
C876 C872 1.432 . S
C876 C873 1.317 . S
C876 H888 0.930 . S
C877 C879 1.392 . S
C877 C880 1.370 . S
C877 H889 0.931 . S
N878 C871 1.359 . S
N878 C879 1.327 . S
N878 Tb881 2.600 . S
C879 C877 1.392 . S
C879 N878 1.327 . S
C879 H886 0.930 . S
C880 C875 1.385 . S
C880 C877 1.370 . S
C880 H899 0.930 . S
Tb881 N878 2.600 . S
Tb881 N882 2.660 . S
Tb881 O915 2.362 . S
Tb881 O916 2.421 . S
Tb881 O920 2.546 . S
Tb881 O921 2.610 . S
Tb881 O923 2.320 . S
Tb881 O924 2.552 . S
Tb881 O925 2.413 . S
Tb881 C945 2.833 . S
N882 C874 1.360 . S
N882 Tb881 2.660 . S
N882 C883 1.305 . S
C883 N882 1.305 . S
C883 C885 1.407 . S
C883 H890 0.930 . S
C884 C872 1.410 . S
C884 C885 1.345 . S
C884 H892 0.930 . S
C885 C883 1.407 . S
C885 C884 1.345 . S
C885 H887 0.930 . S
H886 C879 0.930 . S
H887 C885 0.930 . S
H888 C876 0.930 . S
H889 C877 0.931 . S
H890 C883 0.930 . S
H891 C905 0.930 . S
H892 C884 0.930 . S
H893 C911 0.930 . S
H894 C902 0.930 . S
H895 C909 0.931 . S
H896 C873 0.929 . S
H897 C903 0.930 . S
H898 C936 0.930 . S
H899 C880 0.930 . S
H900 C935 0.929 . S
N901 Tb870 2.660 . S
N901 C902 1.305 . S
N901 C906 1.360 . S
C902 H894 0.930 . S
C902 N901 1.305 . S
C902 C905 1.407 1_655 S
C903 H897 0.930 . S
C903 C904 1.410 . S
C903 C905 1.345 . S
C904 C903 1.410 . S
C904 C906 1.417 1_455 S
C904 C936 1.432 . S
C905 H891 0.930 . S
C905 C902 1.407 1_455 S
C905 C903 1.345 . S
C906 N901 1.360 . S
C906 C904 1.417 1_655 S
C906 C910 1.432 . S
H907 C912 0.930 . S
N908 Tb870 2.600 . S
N908 C910 1.359 . S
N908 C911 1.327 . S
C909 H895 0.931 . S
C909 C911 1.392 . S
C909 C912 1.370 . S
C910 C906 1.432 . S
C910 N908 1.359 . S
C910 C913 1.414 . S
C911 H893 0.930 . S
C911 N908 1.327 . S
C911 C909 1.392 . S
C912 H907 0.930 . S
C912 C909 1.370 . S
C912 C913 1.385 . S
C913 C910 1.414 . S
C913 C912 1.385 . S
C913 C935 1.444 1_655 S
O914 Tb870 2.546 . S
O914 C934 1.251 . S
O915 Tb870 2.610 . S
O915 Tb881 2.362 . S
O915 C926 1.283 . S
O916 Tb881 2.421 . S
O916 C933 1.262 . S
O917 Tb870 2.320 . S
O917 C933 1.260 . S
O918 Tb870 2.552 . S
O918 C926 1.243 . S
O919 Tb870 2.413 . S
O919 C934 1.256 . S
O920 Tb881 2.546 . S
O920 C945 1.251 . S
O921 Tb870 2.362 . S
O921 Tb881 2.610 . S
O921 C937 1.283 . S
O922 Tb870 2.421 . S
O922 C944 1.262 . S
O923 Tb881 2.320 . S
O923 C944 1.260 . S
O924 Tb881 2.552 . S
O924 C937 1.243 . S
O925 Tb881 2.413 . S
O925 C945 1.256 . S
C926 O915 1.283 . S
C926 O918 1.243 . S
C927 C929 1.382 . S
C927 C931 1.393 . S
C927 C934 1.500 . S
C928 C929 1.400 . S
C928 C930 1.384 . S
C929 C927 1.382 . S
C929 C928 1.400 . S
C929 H946 0.930 . S
C930 C928 1.384 . S
C930 C932 1.392 . S
C930 H947 0.931 . S
C931 C927 1.393 . S
C931 C932 1.401 . S
C931 H948 0.930 . S
C932 C930 1.392 . S
C932 C931 1.401 . S
C932 H949 0.930 . S
C933 O916 1.262 . S
C933 O917 1.260 . S
C934 Tb870 2.833 . S
C934 O914 1.251 . S
C934 O919 1.256 . S
C934 C927 1.500 . S
C935 H900 0.929 . S
C935 C913 1.444 1_455 S
C935 C936 1.317 . S
C936 H898 0.930 . S
C936 C904 1.432 . S
C936 C935 1.317 . S
C937 O921 1.283 . S
C937 O924 1.243 . S
C938 C939 1.382 . S
C938 C942 1.393 . S
C938 C945 1.500 . S
C939 C938 1.382 . S
C939 C940 1.400 . S
C939 H950 0.930 . S
C940 C939 1.400 . S
C940 C941 1.384 . S
C941 C940 1.384 . S
C941 C943 1.392 . S
C941 H951 0.931 . S
C942 C938 1.393 . S
C942 C943 1.401 . S
C942 H952 0.930 . S
C943 C941 1.392 . S
C943 C942 1.401 . S
C943 H953 0.930 . S
C944 O922 1.262 . S
C944 O923 1.260 . S
C945 Tb881 2.833 . S
C945 O920 1.251 . S
C945 O925 1.256 . S
C945 C938 1.500 . S
H946 C929 0.930 . S
H947 C930 0.931 . S
H948 C931 0.930 . S
H949 C932 0.930 . S
H950 C939 0.930 . S
H951 C941 0.931 . S
H952 C942 0.930 . S
H953 C943 0.930 . S
C954 C955 1.369 . S
C954 C956 1.419 . S
C954 H958 0.930 . S
C955 C954 1.369 . S
C955 C964 1.429 . S
C956 C954 1.419 . S
C956 C957 1.363 . S
C956 H959 0.929 . S
C957 C956 1.363 . S
C957 C963 1.428 . S
H958 C954 0.930 . S
H959 C956 0.929 . S
S960 N961 1.613 . S
S960 N962 1.610 . S
N961 S960 1.613 . S
N961 C964 1.350 . S
N962 S960 1.610 . S
N962 C963 1.351 . S
C963 C957 1.428 . S
C963 N962 1.351 . S
C963 C964 1.434 . S
C964 C955 1.429 . S
C964 N961 1.350 . S
C964 C963 1.434 . S
C965 C966 1.369 . S
C965 C967 1.419 . S
C965 H969 0.930 . S
C966 C965 1.369 . S
C966 C975 1.429 . S
C967 C965 1.419 . S
C967 C968 1.363 . S
C967 H970 0.971 . S
C968 C967 1.363 . S
C968 C974 1.428 . S
H969 C965 0.930 . S
H970 C967 0.971 . S
S971 N972 1.613 . S
S971 N973 1.610 . S
N972 S971 1.613 . S
N972 C975 1.350 . S
N973 S971 1.610 . S
N973 C974 1.351 . S
C974 C968 1.428 . S
C974 N973 1.351 . S
C974 C975 1.434 . S
C975 C966 1.429 . S
C975 N972 1.350 . S
C975 C974 1.434 . S
C976 C977 1.369 . S
C976 C978 1.419 . S
C976 H980 0.930 . S
C977 C976 1.369 . S
C977 C986 1.429 . S
C978 C976 1.419 . S
C978 C979 1.363 . S
C978 H981 0.929 . S
C979 C978 1.363 . S
C979 C985 1.428 . S
H980 C976 0.930 . S
H981 C978 0.929 . S
S982 N983 1.613 . S
S982 N984 1.610 . S
N983 S982 1.613 . S
N983 C986 1.350 . S
N984 S982 1.610 . S
N984 C985 1.351 . S
C985 C979 1.428 . S
C985 N984 1.351 . S
C985 C986 1.434 . S
C986 C977 1.429 . S
C986 N983 1.350 . S
C986 C985 1.434 . S
C987 C988 1.369 . S
C987 C989 1.419 . S
C987 H991 0.930 . S
C988 C987 1.369 . S
C988 C997 1.429 . S
C989 C987 1.419 . S
C989 C990 1.363 . S
C989 H992 0.929 . S
C990 C989 1.363 . S
C990 C996 1.428 1_556 S
H991 C987 0.930 . S
H992 C989 0.929 . S
S993 N994 1.613 . S
S993 N995 1.610 . S
N994 S993 1.613 . S
N994 C997 1.350 1_554 S
N995 S993 1.610 . S
N995 C996 1.351 . S
C996 C990 1.428 1_554 S
C996 N995 1.351 . S
C996 C997 1.434 1_554 S
C997 C988 1.429 . S
C997 N994 1.350 1_556 S
C997 C996 1.434 1_556 S
C998 C999 1.369 . S
C998 C1000 1.419 . S
C998 H1002 0.930 . S
C999 C998 1.369 . S
C999 C1008 1.429 . S
C1000 C998 1.419 . S
C1000 C1001 1.363 . S
C1000 H1003 0.929 . S
C1001 C1000 1.363 . S
C1001 C1007 1.428 . S
H1002 C998 0.930 . S
H1003 C1000 0.929 . S
S1004 N1005 1.613 . S
S1004 N1006 1.610 . S
N1005 S1004 1.613 . S
N1005 C1008 1.350 . S
N1006 S1004 1.610 . S
N1006 C1007 1.351 . S
C1007 C1001 1.428 . S
C1007 N1006 1.351 . S
C1007 C1008 1.434 . S
C1008 C999 1.429 . S
C1008 N1005 1.350 . S
C1008 C1007 1.434 . S
C1009 C1010 1.369 . S
C1009 C1011 1.419 . S
C1009 H1013 0.930 . S
C1010 C1009 1.369 . S
C1010 C1019 1.429 . S
C1011 C1009 1.419 . S
C1011 C1012 1.363 . S
C1011 H1014 0.929 1_556 S
C1012 C1011 1.363 . S
C1012 C1018 1.428 . S
H1013 C1009 0.930 . S
H1014 C1011 0.929 1_554 S
S1015 N1016 1.613 . S
S1015 N1017 1.610 . S
N1016 S1015 1.613 . S
N1016 C1019 1.350 . S
N1017 S1015 1.610 . S
N1017 C1018 1.351 . S
C1018 C1012 1.428 . S
C1018 N1017 1.351 . S
C1018 C1019 1.434 . S
C1019 C1010 1.429 . S
C1019 N1016 1.350 . S
C1019 C1018 1.434 . S
C1020 C1021 1.369 . S
C1020 C1022 1.419 . S
C1020 H1024 0.930 . S
C1021 C1020 1.369 . S
C1021 C1030 1.429 . S
C1022 C1020 1.419 . S
C1022 C1023 1.363 . S
C1022 H1025 0.929 . S
C1023 C1022 1.363 . S
C1023 C1029 1.428 1_556 S
H1024 C1020 0.930 . S
H1025 C1022 0.929 . S
S1026 N1027 1.613 . S
S1026 N1028 1.610 . S
N1027 S1026 1.613 . S
N1027 C1030 1.350 1_554 S
N1028 S1026 1.610 . S
N1028 C1029 1.351 . S
C1029 C1023 1.428 1_554 S
C1029 N1028 1.351 . S
C1029 C1030 1.434 1_554 S
C1030 C1021 1.429 . S
C1030 N1027 1.350 1_556 S
C1030 C1029 1.434 1_556 S
C1031 C1032 1.369 . S
C1031 C1033 1.420 . S
C1031 H1035 0.930 1_556 S
C1032 C1031 1.369 . S
C1032 C1041 1.429 . S
C1033 C1031 1.420 . S
C1033 C1034 1.366 . S
C1033 H1036 0.925 1_556 S
C1034 C1033 1.366 . S
C1034 C1040 1.428 . S
H1035 C1031 0.930 1_554 S
H1036 C1033 0.925 1_554 S
S1037 N1038 1.613 . S
S1037 N1039 1.610 . S
N1038 S1037 1.613 . S
N1038 C1041 1.350 . S
N1039 S1037 1.610 . S
N1039 C1040 1.351 . S
C1040 C1034 1.428 . S
C1040 N1039 1.351 . S
C1040 C1041 1.434 . S
C1041 C1032 1.429 . S
C1041 N1038 1.350 . S
C1041 C1040 1.434 . S
C1042 C1043 1.369 1_554 S
C1042 C1044 1.419 . S
C1042 H1046 0.930 . S
C1043 C1042 1.369 1_556 S
C1043 C1052 1.429 . S
C1044 C1042 1.419 . S
C1044 C1045 1.363 1_554 S
C1044 H1047 0.929 . S
C1045 C1044 1.363 1_556 S
C1045 C1051 1.428 . S
H1046 C1042 0.930 . S
H1047 C1044 0.929 . S
S1048 N1049 1.613 . S
S1048 N1050 1.610 . S
N1049 S1048 1.613 . S
N1049 C1052 1.350 . S
N1050 S1048 1.610 . S
N1050 C1051 1.351 . S
C1051 C1045 1.428 . S
C1051 N1050 1.351 . S
C1051 C1052 1.434 . S
C1052 C1043 1.429 . S
C1052 N1049 1.350 . S
C1052 C1051 1.434 . S
C1053 C1054 1.369 . S
C1053 C1055 1.419 . S
C1053 H1057 0.930 . S
C1054 C1053 1.369 . S
C1054 C1063 1.429 . S
C1055 C1053 1.419 . S
C1055 C1056 1.363 . S
C1055 H1058 0.929 . S
C1056 C1055 1.363 . S
C1056 C1062 1.428 . S
H1057 C1053 0.930 . S
H1058 C1055 0.929 . S
S1059 N1060 1.616 1_556 S
S1059 N1061 1.610 . S
N1060 S1059 1.616 1_554 S
N1060 C1063 1.347 . S
N1061 S1059 1.610 . S
N1061 C1062 1.351 1_556 S
C1062 C1056 1.428 . S
C1062 N1061 1.351 1_554 S
C1062 C1063 1.434 . S
C1063 C1054 1.429 . S
C1063 N1060 1.347 . S
C1063 C1062 1.434 . S
C1064 C1065 1.369 . S
C1064 C1066 1.419 . S
C1064 H1068 0.930 . S
C1065 C1064 1.369 . S
C1065 C1074 1.429 . S
C1066 C1064 1.419 . S
C1066 C1067 1.363 . S
C1066 H1069 0.929 . S
C1067 C1066 1.363 . S
C1067 C1073 1.428 . S
H1068 C1064 0.930 . S
H1069 C1066 0.929 . S
S1070 N1071 1.602 1_556 S
S1070 N1072 1.610 . S
N1071 S1070 1.602 1_554 S
N1071 C1074 1.361 . S
N1072 S1070 1.610 . S
N1072 C1073 1.351 1_556 S
C1073 C1067 1.428 . S
C1073 N1072 1.351 1_554 S
C1073 C1074 1.434 . S
C1074 C1065 1.429 . S
C1074 N1071 1.361 . S
C1074 C1073 1.434 . S
C1075 C1076 1.369 . S
C1075 C1077 1.419 . S
C1075 H1079 0.930 . S
C1076 C1075 1.369 . S
C1076 C1085 1.429 . S
C1077 C1075 1.419 . S
C1077 C1078 1.363 . S
C1077 H1080 0.929 . S
C1078 C1077 1.363 . S
C1078 C1084 1.428 . S
H1079 C1075 0.930 . S
H1080 C1077 0.929 . S
S1081 N1082 1.613 1_556 S
S1081 N1083 1.610 . S
N1082 S1081 1.613 1_554 S
N1082 C1085 1.350 . S
N1083 S1081 1.610 . S
N1083 C1084 1.351 1_556 S
C1084 C1078 1.428 . S
C1084 N1083 1.351 1_554 S
C1084 C1085 1.434 . S
C1085 C1076 1.429 . S
C1085 N1082 1.350 . S
C1085 C1084 1.434 . S
C1086 C1087 1.369 . S
C1086 C1088 1.419 . S
C1086 H1090 0.930 . S
C1087 C1086 1.369 . S
C1087 C1096 1.429 1_655 S
C1088 C1086 1.419 . S
C1088 C1089 1.363 1_655 S
C1088 H1091 0.929 . S
C1089 C1088 1.363 1_455 S
C1089 C1095 1.428 . S
H1090 C1086 0.930 . S
H1091 C1088 0.929 . S
S1092 N1093 1.613 . S
S1092 N1094 1.610 . S
N1093 S1092 1.613 . S
N1093 C1096 1.350 . S
N1094 S1092 1.610 . S
N1094 C1095 1.351 . S
C1095 C1089 1.428 . S
C1095 N1094 1.351 . S
C1095 C1096 1.434 . S
C1096 C1087 1.429 1_455 S
C1096 N1093 1.350 . S
C1096 C1095 1.434 . S
C1097 C1098 1.369 . S
C1097 C1099 1.419 . S
C1097 H1101 0.930 . S
C1098 C1097 1.369 . S
C1098 C1107 1.429 . S
C1099 C1097 1.419 . S
C1099 C1100 1.363 . S
C1099 H1102 0.929 . S
C1100 C1099 1.363 . S
C1100 C1106 1.428 . S
H1101 C1097 0.930 . S
H1102 C1099 0.929 . S
S1103 N1104 1.613 . S
S1103 N1105 1.610 . S
N1104 S1103 1.613 . S
N1104 C1107 1.350 . S
N1105 S1103 1.610 . S
N1105 C1106 1.351 . S
C1106 C1100 1.428 . S
C1106 N1105 1.351 . S
C1106 C1107 1.434 . S
C1107 C1098 1.429 . S
C1107 N1104 1.350 . S
C1107 C1106 1.434 . S
C1108 C1109 1.369 . S
C1108 C1110 1.419 . S
C1108 H1112 0.930 . S
C1109 C1108 1.369 . S
C1109 C1118 1.429 . S
C1110 C1108 1.419 . S
C1110 C1111 1.363 1_545 S
C1110 H1113 0.929 . S
C1111 C1110 1.363 1_565 S
C1111 C1117 1.428 . S
H1112 C1108 0.930 . S
H1113 C1110 0.929 . S
S1114 N1115 1.613 1_565 S
S1114 N1116 1.610 . S
N1115 S1114 1.613 1_545 S
N1115 C1118 1.350 . S
N1116 S1114 1.610 . S
N1116 C1117 1.351 . S
C1117 C1111 1.428 . S
C1117 N1116 1.351 . S
C1117 C1118 1.434 1_565 S
C1118 C1109 1.429 . S
C1118 N1115 1.350 . S
C1118 C1117 1.434 1_545 S
C1119 C1120 1.369 . S
C1119 C1121 1.419 . S
C1119 H1123 0.930 . S
C1120 C1119 1.369 . S
C1120 C1129 1.429 . S
C1121 C1119 1.419 . S
C1121 C1122 1.363 . S
C1121 H1124 0.929 . S
C1122 C1121 1.363 . S
C1122 C1128 1.428 . S
H1123 C1119 0.930 . S
H1124 C1121 0.929 . S
S1125 N1126 1.613 . S
S1125 N1127 1.610 . S
N1126 S1125 1.613 . S
N1126 C1129 1.350 . S
N1127 S1125 1.610 . S
N1127 C1128 1.351 . S
C1128 C1122 1.428 . S
C1128 N1127 1.351 . S
C1128 C1129 1.434 . S
C1129 C1120 1.429 . S
C1129 N1126 1.350 . S
C1129 C1128 1.434 . S
C1130 C1131 1.369 . S
C1130 C1132 1.419 . S
C1130 H1134 0.930 . S
C1131 C1130 1.369 . S
C1131 C1140 1.429 . S
C1132 C1130 1.419 . S
C1132 C1133 1.363 . S
C1132 H1135 0.929 . S
C1133 C1132 1.363 . S
C1133 C1139 1.428 . S
H1134 C1130 0.930 . S
H1135 C1132 0.929 . S
S1136 N1137 1.613 . S
S1136 N1138 1.610 . S
N1137 S1136 1.613 . S
N1137 C1140 1.350 . S
N1138 S1136 1.610 . S
N1138 C1139 1.351 . S
C1139 C1133 1.428 . S
C1139 N1138 1.351 . S
C1139 C1140 1.434 . S
C1140 C1131 1.429 . S
C1140 N1137 1.350 . S
C1140 C1139 1.434 . S
C1141 C1142 1.369 . S
C1141 C1143 1.419 . S
C1141 H1145 0.930 . S
C1142 C1141 1.369 . S
C1142 C1151 1.429 . S
C1143 C1141 1.419 . S
C1143 C1144 1.363 . S
C1143 H1146 0.929 . S
C1144 C1143 1.363 . S
C1144 C1150 1.428 . S
H1145 C1141 0.930 . S
H1146 C1143 0.929 . S
S1147 N1148 1.613 . S
S1147 N1149 1.610 . S
N1148 S1147 1.613 . S
N1148 C1151 1.350 . S
N1149 S1147 1.610 . S
N1149 C1150 1.351 . S
C1150 C1144 1.428 . S
C1150 N1149 1.351 . S
C1150 C1151 1.434 . S
C1151 C1142 1.429 . S
C1151 N1148 1.350 . S
C1151 C1150 1.434 . S
C1152 C1153 1.369 . S
C1152 C1154 1.419 . S
C1152 H1156 0.930 . S
C1153 C1152 1.369 . S
C1153 C1162 1.429 . S
C1154 C1152 1.419 . S
C1154 C1155 1.363 . S
C1154 H1157 0.929 . S
C1155 C1154 1.363 . S
C1155 C1161 1.428 . S
H1156 C1152 0.930 . S
H1157 C1154 0.929 . S
S1158 N1159 1.613 . S
S1158 N1160 1.610 . S
N1159 S1158 1.613 . S
N1159 C1162 1.350 . S
N1160 S1158 1.610 . S
N1160 C1161 1.351 . S
C1161 C1155 1.428 . S
C1161 N1160 1.351 . S
C1161 C1162 1.434 . S
C1162 C1153 1.429 . S
C1162 N1159 1.350 . S
C1162 C1161 1.434 . S
C1163 C1164 1.369 . S
C1163 C1165 1.419 . S
C1163 H1167 0.930 . S
C1164 C1163 1.369 . S
C1164 C1173 1.429 . S
C1165 C1163 1.419 . S
C1165 C1166 1.363 . S
C1165 H1168 0.929 . S
C1166 C1165 1.363 . S
C1166 C1172 1.428 . S
H1167 C1163 0.930 . S
H1168 C1165 0.929 . S
S1169 N1170 1.613 . S
S1169 N1171 1.610 . S
N1170 S1169 1.613 . S
N1170 C1173 1.350 . S
N1171 S1169 1.610 . S
N1171 C1172 1.351 . S
C1172 C1166 1.428 . S
C1172 N1171 1.351 . S
C1172 C1173 1.434 . S
C1173 C1164 1.429 . S
C1173 N1170 1.350 . S
C1173 C1172 1.434 . S
C1174 C1175 1.369 . S
C1174 C1176 1.419 . S
C1174 H1178 0.930 . S
C1175 C1174 1.369 . S
C1175 C1184 1.429 . S
C1176 C1174 1.419 . S
C1176 C1177 1.363 . S
C1176 H1179 0.929 . S
C1177 C1176 1.363 . S
C1177 C1183 1.428 . S
H1178 C1174 0.930 . S
H1179 C1176 0.929 . S
S1180 N1181 1.613 . S
S1180 N1182 1.610 . S
N1181 S1180 1.613 . S
N1181 C1184 1.350 . S
N1182 S1180 1.610 . S
N1182 C1183 1.351 . S
C1183 C1177 1.428 . S
C1183 N1182 1.351 . S
C1183 C1184 1.434 . S
C1184 C1175 1.429 . S
C1184 N1181 1.350 . S
C1184 C1183 1.434 . S
C1185 C1186 1.369 . S
C1185 C1187 1.419 . S
C1185 H1189 0.930 . S
C1186 C1185 1.369 . S
C1186 C1195 1.429 . S
C1187 C1185 1.419 . S
C1187 C1188 1.363 . S
C1187 H1190 0.929 . S
C1188 C1187 1.363 . S
C1188 C1194 1.428 . S
H1189 C1185 0.930 . S
H1190 C1187 0.929 . S
S1191 N1192 1.613 . S
S1191 N1193 1.610 . S
N1192 S1191 1.613 . S
N1192 C1195 1.350 . S
N1193 S1191 1.610 . S
N1193 C1194 1.351 . S
C1194 C1188 1.428 . S
C1194 N1193 1.351 . S
C1194 C1195 1.434 . S
C1195 C1186 1.429 . S
C1195 N1192 1.350 . S
C1195 C1194 1.434 . S
C1196 C1197 1.369 . S
C1196 C1198 1.419 . S
C1196 H1200 0.930 . S
C1197 C1196 1.369 . S
C1197 C1206 1.429 . S
C1198 C1196 1.419 . S
C1198 C1199 1.363 . S
C1198 H1201 0.929 . S
C1199 C1198 1.363 . S
C1199 C1205 1.428 . S
H1200 C1196 0.930 . S
H1201 C1198 0.929 . S
S1202 N1203 1.613 . S
S1202 N1204 1.610 . S
N1203 S1202 1.613 . S
N1203 C1206 1.350 . S
N1204 S1202 1.610 . S
N1204 C1205 1.351 . S
C1205 C1199 1.428 . S
C1205 N1204 1.351 . S
C1205 C1206 1.434 . S
C1206 C1197 1.429 . S
C1206 N1203 1.350 . S
C1206 C1205 1.434 . S
C1207 C1208 1.369 . S
C1207 C1209 1.419 . S
C1207 H1211 0.930 . S
C1208 C1207 1.369 . S
C1208 C1217 1.429 . S
C1209 C1207 1.419 . S
C1209 C1210 1.363 . S
C1209 H1212 0.929 . S
C1210 C1209 1.363 . S
C1210 C1216 1.428 . S
H1211 C1207 0.930 . S
H1212 C1209 0.929 . S
S1213 N1214 1.613 . S
S1213 N1215 1.610 . S
N1214 S1213 1.613 . S
N1214 C1217 1.350 . S
N1215 S1213 1.610 . S
N1215 C1216 1.351 . S
C1216 C1210 1.428 . S
C1216 N1215 1.351 . S
C1216 C1217 1.434 . S
C1217 C1208 1.429 . S
C1217 N1214 1.350 . S
C1217 C1216 1.434 . S
C1218 C1219 1.369 . S
C1218 C1220 1.419 . S
C1218 H1222 0.930 . S
C1219 C1218 1.369 . S
C1219 C1228 1.429 . S
C1220 C1218 1.419 . S
C1220 C1221 1.363 . S
C1220 H1223 0.929 . S
C1221 C1220 1.363 . S
C1221 C1227 1.428 . S
H1222 C1218 0.930 . S
H1223 C1220 0.929 . S
S1224 N1225 1.613 . S
S1224 N1226 1.610 . S
N1225 S1224 1.613 . S
N1225 C1228 1.350 . S
N1226 S1224 1.610 . S
N1226 C1227 1.351 . S
C1227 C1221 1.428 . S
C1227 N1226 1.351 . S
C1227 C1228 1.434 . S
C1228 C1219 1.429 . S
C1228 N1225 1.350 . S
C1228 C1227 1.434 . S
C1229 C1230 1.369 . S
C1229 C1231 1.419 . S
C1229 H1233 0.930 . S
C1230 C1229 1.369 . S
C1230 C1239 1.429 . S
C1231 C1229 1.419 . S
C1231 C1232 1.363 . S
C1231 H1234 0.929 . S
C1232 C1231 1.363 . S
C1232 C1238 1.428 . S
H1233 C1229 0.930 . S
H1234 C1231 0.929 . S
S1235 N1236 1.613 . S
S1235 N1237 1.610 . S
N1236 S1235 1.613 . S
N1236 C1239 1.350 . S
N1237 S1235 1.610 . S
N1237 C1238 1.351 . S
C1238 C1232 1.428 . S
C1238 N1237 1.351 . S
C1238 C1239 1.434 . S
C1239 C1230 1.429 . S
C1239 N1236 1.350 . S
C1239 C1238 1.434 . S
C1240 C1241 1.369 . S
C1240 C1242 1.419 . S
C1240 H1244 0.930 . S
C1241 C1240 1.369 . S
C1241 C1250 1.429 . S
C1242 C1240 1.419 . S
C1242 C1243 1.363 . S
C1242 H1245 0.929 . S
C1243 C1242 1.363 . S
C1243 C1249 1.428 . S
H1244 C1240 0.930 . S
H1245 C1242 0.929 . S
S1246 N1247 1.613 . S
S1246 N1248 1.610 . S
N1247 S1246 1.613 . S
N1247 C1250 1.350 . S
N1248 S1246 1.610 . S
N1248 C1249 1.351 . S
C1249 C1243 1.428 . S
C1249 N1248 1.351 . S
C1249 C1250 1.434 . S
C1250 C1241 1.429 . S
C1250 N1247 1.350 . S
C1250 C1249 1.434 . S
C1251 C1252 1.369 . S
C1251 C1253 1.419 1_565 S
C1251 H1255 0.930 . S
C1252 C1251 1.369 . S
C1252 C1261 1.429 . S
C1253 C1251 1.419 1_545 S
C1253 C1254 1.363 . S
C1253 H1256 0.929 . S
C1254 C1253 1.363 . S
C1254 C1260 1.428 . S
H1255 C1251 0.930 . S
H1256 C1253 0.929 . S
S1257 N1258 1.613 1_545 S
S1257 N1259 1.610 . S
N1258 S1257 1.613 1_565 S
N1258 C1261 1.350 . S
N1259 S1257 1.610 . S
N1259 C1260 1.351 . S
C1260 C1254 1.428 . S
C1260 N1259 1.351 . S
C1260 C1261 1.434 1_545 S
C1261 C1252 1.429 . S
C1261 N1258 1.350 . S
C1261 C1260 1.434 1_565 S
C1262 C1263 1.369 . S
C1262 C1264 1.419 . S
C1262 H1266 0.930 . S
C1263 C1262 1.369 . S
C1263 C1272 1.429 1_455 S
C1264 C1262 1.419 . S
C1264 C1265 1.363 1_455 S
C1264 H1267 0.929 . S
C1265 C1264 1.363 1_655 S
C1265 C1271 1.428 . S
H1266 C1262 0.930 . S
H1267 C1264 0.929 . S
S1268 N1269 1.613 . S
S1268 N1270 1.610 . S
N1269 S1268 1.613 . S
N1269 C1272 1.350 . S
N1270 S1268 1.610 . S
N1270 C1271 1.351 . S
C1271 C1265 1.428 . S
C1271 N1270 1.351 . S
C1271 C1272 1.434 . S
C1272 C1263 1.429 1_655 S
C1272 N1269 1.350 . S
C1272 C1271 1.434 . S
C1273 C1274 1.369 . S
C1273 C1275 1.419 . S
C1273 H1277 0.930 . S
C1274 C1273 1.369 . S
C1274 C1283 1.429 . S
C1275 C1273 1.419 . S
C1275 C1276 1.363 . S
C1275 H1278 0.929 . S
C1276 C1275 1.363 . S
C1276 C1282 1.428 . S
H1277 C1273 0.930 . S
H1278 C1275 0.929 . S
S1279 N1280 1.613 . S
S1279 N1281 1.610 . S
N1280 S1279 1.613 . S
N1280 C1283 1.350 . S
N1281 S1279 1.610 . S
N1281 C1282 1.351 . S
C1282 C1276 1.428 . S
C1282 N1281 1.351 . S
C1282 C1283 1.434 . S
C1283 C1274 1.429 . S
C1283 N1280 1.350 . S
C1283 C1282 1.434 . S
C1284 C1285 1.369 . S
C1284 C1286 1.419 . S
C1284 H1288 0.930 . S
C1285 C1284 1.369 . S
C1285 C1294 1.429 . S
C1286 C1284 1.419 . S
C1286 C1287 1.363 . S
C1286 H1289 0.929 . S
C1287 C1286 1.363 . S
C1287 C1293 1.428 . S
H1288 C1284 0.930 . S
H1289 C1286 0.929 . S
S1290 N1291 1.613 . S
S1290 N1292 1.610 . S
N1291 S1290 1.613 . S
N1291 C1294 1.350 . S
N1292 S1290 1.610 . S
N1292 C1293 1.351 . S
C1293 C1287 1.428 . S
C1293 N1292 1.351 . S
C1293 C1294 1.434 . S
C1294 C1285 1.429 . S
C1294 N1291 1.350 . S
C1294 C1293 1.434 . S
C1295 C1296 1.369 . S
C1295 C1297 1.419 . S
C1295 H1299 0.930 . S
C1296 C1295 1.369 . S
C1296 C1305 1.429 . S
C1297 C1295 1.419 . S
C1297 C1298 1.363 . S
C1297 H1300 0.929 . S
C1298 C1297 1.363 . S
C1298 C1304 1.428 . S
H1299 C1295 0.930 . S
H1300 C1297 0.929 . S
S1301 N1302 1.613 . S
S1301 N1303 1.610 . S
N1302 S1301 1.613 . S
N1302 C1305 1.350 . S
N1303 S1301 1.610 . S
N1303 C1304 1.351 . S
C1304 C1298 1.428 . S
C1304 N1303 1.351 . S
C1304 C1305 1.434 . S
C1305 C1296 1.429 . S
C1305 N1302 1.350 . S
C1305 C1304 1.434 . S
C1306 C1307 1.369 . S
C1306 C1308 1.419 . S
C1306 H1310 0.930 . S
C1307 C1306 1.369 . S
C1307 C1316 1.429 . S
C1308 C1306 1.419 . S
C1308 C1309 1.363 . S
C1308 H1311 0.929 . S
C1309 C1308 1.363 . S
C1309 C1315 1.428 . S
H1310 C1306 0.930 . S
H1311 C1308 0.929 . S
S1312 N1313 1.613 . S
S1312 N1314 1.610 . S
N1313 S1312 1.613 . S
N1313 C1316 1.350 . S
N1314 S1312 1.610 . S
N1314 C1315 1.351 . S
C1315 C1309 1.428 . S
C1315 N1314 1.351 . S
C1315 C1316 1.434 . S
C1316 C1307 1.429 . S
C1316 N1313 1.350 . S
C1316 C1315 1.434 . S
C1317 C1318 1.369 . S
C1317 C1319 1.419 . S
C1317 H1321 0.930 . S
C1318 C1317 1.369 . S
C1318 C1327 1.429 . S
C1319 C1317 1.419 . S
C1319 C1320 1.363 . S
C1319 H1322 0.929 . S
C1320 C1319 1.363 . S
C1320 C1326 1.428 . S
H1321 C1317 0.930 . S
H1322 C1319 0.929 . S
S1323 N1324 1.613 . S
S1323 N1325 1.610 . S
N1324 S1323 1.613 . S
N1324 C1327 1.350 . S
N1325 S1323 1.610 . S
N1325 C1326 1.351 . S
C1326 C1320 1.428 . S
C1326 N1325 1.351 . S
C1326 C1327 1.434 . S
C1327 C1318 1.429 . S
C1327 N1324 1.350 . S
C1327 C1326 1.434 . S
C1328 C1329 1.369 . S
C1328 C1330 1.419 . S
C1328 H1332 0.930 . S
C1329 C1328 1.369 . S
C1329 C1338 1.429 . S
C1330 C1328 1.419 . S
C1330 C1331 1.363 . S
C1330 H1333 0.929 . S
C1331 C1330 1.363 . S
C1331 C1337 1.428 . S
H1332 C1328 0.930 . S
H1333 C1330 0.929 . S
S1334 N1335 1.613 . S
S1334 N1336 1.610 . S
N1335 S1334 1.613 . S
N1335 C1338 1.350 . S
N1336 S1334 1.610 . S
N1336 C1337 1.351 . S
C1337 C1331 1.428 . S
C1337 N1336 1.351 . S
C1337 C1338 1.434 . S
C1338 C1329 1.429 . S
C1338 N1335 1.350 . S
C1338 C1337 1.434 . S
C1339 C1340 1.369 . S
C1339 C1341 1.419 . S
C1339 H1343 0.930 . S
C1340 C1339 1.369 . S
C1340 C1349 1.429 . S
C1341 C1339 1.419 . S
C1341 C1342 1.363 . S
C1341 H1344 0.929 . S
C1342 C1341 1.363 . S
C1342 C1348 1.428 . S
H1343 C1339 0.930 . S
H1344 C1341 0.929 . S
S1345 N1346 1.613 . S
S1345 N1347 1.610 . S
N1346 S1345 1.613 . S
N1346 C1349 1.350 . S
N1347 S1345 1.610 . S
N1347 C1348 1.351 . S
C1348 C1342 1.428 . S
C1348 N1347 1.351 . S
C1348 C1349 1.434 . S
C1349 C1340 1.429 . S
C1349 N1346 1.350 . S
C1349 C1348 1.434 . S
C1350 C1351 1.369 . S
C1350 C1352 1.419 . S
C1350 H1354 0.930 . S
C1351 C1350 1.369 . S
C1351 C1360 1.429 . S
C1352 C1350 1.419 . S
C1352 C1353 1.363 . S
C1352 H1355 0.929 . S
C1353 C1352 1.363 . S
C1353 C1359 1.428 . S
H1354 C1350 0.930 . S
H1355 C1352 0.929 . S
S1356 N1357 1.613 1_545 S
S1356 N1358 1.610 1_545 S
N1357 S1356 1.613 1_565 S
N1357 C1360 1.350 . S
N1358 S1356 1.610 1_565 S
N1358 C1359 1.351 . S
C1359 C1353 1.428 . S
C1359 N1358 1.351 . S
C1359 C1360 1.434 . S
C1360 C1351 1.429 . S
C1360 N1357 1.350 . S
C1360 C1359 1.434 . S
C1361 C1362 1.369 . S
C1361 C1363 1.419 . S
C1361 H1365 0.930 . S
C1362 C1361 1.369 . S
C1362 C1371 1.429 . S
C1363 C1361 1.419 . S
C1363 C1364 1.363 . S
C1363 H1366 0.929 . S
C1364 C1363 1.363 . S
C1364 C1370 1.428 . S
H1365 C1361 0.930 . S
H1366 C1363 0.929 . S
S1367 N1368 1.613 . S
S1367 N1369 1.610 . S
N1368 S1367 1.613 . S
N1368 C1371 1.350 . S
N1369 S1367 1.610 . S
N1369 C1370 1.351 . S
C1370 C1364 1.428 . S
C1370 N1369 1.351 . S
C1370 C1371 1.434 . S
C1371 C1362 1.429 . S
C1371 N1368 1.350 . S
C1371 C1370 1.434 . S
C1372 C1373 1.369 . S
C1372 C1374 1.419 . S
C1372 H1376 0.930 . S
C1373 C1372 1.369 . S
C1373 C1382 1.429 . S
C1374 C1372 1.419 . S
C1374 C1375 1.363 . S
C1374 H1377 0.929 . S
C1375 C1374 1.363 . S
C1375 C1381 1.428 . S
H1376 C1372 0.930 . S
H1377 C1374 0.929 . S
S1378 N1379 1.613 . S
S1378 N1380 1.610 . S
N1379 S1378 1.613 . S
N1379 C1382 1.350 . S
N1380 S1378 1.610 . S
N1380 C1381 1.351 . S
C1381 C1375 1.428 . S
C1381 N1380 1.351 . S
C1381 C1382 1.434 . S
C1382 C1373 1.429 . S
C1382 N1379 1.350 . S
C1382 C1381 1.434 . S
C1383 C1384 1.369 . S
C1383 C1385 1.419 . S
C1383 H1387 0.930 . S
C1384 C1383 1.369 . S
C1384 C1393 1.429 . S
C1385 C1383 1.419 . S
C1385 C1386 1.363 . S
C1385 H1388 0.929 . S
C1386 C1385 1.363 . S
C1386 C1392 1.428 . S
H1387 C1383 0.930 . S
H1388 C1385 0.929 . S
S1389 N1390 1.613 . S
S1389 N1391 1.610 . S
N1390 S1389 1.613 . S
N1390 C1393 1.350 . S
N1391 S1389 1.610 . S
N1391 C1392 1.351 . S
C1392 C1386 1.428 . S
C1392 N1391 1.351 . S
C1392 C1393 1.434 . S
C1393 C1384 1.429 . S
C1393 N1390 1.350 . S
C1393 C1392 1.434 . S
C1394 C1395 1.369 . S
C1394 C1396 1.419 . S
C1394 H1398 0.930 . S
C1395 C1394 1.369 . S
C1395 C1404 1.429 . S
C1396 C1394 1.419 . S
C1396 C1397 1.363 . S
C1396 H1399 0.929 . S
C1397 C1396 1.363 . S
C1397 C1403 1.428 . S
H1398 C1394 0.930 . S
H1399 C1396 0.929 . S
S1400 N1401 1.613 . S
S1400 N1402 1.610 . S
N1401 S1400 1.613 . S
N1401 C1404 1.350 . S
N1402 S1400 1.610 . S
N1402 C1403 1.351 . S
C1403 C1397 1.428 . S
C1403 N1402 1.351 . S
C1403 C1404 1.434 . S
C1404 C1395 1.429 . S
C1404 N1401 1.350 . S
C1404 C1403 1.434 . S
C1405 C1406 1.369 . S
C1405 C1407 1.419 . S
C1405 H1409 0.930 . S
C1406 C1405 1.369 . S
C1406 C1415 1.429 . S
C1407 C1405 1.419 . S
C1407 C1408 1.363 . S
C1407 H1410 0.929 . S
C1408 C1407 1.363 . S
C1408 C1414 1.428 . S
H1409 C1405 0.930 . S
H1410 C1407 0.929 . S
S1411 N1412 1.613 . S
S1411 N1413 1.610 . S
N1412 S1411 1.613 . S
N1412 C1415 1.350 . S
N1413 S1411 1.610 . S
N1413 C1414 1.351 . S
C1414 C1408 1.428 . S
C1414 N1413 1.351 . S
C1414 C1415 1.434 . S
C1415 C1406 1.429 . S
C1415 N1412 1.350 . S
C1415 C1414 1.434 . S
C1416 C1417 1.369 . S
C1416 C1418 1.419 . S
C1416 H1420 0.930 . S
C1417 C1416 1.369 . S
C1417 C1426 1.429 . S
C1418 C1416 1.419 . S
C1418 C1419 1.363 . S
C1418 H1421 0.929 . S
C1419 C1418 1.363 . S
C1419 C1425 1.428 . S
H1420 C1416 0.930 . S
H1421 C1418 0.929 . S
S1422 N1423 1.613 . S
S1422 N1424 1.610 . S
N1423 S1422 1.613 . S
N1423 C1426 1.350 . S
N1424 S1422 1.610 . S
N1424 C1425 1.351 . S
C1425 C1419 1.428 . S
C1425 N1424 1.351 . S
C1425 C1426 1.434 . S
C1426 C1417 1.429 . S
C1426 N1423 1.350 . S
C1426 C1425 1.434 . S
C1427 C1428 1.369 . S
C1427 C1429 1.419 . S
C1427 H1431 0.930 . S
C1428 C1427 1.369 . S
C1428 C1437 1.429 . S
C1429 C1427 1.419 . S
C1429 C1430 1.363 . S
C1429 H1432 0.929 . S
C1430 C1429 1.363 . S
C1430 C1436 1.428 . S
H1431 C1427 0.930 . S
H1432 C1429 0.929 . S
S1433 N1434 1.613 . S
S1433 N1435 1.610 . S
N1434 S1433 1.613 . S
N1434 C1437 1.350 . S
N1435 S1433 1.610 . S
N1435 C1436 1.351 . S
C1436 C1430 1.428 . S
C1436 N1435 1.351 . S
C1436 C1437 1.434 . S
C1437 C1428 1.429 . S
C1437 N1434 1.350 . S
C1437 C1436 1.434 . S
C1438 C1439 1.369 . S
C1438 C1440 1.419 . S
C1438 H1442 0.930 . S
C1439 C1438 1.369 . S
C1439 C1448 1.429 . S
C1440 C1438 1.419 . S
C1440 C1441 1.363 . S
C1440 H1443 0.929 . S
C1441 C1440 1.363 . S
C1441 C1447 1.428 . S
H1442 C1438 0.930 . S
H1443 C1440 0.929 . S
S1444 N1445 1.613 . S
S1444 N1446 1.610 . S
N1445 S1444 1.613 . S
N1445 C1448 1.350 . S
N1446 S1444 1.610 . S
N1446 C1447 1.351 . S
C1447 C1441 1.428 . S
C1447 N1446 1.351 . S
C1447 C1448 1.434 . S
C1448 C1439 1.429 . S
C1448 N1445 1.350 . S
C1448 C1447 1.434 . S
C1449 C1450 1.369 . S
C1449 C1451 1.419 . S
C1449 H1453 0.930 . S
C1450 C1449 1.369 . S
C1450 C1459 1.429 . S
C1451 C1449 1.419 . S
C1451 C1452 1.363 . S
C1451 H1454 0.929 . S
C1452 C1451 1.363 . S
C1452 C1458 1.428 . S
H1453 C1449 0.930 . S
H1454 C1451 0.929 . S
S1455 N1456 1.613 . S
S1455 N1457 1.610 . S
N1456 S1455 1.613 . S
N1456 C1459 1.350 . S
N1457 S1455 1.610 . S
N1457 C1458 1.351 . S
C1458 C1452 1.428 . S
C1458 N1457 1.351 . S
C1458 C1459 1.434 . S
C1459 C1450 1.429 . S
C1459 N1456 1.350 . S
C1459 C1458 1.434 . S
C1460 C1461 1.369 . S
C1460 C1462 1.419 . S
C1460 H1464 0.930 . S
C1461 C1460 1.369 . S
C1461 C1470 1.429 . S
C1462 C1460 1.419 . S
C1462 C1463 1.363 . S
C1462 H1465 0.929 . S
C1463 C1462 1.363 . S
C1463 C1469 1.428 . S
H1464 C1460 0.930 . S
H1465 C1462 0.929 . S
S1466 N1467 1.613 . S
S1466 N1468 1.610 . S
N1467 S1466 1.613 . S
N1467 C1470 1.350 . S
N1468 S1466 1.610 . S
N1468 C1469 1.351 . S
C1469 C1463 1.428 . S
C1469 N1468 1.351 . S
C1469 C1470 1.434 . S
C1470 C1461 1.429 . S
C1470 N1467 1.350 . S
C1470 C1469 1.434 . S
C1471 C1472 1.369 . S
C1471 C1473 1.419 . S
C1471 H1475 0.930 . S
C1472 C1471 1.369 . S
C1472 C1481 1.429 . S
C1473 C1471 1.419 . S
C1473 C1474 1.363 . S
C1473 H1476 0.929 . S
C1474 C1473 1.363 . S
C1474 C1480 1.428 . S
H1475 C1471 0.930 . S
H1476 C1473 0.929 . S
S1477 N1478 1.613 . S
S1477 N1479 1.610 . S
N1478 S1477 1.613 . S
N1478 C1481 1.350 . S
N1479 S1477 1.610 . S
N1479 C1480 1.351 . S
C1480 C1474 1.428 . S
C1480 N1479 1.351 . S
C1480 C1481 1.434 . S
C1481 C1472 1.429 . S
C1481 N1478 1.350 . S
C1481 C1480 1.434 . S
C1482 C1483 1.369 . S
C1482 C1484 1.419 . S
C1482 H1486 0.930 . S
C1483 C1482 1.369 . S
C1483 C1492 1.429 . S
C1484 C1482 1.419 . S
C1484 C1485 1.363 . S
C1484 H1487 0.929 . S
C1485 C1484 1.363 . S
C1485 C1491 1.428 . S
H1486 C1482 0.930 . S
H1487 C1484 0.929 . S
S1488 N1489 1.613 . S
S1488 N1490 1.610 . S
N1489 S1488 1.613 . S
N1489 C1492 1.350 . S
N1490 S1488 1.610 . S
N1490 C1491 1.351 . S
C1491 C1485 1.428 . S
C1491 N1490 1.351 . S
C1491 C1492 1.434 . S
C1492 C1483 1.429 . S
C1492 N1489 1.350 . S
C1492 C1491 1.434 . S
C1493 C1494 1.369 . S
C1493 C1495 1.419 . S
C1493 H1497 0.930 . S
C1494 C1493 1.369 . S
C1494 C1503 1.429 . S
C1495 C1493 1.419 . S
C1495 C1496 1.363 . S
C1495 H1498 0.929 . S
C1496 C1495 1.363 . S
C1496 C1502 1.428 . S
H1497 C1493 0.930 . S
H1498 C1495 0.929 . S
S1499 N1500 1.613 . S
S1499 N1501 1.610 . S
N1500 S1499 1.613 . S
N1500 C1503 1.350 . S
N1501 S1499 1.610 . S
N1501 C1502 1.351 . S
C1502 C1496 1.428 . S
C1502 N1501 1.351 . S
C1502 C1503 1.434 . S
C1503 C1494 1.429 . S
C1503 N1500 1.350 . S
C1503 C1502 1.434 . S
C1504 C1505 1.369 . S
C1504 C1506 1.419 . S
C1504 H1508 0.930 . S
C1505 C1504 1.369 . S
C1505 C1514 1.429 . S
C1506 C1504 1.419 . S
C1506 C1507 1.363 . S
C1506 H1509 0.929 . S
C1507 C1506 1.363 . S
C1507 C1513 1.428 . S
H1508 C1504 0.930 . S
H1509 C1506 0.929 . S
S1510 N1511 1.613 . S
S1510 N1512 1.610 . S
N1511 S1510 1.613 . S
N1511 C1514 1.350 . S
N1512 S1510 1.610 . S
N1512 C1513 1.351 . S
C1513 C1507 1.428 . S
C1513 N1512 1.351 . S
C1513 C1514 1.434 . S
C1514 C1505 1.429 . S
C1514 N1511 1.350 . S
C1514 C1513 1.434 . S
C1515 C1516 1.369 . S
C1515 C1517 1.419 . S
C1515 H1519 0.930 . S
C1516 C1515 1.369 . S
C1516 C1525 1.429 . S
C1517 C1515 1.419 . S
C1517 C1518 1.363 . S
C1517 H1520 0.929 . S
C1518 C1517 1.363 . S
C1518 C1524 1.428 . S
H1519 C1515 0.930 . S
H1520 C1517 0.929 . S
S1521 N1522 1.613 . S
S1521 N1523 1.610 . S
N1522 S1521 1.613 . S
N1522 C1525 1.350 . S
N1523 S1521 1.610 . S
N1523 C1524 1.351 . S
C1524 C1518 1.428 . S
C1524 N1523 1.351 . S
C1524 C1525 1.434 . S
C1525 C1516 1.429 . S
C1525 N1522 1.350 . S
C1525 C1524 1.434 . S
C1526 C1527 1.369 . S
C1526 C1528 1.419 . S
C1526 H1530 0.930 . S
C1527 C1526 1.369 . S
C1527 C1536 1.429 . S
C1528 C1526 1.419 . S
C1528 C1529 1.363 . S
C1528 H1531 0.929 . S
C1529 C1528 1.363 . S
C1529 C1535 1.428 . S
H1530 C1526 0.930 . S
H1531 C1528 0.929 . S
S1532 N1533 1.613 . S
S1532 N1534 1.610 . S
N1533 S1532 1.613 . S
N1533 C1536 1.350 . S
N1534 S1532 1.610 . S
N1534 C1535 1.351 . S
C1535 C1529 1.428 . S
C1535 N1534 1.351 . S
C1535 C1536 1.434 . S
C1536 C1527 1.429 . S
C1536 N1533 1.350 . S
C1536 C1535 1.434 . S
C1537 C1538 1.369 . S
C1537 C1539 1.419 . S
C1537 H1541 0.930 . S
C1538 C1537 1.369 . S
C1538 C1547 1.429 . S
C1539 C1537 1.419 . S
C1539 C1540 1.363 . S
C1539 H1542 0.929 . S
C1540 C1539 1.363 . S
C1540 C1546 1.428 . S
H1541 C1537 0.930 . S
H1542 C1539 0.929 . S
S1543 N1544 1.613 . S
S1543 N1545 1.610 . S
N1544 S1543 1.613 . S
N1544 C1547 1.350 . S
N1545 S1543 1.610 . S
N1545 C1546 1.351 . S
C1546 C1540 1.428 . S
C1546 N1545 1.351 . S
C1546 C1547 1.434 . S
C1547 C1538 1.429 . S
C1547 N1544 1.350 . S
C1547 C1546 1.434 . S
C955 C147 1.473 . S
C957 C265 1.414 . S
C966 C158 1.496 . S
C968 C349 1.441 . S
C977 C136 1.467 . S
C979 C429 1.467 . S
C988 C125 1.459 . S
C990 C345 1.460 . S
C1001 C433 1.402 . S
C999 C103 1.464 . S
C1010 C114 1.435 . S
C1012 C261 1.435 . S
C1023 C254 1.462 . S
C1021 C131 1.516 . S
C1034 C338 1.477 . S
C1032 C109 1.531 . S
C1043 C120 1.524 . S
C1045 C440 1.483 . S
C1054 C153 1.507 . S
C1056 C356 1.459 . S
C1065 C164 1.495 . S
C1067 C422 1.437 . S
C1078 C272 1.437 . S
C1076 C142 1.489 . S
C1089 C517 1.412 . S
C1087 C15 1.472 . S
C1098 C26 1.497 . S
C1100 C601 1.442 . S
C1109 C4 1.470 . S
C1111 C681 1.469 . S
C1120 C191 1.456 . S
C1122 C597 1.460 . S
C1131 C169 1.462 . S
C1133 C685 1.401 . S
C1142 C180 1.437 . S
C1144 C513 1.433 . S
C1153 C197 1.512 . S
C1155 C506 1.458 . S
C1164 C175 1.532 . S
C1166 C590 1.477 . S
C1177 C692 1.481 . S
C1175 C186 1.530 . S
C1186 C21 1.502 1_565 S
C1188 C608 1.459 . S
C1199 C674 1.437 . S
C1197 C32 1.493 1_455 S
C1208 C10 1.490 . S
C1210 C524 1.437 . S
C1221 C769 1.420 . S
C1219 C81 1.474 . S
C1230 C92 1.499 . S
C1232 C853 1.448 . S
C1243 C933 1.469 . S
C1241 C70 1.470 . S
C1254 C849 1.461 . S
C1252 C59 1.460 . S
C1265 C937 1.400 . S
C1263 C37 1.463 . S
C1274 C48 1.438 . S
C1276 C765 1.434 . S
C1285 C65 1.515 1_655 S
C1287 C758 1.456 . S
C1296 C43 1.535 . S
C1298 C842 1.485 . S
C1309 C944 1.485 . S
C1307 C54 1.527 1_545 S
C1318 C87 1.506 . S
C1320 C860 1.462 . S
C1329 C98 1.490 . S
C1331 C926 1.431 . S
C1340 C76 1.485 . S
C1342 C776 1.445 . S
C1351 C170 1.569 . S
C1353 C268 1.461 . S
C1364 C352 1.477 . S
C1362 C181 1.615 . S
C1373 C192 1.570 . S
C1375 C424 1.381 . S
C1384 C71 1.577 . S
C1386 C340 1.381 . S
C1395 C82 1.576 . S
C1397 C436 1.453 . S
C1408 C256 1.365 . S
C1406 C93 1.537 . S
C1417 C38 1.569 . S
C1419 C520 1.461 . S
C1428 C49 1.611 . S
C1430 C604 1.469 . S
C1439 C60 1.568 . S
C1441 C676 1.386 . S
C1450 C137 1.582 . S
C1452 C592 1.376 . S
C1463 C688 1.452 . S
C1461 C148 1.576 . S
C1472 C159 1.540 . S
C1474 C508 1.369 . S
C1483 C104 1.571 . S
C1485 C772 1.463 . S
C1494 C115 1.609 . S
C1496 C856 1.475 . S
C1507 C928 1.379 . S
C1505 C126 1.565 . S
C1516 C5 1.582 . S
C1518 C844 1.376 . S
C1527 C16 1.581 . S
C1529 C940 1.455 . S
C1538 C27 1.539 . S
C1540 C760 1.366 . S
