# Generated by pormake.
# Topology rtl, (3,6)-cn, num edge types: 1
# Building blocks:
#     Node 0, Type 0, BuildingBlock: BELTOD_clean_linker_0, # of connection points: 3
#     Node 1, Type 0, BuildingBlock: BELTOD_clean_linker_0, # of connection points: 3
#     Node 2, Type 0, BuildingBlock: BELTOD_clean_linker_0, # of connection points: 3
#     Node 3, Type 0, BuildingBlock: BELTOD_clean_linker_0, # of connection points: 3
#     Node 4, Type 1, BuildingBlock: LEVNOQ01_clean_sbu_1, # of connection points: 6
#     Node 5, Type 1, BuildingBlock: LEVNOQ01_clean_sbu_1, # of connection points: 6
#     Edge 6, Type (0, 1), BuildingBlock: OJICUG_clean_linker_0, # of connection points: 2
#     Edge 7, Type (0, 1), BuildingBlock: OJICUG_clean_linker_0, # of connection points: 2
#     Edge 8, Type (0, 1), BuildingBlock: OJICUG_clean_linker_0, # of connection points: 2
#     Edge 9, Type (0, 1), BuildingBlock: OJICUG_clean_linker_0, # of connection points: 2
#     Edge 10, Type (0, 1), BuildingBlock: OJICUG_clean_linker_0, # of connection points: 2
#     Edge 11, Type (0, 1), BuildingBlock: OJICUG_clean_linker_0, # of connection points: 2
#     Edge 12, Type (0, 1), BuildingBlock: OJICUG_clean_linker_0, # of connection points: 2
#     Edge 13, Type (0, 1), BuildingBlock: OJICUG_clean_linker_0, # of connection points: 2
#     Edge 14, Type (0, 1), BuildingBlock: OJICUG_clean_linker_0, # of connection points: 2
#     Edge 15, Type (0, 1), BuildingBlock: OJICUG_clean_linker_0, # of connection points: 2
#     Edge 16, Type (0, 1), BuildingBlock: OJICUG_clean_linker_0, # of connection points: 2
#     Edge 17, Type (0, 1), BuildingBlock: OJICUG_clean_linker_0, # of connection points: 2
# Relax obj value: 0.023
# Max RMSD: 0.060
# Mean RMSD: 0.042
data_MOF--net-rtl--node1-LEVNOQ01_clean_sbu_1--node2-BELTOD_clean_linker_0--edge1-OJICUG_clean_linker_0
_symmetry_space_group_name_H-M    P1
_symmetry_Int_Tables_number       1
_symmetry_cell_setting            triclinic
loop_
_symmetry_equiv_pos_as_xyz
'x, y, z'
_cell_length_a     27.193292
_cell_length_b     30.812184
_cell_length_c     20.657284
_cell_angle_alpha  89.404679
_cell_angle_beta   99.844926
_cell_angle_gamma 89.64136
loop_
_atom_site_label
_atom_site_type_symbol
_atom_site_fract_x
_atom_site_fract_y
_atom_site_fract_z
_atom_type_partial_charge
P0 P 0.23526 0.85687 0.08506 0.0
H1 H 0.23431 0.83228 0.22271 0.0
H2 H 0.1787 0.85203 0.29931 0.0
H3 H 0.08946 0.9295 0.14667 0.0
H4 H 0.1445 0.90904 0.0704 0.0
H5 H 0.34127 0.83816 0.09597 0.0
H6 H 0.39004 0.77177 0.1147 0.0
H7 H 0.25765 0.70115 0.14079 0.0
H8 H 0.20846 0.76841 0.11954 0.0
H9 H 0.26065 0.88655 0.96076 0.0
H10 H 0.13991 0.81772 0.02523 0.0
O11 O 0.27386 0.89907 0.08999 0.0
H12 H 0.21461 0.88868 0.84896 0.0
H13 H 0.09327 0.81919 0.91236 0.0
C14 C 0.19234 0.86781 0.14014 0.0
C15 C 0.20215 0.85273 0.20539 0.0
C16 C 0.17071 0.86449 0.24937 0.0
C17 C 0.12936 0.89196 0.22886 0.0
C18 C 0.12024 0.90744 0.16359 0.0
C19 C 0.15167 0.89571 0.11986 0.0
C20 C 0.27138 0.80823 0.10689 0.0
C21 C 0.32279 0.80861 0.10687 0.0
C22 C 0.35085 0.77046 0.11846 0.0
C23 C 0.32805 0.7309 0.13018 0.0
C24 C 0.27647 0.73093 0.13188 0.0
C25 C 0.24831 0.7693 0.11986 0.0
C26 C 0.20312 0.85305 1.00148 0.0
C27 C 0.22435 0.87142 0.95062 0.0
C28 C 0.19807 0.87215 0.88637 0.0
C29 C 0.15001 0.85418 0.87145 0.0
C30 C 0.12989 0.83376 0.92223 0.0
C31 C 0.15649 0.83287 0.98669 0.0
P32 P 0.7953 0.6051 0.62254 0.0
H33 H 0.81331 0.55781 0.50666 0.0
H34 H 0.75809 0.53251 0.40841 0.0
H35 H 0.6316 0.58922 0.47791 0.0
H36 H 0.68678 0.61308 0.57785 0.0
H37 H 0.88751 0.65585 0.6362 0.0
H38 H 0.90358 0.73261 0.61989 0.0
H39 H 0.74458 0.75806 0.58185 0.0
H40 H 0.72906 0.68109 0.59401 0.0
H41 H 0.78889 0.52362 0.69351 0.0
H42 H 0.74395 0.65686 0.711 0.0
O43 O 0.84945 0.5783 0.62831 0.0
H44 H 0.75313 0.50422 0.79091 0.0
H45 H 0.70661 0.63773 0.80542 0.0
C46 C 0.75418 0.58712 0.54988 0.0
C47 C 0.77372 0.5647 0.50114 0.0
C48 C 0.7422 0.55038 0.44488 0.0
C49 C 0.69069 0.55909 0.43561 0.0
C50 C 0.67126 0.58248 0.48368 0.0
C51 C 0.70274 0.59602 0.54073 0.0
C52 C 0.80703 0.66247 0.61549 0.0
C53 C 0.85609 0.67795 0.62427 0.0
C54 C 0.86526 0.72213 0.61574 0.0
C55 C 0.82544 0.75184 0.59906 0.0
C56 C 0.7763 0.73622 0.59309 0.0
C57 C 0.76727 0.69202 0.60034 0.0
C58 C 0.76952 0.59174 0.69504 0.0
C59 C 0.77147 0.54873 0.71835 0.0
C60 C 0.75083 0.53764 0.7739 0.0
C61 C 0.72742 0.56943 0.80679 0.0
C62 C 0.72552 0.61249 0.7828 0.0
C63 C 0.74643 0.6235 0.72776 0.0
P64 P 0.88058 0.25436 0.01361 0.0
H65 H 0.89659 0.2576 0.87815 0.0
H66 H 0.9044 0.20142 0.79753 0.0
H67 H 0.8792 0.10271 0.93795 0.0
H68 H 0.87082 0.15897 0.01802 0.0
H69 H 0.84933 0.33843 0.05524 0.0
H70 H 0.76876 0.37575 0.0391 0.0
H71 H 0.70624 0.27567 0.905 0.0
H72 H 0.78634 0.23766 0.92385 0.0
H73 H 0.9611 0.21031 0.10106 0.0
H74 H 0.80808 0.24628 0.10449 0.0
O75 O 0.92884 0.28757 0.014 0.0
H76 H 0.96532 0.17246 0.20629 0.0
H77 H 0.81261 0.21052 0.21099 0.0
C78 C 0.88439 0.21245 0.95449 0.0
C79 C 0.89258 0.22387 0.89143 0.0
C80 C 0.89652 0.19178 0.84526 0.0
C81 C 0.89252 0.14767 0.86157 0.0
C82 C 0.88291 0.13642 0.9243 0.0
C83 C 0.87838 0.1686 0.9702 0.0
C84 C 0.82387 0.28539 0.9908 0.0
C85 C 0.81851 0.32508 0.02128 0.0
C86 C 0.77241 0.34659 0.01143 0.0
C87 C 0.73079 0.32871 0.97075 0.0
C88 C 0.73729 0.29012 0.93721 0.0
C89 C 0.78327 0.26841 0.94773 0.0
C90 C 0.88445 0.23124 0.09495 0.0
C91 C 0.92876 0.21087 0.12524 0.0
C92 C 0.93118 0.18951 0.18579 0.0
C93 C 0.88928 0.18832 0.21752 0.0
C94 C 0.84541 0.21014 0.18776 0.0
C95 C 0.84288 0.23102 0.12683 0.0
P96 P 0.28231 0.33232 0.47919 0.0
H97 H 0.35357 0.30847 0.59657 0.0
H98 H 0.38452 0.34666 0.69798 0.0
H99 H 0.27908 0.45091 0.63683 0.0
H100 H 0.24918 0.41272 0.53434 0.0
H101 H 0.24841 0.25661 0.40158 0.0
H102 H 0.18904 0.19959 0.41624 0.0
H103 H 0.14129 0.27331 0.57144 0.0
H104 H 0.20104 0.33002 0.5569 0.0
H105 H 0.33555 0.41104 0.459 0.0
H106 H 0.21372 0.33818 0.35209 0.0
O107 O 0.33029 0.30103 0.46755 0.0
H108 H 0.34306 0.4515 0.36017 0.0
H109 H 0.22032 0.37939 0.25225 0.0
C110 C 0.3 0.35833 0.55734 0.0
C111 C 0.33692 0.33945 0.60511 0.0
C112 C 0.3543 0.36119 0.66346 0.0
C113 C 0.3347 0.40213 0.67537 0.0
C114 C 0.29572 0.41986 0.62865 0.0
C115 C 0.27843 0.39804 0.5702 0.0
C116 C 0.22992 0.29696 0.47922 0.0
C117 C 0.22431 0.26094 0.43773 0.0
C118 C 0.1901 0.2285 0.4458 0.0
C119 C 0.16109 0.23167 0.49569 0.0
C120 C 0.16379 0.2697 0.53329 0.0
C121 C 0.19793 0.30217 0.52502 0.0
C122 C 0.27405 0.37161 0.41314 0.0
C123 C 0.30876 0.40514 0.41486 0.0
C124 C 0.31283 0.42855 0.35793 0.0
C125 C 0.28264 0.41847 0.29769 0.0
C126 C 0.2446 0.38762 0.29758 0.0
C127 C 0.24066 0.36408 0.3548 0.0
O128 O 0.00207 0.01897 0.69311 0.0
Mg129 Mg 0.04714 0.00968 0.61852 0.0
O130 O 0.93844 0.03256 0.61494 0.0
Mg131 Mg 0.97602 -0.00312 0.53864 0.0
O132 O 0.03877 0.05294 0.54294 0.0
O133 O 0.09778 0.05721 0.63307 0.0
O134 O 0.0156 0.96206 0.46257 0.0
O135 O 0.94331 0.0511 0.45989 0.0
Mg136 Mg 0.90186 0.97581 0.44207 0.0
O137 O 0.91158 0.94367 0.53099 0.0
O138 O 0.95284 0.95744 0.38008 0.0
O139 O 0.86527 0.03584 0.42514 0.0
O140 O 0.85116 0.92934 0.44541 0.0
C141 C 0.05351 0.92771 0.63046 0.0
C142 C 0.95798 0.03334 0.67545 0.0
C143 C 0.07661 0.07279 0.57707 0.0
C144 C -0.00124 0.9521 0.4032 0.0
C145 C 0.90069 0.0622 0.42782 0.0
C146 C 0.87321 0.9208 0.50454 0.0
O147 O 0.08584 0.95082 0.61032 0.0
O148 O 0.00858 0.94163 0.6192 0.0
O149 O 0.55094 0.44837 0.21205 0.0
Mg150 Mg 0.51038 0.41126 0.13438 0.0
O151 O 0.54839 0.51086 0.15665 0.0
Mg152 Mg 0.50099 0.49647 0.0532 0.0
O153 O 0.53593 0.4278 0.05112 0.0
O154 O 0.54611 0.3616 0.09647 0.0
O155 O 0.45344 0.4796 0.95158 0.0
O156 O 0.57081 0.51517 1.0041 0.0
Mg157 Mg 0.48618 0.57604 0.96534 0.0
O158 O 0.46578 0.56566 0.05507 0.0
O159 O 0.44397 0.53904 0.88979 0.0
O160 O 0.56263 0.58269 0.96731 0.0
O161 O 0.45232 0.62808 0.99745 0.0
C162 C 0.40942 0.44361 0.11638 0.0
C163 C 0.56254 0.48819 0.20893 0.0
C164 C 0.55458 0.38885 0.05188 0.0
C165 C 0.43601 0.49896 0.89748 0.0
C166 C 0.58862 0.54859 0.97951 0.0
C167 C 0.44824 0.60515 0.04884 0.0
O168 O 0.43266 0.40782 0.12126 0.0
O169 O 0.43067 0.47816 0.10108 0.0
C170 C 0.14162 0.18067 0.58173 0.0
C171 C 0.13452 0.19302 0.5152 0.0
H172 H 0.12922 0.13327 0.65282 0.0
C173 C 0.1062 0.16613 0.46839 0.0
H174 H 0.16394 0.20018 0.61888 0.0
C175 C 0.08603 0.12729 0.48803 0.0
C176 C 0.09478 0.11449 0.55454 0.0
H177 H 0.10021 0.17489 0.41671 0.0
H178 H 0.06494 0.10679 0.45118 0.0
C179 C 0.12222 0.14191 0.60106 0.0
C180 C 0.40859 0.68859 0.15614 0.0
C181 C 0.35705 0.68964 0.13097 0.0
H182 H 0.47921 0.65898 0.15011 0.0
C183 C 0.33573 0.65376 0.09527 0.0
H184 H 0.42605 0.71505 0.18541 0.0
C185 C 0.36618 0.62091 0.07722 0.0
C186 C 0.41821 0.62358 0.09428 0.0
H187 H 0.29631 0.65328 0.07494 0.0
H188 H 0.34949 0.59646 0.04315 0.0
C189 C 0.43905 0.65608 0.1371 0.0
C190 C 0.87714 0.82045 0.61371 0.0
C191 C 0.83484 0.79796 0.58218 0.0
H192 H 0.92244 0.87746 0.61468 0.0
C193 C 0.80286 0.81892 0.53048 0.0
H194 H 0.90219 0.80569 0.65448 0.0
C195 C 0.81391 0.86008 0.5088 0.0
C196 C 0.85763 0.88148 0.53746 0.0
H197 H 0.77039 0.80276 0.50408 0.0
H198 H 0.78911 0.87424 0.46721 0.0
C199 C 0.88847 0.86184 0.5915 0.0
C200 C 0.64099 0.31747 0.97807 0.0
C201 C 0.6799 0.34631 0.97223 0.0
H202 H 0.5697 0.30895 1.0064 0.0
C203 C 0.67156 0.39113 0.97857 0.0
H204 H 0.64591 0.28277 0.97401 0.0
C205 C 0.62749 0.40613 0.99761 0.0
C206 C 0.59127 0.37651 0.01044 0.0
H207 H 0.70041 0.41431 0.97319 0.0
H208 H 0.62405 0.4402 0.00833 0.0
C209 C 0.59719 0.33244 0.99698 0.0
C210 C 0.11578 0.91719 0.33992 0.0
C211 C 0.09609 0.90521 0.27519 0.0
H212 H 0.10053 0.94156 0.43134 0.0
C213 C 0.04423 0.9073 0.25406 0.0
H214 H 0.15566 0.9163 0.35745 0.0
C215 C 0.01281 0.92199 0.29601 0.0
C216 C 0.03244 0.93487 0.36028 0.0
H217 H 0.02783 0.8976 0.20487 0.0
H218 H 0.97305 0.9235 0.2777 0.0
C219 C 0.08424 0.93189 0.3821 0.0
C220 C 0.70007 0.58778 0.91354 0.0
C221 C 0.70176 0.55792 0.86285 0.0
H222 H 0.6627 0.60773 0.99163 0.0
C223 C 0.67364 0.51961 0.8621 0.0
H224 H 0.72238 0.61692 0.91706 0.0
C225 C 0.64067 0.5137 0.90659 0.0
C226 C 0.63498 0.54617 0.95194 0.0
H227 H 0.67383 0.49589 0.82385 0.0
H228 H 0.61604 0.486 0.90088 0.0
C229 C 0.66654 0.58224 0.95704 0.0
C230 C 0.93389 0.15686 0.32538 0.0
C231 C 0.89013 0.16136 0.27816 0.0
H232 H 0.97141 0.12251 0.41063 0.0
C233 C 0.84805 0.13701 0.2866 0.0
H234 H 0.9667 0.17575 0.32141 0.0
C235 C 0.85052 0.10711 0.33832 0.0
C236 C 0.89529 0.10036 0.38268 0.0
H237 H 0.81381 0.1391 0.25115 0.0
H238 H 0.818 0.08753 0.34116 0.0
C239 C 0.93647 0.12662 0.377 0.0
C240 C 0.36538 0.47206 0.72831 0.0
C241 C 0.35717 0.4273 0.73405 0.0
H242 H 0.3965 0.5296 0.77492 0.0
C243 C 0.37328 0.40658 0.79511 0.0
H244 H 0.35421 0.48898 0.68186 0.0
C245 C 0.39812 0.42987 0.8486 0.0
C246 C 0.40737 0.47443 0.84224 0.0
H247 H 0.367 0.37225 0.80148 0.0
H248 H 0.41062 0.4128 0.89463 0.0
C249 C 0.39008 0.49532 0.78169 0.0
C250 C 0.62509 0.56911 0.33442 0.0
C251 C 0.6573 0.54173 0.37747 0.0
H252 H 0.57032 0.57384 0.24612 0.0
C253 C 0.65793 0.49714 0.36467 0.0
H254 H 0.62411 0.60367 0.34328 0.0
C255 C 0.62678 0.48008 0.3103 0.0
C256 C 0.5949 0.5073 0.26654 0.0
H257 H 0.68225 0.47534 0.39726 0.0
H258 H 0.62818 0.44545 0.3021 0.0
C259 C 0.59458 0.55211 0.27886 0.0
C260 C 0.88188 0.11717 0.74775 0.0
C261 C 0.90226 0.1137 0.81491 0.0
H262 H 0.88257 0.09351 0.65075 0.0
C263 C 0.93586 0.07965 0.83644 0.0
H264 H 0.85546 0.14285 0.72996 0.0
C265 C 0.95153 0.05158 0.79123 0.0
C266 C 0.93351 0.05669 0.72362 0.0
H267 H 0.95235 0.07626 0.88784 0.0
H268 H 0.97953 0.02711 0.80899 0.0
C269 C 0.89707 0.0887 0.70253 0.0
C270 C 0.30195 0.4012 0.18698 0.0
C271 C 0.29879 0.43239 0.23536 0.0
H272 H 0.33936 0.38106 0.10935 0.0
C273 C 0.32182 0.47285 0.23029 0.0
H274 H 0.28481 0.36969 0.18885 0.0
C275 C 0.35349 0.47929 0.18426 0.0
C276 C 0.36247 0.44527 0.14301 0.0
H277 H 0.31915 0.49798 0.26583 0.0
H278 H 0.37506 0.50884 0.18622 0.0
C279 C 0.33356 0.40759 0.14134 0.0
C280 C 0.06969 0.87458 0.79718 0.0
C281 C 0.11989 0.86094 0.80468 0.0
H282 H 0.00827 0.90558 0.73446 0.0
C283 C 0.14304 0.86013 0.7488 0.0
H284 H 0.05064 0.87564 0.83908 0.0
C285 C 0.11886 0.8776 0.68902 0.0
C286 C 0.07082 0.89583 0.68364 0.0
H287 H 0.18116 0.8487 0.75237 0.0
H288 H 0.13928 0.87995 0.64846 0.0
C289 C 0.04526 0.89169 0.73701 0.0
loop_
_geom_bond_atom_site_label_1
_geom_bond_atom_site_label_2
_geom_bond_distance
_geom_bond_site_symmetry_2
_ccdc_geom_bond_type
P0 O11 1.490 . S
P0 C14 1.812 . S
P0 C20 1.803 . S
P0 C26 1.819 . S
H1 C15 0.941 . S
H2 C16 0.939 . S
H3 C18 0.940 . S
H4 C19 0.940 . S
H5 C21 0.939 . S
H6 C22 0.942 . S
H7 C24 0.940 . S
H8 C25 0.939 . S
H9 C27 0.924 1_545 S
H10 C31 0.939 . S
O11 P0 1.490 . S
H12 C28 0.939 1_545 S
H13 C30 0.940 . S
C14 P0 1.812 . S
C14 C15 1.389 . S
C14 C19 1.391 . S
C15 H1 0.941 . S
C15 C14 1.389 . S
C15 C16 1.397 . S
C16 H2 0.939 . S
C16 C15 1.397 . S
C16 C17 1.378 . S
C17 C16 1.378 . S
C17 C18 1.378 . S
C18 H3 0.940 . S
C18 C17 1.378 . S
C18 C19 1.396 . S
C19 H4 0.940 . S
C19 C14 1.391 . S
C19 C18 1.396 . S
C20 P0 1.803 . S
C20 C21 1.378 . S
C20 C25 1.400 . S
C21 H5 0.939 . S
C21 C20 1.378 . S
C21 C22 1.361 . S
C22 H6 0.942 . S
C22 C21 1.361 . S
C22 C23 1.369 . S
C23 C22 1.369 . S
C23 C24 1.404 . S
C24 H7 0.940 . S
C24 C23 1.404 . S
C24 C25 1.389 . S
C25 H8 0.939 . S
C25 C20 1.400 . S
C25 C24 1.389 . S
C26 P0 1.819 . S
C26 C27 1.391 . S
C26 C31 1.391 1_554 S
C27 H9 0.924 1_565 S
C27 C26 1.391 . S
C27 C28 1.396 1_554 S
C28 H12 0.939 1_565 S
C28 C27 1.396 1_556 S
C28 C29 1.397 . S
C29 C28 1.397 . S
C29 C30 1.385 . S
C30 H13 0.940 . S
C30 C29 1.385 . S
C30 C31 1.388 . S
C31 H10 0.939 . S
C31 C26 1.391 1_556 S
C31 C30 1.388 . S
P32 O43 1.490 . S
P32 C46 1.812 . S
P32 C52 1.803 . S
P32 C58 1.819 . S
H33 C47 0.941 . S
H34 C48 0.939 . S
H35 C50 0.940 . S
H36 C51 0.940 . S
H37 C53 0.939 . S
H38 C54 0.942 . S
H39 C56 0.940 . S
H40 C57 0.939 . S
H41 C59 0.941 . S
H42 C63 0.939 . S
O43 P32 1.490 . S
H44 C60 0.939 . S
H45 C62 0.940 . S
C46 P32 1.812 . S
C46 C47 1.389 . S
C46 C51 1.391 . S
C47 H33 0.941 . S
C47 C46 1.389 . S
C47 C48 1.397 . S
C48 H34 0.939 . S
C48 C47 1.397 . S
C48 C49 1.378 . S
C49 C48 1.378 . S
C49 C50 1.378 . S
C50 H35 0.940 . S
C50 C49 1.378 . S
C50 C51 1.396 . S
C51 H36 0.940 . S
C51 C46 1.391 . S
C51 C50 1.396 . S
C52 P32 1.803 . S
C52 C53 1.378 . S
C52 C57 1.400 . S
C53 H37 0.939 . S
C53 C52 1.378 . S
C53 C54 1.361 . S
C54 H38 0.942 . S
C54 C53 1.361 . S
C54 C55 1.369 . S
C55 C54 1.369 . S
C55 C56 1.404 . S
C56 H39 0.940 . S
C56 C55 1.404 . S
C56 C57 1.389 . S
C57 H40 0.939 . S
C57 C52 1.400 . S
C57 C56 1.389 . S
C58 P32 1.819 . S
C58 C59 1.391 . S
C58 C63 1.391 . S
C59 H41 0.941 . S
C59 C58 1.391 . S
C59 C60 1.396 . S
C60 H44 0.939 . S
C60 C59 1.396 . S
C60 C61 1.397 . S
C61 C60 1.397 . S
C61 C62 1.385 . S
C62 H45 0.940 . S
C62 C61 1.385 . S
C62 C63 1.388 . S
C63 H42 0.939 . S
C63 C58 1.391 . S
C63 C62 1.388 . S
P64 O75 1.490 . S
P64 C78 1.812 1_554 S
P64 C84 1.803 1_554 S
P64 C90 1.819 . S
H65 C79 0.941 . S
H66 C80 0.939 . S
H67 C82 0.940 . S
H68 C83 0.940 . S
H69 C85 0.939 . S
H70 C86 0.942 . S
H71 C88 0.940 . S
H72 C89 0.939 . S
H73 C91 0.941 . S
H74 C95 0.939 . S
O75 P64 1.490 . S
H76 C92 0.939 . S
H77 C94 0.940 . S
C78 P64 1.812 1_556 S
C78 C79 1.389 . S
C78 C83 1.391 . S
C79 H65 0.941 . S
C79 C78 1.389 . S
C79 C80 1.397 . S
C80 H66 0.939 . S
C80 C79 1.397 . S
C80 C81 1.378 . S
C81 C80 1.378 . S
C81 C82 1.378 . S
C82 H67 0.940 . S
C82 C81 1.378 . S
C82 C83 1.396 . S
C83 H68 0.940 . S
C83 C78 1.391 . S
C83 C82 1.396 . S
C84 P64 1.803 1_556 S
C84 C85 1.378 1_556 S
C84 C89 1.400 . S
C85 H69 0.939 . S
C85 C84 1.378 1_554 S
C85 C86 1.361 . S
C86 H70 0.942 . S
C86 C85 1.361 . S
C86 C87 1.369 1_554 S
C87 C86 1.369 1_556 S
C87 C88 1.404 . S
C88 H71 0.940 . S
C88 C87 1.404 . S
C88 C89 1.389 . S
C89 H72 0.939 . S
C89 C84 1.400 . S
C89 C88 1.389 . S
C90 P64 1.819 . S
C90 C91 1.391 . S
C90 C95 1.391 . S
C91 H73 0.941 . S
C91 C90 1.391 . S
C91 C92 1.396 . S
C92 H76 0.939 . S
C92 C91 1.396 . S
C92 C93 1.397 . S
C93 C92 1.397 . S
C93 C94 1.385 . S
C94 H77 0.940 . S
C94 C93 1.385 . S
C94 C95 1.388 . S
C95 H74 0.939 . S
C95 C90 1.391 . S
C95 C94 1.388 . S
P96 O107 1.490 . S
P96 C110 1.812 . S
P96 C116 1.803 . S
P96 C122 1.819 . S
H97 C111 0.941 . S
H98 C112 0.939 . S
H99 C114 0.940 . S
H100 C115 0.940 . S
H101 C117 0.939 . S
H102 C118 0.942 . S
H103 C120 0.940 . S
H104 C121 0.939 . S
H105 C123 0.941 . S
H106 C127 0.939 . S
O107 P96 1.490 . S
H108 C124 0.939 . S
H109 C126 0.940 . S
C110 P96 1.812 . S
C110 C111 1.389 . S
C110 C115 1.391 . S
C111 H97 0.941 . S
C111 C110 1.389 . S
C111 C112 1.397 . S
C112 H98 0.939 . S
C112 C111 1.397 . S
C112 C113 1.378 . S
C113 C112 1.378 . S
C113 C114 1.378 . S
C114 H99 0.940 . S
C114 C113 1.378 . S
C114 C115 1.396 . S
C115 H100 0.940 . S
C115 C110 1.391 . S
C115 C114 1.396 . S
C116 P96 1.803 . S
C116 C117 1.378 . S
C116 C121 1.400 . S
C117 H101 0.939 . S
C117 C116 1.378 . S
C117 C118 1.361 . S
C118 H102 0.942 . S
C118 C117 1.361 . S
C118 C119 1.369 . S
C119 C118 1.369 . S
C119 C120 1.404 . S
C120 H103 0.940 . S
C120 C119 1.404 . S
C120 C121 1.389 . S
C121 H104 0.939 . S
C121 C116 1.400 . S
C121 C120 1.389 . S
C122 P96 1.819 . S
C122 C123 1.391 . S
C122 C127 1.391 . S
C123 H105 0.941 . S
C123 C122 1.391 . S
C123 C124 1.396 . S
C124 H108 0.939 . S
C124 C123 1.396 . S
C124 C125 1.397 . S
C125 C124 1.397 . S
C125 C126 1.385 . S
C126 H109 0.940 . S
C126 C125 1.385 . S
C126 C127 1.388 . S
C127 H106 0.939 . S
C127 C122 1.391 . S
C127 C126 1.388 . S
O128 Mg129 1.990 1_655 S
O128 C142 1.253 . S
Mg129 O128 1.990 1_455 S
Mg129 O132 2.180 . S
Mg129 O133 2.117 . S
Mg129 O147 2.030 . S
O130 Mg131 2.072 1_655 S
O130 C142 1.260 . S
Mg131 O130 2.072 1_455 S
Mg131 O132 2.099 . S
Mg131 O134 2.079 1_545 S
Mg131 O135 2.072 1_455 S
Mg131 O137 2.099 1_445 S
Mg131 O148 2.079 1_545 S
O132 Mg129 2.180 . S
O132 Mg131 2.099 . S
O132 C143 1.279 . S
O133 Mg129 2.117 . S
O133 C143 1.250 . S
O134 Mg131 2.079 1_565 S
O134 C144 1.264 . S
O135 Mg131 2.072 1_655 S
O135 C145 1.260 . S
Mg136 O137 2.180 . S
Mg136 O138 2.030 1_655 S
Mg136 O139 1.969 1_565 S
Mg136 O140 2.117 . S
O137 Mg131 2.099 1_665 S
O137 Mg136 2.180 . S
O137 C146 1.279 . S
O138 Mg136 2.030 1_455 S
O138 C144 1.248 . S
O139 Mg136 1.969 1_545 S
O139 C145 1.274 . S
O140 Mg136 2.117 . S
O140 C146 1.250 . S
C141 O147 1.248 1_565 S
C141 O148 1.264 . S
C142 O128 1.253 . S
C142 O130 1.260 . S
C143 O132 1.279 . S
C143 O133 1.250 . S
C144 O134 1.264 . S
C144 O138 1.248 . S
C145 O135 1.260 . S
C145 O139 1.274 . S
C146 O137 1.279 . S
C146 O140 1.250 . S
O147 Mg129 2.030 . S
O147 C141 1.248 1_545 S
O148 Mg131 2.079 1_565 S
O148 C141 1.264 . S
O149 Mg150 1.990 . S
O149 C163 1.253 . S
Mg150 O149 1.990 . S
Mg150 O153 2.180 . S
Mg150 O154 2.117 . S
Mg150 O168 2.030 . S
O151 Mg152 2.072 . S
O151 C163 1.260 . S
Mg152 O151 2.072 . S
Mg152 O153 2.099 . S
Mg152 O155 2.079 1_554 S
Mg152 O156 2.072 1_554 S
Mg152 O158 2.099 . S
Mg152 O169 2.079 . S
O153 Mg150 2.180 . S
O153 Mg152 2.099 . S
O153 C164 1.279 . S
O154 Mg150 2.117 . S
O154 C164 1.250 . S
O155 Mg152 2.079 1_556 S
O155 C165 1.264 . S
O156 Mg152 2.072 1_556 S
O156 C166 1.260 . S
Mg157 O158 2.180 1_556 S
Mg157 O159 2.030 . S
Mg157 O160 1.990 . S
Mg157 O161 2.117 . S
O158 Mg152 2.099 . S
O158 Mg157 2.180 1_554 S
O158 C167 1.279 . S
O159 Mg157 2.030 . S
O159 C165 1.248 . S
O160 Mg157 1.990 . S
O160 C166 1.253 . S
O161 Mg157 2.117 . S
O161 C167 1.250 1_556 S
C162 O168 1.248 . S
C162 O169 1.264 . S
C163 O149 1.253 . S
C163 O151 1.260 . S
C164 O153 1.279 . S
C164 O154 1.250 . S
C165 O155 1.264 . S
C165 O159 1.248 . S
C166 O156 1.260 . S
C166 O160 1.253 . S
C167 O158 1.279 . S
C167 O161 1.250 1_554 S
O168 Mg150 2.030 . S
O168 C162 1.248 . S
O169 Mg152 2.079 . S
O169 C162 1.264 . S
C170 C171 1.387 . S
C170 H174 0.950 . S
C170 C179 1.390 . S
C171 C170 1.387 . S
C171 C173 1.387 . S
H172 C179 0.950 . S
C173 C171 1.387 . S
C173 C175 1.390 . S
C173 H177 0.950 . S
H174 C170 0.950 . S
C175 C173 1.390 . S
C175 C176 1.387 . S
C175 H178 0.950 . S
C176 C175 1.387 . S
C176 C179 1.387 . S
H177 C173 0.950 . S
H178 C175 0.950 . S
C179 C170 1.390 . S
C179 H172 0.950 . S
C179 C176 1.387 . S
C180 C181 1.387 . S
C180 H184 0.950 . S
C180 C189 1.390 . S
C181 C180 1.387 . S
C181 C183 1.387 . S
H182 C189 0.950 . S
C183 C181 1.387 . S
C183 C185 1.390 . S
C183 H187 0.950 1_554 S
H184 C180 0.950 . S
C185 C183 1.390 . S
C185 C186 1.387 . S
C185 H188 0.950 1_554 S
C186 C185 1.387 . S
C186 C189 1.387 . S
H187 C183 0.950 1_556 S
H188 C185 0.950 1_556 S
C189 C180 1.390 . S
C189 H182 0.950 . S
C189 C186 1.387 . S
C190 C191 1.387 . S
C190 H194 0.950 . S
C190 C199 1.390 . S
C191 C190 1.387 . S
C191 C193 1.387 . S
H192 C199 0.950 . S
C193 C191 1.387 . S
C193 C195 1.390 . S
C193 H197 0.950 . S
H194 C190 0.950 . S
C195 C193 1.390 . S
C195 C196 1.387 . S
C195 H198 0.950 . S
C196 C195 1.387 . S
C196 C199 1.387 . S
H197 C193 0.950 . S
H198 C195 0.950 . S
C199 C190 1.390 . S
C199 H192 0.950 . S
C199 C196 1.387 . S
C200 C201 1.386 1_554 S
C200 H204 0.950 . S
C200 C209 1.390 . S
C201 C200 1.386 1_556 S
C201 C203 1.389 . S
H202 C209 0.950 . S
C203 C201 1.389 . S
C203 C205 1.390 . S
C203 H207 0.950 . S
H204 C200 0.950 . S
C205 C203 1.390 . S
C205 C206 1.387 1_556 S
C205 H208 0.950 . S
C206 C205 1.387 1_554 S
C206 C209 1.387 . S
H207 C203 0.950 . S
H208 C205 0.950 . S
C209 C200 1.390 . S
C209 H202 0.950 . S
C209 C206 1.387 . S
C210 C211 1.387 . S
C210 H214 0.950 1_565 S
C210 C219 1.390 1_565 S
C211 C210 1.387 . S
C211 C213 1.387 . S
H212 C219 0.950 . S
C213 C211 1.387 . S
C213 C215 1.390 . S
C213 H217 0.950 . S
H214 C210 0.950 1_545 S
C215 C213 1.390 . S
C215 C216 1.387 . S
C215 H218 0.950 . S
C216 C215 1.387 . S
C216 C219 1.387 1_565 S
H217 C213 0.950 . S
H218 C215 0.950 . S
C219 C210 1.390 1_545 S
C219 H212 0.950 . S
C219 C216 1.387 1_545 S
C220 C221 1.387 . S
C220 H224 0.950 . S
C220 C229 1.390 . S
C221 C220 1.387 . S
C221 C223 1.387 . S
H222 C229 0.950 . S
C223 C221 1.387 . S
C223 C225 1.390 . S
C223 H227 0.950 . S
H224 C220 0.950 . S
C225 C223 1.390 . S
C225 C226 1.387 . S
C225 H228 0.950 . S
C226 C225 1.387 . S
C226 C229 1.387 . S
H227 C223 0.950 . S
H228 C225 0.950 . S
C229 C220 1.390 . S
C229 H222 0.950 . S
C229 C226 1.387 . S
C230 C231 1.387 . S
C230 H234 0.950 . S
C230 C239 1.390 . S
C231 C230 1.387 . S
C231 C233 1.387 . S
H232 C239 0.950 . S
C233 C231 1.387 . S
C233 C235 1.390 . S
C233 H237 0.950 . S
H234 C230 0.950 . S
C235 C233 1.390 . S
C235 C236 1.387 . S
C235 H238 0.950 . S
C236 C235 1.387 . S
C236 C239 1.387 . S
H237 C233 0.950 . S
H238 C235 0.950 . S
C239 C230 1.390 . S
C239 H232 0.950 . S
C239 C236 1.387 . S
C240 C241 1.387 . S
C240 H244 0.950 . S
C240 C249 1.390 . S
C241 C240 1.387 . S
C241 C243 1.387 . S
H242 C249 0.950 . S
C243 C241 1.387 . S
C243 C245 1.390 . S
C243 H247 0.950 . S
H244 C240 0.950 . S
C245 C243 1.390 . S
C245 C246 1.387 . S
C245 H248 0.950 . S
C246 C245 1.387 . S
C246 C249 1.387 . S
H247 C243 0.950 . S
H248 C245 0.950 . S
C249 C240 1.390 . S
C249 H242 0.950 . S
C249 C246 1.387 . S
C250 C251 1.387 . S
C250 H254 0.950 . S
C250 C259 1.390 . S
C251 C250 1.387 . S
C251 C253 1.387 . S
H252 C259 0.950 . S
C253 C251 1.387 . S
C253 C255 1.390 . S
C253 H257 0.950 . S
H254 C250 0.950 . S
C255 C253 1.390 . S
C255 C256 1.387 . S
C255 H258 0.950 . S
C256 C255 1.387 . S
C256 C259 1.387 . S
H257 C253 0.950 . S
H258 C255 0.950 . S
C259 C250 1.390 . S
C259 H252 0.950 . S
C259 C256 1.387 . S
C260 C261 1.387 . S
C260 H264 0.950 . S
C260 C269 1.390 . S
C261 C260 1.387 . S
C261 C263 1.387 . S
H262 C269 0.950 . S
C263 C261 1.387 . S
C263 C265 1.390 . S
C263 H267 0.950 . S
H264 C260 0.950 . S
C265 C263 1.390 . S
C265 C266 1.387 . S
C265 H268 0.950 1_545 S
C266 C265 1.387 . S
C266 C269 1.387 . S
H267 C263 0.950 . S
H268 C265 0.950 1_565 S
C269 C260 1.390 . S
C269 H262 0.950 . S
C269 C266 1.387 . S
C270 C271 1.387 . S
C270 H274 0.950 . S
C270 C279 1.390 . S
C271 C270 1.387 . S
C271 C273 1.387 . S
H272 C279 0.950 . S
C273 C271 1.387 . S
C273 C275 1.390 . S
C273 H277 0.950 . S
H274 C270 0.950 . S
C275 C273 1.390 . S
C275 C276 1.387 . S
C275 H278 0.950 . S
C276 C275 1.387 . S
C276 C279 1.387 . S
H277 C273 0.950 . S
H278 C275 0.950 . S
C279 C270 1.390 . S
C279 H272 0.950 . S
C279 C276 1.387 . S
C280 C281 1.387 . S
C280 H284 0.950 . S
C280 C289 1.390 . S
C281 C280 1.387 . S
C281 C283 1.381 1_565 S
H282 C289 0.950 . S
C283 C281 1.381 1_545 S
C283 C285 1.391 . S
C283 H287 0.956 . S
H284 C280 0.950 . S
C285 C283 1.391 . S
C285 C286 1.387 1_545 S
C285 H288 0.950 . S
C286 C285 1.387 1_565 S
C286 C289 1.387 . S
H287 C283 0.956 . S
H288 C285 0.950 . S
C289 C280 1.390 . S
C289 H282 0.950 . S
C289 C286 1.387 . S
C176 C143 1.371 . S
C171 C119 1.428 . S
C181 C23 1.552 . S
C186 C167 1.359 . S
C191 C55 1.651 . S
C196 C146 1.450 . S
C201 C87 1.544 . S
C206 C164 1.440 . S
C216 C144 1.588 . S
C211 C17 1.604 . S
C226 C166 1.563 . S
C221 C61 1.602 . S
C231 C93 1.485 . S
C236 C145 1.494 . S
C241 C113 1.472 . S
C246 C165 1.488 . S
C256 C163 1.494 . S
C251 C49 1.596 . S
C266 C142 1.558 . S
C261 C81 1.528 . S
C276 C162 1.597 . S
C271 C125 1.470 . S
C281 C29 1.602 . S
C286 C141 1.490 . S
