# Generated by pormake.
# Topology nom, (4,4)-cn, num edge types: 1
# Building blocks:
#     Node 0, Type 0, BuildingBlock: NAWXER_clean_linker_0, # of connection points: 4
#     Node 1, Type 0, BuildingBlock: NAWXER_clean_linker_0, # of connection points: 4
#     Node 2, Type 0, BuildingBlock: NAWXER_clean_linker_0, # of connection points: 4
#     Node 3, Type 0, BuildingBlock: NAWXER_clean_linker_0, # of connection points: 4
#     Node 4, Type 0, BuildingBlock: NAWXER_clean_linker_0, # of connection points: 4
#     Node 5, Type 0, BuildingBlock: NAWXER_clean_linker_0, # of connection points: 4
#     Node 6, Type 1, BuildingBlock: KUFVIS_clean_sbu_0, # of connection points: 4
#     Node 7, Type 1, BuildingBlock: KUFVIS_clean_sbu_0, # of connection points: 4
#     Node 8, Type 1, BuildingBlock: KUFVIS_clean_sbu_0, # of connection points: 4
#     Node 9, Type 1, BuildingBlock: KUFVIS_clean_sbu_0, # of connection points: 4
#     Node 10, Type 1, BuildingBlock: KUFVIS_clean_sbu_0, # of connection points: 4
#     Node 11, Type 1, BuildingBlock: KUFVIS_clean_sbu_0, # of connection points: 4
#     Edge 12, Type (0, 1), BuildingBlock: MIFKUJ_clean_linker_0, # of connection points: 2
#     Edge 13, Type (0, 1), BuildingBlock: MIFKUJ_clean_linker_0, # of connection points: 2
#     Edge 14, Type (0, 1), BuildingBlock: MIFKUJ_clean_linker_0, # of connection points: 2
#     Edge 15, Type (0, 1), BuildingBlock: MIFKUJ_clean_linker_0, # of connection points: 2
#     Edge 16, Type (0, 1), BuildingBlock: MIFKUJ_clean_linker_0, # of connection points: 2
#     Edge 17, Type (0, 1), BuildingBlock: MIFKUJ_clean_linker_0, # of connection points: 2
#     Edge 18, Type (0, 1), BuildingBlock: MIFKUJ_clean_linker_0, # of connection points: 2
#     Edge 19, Type (0, 1), BuildingBlock: MIFKUJ_clean_linker_0, # of connection points: 2
#     Edge 20, Type (0, 1), BuildingBlock: MIFKUJ_clean_linker_0, # of connection points: 2
#     Edge 21, Type (0, 1), BuildingBlock: MIFKUJ_clean_linker_0, # of connection points: 2
#     Edge 22, Type (0, 1), BuildingBlock: MIFKUJ_clean_linker_0, # of connection points: 2
#     Edge 23, Type (0, 1), BuildingBlock: MIFKUJ_clean_linker_0, # of connection points: 2
#     Edge 24, Type (0, 1), BuildingBlock: MIFKUJ_clean_linker_0, # of connection points: 2
#     Edge 25, Type (0, 1), BuildingBlock: MIFKUJ_clean_linker_0, # of connection points: 2
#     Edge 26, Type (0, 1), BuildingBlock: MIFKUJ_clean_linker_0, # of connection points: 2
#     Edge 27, Type (0, 1), BuildingBlock: MIFKUJ_clean_linker_0, # of connection points: 2
#     Edge 28, Type (0, 1), BuildingBlock: MIFKUJ_clean_linker_0, # of connection points: 2
#     Edge 29, Type (0, 1), BuildingBlock: MIFKUJ_clean_linker_0, # of connection points: 2
#     Edge 30, Type (0, 1), BuildingBlock: MIFKUJ_clean_linker_0, # of connection points: 2
#     Edge 31, Type (0, 1), BuildingBlock: MIFKUJ_clean_linker_0, # of connection points: 2
#     Edge 32, Type (0, 1), BuildingBlock: MIFKUJ_clean_linker_0, # of connection points: 2
#     Edge 33, Type (0, 1), BuildingBlock: MIFKUJ_clean_linker_0, # of connection points: 2
#     Edge 34, Type (0, 1), BuildingBlock: MIFKUJ_clean_linker_0, # of connection points: 2
#     Edge 35, Type (0, 1), BuildingBlock: MIFKUJ_clean_linker_0, # of connection points: 2
# Relax obj value: 0.005
# Max RMSD: 0.110
# Mean RMSD: 0.070
data_MOF--net-nom--node1-KUFVIS_clean_sbu_0--node2-NAWXER_clean_linker_0--edge1-MIFKUJ_clean_linker_0
_symmetry_space_group_name_H-M    P1
_symmetry_Int_Tables_number       1
_symmetry_cell_setting            triclinic
loop_
_symmetry_equiv_pos_as_xyz
'x, y, z'
_cell_length_a     64.758208
_cell_length_b     65.436757
_cell_length_c     72.190411
_cell_angle_alpha  90.665804
_cell_angle_beta   90.663869
_cell_angle_gamma 119.98944
loop_
_atom_site_label
_atom_site_type_symbol
_atom_site_fract_x
_atom_site_fract_y
_atom_site_fract_z
_atom_type_partial_charge
C0 C 0.91883 0.51655 0.33272 0.0
C1 C 0.90804 0.49523 0.34243 0.0
C2 C 0.94301 0.52776 0.32857 0.0
C3 C 0.95708 0.51811 0.33417 0.0
C4 C 0.92233 0.48572 0.34815 0.0
C5 C 0.94668 0.4972 0.34422 0.0
C6 C 0.9827 0.53014 0.32971 0.0
C7 C 0.94327 0.4951 0.27681 0.0
C8 C 0.94573 0.51055 0.26254 0.0
C9 C 0.95762 0.5035 0.29281 0.0
C10 C 0.97461 0.52757 0.29498 0.0
C11 C 0.96265 0.53467 0.26476 0.0
C12 C 0.97708 0.54306 0.28077 0.0
C13 C 0.99082 0.5363 0.31145 0.0
C14 C 0.09714 0.57803 0.31929 0.0
C15 C 0.10482 0.59774 0.30788 0.0
C16 C 0.07323 0.56479 0.3243 0.0
C17 C 0.05657 0.57115 0.31817 0.0
C18 C 0.08802 0.6039 0.30167 0.0
C19 C 0.06415 0.59066 0.30667 0.0
C20 C 0.03104 0.55704 0.32286 0.0
C21 C 0.07141 0.58826 0.37649 0.0
C22 C 0.06944 0.57133 0.38926 0.0
C23 C 0.0563 0.58157 0.36086 0.0
C24 C 0.03911 0.55777 0.35757 0.0
C25 C 0.05191 0.54757 0.38607 0.0
C26 C 0.03683 0.5409 0.37044 0.0
C27 C 0.02292 0.55035 0.34112 0.0
H28 H 0.90872 0.52487 0.32853 0.0
H29 H 0.95081 0.54417 0.32113 0.0
H30 H 0.9147 0.46924 0.35546 0.0
H31 H 0.95729 0.48952 0.34871 0.0
H32 H 0.93033 0.47645 0.27557 0.0
H33 H 0.95578 0.49104 0.30331 0.0
H34 H 0.9652 0.54695 0.2539 0.0
H35 H 0.99025 0.56165 0.28204 0.0
H36 H 0.10951 0.57254 0.32405 0.0
H37 H 0.0677 0.54939 0.33274 0.0
H38 H 0.09334 0.61912 0.29307 0.0
H39 H 0.0516 0.59581 0.30168 0.0
H40 H 0.08439 0.60676 0.37871 0.0
H41 H 0.05794 0.59503 0.35143 0.0
H42 H 0.05005 0.53403 0.3955 0.0
H43 H 0.02358 0.52247 0.36826 0.0
N44 N 0.99903 0.53715 0.34383 0.0
N45 N 0.01465 0.54973 0.30875 0.0
C46 C 0.42082 0.92994 0.4999 0.0
C47 C 0.43199 0.92047 0.5108 0.0
C48 C 0.43346 0.95343 0.49443 0.0
C49 C 0.45742 0.96796 0.49994 0.0
C50 C 0.45606 0.93491 0.51611 0.0
C51 C 0.46859 0.95858 0.51092 0.0
C52 C 0.47034 0.99319 0.49503 0.0
C53 C 0.46793 0.95477 0.44245 0.0
C54 C 0.4531 0.95547 0.42841 0.0
C55 C 0.47342 0.96904 0.45835 0.0
C56 C 0.46428 0.98437 0.46048 0.0
C57 C 0.44364 0.97053 0.43068 0.0
C58 C 0.44943 0.98508 0.4465 0.0
C59 C 0.47161 1.00078 0.47666 0.0
C60 C 0.53595 0.10617 0.48358 0.0
C61 C 0.52342 0.11384 0.47224 0.0
C62 C 0.52553 0.08249 0.48855 0.0
C63 C 0.50227 0.06603 0.48245 0.0
C64 C 0.50026 0.0972 0.46596 0.0
C65 C 0.48988 0.07355 0.47092 0.0
C66 C 0.49099 0.04084 0.48747 0.0
C67 C 0.50101 0.08177 0.54061 0.0
C68 C 0.51634 0.07995 0.55362 0.0
C69 C 0.49246 0.06666 0.52506 0.0
C70 C 0.49928 0.04962 0.5221 0.0
C71 C 0.52287 0.06265 0.5507 0.0
C72 C 0.51431 0.04757 0.53517 0.0
C73 C 0.49018 0.03325 0.50586 0.0
H74 H 0.40229 0.91914 0.49562 0.0
H75 H 0.42437 0.9604 0.4862 0.0
H76 H 0.46499 0.92804 0.52463 0.0
H77 H 0.48701 0.96955 0.51543 0.0
H78 H 0.4754 0.94327 0.44106 0.0
H79 H 0.48532 0.96853 0.46877 0.0
H80 H 0.43235 0.97154 0.41997 0.0
H81 H 0.44239 0.99695 0.44779 0.0
H82 H 0.55397 0.11838 0.48837 0.0
H83 H 0.53575 0.07701 0.49701 0.0
H84 H 0.48997 0.1025 0.45739 0.0
H85 H 0.47198 0.06114 0.46595 0.0
H86 H 0.49527 0.09458 0.54261 0.0
H87 H 0.48031 0.06813 0.51547 0.0
H88 H 0.53484 0.06092 0.56032 0.0
H89 H 0.51969 0.03445 0.53323 0.0
N90 N 0.47987 0.0097 0.50892 0.0
N91 N 0.48166 0.02428 0.47357 0.0
C92 C 0.53619 0.47672 0.61255 0.0
C93 C 0.5201 0.46447 0.59783 0.0
C94 C 0.52906 0.48478 0.62784 0.0
C95 C 0.50556 0.48047 0.6289 0.0
C96 C 0.49668 0.46046 0.59878 0.0
C97 C 0.48952 0.46846 0.61413 0.0
C98 C 0.49804 0.48952 0.64486 0.0
C99 C 0.51256 0.43472 0.66857 0.0
C100 C 0.53333 0.44425 0.67974 0.0
C101 C 0.50302 0.44878 0.66313 0.0
C102 C 0.514 0.47257 0.66885 0.0
C103 C 0.54433 0.46807 0.68545 0.0
C104 C 0.53456 0.48204 0.68023 0.0
C105 C 0.50358 0.4873 0.66347 0.0
C106 C 0.4482 0.522 0.7068 0.0
C107 C 0.46528 0.5367 0.72022 0.0
C108 C 0.45481 0.51321 0.69165 0.0
C109 C 0.47868 0.5191 0.68953 0.0
C110 C 0.48913 0.54234 0.71817 0.0
C111 C 0.49571 0.53347 0.70303 0.0
C112 C 0.48583 0.50972 0.6736 0.0
C113 C 0.46345 0.55949 0.65092 0.0
C114 C 0.44254 0.5481 0.63983 0.0
C115 C 0.47576 0.54778 0.65578 0.0
C116 C 0.46736 0.52441 0.64973 0.0
C117 C 0.43443 0.52479 0.6336 0.0
C118 C 0.44683 0.51316 0.63837 0.0
C119 C 0.47989 0.51157 0.65504 0.0
H120 H 0.55451 0.48062 0.61206 0.0
H121 H 0.54209 0.49479 0.63866 0.0
H122 H 0.48383 0.45101 0.5877 0.0
H123 H 0.47137 0.46513 0.61454 0.0
H124 H 0.50378 0.41643 0.66394 0.0
H125 H 0.48692 0.441 0.65459 0.0
H126 H 0.56023 0.47576 0.69422 0.0
H127 H 0.54317 0.50031 0.68491 0.0
H128 H 0.42971 0.51742 0.70793 0.0
H129 H 0.44123 0.50169 0.68165 0.0
H130 H 0.50263 0.55331 0.72841 0.0
H131 H 0.51417 0.538 0.70177 0.0
H132 H 0.47048 0.57756 0.65568 0.0
H133 H 0.4919 0.55701 0.66421 0.0
H134 H 0.41823 0.51531 0.62528 0.0
H135 H 0.44006 0.49515 0.63352 0.0
N136 N 0.48618 0.50137 0.64138 0.0
N137 N 0.49749 0.49768 0.67711 0.0
C138 C 0.92057 0.45005 0.81778 0.0
C139 C 0.90911 0.45708 0.80479 0.0
C140 C 0.94442 0.46507 0.82284 0.0
C141 C 0.9573 0.4876 0.8152 0.0
C142 C 0.92205 0.4796 0.79708 0.0
C143 C 0.946 0.49465 0.80213 0.0
C144 C 0.98283 0.50318 0.82016 0.0
C145 C 0.94089 0.49639 0.8708 0.0
C146 C 0.94629 0.48695 0.88625 0.0
C147 C 0.95575 0.50356 0.85547 0.0
C148 C 0.97589 0.5007 0.85505 0.0
C149 C 0.96688 0.48493 0.88614 0.0
C150 C 0.9815 0.49169 0.87068 0.0
C151 C 0.99158 0.50762 0.83868 0.0
C152 C 0.09886 0.56694 0.82965 0.0
C153 C 0.10583 0.55497 0.84207 0.0
C154 C 0.07472 0.55803 0.82512 0.0
C155 C 0.05715 0.53681 0.83273 0.0
C156 C 0.08807 0.53422 0.85014 0.0
C157 C 0.06405 0.52529 0.84554 0.0
C158 C 0.03151 0.52634 0.82775 0.0
C159 C 0.06857 0.52785 0.77474 0.0
C160 C 0.06791 0.54345 0.76177 0.0
C161 C 0.05392 0.52115 0.79019 0.0
C162 C 0.03837 0.52995 0.79303 0.0
C163 C 0.05205 0.55197 0.76462 0.0
C164 C 0.0373 0.54512 0.78 0.0
C165 C 0.02274 0.52297 0.80928 0.0
H166 H 0.91107 0.43289 0.82407 0.0
H167 H 0.95289 0.45897 0.8326 0.0
H168 H 0.9138 0.48539 0.78685 0.0
H169 H 0.9557 0.51182 0.79588 0.0
H170 H 0.92533 0.49851 0.87068 0.0
H171 H 0.95148 0.5114 0.844 0.0
H172 H 0.97141 0.47765 0.89788 0.0
H173 H 0.99704 0.48953 0.87085 0.0
H174 H 0.11205 0.58298 0.8232 0.0
H175 H 0.06985 0.56768 0.81563 0.0
H176 H 0.09272 0.52486 0.86011 0.0
H177 H 0.05084 0.50908 0.85181 0.0
H178 H 0.08016 0.52053 0.77283 0.0
H179 H 0.05464 0.50899 0.79987 0.0
H180 H 0.05124 0.56424 0.75511 0.0
H181 H 0.02531 0.552 0.78191 0.0
N182 N 0.99874 0.51144 0.8062 0.0
N183 N 0.01556 0.51866 0.84169 0.0
C184 C 0.49091 0.93324 0.98268 0.0
C185 C 0.47014 0.92169 0.97154 0.0
C186 C 0.49958 0.95651 0.98875 0.0
C187 C 0.48777 0.96871 0.98363 0.0
C188 C 0.45821 0.93384 0.96653 0.0
C189 C 0.46717 0.95732 0.97232 0.0
C190 C 0.4977 0.9937 0.98932 0.0
C191 C 0.46481 0.95058 0.03954 0.0
C192 C 0.48052 0.95498 0.05464 0.0
C193 C 0.47197 0.96561 0.02442 0.0
C194 C 0.49517 0.98516 0.02385 0.0
C195 C 0.50358 0.97484 0.05419 0.0
C196 C 0.51079 0.98976 0.03899 0.0
C197 C 0.50293 0.00151 0.00801 0.0
C198 C 0.54641 0.10765 0.00199 0.0
C199 C 0.5666 0.11494 0.01358 0.0
C200 C 0.53172 0.08376 0.99719 0.0
C201 C 0.53709 0.06677 0.00379 0.0
C202 C 0.57133 0.09774 0.0207 0.0
C203 C 0.55669 0.07394 0.01591 0.0
C204 C 0.52265 0.04153 0.99821 0.0
C205 C 0.55632 0.08128 0.94629 0.0
C206 C 0.53969 0.07952 0.93273 0.0
C207 C 0.54893 0.06647 0.96154 0.0
C208 C 0.52471 0.0498 0.96368 0.0
C209 C 0.51549 0.06259 0.93481 0.0
C210 C 0.50812 0.04779 0.95008 0.0
C211 C 0.51671 0.03365 0.97955 0.0
H212 H 0.50038 0.9242 0.98675 0.0
H213 H 0.51573 0.96511 0.99723 0.0
H214 H 0.44225 0.92532 0.95784 0.0
H215 H 0.45795 0.96654 0.96808 0.0
H216 H 0.44698 0.93542 0.03931 0.0
H217 H 0.4592 0.96205 0.01329 0.0
H218 H 0.51601 0.9791 0.06571 0.0
H219 H 0.52865 0.0049 0.03906 0.0
H220 H 0.54226 0.12044 0.99629 0.0
H221 H 0.51633 0.0786 0.9882 0.0
H222 H 0.5864 0.10268 0.03001 0.0
H223 H 0.56102 0.06115 0.02137 0.0
H224 H 0.57507 0.09419 0.94517 0.0
H225 H 0.56217 0.06795 0.9716 0.0
H226 H 0.50229 0.0605 0.92447 0.0
H227 H 0.4894 0.0348 0.95132 0.0
N228 N 0.50448 0.01004 0.97584 0.0
N229 N 0.51548 0.02513 0.01169 0.0
C230 C 0.49967 0.5943 0.16494 0.0
C231 C 0.47789 0.58465 0.17429 0.0
C232 C 0.50949 0.5803 0.16007 0.0
C233 C 0.49795 0.55636 0.16459 0.0
C234 C 0.46643 0.56059 0.17886 0.0
C235 C 0.47653 0.54666 0.17424 0.0
C236 C 0.50866 0.54175 0.15955 0.0
C237 C 0.47692 0.55128 0.10716 0.0
C238 C 0.49367 0.5649 0.09378 0.0
C239 C 0.48379 0.54329 0.12262 0.0
C240 C 0.50758 0.54881 0.12512 0.0
C241 C 0.51747 0.57027 0.09628 0.0
C242 C 0.5243 0.56215 0.11173 0.0
C243 C 0.5148 0.53977 0.1412 0.0
C244 C 0.55289 0.47251 0.14728 0.0
C245 C 0.57317 0.48435 0.13625 0.0
C246 C 0.53972 0.48331 0.15224 0.0
C247 C 0.54682 0.50632 0.14652 0.0
C248 C 0.57986 0.50716 0.13021 0.0
C249 C 0.56677 0.51796 0.13523 0.0
C250 C 0.53345 0.51836 0.15176 0.0
C251 C 0.56285 0.50596 0.20457 0.0
C252 C 0.54577 0.49356 0.21804 0.0
C253 C 0.55693 0.51476 0.18907 0.0
C254 C 0.53358 0.51062 0.18642 0.0
C255 C 0.52263 0.48999 0.21566 0.0
C256 C 0.5166 0.4984 0.19999 0.0
C257 C 0.52691 0.51997 0.17017 0.0
H258 H 0.50945 0.61283 0.16162 0.0
H259 H 0.52632 0.58826 0.15297 0.0
H260 H 0.44953 0.55239 0.18584 0.0
H261 H 0.4674 0.52822 0.1779 0.0
H262 H 0.45835 0.54632 0.10549 0.0
H263 H 0.47037 0.5324 0.13245 0.0
H264 H 0.5309 0.5809 0.08638 0.0
H265 H 0.54272 0.5665 0.11332 0.0
H266 H 0.54705 0.45478 0.1519 0.0
H267 H 0.524 0.47369 0.16053 0.0
H268 H 0.59552 0.51688 0.12188 0.0
H269 H 0.5725 0.53565 0.13055 0.0
H270 H 0.58095 0.50936 0.20628 0.0
H271 H 0.57072 0.52502 0.1793 0.0
H272 H 0.50915 0.48052 0.22587 0.0
H273 H 0.49857 0.49525 0.19843 0.0
N274 N 0.51473 0.5316 0.1733 0.0
N275 N 0.52716 0.52837 0.13804 0.0
Mn276 Mn 0.6209 0.39318 0.41242 0.0
Mn277 Mn 0.65369 0.45243 0.41679 0.0
C278 C 0.61046 0.41346 0.43338 0.0
C279 C 0.61201 0.35509 0.42019 0.0
C280 C 0.61828 0.42799 0.38546 0.0
O281 O 0.65206 0.40003 0.40071 0.0
O282 O 0.67136 0.43978 0.40283 0.0
C283 C 0.692 0.45488 0.44116 0.0
N284 N 0.67433 0.46003 0.438 0.0
C285 C 0.68428 0.48318 0.46622 0.0
C286 C 0.70258 0.47814 0.46979 0.0
C287 C 0.70635 0.46379 0.45726 0.0
C288 C 0.67021 0.47336 0.45017 0.0
H289 H 0.69524 0.4442 0.43143 0.0
C290 C 0.66996 0.4203 0.39774 0.0
O291 O 0.60528 0.35939 0.40442 0.0
O292 O 0.62426 0.373 0.43135 0.0
N293 N 0.63922 0.46731 0.43007 0.0
C294 C 0.62105 0.47078 0.42449 0.0
C295 C 0.61481 0.48453 0.43559 0.0
C296 C 0.62771 0.49507 0.45207 0.0
C297 C 0.64665 0.49163 0.45732 0.0
C298 C 0.65172 0.47734 0.44591 0.0
H299 H 0.61125 0.46292 0.41176 0.0
O300 O 0.59461 0.39279 0.42695 0.0
O301 O 0.63197 0.42171 0.42737 0.0
O302 O 0.61275 0.40706 0.38987 0.0
O303 O 0.63274 0.44632 0.39494 0.0
C304 C 0.66107 0.50233 0.47319 0.0
C305 C 0.67977 0.49798 0.47772 0.0
H306 H 0.71391 0.48527 0.48206 0.0
H307 H 0.72047 0.45985 0.4599 0.0
H308 H 0.60023 0.48716 0.43139 0.0
H309 H 0.62303 0.50589 0.46052 0.0
H310 H 0.65808 0.51417 0.48183 0.0
H311 H 0.69081 0.50636 0.48994 0.0
Mn312 Mn 0.25034 0.64351 0.57407 0.0
Mn313 Mn 0.22403 0.58483 0.56716 0.0
C314 C 0.21895 0.62486 0.55269 0.0
C315 C 0.28086 0.68147 0.5675 0.0
C316 C 0.21698 0.60791 0.60144 0.0
O317 O 0.27374 0.63477 0.58586 0.0
O318 O 0.25762 0.59713 0.57539 0.0
C319 C 0.25105 0.58206 0.5354 0.0
N320 N 0.22993 0.57727 0.54289 0.0
C321 C 0.208 0.55456 0.51589 0.0
C322 C 0.2295 0.55902 0.50796 0.0
C323 C 0.25113 0.57305 0.51767 0.0
C324 C 0.20909 0.56443 0.53343 0.0
H325 H 0.26767 0.59254 0.54296 0.0
C326 C 0.2744 0.61571 0.58342 0.0
O327 O 0.26961 0.67686 0.58302 0.0
O328 O 0.27474 0.66394 0.55594 0.0
N329 N 0.19142 0.57077 0.55907 0.0
C330 C 0.17214 0.56725 0.56898 0.0
C331 C 0.14916 0.55395 0.56108 0.0
C332 C 0.14617 0.54396 0.54324 0.0
C333 C 0.16619 0.54723 0.53353 0.0
C334 C 0.18869 0.5609 0.54202 0.0
H335 H 0.1742 0.57446 0.58283 0.0
O336 O 0.22508 0.64568 0.55933 0.0
O337 O 0.23178 0.61598 0.55846 0.0
O338 O 0.22771 0.62898 0.59564 0.0
O339 O 0.21622 0.5906 0.59245 0.0
C340 C 0.16466 0.53695 0.51596 0.0
C341 C 0.18551 0.54038 0.50726 0.0
H342 H 0.22963 0.55173 0.49445 0.0
H343 H 0.2678 0.57664 0.5116 0.0
H344 H 0.13378 0.55124 0.56878 0.0
H345 H 0.12841 0.53354 0.53724 0.0
H346 H 0.14749 0.52609 0.50912 0.0
H347 H 0.18394 0.53181 0.494 0.0
Mn348 Mn 0.62124 0.25418 0.74141 0.0
Mn349 Mn 0.65326 0.22687 0.73584 0.0
C350 C 0.60887 0.22359 0.71974 0.0
C351 C 0.61389 0.2847 0.73455 0.0
C352 C 0.62121 0.21879 0.76857 0.0
O353 O 0.65323 0.27703 0.75391 0.0
O354 O 0.67399 0.25895 0.74658 0.0
C355 C 0.68693 0.25668 0.70728 0.0
N356 N 0.66933 0.23518 0.71277 0.0
C357 C 0.67281 0.21625 0.68518 0.0
C358 C 0.69103 0.23818 0.67924 0.0
C359 C 0.69797 0.25851 0.69027 0.0
C360 C 0.66208 0.21562 0.70205 0.0
H361 H 0.69267 0.27225 0.71592 0.0
C362 C 0.67254 0.27623 0.75363 0.0
O363 O 0.60688 0.27325 0.74989 0.0
O364 O 0.62557 0.27873 0.72331 0.0
N365 N 0.63542 0.19562 0.72548 0.0
C366 C 0.61885 0.17559 0.73382 0.0
C367 C 0.60988 0.15372 0.72454 0.0
C368 C 0.61852 0.15258 0.70703 0.0
C369 C 0.6362 0.17332 0.69904 0.0
C370 C 0.64418 0.19466 0.7088 0.0
H371 H 0.61246 0.17626 0.74743 0.0
O372 O 0.59399 0.22966 0.72606 0.0
O373 O 0.63064 0.23589 0.72608 0.0
O374 O 0.61258 0.23143 0.76296 0.0
O375 O 0.6371 0.21673 0.7598 0.0
C376 C 0.64678 0.17353 0.68207 0.0
C377 C 0.66524 0.19493 0.67525 0.0
H378 H 0.69992 0.23961 0.66631 0.0
H379 H 0.71205 0.27548 0.68581 0.0
H380 H 0.5965 0.13776 0.73094 0.0
H381 H 0.61174 0.13565 0.7 0.0
H382 H 0.64114 0.15727 0.67428 0.0
H383 H 0.67363 0.19469 0.66244 0.0
Mn384 Mn 0.39402 0.64597 0.91102 0.0
Mn385 Mn 0.36482 0.58766 0.91956 0.0
C386 C 0.40956 0.63095 0.9324 0.0
C387 C 0.39991 0.68363 0.91681 0.0
C388 C 0.39358 0.60863 0.88496 0.0
O389 O 0.36078 0.63462 0.90009 0.0
O390 O 0.34211 0.5967 0.90894 0.0
C391 C 0.33366 0.58701 0.9495 0.0
N392 N 0.35063 0.58222 0.94338 0.0
C393 C 0.35172 0.56524 0.9725 0.0
C394 C 0.33416 0.56988 0.9791 0.0
C395 C 0.32516 0.58089 0.96757 0.0
C396 C 0.35957 0.57184 0.95441 0.0
H397 H 0.32668 0.59544 0.94066 0.0
C398 C 0.34212 0.61435 0.90139 0.0
O399 O 0.40606 0.67824 0.90125 0.0
O400 O 0.39004 0.66707 0.92887 0.0
N401 N 0.3846 0.57652 0.92998 0.0
C402 C 0.40216 0.57415 0.92177 0.0
C403 C 0.41342 0.56392 0.9316 0.0
C404 C 0.40631 0.55594 0.94966 0.0
C405 C 0.38797 0.55827 0.95771 0.0
C406 C 0.37743 0.56864 0.94726 0.0
H407 H 0.40759 0.5801 0.90784 0.0
O408 O 0.4232 0.65123 0.92499 0.0
O409 O 0.38721 0.62031 0.9273 0.0
O410 O 0.40156 0.63024 0.88948 0.0
O411 O 0.37924 0.59149 0.89495 0.0
C412 C 0.37985 0.55084 0.97575 0.0
C413 C 0.36189 0.55451 0.98321 0.0
H414 H 0.32755 0.56517 0.99302 0.0
H415 H 0.31167 0.5846 0.97258 0.0
H416 H 0.42754 0.56216 0.92528 0.0
H417 H 0.4151 0.54814 0.95723 0.0
H418 H 0.38754 0.54259 0.98412 0.0
H419 H 0.35612 0.54912 0.99723 0.0
Mn420 Mn 0.76908 0.40124 0.07743 0.0
Mn421 Mn 0.79848 0.37113 0.08216 0.0
C422 C 0.80257 0.41621 0.09674 0.0
C423 C 0.73825 0.40798 0.08575 0.0
C424 C 0.80244 0.39999 0.04843 0.0
O425 O 0.7453 0.3684 0.06713 0.0
O426 O 0.76534 0.34929 0.07334 0.0
C427 C 0.77161 0.34036 0.11311 0.0
N428 N 0.79267 0.3568 0.10586 0.0
C429 C 0.81453 0.35674 0.13301 0.0
C430 C 0.79309 0.33971 0.14075 0.0
C431 C 0.77153 0.33154 0.13077 0.0
C432 C 0.81348 0.36484 0.11536 0.0
H433 H 0.75502 0.33405 0.10547 0.0
C434 C 0.74684 0.3497 0.0674 0.0
O435 O 0.74787 0.41354 0.06957 0.0
O436 O 0.74641 0.39829 0.09706 0.0
N437 N 0.83075 0.39002 0.09067 0.0
C438 C 0.84958 0.40751 0.08171 0.0
C439 C 0.87243 0.41784 0.08989 0.0
C440 C 0.87562 0.40997 0.1071 0.0
C441 C 0.85597 0.39215 0.11618 0.0
C442 C 0.83368 0.38232 0.10725 0.0
H443 H 0.84721 0.41345 0.06838 0.0
O444 O 0.79511 0.4299 0.09036 0.0
O445 O 0.78989 0.39401 0.09189 0.0
O446 O 0.78957 0.40827 0.05437 0.0
O447 O 0.80613 0.38542 0.05745 0.0
C448 C 0.85758 0.38388 0.13377 0.0
C449 C 0.83684 0.36628 0.14223 0.0
H450 H 0.79295 0.33291 0.15438 0.0
H451 H 0.75491 0.31847 0.13668 0.0
H452 H 0.88756 0.43169 0.0829 0.0
H453 H 0.89326 0.4176 0.11313 0.0
H454 H 0.87461 0.39113 0.14101 0.0
H455 H 0.83824 0.36031 0.15588 0.0
Mn456 Mn 0.38579 0.77778 0.24508 0.0
Mn457 Mn 0.44565 0.80505 0.25053 0.0
C458 C 0.4052 0.81043 0.26471 0.0
C459 C 0.34741 0.74867 0.25292 0.0
C460 C 0.42156 0.81289 0.21754 0.0
O461 O 0.39332 0.75318 0.23488 0.0
O462 O 0.43328 0.7736 0.23829 0.0
C463 C 0.44681 0.77225 0.2779 0.0
N464 N 0.45287 0.79458 0.27301 0.0
C465 C 0.47518 0.81076 0.30149 0.0
C466 C 0.46926 0.78796 0.30681 0.0
C467 C 0.45494 0.76861 0.29499 0.0
C468 C 0.46645 0.81327 0.28435 0.0
H469 H 0.43589 0.75734 0.26883 0.0
C470 C 0.41382 0.75528 0.23307 0.0
O471 O 0.35185 0.75829 0.23675 0.0
O472 O 0.36536 0.75569 0.26441 0.0
N473 N 0.4607 0.8356 0.26218 0.0
C474 C 0.46433 0.85635 0.25515 0.0
C475 C 0.47865 0.87748 0.26513 0.0
C476 C 0.48919 0.87704 0.28212 0.0
C477 C 0.48498 0.85547 0.28918 0.0
C478 C 0.47088 0.83504 0.27848 0.0
H479 H 0.4566 0.85679 0.24193 0.0
O480 O 0.38423 0.80406 0.25779 0.0
O481 O 0.41425 0.79718 0.2602 0.0
O482 O 0.40022 0.7983 0.22219 0.0
O483 O 0.43987 0.81709 0.22732 0.0
C484 C 0.4943 0.85345 0.30635 0.0
C485 C 0.48926 0.83109 0.31257 0.0
H486 H 0.47553 0.78509 0.31997 0.0
H487 H 0.45026 0.75095 0.299 0.0
H488 H 0.48183 0.89408 0.25959 0.0
H489 H 0.50075 0.89336 0.28957 0.0
H490 H 0.5052 0.86897 0.31496 0.0
H491 H 0.49631 0.82972 0.32589 0.0
H492 H 0.12205 0.61635 0.27394 0.0
H493 H 0.16359 0.64032 0.26505 0.0
H494 H 0.18667 0.63422 0.31997 0.0
H495 H 0.14505 0.61094 0.32921 0.0
H496 H 0.21139 0.67858 0.30866 0.0
H497 H 0.19041 0.60277 0.28295 0.0
H498 H 0.16625 0.56612 0.26461 0.0
H499 H 0.17904 0.60634 0.21521 0.0
H500 H 0.20302 0.64327 0.2333 0.0
H501 H 0.33302 0.72621 0.28593 0.0
H502 H 0.29228 0.69884 0.29537 0.0
H503 H 0.26556 0.70439 0.24176 0.0
H504 H 0.30631 0.73155 0.23213 0.0
H505 H 0.24324 0.65922 0.25312 0.0
H506 H 0.26277 0.73498 0.27913 0.0
H507 H 0.28687 0.77164 0.29749 0.0
H508 H 0.2767 0.73123 0.34644 0.0
H509 H 0.25279 0.6943 0.3283 0.0
C510 C 0.13594 0.62023 0.2842 0.0
C511 C 0.13018 0.61173 0.30232 0.0
C512 C 0.15971 0.63373 0.27902 0.0
C513 C 0.17829 0.63884 0.29177 0.0
C514 C 0.17264 0.63041 0.30987 0.0
C515 C 0.14883 0.61694 0.31509 0.0
C516 C 0.20358 0.6535 0.28632 0.0
C517 C 0.21845 0.67412 0.2967 0.0
C518 C 0.21268 0.64799 0.27046 0.0
C519 C 0.19834 0.62581 0.25952 0.0
C520 C 0.18792 0.60382 0.2682 0.0
C521 C 0.17429 0.58299 0.25784 0.0
C522 C 0.17107 0.58391 0.23876 0.0
C523 C 0.18153 0.60566 0.22999 0.0
C524 C 0.19517 0.62654 0.24029 0.0
C525 C 0.3185 0.72151 0.27611 0.0
C526 C 0.32289 0.73115 0.25831 0.0
C527 C 0.2952 0.70594 0.28155 0.0
C528 C 0.27583 0.69981 0.26936 0.0
C529 C 0.28023 0.7089 0.25141 0.0
C530 C 0.30353 0.72447 0.24594 0.0
C531 C 0.25096 0.68431 0.27542 0.0
C532 C 0.23618 0.66357 0.26515 0.0
C533 C 0.24193 0.68969 0.29138 0.0
C534 C 0.25621 0.71188 0.30232 0.0
C535 C 0.26583 0.73391 0.29378 0.0
C536 C 0.27943 0.75473 0.30415 0.0
C537 C 0.28337 0.75376 0.32311 0.0
C538 C 0.27366 0.73196 0.33175 0.0
C539 C 0.26007 0.71108 0.32143 0.0
H540 H 0.29391 0.76991 0.33111 0.0
H541 H 0.1605 0.56776 0.23077 0.0
H542 H 0.55094 0.15332 0.49391 0.0
H543 H 0.56842 0.19463 0.48527 0.0
H544 H 0.53762 0.17287 0.43029 0.0
H545 H 0.52091 0.13154 0.43858 0.0
H546 H 0.58218 0.20884 0.42868 0.0
H547 H 0.51242 0.19166 0.46322 0.0
H548 H 0.48601 0.17795 0.49011 0.0
H549 H 0.54181 0.23123 0.52469 0.0
H550 H 0.56867 0.24506 0.49804 0.0
H551 H 0.58743 0.31456 0.39931 0.0
H552 H 0.57488 0.27423 0.40852 0.0
H553 H 0.6088 0.30014 0.46213 0.0
H554 H 0.62125 0.34056 0.45307 0.0
H555 H 0.56448 0.26273 0.46524 0.0
H556 H 0.63367 0.28109 0.43012 0.0
H557 H 0.65976 0.29478 0.40306 0.0
H558 H 0.60479 0.23935 0.36935 0.0
H559 H 0.57822 0.22551 0.39616 0.0
C560 C 0.54812 0.1573 0.4799 0.0
C561 C 0.53439 0.13906 0.46697 0.0
C562 C 0.55793 0.18095 0.47504 0.0
C563 C 0.55406 0.18689 0.4572 0.0
C564 C 0.54077 0.16874 0.44416 0.0
C565 C 0.53102 0.1451 0.44899 0.0
C566 C 0.56363 0.21196 0.45214 0.0
C567 C 0.57809 0.22055 0.43655 0.0
C568 C 0.55878 0.22744 0.46266 0.0
C569 C 0.54263 0.21923 0.47868 0.0
C570 C 0.51911 0.20034 0.47659 0.0
C571 C 0.50405 0.19256 0.49178 0.0
C572 C 0.51225 0.20367 0.50911 0.0
C573 C 0.5355 0.22262 0.51126 0.0
C574 C 0.55064 0.23045 0.49612 0.0
C575 C 0.59236 0.31171 0.41303 0.0
C576 C 0.60537 0.33078 0.42545 0.0
C577 C 0.58524 0.28864 0.41825 0.0
C578 C 0.59108 0.28416 0.43597 0.0
C579 C 0.60413 0.30318 0.44838 0.0
C580 C 0.6113 0.32627 0.44316 0.0
C581 C 0.5829 0.25956 0.44171 0.0
C582 C 0.56868 0.25106 0.45742 0.0
C583 C 0.58792 0.24416 0.43127 0.0
C584 C 0.60388 0.2524 0.41512 0.0
C585 C 0.62707 0.27193 0.41691 0.0
C586 C 0.64196 0.2797 0.40162 0.0
C587 C 0.63392 0.26798 0.38449 0.0
C588 C 0.61099 0.24842 0.38263 0.0
C589 C 0.59601 0.2406 0.39787 0.0
H590 H 0.64548 0.27402 0.37267 0.0
H591 H 0.50056 0.19762 0.52085 0.0
H592 H 0.4344 0.57804 0.66158 0.0
H593 H 0.41107 0.59681 0.65361 0.0
H594 H 0.3959 0.56367 0.59931 0.0
H595 H 0.42024 0.54596 0.60678 0.0
H596 H 0.40398 0.60678 0.59638 0.0
H597 H 0.35536 0.54116 0.63556 0.0
H598 H 0.34646 0.51783 0.66394 0.0
H599 H 0.35439 0.57687 0.69634 0.0
H600 H 0.36355 0.60064 0.66812 0.0
H601 H 0.29076 0.58765 0.56984 0.0
H602 H 0.32427 0.58395 0.58128 0.0
H603 H 0.33924 0.63679 0.62365 0.0
H604 H 0.30573 0.64104 0.61196 0.0
H605 H 0.33543 0.59138 0.6356 0.0
H606 H 0.37706 0.65408 0.59329 0.0
H607 H 0.38343 0.67437 0.56357 0.0
H608 H 0.38624 0.61752 0.53567 0.0
H609 H 0.3795 0.59669 0.56519 0.0
C610 C 0.42646 0.57507 0.64782 0.0
C611 C 0.42907 0.56029 0.63487 0.0
C612 C 0.4129 0.58563 0.64335 0.0
C613 C 0.40139 0.58137 0.62595 0.0
C614 C 0.40452 0.56718 0.61285 0.0
C615 C 0.41823 0.5568 0.61723 0.0
C616 C 0.38541 0.59094 0.62145 0.0
C617 C 0.38899 0.60336 0.60496 0.0
C618 C 0.36613 0.58703 0.63284 0.0
C619 C 0.36039 0.57274 0.64978 0.0
C620 C 0.35534 0.5492 0.64875 0.0
C621 C 0.35022 0.5359 0.6648 0.0
C622 C 0.34993 0.54588 0.68193 0.0
C623 C 0.35466 0.56918 0.68305 0.0
C624 C 0.35979 0.58257 0.66704 0.0
C625 C 0.30123 0.59865 0.58151 0.0
C626 C 0.29558 0.61464 0.59 0.0
C627 C 0.32042 0.59654 0.588 0.0
C628 C 0.33422 0.61014 0.60326 0.0
C629 C 0.32877 0.6262 0.61182 0.0
C630 C 0.30974 0.62866 0.60508 0.0
C631 C 0.35376 0.60666 0.61037 0.0
C632 C 0.35079 0.5953 0.6273 0.0
C633 C 0.37337 0.61121 0.59924 0.0
C634 C 0.37762 0.62375 0.58146 0.0
C635 C 0.37885 0.64581 0.5808 0.0
C636 C 0.38256 0.65743 0.56399 0.0
C637 C 0.3852 0.64722 0.54774 0.0
C638 C 0.38419 0.6254 0.54828 0.0
C639 C 0.38046 0.6137 0.56505 0.0
H640 H 0.38807 0.65624 0.53473 0.0
H641 H 0.34596 0.53554 0.69432 0.0
H642 H 0.87295 0.46697 0.79971 0.0
H643 H 0.83134 0.43936 0.79064 0.0
H644 H 0.84688 0.38251 0.78811 0.0
H645 H 0.88842 0.40999 0.79671 0.0
H646 H 0.82048 0.38137 0.75848 0.0
H647 H 0.81903 0.38989 0.82509 0.0
H648 H 0.8258 0.41224 0.85443 0.0
H649 H 0.77954 0.4373 0.83528 0.0
H650 H 0.77276 0.41533 0.80571 0.0
H651 H 0.71351 0.27674 0.76329 0.0
H652 H 0.75181 0.31061 0.77218 0.0
H653 H 0.72125 0.35588 0.76953 0.0
H654 H 0.68236 0.32172 0.76078 0.0
H655 H 0.7537 0.3672 0.79942 0.0
H656 H 0.75164 0.35463 0.734 0.0
H657 H 0.7438 0.33056 0.70548 0.0
H658 H 0.79655 0.31278 0.72245 0.0
H659 H 0.80438 0.33637 0.75126 0.0
C660 C 0.86751 0.44862 0.79706 0.0
C661 C 0.88394 0.44063 0.79903 0.0
C662 C 0.84371 0.43284 0.79202 0.0
C663 C 0.83597 0.40884 0.78886 0.0
C664 C 0.85244 0.40095 0.79052 0.0
C665 C 0.87614 0.41664 0.79559 0.0
C666 C 0.81073 0.3917 0.78387 0.0
C667 C 0.8059 0.37822 0.76747 0.0
C668 C 0.79162 0.38808 0.79532 0.0
C669 C 0.79562 0.40121 0.81311 0.0
C670 C 0.81046 0.40033 0.82708 0.0
C671 C 0.81427 0.41289 0.84376 0.0
C672 C 0.80316 0.42624 0.84669 0.0
C673 C 0.78817 0.42699 0.83297 0.0
C674 C 0.78433 0.41448 0.81625 0.0
C675 C 0.71477 0.29382 0.76472 0.0
C676 C 0.69491 0.29656 0.76107 0.0
C677 C 0.73673 0.31319 0.76981 0.0
C678 C 0.73948 0.33582 0.77113 0.0
C679 C 0.71949 0.33855 0.76847 0.0
C680 C 0.69732 0.31904 0.76346 0.0
C681 C 0.76363 0.35649 0.77432 0.0
C682 C 0.76824 0.37065 0.79029 0.0
C683 C 0.78261 0.3608 0.76247 0.0
C684 C 0.77851 0.34719 0.74486 0.0
C685 C 0.7615 0.34551 0.7317 0.0
C686 C 0.75705 0.33194 0.71548 0.0
C687 C 0.76965 0.32012 0.71217 0.0
C688 C 0.7868 0.32194 0.72504 0.0
C689 C 0.79127 0.33543 0.74131 0.0
H690 H 0.76613 0.30958 0.69962 0.0
H691 H 0.80613 0.43595 0.85962 0.0
H692 H 0.49478 0.9044 0.95317 0.0
H693 H 0.48029 0.86355 0.9427 0.0
H694 H 0.41126 0.84276 0.96512 0.0
H695 H 0.42553 0.88377 0.97524 0.0
H696 H 0.43519 0.81452 0.97529 0.0
H697 H 0.41146 0.84449 0.92309 0.0
H698 H 0.41879 0.87301 0.89846 0.0
H699 H 0.47132 0.8591 0.8751 0.0
H700 H 0.46456 0.83075 0.89977 0.0
H701 H 0.37723 0.69711 0.94147 0.0
H702 H 0.38663 0.73726 0.94957 0.0
H703 H 0.44397 0.76486 0.91053 0.0
H704 H 0.43363 0.72462 0.90163 0.0
H705 H 0.42476 0.79017 0.90892 0.0
H706 H 0.45226 0.76321 0.95967 0.0
H707 H 0.44958 0.73659 0.9846 0.0
H708 H 0.39634 0.74677 0.01122 0.0
H709 H 0.39849 0.77322 0.9863 0.0
C710 C 0.4765 0.89109 0.9558 0.0
C711 C 0.46122 0.89713 0.96498 0.0
C712 C 0.46826 0.86786 0.94979 0.0
C713 C 0.44473 0.85025 0.95313 0.0
C714 C 0.42946 0.85618 0.96241 0.0
C715 C 0.43757 0.87953 0.9681 0.0
C716 C 0.4363 0.82556 0.94721 0.0
C717 C 0.43249 0.809 0.96081 0.0
C718 C 0.43373 0.81877 0.9283 0.0
C719 C 0.43767 0.83568 0.91339 0.0
C720 C 0.42473 0.84768 0.91281 0.0
C721 C 0.42875 0.86377 0.89881 0.0
C722 C 0.44555 0.86791 0.88525 0.0
C723 C 0.45833 0.8559 0.88563 0.0
C724 C 0.4544 0.8398 0.8996 0.0
C725 C 0.39172 0.71177 0.93453 0.0
C726 C 0.4048 0.7078 0.92101 0.0
C727 C 0.39721 0.73474 0.93926 0.0
C728 C 0.41643 0.75423 0.93103 0.0
C729 C 0.42911 0.75019 0.91715 0.0
C730 C 0.42323 0.72719 0.91209 0.0
C731 C 0.42355 0.77879 0.93702 0.0
C732 C 0.42725 0.79546 0.92345 0.0
C733 C 0.42665 0.78585 0.95599 0.0
C734 C 0.42535 0.77 0.97102 0.0
C735 C 0.43986 0.75964 0.97077 0.0
C736 C 0.43846 0.7446 0.98491 0.0
C737 C 0.42275 0.73994 0.99946 0.0
C738 C 0.40847 0.75036 0.99993 0.0
C739 C 0.40978 0.76539 0.98581 0.0
H740 H 0.42169 0.72829 0.01039 0.0
H741 H 0.44864 0.88038 0.87443 0.0
H742 H 0.58647 0.45893 0.15833 0.0
H743 H 0.61189 0.44245 0.15028 0.0
H744 H 0.61835 0.4687 0.09486 0.0
H745 H 0.59242 0.4846 0.10265 0.0
H746 H 0.61226 0.42472 0.09446 0.0
H747 H 0.66227 0.49831 0.12717 0.0
H748 H 0.67395 0.5267 0.15337 0.0
H749 H 0.67756 0.47684 0.18949 0.0
H750 H 0.66556 0.44802 0.16352 0.0
H751 H 0.71747 0.42748 0.06472 0.0
H752 H 0.68702 0.43698 0.07399 0.0
H753 H 0.68539 0.40928 0.12823 0.0
H754 H 0.71609 0.39995 0.1191 0.0
H755 H 0.68739 0.45131 0.13055 0.0
H756 H 0.64009 0.37863 0.09711 0.0
H757 H 0.62881 0.3506 0.0707 0.0
H758 H 0.6203 0.3987 0.03582 0.0
H759 H 0.63188 0.42719 0.06196 0.0
C760 C 0.59302 0.46089 0.14435 0.0
C761 C 0.58755 0.47322 0.13117 0.0
C762 C 0.60771 0.45163 0.13982 0.0
C763 C 0.61728 0.45461 0.12204 0.0
C764 C 0.61125 0.46627 0.10869 0.0
C765 C 0.59659 0.47553 0.11321 0.0
C766 C 0.63415 0.44624 0.11743 0.0
C767 C 0.62879 0.43068 0.10225 0.0
C768 C 0.65545 0.45358 0.12786 0.0
C769 C 0.66276 0.47092 0.14346 0.0
C770 C 0.66537 0.49333 0.14073 0.0
C771 C 0.67208 0.50951 0.15553 0.0
C772 C 0.67643 0.50355 0.1731 0.0
C773 C 0.67414 0.48142 0.17588 0.0
C774 C 0.6674 0.46516 0.16113 0.0
C775 C 0.71055 0.42329 0.07859 0.0
C776 C 0.71918 0.41294 0.09117 0.0
C777 C 0.69306 0.42863 0.08385 0.0
C778 C 0.68373 0.42362 0.10175 0.0
C779 C 0.69229 0.41326 0.11434 0.0
C780 C 0.70979 0.40788 0.10908 0.0
C781 C 0.66562 0.42992 0.10747 0.0
C782 C 0.67076 0.44514 0.12286 0.0
C783 C 0.64415 0.42228 0.09721 0.0
C784 C 0.63705 0.40514 0.08147 0.0
C785 C 0.63599 0.38331 0.08378 0.0
C786 C 0.62951 0.36733 0.06886 0.0
C787 C 0.62389 0.37289 0.05159 0.0
C788 C 0.62468 0.39443 0.04921 0.0
C789 C 0.63118 0.41049 0.06407 0.0
H790 H 0.61889 0.36049 0.04006 0.0
H791 H 0.68162 0.5161 0.18454 0.0
H792 H 0.38971 0.8996 0.52863 0.0
H793 H 0.36686 0.8587 0.53893 0.0
H794 H 0.4202 0.8446 0.5169 0.0
H795 H 0.44345 0.88575 0.50694 0.0
H796 H 0.36808 0.81056 0.50686 0.0
H797 H 0.42252 0.84856 0.55883 0.0
H798 H 0.44232 0.87941 0.58315 0.0
H799 H 0.37438 0.86002 0.60646 0.0
H800 H 0.35414 0.82927 0.58209 0.0
H801 H 0.31667 0.69544 0.5426 0.0
H802 H 0.34529 0.73578 0.53375 0.0
H803 H 0.3133 0.76261 0.57198 0.0
H804 H 0.2857 0.72243 0.58163 0.0
H805 H 0.35744 0.79068 0.57347 0.0
H806 H 0.30192 0.75593 0.52245 0.0
H807 H 0.27918 0.72651 0.49773 0.0
H808 H 0.34449 0.74097 0.47207 0.0
H809 H 0.36764 0.77027 0.49677 0.0
C810 C 0.39653 0.88775 0.526 0.0
C811 C 0.4183 0.89575 0.51701 0.0
C812 C 0.38354 0.86448 0.53192 0.0
C813 C 0.3919 0.84872 0.52868 0.0
C814 C 0.41351 0.85655 0.51952 0.0
C815 C 0.42677 0.88 0.51392 0.0
C816 C 0.37788 0.82401 0.53481 0.0
C817 C 0.36602 0.80605 0.52139 0.0
C818 C 0.37464 0.81841 0.55379 0.0
C819 C 0.3868 0.83677 0.56853 0.0
C820 C 0.41178 0.85101 0.56904 0.0
C821 C 0.42309 0.86845 0.58285 0.0
C822 C 0.40961 0.87171 0.59631 0.0
C823 C 0.3848 0.85749 0.59601 0.0
C824 C 0.3734 0.84004 0.58221 0.0
C825 C 0.31591 0.71 0.54919 0.0
C826 C 0.29892 0.70582 0.56274 0.0
C827 C 0.33216 0.73306 0.54403 0.0
C828 C 0.33119 0.75236 0.55184 0.0
C829 C 0.31449 0.74813 0.56569 0.0
C830 C 0.29867 0.72513 0.57119 0.0
C831 C 0.34725 0.77689 0.54551 0.0
C832 C 0.35951 0.79494 0.55889 0.0
C833 C 0.35038 0.78266 0.52646 0.0
C834 C 0.33651 0.76509 0.51157 0.0
C835 C 0.31143 0.75271 0.5116 0.0
C836 C 0.29847 0.73607 0.49759 0.0
C837 C 0.31038 0.73182 0.48337 0.0
C838 C 0.33529 0.74425 0.48311 0.0
C839 C 0.34834 0.76088 0.49711 0.0
H840 H 0.30031 0.71893 0.47253 0.0
H841 H 0.4184 0.88522 0.607 0.0
H842 H 0.50956 0.4008 0.69514 0.0
H843 H 0.52586 0.37585 0.70493 0.0
H844 H 0.5956 0.4286 0.68725 0.0
H845 H 0.57942 0.4538 0.67761 0.0
H846 H 0.57913 0.37961 0.67497 0.0
H847 H 0.58845 0.426 0.73029 0.0
H848 H 0.57413 0.44237 0.75463 0.0
H849 H 0.52286 0.3723 0.77099 0.0
H850 H 0.53664 0.35551 0.74655 0.0
H851 H 0.63833 0.32254 0.71228 0.0
H852 H 0.62752 0.35213 0.70375 0.0
H853 H 0.56405 0.31644 0.73641 0.0
H854 H 0.57578 0.28795 0.74595 0.0
H855 H 0.57964 0.35949 0.74096 0.0
H856 H 0.56589 0.31193 0.686 0.0
H857 H 0.57618 0.29297 0.66084 0.0
H858 H 0.63028 0.36092 0.64265 0.0
H859 H 0.62051 0.38027 0.66786 0.0
C860 C 0.52835 0.40703 0.69331 0.0
C861 C 0.54326 0.42921 0.68565 0.0
C862 C 0.53764 0.39284 0.69896 0.0
C863 C 0.56192 0.40046 0.69685 0.0
C864 C 0.57681 0.42246 0.68899 0.0
C865 C 0.5676 0.43685 0.6836 0.0
C866 C 0.57167 0.38535 0.70289 0.0
C867 C 0.57963 0.37544 0.68942 0.0
C868 C 0.57156 0.37942 0.72166 0.0
C869 C 0.56345 0.38951 0.73649 0.0
C870 C 0.574 0.41409 0.73898 0.0
C871 C 0.566 0.42344 0.75282 0.0
C872 C 0.54756 0.40838 0.76433 0.0
C873 C 0.53713 0.38394 0.76206 0.0
C874 C 0.54504 0.3745 0.74823 0.0
C875 C 0.62216 0.32117 0.7177 0.0
C876 C 0.60784 0.30296 0.72972 0.0
C877 C 0.61586 0.33796 0.7127 0.0
C878 C 0.59462 0.33631 0.71905 0.0
C879 C 0.58051 0.31822 0.73128 0.0
C880 C 0.58719 0.30188 0.73671 0.0
C881 C 0.58692 0.35325 0.713 0.0
C882 C 0.57932 0.3636 0.72648 0.0
C883 C 0.5868 0.35911 0.69414 0.0
C884 C 0.59264 0.34752 0.67893 0.0
C885 C 0.58008 0.32281 0.67671 0.0
C886 C 0.58581 0.312 0.66243 0.0
C887 C 0.60392 0.32573 0.65019 0.0
C888 C 0.61629 0.35031 0.65216 0.0
C889 C 0.61065 0.36121 0.66643 0.0
H890 H 0.60833 0.31733 0.63914 0.0
H891 H 0.54139 0.41566 0.77503 0.0
H892 H 0.12805 0.5291 0.84622 0.0
H893 H 0.16926 0.54302 0.85584 0.0
H894 H 0.18324 0.61473 0.85737 0.0
H895 H 0.14168 0.60087 0.84809 0.0
H896 H 0.22013 0.60933 0.841 0.0
H897 H 0.17497 0.58876 0.89664 0.0
H898 H 0.14163 0.5632 0.91673 0.0
H899 H 0.1624 0.51036 0.9144 0.0
H900 H 0.19566 0.53545 0.89405 0.0
H901 H 0.33071 0.64799 0.89125 0.0
H902 H 0.29179 0.6415 0.88059 0.0
H903 H 0.26266 0.56624 0.88397 0.0
H904 H 0.30107 0.57253 0.89501 0.0
H905 H 0.23374 0.57792 0.89927 0.0
H906 H 0.27657 0.59631 0.84194 0.0
H907 H 0.30936 0.62072 0.82101 0.0
H908 H 0.29295 0.67652 0.82584 0.0
H909 H 0.26024 0.65253 0.84699 0.0
C910 C 0.13979 0.54783 0.84871 0.0
C911 C 0.13142 0.56383 0.84665 0.0
C912 C 0.16339 0.55577 0.8541 0.0
C913 C 0.17919 0.57986 0.85754 0.0
C914 C 0.17128 0.59605 0.8548 0.0
C915 C 0.14755 0.58809 0.84946 0.0
C916 C 0.20367 0.58779 0.86465 0.0
C917 C 0.22321 0.60282 0.85389 0.0
C918 C 0.20757 0.57898 0.88133 0.0
C919 C 0.1877 0.56392 0.8937 0.0
C920 C 0.17232 0.57162 0.9003 0.0
C921 C 0.15346 0.55722 0.91175 0.0
C922 C 0.14987 0.53515 0.91681 0.0
C923 C 0.16519 0.52745 0.91046 0.0
C924 C 0.18407 0.54177 0.89898 0.0
C925 C 0.31604 0.63006 0.88961 0.0
C926 C 0.31903 0.61079 0.89405 0.0
C927 C 0.29381 0.62637 0.88345 0.0
C928 C 0.27429 0.60336 0.88136 0.0
C929 C 0.27739 0.58416 0.88555 0.0
C930 C 0.29943 0.58781 0.89185 0.0
C931 C 0.25034 0.59897 0.87538 0.0
C932 C 0.2308 0.58464 0.88643 0.0
C933 C 0.2465 0.60832 0.85893 0.0
C934 C 0.26614 0.62274 0.84621 0.0
C935 C 0.28008 0.61386 0.83866 0.0
C936 C 0.29863 0.62761 0.82673 0.0
C937 C 0.30329 0.65019 0.82215 0.0
C938 C 0.28936 0.65905 0.82943 0.0
C939 C 0.2708 0.64538 0.84138 0.0
H940 H 0.31765 0.6608 0.81291 0.0
H941 H 0.13525 0.52403 0.92567 0.0
H942 H 0.61523 0.13839 0.01472 0.0
H943 H 0.64237 0.17941 0.0239 0.0
H944 H 0.58263 0.19037 0.03151 0.0
H945 H 0.55516 0.14904 0.02244 0.0
H946 H 0.62087 0.22811 0.01408 0.0
H947 H 0.60785 0.18279 0.06863 0.0
H948 H 0.60508 0.15009 0.08711 0.0
H949 H 0.67892 0.17371 0.0776 0.0
H950 H 0.68204 0.20636 0.05881 0.0
H951 H 0.69996 0.33821 0.06245 0.0
H952 H 0.66606 0.29957 0.05334 0.0
H953 H 0.71361 0.27162 0.04795 0.0
H954 H 0.74718 0.30965 0.05742 0.0
H955 H 0.67661 0.24278 0.06689 0.0
H956 H 0.68863 0.28549 0.00984 0.0
H957 H 0.69157 0.31789 0.99082 0.0
H958 H 0.62011 0.29935 0.00489 0.0
H959 H 0.61687 0.267 0.02417 0.0
C960 C 0.6078 0.14945 0.01844 0.0
C961 C 0.583 0.14034 0.01812 0.0
C962 C 0.62335 0.17293 0.02361 0.0
C963 C 0.61449 0.18783 0.02867 0.0
C964 C 0.58981 0.17913 0.0277 0.0
C965 C 0.57417 0.15554 0.0225 0.0
C966 C 0.63119 0.21219 0.03553 0.0
C967 C 0.63281 0.23139 0.02582 0.0
C968 C 0.64687 0.21642 0.05075 0.0
C969 C 0.64513 0.19694 0.06221 0.0
C970 C 0.62346 0.18093 0.07037 0.0
C971 C 0.62183 0.16241 0.08092 0.0
C972 C 0.6418 0.15981 0.0835 0.0
C973 C 0.66346 0.17575 0.07558 0.0
C974 C 0.66518 0.19428 0.065 0.0
C975 C 0.70317 0.32385 0.05918 0.0
C976 C 0.72627 0.32701 0.06077 0.0
C977 C 0.68379 0.30179 0.05393 0.0
C978 C 0.68727 0.28266 0.0499 0.0
C979 C 0.71041 0.28602 0.05112 0.0
C980 C 0.72963 0.30785 0.05652 0.0
C981 C 0.66702 0.2588 0.04502 0.0
C982 C 0.66457 0.23961 0.05524 0.0
C983 C 0.65069 0.25466 0.03025 0.0
C984 C 0.65261 0.27401 0.0186 0.0
C985 C 0.67362 0.28844 0.00898 0.0
C986 C 0.67532 0.30677 0.99814 0.0
C987 C 0.65606 0.31072 0.9967 0.0
C988 C 0.63503 0.29629 0.00605 0.0
C989 C 0.63324 0.27795 0.01692 0.0
H990 H 0.65742 0.32492 0.9883 0.0
H991 H 0.64051 0.14545 0.09166 0.0
H992 H 0.45251 0.58246 0.20537 0.0
H993 H 0.43732 0.60864 0.21422 0.0
H994 H 0.46566 0.6482 0.16454 0.0
H995 H 0.47964 0.6214 0.15491 0.0
H996 H 0.47933 0.67377 0.20293 0.0
H997 H 0.41298 0.61986 0.16238 0.0
H998 H 0.38066 0.58032 0.15262 0.0
H999 H 0.34861 0.57127 0.20586 0.0
H1000 H 0.38096 0.61064 0.21603 0.0
H1001 H 0.44413 0.75788 0.20655 0.0
H1002 H 0.4509 0.7264 0.19533 0.0
H1003 H 0.39591 0.6772 0.23108 0.0
H1004 H 0.38806 0.70855 0.24138 0.0
H1005 H 0.39485 0.65458 0.20152 0.0
H1006 H 0.4574 0.70578 0.24311 0.0
H1007 H 0.48939 0.74369 0.25603 0.0
H1008 H 0.52886 0.75574 0.20605 0.0
H1009 H 0.49691 0.71806 0.1927 0.0
C1010 C 0.45507 0.59635 0.19605 0.0
C1011 C 0.46754 0.59981 0.17944 0.0
C1012 C 0.44649 0.61138 0.20123 0.0
C1013 C 0.45046 0.63032 0.19004 0.0
C1014 C 0.46255 0.63371 0.17339 0.0
C1015 C 0.47073 0.61846 0.16802 0.0
C1016 C 0.44315 0.64741 0.1961 0.0
C1017 C 0.46092 0.66975 0.20243 0.0
C1018 C 0.41903 0.64166 0.19619 0.0
C1019 C 0.39954 0.61807 0.19003 0.0
C1020 C 0.39918 0.60934 0.17207 0.0
C1021 C 0.38082 0.58698 0.16645 0.0
C1022 C 0.36263 0.57326 0.17863 0.0
C1023 C 0.36273 0.5819 0.19645 0.0
C1024 C 0.38106 0.60424 0.20214 0.0
C1025 C 0.43325 0.74023 0.21176 0.0
C1026 C 0.4157 0.73557 0.22488 0.0
C1027 C 0.43724 0.72228 0.20548 0.0
C1028 C 0.42449 0.69954 0.21281 0.0
C1029 C 0.40613 0.69461 0.22531 0.0
C1030 C 0.40164 0.71248 0.23119 0.0
C1031 C 0.43115 0.6814 0.20801 0.0
C1032 C 0.41331 0.65876 0.20206 0.0
C1033 C 0.45522 0.68664 0.20878 0.0
C1034 C 0.47466 0.70918 0.21685 0.0
C1035 C 0.47284 0.71657 0.23483 0.0
C1036 C 0.49097 0.73802 0.24223 0.0
C1037 C 0.51113 0.75213 0.23185 0.0
C1038 C 0.51323 0.74479 0.21407 0.0
C1039 C 0.49512 0.72339 0.20658 0.0
H1040 H 0.52514 0.76874 0.2376 0.0
H1041 H 0.34843 0.55596 0.17426 0.0
H1042 H 0.88554 0.47039 0.37355 0.0
H1043 H 0.84336 0.45277 0.38104 0.0
H1044 H 0.82977 0.47653 0.32933 0.0
H1045 H 0.87148 0.49297 0.32111 0.0
H1046 H 0.81522 0.49014 0.36548 0.0
H1047 H 0.80923 0.42388 0.32963 0.0
H1048 H 0.82011 0.39352 0.32269 0.0
H1049 H 0.79847 0.36506 0.37691 0.0
H1050 H 0.7878 0.39551 0.38427 0.0
H1051 H 0.69354 0.44709 0.36859 0.0
H1052 H 0.73213 0.45496 0.35702 0.0
H1053 H 0.73359 0.40682 0.39672 0.0
H1054 H 0.69409 0.39775 0.40741 0.0
H1055 H 0.75513 0.40485 0.36761 0.0
H1056 H 0.76166 0.4681 0.40512 0.0
H1057 H 0.75221 0.49848 0.41548 0.0
H1058 H 0.77545 0.53344 0.36355 0.0
H1059 H 0.78466 0.50302 0.35274 0.0
C1060 C 0.87356 0.47143 0.36352 0.0
C1061 C 0.88213 0.48335 0.34675 0.0
C1062 C 0.84946 0.46145 0.36791 0.0
C1063 C 0.83357 0.46345 0.35575 0.0
C1064 C 0.84186 0.47494 0.33892 0.0
C1065 C 0.8658 0.48453 0.33436 0.0
C1066 C 0.80857 0.4548 0.36099 0.0
C1067 C 0.80195 0.47152 0.36572 0.0
C1068 C 0.79169 0.4305 0.36205 0.0
C1069 C 0.79798 0.41214 0.35757 0.0
C1070 C 0.80702 0.41131 0.34014 0.0
C1071 C 0.8131 0.39404 0.33611 0.0
C1072 C 0.81005 0.37742 0.34937 0.0
C1073 C 0.80086 0.37798 0.36666 0.0
C1074 C 0.79477 0.39522 0.37077 0.0
C1075 C 0.7019 0.43779 0.37449 0.0
C1076 C 0.69104 0.42191 0.38888 0.0
C1077 C 0.72402 0.44243 0.36802 0.0
C1078 C 0.7362 0.4321 0.37641 0.0
C1079 C 0.72467 0.41515 0.39009 0.0
C1080 C 0.70214 0.40995 0.39619 0.0
C1081 C 0.76146 0.44024 0.37177 0.0
C1082 C 0.76827 0.4235 0.36734 0.0
C1083 C 0.77881 0.46459 0.37152 0.0
C1084 C 0.77366 0.48316 0.37806 0.0
C1085 C 0.76464 0.4822 0.39587 0.0
C1086 C 0.75932 0.49942 0.40182 0.0
C1087 C 0.76319 0.51786 0.39017 0.0
C1088 C 0.77244 0.51913 0.37255 0.0
C1089 C 0.77773 0.50191 0.36651 0.0
H1090 H 0.75905 0.53117 0.39479 0.0
H1091 H 0.81477 0.36406 0.34623 0.0
H1092 H 0.05822 0.55528 0.42469 0.0
H1093 H 0.08511 0.56574 0.45156 0.0
H1094 H 0.14402 0.61419 0.41846 0.0
H1095 H 0.11738 0.60315 0.39132 0.0
H1096 H 0.15649 0.58864 0.43858 0.0
H1097 H 0.11932 0.63426 0.4505 0.0
H1098 H 0.08594 0.64187 0.45425 0.0
H1099 H 0.06014 0.59411 0.49963 0.0
H1100 H 0.09319 0.58595 0.49599 0.0
H1101 H 0.2351 0.63129 0.51793 0.0
H1102 H 0.21241 0.6252 0.48941 0.0
H1103 H 0.14702 0.59179 0.5202 0.0
H1104 H 0.17053 0.60268 0.54896 0.0
H1105 H 0.14006 0.61394 0.49888 0.0
H1106 H 0.17213 0.55956 0.47629 0.0
H1107 H 0.20508 0.55234 0.46808 0.0
H1108 H 0.24157 0.61937 0.44175 0.0
H1109 H 0.2085 0.62648 0.44905 0.0
C1110 C 0.07693 0.56807 0.42308 0.0
C1111 C 0.08564 0.57835 0.40582 0.0
C1112 C 0.09224 0.57424 0.43852 0.0
C1113 C 0.11656 0.59097 0.4371 0.0
C1114 C 0.12531 0.60131 0.41991 0.0
C1115 C 0.11001 0.59512 0.40444 0.0
C1116 C 0.13297 0.597 0.4534 0.0
C1117 C 0.15295 0.59421 0.45181 0.0
C1118 C 0.12848 0.60439 0.4706 0.0
C1119 C 0.10863 0.60934 0.47287 0.0
C1120 C 0.10643 0.62524 0.46119 0.0
C1121 C 0.08758 0.62968 0.46331 0.0
C1122 C 0.0709 0.61844 0.47714 0.0
C1123 C 0.07306 0.60278 0.48891 0.0
C1124 C 0.09186 0.59827 0.48684 0.0
C1125 C 0.21581 0.62232 0.51844 0.0
C1126 C 0.20441 0.61655 0.53553 0.0
C1127 C 0.20264 0.61831 0.50196 0.0
C1128 C 0.17755 0.60705 0.50205 0.0
C1129 C 0.16625 0.60057 0.51934 0.0
C1130 C 0.1796 0.60622 0.53589 0.0
C1131 C 0.16302 0.60389 0.48472 0.0
C1132 C 0.14347 0.60773 0.48592 0.0
C1133 C 0.168 0.59757 0.46709 0.0
C1134 C 0.1883 0.5938 0.46372 0.0
C1135 C 0.18741 0.57286 0.46905 0.0
C1136 C 0.20597 0.56873 0.46445 0.0
C1137 C 0.22559 0.58558 0.45481 0.0
C1138 C 0.22649 0.60642 0.44939 0.0
C1139 C 0.20778 0.61041 0.45359 0.0
H1140 H 0.23994 0.58235 0.45136 0.0
H1141 H 0.05632 0.6219 0.47875 0.0
H1142 H 0.52133 0.06865 0.58916 0.0
H1143 H 0.53724 0.09499 0.61625 0.0
H1144 H 0.547 0.15348 0.58308 0.0
H1145 H 0.53191 0.12736 0.55571 0.0
H1146 H 0.58499 0.16611 0.60441 0.0
H1147 H 0.50156 0.1284 0.61376 0.0
H1148 H 0.46048 0.09513 0.6162 0.0
H1149 H 0.48194 0.06868 0.66231 0.0
H1150 H 0.52325 0.10162 0.65998 0.0
H1151 H 0.61926 0.24105 0.68545 0.0
H1152 H 0.60291 0.21986 0.65629 0.0
H1153 H 0.57018 0.15385 0.68545 0.0
H1154 H 0.58215 0.17594 0.71474 0.0
H1155 H 0.54156 0.14782 0.66342 0.0
H1156 H 0.62955 0.18414 0.6465 0.0
H1157 H 0.66946 0.21853 0.64046 0.0
H1158 H 0.63726 0.2494 0.60735 0.0
H1159 H 0.59744 0.21516 0.61274 0.0
C1160 C 0.52702 0.08715 0.58757 0.0
C1161 C 0.52537 0.09589 0.57024 0.0
C1162 C 0.53586 0.10215 0.60314 0.0
C1163 C 0.54305 0.12618 0.60176 0.0
C1164 C 0.54147 0.13499 0.58449 0.0
C1165 C 0.53265 0.11999 0.56889 0.0
C1166 C 0.55283 0.14215 0.61829 0.0
C1167 C 0.57554 0.16216 0.61737 0.0
C1168 C 0.54042 0.13719 0.63509 0.0
C1169 C 0.51555 0.11739 0.63659 0.0
C1170 C 0.49756 0.11539 0.62433 0.0
C1171 C 0.47423 0.09661 0.62571 0.0
C1172 C 0.46861 0.07977 0.63938 0.0
C1173 C 0.48632 0.08172 0.65172 0.0
C1174 C 0.50969 0.10046 0.65039 0.0
C1175 C 0.60882 0.22194 0.68546 0.0
C1176 C 0.6029 0.20993 0.70224 0.0
C1177 C 0.59978 0.20964 0.66862 0.0
C1178 C 0.5859 0.1848 0.66806 0.0
C1179 C 0.58071 0.17291 0.68507 0.0
C1180 C 0.58814 0.18543 0.70194 0.0
C1181 C 0.57499 0.17109 0.65031 0.0
C1182 C 0.55159 0.15163 0.65077 0.0
C1183 C 0.58675 0.1767 0.63301 0.0
C1184 C 0.61064 0.19739 0.63032 0.0
C1185 C 0.63108 0.19843 0.63812 0.0
C1186 C 0.65361 0.21779 0.63477 0.0
C1187 C 0.65583 0.2362 0.62381 0.0
C1188 C 0.63554 0.2352 0.61593 0.0
C1189 C 0.61303 0.21579 0.61903 0.0
H1190 H 0.67328 0.25116 0.6213 0.0
H1191 H 0.45054 0.06524 0.64042 0.0
H1192 H 0.42606 0.51261 0.74164 0.0
H1193 H 0.41446 0.52741 0.76844 0.0
H1194 H 0.47675 0.59607 0.76243 0.0
H1195 H 0.48854 0.58129 0.7356 0.0
H1196 H 0.4714 0.58401 0.79763 0.0
H1197 H 0.42065 0.58548 0.74983 0.0
H1198 H 0.39134 0.57005 0.72388 0.0
H1199 H 0.33957 0.51742 0.75913 0.0
H1200 H 0.36865 0.53231 0.78522 0.0
H1201 H 0.42998 0.63861 0.8626 0.0
H1202 H 0.44275 0.62864 0.83373 0.0
H1203 H 0.38744 0.55599 0.83845 0.0
H1204 H 0.37458 0.56566 0.86725 0.0
H1205 H 0.39029 0.57337 0.80292 0.0
H1206 H 0.44253 0.571 0.85004 0.0
H1207 H 0.47177 0.58735 0.87596 0.0
H1208 H 0.52098 0.64308 0.84144 0.0
H1209 H 0.49185 0.62725 0.81538 0.0
C1210 C 0.43716 0.53093 0.74589 0.0
C1211 C 0.45817 0.54581 0.73644 0.0
C1212 C 0.4305 0.53938 0.76122 0.0
C1213 C 0.44454 0.56296 0.76731 0.0
C1214 C 0.46562 0.57783 0.75798 0.0
C1215 C 0.47236 0.56934 0.74268 0.0
C1216 C 0.4375 0.57184 0.78371 0.0
C1217 C 0.4538 0.58206 0.79863 0.0
C1218 C 0.41441 0.569 0.78516 0.0
C1219 C 0.39691 0.5599 0.76945 0.0
C1220 C 0.40308 0.57049 0.75201 0.0
C1221 C 0.3865 0.56186 0.73728 0.0
C1222 C 0.36363 0.54274 0.73986 0.0
C1223 C 0.3573 0.53222 0.75716 0.0
C1224 C 0.37381 0.54076 0.77192 0.0
C1225 C 0.42048 0.62051 0.85748 0.0
C1226 C 0.40128 0.60293 0.8673 0.0
C1227 C 0.42785 0.61485 0.84101 0.0
C1228 C 0.4161 0.59156 0.83402 0.0
C1229 C 0.39673 0.57408 0.84361 0.0
C1230 C 0.38949 0.57965 0.86013 0.0
C1231 C 0.42407 0.58521 0.81682 0.0
C1232 C 0.40794 0.57549 0.80178 0.0
C1233 C 0.44734 0.58864 0.8152 0.0
C1234 C 0.46491 0.5981 0.83083 0.0
C1235 C 0.4595 0.58686 0.84802 0.0
C1236 C 0.47607 0.59601 0.86273 0.0
C1237 C 0.49819 0.61628 0.86037 0.0
C1238 C 0.50382 0.62741 0.84327 0.0
C1239 C 0.48729 0.61835 0.82852 0.0
H1240 H 0.511 0.62334 0.87177 0.0
H1241 H 0.35079 0.53611 0.72848 0.0
H1242 H 0.9587 0.49824 0.92273 0.0
H1243 H 0.93264 0.48396 0.94946 0.0
H1244 H 0.8721 0.44271 0.9129 0.0
H1245 H 0.89805 0.45777 0.8861 0.0
H1246 H 0.85866 0.46 0.93909 0.0
H1247 H 0.90145 0.41808 0.93756 0.0
H1248 H 0.93684 0.41328 0.93647 0.0
H1249 H 0.96261 0.45151 0.98817 0.0
H1250 H 0.92751 0.45682 0.98945 0.0
H1251 H 0.8181 0.37732 0.02562 0.0
H1252 H 0.83996 0.39149 0.99695 0.0
H1253 H 0.8373 0.45588 0.00255 0.0
H1254 H 0.81446 0.44128 0.03087 0.0
H1255 H 0.88107 0.42536 0.99091 0.0
H1256 H 0.84143 0.48073 0.96095 0.0
H1257 H 0.8031 0.48029 0.95998 0.0
H1258 H 0.7654 0.40536 0.96769 0.0
H1259 H 0.80346 0.40531 0.96846 0.0
C1260 C 0.93981 0.48617 0.92044 0.0
C1261 C 0.93038 0.47897 0.90239 0.0
C1262 C 0.92493 0.47795 0.93571 0.0
C1263 C 0.90042 0.46185 0.93327 0.0
C1264 C 0.89091 0.45508 0.91518 0.0
C1265 C 0.90574 0.46365 0.89988 0.0
C1266 C 0.88484 0.45168 0.94955 0.0
C1267 C 0.86356 0.45242 0.95042 0.0
C1268 C 0.89088 0.44127 0.96419 0.0
C1269 C 0.91196 0.43803 0.96351 0.0
C1270 C 0.91475 0.4256 0.94864 0.0
C1271 C 0.93474 0.42277 0.94799 0.0
C1272 C 0.95199 0.43213 0.96221 0.0
C1273 C 0.94925 0.44429 0.97714 0.0
C1274 C 0.9293 0.44721 0.97785 0.0
C1275 C 0.82194 0.3944 0.02064 0.0
C1276 C 0.81449 0.40815 0.0305 0.0
C1277 C 0.83452 0.40253 0.00426 0.0
C1278 C 0.84023 0.42473 0.99744 0.0
C1279 C 0.83272 0.43849 0.00724 0.0
C1280 C 0.81972 0.43016 0.02349 0.0
C1281 C 0.85489 0.43375 0.98055 0.0
C1282 C 0.87609 0.43289 0.97959 0.0
C1283 C 0.84833 0.44327 0.96556 0.0
C1284 C 0.82532 0.44308 0.96496 0.0
C1285 C 0.82495 0.46415 0.96238 0.0
C1286 C 0.80328 0.46399 0.96187 0.0
C1287 C 0.78184 0.44282 0.96384 0.0
C1288 C 0.78203 0.42176 0.96625 0.0
C1289 C 0.80364 0.42182 0.96674 0.0
H1290 H 0.76508 0.44273 0.96345 0.0
H1291 H 0.96746 0.42992 0.96169 0.0
H1292 H 0.43665 0.93301 0.07094 0.0
H1293 H 0.42418 0.9069 0.09741 0.0
H1294 H 0.49465 0.91569 0.10221 0.0
H1295 H 0.50689 0.94076 0.07511 0.0
H1296 H 0.46281 0.87138 0.10689 0.0
H1297 H 0.47498 0.9453 0.13134 0.0
H1298 H 0.46933 0.97985 0.13311 0.0
H1299 H 0.39451 0.93438 0.14192 0.0
H1300 H 0.39966 0.89952 0.13996 0.0
H1301 H 0.46365 0.83868 0.19972 0.0
H1302 H 0.47064 0.86059 0.1712 0.0
H1303 H 0.39596 0.83891 0.16699 0.0
H1304 H 0.38866 0.81673 0.19564 0.0
H1305 H 0.42664 0.8875 0.16132 0.0
H1306 H 0.4161 0.81359 0.139 0.0
H1307 H 0.42327 0.77997 0.13829 0.0
H1308 H 0.497 0.82673 0.12648 0.0
H1309 H 0.49035 0.86071 0.12739 0.0
C1310 C 0.44944 0.92916 0.07744 0.0
C1311 C 0.47284 0.9391 0.07086 0.0
C1312 C 0.44234 0.91443 0.09276 0.0
C1313 C 0.45856 0.90958 0.10202 0.0
C1314 C 0.48182 0.91923 0.09536 0.0
C1315 C 0.48888 0.9338 0.07996 0.0
C1316 C 0.45138 0.89445 0.11862 0.0
C1317 C 0.45513 0.87508 0.11885 0.0
C1318 C 0.4408 0.89886 0.1341 0.0
C1319 C 0.43766 0.91979 0.1353 0.0
C1320 C 0.45729 0.94266 0.13351 0.0
C1321 C 0.45418 0.9623 0.13457 0.0
C1322 C 0.43156 0.95931 0.13757 0.0
C1323 C 0.41201 0.93667 0.13956 0.0
C1324 C 0.41501 0.91697 0.13849 0.0
C1325 C 0.44862 0.83847 0.19277 0.0
C1326 C 0.42555 0.82585 0.2 0.0
C1327 C 0.45267 0.85096 0.1764 0.0
C1328 C 0.43379 0.85121 0.16691 0.0
C1329 C 0.41076 0.83886 0.1741 0.0
C1330 C 0.40662 0.82613 0.19043 0.0
C1331 C 0.43838 0.86473 0.14961 0.0
C1332 C 0.43414 0.88375 0.14927 0.0
C1333 C 0.44873 0.86015 0.13411 0.0
C1334 C 0.45276 0.83973 0.13341 0.0
C1335 C 0.43388 0.81674 0.13639 0.0
C1336 C 0.43785 0.79761 0.13593 0.0
C1337 C 0.46059 0.80122 0.13238 0.0
C1338 C 0.4794 0.82397 0.12924 0.0
C1339 C 0.47553 0.84316 0.1297 0.0
H1340 H 0.46362 0.78639 0.13203 0.0
H1341 H 0.42919 0.97454 0.13839 0.0
H1342 H 0.56791 0.46736 0.21979 0.0
H1343 H 0.57905 0.45368 0.24773 0.0
H1344 H 0.54992 0.48728 0.28187 0.0
H1345 H 0.53839 0.50061 0.25403 0.0
H1346 H 0.59896 0.49756 0.29111 0.0
H1347 H 0.5188 0.43236 0.27831 0.0
H1348 H 0.48783 0.40079 0.25839 0.0
H1349 H 0.53134 0.36868 0.25289 0.0
H1350 H 0.56274 0.40027 0.27257 0.0
H1351 H 0.60383 0.45998 0.37976 0.0
H1352 H 0.58989 0.46829 0.35093 0.0
H1353 H 0.59744 0.41383 0.32286 0.0
H1354 H 0.60988 0.40435 0.35225 0.0
H1355 H 0.56113 0.41352 0.30873 0.0
H1356 H 0.64058 0.47542 0.3207 0.0
H1357 H 0.67429 0.50692 0.33872 0.0
H1358 H 0.63698 0.54556 0.34307 0.0
H1359 H 0.60289 0.51414 0.32528 0.0
C1360 C 0.56387 0.47175 0.23328 0.0
C1361 C 0.55227 0.48499 0.2348 0.0
C1362 C 0.57014 0.46388 0.24917 0.0
C1363 C 0.56523 0.46944 0.26681 0.0
C1364 C 0.5538 0.48278 0.26835 0.0
C1365 C 0.54715 0.49028 0.25249 0.0
C1366 C 0.57249 0.46189 0.28373 0.0
C1367 C 0.59055 0.47923 0.29512 0.0
C1368 C 0.56218 0.43788 0.28844 0.0
C1369 C 0.54322 0.41882 0.27674 0.0
C1370 C 0.52186 0.41869 0.27271 0.0
C1371 C 0.5042 0.40076 0.2615 0.0
C1372 C 0.50764 0.38278 0.25433 0.0
C1373 C 0.52871 0.38264 0.25842 0.0
C1374 C 0.54643 0.40054 0.26962 0.0
C1375 C 0.60227 0.44958 0.36752 0.0
C1376 C 0.60807 0.43161 0.36823 0.0
C1377 C 0.59449 0.45449 0.35095 0.0
C1378 C 0.59335 0.44226 0.33449 0.0
C1379 C 0.59834 0.42368 0.3353 0.0
C1380 C 0.60544 0.41826 0.35208 0.0
C1381 C 0.58742 0.44929 0.31651 0.0
C1382 C 0.5697 0.43188 0.3048 0.0
C1383 C 0.59853 0.47326 0.31121 0.0
C1384 C 0.6191 0.49233 0.32177 0.0
C1385 C 0.6395 0.49058 0.32558 0.0
C1386 C 0.65869 0.50842 0.33575 0.0
C1387 C 0.65776 0.5282 0.34207 0.0
C1388 C 0.63767 0.53022 0.33818 0.0
C1389 C 0.61842 0.51241 0.32803 0.0
H1390 H 0.67262 0.54199 0.34995 0.0
H1391 H 0.49395 0.36892 0.24565 0.0
H1392 H 0.41006 0.92641 0.41124 0.0
H1393 H 0.40261 0.90275 0.38265 0.0
H1394 H 0.4781 0.92918 0.37804 0.0
H1395 H 0.48559 0.95259 0.40663 0.0
H1396 H 0.4545 0.93075 0.34455 0.0
H1397 H 0.44697 0.87704 0.39308 0.0
H1398 H 0.43008 0.8551 0.42171 0.0
H1399 H 0.36009 0.82068 0.39649 0.0
H1400 H 0.37654 0.84269 0.36778 0.0
H1401 H 0.42447 0.80835 0.29786 0.0
H1402 H 0.43599 0.836 0.32414 0.0
H1403 H 0.41309 0.87753 0.29325 0.0
H1404 H 0.40442 0.85142 0.26634 0.0
H1405 H 0.40994 0.84326 0.34463 0.0
H1406 H 0.42651 0.92396 0.30789 0.0
H1407 H 0.44558 0.94821 0.28056 0.0
H1408 H 0.50124 0.93086 0.28407 0.0
H1409 H 0.48211 0.90614 0.31132 0.0
C1410 C 0.42501 0.92716 0.40407 0.0
C1411 C 0.44838 0.94121 0.41114 0.0
C1412 C 0.42075 0.91363 0.38782 0.0
C1413 C 0.43982 0.91422 0.3783 0.0
C1414 C 0.46317 0.92851 0.38521 0.0
C1415 C 0.4674 0.94173 0.40156 0.0
C1416 C 0.43558 0.89992 0.36115 0.0
C1417 C 0.44476 0.9116 0.34453 0.0
C1418 C 0.42283 0.875 0.36115 0.0
C1419 C 0.41294 0.8617 0.37837 0.0
C1420 C 0.42795 0.86495 0.3937 0.0
C1421 C 0.41846 0.85247 0.40993 0.0
C1422 C 0.39401 0.83656 0.41094 0.0
C1423 C 0.37901 0.83304 0.3957 0.0
C1424 C 0.38841 0.84551 0.37945 0.0
C1425 C 0.42333 0.8242 0.29637 0.0
C1426 C 0.41484 0.82847 0.27976 0.0
C1427 C 0.42939 0.83977 0.31154 0.0
C1428 C 0.42597 0.85938 0.31075 0.0
C1429 C 0.41707 0.86338 0.29416 0.0
C1430 C 0.41179 0.84822 0.27879 0.0
C1431 C 0.42947 0.874 0.32782 0.0
C1432 C 0.41982 0.86239 0.34451 0.0
C1433 C 0.44181 0.89903 0.32791 0.0
C1434 C 0.45268 0.91282 0.3112 0.0
C1435 C 0.44268 0.92514 0.30266 0.0
C1436 C 0.45344 0.93891 0.28721 0.0
C1437 C 0.47446 0.94083 0.28045 0.0
C1438 C 0.48476 0.92902 0.28916 0.0
C1439 C 0.47387 0.91498 0.30447 0.0
H1440 H 0.48287 0.95161 0.26857 0.0
H1441 H 0.38671 0.8269 0.42352 0.0
H1442 H 0.51046 0.46742 0.56123 0.0
H1443 H 0.52588 0.45699 0.53417 0.0
H1444 H 0.56337 0.43357 0.57004 0.0
H1445 H 0.548 0.44397 0.59716 0.0
H1446 H 0.59201 0.4617 0.54483 0.0
H1447 H 0.51434 0.39407 0.54411 0.0
H1448 H 0.47039 0.37215 0.54444 0.0
H1449 H 0.46785 0.40411 0.49349 0.0
H1450 H 0.5118 0.42649 0.49299 0.0
H1451 H 0.63119 0.42 0.46729 0.0
H1452 H 0.61715 0.42728 0.49631 0.0
H1453 H 0.56505 0.43748 0.46617 0.0
H1454 H 0.57687 0.42646 0.43742 0.0
H1455 H 0.54368 0.41264 0.49114 0.0
H1456 H 0.62236 0.49476 0.50855 0.0
H1457 H 0.66547 0.51889 0.51596 0.0
H1458 H 0.66562 0.45802 0.53726 0.0
H1459 H 0.62225 0.43399 0.53112 0.0
C1460 C 0.52163 0.45965 0.56335 0.0
C1461 C 0.52806 0.4566 0.58136 0.0
C1462 C 0.53044 0.45368 0.54786 0.0
C1463 C 0.54566 0.44433 0.55005 0.0
C1464 C 0.5517 0.44081 0.568 0.0
C1465 C 0.54297 0.44684 0.58349 0.0
C1466 C 0.55655 0.43972 0.53368 0.0
C1467 C 0.58144 0.45084 0.53308 0.0
C1468 C 0.54284 0.42561 0.51838 0.0
C1469 C 0.51638 0.41211 0.5186 0.0
C1470 C 0.50442 0.39656 0.53305 0.0
C1471 C 0.4795 0.38403 0.53325 0.0
C1472 C 0.46634 0.38677 0.51902 0.0
C1473 C 0.47807 0.40202 0.50452 0.0
C1474 C 0.50298 0.41461 0.50426 0.0
C1475 C 0.61702 0.42424 0.46694 0.0
C1476 C 0.60528 0.42301 0.45016 0.0
C1477 C 0.60923 0.42893 0.48364 0.0
C1478 C 0.59029 0.43369 0.48384 0.0
C1479 C 0.57954 0.43372 0.46672 0.0
C1480 C 0.58641 0.42765 0.45019 0.0
C1481 C 0.57957 0.43581 0.50159 0.0
C1482 C 0.55447 0.42386 0.50264 0.0
C1483 C 0.59312 0.44907 0.51742 0.0
C1484 C 0.61941 0.46235 0.51847 0.0
C1485 C 0.63173 0.48646 0.51444 0.0
C1486 C 0.65608 0.50021 0.51878 0.0
C1487 C 0.66836 0.4899 0.52672 0.0
C1488 C 0.65619 0.46592 0.53082 0.0
C1489 C 0.6317 0.4523 0.52711 0.0
H1490 H 0.68726 0.50054 0.52987 0.0
H1491 H 0.44705 0.37705 0.5192 0.0
H1492 H 0.1142 0.55286 0.75989 0.0
H1493 H 0.13972 0.56454 0.73292 0.0
H1494 H 0.08341 0.56354 0.6997 0.0
H1495 H 0.05729 0.55051 0.72632 0.0
H1496 H 0.1033 0.54472 0.68059 0.0
H1497 H 0.13239 0.61601 0.71633 0.0
H1498 H 0.14767 0.64173 0.74424 0.0
H1499 H 0.20871 0.63235 0.74619 0.0
H1500 H 0.19363 0.6063 0.71842 0.0
H1501 H 0.20759 0.63764 0.62222 0.0
H1502 H 0.18296 0.62802 0.64973 0.0
H1503 H 0.17221 0.55743 0.6482 0.0
H1504 H 0.19629 0.56666 0.62053 0.0
H1505 H 0.18499 0.61425 0.68387 0.0
H1506 H 0.11585 0.51856 0.66028 0.0
H1507 H 0.09972 0.49576 0.63104 0.0
H1508 H 0.11603 0.55922 0.60261 0.0
H1509 H 0.13181 0.58231 0.63173 0.0
C1510 C 0.10709 0.55481 0.74681 0.0
C1511 C 0.08364 0.55077 0.74536 0.0
C1512 C 0.12185 0.56181 0.73142 0.0
C1513 C 0.11366 0.5653 0.71431 0.0
C1514 C 0.0902 0.56107 0.71276 0.0
C1515 C 0.07535 0.55386 0.72809 0.0
C1516 C 0.12943 0.57314 0.69797 0.0
C1517 C 0.12115 0.55992 0.68135 0.0
C1518 C 0.15258 0.59329 0.69874 0.0
C1519 C 0.16177 0.60904 0.71539 0.0
C1520 C 0.14899 0.6193 0.72279 0.0
C1521 C 0.15763 0.63396 0.73857 0.0
C1522 C 0.17912 0.63863 0.74701 0.0
C1523 C 0.19205 0.6287 0.73965 0.0
C1524 C 0.18348 0.614 0.72388 0.0
C1525 C 0.20013 0.6201 0.6278 0.0
C1526 C 0.20376 0.60286 0.61902 0.0
C1527 C 0.18609 0.61466 0.64356 0.0
C1528 C 0.17543 0.5919 0.65086 0.0
C1529 C 0.17986 0.57498 0.6426 0.0
C1530 C 0.19372 0.58033 0.62679 0.0
C1531 C 0.159 0.58555 0.66669 0.0
C1532 C 0.16714 0.59904 0.68317 0.0
C1533 C 0.13547 0.56606 0.66563 0.0
C1534 C 0.12523 0.55218 0.64817 0.0
C1535 C 0.11583 0.52762 0.64782 0.0
C1536 C 0.10677 0.51465 0.63126 0.0
C1537 C 0.10692 0.52605 0.61497 0.0
C1538 C 0.11598 0.55042 0.61522 0.0
C1539 C 0.12498 0.56345 0.63175 0.0
H1540 H 0.09998 0.516 0.60215 0.0
H1541 H 0.18577 0.64998 0.75923 0.0
H1542 H 0.57911 0.09203 0.91186 0.0
H1543 H 0.59216 0.11737 0.88491 0.0
H1544 H 0.53126 0.12715 0.88928 0.0
H1545 H 0.51811 0.10182 0.91636 0.0
H1546 H 0.53767 0.11865 0.85399 0.0
H1547 H 0.58642 0.17091 0.9028 0.0
H1548 H 0.61409 0.18405 0.92976 0.0
H1549 H 0.66714 0.18072 0.89681 0.0
H1550 H 0.63966 0.16721 0.8697 0.0
H1551 H 0.58327 0.2128 0.78925 0.0
H1552 H 0.5687 0.19057 0.81779 0.0
H1553 H 0.62449 0.17288 0.81597 0.0
H1554 H 0.63919 0.19499 0.78753 0.0
H1555 H 0.61958 0.18741 0.85085 0.0
H1556 H 0.56942 0.13303 0.80254 0.0
H1557 H 0.54156 0.12021 0.77571 0.0
H1558 H 0.49088 0.12837 0.80814 0.0
H1559 H 0.51861 0.14159 0.83511 0.0
C1560 C 0.56862 0.09978 0.90723 0.0
C1561 C 0.54763 0.09499 0.91634 0.0
C1562 C 0.57609 0.11424 0.8918 0.0
C1563 C 0.56286 0.12441 0.88521 0.0
C1564 C 0.54176 0.1195 0.89413 0.0
C1565 C 0.53424 0.10497 0.90957 0.0
C1566 C 0.57094 0.1399 0.86885 0.0
C1567 C 0.55544 0.13392 0.85343 0.0
C1568 C 0.59425 0.15963 0.868 0.0
C1569 C 0.61089 0.16784 0.88425 0.0
C1570 C 0.60392 0.1728 0.90133 0.0
C1571 C 0.61958 0.18034 0.91664 0.0
C1572 C 0.64234 0.18317 0.91501 0.0
C1573 C 0.6495 0.1785 0.89805 0.0
C1574 C 0.63389 0.17092 0.88271 0.0
C1575 C 0.59249 0.20424 0.79493 0.0
C1576 C 0.6124 0.20567 0.78603 0.0
C1577 C 0.58409 0.19148 0.81122 0.0
C1578 C 0.59545 0.17997 0.81893 0.0
C1579 C 0.61548 0.18165 0.81025 0.0
C1580 C 0.6238 0.19424 0.79394 0.0
C1581 C 0.58642 0.16596 0.83596 0.0
C1582 C 0.60175 0.17224 0.8515 0.0
C1583 C 0.56293 0.1466 0.83695 0.0
C1584 C 0.5462 0.13856 0.82078 0.0
C1585 C 0.55242 0.13229 0.8039 0.0
C1586 C 0.53664 0.12492 0.78868 0.0
C1587 C 0.51449 0.12355 0.7902 0.0
C1588 C 0.50806 0.12948 0.80697 0.0
C1589 C 0.5238 0.13691 0.82223 0.0
H1590 H 0.50229 0.11782 0.7784 0.0
H1591 H 0.65444 0.18901 0.92688 0.0
H1592 H 0.46197 0.58108 0.09186 0.0
H1593 H 0.44836 0.59268 0.06433 0.0
H1594 H 0.49503 0.57937 0.03057 0.0
H1595 H 0.50837 0.56717 0.05796 0.0
H1596 H 0.49649 0.62143 0.02216 0.0
H1597 H 0.43752 0.54011 0.03072 0.0
H1598 H 0.40762 0.50581 0.04777 0.0
H1599 H 0.3662 0.53984 0.05545 0.0
H1600 H 0.39607 0.57454 0.0387 0.0
H1601 H 0.44768 0.62421 0.93444 0.0
H1602 H 0.46268 0.61346 0.96181 0.0
H1603 H 0.40729 0.61364 0.99449 0.0
H1604 H 0.39166 0.62309 0.96686 0.0
H1605 H 0.41077 0.57884 0.00412 0.0
H1606 H 0.46871 0.65971 0.99613 0.0
H1607 H 0.49822 0.69486 0.97965 0.0
H1608 H 0.54115 0.66262 0.97107 0.0
H1609 H 0.51173 0.62713 0.9873 0.0
C1610 C 0.46922 0.5804 0.07858 0.0
C1611 C 0.48617 0.57302 0.07715 0.0
C1612 C 0.46148 0.58715 0.06286 0.0
C1613 C 0.47053 0.58668 0.04539 0.0
C1614 C 0.48786 0.57989 0.04394 0.0
C1615 C 0.49553 0.57302 0.05964 0.0
C1616 C 0.46161 0.5929 0.0286 0.0
C1617 C 0.47781 0.61186 0.01796 0.0
C1618 C 0.43713 0.58086 0.02349 0.0
C1619 C 0.41921 0.56006 0.03366 0.0
C1620 C 0.42217 0.5404 0.03622 0.0
C1621 C 0.4052 0.52086 0.04579 0.0
C1622 C 0.38507 0.52068 0.05275 0.0
C1623 C 0.38184 0.54003 0.0501 0.0
C1624 C 0.39878 0.55963 0.04056 0.0
C1625 C 0.43871 0.62175 0.94749 0.0
C1626 C 0.41825 0.62382 0.94858 0.0
C1627 C 0.44739 0.61587 0.96317 0.0
C1628 C 0.43638 0.61308 0.98038 0.0
C1629 C 0.4161 0.6156 0.98143 0.0
C1630 C 0.40714 0.62095 0.96567 0.0
C1631 C 0.44564 0.60709 0.99723 0.0
C1632 C 0.42949 0.58826 0.00802 0.0
C1633 C 0.47013 0.61933 0.0025 0.0
C1634 C 0.4879 0.64067 0.99278 0.0
C1635 C 0.48436 0.66005 0.99062 0.0
C1636 C 0.50108 0.68004 0.98134 0.0
C1637 C 0.52152 0.68095 0.97428 0.0
C1638 C 0.5253 0.66188 0.97653 0.0
C1639 C 0.50862 0.64183 0.98578 0.0
H1640 H 0.53444 0.69644 0.9671 0.0
H1641 H 0.37193 0.50553 0.06014 0.0
H1642 H 0.92316 0.52948 0.24265 0.0
H1643 H 0.90043 0.51442 0.21343 0.0
H1644 H 0.91315 0.4557 0.21394 0.0
H1645 H 0.93619 0.47084 0.24284 0.0
H1646 H 0.92175 0.47599 0.18049 0.0
H1647 H 0.85949 0.44816 0.22533 0.0
H1648 H 0.83706 0.45226 0.25108 0.0
H1649 H 0.82179 0.49767 0.21834 0.0
H1650 H 0.84444 0.4941 0.19247 0.0
H1651 H 0.80008 0.39625 0.12998 0.0
H1652 H 0.82843 0.41276 0.15613 0.0
H1653 H 0.87192 0.47512 0.12478 0.0
H1654 H 0.84477 0.45755 0.09803 0.0
H1655 H 0.83728 0.45526 0.17273 0.0
H1656 H 0.91125 0.48908 0.13116 0.0
H1657 H 0.93839 0.48586 0.10922 0.0
H1658 H 0.9342 0.42792 0.1396 0.0
H1659 H 0.90572 0.42986 0.16097 0.0
C1660 C 0.92115 0.5134 0.23648 0.0
C1661 C 0.93141 0.50131 0.24508 0.0
C1662 C 0.90802 0.50473 0.21988 0.0
C1663 C 0.90498 0.48386 0.21158 0.0
C1664 C 0.91524 0.47182 0.22012 0.0
C1665 C 0.92825 0.48039 0.23672 0.0
C1666 C 0.89157 0.47469 0.19377 0.0
C1667 C 0.90324 0.47144 0.17878 0.0
C1668 C 0.86754 0.46894 0.19152 0.0
C1669 C 0.85389 0.47108 0.20704 0.0
C1670 C 0.85153 0.45919 0.22368 0.0
C1671 C 0.83874 0.46138 0.23829 0.0
C1672 C 0.82807 0.47528 0.23637 0.0
C1673 C 0.83011 0.48695 0.21982 0.0
C1674 C 0.84291 0.48484 0.20518 0.0
C1675 C 0.81644 0.41286 0.12835 0.0
C1676 C 0.82093 0.42506 0.11169 0.0
C1677 C 0.83251 0.42244 0.14335 0.0
C1678 C 0.85299 0.44484 0.14225 0.0
C1679 C 0.85722 0.45728 0.12569 0.0
C1680 C 0.84142 0.4474 0.1105 0.0
C1681 C 0.86741 0.45635 0.15935 0.0
C1682 C 0.85585 0.46002 0.17433 0.0
C1683 C 0.89158 0.4624 0.16163 0.0
C1684 C 0.90532 0.45879 0.14704 0.0
C1685 C 0.91509 0.47487 0.13257 0.0
C1686 C 0.93097 0.47346 0.12037 0.0
C1687 C 0.93788 0.45657 0.12291 0.0
C1688 C 0.92873 0.4409 0.13756 0.0
C1689 C 0.91238 0.44187 0.1495 0.0
H1690 H 0.9504 0.4557 0.11359 0.0
H1691 H 0.81817 0.47695 0.2477 0.0
loop_
_geom_bond_atom_site_label_1
_geom_bond_atom_site_label_2
_geom_bond_distance
_geom_bond_site_symmetry_2
_ccdc_geom_bond_type
C0 C1 1.384 . S
C0 C2 1.384 . S
C0 H28 0.931 . S
C1 C0 1.384 . S
C1 C4 1.382 . S
C2 C0 1.384 . S
C2 C3 1.381 . S
C2 H29 0.930 . S
C3 C2 1.381 . S
C3 C5 1.381 . S
C3 C6 1.487 . S
C4 C1 1.382 . S
C4 C5 1.387 . S
C4 H30 0.930 . S
C5 C3 1.381 . S
C5 C4 1.387 . S
C5 H31 0.931 . S
C6 C3 1.487 . S
C6 C13 1.399 . S
C6 N44 1.343 . S
C7 C8 1.384 . S
C7 C9 1.384 . S
C7 H32 0.931 . S
C8 C7 1.384 . S
C8 C11 1.382 . S
C9 C7 1.384 . S
C9 C10 1.381 . S
C9 H33 0.930 . S
C10 C9 1.381 . S
C10 C12 1.381 . S
C10 C13 1.487 . S
C11 C8 1.382 . S
C11 C12 1.387 . S
C11 H34 0.930 . S
C12 C10 1.381 . S
C12 C11 1.387 . S
C12 H35 0.931 . S
C13 C6 1.399 . S
C13 C10 1.487 . S
C13 N45 1.343 1_655 S
C14 C15 1.384 . S
C14 C16 1.384 . S
C14 H36 0.931 . S
C15 C14 1.384 . S
C15 C18 1.382 . S
C16 C14 1.384 . S
C16 C17 1.381 . S
C16 H37 0.930 . S
C17 C16 1.381 . S
C17 C19 1.381 . S
C17 C20 1.487 . S
C18 C15 1.382 . S
C18 C19 1.387 . S
C18 H38 0.930 . S
C19 C17 1.381 . S
C19 C18 1.387 . S
C19 H39 0.931 . S
C20 C17 1.487 . S
C20 C27 1.399 . S
C20 N45 1.343 . S
C21 C22 1.384 . S
C21 C23 1.384 . S
C21 H40 0.931 . S
C22 C21 1.384 . S
C22 C25 1.382 . S
C23 C21 1.384 . S
C23 C24 1.381 . S
C23 H41 0.930 . S
C24 C23 1.381 . S
C24 C26 1.381 . S
C24 C27 1.487 . S
C25 C22 1.382 . S
C25 C26 1.387 . S
C25 H42 0.930 . S
C26 C24 1.381 . S
C26 C25 1.387 . S
C26 H43 0.931 . S
C27 C20 1.399 . S
C27 C24 1.487 . S
C27 N44 1.343 1_455 S
H28 C0 0.931 . S
H29 C2 0.930 . S
H30 C4 0.930 . S
H31 C5 0.931 . S
H32 C7 0.931 . S
H33 C9 0.930 . S
H34 C11 0.930 . S
H35 C12 0.931 . S
H36 C14 0.931 . S
H37 C16 0.930 . S
H38 C18 0.930 . S
H39 C19 0.931 . S
H40 C21 0.931 . S
H41 C23 0.930 . S
H42 C25 0.930 . S
H43 C26 0.931 . S
N44 C6 1.343 . S
N44 C27 1.343 1_655 S
N45 C13 1.343 1_455 S
N45 C20 1.343 . S
C46 C47 1.384 . S
C46 C48 1.384 . S
C46 H74 0.931 . S
C47 C46 1.384 . S
C47 C50 1.382 . S
C48 C46 1.384 . S
C48 C49 1.381 . S
C48 H75 0.930 . S
C49 C48 1.381 . S
C49 C51 1.381 . S
C49 C52 1.487 . S
C50 C47 1.382 . S
C50 C51 1.387 . S
C50 H76 0.930 . S
C51 C49 1.381 . S
C51 C50 1.387 . S
C51 H77 0.931 . S
C52 C49 1.487 . S
C52 C59 1.399 1_565 S
C52 N90 1.343 1_565 S
C53 C54 1.384 . S
C53 C55 1.384 . S
C53 H78 0.931 . S
C54 C53 1.384 . S
C54 C57 1.382 . S
C55 C53 1.384 . S
C55 C56 1.381 . S
C55 H79 0.930 . S
C56 C55 1.381 . S
C56 C58 1.381 . S
C56 C59 1.487 1_565 S
C57 C54 1.382 . S
C57 C58 1.387 . S
C57 H80 0.930 . S
C58 C56 1.381 . S
C58 C57 1.387 . S
C58 H81 0.931 1_565 S
C59 C52 1.399 1_545 S
C59 C56 1.487 1_545 S
C59 N91 1.343 . S
C60 C61 1.384 . S
C60 C62 1.384 . S
C60 H82 0.931 . S
C61 C60 1.384 . S
C61 C64 1.382 . S
C62 C60 1.384 . S
C62 C63 1.381 . S
C62 H83 0.930 . S
C63 C62 1.381 . S
C63 C65 1.381 . S
C63 C66 1.487 . S
C64 C61 1.382 . S
C64 C65 1.387 . S
C64 H84 0.930 . S
C65 C63 1.381 . S
C65 C64 1.387 . S
C65 H85 0.931 . S
C66 C63 1.487 . S
C66 C73 1.399 . S
C66 N91 1.343 . S
C67 C68 1.384 . S
C67 C69 1.384 . S
C67 H86 0.931 . S
C68 C67 1.384 . S
C68 C71 1.382 . S
C69 C67 1.384 . S
C69 C70 1.381 . S
C69 H87 0.930 . S
C70 C69 1.381 . S
C70 C72 1.381 . S
C70 C73 1.487 . S
C71 C68 1.382 . S
C71 C72 1.387 . S
C71 H88 0.930 . S
C72 C70 1.381 . S
C72 C71 1.387 . S
C72 H89 0.931 . S
C73 C66 1.399 . S
C73 C70 1.487 . S
C73 N90 1.343 . S
H74 C46 0.931 . S
H75 C48 0.930 . S
H76 C50 0.930 . S
H77 C51 0.931 . S
H78 C53 0.931 . S
H79 C55 0.930 . S
H80 C57 0.930 . S
H81 C58 0.931 1_545 S
H82 C60 0.931 . S
H83 C62 0.930 . S
H84 C64 0.930 . S
H85 C65 0.931 . S
H86 C67 0.931 . S
H87 C69 0.930 . S
H88 C71 0.930 . S
H89 C72 0.931 . S
N90 C52 1.343 1_545 S
N90 C73 1.343 . S
N91 C59 1.343 . S
N91 C66 1.343 . S
C92 C93 1.384 . S
C92 C94 1.384 . S
C92 H120 0.931 . S
C93 C92 1.384 . S
C93 C96 1.382 . S
C94 C92 1.384 . S
C94 C95 1.381 . S
C94 H121 0.930 . S
C95 C94 1.381 . S
C95 C97 1.381 . S
C95 C98 1.487 . S
C96 C93 1.382 . S
C96 C97 1.387 . S
C96 H122 0.930 . S
C97 C95 1.381 . S
C97 C96 1.387 . S
C97 H123 0.931 . S
C98 C95 1.487 . S
C98 C105 1.399 . S
C98 N136 1.343 . S
C99 C100 1.384 . S
C99 C101 1.384 . S
C99 H124 0.931 . S
C100 C99 1.384 . S
C100 C103 1.382 . S
C101 C99 1.384 . S
C101 C102 1.381 . S
C101 H125 0.930 . S
C102 C101 1.381 . S
C102 C104 1.381 . S
C102 C105 1.487 . S
C103 C100 1.382 . S
C103 C104 1.387 . S
C103 H126 0.930 . S
C104 C102 1.381 . S
C104 C103 1.387 . S
C104 H127 0.931 . S
C105 C98 1.399 . S
C105 C102 1.487 . S
C105 N137 1.343 . S
C106 C107 1.384 . S
C106 C108 1.384 . S
C106 H128 0.931 . S
C107 C106 1.384 . S
C107 C110 1.382 . S
C108 C106 1.384 . S
C108 C109 1.381 . S
C108 H129 0.930 . S
C109 C108 1.381 . S
C109 C111 1.381 . S
C109 C112 1.487 . S
C110 C107 1.382 . S
C110 C111 1.387 . S
C110 H130 0.930 . S
C111 C109 1.381 . S
C111 C110 1.387 . S
C111 H131 0.931 . S
C112 C109 1.487 . S
C112 C119 1.399 . S
C112 N137 1.343 . S
C113 C114 1.384 . S
C113 C115 1.384 . S
C113 H132 0.931 . S
C114 C113 1.384 . S
C114 C117 1.382 . S
C115 C113 1.384 . S
C115 C116 1.381 . S
C115 H133 0.930 . S
C116 C115 1.381 . S
C116 C118 1.381 . S
C116 C119 1.487 . S
C117 C114 1.382 . S
C117 C118 1.387 . S
C117 H134 0.930 . S
C118 C116 1.381 . S
C118 C117 1.387 . S
C118 H135 0.931 . S
C119 C112 1.399 . S
C119 C116 1.487 . S
C119 N136 1.343 . S
H120 C92 0.931 . S
H121 C94 0.930 . S
H122 C96 0.930 . S
H123 C97 0.931 . S
H124 C99 0.931 . S
H125 C101 0.930 . S
H126 C103 0.930 . S
H127 C104 0.931 . S
H128 C106 0.931 . S
H129 C108 0.930 . S
H130 C110 0.930 . S
H131 C111 0.931 . S
H132 C113 0.931 . S
H133 C115 0.930 . S
H134 C117 0.930 . S
H135 C118 0.931 . S
N136 C98 1.343 . S
N136 C119 1.343 . S
N137 C105 1.343 . S
N137 C112 1.343 . S
C138 C139 1.384 . S
C138 C140 1.384 . S
C138 H166 0.931 . S
C139 C138 1.384 . S
C139 C142 1.382 . S
C140 C138 1.384 . S
C140 C141 1.381 . S
C140 H167 0.930 . S
C141 C140 1.381 . S
C141 C143 1.381 . S
C141 C144 1.487 . S
C142 C139 1.382 . S
C142 C143 1.387 . S
C142 H168 0.930 . S
C143 C141 1.381 . S
C143 C142 1.387 . S
C143 H169 0.931 . S
C144 C141 1.487 . S
C144 C151 1.399 . S
C144 N182 1.343 . S
C145 C146 1.384 . S
C145 C147 1.384 . S
C145 H170 0.931 . S
C146 C145 1.384 . S
C146 C149 1.382 . S
C147 C145 1.384 . S
C147 C148 1.381 . S
C147 H171 0.930 . S
C148 C147 1.381 . S
C148 C150 1.381 . S
C148 C151 1.487 . S
C149 C146 1.382 . S
C149 C150 1.387 . S
C149 H172 0.930 . S
C150 C148 1.381 . S
C150 C149 1.387 . S
C150 H173 0.931 . S
C151 C144 1.399 . S
C151 C148 1.487 . S
C151 N183 1.343 1_655 S
C152 C153 1.384 . S
C152 C154 1.384 . S
C152 H174 0.931 . S
C153 C152 1.384 . S
C153 C156 1.382 . S
C154 C152 1.384 . S
C154 C155 1.381 . S
C154 H175 0.930 . S
C155 C154 1.381 . S
C155 C157 1.381 . S
C155 C158 1.487 . S
C156 C153 1.382 . S
C156 C157 1.387 . S
C156 H176 0.930 . S
C157 C155 1.381 . S
C157 C156 1.387 . S
C157 H177 0.931 . S
C158 C155 1.487 . S
C158 C165 1.399 . S
C158 N183 1.343 . S
C159 C160 1.384 . S
C159 C161 1.384 . S
C159 H178 0.931 . S
C160 C159 1.384 . S
C160 C163 1.382 . S
C161 C159 1.384 . S
C161 C162 1.381 . S
C161 H179 0.930 . S
C162 C161 1.381 . S
C162 C164 1.381 . S
C162 C165 1.487 . S
C163 C160 1.382 . S
C163 C164 1.387 . S
C163 H180 0.930 . S
C164 C162 1.381 . S
C164 C163 1.387 . S
C164 H181 0.931 . S
C165 C158 1.399 . S
C165 C162 1.487 . S
C165 N182 1.343 1_455 S
H166 C138 0.931 . S
H167 C140 0.930 . S
H168 C142 0.930 . S
H169 C143 0.931 . S
H170 C145 0.931 . S
H171 C147 0.930 . S
H172 C149 0.930 . S
H173 C150 0.931 . S
H174 C152 0.931 . S
H175 C154 0.930 . S
H176 C156 0.930 . S
H177 C157 0.931 . S
H178 C159 0.931 . S
H179 C161 0.930 . S
H180 C163 0.930 . S
H181 C164 0.931 . S
N182 C144 1.343 . S
N182 C165 1.343 1_655 S
N183 C151 1.343 1_455 S
N183 C158 1.343 . S
C184 C185 1.384 . S
C184 C186 1.384 . S
C184 H212 0.931 . S
C185 C184 1.384 . S
C185 C188 1.382 . S
C186 C184 1.384 . S
C186 C187 1.381 . S
C186 H213 0.937 . S
C187 C186 1.381 . S
C187 C189 1.381 . S
C187 C190 1.487 . S
C188 C185 1.382 . S
C188 C189 1.387 . S
C188 H214 0.930 . S
C189 C187 1.381 . S
C189 C188 1.387 . S
C189 H215 0.931 . S
C190 C187 1.487 . S
C190 C197 1.399 1_566 S
C190 N228 1.343 1_565 S
C191 C192 1.384 . S
C191 C193 1.384 . S
C191 H216 0.931 . S
C192 C191 1.384 . S
C192 C195 1.382 . S
C193 C191 1.384 . S
C193 C194 1.381 . S
C193 H217 0.930 . S
C194 C193 1.381 . S
C194 C196 1.381 . S
C194 C197 1.487 1_565 S
C195 C192 1.382 . S
C195 C196 1.387 . S
C195 H218 0.930 . S
C196 C194 1.381 . S
C196 C195 1.387 . S
C196 H219 0.931 1_565 S
C197 C190 1.399 1_544 S
C197 C194 1.487 1_545 S
C197 N229 1.343 . S
C198 C199 1.384 . S
C198 C200 1.384 1_554 S
C198 H220 0.931 1_554 S
C199 C198 1.384 . S
C199 C202 1.382 . S
C200 C198 1.384 1_556 S
C200 C201 1.381 1_556 S
C200 H221 0.930 . S
C201 C200 1.381 1_554 S
C201 C203 1.381 . S
C201 C204 1.487 1_554 S
C202 C199 1.382 . S
C202 C203 1.387 . S
C202 H222 0.930 . S
C203 C201 1.381 . S
C203 C202 1.387 . S
C203 H223 0.931 . S
C204 C201 1.487 1_556 S
C204 C211 1.399 . S
C204 N229 1.343 1_556 S
C205 C206 1.384 . S
C205 C207 1.384 . S
C205 H224 0.931 . S
C206 C205 1.384 . S
C206 C209 1.382 . S
C207 C205 1.384 . S
C207 C208 1.381 . S
C207 H225 0.930 . S
C208 C207 1.381 . S
C208 C210 1.381 . S
C208 C211 1.487 . S
C209 C206 1.382 . S
C209 C210 1.387 . S
C209 H226 0.930 . S
C210 C208 1.381 . S
C210 C209 1.387 . S
C210 H227 0.931 . S
C211 C204 1.399 . S
C211 C208 1.487 . S
C211 N228 1.343 . S
H212 C184 0.931 . S
H213 C186 0.937 . S
H214 C188 0.930 . S
H215 C189 0.931 . S
H216 C191 0.931 . S
H217 C193 0.930 . S
H218 C195 0.930 . S
H219 C196 0.931 1_545 S
H220 C198 0.931 1_556 S
H221 C200 0.930 . S
H222 C202 0.930 . S
H223 C203 0.931 . S
H224 C205 0.931 . S
H225 C207 0.930 . S
H226 C209 0.930 . S
H227 C210 0.931 . S
N228 C190 1.343 1_545 S
N228 C211 1.343 . S
N229 C197 1.343 . S
N229 C204 1.343 1_554 S
C230 C231 1.384 . S
C230 C232 1.384 . S
C230 H258 0.931 . S
C231 C230 1.384 . S
C231 C234 1.382 . S
C232 C230 1.384 . S
C232 C233 1.381 . S
C232 H259 0.930 . S
C233 C232 1.381 . S
C233 C235 1.381 . S
C233 C236 1.487 . S
C234 C231 1.382 . S
C234 C235 1.387 . S
C234 H260 0.930 . S
C235 C233 1.381 . S
C235 C234 1.387 . S
C235 H261 0.931 . S
C236 C233 1.487 . S
C236 C243 1.399 . S
C236 N274 1.343 . S
C237 C238 1.384 . S
C237 C239 1.384 . S
C237 H262 0.931 . S
C238 C237 1.384 . S
C238 C241 1.382 . S
C239 C237 1.384 . S
C239 C240 1.381 . S
C239 H263 0.930 . S
C240 C239 1.381 . S
C240 C242 1.381 . S
C240 C243 1.487 . S
C241 C238 1.382 . S
C241 C242 1.387 . S
C241 H264 0.930 . S
C242 C240 1.381 . S
C242 C241 1.387 . S
C242 H265 0.931 . S
C243 C236 1.399 . S
C243 C240 1.487 . S
C243 N275 1.343 . S
C244 C245 1.384 . S
C244 C246 1.384 . S
C244 H266 0.931 . S
C245 C244 1.384 . S
C245 C248 1.382 . S
C246 C244 1.384 . S
C246 C247 1.381 . S
C246 H267 0.930 . S
C247 C246 1.381 . S
C247 C249 1.381 . S
C247 C250 1.487 . S
C248 C245 1.382 . S
C248 C249 1.387 . S
C248 H268 0.930 . S
C249 C247 1.381 . S
C249 C248 1.387 . S
C249 H269 0.931 . S
C250 C247 1.487 . S
C250 C257 1.399 . S
C250 N275 1.343 . S
C251 C252 1.384 . S
C251 C253 1.384 . S
C251 H270 0.931 . S
C252 C251 1.384 . S
C252 C255 1.382 . S
C253 C251 1.384 . S
C253 C254 1.381 . S
C253 H271 0.930 . S
C254 C253 1.381 . S
C254 C256 1.381 . S
C254 C257 1.487 . S
C255 C252 1.382 . S
C255 C256 1.387 . S
C255 H272 0.930 . S
C256 C254 1.381 . S
C256 C255 1.387 . S
C256 H273 0.931 . S
C257 C250 1.399 . S
C257 C254 1.487 . S
C257 N274 1.343 . S
H258 C230 0.931 . S
H259 C232 0.930 . S
H260 C234 0.930 . S
H261 C235 0.931 . S
H262 C237 0.931 . S
H263 C239 0.930 . S
H264 C241 0.930 . S
H265 C242 0.931 . S
H266 C244 0.931 . S
H267 C246 0.930 . S
H268 C248 0.930 . S
H269 C249 0.931 . S
H270 C251 0.931 . S
H271 C253 0.930 . S
H272 C255 0.930 . S
H273 C256 0.931 . S
N274 C236 1.343 . S
N274 C257 1.343 . S
N275 C243 1.343 . S
N275 C250 1.343 . S
Mn276 O281 2.095 . S
Mn276 O291 2.162 . S
Mn276 O292 2.297 . S
Mn276 O300 2.385 . S
Mn276 O301 2.209 . S
Mn276 O302 2.094 . S
Mn277 O282 2.121 . S
Mn277 N284 2.257 . S
Mn277 N293 2.282 . S
Mn277 O301 2.215 . S
Mn277 O303 2.117 . S
C278 O300 1.234 . S
C278 O301 1.283 . S
C279 O291 1.281 . S
C279 O292 1.236 . S
C280 O302 1.240 . S
C280 O303 1.264 . S
O281 Mn276 2.095 . S
O281 C290 1.250 . S
O282 Mn277 2.121 . S
O282 C290 1.258 . S
C283 N284 1.326 . S
C283 C287 1.460 . S
C283 H289 0.929 . S
N284 Mn277 2.257 . S
N284 C283 1.326 . S
N284 C288 1.362 . S
C285 C286 1.258 . S
C285 C288 1.431 . S
C285 C305 1.449 . S
C286 C285 1.258 . S
C286 C287 1.477 . S
C286 H306 0.931 . S
C287 C283 1.460 . S
C287 C286 1.477 . S
C287 H307 0.930 . S
C288 N284 1.362 . S
C288 C285 1.431 . S
C288 C298 1.476 . S
H289 C283 0.929 . S
C290 O281 1.250 . S
C290 O282 1.258 . S
O291 Mn276 2.162 . S
O291 C279 1.281 . S
O292 Mn276 2.297 . S
O292 C279 1.236 . S
N293 Mn277 2.282 . S
N293 C294 1.328 . S
N293 C298 1.318 . S
C294 N293 1.328 . S
C294 C295 1.457 . S
C294 H299 0.929 . S
C295 C294 1.457 . S
C295 C296 1.291 . S
C295 H308 0.931 . S
C296 C295 1.291 . S
C296 C297 1.373 . S
C296 H309 0.929 . S
C297 C296 1.373 . S
C297 C298 1.396 . S
C297 C304 1.403 . S
C298 C288 1.476 . S
C298 N293 1.318 . S
C298 C297 1.396 . S
H299 C294 0.929 . S
O300 Mn276 2.385 . S
O300 C278 1.234 . S
O301 Mn276 2.209 . S
O301 Mn277 2.215 . S
O301 C278 1.283 . S
O302 Mn276 2.094 . S
O302 C280 1.240 . S
O303 Mn277 2.117 . S
O303 C280 1.264 . S
C304 C297 1.403 . S
C304 C305 1.399 . S
C304 H310 0.929 . S
C305 C285 1.449 . S
C305 C304 1.399 . S
C305 H311 0.930 . S
H306 C286 0.931 . S
H307 C287 0.930 . S
H308 C295 0.931 . S
H309 C296 0.929 . S
H310 C304 0.929 . S
H311 C305 0.930 . S
Mn312 O317 2.095 . S
Mn312 O327 2.162 . S
Mn312 O328 2.297 . S
Mn312 O336 2.385 . S
Mn312 O337 2.209 . S
Mn312 O338 2.094 . S
Mn313 O318 2.121 . S
Mn313 N320 2.257 . S
Mn313 N329 2.282 . S
Mn313 O337 2.215 . S
Mn313 O339 2.117 . S
C314 O336 1.234 . S
C314 O337 1.283 . S
C315 O327 1.281 . S
C315 O328 1.236 . S
C316 O338 1.240 . S
C316 O339 1.264 . S
O317 Mn312 2.095 . S
O317 C326 1.250 . S
O318 Mn313 2.121 . S
O318 C326 1.258 . S
C319 N320 1.326 . S
C319 C323 1.460 . S
C319 H325 0.929 . S
N320 Mn313 2.257 . S
N320 C319 1.326 . S
N320 C324 1.362 . S
C321 C322 1.258 . S
C321 C324 1.431 . S
C321 C341 1.449 . S
C322 C321 1.258 . S
C322 C323 1.477 . S
C322 H342 0.931 . S
C323 C319 1.460 . S
C323 C322 1.477 . S
C323 H343 0.930 . S
C324 N320 1.362 . S
C324 C321 1.431 . S
C324 C334 1.476 . S
H325 C319 0.929 . S
C326 O317 1.250 . S
C326 O318 1.258 . S
O327 Mn312 2.162 . S
O327 C315 1.281 . S
O328 Mn312 2.297 . S
O328 C315 1.236 . S
N329 Mn313 2.282 . S
N329 C330 1.328 . S
N329 C334 1.318 . S
C330 N329 1.328 . S
C330 C331 1.457 . S
C330 H335 0.929 . S
C331 C330 1.457 . S
C331 C332 1.291 . S
C331 H344 0.931 . S
C332 C331 1.291 . S
C332 C333 1.373 . S
C332 H345 0.929 . S
C333 C332 1.373 . S
C333 C334 1.396 . S
C333 C340 1.403 . S
C334 C324 1.476 . S
C334 N329 1.318 . S
C334 C333 1.396 . S
H335 C330 0.929 . S
O336 Mn312 2.385 . S
O336 C314 1.234 . S
O337 Mn312 2.209 . S
O337 Mn313 2.215 . S
O337 C314 1.283 . S
O338 Mn312 2.094 . S
O338 C316 1.240 . S
O339 Mn313 2.117 . S
O339 C316 1.264 . S
C340 C333 1.403 . S
C340 C341 1.399 . S
C340 H346 0.929 . S
C341 C321 1.449 . S
C341 C340 1.399 . S
C341 H347 0.930 . S
H342 C322 0.931 . S
H343 C323 0.930 . S
H344 C331 0.931 . S
H345 C332 0.929 . S
H346 C340 0.929 . S
H347 C341 0.930 . S
Mn348 O353 2.095 . S
Mn348 O363 2.162 . S
Mn348 O364 2.297 . S
Mn348 O372 2.385 . S
Mn348 O373 2.209 . S
Mn348 O374 2.094 . S
Mn349 O354 2.121 . S
Mn349 N356 2.257 . S
Mn349 N365 2.282 . S
Mn349 O373 2.215 . S
Mn349 O375 2.117 . S
C350 O372 1.234 . S
C350 O373 1.283 . S
C351 O363 1.281 . S
C351 O364 1.236 . S
C352 O374 1.240 . S
C352 O375 1.264 . S
O353 Mn348 2.095 . S
O353 C362 1.250 . S
O354 Mn349 2.121 . S
O354 C362 1.258 . S
C355 N356 1.326 . S
C355 C359 1.460 . S
C355 H361 0.929 . S
N356 Mn349 2.257 . S
N356 C355 1.326 . S
N356 C360 1.362 . S
C357 C358 1.258 . S
C357 C360 1.431 . S
C357 C377 1.449 . S
C358 C357 1.258 . S
C358 C359 1.477 . S
C358 H378 0.931 . S
C359 C355 1.460 . S
C359 C358 1.477 . S
C359 H379 0.930 . S
C360 N356 1.362 . S
C360 C357 1.431 . S
C360 C370 1.476 . S
H361 C355 0.929 . S
C362 O353 1.250 . S
C362 O354 1.258 . S
O363 Mn348 2.162 . S
O363 C351 1.281 . S
O364 Mn348 2.297 . S
O364 C351 1.236 . S
N365 Mn349 2.282 . S
N365 C366 1.328 . S
N365 C370 1.318 . S
C366 N365 1.328 . S
C366 C367 1.457 . S
C366 H371 0.929 . S
C367 C366 1.457 . S
C367 C368 1.291 . S
C367 H380 0.931 . S
C368 C367 1.291 . S
C368 C369 1.373 . S
C368 H381 0.929 . S
C369 C368 1.373 . S
C369 C370 1.396 . S
C369 C376 1.403 . S
C370 C360 1.476 . S
C370 N365 1.318 . S
C370 C369 1.396 . S
H371 C366 0.929 . S
O372 Mn348 2.385 . S
O372 C350 1.234 . S
O373 Mn348 2.209 . S
O373 Mn349 2.215 . S
O373 C350 1.283 . S
O374 Mn348 2.094 . S
O374 C352 1.240 . S
O375 Mn349 2.117 . S
O375 C352 1.264 . S
C376 C369 1.403 . S
C376 C377 1.399 . S
C376 H382 0.929 . S
C377 C357 1.449 . S
C377 C376 1.399 . S
C377 H383 0.930 . S
H378 C358 0.931 . S
H379 C359 0.930 . S
H380 C367 0.931 . S
H381 C368 0.929 . S
H382 C376 0.929 . S
H383 C377 0.930 . S
Mn384 O389 2.095 . S
Mn384 O399 2.162 . S
Mn384 O400 2.297 . S
Mn384 O408 2.385 . S
Mn384 O409 2.209 . S
Mn384 O410 2.094 . S
Mn385 O390 2.121 . S
Mn385 N392 2.257 . S
Mn385 N401 2.282 . S
Mn385 O409 2.215 . S
Mn385 O411 2.117 . S
C386 O408 1.234 . S
C386 O409 1.283 . S
C387 O399 1.281 . S
C387 O400 1.236 . S
C388 O410 1.240 . S
C388 O411 1.264 . S
O389 Mn384 2.095 . S
O389 C398 1.250 . S
O390 Mn385 2.121 . S
O390 C398 1.258 . S
C391 N392 1.326 . S
C391 C395 1.460 . S
C391 H397 0.929 . S
N392 Mn385 2.257 . S
N392 C391 1.326 . S
N392 C396 1.362 . S
C393 C394 1.258 . S
C393 C396 1.431 . S
C393 C413 1.449 . S
C394 C393 1.258 . S
C394 C395 1.477 . S
C394 H414 0.931 . S
C395 C391 1.460 . S
C395 C394 1.477 . S
C395 H415 0.930 . S
C396 N392 1.362 . S
C396 C393 1.431 . S
C396 C406 1.476 . S
H397 C391 0.929 . S
C398 O389 1.250 . S
C398 O390 1.258 . S
O399 Mn384 2.162 . S
O399 C387 1.281 . S
O400 Mn384 2.297 . S
O400 C387 1.236 . S
N401 Mn385 2.282 . S
N401 C402 1.328 . S
N401 C406 1.318 . S
C402 N401 1.328 . S
C402 C403 1.457 . S
C402 H407 0.929 . S
C403 C402 1.457 . S
C403 C404 1.291 . S
C403 H416 0.931 . S
C404 C403 1.291 . S
C404 C405 1.373 . S
C404 H417 0.929 . S
C405 C404 1.373 . S
C405 C406 1.396 . S
C405 C412 1.403 . S
C406 C396 1.476 . S
C406 N401 1.318 . S
C406 C405 1.396 . S
H407 C402 0.929 . S
O408 Mn384 2.385 . S
O408 C386 1.234 . S
O409 Mn384 2.209 . S
O409 Mn385 2.215 . S
O409 C386 1.283 . S
O410 Mn384 2.094 . S
O410 C388 1.240 . S
O411 Mn385 2.117 . S
O411 C388 1.264 . S
C412 C405 1.403 . S
C412 C413 1.399 . S
C412 H418 0.929 . S
C413 C393 1.449 . S
C413 C412 1.399 . S
C413 H419 0.930 . S
H414 C394 0.931 . S
H415 C395 0.930 . S
H416 C403 0.931 . S
H417 C404 0.929 . S
H418 C412 0.929 . S
H419 C413 0.930 . S
Mn420 O425 2.095 . S
Mn420 O435 2.162 . S
Mn420 O436 2.297 . S
Mn420 O444 2.385 . S
Mn420 O445 2.209 . S
Mn420 O446 2.094 . S
Mn421 O426 2.121 . S
Mn421 N428 2.257 . S
Mn421 N437 2.282 . S
Mn421 O445 2.215 . S
Mn421 O447 2.117 . S
C422 O444 1.234 . S
C422 O445 1.283 . S
C423 O435 1.281 . S
C423 O436 1.236 . S
C424 O446 1.240 . S
C424 O447 1.264 . S
O425 Mn420 2.095 . S
O425 C434 1.250 . S
O426 Mn421 2.121 . S
O426 C434 1.258 . S
C427 N428 1.326 . S
C427 C431 1.460 . S
C427 H433 0.929 . S
N428 Mn421 2.257 . S
N428 C427 1.326 . S
N428 C432 1.362 . S
C429 C430 1.258 . S
C429 C432 1.431 . S
C429 C449 1.449 . S
C430 C429 1.258 . S
C430 C431 1.477 . S
C430 H450 0.931 . S
C431 C427 1.460 . S
C431 C430 1.477 . S
C431 H451 0.930 . S
C432 N428 1.362 . S
C432 C429 1.431 . S
C432 C442 1.476 . S
H433 C427 0.929 . S
C434 O425 1.250 . S
C434 O426 1.258 . S
O435 Mn420 2.162 . S
O435 C423 1.281 . S
O436 Mn420 2.297 . S
O436 C423 1.236 . S
N437 Mn421 2.282 . S
N437 C438 1.328 . S
N437 C442 1.318 . S
C438 N437 1.328 . S
C438 C439 1.457 . S
C438 H443 0.929 . S
C439 C438 1.457 . S
C439 C440 1.291 . S
C439 H452 0.931 . S
C440 C439 1.291 . S
C440 C441 1.373 . S
C440 H453 0.929 . S
C441 C440 1.373 . S
C441 C442 1.396 . S
C441 C448 1.403 . S
C442 C432 1.476 . S
C442 N437 1.318 . S
C442 C441 1.396 . S
H443 C438 0.929 . S
O444 Mn420 2.385 . S
O444 C422 1.234 . S
O445 Mn420 2.209 . S
O445 Mn421 2.215 . S
O445 C422 1.283 . S
O446 Mn420 2.094 . S
O446 C424 1.240 . S
O447 Mn421 2.117 . S
O447 C424 1.264 . S
C448 C441 1.403 . S
C448 C449 1.399 . S
C448 H454 0.929 . S
C449 C429 1.449 . S
C449 C448 1.399 . S
C449 H455 0.930 . S
H450 C430 0.931 . S
H451 C431 0.930 . S
H452 C439 0.931 . S
H453 C440 0.929 . S
H454 C448 0.929 . S
H455 C449 0.930 . S
Mn456 O461 2.095 . S
Mn456 O471 2.162 . S
Mn456 O472 2.297 . S
Mn456 O480 2.385 . S
Mn456 O481 2.209 . S
Mn456 O482 2.094 . S
Mn457 O462 2.121 . S
Mn457 N464 2.257 . S
Mn457 N473 2.282 . S
Mn457 O481 2.215 . S
Mn457 O483 2.117 . S
C458 O480 1.234 . S
C458 O481 1.283 . S
C459 O471 1.281 . S
C459 O472 1.236 . S
C460 O482 1.240 . S
C460 O483 1.264 . S
O461 Mn456 2.095 . S
O461 C470 1.250 . S
O462 Mn457 2.121 . S
O462 C470 1.258 . S
C463 N464 1.326 . S
C463 C467 1.460 . S
C463 H469 0.929 . S
N464 Mn457 2.257 . S
N464 C463 1.326 . S
N464 C468 1.362 . S
C465 C466 1.258 . S
C465 C468 1.431 . S
C465 C485 1.449 . S
C466 C465 1.258 . S
C466 C467 1.477 . S
C466 H486 0.931 . S
C467 C463 1.460 . S
C467 C466 1.477 . S
C467 H487 0.930 . S
C468 N464 1.362 . S
C468 C465 1.431 . S
C468 C478 1.476 . S
H469 C463 0.929 . S
C470 O461 1.250 . S
C470 O462 1.258 . S
O471 Mn456 2.162 . S
O471 C459 1.281 . S
O472 Mn456 2.297 . S
O472 C459 1.236 . S
N473 Mn457 2.282 . S
N473 C474 1.328 . S
N473 C478 1.318 . S
C474 N473 1.328 . S
C474 C475 1.457 . S
C474 H479 0.929 . S
C475 C474 1.457 . S
C475 C476 1.291 . S
C475 H488 0.931 . S
C476 C475 1.291 . S
C476 C477 1.373 . S
C476 H489 0.929 . S
C477 C476 1.373 . S
C477 C478 1.396 . S
C477 C484 1.403 . S
C478 C468 1.476 . S
C478 N473 1.318 . S
C478 C477 1.396 . S
H479 C474 0.929 . S
O480 Mn456 2.385 . S
O480 C458 1.234 . S
O481 Mn456 2.209 . S
O481 Mn457 2.215 . S
O481 C458 1.283 . S
O482 Mn456 2.094 . S
O482 C460 1.240 . S
O483 Mn457 2.117 . S
O483 C460 1.264 . S
C484 C477 1.403 . S
C484 C485 1.399 . S
C484 H490 0.929 . S
C485 C465 1.449 . S
C485 C484 1.399 . S
C485 H491 0.930 . S
H486 C466 0.931 . S
H487 C467 0.930 . S
H488 C475 0.931 . S
H489 C476 0.929 . S
H490 C484 0.929 . S
H491 C485 0.930 . S
H492 C510 0.951 . S
H493 C512 0.951 . S
H494 C514 0.950 . S
H495 C515 0.950 . S
H496 C517 0.950 . S
H497 C520 0.950 . S
H498 C521 0.950 . S
H499 C523 0.950 . S
H500 C524 0.950 . S
H501 C525 0.951 . S
H502 C527 0.951 . S
H503 C529 0.950 . S
H504 C530 0.950 . S
H505 C532 0.950 . S
H506 C535 0.950 . S
H507 C536 0.950 . S
H508 C538 0.950 . S
H509 C539 0.950 . S
C510 H492 0.951 . S
C510 C511 1.366 . S
C510 C512 1.388 . S
C511 C510 1.366 . S
C511 C515 1.385 . S
C512 H493 0.951 . S
C512 C510 1.388 . S
C512 C513 1.366 . S
C513 C512 1.366 . S
C513 C514 1.414 . S
C513 C516 1.499 . S
C514 H494 0.950 . S
C514 C513 1.414 . S
C514 C515 1.374 . S
C515 H495 0.950 . S
C515 C511 1.385 . S
C515 C514 1.374 . S
C516 C513 1.499 . S
C516 C517 1.373 . S
C516 C518 1.389 . S
C517 H496 0.950 . S
C517 C516 1.373 . S
C517 C533 1.377 . S
C518 C516 1.389 . S
C518 C519 1.524 . S
C518 C532 1.377 . S
C519 C518 1.524 . S
C519 C520 1.397 . S
C519 C524 1.363 . S
C520 H497 0.950 . S
C520 C519 1.397 . S
C520 C521 1.334 . S
C521 H498 0.950 . S
C521 C520 1.334 . S
C521 C522 1.287 . S
C522 C521 1.287 . S
C522 C523 1.524 . S
C522 H541 0.913 . S
C523 H499 0.950 . S
C523 C522 1.524 . S
C523 C524 1.415 . S
C524 H500 0.950 . S
C524 C519 1.363 . S
C524 C523 1.415 . S
C525 H501 0.951 . S
C525 C526 1.366 . S
C525 C527 1.388 . S
C526 C525 1.366 . S
C526 C530 1.385 . S
C527 H502 0.951 . S
C527 C525 1.388 . S
C527 C528 1.366 . S
C528 C527 1.366 . S
C528 C529 1.414 . S
C528 C531 1.499 . S
C529 H503 0.950 . S
C529 C528 1.414 . S
C529 C530 1.374 . S
C530 H504 0.950 . S
C530 C526 1.385 . S
C530 C529 1.374 . S
C531 C528 1.499 . S
C531 C532 1.373 . S
C531 C533 1.389 . S
C532 H505 0.950 . S
C532 C518 1.377 . S
C532 C531 1.373 . S
C533 C517 1.377 . S
C533 C531 1.389 . S
C533 C534 1.524 . S
C534 C533 1.524 . S
C534 C535 1.397 . S
C534 C539 1.363 . S
C535 H506 0.950 . S
C535 C534 1.397 . S
C535 C536 1.334 . S
C536 H507 0.950 . S
C536 C535 1.334 . S
C536 C537 1.287 . S
C537 C536 1.287 . S
C537 C538 1.524 . S
C537 H540 0.999 . S
C538 H508 0.950 . S
C538 C537 1.524 . S
C538 C539 1.415 . S
C539 H509 0.950 . S
C539 C534 1.363 . S
C539 C538 1.415 . S
H540 C537 0.999 . S
H541 C522 0.913 . S
H542 C560 0.951 . S
H543 C562 0.951 . S
H544 C564 0.950 . S
H545 C565 0.950 . S
H546 C567 0.950 . S
H547 C570 0.950 . S
H548 C571 0.950 . S
H549 C573 0.950 . S
H550 C574 0.950 . S
H551 C575 0.951 . S
H552 C577 0.951 . S
H553 C579 0.950 . S
H554 C580 0.950 . S
H555 C582 0.950 . S
H556 C585 0.950 . S
H557 C586 0.950 . S
H558 C588 0.950 . S
H559 C589 0.950 . S
C560 H542 0.951 . S
C560 C561 1.366 . S
C560 C562 1.388 . S
C561 C560 1.366 . S
C561 C565 1.385 . S
C562 H543 0.951 . S
C562 C560 1.388 . S
C562 C563 1.366 . S
C563 C562 1.366 . S
C563 C564 1.414 . S
C563 C566 1.499 . S
C564 H544 0.950 . S
C564 C563 1.414 . S
C564 C565 1.374 . S
C565 H545 0.950 . S
C565 C561 1.385 . S
C565 C564 1.374 . S
C566 C563 1.499 . S
C566 C567 1.373 . S
C566 C568 1.389 . S
C567 H546 0.950 . S
C567 C566 1.373 . S
C567 C583 1.377 . S
C568 C566 1.389 . S
C568 C569 1.524 . S
C568 C582 1.377 . S
C569 C568 1.524 . S
C569 C570 1.397 . S
C569 C574 1.363 . S
C570 H547 0.950 . S
C570 C569 1.397 . S
C570 C571 1.334 . S
C571 H548 0.950 . S
C571 C570 1.334 . S
C571 C572 1.287 . S
C572 C571 1.287 . S
C572 C573 1.524 . S
C572 H591 0.913 . S
C573 H549 0.950 . S
C573 C572 1.524 . S
C573 C574 1.415 . S
C574 H550 0.950 . S
C574 C569 1.363 . S
C574 C573 1.415 . S
C575 H551 0.951 . S
C575 C576 1.366 . S
C575 C577 1.388 . S
C576 C575 1.366 . S
C576 C580 1.385 . S
C577 H552 0.951 . S
C577 C575 1.388 . S
C577 C578 1.366 . S
C578 C577 1.366 . S
C578 C579 1.414 . S
C578 C581 1.499 . S
C579 H553 0.950 . S
C579 C578 1.414 . S
C579 C580 1.374 . S
C580 H554 0.950 . S
C580 C576 1.385 . S
C580 C579 1.374 . S
C581 C578 1.499 . S
C581 C582 1.373 . S
C581 C583 1.389 . S
C582 H555 0.950 . S
C582 C568 1.377 . S
C582 C581 1.373 . S
C583 C567 1.377 . S
C583 C581 1.389 . S
C583 C584 1.524 . S
C584 C583 1.524 . S
C584 C585 1.397 . S
C584 C589 1.363 . S
C585 H556 0.950 . S
C585 C584 1.397 . S
C585 C586 1.334 . S
C586 H557 0.950 . S
C586 C585 1.334 . S
C586 C587 1.287 . S
C587 C586 1.287 . S
C587 C588 1.524 . S
C587 H590 0.999 . S
C588 H558 0.950 . S
C588 C587 1.524 . S
C588 C589 1.415 . S
C589 H559 0.950 . S
C589 C584 1.363 . S
C589 C588 1.415 . S
H590 C587 0.999 . S
H591 C572 0.913 . S
H592 C610 0.951 . S
H593 C612 0.951 . S
H594 C614 0.950 . S
H595 C615 0.950 . S
H596 C617 0.950 . S
H597 C620 0.950 . S
H598 C621 0.950 . S
H599 C623 0.950 . S
H600 C624 0.950 . S
H601 C625 0.951 . S
H602 C627 0.951 . S
H603 C629 0.950 . S
H604 C630 0.950 . S
H605 C632 0.950 . S
H606 C635 0.950 . S
H607 C636 0.950 . S
H608 C638 0.950 . S
H609 C639 0.950 . S
C610 H592 0.951 . S
C610 C611 1.366 . S
C610 C612 1.388 . S
C611 C610 1.366 . S
C611 C615 1.385 . S
C612 H593 0.951 . S
C612 C610 1.388 . S
C612 C613 1.366 . S
C613 C612 1.366 . S
C613 C614 1.414 . S
C613 C616 1.499 . S
C614 H594 0.950 . S
C614 C613 1.414 . S
C614 C615 1.374 . S
C615 H595 0.950 . S
C615 C611 1.385 . S
C615 C614 1.374 . S
C616 C613 1.499 . S
C616 C617 1.373 . S
C616 C618 1.389 . S
C617 H596 0.950 . S
C617 C616 1.373 . S
C617 C633 1.377 . S
C618 C616 1.389 . S
C618 C619 1.524 . S
C618 C632 1.377 . S
C619 C618 1.524 . S
C619 C620 1.397 . S
C619 C624 1.363 . S
C620 H597 0.950 . S
C620 C619 1.397 . S
C620 C621 1.334 . S
C621 H598 0.950 . S
C621 C620 1.334 . S
C621 C622 1.287 . S
C622 C621 1.287 . S
C622 C623 1.524 . S
C622 H641 0.913 . S
C623 H599 0.950 . S
C623 C622 1.524 . S
C623 C624 1.415 . S
C624 H600 0.950 . S
C624 C619 1.363 . S
C624 C623 1.415 . S
C625 H601 0.951 . S
C625 C626 1.366 . S
C625 C627 1.388 . S
C626 C625 1.366 . S
C626 C630 1.385 . S
C627 H602 0.951 . S
C627 C625 1.388 . S
C627 C628 1.366 . S
C628 C627 1.366 . S
C628 C629 1.414 . S
C628 C631 1.499 . S
C629 H603 0.950 . S
C629 C628 1.414 . S
C629 C630 1.374 . S
C630 H604 0.950 . S
C630 C626 1.385 . S
C630 C629 1.374 . S
C631 C628 1.499 . S
C631 C632 1.373 . S
C631 C633 1.389 . S
C632 H605 0.950 . S
C632 C618 1.377 . S
C632 C631 1.373 . S
C633 C617 1.377 . S
C633 C631 1.389 . S
C633 C634 1.524 . S
C634 C633 1.524 . S
C634 C635 1.397 . S
C634 C639 1.363 . S
C635 H606 0.950 . S
C635 C634 1.397 . S
C635 C636 1.334 . S
C636 H607 0.950 . S
C636 C635 1.334 . S
C636 C637 1.287 . S
C637 C636 1.287 . S
C637 C638 1.524 . S
C637 H640 0.999 . S
C638 H608 0.950 . S
C638 C637 1.524 . S
C638 C639 1.415 . S
C639 H609 0.950 . S
C639 C634 1.363 . S
C639 C638 1.415 . S
H640 C637 0.999 . S
H641 C622 0.913 . S
H642 C660 0.951 . S
H643 C662 0.951 . S
H644 C664 0.950 . S
H645 C665 0.950 . S
H646 C667 0.950 . S
H647 C670 0.950 . S
H648 C671 0.950 . S
H649 C673 0.950 . S
H650 C674 0.950 . S
H651 C675 0.951 . S
H652 C677 0.951 . S
H653 C679 0.950 . S
H654 C680 0.950 . S
H655 C682 0.950 . S
H656 C685 0.950 . S
H657 C686 0.950 . S
H658 C688 0.950 . S
H659 C689 0.950 . S
C660 H642 0.951 . S
C660 C661 1.366 . S
C660 C662 1.388 . S
C661 C660 1.366 . S
C661 C665 1.385 . S
C662 H643 0.951 . S
C662 C660 1.388 . S
C662 C663 1.366 . S
C663 C662 1.366 . S
C663 C664 1.414 . S
C663 C666 1.499 . S
C664 H644 0.950 . S
C664 C663 1.414 . S
C664 C665 1.374 . S
C665 H645 0.950 . S
C665 C661 1.385 . S
C665 C664 1.374 . S
C666 C663 1.499 . S
C666 C667 1.373 . S
C666 C668 1.389 . S
C667 H646 0.950 . S
C667 C666 1.373 . S
C667 C683 1.377 . S
C668 C666 1.389 . S
C668 C669 1.524 . S
C668 C682 1.377 . S
C669 C668 1.524 . S
C669 C670 1.397 . S
C669 C674 1.363 . S
C670 H647 0.950 . S
C670 C669 1.397 . S
C670 C671 1.334 . S
C671 H648 0.950 . S
C671 C670 1.334 . S
C671 C672 1.287 . S
C672 C671 1.287 . S
C672 C673 1.524 . S
C672 H691 0.913 . S
C673 H649 0.950 . S
C673 C672 1.524 . S
C673 C674 1.415 . S
C674 H650 0.950 . S
C674 C669 1.363 . S
C674 C673 1.415 . S
C675 H651 0.951 . S
C675 C676 1.366 . S
C675 C677 1.388 . S
C676 C675 1.366 . S
C676 C680 1.385 . S
C677 H652 0.951 . S
C677 C675 1.388 . S
C677 C678 1.366 . S
C678 C677 1.366 . S
C678 C679 1.414 . S
C678 C681 1.499 . S
C679 H653 0.950 . S
C679 C678 1.414 . S
C679 C680 1.374 . S
C680 H654 0.950 . S
C680 C676 1.385 . S
C680 C679 1.374 . S
C681 C678 1.499 . S
C681 C682 1.373 . S
C681 C683 1.389 . S
C682 H655 0.950 . S
C682 C668 1.377 . S
C682 C681 1.373 . S
C683 C667 1.377 . S
C683 C681 1.389 . S
C683 C684 1.524 . S
C684 C683 1.524 . S
C684 C685 1.397 . S
C684 C689 1.363 . S
C685 H656 0.950 . S
C685 C684 1.397 . S
C685 C686 1.334 . S
C686 H657 0.950 . S
C686 C685 1.334 . S
C686 C687 1.287 . S
C687 C686 1.287 . S
C687 C688 1.524 . S
C687 H690 0.999 . S
C688 H658 0.950 . S
C688 C687 1.524 . S
C688 C689 1.415 . S
C689 H659 0.950 . S
C689 C684 1.363 . S
C689 C688 1.415 . S
H690 C687 0.999 . S
H691 C672 0.913 . S
H692 C710 0.951 . S
H693 C712 0.951 . S
H694 C714 0.950 . S
H695 C715 0.950 . S
H696 C717 0.950 . S
H697 C720 0.950 . S
H698 C721 0.950 . S
H699 C723 0.950 . S
H700 C724 0.950 . S
H701 C725 0.951 . S
H702 C727 0.951 . S
H703 C729 0.950 . S
H704 C730 0.950 . S
H705 C732 0.950 . S
H706 C735 0.950 . S
H707 C736 0.950 . S
H708 C738 0.950 1_554 S
H709 C739 0.950 . S
C710 H692 0.951 . S
C710 C711 1.366 . S
C710 C712 1.388 . S
C711 C710 1.366 . S
C711 C715 1.385 . S
C712 H693 0.951 . S
C712 C710 1.388 . S
C712 C713 1.366 . S
C713 C712 1.366 . S
C713 C714 1.414 . S
C713 C716 1.499 . S
C714 H694 0.950 . S
C714 C713 1.414 . S
C714 C715 1.374 . S
C715 H695 0.950 . S
C715 C711 1.385 . S
C715 C714 1.374 . S
C716 C713 1.499 . S
C716 C717 1.373 . S
C716 C718 1.389 . S
C717 H696 0.950 . S
C717 C716 1.373 . S
C717 C733 1.377 . S
C718 C716 1.389 . S
C718 C719 1.524 . S
C718 C732 1.377 . S
C719 C718 1.524 . S
C719 C720 1.397 . S
C719 C724 1.363 . S
C720 H697 0.950 . S
C720 C719 1.397 . S
C720 C721 1.334 . S
C721 H698 0.950 . S
C721 C720 1.334 . S
C721 C722 1.287 . S
C722 C721 1.287 . S
C722 C723 1.524 . S
C722 H741 0.913 . S
C723 H699 0.950 . S
C723 C722 1.524 . S
C723 C724 1.415 . S
C724 H700 0.950 . S
C724 C719 1.363 . S
C724 C723 1.415 . S
C725 H701 0.951 . S
C725 C726 1.366 . S
C725 C727 1.388 . S
C726 C725 1.366 . S
C726 C730 1.385 . S
C727 H702 0.951 . S
C727 C725 1.388 . S
C727 C728 1.366 . S
C728 C727 1.366 . S
C728 C729 1.414 . S
C728 C731 1.499 . S
C729 H703 0.950 . S
C729 C728 1.414 . S
C729 C730 1.374 . S
C730 H704 0.950 . S
C730 C726 1.385 . S
C730 C729 1.374 . S
C731 C728 1.499 . S
C731 C732 1.373 . S
C731 C733 1.389 . S
C732 H705 0.950 . S
C732 C718 1.377 . S
C732 C731 1.373 . S
C733 C717 1.377 . S
C733 C731 1.389 . S
C733 C734 1.524 . S
C734 C733 1.524 . S
C734 C735 1.397 . S
C734 C739 1.363 . S
C735 H706 0.950 . S
C735 C734 1.397 . S
C735 C736 1.334 . S
C736 H707 0.950 . S
C736 C735 1.334 . S
C736 C737 1.285 . S
C737 C736 1.285 . S
C737 C738 1.523 . S
C737 H740 1.002 1_556 S
C738 H708 0.950 1_556 S
C738 C737 1.523 . S
C738 C739 1.415 . S
C739 H709 0.950 . S
C739 C734 1.363 . S
C739 C738 1.415 . S
H740 C737 1.002 1_554 S
H741 C722 0.913 . S
H742 C760 0.951 . S
H743 C762 0.951 . S
H744 C764 0.950 . S
H745 C765 0.950 . S
H746 C767 0.950 . S
H747 C770 0.950 . S
H748 C771 0.950 . S
H749 C773 0.950 . S
H750 C774 0.950 . S
H751 C775 0.951 . S
H752 C777 0.951 . S
H753 C779 0.950 . S
H754 C780 0.950 . S
H755 C782 0.950 . S
H756 C785 0.950 . S
H757 C786 0.950 . S
H758 C788 0.950 . S
H759 C789 0.950 . S
C760 H742 0.951 . S
C760 C761 1.366 . S
C760 C762 1.388 . S
C761 C760 1.366 . S
C761 C765 1.385 . S
C762 H743 0.951 . S
C762 C760 1.388 . S
C762 C763 1.366 . S
C763 C762 1.366 . S
C763 C764 1.414 . S
C763 C766 1.499 . S
C764 H744 0.950 . S
C764 C763 1.414 . S
C764 C765 1.374 . S
C765 H745 0.950 . S
C765 C761 1.385 . S
C765 C764 1.374 . S
C766 C763 1.499 . S
C766 C767 1.373 . S
C766 C768 1.389 . S
C767 H746 0.950 . S
C767 C766 1.373 . S
C767 C783 1.377 . S
C768 C766 1.389 . S
C768 C769 1.524 . S
C768 C782 1.377 . S
C769 C768 1.524 . S
C769 C770 1.397 . S
C769 C774 1.363 . S
C770 H747 0.950 . S
C770 C769 1.397 . S
C770 C771 1.334 . S
C771 H748 0.950 . S
C771 C770 1.334 . S
C771 C772 1.287 . S
C772 C771 1.287 . S
C772 C773 1.524 . S
C772 H791 0.913 . S
C773 H749 0.950 . S
C773 C772 1.524 . S
C773 C774 1.415 . S
C774 H750 0.950 . S
C774 C769 1.363 . S
C774 C773 1.415 . S
C775 H751 0.951 . S
C775 C776 1.366 . S
C775 C777 1.388 . S
C776 C775 1.366 . S
C776 C780 1.385 . S
C777 H752 0.951 . S
C777 C775 1.388 . S
C777 C778 1.366 . S
C778 C777 1.366 . S
C778 C779 1.414 . S
C778 C781 1.499 . S
C779 H753 0.950 . S
C779 C778 1.414 . S
C779 C780 1.374 . S
C780 H754 0.950 . S
C780 C776 1.385 . S
C780 C779 1.374 . S
C781 C778 1.499 . S
C781 C782 1.373 . S
C781 C783 1.389 . S
C782 H755 0.950 . S
C782 C768 1.377 . S
C782 C781 1.373 . S
C783 C767 1.377 . S
C783 C781 1.389 . S
C783 C784 1.524 . S
C784 C783 1.524 . S
C784 C785 1.397 . S
C784 C789 1.363 . S
C785 H756 0.950 . S
C785 C784 1.397 . S
C785 C786 1.334 . S
C786 H757 0.950 . S
C786 C785 1.334 . S
C786 C787 1.287 . S
C787 C786 1.287 . S
C787 C788 1.524 . S
C787 H790 0.999 . S
C788 H758 0.950 . S
C788 C787 1.524 . S
C788 C789 1.415 . S
C789 H759 0.950 . S
C789 C784 1.363 . S
C789 C788 1.415 . S
H790 C787 0.999 . S
H791 C772 0.913 . S
H792 C810 0.951 . S
H793 C812 0.951 . S
H794 C814 0.950 . S
H795 C815 0.950 . S
H796 C817 0.950 . S
H797 C820 0.950 . S
H798 C821 0.950 . S
H799 C823 0.950 . S
H800 C824 0.950 . S
H801 C825 0.951 . S
H802 C827 0.951 . S
H803 C829 0.950 . S
H804 C830 0.950 . S
H805 C832 0.950 . S
H806 C835 0.950 . S
H807 C836 0.950 . S
H808 C838 0.950 . S
H809 C839 0.950 . S
C810 H792 0.951 . S
C810 C811 1.366 . S
C810 C812 1.388 . S
C811 C810 1.366 . S
C811 C815 1.385 . S
C812 H793 0.951 . S
C812 C810 1.388 . S
C812 C813 1.366 . S
C813 C812 1.366 . S
C813 C814 1.414 . S
C813 C816 1.499 . S
C814 H794 0.950 . S
C814 C813 1.414 . S
C814 C815 1.374 . S
C815 H795 0.950 . S
C815 C811 1.385 . S
C815 C814 1.374 . S
C816 C813 1.499 . S
C816 C817 1.373 . S
C816 C818 1.389 . S
C817 H796 0.950 . S
C817 C816 1.373 . S
C817 C833 1.377 . S
C818 C816 1.389 . S
C818 C819 1.524 . S
C818 C832 1.377 . S
C819 C818 1.524 . S
C819 C820 1.397 . S
C819 C824 1.363 . S
C820 H797 0.950 . S
C820 C819 1.397 . S
C820 C821 1.334 . S
C821 H798 0.950 . S
C821 C820 1.334 . S
C821 C822 1.287 . S
C822 C821 1.287 . S
C822 C823 1.524 . S
C822 H841 0.913 . S
C823 H799 0.950 . S
C823 C822 1.524 . S
C823 C824 1.415 . S
C824 H800 0.950 . S
C824 C819 1.363 . S
C824 C823 1.415 . S
C825 H801 0.951 . S
C825 C826 1.366 . S
C825 C827 1.388 . S
C826 C825 1.366 . S
C826 C830 1.385 . S
C827 H802 0.951 . S
C827 C825 1.388 . S
C827 C828 1.366 . S
C828 C827 1.366 . S
C828 C829 1.414 . S
C828 C831 1.499 . S
C829 H803 0.950 . S
C829 C828 1.414 . S
C829 C830 1.374 . S
C830 H804 0.950 . S
C830 C826 1.385 . S
C830 C829 1.374 . S
C831 C828 1.499 . S
C831 C832 1.373 . S
C831 C833 1.389 . S
C832 H805 0.950 . S
C832 C818 1.377 . S
C832 C831 1.373 . S
C833 C817 1.377 . S
C833 C831 1.389 . S
C833 C834 1.524 . S
C834 C833 1.524 . S
C834 C835 1.397 . S
C834 C839 1.363 . S
C835 H806 0.950 . S
C835 C834 1.397 . S
C835 C836 1.334 . S
C836 H807 0.950 . S
C836 C835 1.334 . S
C836 C837 1.287 . S
C837 C836 1.287 . S
C837 C838 1.524 . S
C837 H840 0.999 . S
C838 H808 0.950 . S
C838 C837 1.524 . S
C838 C839 1.415 . S
C839 H809 0.950 . S
C839 C834 1.363 . S
C839 C838 1.415 . S
H840 C837 0.999 . S
H841 C822 0.913 . S
H842 C860 0.951 . S
H843 C862 0.951 . S
H844 C864 0.950 . S
H845 C865 0.950 . S
H846 C867 0.950 . S
H847 C870 0.950 . S
H848 C871 0.950 . S
H849 C873 0.950 . S
H850 C874 0.950 . S
H851 C875 0.951 . S
H852 C877 0.951 . S
H853 C879 0.950 . S
H854 C880 0.950 . S
H855 C882 0.950 . S
H856 C885 0.950 . S
H857 C886 0.950 . S
H858 C888 0.950 . S
H859 C889 0.950 . S
C860 H842 0.951 . S
C860 C861 1.366 . S
C860 C862 1.388 . S
C861 C860 1.366 . S
C861 C865 1.385 . S
C862 H843 0.951 . S
C862 C860 1.388 . S
C862 C863 1.366 . S
C863 C862 1.366 . S
C863 C864 1.414 . S
C863 C866 1.499 . S
C864 H844 0.950 . S
C864 C863 1.414 . S
C864 C865 1.374 . S
C865 H845 0.950 . S
C865 C861 1.385 . S
C865 C864 1.374 . S
C866 C863 1.499 . S
C866 C867 1.373 . S
C866 C868 1.389 . S
C867 H846 0.950 . S
C867 C866 1.373 . S
C867 C883 1.377 . S
C868 C866 1.389 . S
C868 C869 1.524 . S
C868 C882 1.377 . S
C869 C868 1.524 . S
C869 C870 1.397 . S
C869 C874 1.363 . S
C870 H847 0.950 . S
C870 C869 1.397 . S
C870 C871 1.334 . S
C871 H848 0.950 . S
C871 C870 1.334 . S
C871 C872 1.287 . S
C872 C871 1.287 . S
C872 C873 1.524 . S
C872 H891 0.913 . S
C873 H849 0.950 . S
C873 C872 1.524 . S
C873 C874 1.415 . S
C874 H850 0.950 . S
C874 C869 1.363 . S
C874 C873 1.415 . S
C875 H851 0.951 . S
C875 C876 1.366 . S
C875 C877 1.388 . S
C876 C875 1.366 . S
C876 C880 1.385 . S
C877 H852 0.951 . S
C877 C875 1.388 . S
C877 C878 1.366 . S
C878 C877 1.366 . S
C878 C879 1.414 . S
C878 C881 1.499 . S
C879 H853 0.950 . S
C879 C878 1.414 . S
C879 C880 1.374 . S
C880 H854 0.950 . S
C880 C876 1.385 . S
C880 C879 1.374 . S
C881 C878 1.499 . S
C881 C882 1.373 . S
C881 C883 1.389 . S
C882 H855 0.950 . S
C882 C868 1.377 . S
C882 C881 1.373 . S
C883 C867 1.377 . S
C883 C881 1.389 . S
C883 C884 1.524 . S
C884 C883 1.524 . S
C884 C885 1.397 . S
C884 C889 1.363 . S
C885 H856 0.950 . S
C885 C884 1.397 . S
C885 C886 1.334 . S
C886 H857 0.950 . S
C886 C885 1.334 . S
C886 C887 1.287 . S
C887 C886 1.287 . S
C887 C888 1.524 . S
C887 H890 0.999 . S
C888 H858 0.950 . S
C888 C887 1.524 . S
C888 C889 1.415 . S
C889 H859 0.950 . S
C889 C884 1.363 . S
C889 C888 1.415 . S
H890 C887 0.999 . S
H891 C872 0.913 . S
H892 C910 0.951 . S
H893 C912 0.951 . S
H894 C914 0.950 . S
H895 C915 0.950 . S
H896 C917 0.950 . S
H897 C920 0.950 . S
H898 C921 0.950 . S
H899 C923 0.950 . S
H900 C924 0.950 . S
H901 C925 0.951 . S
H902 C927 0.951 . S
H903 C929 0.950 . S
H904 C930 0.950 . S
H905 C932 0.950 . S
H906 C935 0.950 . S
H907 C936 0.950 . S
H908 C938 0.950 . S
H909 C939 0.950 . S
C910 H892 0.951 . S
C910 C911 1.366 . S
C910 C912 1.388 . S
C911 C910 1.366 . S
C911 C915 1.385 . S
C912 H893 0.951 . S
C912 C910 1.388 . S
C912 C913 1.366 . S
C913 C912 1.366 . S
C913 C914 1.414 . S
C913 C916 1.499 . S
C914 H894 0.950 . S
C914 C913 1.414 . S
C914 C915 1.374 . S
C915 H895 0.950 . S
C915 C911 1.385 . S
C915 C914 1.374 . S
C916 C913 1.499 . S
C916 C917 1.373 . S
C916 C918 1.389 . S
C917 H896 0.950 . S
C917 C916 1.373 . S
C917 C933 1.377 . S
C918 C916 1.389 . S
C918 C919 1.524 . S
C918 C932 1.377 . S
C919 C918 1.524 . S
C919 C920 1.397 . S
C919 C924 1.363 . S
C920 H897 0.950 . S
C920 C919 1.397 . S
C920 C921 1.334 . S
C921 H898 0.950 . S
C921 C920 1.334 . S
C921 C922 1.287 . S
C922 C921 1.287 . S
C922 C923 1.524 . S
C922 H941 0.913 . S
C923 H899 0.950 . S
C923 C922 1.524 . S
C923 C924 1.415 . S
C924 H900 0.950 . S
C924 C919 1.363 . S
C924 C923 1.415 . S
C925 H901 0.951 . S
C925 C926 1.366 . S
C925 C927 1.388 . S
C926 C925 1.366 . S
C926 C930 1.385 . S
C927 H902 0.951 . S
C927 C925 1.388 . S
C927 C928 1.366 . S
C928 C927 1.366 . S
C928 C929 1.414 . S
C928 C931 1.499 . S
C929 H903 0.950 . S
C929 C928 1.414 . S
C929 C930 1.374 . S
C930 H904 0.950 . S
C930 C926 1.385 . S
C930 C929 1.374 . S
C931 C928 1.499 . S
C931 C932 1.373 . S
C931 C933 1.389 . S
C932 H905 0.950 . S
C932 C918 1.377 . S
C932 C931 1.373 . S
C933 C917 1.377 . S
C933 C931 1.389 . S
C933 C934 1.524 . S
C934 C933 1.524 . S
C934 C935 1.397 . S
C934 C939 1.363 . S
C935 H906 0.950 . S
C935 C934 1.397 . S
C935 C936 1.334 . S
C936 H907 0.950 . S
C936 C935 1.334 . S
C936 C937 1.287 . S
C937 C936 1.287 . S
C937 C938 1.524 . S
C937 H940 0.999 . S
C938 H908 0.950 . S
C938 C937 1.524 . S
C938 C939 1.415 . S
C939 H909 0.950 . S
C939 C934 1.363 . S
C939 C938 1.415 . S
H940 C937 0.999 . S
H941 C922 0.913 . S
H942 C960 0.951 . S
H943 C962 0.951 . S
H944 C964 0.950 . S
H945 C965 0.950 . S
H946 C967 0.950 . S
H947 C970 0.950 . S
H948 C971 0.950 . S
H949 C973 0.950 . S
H950 C974 0.950 . S
H951 C975 0.951 . S
H952 C977 0.951 . S
H953 C979 0.950 . S
H954 C980 0.950 . S
H955 C982 0.950 . S
H956 C985 0.950 . S
H957 C986 0.950 . S
H958 C988 0.950 . S
H959 C989 0.950 . S
C960 H942 0.951 . S
C960 C961 1.366 . S
C960 C962 1.388 . S
C961 C960 1.366 . S
C961 C965 1.385 . S
C962 H943 0.951 . S
C962 C960 1.388 . S
C962 C963 1.366 . S
C963 C962 1.366 . S
C963 C964 1.414 . S
C963 C966 1.499 . S
C964 H944 0.950 . S
C964 C963 1.414 . S
C964 C965 1.374 . S
C965 H945 0.950 . S
C965 C961 1.385 . S
C965 C964 1.374 . S
C966 C963 1.499 . S
C966 C967 1.373 . S
C966 C968 1.389 . S
C967 H946 0.950 . S
C967 C966 1.373 . S
C967 C983 1.377 . S
C968 C966 1.389 . S
C968 C969 1.524 . S
C968 C982 1.377 . S
C969 C968 1.524 . S
C969 C970 1.397 . S
C969 C974 1.363 . S
C970 H947 0.950 . S
C970 C969 1.397 . S
C970 C971 1.334 . S
C971 H948 0.950 . S
C971 C970 1.334 . S
C971 C972 1.287 . S
C972 C971 1.287 . S
C972 C973 1.524 . S
C972 H991 0.913 . S
C973 H949 0.950 . S
C973 C972 1.524 . S
C973 C974 1.415 . S
C974 H950 0.950 . S
C974 C969 1.363 . S
C974 C973 1.415 . S
C975 H951 0.951 . S
C975 C976 1.366 . S
C975 C977 1.388 . S
C976 C975 1.366 . S
C976 C980 1.385 . S
C977 H952 0.951 . S
C977 C975 1.388 . S
C977 C978 1.366 . S
C978 C977 1.366 . S
C978 C979 1.414 . S
C978 C981 1.499 . S
C979 H953 0.950 . S
C979 C978 1.414 . S
C979 C980 1.374 . S
C980 H954 0.950 . S
C980 C976 1.385 . S
C980 C979 1.374 . S
C981 C978 1.499 . S
C981 C982 1.373 . S
C981 C983 1.389 . S
C982 H955 0.950 . S
C982 C968 1.377 . S
C982 C981 1.373 . S
C983 C967 1.377 . S
C983 C981 1.389 . S
C983 C984 1.524 . S
C984 C983 1.524 . S
C984 C985 1.397 . S
C984 C989 1.363 . S
C985 H956 0.950 . S
C985 C984 1.397 . S
C985 C986 1.334 . S
C986 H957 0.950 . S
C986 C985 1.334 . S
C986 C987 1.287 . S
C987 C986 1.287 . S
C987 C988 1.524 . S
C987 H990 0.999 . S
C988 H958 0.950 . S
C988 C987 1.524 . S
C988 C989 1.415 . S
C989 H959 0.950 . S
C989 C984 1.363 . S
C989 C988 1.415 . S
H990 C987 0.999 . S
H991 C972 0.913 . S
H992 C1010 0.951 . S
H993 C1012 0.951 . S
H994 C1014 0.950 . S
H995 C1015 0.950 . S
H996 C1017 0.950 . S
H997 C1020 0.950 . S
H998 C1021 0.950 . S
H999 C1023 0.950 . S
H1000 C1024 0.950 . S
H1001 C1025 0.951 . S
H1002 C1027 0.951 . S
H1003 C1029 0.950 . S
H1004 C1030 0.950 . S
H1005 C1032 0.950 . S
H1006 C1035 0.950 . S
H1007 C1036 0.950 . S
H1008 C1038 0.950 . S
H1009 C1039 0.950 . S
C1010 H992 0.951 . S
C1010 C1011 1.366 . S
C1010 C1012 1.388 . S
C1011 C1010 1.366 . S
C1011 C1015 1.385 . S
C1012 H993 0.951 . S
C1012 C1010 1.388 . S
C1012 C1013 1.366 . S
C1013 C1012 1.366 . S
C1013 C1014 1.414 . S
C1013 C1016 1.499 . S
C1014 H994 0.950 . S
C1014 C1013 1.414 . S
C1014 C1015 1.374 . S
C1015 H995 0.950 . S
C1015 C1011 1.385 . S
C1015 C1014 1.374 . S
C1016 C1013 1.499 . S
C1016 C1017 1.373 . S
C1016 C1018 1.389 . S
C1017 H996 0.950 . S
C1017 C1016 1.373 . S
C1017 C1033 1.377 . S
C1018 C1016 1.389 . S
C1018 C1019 1.524 . S
C1018 C1032 1.377 . S
C1019 C1018 1.524 . S
C1019 C1020 1.397 . S
C1019 C1024 1.363 . S
C1020 H997 0.950 . S
C1020 C1019 1.397 . S
C1020 C1021 1.334 . S
C1021 H998 0.950 . S
C1021 C1020 1.334 . S
C1021 C1022 1.287 . S
C1022 C1021 1.287 . S
C1022 C1023 1.524 . S
C1022 H1041 0.913 . S
C1023 H999 0.950 . S
C1023 C1022 1.524 . S
C1023 C1024 1.415 . S
C1024 H1000 0.950 . S
C1024 C1019 1.363 . S
C1024 C1023 1.415 . S
C1025 H1001 0.951 . S
C1025 C1026 1.366 . S
C1025 C1027 1.388 . S
C1026 C1025 1.366 . S
C1026 C1030 1.385 . S
C1027 H1002 0.951 . S
C1027 C1025 1.388 . S
C1027 C1028 1.366 . S
C1028 C1027 1.366 . S
C1028 C1029 1.414 . S
C1028 C1031 1.499 . S
C1029 H1003 0.950 . S
C1029 C1028 1.414 . S
C1029 C1030 1.374 . S
C1030 H1004 0.950 . S
C1030 C1026 1.385 . S
C1030 C1029 1.374 . S
C1031 C1028 1.499 . S
C1031 C1032 1.373 . S
C1031 C1033 1.389 . S
C1032 H1005 0.950 . S
C1032 C1018 1.377 . S
C1032 C1031 1.373 . S
C1033 C1017 1.377 . S
C1033 C1031 1.389 . S
C1033 C1034 1.524 . S
C1034 C1033 1.524 . S
C1034 C1035 1.397 . S
C1034 C1039 1.363 . S
C1035 H1006 0.950 . S
C1035 C1034 1.397 . S
C1035 C1036 1.334 . S
C1036 H1007 0.950 . S
C1036 C1035 1.334 . S
C1036 C1037 1.287 . S
C1037 C1036 1.287 . S
C1037 C1038 1.524 . S
C1037 H1040 0.999 . S
C1038 H1008 0.950 . S
C1038 C1037 1.524 . S
C1038 C1039 1.415 . S
C1039 H1009 0.950 . S
C1039 C1034 1.363 . S
C1039 C1038 1.415 . S
H1040 C1037 0.999 . S
H1041 C1022 0.913 . S
H1042 C1060 0.951 . S
H1043 C1062 0.951 . S
H1044 C1064 0.950 . S
H1045 C1065 0.950 . S
H1046 C1067 0.950 . S
H1047 C1070 0.950 . S
H1048 C1071 0.950 . S
H1049 C1073 0.950 . S
H1050 C1074 0.950 . S
H1051 C1075 0.951 . S
H1052 C1077 0.951 . S
H1053 C1079 0.950 . S
H1054 C1080 0.950 . S
H1055 C1082 0.950 . S
H1056 C1085 0.950 . S
H1057 C1086 0.950 . S
H1058 C1088 0.950 . S
H1059 C1089 0.950 . S
C1060 H1042 0.951 . S
C1060 C1061 1.366 . S
C1060 C1062 1.388 . S
C1061 C1060 1.366 . S
C1061 C1065 1.385 . S
C1062 H1043 0.951 . S
C1062 C1060 1.388 . S
C1062 C1063 1.366 . S
C1063 C1062 1.366 . S
C1063 C1064 1.414 . S
C1063 C1066 1.499 . S
C1064 H1044 0.950 . S
C1064 C1063 1.414 . S
C1064 C1065 1.374 . S
C1065 H1045 0.950 . S
C1065 C1061 1.385 . S
C1065 C1064 1.374 . S
C1066 C1063 1.499 . S
C1066 C1067 1.373 . S
C1066 C1068 1.389 . S
C1067 H1046 0.950 . S
C1067 C1066 1.373 . S
C1067 C1083 1.377 . S
C1068 C1066 1.389 . S
C1068 C1069 1.524 . S
C1068 C1082 1.377 . S
C1069 C1068 1.524 . S
C1069 C1070 1.397 . S
C1069 C1074 1.363 . S
C1070 H1047 0.950 . S
C1070 C1069 1.397 . S
C1070 C1071 1.334 . S
C1071 H1048 0.950 . S
C1071 C1070 1.334 . S
C1071 C1072 1.287 . S
C1072 C1071 1.287 . S
C1072 C1073 1.524 . S
C1072 H1091 0.913 . S
C1073 H1049 0.950 . S
C1073 C1072 1.524 . S
C1073 C1074 1.415 . S
C1074 H1050 0.950 . S
C1074 C1069 1.363 . S
C1074 C1073 1.415 . S
C1075 H1051 0.951 . S
C1075 C1076 1.366 . S
C1075 C1077 1.388 . S
C1076 C1075 1.366 . S
C1076 C1080 1.385 . S
C1077 H1052 0.951 . S
C1077 C1075 1.388 . S
C1077 C1078 1.366 . S
C1078 C1077 1.366 . S
C1078 C1079 1.414 . S
C1078 C1081 1.499 . S
C1079 H1053 0.950 . S
C1079 C1078 1.414 . S
C1079 C1080 1.374 . S
C1080 H1054 0.950 . S
C1080 C1076 1.385 . S
C1080 C1079 1.374 . S
C1081 C1078 1.499 . S
C1081 C1082 1.373 . S
C1081 C1083 1.389 . S
C1082 H1055 0.950 . S
C1082 C1068 1.377 . S
C1082 C1081 1.373 . S
C1083 C1067 1.377 . S
C1083 C1081 1.389 . S
C1083 C1084 1.524 . S
C1084 C1083 1.524 . S
C1084 C1085 1.397 . S
C1084 C1089 1.363 . S
C1085 H1056 0.950 . S
C1085 C1084 1.397 . S
C1085 C1086 1.334 . S
C1086 H1057 0.950 . S
C1086 C1085 1.334 . S
C1086 C1087 1.287 . S
C1087 C1086 1.287 . S
C1087 C1088 1.524 . S
C1087 H1090 0.999 . S
C1088 H1058 0.950 . S
C1088 C1087 1.524 . S
C1088 C1089 1.415 . S
C1089 H1059 0.950 . S
C1089 C1084 1.363 . S
C1089 C1088 1.415 . S
H1090 C1087 0.999 . S
H1091 C1072 0.913 . S
H1092 C1110 0.951 . S
H1093 C1112 0.951 . S
H1094 C1114 0.950 . S
H1095 C1115 0.950 . S
H1096 C1117 0.950 . S
H1097 C1120 0.950 . S
H1098 C1121 0.950 . S
H1099 C1123 0.950 . S
H1100 C1124 0.950 . S
H1101 C1125 0.951 . S
H1102 C1127 0.951 . S
H1103 C1129 0.950 . S
H1104 C1130 0.950 . S
H1105 C1132 0.950 . S
H1106 C1135 0.950 . S
H1107 C1136 0.950 . S
H1108 C1138 0.950 . S
H1109 C1139 0.950 . S
C1110 H1092 0.951 . S
C1110 C1111 1.366 . S
C1110 C1112 1.388 . S
C1111 C1110 1.366 . S
C1111 C1115 1.385 . S
C1112 H1093 0.951 . S
C1112 C1110 1.388 . S
C1112 C1113 1.366 . S
C1113 C1112 1.366 . S
C1113 C1114 1.414 . S
C1113 C1116 1.499 . S
C1114 H1094 0.950 . S
C1114 C1113 1.414 . S
C1114 C1115 1.374 . S
C1115 H1095 0.950 . S
C1115 C1111 1.385 . S
C1115 C1114 1.374 . S
C1116 C1113 1.499 . S
C1116 C1117 1.373 . S
C1116 C1118 1.389 . S
C1117 H1096 0.950 . S
C1117 C1116 1.373 . S
C1117 C1133 1.377 . S
C1118 C1116 1.389 . S
C1118 C1119 1.524 . S
C1118 C1132 1.377 . S
C1119 C1118 1.524 . S
C1119 C1120 1.397 . S
C1119 C1124 1.363 . S
C1120 H1097 0.950 . S
C1120 C1119 1.397 . S
C1120 C1121 1.334 . S
C1121 H1098 0.950 . S
C1121 C1120 1.334 . S
C1121 C1122 1.287 . S
C1122 C1121 1.287 . S
C1122 C1123 1.524 . S
C1122 H1141 0.913 . S
C1123 H1099 0.950 . S
C1123 C1122 1.524 . S
C1123 C1124 1.415 . S
C1124 H1100 0.950 . S
C1124 C1119 1.363 . S
C1124 C1123 1.415 . S
C1125 H1101 0.951 . S
C1125 C1126 1.366 . S
C1125 C1127 1.388 . S
C1126 C1125 1.366 . S
C1126 C1130 1.385 . S
C1127 H1102 0.951 . S
C1127 C1125 1.388 . S
C1127 C1128 1.366 . S
C1128 C1127 1.366 . S
C1128 C1129 1.414 . S
C1128 C1131 1.499 . S
C1129 H1103 0.950 . S
C1129 C1128 1.414 . S
C1129 C1130 1.374 . S
C1130 H1104 0.950 . S
C1130 C1126 1.385 . S
C1130 C1129 1.374 . S
C1131 C1128 1.499 . S
C1131 C1132 1.373 . S
C1131 C1133 1.389 . S
C1132 H1105 0.950 . S
C1132 C1118 1.377 . S
C1132 C1131 1.373 . S
C1133 C1117 1.377 . S
C1133 C1131 1.389 . S
C1133 C1134 1.524 . S
C1134 C1133 1.524 . S
C1134 C1135 1.397 . S
C1134 C1139 1.363 . S
C1135 H1106 0.950 . S
C1135 C1134 1.397 . S
C1135 C1136 1.334 . S
C1136 H1107 0.950 . S
C1136 C1135 1.334 . S
C1136 C1137 1.287 . S
C1137 C1136 1.287 . S
C1137 C1138 1.524 . S
C1137 H1140 0.999 . S
C1138 H1108 0.950 . S
C1138 C1137 1.524 . S
C1138 C1139 1.415 . S
C1139 H1109 0.950 . S
C1139 C1134 1.363 . S
C1139 C1138 1.415 . S
H1140 C1137 0.999 . S
H1141 C1122 0.913 . S
H1142 C1160 0.951 . S
H1143 C1162 0.951 . S
H1144 C1164 0.950 . S
H1145 C1165 0.950 . S
H1146 C1167 0.950 . S
H1147 C1170 0.950 . S
H1148 C1171 0.950 . S
H1149 C1173 0.950 . S
H1150 C1174 0.950 . S
H1151 C1175 0.951 . S
H1152 C1177 0.951 . S
H1153 C1179 0.950 . S
H1154 C1180 0.950 . S
H1155 C1182 0.950 . S
H1156 C1185 0.950 . S
H1157 C1186 0.950 . S
H1158 C1188 0.950 . S
H1159 C1189 0.950 . S
C1160 H1142 0.951 . S
C1160 C1161 1.366 . S
C1160 C1162 1.388 . S
C1161 C1160 1.366 . S
C1161 C1165 1.385 . S
C1162 H1143 0.951 . S
C1162 C1160 1.388 . S
C1162 C1163 1.366 . S
C1163 C1162 1.366 . S
C1163 C1164 1.414 . S
C1163 C1166 1.499 . S
C1164 H1144 0.950 . S
C1164 C1163 1.414 . S
C1164 C1165 1.374 . S
C1165 H1145 0.950 . S
C1165 C1161 1.385 . S
C1165 C1164 1.374 . S
C1166 C1163 1.499 . S
C1166 C1167 1.373 . S
C1166 C1168 1.389 . S
C1167 H1146 0.950 . S
C1167 C1166 1.373 . S
C1167 C1183 1.377 . S
C1168 C1166 1.389 . S
C1168 C1169 1.524 . S
C1168 C1182 1.377 . S
C1169 C1168 1.524 . S
C1169 C1170 1.397 . S
C1169 C1174 1.363 . S
C1170 H1147 0.950 . S
C1170 C1169 1.397 . S
C1170 C1171 1.334 . S
C1171 H1148 0.950 . S
C1171 C1170 1.334 . S
C1171 C1172 1.287 . S
C1172 C1171 1.287 . S
C1172 C1173 1.524 . S
C1172 H1191 0.913 . S
C1173 H1149 0.950 . S
C1173 C1172 1.524 . S
C1173 C1174 1.415 . S
C1174 H1150 0.950 . S
C1174 C1169 1.363 . S
C1174 C1173 1.415 . S
C1175 H1151 0.951 . S
C1175 C1176 1.366 . S
C1175 C1177 1.388 . S
C1176 C1175 1.366 . S
C1176 C1180 1.385 . S
C1177 H1152 0.951 . S
C1177 C1175 1.388 . S
C1177 C1178 1.366 . S
C1178 C1177 1.366 . S
C1178 C1179 1.414 . S
C1178 C1181 1.499 . S
C1179 H1153 0.950 . S
C1179 C1178 1.414 . S
C1179 C1180 1.374 . S
C1180 H1154 0.950 . S
C1180 C1176 1.385 . S
C1180 C1179 1.374 . S
C1181 C1178 1.499 . S
C1181 C1182 1.373 . S
C1181 C1183 1.389 . S
C1182 H1155 0.950 . S
C1182 C1168 1.377 . S
C1182 C1181 1.373 . S
C1183 C1167 1.377 . S
C1183 C1181 1.389 . S
C1183 C1184 1.524 . S
C1184 C1183 1.524 . S
C1184 C1185 1.397 . S
C1184 C1189 1.363 . S
C1185 H1156 0.950 . S
C1185 C1184 1.397 . S
C1185 C1186 1.334 . S
C1186 H1157 0.950 . S
C1186 C1185 1.334 . S
C1186 C1187 1.287 . S
C1187 C1186 1.287 . S
C1187 C1188 1.524 . S
C1187 H1190 0.999 . S
C1188 H1158 0.950 . S
C1188 C1187 1.524 . S
C1188 C1189 1.415 . S
C1189 H1159 0.950 . S
C1189 C1184 1.363 . S
C1189 C1188 1.415 . S
H1190 C1187 0.999 . S
H1191 C1172 0.913 . S
H1192 C1210 0.951 . S
H1193 C1212 0.951 . S
H1194 C1214 0.950 . S
H1195 C1215 0.950 . S
H1196 C1217 0.950 . S
H1197 C1220 0.950 . S
H1198 C1221 0.950 . S
H1199 C1223 0.950 . S
H1200 C1224 0.950 . S
H1201 C1225 0.951 . S
H1202 C1227 0.951 . S
H1203 C1229 0.950 . S
H1204 C1230 0.950 . S
H1205 C1232 0.950 . S
H1206 C1235 0.950 . S
H1207 C1236 0.950 . S
H1208 C1238 0.950 . S
H1209 C1239 0.950 . S
C1210 H1192 0.951 . S
C1210 C1211 1.366 . S
C1210 C1212 1.388 . S
C1211 C1210 1.366 . S
C1211 C1215 1.385 . S
C1212 H1193 0.951 . S
C1212 C1210 1.388 . S
C1212 C1213 1.366 . S
C1213 C1212 1.366 . S
C1213 C1214 1.414 . S
C1213 C1216 1.499 . S
C1214 H1194 0.950 . S
C1214 C1213 1.414 . S
C1214 C1215 1.374 . S
C1215 H1195 0.950 . S
C1215 C1211 1.385 . S
C1215 C1214 1.374 . S
C1216 C1213 1.499 . S
C1216 C1217 1.373 . S
C1216 C1218 1.389 . S
C1217 H1196 0.950 . S
C1217 C1216 1.373 . S
C1217 C1233 1.377 . S
C1218 C1216 1.389 . S
C1218 C1219 1.524 . S
C1218 C1232 1.377 . S
C1219 C1218 1.524 . S
C1219 C1220 1.397 . S
C1219 C1224 1.363 . S
C1220 H1197 0.950 . S
C1220 C1219 1.397 . S
C1220 C1221 1.334 . S
C1221 H1198 0.950 . S
C1221 C1220 1.334 . S
C1221 C1222 1.287 . S
C1222 C1221 1.287 . S
C1222 C1223 1.524 . S
C1222 H1241 0.913 . S
C1223 H1199 0.950 . S
C1223 C1222 1.524 . S
C1223 C1224 1.415 . S
C1224 H1200 0.950 . S
C1224 C1219 1.363 . S
C1224 C1223 1.415 . S
C1225 H1201 0.951 . S
C1225 C1226 1.366 . S
C1225 C1227 1.388 . S
C1226 C1225 1.366 . S
C1226 C1230 1.385 . S
C1227 H1202 0.951 . S
C1227 C1225 1.388 . S
C1227 C1228 1.366 . S
C1228 C1227 1.366 . S
C1228 C1229 1.414 . S
C1228 C1231 1.499 . S
C1229 H1203 0.950 . S
C1229 C1228 1.414 . S
C1229 C1230 1.374 . S
C1230 H1204 0.950 . S
C1230 C1226 1.385 . S
C1230 C1229 1.374 . S
C1231 C1228 1.499 . S
C1231 C1232 1.373 . S
C1231 C1233 1.389 . S
C1232 H1205 0.950 . S
C1232 C1218 1.377 . S
C1232 C1231 1.373 . S
C1233 C1217 1.377 . S
C1233 C1231 1.389 . S
C1233 C1234 1.524 . S
C1234 C1233 1.524 . S
C1234 C1235 1.397 . S
C1234 C1239 1.363 . S
C1235 H1206 0.950 . S
C1235 C1234 1.397 . S
C1235 C1236 1.334 . S
C1236 H1207 0.950 . S
C1236 C1235 1.334 . S
C1236 C1237 1.287 . S
C1237 C1236 1.287 . S
C1237 C1238 1.524 . S
C1237 H1240 0.999 . S
C1238 H1208 0.950 . S
C1238 C1237 1.524 . S
C1238 C1239 1.415 . S
C1239 H1209 0.950 . S
C1239 C1234 1.363 . S
C1239 C1238 1.415 . S
H1240 C1237 0.999 . S
H1241 C1222 0.913 . S
H1242 C1260 0.951 . S
H1243 C1262 0.951 . S
H1244 C1264 0.950 . S
H1245 C1265 0.950 . S
H1246 C1267 0.950 . S
H1247 C1270 0.950 . S
H1248 C1271 0.950 . S
H1249 C1273 0.952 . S
H1250 C1274 0.950 . S
H1251 C1275 0.951 . S
H1252 C1277 0.951 . S
H1253 C1279 0.950 . S
H1254 C1280 0.950 . S
H1255 C1282 0.950 . S
H1256 C1285 0.950 . S
H1257 C1286 0.950 . S
H1258 C1288 0.950 . S
H1259 C1289 0.950 . S
C1260 H1242 0.951 . S
C1260 C1261 1.366 . S
C1260 C1262 1.388 . S
C1261 C1260 1.366 . S
C1261 C1265 1.385 . S
C1262 H1243 0.951 . S
C1262 C1260 1.388 . S
C1262 C1263 1.366 . S
C1263 C1262 1.366 . S
C1263 C1264 1.414 . S
C1263 C1266 1.499 . S
C1264 H1244 0.950 . S
C1264 C1263 1.414 . S
C1264 C1265 1.374 . S
C1265 H1245 0.950 . S
C1265 C1261 1.385 . S
C1265 C1264 1.374 . S
C1266 C1263 1.499 . S
C1266 C1267 1.373 . S
C1266 C1268 1.389 . S
C1267 H1246 0.950 . S
C1267 C1266 1.373 . S
C1267 C1283 1.377 . S
C1268 C1266 1.389 . S
C1268 C1269 1.524 . S
C1268 C1282 1.377 . S
C1269 C1268 1.524 . S
C1269 C1270 1.397 . S
C1269 C1274 1.363 . S
C1270 H1247 0.950 . S
C1270 C1269 1.397 . S
C1270 C1271 1.334 . S
C1271 H1248 0.950 . S
C1271 C1270 1.334 . S
C1271 C1272 1.287 . S
C1272 C1271 1.287 . S
C1272 C1273 1.524 . S
C1272 H1291 0.913 . S
C1273 H1249 0.952 . S
C1273 C1272 1.524 . S
C1273 C1274 1.415 . S
C1274 H1250 0.950 . S
C1274 C1269 1.363 . S
C1274 C1273 1.415 . S
C1275 H1251 0.951 . S
C1275 C1276 1.366 . S
C1275 C1277 1.388 1_554 S
C1276 C1275 1.366 . S
C1276 C1280 1.385 . S
C1277 H1252 0.951 . S
C1277 C1275 1.388 1_556 S
C1277 C1278 1.366 . S
C1278 C1277 1.366 . S
C1278 C1279 1.414 1_556 S
C1278 C1281 1.499 . S
C1279 H1253 0.950 . S
C1279 C1278 1.414 1_554 S
C1279 C1280 1.374 . S
C1280 H1254 0.950 . S
C1280 C1276 1.385 . S
C1280 C1279 1.374 . S
C1281 C1278 1.499 . S
C1281 C1282 1.373 . S
C1281 C1283 1.389 . S
C1282 H1255 0.950 . S
C1282 C1268 1.377 . S
C1282 C1281 1.373 . S
C1283 C1267 1.377 . S
C1283 C1281 1.389 . S
C1283 C1284 1.524 . S
C1284 C1283 1.524 . S
C1284 C1285 1.397 . S
C1284 C1289 1.363 . S
C1285 H1256 0.950 . S
C1285 C1284 1.397 . S
C1285 C1286 1.334 . S
C1286 H1257 0.950 . S
C1286 C1285 1.334 . S
C1286 C1287 1.287 . S
C1287 C1286 1.287 . S
C1287 C1288 1.524 . S
C1287 H1290 0.999 . S
C1288 H1258 0.950 . S
C1288 C1287 1.524 . S
C1288 C1289 1.415 . S
C1289 H1259 0.950 . S
C1289 C1284 1.363 . S
C1289 C1288 1.415 . S
H1290 C1287 0.999 . S
H1291 C1272 0.913 . S
H1292 C1310 0.951 . S
H1293 C1312 0.951 . S
H1294 C1314 0.950 . S
H1295 C1315 0.950 . S
H1296 C1317 0.950 . S
H1297 C1320 0.950 . S
H1298 C1321 0.950 . S
H1299 C1323 0.950 . S
H1300 C1324 0.950 . S
H1301 C1325 0.951 . S
H1302 C1327 0.951 . S
H1303 C1329 0.950 . S
H1304 C1330 0.950 . S
H1305 C1332 0.950 . S
H1306 C1335 0.950 . S
H1307 C1336 0.950 . S
H1308 C1338 0.950 . S
H1309 C1339 0.950 . S
C1310 H1292 0.951 . S
C1310 C1311 1.366 . S
C1310 C1312 1.388 . S
C1311 C1310 1.366 . S
C1311 C1315 1.385 . S
C1312 H1293 0.951 . S
C1312 C1310 1.388 . S
C1312 C1313 1.366 . S
C1313 C1312 1.366 . S
C1313 C1314 1.414 . S
C1313 C1316 1.499 . S
C1314 H1294 0.950 . S
C1314 C1313 1.414 . S
C1314 C1315 1.374 . S
C1315 H1295 0.950 . S
C1315 C1311 1.385 . S
C1315 C1314 1.374 . S
C1316 C1313 1.499 . S
C1316 C1317 1.373 . S
C1316 C1318 1.389 . S
C1317 H1296 0.950 . S
C1317 C1316 1.373 . S
C1317 C1333 1.377 . S
C1318 C1316 1.389 . S
C1318 C1319 1.524 . S
C1318 C1332 1.377 . S
C1319 C1318 1.524 . S
C1319 C1320 1.397 . S
C1319 C1324 1.363 . S
C1320 H1297 0.950 . S
C1320 C1319 1.397 . S
C1320 C1321 1.334 . S
C1321 H1298 0.950 . S
C1321 C1320 1.334 . S
C1321 C1322 1.287 . S
C1322 C1321 1.287 . S
C1322 C1323 1.524 . S
C1322 H1341 0.913 . S
C1323 H1299 0.950 . S
C1323 C1322 1.524 . S
C1323 C1324 1.415 . S
C1324 H1300 0.950 . S
C1324 C1319 1.363 . S
C1324 C1323 1.415 . S
C1325 H1301 0.951 . S
C1325 C1326 1.366 . S
C1325 C1327 1.388 . S
C1326 C1325 1.366 . S
C1326 C1330 1.385 . S
C1327 H1302 0.951 . S
C1327 C1325 1.388 . S
C1327 C1328 1.366 . S
C1328 C1327 1.366 . S
C1328 C1329 1.414 . S
C1328 C1331 1.499 . S
C1329 H1303 0.950 . S
C1329 C1328 1.414 . S
C1329 C1330 1.374 . S
C1330 H1304 0.950 . S
C1330 C1326 1.385 . S
C1330 C1329 1.374 . S
C1331 C1328 1.499 . S
C1331 C1332 1.373 . S
C1331 C1333 1.389 . S
C1332 H1305 0.950 . S
C1332 C1318 1.377 . S
C1332 C1331 1.373 . S
C1333 C1317 1.377 . S
C1333 C1331 1.389 . S
C1333 C1334 1.524 . S
C1334 C1333 1.524 . S
C1334 C1335 1.397 . S
C1334 C1339 1.363 . S
C1335 H1306 0.950 . S
C1335 C1334 1.397 . S
C1335 C1336 1.334 . S
C1336 H1307 0.950 . S
C1336 C1335 1.334 . S
C1336 C1337 1.287 . S
C1337 C1336 1.287 . S
C1337 C1338 1.524 . S
C1337 H1340 0.999 . S
C1338 H1308 0.950 . S
C1338 C1337 1.524 . S
C1338 C1339 1.415 . S
C1339 H1309 0.950 . S
C1339 C1334 1.363 . S
C1339 C1338 1.415 . S
H1340 C1337 0.999 . S
H1341 C1322 0.913 . S
H1342 C1360 0.951 . S
H1343 C1362 0.951 . S
H1344 C1364 0.950 . S
H1345 C1365 0.950 . S
H1346 C1367 0.950 . S
H1347 C1370 0.950 . S
H1348 C1371 0.950 . S
H1349 C1373 0.950 . S
H1350 C1374 0.950 . S
H1351 C1375 0.951 . S
H1352 C1377 0.951 . S
H1353 C1379 0.950 . S
H1354 C1380 0.950 . S
H1355 C1382 0.950 . S
H1356 C1385 0.950 . S
H1357 C1386 0.950 . S
H1358 C1388 0.950 . S
H1359 C1389 0.950 . S
C1360 H1342 0.951 . S
C1360 C1361 1.366 . S
C1360 C1362 1.388 . S
C1361 C1360 1.366 . S
C1361 C1365 1.385 . S
C1362 H1343 0.951 . S
C1362 C1360 1.388 . S
C1362 C1363 1.366 . S
C1363 C1362 1.366 . S
C1363 C1364 1.414 . S
C1363 C1366 1.499 . S
C1364 H1344 0.950 . S
C1364 C1363 1.414 . S
C1364 C1365 1.374 . S
C1365 H1345 0.950 . S
C1365 C1361 1.385 . S
C1365 C1364 1.374 . S
C1366 C1363 1.499 . S
C1366 C1367 1.373 . S
C1366 C1368 1.389 . S
C1367 H1346 0.950 . S
C1367 C1366 1.373 . S
C1367 C1383 1.377 . S
C1368 C1366 1.389 . S
C1368 C1369 1.524 . S
C1368 C1382 1.377 . S
C1369 C1368 1.524 . S
C1369 C1370 1.397 . S
C1369 C1374 1.363 . S
C1370 H1347 0.950 . S
C1370 C1369 1.397 . S
C1370 C1371 1.334 . S
C1371 H1348 0.950 . S
C1371 C1370 1.334 . S
C1371 C1372 1.287 . S
C1372 C1371 1.287 . S
C1372 C1373 1.524 . S
C1372 H1391 0.913 . S
C1373 H1349 0.950 . S
C1373 C1372 1.524 . S
C1373 C1374 1.415 . S
C1374 H1350 0.950 . S
C1374 C1369 1.363 . S
C1374 C1373 1.415 . S
C1375 H1351 0.951 . S
C1375 C1376 1.366 . S
C1375 C1377 1.388 . S
C1376 C1375 1.366 . S
C1376 C1380 1.385 . S
C1377 H1352 0.951 . S
C1377 C1375 1.388 . S
C1377 C1378 1.366 . S
C1378 C1377 1.366 . S
C1378 C1379 1.414 . S
C1378 C1381 1.499 . S
C1379 H1353 0.950 . S
C1379 C1378 1.414 . S
C1379 C1380 1.374 . S
C1380 H1354 0.950 . S
C1380 C1376 1.385 . S
C1380 C1379 1.374 . S
C1381 C1378 1.499 . S
C1381 C1382 1.373 . S
C1381 C1383 1.389 . S
C1382 H1355 0.950 . S
C1382 C1368 1.377 . S
C1382 C1381 1.373 . S
C1383 C1367 1.377 . S
C1383 C1381 1.389 . S
C1383 C1384 1.524 . S
C1384 C1383 1.524 . S
C1384 C1385 1.397 . S
C1384 C1389 1.363 . S
C1385 H1356 0.950 . S
C1385 C1384 1.397 . S
C1385 C1386 1.334 . S
C1386 H1357 0.950 . S
C1386 C1385 1.334 . S
C1386 C1387 1.287 . S
C1387 C1386 1.287 . S
C1387 C1388 1.524 . S
C1387 H1390 0.999 . S
C1388 H1358 0.950 . S
C1388 C1387 1.524 . S
C1388 C1389 1.415 . S
C1389 H1359 0.950 . S
C1389 C1384 1.363 . S
C1389 C1388 1.415 . S
H1390 C1387 0.999 . S
H1391 C1372 0.913 . S
H1392 C1410 0.951 . S
H1393 C1412 0.951 . S
H1394 C1414 0.950 . S
H1395 C1415 0.950 . S
H1396 C1417 0.950 . S
H1397 C1420 0.950 . S
H1398 C1421 0.950 . S
H1399 C1423 0.950 . S
H1400 C1424 0.950 . S
H1401 C1425 0.951 . S
H1402 C1427 0.951 . S
H1403 C1429 0.950 . S
H1404 C1430 0.950 . S
H1405 C1432 0.950 . S
H1406 C1435 0.950 . S
H1407 C1436 0.950 . S
H1408 C1438 0.950 . S
H1409 C1439 0.950 . S
C1410 H1392 0.951 . S
C1410 C1411 1.366 . S
C1410 C1412 1.388 . S
C1411 C1410 1.366 . S
C1411 C1415 1.385 . S
C1412 H1393 0.951 . S
C1412 C1410 1.388 . S
C1412 C1413 1.366 . S
C1413 C1412 1.366 . S
C1413 C1414 1.414 . S
C1413 C1416 1.499 . S
C1414 H1394 0.950 . S
C1414 C1413 1.414 . S
C1414 C1415 1.374 . S
C1415 H1395 0.950 . S
C1415 C1411 1.385 . S
C1415 C1414 1.374 . S
C1416 C1413 1.499 . S
C1416 C1417 1.373 . S
C1416 C1418 1.389 . S
C1417 H1396 0.950 . S
C1417 C1416 1.373 . S
C1417 C1433 1.377 . S
C1418 C1416 1.389 . S
C1418 C1419 1.524 . S
C1418 C1432 1.377 . S
C1419 C1418 1.524 . S
C1419 C1420 1.397 . S
C1419 C1424 1.363 . S
C1420 H1397 0.950 . S
C1420 C1419 1.397 . S
C1420 C1421 1.334 . S
C1421 H1398 0.950 . S
C1421 C1420 1.334 . S
C1421 C1422 1.287 . S
C1422 C1421 1.287 . S
C1422 C1423 1.524 . S
C1422 H1441 0.913 . S
C1423 H1399 0.950 . S
C1423 C1422 1.524 . S
C1423 C1424 1.415 . S
C1424 H1400 0.950 . S
C1424 C1419 1.363 . S
C1424 C1423 1.415 . S
C1425 H1401 0.951 . S
C1425 C1426 1.366 . S
C1425 C1427 1.388 . S
C1426 C1425 1.366 . S
C1426 C1430 1.385 . S
C1427 H1402 0.951 . S
C1427 C1425 1.388 . S
C1427 C1428 1.366 . S
C1428 C1427 1.366 . S
C1428 C1429 1.414 . S
C1428 C1431 1.499 . S
C1429 H1403 0.950 . S
C1429 C1428 1.414 . S
C1429 C1430 1.374 . S
C1430 H1404 0.950 . S
C1430 C1426 1.385 . S
C1430 C1429 1.374 . S
C1431 C1428 1.499 . S
C1431 C1432 1.373 . S
C1431 C1433 1.389 . S
C1432 H1405 0.950 . S
C1432 C1418 1.377 . S
C1432 C1431 1.373 . S
C1433 C1417 1.377 . S
C1433 C1431 1.389 . S
C1433 C1434 1.524 . S
C1434 C1433 1.524 . S
C1434 C1435 1.397 . S
C1434 C1439 1.363 . S
C1435 H1406 0.950 . S
C1435 C1434 1.397 . S
C1435 C1436 1.334 . S
C1436 H1407 0.950 . S
C1436 C1435 1.334 . S
C1436 C1437 1.287 . S
C1437 C1436 1.287 . S
C1437 C1438 1.524 . S
C1437 H1440 0.999 . S
C1438 H1408 0.950 . S
C1438 C1437 1.524 . S
C1438 C1439 1.415 . S
C1439 H1409 0.950 . S
C1439 C1434 1.363 . S
C1439 C1438 1.415 . S
H1440 C1437 0.999 . S
H1441 C1422 0.913 . S
H1442 C1460 0.951 . S
H1443 C1462 0.951 . S
H1444 C1464 0.950 . S
H1445 C1465 0.950 . S
H1446 C1467 0.950 . S
H1447 C1470 0.950 . S
H1448 C1471 0.950 . S
H1449 C1473 0.950 . S
H1450 C1474 0.950 . S
H1451 C1475 0.951 . S
H1452 C1477 0.951 . S
H1453 C1479 0.950 . S
H1454 C1480 0.950 . S
H1455 C1482 0.950 . S
H1456 C1485 0.950 . S
H1457 C1486 0.950 . S
H1458 C1488 0.950 . S
H1459 C1489 0.950 . S
C1460 H1442 0.951 . S
C1460 C1461 1.366 . S
C1460 C1462 1.388 . S
C1461 C1460 1.366 . S
C1461 C1465 1.385 . S
C1462 H1443 0.951 . S
C1462 C1460 1.388 . S
C1462 C1463 1.366 . S
C1463 C1462 1.366 . S
C1463 C1464 1.414 . S
C1463 C1466 1.499 . S
C1464 H1444 0.950 . S
C1464 C1463 1.414 . S
C1464 C1465 1.374 . S
C1465 H1445 0.950 . S
C1465 C1461 1.385 . S
C1465 C1464 1.374 . S
C1466 C1463 1.499 . S
C1466 C1467 1.373 . S
C1466 C1468 1.389 . S
C1467 H1446 0.950 . S
C1467 C1466 1.373 . S
C1467 C1483 1.377 . S
C1468 C1466 1.389 . S
C1468 C1469 1.524 . S
C1468 C1482 1.377 . S
C1469 C1468 1.524 . S
C1469 C1470 1.397 . S
C1469 C1474 1.363 . S
C1470 H1447 0.950 . S
C1470 C1469 1.397 . S
C1470 C1471 1.334 . S
C1471 H1448 0.950 . S
C1471 C1470 1.334 . S
C1471 C1472 1.287 . S
C1472 C1471 1.287 . S
C1472 C1473 1.524 . S
C1472 H1491 0.913 . S
C1473 H1449 0.950 . S
C1473 C1472 1.524 . S
C1473 C1474 1.415 . S
C1474 H1450 0.950 . S
C1474 C1469 1.363 . S
C1474 C1473 1.415 . S
C1475 H1451 0.951 . S
C1475 C1476 1.366 . S
C1475 C1477 1.388 . S
C1476 C1475 1.366 . S
C1476 C1480 1.385 . S
C1477 H1452 0.951 . S
C1477 C1475 1.388 . S
C1477 C1478 1.366 . S
C1478 C1477 1.366 . S
C1478 C1479 1.414 . S
C1478 C1481 1.499 . S
C1479 H1453 0.950 . S
C1479 C1478 1.414 . S
C1479 C1480 1.374 . S
C1480 H1454 0.950 . S
C1480 C1476 1.385 . S
C1480 C1479 1.374 . S
C1481 C1478 1.499 . S
C1481 C1482 1.373 . S
C1481 C1483 1.389 . S
C1482 H1455 0.950 . S
C1482 C1468 1.377 . S
C1482 C1481 1.373 . S
C1483 C1467 1.377 . S
C1483 C1481 1.389 . S
C1483 C1484 1.524 . S
C1484 C1483 1.524 . S
C1484 C1485 1.397 . S
C1484 C1489 1.363 . S
C1485 H1456 0.950 . S
C1485 C1484 1.397 . S
C1485 C1486 1.334 . S
C1486 H1457 0.950 . S
C1486 C1485 1.334 . S
C1486 C1487 1.287 . S
C1487 C1486 1.287 . S
C1487 C1488 1.524 . S
C1487 H1490 0.999 . S
C1488 H1458 0.950 . S
C1488 C1487 1.524 . S
C1488 C1489 1.415 . S
C1489 H1459 0.950 . S
C1489 C1484 1.363 . S
C1489 C1488 1.415 . S
H1490 C1487 0.999 . S
H1491 C1472 0.913 . S
H1492 C1510 0.951 . S
H1493 C1512 0.951 . S
H1494 C1514 0.950 . S
H1495 C1515 0.950 . S
H1496 C1517 0.950 . S
H1497 C1520 0.950 . S
H1498 C1521 0.950 . S
H1499 C1523 0.950 . S
H1500 C1524 0.950 . S
H1501 C1525 0.951 . S
H1502 C1527 0.951 . S
H1503 C1529 0.950 . S
H1504 C1530 0.950 . S
H1505 C1532 0.950 . S
H1506 C1535 0.950 . S
H1507 C1536 0.950 . S
H1508 C1538 0.950 . S
H1509 C1539 0.950 . S
C1510 H1492 0.951 . S
C1510 C1511 1.366 . S
C1510 C1512 1.388 . S
C1511 C1510 1.366 . S
C1511 C1515 1.385 . S
C1512 H1493 0.951 . S
C1512 C1510 1.388 . S
C1512 C1513 1.366 . S
C1513 C1512 1.366 . S
C1513 C1514 1.414 . S
C1513 C1516 1.499 . S
C1514 H1494 0.950 . S
C1514 C1513 1.414 . S
C1514 C1515 1.374 . S
C1515 H1495 0.950 . S
C1515 C1511 1.385 . S
C1515 C1514 1.374 . S
C1516 C1513 1.499 . S
C1516 C1517 1.373 . S
C1516 C1518 1.389 . S
C1517 H1496 0.950 . S
C1517 C1516 1.373 . S
C1517 C1533 1.377 . S
C1518 C1516 1.389 . S
C1518 C1519 1.524 . S
C1518 C1532 1.377 . S
C1519 C1518 1.524 . S
C1519 C1520 1.397 . S
C1519 C1524 1.363 . S
C1520 H1497 0.950 . S
C1520 C1519 1.397 . S
C1520 C1521 1.334 . S
C1521 H1498 0.950 . S
C1521 C1520 1.334 . S
C1521 C1522 1.287 . S
C1522 C1521 1.287 . S
C1522 C1523 1.524 . S
C1522 H1541 0.913 . S
C1523 H1499 0.950 . S
C1523 C1522 1.524 . S
C1523 C1524 1.415 . S
C1524 H1500 0.950 . S
C1524 C1519 1.363 . S
C1524 C1523 1.415 . S
C1525 H1501 0.951 . S
C1525 C1526 1.366 . S
C1525 C1527 1.388 . S
C1526 C1525 1.366 . S
C1526 C1530 1.385 . S
C1527 H1502 0.951 . S
C1527 C1525 1.388 . S
C1527 C1528 1.366 . S
C1528 C1527 1.366 . S
C1528 C1529 1.414 . S
C1528 C1531 1.499 . S
C1529 H1503 0.950 . S
C1529 C1528 1.414 . S
C1529 C1530 1.374 . S
C1530 H1504 0.950 . S
C1530 C1526 1.385 . S
C1530 C1529 1.374 . S
C1531 C1528 1.499 . S
C1531 C1532 1.373 . S
C1531 C1533 1.389 . S
C1532 H1505 0.950 . S
C1532 C1518 1.377 . S
C1532 C1531 1.373 . S
C1533 C1517 1.377 . S
C1533 C1531 1.389 . S
C1533 C1534 1.524 . S
C1534 C1533 1.524 . S
C1534 C1535 1.397 . S
C1534 C1539 1.363 . S
C1535 H1506 0.950 . S
C1535 C1534 1.397 . S
C1535 C1536 1.334 . S
C1536 H1507 0.950 . S
C1536 C1535 1.334 . S
C1536 C1537 1.287 . S
C1537 C1536 1.287 . S
C1537 C1538 1.524 . S
C1537 H1540 0.999 . S
C1538 H1508 0.950 . S
C1538 C1537 1.524 . S
C1538 C1539 1.415 . S
C1539 H1509 0.950 . S
C1539 C1534 1.363 . S
C1539 C1538 1.415 . S
H1540 C1537 0.999 . S
H1541 C1522 0.913 . S
H1542 C1560 0.951 . S
H1543 C1562 0.951 . S
H1544 C1564 0.950 . S
H1545 C1565 0.950 . S
H1546 C1567 0.950 . S
H1547 C1570 0.950 . S
H1548 C1571 0.950 . S
H1549 C1573 0.950 . S
H1550 C1574 0.950 . S
H1551 C1575 0.951 . S
H1552 C1577 0.951 . S
H1553 C1579 0.950 . S
H1554 C1580 0.950 . S
H1555 C1582 0.950 . S
H1556 C1585 0.950 . S
H1557 C1586 0.950 . S
H1558 C1588 0.950 . S
H1559 C1589 0.950 . S
C1560 H1542 0.951 . S
C1560 C1561 1.366 . S
C1560 C1562 1.388 . S
C1561 C1560 1.366 . S
C1561 C1565 1.385 . S
C1562 H1543 0.951 . S
C1562 C1560 1.388 . S
C1562 C1563 1.366 . S
C1563 C1562 1.366 . S
C1563 C1564 1.414 . S
C1563 C1566 1.499 . S
C1564 H1544 0.950 . S
C1564 C1563 1.414 . S
C1564 C1565 1.374 . S
C1565 H1545 0.950 . S
C1565 C1561 1.385 . S
C1565 C1564 1.374 . S
C1566 C1563 1.499 . S
C1566 C1567 1.373 . S
C1566 C1568 1.389 . S
C1567 H1546 0.950 . S
C1567 C1566 1.373 . S
C1567 C1583 1.377 . S
C1568 C1566 1.389 . S
C1568 C1569 1.524 . S
C1568 C1582 1.377 . S
C1569 C1568 1.524 . S
C1569 C1570 1.397 . S
C1569 C1574 1.363 . S
C1570 H1547 0.950 . S
C1570 C1569 1.397 . S
C1570 C1571 1.334 . S
C1571 H1548 0.950 . S
C1571 C1570 1.334 . S
C1571 C1572 1.287 . S
C1572 C1571 1.287 . S
C1572 C1573 1.524 . S
C1572 H1591 0.913 . S
C1573 H1549 0.950 . S
C1573 C1572 1.524 . S
C1573 C1574 1.415 . S
C1574 H1550 0.950 . S
C1574 C1569 1.363 . S
C1574 C1573 1.415 . S
C1575 H1551 0.951 . S
C1575 C1576 1.366 . S
C1575 C1577 1.388 . S
C1576 C1575 1.366 . S
C1576 C1580 1.385 . S
C1577 H1552 0.951 . S
C1577 C1575 1.388 . S
C1577 C1578 1.366 . S
C1578 C1577 1.366 . S
C1578 C1579 1.414 . S
C1578 C1581 1.499 . S
C1579 H1553 0.950 . S
C1579 C1578 1.414 . S
C1579 C1580 1.374 . S
C1580 H1554 0.950 . S
C1580 C1576 1.385 . S
C1580 C1579 1.374 . S
C1581 C1578 1.499 . S
C1581 C1582 1.373 . S
C1581 C1583 1.389 . S
C1582 H1555 0.950 . S
C1582 C1568 1.377 . S
C1582 C1581 1.373 . S
C1583 C1567 1.377 . S
C1583 C1581 1.389 . S
C1583 C1584 1.524 . S
C1584 C1583 1.524 . S
C1584 C1585 1.397 . S
C1584 C1589 1.363 . S
C1585 H1556 0.950 . S
C1585 C1584 1.397 . S
C1585 C1586 1.334 . S
C1586 H1557 0.950 . S
C1586 C1585 1.334 . S
C1586 C1587 1.287 . S
C1587 C1586 1.287 . S
C1587 C1588 1.524 . S
C1587 H1590 0.999 . S
C1588 H1558 0.950 . S
C1588 C1587 1.524 . S
C1588 C1589 1.415 . S
C1589 H1559 0.950 . S
C1589 C1584 1.363 . S
C1589 C1588 1.415 . S
H1590 C1587 0.999 . S
H1591 C1572 0.913 . S
H1592 C1610 0.951 . S
H1593 C1612 0.951 . S
H1594 C1614 0.950 . S
H1595 C1615 0.950 . S
H1596 C1617 0.950 . S
H1597 C1620 0.950 . S
H1598 C1621 0.950 . S
H1599 C1623 0.950 . S
H1600 C1624 0.950 . S
H1601 C1625 0.951 . S
H1602 C1627 0.951 . S
H1603 C1629 0.950 . S
H1604 C1630 0.950 . S
H1605 C1632 0.950 . S
H1606 C1635 0.950 . S
H1607 C1636 0.950 . S
H1608 C1638 0.950 . S
H1609 C1639 0.950 . S
C1610 H1592 0.951 . S
C1610 C1611 1.366 . S
C1610 C1612 1.388 . S
C1611 C1610 1.366 . S
C1611 C1615 1.385 . S
C1612 H1593 0.951 . S
C1612 C1610 1.388 . S
C1612 C1613 1.366 . S
C1613 C1612 1.366 . S
C1613 C1614 1.414 . S
C1613 C1616 1.499 . S
C1614 H1594 0.950 . S
C1614 C1613 1.414 . S
C1614 C1615 1.374 . S
C1615 H1595 0.950 . S
C1615 C1611 1.385 . S
C1615 C1614 1.374 . S
C1616 C1613 1.499 . S
C1616 C1617 1.373 . S
C1616 C1618 1.389 . S
C1617 H1596 0.950 . S
C1617 C1616 1.373 . S
C1617 C1633 1.377 1_554 S
C1618 C1616 1.389 . S
C1618 C1619 1.524 . S
C1618 C1632 1.377 . S
C1619 C1618 1.524 . S
C1619 C1620 1.397 . S
C1619 C1624 1.363 . S
C1620 H1597 0.950 . S
C1620 C1619 1.397 . S
C1620 C1621 1.334 . S
C1621 H1598 0.950 . S
C1621 C1620 1.334 . S
C1621 C1622 1.287 . S
C1622 C1621 1.287 . S
C1622 C1623 1.524 . S
C1622 H1641 0.913 . S
C1623 H1599 0.950 . S
C1623 C1622 1.524 . S
C1623 C1624 1.415 . S
C1624 H1600 0.950 . S
C1624 C1619 1.363 . S
C1624 C1623 1.415 . S
C1625 H1601 0.951 . S
C1625 C1626 1.366 . S
C1625 C1627 1.388 . S
C1626 C1625 1.366 . S
C1626 C1630 1.385 . S
C1627 H1602 0.951 . S
C1627 C1625 1.388 . S
C1627 C1628 1.366 . S
C1628 C1627 1.366 . S
C1628 C1629 1.414 . S
C1628 C1631 1.499 . S
C1629 H1603 0.950 . S
C1629 C1628 1.414 . S
C1629 C1630 1.374 . S
C1630 H1604 0.950 . S
C1630 C1626 1.385 . S
C1630 C1629 1.374 . S
C1631 C1628 1.499 . S
C1631 C1632 1.373 1_556 S
C1631 C1633 1.389 . S
C1632 H1605 0.950 . S
C1632 C1618 1.377 . S
C1632 C1631 1.373 1_554 S
C1633 C1617 1.377 1_556 S
C1633 C1631 1.389 . S
C1633 C1634 1.524 . S
C1634 C1633 1.524 . S
C1634 C1635 1.397 . S
C1634 C1639 1.363 . S
C1635 H1606 0.950 . S
C1635 C1634 1.397 . S
C1635 C1636 1.334 . S
C1636 H1607 0.950 . S
C1636 C1635 1.334 . S
C1636 C1637 1.287 . S
C1637 C1636 1.287 . S
C1637 C1638 1.524 . S
C1637 H1640 0.999 . S
C1638 H1608 0.950 . S
C1638 C1637 1.524 . S
C1638 C1639 1.415 . S
C1639 H1609 0.950 . S
C1639 C1634 1.363 . S
C1639 C1638 1.415 . S
H1640 C1637 0.999 . S
H1641 C1622 0.913 . S
H1642 C1660 0.951 . S
H1643 C1662 0.951 . S
H1644 C1664 0.950 . S
H1645 C1665 0.950 . S
H1646 C1667 0.950 . S
H1647 C1670 0.950 . S
H1648 C1671 0.950 . S
H1649 C1673 0.950 . S
H1650 C1674 0.950 . S
H1651 C1675 0.951 . S
H1652 C1677 0.951 . S
H1653 C1679 0.950 . S
H1654 C1680 0.950 . S
H1655 C1682 0.950 . S
H1656 C1685 0.950 . S
H1657 C1686 0.950 . S
H1658 C1688 0.950 . S
H1659 C1689 0.950 . S
C1660 H1642 0.951 . S
C1660 C1661 1.366 . S
C1660 C1662 1.388 . S
C1661 C1660 1.366 . S
C1661 C1665 1.385 . S
C1662 H1643 0.951 . S
C1662 C1660 1.388 . S
C1662 C1663 1.366 . S
C1663 C1662 1.366 . S
C1663 C1664 1.414 . S
C1663 C1666 1.499 . S
C1664 H1644 0.950 . S
C1664 C1663 1.414 . S
C1664 C1665 1.374 . S
C1665 H1645 0.950 . S
C1665 C1661 1.385 . S
C1665 C1664 1.374 . S
C1666 C1663 1.499 . S
C1666 C1667 1.373 . S
C1666 C1668 1.389 . S
C1667 H1646 0.950 . S
C1667 C1666 1.373 . S
C1667 C1683 1.377 . S
C1668 C1666 1.389 . S
C1668 C1669 1.524 . S
C1668 C1682 1.377 . S
C1669 C1668 1.524 . S
C1669 C1670 1.397 . S
C1669 C1674 1.363 . S
C1670 H1647 0.950 . S
C1670 C1669 1.397 . S
C1670 C1671 1.334 . S
C1671 H1648 0.950 . S
C1671 C1670 1.334 . S
C1671 C1672 1.287 . S
C1672 C1671 1.287 . S
C1672 C1673 1.524 . S
C1672 H1691 0.913 . S
C1673 H1649 0.950 . S
C1673 C1672 1.524 . S
C1673 C1674 1.415 . S
C1674 H1650 0.950 . S
C1674 C1669 1.363 . S
C1674 C1673 1.415 . S
C1675 H1651 0.951 . S
C1675 C1676 1.366 . S
C1675 C1677 1.388 . S
C1676 C1675 1.366 . S
C1676 C1680 1.385 . S
C1677 H1652 0.951 . S
C1677 C1675 1.388 . S
C1677 C1678 1.366 . S
C1678 C1677 1.366 . S
C1678 C1679 1.414 . S
C1678 C1681 1.499 . S
C1679 H1653 0.950 . S
C1679 C1678 1.414 . S
C1679 C1680 1.374 . S
C1680 H1654 0.950 . S
C1680 C1676 1.385 . S
C1680 C1679 1.374 . S
C1681 C1678 1.499 . S
C1681 C1682 1.373 . S
C1681 C1683 1.389 . S
C1682 H1655 0.950 . S
C1682 C1668 1.377 . S
C1682 C1681 1.373 . S
C1683 C1667 1.377 . S
C1683 C1681 1.389 . S
C1683 C1684 1.524 . S
C1684 C1683 1.524 . S
C1684 C1685 1.397 . S
C1684 C1689 1.363 . S
C1685 H1656 0.950 . S
C1685 C1684 1.397 . S
C1685 C1686 1.334 . S
C1686 H1657 0.950 . S
C1686 C1685 1.334 . S
C1686 C1687 1.287 . S
C1687 C1686 1.287 . S
C1687 C1688 1.524 . S
C1687 H1690 0.999 . S
C1688 H1658 0.950 . S
C1688 C1687 1.524 . S
C1688 C1689 1.415 . S
C1689 H1659 0.950 . S
C1689 C1684 1.363 . S
C1689 C1688 1.415 . S
H1690 C1687 0.999 . S
H1691 C1672 0.913 . S
C526 C459 1.591 . S
C511 C15 1.574 . S
C561 C61 1.611 . S
C576 C279 1.631 . S
C611 C114 1.580 . S
C626 C326 1.574 . S
C661 C139 1.531 . S
C676 C362 1.511 . S
C726 C387 1.569 . S
C711 C185 1.562 . S
C761 C245 1.558 . S
C776 C423 1.576 . S
C811 C47 1.613 . S
C826 C315 1.622 . S
C861 C100 1.566 . S
C876 C351 1.573 . S
C911 C153 1.513 . S
C926 C398 1.501 . S
C976 C434 1.552 . S
C961 C199 1.559 . S
C1026 C470 1.560 . S
C1011 C231 1.577 . S
C1076 C290 1.577 . S
C1061 C1 1.593 . S
C1111 C22 1.464 . S
C1126 C314 1.454 . S
C1161 C68 1.486 . S
C1176 C350 1.477 . S
C1226 C388 1.483 . S
C1211 C107 1.486 . S
C1261 C146 1.485 . S
C1276 C424 1.481 . S
C1326 C460 1.452 . S
C1311 C192 1.456 . S
C1376 C280 1.436 . S
C1361 C252 1.440 . S
C1426 C458 1.455 . S
C1411 C54 1.465 . S
C1461 C93 1.461 . S
C1476 C278 1.450 . S
C1526 C316 1.460 . S
C1511 C160 1.462 . S
C1561 C206 1.482 . S
C1576 C352 1.479 . S
C1611 C238 1.511 . S
C1626 C386 1.502 . S
C1661 C8 1.491 . S
C1676 C422 1.481 . S
