# Generated by pormake.
# Topology anh, (6,3)-cn, num edge types: 1
# Building blocks:
#     Node 0, Type 0, BuildingBlock: HISSIN_clean_sbu_0, # of connection points: 6
#     Node 1, Type 0, BuildingBlock: HISSIN_clean_sbu_0, # of connection points: 6
#     Node 2, Type 0, BuildingBlock: HISSIN_clean_sbu_0, # of connection points: 6
#     Node 3, Type 1, BuildingBlock: BETDAH_clean_linker_0, # of connection points: 3
#     Node 4, Type 1, BuildingBlock: BETDAH_clean_linker_0, # of connection points: 3
#     Node 5, Type 1, BuildingBlock: BETDAH_clean_linker_0, # of connection points: 3
#     Node 6, Type 1, BuildingBlock: BETDAH_clean_linker_0, # of connection points: 3
#     Node 7, Type 1, BuildingBlock: BETDAH_clean_linker_0, # of connection points: 3
#     Node 8, Type 1, BuildingBlock: BETDAH_clean_linker_0, # of connection points: 3
#     Edge 9, Type (0, 1), BuildingBlock: CIFDUS_clean_linker_0, # of connection points: 2
#     Edge 10, Type (0, 1), BuildingBlock: CIFDUS_clean_linker_0, # of connection points: 2
#     Edge 11, Type (0, 1), BuildingBlock: CIFDUS_clean_linker_0, # of connection points: 2
#     Edge 12, Type (0, 1), BuildingBlock: CIFDUS_clean_linker_0, # of connection points: 2
#     Edge 13, Type (0, 1), BuildingBlock: CIFDUS_clean_linker_0, # of connection points: 2
#     Edge 14, Type (0, 1), BuildingBlock: CIFDUS_clean_linker_0, # of connection points: 2
#     Edge 15, Type (0, 1), BuildingBlock: CIFDUS_clean_linker_0, # of connection points: 2
#     Edge 16, Type (0, 1), BuildingBlock: CIFDUS_clean_linker_0, # of connection points: 2
#     Edge 17, Type (0, 1), BuildingBlock: CIFDUS_clean_linker_0, # of connection points: 2
#     Edge 18, Type (0, 1), BuildingBlock: CIFDUS_clean_linker_0, # of connection points: 2
#     Edge 19, Type (0, 1), BuildingBlock: CIFDUS_clean_linker_0, # of connection points: 2
#     Edge 20, Type (0, 1), BuildingBlock: CIFDUS_clean_linker_0, # of connection points: 2
#     Edge 21, Type (0, 1), BuildingBlock: CIFDUS_clean_linker_0, # of connection points: 2
#     Edge 22, Type (0, 1), BuildingBlock: CIFDUS_clean_linker_0, # of connection points: 2
#     Edge 23, Type (0, 1), BuildingBlock: CIFDUS_clean_linker_0, # of connection points: 2
#     Edge 24, Type (0, 1), BuildingBlock: CIFDUS_clean_linker_0, # of connection points: 2
#     Edge 25, Type (0, 1), BuildingBlock: CIFDUS_clean_linker_0, # of connection points: 2
#     Edge 26, Type (0, 1), BuildingBlock: CIFDUS_clean_linker_0, # of connection points: 2
# Relax obj value: 0.283
# Max RMSD: 0.149
# Mean RMSD: 0.109
data_MOF--net-anh--node1-HISSIN_clean_sbu_0--node2-BETDAH_clean_linker_0--edge1-CIFDUS_clean_linker_0
_symmetry_space_group_name_H-M    P1
_symmetry_Int_Tables_number       1
_symmetry_cell_setting            triclinic
loop_
_symmetry_equiv_pos_as_xyz
'x, y, z'
_cell_length_a     27.277592
_cell_length_b     27.04617
_cell_length_c     43.824831
_cell_angle_alpha  94.771469
_cell_angle_beta   90.934206
_cell_angle_gamma 120.06908
loop_
_atom_site_label
_atom_site_type_symbol
_atom_site_fract_x
_atom_site_fract_y
_atom_site_fract_z
_atom_type_partial_charge
Eu0 Eu 1.07501 0.56786 0.15494 0.0
Eu1 Eu 0.13394 0.6997 0.17129 0.0
C2 C 1.10494 0.62226 0.22603 0.0
C3 C 0.99342 0.40374 0.12674 0.0
C4 C 0.94291 0.39398 0.1121 0.0
C5 C 0.9611 0.30283 0.12031 0.0
C6 C 0.90033 0.33766 0.10236 0.0
C7 C 1.00334 0.3586 0.12955 0.0
C8 C 0.90811 0.29126 0.10773 0.0
C9 C 1.03501 0.45894 0.14212 0.0
O10 O 0.21238 0.68733 0.17176 0.0
O11 O 0.16915 0.59351 0.15139 0.0
C12 C 0.21612 0.64206 0.1608 0.0
O13 O 1.0774 0.6042 0.11002 0.0
O14 O 0.19271 0.78374 0.19547 0.0
O15 O 1.13065 0.77479 0.16046 0.0
O16 O 0.16006 0.68585 0.12481 0.0
C17 C 1.12447 0.64852 0.10311 0.0
O18 O 0.99521 0.57801 0.15767 0.0
O19 O 1.04374 0.67398 0.15369 0.0
O20 O 1.10545 0.6675 0.21716 0.0
O21 O 1.07043 0.49713 0.12529 0.0
O22 O 1.01938 0.48035 0.16522 0.0
O23 O 1.10342 0.58319 0.20555 0.0
C24 C 0.22234 0.85342 0.16107 0.0
C25 C 0.2277 0.84196 0.12976 0.0
C26 C 0.31538 0.93762 0.16458 0.0
C27 C 0.27769 0.87733 0.1162 0.0
C28 C 0.26529 0.90267 0.17796 0.0
C29 C 0.32321 0.9239 0.13393 0.0
C30 C 0.177 0.80998 0.1773 0.0
C31 C 0.99482 0.62579 0.15364 0.0
H32 H 0.93545 0.42926 0.10964 0.0
H33 H 0.96879 0.26886 0.12569 0.0
H34 H 0.86031 0.33025 0.09242 0.0
H35 H 1.04252 0.36609 0.14084 0.0
H36 H 0.19492 0.80369 0.11626 0.0
H37 H 0.34974 0.97213 0.17936 0.0
H38 H 0.2823 0.86569 0.09261 0.0
H39 H 0.26193 0.91162 0.20217 0.0
Eu40 Eu 0.67036 1.08576 0.49738 0.0
Eu41 Eu 0.59871 0.14374 0.48667 0.0
C42 C 0.62407 0.12401 0.55697 0.0
C43 C 0.75374 1.0016 0.5077 0.0
C44 C 0.81289 1.03225 0.51171 0.0
C45 C 0.75196 0.91288 0.51272 0.0
C46 C 0.84179 1.00308 0.51593 0.0
C47 C 0.7232 0.94202 0.50792 0.0
C48 C 0.81148 0.94326 0.51679 0.0
C49 C 0.72375 1.03196 0.50398 0.0
O50 O 0.69008 0.21981 0.48564 0.0
O51 O 0.74357 0.17826 0.49411 0.0
C52 C 0.74041 0.22397 0.48876 0.0
O53 O 0.68903 0.11304 0.45045 0.0
O54 O 0.55856 0.19327 0.50064 0.0
O55 O 0.55269 0.16257 0.4528 0.0
O56 O 0.6012 0.09832 0.44111 0.0
C57 C 0.64806 0.10305 0.43094 0.0
O58 O 0.57785 1.00841 0.48655 0.0
O59 O 0.52686 1.05427 0.49084 0.0
O60 O 0.5995 0.14287 0.53878 0.0
O61 O 0.68283 1.01446 0.4827 0.0
O62 O 0.73587 1.07833 0.52176 0.0
O63 O 0.65349 0.10145 0.54597 0.0
C64 C 0.57018 0.25663 0.46486 0.0
C65 C 0.61008 0.27791 0.44246 0.0
C66 C 0.59595 0.35358 0.4836 0.0
C67 C 0.64397 0.33695 0.44133 0.0
C68 C 0.56152 0.29472 0.48435 0.0
C69 C 0.63911 0.37543 0.46289 0.0
C70 C 0.54649 0.19758 0.47243 0.0
C71 C 0.52828 1.00641 0.48713 0.0
H72 H 0.83658 1.0785 0.51143 0.0
H73 H 0.72763 0.86693 0.5139 0.0
H74 H 0.88774 1.0273 0.51859 0.0
H75 H 0.67721 0.91836 0.50512 0.0
H76 H 0.61795 0.24936 0.42722 0.0
H77 H 0.59171 0.3816 0.50113 0.0
H78 H 0.67642 0.35239 0.42496 0.0
H79 H 0.53155 0.27913 0.50202 0.0
Eu80 Eu 0.56581 0.56438 0.81994 0.0
Eu81 Eu 0.69682 0.62594 0.83875 0.0
C82 C 0.61266 0.59497 0.89257 0.0
C83 C 0.43435 0.54053 0.78303 0.0
C84 C 0.46961 0.59047 0.76909 0.0
C85 C 0.36185 0.56679 0.78506 0.0
C86 C 0.45257 0.63031 0.76528 0.0
C87 C 0.37914 0.52709 0.78916 0.0
C88 C 0.40005 0.6202 0.77514 0.0
C89 C 0.46066 0.51381 0.79916 0.0
O90 O 0.67389 0.53088 0.83728 0.0
O91 O 0.58527 0.49143 0.81322 0.0
C92 C 0.62801 0.48586 0.82315 0.0
O93 O 0.61375 0.60644 0.779 0.0
O94 O 0.77609 0.64174 0.86104 0.0
O95 O 0.77615 0.69931 0.82909 0.0
O96 O 0.68163 0.58643 0.79065 0.0
C97 C 0.65584 0.59961 0.77058 0.0
O98 O 0.58511 0.65769 0.82334 0.0
O99 O 0.68162 0.70002 0.82927 0.0
O100 O 0.66334 0.6299 0.88419 0.0
O101 O 0.49918 0.50801 0.78469 0.0
O102 O 0.47743 0.53577 0.82765 0.0
O103 O 0.57071 0.56045 0.87203 0.0
C104 C 0.84983 0.681 0.8276 0.0
C105 C 0.83728 0.63095 0.80881 0.0
C106 C 0.94489 0.72872 0.81101 0.0
C107 C 0.87943 0.62919 0.79194 0.0
C108 C 0.90295 0.73028 0.82782 0.0
C109 C 0.93427 0.67761 0.79366 0.0
C110 C 0.80646 0.68427 0.84487 0.0
C111 C 0.63579 0.70426 0.82515 0.0
H112 H 0.51272 0.60193 0.76445 0.0
H113 H 0.32144 0.55869 0.79319 0.0
H114 H 0.48267 0.67148 0.7578 0.0
H115 H 0.35189 0.48917 0.80031 0.0
H116 H 0.79538 0.59308 0.80769 0.0
H117 H 0.98681 0.76661 0.81348 0.0
H118 H 0.87006 0.58937 0.7788 0.0
H119 H 0.91242 0.76962 0.84159 0.0
H120 H 0.57312 1.03853 0.23751 0.0
H121 H 0.69761 0.99042 0.25799 0.0
H122 H 0.64655 0.98782 0.16439 0.0
C123 C 0.6022 1.02451 0.22981 0.0
C124 C 0.60733 1.01591 0.19834 0.0
C125 C 0.63337 1.01408 0.25152 0.0
C126 C 0.67171 0.99668 0.2415 0.0
C127 C 0.67776 0.98887 0.21008 0.0
C128 C 0.64355 0.99604 0.1887 0.0
N129 N 0.72147 0.97878 0.20007 0.0
C130 C 0.75086 1.00558 0.17526 0.0
H131 H 0.75913 0.61125 0.59778 0.0
H132 H 0.92255 0.73217 0.64308 0.0
H133 H 0.90583 0.6933 0.54532 0.0
C134 C 0.80397 0.64174 0.59671 0.0
C135 C 0.82813 0.64967 0.56828 0.0
C136 C 0.83762 0.67053 0.62389 0.0
C137 C 0.89624 0.70759 0.62247 0.0
C138 C 0.92075 0.7157 0.59424 0.0
C139 C 0.88673 0.6863 0.5672 0.0
N140 N 0.97701 0.76085 0.59257 0.0
C141 C 0.98276 0.8086 0.58014 0.0
H142 H 1.11544 0.65544 0.90616 0.0
H143 H 0.26847 0.79768 0.95113 0.0
H144 H 0.24714 0.77219 0.85311 0.0
C145 C 0.15727 0.69226 0.9047 0.0
C146 C 0.17764 0.70921 0.87591 0.0
C147 C 0.18949 0.72367 0.9319 0.0
C148 C 0.24309 0.77278 0.93033 0.0
C149 C 0.26454 0.78947 0.90188 0.0
C150 C 0.23148 0.75778 0.8749 0.0
N151 N 0.31989 0.83728 0.90051 0.0
C152 C 0.35388 0.83597 0.8776 0.0
H153 H 0.23833 0.72657 0.40815 0.0
H154 H 1.08159 0.57051 0.41724 0.0
H155 H 0.20144 0.65929 0.49582 0.0
C156 C 0.21025 0.69496 0.4227 0.0
C157 C 0.22743 0.70048 0.45383 0.0
C158 C 0.15815 0.64905 0.40937 0.0
C159 C 1.1218 0.60558 0.42743 0.0
C160 C 0.13665 0.60857 0.45883 0.0
C161 C 0.18987 0.6563 0.47171 0.0
N162 N 1.09943 0.56623 0.47843 0.0
C163 C 1.04711 0.51367 0.4714 0.0
H164 H 0.63414 0.20622 0.74134 0.0
H165 H 0.62978 1.04633 0.74993 0.0
H166 H 0.63865 0.15359 0.83079 0.0
C167 C 0.63225 0.1746 0.75563 0.0
C168 C 0.63453 0.18617 0.78774 0.0
C169 C 0.63078 0.12488 0.74156 0.0
C170 C 0.63138 1.08486 0.76037 0.0
C171 C 0.63441 0.09458 0.79266 0.0
C172 C 0.63634 0.14574 0.80603 0.0
N173 N 0.6366 1.05526 0.81246 0.0
C174 C 0.63214 1.00083 0.80513 0.0
H175 H 0.71618 0.61997 0.07629 0.0
H176 H 0.56108 0.62387 0.08467 0.0
H177 H 0.65029 0.61652 0.1652 0.0
C178 C 0.68484 0.62084 0.09087 0.0
C179 C 0.69096 0.61872 0.12258 0.0
C180 C 0.63876 0.62272 0.07705 0.0
C181 C 0.596 0.62174 0.0953 0.0
C182 C 0.59935 0.61992 0.12734 0.0
C183 C 0.64706 0.61787 0.14066 0.0
N184 N 0.55718 0.62133 0.14686 0.0
C185 C 0.50575 0.62133 0.13963 0.0
H186 H 0.24485 0.56107 0.13504 0.0
H187 H 0.3222 0.73352 0.18026 0.0
H188 H 0.41596 0.74331 0.17701 0.0
H189 H 0.47869 0.70326 0.16236 0.0
H190 H 0.40252 0.53161 0.11672 0.0
H191 H 0.30812 0.52174 0.11905 0.0
C192 C 0.28202 0.60097 0.14428 0.0
C193 C 0.27465 0.64643 0.1582 0.0
C194 C 0.33732 0.60672 0.14215 0.0
C195 C 0.32481 0.69742 0.16959 0.0
C196 C 0.37919 0.70317 0.16768 0.0
C197 C 0.4416 0.66382 0.15256 0.0
C198 C 0.44899 0.61843 0.13896 0.0
C199 C 0.38641 0.65826 0.15411 0.0
C200 C 0.39933 0.56768 0.12696 0.0
C201 C 0.34478 0.56191 0.12845 0.0
H202 H 0.8539 0.2515 0.4808 0.0
H203 H 0.74989 0.32991 0.48937 0.0
H204 H 0.83282 0.42369 0.48462 0.0
H205 H 0.93551 0.48628 0.47729 0.0
H206 H 1.04046 0.4096 0.46783 0.0
H207 H 0.9579 0.31462 0.47285 0.0
C208 C 0.84901 0.28894 0.48156 0.0
C209 C 0.79415 0.28203 0.48568 0.0
C210 C 0.89758 0.34412 0.478 0.0
C211 C 0.7903 0.33227 0.48629 0.0
C212 C 0.83808 0.38658 0.48336 0.0
C213 C 0.94032 0.44873 0.4759 0.0
C214 C 0.99488 0.45585 0.4716 0.0
C215 C 0.892 0.39343 0.47898 0.0
C216 C 0.99946 0.40609 0.47054 0.0
C217 C 0.95189 0.35137 0.47362 0.0
H218 H 0.55872 0.73491 0.80246 0.0
H219 H 0.73085 0.80987 0.84038 0.0
H220 H 0.74586 0.90596 0.83672 0.0
H221 H 0.71014 0.9713 0.82417 0.0
H222 H 0.53893 0.89755 0.78534 0.0
H223 H 0.52471 0.80089 0.78702 0.0
C224 C 0.59932 0.77215 0.81023 0.0
C225 C 0.64305 0.76369 0.8223 0.0
C226 C 0.60821 0.82863 0.80774 0.0
C227 C 0.69582 0.81362 0.8313 0.0
C228 C 0.70462 0.86925 0.8292 0.0
C229 C 0.66966 0.93405 0.81597 0.0
C230 C 0.62582 0.94253 0.80433 0.0
C231 C 0.66117 0.87765 0.81765 0.0
C232 C 0.57373 0.89313 0.79415 0.0
C233 C 0.56526 0.83734 0.79553 0.0
H234 H 0.88218 0.56395 0.17437 0.0
H235 H 0.98346 0.69393 0.11564 0.0
H236 H 0.90289 0.70528 0.10272 0.0
H237 H 0.80297 0.67929 0.1068 0.0
H238 H 0.69917 0.55272 0.16627 0.0
H239 H 0.78012 0.54078 0.18039 0.0
C240 C 0.88664 0.59445 0.15855 0.0
C241 C 0.94035 0.62753 0.14586 0.0
C242 C 0.83908 0.60217 0.15143 0.0
C243 C 0.94393 0.66747 0.12591 0.0
C244 C 0.89735 0.67422 0.11842 0.0
C245 C 0.79745 0.64885 0.12291 0.0
C246 C 0.74329 0.61664 0.13502 0.0
C247 C 0.84461 0.642 0.13092 0.0
C248 C 0.73927 0.57864 0.15642 0.0
C249 C 0.78597 0.57135 0.16433 0.0
H250 H 0.48298 0.89399 0.50617 0.0
H251 H 0.44369 0.99385 0.44914 0.0
H252 H 0.34939 0.91193 0.43567 0.0
H253 H 0.27608 0.81249 0.43971 0.0
H254 H 0.31001 0.70847 0.49605 0.0
H255 H 0.40571 0.79069 0.51074 0.0
C256 C 0.45395 0.89768 0.49063 0.0
C257 C 0.47166 0.95125 0.47875 0.0
C258 C 0.39767 0.84939 0.4831 0.0
C259 C 0.43222 0.95424 0.45893 0.0
C260 C 0.37772 0.90703 0.45114 0.0
C261 C 0.30417 0.80701 0.45505 0.0
C262 C 0.28468 0.75277 0.4662 0.0
C263 C 0.35965 0.85447 0.4631 0.0
C264 C 0.32252 0.74882 0.48691 0.0
C265 C 0.37796 0.79613 0.49515 0.0
H266 H 0.68576 0.43487 0.84951 0.0
H267 H 0.56117 0.40413 0.77725 0.0
H268 H 0.55067 0.31107 0.76144 0.0
H269 H 0.576 0.23691 0.76676 0.0
H270 H 0.69844 0.26251 0.83872 0.0
H271 H 0.70889 0.35633 0.85608 0.0
C272 C 0.65628 0.40788 0.83034 0.0
C273 C 0.62427 0.42794 0.81486 0.0
C274 C 0.6494 0.35231 0.82123 0.0
C275 C 0.58627 0.39105 0.79009 0.0
C276 C 0.58012 0.33719 0.78082 0.0
C277 C 0.60528 0.26278 0.78625 0.0
C278 C 0.63677 0.24164 0.80098 0.0
C279 C 0.61133 0.31716 0.79609 0.0
C280 C 0.67321 0.27642 0.82672 0.0
C281 C 0.6796 0.33078 0.83657 0.0
H282 H 0.89903 0.97826 0.55856 0.0
H283 H 0.79074 0.83995 0.4894 0.0
H284 H 0.83892 0.78785 0.50151 0.0
H285 H 0.91011 0.78115 0.53258 0.0
H286 H 1.01686 0.91777 0.60245 0.0
H287 H 0.97289 0.97329 0.58807 0.0
C288 C 0.88691 0.93733 0.54566 0.0
C289 C 0.84184 0.91294 0.52306 0.0
C290 C 0.9152 0.90824 0.55241 0.0
C291 C 0.82516 0.85916 0.5071 0.0
C292 C 0.85292 0.82967 0.51381 0.0
C293 C 0.92462 0.8237 0.54408 0.0
C294 C 0.96727 0.84653 0.56787 0.0
C295 C 0.8979 0.85387 0.53642 0.0
C296 C 0.98502 0.90068 0.58341 0.0
C297 C 0.95944 0.93181 0.57549 0.0
H298 H 0.95204 0.58967 0.80194 0.0
H299 H 1.02835 0.75408 0.76601 0.0
H300 H 1.12217 0.77416 0.78386 0.0
H301 H 0.17216 0.75941 0.82535 0.0
H302 H 1.09672 0.5949 0.86173 0.0
H303 H 1.01212 0.56012 0.82754 0.0
C304 C 0.98932 0.62838 0.79627 0.0
C305 C 0.98348 0.67222 0.78466 0.0
C306 C 1.04274 0.64059 0.80785 0.0
C307 C 1.03208 0.7209 0.77625 0.0
C308 C 1.08567 0.73274 0.78687 0.0
C309 C 0.13889 0.71495 0.82497 0.0
C310 C 0.13933 0.6811 0.8476 0.0
C311 C 1.09041 0.69529 0.80537 0.0
C312 C 1.09589 0.62316 0.84588 0.0
C313 C 1.04763 0.603 0.82614 0.0
H314 H 0.40916 1.03479 0.14443 0.0
H315 H 0.3699 0.86841 0.1016 0.0
H316 H 0.46764 0.89301 0.111 0.0
H317 H 0.54982 0.94465 0.14749 0.0
H318 H 0.58339 0.103 0.19867 0.0
H319 H 0.5022 0.09803 0.17116 0.0
C320 C 0.42267 1.00481 0.13624 0.0
C321 C 0.38181 0.94893 0.12399 0.0
C322 C 0.47741 1.01669 0.14477 0.0
C323 C 0.4 0.9114 0.11187 0.0
C324 C 0.45592 0.92496 0.11781 0.0
C325 C 0.54095 0.97939 0.15173 0.0
C326 C 0.57104 1.02296 0.17577 0.0
C327 C 0.49299 0.97489 0.13686 0.0
C328 C 0.55933 1.06791 0.18091 0.0
C329 C 0.51315 1.06523 0.16511 0.0
H330 H 0.62778 0.46821 0.47927 0.0
H331 H 0.75318 0.41977 0.45885 0.0
H332 H 0.82746 0.51062 0.48504 0.0
H333 H 0.85137 0.58977 0.52454 0.0
H334 H 0.72394 0.63241 0.55016 0.0
H335 H 0.65545 0.55699 0.51193 0.0
C336 C 0.67155 0.478 0.4801 0.0
C337 C 0.68457 0.43642 0.4682 0.0
C338 C 0.71334 0.52838 0.49701 0.0
C339 C 0.74172 0.45058 0.46823 0.0
C340 C 0.7842 0.5022 0.48359 0.0
C341 C 0.80927 0.58393 0.52094 0.0
C342 C 0.79223 0.61561 0.54036 0.0
C343 C 0.76976 0.53941 0.49976 0.0
C344 C 0.73748 0.60757 0.53572 0.0
C345 C 0.69841 0.56459 0.5139 0.0
H346 H 0.46587 0.70952 0.8157 0.0
H347 H 0.31359 0.63617 0.75614 0.0
H348 H 0.29171 0.708 0.77948 0.0
H349 H 0.31093 0.78333 0.82088 0.0
H350 H 0.45686 0.84707 0.88458 0.0
H351 H 0.48969 0.79074 0.85386 0.0
C352 C 0.42931 0.71105 0.80693 0.0
C353 C 0.39206 0.66913 0.78378 0.0
C354 C 0.41658 0.75109 0.82103 0.0
C355 C 0.34317 0.66911 0.77356 0.0
C356 C 0.33074 0.70991 0.78696 0.0
C357 C 0.35011 0.78531 0.82789 0.0
C358 C 0.38125 0.81835 0.85507 0.0
C359 C 0.36634 0.74993 0.81133 0.0
C360 C 0.43268 0.82194 0.86353 0.0
C361 C 0.45089 0.78921 0.84626 0.0
H362 H 0.907 0.19083 0.09264 0.0
H363 H 0.79961 0.25824 0.12237 0.0
H364 H 0.73444 0.16758 0.14122 0.0
H365 H 0.72244 1.08169 0.16125 0.0
H366 H 0.83662 1.01913 0.13974 0.0
H367 H 0.88769 0.09773 0.10755 0.0
C368 C 0.86882 0.18531 0.10282 0.0
C369 C 0.85941 0.23202 0.10701 0.0
C370 C 0.8344 0.13507 0.11636 0.0
C371 C 0.80844 0.22344 0.11889 0.0
C372 C 0.77158 0.17184 0.13032 0.0
C373 C 0.75696 1.08365 0.14859 0.0
C374 C 0.77563 1.04467 0.15238 0.0
C375 C 0.78634 0.12921 0.13102 0.0
C376 C 0.82164 1.04882 0.13676 0.0
C377 C 0.85059 0.09356 0.11844 0.0
H378 H 1.06075 0.64001 0.05247 0.0
H379 H 0.22642 0.67372 0.08364 0.0
H380 H 0.26081 0.69787 0.03285 0.0
H381 H 0.24565 0.71525 0.98069 0.0
H382 H 1.08234 0.68854 0.94994 0.0
H383 H 1.04502 0.65583 -0.00074 0.0
C384 C 1.104 0.65177 0.04781 0.0
C385 C 0.14115 0.65518 0.07144 0.0
C386 C 1.12407 0.66759 0.01882 0.0
C387 C 0.19734 0.67113 0.06558 0.0
C388 C 0.21705 0.6851 0.03666 0.0
C389 C 0.20205 0.70271 0.9849 0.0
C390 C 0.16695 0.70459 0.96186 0.0
C391 C 0.1812 0.68477 0.01334 0.0
C392 C 1.11013 0.68711 0.96734 0.0
C393 C 1.08879 0.66852 -0.00447 0.0
H394 H 0.564 1.04371 0.3856 0.0
H395 H 0.7462 0.1388 0.40258 0.0
H396 H 0.75787 0.1184 0.3488 0.0
H397 H 0.71651 1.07349 0.29685 0.0
H398 H 0.53449 0.9762 0.27984 0.0
H399 H 0.5225 0.99721 0.33363 0.0
C400 C 0.60618 1.0603 0.37742 0.0
C401 C 0.65408 0.09287 0.39796 0.0
C402 C 0.61265 1.04761 0.34651 0.0
C403 C 0.70857 0.11351 0.38719 0.0
C404 C 0.71536 0.10182 0.35645 0.0
C405 C 0.67429 1.0563 0.30508 0.0
C406 C 0.62651 1.02336 0.28454 0.0
C407 C 0.66773 1.06862 0.33596 0.0
C408 C 0.57194 1.00205 0.29529 0.0
C409 C 0.56505 1.01402 0.326 0.0
H410 H 0.75665 0.61422 0.75577 0.0
H411 H 0.61071 0.61708 0.71849 0.0
H412 H 0.65534 0.64135 0.66945 0.0
H413 H 0.73632 0.66131 0.63776 0.0
H414 H 0.88024 0.65647 0.67675 0.0
H415 H 0.83605 0.63482 0.72533 0.0
C416 C 0.73412 0.61981 0.73698 0.0
C417 C 0.68021 0.61338 0.74061 0.0
C418 C 0.76001 0.63409 0.70945 0.0
C419 C 0.6522 0.62163 0.71612 0.0
C420 C 0.67773 0.63555 0.68821 0.0
C421 C 0.75778 0.65517 0.65687 0.0
C422 C 0.81149 0.66041 0.65368 0.0
C423 C 0.73166 0.64179 0.68467 0.0
C424 C 0.83931 0.65343 0.67874 0.0
C425 C 0.81386 0.64052 0.70642 0.0
H426 H 0.67163 0.09106 0.60073 0.0
H427 H 0.56397 0.16401 0.59029 0.0
H428 H 0.55462 0.16828 0.64576 0.0
H429 H 0.57698 0.15149 0.69735 0.0
H430 H 0.68744 1.08165 0.70764 0.0
H431 H 0.69425 1.07469 0.65218 0.0
C432 C 0.64601 0.10795 0.61044 0.0
C433 C 0.61856 0.12727 0.59099 0.0
C434 C 0.6408 0.11032 0.64246 0.0
C435 C 0.58569 0.14891 0.6044 0.0
C436 C 0.58024 0.15127 0.63623 0.0
C437 C 0.60292 0.13504 0.68761 0.0
C438 C 0.63162 0.11711 0.70713 0.0
C439 C 0.60765 0.13217 0.65552 0.0
C440 C 0.66401 0.09493 0.69356 0.0
C441 C 0.66844 0.09146 0.66171 0.0
H442 H 0.68983 0.66584 0.93882 0.0
H443 H 0.51855 0.52278 0.9227 0.0
H444 H 0.50969 0.52064 0.97831 0.0
H445 H 0.55277 0.55734 0.03199 0.0
H446 H 0.72458 0.69982 0.0462 0.0
H447 H 0.73083 0.70418 -0.009 0.0
C448 C 0.65022 0.63412 0.94724 0.0
C449 C 0.60489 0.59435 0.92629 0.0
C450 C 0.64558 0.63305 0.97913 0.0
C451 C 0.55415 0.55396 0.93809 0.0
C452 C 0.54912 0.55271 0.96997 0.0
C453 C 0.59114 0.58984 0.02294 0.0
C454 C 0.63821 0.62813 0.04333 0.0
C455 C 0.59474 0.59182 -0.00921 0.0
C456 C 0.68788 0.66962 0.03113 0.0
C457 C 0.69153 0.67214 -0.00048 0.0
H458 H 1.12534 0.70179 0.27476 0.0
H459 H 1.0944 0.5296 0.25288 0.0
H460 H 1.10415 0.5208 0.30741 0.0
H461 H 1.12501 0.56336 0.36179 0.0
H462 H 0.15845 0.73647 0.38288 0.0
H463 H 0.14399 0.7433 0.32863 0.0
C464 C 1.12027 0.66211 0.28185 0.0
C465 C 1.10896 0.61642 0.2595 0.0
C466 C 1.12643 0.65743 0.31336 0.0
C467 C 1.10311 0.5656 0.26938 0.0
C468 C 1.10865 0.56045 0.30068 0.0
C469 C 1.12814 0.60212 0.35449 0.0
C470 C 0.14257 0.64922 0.37648 0.0
C471 C 1.12061 0.60617 0.32294 0.0
C472 C 0.14743 0.69957 0.36651 0.0
C473 C 0.13926 0.70358 0.33543 0.0
loop_
_geom_bond_atom_site_label_1
_geom_bond_atom_site_label_2
_geom_bond_distance
_geom_bond_site_symmetry_2
_ccdc_geom_bond_type
Eu0 C9 2.828 . S
Eu0 O11 2.392 1_655 S
Eu0 O13 2.418 . S
Eu0 O18 2.373 . S
Eu0 O21 2.488 . S
Eu0 O22 2.471 . S
Eu0 O23 2.352 1_655 S
Eu1 O10 2.373 . S
Eu1 O14 2.488 . S
Eu1 O15 2.471 . S
Eu1 O16 2.349 . S
Eu1 O19 2.392 1_455 S
Eu1 O20 2.418 . S
Eu1 C30 2.828 . S
C2 O20 1.244 . S
C2 O23 1.267 . S
C3 C4 1.379 . S
C3 C7 1.373 . S
C3 C9 1.505 . S
C4 C3 1.379 . S
C4 C6 1.369 . S
C4 H32 0.930 . S
C5 C7 1.383 . S
C5 C8 1.382 . S
C5 H33 0.930 . S
C6 C4 1.369 . S
C6 C8 1.392 . S
C6 H34 0.930 . S
C7 C3 1.373 . S
C7 C5 1.383 . S
C7 H35 0.931 . S
C8 C5 1.382 . S
C8 C6 1.392 . S
C9 Eu0 2.828 . S
C9 C3 1.505 . S
C9 O21 1.249 . S
C9 O22 1.244 . S
O10 Eu1 2.373 . S
O10 C12 1.258 . S
O11 Eu0 2.392 1_455 S
O11 C12 1.242 . S
C12 O10 1.258 . S
C12 O11 1.242 . S
O13 Eu0 2.418 . S
O13 C17 1.244 1_655 S
O14 Eu1 2.488 . S
O14 C30 1.249 . S
O15 Eu1 2.471 . S
O15 C30 1.244 . S
O16 Eu1 2.349 . S
O16 C17 1.265 . S
C17 O13 1.244 1_455 S
C17 O16 1.265 . S
O18 Eu0 2.373 . S
O18 C31 1.258 . S
O19 Eu1 2.392 1_655 S
O19 C31 1.242 . S
O20 Eu1 2.418 . S
O20 C2 1.244 . S
O21 Eu0 2.488 . S
O21 C9 1.249 . S
O22 Eu0 2.471 . S
O22 C9 1.244 . S
O23 Eu0 2.352 1_455 S
O23 C2 1.267 . S
C24 C25 1.379 . S
C24 C28 1.373 . S
C24 C30 1.505 . S
C25 C24 1.379 . S
C25 C27 1.369 . S
C25 H36 0.930 . S
C26 C28 1.383 . S
C26 C29 1.382 . S
C26 H37 0.930 . S
C27 C25 1.369 . S
C27 C29 1.392 . S
C27 H38 0.930 . S
C28 C24 1.373 . S
C28 C26 1.383 . S
C28 H39 0.931 . S
C29 C26 1.382 . S
C29 C27 1.392 . S
C30 Eu1 2.828 . S
C30 O14 1.249 . S
C30 O15 1.244 . S
C30 C24 1.505 . S
C31 O18 1.258 . S
C31 O19 1.242 . S
H32 C4 0.930 . S
H33 C5 0.930 . S
H34 C6 0.930 . S
H35 C7 0.931 . S
H36 C25 0.930 . S
H37 C26 0.930 . S
H38 C27 0.930 . S
H39 C28 0.931 . S
Eu40 C49 2.828 . S
Eu40 O51 2.392 1_565 S
Eu40 O53 2.418 . S
Eu40 O58 2.373 . S
Eu40 O61 2.488 . S
Eu40 O62 2.471 . S
Eu40 O63 2.349 1_565 S
Eu41 O50 2.373 . S
Eu41 O54 2.488 . S
Eu41 O55 2.471 . S
Eu41 O56 2.349 . S
Eu41 O59 2.392 1_545 S
Eu41 O60 2.418 . S
Eu41 C70 2.828 . S
C42 O60 1.244 . S
C42 O63 1.265 . S
C43 C44 1.379 . S
C43 C47 1.373 . S
C43 C49 1.505 . S
C44 C43 1.379 . S
C44 C46 1.369 . S
C44 H72 0.930 . S
C45 C47 1.383 . S
C45 C48 1.382 . S
C45 H73 0.930 . S
C46 C44 1.369 . S
C46 C48 1.392 . S
C46 H74 0.930 . S
C47 C43 1.373 . S
C47 C45 1.383 . S
C47 H75 0.931 . S
C48 C45 1.382 . S
C48 C46 1.392 . S
C49 Eu40 2.828 . S
C49 C43 1.505 . S
C49 O61 1.249 . S
C49 O62 1.244 . S
O50 Eu41 2.373 . S
O50 C52 1.258 . S
O51 Eu40 2.392 1_545 S
O51 C52 1.242 . S
C52 O50 1.258 . S
C52 O51 1.242 . S
O53 Eu40 2.418 . S
O53 C57 1.244 1_565 S
O54 Eu41 2.488 . S
O54 C70 1.249 . S
O55 Eu41 2.471 . S
O55 C70 1.244 . S
O56 Eu41 2.349 . S
O56 C57 1.265 . S
C57 O53 1.244 1_545 S
C57 O56 1.265 . S
O58 Eu40 2.373 . S
O58 C71 1.258 . S
O59 Eu41 2.392 1_565 S
O59 C71 1.242 . S
O60 Eu41 2.418 . S
O60 C42 1.244 . S
O61 Eu40 2.488 . S
O61 C49 1.249 . S
O62 Eu40 2.471 . S
O62 C49 1.244 . S
O63 Eu40 2.349 1_545 S
O63 C42 1.265 . S
C64 C65 1.379 . S
C64 C68 1.373 . S
C64 C70 1.505 . S
C65 C64 1.379 . S
C65 C67 1.369 . S
C65 H76 0.930 . S
C66 C68 1.383 . S
C66 C69 1.382 . S
C66 H77 0.930 . S
C67 C65 1.369 . S
C67 C69 1.392 . S
C67 H78 0.930 . S
C68 C64 1.373 . S
C68 C66 1.383 . S
C68 H79 0.931 . S
C69 C66 1.382 . S
C69 C67 1.392 . S
C70 Eu41 2.828 . S
C70 O54 1.249 . S
C70 O55 1.244 . S
C70 C64 1.505 . S
C71 O58 1.258 . S
C71 O59 1.242 . S
H72 C44 0.930 . S
H73 C45 0.930 . S
H74 C46 0.930 . S
H75 C47 0.931 . S
H76 C65 0.930 . S
H77 C66 0.930 . S
H78 C67 0.930 . S
H79 C68 0.931 . S
Eu80 C89 2.828 . S
Eu80 O91 2.392 . S
Eu80 O93 2.418 . S
Eu80 O98 2.373 . S
Eu80 O101 2.488 . S
Eu80 O102 2.471 . S
Eu80 O103 2.349 . S
Eu81 O90 2.373 . S
Eu81 O94 2.488 . S
Eu81 O95 2.471 . S
Eu81 O96 2.349 . S
Eu81 O99 2.392 . S
Eu81 O100 2.418 . S
Eu81 C110 2.828 . S
C82 O100 1.244 . S
C82 O103 1.265 . S
C83 C84 1.379 . S
C83 C87 1.373 . S
C83 C89 1.505 . S
C84 C83 1.379 . S
C84 C86 1.369 . S
C84 H112 0.930 . S
C85 C87 1.383 . S
C85 C88 1.382 . S
C85 H113 0.930 . S
C86 C84 1.369 . S
C86 C88 1.392 . S
C86 H114 0.930 . S
C87 C83 1.373 . S
C87 C85 1.383 . S
C87 H115 0.931 . S
C88 C85 1.382 . S
C88 C86 1.392 . S
C89 Eu80 2.828 . S
C89 C83 1.505 . S
C89 O101 1.249 . S
C89 O102 1.244 . S
O90 Eu81 2.373 . S
O90 C92 1.258 . S
O91 Eu80 2.392 . S
O91 C92 1.242 . S
C92 O90 1.258 . S
C92 O91 1.242 . S
O93 Eu80 2.418 . S
O93 C97 1.244 . S
O94 Eu81 2.488 . S
O94 C110 1.249 . S
O95 Eu81 2.471 . S
O95 C110 1.244 . S
O96 Eu81 2.349 . S
O96 C97 1.265 . S
C97 O93 1.244 . S
C97 O96 1.265 . S
O98 Eu80 2.373 . S
O98 C111 1.258 . S
O99 Eu81 2.392 . S
O99 C111 1.242 . S
O100 Eu81 2.418 . S
O100 C82 1.244 . S
O101 Eu80 2.488 . S
O101 C89 1.249 . S
O102 Eu80 2.471 . S
O102 C89 1.244 . S
O103 Eu80 2.349 . S
O103 C82 1.265 . S
C104 C105 1.379 . S
C104 C108 1.373 . S
C104 C110 1.505 . S
C105 C104 1.379 . S
C105 C107 1.369 . S
C105 H116 0.930 . S
C106 C108 1.383 . S
C106 C109 1.382 . S
C106 H117 0.930 . S
C107 C105 1.369 . S
C107 C109 1.392 . S
C107 H118 0.930 . S
C108 C104 1.373 . S
C108 C106 1.383 . S
C108 H119 0.931 . S
C109 C106 1.382 . S
C109 C107 1.392 . S
C110 Eu81 2.828 . S
C110 O94 1.249 . S
C110 O95 1.244 . S
C110 C104 1.505 . S
C111 O98 1.258 . S
C111 O99 1.242 . S
H112 C84 0.930 . S
H113 C85 0.930 . S
H114 C86 0.930 . S
H115 C87 0.931 . S
H116 C105 0.930 . S
H117 C106 0.930 . S
H118 C107 0.930 . S
H119 C108 0.931 . S
H120 C123 0.929 . S
H121 C126 0.929 . S
H122 C128 0.930 . S
C123 H120 0.929 . S
C123 C124 1.398 . S
C123 C125 1.396 1_565 S
C124 C123 1.398 . S
C124 C128 1.407 1_565 S
C125 C123 1.396 1_545 S
C125 C126 1.394 . S
C126 H121 0.929 . S
C126 C125 1.394 . S
C126 C127 1.382 . S
C127 C126 1.382 . S
C127 C128 1.392 . S
C127 N129 1.420 . S
C128 H122 0.930 . S
C128 C124 1.407 1_545 S
C128 C127 1.392 . S
N129 C127 1.420 . S
N129 C130 1.244 . S
C130 N129 1.244 . S
H131 C134 0.929 . S
H132 C137 0.929 . S
H133 C139 0.930 . S
C134 H131 0.929 . S
C134 C135 1.398 . S
C134 C136 1.396 . S
C135 C134 1.398 . S
C135 C139 1.407 . S
C136 C134 1.396 . S
C136 C137 1.394 . S
C137 H132 0.929 . S
C137 C136 1.394 . S
C137 C138 1.382 . S
C138 C137 1.382 . S
C138 C139 1.392 . S
C138 N140 1.420 . S
C139 H133 0.930 . S
C139 C135 1.407 . S
C139 C138 1.392 . S
N140 C138 1.420 . S
N140 C141 1.244 . S
C141 N140 1.244 . S
H142 C145 0.929 1_655 S
H143 C148 0.929 . S
H144 C150 0.930 . S
C145 H142 0.929 1_455 S
C145 C146 1.398 1_455 S
C145 C147 1.396 . S
C146 C145 1.398 1_655 S
C146 C150 1.407 1_655 S
C147 C145 1.396 . S
C147 C148 1.394 . S
C148 H143 0.929 . S
C148 C147 1.394 . S
C148 C149 1.382 . S
C149 C148 1.382 . S
C149 C150 1.392 . S
C149 N151 1.420 . S
C150 H144 0.930 . S
C150 C146 1.407 1_455 S
C150 C149 1.392 . S
N151 C149 1.420 . S
N151 C152 1.244 . S
C152 N151 1.244 . S
H153 C156 0.929 . S
H154 C159 0.929 . S
H155 C161 0.930 . S
C156 H153 0.929 . S
C156 C157 1.398 . S
C156 C158 1.396 . S
C157 C156 1.398 . S
C157 C161 1.407 . S
C158 C156 1.396 . S
C158 C159 1.394 1_455 S
C159 H154 0.929 . S
C159 C158 1.394 1_655 S
C159 C160 1.382 1_655 S
C160 C159 1.382 1_455 S
C160 C161 1.392 . S
C160 N162 1.420 1_455 S
C161 H155 0.930 . S
C161 C157 1.407 . S
C161 C160 1.392 . S
N162 C160 1.420 1_655 S
N162 C163 1.244 . S
C163 N162 1.244 . S
H164 C167 0.929 . S
H165 C170 0.929 1_565 S
H166 C172 0.930 . S
C167 H164 0.929 . S
C167 C168 1.398 . S
C167 C169 1.396 . S
C168 C167 1.398 . S
C168 C172 1.407 . S
C169 C167 1.396 . S
C169 C170 1.394 . S
C170 H165 0.929 1_545 S
C170 C169 1.394 . S
C170 C171 1.382 . S
C171 C170 1.382 . S
C171 C172 1.392 . S
C171 N173 1.420 1_545 S
C172 H166 0.930 . S
C172 C168 1.407 . S
C172 C171 1.392 . S
N173 C171 1.420 1_565 S
N173 C174 1.244 . S
C174 N173 1.244 . S
H175 C178 0.929 . S
H176 C181 0.929 . S
H177 C183 0.930 . S
C178 H175 0.929 . S
C178 C179 1.398 . S
C178 C180 1.396 . S
C179 C178 1.398 . S
C179 C183 1.407 . S
C180 C178 1.396 . S
C180 C181 1.394 . S
C181 H176 0.929 . S
C181 C180 1.394 . S
C181 C182 1.382 . S
C182 C181 1.382 . S
C182 C183 1.392 . S
C182 N184 1.420 . S
C183 H177 0.930 . S
C183 C179 1.407 . S
C183 C182 1.392 . S
N184 C182 1.420 . S
N184 C185 1.244 . S
C185 N184 1.244 . S
H186 C192 0.930 . S
H187 C195 0.930 . S
H188 C196 0.930 . S
H189 C197 0.930 . S
H190 C200 0.930 . S
H191 C201 0.930 . S
C192 H186 0.930 . S
C192 C193 1.355 . S
C192 C194 1.415 . S
C193 C192 1.355 . S
C193 C195 1.419 . S
C194 C192 1.415 . S
C194 C199 1.425 . S
C194 C201 1.409 . S
C195 H187 0.930 . S
C195 C193 1.419 . S
C195 C196 1.362 . S
C196 H188 0.930 . S
C196 C195 1.362 . S
C196 C199 1.409 . S
C197 H189 0.930 . S
C197 C198 1.355 . S
C197 C199 1.415 . S
C198 C197 1.355 . S
C198 C200 1.419 . S
C199 C194 1.425 . S
C199 C196 1.409 . S
C199 C197 1.415 . S
C200 H190 0.930 . S
C200 C198 1.419 . S
C200 C201 1.362 . S
C201 H191 0.930 . S
C201 C194 1.409 . S
C201 C200 1.362 . S
H202 C208 0.930 . S
H203 C211 0.930 . S
H204 C212 0.930 . S
H205 C213 0.930 . S
H206 C216 0.930 . S
H207 C217 0.930 . S
C208 H202 0.930 . S
C208 C209 1.355 . S
C208 C210 1.415 . S
C209 C208 1.355 . S
C209 C211 1.419 . S
C210 C208 1.415 . S
C210 C215 1.425 . S
C210 C217 1.409 . S
C211 H203 0.930 . S
C211 C209 1.419 . S
C211 C212 1.362 . S
C212 H204 0.930 . S
C212 C211 1.362 . S
C212 C215 1.409 . S
C213 H205 0.930 . S
C213 C214 1.355 . S
C213 C215 1.415 . S
C214 C213 1.355 . S
C214 C216 1.419 . S
C215 C210 1.425 . S
C215 C212 1.409 . S
C215 C213 1.415 . S
C216 H206 0.930 . S
C216 C214 1.419 . S
C216 C217 1.362 . S
C217 H207 0.930 . S
C217 C210 1.409 . S
C217 C216 1.362 . S
H218 C224 0.930 . S
H219 C227 0.930 . S
H220 C228 0.930 . S
H221 C229 0.930 . S
H222 C232 0.930 . S
H223 C233 0.930 . S
C224 H218 0.930 . S
C224 C225 1.355 . S
C224 C226 1.415 . S
C225 C224 1.355 . S
C225 C227 1.419 . S
C226 C224 1.415 . S
C226 C231 1.425 . S
C226 C233 1.409 . S
C227 H219 0.930 . S
C227 C225 1.419 . S
C227 C228 1.362 . S
C228 H220 0.930 . S
C228 C227 1.362 . S
C228 C231 1.409 . S
C229 H221 0.930 . S
C229 C230 1.355 . S
C229 C231 1.415 . S
C230 C229 1.355 . S
C230 C232 1.419 . S
C231 C226 1.425 . S
C231 C228 1.409 . S
C231 C229 1.415 . S
C232 H222 0.930 . S
C232 C230 1.419 . S
C232 C233 1.362 . S
C233 H223 0.930 . S
C233 C226 1.409 . S
C233 C232 1.362 . S
H234 C240 0.930 . S
H235 C243 0.930 . S
H236 C244 0.930 . S
H237 C245 0.930 . S
H238 C248 0.930 . S
H239 C249 0.930 . S
C240 H234 0.930 . S
C240 C241 1.355 . S
C240 C242 1.415 . S
C241 C240 1.355 . S
C241 C243 1.419 . S
C242 C240 1.415 . S
C242 C247 1.425 . S
C242 C249 1.409 . S
C243 H235 0.930 . S
C243 C241 1.419 . S
C243 C244 1.362 . S
C244 H236 0.930 . S
C244 C243 1.362 . S
C244 C247 1.409 . S
C245 H237 0.930 . S
C245 C246 1.355 . S
C245 C247 1.415 . S
C246 C245 1.355 . S
C246 C248 1.419 . S
C247 C242 1.425 . S
C247 C244 1.409 . S
C247 C245 1.415 . S
C248 H238 0.930 . S
C248 C246 1.419 . S
C248 C249 1.362 . S
C249 H239 0.930 . S
C249 C242 1.409 . S
C249 C248 1.362 . S
H250 C256 0.930 . S
H251 C259 0.930 . S
H252 C260 0.930 . S
H253 C261 0.930 . S
H254 C264 0.930 . S
H255 C265 0.930 . S
C256 H250 0.930 . S
C256 C257 1.355 . S
C256 C258 1.415 . S
C257 C256 1.355 . S
C257 C259 1.419 . S
C258 C256 1.415 . S
C258 C263 1.425 . S
C258 C265 1.409 . S
C259 H251 0.930 . S
C259 C257 1.419 . S
C259 C260 1.362 . S
C260 H252 0.930 . S
C260 C259 1.362 . S
C260 C263 1.409 . S
C261 H253 0.930 . S
C261 C262 1.355 . S
C261 C263 1.415 . S
C262 C261 1.355 . S
C262 C264 1.419 . S
C263 C258 1.425 . S
C263 C260 1.409 . S
C263 C261 1.415 . S
C264 H254 0.930 . S
C264 C262 1.419 . S
C264 C265 1.362 . S
C265 H255 0.930 . S
C265 C258 1.409 . S
C265 C264 1.362 . S
H266 C272 0.930 . S
H267 C275 0.930 . S
H268 C276 0.930 . S
H269 C277 0.930 . S
H270 C280 0.930 . S
H271 C281 0.930 . S
C272 H266 0.930 . S
C272 C273 1.355 . S
C272 C274 1.415 . S
C273 C272 1.355 . S
C273 C275 1.419 . S
C274 C272 1.415 . S
C274 C279 1.425 . S
C274 C281 1.409 . S
C275 H267 0.930 . S
C275 C273 1.419 . S
C275 C276 1.362 . S
C276 H268 0.930 . S
C276 C275 1.362 . S
C276 C279 1.409 . S
C277 H269 0.930 . S
C277 C278 1.355 . S
C277 C279 1.415 . S
C278 C277 1.355 . S
C278 C280 1.419 . S
C279 C274 1.425 . S
C279 C276 1.409 . S
C279 C277 1.415 . S
C280 H270 0.930 . S
C280 C278 1.419 . S
C280 C281 1.362 . S
C281 H271 0.930 . S
C281 C274 1.409 . S
C281 C280 1.362 . S
H282 C288 0.930 . S
H283 C291 0.930 . S
H284 C292 0.930 . S
H285 C293 0.930 . S
H286 C296 0.930 . S
H287 C297 0.930 . S
C288 H282 0.930 . S
C288 C289 1.355 . S
C288 C290 1.415 . S
C289 C288 1.355 . S
C289 C291 1.419 . S
C290 C288 1.415 . S
C290 C295 1.425 . S
C290 C297 1.409 . S
C291 H283 0.930 . S
C291 C289 1.419 . S
C291 C292 1.362 . S
C292 H284 0.930 . S
C292 C291 1.362 . S
C292 C295 1.409 . S
C293 H285 0.930 . S
C293 C294 1.355 . S
C293 C295 1.415 . S
C294 C293 1.355 . S
C294 C296 1.419 . S
C295 C290 1.425 . S
C295 C292 1.409 . S
C295 C293 1.415 . S
C296 H286 0.930 . S
C296 C294 1.419 . S
C296 C297 1.362 . S
C297 H287 0.930 . S
C297 C290 1.409 . S
C297 C296 1.362 . S
H298 C304 0.930 . S
H299 C307 0.930 . S
H300 C308 0.930 . S
H301 C309 0.930 . S
H302 C312 0.930 . S
H303 C313 0.930 . S
C304 H298 0.930 . S
C304 C305 1.355 . S
C304 C306 1.415 . S
C305 C304 1.355 . S
C305 C307 1.419 . S
C306 C304 1.415 . S
C306 C311 1.425 . S
C306 C313 1.409 . S
C307 H299 0.930 . S
C307 C305 1.419 . S
C307 C308 1.362 . S
C308 H300 0.930 . S
C308 C307 1.362 . S
C308 C311 1.409 . S
C309 H301 0.930 . S
C309 C310 1.355 . S
C309 C311 1.415 . S
C310 C309 1.355 . S
C310 C312 1.419 . S
C311 C306 1.425 . S
C311 C308 1.409 . S
C311 C309 1.415 . S
C312 H302 0.930 . S
C312 C310 1.419 . S
C312 C313 1.362 . S
C313 H303 0.930 . S
C313 C306 1.409 . S
C313 C312 1.362 . S
H314 C320 0.930 . S
H315 C323 0.930 . S
H316 C324 0.930 . S
H317 C325 0.930 . S
H318 C328 0.930 1_545 S
H319 C329 0.930 . S
C320 H314 0.930 . S
C320 C321 1.355 . S
C320 C322 1.415 . S
C321 C320 1.355 . S
C321 C323 1.419 . S
C322 C320 1.415 . S
C322 C327 1.425 . S
C322 C329 1.409 . S
C323 H315 0.930 . S
C323 C321 1.419 . S
C323 C324 1.362 . S
C324 H316 0.930 . S
C324 C323 1.362 . S
C324 C327 1.409 . S
C325 H317 0.930 . S
C325 C326 1.355 . S
C325 C327 1.415 . S
C326 C325 1.355 . S
C326 C328 1.419 . S
C327 C322 1.425 . S
C327 C324 1.409 . S
C327 C325 1.415 . S
C328 H318 0.930 1_565 S
C328 C326 1.419 . S
C328 C329 1.362 . S
C329 H319 0.930 . S
C329 C322 1.409 . S
C329 C328 1.362 . S
H330 C336 0.930 . S
H331 C339 0.930 . S
H332 C340 0.930 . S
H333 C341 0.930 . S
H334 C344 0.930 . S
H335 C345 0.930 . S
C336 H330 0.930 . S
C336 C337 1.355 . S
C336 C338 1.415 . S
C337 C336 1.355 . S
C337 C339 1.419 . S
C338 C336 1.415 . S
C338 C343 1.425 . S
C338 C345 1.409 . S
C339 H331 0.930 . S
C339 C337 1.419 . S
C339 C340 1.362 . S
C340 H332 0.930 . S
C340 C339 1.362 . S
C340 C343 1.409 . S
C341 H333 0.930 . S
C341 C342 1.355 . S
C341 C343 1.415 . S
C342 C341 1.355 . S
C342 C344 1.419 . S
C343 C338 1.425 . S
C343 C340 1.409 . S
C343 C341 1.415 . S
C344 H334 0.930 . S
C344 C342 1.419 . S
C344 C345 1.362 . S
C345 H335 0.930 . S
C345 C338 1.409 . S
C345 C344 1.362 . S
H346 C352 0.930 . S
H347 C355 0.930 . S
H348 C356 0.930 . S
H349 C357 0.930 . S
H350 C360 0.930 . S
H351 C361 0.930 . S
C352 H346 0.930 . S
C352 C353 1.355 . S
C352 C354 1.415 . S
C353 C352 1.355 . S
C353 C355 1.419 . S
C354 C352 1.415 . S
C354 C359 1.425 . S
C354 C361 1.409 . S
C355 H347 0.930 . S
C355 C353 1.419 . S
C355 C356 1.362 . S
C356 H348 0.930 . S
C356 C355 1.362 . S
C356 C359 1.409 . S
C357 H349 0.930 . S
C357 C358 1.355 . S
C357 C359 1.415 . S
C358 C357 1.355 . S
C358 C360 1.419 . S
C359 C354 1.425 . S
C359 C356 1.409 . S
C359 C357 1.415 . S
C360 H350 0.930 . S
C360 C358 1.419 . S
C360 C361 1.362 . S
C361 H351 0.930 . S
C361 C354 1.409 . S
C361 C360 1.362 . S
H362 C368 0.930 . S
H363 C371 0.930 . S
H364 C372 0.930 . S
H365 C373 0.930 . S
H366 C376 0.930 . S
H367 C377 0.930 . S
C368 H362 0.930 . S
C368 C369 1.355 . S
C368 C370 1.415 . S
C369 C368 1.355 . S
C369 C371 1.419 . S
C370 C368 1.415 . S
C370 C375 1.425 . S
C370 C377 1.409 . S
C371 H363 0.930 . S
C371 C369 1.419 . S
C371 C372 1.362 . S
C372 H364 0.930 . S
C372 C371 1.362 . S
C372 C375 1.409 . S
C373 H365 0.930 . S
C373 C374 1.355 . S
C373 C375 1.415 . S
C374 C373 1.355 . S
C374 C376 1.419 . S
C375 C370 1.425 . S
C375 C372 1.409 . S
C375 C373 1.415 . S
C376 H366 0.930 . S
C376 C374 1.419 . S
C376 C377 1.362 . S
C377 H367 0.930 . S
C377 C370 1.409 . S
C377 C376 1.362 . S
H378 C384 0.930 1_655 S
H379 C387 0.930 . S
H380 C388 0.930 . S
H381 C389 0.930 . S
H382 C392 0.930 . S
H383 C393 0.930 1_654 S
C384 H378 0.930 1_455 S
C384 C385 1.355 . S
C384 C386 1.415 . S
C385 C384 1.355 . S
C385 C387 1.419 . S
C386 C384 1.415 . S
C386 C391 1.425 . S
C386 C393 1.409 1_554 S
C387 H379 0.930 . S
C387 C385 1.419 . S
C387 C388 1.362 . S
C388 H380 0.930 . S
C388 C387 1.362 . S
C388 C391 1.409 . S
C389 H381 0.930 . S
C389 C390 1.355 . S
C389 C391 1.415 1_556 S
C390 C389 1.355 . S
C390 C392 1.419 . S
C391 C386 1.425 . S
C391 C388 1.409 . S
C391 C389 1.415 1_554 S
C392 H382 0.930 . S
C392 C390 1.419 . S
C392 C393 1.362 . S
C393 H383 0.930 1_456 S
C393 C386 1.409 1_556 S
C393 C392 1.362 . S
H394 C400 0.930 . S
H395 C403 0.930 . S
H396 C404 0.930 . S
H397 C405 0.930 . S
H398 C408 0.930 . S
H399 C409 0.930 . S
C400 H394 0.930 . S
C400 C401 1.355 1_565 S
C400 C402 1.415 1_565 S
C401 C400 1.355 1_545 S
C401 C403 1.419 . S
C402 C400 1.415 1_545 S
C402 C407 1.425 . S
C402 C409 1.409 1_545 S
C403 H395 0.930 . S
C403 C401 1.419 . S
C403 C404 1.362 . S
C404 H396 0.930 . S
C404 C403 1.362 . S
C404 C407 1.409 . S
C405 H397 0.930 . S
C405 C406 1.355 . S
C405 C407 1.415 . S
C406 C405 1.355 . S
C406 C408 1.419 1_545 S
C407 C402 1.425 . S
C407 C404 1.409 . S
C407 C405 1.415 . S
C408 H398 0.930 . S
C408 C406 1.419 1_565 S
C408 C409 1.362 . S
C409 H399 0.930 . S
C409 C402 1.409 1_565 S
C409 C408 1.362 . S
H410 C416 0.930 . S
H411 C419 0.930 . S
H412 C420 0.930 . S
H413 C421 0.930 . S
H414 C424 0.930 . S
H415 C425 0.930 . S
C416 H410 0.930 . S
C416 C417 1.355 . S
C416 C418 1.415 . S
C417 C416 1.355 . S
C417 C419 1.419 . S
C418 C416 1.415 . S
C418 C423 1.425 . S
C418 C425 1.409 . S
C419 H411 0.930 . S
C419 C417 1.419 . S
C419 C420 1.362 . S
C420 H412 0.930 . S
C420 C419 1.362 . S
C420 C423 1.409 . S
C421 H413 0.930 . S
C421 C422 1.355 . S
C421 C423 1.415 . S
C422 C421 1.355 . S
C422 C424 1.419 . S
C423 C418 1.425 . S
C423 C420 1.409 . S
C423 C421 1.415 . S
C424 H414 0.930 . S
C424 C422 1.419 . S
C424 C425 1.362 . S
C425 H415 0.930 . S
C425 C418 1.409 . S
C425 C424 1.362 . S
H426 C432 0.930 . S
H427 C435 0.930 . S
H428 C436 0.930 . S
H429 C437 0.930 1_565 S
H430 C440 0.930 . S
H431 C441 0.930 . S
C432 H426 0.930 . S
C432 C433 1.355 . S
C432 C434 1.415 . S
C433 C432 1.355 . S
C433 C435 1.419 1_545 S
C434 C432 1.415 . S
C434 C439 1.425 . S
C434 C441 1.409 . S
C435 H427 0.930 . S
C435 C433 1.419 1_565 S
C435 C436 1.362 . S
C436 H428 0.930 . S
C436 C435 1.362 . S
C436 C439 1.409 1_565 S
C437 H429 0.930 1_545 S
C437 C438 1.355 . S
C437 C439 1.415 . S
C438 C437 1.355 . S
C438 C440 1.419 . S
C439 C434 1.425 . S
C439 C436 1.409 1_545 S
C439 C437 1.415 . S
C440 H430 0.930 . S
C440 C438 1.419 . S
C440 C441 1.362 . S
C441 H431 0.930 . S
C441 C434 1.409 . S
C441 C440 1.362 . S
H442 C448 0.930 . S
H443 C451 0.930 . S
H444 C452 0.930 . S
H445 C453 0.930 . S
H446 C456 0.930 . S
H447 C457 0.930 . S
C448 H442 0.930 . S
C448 C449 1.355 . S
C448 C450 1.415 . S
C449 C448 1.355 . S
C449 C451 1.419 . S
C450 C448 1.415 . S
C450 C455 1.425 . S
C450 C457 1.409 1_556 S
C451 H443 0.930 . S
C451 C449 1.419 . S
C451 C452 1.362 . S
C452 H444 0.930 . S
C452 C451 1.362 . S
C452 C455 1.409 . S
C453 H445 0.930 . S
C453 C454 1.355 . S
C453 C455 1.415 1_554 S
C454 C453 1.355 . S
C454 C456 1.419 . S
C455 C450 1.425 . S
C455 C452 1.409 . S
C455 C453 1.415 1_556 S
C456 H446 0.930 . S
C456 C454 1.419 . S
C456 C457 1.362 . S
C457 H447 0.930 . S
C457 C450 1.409 1_554 S
C457 C456 1.362 . S
H458 C464 0.930 . S
H459 C467 0.930 . S
H460 C468 0.930 . S
H461 C469 0.930 . S
H462 C472 0.930 . S
H463 C473 0.930 1_655 S
C464 H458 0.930 . S
C464 C465 1.355 . S
C464 C466 1.415 . S
C465 C464 1.355 . S
C465 C467 1.419 . S
C466 C464 1.415 . S
C466 C471 1.425 . S
C466 C473 1.409 . S
C467 H459 0.930 . S
C467 C465 1.419 . S
C467 C468 1.362 . S
C468 H460 0.930 . S
C468 C467 1.362 . S
C468 C471 1.409 . S
C469 H461 0.930 . S
C469 C470 1.355 . S
C469 C471 1.415 . S
C470 C469 1.355 . S
C470 C472 1.419 . S
C471 C466 1.425 . S
C471 C468 1.409 . S
C471 C469 1.415 . S
C472 H462 0.930 . S
C472 C470 1.419 . S
C472 C473 1.362 . S
C473 H463 0.930 1_455 S
C473 C466 1.409 . S
C473 C472 1.362 . S
C193 C12 3.043 . S
C198 C185 2.959 . S
C209 C52 3.046 . S
C214 C163 2.974 . S
C225 C111 3.057 . S
C230 C174 2.973 . S
C241 C31 3.033 . S
C246 C179 2.995 . S
C262 C157 2.976 . S
C257 C71 3.034 . S
C278 C168 2.945 . S
C273 C92 3.002 . S
C289 C48 0.600 . S
C294 C141 0.626 . S
C305 C109 0.438 . S
C310 C146 0.315 . S
C321 C29 0.350 . S
C326 C124 0.308 . S
C342 C135 0.349 . S
C337 C69 0.380 . S
C358 C152 0.416 . S
C353 C88 0.403 . S
C369 C8 0.462 . S
C374 C130 0.481 . S
C390 C147 1.169 . S
C385 C17 1.110 . S
C401 C57 1.115 . S
C406 C125 1.144 . S
C417 C97 1.151 . S
C422 C136 1.213 . S
C438 C169 1.726 . S
C433 C42 1.717 . S
C454 C180 1.749 . S
C449 C82 1.750 . S
C465 C2 1.745 . S
C470 C158 1.759 . S
