# Generated by pormake.
# Topology pto, (3,4)-cn, num edge types: 1
# Building blocks:
#     Node 0, Type 0, BuildingBlock: WUSLED_clean_sbu_0, # of connection points: 3
#     Node 1, Type 0, BuildingBlock: WUSLED_clean_sbu_0, # of connection points: 3
#     Node 2, Type 0, BuildingBlock: WUSLED_clean_sbu_0, # of connection points: 3
#     Node 3, Type 0, BuildingBlock: WUSLED_clean_sbu_0, # of connection points: 3
#     Node 4, Type 0, BuildingBlock: WUSLED_clean_sbu_0, # of connection points: 3
#     Node 5, Type 0, BuildingBlock: WUSLED_clean_sbu_0, # of connection points: 3
#     Node 6, Type 0, BuildingBlock: WUSLED_clean_sbu_0, # of connection points: 3
#     Node 7, Type 0, BuildingBlock: WUSLED_clean_sbu_0, # of connection points: 3
#     Node 8, Type 1, BuildingBlock: AZAVOO_clean_linker_0, # of connection points: 4
#     Node 9, Type 1, BuildingBlock: AZAVOO_clean_linker_0, # of connection points: 4
#     Node 10, Type 1, BuildingBlock: AZAVOO_clean_linker_0, # of connection points: 4
#     Node 11, Type 1, BuildingBlock: AZAVOO_clean_linker_0, # of connection points: 4
#     Node 12, Type 1, BuildingBlock: AZAVOO_clean_linker_0, # of connection points: 4
#     Node 13, Type 1, BuildingBlock: AZAVOO_clean_linker_0, # of connection points: 4
#     Edge 14, Type (0, 1), BuildingBlock: AJUNOK_clean_linker_0, # of connection points: 2
#     Edge 15, Type (0, 1), BuildingBlock: AJUNOK_clean_linker_0, # of connection points: 2
#     Edge 16, Type (0, 1), BuildingBlock: AJUNOK_clean_linker_0, # of connection points: 2
#     Edge 17, Type (0, 1), BuildingBlock: AJUNOK_clean_linker_0, # of connection points: 2
#     Edge 18, Type (0, 1), BuildingBlock: AJUNOK_clean_linker_0, # of connection points: 2
#     Edge 19, Type (0, 1), BuildingBlock: AJUNOK_clean_linker_0, # of connection points: 2
#     Edge 20, Type (0, 1), BuildingBlock: AJUNOK_clean_linker_0, # of connection points: 2
#     Edge 21, Type (0, 1), BuildingBlock: AJUNOK_clean_linker_0, # of connection points: 2
#     Edge 22, Type (0, 1), BuildingBlock: AJUNOK_clean_linker_0, # of connection points: 2
#     Edge 23, Type (0, 1), BuildingBlock: AJUNOK_clean_linker_0, # of connection points: 2
#     Edge 24, Type (0, 1), BuildingBlock: AJUNOK_clean_linker_0, # of connection points: 2
#     Edge 25, Type (0, 1), BuildingBlock: AJUNOK_clean_linker_0, # of connection points: 2
#     Edge 26, Type (0, 1), BuildingBlock: AJUNOK_clean_linker_0, # of connection points: 2
#     Edge 27, Type (0, 1), BuildingBlock: AJUNOK_clean_linker_0, # of connection points: 2
#     Edge 28, Type (0, 1), BuildingBlock: AJUNOK_clean_linker_0, # of connection points: 2
#     Edge 29, Type (0, 1), BuildingBlock: AJUNOK_clean_linker_0, # of connection points: 2
#     Edge 30, Type (0, 1), BuildingBlock: AJUNOK_clean_linker_0, # of connection points: 2
#     Edge 31, Type (0, 1), BuildingBlock: AJUNOK_clean_linker_0, # of connection points: 2
#     Edge 32, Type (0, 1), BuildingBlock: AJUNOK_clean_linker_0, # of connection points: 2
#     Edge 33, Type (0, 1), BuildingBlock: AJUNOK_clean_linker_0, # of connection points: 2
#     Edge 34, Type (0, 1), BuildingBlock: AJUNOK_clean_linker_0, # of connection points: 2
#     Edge 35, Type (0, 1), BuildingBlock: AJUNOK_clean_linker_0, # of connection points: 2
#     Edge 36, Type (0, 1), BuildingBlock: AJUNOK_clean_linker_0, # of connection points: 2
#     Edge 37, Type (0, 1), BuildingBlock: AJUNOK_clean_linker_0, # of connection points: 2
# Relax obj value: 0.058
# Max RMSD: 0.245
# Mean RMSD: 0.095
data_MOF--net-pto--node1-WUSLED_clean_sbu_0--node2-AZAVOO_clean_linker_0--edge1-AJUNOK_clean_linker_0
_symmetry_space_group_name_H-M    P1
_symmetry_Int_Tables_number       1
_symmetry_cell_setting            triclinic
loop_
_symmetry_equiv_pos_as_xyz
'x, y, z'
_cell_length_a     50.251076
_cell_length_b     50.17567
_cell_length_c     49.893406
_cell_angle_alpha  89.334377
_cell_angle_beta   90.608485
_cell_angle_gamma 91.682899
loop_
_atom_site_label
_atom_site_type_symbol
_atom_site_fract_x
_atom_site_fract_y
_atom_site_fract_z
_atom_type_partial_charge
C0 C 0.24503 0.2465 0.30014 0.0
C1 C 0.26796 0.23123 0.2988 0.0
C2 C 0.25222 0.20311 0.33604 0.0
C3 C 0.27154 0.20972 0.31661 0.0
C4 C 0.22922 0.21836 0.33706 0.0
C5 C 0.22571 0.23985 0.31934 0.0
U6 U 0.26333 0.29013 0.23869 0.0
O7 O 0.23715 0.30859 0.20839 0.0
O8 O 0.26331 0.33375 0.23361 0.0
C9 C 0.24442 0.33299 0.21518 0.0
C10 C 0.2408 0.26937 0.28184 0.0
C11 C 0.22287 0.35217 0.21803 0.0
C12 C 0.19041 0.37502 0.24471 0.0
C13 C 0.20987 0.35565 0.24247 0.0
C14 C 0.19642 0.38727 0.19805 0.0
C15 C 0.18366 0.39126 0.22256 0.0
C16 C 0.21583 0.36799 0.19585 0.0
C17 C 0.32432 0.271 0.19647 0.0
C18 C 0.3341 0.2757 0.14886 0.0
C19 C 0.3699 0.26866 0.18076 0.0
C20 C 0.35159 0.26809 0.2017 0.0
C21 C 0.36133 0.27195 0.15405 0.0
C22 C 0.31575 0.27524 0.16987 0.0
C23 C 0.30537 0.26765 0.21887 0.0
O24 O 0.25911 0.28862 0.28258 0.0
O25 O 0.23306 0.26342 0.25733 0.0
O26 O 0.28075 0.26031 0.21267 0.0
O27 O 0.30689 0.28573 0.23772 0.0
H28 H 0.28305 0.23593 0.28399 0.0
H29 H 0.28925 0.19809 0.31499 0.0
H30 H 0.21405 0.21388 0.35184 0.0
H31 H 0.20788 0.25136 0.3207 0.0
H32 H 0.18056 0.37718 0.26372 0.0
H33 H 0.21489 0.34355 0.25982 0.0
H34 H 0.19175 0.39944 0.18065 0.0
H35 H 0.22564 0.36565 0.17682 0.0
H36 H 0.32697 0.27877 0.12853 0.0
H37 H 0.39072 0.26564 0.18539 0.0
H38 H 0.35867 0.26471 0.22201 0.0
H39 H 0.29485 0.2777 0.16523 0.0
C40 C 0.24145 0.83829 0.71026 0.0
C41 C 0.2656 0.85315 0.70958 0.0
C42 C 0.2497 0.8791 0.671 0.0
C43 C 0.26968 0.8734 0.69014 0.0
C44 C 0.22549 0.86436 0.67213 0.0
C45 C 0.22143 0.84428 0.69152 0.0
U46 U 0.25523 0.79441 0.77406 0.0
O47 O 0.22581 0.77454 0.8007 0.0
O48 O 0.25297 0.75059 0.77753 0.0
C49 C 0.23288 0.75048 0.79418 0.0
C50 C 0.23675 0.81569 0.72922 0.0
C51 C 0.21121 0.73041 0.78946 0.0
C52 C 0.17678 0.70912 0.76153 0.0
C53 C 0.19655 0.72922 0.76535 0.0
C54 C 0.186 0.6915 0.80591 0.0
C55 C 0.17142 0.68985 0.78173 0.0
C56 C 0.20563 0.7115 0.80968 0.0
C57 C 0.31317 0.81217 0.82353 0.0
C58 C 0.3311 0.78362 0.85889 0.0
C59 C 0.34696 0.82946 0.85463 0.0
C60 C 0.32971 0.83317 0.83277 0.0
C61 C 0.34809 0.8046 0.8679 0.0
C62 C 0.31378 0.78738 0.83691 0.0
C63 C 0.29641 0.81657 0.79935 0.0
O64 O 0.25472 0.79717 0.72996 0.0
O65 O 0.22781 0.82145 0.75307 0.0
O66 O 0.2717 0.82324 0.80342 0.0
O67 O 0.29859 0.79934 0.77991 0.0
H68 H 0.2814 0.84882 0.72377 0.0
H69 H 0.2887 0.8841 0.68965 0.0
H70 H 0.20962 0.86832 0.65791 0.0
H71 H 0.20264 0.8331 0.69163 0.0
H72 H 0.16561 0.70875 0.74286 0.0
H73 H 0.20046 0.7437 0.7495 0.0
H74 H 0.18258 0.67696 0.82181 0.0
H75 H 0.21673 0.712 0.82842 0.0
H76 H 0.33173 0.7641 0.86833 0.0
H77 H 0.35956 0.84609 0.86112 0.0
H78 H 0.32957 0.85247 0.8228 0.0
H79 H 0.30123 0.77084 0.83009 0.0
C80 C 0.70514 0.78974 0.22482 0.0
C81 C 0.70477 0.76844 0.2068 0.0
C82 C 0.66381 0.78445 0.18596 0.0
C83 C 0.6843 0.76585 0.1875 0.0
C84 C 0.66464 0.80593 0.20386 0.0
C85 C 0.685 0.80845 0.2231 0.0
U86 U 0.77257 0.77446 0.26019 0.0
O87 O 0.80118 0.80264 0.27901 0.0
O88 O 0.78093 0.77191 0.30366 0.0
C89 C 0.79695 0.79309 0.3033 0.0
C90 C 0.72592 0.79294 0.24582 0.0
C91 C 0.79335 0.81273 0.32476 0.0
C92 C 0.78325 0.85729 0.33978 0.0
C93 C 0.78412 0.83843 0.31932 0.0
C94 C 0.80004 0.82486 0.37152 0.0
C95 C 0.79136 0.85076 0.36607 0.0
C96 C 0.80103 0.80607 0.35107 0.0
C97 C 0.82112 0.72308 0.23418 0.0
C98 C 0.86958 0.72231 0.23772 0.0
C99 C 0.84405 0.68099 0.23266 0.0
C100 C 0.82046 0.69519 0.23201 0.0
C101 C 0.8689 0.6944 0.23523 0.0
C102 C 0.84594 0.73651 0.23728 0.0
C103 C 0.79585 0.73763 0.2325 0.0
O104 O 0.7288 0.77273 0.2625 0.0
O105 O 0.74872 0.80397 0.23827 0.0
O106 O 0.79777 0.76323 0.2266 0.0
O107 O 0.77837 0.73203 0.25132 0.0
H108 H 0.72018 0.7538 0.20774 0.0
H109 H 0.68432 0.74911 0.17399 0.0
H110 H 0.6497 0.82104 0.2028 0.0
H111 H 0.68501 0.82513 0.23671 0.0
H112 H 0.77642 0.87709 0.33503 0.0
H113 H 0.77806 0.8441 0.2992 0.0
H114 H 0.80689 0.81936 0.39143 0.0
H115 H 0.80842 0.78646 0.35568 0.0
H116 H 0.88839 0.73313 0.2402 0.0
H117 H 0.8429 0.65951 0.23066 0.0
H118 H 0.80163 0.68436 0.22958 0.0
H119 H 0.84714 0.75798 0.23923 0.0
C120 C 0.81656 0.14177 0.76394 0.0
C121 C 0.82062 0.15391 0.73873 0.0
C122 C 0.825 0.11041 0.71823 0.0
C123 C 0.82456 0.13839 0.71611 0.0
C124 C 0.82189 0.09839 0.74367 0.0
C125 C 0.81766 0.11393 0.76628 0.0
U126 U 0.82515 0.20303 0.80891 0.0
O127 O 0.79516 0.22928 0.82481 0.0
O128 O 0.8201 0.20653 0.8527 0.0
C129 C 0.79937 0.22177 0.84978 0.0
C130 C 0.80942 0.1576 0.78748 0.0
C131 C 0.77535 0.21421 0.86541 0.0
C132 C 0.72752 0.20518 0.86775 0.0
C133 C 0.7507 0.20877 0.85269 0.0
C134 C 0.75336 0.21073 0.90861 0.0
C135 C 0.72847 0.20653 0.8959 0.0
C136 C 0.77653 0.2146 0.89352 0.0
C137 C 0.87954 0.2559 0.78976 0.0
C138 C 0.89051 0.29678 0.81378 0.0
C139 C 0.90931 0.28954 0.77005 0.0
C140 C 0.89586 0.26483 0.76872 0.0
C141 C 0.90673 0.30592 0.7925 0.0
C142 C 0.87694 0.27197 0.81238 0.0
C143 C 0.86505 0.23012 0.78701 0.0
O144 O 0.82716 0.15915 0.80701 0.0
O145 O 0.79815 0.18042 0.78221 0.0
O146 O 0.84032 0.23143 0.77844 0.0
O147 O 0.86815 0.21254 0.80648 0.0
H148 H 0.81991 0.17536 0.73631 0.0
H149 H 0.82615 0.14831 0.69679 0.0
H150 H 0.82221 0.07691 0.74599 0.0
H151 H 0.8146 0.10414 0.78552 0.0
H152 H 0.70869 0.20263 0.85721 0.0
H153 H 0.7491 0.20829 0.83104 0.0
H154 H 0.75482 0.21175 0.93026 0.0
H155 H 0.79527 0.21874 0.9038 0.0
H156 H 0.88847 0.30871 0.83155 0.0
H157 H 0.92145 0.29604 0.75325 0.0
H158 H 0.89802 0.25275 0.75105 0.0
H159 H 0.86439 0.26538 0.82884 0.0
C160 C 0.83337 0.7039 0.77363 0.0
C161 C 0.85367 0.71052 0.75536 0.0
C162 C 0.87753 0.67062 0.76853 0.0
C163 C 0.87558 0.69402 0.75284 0.0
C164 C 0.8569 0.66394 0.78645 0.0
C165 C 0.83511 0.68045 0.78901 0.0
U166 U 0.79022 0.76323 0.7535 0.0
O167 O 0.74669 0.76711 0.75477 0.0
O168 O 0.77258 0.79357 0.77897 0.0
C169 C 0.74803 0.78572 0.77314 0.0
C170 C 0.81055 0.72133 0.77742 0.0
C171 C 0.72936 0.78314 0.79598 0.0
C172 C 0.69652 0.75812 0.82269 0.0
C173 C 0.71533 0.75917 0.80204 0.0
C174 C 0.70567 0.80477 0.83175 0.0
C175 C 0.69151 0.78092 0.83782 0.0
C176 C 0.72432 0.80585 0.81109 0.0
C177 C 0.81068 0.80499 0.69066 0.0
C178 C 0.78667 0.84211 0.67124 0.0
C179 C 0.8295 0.83077 0.65349 0.0
C180 C 0.83118 0.80997 0.67227 0.0
C181 C 0.80716 0.84699 0.65259 0.0
C182 C 0.78839 0.82123 0.69011 0.0
C183 C 0.81334 0.7829 0.71016 0.0
O184 O 0.81654 0.74602 0.78424 0.0
O185 O 0.79146 0.71963 0.75925 0.0
O186 O 0.79459 0.76408 0.70961 0.0
O187 O 0.82053 0.78967 0.7346 0.0
H188 H 0.85262 0.72848 0.74317 0.0
H189 H 0.89089 0.69946 0.73851 0.0
H190 H 0.85784 0.64611 0.79884 0.0
H191 H 0.81968 0.67499 0.80322 0.0
H192 H 0.68593 0.73945 0.8269 0.0
H193 H 0.71866 0.74132 0.7907 0.0
H194 H 0.7019 0.82282 0.8426 0.0
H195 H 0.73457 0.82466 0.80662 0.0
H196 H 0.76924 0.8543 0.67107 0.0
H197 H 0.84592 0.83439 0.63991 0.0
H198 H 0.84864 0.79778 0.67252 0.0
H199 H 0.77239 0.81775 0.70422 0.0
C200 C 0.66165 0.27846 0.25452 0.0
C201 C 0.65889 0.30149 0.23861 0.0
C202 C 0.62535 0.27844 0.21097 0.0
C203 C 0.64073 0.30153 0.2171 0.0
C204 C 0.62763 0.25577 0.22757 0.0
C205 C 0.64563 0.2558 0.24912 0.0
U206 U 0.72709 0.30244 0.28785 0.0
O207 O 0.76074 0.27888 0.30171 0.0
O208 O 0.73887 0.30229 0.33061 0.0
C209 C 0.75727 0.28461 0.32704 0.0
C210 C 0.68233 0.27687 0.27553 0.0
C211 C 0.75703 0.26157 0.34558 0.0
C212 C 0.74451 0.21547 0.35601 0.0
C213 C 0.74212 0.23821 0.33975 0.0
C214 C 0.77574 0.23957 0.38481 0.0
C215 C 0.76181 0.21576 0.37837 0.0
C216 C 0.77344 0.26225 0.36847 0.0
C217 C 0.76818 0.36105 0.25958 0.0
C218 C 0.81616 0.3663 0.26539 0.0
C219 C 0.79059 0.40351 0.2493 0.0
C220 C 0.76722 0.38767 0.25083 0.0
C221 C 0.81537 0.39297 0.25646 0.0
C222 C 0.79279 0.35058 0.26717 0.0
C223 C 0.74368 0.34411 0.2597 0.0
O224 O 0.70572 0.26977 0.26709 0.0
O225 O 0.68378 0.2965 0.2928 0.0
O226 O 0.72844 0.34601 0.28083 0.0
O227 O 0.74667 0.31937 0.25217 0.0
H228 H 0.67113 0.31918 0.24248 0.0
H229 H 0.63903 0.31948 0.20502 0.0
H230 H 0.61619 0.23765 0.22332 0.0
H231 H 0.64759 0.23781 0.26112 0.0
H232 H 0.73315 0.19753 0.35091 0.0
H233 H 0.72919 0.23736 0.32224 0.0
H234 H 0.78918 0.24035 0.40193 0.0
H235 H 0.78509 0.28011 0.37328 0.0
H236 H 0.83492 0.35733 0.27043 0.0
H237 H 0.7893 0.424 0.24245 0.0
H238 H 0.74843 0.39612 0.2449 0.0
H239 H 0.79403 0.33007 0.27397 0.0
C240 C 0.26339 0.23111 0.69372 0.0
C241 C 0.27919 0.21024 0.7031 0.0
C242 C 0.26863 0.18453 0.66288 0.0
C243 C 0.28176 0.18714 0.68783 0.0
C244 C 0.25319 0.20569 0.65345 0.0
C245 C 0.25053 0.22868 0.66875 0.0
U246 U 0.28203 0.27638 0.75286 0.0
O247 O 0.28361 0.32019 0.75581 0.0
O248 O 0.25659 0.29651 0.78163 0.0
C249 C 0.26495 0.32048 0.7741 0.0
C250 C 0.25965 0.25524 0.70985 0.0
C251 C 0.24455 0.34111 0.77159 0.0
C252 C 0.21873 0.37313 0.74583 0.0
C253 C 0.23699 0.35241 0.74683 0.0
C254 C 0.21531 0.37131 0.79416 0.0
C255 C 0.2078 0.38294 0.76955 0.0
C256 C 0.23345 0.35072 0.79514 0.0
C257 C 0.3395 0.25497 0.79988 0.0
C258 C 0.34654 0.26417 0.84731 0.0
C259 C 0.38231 0.24681 0.82116 0.0
C260 C 0.36585 0.24672 0.79837 0.0
C261 C 0.37264 0.25486 0.84606 0.0
C262 C 0.33009 0.26421 0.82443 0.0
C263 C 0.32193 0.25206 0.77609 0.0
O264 O 0.25071 0.251 0.73424 0.0
O265 O 0.27896 0.27348 0.70884 0.0
O266 O 0.32519 0.26991 0.75683 0.0
O267 O 0.29679 0.24592 0.78078 0.0
H268 H 0.28944 0.21178 0.72226 0.0
H269 H 0.29419 0.17142 0.69542 0.0
H270 H 0.2428 0.20428 0.63435 0.0
H271 H 0.23825 0.24452 0.66115 0.0
H272 H 0.21299 0.38129 0.72651 0.0
H273 H 0.24525 0.34537 0.72834 0.0
H274 H 0.20745 0.37844 0.81281 0.0
H275 H 0.23914 0.3425 0.81448 0.0
H276 H 0.33859 0.27067 0.86616 0.0
H277 H 0.40256 0.24031 0.81932 0.0
H278 H 0.37358 0.2397 0.77961 0.0
H279 H 0.30986 0.27085 0.82607 0.0
C280 C 0.21314 0.72594 0.27124 0.0
C281 C 0.22023 0.70434 0.25537 0.0
C282 C 0.17459 0.68604 0.25697 0.0
C283 C 0.20113 0.68449 0.2484 0.0
C284 C 0.16774 0.70766 0.27293 0.0
C285 C 0.18676 0.72737 0.2799 0.0
U286 U 0.27718 0.77126 0.26439 0.0
O287 O 0.28175 0.814 0.27337 0.0
O288 O 0.30474 0.78506 0.29652 0.0
C289 C 0.29798 0.81007 0.29379 0.0
C290 C 0.23262 0.74695 0.27982 0.0
C291 C 0.29276 0.82484 0.31879 0.0
C292 C 0.26389 0.85047 0.34728 0.0
C293 C 0.2674 0.83415 0.32493 0.0
C294 C 0.31072 0.84764 0.35823 0.0
C295 C 0.28566 0.85795 0.36384 0.0
C296 C 0.31422 0.8314 0.33596 0.0
C297 C 0.32214 0.76244 0.20104 0.0
C298 C 0.36887 0.77346 0.1919 0.0
C299 C 0.3392 0.76035 0.15559 0.0
C300 C 0.31812 0.75768 0.17362 0.0
C301 C 0.36497 0.76776 0.16451 0.0
C302 C 0.34767 0.77068 0.21006 0.0
C303 C 0.29957 0.75686 0.21943 0.0
O304 O 0.25639 0.73927 0.2873 0.0
O305 O 0.2333 0.76902 0.26539 0.0
O306 O 0.28107 0.77479 0.22043 0.0
O307 O 0.30495 0.74605 0.24294 0.0
H308 H 0.24049 0.70277 0.24848 0.0
H309 H 0.20703 0.66804 0.23614 0.0
H310 H 0.1477 0.70915 0.28044 0.0
H311 H 0.18088 0.74369 0.29235 0.0
H312 H 0.24432 0.858 0.35107 0.0
H313 H 0.25043 0.82937 0.31213 0.0
H314 H 0.32779 0.85246 0.3709 0.0
H315 H 0.33394 0.82444 0.33177 0.0
H316 H 0.38847 0.77933 0.19937 0.0
H317 H 0.33533 0.75643 0.13458 0.0
H318 H 0.29864 0.75136 0.16615 0.0
H319 H 0.35131 0.77449 0.23113 0.0
H320 H 0.01776 0.34988 0.24051 0.0
H321 H 0.84249 0.5876 0.19964 0.0
H322 H 0.05523 0.49232 0.2727 0.0
H323 H 0.09381 0.46383 0.27115 0.0
H324 H 0.10558 0.48607 0.18817 0.0
H325 H 0.06649 0.51433 0.18981 0.0
H326 H 1.00147 0.46085 0.26941 0.0
H327 H 1.00656 0.41268 0.2652 0.0
H328 H 0.02955 0.42426 0.18249 0.0
H329 H 0.02404 0.47227 0.18689 0.0
H330 H 0.9527 0.50276 0.27627 0.0
H331 H 0.9124 0.47514 0.2824 0.0
H332 H 0.92027 0.44475 0.20228 0.0
H333 H 0.95992 0.47386 0.19575 0.0
H334 H 0.95002 0.55612 0.27173 0.0
H335 H 0.90544 0.57443 0.26933 0.0
H336 H 0.9016 0.55757 0.18455 0.0
H337 H 0.94615 0.53915 0.1873 0.0
H338 H 0.99875 0.58763 0.27295 0.0
H339 H 0.97089 0.62684 0.27507 0.0
H340 H 0.95943 0.6243 0.18927 0.0
H341 H 0.98745 0.58544 0.18732 0.0
H342 H 0.06288 0.55139 0.27213 0.0
H343 H 0.09936 0.58466 0.27624 0.0
H344 H 0.0806 0.61508 0.19719 0.0
H345 H 0.04399 0.58189 0.19331 0.0
O346 O 0.01609 0.36891 0.24184 0.0
O347 O 0.02832 0.37606 0.1996 0.0
O348 O 0.86328 0.58894 0.24474 0.0
O349 O 0.85995 0.57993 0.20128 0.0
C350 C 0.0311 0.5171 0.23083 0.0
C351 C 0.0087 0.49915 0.23066 0.0
C352 C 0.9827 0.50887 0.23181 0.0
C353 C 0.97889 0.53653 0.23079 0.0
C354 C 1.001 0.55472 0.23017 0.0
C355 C 0.02732 0.54511 0.23086 0.0
C356 C 0.05817 0.5057 0.23147 0.0
C357 C 0.06666 0.49177 0.25443 0.0
C358 C 0.08872 0.47544 0.25349 0.0
C359 C 0.10285 0.47272 0.22955 0.0
C360 C 0.09506 0.4877 0.20689 0.0
C361 C 0.07297 0.50413 0.20787 0.0
C362 C 0.01243 0.47 0.22848 0.0
C363 C 1.00759 0.45291 0.25043 0.0
C364 C 0.01055 0.42543 0.24795 0.0
C365 C 0.01844 0.41461 0.2235 0.0
C366 C 0.02344 0.43191 0.2016 0.0
C367 C 0.02039 0.45934 0.20408 0.0
C368 C 0.95928 0.49034 0.23558 0.0
C369 C 0.94575 0.49012 0.26003 0.0
C370 C 0.92288 0.47406 0.26361 0.0
C371 C 0.91335 0.45734 0.243 0.0
C372 C 0.9271 0.45741 0.21854 0.0
C373 C 0.94985 0.47384 0.21483 0.0
C374 C 0.95132 0.54653 0.22965 0.0
C375 C 0.93947 0.55635 0.25269 0.0
C376 C 0.91403 0.56682 0.25124 0.0
C377 C 0.90004 0.56769 0.22669 0.0
C378 C 0.91185 0.55733 0.20374 0.0
C379 C 0.93725 0.54676 0.20525 0.0
C380 C 0.9953 0.58369 0.22997 0.0
C381 C 0.99154 0.59649 0.25444 0.0
C382 C 0.97523 0.61862 0.25567 0.0
C383 C 0.96273 0.62851 0.23238 0.0
C384 C 0.96899 0.61744 0.20753 0.0
C385 C 0.98523 0.59529 0.20634 0.0
C386 C 0.05057 0.56423 0.23248 0.0
C387 C 0.06678 0.56507 0.25558 0.0
C388 C 0.08764 0.58409 0.2579 0.0
C389 C 0.09268 0.60281 0.23721 0.0
C390 C 0.07688 0.60139 0.21375 0.0
C391 C 0.05603 0.58235 0.21145 0.0
C392 C 0.02131 0.38541 0.2208 0.0
C393 C 0.87332 0.57948 0.22488 0.0
H394 H 0.09477 0.34712 0.81554 0.0
H395 H 0.85062 0.51002 0.75293 0.0
H396 H 0.08762 0.49275 0.81773 0.0
H397 H 0.12833 0.46734 0.81596 0.0
H398 H 0.12735 0.47411 0.72963 0.0
H399 H 0.08684 0.49992 0.73164 0.0
H400 H 0.04284 0.44964 0.82269 0.0
H401 H 0.0629 0.40595 0.82769 0.0
H402 H 0.07899 0.4059 0.74271 0.0
H403 H 0.05855 0.4494 0.73797 0.0
H404 H 0.98011 0.46603 0.82027 0.0
H405 H 0.95427 0.42401 0.82589 0.0
H406 H 0.97571 0.40104 0.74601 0.0
H407 H 1.00133 0.44301 0.74051 0.0
H408 H 0.96884 0.52932 0.81302 0.0
H409 H 0.92054 0.53425 0.81283 0.0
H410 H 0.91509 0.49507 0.73614 0.0
H411 H 0.96345 0.49068 0.73637 0.0
H412 H 0.01319 0.57226 0.80661 0.0
H413 H 0.98207 0.60917 0.80375 0.0
H414 H 0.95661 0.58303 0.72528 0.0
H415 H 0.98819 0.5468 0.72783 0.0
H416 H 0.07712 0.54568 0.81286 0.0
H417 H 0.10677 0.58523 0.81331 0.0
H418 H 0.08005 0.60608 0.73345 0.0
H419 H 0.05099 0.56586 0.73281 0.0
O420 O 0.08654 0.3642 0.81305 0.0
O421 O 0.09468 0.36534 0.76932 0.0
O422 O 0.87372 0.529 0.79262 0.0
O423 O 0.86977 0.50836 0.75351 0.0
C424 C 0.055 0.50257 0.77523 0.0
C425 C 0.03796 0.4796 0.77725 0.0
C426 C 0.01012 0.48199 0.77727 0.0
C427 C 0.99907 0.5074 0.77454 0.0
C428 C 0.01587 0.53058 0.77175 0.0
C429 C 0.04405 0.52832 0.77287 0.0
C430 C 0.08423 0.49836 0.77483 0.0
C431 C 0.09701 0.49008 0.79853 0.0
C432 C 0.12003 0.47513 0.79744 0.0
C433 C 0.13085 0.46833 0.77263 0.0
C434 C 0.1197 0.47917 0.74907 0.0
C435 C 0.09662 0.49418 0.75019 0.0
C436 C 0.04944 0.4527 0.78002 0.0
C437 C 0.0506 0.44006 0.80519 0.0
C438 C 0.0621 0.41515 0.80798 0.0
C439 C 0.07262 0.40245 0.78561 0.0
C440 C 0.07112 0.41512 0.76035 0.0
C441 C 0.05952 0.43998 0.75759 0.0
C442 C 0.99265 0.45757 0.77999 0.0
C443 C 0.9789 0.45206 0.80387 0.0
C444 C 0.96415 0.42811 0.80704 0.0
C445 C 0.96298 0.40926 0.78638 0.0
C446 C 0.97642 0.41509 0.76234 0.0
C447 C 0.99098 0.43906 0.75914 0.0
C448 C 0.96963 0.5097 0.77469 0.0
C449 C 0.95717 0.52188 0.79618 0.0
C450 C 0.92959 0.52462 0.79603 0.0
C451 C 0.91394 0.51505 0.77445 0.0
C452 C 0.92652 0.50266 0.75306 0.0
C453 C 0.95413 0.50004 0.75318 0.0
C454 C 1.00305 0.55678 0.76743 0.0
C455 C 1.00173 0.57516 0.78835 0.0
C456 C 0.98382 0.5961 0.78678 0.0
C457 C 0.96682 0.59875 0.76437 0.0
C458 C 0.96941 0.58136 0.74279 0.0
C459 C 0.98759 0.5608 0.74416 0.0
C460 C 0.06196 0.55261 0.77273 0.0
C461 C 0.07783 0.5586 0.79532 0.0
C462 C 0.09462 0.58137 0.79564 0.0
C463 C 0.09599 0.59878 0.77334 0.0
C464 C 0.07989 0.59287 0.75076 0.0
C465 C 0.06309 0.57 0.75045 0.0
C466 C 0.08526 0.37621 0.78872 0.0
C467 C 0.88462 0.51794 0.77417 0.0
H468 H 0.24003 0.98714 0.32751 0.0
H469 H 0.29668 0.20899 0.52765 0.0
H470 H 0.22532 0.97746 0.47057 0.0
H471 H 0.23011 0.93828 0.44241 0.0
H472 H 0.31315 0.93554 0.46493 0.0
H473 H 0.30837 0.97524 0.49247 0.0
H474 H 0.22382 0.02744 0.43556 0.0
H475 H 0.22276 0.01233 0.38904 0.0
H476 H 0.30619 0.99409 0.39529 0.0
H477 H 0.30692 0.00916 0.44176 0.0
H478 H 0.22488 0.08767 0.46497 0.0
H479 H 0.22272 0.12286 0.43067 0.0
H480 H 0.30087 0.10281 0.40342 0.0
H481 H 0.30333 0.06842 0.43861 0.0
H482 H 0.22915 0.09243 0.52557 0.0
H483 H 0.23139 0.13978 0.53687 0.0
H484 H 0.31118 0.14606 0.50531 0.0
H485 H 0.30882 0.09859 0.49452 0.0
H486 H 0.23148 0.04709 0.56353 0.0
H487 H 0.23325 0.07833 0.60116 0.0
H488 H 0.31549 0.09764 0.58375 0.0
H489 H 0.31386 0.06599 0.54675 0.0
H490 H 0.22666 0.9812 0.53025 0.0
H491 H 0.22336 0.94888 0.56729 0.0
H492 H 0.30225 0.97303 0.5943 0.0
H493 H 0.30528 1.00559 0.5573 0.0
O494 O 0.24094 0.99329 0.34581 0.0
O495 O 0.28357 0.98328 0.35047 0.0
O496 O 0.25438 0.18581 0.53981 0.0
O497 O 0.29522 0.19024 0.52328 0.0
C498 C 0.26613 0.00808 0.4914 0.0
C499 C 0.26578 0.02758 0.47047 0.0
C500 C 0.26597 0.05499 0.4764 0.0
C501 C 0.26781 0.0631 0.50332 0.0
C502 C 0.26913 0.04394 0.52449 0.0
C503 C 0.2675 0.0162 0.51869 0.0
C504 C 0.26651 0.9794 0.48359 0.0
C505 C 0.2443 0.96777 0.47033 0.0
C506 C 0.24712 0.94545 0.45403 0.0
C507 C 0.27219 0.93424 0.45078 0.0
C508 C 0.29372 0.94416 0.46642 0.0
C509 C 0.29091 0.96656 0.48262 0.0
C510 C 0.26539 0.01922 0.442 0.0
C511 C 0.24183 0.02023 0.42678 0.0
C512 C 0.24129 0.01154 0.40026 0.0
C513 C 0.26436 1.0018 0.38852 0.0
C514 C 0.28803 1.00124 0.40379 0.0
C515 C 0.28852 0.00986 0.43031 0.0
C516 C 0.26427 0.07543 0.45441 0.0
C517 C 0.24156 0.09091 0.45164 0.0
C518 C 0.24032 0.11094 0.43192 0.0
C519 C 0.26174 0.1159 0.41442 0.0
C520 C 0.28427 0.09997 0.41691 0.0
C521 C 0.28557 0.08006 0.4368 0.0
C522 C 0.26887 0.09208 0.50938 0.0
C523 C 0.24711 0.10407 0.52119 0.0
C524 C 0.24842 0.13112 0.52756 0.0
C525 C 0.27148 0.14671 0.52201 0.0
C526 C 0.29314 0.13465 0.50987 0.0
C527 C 0.29183 0.10756 0.50362 0.0
C528 C 0.27255 0.05413 0.55235 0.0
C529 C 0.25026 0.05696 0.56872 0.0
C530 C 0.25123 0.07502 0.59003 0.0
C531 C 0.27444 0.09059 0.59511 0.0
C532 C 0.29735 0.08596 0.58019 0.0
C533 C 0.2965 0.06765 0.55926 0.0
C534 C 0.26619 0.99594 0.54093 0.0
C535 C 0.24331 0.97949 0.54407 0.0
C536 C 0.24145 0.96099 0.56531 0.0
C537 C 0.26241 0.95847 0.58405 0.0
C538 C 0.28546 0.97481 0.58069 0.0
C539 C 0.2873 0.99334 0.55941 0.0
C540 C 0.26365 0.99223 0.36048 0.0
C541 C 0.27307 0.17541 0.52892 0.0
H542 H 0.47928 0.81526 0.83274 0.0
H543 H 0.70202 0.76036 0.03624 0.0
H544 H 0.4792 0.83034 0.98008 0.0
H545 H 0.43942 0.83493 0.95195 0.0
H546 H 0.42188 0.75061 0.96079 0.0
H547 H 0.4619 0.74616 0.98907 0.0
H548 H 0.52495 0.82634 0.94053 0.0
H549 H 0.50869 0.82936 0.89418 0.0
H550 H 0.48129 0.74692 0.89869 0.0
H551 H 0.49791 0.74413 0.9449 0.0
H552 H 0.58218 0.82316 0.96541 0.0
H553 H 0.61654 0.82268 0.93094 0.0
H554 H 0.59476 0.74073 0.91357 0.0
H555 H 0.55993 0.74165 0.94766 0.0
H556 H 0.586 0.82174 0.03033 0.0
H557 H 0.63325 0.8222 0.04276 0.0
H558 H 0.63914 0.74212 0.01267 0.0
H559 H 0.59176 0.74179 1.00072 0.0
H560 H 0.53852 0.81758 0.06836 0.0
H561 H 0.56675 0.81733 0.10895 0.0
H562 H 0.58946 0.73715 0.0917 0.0
H563 H 0.56071 0.73717 0.05175 0.0
H564 H 0.47389 0.81911 0.037 0.0
H565 H 0.4399 0.81533 0.07189 0.0
H566 H 0.46736 0.73711 0.09331 0.0
H567 H 0.5003 0.74045 0.05761 0.0
O568 O 0.48594 0.81352 0.85091 0.0
O569 O 0.472 0.77116 0.85438 0.0
O570 O 0.6791 0.80173 0.04703 0.0
O571 O 0.68331 0.76074 0.03145 0.0
C572 C 0.50175 0.78418 0.99519 0.0
C573 C 0.52106 0.78371 0.97457 0.0
C574 C 0.54837 0.78243 0.98092 0.0
C575 C 0.55656 0.78131 0.00801 0.0
C576 C 0.53744 0.7801 0.02885 0.0
C577 C 0.5098 0.78171 0.02256 0.0
C578 C 0.47345 0.78796 0.98691 0.0
C579 C 0.46616 0.81305 0.97699 0.0
C580 C 0.44362 0.81557 0.96057 0.0
C581 C 0.42765 0.79309 0.95389 0.0
C582 C 0.43365 0.76833 0.96573 0.0
C583 C 0.4564 0.76579 0.98211 0.0
C584 C 0.51252 0.78505 0.94601 0.0
C585 C 0.51564 0.80892 0.93135 0.0
C586 C 0.50624 0.8106 0.90494 0.0
C587 C 0.49359 0.78841 0.89276 0.0
C588 C 0.49088 0.7644 0.90747 0.0
C589 C 0.50036 0.76274 0.93384 0.0
C590 C 0.56858 0.78242 0.95915 0.0
C591 C 0.58479 0.80513 0.95411 0.0
C592 C 0.60459 0.80473 0.93456 0.0
C593 C 0.60878 0.78149 0.91979 0.0
C594 C 0.59209 0.75894 0.92455 0.0
C595 C 0.5722 0.75941 0.94403 0.0
C596 C 0.58549 0.78173 0.01466 0.0
C597 C 0.59755 0.80432 0.02646 0.0
C598 C 0.62453 0.80453 0.03352 0.0
C599 C 0.63997 0.78217 0.02872 0.0
C600 C 0.62783 0.75966 0.01664 0.0
C601 C 0.60081 0.75944 0.0097 0.0
C602 C 0.54746 0.77738 0.05703 0.0
C603 C 0.54864 0.79956 0.07397 0.0
C604 C 0.56497 0.79948 0.09699 0.0
C605 C 0.58051 0.77731 0.10322 0.0
C606 C 0.57785 0.75453 0.08724 0.0
C607 C 0.56122 0.75444 0.06459 0.0
C608 C 0.48953 0.77994 0.04435 0.0
C609 C 0.47239 0.80102 0.049 0.0
C610 C 0.45312 0.79894 0.06916 0.0
C611 C 0.45055 0.77574 0.08521 0.0
C612 C 0.46823 0.75498 0.08093 0.0
C613 C 0.48732 0.75698 0.06067 0.0
C614 C 0.48318 0.79039 0.86488 0.0
C615 C 0.66862 0.78224 0.03631 0.0
H616 H 0.76013 0.01767 0.33403 0.0
H617 H 0.84581 0.18964 0.57012 0.0
H618 H 0.75847 0.97109 0.48632 0.0
H619 H 0.7556 0.93235 0.45668 0.0
H620 H 0.84062 0.93817 0.44528 0.0
H621 H 0.84331 0.97682 0.47496 0.0
H622 H 0.75348 0.02692 0.45056 0.0
H623 H 0.74811 0.02345 0.40185 0.0
H624 H 0.83329 0.01646 0.3943 0.0
H625 H 0.83833 0.02018 0.44297 0.0
H626 H 0.75494 0.0809 0.49081 0.0
H627 H 0.74553 0.12051 0.46342 0.0
H628 H 0.82247 0.1156 0.42644 0.0
H629 H 0.832 0.07623 0.45428 0.0
H630 H 0.76636 0.0841 0.54315 0.0
H631 H 0.77267 0.12859 0.5623 0.0
H632 H 0.85554 0.12914 0.53967 0.0
H633 H 0.84893 0.08461 0.52075 0.0
H634 H 0.76828 0.0407 0.57275 0.0
H635 H 0.77577 0.05625 0.61853 0.0
H636 H 0.86023 0.04535 0.60997 0.0
H637 H 0.85255 0.03085 0.56362 0.0
H638 H 0.76558 0.98823 0.55812 0.0
H639 H 0.76577 0.94949 0.58851 0.0
H640 H 0.84382 0.93018 0.5605 0.0
H641 H 0.84351 0.96906 0.53018 0.0
O642 O 0.76265 0.01889 0.3532 0.0
O643 O 0.8065 0.01496 0.35048 0.0
O644 O 0.80013 0.17057 0.57442 0.0
O645 O 0.84277 0.17199 0.56282 0.0
C646 C 0.80206 1.00307 0.49598 0.0
C647 C 0.7995 0.02615 0.47963 0.0
C648 C 0.79949 0.05164 0.49128 0.0
C649 C 0.80358 0.0542 0.51911 0.0
C650 C 0.80575 0.03124 0.53563 0.0
C651 C 0.80442 1.00553 0.52418 0.0
C652 C 0.80113 0.97655 0.48303 0.0
C653 C 0.77656 0.96344 0.4781 0.0
C654 C 0.77496 0.9414 0.46113 0.0
C655 C 0.79791 0.93226 0.44869 0.0
C656 C 0.82263 0.94483 0.45454 0.0
C657 C 0.82423 0.96671 0.47166 0.0
C658 C 0.79625 0.02362 0.45019 0.0
C659 C 0.77091 0.02458 0.43831 0.0
C660 C 0.76793 0.02261 0.41051 0.0
C661 C 0.79028 0.01964 0.39417 0.0
C662 C 0.81567 0.01868 0.40627 0.0
C663 C 0.8186 0.02072 0.43405 0.0
C664 C 0.79414 0.07567 0.47452 0.0
C665 C 0.76983 0.08847 0.47691 0.0
C666 C 0.76447 0.11102 0.46129 0.0
C667 C 0.78318 0.12093 0.44269 0.0
C668 C 0.80756 0.10811 0.44035 0.0
C669 C 0.81303 0.08571 0.45622 0.0
C670 C 0.80723 0.08116 0.53074 0.0
C671 C 0.78586 0.09385 0.54246 0.0
C672 C 0.78952 0.11926 0.55333 0.0
C673 C 0.81464 0.13242 0.55254 0.0
C674 C 0.83596 0.11959 0.54065 0.0
C675 C 0.83226 0.09417 0.52983 0.0
C676 C 0.80987 0.03475 0.56489 0.0
C677 C 0.78833 0.04118 0.58096 0.0
C678 C 0.79267 0.05004 0.60711 0.0
C679 C 0.81866 0.05253 0.61774 0.0
C680 C 0.84005 0.04434 0.60213 0.0
C681 C 0.83569 0.03567 0.57583 0.0
C682 C 0.80448 0.98144 0.54184 0.0
C683 C 0.7827 0.97561 0.55851 0.0
C684 C 0.78285 0.95353 0.57588 0.0
C685 C 0.80471 0.93667 0.57675 0.0
C686 C 0.82649 0.94251 0.55993 0.0
C687 C 0.82638 0.96472 0.54264 0.0
C688 C 0.78709 0.01767 0.36465 0.0
C689 C 0.81863 0.15945 0.56395 0.0
H690 H 0.51817 0.22218 0.8303 0.0
H691 H 0.6854 0.20351 0.09156 0.0
H692 H 0.49681 0.28485 0.96386 0.0
H693 H 0.46133 0.28833 0.93014 0.0
H694 H 0.4272 0.213 0.95756 0.0
H695 H 0.46329 0.20934 0.99088 0.0
H696 H 0.54508 0.26384 0.93655 0.0
H697 H 0.53769 0.25317 0.88924 0.0
H698 H 0.49967 0.17811 0.91252 0.0
H699 H 0.50763 0.18884 0.9597 0.0
H700 H 0.58809 0.26736 0.96784 0.0
H701 H 0.62953 0.25874 0.94466 0.0
H702 H 0.61904 0.1746 0.96242 0.0
H703 H 0.57679 0.1834 0.9845 0.0
H704 H 0.59285 0.27768 0.03255 0.0
H705 H 0.6359 0.2746 0.05571 0.0
H706 H 0.62411 0.18902 0.06203 0.0
H707 H 0.581 0.19248 0.03913 0.0
H708 H 0.54183 0.29392 0.05606 0.0
H709 H 0.55999 0.30509 0.10052 0.0
H710 H 0.55667 0.22172 0.12288 0.0
H711 H 0.53858 0.21066 0.07833 0.0
H712 H 0.48819 0.29427 0.03404 0.0
H713 H 0.45037 0.30199 0.0637 0.0
H714 H 0.4415 0.21714 0.07785 0.0
H715 H 0.47899 0.20966 0.04817 0.0
O716 O 0.52131 0.22581 0.84906 0.0
O717 O 0.50113 0.18791 0.86218 0.0
O718 O 0.67314 0.24949 0.07941 0.0
O719 O 0.66841 0.20535 0.0824 0.0
C720 C 0.50774 0.24188 0.99475 0.0
C721 C 0.5302 0.23398 0.98017 0.0
C722 C 0.55517 0.23191 0.99307 0.0
C723 C 0.5576 0.23727 0.02066 0.0
C724 C 0.53511 0.24451 0.03544 0.0
C725 C 0.51002 0.24644 0.0226 0.0
C726 C 0.48259 0.24687 0.97986 0.0
C727 C 0.48121 0.26949 0.96313 0.0
C728 C 0.46099 0.2714 0.94381 0.0
C729 C 0.44179 0.2507 0.94086 0.0
C730 C 0.44208 0.22899 0.95901 0.0
C731 C 0.46241 0.22705 0.97831 0.0
C732 C 0.52715 0.22698 0.95147 0.0
C733 C 0.53555 0.24494 0.93135 0.0
C734 C 0.53113 0.23886 0.90436 0.0
C735 C 0.51808 0.21478 0.89709 0.0
C736 C 0.50982 0.19679 0.9174 0.0
C737 C 0.51439 0.20284 0.94435 0.0
C738 C 0.5793 0.22598 0.97752 0.0
C739 C 0.59451 0.24702 0.96627 0.0
C740 C 0.6183 0.24206 0.95327 0.0
C741 C 0.62761 0.21595 0.95156 0.0
C742 C 0.6122 0.19484 0.96282 0.0
C743 C 0.58815 0.19983 0.97557 0.0
C744 C 0.58392 0.23531 0.03419 0.0
C745 C 0.59965 0.25832 0.03897 0.0
C746 C 0.6242 0.25647 0.05218 0.0
C747 C 0.63346 0.23154 0.06071 0.0
C748 C 0.6176 0.20851 0.05573 0.0
C749 C 0.59302 0.21041 0.04262 0.0
C750 C 0.5388 0.25151 0.06407 0.0
C751 C 0.5441 0.27819 0.0709 0.0
C752 C 0.55469 0.2845 0.09613 0.0
C753 C 0.55997 0.2642 0.1149 0.0
C754 C 0.55267 0.23771 0.10876 0.0
C755 C 0.54226 0.23138 0.08343 0.0
C756 C 0.4861 0.25139 0.03878 0.0
C757 C 0.47779 0.27739 0.04329 0.0
C758 C 0.45633 0.28175 0.06028 0.0
C759 C 0.44275 0.26014 0.07281 0.0
C760 C 0.45112 0.23414 0.06801 0.0
C761 C 0.47258 0.22983 0.05117 0.0
C762 C 0.51295 0.20858 0.86845 0.0
C763 C 0.65952 0.22943 0.07473 0.0
C764 C 0.14321 0.41467 0.20514 0.0
C765 C 0.1634 0.41235 0.22478 0.0
C766 C 0.12407 0.43446 0.20661 0.0
C767 C 0.12431 0.45284 0.22775 0.0
H768 H 0.14194 0.4008 0.18867 0.0
H769 H 0.10861 0.43502 0.19133 0.0
S770 S 0.17425 0.45691 0.28299 0.0
N771 N 0.18331 0.43123 0.26519 0.0
N772 N 0.14739 0.46833 0.26794 0.0
C773 C 0.14464 0.45104 0.24727 0.0
C774 C 0.16412 0.43087 0.24579 0.0
C775 C 0.13295 0.6613 0.79867 0.0
C776 C 0.15097 0.66782 0.77799 0.0
C777 C 0.11497 0.6394 0.79673 0.0
C778 C 0.11414 0.62299 0.774 0.0
H779 H 0.13286 0.67314 0.81669 0.0
H780 H 0.10167 0.6352 0.81329 0.0
S781 S 0.15745 0.6309 0.71445 0.0
N782 N 0.16696 0.65577 0.73408 0.0
N783 N 0.13321 0.6147 0.73042 0.0
C784 C 0.13173 0.6295 0.75295 0.0
C785 C 0.15008 0.65185 0.75494 0.0
C786 C 0.89653 0.65687 0.25246 0.0
C787 C 0.89391 0.67912 0.23531 0.0
C788 C 0.91936 0.64141 0.25213 0.0
C789 C 0.94038 0.64729 0.23434 0.0
H790 H 0.8807 0.65125 0.26617 0.0
H791 H 0.92017 0.6242 0.26536 0.0
S792 S 0.94362 0.70371 0.18569 0.0
N793 N 0.91455 0.70657 0.20038 0.0
N794 N 0.95738 0.67741 0.19968 0.0
C795 C 0.9382 0.66971 0.21737 0.0
C796 C 0.91505 0.68566 0.21791 0.0
C797 C 0.94788 0.33457 0.78549 0.0
C798 C 0.92103 0.33239 0.79324 0.0
C799 C 0.96133 0.35941 0.78381 0.0
C800 C 0.94854 0.38313 0.78989 0.0
H801 H 0.95859 0.31691 0.78047 0.0
H802 H 0.98193 0.36007 0.77756 0.0
S803 S 0.87833 0.38859 0.8108 0.0
N804 N 0.88208 0.35628 0.80687 0.0
N805 N 0.90749 0.40295 0.80393 0.0
C806 C 0.92188 0.38127 0.79818 0.0
C807 C 0.90811 0.35593 0.79981 0.0
C808 C 0.23475 0.16162 0.35946 0.0
C809 C 0.25574 0.18037 0.35524 0.0
C810 C 0.23703 0.14073 0.37826 0.0
C811 C 0.26037 0.13768 0.39376 0.0
H812 H 0.21636 0.16309 0.34808 0.0
H813 H 0.22032 0.12679 0.38064 0.0
S814 S 0.32064 0.18226 0.39146 0.0
N815 N 0.3004 0.19493 0.36868 0.0
N816 N 0.30462 0.15589 0.40413 0.0
C817 C 0.28155 0.15628 0.3897 0.0
C818 C 0.27925 0.17752 0.37046 0.0
C819 C 0.39438 0.81007 0.88711 0.0
C820 C 0.36789 0.80063 0.89018 0.0
C821 C 0.41337 0.80744 0.90775 0.0
C822 C 0.40679 0.79523 0.93245 0.0
H823 H 0.40061 0.81945 0.86845 0.0
H824 H 0.43352 0.81486 0.90422 0.0
S825 S 0.34014 0.76789 0.95132 0.0
N826 N 0.33599 0.77904 0.92031 0.0
N827 N 0.37179 0.77393 0.959 0.0
C828 C 0.38048 0.78551 0.93582 0.0
C829 C 0.36104 0.78825 0.91476 0.0
C830 C 0.80495 0.89622 0.38261 0.0
C831 C 0.79216 0.87131 0.38741 0.0
C832 C 0.80692 0.91562 0.40263 0.0
C833 C 0.79592 0.91102 0.42815 0.0
H834 H 0.8139 0.9006 0.36334 0.0
H835 H 0.81691 0.93452 0.39799 0.0
S836 S 0.75998 0.84938 0.45087 0.0
N837 N 0.76799 0.84328 0.41955 0.0
N838 N 0.77174 0.87978 0.45715 0.0
C839 C 0.78288 0.88633 0.43318 0.0
C840 C 0.78105 0.86646 0.41286 0.0
C841 C 0.69998 0.226 0.93118 0.0
C842 C 0.70339 0.20639 0.91167 0.0
C843 C 0.67571 0.22838 0.94439 0.0
C844 C 0.65369 0.21131 0.93865 0.0
H845 H 0.71592 0.24031 0.93568 0.0
H846 H 0.67408 0.24403 0.95901 0.0
S847 S 0.65273 0.15524 0.89072 0.0
N848 N 0.68323 0.16823 0.88871 0.0
N849 N 0.63727 0.17329 0.91286 0.0
C850 C 0.65706 0.19098 0.91986 0.0
C851 C 0.68191 0.18845 0.90649 0.0
C852 C 0.24733 0.89347 0.6225 0.0
C853 C 0.25407 0.89962 0.64926 0.0
C854 C 0.25032 0.91244 0.6017 0.0
C855 C 0.26018 0.93853 0.60664 0.0
H856 H 0.23975 0.87369 0.61751 0.0
H857 H 0.24498 0.90653 0.58149 0.0
S858 S 0.27929 0.96544 0.67339 0.0
N859 N 0.27027 0.93408 0.67964 0.0
N860 N 0.27575 0.96975 0.64069 0.0
C861 C 0.26699 0.945 0.63332 0.0
C862 C 0.26398 0.9256 0.65454 0.0
C863 C 0.64804 0.77638 0.13855 0.0
C864 C 0.642 0.78187 0.16541 0.0
C865 C 0.62801 0.77474 0.1187 0.0
C866 C 0.60113 0.77864 0.12485 0.0
H867 H 0.66849 0.77383 0.13269 0.0
H868 H 0.63366 0.77084 0.09824 0.0
S869 S 0.57425 0.79128 0.19221 0.0
N870 N 0.60669 0.78944 0.19723 0.0
N871 N 0.5693 0.78694 0.15975 0.0
C872 C 0.5947 0.78378 0.15156 0.0
C873 C 0.61504 0.78523 0.17186 0.0
C874 C 0.80813 0.07223 0.69015 0.0
C875 C 0.82631 0.09383 0.69368 0.0
C876 C 0.80658 0.05827 0.66596 0.0
C877 C 0.82315 0.06531 0.64428 0.0
H878 H 0.79418 0.06671 0.7058 0.0
H879 H 0.79181 0.04224 0.664 0.0
S880 S 0.87562 0.11899 0.64388 0.0
N881 N 0.86273 0.12019 0.67413 0.0
N882 N 0.85911 0.0947 0.62832 0.0
C883 C 0.84216 0.08618 0.64788 0.0
C884 C 0.84386 0.10028 0.67261 0.0
C885 C 0.40506 0.28516 0.13291 0.0
C886 C 0.38081 0.27037 0.13182 0.0
C887 C 0.42458 0.28245 0.11324 0.0
C888 C 0.42076 0.2646 0.0919 0.0
H889 H 0.4091 0.29872 0.14929 0.0
H890 H 0.44317 0.29378 0.11526 0.0
S891 S 0.36049 0.22194 0.07925 0.0
N892 N 0.35389 0.2377 0.10718 0.0
N893 N 0.39043 0.23281 0.07018 0.0
C894 C 0.39638 0.25018 0.09022 0.0
C895 C 0.37644 0.25304 0.11013 0.0
C896 C 0.8967 0.62529 0.76328 0.0
C897 C 0.90082 0.65298 0.76635 0.0
C898 C 0.91818 0.60806 0.76218 0.0
C899 C 0.94466 0.61777 0.76451 0.0
H900 H 0.87666 0.61684 0.76167 0.0
H901 H 0.91403 0.58687 0.76002 0.0
S902 S 0.96644 0.68841 0.77273 0.0
N903 N 0.9336 0.68924 0.7715 0.0
N904 N 0.9739 0.65675 0.76967 0.0
C905 C 0.94913 0.64534 0.76749 0.0
C906 C 0.92726 0.66296 0.76827 0.0
C907 C 0.84507 0.4246 0.23021 0.0
C908 C 0.84039 0.40947 0.25373 0.0
C909 C 0.86875 0.43974 0.2268 0.0
C910 C 0.88873 0.44044 0.2468 0.0
H911 H 0.83043 0.42451 0.21411 0.0
H912 H 0.87128 0.45126 0.20846 0.0
S913 S 0.88629 0.40449 0.31225 0.0
N914 N 0.85754 0.39665 0.29763 0.0
N915 N 0.9024 0.42422 0.29082 0.0
C916 C 0.88434 0.42535 0.2704 0.0
C917 C 0.86015 0.41008 0.27394 0.0
C918 C 0.16511 0.40251 0.78463 0.0
C919 C 0.18831 0.40491 0.7691 0.0
C920 C 0.14699 0.42319 0.78576 0.0
C921 C 0.15114 0.44722 0.77135 0.0
H922 H 0.16081 0.38438 0.79598 0.0
H923 H 0.12936 0.42016 0.79785 0.0
S924 S 0.20918 0.46422 0.72846 0.0
N925 N 0.21479 0.43371 0.73952 0.0
N926 N 0.1805 0.47246 0.74144 0.0
C927 C 0.17416 0.44993 0.75562 0.0
C928 C 0.19275 0.42884 0.75454 0.0
C929 C 0.15919 0.63781 0.25453 0.0
C930 C 0.15409 0.66495 0.24997 0.0
C931 C 0.13941 0.61785 0.25008 0.0
C932 C 0.11381 0.62417 0.24058 0.0
H933 H 0.1784 0.63199 0.2623 0.0
H934 H 0.14417 0.59728 0.25422 0.0
S935 S 0.09063 0.69213 0.22442 0.0
N936 N 0.12182 0.69694 0.23439 0.0
N937 N 0.08468 0.65964 0.22644 0.0
C938 C 0.10867 0.65119 0.23538 0.0
C939 C 0.12875 0.67148 0.24001 0.0
C940 C 0.79894 0.89499 0.64091 0.0
C941 C 0.80566 0.86933 0.63265 0.0
C942 C 0.79854 0.91657 0.62272 0.0
C943 C 0.80488 0.91337 0.59554 0.0
H944 H 0.7945 0.89856 0.66174 0.0
H945 H 0.7937 0.93604 0.63011 0.0
S946 S 0.82111 0.84981 0.56308 0.0
N947 N 0.81693 0.84164 0.59495 0.0
N948 N 0.81629 0.88218 0.5609 0.0
C949 C 0.81104 0.88772 0.58688 0.0
C950 C 0.81139 0.86574 0.60537 0.0
C951 C 0.58212 0.26568 0.18798 0.0
C952 C 0.608 0.27722 0.18659 0.0
C953 C 0.56634 0.26209 0.16483 0.0
C954 C 0.57577 0.27014 0.1395 0.0
H955 H 0.57413 0.25904 0.20708 0.0
H956 H 0.54674 0.2527 0.1667 0.0
S957 S 0.64241 0.29999 0.12458 0.0
N958 N 0.64254 0.29576 0.15745 0.0
N959 N 0.61271 0.2894 0.11415 0.0
C960 C 0.6014 0.28195 0.13782 0.0
C961 C 0.61754 0.28544 0.1613 0.0
C962 C 0.27759 0.1623 0.61913 0.0
C963 C 0.27103 0.16002 0.64645 0.0
C964 C 0.27921 0.13968 0.60296 0.0
C965 C 0.27389 0.11387 0.61332 0.0
H966 H 0.28158 0.18175 0.61015 0.0
H967 H 0.28417 0.14244 0.58202 0.0
S968 S 0.25597 0.09681 0.6834 0.0
N969 N 0.25944 0.12967 0.68314 0.0
N970 N 0.26212 0.08726 0.65256 0.0
C971 C 0.26739 0.11123 0.64054 0.0
C972 C 0.26612 0.13425 0.65715 0.0
C973 C 0.40432 0.79197 0.1431 0.0
C974 C 0.38757 0.76904 0.14515 0.0
C975 C 0.42459 0.794 0.12379 0.0
C976 C 0.42921 0.77305 0.10596 0.0
H977 H 0.40135 0.80872 0.15614 0.0
H978 H 0.43682 0.81212 0.12289 0.0
S979 S 0.39148 0.70832 0.10372 0.0
N980 N 0.37764 0.72458 0.12827 0.0
N981 N 0.4152 0.72852 0.0919 0.0
C982 C 0.41284 0.74986 0.10815 0.0
C983 C 0.3922 0.74784 0.1277 0.0
C984 C 0.76439 0.1913 0.42246 0.0
C985 C 0.76632 0.19108 0.39434 0.0
C986 C 0.76954 0.16844 0.43794 0.0
C987 C 0.77724 0.14468 0.42589 0.0
H988 H 0.7588 0.20927 0.43255 0.0
H989 H 0.76792 0.16948 0.45953 0.0
S990 S 0.78509 0.13365 0.35308 0.0
N991 N 0.77638 0.16504 0.35511 0.0
N992 N 0.78602 0.12214 0.38421 0.0
C993 C 0.77913 0.14417 0.39782 0.0
C994 C 0.77365 0.16733 0.38205 0.0
C995 C 0.39218 0.27487 0.88822 0.0
C996 C 0.3896 0.2531 0.87071 0.0
C997 C 0.40871 0.27384 0.91109 0.0
C998 C 0.42305 0.25089 0.91753 0.0
H999 H 0.38176 0.29305 0.88392 0.0
H1000 H 0.41037 0.29118 0.9238 0.0
S1001 S 0.42294 0.18835 0.87854 0.0
N1002 N 0.40232 0.20766 0.86187 0.0
N1003 N 0.43378 0.20601 0.90435 0.0
C1004 C 0.42044 0.22892 0.90035 0.0
C1005 C 0.40366 0.22996 0.87708 0.0
C1006 C 0.26181 0.87399 0.40485 0.0
C1007 C 0.2826 0.87727 0.38622 0.0
C1008 C 0.25874 0.89214 0.42589 0.0
C1009 C 0.27636 0.91428 0.42922 0.0
H1010 H 0.24792 0.85716 0.40326 0.0
H1011 H 0.24249 0.88877 0.43973 0.0
S1012 S 0.33221 0.93354 0.38417 0.0
N1013 N 0.31982 0.90555 0.37146 0.0
N1014 N 0.31417 0.93934 0.41081 0.0
C1015 C 0.29692 0.91797 0.41045 0.0
C1016 C 0.3 0.89959 0.38906 0.0
C1017 C 0.64526 0.76959 0.8543 0.0
C1018 C 0.67107 0.78016 0.85939 0.0
C1019 C 0.62535 0.76992 0.87391 0.0
C1020 C 0.63043 0.78077 0.89946 0.0
H1021 H 0.64022 0.76154 0.83478 0.0
H1022 H 0.60565 0.76208 0.86881 0.0
S1023 S 0.6956 0.80816 0.9239 0.0
N1024 N 0.70113 0.80001 0.89252 0.0
N1025 N 0.66395 0.80038 0.92935 0.0
C1026 C 0.6564 0.79068 0.90503 0.0
C1027 C 0.67661 0.79044 0.88504 0.0
loop_
_geom_bond_atom_site_label_1
_geom_bond_atom_site_label_2
_geom_bond_distance
_geom_bond_site_symmetry_2
_ccdc_geom_bond_type
C0 C1 1.264 . S
C0 C5 1.479 . S
C0 C10 1.465 . S
C1 C0 1.264 . S
C1 C3 1.339 . S
C1 H28 0.931 . S
C2 C3 1.395 . S
C2 C4 1.320 . S
C3 C1 1.339 . S
C3 C2 1.395 . S
C3 H29 0.929 . S
C4 C2 1.320 . S
C4 C5 1.405 . S
C4 H30 0.930 . S
C5 C0 1.479 . S
C5 C4 1.405 . S
C5 H31 0.931 . S
U6 O7 2.454 . S
U6 O8 2.458 . S
U6 C9 2.984 . S
U6 C10 2.847 . S
U6 C23 2.882 . S
U6 O24 2.441 . S
U6 O25 2.420 . S
U6 O26 2.455 . S
U6 O27 2.449 . S
O7 U6 2.454 . S
O7 C9 1.353 . S
O8 U6 2.458 . S
O8 C9 1.286 . S
C9 U6 2.984 . S
C9 O7 1.353 . S
C9 O8 1.286 . S
C9 C11 1.363 . S
C10 C0 1.465 . S
C10 U6 2.847 . S
C10 O24 1.249 . S
C10 O25 1.202 . S
C11 C9 1.363 . S
C11 C13 1.408 . S
C11 C16 1.342 . S
C12 C13 1.310 . S
C12 C15 1.461 . S
C12 H32 0.932 . S
C13 C11 1.408 . S
C13 C12 1.310 . S
C13 H33 0.930 . S
C14 C15 1.474 . S
C14 C16 1.285 . S
C14 H34 0.929 . S
C15 C12 1.461 . S
C15 C14 1.474 . S
C16 C11 1.342 . S
C16 C14 1.285 . S
C16 H35 0.930 . S
C17 C20 1.424 . S
C17 C22 1.245 . S
C17 C23 1.428 . S
C18 C21 1.260 . S
C18 C22 1.477 . S
C18 H36 0.932 . S
C19 C20 1.384 . S
C19 C21 1.479 . S
C19 H37 0.929 . S
C20 C17 1.424 . S
C20 C19 1.384 . S
C20 H38 0.928 . S
C21 C18 1.260 . S
C21 C19 1.479 . S
C22 C17 1.245 . S
C22 C18 1.477 . S
C22 H39 0.932 . S
C23 U6 2.882 . S
C23 C17 1.428 . S
C23 O26 1.301 . S
C23 O27 1.282 . S
O24 U6 2.441 . S
O24 C10 1.249 . S
O25 U6 2.420 . S
O25 C10 1.202 . S
O26 U6 2.455 . S
O26 C23 1.301 . S
O27 U6 2.449 . S
O27 C23 1.282 . S
H28 C1 0.931 . S
H29 C3 0.929 . S
H30 C4 0.930 . S
H31 C5 0.931 . S
H32 C12 0.932 . S
H33 C13 0.930 . S
H34 C14 0.929 . S
H35 C16 0.930 . S
H36 C18 0.932 . S
H37 C19 0.929 . S
H38 C20 0.928 . S
H39 C22 0.932 . S
C40 C41 1.264 . S
C40 C45 1.479 . S
C40 C50 1.465 . S
C41 C40 1.264 . S
C41 C43 1.339 . S
C41 H68 0.931 . S
C42 C43 1.395 . S
C42 C44 1.320 . S
C43 C41 1.339 . S
C43 C42 1.395 . S
C43 H69 0.929 . S
C44 C42 1.320 . S
C44 C45 1.405 . S
C44 H70 0.930 . S
C45 C40 1.479 . S
C45 C44 1.405 . S
C45 H71 0.931 . S
U46 O47 2.454 . S
U46 O48 2.458 . S
U46 C49 2.984 . S
U46 C50 2.847 . S
U46 C63 2.882 . S
U46 O64 2.441 . S
U46 O65 2.420 . S
U46 O66 2.455 . S
U46 O67 2.449 . S
O47 U46 2.454 . S
O47 C49 1.353 . S
O48 U46 2.458 . S
O48 C49 1.286 . S
C49 U46 2.984 . S
C49 O47 1.353 . S
C49 O48 1.286 . S
C49 C51 1.363 . S
C50 C40 1.465 . S
C50 U46 2.847 . S
C50 O64 1.249 . S
C50 O65 1.202 . S
C51 C49 1.363 . S
C51 C53 1.408 . S
C51 C56 1.342 . S
C52 C53 1.310 . S
C52 C55 1.461 . S
C52 H72 0.932 . S
C53 C51 1.408 . S
C53 C52 1.310 . S
C53 H73 0.930 . S
C54 C55 1.474 . S
C54 C56 1.285 . S
C54 H74 0.929 . S
C55 C52 1.461 . S
C55 C54 1.474 . S
C56 C51 1.342 . S
C56 C54 1.285 . S
C56 H75 0.930 . S
C57 C60 1.424 . S
C57 C62 1.245 . S
C57 C63 1.428 . S
C58 C61 1.260 . S
C58 C62 1.477 . S
C58 H76 0.932 . S
C59 C60 1.384 . S
C59 C61 1.479 . S
C59 H77 0.929 . S
C60 C57 1.424 . S
C60 C59 1.384 . S
C60 H78 0.928 . S
C61 C58 1.260 . S
C61 C59 1.479 . S
C62 C57 1.245 . S
C62 C58 1.477 . S
C62 H79 0.932 . S
C63 U46 2.882 . S
C63 C57 1.428 . S
C63 O66 1.301 . S
C63 O67 1.282 . S
O64 U46 2.441 . S
O64 C50 1.249 . S
O65 U46 2.420 . S
O65 C50 1.202 . S
O66 U46 2.455 . S
O66 C63 1.301 . S
O67 U46 2.449 . S
O67 C63 1.282 . S
H68 C41 0.931 . S
H69 C43 0.929 . S
H70 C44 0.930 . S
H71 C45 0.931 . S
H72 C52 0.932 . S
H73 C53 0.930 . S
H74 C54 0.929 . S
H75 C56 0.930 . S
H76 C58 0.932 . S
H77 C59 0.929 . S
H78 C60 0.928 . S
H79 C62 0.932 . S
C80 C81 1.264 . S
C80 C85 1.479 . S
C80 C90 1.465 . S
C81 C80 1.264 . S
C81 C83 1.339 . S
C81 H108 0.931 . S
C82 C83 1.395 . S
C82 C84 1.320 . S
C83 C81 1.339 . S
C83 C82 1.395 . S
C83 H109 0.929 . S
C84 C82 1.320 . S
C84 C85 1.405 . S
C84 H110 0.930 . S
C85 C80 1.479 . S
C85 C84 1.405 . S
C85 H111 0.931 . S
U86 O87 2.454 . S
U86 O88 2.458 . S
U86 C89 2.984 . S
U86 C90 2.847 . S
U86 C103 2.882 . S
U86 O104 2.441 . S
U86 O105 2.420 . S
U86 O106 2.455 . S
U86 O107 2.449 . S
O87 U86 2.454 . S
O87 C89 1.353 . S
O88 U86 2.458 . S
O88 C89 1.286 . S
C89 U86 2.984 . S
C89 O87 1.353 . S
C89 O88 1.286 . S
C89 C91 1.363 . S
C90 C80 1.465 . S
C90 U86 2.847 . S
C90 O104 1.249 . S
C90 O105 1.202 . S
C91 C89 1.363 . S
C91 C93 1.408 . S
C91 C96 1.342 . S
C92 C93 1.310 . S
C92 C95 1.461 . S
C92 H112 0.932 . S
C93 C91 1.408 . S
C93 C92 1.310 . S
C93 H113 0.930 . S
C94 C95 1.474 . S
C94 C96 1.285 . S
C94 H114 0.929 . S
C95 C92 1.461 . S
C95 C94 1.474 . S
C96 C91 1.342 . S
C96 C94 1.285 . S
C96 H115 0.930 . S
C97 C100 1.424 . S
C97 C102 1.245 . S
C97 C103 1.428 . S
C98 C101 1.260 . S
C98 C102 1.477 . S
C98 H116 0.932 . S
C99 C100 1.384 . S
C99 C101 1.479 . S
C99 H117 0.929 . S
C100 C97 1.424 . S
C100 C99 1.384 . S
C100 H118 0.928 . S
C101 C98 1.260 . S
C101 C99 1.479 . S
C102 C97 1.245 . S
C102 C98 1.477 . S
C102 H119 0.932 . S
C103 U86 2.882 . S
C103 C97 1.428 . S
C103 O106 1.301 . S
C103 O107 1.282 . S
O104 U86 2.441 . S
O104 C90 1.249 . S
O105 U86 2.420 . S
O105 C90 1.202 . S
O106 U86 2.455 . S
O106 C103 1.301 . S
O107 U86 2.449 . S
O107 C103 1.282 . S
H108 C81 0.931 . S
H109 C83 0.929 . S
H110 C84 0.930 . S
H111 C85 0.931 . S
H112 C92 0.932 . S
H113 C93 0.930 . S
H114 C94 0.929 . S
H115 C96 0.930 . S
H116 C98 0.932 . S
H117 C99 0.929 . S
H118 C100 0.928 . S
H119 C102 0.932 . S
C120 C121 1.264 . S
C120 C125 1.479 . S
C120 C130 1.465 . S
C121 C120 1.264 . S
C121 C123 1.339 . S
C121 H148 0.931 . S
C122 C123 1.395 . S
C122 C124 1.320 . S
C123 C121 1.339 . S
C123 C122 1.395 . S
C123 H149 0.929 . S
C124 C122 1.320 . S
C124 C125 1.405 . S
C124 H150 0.930 . S
C125 C120 1.479 . S
C125 C124 1.405 . S
C125 H151 0.931 . S
U126 O127 2.454 . S
U126 O128 2.458 . S
U126 C129 2.984 . S
U126 C130 2.847 . S
U126 C143 2.882 . S
U126 O144 2.441 . S
U126 O145 2.420 . S
U126 O146 2.455 . S
U126 O147 2.449 . S
O127 U126 2.454 . S
O127 C129 1.353 . S
O128 U126 2.458 . S
O128 C129 1.286 . S
C129 U126 2.984 . S
C129 O127 1.353 . S
C129 O128 1.286 . S
C129 C131 1.363 . S
C130 C120 1.465 . S
C130 U126 2.847 . S
C130 O144 1.249 . S
C130 O145 1.202 . S
C131 C129 1.363 . S
C131 C133 1.408 . S
C131 C136 1.342 . S
C132 C133 1.310 . S
C132 C135 1.461 . S
C132 H152 0.932 . S
C133 C131 1.408 . S
C133 C132 1.310 . S
C133 H153 0.930 . S
C134 C135 1.474 . S
C134 C136 1.285 . S
C134 H154 0.929 . S
C135 C132 1.461 . S
C135 C134 1.474 . S
C136 C131 1.342 . S
C136 C134 1.285 . S
C136 H155 0.930 . S
C137 C140 1.424 . S
C137 C142 1.245 . S
C137 C143 1.428 . S
C138 C141 1.260 . S
C138 C142 1.477 . S
C138 H156 0.932 . S
C139 C140 1.384 . S
C139 C141 1.479 . S
C139 H157 0.929 . S
C140 C137 1.424 . S
C140 C139 1.384 . S
C140 H158 0.928 . S
C141 C138 1.260 . S
C141 C139 1.479 . S
C142 C137 1.245 . S
C142 C138 1.477 . S
C142 H159 0.932 . S
C143 U126 2.882 . S
C143 C137 1.428 . S
C143 O146 1.301 . S
C143 O147 1.282 . S
O144 U126 2.441 . S
O144 C130 1.249 . S
O145 U126 2.420 . S
O145 C130 1.202 . S
O146 U126 2.455 . S
O146 C143 1.301 . S
O147 U126 2.449 . S
O147 C143 1.282 . S
H148 C121 0.931 . S
H149 C123 0.929 . S
H150 C124 0.930 . S
H151 C125 0.931 . S
H152 C132 0.932 . S
H153 C133 0.930 . S
H154 C134 0.929 . S
H155 C136 0.930 . S
H156 C138 0.932 . S
H157 C139 0.929 . S
H158 C140 0.928 . S
H159 C142 0.932 . S
C160 C161 1.264 . S
C160 C165 1.479 . S
C160 C170 1.465 . S
C161 C160 1.264 . S
C161 C163 1.339 . S
C161 H188 0.931 . S
C162 C163 1.395 . S
C162 C164 1.320 . S
C163 C161 1.339 . S
C163 C162 1.395 . S
C163 H189 0.929 . S
C164 C162 1.320 . S
C164 C165 1.405 . S
C164 H190 0.930 . S
C165 C160 1.479 . S
C165 C164 1.405 . S
C165 H191 0.931 . S
U166 O167 2.454 . S
U166 O168 2.458 . S
U166 C169 2.984 . S
U166 C170 2.847 . S
U166 C183 2.882 . S
U166 O184 2.441 . S
U166 O185 2.420 . S
U166 O186 2.455 . S
U166 O187 2.449 . S
O167 U166 2.454 . S
O167 C169 1.353 . S
O168 U166 2.458 . S
O168 C169 1.286 . S
C169 U166 2.984 . S
C169 O167 1.353 . S
C169 O168 1.286 . S
C169 C171 1.363 . S
C170 C160 1.465 . S
C170 U166 2.847 . S
C170 O184 1.249 . S
C170 O185 1.202 . S
C171 C169 1.363 . S
C171 C173 1.408 . S
C171 C176 1.342 . S
C172 C173 1.310 . S
C172 C175 1.461 . S
C172 H192 0.932 . S
C173 C171 1.408 . S
C173 C172 1.310 . S
C173 H193 0.930 . S
C174 C175 1.474 . S
C174 C176 1.285 . S
C174 H194 0.929 . S
C175 C172 1.461 . S
C175 C174 1.474 . S
C176 C171 1.342 . S
C176 C174 1.285 . S
C176 H195 0.930 . S
C177 C180 1.424 . S
C177 C182 1.245 . S
C177 C183 1.428 . S
C178 C181 1.260 . S
C178 C182 1.477 . S
C178 H196 0.932 . S
C179 C180 1.384 . S
C179 C181 1.479 . S
C179 H197 0.929 . S
C180 C177 1.424 . S
C180 C179 1.384 . S
C180 H198 0.928 . S
C181 C178 1.260 . S
C181 C179 1.479 . S
C182 C177 1.245 . S
C182 C178 1.477 . S
C182 H199 0.932 . S
C183 U166 2.882 . S
C183 C177 1.428 . S
C183 O186 1.301 . S
C183 O187 1.282 . S
O184 U166 2.441 . S
O184 C170 1.249 . S
O185 U166 2.420 . S
O185 C170 1.202 . S
O186 U166 2.455 . S
O186 C183 1.301 . S
O187 U166 2.449 . S
O187 C183 1.282 . S
H188 C161 0.931 . S
H189 C163 0.929 . S
H190 C164 0.930 . S
H191 C165 0.931 . S
H192 C172 0.932 . S
H193 C173 0.930 . S
H194 C174 0.929 . S
H195 C176 0.930 . S
H196 C178 0.932 . S
H197 C179 0.929 . S
H198 C180 0.928 . S
H199 C182 0.932 . S
C200 C201 1.264 . S
C200 C205 1.479 . S
C200 C210 1.465 . S
C201 C200 1.264 . S
C201 C203 1.339 . S
C201 H228 0.931 . S
C202 C203 1.395 . S
C202 C204 1.320 . S
C203 C201 1.339 . S
C203 C202 1.395 . S
C203 H229 0.929 . S
C204 C202 1.320 . S
C204 C205 1.405 . S
C204 H230 0.930 . S
C205 C200 1.479 . S
C205 C204 1.405 . S
C205 H231 0.931 . S
U206 O207 2.454 . S
U206 O208 2.458 . S
U206 C209 2.984 . S
U206 C210 2.847 . S
U206 C223 2.882 . S
U206 O224 2.441 . S
U206 O225 2.420 . S
U206 O226 2.455 . S
U206 O227 2.449 . S
O207 U206 2.454 . S
O207 C209 1.353 . S
O208 U206 2.458 . S
O208 C209 1.286 . S
C209 U206 2.984 . S
C209 O207 1.353 . S
C209 O208 1.286 . S
C209 C211 1.363 . S
C210 C200 1.465 . S
C210 U206 2.847 . S
C210 O224 1.249 . S
C210 O225 1.202 . S
C211 C209 1.363 . S
C211 C213 1.408 . S
C211 C216 1.342 . S
C212 C213 1.310 . S
C212 C215 1.461 . S
C212 H232 0.932 . S
C213 C211 1.408 . S
C213 C212 1.310 . S
C213 H233 0.930 . S
C214 C215 1.474 . S
C214 C216 1.285 . S
C214 H234 0.929 . S
C215 C212 1.461 . S
C215 C214 1.474 . S
C216 C211 1.342 . S
C216 C214 1.285 . S
C216 H235 0.930 . S
C217 C220 1.424 . S
C217 C222 1.245 . S
C217 C223 1.428 . S
C218 C221 1.260 . S
C218 C222 1.477 . S
C218 H236 0.932 . S
C219 C220 1.384 . S
C219 C221 1.479 . S
C219 H237 0.929 . S
C220 C217 1.424 . S
C220 C219 1.384 . S
C220 H238 0.928 . S
C221 C218 1.260 . S
C221 C219 1.479 . S
C222 C217 1.245 . S
C222 C218 1.477 . S
C222 H239 0.932 . S
C223 U206 2.882 . S
C223 C217 1.428 . S
C223 O226 1.301 . S
C223 O227 1.282 . S
O224 U206 2.441 . S
O224 C210 1.249 . S
O225 U206 2.420 . S
O225 C210 1.202 . S
O226 U206 2.455 . S
O226 C223 1.301 . S
O227 U206 2.449 . S
O227 C223 1.282 . S
H228 C201 0.931 . S
H229 C203 0.929 . S
H230 C204 0.930 . S
H231 C205 0.931 . S
H232 C212 0.932 . S
H233 C213 0.930 . S
H234 C214 0.929 . S
H235 C216 0.930 . S
H236 C218 0.932 . S
H237 C219 0.929 . S
H238 C220 0.928 . S
H239 C222 0.932 . S
C240 C241 1.264 . S
C240 C245 1.479 . S
C240 C250 1.465 . S
C241 C240 1.264 . S
C241 C243 1.339 . S
C241 H268 0.931 . S
C242 C243 1.395 . S
C242 C244 1.320 . S
C243 C241 1.339 . S
C243 C242 1.395 . S
C243 H269 0.929 . S
C244 C242 1.320 . S
C244 C245 1.405 . S
C244 H270 0.930 . S
C245 C240 1.479 . S
C245 C244 1.405 . S
C245 H271 0.931 . S
U246 O247 2.454 . S
U246 O248 2.458 . S
U246 C249 2.984 . S
U246 C250 2.847 . S
U246 C263 2.882 . S
U246 O264 2.441 . S
U246 O265 2.420 . S
U246 O266 2.455 . S
U246 O267 2.449 . S
O247 U246 2.454 . S
O247 C249 1.353 . S
O248 U246 2.458 . S
O248 C249 1.286 . S
C249 U246 2.984 . S
C249 O247 1.353 . S
C249 O248 1.286 . S
C249 C251 1.363 . S
C250 C240 1.465 . S
C250 U246 2.847 . S
C250 O264 1.249 . S
C250 O265 1.202 . S
C251 C249 1.363 . S
C251 C253 1.408 . S
C251 C256 1.342 . S
C252 C253 1.310 . S
C252 C255 1.461 . S
C252 H272 0.932 . S
C253 C251 1.408 . S
C253 C252 1.310 . S
C253 H273 0.930 . S
C254 C255 1.474 . S
C254 C256 1.285 . S
C254 H274 0.929 . S
C255 C252 1.461 . S
C255 C254 1.474 . S
C256 C251 1.342 . S
C256 C254 1.285 . S
C256 H275 0.930 . S
C257 C260 1.424 . S
C257 C262 1.245 . S
C257 C263 1.428 . S
C258 C261 1.260 . S
C258 C262 1.477 . S
C258 H276 0.932 . S
C259 C260 1.384 . S
C259 C261 1.479 . S
C259 H277 0.929 . S
C260 C257 1.424 . S
C260 C259 1.384 . S
C260 H278 0.928 . S
C261 C258 1.260 . S
C261 C259 1.479 . S
C262 C257 1.245 . S
C262 C258 1.477 . S
C262 H279 0.932 . S
C263 U246 2.882 . S
C263 C257 1.428 . S
C263 O266 1.301 . S
C263 O267 1.282 . S
O264 U246 2.441 . S
O264 C250 1.249 . S
O265 U246 2.420 . S
O265 C250 1.202 . S
O266 U246 2.455 . S
O266 C263 1.301 . S
O267 U246 2.449 . S
O267 C263 1.282 . S
H268 C241 0.931 . S
H269 C243 0.929 . S
H270 C244 0.930 . S
H271 C245 0.931 . S
H272 C252 0.932 . S
H273 C253 0.930 . S
H274 C254 0.929 . S
H275 C256 0.930 . S
H276 C258 0.932 . S
H277 C259 0.929 . S
H278 C260 0.928 . S
H279 C262 0.932 . S
C280 C281 1.264 . S
C280 C285 1.479 . S
C280 C290 1.465 . S
C281 C280 1.264 . S
C281 C283 1.339 . S
C281 H308 0.931 . S
C282 C283 1.395 . S
C282 C284 1.320 . S
C283 C281 1.339 . S
C283 C282 1.395 . S
C283 H309 0.929 . S
C284 C282 1.320 . S
C284 C285 1.405 . S
C284 H310 0.930 . S
C285 C280 1.479 . S
C285 C284 1.405 . S
C285 H311 0.931 . S
U286 O287 2.454 . S
U286 O288 2.458 . S
U286 C289 2.984 . S
U286 C290 2.847 . S
U286 C303 2.882 . S
U286 O304 2.441 . S
U286 O305 2.420 . S
U286 O306 2.455 . S
U286 O307 2.449 . S
O287 U286 2.454 . S
O287 C289 1.353 . S
O288 U286 2.458 . S
O288 C289 1.286 . S
C289 U286 2.984 . S
C289 O287 1.353 . S
C289 O288 1.286 . S
C289 C291 1.363 . S
C290 C280 1.465 . S
C290 U286 2.847 . S
C290 O304 1.249 . S
C290 O305 1.202 . S
C291 C289 1.363 . S
C291 C293 1.408 . S
C291 C296 1.342 . S
C292 C293 1.310 . S
C292 C295 1.461 . S
C292 H312 0.932 . S
C293 C291 1.408 . S
C293 C292 1.310 . S
C293 H313 0.930 . S
C294 C295 1.474 . S
C294 C296 1.285 . S
C294 H314 0.929 . S
C295 C292 1.461 . S
C295 C294 1.474 . S
C296 C291 1.342 . S
C296 C294 1.285 . S
C296 H315 0.930 . S
C297 C300 1.424 . S
C297 C302 1.245 . S
C297 C303 1.428 . S
C298 C301 1.260 . S
C298 C302 1.477 . S
C298 H316 0.932 . S
C299 C300 1.384 . S
C299 C301 1.479 . S
C299 H317 0.929 . S
C300 C297 1.424 . S
C300 C299 1.384 . S
C300 H318 0.928 . S
C301 C298 1.260 . S
C301 C299 1.479 . S
C302 C297 1.245 . S
C302 C298 1.477 . S
C302 H319 0.932 . S
C303 U286 2.882 . S
C303 C297 1.428 . S
C303 O306 1.301 . S
C303 O307 1.282 . S
O304 U286 2.441 . S
O304 C290 1.249 . S
O305 U286 2.420 . S
O305 C290 1.202 . S
O306 U286 2.455 . S
O306 C303 1.301 . S
O307 U286 2.449 . S
O307 C303 1.282 . S
H308 C281 0.931 . S
H309 C283 0.929 . S
H310 C284 0.930 . S
H311 C285 0.931 . S
H312 C292 0.932 . S
H313 C293 0.930 . S
H314 C294 0.929 . S
H315 C296 0.930 . S
H316 C298 0.932 . S
H317 C299 0.929 . S
H318 C300 0.928 . S
H319 C302 0.932 . S
H320 O346 0.850 1_455 S
H321 O349 0.854 . S
H322 C357 0.930 . S
H323 C358 0.930 . S
H324 C360 0.930 . S
H325 C361 0.930 . S
H326 C363 0.931 . S
H327 C364 0.930 . S
H328 C366 0.930 . S
H329 C367 0.926 1_455 S
H330 C369 0.930 . S
H331 C370 0.931 . S
H332 C372 0.930 . S
H333 C373 0.929 . S
H334 C375 0.931 . S
H335 C376 0.930 . S
H336 C378 0.930 . S
H337 C379 0.932 . S
H338 C381 0.930 . S
H339 C382 0.929 . S
H340 C384 0.931 . S
H341 C385 0.930 . S
H342 C387 0.929 . S
H343 C388 0.931 . S
H344 C390 0.930 . S
H345 C391 0.929 . S
O346 H320 0.850 1_655 S
O346 C392 1.300 1_655 S
O347 C392 1.209 . S
O348 C393 1.199 . S
O349 H321 0.854 . S
O349 C393 1.297 . S
C350 C351 1.404 1_455 S
C350 C355 1.397 1_455 S
C350 C356 1.492 . S
C351 C350 1.404 1_655 S
C351 C352 1.396 . S
C351 C362 1.492 . S
C352 C351 1.396 . S
C352 C353 1.397 . S
C352 C368 1.509 . S
C353 C352 1.397 . S
C353 C354 1.412 . S
C353 C374 1.485 . S
C354 C353 1.412 . S
C354 C355 1.388 . S
C354 C380 1.490 . S
C355 C350 1.397 1_655 S
C355 C354 1.388 . S
C355 C386 1.519 1_655 S
C356 C350 1.492 . S
C356 C357 1.363 . S
C356 C361 1.390 . S
C357 H322 0.930 . S
C357 C356 1.363 . S
C357 C358 1.372 . S
C358 H323 0.930 . S
C358 C357 1.372 . S
C358 C359 1.383 . S
C359 C358 1.383 . S
C359 C360 1.395 . S
C360 H324 0.930 . S
C360 C359 1.395 . S
C360 C361 1.362 . S
C361 H325 0.930 . S
C361 C356 1.390 . S
C361 C360 1.362 . S
C362 C351 1.492 . S
C362 C363 1.377 . S
C362 C367 1.402 . S
C363 H326 0.931 . S
C363 C362 1.377 . S
C363 C364 1.376 . S
C364 H327 0.930 . S
C364 C363 1.376 . S
C364 C365 1.380 . S
C365 C364 1.380 . S
C365 C366 1.376 1_655 S
C365 C392 1.484 1_655 S
C366 H328 0.930 . S
C366 C365 1.376 1_455 S
C366 C367 1.374 1_455 S
C367 H329 0.926 1_655 S
C367 C362 1.402 . S
C367 C366 1.374 1_655 S
C368 C352 1.509 . S
C368 C369 1.391 . S
C368 C373 1.386 . S
C369 H330 0.930 . S
C369 C368 1.391 . S
C369 C370 1.375 . S
C370 H331 0.931 . S
C370 C369 1.375 . S
C370 C371 1.375 . S
C371 C370 1.375 . S
C371 C372 1.361 . S
C372 H332 0.930 . S
C372 C371 1.361 . S
C372 C373 1.399 . S
C373 H333 0.929 . S
C373 C368 1.386 . S
C373 C372 1.399 . S
C374 C353 1.485 . S
C374 C375 1.394 . S
C374 C379 1.360 . S
C375 H334 0.931 . S
C375 C374 1.394 . S
C375 C376 1.372 . S
C376 H335 0.930 . S
C376 C375 1.372 . S
C376 C377 1.397 . S
C377 C376 1.397 . S
C377 C378 1.390 . S
C377 C393 1.476 . S
C378 H336 0.930 . S
C378 C377 1.390 . S
C378 C379 1.366 . S
C379 H337 0.932 . S
C379 C374 1.360 . S
C379 C378 1.366 . S
C380 C354 1.490 . S
C380 C381 1.380 . S
C380 C385 1.386 . S
C381 H338 0.930 . S
C381 C380 1.380 . S
C381 C382 1.381 . S
C382 H339 0.929 . S
C382 C381 1.381 . S
C382 C383 1.371 . S
C383 C382 1.371 . S
C383 C384 1.380 . S
C384 H340 0.931 . S
C384 C383 1.380 . S
C384 C385 1.387 . S
C385 H341 0.930 . S
C385 C380 1.386 . S
C385 C384 1.387 . S
C386 C355 1.519 1_455 S
C386 C387 1.377 . S
C386 C391 1.361 . S
C387 H342 0.929 . S
C387 C386 1.377 . S
C387 C388 1.386 . S
C388 H343 0.931 . S
C388 C387 1.386 . S
C388 C389 1.363 . S
C389 C388 1.363 . S
C389 C390 1.385 . S
C390 H344 0.930 . S
C390 C389 1.385 . S
C390 C391 1.396 . S
C391 H345 0.929 . S
C391 C386 1.361 . S
C391 C390 1.396 . S
C392 O346 1.300 1_455 S
C392 O347 1.209 . S
C392 C365 1.484 1_455 S
C393 O348 1.199 . S
C393 O349 1.297 . S
C393 C377 1.476 . S
H394 O420 0.856 . S
H395 O423 0.854 . S
H396 C431 0.930 . S
H397 C432 0.930 . S
H398 C434 0.930 . S
H399 C435 0.930 . S
H400 C437 0.931 . S
H401 C438 0.930 . S
H402 C440 0.930 . S
H403 C441 0.929 . S
H404 C443 0.930 . S
H405 C444 0.931 . S
H406 C446 0.930 . S
H407 C447 0.929 . S
H408 C449 0.931 . S
H409 C450 0.930 . S
H410 C452 0.930 . S
H411 C453 0.932 . S
H412 C455 0.930 1_455 S
H413 C456 0.929 . S
H414 C458 0.931 . S
H415 C459 0.930 . S
H416 C461 0.929 . S
H417 C462 0.931 . S
H418 C464 0.930 . S
H419 C465 0.929 . S
O420 H394 0.856 . S
O420 C466 1.300 . S
O421 C466 1.209 . S
O422 C467 1.199 . S
O423 H395 0.854 . S
O423 C467 1.297 . S
C424 C425 1.404 . S
C424 C429 1.397 . S
C424 C430 1.492 . S
C425 C424 1.404 . S
C425 C426 1.396 1_455 S
C425 C436 1.492 . S
C426 C425 1.396 1_655 S
C426 C427 1.397 . S
C426 C442 1.509 . S
C427 C426 1.397 . S
C427 C428 1.430 . S
C427 C448 1.485 . S
C428 C427 1.430 . S
C428 C429 1.361 1_655 S
C428 C454 1.501 . S
C429 C424 1.397 . S
C429 C428 1.361 1_455 S
C429 C460 1.519 . S
C430 C424 1.492 . S
C430 C431 1.363 . S
C430 C435 1.390 . S
C431 H396 0.930 . S
C431 C430 1.363 . S
C431 C432 1.372 . S
C432 H397 0.930 . S
C432 C431 1.372 . S
C432 C433 1.383 . S
C433 C432 1.383 . S
C433 C434 1.395 . S
C434 H398 0.930 . S
C434 C433 1.395 . S
C434 C435 1.362 . S
C435 H399 0.930 . S
C435 C430 1.390 . S
C435 C434 1.362 . S
C436 C425 1.492 . S
C436 C437 1.377 . S
C436 C441 1.397 . S
C437 H400 0.931 . S
C437 C436 1.377 . S
C437 C438 1.376 . S
C438 H401 0.930 . S
C438 C437 1.376 . S
C438 C439 1.376 . S
C439 C438 1.376 . S
C439 C440 1.378 . S
C439 C466 1.486 . S
C440 H402 0.930 . S
C440 C439 1.378 . S
C440 C441 1.376 . S
C441 H403 0.929 . S
C441 C436 1.397 . S
C441 C440 1.376 . S
C442 C426 1.509 . S
C442 C443 1.391 . S
C442 C447 1.386 . S
C443 H404 0.930 . S
C443 C442 1.391 . S
C443 C444 1.375 . S
C444 H405 0.931 . S
C444 C443 1.375 . S
C444 C445 1.375 . S
C445 C444 1.375 . S
C445 C446 1.361 . S
C446 H406 0.930 . S
C446 C445 1.361 . S
C446 C447 1.399 . S
C447 H407 0.929 . S
C447 C442 1.386 . S
C447 C446 1.399 . S
C448 C427 1.485 . S
C448 C449 1.394 . S
C448 C453 1.360 . S
C449 H408 0.931 . S
C449 C448 1.394 . S
C449 C450 1.372 . S
C450 H409 0.930 . S
C450 C449 1.372 . S
C450 C451 1.397 . S
C451 C450 1.397 . S
C451 C452 1.390 . S
C451 C467 1.476 . S
C452 H410 0.930 . S
C452 C451 1.390 . S
C452 C453 1.366 . S
C453 H411 0.932 . S
C453 C448 1.360 . S
C453 C452 1.366 . S
C454 C428 1.501 . S
C454 C455 1.380 . S
C454 C459 1.386 . S
C455 H412 0.930 1_655 S
C455 C454 1.380 . S
C455 C456 1.381 . S
C456 H413 0.929 . S
C456 C455 1.381 . S
C456 C457 1.371 . S
C457 C456 1.371 . S
C457 C458 1.380 . S
C458 H414 0.931 . S
C458 C457 1.380 . S
C458 C459 1.387 . S
C459 H415 0.930 . S
C459 C454 1.386 . S
C459 C458 1.387 . S
C460 C429 1.519 . S
C460 C461 1.377 . S
C460 C465 1.361 . S
C461 H416 0.929 . S
C461 C460 1.377 . S
C461 C462 1.386 . S
C462 H417 0.931 . S
C462 C461 1.386 . S
C462 C463 1.363 . S
C463 C462 1.363 . S
C463 C464 1.385 . S
C464 H418 0.930 . S
C464 C463 1.385 . S
C464 C465 1.396 . S
C465 H419 0.929 . S
C465 C460 1.361 . S
C465 C464 1.396 . S
C466 O420 1.300 . S
C466 O421 1.209 . S
C466 C439 1.486 . S
C467 O422 1.199 . S
C467 O423 1.297 . S
C467 C451 1.476 . S
H468 O494 0.856 . S
H469 O497 0.854 . S
H470 C505 0.930 . S
H471 C506 0.930 . S
H472 C508 0.930 . S
H473 C509 0.930 . S
H474 C511 0.931 . S
H475 C512 0.930 . S
H476 C514 0.930 1_565 S
H477 C515 0.929 . S
H478 C517 0.930 . S
H479 C518 0.931 . S
H480 C520 0.930 . S
H481 C521 0.929 . S
H482 C523 0.931 . S
H483 C524 0.930 . S
H484 C526 0.930 . S
H485 C527 0.932 . S
H486 C529 0.930 . S
H487 C530 0.929 . S
H488 C532 0.931 . S
H489 C533 0.930 . S
H490 C535 0.929 . S
H491 C536 0.931 . S
H492 C538 0.930 . S
H493 C539 0.929 . S
O494 H468 0.856 . S
O494 C540 1.299 1_545 S
O495 C540 1.209 . S
O496 C541 1.199 . S
O497 H469 0.854 . S
O497 C541 1.297 . S
C498 C499 1.404 . S
C498 C503 1.397 . S
C498 C504 1.492 1_545 S
C499 C498 1.404 . S
C499 C500 1.396 . S
C499 C510 1.492 . S
C500 C499 1.396 . S
C500 C501 1.397 . S
C500 C516 1.509 . S
C501 C500 1.397 . S
C501 C502 1.412 . S
C501 C522 1.485 . S
C502 C501 1.412 . S
C502 C503 1.388 . S
C502 C528 1.490 . S
C503 C498 1.397 . S
C503 C502 1.388 . S
C503 C534 1.519 . S
C504 C498 1.492 1_565 S
C504 C505 1.363 . S
C504 C509 1.390 . S
C505 H470 0.930 . S
C505 C504 1.363 . S
C505 C506 1.372 . S
C506 H471 0.930 . S
C506 C505 1.372 . S
C506 C507 1.383 . S
C507 C506 1.383 . S
C507 C508 1.395 . S
C508 H472 0.930 . S
C508 C507 1.395 . S
C508 C509 1.362 . S
C509 H473 0.930 . S
C509 C504 1.390 . S
C509 C508 1.362 . S
C510 C499 1.492 . S
C510 C511 1.377 . S
C510 C515 1.397 . S
C511 H474 0.931 . S
C511 C510 1.377 . S
C511 C512 1.376 . S
C512 H475 0.930 . S
C512 C511 1.376 . S
C512 C513 1.376 . S
C513 C512 1.376 . S
C513 C514 1.378 . S
C513 C540 1.486 1_545 S
C514 H476 0.930 1_545 S
C514 C513 1.378 . S
C514 C515 1.376 . S
C515 H477 0.929 . S
C515 C510 1.397 . S
C515 C514 1.376 . S
C516 C500 1.509 . S
C516 C517 1.391 . S
C516 C521 1.386 . S
C517 H478 0.930 . S
C517 C516 1.391 . S
C517 C518 1.375 . S
C518 H479 0.931 . S
C518 C517 1.375 . S
C518 C519 1.375 . S
C519 C518 1.375 . S
C519 C520 1.361 . S
C520 H480 0.930 . S
C520 C519 1.361 . S
C520 C521 1.399 . S
C521 H481 0.929 . S
C521 C516 1.386 . S
C521 C520 1.399 . S
C522 C501 1.485 . S
C522 C523 1.394 . S
C522 C527 1.360 . S
C523 H482 0.931 . S
C523 C522 1.394 . S
C523 C524 1.372 . S
C524 H483 0.930 . S
C524 C523 1.372 . S
C524 C525 1.397 . S
C525 C524 1.397 . S
C525 C526 1.390 . S
C525 C541 1.476 . S
C526 H484 0.930 . S
C526 C525 1.390 . S
C526 C527 1.366 . S
C527 H485 0.932 . S
C527 C522 1.360 . S
C527 C526 1.366 . S
C528 C502 1.490 . S
C528 C529 1.380 . S
C528 C533 1.386 . S
C529 H486 0.930 . S
C529 C528 1.380 . S
C529 C530 1.381 . S
C530 H487 0.929 . S
C530 C529 1.381 . S
C530 C531 1.371 . S
C531 C530 1.371 . S
C531 C532 1.380 . S
C532 H488 0.931 . S
C532 C531 1.380 . S
C532 C533 1.387 . S
C533 H489 0.930 . S
C533 C528 1.386 . S
C533 C532 1.387 . S
C534 C503 1.519 . S
C534 C535 1.377 1_545 S
C534 C539 1.361 . S
C535 H490 0.929 . S
C535 C534 1.377 1_565 S
C535 C536 1.386 . S
C536 H491 0.931 . S
C536 C535 1.386 . S
C536 C537 1.363 . S
C537 C536 1.363 . S
C537 C538 1.385 . S
C538 H492 0.930 . S
C538 C537 1.385 . S
C538 C539 1.396 1_565 S
C539 H493 0.929 . S
C539 C534 1.361 . S
C539 C538 1.396 1_545 S
C540 O494 1.299 1_565 S
C540 O495 1.209 . S
C540 C513 1.486 1_565 S
C541 O496 1.199 . S
C541 O497 1.297 . S
C541 C525 1.476 . S
H542 O568 0.856 . S
H543 O571 0.854 . S
H544 C579 0.930 . S
H545 C580 0.930 . S
H546 C582 0.930 . S
H547 C583 0.930 . S
H548 C585 0.931 . S
H549 C586 0.930 . S
H550 C588 0.930 . S
H551 C589 0.929 . S
H552 C591 0.930 . S
H553 C592 0.931 . S
H554 C594 0.930 . S
H555 C595 0.929 . S
H556 C597 0.931 . S
H557 C598 0.930 . S
H558 C600 0.930 1_556 S
H559 C601 0.932 . S
H560 C603 0.930 . S
H561 C604 0.929 . S
H562 C606 0.931 . S
H563 C607 0.930 . S
H564 C609 0.929 . S
H565 C610 0.931 . S
H566 C612 0.930 . S
H567 C613 0.929 . S
O568 H542 0.856 . S
O568 C614 1.300 . S
O569 C614 1.209 . S
O570 C615 1.199 . S
O571 H543 0.854 . S
O571 C615 1.297 . S
C572 C573 1.404 . S
C572 C577 1.397 1_556 S
C572 C578 1.492 . S
C573 C572 1.404 . S
C573 C574 1.396 . S
C573 C584 1.492 . S
C574 C573 1.396 . S
C574 C575 1.397 . S
C574 C590 1.509 . S
C575 C574 1.397 . S
C575 C576 1.412 1_556 S
C575 C596 1.485 1_556 S
C576 C575 1.412 1_554 S
C576 C577 1.388 . S
C576 C602 1.490 . S
C577 C572 1.397 1_554 S
C577 C576 1.388 . S
C577 C608 1.519 . S
C578 C572 1.492 . S
C578 C579 1.363 . S
C578 C583 1.390 . S
C579 H544 0.930 . S
C579 C578 1.363 . S
C579 C580 1.372 . S
C580 H545 0.930 . S
C580 C579 1.372 . S
C580 C581 1.383 . S
C581 C580 1.383 . S
C581 C582 1.395 . S
C582 H546 0.930 . S
C582 C581 1.395 . S
C582 C583 1.362 . S
C583 H547 0.930 . S
C583 C578 1.390 . S
C583 C582 1.362 . S
C584 C573 1.492 . S
C584 C585 1.377 . S
C584 C589 1.397 . S
C585 H548 0.931 . S
C585 C584 1.377 . S
C585 C586 1.376 . S
C586 H549 0.930 . S
C586 C585 1.376 . S
C586 C587 1.376 . S
C587 C586 1.376 . S
C587 C588 1.378 . S
C587 C614 1.486 . S
C588 H550 0.930 . S
C588 C587 1.378 . S
C588 C589 1.376 . S
C589 H551 0.929 . S
C589 C584 1.397 . S
C589 C588 1.376 . S
C590 C574 1.509 . S
C590 C591 1.391 . S
C590 C595 1.386 . S
C591 H552 0.930 . S
C591 C590 1.391 . S
C591 C592 1.375 . S
C592 H553 0.931 . S
C592 C591 1.375 . S
C592 C593 1.375 . S
C593 C592 1.375 . S
C593 C594 1.361 . S
C594 H554 0.930 . S
C594 C593 1.361 . S
C594 C595 1.399 . S
C595 H555 0.929 . S
C595 C590 1.386 . S
C595 C594 1.399 . S
C596 C575 1.485 1_554 S
C596 C597 1.394 . S
C596 C601 1.360 1_554 S
C597 H556 0.931 . S
C597 C596 1.394 . S
C597 C598 1.372 . S
C598 H557 0.930 . S
C598 C597 1.372 . S
C598 C599 1.397 . S
C599 C598 1.397 . S
C599 C600 1.390 . S
C599 C615 1.476 . S
C600 H558 0.930 1_554 S
C600 C599 1.390 . S
C600 C601 1.366 1_554 S
C601 H559 0.932 . S
C601 C596 1.360 1_556 S
C601 C600 1.366 1_556 S
C602 C576 1.490 . S
C602 C603 1.380 . S
C602 C607 1.386 . S
C603 H560 0.930 . S
C603 C602 1.380 . S
C603 C604 1.381 . S
C604 H561 0.929 . S
C604 C603 1.381 . S
C604 C605 1.371 . S
C605 C604 1.371 . S
C605 C606 1.380 . S
C606 H562 0.931 . S
C606 C605 1.380 . S
C606 C607 1.387 . S
C607 H563 0.930 . S
C607 C602 1.386 . S
C607 C606 1.387 . S
C608 C577 1.519 . S
C608 C609 1.377 . S
C608 C613 1.361 . S
C609 H564 0.929 . S
C609 C608 1.377 . S
C609 C610 1.386 . S
C610 H565 0.931 . S
C610 C609 1.386 . S
C610 C611 1.363 . S
C611 C610 1.363 . S
C611 C612 1.385 . S
C612 H566 0.930 . S
C612 C611 1.385 . S
C612 C613 1.396 . S
C613 H567 0.929 . S
C613 C608 1.361 . S
C613 C612 1.396 . S
C614 O568 1.300 . S
C614 O569 1.209 . S
C614 C587 1.486 . S
C615 O570 1.199 . S
C615 O571 1.297 . S
C615 C599 1.476 . S
H616 O642 0.856 . S
H617 O645 0.854 . S
H618 C653 0.930 . S
H619 C654 0.930 . S
H620 C656 0.930 . S
H621 C657 0.930 . S
H622 C659 0.931 . S
H623 C660 0.930 . S
H624 C662 0.930 1_565 S
H625 C663 0.929 . S
H626 C665 0.930 . S
H627 C666 0.931 . S
H628 C668 0.930 . S
H629 C669 0.929 . S
H630 C671 0.931 . S
H631 C672 0.930 . S
H632 C674 0.930 . S
H633 C675 0.932 . S
H634 C677 0.930 . S
H635 C678 0.929 . S
H636 C680 0.931 . S
H637 C681 0.930 . S
H638 C683 0.929 . S
H639 C684 0.931 . S
H640 C686 0.930 . S
H641 C687 0.929 . S
O642 H616 0.856 . S
O642 C688 1.300 . S
O643 C688 1.209 1_565 S
O644 C689 1.199 . S
O645 H617 0.854 . S
O645 C689 1.297 . S
C646 C647 1.404 . S
C646 C651 1.397 . S
C646 C652 1.492 1_545 S
C647 C646 1.404 . S
C647 C648 1.396 . S
C647 C658 1.492 . S
C648 C647 1.396 . S
C648 C649 1.397 . S
C648 C664 1.509 . S
C649 C648 1.397 . S
C649 C650 1.412 . S
C649 C670 1.485 . S
C650 C649 1.412 . S
C650 C651 1.388 . S
C650 C676 1.490 . S
C651 C646 1.397 . S
C651 C650 1.388 . S
C651 C682 1.519 1_545 S
C652 C646 1.492 1_565 S
C652 C653 1.363 . S
C652 C657 1.390 . S
C653 H618 0.930 . S
C653 C652 1.363 . S
C653 C654 1.372 . S
C654 H619 0.930 . S
C654 C653 1.372 . S
C654 C655 1.383 . S
C655 C654 1.383 . S
C655 C656 1.395 . S
C656 H620 0.930 . S
C656 C655 1.395 . S
C656 C657 1.362 . S
C657 H621 0.930 . S
C657 C652 1.390 . S
C657 C656 1.362 . S
C658 C647 1.492 . S
C658 C659 1.377 . S
C658 C663 1.397 . S
C659 H622 0.931 . S
C659 C658 1.377 . S
C659 C660 1.376 . S
C660 H623 0.930 . S
C660 C659 1.376 . S
C660 C661 1.376 . S
C661 C660 1.376 . S
C661 C662 1.378 . S
C661 C688 1.486 . S
C662 H624 0.930 1_545 S
C662 C661 1.378 . S
C662 C663 1.376 . S
C663 H625 0.929 . S
C663 C658 1.397 . S
C663 C662 1.376 . S
C664 C648 1.509 . S
C664 C665 1.391 . S
C664 C669 1.386 . S
C665 H626 0.930 . S
C665 C664 1.391 . S
C665 C666 1.375 . S
C666 H627 0.931 . S
C666 C665 1.375 . S
C666 C667 1.375 . S
C667 C666 1.375 . S
C667 C668 1.361 . S
C668 H628 0.930 . S
C668 C667 1.361 . S
C668 C669 1.399 . S
C669 H629 0.929 . S
C669 C664 1.386 . S
C669 C668 1.399 . S
C670 C649 1.485 . S
C670 C671 1.394 . S
C670 C675 1.360 . S
C671 H630 0.931 . S
C671 C670 1.394 . S
C671 C672 1.372 . S
C672 H631 0.930 . S
C672 C671 1.372 . S
C672 C673 1.397 . S
C673 C672 1.397 . S
C673 C674 1.390 . S
C673 C689 1.476 . S
C674 H632 0.930 . S
C674 C673 1.390 . S
C674 C675 1.366 . S
C675 H633 0.932 . S
C675 C670 1.360 . S
C675 C674 1.366 . S
C676 C650 1.490 . S
C676 C677 1.380 . S
C676 C681 1.386 . S
C677 H634 0.930 . S
C677 C676 1.380 . S
C677 C678 1.381 . S
C678 H635 0.929 . S
C678 C677 1.381 . S
C678 C679 1.371 . S
C679 C678 1.371 . S
C679 C680 1.380 . S
C680 H636 0.931 . S
C680 C679 1.380 . S
C680 C681 1.387 . S
C681 H637 0.930 . S
C681 C676 1.386 . S
C681 C680 1.387 . S
C682 C651 1.519 1_565 S
C682 C683 1.377 . S
C682 C687 1.361 . S
C683 H638 0.929 . S
C683 C682 1.377 . S
C683 C684 1.386 . S
C684 H639 0.931 . S
C684 C683 1.386 . S
C684 C685 1.363 . S
C685 C684 1.363 . S
C685 C686 1.385 . S
C686 H640 0.930 . S
C686 C685 1.385 . S
C686 C687 1.396 . S
C687 H641 0.929 . S
C687 C682 1.361 . S
C687 C686 1.396 . S
C688 O642 1.300 . S
C688 O643 1.209 1_545 S
C688 C661 1.486 . S
C689 O644 1.199 . S
C689 O645 1.297 . S
C689 C673 1.476 . S
H690 O716 0.856 . S
H691 O719 0.854 . S
H692 C727 0.930 . S
H693 C728 0.930 . S
H694 C730 0.930 . S
H695 C731 0.930 . S
H696 C733 0.931 . S
H697 C734 0.930 . S
H698 C736 0.930 . S
H699 C737 0.929 . S
H700 C739 0.930 . S
H701 C740 0.931 . S
H702 C742 0.930 . S
H703 C743 0.929 . S
H704 C745 0.931 . S
H705 C746 0.930 . S
H706 C748 0.930 . S
H707 C749 0.932 . S
H708 C751 0.930 . S
H709 C752 0.929 . S
H710 C754 0.931 . S
H711 C755 0.930 . S
H712 C757 0.929 . S
H713 C758 0.931 . S
H714 C760 0.930 . S
H715 C761 0.929 . S
O716 H690 0.856 . S
O716 C762 1.300 . S
O717 C762 1.209 . S
O718 C763 1.199 . S
O719 H691 0.854 . S
O719 C763 1.297 . S
C720 C721 1.404 . S
C720 C725 1.397 1_556 S
C720 C726 1.492 . S
C721 C720 1.404 . S
C721 C722 1.396 . S
C721 C732 1.492 . S
C722 C721 1.396 . S
C722 C723 1.397 1_556 S
C722 C738 1.509 . S
C723 C722 1.397 1_554 S
C723 C724 1.412 . S
C723 C744 1.485 . S
C724 C723 1.412 . S
C724 C725 1.388 . S
C724 C750 1.490 . S
C725 C720 1.397 1_554 S
C725 C724 1.388 . S
C725 C756 1.519 . S
C726 C720 1.492 . S
C726 C727 1.363 . S
C726 C731 1.390 . S
C727 H692 0.930 . S
C727 C726 1.363 . S
C727 C728 1.372 . S
C728 H693 0.930 . S
C728 C727 1.372 . S
C728 C729 1.383 . S
C729 C728 1.383 . S
C729 C730 1.395 . S
C730 H694 0.930 . S
C730 C729 1.395 . S
C730 C731 1.362 . S
C731 H695 0.930 . S
C731 C726 1.390 . S
C731 C730 1.362 . S
C732 C721 1.492 . S
C732 C733 1.377 . S
C732 C737 1.397 . S
C733 H696 0.931 . S
C733 C732 1.377 . S
C733 C734 1.376 . S
C734 H697 0.930 . S
C734 C733 1.376 . S
C734 C735 1.376 . S
C735 C734 1.376 . S
C735 C736 1.378 . S
C735 C762 1.486 . S
C736 H698 0.930 . S
C736 C735 1.378 . S
C736 C737 1.376 . S
C737 H699 0.929 . S
C737 C732 1.397 . S
C737 C736 1.376 . S
C738 C722 1.509 . S
C738 C739 1.391 . S
C738 C743 1.386 . S
C739 H700 0.930 . S
C739 C738 1.391 . S
C739 C740 1.375 . S
C740 H701 0.931 . S
C740 C739 1.375 . S
C740 C741 1.375 . S
C741 C740 1.375 . S
C741 C742 1.361 . S
C742 H702 0.930 . S
C742 C741 1.361 . S
C742 C743 1.399 . S
C743 H703 0.929 . S
C743 C738 1.386 . S
C743 C742 1.399 . S
C744 C723 1.485 . S
C744 C745 1.394 . S
C744 C749 1.360 . S
C745 H704 0.931 . S
C745 C744 1.394 . S
C745 C746 1.372 . S
C746 H705 0.930 . S
C746 C745 1.372 . S
C746 C747 1.397 . S
C747 C746 1.397 . S
C747 C748 1.390 . S
C747 C763 1.476 . S
C748 H706 0.930 . S
C748 C747 1.390 . S
C748 C749 1.366 . S
C749 H707 0.932 . S
C749 C744 1.360 . S
C749 C748 1.366 . S
C750 C724 1.490 . S
C750 C751 1.380 . S
C750 C755 1.386 . S
C751 H708 0.930 . S
C751 C750 1.380 . S
C751 C752 1.381 . S
C752 H709 0.929 . S
C752 C751 1.381 . S
C752 C753 1.371 . S
C753 C752 1.371 . S
C753 C754 1.380 . S
C754 H710 0.931 . S
C754 C753 1.380 . S
C754 C755 1.387 . S
C755 H711 0.930 . S
C755 C750 1.386 . S
C755 C754 1.387 . S
C756 C725 1.519 . S
C756 C757 1.377 . S
C756 C761 1.361 . S
C757 H712 0.929 . S
C757 C756 1.377 . S
C757 C758 1.386 . S
C758 H713 0.931 . S
C758 C757 1.386 . S
C758 C759 1.363 . S
C759 C758 1.363 . S
C759 C760 1.385 . S
C760 H714 0.930 . S
C760 C759 1.385 . S
C760 C761 1.396 . S
C761 H715 0.929 . S
C761 C756 1.361 . S
C761 C760 1.396 . S
C762 O716 1.300 . S
C762 O717 1.209 . S
C762 C735 1.486 . S
C763 O718 1.199 . S
C763 O719 1.297 . S
C763 C747 1.476 . S
C764 C765 1.369 . S
C764 C766 1.419 . S
C764 H768 0.930 . S
C765 C764 1.369 . S
C765 C774 1.429 . S
C766 C764 1.419 . S
C766 C767 1.363 . S
C766 H769 0.929 . S
C767 C766 1.363 . S
C767 C773 1.428 . S
H768 C764 0.930 . S
H769 C766 0.929 . S
S770 N771 1.613 . S
S770 N772 1.610 . S
N771 S770 1.613 . S
N771 C774 1.350 . S
N772 S770 1.610 . S
N772 C773 1.351 . S
C773 C767 1.428 . S
C773 N772 1.351 . S
C773 C774 1.434 . S
C774 C765 1.429 . S
C774 N771 1.350 . S
C774 C773 1.434 . S
C775 C776 1.369 . S
C775 C777 1.419 . S
C775 H779 0.930 . S
C776 C775 1.369 . S
C776 C785 1.429 . S
C777 C775 1.419 . S
C777 C778 1.363 . S
C777 H780 0.929 . S
C778 C777 1.363 . S
C778 C784 1.428 . S
H779 C775 0.930 . S
H780 C777 0.929 . S
S781 N782 1.613 . S
S781 N783 1.610 . S
N782 S781 1.613 . S
N782 C785 1.350 . S
N783 S781 1.610 . S
N783 C784 1.351 . S
C784 C778 1.428 . S
C784 N783 1.351 . S
C784 C785 1.434 . S
C785 C776 1.429 . S
C785 N782 1.350 . S
C785 C784 1.434 . S
C786 C787 1.369 . S
C786 C788 1.419 . S
C786 H790 0.930 . S
C787 C786 1.369 . S
C787 C796 1.429 . S
C788 C786 1.419 . S
C788 C789 1.363 . S
C788 H791 0.929 . S
C789 C788 1.363 . S
C789 C795 1.428 . S
H790 C786 0.930 . S
H791 C788 0.929 . S
S792 N793 1.613 . S
S792 N794 1.610 . S
N793 S792 1.613 . S
N793 C796 1.350 . S
N794 S792 1.610 . S
N794 C795 1.351 . S
C795 C789 1.428 . S
C795 N794 1.351 . S
C795 C796 1.434 . S
C796 C787 1.429 . S
C796 N793 1.350 . S
C796 C795 1.434 . S
C797 C798 1.369 . S
C797 C799 1.419 . S
C797 H801 0.930 . S
C798 C797 1.369 . S
C798 C807 1.429 . S
C799 C797 1.419 . S
C799 C800 1.363 . S
C799 H802 0.929 . S
C800 C799 1.363 . S
C800 C806 1.428 . S
H801 C797 0.930 . S
H802 C799 0.929 . S
S803 N804 1.613 . S
S803 N805 1.610 . S
N804 S803 1.613 . S
N804 C807 1.350 . S
N805 S803 1.610 . S
N805 C806 1.351 . S
C806 C800 1.428 . S
C806 N805 1.351 . S
C806 C807 1.434 . S
C807 C798 1.429 . S
C807 N804 1.350 . S
C807 C806 1.434 . S
C808 C809 1.369 . S
C808 C810 1.419 . S
C808 H812 0.930 . S
C809 C808 1.369 . S
C809 C818 1.429 . S
C810 C808 1.419 . S
C810 C811 1.363 . S
C810 H813 0.929 . S
C811 C810 1.363 . S
C811 C817 1.428 . S
H812 C808 0.930 . S
H813 C810 0.929 . S
S814 N815 1.613 . S
S814 N816 1.610 . S
N815 S814 1.613 . S
N815 C818 1.350 . S
N816 S814 1.610 . S
N816 C817 1.351 . S
C817 C811 1.428 . S
C817 N816 1.351 . S
C817 C818 1.434 . S
C818 C809 1.429 . S
C818 N815 1.350 . S
C818 C817 1.434 . S
C819 C820 1.369 . S
C819 C821 1.419 . S
C819 H823 0.930 . S
C820 C819 1.369 . S
C820 C829 1.429 . S
C821 C819 1.419 . S
C821 C822 1.363 . S
C821 H824 0.929 . S
C822 C821 1.363 . S
C822 C828 1.428 . S
H823 C819 0.930 . S
H824 C821 0.929 . S
S825 N826 1.613 . S
S825 N827 1.610 . S
N826 S825 1.613 . S
N826 C829 1.350 . S
N827 S825 1.610 . S
N827 C828 1.351 . S
C828 C822 1.428 . S
C828 N827 1.351 . S
C828 C829 1.434 . S
C829 C820 1.429 . S
C829 N826 1.350 . S
C829 C828 1.434 . S
C830 C831 1.369 . S
C830 C832 1.419 . S
C830 H834 0.930 . S
C831 C830 1.369 . S
C831 C840 1.429 . S
C832 C830 1.419 . S
C832 C833 1.363 . S
C832 H835 0.929 . S
C833 C832 1.363 . S
C833 C839 1.428 . S
H834 C830 0.930 . S
H835 C832 0.929 . S
S836 N837 1.613 . S
S836 N838 1.610 . S
N837 S836 1.613 . S
N837 C840 1.350 . S
N838 S836 1.610 . S
N838 C839 1.351 . S
C839 C833 1.428 . S
C839 N838 1.351 . S
C839 C840 1.434 . S
C840 C831 1.429 . S
C840 N837 1.350 . S
C840 C839 1.434 . S
C841 C842 1.369 . S
C841 C843 1.419 . S
C841 H845 0.930 . S
C842 C841 1.369 . S
C842 C851 1.429 . S
C843 C841 1.419 . S
C843 C844 1.363 . S
C843 H846 0.929 . S
C844 C843 1.363 . S
C844 C850 1.428 . S
H845 C841 0.930 . S
H846 C843 0.929 . S
S847 N848 1.613 . S
S847 N849 1.610 . S
N848 S847 1.613 . S
N848 C851 1.350 . S
N849 S847 1.610 . S
N849 C850 1.351 . S
C850 C844 1.428 . S
C850 N849 1.351 . S
C850 C851 1.434 . S
C851 C842 1.429 . S
C851 N848 1.350 . S
C851 C850 1.434 . S
C852 C853 1.369 . S
C852 C854 1.419 . S
C852 H856 0.930 . S
C853 C852 1.369 . S
C853 C862 1.429 . S
C854 C852 1.419 . S
C854 C855 1.363 . S
C854 H857 0.929 . S
C855 C854 1.363 . S
C855 C861 1.428 . S
H856 C852 0.930 . S
H857 C854 0.929 . S
S858 N859 1.613 . S
S858 N860 1.610 . S
N859 S858 1.613 . S
N859 C862 1.350 . S
N860 S858 1.610 . S
N860 C861 1.351 . S
C861 C855 1.428 . S
C861 N860 1.351 . S
C861 C862 1.434 . S
C862 C853 1.429 . S
C862 N859 1.350 . S
C862 C861 1.434 . S
C863 C864 1.369 . S
C863 C865 1.419 . S
C863 H867 0.930 . S
C864 C863 1.369 . S
C864 C873 1.429 . S
C865 C863 1.419 . S
C865 C866 1.363 . S
C865 H868 0.929 . S
C866 C865 1.363 . S
C866 C872 1.428 . S
H867 C863 0.930 . S
H868 C865 0.929 . S
S869 N870 1.613 . S
S869 N871 1.610 . S
N870 S869 1.613 . S
N870 C873 1.350 . S
N871 S869 1.610 . S
N871 C872 1.351 . S
C872 C866 1.428 . S
C872 N871 1.351 . S
C872 C873 1.434 . S
C873 C864 1.429 . S
C873 N870 1.350 . S
C873 C872 1.434 . S
C874 C875 1.369 . S
C874 C876 1.419 . S
C874 H878 0.930 . S
C875 C874 1.369 . S
C875 C884 1.429 . S
C876 C874 1.419 . S
C876 C877 1.363 . S
C876 H879 0.929 . S
C877 C876 1.363 . S
C877 C883 1.428 . S
H878 C874 0.930 . S
H879 C876 0.929 . S
S880 N881 1.613 . S
S880 N882 1.610 . S
N881 S880 1.613 . S
N881 C884 1.350 . S
N882 S880 1.610 . S
N882 C883 1.351 . S
C883 C877 1.428 . S
C883 N882 1.351 . S
C883 C884 1.434 . S
C884 C875 1.429 . S
C884 N881 1.350 . S
C884 C883 1.434 . S
C885 C886 1.369 . S
C885 C887 1.419 . S
C885 H889 0.930 . S
C886 C885 1.369 . S
C886 C895 1.429 . S
C887 C885 1.419 . S
C887 C888 1.363 . S
C887 H890 0.929 . S
C888 C887 1.363 . S
C888 C894 1.428 . S
H889 C885 0.930 . S
H890 C887 0.929 . S
S891 N892 1.613 . S
S891 N893 1.610 . S
N892 S891 1.613 . S
N892 C895 1.350 . S
N893 S891 1.610 . S
N893 C894 1.351 . S
C894 C888 1.428 . S
C894 N893 1.351 . S
C894 C895 1.434 . S
C895 C886 1.429 . S
C895 N892 1.350 . S
C895 C894 1.434 . S
C896 C897 1.369 . S
C896 C898 1.419 . S
C896 H900 0.930 . S
C897 C896 1.369 . S
C897 C906 1.429 . S
C898 C896 1.419 . S
C898 C899 1.363 . S
C898 H901 0.929 . S
C899 C898 1.363 . S
C899 C905 1.428 . S
H900 C896 0.930 . S
H901 C898 0.929 . S
S902 N903 1.613 . S
S902 N904 1.610 . S
N903 S902 1.613 . S
N903 C906 1.350 . S
N904 S902 1.610 . S
N904 C905 1.351 . S
C905 C899 1.428 . S
C905 N904 1.351 . S
C905 C906 1.434 . S
C906 C897 1.429 . S
C906 N903 1.350 . S
C906 C905 1.434 . S
C907 C908 1.369 . S
C907 C909 1.419 . S
C907 H911 0.930 . S
C908 C907 1.369 . S
C908 C917 1.429 . S
C909 C907 1.419 . S
C909 C910 1.363 . S
C909 H912 0.929 . S
C910 C909 1.363 . S
C910 C916 1.428 . S
H911 C907 0.930 . S
H912 C909 0.929 . S
S913 N914 1.613 . S
S913 N915 1.610 . S
N914 S913 1.613 . S
N914 C917 1.350 . S
N915 S913 1.610 . S
N915 C916 1.351 . S
C916 C910 1.428 . S
C916 N915 1.351 . S
C916 C917 1.434 . S
C917 C908 1.429 . S
C917 N914 1.350 . S
C917 C916 1.434 . S
C918 C919 1.369 . S
C918 C920 1.419 . S
C918 H922 0.930 . S
C919 C918 1.369 . S
C919 C928 1.429 . S
C920 C918 1.419 . S
C920 C921 1.363 . S
C920 H923 0.929 . S
C921 C920 1.363 . S
C921 C927 1.428 . S
H922 C918 0.930 . S
H923 C920 0.929 . S
S924 N925 1.613 . S
S924 N926 1.610 . S
N925 S924 1.613 . S
N925 C928 1.350 . S
N926 S924 1.610 . S
N926 C927 1.351 . S
C927 C921 1.428 . S
C927 N926 1.351 . S
C927 C928 1.434 . S
C928 C919 1.429 . S
C928 N925 1.350 . S
C928 C927 1.434 . S
C929 C930 1.369 . S
C929 C931 1.419 . S
C929 H933 0.930 . S
C930 C929 1.369 . S
C930 C939 1.429 . S
C931 C929 1.419 . S
C931 C932 1.363 . S
C931 H934 0.929 . S
C932 C931 1.363 . S
C932 C938 1.428 . S
H933 C929 0.930 . S
H934 C931 0.929 . S
S935 N936 1.613 . S
S935 N937 1.610 . S
N936 S935 1.613 . S
N936 C939 1.350 . S
N937 S935 1.610 . S
N937 C938 1.351 . S
C938 C932 1.428 . S
C938 N937 1.351 . S
C938 C939 1.434 . S
C939 C930 1.429 . S
C939 N936 1.350 . S
C939 C938 1.434 . S
C940 C941 1.369 . S
C940 C942 1.419 . S
C940 H944 0.930 . S
C941 C940 1.369 . S
C941 C950 1.429 . S
C942 C940 1.419 . S
C942 C943 1.363 . S
C942 H945 0.929 . S
C943 C942 1.363 . S
C943 C949 1.428 . S
H944 C940 0.930 . S
H945 C942 0.929 . S
S946 N947 1.613 . S
S946 N948 1.610 . S
N947 S946 1.613 . S
N947 C950 1.350 . S
N948 S946 1.610 . S
N948 C949 1.351 . S
C949 C943 1.428 . S
C949 N948 1.351 . S
C949 C950 1.434 . S
C950 C941 1.429 . S
C950 N947 1.350 . S
C950 C949 1.434 . S
C951 C952 1.369 . S
C951 C953 1.419 . S
C951 H955 0.930 . S
C952 C951 1.369 . S
C952 C961 1.429 . S
C953 C951 1.419 . S
C953 C954 1.363 . S
C953 H956 0.929 . S
C954 C953 1.363 . S
C954 C960 1.428 . S
H955 C951 0.930 . S
H956 C953 0.929 . S
S957 N958 1.613 . S
S957 N959 1.610 . S
N958 S957 1.613 . S
N958 C961 1.350 . S
N959 S957 1.610 . S
N959 C960 1.351 . S
C960 C954 1.428 . S
C960 N959 1.351 . S
C960 C961 1.434 . S
C961 C952 1.429 . S
C961 N958 1.350 . S
C961 C960 1.434 . S
C962 C963 1.369 . S
C962 C964 1.419 . S
C962 H966 0.930 . S
C963 C962 1.369 . S
C963 C972 1.429 . S
C964 C962 1.419 . S
C964 C965 1.363 . S
C964 H967 0.929 . S
C965 C964 1.363 . S
C965 C971 1.428 . S
H966 C962 0.930 . S
H967 C964 0.929 . S
S968 N969 1.613 . S
S968 N970 1.610 . S
N969 S968 1.613 . S
N969 C972 1.350 . S
N970 S968 1.610 . S
N970 C971 1.351 . S
C971 C965 1.428 . S
C971 N970 1.351 . S
C971 C972 1.434 . S
C972 C963 1.429 . S
C972 N969 1.350 . S
C972 C971 1.434 . S
C973 C974 1.369 . S
C973 C975 1.419 . S
C973 H977 0.930 . S
C974 C973 1.369 . S
C974 C983 1.429 . S
C975 C973 1.419 . S
C975 C976 1.363 . S
C975 H978 0.929 . S
C976 C975 1.363 . S
C976 C982 1.428 . S
H977 C973 0.930 . S
H978 C975 0.929 . S
S979 N980 1.613 . S
S979 N981 1.610 . S
N980 S979 1.613 . S
N980 C983 1.350 . S
N981 S979 1.610 . S
N981 C982 1.351 . S
C982 C976 1.428 . S
C982 N981 1.351 . S
C982 C983 1.434 . S
C983 C974 1.429 . S
C983 N980 1.350 . S
C983 C982 1.434 . S
C984 C985 1.369 . S
C984 C986 1.419 . S
C984 H988 0.930 . S
C985 C984 1.369 . S
C985 C994 1.429 . S
C986 C984 1.419 . S
C986 C987 1.363 . S
C986 H989 0.929 . S
C987 C986 1.363 . S
C987 C993 1.428 . S
H988 C984 0.930 . S
H989 C986 0.929 . S
S990 N991 1.613 . S
S990 N992 1.610 . S
N991 S990 1.613 . S
N991 C994 1.350 . S
N992 S990 1.610 . S
N992 C993 1.351 . S
C993 C987 1.428 . S
C993 N992 1.351 . S
C993 C994 1.434 . S
C994 C985 1.429 . S
C994 N991 1.350 . S
C994 C993 1.434 . S
C995 C996 1.369 . S
C995 C997 1.419 . S
C995 H999 0.930 . S
C996 C995 1.369 . S
C996 C1005 1.429 . S
C997 C995 1.419 . S
C997 C998 1.363 . S
C997 H1000 0.929 . S
C998 C997 1.363 . S
C998 C1004 1.428 . S
H999 C995 0.930 . S
H1000 C997 0.929 . S
S1001 N1002 1.613 . S
S1001 N1003 1.610 . S
N1002 S1001 1.613 . S
N1002 C1005 1.350 . S
N1003 S1001 1.610 . S
N1003 C1004 1.351 . S
C1004 C998 1.428 . S
C1004 N1003 1.351 . S
C1004 C1005 1.434 . S
C1005 C996 1.429 . S
C1005 N1002 1.350 . S
C1005 C1004 1.434 . S
C1006 C1007 1.369 . S
C1006 C1008 1.419 . S
C1006 H1010 0.930 . S
C1007 C1006 1.369 . S
C1007 C1016 1.429 . S
C1008 C1006 1.419 . S
C1008 C1009 1.363 . S
C1008 H1011 0.929 . S
C1009 C1008 1.363 . S
C1009 C1015 1.428 . S
H1010 C1006 0.930 . S
H1011 C1008 0.929 . S
S1012 N1013 1.613 . S
S1012 N1014 1.610 . S
N1013 S1012 1.613 . S
N1013 C1016 1.350 . S
N1014 S1012 1.610 . S
N1014 C1015 1.351 . S
C1015 C1009 1.428 . S
C1015 N1014 1.351 . S
C1015 C1016 1.434 . S
C1016 C1007 1.429 . S
C1016 N1013 1.350 . S
C1016 C1015 1.434 . S
C1017 C1018 1.369 . S
C1017 C1019 1.419 . S
C1017 H1021 0.930 . S
C1018 C1017 1.369 . S
C1018 C1027 1.429 . S
C1019 C1017 1.419 . S
C1019 C1020 1.363 . S
C1019 H1022 0.929 . S
C1020 C1019 1.363 . S
C1020 C1026 1.428 . S
H1021 C1017 0.930 . S
H1022 C1019 0.929 . S
S1023 N1024 1.613 . S
S1023 N1025 1.610 . S
N1024 S1023 1.613 . S
N1024 C1027 1.350 . S
N1025 S1023 1.610 . S
N1025 C1026 1.351 . S
C1026 C1020 1.428 . S
C1026 N1025 1.351 . S
C1026 C1027 1.434 . S
C1027 C1018 1.429 . S
C1027 N1024 1.350 . S
C1027 C1026 1.434 . S
C767 C359 1.512 . S
C765 C15 1.551 . S
C778 C463 2.020 . S
C776 C55 2.048 . S
C789 C383 1.485 . S
C787 C101 1.549 . S
C800 C445 1.728 . S
C798 C141 1.596 . S
C811 C519 1.411 . S
C809 C2 1.407 . S
C822 C581 1.729 . S
C820 C61 1.792 . S
C831 C95 1.107 . S
C833 C655 1.078 . S
C844 C741 1.323 . S
C842 C135 1.292 . S
C855 C537 2.341 . S
C853 C42 2.375 . S
C864 C82 1.774 . S
C866 C605 1.719 . S
C877 C679 1.344 . S
C875 C122 1.252 . S
C888 C759 1.700 . S
C886 C21 1.657 . S
C897 C162 1.714 . S
C899 C457 1.604 . S
C910 C371 2.077 . S
C908 C221 2.212 . S
C919 C255 1.443 . S
C921 C433 1.328 . S
C930 C282 2.365 . S
C932 C389 2.374 . S
C943 C685 1.764 . S
C941 C181 1.839 . S
C954 C753 1.512 . S
C952 C202 1.490 . S
C965 C531 1.926 . S
C963 C242 2.112 . S
C974 C301 2.344 . S
C976 C611 2.425 . S
C987 C667 1.849 . S
C985 C215 1.854 . S
C998 C729 1.312 . S
C996 C261 1.405 . S
C1009 C507 1.924 . S
C1007 C295 2.018 . S
C1018 C175 1.428 . S
C1020 C593 1.433 . S
