# Generated by pormake.
# Topology ctn, (3,4)-cn, num edge types: 1
# Building blocks:
#     Node 0, Type 0, BuildingBlock: BELTOD_clean_linker_0, # of connection points: 3
#     Node 1, Type 0, BuildingBlock: BELTOD_clean_linker_0, # of connection points: 3
#     Node 2, Type 0, BuildingBlock: BELTOD_clean_linker_0, # of connection points: 3
#     Node 3, Type 0, BuildingBlock: BELTOD_clean_linker_0, # of connection points: 3
#     Node 4, Type 0, BuildingBlock: BELTOD_clean_linker_0, # of connection points: 3
#     Node 5, Type 0, BuildingBlock: BELTOD_clean_linker_0, # of connection points: 3
#     Node 6, Type 0, BuildingBlock: BELTOD_clean_linker_0, # of connection points: 3
#     Node 7, Type 0, BuildingBlock: BELTOD_clean_linker_0, # of connection points: 3
#     Node 8, Type 0, BuildingBlock: BELTOD_clean_linker_0, # of connection points: 3
#     Node 9, Type 0, BuildingBlock: BELTOD_clean_linker_0, # of connection points: 3
#     Node 10, Type 0, BuildingBlock: BELTOD_clean_linker_0, # of connection points: 3
#     Node 11, Type 0, BuildingBlock: BELTOD_clean_linker_0, # of connection points: 3
#     Node 12, Type 0, BuildingBlock: BELTOD_clean_linker_0, # of connection points: 3
#     Node 13, Type 0, BuildingBlock: BELTOD_clean_linker_0, # of connection points: 3
#     Node 14, Type 0, BuildingBlock: BELTOD_clean_linker_0, # of connection points: 3
#     Node 15, Type 0, BuildingBlock: BELTOD_clean_linker_0, # of connection points: 3
#     Node 16, Type 1, BuildingBlock: TATPOV_clean_sbu_0, # of connection points: 4
#     Node 17, Type 1, BuildingBlock: TATPOV_clean_sbu_0, # of connection points: 4
#     Node 18, Type 1, BuildingBlock: TATPOV_clean_sbu_0, # of connection points: 4
#     Node 19, Type 1, BuildingBlock: TATPOV_clean_sbu_0, # of connection points: 4
#     Node 20, Type 1, BuildingBlock: TATPOV_clean_sbu_0, # of connection points: 4
#     Node 21, Type 1, BuildingBlock: TATPOV_clean_sbu_0, # of connection points: 4
#     Node 22, Type 1, BuildingBlock: TATPOV_clean_sbu_0, # of connection points: 4
#     Node 23, Type 1, BuildingBlock: TATPOV_clean_sbu_0, # of connection points: 4
#     Node 24, Type 1, BuildingBlock: TATPOV_clean_sbu_0, # of connection points: 4
#     Node 25, Type 1, BuildingBlock: TATPOV_clean_sbu_0, # of connection points: 4
#     Node 26, Type 1, BuildingBlock: TATPOV_clean_sbu_0, # of connection points: 4
#     Node 27, Type 1, BuildingBlock: TATPOV_clean_sbu_0, # of connection points: 4
#     Edge 28, Type (0, 1), BuildingBlock: XUDNAN_clean_linker_2, # of connection points: 2
#     Edge 29, Type (0, 1), BuildingBlock: XUDNAN_clean_linker_2, # of connection points: 2
#     Edge 30, Type (0, 1), BuildingBlock: XUDNAN_clean_linker_2, # of connection points: 2
#     Edge 31, Type (0, 1), BuildingBlock: XUDNAN_clean_linker_2, # of connection points: 2
#     Edge 32, Type (0, 1), BuildingBlock: XUDNAN_clean_linker_2, # of connection points: 2
#     Edge 33, Type (0, 1), BuildingBlock: XUDNAN_clean_linker_2, # of connection points: 2
#     Edge 34, Type (0, 1), BuildingBlock: XUDNAN_clean_linker_2, # of connection points: 2
#     Edge 35, Type (0, 1), BuildingBlock: XUDNAN_clean_linker_2, # of connection points: 2
#     Edge 36, Type (0, 1), BuildingBlock: XUDNAN_clean_linker_2, # of connection points: 2
#     Edge 37, Type (0, 1), BuildingBlock: XUDNAN_clean_linker_2, # of connection points: 2
#     Edge 38, Type (0, 1), BuildingBlock: XUDNAN_clean_linker_2, # of connection points: 2
#     Edge 39, Type (0, 1), BuildingBlock: XUDNAN_clean_linker_2, # of connection points: 2
#     Edge 40, Type (0, 1), BuildingBlock: XUDNAN_clean_linker_2, # of connection points: 2
#     Edge 41, Type (0, 1), BuildingBlock: XUDNAN_clean_linker_2, # of connection points: 2
#     Edge 42, Type (0, 1), BuildingBlock: XUDNAN_clean_linker_2, # of connection points: 2
#     Edge 43, Type (0, 1), BuildingBlock: XUDNAN_clean_linker_2, # of connection points: 2
#     Edge 44, Type (0, 1), BuildingBlock: XUDNAN_clean_linker_2, # of connection points: 2
#     Edge 45, Type (0, 1), BuildingBlock: XUDNAN_clean_linker_2, # of connection points: 2
#     Edge 46, Type (0, 1), BuildingBlock: XUDNAN_clean_linker_2, # of connection points: 2
#     Edge 47, Type (0, 1), BuildingBlock: XUDNAN_clean_linker_2, # of connection points: 2
#     Edge 48, Type (0, 1), BuildingBlock: XUDNAN_clean_linker_2, # of connection points: 2
#     Edge 49, Type (0, 1), BuildingBlock: XUDNAN_clean_linker_2, # of connection points: 2
#     Edge 50, Type (0, 1), BuildingBlock: XUDNAN_clean_linker_2, # of connection points: 2
#     Edge 51, Type (0, 1), BuildingBlock: XUDNAN_clean_linker_2, # of connection points: 2
#     Edge 52, Type (0, 1), BuildingBlock: XUDNAN_clean_linker_2, # of connection points: 2
#     Edge 53, Type (0, 1), BuildingBlock: XUDNAN_clean_linker_2, # of connection points: 2
#     Edge 54, Type (0, 1), BuildingBlock: XUDNAN_clean_linker_2, # of connection points: 2
#     Edge 55, Type (0, 1), BuildingBlock: XUDNAN_clean_linker_2, # of connection points: 2
#     Edge 56, Type (0, 1), BuildingBlock: XUDNAN_clean_linker_2, # of connection points: 2
#     Edge 57, Type (0, 1), BuildingBlock: XUDNAN_clean_linker_2, # of connection points: 2
#     Edge 58, Type (0, 1), BuildingBlock: XUDNAN_clean_linker_2, # of connection points: 2
#     Edge 59, Type (0, 1), BuildingBlock: XUDNAN_clean_linker_2, # of connection points: 2
#     Edge 60, Type (0, 1), BuildingBlock: XUDNAN_clean_linker_2, # of connection points: 2
#     Edge 61, Type (0, 1), BuildingBlock: XUDNAN_clean_linker_2, # of connection points: 2
#     Edge 62, Type (0, 1), BuildingBlock: XUDNAN_clean_linker_2, # of connection points: 2
#     Edge 63, Type (0, 1), BuildingBlock: XUDNAN_clean_linker_2, # of connection points: 2
#     Edge 64, Type (0, 1), BuildingBlock: XUDNAN_clean_linker_2, # of connection points: 2
#     Edge 65, Type (0, 1), BuildingBlock: XUDNAN_clean_linker_2, # of connection points: 2
#     Edge 66, Type (0, 1), BuildingBlock: XUDNAN_clean_linker_2, # of connection points: 2
#     Edge 67, Type (0, 1), BuildingBlock: XUDNAN_clean_linker_2, # of connection points: 2
#     Edge 68, Type (0, 1), BuildingBlock: XUDNAN_clean_linker_2, # of connection points: 2
#     Edge 69, Type (0, 1), BuildingBlock: XUDNAN_clean_linker_2, # of connection points: 2
#     Edge 70, Type (0, 1), BuildingBlock: XUDNAN_clean_linker_2, # of connection points: 2
#     Edge 71, Type (0, 1), BuildingBlock: XUDNAN_clean_linker_2, # of connection points: 2
#     Edge 72, Type (0, 1), BuildingBlock: XUDNAN_clean_linker_2, # of connection points: 2
#     Edge 73, Type (0, 1), BuildingBlock: XUDNAN_clean_linker_2, # of connection points: 2
#     Edge 74, Type (0, 1), BuildingBlock: XUDNAN_clean_linker_2, # of connection points: 2
#     Edge 75, Type (0, 1), BuildingBlock: XUDNAN_clean_linker_2, # of connection points: 2
# Relax obj value: 0.003
# Max RMSD: 0.051
# Mean RMSD: 0.025
data_MOF--net-ctn--node1-TATPOV_clean_sbu_0--node2-BELTOD_clean_linker_0--edge1-XUDNAN_clean_linker_2
_symmetry_space_group_name_H-M    P1
_symmetry_Int_Tables_number       1
_symmetry_cell_setting            triclinic
loop_
_symmetry_equiv_pos_as_xyz
'x, y, z'
_cell_length_a     61.950587
_cell_length_b     62.413732
_cell_length_c     61.824833
_cell_angle_alpha  90.332981
_cell_angle_beta   91.178023
_cell_angle_gamma 91.859851
loop_
_atom_site_label
_atom_site_type_symbol
_atom_site_fract_x
_atom_site_fract_y
_atom_site_fract_z
_atom_type_partial_charge
P0 P 0.04954 0.05284 0.0655 0.0
H1 H 0.04816 0.04686 0.11231 0.0
H2 H 0.01872 0.03893 0.13695 0.0
H3 H 0.974 0.03334 0.08247 0.0
H4 H 0.00361 0.04166 0.05791 0.0
H5 H 0.0757 0.04739 0.02711 0.0
H6 H 0.09576 0.01726 0.01335 0.0
H7 H 0.07269 0.97803 0.06587 0.0
H8 H 0.05225 0.00809 0.07932 0.0
H9 H 0.04187 0.09834 0.06795 0.0
H10 H 0.03357 0.04799 0.02016 0.0
O11 O 0.06886 0.06585 0.08004 0.0
H12 H 0.02791 0.12417 0.04207 0.0
H13 H 0.01999 0.07398 0.99393 0.0
C14 C 0.02797 0.04527 0.08333 0.0
C15 C 0.03203 0.0439 0.10565 0.0
C16 C 0.01518 0.03918 0.11973 0.0
C17 C 0.99394 0.03563 0.11172 0.0
C18 C 0.99009 0.03635 0.08921 0.0
C19 C 0.007 0.04102 0.07514 0.0
C20 C 0.06181 0.0298 0.05378 0.0
C21 C 0.0744 0.03213 0.0353 0.0
C22 C 0.08596 0.01493 0.02751 0.0
C23 C 0.08567 0.99526 0.03847 0.0
C24 C 0.07318 0.993 0.05709 0.0
C25 C 0.06134 0.01013 0.06467 0.0
C26 C 0.03938 0.0714 0.04579 0.0
C27 C 0.03723 0.09288 0.0518 0.0
C28 C 0.02912 0.1076 0.03705 0.0
C29 C 0.023 0.10111 0.01594 0.0
C30 C 0.02488 0.07947 0.01 0.0
C31 C 0.03271 0.06465 0.02494 0.0
P32 P 0.28618 0.68828 0.20306 0.0
H33 H 0.30762 0.72845 0.19038 0.0
H34 H 0.29552 0.75857 0.16879 0.0
H35 H 0.23101 0.73006 0.1657 0.0
H36 H 0.24306 0.70042 0.18792 0.0
H37 H 0.32258 0.66306 0.21664 0.0
H38 H 0.35098 0.66842 0.2443 0.0
H39 H 0.32428 0.72911 0.26173 0.0
H40 H 0.29598 0.72368 0.23378 0.0
H41 H 0.2565 0.65458 0.18646 0.0
H42 H 0.26905 0.68782 0.24701 0.0
O43 O 0.2961 0.67383 0.18299 0.0
H44 H 0.22966 0.63123 0.20385 0.0
H45 H 0.24225 0.66449 0.26452 0.0
C46 C 0.27618 0.71239 0.19116 0.0
C47 C 0.29072 0.72903 0.18565 0.0
C48 C 0.28381 0.74613 0.17308 0.0
C49 C 0.2623 0.7467 0.16537 0.0
C50 C 0.24759 0.73034 0.1716 0.0
C51 C 0.25451 0.71329 0.1843 0.0
C52 C 0.30759 0.69326 0.22276 0.0
C53 C 0.32299 0.67764 0.22625 0.0
C54 C 0.33906 0.6806 0.24225 0.0
C55 C 0.33992 0.69921 0.2552 0.0
C56 C 0.32425 0.71476 0.2518 0.0
C57 C 0.30812 0.71172 0.23581 0.0
C58 C 0.2651 0.67257 0.21557 0.0
C59 C 0.2534 0.65691 0.20348 0.0
C60 C 0.23797 0.64368 0.2134 0.0
C61 C 0.23402 0.64592 0.23559 0.0
C62 C 0.24522 0.66219 0.24747 0.0
C63 C 0.26052 0.67554 0.23747 0.0
P64 P 0.00703 0.49092 0.0216 0.0
H65 H 0.00903 0.47392 0.97801 0.0
H66 H 0.00471 0.43803 0.96278 0.0
H67 H 0.99434 0.41269 0.02691 0.0
H68 H 0.99686 0.44908 0.04164 0.0
H69 H 0.98665 0.51925 0.99032 0.0
H70 H 0.95152 0.53601 0.98916 0.0
H71 H 0.93435 0.504 0.04846 0.0
H72 H 0.96961 0.48725 0.0495 0.0
H73 H 0.03532 0.46343 0.04767 0.0
H74 H 0.00378 0.52359 0.05501 0.0
O75 O 0.02391 0.50503 0.00605 0.0
H76 H 0.0494 0.46652 0.08491 0.0
H77 H 0.01824 0.52697 0.09196 0.0
C78 C 0.00425 0.46403 0.01106 0.0
C79 C 0.00595 0.4606 0.98879 0.0
C80 C 0.00362 0.43995 0.98013 0.0
C81 C 0.99976 0.42217 0.99362 0.0
C82 C 0.99733 0.42585 0.01594 0.0
C83 C 0.99914 0.44666 0.0245 0.0
C84 C 0.98084 0.50242 0.02025 0.0
C85 C 0.97533 0.51584 0.00307 0.0
C86 C 0.95521 0.5253 0.00236 0.0
C87 C 0.94028 0.52144 0.01883 0.0
C88 C 0.94568 0.50753 0.03575 0.0
C89 C 0.96575 0.49792 0.03633 0.0
C90 C 0.01762 0.49277 0.04891 0.0
C91 C 0.03108 0.47708 0.05737 0.0
C92 C 0.03923 0.47892 0.07858 0.0
C93 C 0.03468 0.49686 0.09133 0.0
C94 C 0.02192 0.51294 0.08249 0.0
C95 C 0.01352 0.51092 0.06145 0.0
P96 P 0.70296 0.80435 0.18542 0.0
H97 H 0.7086 0.85043 0.19292 0.0
H98 H 0.73781 0.87257 0.20929 0.0
H99 H 0.77501 0.81605 0.21974 0.0
H100 H 0.74556 0.79389 0.20328 0.0
H101 H 0.71296 0.80594 0.13969 0.0
H102 H 0.72554 0.77924 0.11421 0.0
H103 H 0.72766 0.73266 0.1656 0.0
H104 H 0.71531 0.75963 0.19108 0.0
H105 H 0.7093 0.79894 0.2327 0.0
H106 H 0.66119 0.78208 0.18357 0.0
O107 O 0.68679 0.82021 0.17127 0.0
H108 H 0.68556 0.78442 0.26053 0.0
H109 H 0.63743 0.76741 0.21131 0.0
C110 C 0.72505 0.82056 0.19664 0.0
C111 C 0.72313 0.84279 0.19849 0.0
C112 C 0.73989 0.85546 0.20777 0.0
C113 C 0.75879 0.84607 0.21565 0.0
C114 C 0.76063 0.82372 0.21384 0.0
C115 C 0.74388 0.81107 0.20436 0.0
C116 C 0.7128 0.78461 0.16712 0.0
C117 C 0.71608 0.78996 0.14545 0.0
C118 C 0.72319 0.77466 0.13088 0.0
C119 C 0.72738 0.75375 0.13782 0.0
C120 C 0.72465 0.74864 0.15976 0.0
C121 C 0.71746 0.76398 0.17431 0.0
C122 C 0.68685 0.79187 0.20607 0.0
C123 C 0.69375 0.79194 0.22783 0.0
C124 C 0.68021 0.7835 0.24375 0.0
C125 C 0.65955 0.77495 0.23813 0.0
C126 C 0.65312 0.77418 0.21618 0.0
C127 C 0.66669 0.78251 0.20032 0.0
P128 P 0.09302 0.9491 0.41671 0.0
H129 H 0.12206 0.95129 0.45478 0.0
H130 H 0.14668 0.97941 0.46927 0.0
H131 H 0.12977 0.02033 0.41589 0.0
H132 H 0.10468 0.99227 0.40164 0.0
H133 H 0.0899 0.90227 0.4205 0.0
H134 H 0.07827 0.87848 0.44978 0.0
H135 H 0.06423 0.93357 0.48894 0.0
H136 H 0.07671 0.95729 0.4601 0.0
H137 H 0.0823 0.95624 0.37093 0.0
H138 H 0.05392 0.96876 0.43266 0.0
O139 O 0.10672 0.935 0.39887 0.0
H140 H 0.05214 0.97351 0.35265 0.0
H141 H 0.02357 0.98515 0.41466 0.0
C142 C 0.11094 0.96995 0.42753 0.0
C143 C 0.12326 0.96643 0.44638 0.0
C144 C 0.13738 0.98249 0.45464 0.0
C145 C 0.13989 0.0021 0.44382 0.0
C146 C 0.12803 0.00537 0.42457 0.0
C147 C 0.11363 0.9894 0.41651 0.0
C148 C 0.08402 0.93156 0.43804 0.0
C149 C 0.0844 0.90925 0.43539 0.0
C150 C 0.07782 0.89568 0.45211 0.0
C151 C 0.07035 0.90426 0.47152 0.0
C152 C 0.06976 0.92659 0.47404 0.0
C153 C 0.07675 0.94013 0.45751 0.0
C154 C 0.07021 0.96077 0.40318 0.0
C155 C 0.06946 0.96241 0.38056 0.0
C156 C 0.05218 0.97227 0.37011 0.0
C157 C 0.0354 0.98078 0.38216 0.0
C158 C 0.03633 0.97911 0.40484 0.0
C159 C 0.05363 0.9694 0.41521 0.0
P160 P 0.21359 0.73204 0.7514 0.0
H161 H 0.23889 0.72615 0.79095 0.0
H162 H 0.23447 0.73749 0.82834 0.0
H163 H 0.17724 0.77105 0.80969 0.0
H164 H 0.18137 0.75915 0.7721 0.0
H165 H 0.2509 0.71307 0.7306 0.0
H166 H 0.26889 0.67914 0.73625 0.0
H167 H 0.21876 0.65916 0.78012 0.0
H168 H 0.20148 0.69335 0.77507 0.0
H169 H 0.19117 0.76559 0.72837 0.0
H170 H 0.18057 0.69812 0.74061 0.0
O171 O 0.23116 0.74894 0.73974 0.0
H172 H 0.15768 0.76573 0.70668 0.0
H173 H 0.14714 0.69822 0.71921 0.0
C174 C 0.21008 0.74118 0.7788 0.0
C175 C 0.22519 0.73569 0.79484 0.0
C176 C 0.22269 0.74221 0.81622 0.0
C177 C 0.20533 0.75485 0.8219 0.0
C178 C 0.19067 0.76118 0.8057 0.0
C179 C 0.19299 0.7543 0.78426 0.0
C180 C 0.22493 0.70577 0.75253 0.0
C181 C 0.24368 0.70127 0.74126 0.0
C182 C 0.2539 0.6818 0.74442 0.0
C183 C 0.24545 0.66652 0.75888 0.0
C184 C 0.22601 0.67074 0.76925 0.0
C185 C 0.21595 0.6902 0.7662 0.0
C186 C 0.1886 0.73181 0.73588 0.0
C187 C 0.18165 0.75081 0.72642 0.0
C188 C 0.16242 0.75092 0.71417 0.0
C189 C 0.14982 0.73195 0.71114 0.0
C190 C 0.15666 0.71302 0.72099 0.0
C191 C 0.17581 0.71298 0.73333 0.0
P192 P 0.962 0.53896 0.51599 0.0
H193 H 0.96287 0.56738 0.4782 0.0
H194 H 0.98064 0.56496 0.44331 0.0
H195 H 0.0067 0.5043 0.46212 0.0
H196 H 0.98896 0.50687 0.497 0.0
H197 H 0.98998 0.57736 0.51811 0.0
H198 H 0.98387 0.61451 0.52879 0.0
H199 H 0.91749 0.59727 0.54256 0.0
H200 H 0.92364 0.56036 0.53195 0.0
H201 H 0.94512 0.50197 0.54002 0.0
H202 H 0.92421 0.54178 0.48731 0.0
O203 O 0.97809 0.52854 0.5349 0.0
H204 H 0.91111 0.48112 0.53738 0.0
H205 H 0.89 0.52091 0.48457 0.0
C206 C 0.97514 0.53758 0.49039 0.0
C207 C 0.97261 0.55369 0.47491 0.0
C208 C 0.98273 0.55228 0.45497 0.0
C209 C 0.99517 0.53451 0.45005 0.0
C210 C 0.99714 0.51813 0.46541 0.0
C211 C 0.98718 0.51967 0.4854 0.0
C212 C 0.95717 0.56621 0.52372 0.0
C213 C 0.9741 0.58164 0.52334 0.0
C214 C 0.97062 0.6028 0.52957 0.0
C215 C 0.95014 0.60881 0.53635 0.0
C216 C 0.93332 0.59319 0.53702 0.0
C217 C 0.93685 0.57205 0.53092 0.0
C218 C 0.93716 0.52334 0.5138 0.0
C219 C 0.93324 0.50618 0.52782 0.0
C220 C 0.91381 0.49425 0.52627 0.0
C221 C 0.89792 0.4994 0.51076 0.0
C222 C 0.90187 0.51671 0.49679 0.0
C223 C 0.92142 0.52852 0.49824 0.0
P224 P 0.84725 0.8407 0.84419 0.0
H225 H 0.89237 0.84055 0.83019 0.0
H226 H 0.90834 0.83855 0.79426 0.0
H227 H 0.8445 0.83042 0.76537 0.0
H228 H 0.82872 0.83259 0.8011 0.0
H229 H 0.80667 0.84519 0.86725 0.0
H230 H 0.77607 0.8684 0.86166 0.0
H231 H 0.81002 0.90062 0.81014 0.0
H232 H 0.84071 0.87776 0.81621 0.0
H233 H 0.86113 0.81138 0.87837 0.0
H234 H 0.81027 0.81379 0.82985 0.0
O235 O 0.86556 0.85073 0.86199 0.0
H236 H 0.84647 0.77675 0.89067 0.0
H237 H 0.79538 0.77943 0.84217 0.0
C238 C 0.85935 0.83706 0.81825 0.0
C239 C 0.88185 0.83818 0.81612 0.0
C240 C 0.89096 0.83693 0.79562 0.0
C241 C 0.87764 0.83462 0.77701 0.0
C242 C 0.85515 0.83259 0.77939 0.0
C243 C 0.84611 0.83369 0.79982 0.0
C244 C 0.82564 0.85921 0.8416 0.0
C245 C 0.80753 0.85726 0.85476 0.0
C246 C 0.79001 0.8705 0.85151 0.0
C247 C 0.79043 0.88613 0.8352 0.0
C248 C 0.80914 0.88879 0.82286 0.0
C249 C 0.82665 0.87556 0.82617 0.0
C250 C 0.83673 0.81516 0.85325 0.0
C251 C 0.84678 0.8045 0.87041 0.0
C252 C 0.83831 0.78477 0.87751 0.0
C253 C 0.81973 0.77536 0.86742 0.0
C254 C 0.80985 0.7861 0.85012 0.0
C255 C 0.81832 0.80578 0.84307 0.0
P256 P 0.3232 0.35144 0.3358 0.0
H257 H 0.3479 0.36909 0.29994 0.0
H258 H 0.36735 0.35223 0.27046 0.0
H259 H 0.3451 0.28986 0.29207 0.0
H260 H 0.32515 0.3067 0.32097 0.0
H261 H 0.30001 0.38949 0.34791 0.0
H262 H 0.26364 0.4013 0.33942 0.0
H263 H 0.2525 0.34577 0.29806 0.0
H264 H 0.28881 0.33385 0.30708 0.0
H265 H 0.35392 0.32315 0.35618 0.0
H266 H 0.287 0.33832 0.36367 0.0
O267 O 0.33901 0.37201 0.34448 0.0
H268 H 0.35022 0.29526 0.3837 0.0
H269 H 0.28334 0.31069 0.39128 0.0
C270 C 0.33572 0.33911 0.31306 0.0
C271 C 0.34708 0.3518 0.29821 0.0
C272 C 0.35807 0.3422 0.28135 0.0
C273 C 0.35791 0.31977 0.27927 0.0
C274 C 0.34571 0.30717 0.29359 0.0
C275 C 0.33442 0.3168 0.31016 0.0
C276 C 0.29723 0.36106 0.32775 0.0
C277 C 0.28985 0.38003 0.33678 0.0
C278 C 0.26905 0.38678 0.33187 0.0
C279 C 0.25519 0.37454 0.31796 0.0
C280 C 0.26271 0.35549 0.30894 0.0
C281 C 0.28353 0.34876 0.3139 0.0
C282 C 0.32066 0.3325 0.35754 0.0
C283 C 0.33849 0.32057 0.36383 0.0
C284 C 0.33636 0.30464 0.37948 0.0
C285 C 0.31645 0.30074 0.38946 0.0
C286 C 0.29888 0.31342 0.38387 0.0
C287 C 0.30095 0.32915 0.36798 0.0
P288 P 0.51462 0.97175 0.5365 0.0
H289 H 0.53256 0.95699 0.49584 0.0
H290 H 0.52942 0.92297 0.4762 0.0
H291 H 0.48575 0.89803 0.52425 0.0
H292 H 0.4891 0.93215 0.54393 0.0
H293 H 0.50306 0.00948 0.56064 0.0
H294 H 0.47175 0.03225 0.5593 0.0
H295 H 0.44252 0.99151 0.50927 0.0
H296 H 0.47417 0.96908 0.5104 0.0
H297 H 0.55607 0.97017 0.55981 0.0
H298 H 0.48865 0.95939 0.57368 0.0
O299 O 0.53463 0.98662 0.52599 0.0
H300 H 0.56574 0.96158 0.59729 0.0
H301 H 0.49822 0.95061 0.61113 0.0
C302 C 0.51128 0.94701 0.52149 0.0
C303 C 0.52228 0.94424 0.50215 0.0
C304 C 0.52038 0.9248 0.49087 0.0
C305 C 0.5074 0.90776 0.49872 0.0
C306 C 0.49613 0.91073 0.51796 0.0
C307 C 0.49798 0.93025 0.52919 0.0
C308 C 0.49079 0.98745 0.53586 0.0
C309 C 0.48982 0.00537 0.5495 0.0
C310 C 0.47186 0.01832 0.54878 0.0
C311 C 0.45456 0.01364 0.53426 0.0
C312 C 0.45565 0.99565 0.52052 0.0
C313 C 0.47366 0.9827 0.52127 0.0
C314 C 0.52165 0.96566 0.56409 0.0
C315 C 0.54335 0.96605 0.57094 0.0
C316 C 0.54885 0.96118 0.59235 0.0
C317 C 0.53272 0.95549 0.60711 0.0
C318 C 0.51099 0.95479 0.60006 0.0
C319 C 0.50551 0.95989 0.57871 0.0
P320 P 0.18545 0.2818 0.69255 0.0
H321 H 0.19181 0.32251 0.67039 0.0
H322 H 0.21863 0.3518 0.67447 0.0
H323 H 0.24954 0.31807 0.72682 0.0
H324 H 0.22252 0.28859 0.72257 0.0
H325 H 0.18605 0.26997 0.64687 0.0
H326 H 0.20345 0.24148 0.62729 0.0
H327 H 0.23197 0.21953 0.68727 0.0
H328 H 0.21395 0.24792 0.70686 0.0
H329 H 0.18412 0.29809 0.73759 0.0
H330 H 0.15926 0.24356 0.70059 0.0
O331 O 0.16504 0.29032 0.67716 0.0
H332 H 0.16348 0.28582 0.76884 0.0
H333 H 0.1381 0.23169 0.73157 0.0
C334 C 0.20484 0.30365 0.69658 0.0
C335 C 0.20423 0.32144 0.68288 0.0
C336 C 0.21971 0.3381 0.68507 0.0
C337 C 0.23617 0.33726 0.70099 0.0
C338 C 0.23688 0.31927 0.71458 0.0
C339 C 0.22147 0.30247 0.7122 0.0
C340 C 0.19843 0.26077 0.67833 0.0
C341 C 0.19594 0.25896 0.65583 0.0
C342 C 0.20608 0.24276 0.64463 0.0
C343 C 0.21912 0.2282 0.65571 0.0
C344 C 0.2218 0.23029 0.67829 0.0
C345 C 0.2116 0.24653 0.68949 0.0
C346 C 0.17362 0.27146 0.71688 0.0
C347 C 0.17477 0.28318 0.73634 0.0
C348 C 0.16295 0.2762 0.75418 0.0
C349 C 0.14937 0.25776 0.75257 0.0
C350 C 0.14859 0.24587 0.73322 0.0
C351 C 0.16069 0.25262 0.71557 0.0
P352 P 0.78679 0.17722 0.70656 0.0
H353 H 0.7993 0.18849 0.66268 0.0
H354 H 0.7878 0.21608 0.63772 0.0
H355 H 0.7446 0.23979 0.68575 0.0
H356 H 0.75562 0.21136 0.71038 0.0
H357 H 0.83313 0.17473 0.71606 0.0
H358 H 0.85675 0.19101 0.74407 0.0
H359 H 0.802 0.22188 0.77138 0.0
H360 H 0.77853 0.2058 0.74299 0.0
H361 H 0.74613 0.16191 0.68681 0.0
H362 H 0.77729 0.16026 0.74977 0.0
O363 O 0.80059 0.15928 0.69282 0.0
H364 H 0.71639 0.13931 0.69995 0.0
H365 H 0.74716 0.13863 0.76338 0.0
C366 C 0.77826 0.19784 0.68835 0.0
C367 C 0.78729 0.19955 0.66784 0.0
C368 C 0.78081 0.21551 0.65362 0.0
C369 C 0.76535 0.23033 0.65974 0.0
C370 C 0.75636 0.22856 0.6804 0.0
C371 C 0.76278 0.21243 0.69458 0.0
C372 C 0.80406 0.189 0.7275 0.0
C373 C 0.82617 0.18493 0.72811 0.0
C374 C 0.83966 0.19413 0.74426 0.0
C375 C 0.83126 0.20767 0.76006 0.0
C376 C 0.80903 0.2117 0.75935 0.0
C377 C 0.79558 0.2025 0.74315 0.0
C378 C 0.76369 0.16317 0.71741 0.0
C379 C 0.74628 0.15715 0.70363 0.0
C380 C 0.72922 0.14429 0.71122 0.0
C381 C 0.72929 0.13716 0.73278 0.0
C382 C 0.74665 0.1436 0.74663 0.0
C383 C 0.76381 0.15625 0.73893 0.0
P384 P 0.55113 0.54889 0.55477 0.0
H385 H 0.54733 0.53965 0.60069 0.0
H386 H 0.51639 0.5332 0.62396 0.0
H387 H 0.47334 0.53727 0.56835 0.0
H388 H 0.50442 0.54399 0.54523 0.0
H389 H 0.59399 0.54273 0.53798 0.0
H390 H 0.61359 0.51097 0.52787 0.0
H391 H 0.55869 0.4708 0.54567 0.0
H392 H 0.53899 0.50273 0.55504 0.0
H393 H 0.5327 0.59092 0.55012 0.0
H394 H 0.55229 0.54035 0.50772 0.0
O395 O 0.56835 0.56446 0.56942 0.0
H396 H 0.523 0.61256 0.51875 0.0
H397 H 0.54343 0.56208 0.47635 0.0
C398 C 0.52814 0.54275 0.57134 0.0
C399 C 0.53122 0.53912 0.59352 0.0
C400 C 0.5135 0.53528 0.60678 0.0
C401 C 0.49232 0.53488 0.59807 0.0
C402 C 0.48938 0.53787 0.57565 0.0
C403 C 0.50715 0.54165 0.56239 0.0
C404 C 0.56515 0.52509 0.54748 0.0
C405 C 0.58621 0.52706 0.53973 0.0
C406 C 0.59745 0.50884 0.53407 0.0
C407 C 0.58783 0.48823 0.53608 0.0
C408 C 0.56656 0.48639 0.5437 0.0
C409 C 0.5553 0.50466 0.54924 0.0
C410 C 0.54333 0.5641 0.5313 0.0
C411 C 0.53498 0.58451 0.53404 0.0
C412 C 0.5296 0.59693 0.51607 0.0
C413 C 0.53253 0.58917 0.49494 0.0
C414 C 0.5407 0.56853 0.49232 0.0
C415 C 0.54596 0.55609 0.51032 0.0
P416 P 0.55838 0.44211 0.9323 0.0
H417 H 0.6052 0.44878 0.92996 0.0
H418 H 0.62962 0.47823 0.94068 0.0
H419 H 0.57575 0.51258 0.96568 0.0
H420 H 0.55118 0.48363 0.9529 0.0
H421 H 0.53997 0.39886 0.93668 0.0
H422 H 0.5282 0.37785 0.96785 0.0
H423 H 0.5419 0.43254 0.00959 0.0
H424 H 0.55365 0.45333 0.97864 0.0
H425 H 0.55853 0.47686 0.90106 0.0
H426 H 0.51305 0.42855 0.92348 0.0
O427 O 0.57225 0.42492 0.9177 0.0
H428 H 0.53208 0.48837 0.8742 0.0
H429 H 0.48678 0.43941 0.8961 0.0
C430 C 0.57641 0.46392 0.94085 0.0
C431 C 0.59861 0.46268 0.93765 0.0
C432 C 0.61266 0.47955 0.94412 0.0
C433 C 0.60487 0.49784 0.9545 0.0
C434 C 0.58246 0.49898 0.95759 0.0
C435 C 0.56836 0.48231 0.95052 0.0
C436 C 0.54787 0.42766 0.95522 0.0
C437 C 0.54025 0.40639 0.95252 0.0
C438 C 0.53344 0.39442 0.97032 0.0
C439 C 0.53428 0.40352 0.99119 0.0
C440 C 0.54136 0.42502 0.99374 0.0
C441 C 0.548 0.43699 0.97592 0.0
C442 C 0.53762 0.45217 0.91466 0.0
C443 C 0.54272 0.46892 0.90045 0.0
C444 C 0.52767 0.4753 0.88486 0.0
C445 C 0.5073 0.46478 0.88291 0.0
C446 C 0.50217 0.44811 0.89735 0.0
C447 C 0.51724 0.44182 0.91304 0.0
P448 P 0.72395 0.23371 0.25746 0.0
H449 H 0.73129 0.22072 0.30276 0.0
H450 H 0.7292 0.24017 0.33698 0.0
H451 H 0.7139 0.29777 0.30221 0.0
H452 H 0.71587 0.27811 0.26795 0.0
H453 H 0.76814 0.2188 0.25877 0.0
H454 H 0.78336 0.18364 0.26544 0.0
H455 H 0.71882 0.15588 0.27019 0.0
H456 H 0.70384 0.19097 0.26397 0.0
H457 H 0.70508 0.23502 0.21365 0.0
H458 H 0.68257 0.22772 0.27882 0.0
O459 O 0.73904 0.24767 0.2401 0.0
H460 H 0.6677 0.2326 0.19987 0.0
H461 H 0.64527 0.22556 0.26526 0.0
C462 C 0.7241 0.2481 0.28278 0.0
C463 C 0.72774 0.23758 0.30243 0.0
C464 C 0.72652 0.24872 0.32203 0.0
C465 C 0.72141 0.27053 0.32231 0.0
C466 C 0.71767 0.28095 0.30255 0.0
C467 C 0.71901 0.26981 0.28297 0.0
C468 C 0.73487 0.20746 0.26057 0.0
C469 C 0.7573 0.20506 0.261 0.0
C470 C 0.76597 0.18495 0.26474 0.0
C471 C 0.75231 0.16694 0.26834 0.0
C472 C 0.72981 0.16945 0.2677 0.0
C473 C 0.72119 0.18953 0.26397 0.0
C474 C 0.69653 0.23189 0.24725 0.0
C475 C 0.69209 0.23303 0.22499 0.0
C476 C 0.67073 0.23172 0.21715 0.0
C477 C 0.65353 0.22897 0.23149 0.0
C478 C 0.65815 0.2275 0.25378 0.0
C479 C 0.67947 0.22891 0.26157 0.0
P480 P 0.45787 0.01438 0.01307 0.0
H481 H 0.50443 0.01526 0.00831 0.0
H482 H 0.52761 0.01253 0.97683 0.0
H483 H 0.47118 0.00205 0.93554 0.0
H484 H 0.44799 0.0054 0.96693 0.0
H485 H 0.43348 0.03749 0.04505 0.0
H486 H 0.43675 0.07438 0.05906 0.0
H487 H 0.48515 0.08928 0.01175 0.0
H488 H 0.48157 0.0529 0.99752 0.0
H489 H 0.43991 0.97131 0.01849 0.0
H490 H 0.41754 0.03211 0.99595 0.0
O491 O 0.46891 0.00166 0.034 0.0
H492 H 0.40427 0.9549 0.01114 0.0
H493 H 0.38169 0.01565 0.9881 0.0
C494 C 0.47453 0.01035 0.98999 0.0
C495 C 0.49706 0.0122 0.99251 0.0
C496 C 0.51025 0.01078 0.97456 0.0
C497 C 0.5011 0.0071 0.95386 0.0
C498 C 0.47856 0.00477 0.9514 0.0
C499 C 0.46534 0.00665 0.96933 0.0
C500 C 0.45732 0.04234 0.02032 0.0
C501 C 0.44442 0.04886 0.03738 0.0
C502 C 0.44627 0.06988 0.04535 0.0
C503 C 0.46135 0.08451 0.03657 0.0
C504 C 0.47357 0.07819 0.01891 0.0
C505 C 0.4715 0.05732 0.01079 0.0
C506 C 0.43118 0.00298 0.00819 0.0
C507 C 0.42725 0.98115 0.01204 0.0
C508 C 0.40691 0.97174 0.0076 0.0
C509 C 0.39014 0.98396 0.99894 0.0
C510 C 0.3942 0.00588 0.99498 0.0
C511 C 0.41464 0.0153 0.99945 0.0
Zn512 Zn 0.26089 0.83619 0.99166 0.0
Zn513 Zn 0.22554 0.85814 0.99632 0.0
O514 O 0.228 0.84256 0.02593 0.0
O515 O 0.25911 0.82694 0.02254 0.0
O516 O 0.19894 0.87601 0.99821 0.0
O517 O 0.27822 0.86283 0.98439 0.0
O518 O 0.24965 0.88134 0.99178 0.0
C519 C 0.24298 0.8312 0.03385 0.0
C520 C 0.22806 0.82253 0.9616 0.0
O521 O 0.21822 0.8381 0.96994 0.0
O522 O 0.2466 0.81774 0.9686 0.0
C523 C 0.19378 0.88609 0.01518 0.0
O524 O 0.20576 0.88443 0.03284 0.0
C525 C 0.26947 0.88072 0.9867 0.0
Zn526 Zn 0.07541 0.46156 0.28451 0.0
Zn527 Zn 0.10576 0.49491 0.28524 0.0
O528 O 0.08559 0.50294 0.30933 0.0
O529 O 0.06117 0.47649 0.30989 0.0
O530 O 0.12817 0.51907 0.28551 0.0
O531 O 0.1 0.44129 0.29037 0.0
O532 O 0.12357 0.46849 0.29091 0.0
C533 C 0.06875 0.49421 0.31738 0.0
C534 C 0.07789 0.48514 0.24439 0.0
O535 O 0.09239 0.49591 0.25497 0.0
O536 O 0.06799 0.46947 0.25318 0.0
C537 C 0.12548 0.53603 0.27462 0.0
O538 O 0.10751 0.5381 0.2633 0.0
C539 C 0.11933 0.44846 0.2924 0.0
Zn540 Zn 0.77165 0.59804 0.95202 0.0
Zn541 Zn 0.76799 0.62408 0.98622 0.0
O542 O 0.79411 0.60559 0.99371 0.0
O543 O 0.79894 0.58619 0.96448 0.0
O544 O 0.76636 0.64253 0.01298 0.0
O545 O 0.77311 0.62418 0.93292 0.0
O546 O 0.77319 0.64547 0.96147 0.0
C547 C 0.80479 0.59181 0.98346 0.0
C548 C 0.73149 0.59183 0.97363 0.0
O549 O 0.73832 0.608 0.98475 0.0
O550 O 0.74311 0.58384 0.95926 0.0
C551 C 0.75284 0.65724 0.01516 0.0
O552 O 0.73918 0.66104 0.99922 0.0
C553 C 0.7743 0.64287 0.94105 0.0
Zn554 Zn 0.85373 0.999 0.30814 0.0
Zn555 Zn 0.86877 0.00797 0.26909 0.0
O556 O 0.84687 0.03199 0.27386 0.0
O557 O 0.83215 0.02218 0.30451 0.0
O558 O 0.88142 0.01471 0.23984 0.0
O559 O 0.88263 0.00624 0.32215 0.0
O560 O 0.89583 0.00918 0.28943 0.0
C561 C 0.83306 0.03481 0.28857 0.0
C562 C 0.84712 0.96406 0.27818 0.0
O563 O 0.8545 0.97782 0.26482 0.0
O564 O 0.84625 0.96871 0.2981 0.0
C565 C 0.89872 0.006 0.23412 0.0
O566 O 0.90787 0.99234 0.24724 0.0
C567 C 0.89856 0.00909 0.30991 0.0
Zn568 Zn 0.30356 0.11765 0.46237 0.0
Zn569 Zn 0.29286 0.13183 0.50242 0.0
O570 O 0.31991 0.11489 0.50904 0.0
O571 O 0.3288 0.10291 0.47695 0.0
O572 O 0.28445 0.14412 0.53103 0.0
O573 O 0.30699 0.1485 0.45227 0.0
O574 O 0.2973 0.15905 0.48457 0.0
C575 C 0.33228 0.10413 0.49721 0.0
C576 C 0.2614 0.10238 0.47633 0.0
O577 O 0.26668 0.11292 0.49343 0.0
O578 O 0.27407 0.10215 0.46049 0.0
C579 C 0.2802 0.13305 0.54768 0.0
O580 O 0.2817 0.11211 0.54679 0.0
C581 C 0.30291 0.16346 0.46536 0.0
Zn582 Zn 0.33716 0.49041 0.78257 0.0
Zn583 Zn 0.35585 0.50315 0.7458 0.0
O584 O 0.33714 0.52911 0.75336 0.0
O585 O 0.32268 0.51872 0.78398 0.0
O586 O 0.37131 0.51219 0.71847 0.0
O587 O 0.36596 0.4873 0.79742 0.0
O588 O 0.38122 0.49813 0.7674 0.0
C589 C 0.32511 0.53272 0.76941 0.0
C590 C 0.32608 0.4625 0.74676 0.0
O591 O 0.33821 0.47572 0.73656 0.0
O592 O 0.32298 0.46526 0.76675 0.0
C593 C 0.38818 0.50271 0.7127 0.0
O594 O 0.39514 0.48677 0.72444 0.0
C595 C 0.38281 0.49189 0.78696 0.0
Zn596 Zn 0.77319 0.34343 0.50079 0.0
Zn597 Zn 0.73742 0.36504 0.50678 0.0
O598 O 0.73824 0.34453 0.53325 0.0
O599 O 0.76859 0.32783 0.52853 0.0
O600 O 0.71084 0.38258 0.51145 0.0
O601 O 0.79129 0.37055 0.50115 0.0
O602 O 0.7619 0.38852 0.50664 0.0
C603 C 0.75204 0.33104 0.53961 0.0
C604 C 0.74265 0.33714 0.46587 0.0
O605 O 0.73173 0.35007 0.477 0.0
O606 O 0.76097 0.33149 0.47278 0.0
C607 C 0.69185 0.37599 0.50597 0.0
O608 O 0.68909 0.35687 0.49714 0.0
C609 C 0.78228 0.38819 0.50419 0.0
Zn610 Zn 0.60139 0.93693 0.80031 0.0
Zn611 Zn 0.61494 0.97742 0.78798 0.0
O612 O 0.59688 0.98326 0.81444 0.0
O613 O 0.58479 0.95125 0.82431 0.0
O614 O 0.62506 0.00681 0.77838 0.0
O615 O 0.63317 0.92989 0.80529 0.0
O616 O 0.6429 0.9624 0.79492 0.0
C617 C 0.5858 0.97142 0.82705 0.0
C618 C 0.58818 0.94796 0.75677 0.0
O619 O 0.59818 0.96556 0.76151 0.0
O620 O 0.58717 0.93296 0.77049 0.0
C621 C 0.64189 0.01586 0.78684 0.0
O622 O 0.65234 0.00614 0.80245 0.0
C623 C 0.64787 0.94396 0.80167 0.0
Zn624 Zn 0.99288 0.28308 0.85612 0.0
Zn625 Zn 0.99143 0.2493 0.88119 0.0
O626 O 0.01965 0.24538 0.8641 0.0
O627 O 0.0169 0.27053 0.83942 0.0
O628 O 0.98996 0.22465 0.90242 0.0
O629 O 0.9995 0.3029 0.88126 0.0
O630 O 0.99226 0.27531 0.90219 0.0
C631 C 0.0266 0.25469 0.84717 0.0
C632 C 0.95313 0.25922 0.85103 0.0
O633 O 0.96291 0.24585 0.86297 0.0
O634 O 0.96205 0.27719 0.8468 0.0
C635 C 0.00071 0.20762 0.90201 0.0
O636 O 0.01401 0.2045 0.8861 0.0
C637 C 0.99659 0.29527 0.89993 0.0
Zn638 Zn 0.49916 0.77831 0.34864 0.0
Zn639 Zn 0.50747 0.74413 0.37291 0.0
O640 O 0.53411 0.74609 0.35303 0.0
O641 O 0.52621 0.77339 0.33221 0.0
O642 O 0.51252 0.71794 0.39151 0.0
O643 O 0.50008 0.7971 0.37512 0.0
O644 O 0.5061 0.76889 0.39532 0.0
C645 C 0.53876 0.75857 0.33739 0.0
C646 C 0.46608 0.74611 0.34374 0.0
O647 O 0.47846 0.73631 0.35685 0.0
O648 O 0.47111 0.76496 0.33784 0.0
C649 C 0.50864 0.69923 0.3838 0.0
O650 O 0.50192 0.69722 0.36357 0.0
C651 C 0.5032 0.78897 0.39359 0.0
Zn652 Zn 0.95056 0.80377 0.59183 0.0
Zn653 Zn 0.98305 0.7875 0.61635 0.0
O654 O 0.99856 0.80759 0.59502 0.0
O655 O 0.97253 0.82163 0.57548 0.0
O656 O 0.008 0.77552 0.63354 0.0
O657 O 0.93812 0.81534 0.61925 0.0
O658 O 0.96412 0.80171 0.63918 0.0
C659 C 0.99245 0.81997 0.57992 0.0
C660 C 0.95306 0.75789 0.58826 0.0
O661 O 0.96877 0.76103 0.60162 0.0
O662 O 0.94235 0.77357 0.58152 0.0
C663 C 0.01861 0.76046 0.62538 0.0
O664 O 0.01292 0.75296 0.60613 0.0
C665 C 0.94682 0.81219 0.63763 0.0
Zn666 Zn 0.44556 0.26902 0.10866 0.0
Zn667 Zn 0.48356 0.26483 0.13181 0.0
O668 O 0.49057 0.29064 0.11282 0.0
O669 O 0.46127 0.29299 0.09222 0.0
O670 O 0.51086 0.25997 0.1491 0.0
O671 O 0.4309 0.27574 0.13714 0.0
O672 O 0.46127 0.26975 0.15496 0.0
C673 C 0.48028 0.29955 0.09746 0.0
C674 C 0.4649 0.22804 0.10298 0.0
O675 O 0.47954 0.23687 0.11505 0.0
O676 O 0.44789 0.23794 0.09831 0.0
C677 C 0.51047 0.24452 0.16241 0.0
O678 O 0.49247 0.23304 0.1644 0.0
C679 C 0.44138 0.27426 0.15487 0.0
H680 H 0.20092 0.79531 0.83865 0.0
H681 H 0.2049 0.72852 0.85669 0.0
H682 H 0.20535 0.73885 0.89528 0.0
H683 H 0.23758 0.81499 0.87683 0.0
H684 H 0.2241 0.83942 0.88283 0.0
H685 H 0.22011 0.82676 0.8568 0.0
H686 H 0.17874 0.82525 0.86222 0.0
H687 H 0.18261 0.83799 0.88833 0.0
H688 H 0.1679 0.81266 0.88601 0.0
H689 H 0.21128 0.75615 0.93085 0.0
H690 H 0.22205 0.77963 0.96174 0.0
H691 H 0.21342 0.83563 0.92182 0.0
C692 C 0.20116 0.78289 0.8508 0.0
C693 C 0.20273 0.76112 0.84481 0.0
C694 C 0.20368 0.74527 0.86104 0.0
C695 C 0.20381 0.75098 0.88296 0.0
C696 C 0.20287 0.77261 0.88841 0.0
C697 C 0.20143 0.78836 0.87286 0.0
C698 C 0.20299 0.81054 0.88311 0.0
C699 C 0.22235 0.82369 0.87438 0.0
C700 C 0.18179 0.8223 0.87971 0.0
C701 C 0.20648 0.80477 0.9067 0.0
C702 C 0.20603 0.78276 0.90936 0.0
C703 C 0.2111 0.77338 0.92913 0.0
C704 C 0.21722 0.7868 0.94655 0.0
C705 C 0.21803 0.80931 0.94416 0.0
C706 C 0.21214 0.81846 0.92415 0.0
H707 H 0.99704 0.49969 0.42292 0.0
H708 H 0.01873 0.5662 0.4301 0.0
H709 H 0.03876 0.56358 0.39606 0.0
H710 H 0.04589 0.48014 0.40267 0.0
H711 H 0.03287 0.46141 0.38389 0.0
H712 H 0.01944 0.46885 0.40823 0.0
H713 H 0.98643 0.4808 0.38542 0.0
H714 H 0.99976 0.47337 0.36099 0.0
H715 H 0.99031 0.50019 0.36424 0.0
H716 H 0.05827 0.553 0.36262 0.0
H717 H 0.07468 0.53573 0.33122 0.0
H718 H 0.03953 0.4763 0.34538 0.0
C719 C 0.00597 0.51371 0.41729 0.0
C720 C 0.00635 0.53316 0.42912 0.0
C721 C 0.01805 0.55122 0.42115 0.0
C722 C 0.02954 0.54985 0.4019 0.0
C723 C 0.02898 0.53037 0.39074 0.0
C724 C 0.01737 0.51267 0.39804 0.0
C725 C 0.01966 0.49355 0.38316 0.0
C726 C 0.03009 0.47489 0.39521 0.0
C727 C 0.99774 0.48657 0.37284 0.0
C728 C 0.03468 0.50316 0.36654 0.0
C729 C 0.03987 0.52441 0.37121 0.0
C730 C 0.05417 0.53643 0.35868 0.0
C731 C 0.06345 0.52646 0.34091 0.0
C732 C 0.05831 0.5047 0.33577 0.0
C733 C 0.04359 0.49302 0.34873 0.0
H734 H 0.8149 0.76111 0.90916 0.0
H735 H 0.80461 0.74189 0.84203 0.0
H736 H 0.78984 0.7068 0.8538 0.0
H737 H 0.83233 0.71048 0.92807 0.0
H738 H 0.81916 0.71229 0.95371 0.0
H739 H 0.82792 0.73634 0.94006 0.0
H740 H 0.78904 0.75035 0.9413 0.0
H741 H 0.78013 0.72628 0.95489 0.0
H742 H 0.76689 0.73414 0.93008 0.0
H743 H 0.77785 0.67341 0.87252 0.0
H744 H 0.76954 0.64348 0.8971 0.0
H745 H 0.78746 0.6841 0.9523 0.0
C746 C 0.80958 0.7495 0.89694 0.0
C747 C 0.81082 0.75429 0.87465 0.0
C748 C 0.80351 0.73872 0.85918 0.0
C749 C 0.79517 0.71871 0.8657 0.0
C750 C 0.79417 0.71452 0.88776 0.0
C751 C 0.80115 0.72944 0.90316 0.0
C752 C 0.79878 0.72062 0.92582 0.0
C753 C 0.82086 0.71989 0.9376 0.0
C754 C 0.78276 0.73363 0.93878 0.0
C755 C 0.7897 0.69829 0.9207 0.0
C756 C 0.78709 0.69519 0.89863 0.0
C757 C 0.77968 0.67567 0.88984 0.0
C758 C 0.77504 0.65876 0.90395 0.0
C759 C 0.7778 0.66145 0.92664 0.0
C760 C 0.78497 0.6816 0.93507 0.0
H761 H 0.01391 0.96852 0.34436 0.0
H762 H 0.01467 0.01651 0.39554 0.0
H763 H 0.98152 0.03145 0.38002 0.0
H764 H 0.99268 0.00435 0.30098 0.0
H765 H 0.97661 0.98281 0.28863 0.0
H766 H 0.00171 0.97721 0.30243 0.0
H767 H 0.98161 0.94976 0.32672 0.0
H768 H 0.9565 0.9553 0.3131 0.0
H769 H 0.95893 0.9582 0.34208 0.0
H770 H 0.94587 0.03771 0.3625 0.0
H771 H 0.91092 0.03631 0.34242 0.0
H772 H 0.93433 0.98663 0.30057 0.0
C773 C 0.00748 0.98256 0.35196 0.0
C774 C 0.01685 0.9912 0.37132 0.0
C775 C 0.00761 0.00932 0.38096 0.0
C776 C 0.98888 0.01808 0.37214 0.0
C777 C 0.97977 0.00883 0.35341 0.0
C778 C 0.9889 0.99168 0.34321 0.0
C779 C 0.97512 0.98399 0.32396 0.0
C780 C 0.98726 0.9873 0.30274 0.0
C781 C 0.96759 0.96042 0.32664 0.0
C782 C 0.95641 0.99896 0.32547 0.0
C783 C 0.9595 0.01322 0.34255 0.0
C784 C 0.9435 0.02706 0.34872 0.0
C785 C 0.92373 0.02614 0.3373 0.0
C786 C 0.92028 0.01173 0.31976 0.0
C787 C 0.93695 0.99827 0.3135 0.0
H788 H 0.23863 0.23107 0.61638 0.0
H789 H 0.22329 0.18614 0.66758 0.0
H790 H 0.23922 0.15706 0.64647 0.0
H791 H 0.22487 0.19597 0.57286 0.0
H792 H 0.24622 0.20576 0.55579 0.0
H793 H 0.23516 0.22321 0.57571 0.0
H794 H 0.27345 0.23048 0.59241 0.0
H795 H 0.28463 0.21304 0.57251 0.0
H796 H 0.28934 0.20823 0.60092 0.0
H797 H 0.2549 0.13243 0.61852 0.0
H798 H 0.26924 0.11449 0.58632 0.0
H799 H 0.27363 0.17581 0.5536 0.0
C800 C 0.23862 0.21513 0.6232 0.0
C801 C 0.2297 0.2109 0.64365 0.0
C802 C 0.23027 0.18984 0.65208 0.0
C803 C 0.2392 0.1732 0.64016 0.0
C804 C 0.24756 0.1779 0.61991 0.0
C805 C 0.24741 0.19839 0.61156 0.0
C806 C 0.25665 0.19916 0.58911 0.0
C807 C 0.23971 0.20645 0.57239 0.0
C808 C 0.27724 0.21358 0.58873 0.0
C809 C 0.26173 0.17583 0.58597 0.0
C810 C 0.25651 0.16381 0.60392 0.0
C811 C 0.2592 0.14172 0.60444 0.0
C812 C 0.26734 0.13167 0.58606 0.0
C813 C 0.27261 0.14372 0.56744 0.0
C814 C 0.26988 0.16611 0.56759 0.0
H815 H 0.48767 0.50732 0.63244 0.0
H816 H 0.45431 0.55625 0.59647 0.0
H817 H 0.42356 0.55267 0.62113 0.0
H818 H 0.44034 0.47411 0.64418 0.0
H819 H 0.44995 0.46737 0.67092 0.0
H820 H 0.46894 0.47325 0.64992 0.0
H821 H 0.48749 0.50279 0.67411 0.0
H822 H 0.46855 0.49703 0.69517 0.0
H823 H 0.47157 0.52389 0.68486 0.0
H824 H 0.39704 0.54487 0.65086 0.0
H825 H 0.37652 0.53272 0.68267 0.0
H826 H 0.42728 0.48892 0.69907 0.0
C827 C 0.47391 0.51731 0.62974 0.0
C828 C 0.47343 0.53204 0.61244 0.0
C829 C 0.45497 0.54463 0.60938 0.0
C830 C 0.43746 0.5428 0.6234 0.0
C831 C 0.43857 0.52826 0.64037 0.0
C832 C 0.45628 0.51566 0.64353 0.0
C833 C 0.45359 0.50147 0.66315 0.0
C834 C 0.45317 0.47764 0.65665 0.0
C835 C 0.47135 0.50661 0.68034 0.0
C836 C 0.43169 0.5082 0.67068 0.0
C837 C 0.42327 0.52367 0.65733 0.0
C838 C 0.40342 0.53267 0.66135 0.0
C839 C 0.39189 0.52569 0.67948 0.0
C840 C 0.40021 0.50981 0.69335 0.0
C841 C 0.42036 0.50097 0.68874 0.0
H842 H 0.79125 0.25334 0.63229 0.0
H843 H 0.72475 0.24616 0.65254 0.0
H844 H 0.71411 0.27346 0.62585 0.0
H845 H 0.79137 0.3104 0.62111 0.0
H846 H 0.80809 0.3078 0.59778 0.0
H847 H 0.81055 0.28934 0.61991 0.0
H848 H 0.8034 0.25737 0.59346 0.0
H849 H 0.80095 0.27571 0.57128 0.0
H850 H 0.77929 0.2566 0.57659 0.0
H851 H 0.71067 0.30057 0.595 0.0
H852 H 0.71477 0.32351 0.56256 0.0
H853 H 0.78322 0.31084 0.56242 0.0
C854 C 0.77442 0.25743 0.63118 0.0
C855 C 0.75886 0.24753 0.64455 0.0
C856 C 0.73706 0.2537 0.6427 0.0
C857 C 0.73083 0.26914 0.62752 0.0
C858 C 0.74659 0.27829 0.61433 0.0
C859 C 0.76794 0.2726 0.61608 0.0
C860 C 0.78166 0.28373 0.59936 0.0
C861 C 0.79893 0.29871 0.61019 0.0
C862 C 0.79192 0.26738 0.58428 0.0
C863 C 0.76467 0.2963 0.58759 0.0
C864 C 0.74456 0.29327 0.59655 0.0
C865 C 0.72638 0.3031 0.58794 0.0
C866 C 0.72884 0.31611 0.56956 0.0
C867 C 0.74927 0.31886 0.5599 0.0
C868 C 0.76734 0.30898 0.56931 0.0
H869 H 0.56059 0.97806 0.63428 0.0
H870 H 0.51784 0.92164 0.63117 0.0
H871 H 0.52752 0.91331 0.66915 0.0
H872 H 0.60248 0.95534 0.66731 0.0
H873 H 0.60801 0.9797 0.68251 0.0
H874 H 0.59786 0.98097 0.65505 0.0
H875 H 0.56593 0.00338 0.66778 0.0
H876 H 0.57597 0.00217 0.69527 0.0
H877 H 0.5487 0.99305 0.6887 0.0
H878 H 0.54237 0.91095 0.7073 0.0
H879 H 0.56014 0.91545 0.74325 0.0
H880 H 0.59252 0.97392 0.7214 0.0
C881 C 0.55341 0.96386 0.64156 0.0
C882 C 0.53853 0.95043 0.62982 0.0
C883 C 0.52917 0.93219 0.63997 0.0
C884 C 0.53464 0.92729 0.66147 0.0
C885 C 0.54938 0.94088 0.67259 0.0
C886 C 0.55854 0.95885 0.66301 0.0
C887 C 0.57359 0.97108 0.67861 0.0
C888 C 0.59686 0.9718 0.67037 0.0
C889 C 0.56556 0.99376 0.68284 0.0
C890 C 0.57151 0.95716 0.69846 0.0
C891 C 0.55757 0.93976 0.69463 0.0
C892 C 0.55328 0.92454 0.71051 0.0
C893 C 0.56347 0.92722 0.73086 0.0
C894 C 0.57767 0.94507 0.73518 0.0
C895 C 0.58168 0.96017 0.71868 0.0
H896 H 0.86525 0.19023 0.78258 0.0
H897 H 0.83056 0.24911 0.77462 0.0
H898 H 0.85594 0.26743 0.80035 0.0
H899 H 0.87986 0.19795 0.84042 0.0
H900 H 0.90618 0.18695 0.83739 0.0
H901 H 0.88394 0.17769 0.82014 0.0
H902 H 0.90615 0.1873 0.78628 0.0
H903 H 0.92843 0.19653 0.8034 0.0
H904 H 0.91724 0.21418 0.78341 0.0
H905 H 0.88693 0.28042 0.82337 0.0
H906 H 0.92155 0.28726 0.84295 0.0
H907 H 0.93638 0.22006 0.83691 0.0
C908 C 0.86288 0.20693 0.7864 0.0
C909 C 0.8458 0.21819 0.77665 0.0
C910 C 0.84325 0.24002 0.78214 0.0
C911 C 0.85764 0.2506 0.79669 0.0
C912 C 0.87442 0.23911 0.80577 0.0
C913 C 0.87709 0.21773 0.80096 0.0
C914 C 0.89726 0.20949 0.812 0.0
C915 C 0.89146 0.19198 0.82847 0.0
C916 C 0.91321 0.20141 0.79527 0.0
C917 C 0.90587 0.22977 0.82323 0.0
C918 C 0.89231 0.2466 0.8195 0.0
C919 C 0.89749 0.26732 0.82672 0.0
C920 C 0.91721 0.27105 0.83776 0.0
C921 C 0.93147 0.25415 0.8416 0.0
C922 C 0.92552 0.23315 0.83461 0.0
H923 H 0.50291 0.90135 0.455 0.0
H924 H 0.50851 0.86721 0.51568 0.0
H925 H 0.5073 0.83272 0.49567 0.0
H926 H 0.46641 0.86316 0.42801 0.0
H927 H 0.47879 0.86673 0.40209 0.0
H928 H 0.4794 0.88848 0.42139 0.0
H929 H 0.52116 0.89128 0.41934 0.0
H930 H 0.52069 0.86953 0.40008 0.0
H931 H 0.53671 0.86789 0.42464 0.0
H932 H 0.50698 0.80188 0.46843 0.0
H933 H 0.50636 0.77759 0.43656 0.0
H934 H 0.50099 0.83259 0.39432 0.0
C935 C 0.50394 0.88663 0.4641 0.0
C936 C 0.50584 0.88697 0.48689 0.0
C937 C 0.50682 0.86732 0.49821 0.0
C938 C 0.50627 0.84767 0.48698 0.0
C939 C 0.50461 0.84795 0.46446 0.0
C940 C 0.50335 0.86696 0.45319 0.0
C941 C 0.50184 0.86303 0.42906 0.0
C942 C 0.48033 0.87081 0.41959 0.0
C943 C 0.52126 0.87355 0.41762 0.0
C944 C 0.50265 0.83886 0.42845 0.0
C945 C 0.50425 0.83038 0.44898 0.0
C946 C 0.50562 0.80836 0.45228 0.0
C947 C 0.50529 0.79469 0.4341 0.0
C948 C 0.50357 0.80314 0.41293 0.0
C949 C 0.50221 0.82553 0.41024 0.0
H950 H 0.1058 0.25476 0.74897 0.0
H951 H 0.15869 0.24988 0.79537 0.0
H952 H 0.13241 0.24318 0.82459 0.0
H953 H 0.0738 0.2848 0.78218 0.0
H954 H 0.04847 0.27293 0.77251 0.0
H955 H 0.07141 0.27377 0.75518 0.0
H956 H 0.06785 0.23253 0.74998 0.0
H957 H 0.04489 0.23157 0.76743 0.0
H958 H 0.06783 0.2154 0.77336 0.0
H959 H 0.09974 0.2391 0.84899 0.0
H960 H 0.06445 0.2428 0.86675 0.0
H961 H 0.03385 0.25306 0.8042 0.0
C962 C 0.11181 0.25171 0.7652 0.0
C963 C 0.13416 0.25237 0.76998 0.0
C964 C 0.14155 0.24916 0.79148 0.0
C965 C 0.12677 0.24523 0.80808 0.0
C966 C 0.10471 0.24483 0.80285 0.0
C967 C 0.09732 0.24821 0.78192 0.0
C968 C 0.07302 0.24962 0.78078 0.0
C969 C 0.06629 0.27158 0.77217 0.0
C970 C 0.0628 0.23118 0.76708 0.0
C971 C 0.06783 0.24703 0.80441 0.0
C972 C 0.08618 0.24369 0.81689 0.0
C973 C 0.08527 0.24156 0.83934 0.0
C974 C 0.0652 0.24356 0.84928 0.0
C975 C 0.04656 0.24816 0.83677 0.0
C976 C 0.04789 0.24943 0.81408 0.0
H977 H 0.5389 0.63286 0.49006 0.0
H978 H 0.51389 0.57582 0.45624 0.0
H979 H 0.50574 0.59765 0.42417 0.0
H980 H 0.49879 0.66848 0.46896 0.0
H981 H 0.51757 0.69103 0.46704 0.0
H982 H 0.5218 0.67085 0.48726 0.0
H983 H 0.56012 0.66498 0.47276 0.0
H984 H 0.55598 0.68508 0.45244 0.0
H985 H 0.5633 0.65847 0.44457 0.0
H986 H 0.50048 0.62556 0.39564 0.0
H987 H 0.49753 0.65774 0.37297 0.0
H988 H 0.52481 0.69698 0.42563 0.0
C989 C 0.5315 0.62494 0.47602 0.0
C990 C 0.52717 0.60251 0.47573 0.0
C991 C 0.51775 0.59286 0.45682 0.0
C992 C 0.51292 0.60516 0.43853 0.0
C993 C 0.51749 0.62715 0.43937 0.0
C994 C 0.52647 0.637 0.45764 0.0
C995 C 0.52963 0.66095 0.45435 0.0
C996 C 0.51614 0.67357 0.47035 0.0
C997 C 0.55369 0.66776 0.45613 0.0
C998 C 0.52102 0.66303 0.43135 0.0
C999 C 0.51417 0.64332 0.423 0.0
C1000 C 0.50575 0.64109 0.40202 0.0
C1001 C 0.50417 0.6595 0.38925 0.0
C1002 C 0.51091 0.67994 0.39748 0.0
C1003 C 0.51947 0.68162 0.41885 0.0
H1004 H 0.91263 0.81331 0.76182 0.0
H1005 H 0.86338 0.85774 0.7427 0.0
H1006 H 0.87742 0.85846 0.7057 0.0
H1007 H 0.95575 0.83625 0.72818 0.0
H1008 H 0.96617 0.81047 0.72149 0.0
H1009 H 0.95319 0.81438 0.74697 0.0
H1010 H 0.92648 0.78259 0.73812 0.0
H1011 H 0.93937 0.77858 0.71265 0.0
H1012 H 0.91073 0.78275 0.71328 0.0
H1013 H 0.89517 0.85313 0.6707 0.0
H1014 H 0.91535 0.84159 0.63908 0.0
H1015 H 0.95368 0.80061 0.68023 0.0
C1016 C 0.90504 0.8234 0.74988 0.0
C1017 C 0.88686 0.83542 0.75508 0.0
C1018 C 0.87714 0.84821 0.73899 0.0
C1019 C 0.8851 0.84885 0.71798 0.0
C1020 C 0.90284 0.83665 0.7133 0.0
C1021 C 0.91275 0.82416 0.72872 0.0
C1022 C 0.93095 0.81182 0.71902 0.0
C1023 C 0.95281 0.81865 0.72954 0.0
C1024 C 0.92661 0.78749 0.72088 0.0
C1025 C 0.92945 0.8191 0.69568 0.0
C1026 C 0.91321 0.83355 0.69286 0.0
C1027 C 0.90805 0.84196 0.6727 0.0
C1028 C 0.9196 0.83524 0.65482 0.0
C1029 C 0.93615 0.82022 0.65715 0.0
C1030 C 0.9413 0.81229 0.67796 0.0
H1031 H 0.03154 0.90421 0.4915 0.0
H1032 H 0.09252 0.87212 0.49074 0.0
H1033 H 0.08015 0.84835 0.52032 0.0
H1034 H 0.02297 0.90181 0.54933 0.0
H1035 H 0.99428 0.89656 0.54625 0.0
H1036 H 0.00854 0.91183 0.52608 0.0
H1037 H 0.99428 0.88523 0.49633 0.0
H1038 H 0.97992 0.86996 0.51637 0.0
H1039 H 0.99889 0.85702 0.49931 0.0
H1040 H 0.06087 0.82818 0.55003 0.0
H1041 H 0.03504 0.81081 0.57496 0.0
H1042 H 0.98609 0.85508 0.55461 0.0
C1043 C 0.04233 0.8923 0.49775 0.0
C1044 C 0.06301 0.89001 0.48909 0.0
C1045 C 0.0766 0.87403 0.49727 0.0
C1046 C 0.06976 0.86059 0.51409 0.0
C1047 C 0.04922 0.86325 0.52233 0.0
C1048 C 0.03563 0.87857 0.51426 0.0
C1049 C 0.01387 0.87731 0.52494 0.0
C1050 C 0.00968 0.89812 0.53739 0.0
C1051 C 0.99567 0.87206 0.50824 0.0
C1052 C 0.01727 0.85882 0.5402 0.0
C1053 C 0.03787 0.85113 0.53873 0.0
C1054 C 0.0447 0.83406 0.5513 0.0
C1055 C 0.02995 0.82435 0.56546 0.0
C1056 C 0.00855 0.83156 0.56665 0.0
C1057 C 0.00231 0.84916 0.55399 0.0
H1058 H 0.11792 0.76162 0.71 0.0
H1059 H 0.13704 0.70201 0.68064 0.0
H1060 H 0.10471 0.70206 0.65663 0.0
H1061 H 0.06003 0.7496 0.70828 0.0
H1062 H 0.05321 0.77677 0.70207 0.0
H1063 H 0.07743 0.77163 0.71756 0.0
H1064 H 0.10021 0.79306 0.68986 0.0
H1065 H 0.07608 0.79828 0.6743 0.0
H1066 H 0.09838 0.78566 0.66163 0.0
H1067 H 0.07154 0.70957 0.6345 0.0
H1068 H 0.03911 0.7235 0.61632 0.0
H1069 H 0.04108 0.778 0.66038 0.0
C1070 C 0.11528 0.74858 0.69853 0.0
C1071 C 0.12998 0.73176 0.69723 0.0
C1072 C 0.12586 0.71489 0.68212 0.0
C1073 C 0.1076 0.71483 0.66835 0.0
C1074 C 0.09352 0.73169 0.66997 0.0
C1075 C 0.09706 0.7482 0.68474 0.0
C1076 C 0.07956 0.76455 0.68294 0.0
C1077 C 0.0668 0.7657 0.70396 0.0
C1078 C 0.08913 0.78669 0.67681 0.0
C1079 C 0.06581 0.75482 0.66462 0.0
C1080 C 0.07416 0.73586 0.6574 0.0
C1081 C 0.06475 0.7243 0.64012 0.0
C1082 C 0.04636 0.73239 0.62987 0.0
C1083 C 0.03751 0.75179 0.63698 0.0
C1084 C 0.04733 0.76301 0.65471 0.0
H1085 H 0.97597 0.63555 0.5619 0.0
H1086 H 0.9156 0.63283 0.52498 0.0
H1087 H 0.90907 0.67032 0.53535 0.0
H1088 H 0.95741 0.66818 0.60584 0.0
H1089 H 0.98266 0.68316 0.60898 0.0
H1090 H 0.98237 0.65598 0.599 0.0
H1091 H 0.00263 0.66858 0.56483 0.0
H1092 H 0.00304 0.69577 0.57476 0.0
H1093 H 0.99155 0.68946 0.54837 0.0
H1094 H 0.90978 0.70841 0.54862 0.0
H1095 H 0.91748 0.74442 0.56422 0.0
H1096 H 0.97717 0.72205 0.59291 0.0
C1097 C 0.96143 0.64288 0.55593 0.0
C1098 C 0.94627 0.6313 0.54265 0.0
C1099 C 0.9273 0.64135 0.53536 0.0
C1100 C 0.92349 0.66264 0.5411 0.0
C1101 C 0.93876 0.67359 0.55422 0.0
C1102 C 0.95732 0.66406 0.5616 0.0
C1103 C 0.97121 0.67943 0.57538 0.0
C1104 C 0.97354 0.67119 0.59868 0.0
C1105 C 0.99342 0.68355 0.56522 0.0
C1106 C 0.95767 0.69916 0.57439 0.0
C1107 C 0.93902 0.69546 0.56212 0.0
C1108 C 0.92427 0.71148 0.55837 0.0
C1109 C 0.9288 0.73188 0.56729 0.0
C1110 C 0.94787 0.73605 0.57986 0.0
C1111 C 0.96235 0.71935 0.58356 0.0
H1112 H 0.77565 0.88503 0.20263 0.0
H1113 H 0.7803 0.83782 0.25361 0.0
H1114 H 0.80646 0.86167 0.27355 0.0
H1115 H 0.83284 0.90434 0.20579 0.0
H1116 H 0.82596 0.93172 0.20065 0.0
H1117 H 0.80937 0.91001 0.18933 0.0
H1118 H 0.77574 0.92544 0.20731 0.0
H1119 H 0.79219 0.94713 0.21868 0.0
H1120 H 0.77619 0.9302 0.23611 0.0
H1121 H 0.82831 0.89224 0.28993 0.0
H1122 H 0.84583 0.92682 0.30092 0.0
H1123 H 0.82823 0.95386 0.23878 0.0
C1124 C 0.7824 0.87961 0.21786 0.0
C1125 C 0.776 0.85954 0.22656 0.0
C1126 C 0.7852 0.85299 0.24651 0.0
C1127 C 0.80001 0.86646 0.25797 0.0
C1128 C 0.80567 0.8863 0.24913 0.0
C1129 C 0.79734 0.89277 0.22941 0.0
C1130 C 0.80524 0.91532 0.22403 0.0
C1131 C 0.81919 0.91534 0.20374 0.0
C1132 C 0.78621 0.9304 0.22139 0.0
C1133 C 0.81874 0.92079 0.24413 0.0
C1134 C 0.81884 0.90377 0.25836 0.0
C1135 C 0.82871 0.90552 0.27876 0.0
C1136 C 0.83855 0.92523 0.28488 0.0
C1137 C 0.83859 0.94289 0.27059 0.0
C1138 C 0.82887 0.94047 0.24982 0.0
H1139 H 0.78692 0.14735 0.24995 0.0
H1140 H 0.73845 0.13886 0.29921 0.0
H1141 H 0.75324 0.10388 0.30861 0.0
H1142 H 0.78752 0.09177 0.23281 0.0
H1143 H 0.81629 0.09202 0.22893 0.0
H1144 H 0.80167 0.1163 0.22554 0.0
H1145 H 0.82709 0.13558 0.25375 0.0
H1146 H 0.84182 0.11138 0.2572 0.0
H1147 H 0.83038 0.12421 0.28031 0.0
H1148 H 0.77348 0.07061 0.31351 0.0
H1149 H 0.79809 0.04052 0.3137 0.0
H1150 H 0.83398 0.06992 0.26135 0.0
C1151 C 0.77946 0.13814 0.26275 0.0
C1152 C 0.76138 0.1458 0.27373 0.0
C1153 C 0.75203 0.13319 0.29029 0.0
C1154 C 0.76039 0.11335 0.29584 0.0
C1155 C 0.77813 0.10627 0.2847 0.0
C1156 C 0.78759 0.11821 0.2685 0.0
C1157 C 0.80671 0.10686 0.25929 0.0
C1158 C 0.80281 0.10141 0.23521 0.0
C1159 C 0.82774 0.12031 0.26286 0.0
C1160 C 0.80657 0.08676 0.27299 0.0
C1161 C 0.7899 0.08683 0.2875 0.0
C1162 C 0.78656 0.07032 0.30218 0.0
C1163 C 0.80069 0.05329 0.30217 0.0
C1164 C 0.81801 0.05279 0.28753 0.0
C1165 C 0.82084 0.06975 0.27264 0.0
H1166 H 0.38145 0.94455 0.98065 0.0
H1167 H 0.35018 0.99982 0.00708 0.0
H1168 H 0.31466 0.98087 0.0025 0.0
H1169 H 0.33793 0.92765 0.94176 0.0
H1170 H 0.34214 0.89964 0.94669 0.0
H1171 H 0.36449 0.91879 0.94909 0.0
H1172 H 0.37226 0.90603 0.98825 0.0
H1173 H 0.35 0.88691 0.98597 0.0
H1174 H 0.351 0.90631 0.00771 0.0
H1175 H 0.28304 0.95406 0.99891 0.0
H1176 H 0.25859 0.92192 0.99705 0.0
H1177 H 0.31122 0.88447 0.97361 0.0
C1178 C 0.36712 0.95279 0.98527 0.0
C1179 C 0.36859 0.97365 0.99424 0.0
C1180 C 0.34942 0.98393 0.99991 0.0
C1181 C 0.32918 0.97328 0.99742 0.0
C1182 C 0.3284 0.95246 0.98904 0.0
C1183 C 0.3469 0.94241 0.98293 0.0
C1184 C 0.34209 0.91946 0.97602 0.0
C1185 C 0.34695 0.9162 0.95196 0.0
C1186 C 0.35457 0.90376 0.99035 0.0
C1187 C 0.3181 0.91785 0.97993 0.0
C1188 C 0.31036 0.93709 0.98711 0.0
C1189 C 0.28888 0.939 0.993 0.0
C1190 C 0.2751 0.92066 0.99189 0.0
C1191 C 0.28296 0.90067 0.98516 0.0
C1192 C 0.30463 0.8995 0.97869 0.0
H1193 H 0.24166 0.41531 0.3102 0.0
H1194 H 0.21808 0.34933 0.31559 0.0
H1195 H 0.18078 0.36091 0.30902 0.0
H1196 H 0.19821 0.43894 0.33788 0.0
H1197 H 0.19758 0.4622 0.32076 0.0
H1198 H 0.22248 0.44858 0.32502 0.0
H1199 H 0.22611 0.44383 0.28359 0.0
H1200 H 0.20123 0.45747 0.2792 0.0
H1201 H 0.2043 0.43099 0.26812 0.0
H1202 H 0.14592 0.37988 0.30284 0.0
H1203 H 0.11619 0.40475 0.29695 0.0
H1204 H 0.16273 0.45831 0.2963 0.0
C1205 C 0.22866 0.40328 0.31008 0.0
C1206 C 0.23282 0.38139 0.31337 0.0
C1207 C 0.21534 0.36615 0.3128 0.0
C1208 C 0.19409 0.37258 0.30922 0.0
C1209 C 0.19057 0.3943 0.30622 0.0
C1210 C 0.20738 0.40941 0.30656 0.0
C1211 C 0.19927 0.43178 0.30313 0.0
C1212 C 0.2047 0.44622 0.32288 0.0
C1213 C 0.20826 0.44159 0.28227 0.0
C1214 C 0.17523 0.42692 0.30098 0.0
C1215 C 0.17053 0.40522 0.30275 0.0
C1216 C 0.1494 0.39691 0.30138 0.0
C1217 C 0.13262 0.41117 0.29806 0.0
C1218 C 0.13708 0.4335 0.29617 0.0
C1219 C 0.15872 0.44136 0.29769 0.0
H1220 H 0.1715 0.02386 0.42191 0.0
H1221 H 0.14315 0.01761 0.48519 0.0
H1222 H 0.16991 0.04441 0.50002 0.0
H1223 H 0.22574 0.02724 0.44063 0.0
H1224 H 0.23454 0.04631 0.42061 0.0
H1225 H 0.21206 0.02809 0.41464 0.0
H1226 H 0.188 0.06017 0.40553 0.0
H1227 H 0.21044 0.07851 0.41144 0.0
H1228 H 0.18532 0.08128 0.42522 0.0
H1229 H 0.20045 0.07091 0.5081 0.0
H1230 H 0.23364 0.0939 0.50938 0.0
H1231 H 0.24267 0.08191 0.44093 0.0
C1232 C 0.17073 0.02845 0.43879 0.0
C1233 C 0.15523 0.01887 0.45242 0.0
C1234 C 0.15496 0.02482 0.47454 0.0
C1235 C 0.17 0.04006 0.48305 0.0
C1236 C 0.18523 0.04908 0.46923 0.0
C1237 C 0.18576 0.04344 0.44759 0.0
C1238 C 0.20458 0.0545 0.43651 0.0
C1239 C 0.22015 0.03805 0.42758 0.0
C1240 C 0.1966 0.06951 0.41862 0.0
C1241 C 0.2147 0.06705 0.45534 0.0
C1242 C 0.20316 0.06391 0.47401 0.0
C1243 C 0.20959 0.07356 0.49357 0.0
C1244 C 0.22846 0.0866 0.49412 0.0
C1245 C 0.24079 0.08969 0.47527 0.0
C1246 C 0.23363 0.07988 0.45563 0.0
H1247 H 0.73362 0.10299 0.76014 0.0
H1248 H 0.6858 0.13688 0.72244 0.0
H1249 H 0.65777 0.11021 0.73316 0.0
H1250 H 0.71429 0.05083 0.74829 0.0
H1251 H 0.71964 0.04046 0.77495 0.0
H1252 H 0.7357 0.06271 0.76503 0.0
H1253 H 0.72606 0.08541 0.79851 0.0
H1254 H 0.71005 0.06317 0.80862 0.0
H1255 H 0.69809 0.08885 0.8048 0.0
H1256 H 0.63553 0.07831 0.7461 0.0
H1257 H 0.62056 0.04466 0.76158 0.0
H1258 H 0.68268 0.03322 0.79237 0.0
C1259 C 0.71719 0.10518 0.7545 0.0
C1260 C 0.71198 0.1221 0.74041 0.0
C1261 C 0.6903 0.12392 0.73301 0.0
C1262 C 0.67422 0.10893 0.73913 0.0
C1263 C 0.68002 0.09235 0.75284 0.0
C1264 C 0.70095 0.09054 0.7606 0.0
C1265 C 0.70314 0.071 0.77475 0.0
C1266 C 0.71913 0.05533 0.76517 0.0
C1267 C 0.70972 0.0775 0.79805 0.0
C1268 C 0.68023 0.0619 0.7735 0.0
C1269 C 0.66712 0.0744 0.76076 0.0
C1270 C 0.64557 0.06855 0.75633 0.0
C1271 C 0.63723 0.0494 0.76514 0.0
C1272 C 0.65041 0.03645 0.77832 0.0
C1273 C 0.67211 0.04295 0.78264 0.0
H1274 H 0.43263 0.02719 0.49804 0.0
H1275 H 0.43386 0.0321 0.56813 0.0
H1276 H 0.40326 0.05648 0.56633 0.0
H1277 H 0.41968 0.08159 0.48731 0.0
H1278 H 0.4021 0.07498 0.46449 0.0
H1279 H 0.42415 0.05798 0.47129 0.0
H1280 H 0.39746 0.02526 0.47372 0.0
H1281 H 0.37535 0.04213 0.4668 0.0
H1282 H 0.37465 0.02659 0.49127 0.0
H1283 H 0.37246 0.08039 0.55682 0.0
H1284 H 0.34326 0.10127 0.54033 0.0
H1285 H 0.36202 0.08012 0.47655 0.0
C1286 C 0.42633 0.03319 0.51304 0.0
C1287 C 0.43569 0.02775 0.53323 0.0
C1288 C 0.42715 0.03625 0.55245 0.0
C1289 C 0.40971 0.05003 0.55161 0.0
C1290 C 0.40097 0.05515 0.53143 0.0
C1291 C 0.40895 0.04693 0.5125 0.0
C1292 C 0.39663 0.05486 0.49289 0.0
C1293 C 0.41153 0.06814 0.47813 0.0
C1294 C 0.38535 0.03609 0.48045 0.0
C1295 C 0.38043 0.06879 0.50375 0.0
C1296 C 0.38323 0.06881 0.52597 0.0
C1297 C 0.37012 0.08049 0.53942 0.0
C1298 C 0.3536 0.09234 0.5299 0.0
C1299 C 0.35032 0.09237 0.50714 0.0
C1300 C 0.36406 0.08048 0.49399 0.0
H1301 H 0.63108 0.48081 0.54302 0.0
H1302 H 0.57204 0.4516 0.51553 0.0
H1303 H 0.59199 0.41951 0.50566 0.0
H1304 H 0.66631 0.46175 0.50212 0.0
H1305 H 0.68843 0.45749 0.52083 0.0
H1306 H 0.66934 0.47787 0.52635 0.0
H1307 H 0.66159 0.46063 0.56354 0.0
H1308 H 0.68062 0.44016 0.55811 0.0
H1309 H 0.65319 0.43274 0.56473 0.0
H1310 H 0.61851 0.39067 0.49836 0.0
H1311 H 0.64965 0.36749 0.49381 0.0
H1312 H 0.69159 0.41593 0.52513 0.0
C1313 C 0.62232 0.46776 0.53478 0.0
C1314 C 0.59989 0.4688 0.53015 0.0
C1315 C 0.5891 0.45114 0.51961 0.0
C1316 C 0.60033 0.43286 0.5138 0.0
C1317 C 0.62239 0.43244 0.51858 0.0
C1318 C 0.63329 0.44944 0.52879 0.0
C1319 C 0.65708 0.44506 0.53183 0.0
C1320 C 0.67111 0.46152 0.51955 0.0
C1321 C 0.66349 0.44462 0.55599 0.0
C1322 C 0.65789 0.42296 0.52166 0.0
C1323 C 0.6377 0.41594 0.51418 0.0
C1324 C 0.6344 0.39601 0.50416 0.0
C1325 C 0.65221 0.38294 0.50166 0.0
C1326 C 0.67311 0.38984 0.50909 0.0
C1327 C 0.67586 0.41015 0.51926 0.0
H1328 H 0.74914 0.26889 0.35726 0.0
H1329 H 0.69088 0.29899 0.33438 0.0
H1330 H 0.68911 0.31884 0.36904 0.0
H1331 H 0.7334 0.26257 0.41288 0.0
H1332 H 0.7603 0.26832 0.4235 0.0
H1333 H 0.75654 0.2563 0.39708 0.0
H1334 H 0.77963 0.28716 0.38042 0.0
H1335 H 0.78346 0.29927 0.40677 0.0
H1336 H 0.77225 0.31453 0.38483 0.0
H1337 H 0.6941 0.33562 0.40659 0.0
H1338 H 0.70614 0.34858 0.44298 0.0
H1339 H 0.761 0.30713 0.44044 0.0
C1340 C 0.73586 0.27946 0.35961 0.0
C1341 C 0.72011 0.28234 0.34315 0.0
C1342 C 0.70323 0.29667 0.34672 0.0
C1343 C 0.70202 0.30791 0.36639 0.0
C1344 C 0.71784 0.30467 0.38229 0.0
C1345 C 0.73446 0.29082 0.37905 0.0
C1346 C 0.74976 0.29052 0.39839 0.0
C1347 C 0.75 0.26809 0.40856 0.0
C1348 C 0.77262 0.29834 0.39223 0.0
C1349 C 0.73924 0.30642 0.41303 0.0
C1350 C 0.72078 0.31438 0.40359 0.0
C1351 C 0.70853 0.32947 0.41414 0.0
C1352 C 0.71546 0.33671 0.43481 0.0
C1353 C 0.73452 0.32892 0.44459 0.0
C1354 C 0.74637 0.31347 0.43348 0.0
H1355 H 0.50244 0.97499 0.92371 0.0
H1356 H 0.5314 0.03691 0.94154 0.0
H1357 H 0.5553 0.03525 0.91 0.0
H1358 H 0.55149 0.95156 0.90779 0.0
H1359 H 0.53918 0.93618 0.88577 0.0
H1360 H 0.52348 0.94291 0.90889 0.0
H1361 H 0.49534 0.96065 0.88372 0.0
H1362 H 0.51097 0.95397 0.86052 0.0
H1363 H 0.50411 0.9814 0.86541 0.0
H1364 H 0.57586 0.02682 0.87658 0.0
H1365 H 0.59362 0.01109 0.84508 0.0
H1366 H 0.55253 0.95374 0.85026 0.0
C1367 C 0.51368 0.98825 0.92078 0.0
C1368 C 0.51509 0.00614 0.93485 0.0
C1369 C 0.5302 0.02308 0.93086 0.0
C1370 C 0.54372 0.02231 0.91299 0.0
C1371 C 0.54203 0.00439 0.89944 0.0
C1372 C 0.52753 0.98758 0.90322 0.0
C1373 C 0.52974 0.96969 0.88685 0.0
C1374 C 0.53637 0.94886 0.898 0.0
C1375 C 0.50879 0.96623 0.87332 0.0
C1376 C 0.5478 0.97902 0.87334 0.0
C1377 C 0.55446 0.99916 0.88069 0.0
C1378 C 0.57082 0.01104 0.87069 0.0
C1379 C 0.58077 0.002 0.85279 0.0
C1380 C 0.57452 0.98117 0.8453 0.0
C1381 C 0.55775 0.96964 0.85571 0.0
H1382 H 0.3285 0.25941 0.38418 0.0
H1383 H 0.29784 0.30173 0.42925 0.0
H1384 H 0.29218 0.27138 0.45436 0.0
H1385 H 0.29294 0.21453 0.39199 0.0
H1386 H 0.31355 0.19497 0.38956 0.0
H1387 H 0.31633 0.22026 0.37587 0.0
H1388 H 0.35356 0.22746 0.3949 0.0
H1389 H 0.35093 0.20215 0.40862 0.0
H1390 H 0.35564 0.22653 0.424 0.0
H1391 H 0.28953 0.23624 0.4742 0.0
H1392 H 0.28857 0.19872 0.48666 0.0
H1393 H 0.32002 0.17932 0.42788 0.0
C1394 C 0.3209 0.26233 0.39949 0.0
C1395 C 0.31376 0.28289 0.40493 0.0
C1396 C 0.3034 0.28605 0.42484 0.0
C1397 C 0.30021 0.26896 0.4392 0.0
C1398 C 0.30734 0.24884 0.43328 0.0
C1399 C 0.31739 0.24544 0.41386 0.0
C1400 C 0.32262 0.22211 0.41087 0.0
C1401 C 0.31064 0.2124 0.39089 0.0
C1402 C 0.34714 0.21941 0.40953 0.0
C1403 C 0.31387 0.21285 0.43161 0.0
C1404 C 0.3053 0.22855 0.44441 0.0
C1405 C 0.29621 0.22382 0.46432 0.0
C1406 C 0.29577 0.20246 0.47126 0.0
C1407 C 0.30418 0.18606 0.45823 0.0
C1408 C 0.3134 0.19145 0.43819 0.0
H1409 H 0.46318 0.46729 0.88523 0.0
H1410 H 0.51622 0.47531 0.84086 0.0
H1411 H 0.4904 0.48443 0.81168 0.0
H1412 H 0.42631 0.4418 0.84732 0.0
H1413 H 0.40295 0.4545 0.85779 0.0
H1414 H 0.42577 0.4497 0.87539 0.0
H1415 H 0.42841 0.49008 0.88554 0.0
H1416 H 0.4056 0.495 0.86795 0.0
H1417 H 0.43076 0.50976 0.86442 0.0
H1418 H 0.45844 0.49183 0.78697 0.0
H1419 H 0.4229 0.4964 0.76884 0.0
H1420 H 0.39117 0.48242 0.82938 0.0
C1421 C 0.46941 0.47088 0.86938 0.0
C1422 C 0.49178 0.47069 0.86543 0.0
C1423 C 0.49921 0.47573 0.84444 0.0
C1424 C 0.48465 0.4808 0.8277 0.0
C1425 C 0.46271 0.48074 0.83216 0.0
C1426 C 0.45513 0.47588 0.85249 0.0
C1427 C 0.43076 0.47642 0.85298 0.0
C1428 C 0.42087 0.45429 0.8587 0.0
C1429 C 0.42346 0.49386 0.86865 0.0
C1430 C 0.42579 0.48217 0.82971 0.0
C1431 C 0.4444 0.48471 0.81795 0.0
C1432 C 0.44375 0.48991 0.79604 0.0
C1433 C 0.42351 0.49249 0.78588 0.0
C1434 C 0.40424 0.48975 0.79765 0.0
C1435 C 0.40555 0.4846 0.81987 0.0
H1436 H 0.71159 0.74616 0.0966 0.0
H1437 H 0.75891 0.7243 0.14356 0.0
H1438 H 0.77053 0.69716 0.11733 0.0
H1439 H 0.69667 0.69442 0.07436 0.0
H1440 H 0.69367 0.70404 0.04707 0.0
H1441 H 0.68909 0.72165 0.06957 0.0
H1442 H 0.71741 0.74907 0.05491 0.0
H1443 H 0.72208 0.73155 0.03235 0.0
H1444 H 0.74436 0.74057 0.04967 0.0
H1445 H 0.77725 0.67273 0.08578 0.0
H1446 H 0.77817 0.65231 0.05154 0.0
H1447 H 0.72649 0.69033 0.02516 0.0
C1448 C 0.72452 0.73578 0.10133 0.0
C1449 C 0.73437 0.73737 0.12214 0.0
C1450 C 0.75098 0.72323 0.12779 0.0
C1451 C 0.75777 0.70785 0.11297 0.0
C1452 C 0.74774 0.70679 0.09258 0.0
C1453 C 0.73145 0.72034 0.08677 0.0
C1454 C 0.72321 0.7158 0.06391 0.0
C1455 C 0.69924 0.70854 0.06373 0.0
C1456 C 0.727 0.73542 0.04935 0.0
C1457 C 0.73749 0.69761 0.05771 0.0
C1458 C 0.75153 0.69267 0.07447 0.0
C1459 C 0.76631 0.67645 0.07256 0.0
C1460 C 0.76671 0.66495 0.05302 0.0
C1461 C 0.75239 0.66969 0.03563 0.0
C1462 C 0.73763 0.68628 0.03811 0.0
H1463 H 0.99345 0.01103 0.14853 0.0
H1464 H 0.95358 0.05242 0.10949 0.0
H1465 H 0.92422 0.04813 0.1357 0.0
H1466 H 0.95012 0.97469 0.16585 0.0
H1467 H 0.9616 0.97178 0.19265 0.0
H1468 H 0.97896 0.97715 0.17016 0.0
H1469 H 0.99548 0.01057 0.19024 0.0
H1470 H 0.97816 0.00533 0.21276 0.0
H1471 H 0.97792 0.03101 0.19957 0.0
H1472 H 0.89997 0.04105 0.16739 0.0
H1473 H 0.88242 0.03087 0.20154 0.0
H1474 H 0.93822 0.99417 0.21977 0.0
C1475 C 0.97853 0.01917 0.14545 0.0
C1476 C 0.97583 0.03202 0.12688 0.0
C1477 C 0.95595 0.04223 0.1234 0.0
C1478 C 0.93921 0.03999 0.13826 0.0
C1479 C 0.94253 0.02742 0.15651 0.0
C1480 C 0.96166 0.01708 0.16009 0.0
C1481 C 0.96135 0.00492 0.18121 0.0
C1482 C 0.96311 0.9807 0.17722 0.0
C1483 C 0.97929 0.01348 0.19687 0.0
C1484 C 0.93917 0.01027 0.18912 0.0
C1485 C 0.92854 0.02323 0.17464 0.0
C1486 C 0.90808 0.03077 0.17877 0.0
C1487 C 0.89826 0.02493 0.19824 0.0
C1488 C 0.90888 0.01165 0.21332 0.0
C1489 C 0.92957 0.00419 0.20854 0.0
H1490 H 0.2857 0.76137 0.13126 0.0
H1491 H 0.224 0.76808 0.16213 0.0
H1492 H 0.21258 0.79248 0.13287 0.0
H1493 H 0.29147 0.81669 0.11195 0.0
H1494 H 0.30374 0.80835 0.08723 0.0
H1495 H 0.30731 0.79297 0.11154 0.0
H1496 H 0.2923 0.75892 0.09139 0.0
H1497 H 0.28855 0.77419 0.06711 0.0
H1498 H 0.26605 0.7593 0.07829 0.0
H1499 H 0.2074 0.81467 0.09834 0.0
H1500 H 0.20906 0.83187 0.06228 0.0
H1501 H 0.27445 0.81016 0.05552 0.0
C1502 C 0.27 0.7684 0.13229 0.0
C1503 C 0.25584 0.76294 0.14914 0.0
C1504 C 0.23513 0.77198 0.14935 0.0
C1505 C 0.22855 0.78594 0.13287 0.0
C1506 C 0.24289 0.79074 0.11634 0.0
C1507 C 0.26323 0.78227 0.11608 0.0
C1508 C 0.27529 0.78884 0.09608 0.0
C1509 C 0.29565 0.80253 0.10206 0.0
C1510 C 0.28086 0.76914 0.08242 0.0
C1511 C 0.25846 0.80204 0.08485 0.0
C1512 C 0.2399 0.80318 0.09675 0.0
C1513 C 0.22195 0.814 0.08901 0.0
C1514 C 0.22302 0.82371 0.06852 0.0
C1515 C 0.24185 0.82236 0.05602 0.0
C1516 C 0.25978 0.81155 0.06457 0.0
H1517 H 0.03235 0.46704 0.12353 0.0
H1518 H 0.05607 0.53153 0.1096 0.0
H1519 H 0.06971 0.53552 0.14733 0.0
H1520 H 0.01416 0.47863 0.17695 0.0
H1521 H 0.02186 0.45327 0.18802 0.0
H1522 H 0.01459 0.45521 0.15976 0.0
H1523 H 0.05133 0.43977 0.14941 0.0
H1524 H 0.05869 0.43769 0.17764 0.0
H1525 H 0.07603 0.45254 0.15962 0.0
H1526 H 0.08114 0.5323 0.18617 0.0
H1527 H 0.08864 0.52264 0.22412 0.0
H1528 H 0.05619 0.46066 0.21331 0.0
C1529 C 0.0406 0.4819 0.12843 0.0
C1530 C 0.04329 0.49897 0.11374 0.0
C1531 C 0.05382 0.51833 0.12072 0.0
C1532 C 0.06165 0.52071 0.14205 0.0
C1533 C 0.05862 0.50363 0.15619 0.0
C1534 C 0.04827 0.48464 0.14974 0.0
C1535 C 0.04664 0.46899 0.16831 0.0
C1536 C 0.0229 0.46373 0.17357 0.0
C1537 C 0.05891 0.44854 0.16345 0.0
C1538 C 0.05777 0.48214 0.1862 0.0
C1539 C 0.06466 0.50201 0.17881 0.0
C1540 C 0.07574 0.51682 0.19219 0.0
C1541 C 0.07994 0.51117 0.21372 0.0
C1542 C 0.07291 0.49094 0.22172 0.0
C1543 C 0.06159 0.47631 0.20774 0.0
H1544 H 0.36366 0.73608 0.26424 0.0
H1545 H 0.35576 0.66964 0.28364 0.0
H1546 H 0.38612 0.67468 0.30996 0.0
H1547 H 0.42042 0.73855 0.26641 0.0
H1548 H 0.42255 0.76563 0.27672 0.0
H1549 H 0.39937 0.75707 0.26052 0.0
H1550 H 0.37405 0.76845 0.29111 0.0
H1551 H 0.39718 0.77711 0.30741 0.0
H1552 H 0.37787 0.75784 0.31793 0.0
H1553 H 0.41869 0.68675 0.33301 0.0
H1554 H 0.45078 0.70477 0.35043 0.0
H1555 H 0.43657 0.76321 0.31588 0.0
C1556 C 0.36802 0.72269 0.27431 0.0
C1557 C 0.35731 0.70248 0.27191 0.0
C1558 C 0.36387 0.68523 0.28507 0.0
C1559 C 0.381 0.68797 0.30015 0.0
C1560 C 0.39136 0.70807 0.30193 0.0
C1561 C 0.38506 0.72514 0.28939 0.0
C1562 C 0.39937 0.74484 0.2937 0.0
C1563 C 0.41112 0.75193 0.27312 0.0
C1564 C 0.38634 0.76314 0.3031 0.0
C1565 C 0.41491 0.73614 0.31041 0.0
C1566 C 0.40999 0.71495 0.31509 0.0
C1567 C 0.42259 0.7034 0.32958 0.0
C1568 C 0.44078 0.71376 0.3394 0.0
C1569 C 0.44621 0.73542 0.33458 0.0
C1570 C 0.43288 0.74668 0.32003 0.0
H1571 H 0.02186 0.40639 0.95912 0.0
H1572 H 0.97418 0.3876 0.00662 0.0
H1573 H 0.9713 0.35148 0.99021 0.0
H1574 H 0.9942 0.38124 0.91515 0.0
H1575 H 0.01841 0.37381 0.90169 0.0
H1576 H 0.01886 0.39706 0.91904 0.0
H1577 H 0.05042 0.38154 0.94156 0.0
H1578 H 0.04998 0.35814 0.92432 0.0
H1579 H 0.0473 0.35521 0.95314 0.0
H1580 H 0.9724 0.31764 0.96722 0.0
H1581 H 0.97488 0.29063 0.93791 0.0
H1582 H 0.0191 0.33331 0.90405 0.0
C1583 C 0.0107 0.39483 0.96615 0.0
C1584 C 0.99833 0.40003 0.98431 0.0
C1585 C 0.98424 0.38405 0.99303 0.0
C1586 C 0.9824 0.36345 0.98375 0.0
C1587 C 0.99462 0.35908 0.96566 0.0
C1588 C 0.00834 0.37442 0.95687 0.0
C1589 C 0.0183 0.36645 0.93633 0.0
C1590 C 0.01206 0.38047 0.91691 0.0
C1591 C 0.04296 0.36527 0.93901 0.0
C1592 C 0.00771 0.34434 0.93465 0.0
C1593 C 0.99447 0.34014 0.95195 0.0
C1594 C 0.98278 0.32075 0.95365 0.0
C1595 C 0.98434 0.30549 0.93699 0.0
C1596 C 0.99712 0.30996 0.91874 0.0
C1597 C 0.00916 0.3295 0.91781 0.0
H1598 H 0.61714 0.78477 0.24048 0.0
H1599 H 0.66729 0.75061 0.27437 0.0
H1600 H 0.64141 0.74084 0.30306 0.0
H1601 H 0.594 0.80694 0.28674 0.0
H1602 H 0.56668 0.80467 0.27618 0.0
H1603 H 0.58883 0.80759 0.25795 0.0
H1604 H 0.57598 0.77271 0.23788 0.0
H1605 H 0.55375 0.76969 0.25606 0.0
H1606 H 0.5723 0.74828 0.25296 0.0
H1607 H 0.60941 0.73545 0.32848 0.0
H1608 H 0.57535 0.7368 0.34885 0.0
H1609 H 0.54742 0.77527 0.29786 0.0
C1610 C 0.62261 0.77489 0.25372 0.0
C1611 C 0.64414 0.76824 0.25509 0.0
C1612 C 0.65083 0.75587 0.27303 0.0
C1613 C 0.63622 0.75016 0.28931 0.0
C1614 C 0.61506 0.75706 0.28744 0.0
C1615 C 0.60837 0.76923 0.27009 0.0
C1616 C 0.5852 0.77561 0.27221 0.0
C1617 C 0.5836 0.80015 0.27334 0.0
C1618 C 0.57097 0.76599 0.25368 0.0
C1619 C 0.57986 0.76533 0.29358 0.0
C1620 C 0.59713 0.75448 0.30211 0.0
C1621 C 0.5958 0.7439 0.32191 0.0
C1622 C 0.5764 0.7447 0.33334 0.0
C1623 C 0.55878 0.75622 0.32501 0.0
C1624 C 0.56062 0.76643 0.30478 0.0
H1625 H 0.03565 0.108 0.97416 0.0
H1626 H 0.99208 0.13043 0.02278 0.0
H1627 H 0.97997 0.15869 0.99792 0.0
H1628 H 0.05241 0.15918 0.9559 0.0
H1629 H 0.054 0.1516 0.92781 0.0
H1630 H 0.05783 0.13191 0.94858 0.0
H1631 H 0.02721 0.10783 0.93128 0.0
H1632 H 0.02333 0.12744 0.91039 0.0
H1633 H 0.00091 0.11867 0.92661 0.0
H1634 H 0.97404 0.18559 0.96874 0.0
H1635 H 0.97514 0.20992 0.93748 0.0
H1636 H 0.02301 0.17051 0.90776 0.0
C1637 C 0.02325 0.11861 0.97936 0.0
C1638 C 0.01471 0.11701 0.00034 0.0
C1639 C 0.99887 0.13147 0.00679 0.0
C1640 C 0.99183 0.14749 0.99276 0.0
C1641 C 0.00081 0.14887 0.97232 0.0
C1642 C 0.01617 0.13484 0.9656 0.0
C1643 C 0.02414 0.14065 0.94328 0.0
C1644 C 0.04854 0.14617 0.94395 0.0
C1645 C 0.01856 0.12257 0.92692 0.0
C1646 C 0.0111 0.16032 0.93867 0.0
C1647 C 0.9976 0.16463 0.95555 0.0
C1648 C 0.98443 0.1823 0.95534 0.0
C1649 C 0.9852 0.19605 0.9375 0.0
C1650 C 0.99914 0.19216 0.9201 0.0
C1651 C 0.01209 0.17389 0.9207 0.0
H1652 H 0.3589 0.32714 0.23559 0.0
H1653 H 0.38758 0.28941 0.28666 0.0
H1654 H 0.41168 0.27312 0.26021 0.0
H1655 H 0.35976 0.28535 0.19414 0.0
H1656 H 0.36579 0.30392 0.1727 0.0
H1657 H 0.35069 0.31247 0.19563 0.0
H1658 H 0.37865 0.34364 0.20268 0.0
H1659 H 0.39385 0.33517 0.17982 0.0
H1660 H 0.40683 0.33782 0.2061 0.0
H1661 H 0.43422 0.26292 0.22888 0.0
H1662 H 0.45182 0.25704 0.19394 0.0
H1663 H 0.40691 0.2995 0.1626 0.0
C1664 C 0.37022 0.31538 0.2411 0.0
C1665 C 0.37149 0.30947 0.26308 0.0
C1666 C 0.38634 0.29397 0.26981 0.0
C1667 C 0.40011 0.28472 0.25495 0.0
C1668 C 0.39856 0.29095 0.23339 0.0
C1669 C 0.38382 0.3057 0.22639 0.0
C1670 C 0.38532 0.30937 0.20226 0.0
C1671 C 0.36413 0.30235 0.19049 0.0
C1672 C 0.39154 0.3329 0.19744 0.0
C1673 C 0.40344 0.29463 0.19686 0.0
C1674 C 0.41094 0.2843 0.2151 0.0
C1675 C 0.42831 0.2707 0.21443 0.0
C1676 C 0.43825 0.26753 0.19456 0.0
C1677 C 0.43058 0.27767 0.1756 0.0
C1678 C 0.41287 0.29129 0.1768 0.0
H1679 H 0.49954 0.37553 0.99581 0.0
H1680 H 0.55664 0.40165 0.02965 0.0
H1681 H 0.5483 0.37891 0.06115 0.0
H1682 H 0.46542 0.37158 0.04289 0.0
H1683 H 0.45229 0.3468 0.03396 0.0
H1684 H 0.46235 0.36571 0.01438 0.0
H1685 H 0.48517 0.33617 0.99731 0.0
H1686 H 0.47518 0.31719 0.01682 0.0
H1687 H 0.50387 0.32188 0.01416 0.0
H1688 H 0.53494 0.35184 0.08805 0.0
H1689 H 0.51669 0.32328 0.10907 0.0
H1690 H 0.46784 0.31541 0.05801 0.0
C1691 C 0.51026 0.37648 0.00987 0.0
C1692 C 0.5287 0.3904 0.01033 0.0
C1693 C 0.54226 0.39131 0.02908 0.0
C1694 C 0.53772 0.37838 0.04699 0.0
C1695 C 0.51947 0.36476 0.04597 0.0
C1696 C 0.50587 0.36381 0.02796 0.0
C1697 C 0.48746 0.34761 0.0309 0.0
C1698 C 0.46559 0.35859 0.03051 0.0
C1699 C 0.48796 0.32965 0.01378 0.0
C1700 C 0.493 0.33938 0.05326 0.0
C1701 C 0.51154 0.34946 0.06166 0.0
C1702 C 0.52029 0.34397 0.08174 0.0
C1703 C 0.50984 0.3277 0.09353 0.0
C1704 C 0.49077 0.3172 0.08525 0.0
C1705 C 0.48223 0.3233 0.0649 0.0
H1706 H 0.63457 0.25387 0.2004 0.0
H1707 H 0.62116 0.20119 0.24417 0.0
H1708 H 0.58311 0.19962 0.23138 0.0
H1709 H 0.58443 0.27986 0.20667 0.0
H1710 H 0.58212 0.28765 0.17871 0.0
H1711 H 0.60839 0.28449 0.19107 0.0
H1712 H 0.61777 0.25729 0.16113 0.0
H1713 H 0.59156 0.26044 0.14862 0.0
H1714 H 0.60015 0.23415 0.15616 0.0
H1715 H 0.54661 0.20382 0.21399 0.0
H1716 H 0.51404 0.21338 0.19307 0.0
H1717 H 0.55118 0.26334 0.1605 0.0
C1718 C 0.62368 0.24186 0.20713 0.0
C1719 C 0.63082 0.22766 0.22331 0.0
C1720 C 0.61598 0.21238 0.23194 0.0
C1721 C 0.59438 0.2113 0.22472 0.0
C1722 C 0.58785 0.22562 0.20886 0.0
C1723 C 0.60204 0.24059 0.20014 0.0
C1724 C 0.59083 0.25425 0.18344 0.0
C1725 C 0.59148 0.27796 0.19039 0.0
C1726 C 0.60066 0.25135 0.16101 0.0
C1727 C 0.5681 0.2446 0.18412 0.0
C1728 C 0.56676 0.22809 0.19888 0.0
C1729 C 0.54746 0.2167 0.20238 0.0
C1730 C 0.52904 0.22228 0.19041 0.0
C1731 C 0.53002 0.23912 0.17515 0.0
C1732 C 0.54986 0.25042 0.17206 0.0
H1733 H 0.43234 0.11532 0.04661 0.0
H1734 H 0.50041 0.10114 0.04987 0.0
H1735 H 0.50848 0.13609 0.06765 0.0
H1736 H 0.44025 0.17151 0.03433 0.0
H1737 H 0.41792 0.1799 0.05022 0.0
H1738 H 0.41732 0.15351 0.03824 0.0
H1739 H 0.41132 0.13669 0.07595 0.0
H1740 H 0.41193 0.16303 0.08806 0.0
H1741 H 0.43016 0.14316 0.09781 0.0
H1742 H 0.50918 0.17174 0.08571 0.0
H1743 H 0.50291 0.20743 0.10108 0.0
H1744 H 0.43455 0.19973 0.08477 0.0
C1745 C 0.4489 0.11964 0.05115 0.0
C1746 C 0.46579 0.10566 0.0469 0.0
C1747 C 0.48731 0.11179 0.05285 0.0
C1748 C 0.49202 0.13151 0.06303 0.0
C1749 C 0.47505 0.14498 0.06696 0.0
C1750 C 0.45395 0.13946 0.06106 0.0
C1751 C 0.43888 0.15725 0.06664 0.0
C1752 C 0.42796 0.16606 0.04614 0.0
C1753 C 0.42208 0.14957 0.0831 0.0
C1754 C 0.45484 0.17356 0.07666 0.0
C1755 C 0.47556 0.16602 0.07683 0.0
C1756 C 0.49305 0.1779 0.08559 0.0
C1757 C 0.4893 0.19814 0.09433 0.0
C1758 C 0.46826 0.20641 0.09404 0.0
C1759 C 0.45083 0.1939 0.08507 0.0
H1760 H 0.25025 0.35704 0.73858 0.0
H1761 H 0.25801 0.35847 0.66903 0.0
H1762 H 0.28313 0.38994 0.67307 0.0
H1763 H 0.24958 0.4131 0.74627 0.0
H1764 H 0.26425 0.41309 0.77175 0.0
H1765 H 0.24809 0.38988 0.76346 0.0
H1766 H 0.28146 0.36613 0.76766 0.0
H1767 H 0.29771 0.38927 0.77607 0.0
H1768 H 0.3058 0.3732 0.7535 0.0
H1769 H 0.30649 0.4222 0.68479 0.0
H1770 H 0.32564 0.45281 0.70323 0.0
H1771 H 0.30199 0.43007 0.7649 0.0
C1772 C 0.25754 0.36374 0.72424 0.0
C1773 C 0.25226 0.35529 0.7035 0.0
C1774 C 0.26176 0.3648 0.68507 0.0
C1775 C 0.27611 0.38259 0.68721 0.0
C1776 C 0.28076 0.3907 0.70789 0.0
C1777 C 0.27176 0.38156 0.72607 0.0
C1778 C 0.27861 0.39386 0.74636 0.0
C1779 C 0.25896 0.40303 0.75761 0.0
C1780 C 0.29168 0.37977 0.7618 0.0
C1781 C 0.29271 0.41147 0.73674 0.0
C1782 C 0.2939 0.40933 0.71456 0.0
C1783 C 0.30574 0.42398 0.70218 0.0
C1784 C 0.31656 0.44132 0.71278 0.0
C1785 C 0.31532 0.4439 0.7355 0.0
C1786 C 0.30329 0.42863 0.74752 0.0
H1787 H 0.26774 0.64016 0.73151 0.0
H1788 H 0.25071 0.64869 0.79877 0.0
H1789 H 0.26985 0.61609 0.80838 0.0
H1790 H 0.2624 0.58294 0.7302 0.0
H1791 H 0.2853 0.57921 0.71322 0.0
H1792 H 0.27046 0.60349 0.71135 0.0
H1793 H 0.30572 0.62599 0.71883 0.0
H1794 H 0.32068 0.60177 0.72071 0.0
H1795 H 0.32179 0.62083 0.74276 0.0
H1796 H 0.28948 0.58243 0.81088 0.0
H1797 H 0.30933 0.54932 0.80633 0.0
H1798 H 0.31548 0.56242 0.73775 0.0
C1799 C 0.2682 0.63526 0.74828 0.0
C1800 C 0.25743 0.6469 0.76433 0.0
C1801 C 0.25834 0.63983 0.78607 0.0
C1802 C 0.26936 0.62142 0.79175 0.0
C1803 C 0.2796 0.61027 0.77557 0.0
C1804 C 0.27926 0.61688 0.7543 0.0
C1805 C 0.29153 0.60167 0.74014 0.0
C1806 C 0.27652 0.59121 0.7227 0.0
C1807 C 0.31109 0.61326 0.73001 0.0
C1808 C 0.2986 0.58542 0.75682 0.0
C1809 C 0.29148 0.59079 0.77712 0.0
C1810 C 0.29526 0.57808 0.7951 0.0
C1811 C 0.30652 0.55925 0.79231 0.0
C1812 C 0.31401 0.55325 0.77169 0.0
C1813 C 0.31014 0.56667 0.75374 0.0
H1814 H 0.89319 0.45581 0.5106 0.0
H1815 H 0.85661 0.51379 0.5069 0.0
H1816 H 0.82255 0.49184 0.50482 0.0
H1817 H 0.85975 0.4246 0.47334 0.0
H1818 H 0.86272 0.40005 0.48817 0.0
H1819 H 0.88392 0.42048 0.48932 0.0
H1820 H 0.88208 0.42122 0.53119 0.0
H1821 H 0.86086 0.40081 0.53016 0.0
H1822 H 0.85666 0.42589 0.54381 0.0
H1823 H 0.79236 0.46299 0.50427 0.0
H1824 H 0.76904 0.42995 0.50346 0.0
H1825 H 0.82621 0.39158 0.5069 0.0
C1826 C 0.87801 0.4639 0.50947 0.0
C1827 C 0.87747 0.48646 0.50902 0.0
C1828 C 0.85732 0.49648 0.50715 0.0
C1829 C 0.83794 0.48416 0.50606 0.0
C1830 C 0.83905 0.46189 0.50671 0.0
C1831 C 0.85862 0.4519 0.50823 0.0
C1832 C 0.85559 0.42779 0.50837 0.0
C1833 C 0.86612 0.41764 0.48862 0.0
C1834 C 0.86431 0.41838 0.52965 0.0
C1835 C 0.83125 0.42571 0.50681 0.0
C1836 C 0.82191 0.4455 0.50596 0.0
C1837 C 0.79953 0.44742 0.50482 0.0
C1838 C 0.78642 0.42859 0.50442 0.0
C1839 C 0.79579 0.40819 0.50501 0.0
C1840 C 0.8185 0.4069 0.50626 0.0
H1841 H 0.74786 0.87246 0.83433 0.0
H1842 H 0.7894 0.92892 0.82516 0.0
H1843 H 0.75746 0.94976 0.8154 0.0
H1844 H 0.7111 0.88167 0.79082 0.0
H1845 H 0.68757 0.87221 0.80503 0.0
H1846 H 0.71363 0.8618 0.81169 0.0
H1847 H 0.70932 0.87289 0.85179 0.0
H1848 H 0.68316 0.88321 0.8453 0.0
H1849 H 0.7036 0.90029 0.85832 0.0
H1850 H 0.72114 0.96416 0.80579 0.0
H1851 H 0.6829 0.97153 0.79817 0.0
H1852 H 0.66498 0.90581 0.81452 0.0
C1853 C 0.75025 0.88929 0.83062 0.0
C1854 C 0.77117 0.89905 0.83051 0.0
C1855 C 0.77358 0.92102 0.82511 0.0
C1856 C 0.75552 0.93302 0.81964 0.0
C1857 C 0.73518 0.92282 0.81972 0.0
C1858 C 0.73243 0.9015 0.82519 0.0
C1859 C 0.70885 0.89433 0.82385 0.0
C1860 C 0.70508 0.87644 0.80683 0.0
C1861 C 0.70076 0.88727 0.84614 0.0
C1862 C 0.69876 0.91495 0.8167 0.0
C1863 C 0.71423 0.93117 0.81437 0.0
C1864 C 0.70886 0.95161 0.80765 0.0
C1865 C 0.68707 0.95561 0.80332 0.0
C1866 C 0.67088 0.93927 0.80579 0.0
C1867 C 0.67692 0.91867 0.81253 0.0
H1868 H 0.64707 0.49489 0.9688 0.0
H1869 H 0.59766 0.54137 0.95622 0.0
H1870 H 0.62382 0.57057 0.96594 0.0
H1871 H 0.67766 0.52413 0.01179 0.0
H1872 H 0.70322 0.51627 0.00141 0.0
H1873 H 0.67962 0.49887 0.9978 0.0
H1874 H 0.68517 0.49845 0.95633 0.0
H1875 H 0.7088 0.51569 0.95983 0.0
H1876 H 0.68708 0.5235 0.94201 0.0
H1877 H 0.65651 0.59511 0.97403 0.0
H1878 H 0.69322 0.61231 0.97543 0.0
H1879 H 0.72127 0.5497 0.97807 0.0
C1880 C 0.64156 0.51115 0.96806 0.0
C1881 C 0.6201 0.51561 0.96175 0.0
C1882 C 0.61377 0.53728 0.96145 0.0
C1883 C 0.62858 0.55407 0.96689 0.0
C1884 C 0.64971 0.54902 0.97246 0.0
C1885 C 0.6562 0.52805 0.97286 0.0
C1886 C 0.68032 0.52684 0.97657 0.0
C1887 C 0.6855 0.51588 0.99818 0.0
C1888 C 0.69096 0.51546 0.95755 0.0
C1889 C 0.68655 0.55043 0.97744 0.0
C1890 C 0.66865 0.56304 0.97576 0.0
C1891 C 0.67061 0.58539 0.97552 0.0
C1892 C 0.69144 0.59503 0.9764 0.0
C1893 C 0.70985 0.58223 0.97688 0.0
C1894 C 0.70733 0.55975 0.97782 0.0
H1895 H 0.19381 0.63155 0.22149 0.0
H1896 H 0.24073 0.62545 0.27397 0.0
H1897 H 0.21708 0.59795 0.29087 0.0
H1898 H 0.1456 0.62398 0.2543 0.0
H1899 H 0.13102 0.60895 0.23339 0.0
H1900 H 0.15103 0.62914 0.22623 0.0
H1901 H 0.17098 0.60099 0.20382 0.0
H1902 H 0.15109 0.58072 0.21094 0.0
H1903 H 0.17931 0.57664 0.21662 0.0
H1904 H 0.18987 0.56895 0.30028 0.0
H1905 H 0.16003 0.54184 0.30259 0.0
H1906 H 0.13043 0.56763 0.24449 0.0
C1907 C 0.19901 0.62453 0.23662 0.0
C1908 C 0.21906 0.63065 0.24647 0.0
C1909 C 0.22529 0.62119 0.26632 0.0
C1910 C 0.21202 0.6055 0.27598 0.0
C1911 C 0.19249 0.59962 0.26569 0.0
C1912 C 0.18589 0.60899 0.24656 0.0
C1913 C 0.16443 0.59941 0.23851 0.0
C1914 C 0.14699 0.61639 0.23809 0.0
C1915 C 0.1666 0.58881 0.21615 0.0
C1916 C 0.1602 0.58289 0.25586 0.0
C1917 C 0.17657 0.58326 0.27139 0.0
C1918 C 0.1768 0.56869 0.28839 0.0
C1919 C 0.15984 0.55333 0.28952 0.0
C1920 C 0.14285 0.55276 0.27383 0.0
C1921 C 0.14302 0.56788 0.25692 0.0
H1922 H 0.91257 0.5258 0.98423 0.0
H1923 H 0.92072 0.54137 0.05244 0.0
H1924 H 0.88641 0.5606 0.05127 0.0
H1925 H 0.89128 0.57551 0.96786 0.0
H1926 H 0.87249 0.56367 0.94825 0.0
H1927 H 0.89722 0.55055 0.95478 0.0
H1928 H 0.8754 0.51597 0.96471 0.0
H1929 H 0.85059 0.52897 0.95815 0.0
H1930 H 0.85449 0.51731 0.98449 0.0
H1931 H 0.85195 0.57967 0.04196 0.0
H1932 H 0.8194 0.59559 0.02567 0.0
H1933 H 0.83411 0.56683 0.96379 0.0
C1934 C 0.90714 0.53327 0.99892 0.0
C1935 C 0.91928 0.53215 0.01842 0.0
C1936 C 0.91152 0.54188 0.03738 0.0
C1937 C 0.89213 0.55291 0.03684 0.0
C1938 C 0.88066 0.5539 0.01726 0.0
C1939 C 0.88782 0.54419 0.9987 0.0
C1940 C 0.87262 0.54764 0.97969 0.0
C1941 C 0.88409 0.56009 0.96158 0.0
C1942 C 0.86269 0.5262 0.97127 0.0
C1943 C 0.85591 0.56103 0.99037 0.0
C1944 C 0.86079 0.56452 0.01203 0.0
C1945 C 0.84789 0.57692 0.02505 0.0
C1946 C 0.82948 0.58593 0.01564 0.0
C1947 C 0.82415 0.58239 0.99349 0.0
C1948 C 0.8376 0.56973 0.98081 0.0
H1949 H 0.1133 0.97125 0.06271 0.0
H1950 H 0.08874 0.97968 0.99722 0.0
H1951 H 0.11243 0.95128 0.98439 0.0
H1952 H 0.1677 0.96398 0.04854 0.0
H1953 H 0.17284 0.94429 0.06907 0.0
H1954 H 0.15284 0.96409 0.07331 0.0
H1955 H 0.12402 0.93398 0.08004 0.0
H1956 H 0.14396 0.91407 0.07586 0.0
H1957 H 0.11924 0.91323 0.05994 0.0
H1958 H 0.13951 0.92268 0.97861 0.0
H1959 H 0.16906 0.89709 0.97994 0.0
H1960 H 0.17667 0.90804 0.04915 0.0
C1961 C 0.11265 0.96684 0.04573 0.0
C1962 C 0.09908 0.97751 0.03095 0.0
C1963 C 0.09905 0.97169 0.00878 0.0
C1964 C 0.11236 0.95554 0.00138 0.0
C1965 C 0.1257 0.94545 0.01635 0.0
C1966 C 0.126 0.95092 0.03805 0.0
C1967 C 0.14265 0.93844 0.05058 0.0
C1968 C 0.16004 0.95361 0.06098 0.0
C1969 C 0.13181 0.92408 0.06761 0.0
C1970 C 0.1518 0.92522 0.03252 0.0
C1971 C 0.14165 0.92935 0.01294 0.0
C1972 C 0.14753 0.91927 0.99387 0.0
C1973 C 0.16433 0.90474 0.9948 0.0
C1974 C 0.17523 0.90053 0.01464 0.0
C1975 C 0.16869 0.91086 0.03373 0.0
loop_
_geom_bond_atom_site_label_1
_geom_bond_atom_site_label_2
_geom_bond_distance
_geom_bond_site_symmetry_2
_ccdc_geom_bond_type
P0 O11 1.490 . S
P0 C14 1.812 . S
P0 C20 1.803 . S
P0 C26 1.819 . S
H1 C15 0.941 . S
H2 C16 0.939 . S
H3 C18 0.940 1_655 S
H4 C19 0.940 . S
H5 C21 0.939 . S
H6 C22 0.942 . S
H7 C24 0.953 . S
H8 C25 0.939 . S
H9 C27 0.941 . S
H10 C31 0.939 . S
O11 P0 1.490 . S
H12 C28 0.939 . S
H13 C30 0.940 1_556 S
C14 P0 1.812 . S
C14 C15 1.389 . S
C14 C19 1.391 . S
C15 H1 0.941 . S
C15 C14 1.389 . S
C15 C16 1.397 . S
C16 H2 0.939 . S
C16 C15 1.397 . S
C16 C17 1.378 . S
C17 C16 1.378 . S
C17 C18 1.378 . S
C18 H3 0.940 1_455 S
C18 C17 1.378 . S
C18 C19 1.396 . S
C19 H4 0.940 . S
C19 C14 1.391 . S
C19 C18 1.396 . S
C20 P0 1.803 . S
C20 C21 1.378 . S
C20 C25 1.400 . S
C21 H5 0.939 . S
C21 C20 1.378 . S
C21 C22 1.361 . S
C22 H6 0.942 . S
C22 C21 1.361 . S
C22 C23 1.369 . S
C23 C22 1.369 . S
C23 C24 1.403 1_545 S
C24 H7 0.953 . S
C24 C23 1.403 1_565 S
C24 C25 1.377 1_565 S
C25 H8 0.939 . S
C25 C20 1.400 . S
C25 C24 1.377 1_545 S
C26 P0 1.819 . S
C26 C27 1.391 . S
C26 C31 1.391 . S
C27 H9 0.941 . S
C27 C26 1.391 . S
C27 C28 1.396 . S
C28 H12 0.939 . S
C28 C27 1.396 . S
C28 C29 1.397 . S
C29 C28 1.397 . S
C29 C30 1.385 . S
C30 H13 0.940 1_554 S
C30 C29 1.385 . S
C30 C31 1.388 . S
C31 H10 0.939 . S
C31 C26 1.391 . S
C31 C30 1.388 . S
P32 O43 1.490 . S
P32 C46 1.812 . S
P32 C52 1.803 . S
P32 C58 1.819 . S
H33 C47 0.941 . S
H34 C48 0.939 . S
H35 C50 0.940 . S
H36 C51 0.940 . S
H37 C53 0.939 . S
H38 C54 0.942 . S
H39 C56 0.940 . S
H40 C57 0.939 . S
H41 C59 0.941 . S
H42 C63 0.939 . S
O43 P32 1.490 . S
H44 C60 0.939 . S
H45 C62 0.940 . S
C46 P32 1.812 . S
C46 C47 1.389 . S
C46 C51 1.391 . S
C47 H33 0.941 . S
C47 C46 1.389 . S
C47 C48 1.397 . S
C48 H34 0.939 . S
C48 C47 1.397 . S
C48 C49 1.378 . S
C49 C48 1.378 . S
C49 C50 1.378 . S
C50 H35 0.940 . S
C50 C49 1.378 . S
C50 C51 1.396 . S
C51 H36 0.940 . S
C51 C46 1.391 . S
C51 C50 1.396 . S
C52 P32 1.803 . S
C52 C53 1.378 . S
C52 C57 1.400 . S
C53 H37 0.939 . S
C53 C52 1.378 . S
C53 C54 1.361 . S
C54 H38 0.942 . S
C54 C53 1.361 . S
C54 C55 1.369 . S
C55 C54 1.369 . S
C55 C56 1.404 . S
C56 H39 0.940 . S
C56 C55 1.404 . S
C56 C57 1.389 . S
C57 H40 0.939 . S
C57 C52 1.400 . S
C57 C56 1.389 . S
C58 P32 1.819 . S
C58 C59 1.391 . S
C58 C63 1.391 . S
C59 H41 0.941 . S
C59 C58 1.391 . S
C59 C60 1.396 . S
C60 H44 0.939 . S
C60 C59 1.396 . S
C60 C61 1.397 . S
C61 C60 1.397 . S
C61 C62 1.385 . S
C62 H45 0.940 . S
C62 C61 1.385 . S
C62 C63 1.388 . S
C63 H42 0.939 . S
C63 C58 1.391 . S
C63 C62 1.388 . S
P64 O75 1.490 . S
P64 C78 1.812 . S
P64 C84 1.803 . S
P64 C90 1.819 . S
H65 C79 0.941 1_556 S
H66 C80 0.939 . S
H67 C82 0.940 . S
H68 C83 0.940 . S
H69 C85 0.939 . S
H70 C86 0.942 . S
H71 C88 0.940 . S
H72 C89 0.939 . S
H73 C91 0.941 1_455 S
H74 C95 0.939 . S
O75 P64 1.490 . S
H76 C92 0.939 . S
H77 C94 0.940 . S
C78 P64 1.812 . S
C78 C79 1.389 . S
C78 C83 1.391 . S
C79 H65 0.941 1_554 S
C79 C78 1.389 . S
C79 C80 1.397 1_554 S
C80 H66 0.939 . S
C80 C79 1.397 1_556 S
C80 C81 1.378 1_556 S
C81 C80 1.378 1_554 S
C81 C82 1.378 . S
C82 H67 0.940 . S
C82 C81 1.378 . S
C82 C83 1.396 . S
C83 H68 0.940 . S
C83 C78 1.391 . S
C83 C82 1.396 . S
C84 P64 1.803 . S
C84 C85 1.378 . S
C84 C89 1.400 . S
C85 H69 0.939 . S
C85 C84 1.378 . S
C85 C86 1.361 . S
C86 H70 0.942 . S
C86 C85 1.361 . S
C86 C87 1.369 . S
C87 C86 1.369 . S
C87 C88 1.404 . S
C88 H71 0.940 . S
C88 C87 1.404 . S
C88 C89 1.389 . S
C89 H72 0.939 . S
C89 C84 1.400 . S
C89 C88 1.389 . S
C90 P64 1.819 . S
C90 C91 1.391 . S
C90 C95 1.391 . S
C91 H73 0.941 1_655 S
C91 C90 1.391 . S
C91 C92 1.396 1_655 S
C92 H76 0.939 . S
C92 C91 1.396 1_455 S
C92 C93 1.397 1_455 S
C93 C92 1.397 1_655 S
C93 C94 1.385 . S
C94 H77 0.940 . S
C94 C93 1.385 . S
C94 C95 1.388 . S
C95 H74 0.939 . S
C95 C90 1.391 . S
C95 C94 1.388 . S
P96 O107 1.490 . S
P96 C110 1.812 . S
P96 C116 1.803 . S
P96 C122 1.819 . S
H97 C111 0.941 . S
H98 C112 0.939 . S
H99 C114 0.940 . S
H100 C115 0.940 . S
H101 C117 0.939 . S
H102 C118 0.942 . S
H103 C120 0.940 . S
H104 C121 0.939 . S
H105 C123 0.941 . S
H106 C127 0.939 . S
O107 P96 1.490 . S
H108 C124 0.939 . S
H109 C126 0.940 . S
C110 P96 1.812 . S
C110 C111 1.389 . S
C110 C115 1.391 . S
C111 H97 0.941 . S
C111 C110 1.389 . S
C111 C112 1.397 . S
C112 H98 0.939 . S
C112 C111 1.397 . S
C112 C113 1.378 . S
C113 C112 1.378 . S
C113 C114 1.378 . S
C114 H99 0.940 . S
C114 C113 1.378 . S
C114 C115 1.396 . S
C115 H100 0.940 . S
C115 C110 1.391 . S
C115 C114 1.396 . S
C116 P96 1.803 . S
C116 C117 1.378 . S
C116 C121 1.400 . S
C117 H101 0.939 . S
C117 C116 1.378 . S
C117 C118 1.361 . S
C118 H102 0.942 . S
C118 C117 1.361 . S
C118 C119 1.369 . S
C119 C118 1.369 . S
C119 C120 1.404 . S
C120 H103 0.940 . S
C120 C119 1.404 . S
C120 C121 1.389 . S
C121 H104 0.939 . S
C121 C116 1.400 . S
C121 C120 1.389 . S
C122 P96 1.819 . S
C122 C123 1.391 . S
C122 C127 1.391 . S
C123 H105 0.941 . S
C123 C122 1.391 . S
C123 C124 1.396 . S
C124 H108 0.939 . S
C124 C123 1.396 . S
C124 C125 1.397 . S
C125 C124 1.397 . S
C125 C126 1.385 . S
C126 H109 0.940 . S
C126 C125 1.385 . S
C126 C127 1.388 . S
C127 H106 0.939 . S
C127 C122 1.391 . S
C127 C126 1.388 . S
P128 O139 1.490 . S
P128 C142 1.812 . S
P128 C148 1.803 . S
P128 C154 1.819 . S
H129 C143 0.941 . S
H130 C144 0.939 . S
H131 C146 0.940 1_545 S
H132 C147 0.940 . S
H133 C149 0.939 . S
H134 C150 0.942 . S
H135 C152 0.940 . S
H136 C153 0.939 . S
H137 C155 0.941 . S
H138 C159 0.939 . S
O139 P128 1.490 . S
H140 C156 0.939 . S
H141 C158 0.940 1_655 S
C142 P128 1.812 . S
C142 C143 1.389 . S
C142 C147 1.391 . S
C143 H129 0.941 . S
C143 C142 1.389 . S
C143 C144 1.397 . S
C144 H130 0.939 . S
C144 C143 1.397 . S
C144 C145 1.378 . S
C145 C144 1.378 . S
C145 C146 1.378 . S
C146 H131 0.940 1_565 S
C146 C145 1.378 . S
C146 C147 1.396 . S
C147 H132 0.940 . S
C147 C142 1.391 . S
C147 C146 1.396 . S
C148 P128 1.803 . S
C148 C149 1.378 . S
C148 C153 1.400 . S
C149 H133 0.939 . S
C149 C148 1.378 . S
C149 C150 1.361 . S
C150 H134 0.942 . S
C150 C149 1.361 . S
C150 C151 1.369 . S
C151 C150 1.369 . S
C151 C152 1.404 . S
C152 H135 0.940 . S
C152 C151 1.404 . S
C152 C153 1.389 . S
C153 H136 0.939 . S
C153 C148 1.400 . S
C153 C152 1.389 . S
C154 P128 1.819 . S
C154 C155 1.391 . S
C154 C159 1.391 . S
C155 H137 0.941 . S
C155 C154 1.391 . S
C155 C156 1.396 . S
C156 H140 0.939 . S
C156 C155 1.396 . S
C156 C157 1.397 . S
C157 C156 1.397 . S
C157 C158 1.385 . S
C158 H141 0.940 1_455 S
C158 C157 1.385 . S
C158 C159 1.388 . S
C159 H138 0.939 . S
C159 C154 1.391 . S
C159 C158 1.388 . S
P160 O171 1.490 . S
P160 C174 1.812 . S
P160 C180 1.803 . S
P160 C186 1.819 . S
H161 C175 0.941 . S
H162 C176 0.939 . S
H163 C178 0.940 . S
H164 C179 0.940 . S
H165 C181 0.939 . S
H166 C182 0.942 . S
H167 C184 0.940 . S
H168 C185 0.939 . S
H169 C187 0.941 . S
H170 C191 0.939 . S
O171 P160 1.490 . S
H172 C188 0.939 . S
H173 C190 0.940 . S
C174 P160 1.812 . S
C174 C175 1.389 . S
C174 C179 1.391 . S
C175 H161 0.941 . S
C175 C174 1.389 . S
C175 C176 1.397 . S
C176 H162 0.939 . S
C176 C175 1.397 . S
C176 C177 1.378 . S
C177 C176 1.378 . S
C177 C178 1.378 . S
C178 H163 0.940 . S
C178 C177 1.378 . S
C178 C179 1.396 . S
C179 H164 0.940 . S
C179 C174 1.391 . S
C179 C178 1.396 . S
C180 P160 1.803 . S
C180 C181 1.378 . S
C180 C185 1.400 . S
C181 H165 0.939 . S
C181 C180 1.378 . S
C181 C182 1.361 . S
C182 H166 0.942 . S
C182 C181 1.361 . S
C182 C183 1.369 . S
C183 C182 1.369 . S
C183 C184 1.404 . S
C184 H167 0.940 . S
C184 C183 1.404 . S
C184 C185 1.389 . S
C185 H168 0.939 . S
C185 C180 1.400 . S
C185 C184 1.389 . S
C186 P160 1.819 . S
C186 C187 1.391 . S
C186 C191 1.391 . S
C187 H169 0.941 . S
C187 C186 1.391 . S
C187 C188 1.396 . S
C188 H172 0.939 . S
C188 C187 1.396 . S
C188 C189 1.397 . S
C189 C188 1.397 . S
C189 C190 1.385 . S
C190 H173 0.940 . S
C190 C189 1.385 . S
C190 C191 1.388 . S
C191 H170 0.939 . S
C191 C186 1.391 . S
C191 C190 1.388 . S
P192 O203 1.490 . S
P192 C206 1.812 . S
P192 C212 1.803 . S
P192 C218 1.819 . S
H193 C207 0.941 . S
H194 C208 0.939 . S
H195 C210 0.940 . S
H196 C211 0.940 . S
H197 C213 0.939 . S
H198 C214 0.942 . S
H199 C216 0.940 . S
H200 C217 0.939 . S
H201 C219 0.941 . S
H202 C223 0.939 . S
O203 P192 1.490 . S
H204 C220 0.939 . S
H205 C222 0.940 . S
C206 P192 1.812 . S
C206 C207 1.389 1_655 S
C206 C211 1.391 . S
C207 H193 0.941 . S
C207 C206 1.389 1_455 S
C207 C208 1.397 . S
C208 H194 0.939 . S
C208 C207 1.397 . S
C208 C209 1.354 1_455 S
C209 C208 1.354 1_655 S
C209 C210 1.416 . S
C210 H195 0.940 . S
C210 C209 1.416 . S
C210 C211 1.396 . S
C211 H196 0.940 . S
C211 C206 1.391 . S
C211 C210 1.396 . S
C212 P192 1.803 . S
C212 C213 1.378 . S
C212 C217 1.400 . S
C213 H197 0.939 . S
C213 C212 1.378 . S
C213 C214 1.361 . S
C214 H198 0.942 . S
C214 C213 1.361 . S
C214 C215 1.369 . S
C215 C214 1.369 . S
C215 C216 1.404 . S
C216 H199 0.940 . S
C216 C215 1.404 . S
C216 C217 1.389 . S
C217 H200 0.939 . S
C217 C212 1.400 . S
C217 C216 1.389 . S
C218 P192 1.819 . S
C218 C219 1.391 . S
C218 C223 1.391 . S
C219 H201 0.941 . S
C219 C218 1.391 . S
C219 C220 1.396 . S
C220 H204 0.939 . S
C220 C219 1.396 . S
C220 C221 1.397 . S
C221 C220 1.397 . S
C221 C222 1.385 . S
C222 H205 0.940 . S
C222 C221 1.385 . S
C222 C223 1.388 . S
C223 H202 0.939 . S
C223 C218 1.391 . S
C223 C222 1.388 . S
P224 O235 1.490 . S
P224 C238 1.812 . S
P224 C244 1.803 . S
P224 C250 1.819 . S
H225 C239 0.941 . S
H226 C240 0.939 . S
H227 C242 0.940 . S
H228 C243 0.940 . S
H229 C245 0.939 . S
H230 C246 0.942 . S
H231 C248 0.940 . S
H232 C249 0.939 . S
H233 C251 0.941 . S
H234 C255 0.939 . S
O235 P224 1.490 . S
H236 C252 0.939 . S
H237 C254 0.940 . S
C238 P224 1.812 . S
C238 C239 1.389 . S
C238 C243 1.391 . S
C239 H225 0.941 . S
C239 C238 1.389 . S
C239 C240 1.397 . S
C240 H226 0.939 . S
C240 C239 1.397 . S
C240 C241 1.378 . S
C241 C240 1.378 . S
C241 C242 1.378 . S
C242 H227 0.940 . S
C242 C241 1.378 . S
C242 C243 1.396 . S
C243 H228 0.940 . S
C243 C238 1.391 . S
C243 C242 1.396 . S
C244 P224 1.803 . S
C244 C245 1.378 . S
C244 C249 1.400 . S
C245 H229 0.939 . S
C245 C244 1.378 . S
C245 C246 1.361 . S
C246 H230 0.942 . S
C246 C245 1.361 . S
C246 C247 1.369 . S
C247 C246 1.369 . S
C247 C248 1.404 . S
C248 H231 0.940 . S
C248 C247 1.404 . S
C248 C249 1.389 . S
C249 H232 0.939 . S
C249 C244 1.400 . S
C249 C248 1.389 . S
C250 P224 1.819 . S
C250 C251 1.391 . S
C250 C255 1.391 . S
C251 H233 0.941 . S
C251 C250 1.391 . S
C251 C252 1.396 . S
C252 H236 0.939 . S
C252 C251 1.396 . S
C252 C253 1.397 . S
C253 C252 1.397 . S
C253 C254 1.385 . S
C254 H237 0.940 . S
C254 C253 1.385 . S
C254 C255 1.388 . S
C255 H234 0.939 . S
C255 C250 1.391 . S
C255 C254 1.388 . S
P256 O267 1.490 . S
P256 C270 1.812 . S
P256 C276 1.803 . S
P256 C282 1.819 . S
H257 C271 0.941 . S
H258 C272 0.939 . S
H259 C274 0.940 . S
H260 C275 0.940 . S
H261 C277 0.939 . S
H262 C278 0.942 . S
H263 C280 0.940 . S
H264 C281 0.939 . S
H265 C283 0.941 . S
H266 C287 0.939 . S
O267 P256 1.490 . S
H268 C284 0.939 . S
H269 C286 0.940 . S
C270 P256 1.812 . S
C270 C271 1.389 . S
C270 C275 1.391 . S
C271 H257 0.941 . S
C271 C270 1.389 . S
C271 C272 1.397 . S
C272 H258 0.939 . S
C272 C271 1.397 . S
C272 C273 1.378 . S
C273 C272 1.378 . S
C273 C274 1.378 . S
C274 H259 0.940 . S
C274 C273 1.378 . S
C274 C275 1.396 . S
C275 H260 0.940 . S
C275 C270 1.391 . S
C275 C274 1.396 . S
C276 P256 1.803 . S
C276 C277 1.378 . S
C276 C281 1.400 . S
C277 H261 0.939 . S
C277 C276 1.378 . S
C277 C278 1.361 . S
C278 H262 0.942 . S
C278 C277 1.361 . S
C278 C279 1.369 . S
C279 C278 1.369 . S
C279 C280 1.404 . S
C280 H263 0.940 . S
C280 C279 1.404 . S
C280 C281 1.389 . S
C281 H264 0.939 . S
C281 C276 1.400 . S
C281 C280 1.389 . S
C282 P256 1.819 . S
C282 C283 1.391 . S
C282 C287 1.391 . S
C283 H265 0.941 . S
C283 C282 1.391 . S
C283 C284 1.396 . S
C284 H268 0.939 . S
C284 C283 1.396 . S
C284 C285 1.397 . S
C285 C284 1.397 . S
C285 C286 1.385 . S
C286 H269 0.940 . S
C286 C285 1.385 . S
C286 C287 1.388 . S
C287 H266 0.939 . S
C287 C282 1.391 . S
C287 C286 1.388 . S
P288 O299 1.490 . S
P288 C302 1.812 . S
P288 C308 1.803 . S
P288 C314 1.819 . S
H289 C303 0.941 . S
H290 C304 0.939 . S
H291 C306 0.940 . S
H292 C307 0.940 . S
H293 C309 0.939 . S
H294 C310 0.942 . S
H295 C312 0.940 . S
H296 C313 0.939 . S
H297 C315 0.941 . S
H298 C319 0.939 . S
O299 P288 1.490 . S
H300 C316 0.939 . S
H301 C318 0.940 . S
C302 P288 1.812 . S
C302 C303 1.389 . S
C302 C307 1.391 . S
C303 H289 0.941 . S
C303 C302 1.389 . S
C303 C304 1.397 . S
C304 H290 0.939 . S
C304 C303 1.397 . S
C304 C305 1.378 . S
C305 C304 1.378 . S
C305 C306 1.378 . S
C306 H291 0.940 . S
C306 C305 1.378 . S
C306 C307 1.396 . S
C307 H292 0.940 . S
C307 C302 1.391 . S
C307 C306 1.396 . S
C308 P288 1.803 . S
C308 C309 1.378 1_565 S
C308 C313 1.400 . S
C309 H293 0.939 . S
C309 C308 1.378 1_545 S
C309 C310 1.361 . S
C310 H294 0.942 . S
C310 C309 1.361 . S
C310 C311 1.369 . S
C311 C310 1.369 . S
C311 C312 1.404 1_545 S
C312 H295 0.940 . S
C312 C311 1.404 1_565 S
C312 C313 1.389 . S
C313 H296 0.939 . S
C313 C308 1.400 . S
C313 C312 1.389 . S
C314 P288 1.819 . S
C314 C315 1.391 . S
C314 C319 1.391 . S
C315 H297 0.941 . S
C315 C314 1.391 . S
C315 C316 1.396 . S
C316 H300 0.939 . S
C316 C315 1.396 . S
C316 C317 1.397 . S
C317 C316 1.397 . S
C317 C318 1.385 . S
C318 H301 0.940 . S
C318 C317 1.385 . S
C318 C319 1.388 . S
C319 H298 0.939 . S
C319 C314 1.391 . S
C319 C318 1.388 . S
P320 O331 1.490 . S
P320 C334 1.812 . S
P320 C340 1.803 . S
P320 C346 1.819 . S
H321 C335 0.941 . S
H322 C336 0.939 . S
H323 C338 0.940 . S
H324 C339 0.940 . S
H325 C341 0.939 . S
H326 C342 0.942 . S
H327 C344 0.940 . S
H328 C345 0.939 . S
H329 C347 0.941 . S
H330 C351 0.939 . S
O331 P320 1.490 . S
H332 C348 0.939 . S
H333 C350 0.940 . S
C334 P320 1.812 . S
C334 C335 1.389 . S
C334 C339 1.391 . S
C335 H321 0.941 . S
C335 C334 1.389 . S
C335 C336 1.397 . S
C336 H322 0.939 . S
C336 C335 1.397 . S
C336 C337 1.378 . S
C337 C336 1.378 . S
C337 C338 1.378 . S
C338 H323 0.940 . S
C338 C337 1.378 . S
C338 C339 1.396 . S
C339 H324 0.940 . S
C339 C334 1.391 . S
C339 C338 1.396 . S
C340 P320 1.803 . S
C340 C341 1.378 . S
C340 C345 1.400 . S
C341 H325 0.939 . S
C341 C340 1.378 . S
C341 C342 1.361 . S
C342 H326 0.942 . S
C342 C341 1.361 . S
C342 C343 1.369 . S
C343 C342 1.369 . S
C343 C344 1.404 . S
C344 H327 0.940 . S
C344 C343 1.404 . S
C344 C345 1.389 . S
C345 H328 0.939 . S
C345 C340 1.400 . S
C345 C344 1.389 . S
C346 P320 1.819 . S
C346 C347 1.391 . S
C346 C351 1.391 . S
C347 H329 0.941 . S
C347 C346 1.391 . S
C347 C348 1.396 . S
C348 H332 0.939 . S
C348 C347 1.396 . S
C348 C349 1.397 . S
C349 C348 1.397 . S
C349 C350 1.385 . S
C350 H333 0.940 . S
C350 C349 1.385 . S
C350 C351 1.388 . S
C351 H330 0.939 . S
C351 C346 1.391 . S
C351 C350 1.388 . S
P352 O363 1.490 . S
P352 C366 1.812 . S
P352 C372 1.803 . S
P352 C378 1.819 . S
H353 C367 0.941 . S
H354 C368 0.939 . S
H355 C370 0.940 . S
H356 C371 0.940 . S
H357 C373 0.939 . S
H358 C374 0.942 . S
H359 C376 0.940 . S
H360 C377 0.939 . S
H361 C379 0.941 . S
H362 C383 0.939 . S
O363 P352 1.490 . S
H364 C380 0.939 . S
H365 C382 0.940 . S
C366 P352 1.812 . S
C366 C367 1.389 . S
C366 C371 1.391 . S
C367 H353 0.941 . S
C367 C366 1.389 . S
C367 C368 1.397 . S
C368 H354 0.939 . S
C368 C367 1.397 . S
C368 C369 1.378 . S
C369 C368 1.378 . S
C369 C370 1.378 . S
C370 H355 0.940 . S
C370 C369 1.378 . S
C370 C371 1.396 . S
C371 H356 0.940 . S
C371 C366 1.391 . S
C371 C370 1.396 . S
C372 P352 1.803 . S
C372 C373 1.378 . S
C372 C377 1.400 . S
C373 H357 0.939 . S
C373 C372 1.378 . S
C373 C374 1.361 . S
C374 H358 0.942 . S
C374 C373 1.361 . S
C374 C375 1.369 . S
C375 C374 1.369 . S
C375 C376 1.404 . S
C376 H359 0.940 . S
C376 C375 1.404 . S
C376 C377 1.389 . S
C377 H360 0.939 . S
C377 C372 1.400 . S
C377 C376 1.389 . S
C378 P352 1.819 . S
C378 C379 1.391 . S
C378 C383 1.391 . S
C379 H361 0.941 . S
C379 C378 1.391 . S
C379 C380 1.396 . S
C380 H364 0.939 . S
C380 C379 1.396 . S
C380 C381 1.397 . S
C381 C380 1.397 . S
C381 C382 1.385 . S
C382 H365 0.940 . S
C382 C381 1.385 . S
C382 C383 1.388 . S
C383 H362 0.939 . S
C383 C378 1.391 . S
C383 C382 1.388 . S
P384 O395 1.490 . S
P384 C398 1.812 . S
P384 C404 1.803 . S
P384 C410 1.819 . S
H385 C399 0.941 . S
H386 C400 0.939 . S
H387 C402 0.940 . S
H388 C403 0.940 . S
H389 C405 0.939 . S
H390 C406 0.942 . S
H391 C408 0.940 . S
H392 C409 0.939 . S
H393 C411 0.941 . S
H394 C415 0.939 . S
O395 P384 1.490 . S
H396 C412 0.939 . S
H397 C414 0.940 . S
C398 P384 1.812 . S
C398 C399 1.389 . S
C398 C403 1.391 . S
C399 H385 0.941 . S
C399 C398 1.389 . S
C399 C400 1.397 . S
C400 H386 0.939 . S
C400 C399 1.397 . S
C400 C401 1.378 . S
C401 C400 1.378 . S
C401 C402 1.378 . S
C402 H387 0.940 . S
C402 C401 1.378 . S
C402 C403 1.396 . S
C403 H388 0.940 . S
C403 C398 1.391 . S
C403 C402 1.396 . S
C404 P384 1.803 . S
C404 C405 1.378 . S
C404 C409 1.400 . S
C405 H389 0.939 . S
C405 C404 1.378 . S
C405 C406 1.361 . S
C406 H390 0.942 . S
C406 C405 1.361 . S
C406 C407 1.369 . S
C407 C406 1.369 . S
C407 C408 1.404 . S
C408 H391 0.940 . S
C408 C407 1.404 . S
C408 C409 1.389 . S
C409 H392 0.939 . S
C409 C404 1.400 . S
C409 C408 1.389 . S
C410 P384 1.819 . S
C410 C411 1.391 . S
C410 C415 1.391 . S
C411 H393 0.941 . S
C411 C410 1.391 . S
C411 C412 1.396 . S
C412 H396 0.939 . S
C412 C411 1.396 . S
C412 C413 1.397 . S
C413 C412 1.397 . S
C413 C414 1.385 . S
C414 H397 0.940 . S
C414 C413 1.385 . S
C414 C415 1.388 . S
C415 H394 0.939 . S
C415 C410 1.391 . S
C415 C414 1.388 . S
P416 O427 1.490 . S
P416 C430 1.812 . S
P416 C436 1.803 . S
P416 C442 1.819 . S
H417 C431 0.941 . S
H418 C432 0.939 . S
H419 C434 0.940 . S
H420 C435 0.940 . S
H421 C437 0.939 . S
H422 C438 0.942 . S
H423 C440 0.940 . S
H424 C441 0.939 . S
H425 C443 0.941 . S
H426 C447 0.939 . S
O427 P416 1.490 . S
H428 C444 0.939 . S
H429 C446 0.940 . S
C430 P416 1.812 . S
C430 C431 1.389 . S
C430 C435 1.391 . S
C431 H417 0.941 . S
C431 C430 1.389 . S
C431 C432 1.397 . S
C432 H418 0.939 . S
C432 C431 1.397 . S
C432 C433 1.378 . S
C433 C432 1.378 . S
C433 C434 1.378 . S
C434 H419 0.940 . S
C434 C433 1.378 . S
C434 C435 1.396 . S
C435 H420 0.940 . S
C435 C430 1.391 . S
C435 C434 1.396 . S
C436 P416 1.803 . S
C436 C437 1.378 . S
C436 C441 1.400 . S
C437 H421 0.939 . S
C437 C436 1.378 . S
C437 C438 1.361 . S
C438 H422 0.942 . S
C438 C437 1.361 . S
C438 C439 1.369 1_556 S
C439 C438 1.369 1_554 S
C439 C440 1.404 . S
C440 H423 0.940 . S
C440 C439 1.404 . S
C440 C441 1.389 1_554 S
C441 H424 0.939 . S
C441 C436 1.400 . S
C441 C440 1.389 1_556 S
C442 P416 1.819 . S
C442 C443 1.391 . S
C442 C447 1.391 . S
C443 H425 0.941 . S
C443 C442 1.391 . S
C443 C444 1.396 . S
C444 H428 0.939 . S
C444 C443 1.396 . S
C444 C445 1.397 . S
C445 C444 1.397 . S
C445 C446 1.385 . S
C446 H429 0.940 . S
C446 C445 1.385 . S
C446 C447 1.388 . S
C447 H426 0.939 . S
C447 C442 1.391 . S
C447 C446 1.388 . S
P448 O459 1.490 . S
P448 C462 1.812 . S
P448 C468 1.803 . S
P448 C474 1.819 . S
H449 C463 0.941 . S
H450 C464 0.939 . S
H451 C466 0.940 . S
H452 C467 0.940 . S
H453 C469 0.939 . S
H454 C470 0.942 . S
H455 C472 0.940 . S
H456 C473 0.939 . S
H457 C475 0.941 . S
H458 C479 0.939 . S
O459 P448 1.490 . S
H460 C476 0.939 . S
H461 C478 0.940 . S
C462 P448 1.812 . S
C462 C463 1.389 . S
C462 C467 1.391 . S
C463 H449 0.941 . S
C463 C462 1.389 . S
C463 C464 1.397 . S
C464 H450 0.939 . S
C464 C463 1.397 . S
C464 C465 1.378 . S
C465 C464 1.378 . S
C465 C466 1.378 . S
C466 H451 0.940 . S
C466 C465 1.378 . S
C466 C467 1.396 . S
C467 H452 0.940 . S
C467 C462 1.391 . S
C467 C466 1.396 . S
C468 P448 1.803 . S
C468 C469 1.378 . S
C468 C473 1.400 . S
C469 H453 0.939 . S
C469 C468 1.378 . S
C469 C470 1.361 . S
C470 H454 0.942 . S
C470 C469 1.361 . S
C470 C471 1.369 . S
C471 C470 1.369 . S
C471 C472 1.404 . S
C472 H455 0.940 . S
C472 C471 1.404 . S
C472 C473 1.389 . S
C473 H456 0.939 . S
C473 C468 1.400 . S
C473 C472 1.389 . S
C474 P448 1.819 . S
C474 C475 1.391 . S
C474 C479 1.391 . S
C475 H457 0.941 . S
C475 C474 1.391 . S
C475 C476 1.396 . S
C476 H460 0.939 . S
C476 C475 1.396 . S
C476 C477 1.397 . S
C477 C476 1.397 . S
C477 C478 1.385 . S
C478 H461 0.940 . S
C478 C477 1.385 . S
C478 C479 1.388 . S
C479 H458 0.939 . S
C479 C474 1.391 . S
C479 C478 1.388 . S
P480 O491 1.490 . S
P480 C494 1.812 . S
P480 C500 1.803 . S
P480 C506 1.819 . S
H481 C495 0.941 . S
H482 C496 0.939 . S
H483 C498 0.940 . S
H484 C499 0.940 . S
H485 C501 0.939 . S
H486 C502 0.942 . S
H487 C504 0.940 . S
H488 C505 0.939 . S
H489 C507 0.941 1_565 S
H490 C511 0.939 . S
O491 P480 1.490 . S
H492 C508 0.939 . S
H493 C510 0.940 . S
C494 P480 1.812 . S
C494 C495 1.389 . S
C494 C499 1.391 . S
C495 H481 0.941 . S
C495 C494 1.389 . S
C495 C496 1.397 . S
C496 H482 0.939 . S
C496 C495 1.397 . S
C496 C497 1.378 . S
C497 C496 1.378 . S
C497 C498 1.378 . S
C498 H483 0.940 . S
C498 C497 1.378 . S
C498 C499 1.396 . S
C499 H484 0.940 . S
C499 C494 1.391 . S
C499 C498 1.396 . S
C500 P480 1.803 . S
C500 C501 1.378 1_556 S
C500 C505 1.400 . S
C501 H485 0.939 . S
C501 C500 1.378 1_554 S
C501 C502 1.361 . S
C502 H486 0.942 . S
C502 C501 1.361 . S
C502 C503 1.357 1_554 S
C503 C502 1.357 1_556 S
C503 C504 1.425 . S
C504 H487 0.940 . S
C504 C503 1.425 . S
C504 C505 1.389 . S
C505 H488 0.939 . S
C505 C500 1.400 . S
C505 C504 1.389 . S
C506 P480 1.819 . S
C506 C507 1.391 . S
C506 C511 1.391 . S
C507 H489 0.941 1_545 S
C507 C506 1.391 . S
C507 C508 1.396 1_545 S
C508 H492 0.939 . S
C508 C507 1.396 1_565 S
C508 C509 1.397 1_565 S
C509 C508 1.397 1_545 S
C509 C510 1.385 . S
C510 H493 0.940 . S
C510 C509 1.385 . S
C510 C511 1.388 . S
C511 H490 0.939 . S
C511 C506 1.391 . S
C511 C510 1.388 . S
Zn512 O515 2.041 . S
Zn512 O517 2.043 1_554 S
Zn512 O522 2.054 1_554 S
Zn513 O514 1.962 . S
Zn513 O516 1.986 . S
Zn513 O518 1.996 . S
Zn513 O521 1.943 1_554 S
O514 Zn513 1.962 . S
O514 C519 1.254 . S
O515 Zn512 2.041 . S
O515 C519 1.269 . S
O516 Zn513 1.986 . S
O516 C523 1.262 . S
O517 Zn512 2.043 1_556 S
O517 C525 1.260 . S
O518 Zn513 1.996 . S
O518 C525 1.257 1_554 S
C519 O514 1.254 . S
C519 O515 1.269 . S
C520 O521 1.249 . S
C520 O522 1.270 . S
O521 Zn513 1.943 1_556 S
O521 C520 1.249 . S
O522 Zn512 2.054 1_556 S
O522 C520 1.270 . S
C523 O516 1.262 . S
C523 O524 1.232 . S
O524 C523 1.232 . S
C525 O517 1.260 . S
C525 O518 1.257 1_556 S
Zn526 O529 2.031 . S
Zn526 O531 2.049 . S
Zn526 O536 2.067 . S
Zn527 O528 1.962 . S
Zn527 O530 1.986 . S
Zn527 O532 1.996 . S
Zn527 O535 1.943 . S
O528 Zn527 1.962 . S
O528 C533 1.254 . S
O529 Zn526 2.031 . S
O529 C533 1.269 . S
O530 Zn527 1.986 . S
O530 C537 1.262 . S
O531 Zn526 2.049 . S
O531 C539 1.260 . S
O532 Zn527 1.996 . S
O532 C539 1.257 . S
C533 O528 1.254 . S
C533 O529 1.269 . S
C534 O535 1.249 . S
C534 O536 1.270 . S
O535 Zn527 1.943 . S
O535 C534 1.249 . S
O536 Zn526 2.067 . S
O536 C534 1.270 . S
C537 O530 1.262 . S
C537 O538 1.232 . S
O538 C537 1.232 . S
C539 O531 1.260 . S
C539 O532 1.257 . S
Zn540 O543 2.031 . S
Zn540 O545 2.049 . S
Zn540 O550 2.067 . S
Zn541 O542 1.962 . S
Zn541 O544 1.986 . S
Zn541 O546 1.996 1_554 S
Zn541 O549 1.943 . S
O542 Zn541 1.962 . S
O542 C547 1.254 . S
O543 Zn540 2.031 . S
O543 C547 1.269 1_556 S
O544 Zn541 1.986 . S
O544 C551 1.262 . S
O545 Zn540 2.049 . S
O545 C553 1.260 . S
O546 Zn541 1.996 1_556 S
O546 C553 1.257 . S
C547 O542 1.254 . S
C547 O543 1.269 1_554 S
C548 O549 1.249 1_556 S
C548 O550 1.270 . S
O549 Zn541 1.943 . S
O549 C548 1.249 1_554 S
O550 Zn540 2.067 . S
O550 C548 1.270 . S
C551 O544 1.262 . S
C551 O552 1.232 . S
O552 C551 1.232 . S
C553 O545 1.260 . S
C553 O546 1.257 . S
Zn554 O557 2.041 . S
Zn554 O559 2.042 1_545 S
Zn554 O564 2.053 1_545 S
Zn555 O556 1.962 . S
Zn555 O558 1.986 . S
Zn555 O560 1.996 . S
Zn555 O563 1.943 1_545 S
O556 Zn555 1.962 . S
O556 C561 1.254 . S
O557 Zn554 2.041 . S
O557 C561 1.269 . S
O558 Zn555 1.986 . S
O558 C565 1.262 . S
O559 Zn554 2.042 1_565 S
O559 C567 1.260 . S
O560 Zn555 1.996 . S
O560 C567 1.257 1_545 S
C561 O556 1.254 . S
C561 O557 1.269 . S
C562 O563 1.249 . S
C562 O564 1.270 . S
O563 Zn555 1.943 1_565 S
O563 C562 1.249 . S
O564 Zn554 2.053 1_565 S
O564 C562 1.270 . S
C565 O558 1.262 . S
C565 O566 1.232 . S
O566 C565 1.232 . S
C567 O559 1.260 . S
C567 O560 1.257 1_565 S
Zn568 O571 2.031 . S
Zn568 O573 2.049 . S
Zn568 O578 2.067 . S
Zn569 O570 1.962 . S
Zn569 O572 1.986 . S
Zn569 O574 1.996 . S
Zn569 O577 1.943 . S
O570 Zn569 1.962 . S
O570 C575 1.254 . S
O571 Zn568 2.031 . S
O571 C575 1.269 . S
O572 Zn569 1.986 . S
O572 C579 1.262 . S
O573 Zn568 2.049 . S
O573 C581 1.260 . S
O574 Zn569 1.996 . S
O574 C581 1.257 . S
C575 O570 1.254 . S
C575 O571 1.269 . S
C576 O577 1.249 . S
C576 O578 1.270 . S
O577 Zn569 1.943 . S
O577 C576 1.249 . S
O578 Zn568 2.067 . S
O578 C576 1.270 . S
C579 O572 1.262 . S
C579 O580 1.232 . S
O580 C579 1.232 . S
C581 O573 1.260 . S
C581 O574 1.257 . S
Zn582 O585 2.031 . S
Zn582 O587 2.049 . S
Zn582 O592 2.067 . S
Zn583 O584 1.962 . S
Zn583 O586 1.986 . S
Zn583 O588 1.996 . S
Zn583 O591 1.943 . S
O584 Zn583 1.962 . S
O584 C589 1.254 . S
O585 Zn582 2.031 . S
O585 C589 1.269 . S
O586 Zn583 1.986 . S
O586 C593 1.262 . S
O587 Zn582 2.049 . S
O587 C595 1.260 . S
O588 Zn583 1.996 . S
O588 C595 1.257 . S
C589 O584 1.254 . S
C589 O585 1.269 . S
C590 O591 1.249 . S
C590 O592 1.270 . S
O591 Zn583 1.943 . S
O591 C590 1.249 . S
O592 Zn582 2.067 . S
O592 C590 1.270 . S
C593 O586 1.262 . S
C593 O594 1.232 . S
O594 C593 1.232 . S
C595 O587 1.260 . S
C595 O588 1.257 . S
Zn596 O599 2.031 . S
Zn596 O601 2.049 . S
Zn596 O606 2.067 . S
Zn597 O598 1.962 . S
Zn597 O600 1.986 . S
Zn597 O602 1.996 . S
Zn597 O605 1.943 . S
O598 Zn597 1.962 . S
O598 C603 1.254 . S
O599 Zn596 2.031 . S
O599 C603 1.269 . S
O600 Zn597 1.986 . S
O600 C607 1.262 . S
O601 Zn596 2.049 . S
O601 C609 1.260 . S
O602 Zn597 1.996 . S
O602 C609 1.257 . S
C603 O598 1.254 . S
C603 O599 1.269 . S
C604 O605 1.249 . S
C604 O606 1.270 . S
O605 Zn597 1.943 . S
O605 C604 1.249 . S
O606 Zn596 2.067 . S
O606 C604 1.270 . S
C607 O600 1.262 . S
C607 O608 1.232 . S
O608 C607 1.232 . S
C609 O601 1.260 . S
C609 O602 1.257 . S
Zn610 O613 2.031 . S
Zn610 O615 2.049 . S
Zn610 O620 2.067 . S
Zn611 O612 1.962 . S
Zn611 O614 1.986 . S
Zn611 O616 1.996 1_545 S
Zn611 O619 1.943 . S
O612 Zn611 1.962 . S
O612 C617 1.254 . S
O613 Zn610 2.031 . S
O613 C617 1.269 1_565 S
O614 Zn611 1.986 . S
O614 C621 1.262 . S
O615 Zn610 2.049 . S
O615 C623 1.260 . S
O616 Zn611 1.996 1_565 S
O616 C623 1.257 . S
C617 O612 1.254 . S
C617 O613 1.269 1_545 S
C618 O619 1.249 1_565 S
C618 O620 1.270 . S
O619 Zn611 1.943 . S
O619 C618 1.249 1_545 S
O620 Zn610 2.067 . S
O620 C618 1.270 . S
C621 O614 1.262 . S
C621 O622 1.232 . S
O622 C621 1.232 . S
C623 O615 1.260 . S
C623 O616 1.257 . S
Zn624 O627 2.031 . S
Zn624 O629 2.049 1_455 S
Zn624 O634 2.067 1_455 S
Zn625 O626 1.962 . S
Zn625 O628 1.986 . S
Zn625 O630 1.996 . S
Zn625 O633 1.943 1_455 S
O626 Zn625 1.962 . S
O626 C631 1.254 . S
O627 Zn624 2.031 . S
O627 C631 1.269 . S
O628 Zn625 1.986 . S
O628 C635 1.262 . S
O629 Zn624 2.049 1_655 S
O629 C637 1.260 . S
O630 Zn625 1.996 . S
O630 C637 1.257 1_455 S
C631 O626 1.254 . S
C631 O627 1.269 . S
C632 O633 1.249 . S
C632 O634 1.270 . S
O633 Zn625 1.943 1_655 S
O633 C632 1.249 . S
O634 Zn624 2.067 1_655 S
O634 C632 1.270 . S
C635 O628 1.262 . S
C635 O636 1.232 . S
O636 C635 1.232 . S
C637 O629 1.260 . S
C637 O630 1.257 1_655 S
Zn638 O641 2.031 . S
Zn638 O643 2.049 . S
Zn638 O648 2.067 . S
Zn639 O640 1.962 . S
Zn639 O642 1.986 . S
Zn639 O644 1.996 . S
Zn639 O647 1.943 . S
O640 Zn639 1.962 . S
O640 C645 1.254 . S
O641 Zn638 2.031 . S
O641 C645 1.269 . S
O642 Zn639 1.986 . S
O642 C649 1.262 . S
O643 Zn638 2.049 . S
O643 C651 1.260 . S
O644 Zn639 1.996 . S
O644 C651 1.257 . S
C645 O640 1.254 . S
C645 O641 1.269 . S
C646 O647 1.249 . S
C646 O648 1.270 . S
O647 Zn639 1.943 . S
O647 C646 1.249 . S
O648 Zn638 2.067 . S
O648 C646 1.270 . S
C649 O642 1.262 . S
C649 O650 1.232 . S
O650 C649 1.232 . S
C651 O643 1.260 . S
C651 O644 1.257 . S
Zn652 O655 2.031 . S
Zn652 O657 2.049 . S
Zn652 O662 2.067 . S
Zn653 O654 1.962 . S
Zn653 O656 1.986 . S
Zn653 O658 1.996 1_455 S
Zn653 O661 1.943 . S
O654 Zn653 1.962 . S
O654 C659 1.254 . S
O655 Zn652 2.031 . S
O655 C659 1.269 1_655 S
O656 Zn653 1.986 . S
O656 C663 1.262 . S
O657 Zn652 2.049 . S
O657 C665 1.260 . S
O658 Zn653 1.996 1_655 S
O658 C665 1.257 . S
C659 O654 1.254 . S
C659 O655 1.269 1_455 S
C660 O661 1.249 1_655 S
C660 O662 1.270 . S
O661 Zn653 1.943 . S
O661 C660 1.249 1_455 S
O662 Zn652 2.067 . S
O662 C660 1.270 . S
C663 O656 1.262 . S
C663 O664 1.232 . S
O664 C663 1.232 . S
C665 O657 1.260 . S
C665 O658 1.257 . S
Zn666 O669 2.031 . S
Zn666 O671 2.049 . S
Zn666 O676 2.067 . S
Zn667 O668 1.962 . S
Zn667 O670 1.986 . S
Zn667 O672 1.996 . S
Zn667 O675 1.943 . S
O668 Zn667 1.962 . S
O668 C673 1.254 . S
O669 Zn666 2.031 . S
O669 C673 1.269 . S
O670 Zn667 1.986 . S
O670 C677 1.262 . S
O671 Zn666 2.049 . S
O671 C679 1.260 . S
O672 Zn667 1.996 . S
O672 C679 1.257 . S
C673 O668 1.254 . S
C673 O669 1.269 . S
C674 O675 1.249 . S
C674 O676 1.270 . S
O675 Zn667 1.943 . S
O675 C674 1.249 . S
O676 Zn666 2.067 . S
O676 C674 1.270 . S
C677 O670 1.262 . S
C677 O678 1.232 . S
O678 C677 1.232 . S
C679 O671 1.260 . S
C679 O672 1.257 . S
H680 C692 0.930 . S
H681 C694 0.930 . S
H682 C695 0.930 . S
H683 C699 0.959 . S
H684 C699 0.959 . S
H685 C699 0.961 . S
H686 C700 0.960 . S
H687 C700 0.961 . S
H688 C700 0.959 . S
H689 C703 0.929 . S
H690 C704 0.931 . S
H691 C706 0.930 . S
C692 H680 0.930 . S
C692 C693 1.399 . S
C692 C697 1.399 . S
C693 C692 1.399 . S
C693 C694 1.376 . S
C694 H681 0.930 . S
C694 C693 1.376 . S
C694 C695 1.388 . S
C695 H682 0.930 . S
C695 C694 1.388 . S
C695 C696 1.390 . S
C696 C695 1.390 . S
C696 C697 1.394 . S
C696 C702 1.465 . S
C697 C692 1.399 . S
C697 C696 1.394 . S
C697 C698 1.516 . S
C698 C697 1.516 . S
C698 C699 1.502 . S
C698 C700 1.561 . S
C698 C701 1.526 . S
C699 H683 0.959 . S
C699 H684 0.959 . S
C699 H685 0.961 . S
C699 C698 1.502 . S
C700 H686 0.960 . S
C700 H687 0.961 . S
C700 H688 0.959 . S
C700 C698 1.561 . S
C701 C698 1.526 . S
C701 C702 1.396 . S
C701 C706 1.390 . S
C702 C696 1.465 . S
C702 C701 1.396 . S
C702 C703 1.399 . S
C703 H689 0.929 . S
C703 C702 1.399 . S
C703 C704 1.385 . S
C704 H690 0.931 . S
C704 C703 1.385 . S
C704 C705 1.389 . S
C705 C704 1.389 . S
C705 C706 1.387 . S
C706 H691 0.930 . S
C706 C701 1.390 . S
C706 C705 1.387 . S
H707 C719 0.930 1_655 S
H708 C721 0.930 . S
H709 C722 0.930 . S
H710 C726 0.959 . S
H711 C726 0.959 . S
H712 C726 0.943 1_655 S
H713 C727 0.960 . S
H714 C727 0.961 . S
H715 C727 0.959 . S
H716 C730 0.929 . S
H717 C731 0.931 . S
H718 C733 0.930 . S
C719 H707 0.930 1_455 S
C719 C720 1.399 . S
C719 C724 1.399 . S
C720 C719 1.399 . S
C720 C721 1.376 . S
C721 H708 0.930 . S
C721 C720 1.376 . S
C721 C722 1.388 . S
C722 H709 0.930 . S
C722 C721 1.388 . S
C722 C723 1.390 . S
C723 C722 1.390 . S
C723 C724 1.394 . S
C723 C729 1.465 . S
C724 C719 1.399 . S
C724 C723 1.394 . S
C724 C725 1.516 . S
C725 C724 1.516 . S
C725 C726 1.502 . S
C725 C727 1.561 . S
C725 C728 1.526 . S
C726 H710 0.959 . S
C726 H711 0.959 . S
C726 H712 0.943 1_455 S
C726 C725 1.502 . S
C727 H713 0.960 . S
C727 H714 0.961 . S
C727 H715 0.959 . S
C727 C725 1.561 . S
C728 C725 1.526 . S
C728 C729 1.396 . S
C728 C733 1.390 . S
C729 C723 1.465 . S
C729 C728 1.396 . S
C729 C730 1.399 . S
C730 H716 0.929 . S
C730 C729 1.399 . S
C730 C731 1.385 . S
C731 H717 0.931 . S
C731 C730 1.385 . S
C731 C732 1.389 . S
C732 C731 1.389 . S
C732 C733 1.387 . S
C733 H718 0.930 . S
C733 C728 1.390 . S
C733 C732 1.387 . S
H734 C746 0.930 . S
H735 C748 0.930 . S
H736 C749 0.930 . S
H737 C753 0.959 . S
H738 C753 0.959 . S
H739 C753 0.961 . S
H740 C754 0.960 . S
H741 C754 0.961 . S
H742 C754 0.959 . S
H743 C757 0.929 . S
H744 C758 0.931 . S
H745 C760 0.930 . S
C746 H734 0.930 . S
C746 C747 1.399 . S
C746 C751 1.399 . S
C747 C746 1.399 . S
C747 C748 1.376 . S
C748 H735 0.930 . S
C748 C747 1.376 . S
C748 C749 1.388 . S
C749 H736 0.930 . S
C749 C748 1.388 . S
C749 C750 1.390 . S
C750 C749 1.390 . S
C750 C751 1.394 . S
C750 C756 1.465 . S
C751 C746 1.399 . S
C751 C750 1.394 . S
C751 C752 1.516 . S
C752 C751 1.516 . S
C752 C753 1.502 . S
C752 C754 1.561 . S
C752 C755 1.526 . S
C753 H737 0.959 . S
C753 H738 0.959 . S
C753 H739 0.961 . S
C753 C752 1.502 . S
C754 H740 0.960 . S
C754 H741 0.961 . S
C754 H742 0.959 . S
C754 C752 1.561 . S
C755 C752 1.526 . S
C755 C756 1.396 . S
C755 C760 1.390 . S
C756 C750 1.465 . S
C756 C755 1.396 . S
C756 C757 1.399 . S
C757 H743 0.929 . S
C757 C756 1.399 . S
C757 C758 1.385 . S
C758 H744 0.931 . S
C758 C757 1.385 . S
C758 C759 1.389 . S
C759 C758 1.389 . S
C759 C760 1.387 . S
C760 H745 0.930 . S
C760 C755 1.390 . S
C760 C759 1.387 . S
H761 C773 0.930 . S
H762 C775 0.930 . S
H763 C776 0.930 1_545 S
H764 C780 0.959 . S
H765 C780 0.959 . S
H766 C780 0.961 . S
H767 C781 0.960 . S
H768 C781 0.961 . S
H769 C781 0.959 . S
H770 C784 0.929 . S
H771 C785 0.931 . S
H772 C787 0.930 . S
C773 H761 0.930 . S
C773 C774 1.399 . S
C773 C778 1.399 . S
C774 C773 1.399 . S
C774 C775 1.376 . S
C775 H762 0.930 . S
C775 C774 1.376 . S
C775 C776 1.388 . S
C776 H763 0.930 1_565 S
C776 C775 1.388 . S
C776 C777 1.390 . S
C777 C776 1.390 . S
C777 C778 1.394 . S
C777 C783 1.465 . S
C778 C773 1.399 . S
C778 C777 1.394 . S
C778 C779 1.516 . S
C779 C778 1.516 . S
C779 C780 1.502 . S
C779 C781 1.561 . S
C779 C782 1.526 . S
C780 H764 0.959 . S
C780 H765 0.959 . S
C780 H766 0.961 . S
C780 C779 1.502 . S
C781 H767 0.960 . S
C781 H768 0.961 . S
C781 H769 0.959 . S
C781 C779 1.561 . S
C782 C779 1.526 . S
C782 C783 1.396 . S
C782 C787 1.390 . S
C783 C777 1.465 . S
C783 C782 1.396 . S
C783 C784 1.399 1_565 S
C784 H770 0.929 . S
C784 C783 1.399 1_545 S
C784 C785 1.385 . S
C785 H771 0.931 . S
C785 C784 1.385 . S
C785 C786 1.389 1_545 S
C786 C785 1.389 1_565 S
C786 C787 1.387 . S
C787 H772 0.930 . S
C787 C782 1.390 . S
C787 C786 1.387 . S
H788 C800 0.930 . S
H789 C802 0.930 . S
H790 C803 0.930 . S
H791 C807 0.959 . S
H792 C807 0.959 . S
H793 C807 0.961 . S
H794 C808 0.960 . S
H795 C808 0.961 . S
H796 C808 0.959 . S
H797 C811 0.929 . S
H798 C812 0.931 . S
H799 C814 0.930 . S
C800 H788 0.930 . S
C800 C801 1.399 . S
C800 C805 1.399 . S
C801 C800 1.399 . S
C801 C802 1.376 . S
C802 H789 0.930 . S
C802 C801 1.376 . S
C802 C803 1.388 . S
C803 H790 0.930 . S
C803 C802 1.388 . S
C803 C804 1.390 . S
C804 C803 1.390 . S
C804 C805 1.394 . S
C804 C810 1.465 . S
C805 C800 1.399 . S
C805 C804 1.394 . S
C805 C806 1.516 . S
C806 C805 1.516 . S
C806 C807 1.502 . S
C806 C808 1.561 . S
C806 C809 1.526 . S
C807 H791 0.959 . S
C807 H792 0.959 . S
C807 H793 0.961 . S
C807 C806 1.502 . S
C808 H794 0.960 . S
C808 H795 0.961 . S
C808 H796 0.959 . S
C808 C806 1.561 . S
C809 C806 1.526 . S
C809 C810 1.396 . S
C809 C814 1.390 . S
C810 C804 1.465 . S
C810 C809 1.396 . S
C810 C811 1.399 . S
C811 H797 0.929 . S
C811 C810 1.399 . S
C811 C812 1.385 . S
C812 H798 0.931 . S
C812 C811 1.385 . S
C812 C813 1.389 . S
C813 C812 1.389 . S
C813 C814 1.387 . S
C814 H799 0.930 . S
C814 C809 1.390 . S
C814 C813 1.387 . S
H815 C827 0.930 . S
H816 C829 0.930 . S
H817 C830 0.930 . S
H818 C834 0.959 . S
H819 C834 0.959 . S
H820 C834 0.961 . S
H821 C835 0.960 . S
H822 C835 0.961 . S
H823 C835 0.959 . S
H824 C838 0.929 . S
H825 C839 0.931 . S
H826 C841 0.930 . S
C827 H815 0.930 . S
C827 C828 1.399 . S
C827 C832 1.399 . S
C828 C827 1.399 . S
C828 C829 1.376 . S
C829 H816 0.930 . S
C829 C828 1.376 . S
C829 C830 1.388 . S
C830 H817 0.930 . S
C830 C829 1.388 . S
C830 C831 1.390 . S
C831 C830 1.390 . S
C831 C832 1.394 . S
C831 C837 1.465 . S
C832 C827 1.399 . S
C832 C831 1.394 . S
C832 C833 1.516 . S
C833 C832 1.516 . S
C833 C834 1.502 . S
C833 C835 1.561 . S
C833 C836 1.526 . S
C834 H818 0.959 . S
C834 H819 0.959 . S
C834 H820 0.961 . S
C834 C833 1.502 . S
C835 H821 0.960 . S
C835 H822 0.961 . S
C835 H823 0.959 . S
C835 C833 1.561 . S
C836 C833 1.526 . S
C836 C837 1.396 . S
C836 C841 1.390 . S
C837 C831 1.465 . S
C837 C836 1.396 . S
C837 C838 1.399 . S
C838 H824 0.929 . S
C838 C837 1.399 . S
C838 C839 1.385 . S
C839 H825 0.931 . S
C839 C838 1.385 . S
C839 C840 1.389 . S
C840 C839 1.389 . S
C840 C841 1.387 . S
C841 H826 0.930 . S
C841 C836 1.390 . S
C841 C840 1.387 . S
H842 C854 0.930 . S
H843 C856 0.930 . S
H844 C857 0.930 . S
H845 C861 0.959 . S
H846 C861 0.959 . S
H847 C861 0.961 . S
H848 C862 0.960 . S
H849 C862 0.961 . S
H850 C862 0.959 . S
H851 C865 0.929 . S
H852 C866 0.931 . S
H853 C868 0.930 . S
C854 H842 0.930 . S
C854 C855 1.399 . S
C854 C859 1.399 . S
C855 C854 1.399 . S
C855 C856 1.376 . S
C856 H843 0.930 . S
C856 C855 1.376 . S
C856 C857 1.388 . S
C857 H844 0.930 . S
C857 C856 1.388 . S
C857 C858 1.390 . S
C858 C857 1.390 . S
C858 C859 1.394 . S
C858 C864 1.465 . S
C859 C854 1.399 . S
C859 C858 1.394 . S
C859 C860 1.516 . S
C860 C859 1.516 . S
C860 C861 1.502 . S
C860 C862 1.561 . S
C860 C863 1.526 . S
C861 H845 0.959 . S
C861 H846 0.959 . S
C861 H847 0.961 . S
C861 C860 1.502 . S
C862 H848 0.960 . S
C862 H849 0.961 . S
C862 H850 0.959 . S
C862 C860 1.561 . S
C863 C860 1.526 . S
C863 C864 1.396 . S
C863 C868 1.390 . S
C864 C858 1.465 . S
C864 C863 1.396 . S
C864 C865 1.399 . S
C865 H851 0.929 . S
C865 C864 1.399 . S
C865 C866 1.385 . S
C866 H852 0.931 . S
C866 C865 1.385 . S
C866 C867 1.389 . S
C867 C866 1.389 . S
C867 C868 1.387 . S
C868 H853 0.930 . S
C868 C863 1.390 . S
C868 C867 1.387 . S
H869 C881 0.954 . S
H870 C883 0.930 . S
H871 C884 0.930 . S
H872 C888 0.959 1_565 S
H873 C888 0.959 . S
H874 C888 0.961 . S
H875 C889 0.960 . S
H876 C889 0.961 . S
H877 C889 0.959 . S
H878 C892 0.929 . S
H879 C893 0.931 . S
H880 C895 0.930 . S
C881 H869 0.954 . S
C881 C882 1.399 . S
C881 C886 1.399 . S
C882 C881 1.399 . S
C882 C883 1.376 . S
C883 H870 0.930 . S
C883 C882 1.376 . S
C883 C884 1.388 . S
C884 H871 0.930 . S
C884 C883 1.388 . S
C884 C885 1.390 . S
C885 C884 1.390 . S
C885 C886 1.394 . S
C885 C891 1.465 . S
C886 C881 1.399 . S
C886 C885 1.394 . S
C886 C887 1.516 1_565 S
C887 C886 1.516 1_545 S
C887 C888 1.502 . S
C887 C889 1.561 . S
C887 C890 1.526 1_545 S
C888 H872 0.959 1_545 S
C888 H873 0.959 . S
C888 H874 0.961 . S
C888 C887 1.502 . S
C889 H875 0.960 . S
C889 H876 0.961 . S
C889 H877 0.959 . S
C889 C887 1.561 . S
C890 C887 1.526 1_565 S
C890 C891 1.396 . S
C890 C895 1.390 1_565 S
C891 C885 1.465 . S
C891 C890 1.396 . S
C891 C892 1.399 . S
C892 H878 0.929 . S
C892 C891 1.399 . S
C892 C893 1.385 . S
C893 H879 0.931 . S
C893 C892 1.385 . S
C893 C894 1.389 . S
C894 C893 1.389 . S
C894 C895 1.387 1_565 S
C895 H880 0.930 . S
C895 C890 1.390 1_545 S
C895 C894 1.387 1_545 S
H896 C908 0.930 . S
H897 C910 0.930 . S
H898 C911 0.930 . S
H899 C915 0.959 . S
H900 C915 0.959 . S
H901 C915 0.961 . S
H902 C916 0.960 . S
H903 C916 0.961 . S
H904 C916 0.959 . S
H905 C919 0.929 . S
H906 C920 0.931 . S
H907 C922 0.930 . S
C908 H896 0.930 . S
C908 C909 1.399 . S
C908 C913 1.399 . S
C909 C908 1.399 . S
C909 C910 1.376 . S
C910 H897 0.930 . S
C910 C909 1.376 . S
C910 C911 1.388 . S
C911 H898 0.930 . S
C911 C910 1.388 . S
C911 C912 1.390 . S
C912 C911 1.390 . S
C912 C913 1.394 . S
C912 C918 1.465 . S
C913 C908 1.399 . S
C913 C912 1.394 . S
C913 C914 1.516 . S
C914 C913 1.516 . S
C914 C915 1.502 . S
C914 C916 1.561 . S
C914 C917 1.526 . S
C915 H899 0.959 . S
C915 H900 0.959 . S
C915 H901 0.961 . S
C915 C914 1.502 . S
C916 H902 0.960 . S
C916 H903 0.961 . S
C916 H904 0.959 . S
C916 C914 1.561 . S
C917 C914 1.526 . S
C917 C918 1.396 . S
C917 C922 1.390 . S
C918 C912 1.465 . S
C918 C917 1.396 . S
C918 C919 1.399 . S
C919 H905 0.929 . S
C919 C918 1.399 . S
C919 C920 1.385 . S
C920 H906 0.931 . S
C920 C919 1.385 . S
C920 C921 1.389 . S
C921 C920 1.389 . S
C921 C922 1.387 . S
C922 H907 0.930 . S
C922 C917 1.390 . S
C922 C921 1.387 . S
H923 C935 0.930 . S
H924 C937 0.930 . S
H925 C938 0.930 . S
H926 C942 0.959 . S
H927 C942 0.959 . S
H928 C942 0.961 . S
H929 C943 0.960 . S
H930 C943 0.961 . S
H931 C943 0.959 . S
H932 C946 0.929 . S
H933 C947 0.931 . S
H934 C949 0.930 . S
C935 H923 0.930 . S
C935 C936 1.399 . S
C935 C940 1.399 . S
C936 C935 1.399 . S
C936 C937 1.376 . S
C937 H924 0.930 . S
C937 C936 1.376 . S
C937 C938 1.388 . S
C938 H925 0.930 . S
C938 C937 1.388 . S
C938 C939 1.390 . S
C939 C938 1.390 . S
C939 C940 1.394 . S
C939 C945 1.465 . S
C940 C935 1.399 . S
C940 C939 1.394 . S
C940 C941 1.516 . S
C941 C940 1.516 . S
C941 C942 1.502 . S
C941 C943 1.561 . S
C941 C944 1.526 . S
C942 H926 0.959 . S
C942 H927 0.959 . S
C942 H928 0.961 . S
C942 C941 1.502 . S
C943 H929 0.960 . S
C943 H930 0.961 . S
C943 H931 0.959 . S
C943 C941 1.561 . S
C944 C941 1.526 . S
C944 C945 1.396 . S
C944 C949 1.390 . S
C945 C939 1.465 . S
C945 C944 1.396 . S
C945 C946 1.399 . S
C946 H932 0.929 . S
C946 C945 1.399 . S
C946 C947 1.385 . S
C947 H933 0.931 . S
C947 C946 1.385 . S
C947 C948 1.389 . S
C948 C947 1.389 . S
C948 C949 1.387 . S
C949 H934 0.930 . S
C949 C944 1.390 . S
C949 C948 1.387 . S
H950 C962 0.930 . S
H951 C964 0.930 . S
H952 C965 0.930 . S
H953 C969 0.959 . S
H954 C969 0.959 . S
H955 C969 0.961 . S
H956 C970 0.960 . S
H957 C970 0.961 . S
H958 C970 0.959 . S
H959 C973 0.929 . S
H960 C974 0.931 . S
H961 C976 0.930 . S
C962 H950 0.930 . S
C962 C963 1.399 . S
C962 C967 1.399 . S
C963 C962 1.399 . S
C963 C964 1.376 . S
C964 H951 0.930 . S
C964 C963 1.376 . S
C964 C965 1.388 . S
C965 H952 0.930 . S
C965 C964 1.388 . S
C965 C966 1.390 . S
C966 C965 1.390 . S
C966 C967 1.394 . S
C966 C972 1.465 . S
C967 C962 1.399 . S
C967 C966 1.394 . S
C967 C968 1.516 . S
C968 C967 1.516 . S
C968 C969 1.502 . S
C968 C970 1.561 . S
C968 C971 1.526 . S
C969 H953 0.959 . S
C969 H954 0.959 . S
C969 H955 0.961 . S
C969 C968 1.502 . S
C970 H956 0.960 . S
C970 H957 0.961 . S
C970 H958 0.959 . S
C970 C968 1.561 . S
C971 C968 1.526 . S
C971 C972 1.396 . S
C971 C976 1.390 . S
C972 C966 1.465 . S
C972 C971 1.396 . S
C972 C973 1.399 . S
C973 H959 0.929 . S
C973 C972 1.399 . S
C973 C974 1.385 . S
C974 H960 0.931 . S
C974 C973 1.385 . S
C974 C975 1.389 . S
C975 C974 1.389 . S
C975 C976 1.387 . S
C976 H961 0.930 . S
C976 C971 1.390 . S
C976 C975 1.387 . S
H977 C989 0.930 . S
H978 C991 0.930 . S
H979 C992 0.930 . S
H980 C996 0.959 . S
H981 C996 0.959 . S
H982 C996 0.961 . S
H983 C997 0.960 . S
H984 C997 0.961 . S
H985 C997 0.959 . S
H986 C1000 0.929 . S
H987 C1001 0.931 . S
H988 C1003 0.930 . S
C989 H977 0.930 . S
C989 C990 1.399 . S
C989 C994 1.399 . S
C990 C989 1.399 . S
C990 C991 1.376 . S
C991 H978 0.930 . S
C991 C990 1.376 . S
C991 C992 1.388 . S
C992 H979 0.930 . S
C992 C991 1.388 . S
C992 C993 1.390 . S
C993 C992 1.390 . S
C993 C994 1.394 . S
C993 C999 1.465 . S
C994 C989 1.399 . S
C994 C993 1.394 . S
C994 C995 1.516 . S
C995 C994 1.516 . S
C995 C996 1.502 . S
C995 C997 1.561 . S
C995 C998 1.526 . S
C996 H980 0.959 . S
C996 H981 0.959 . S
C996 H982 0.961 . S
C996 C995 1.502 . S
C997 H983 0.960 . S
C997 H984 0.961 . S
C997 H985 0.959 . S
C997 C995 1.561 . S
C998 C995 1.526 . S
C998 C999 1.396 . S
C998 C1003 1.390 . S
C999 C993 1.465 . S
C999 C998 1.396 . S
C999 C1000 1.399 . S
C1000 H986 0.929 . S
C1000 C999 1.399 . S
C1000 C1001 1.385 . S
C1001 H987 0.931 . S
C1001 C1000 1.385 . S
C1001 C1002 1.389 . S
C1002 C1001 1.389 . S
C1002 C1003 1.387 . S
C1003 H988 0.930 . S
C1003 C998 1.390 . S
C1003 C1002 1.387 . S
H1004 C1016 0.930 . S
H1005 C1018 0.930 . S
H1006 C1019 0.930 . S
H1007 C1023 0.959 . S
H1008 C1023 0.959 . S
H1009 C1023 0.961 . S
H1010 C1024 0.960 . S
H1011 C1024 0.961 . S
H1012 C1024 0.959 . S
H1013 C1027 0.929 . S
H1014 C1028 0.931 . S
H1015 C1030 0.930 . S
C1016 H1004 0.930 . S
C1016 C1017 1.399 . S
C1016 C1021 1.399 . S
C1017 C1016 1.399 . S
C1017 C1018 1.376 . S
C1018 H1005 0.930 . S
C1018 C1017 1.376 . S
C1018 C1019 1.388 . S
C1019 H1006 0.930 . S
C1019 C1018 1.388 . S
C1019 C1020 1.390 . S
C1020 C1019 1.390 . S
C1020 C1021 1.394 . S
C1020 C1026 1.465 . S
C1021 C1016 1.399 . S
C1021 C1020 1.394 . S
C1021 C1022 1.516 . S
C1022 C1021 1.516 . S
C1022 C1023 1.502 . S
C1022 C1024 1.561 . S
C1022 C1025 1.526 . S
C1023 H1007 0.959 . S
C1023 H1008 0.959 . S
C1023 H1009 0.961 . S
C1023 C1022 1.502 . S
C1024 H1010 0.960 . S
C1024 H1011 0.961 . S
C1024 H1012 0.959 . S
C1024 C1022 1.561 . S
C1025 C1022 1.526 . S
C1025 C1026 1.396 . S
C1025 C1030 1.390 . S
C1026 C1020 1.465 . S
C1026 C1025 1.396 . S
C1026 C1027 1.399 . S
C1027 H1013 0.929 . S
C1027 C1026 1.399 . S
C1027 C1028 1.385 . S
C1028 H1014 0.931 . S
C1028 C1027 1.385 . S
C1028 C1029 1.389 . S
C1029 C1028 1.389 . S
C1029 C1030 1.387 . S
C1030 H1015 0.930 . S
C1030 C1025 1.390 . S
C1030 C1029 1.387 . S
H1031 C1043 0.930 . S
H1032 C1045 0.930 . S
H1033 C1046 0.930 . S
H1034 C1050 0.959 . S
H1035 C1050 0.959 . S
H1036 C1050 0.961 . S
H1037 C1051 0.960 . S
H1038 C1051 0.961 . S
H1039 C1051 0.959 . S
H1040 C1054 0.929 . S
H1041 C1055 0.931 . S
H1042 C1057 0.930 . S
C1043 H1031 0.930 . S
C1043 C1044 1.399 . S
C1043 C1048 1.399 . S
C1044 C1043 1.399 . S
C1044 C1045 1.376 . S
C1045 H1032 0.930 . S
C1045 C1044 1.376 . S
C1045 C1046 1.388 . S
C1046 H1033 0.930 . S
C1046 C1045 1.388 . S
C1046 C1047 1.390 . S
C1047 C1046 1.390 . S
C1047 C1048 1.394 . S
C1047 C1053 1.465 . S
C1048 C1043 1.399 . S
C1048 C1047 1.394 . S
C1048 C1049 1.516 . S
C1049 C1048 1.516 . S
C1049 C1050 1.502 . S
C1049 C1051 1.561 1_455 S
C1049 C1052 1.526 . S
C1050 H1034 0.959 . S
C1050 H1035 0.959 . S
C1050 H1036 0.961 . S
C1050 C1049 1.502 . S
C1051 H1037 0.960 . S
C1051 H1038 0.961 . S
C1051 H1039 0.959 . S
C1051 C1049 1.561 1_655 S
C1052 C1049 1.526 . S
C1052 C1053 1.396 . S
C1052 C1057 1.390 . S
C1053 C1047 1.465 . S
C1053 C1052 1.396 . S
C1053 C1054 1.399 . S
C1054 H1040 0.929 . S
C1054 C1053 1.399 . S
C1054 C1055 1.385 . S
C1055 H1041 0.931 . S
C1055 C1054 1.385 . S
C1055 C1056 1.389 . S
C1056 C1055 1.389 . S
C1056 C1057 1.387 . S
C1057 H1042 0.930 . S
C1057 C1052 1.390 . S
C1057 C1056 1.387 . S
H1058 C1070 0.930 . S
H1059 C1072 0.930 . S
H1060 C1073 0.930 . S
H1061 C1077 0.959 . S
H1062 C1077 0.959 . S
H1063 C1077 0.961 . S
H1064 C1078 0.960 . S
H1065 C1078 0.961 . S
H1066 C1078 0.959 . S
H1067 C1081 0.929 . S
H1068 C1082 0.931 . S
H1069 C1084 0.930 . S
C1070 H1058 0.930 . S
C1070 C1071 1.399 . S
C1070 C1075 1.399 . S
C1071 C1070 1.399 . S
C1071 C1072 1.376 . S
C1072 H1059 0.930 . S
C1072 C1071 1.376 . S
C1072 C1073 1.388 . S
C1073 H1060 0.930 . S
C1073 C1072 1.388 . S
C1073 C1074 1.390 . S
C1074 C1073 1.390 . S
C1074 C1075 1.394 . S
C1074 C1080 1.465 . S
C1075 C1070 1.399 . S
C1075 C1074 1.394 . S
C1075 C1076 1.516 . S
C1076 C1075 1.516 . S
C1076 C1077 1.502 . S
C1076 C1078 1.561 . S
C1076 C1079 1.526 . S
C1077 H1061 0.959 . S
C1077 H1062 0.959 . S
C1077 H1063 0.961 . S
C1077 C1076 1.502 . S
C1078 H1064 0.960 . S
C1078 H1065 0.961 . S
C1078 H1066 0.959 . S
C1078 C1076 1.561 . S
C1079 C1076 1.526 . S
C1079 C1080 1.396 . S
C1079 C1084 1.390 . S
C1080 C1074 1.465 . S
C1080 C1079 1.396 . S
C1080 C1081 1.399 . S
C1081 H1067 0.929 . S
C1081 C1080 1.399 . S
C1081 C1082 1.385 . S
C1082 H1068 0.931 . S
C1082 C1081 1.385 . S
C1082 C1083 1.389 . S
C1083 C1082 1.389 . S
C1083 C1084 1.387 . S
C1084 H1069 0.930 . S
C1084 C1079 1.390 . S
C1084 C1083 1.387 . S
H1085 C1097 0.930 . S
H1086 C1099 0.930 . S
H1087 C1100 0.930 . S
H1088 C1104 0.959 . S
H1089 C1104 0.959 . S
H1090 C1104 0.961 . S
H1091 C1105 0.960 . S
H1092 C1105 0.961 . S
H1093 C1105 0.959 1_455 S
H1094 C1108 0.929 1_455 S
H1095 C1109 0.931 1_455 S
H1096 C1111 0.930 . S
C1097 H1085 0.930 . S
C1097 C1098 1.399 . S
C1097 C1102 1.399 . S
C1098 C1097 1.399 . S
C1098 C1099 1.376 . S
C1099 H1086 0.930 . S
C1099 C1098 1.376 . S
C1099 C1100 1.388 . S
C1100 H1087 0.930 . S
C1100 C1099 1.388 . S
C1100 C1101 1.390 . S
C1101 C1100 1.390 . S
C1101 C1102 1.394 . S
C1101 C1107 1.465 . S
C1102 C1097 1.399 . S
C1102 C1101 1.394 . S
C1102 C1103 1.516 . S
C1103 C1102 1.516 . S
C1103 C1104 1.502 . S
C1103 C1105 1.561 . S
C1103 C1106 1.526 . S
C1104 H1088 0.959 . S
C1104 H1089 0.959 . S
C1104 H1090 0.961 . S
C1104 C1103 1.502 . S
C1105 H1091 0.960 . S
C1105 H1092 0.961 . S
C1105 H1093 0.959 1_655 S
C1105 C1103 1.561 . S
C1106 C1103 1.526 . S
C1106 C1107 1.396 . S
C1106 C1111 1.390 . S
C1107 C1101 1.465 . S
C1107 C1106 1.396 . S
C1107 C1108 1.399 . S
C1108 H1094 0.929 1_655 S
C1108 C1107 1.399 . S
C1108 C1109 1.385 . S
C1109 H1095 0.931 1_655 S
C1109 C1108 1.385 . S
C1109 C1110 1.389 . S
C1110 C1109 1.389 . S
C1110 C1111 1.387 . S
C1111 H1096 0.930 . S
C1111 C1106 1.390 . S
C1111 C1110 1.387 . S
H1112 C1124 0.930 . S
H1113 C1126 0.930 . S
H1114 C1127 0.930 . S
H1115 C1131 0.959 . S
H1116 C1131 0.959 . S
H1117 C1131 0.961 . S
H1118 C1132 0.960 . S
H1119 C1132 0.961 . S
H1120 C1132 0.959 . S
H1121 C1135 0.929 . S
H1122 C1136 0.931 . S
H1123 C1138 0.930 . S
C1124 H1112 0.930 . S
C1124 C1125 1.399 . S
C1124 C1129 1.399 . S
C1125 C1124 1.399 . S
C1125 C1126 1.376 . S
C1126 H1113 0.930 . S
C1126 C1125 1.376 . S
C1126 C1127 1.388 . S
C1127 H1114 0.930 . S
C1127 C1126 1.388 . S
C1127 C1128 1.390 . S
C1128 C1127 1.390 . S
C1128 C1129 1.394 . S
C1128 C1134 1.465 . S
C1129 C1124 1.399 . S
C1129 C1128 1.394 . S
C1129 C1130 1.516 . S
C1130 C1129 1.516 . S
C1130 C1131 1.502 . S
C1130 C1132 1.561 . S
C1130 C1133 1.526 . S
C1131 H1115 0.959 . S
C1131 H1116 0.959 . S
C1131 H1117 0.961 . S
C1131 C1130 1.502 . S
C1132 H1118 0.960 . S
C1132 H1119 0.961 . S
C1132 H1120 0.959 . S
C1132 C1130 1.561 . S
C1133 C1130 1.526 . S
C1133 C1134 1.396 . S
C1133 C1138 1.390 . S
C1134 C1128 1.465 . S
C1134 C1133 1.396 . S
C1134 C1135 1.399 . S
C1135 H1121 0.929 . S
C1135 C1134 1.399 . S
C1135 C1136 1.385 . S
C1136 H1122 0.931 . S
C1136 C1135 1.385 . S
C1136 C1137 1.389 . S
C1137 C1136 1.389 . S
C1137 C1138 1.387 . S
C1138 H1123 0.930 . S
C1138 C1133 1.390 . S
C1138 C1137 1.387 . S
H1139 C1151 0.930 . S
H1140 C1153 0.930 . S
H1141 C1154 0.930 . S
H1142 C1158 0.959 . S
H1143 C1158 0.959 . S
H1144 C1158 0.961 . S
H1145 C1159 0.960 . S
H1146 C1159 0.961 . S
H1147 C1159 0.959 . S
H1148 C1162 0.929 . S
H1149 C1163 0.931 . S
H1150 C1165 0.930 . S
C1151 H1139 0.930 . S
C1151 C1152 1.399 . S
C1151 C1156 1.399 . S
C1152 C1151 1.399 . S
C1152 C1153 1.376 . S
C1153 H1140 0.930 . S
C1153 C1152 1.376 . S
C1153 C1154 1.388 . S
C1154 H1141 0.930 . S
C1154 C1153 1.388 . S
C1154 C1155 1.390 . S
C1155 C1154 1.390 . S
C1155 C1156 1.394 . S
C1155 C1161 1.465 . S
C1156 C1151 1.399 . S
C1156 C1155 1.394 . S
C1156 C1157 1.516 . S
C1157 C1156 1.516 . S
C1157 C1158 1.502 . S
C1157 C1159 1.561 . S
C1157 C1160 1.526 . S
C1158 H1142 0.959 . S
C1158 H1143 0.959 . S
C1158 H1144 0.961 . S
C1158 C1157 1.502 . S
C1159 H1145 0.960 . S
C1159 H1146 0.961 . S
C1159 H1147 0.959 . S
C1159 C1157 1.561 . S
C1160 C1157 1.526 . S
C1160 C1161 1.396 . S
C1160 C1165 1.390 . S
C1161 C1155 1.465 . S
C1161 C1160 1.396 . S
C1161 C1162 1.399 . S
C1162 H1148 0.929 . S
C1162 C1161 1.399 . S
C1162 C1163 1.385 . S
C1163 H1149 0.931 . S
C1163 C1162 1.385 . S
C1163 C1164 1.389 . S
C1164 C1163 1.389 . S
C1164 C1165 1.387 . S
C1165 H1150 0.930 . S
C1165 C1160 1.390 . S
C1165 C1164 1.387 . S
H1166 C1178 0.930 . S
H1167 C1180 0.930 . S
H1168 C1181 0.930 1_554 S
H1169 C1185 0.959 . S
H1170 C1185 0.959 . S
H1171 C1185 0.961 . S
H1172 C1186 0.960 . S
H1173 C1186 0.961 . S
H1174 C1186 0.959 . S
H1175 C1189 0.929 . S
H1176 C1190 0.931 . S
H1177 C1192 0.930 . S
C1178 H1166 0.930 . S
C1178 C1179 1.399 . S
C1178 C1183 1.399 . S
C1179 C1178 1.399 . S
C1179 C1180 1.376 . S
C1180 H1167 0.930 . S
C1180 C1179 1.376 . S
C1180 C1181 1.388 . S
C1181 H1168 0.930 1_556 S
C1181 C1180 1.388 . S
C1181 C1182 1.390 . S
C1182 C1181 1.390 . S
C1182 C1183 1.394 . S
C1182 C1188 1.465 . S
C1183 C1178 1.399 . S
C1183 C1182 1.394 . S
C1183 C1184 1.516 . S
C1184 C1183 1.516 . S
C1184 C1185 1.502 . S
C1184 C1186 1.561 . S
C1184 C1187 1.526 . S
C1185 H1169 0.959 . S
C1185 H1170 0.959 . S
C1185 H1171 0.961 . S
C1185 C1184 1.502 . S
C1186 H1172 0.960 . S
C1186 H1173 0.961 . S
C1186 H1174 0.959 . S
C1186 C1184 1.561 . S
C1187 C1184 1.526 . S
C1187 C1188 1.396 . S
C1187 C1192 1.390 . S
C1188 C1182 1.465 . S
C1188 C1187 1.396 . S
C1188 C1189 1.399 1_556 S
C1189 H1175 0.929 . S
C1189 C1188 1.399 1_554 S
C1189 C1190 1.385 . S
C1190 H1176 0.931 . S
C1190 C1189 1.385 . S
C1190 C1191 1.389 1_554 S
C1191 C1190 1.389 1_556 S
C1191 C1192 1.387 . S
C1192 H1177 0.930 . S
C1192 C1187 1.390 . S
C1192 C1191 1.387 . S
H1193 C1205 0.930 . S
H1194 C1207 0.930 . S
H1195 C1208 0.930 . S
H1196 C1212 0.959 . S
H1197 C1212 0.959 . S
H1198 C1212 0.961 . S
H1199 C1213 0.960 . S
H1200 C1213 0.961 . S
H1201 C1213 0.959 . S
H1202 C1216 0.929 . S
H1203 C1217 0.931 . S
H1204 C1219 0.930 . S
C1205 H1193 0.930 . S
C1205 C1206 1.399 . S
C1205 C1210 1.399 . S
C1206 C1205 1.399 . S
C1206 C1207 1.376 . S
C1207 H1194 0.930 . S
C1207 C1206 1.376 . S
C1207 C1208 1.388 . S
C1208 H1195 0.930 . S
C1208 C1207 1.388 . S
C1208 C1209 1.390 . S
C1209 C1208 1.390 . S
C1209 C1210 1.394 . S
C1209 C1215 1.465 . S
C1210 C1205 1.399 . S
C1210 C1209 1.394 . S
C1210 C1211 1.516 . S
C1211 C1210 1.516 . S
C1211 C1212 1.502 . S
C1211 C1213 1.561 . S
C1211 C1214 1.526 . S
C1212 H1196 0.959 . S
C1212 H1197 0.959 . S
C1212 H1198 0.961 . S
C1212 C1211 1.502 . S
C1213 H1199 0.960 . S
C1213 H1200 0.961 . S
C1213 H1201 0.959 . S
C1213 C1211 1.561 . S
C1214 C1211 1.526 . S
C1214 C1215 1.396 . S
C1214 C1219 1.390 . S
C1215 C1209 1.465 . S
C1215 C1214 1.396 . S
C1215 C1216 1.399 . S
C1216 H1202 0.929 . S
C1216 C1215 1.399 . S
C1216 C1217 1.385 . S
C1217 H1203 0.931 . S
C1217 C1216 1.385 . S
C1217 C1218 1.389 . S
C1218 C1217 1.389 . S
C1218 C1219 1.387 . S
C1219 H1204 0.930 . S
C1219 C1214 1.390 . S
C1219 C1218 1.387 . S
H1220 C1232 0.930 . S
H1221 C1234 0.930 1_565 S
H1222 C1235 0.930 . S
H1223 C1239 0.959 . S
H1224 C1239 0.959 . S
H1225 C1239 0.961 . S
H1226 C1240 0.960 . S
H1227 C1240 0.961 . S
H1228 C1240 0.959 . S
H1229 C1243 0.929 . S
H1230 C1244 0.931 . S
H1231 C1246 0.930 . S
C1232 H1220 0.930 . S
C1232 C1233 1.399 . S
C1232 C1237 1.399 . S
C1233 C1232 1.399 . S
C1233 C1234 1.376 . S
C1234 H1221 0.930 1_545 S
C1234 C1233 1.376 . S
C1234 C1235 1.388 . S
C1235 H1222 0.930 . S
C1235 C1234 1.388 . S
C1235 C1236 1.390 . S
C1236 C1235 1.390 . S
C1236 C1237 1.394 . S
C1236 C1242 1.465 . S
C1237 C1232 1.399 . S
C1237 C1236 1.394 . S
C1237 C1238 1.516 . S
C1238 C1237 1.516 . S
C1238 C1239 1.502 . S
C1238 C1240 1.561 . S
C1238 C1241 1.526 . S
C1239 H1223 0.959 . S
C1239 H1224 0.959 . S
C1239 H1225 0.961 . S
C1239 C1238 1.502 . S
C1240 H1226 0.960 . S
C1240 H1227 0.961 . S
C1240 H1228 0.959 . S
C1240 C1238 1.561 . S
C1241 C1238 1.526 . S
C1241 C1242 1.396 . S
C1241 C1246 1.390 . S
C1242 C1236 1.465 . S
C1242 C1241 1.396 . S
C1242 C1243 1.399 . S
C1243 H1229 0.929 . S
C1243 C1242 1.399 . S
C1243 C1244 1.385 . S
C1244 H1230 0.931 . S
C1244 C1243 1.385 . S
C1244 C1245 1.389 . S
C1245 C1244 1.389 . S
C1245 C1246 1.387 . S
C1246 H1231 0.930 . S
C1246 C1241 1.390 . S
C1246 C1245 1.387 . S
H1247 C1259 0.930 . S
H1248 C1261 0.930 . S
H1249 C1262 0.930 . S
H1250 C1266 0.959 . S
H1251 C1266 0.959 . S
H1252 C1266 0.961 . S
H1253 C1267 0.960 . S
H1254 C1267 0.961 . S
H1255 C1267 0.959 . S
H1256 C1270 0.929 . S
H1257 C1271 0.931 . S
H1258 C1273 0.930 . S
C1259 H1247 0.930 . S
C1259 C1260 1.399 . S
C1259 C1264 1.399 . S
C1260 C1259 1.399 . S
C1260 C1261 1.376 . S
C1261 H1248 0.930 . S
C1261 C1260 1.376 . S
C1261 C1262 1.388 . S
C1262 H1249 0.930 . S
C1262 C1261 1.388 . S
C1262 C1263 1.390 . S
C1263 C1262 1.390 . S
C1263 C1264 1.394 . S
C1263 C1269 1.465 . S
C1264 C1259 1.399 . S
C1264 C1263 1.394 . S
C1264 C1265 1.516 . S
C1265 C1264 1.516 . S
C1265 C1266 1.502 . S
C1265 C1267 1.561 . S
C1265 C1268 1.526 . S
C1266 H1250 0.959 . S
C1266 H1251 0.959 . S
C1266 H1252 0.961 . S
C1266 C1265 1.502 . S
C1267 H1253 0.960 . S
C1267 H1254 0.961 . S
C1267 H1255 0.959 . S
C1267 C1265 1.561 . S
C1268 C1265 1.526 . S
C1268 C1269 1.396 . S
C1268 C1273 1.390 . S
C1269 C1263 1.465 . S
C1269 C1268 1.396 . S
C1269 C1270 1.399 . S
C1270 H1256 0.929 . S
C1270 C1269 1.399 . S
C1270 C1271 1.385 . S
C1271 H1257 0.931 . S
C1271 C1270 1.385 . S
C1271 C1272 1.389 . S
C1272 C1271 1.389 . S
C1272 C1273 1.387 . S
C1273 H1258 0.930 . S
C1273 C1268 1.390 . S
C1273 C1272 1.387 . S
H1274 C1286 0.930 . S
H1275 C1288 0.930 . S
H1276 C1289 0.930 . S
H1277 C1293 0.959 . S
H1278 C1293 0.959 . S
H1279 C1293 0.961 . S
H1280 C1294 0.960 . S
H1281 C1294 0.961 . S
H1282 C1294 0.959 . S
H1283 C1297 0.929 . S
H1284 C1298 0.931 . S
H1285 C1300 0.930 . S
C1286 H1274 0.930 . S
C1286 C1287 1.399 . S
C1286 C1291 1.399 . S
C1287 C1286 1.399 . S
C1287 C1288 1.376 . S
C1288 H1275 0.930 . S
C1288 C1287 1.376 . S
C1288 C1289 1.388 . S
C1289 H1276 0.930 . S
C1289 C1288 1.388 . S
C1289 C1290 1.390 . S
C1290 C1289 1.390 . S
C1290 C1291 1.394 . S
C1290 C1296 1.465 . S
C1291 C1286 1.399 . S
C1291 C1290 1.394 . S
C1291 C1292 1.516 . S
C1292 C1291 1.516 . S
C1292 C1293 1.502 . S
C1292 C1294 1.561 . S
C1292 C1295 1.526 . S
C1293 H1277 0.959 . S
C1293 H1278 0.959 . S
C1293 H1279 0.961 . S
C1293 C1292 1.502 . S
C1294 H1280 0.960 . S
C1294 H1281 0.961 . S
C1294 H1282 0.959 . S
C1294 C1292 1.561 . S
C1295 C1292 1.526 . S
C1295 C1296 1.396 . S
C1295 C1300 1.390 . S
C1296 C1290 1.465 . S
C1296 C1295 1.396 . S
C1296 C1297 1.399 . S
C1297 H1283 0.929 . S
C1297 C1296 1.399 . S
C1297 C1298 1.385 . S
C1298 H1284 0.931 . S
C1298 C1297 1.385 . S
C1298 C1299 1.389 . S
C1299 C1298 1.389 . S
C1299 C1300 1.387 . S
C1300 H1285 0.930 . S
C1300 C1295 1.390 . S
C1300 C1299 1.387 . S
H1301 C1313 0.930 . S
H1302 C1315 0.930 . S
H1303 C1316 0.930 . S
H1304 C1320 0.959 . S
H1305 C1320 0.959 . S
H1306 C1320 0.961 . S
H1307 C1321 0.960 . S
H1308 C1321 0.961 . S
H1309 C1321 0.959 . S
H1310 C1324 0.929 . S
H1311 C1325 0.931 . S
H1312 C1327 0.930 . S
C1313 H1301 0.930 . S
C1313 C1314 1.399 . S
C1313 C1318 1.399 . S
C1314 C1313 1.399 . S
C1314 C1315 1.376 . S
C1315 H1302 0.930 . S
C1315 C1314 1.376 . S
C1315 C1316 1.388 . S
C1316 H1303 0.930 . S
C1316 C1315 1.388 . S
C1316 C1317 1.390 . S
C1317 C1316 1.390 . S
C1317 C1318 1.394 . S
C1317 C1323 1.465 . S
C1318 C1313 1.399 . S
C1318 C1317 1.394 . S
C1318 C1319 1.516 . S
C1319 C1318 1.516 . S
C1319 C1320 1.502 . S
C1319 C1321 1.561 . S
C1319 C1322 1.526 . S
C1320 H1304 0.959 . S
C1320 H1305 0.959 . S
C1320 H1306 0.961 . S
C1320 C1319 1.502 . S
C1321 H1307 0.960 . S
C1321 H1308 0.961 . S
C1321 H1309 0.959 . S
C1321 C1319 1.561 . S
C1322 C1319 1.526 . S
C1322 C1323 1.396 . S
C1322 C1327 1.390 . S
C1323 C1317 1.465 . S
C1323 C1322 1.396 . S
C1323 C1324 1.399 . S
C1324 H1310 0.929 . S
C1324 C1323 1.399 . S
C1324 C1325 1.385 . S
C1325 H1311 0.931 . S
C1325 C1324 1.385 . S
C1325 C1326 1.389 . S
C1326 C1325 1.389 . S
C1326 C1327 1.387 . S
C1327 H1312 0.930 . S
C1327 C1322 1.390 . S
C1327 C1326 1.387 . S
H1328 C1340 0.930 . S
H1329 C1342 0.930 . S
H1330 C1343 0.930 . S
H1331 C1347 0.959 . S
H1332 C1347 0.959 . S
H1333 C1347 0.961 . S
H1334 C1348 0.960 . S
H1335 C1348 0.961 . S
H1336 C1348 0.959 . S
H1337 C1351 0.929 . S
H1338 C1352 0.931 . S
H1339 C1354 0.930 . S
C1340 H1328 0.930 . S
C1340 C1341 1.399 . S
C1340 C1345 1.399 . S
C1341 C1340 1.399 . S
C1341 C1342 1.376 . S
C1342 H1329 0.930 . S
C1342 C1341 1.376 . S
C1342 C1343 1.388 . S
C1343 H1330 0.930 . S
C1343 C1342 1.388 . S
C1343 C1344 1.390 . S
C1344 C1343 1.390 . S
C1344 C1345 1.394 . S
C1344 C1350 1.465 . S
C1345 C1340 1.399 . S
C1345 C1344 1.394 . S
C1345 C1346 1.516 . S
C1346 C1345 1.516 . S
C1346 C1347 1.502 . S
C1346 C1348 1.561 . S
C1346 C1349 1.526 . S
C1347 H1331 0.959 . S
C1347 H1332 0.959 . S
C1347 H1333 0.961 . S
C1347 C1346 1.502 . S
C1348 H1334 0.960 . S
C1348 H1335 0.961 . S
C1348 H1336 0.959 . S
C1348 C1346 1.561 . S
C1349 C1346 1.526 . S
C1349 C1350 1.396 . S
C1349 C1354 1.390 . S
C1350 C1344 1.465 . S
C1350 C1349 1.396 . S
C1350 C1351 1.399 . S
C1351 H1337 0.929 . S
C1351 C1350 1.399 . S
C1351 C1352 1.385 . S
C1352 H1338 0.931 . S
C1352 C1351 1.385 . S
C1352 C1353 1.389 . S
C1353 C1352 1.389 . S
C1353 C1354 1.387 . S
C1354 H1339 0.930 . S
C1354 C1349 1.390 . S
C1354 C1353 1.387 . S
H1355 C1367 0.930 . S
H1356 C1369 0.930 . S
H1357 C1370 0.930 . S
H1358 C1374 0.959 . S
H1359 C1374 0.959 . S
H1360 C1374 0.961 . S
H1361 C1375 0.960 . S
H1362 C1375 0.961 . S
H1363 C1375 0.959 . S
H1364 C1378 0.929 . S
H1365 C1379 0.931 . S
H1366 C1381 0.930 . S
C1367 H1355 0.930 . S
C1367 C1368 1.399 . S
C1367 C1372 1.399 . S
C1368 C1367 1.399 . S
C1368 C1369 1.376 . S
C1369 H1356 0.930 . S
C1369 C1368 1.376 . S
C1369 C1370 1.388 . S
C1370 H1357 0.930 . S
C1370 C1369 1.388 . S
C1370 C1371 1.390 . S
C1371 C1370 1.390 . S
C1371 C1372 1.394 . S
C1371 C1377 1.465 . S
C1372 C1367 1.399 . S
C1372 C1371 1.394 . S
C1372 C1373 1.516 . S
C1373 C1372 1.516 . S
C1373 C1374 1.502 1_545 S
C1373 C1375 1.561 . S
C1373 C1376 1.526 . S
C1374 H1358 0.959 . S
C1374 H1359 0.959 . S
C1374 H1360 0.961 . S
C1374 C1373 1.502 1_565 S
C1375 H1361 0.960 . S
C1375 H1362 0.961 . S
C1375 H1363 0.959 . S
C1375 C1373 1.561 . S
C1376 C1373 1.526 . S
C1376 C1377 1.396 . S
C1376 C1381 1.390 . S
C1377 C1371 1.465 . S
C1377 C1376 1.396 . S
C1377 C1378 1.399 . S
C1378 H1364 0.929 . S
C1378 C1377 1.399 . S
C1378 C1379 1.385 . S
C1379 H1365 0.931 . S
C1379 C1378 1.385 . S
C1379 C1380 1.389 . S
C1380 C1379 1.389 . S
C1380 C1381 1.387 . S
C1381 H1366 0.930 . S
C1381 C1376 1.390 . S
C1381 C1380 1.387 . S
H1382 C1394 0.930 . S
H1383 C1396 0.930 . S
H1384 C1397 0.930 . S
H1385 C1401 0.959 . S
H1386 C1401 0.959 . S
H1387 C1401 0.961 . S
H1388 C1402 0.960 . S
H1389 C1402 0.961 . S
H1390 C1402 0.959 . S
H1391 C1405 0.929 . S
H1392 C1406 0.931 . S
H1393 C1408 0.930 . S
C1394 H1382 0.930 . S
C1394 C1395 1.399 . S
C1394 C1399 1.399 . S
C1395 C1394 1.399 . S
C1395 C1396 1.376 . S
C1396 H1383 0.930 . S
C1396 C1395 1.376 . S
C1396 C1397 1.388 . S
C1397 H1384 0.930 . S
C1397 C1396 1.388 . S
C1397 C1398 1.390 . S
C1398 C1397 1.390 . S
C1398 C1399 1.394 . S
C1398 C1404 1.465 . S
C1399 C1394 1.399 . S
C1399 C1398 1.394 . S
C1399 C1400 1.516 . S
C1400 C1399 1.516 . S
C1400 C1401 1.502 . S
C1400 C1402 1.561 . S
C1400 C1403 1.526 . S
C1401 H1385 0.959 . S
C1401 H1386 0.959 . S
C1401 H1387 0.961 . S
C1401 C1400 1.502 . S
C1402 H1388 0.960 . S
C1402 H1389 0.961 . S
C1402 H1390 0.959 . S
C1402 C1400 1.561 . S
C1403 C1400 1.526 . S
C1403 C1404 1.396 . S
C1403 C1408 1.390 . S
C1404 C1398 1.465 . S
C1404 C1403 1.396 . S
C1404 C1405 1.399 . S
C1405 H1391 0.929 . S
C1405 C1404 1.399 . S
C1405 C1406 1.385 . S
C1406 H1392 0.931 . S
C1406 C1405 1.385 . S
C1406 C1407 1.389 . S
C1407 C1406 1.389 . S
C1407 C1408 1.387 . S
C1408 H1393 0.930 . S
C1408 C1403 1.390 . S
C1408 C1407 1.387 . S
H1409 C1421 0.930 . S
H1410 C1423 0.930 . S
H1411 C1424 0.930 . S
H1412 C1428 0.959 . S
H1413 C1428 0.959 . S
H1414 C1428 0.961 . S
H1415 C1429 0.960 . S
H1416 C1429 0.961 . S
H1417 C1429 0.959 . S
H1418 C1432 0.929 . S
H1419 C1433 0.931 . S
H1420 C1435 0.930 . S
C1421 H1409 0.930 . S
C1421 C1422 1.399 . S
C1421 C1426 1.399 . S
C1422 C1421 1.399 . S
C1422 C1423 1.376 . S
C1423 H1410 0.930 . S
C1423 C1422 1.376 . S
C1423 C1424 1.388 . S
C1424 H1411 0.930 . S
C1424 C1423 1.388 . S
C1424 C1425 1.390 . S
C1425 C1424 1.390 . S
C1425 C1426 1.394 . S
C1425 C1431 1.465 . S
C1426 C1421 1.399 . S
C1426 C1425 1.394 . S
C1426 C1427 1.516 . S
C1427 C1426 1.516 . S
C1427 C1428 1.502 . S
C1427 C1429 1.561 . S
C1427 C1430 1.526 . S
C1428 H1412 0.959 . S
C1428 H1413 0.959 . S
C1428 H1414 0.961 . S
C1428 C1427 1.502 . S
C1429 H1415 0.960 . S
C1429 H1416 0.961 . S
C1429 H1417 0.959 . S
C1429 C1427 1.561 . S
C1430 C1427 1.526 . S
C1430 C1431 1.396 . S
C1430 C1435 1.390 . S
C1431 C1425 1.465 . S
C1431 C1430 1.396 . S
C1431 C1432 1.399 . S
C1432 H1418 0.929 . S
C1432 C1431 1.399 . S
C1432 C1433 1.385 . S
C1433 H1419 0.931 . S
C1433 C1432 1.385 . S
C1433 C1434 1.389 . S
C1434 C1433 1.389 . S
C1434 C1435 1.387 . S
C1435 H1420 0.930 . S
C1435 C1430 1.390 . S
C1435 C1434 1.387 . S
H1436 C1448 0.930 . S
H1437 C1450 0.930 . S
H1438 C1451 0.930 . S
H1439 C1455 0.959 . S
H1440 C1455 0.959 . S
H1441 C1455 0.961 . S
H1442 C1456 0.960 . S
H1443 C1456 0.961 . S
H1444 C1456 0.959 . S
H1445 C1459 0.929 . S
H1446 C1460 0.931 . S
H1447 C1462 0.930 . S
C1448 H1436 0.930 . S
C1448 C1449 1.399 . S
C1448 C1453 1.399 . S
C1449 C1448 1.399 . S
C1449 C1450 1.376 . S
C1450 H1437 0.930 . S
C1450 C1449 1.376 . S
C1450 C1451 1.388 . S
C1451 H1438 0.930 . S
C1451 C1450 1.388 . S
C1451 C1452 1.390 . S
C1452 C1451 1.390 . S
C1452 C1453 1.394 . S
C1452 C1458 1.465 . S
C1453 C1448 1.399 . S
C1453 C1452 1.394 . S
C1453 C1454 1.516 . S
C1454 C1453 1.516 . S
C1454 C1455 1.502 . S
C1454 C1456 1.561 . S
C1454 C1457 1.526 . S
C1455 H1439 0.959 . S
C1455 H1440 0.959 . S
C1455 H1441 0.961 . S
C1455 C1454 1.502 . S
C1456 H1442 0.960 . S
C1456 H1443 0.961 . S
C1456 H1444 0.959 . S
C1456 C1454 1.561 . S
C1457 C1454 1.526 . S
C1457 C1458 1.396 . S
C1457 C1462 1.390 . S
C1458 C1452 1.465 . S
C1458 C1457 1.396 . S
C1458 C1459 1.399 . S
C1459 H1445 0.929 . S
C1459 C1458 1.399 . S
C1459 C1460 1.385 . S
C1460 H1446 0.931 . S
C1460 C1459 1.385 . S
C1460 C1461 1.389 . S
C1461 C1460 1.389 . S
C1461 C1462 1.387 . S
C1462 H1447 0.930 . S
C1462 C1457 1.390 . S
C1462 C1461 1.387 . S
H1463 C1475 0.935 . S
H1464 C1477 0.930 . S
H1465 C1478 0.930 . S
H1466 C1482 0.959 . S
H1467 C1482 0.959 . S
H1468 C1482 0.961 . S
H1469 C1483 0.960 . S
H1470 C1483 0.961 . S
H1471 C1483 0.959 . S
H1472 C1486 0.929 . S
H1473 C1487 0.931 . S
H1474 C1489 0.930 1_565 S
C1475 H1463 0.935 . S
C1475 C1476 1.399 . S
C1475 C1480 1.399 . S
C1476 C1475 1.399 . S
C1476 C1477 1.376 . S
C1477 H1464 0.930 . S
C1477 C1476 1.376 . S
C1477 C1478 1.388 . S
C1478 H1465 0.930 . S
C1478 C1477 1.388 . S
C1478 C1479 1.390 . S
C1479 C1478 1.390 . S
C1479 C1480 1.394 . S
C1479 C1485 1.465 . S
C1480 C1475 1.399 . S
C1480 C1479 1.394 . S
C1480 C1481 1.516 1_545 S
C1481 C1480 1.516 1_565 S
C1481 C1482 1.502 . S
C1481 C1483 1.561 . S
C1481 C1484 1.526 1_565 S
C1482 H1466 0.959 . S
C1482 H1467 0.959 . S
C1482 H1468 0.961 . S
C1482 C1481 1.502 . S
C1483 H1469 0.960 . S
C1483 H1470 0.961 . S
C1483 H1471 0.959 . S
C1483 C1481 1.561 . S
C1484 C1481 1.526 1_545 S
C1484 C1485 1.396 . S
C1484 C1489 1.390 . S
C1485 C1479 1.465 . S
C1485 C1484 1.396 . S
C1485 C1486 1.399 . S
C1486 H1472 0.929 . S
C1486 C1485 1.399 . S
C1486 C1487 1.385 . S
C1487 H1473 0.931 . S
C1487 C1486 1.385 . S
C1487 C1488 1.389 . S
C1488 C1487 1.389 . S
C1488 C1489 1.387 . S
C1489 H1474 0.930 1_545 S
C1489 C1484 1.390 . S
C1489 C1488 1.387 . S
H1490 C1502 0.930 . S
H1491 C1504 0.930 . S
H1492 C1505 0.930 . S
H1493 C1509 0.959 . S
H1494 C1509 0.959 . S
H1495 C1509 0.961 . S
H1496 C1510 0.960 . S
H1497 C1510 0.961 . S
H1498 C1510 0.959 . S
H1499 C1513 0.929 . S
H1500 C1514 0.931 . S
H1501 C1516 0.930 . S
C1502 H1490 0.930 . S
C1502 C1503 1.399 . S
C1502 C1507 1.399 . S
C1503 C1502 1.399 . S
C1503 C1504 1.376 . S
C1504 H1491 0.930 . S
C1504 C1503 1.376 . S
C1504 C1505 1.388 . S
C1505 H1492 0.930 . S
C1505 C1504 1.388 . S
C1505 C1506 1.390 . S
C1506 C1505 1.390 . S
C1506 C1507 1.394 . S
C1506 C1512 1.465 . S
C1507 C1502 1.399 . S
C1507 C1506 1.394 . S
C1507 C1508 1.516 . S
C1508 C1507 1.516 . S
C1508 C1509 1.502 . S
C1508 C1510 1.561 . S
C1508 C1511 1.526 . S
C1509 H1493 0.959 . S
C1509 H1494 0.959 . S
C1509 H1495 0.961 . S
C1509 C1508 1.502 . S
C1510 H1496 0.960 . S
C1510 H1497 0.961 . S
C1510 H1498 0.959 . S
C1510 C1508 1.561 . S
C1511 C1508 1.526 . S
C1511 C1512 1.396 . S
C1511 C1516 1.390 . S
C1512 C1506 1.465 . S
C1512 C1511 1.396 . S
C1512 C1513 1.399 . S
C1513 H1499 0.929 . S
C1513 C1512 1.399 . S
C1513 C1514 1.385 . S
C1514 H1500 0.931 . S
C1514 C1513 1.385 . S
C1514 C1515 1.389 . S
C1515 C1514 1.389 . S
C1515 C1516 1.387 . S
C1516 H1501 0.930 . S
C1516 C1511 1.390 . S
C1516 C1515 1.387 . S
H1517 C1529 0.930 . S
H1518 C1531 0.930 . S
H1519 C1532 0.930 . S
H1520 C1536 0.959 . S
H1521 C1536 0.959 . S
H1522 C1536 0.961 . S
H1523 C1537 0.960 . S
H1524 C1537 0.961 . S
H1525 C1537 0.959 . S
H1526 C1540 0.929 . S
H1527 C1541 0.931 . S
H1528 C1543 0.930 . S
C1529 H1517 0.930 . S
C1529 C1530 1.399 . S
C1529 C1534 1.399 . S
C1530 C1529 1.399 . S
C1530 C1531 1.376 . S
C1531 H1518 0.930 . S
C1531 C1530 1.376 . S
C1531 C1532 1.388 . S
C1532 H1519 0.930 . S
C1532 C1531 1.388 . S
C1532 C1533 1.390 . S
C1533 C1532 1.390 . S
C1533 C1534 1.394 . S
C1533 C1539 1.465 . S
C1534 C1529 1.399 . S
C1534 C1533 1.394 . S
C1534 C1535 1.516 . S
C1535 C1534 1.516 . S
C1535 C1536 1.502 . S
C1535 C1537 1.561 . S
C1535 C1538 1.526 . S
C1536 H1520 0.959 . S
C1536 H1521 0.959 . S
C1536 H1522 0.961 . S
C1536 C1535 1.502 . S
C1537 H1523 0.960 . S
C1537 H1524 0.961 . S
C1537 H1525 0.959 . S
C1537 C1535 1.561 . S
C1538 C1535 1.526 . S
C1538 C1539 1.396 . S
C1538 C1543 1.390 . S
C1539 C1533 1.465 . S
C1539 C1538 1.396 . S
C1539 C1540 1.399 . S
C1540 H1526 0.929 . S
C1540 C1539 1.399 . S
C1540 C1541 1.385 . S
C1541 H1527 0.931 . S
C1541 C1540 1.385 . S
C1541 C1542 1.389 . S
C1542 C1541 1.389 . S
C1542 C1543 1.387 . S
C1543 H1528 0.930 . S
C1543 C1538 1.390 . S
C1543 C1542 1.387 . S
H1544 C1556 0.930 . S
H1545 C1558 0.930 . S
H1546 C1559 0.930 . S
H1547 C1563 0.959 . S
H1548 C1563 0.959 . S
H1549 C1563 0.961 . S
H1550 C1564 0.960 . S
H1551 C1564 0.961 . S
H1552 C1564 0.959 . S
H1553 C1567 0.929 . S
H1554 C1568 0.931 . S
H1555 C1570 0.930 . S
C1556 H1544 0.930 . S
C1556 C1557 1.399 . S
C1556 C1561 1.399 . S
C1557 C1556 1.399 . S
C1557 C1558 1.376 . S
C1558 H1545 0.930 . S
C1558 C1557 1.376 . S
C1558 C1559 1.388 . S
C1559 H1546 0.930 . S
C1559 C1558 1.388 . S
C1559 C1560 1.390 . S
C1560 C1559 1.390 . S
C1560 C1561 1.394 . S
C1560 C1566 1.465 . S
C1561 C1556 1.399 . S
C1561 C1560 1.394 . S
C1561 C1562 1.516 . S
C1562 C1561 1.516 . S
C1562 C1563 1.502 . S
C1562 C1564 1.561 . S
C1562 C1565 1.526 . S
C1563 H1547 0.959 . S
C1563 H1548 0.959 . S
C1563 H1549 0.961 . S
C1563 C1562 1.502 . S
C1564 H1550 0.960 . S
C1564 H1551 0.961 . S
C1564 H1552 0.959 . S
C1564 C1562 1.561 . S
C1565 C1562 1.526 . S
C1565 C1566 1.396 . S
C1565 C1570 1.390 . S
C1566 C1560 1.465 . S
C1566 C1565 1.396 . S
C1566 C1567 1.399 . S
C1567 H1553 0.929 . S
C1567 C1566 1.399 . S
C1567 C1568 1.385 . S
C1568 H1554 0.931 . S
C1568 C1567 1.385 . S
C1568 C1569 1.389 . S
C1569 C1568 1.389 . S
C1569 C1570 1.387 . S
C1570 H1555 0.930 . S
C1570 C1565 1.390 . S
C1570 C1569 1.387 . S
H1571 C1583 0.930 . S
H1572 C1585 0.930 . S
H1573 C1586 0.930 . S
H1574 C1590 0.959 1_455 S
H1575 C1590 0.957 1_455 S
H1576 C1590 0.961 1_554 S
H1577 C1591 0.960 1_554 S
H1578 C1591 0.961 . S
H1579 C1591 0.959 . S
H1580 C1594 0.929 . S
H1581 C1595 0.931 . S
H1582 C1597 0.930 . S
C1583 H1571 0.930 . S
C1583 C1584 1.399 1_554 S
C1583 C1588 1.399 1_554 S
C1584 C1583 1.399 1_556 S
C1584 C1585 1.376 . S
C1585 H1572 0.930 . S
C1585 C1584 1.376 . S
C1585 C1586 1.388 . S
C1586 H1573 0.930 . S
C1586 C1585 1.388 . S
C1586 C1587 1.390 . S
C1587 C1586 1.390 . S
C1587 C1588 1.394 . S
C1587 C1593 1.465 . S
C1588 C1583 1.399 1_556 S
C1588 C1587 1.394 . S
C1588 C1589 1.516 . S
C1589 C1588 1.516 . S
C1589 C1590 1.502 . S
C1589 C1591 1.561 . S
C1589 C1592 1.526 . S
C1590 H1574 0.959 1_655 S
C1590 H1575 0.957 1_655 S
C1590 H1576 0.961 1_556 S
C1590 C1589 1.502 . S
C1591 H1577 0.960 1_556 S
C1591 H1578 0.961 . S
C1591 H1579 0.959 . S
C1591 C1589 1.561 . S
C1592 C1589 1.526 . S
C1592 C1593 1.396 . S
C1592 C1597 1.390 . S
C1593 C1587 1.465 . S
C1593 C1592 1.396 . S
C1593 C1594 1.399 . S
C1594 H1580 0.929 . S
C1594 C1593 1.399 . S
C1594 C1595 1.385 . S
C1595 H1581 0.931 . S
C1595 C1594 1.385 . S
C1595 C1596 1.389 . S
C1596 C1595 1.389 . S
C1596 C1597 1.387 . S
C1597 H1582 0.930 . S
C1597 C1592 1.390 . S
C1597 C1596 1.387 . S
H1598 C1610 0.930 . S
H1599 C1612 0.930 . S
H1600 C1613 0.930 . S
H1601 C1617 0.959 . S
H1602 C1617 0.959 . S
H1603 C1617 0.961 . S
H1604 C1618 0.960 . S
H1605 C1618 0.961 . S
H1606 C1618 0.959 . S
H1607 C1621 0.929 . S
H1608 C1622 0.931 . S
H1609 C1624 0.930 . S
C1610 H1598 0.930 . S
C1610 C1611 1.399 . S
C1610 C1615 1.399 . S
C1611 C1610 1.399 . S
C1611 C1612 1.376 . S
C1612 H1599 0.930 . S
C1612 C1611 1.376 . S
C1612 C1613 1.388 . S
C1613 H1600 0.930 . S
C1613 C1612 1.388 . S
C1613 C1614 1.390 . S
C1614 C1613 1.390 . S
C1614 C1615 1.394 . S
C1614 C1620 1.465 . S
C1615 C1610 1.399 . S
C1615 C1614 1.394 . S
C1615 C1616 1.516 . S
C1616 C1615 1.516 . S
C1616 C1617 1.502 . S
C1616 C1618 1.561 . S
C1616 C1619 1.526 . S
C1617 H1601 0.959 . S
C1617 H1602 0.959 . S
C1617 H1603 0.961 . S
C1617 C1616 1.502 . S
C1618 H1604 0.960 . S
C1618 H1605 0.961 . S
C1618 H1606 0.959 . S
C1618 C1616 1.561 . S
C1619 C1616 1.526 . S
C1619 C1620 1.396 . S
C1619 C1624 1.390 . S
C1620 C1614 1.465 . S
C1620 C1619 1.396 . S
C1620 C1621 1.399 . S
C1621 H1607 0.929 . S
C1621 C1620 1.399 . S
C1621 C1622 1.385 . S
C1622 H1608 0.931 . S
C1622 C1621 1.385 . S
C1622 C1623 1.389 . S
C1623 C1622 1.389 . S
C1623 C1624 1.387 . S
C1624 H1609 0.930 . S
C1624 C1619 1.390 . S
C1624 C1623 1.387 . S
H1625 C1637 0.930 . S
H1626 C1639 0.930 . S
H1627 C1640 0.930 1_654 S
H1628 C1644 0.959 . S
H1629 C1644 0.959 . S
H1630 C1644 0.961 . S
H1631 C1645 0.960 . S
H1632 C1645 0.961 . S
H1633 C1645 0.959 . S
H1634 C1648 0.929 1_655 S
H1635 C1649 0.931 1_655 S
H1636 C1651 0.930 . S
C1637 H1625 0.930 . S
C1637 C1638 1.399 . S
C1637 C1642 1.399 . S
C1638 C1637 1.399 . S
C1638 C1639 1.376 1_556 S
C1639 H1626 0.930 . S
C1639 C1638 1.376 1_554 S
C1639 C1640 1.388 1_554 S
C1640 H1627 0.930 1_456 S
C1640 C1639 1.388 1_556 S
C1640 C1641 1.390 . S
C1641 C1640 1.390 . S
C1641 C1642 1.394 . S
C1641 C1647 1.465 . S
C1642 C1637 1.399 . S
C1642 C1641 1.394 . S
C1642 C1643 1.516 . S
C1643 C1642 1.516 . S
C1643 C1644 1.502 . S
C1643 C1645 1.561 . S
C1643 C1646 1.526 . S
C1644 H1628 0.959 . S
C1644 H1629 0.959 . S
C1644 H1630 0.961 . S
C1644 C1643 1.502 . S
C1645 H1631 0.960 . S
C1645 H1632 0.961 . S
C1645 H1633 0.959 . S
C1645 C1643 1.561 . S
C1646 C1643 1.526 . S
C1646 C1647 1.396 . S
C1646 C1651 1.390 . S
C1647 C1641 1.465 . S
C1647 C1646 1.396 . S
C1647 C1648 1.399 . S
C1648 H1634 0.929 1_455 S
C1648 C1647 1.399 . S
C1648 C1649 1.385 . S
C1649 H1635 0.931 1_455 S
C1649 C1648 1.385 . S
C1649 C1650 1.389 . S
C1650 C1649 1.389 . S
C1650 C1651 1.387 . S
C1651 H1636 0.930 . S
C1651 C1646 1.390 . S
C1651 C1650 1.387 . S
H1652 C1664 0.930 . S
H1653 C1666 0.930 . S
H1654 C1667 0.930 . S
H1655 C1671 0.959 . S
H1656 C1671 0.959 . S
H1657 C1671 0.961 . S
H1658 C1672 0.960 . S
H1659 C1672 0.961 . S
H1660 C1672 0.959 . S
H1661 C1675 0.929 . S
H1662 C1676 0.931 . S
H1663 C1678 0.930 . S
C1664 H1652 0.930 . S
C1664 C1665 1.399 . S
C1664 C1669 1.399 . S
C1665 C1664 1.399 . S
C1665 C1666 1.376 . S
C1666 H1653 0.930 . S
C1666 C1665 1.376 . S
C1666 C1667 1.388 . S
C1667 H1654 0.930 . S
C1667 C1666 1.388 . S
C1667 C1668 1.390 . S
C1668 C1667 1.390 . S
C1668 C1669 1.394 . S
C1668 C1674 1.465 . S
C1669 C1664 1.399 . S
C1669 C1668 1.394 . S
C1669 C1670 1.516 . S
C1670 C1669 1.516 . S
C1670 C1671 1.502 . S
C1670 C1672 1.561 . S
C1670 C1673 1.526 . S
C1671 H1655 0.959 . S
C1671 H1656 0.959 . S
C1671 H1657 0.961 . S
C1671 C1670 1.502 . S
C1672 H1658 0.960 . S
C1672 H1659 0.961 . S
C1672 H1660 0.959 . S
C1672 C1670 1.561 . S
C1673 C1670 1.526 . S
C1673 C1674 1.396 . S
C1673 C1678 1.390 . S
C1674 C1668 1.465 . S
C1674 C1673 1.396 . S
C1674 C1675 1.399 . S
C1675 H1661 0.929 . S
C1675 C1674 1.399 . S
C1675 C1676 1.385 . S
C1676 H1662 0.931 . S
C1676 C1675 1.385 . S
C1676 C1677 1.389 . S
C1677 C1676 1.389 . S
C1677 C1678 1.387 . S
C1678 H1663 0.930 . S
C1678 C1673 1.390 . S
C1678 C1677 1.387 . S
H1679 C1691 0.930 . S
H1680 C1693 0.930 . S
H1681 C1694 0.930 . S
H1682 C1698 0.959 . S
H1683 C1698 0.959 . S
H1684 C1698 0.961 . S
H1685 C1699 0.960 . S
H1686 C1699 0.961 . S
H1687 C1699 0.959 . S
H1688 C1702 0.929 . S
H1689 C1703 0.931 . S
H1690 C1705 0.930 . S
C1691 H1679 0.930 . S
C1691 C1692 1.399 . S
C1691 C1696 1.399 . S
C1692 C1691 1.399 . S
C1692 C1693 1.376 . S
C1693 H1680 0.930 . S
C1693 C1692 1.376 . S
C1693 C1694 1.388 . S
C1694 H1681 0.930 . S
C1694 C1693 1.388 . S
C1694 C1695 1.390 . S
C1695 C1694 1.390 . S
C1695 C1696 1.394 . S
C1695 C1701 1.465 . S
C1696 C1691 1.399 . S
C1696 C1695 1.394 . S
C1696 C1697 1.516 . S
C1697 C1696 1.516 . S
C1697 C1698 1.502 . S
C1697 C1699 1.561 . S
C1697 C1700 1.526 . S
C1698 H1682 0.959 . S
C1698 H1683 0.959 . S
C1698 H1684 0.961 . S
C1698 C1697 1.502 . S
C1699 H1685 0.960 . S
C1699 H1686 0.961 . S
C1699 H1687 0.959 . S
C1699 C1697 1.561 . S
C1700 C1697 1.526 . S
C1700 C1701 1.396 . S
C1700 C1705 1.390 . S
C1701 C1695 1.465 . S
C1701 C1700 1.396 . S
C1701 C1702 1.399 . S
C1702 H1688 0.929 . S
C1702 C1701 1.399 . S
C1702 C1703 1.385 . S
C1703 H1689 0.931 . S
C1703 C1702 1.385 . S
C1703 C1704 1.389 . S
C1704 C1703 1.389 . S
C1704 C1705 1.387 . S
C1705 H1690 0.930 . S
C1705 C1700 1.390 . S
C1705 C1704 1.387 . S
H1706 C1718 0.930 . S
H1707 C1720 0.930 . S
H1708 C1721 0.930 . S
H1709 C1725 0.959 . S
H1710 C1725 0.959 . S
H1711 C1725 0.961 . S
H1712 C1726 0.960 . S
H1713 C1726 0.961 . S
H1714 C1726 0.959 . S
H1715 C1729 0.929 . S
H1716 C1730 0.931 . S
H1717 C1732 0.930 . S
C1718 H1706 0.930 . S
C1718 C1719 1.399 . S
C1718 C1723 1.399 . S
C1719 C1718 1.399 . S
C1719 C1720 1.376 . S
C1720 H1707 0.930 . S
C1720 C1719 1.376 . S
C1720 C1721 1.388 . S
C1721 H1708 0.930 . S
C1721 C1720 1.388 . S
C1721 C1722 1.390 . S
C1722 C1721 1.390 . S
C1722 C1723 1.394 . S
C1722 C1728 1.465 . S
C1723 C1718 1.399 . S
C1723 C1722 1.394 . S
C1723 C1724 1.516 . S
C1724 C1723 1.516 . S
C1724 C1725 1.502 . S
C1724 C1726 1.561 . S
C1724 C1727 1.526 . S
C1725 H1709 0.959 . S
C1725 H1710 0.959 . S
C1725 H1711 0.961 . S
C1725 C1724 1.502 . S
C1726 H1712 0.960 . S
C1726 H1713 0.961 . S
C1726 H1714 0.959 . S
C1726 C1724 1.561 . S
C1727 C1724 1.526 . S
C1727 C1728 1.396 . S
C1727 C1732 1.390 . S
C1728 C1722 1.465 . S
C1728 C1727 1.396 . S
C1728 C1729 1.399 . S
C1729 H1715 0.929 . S
C1729 C1728 1.399 . S
C1729 C1730 1.385 . S
C1730 H1716 0.931 . S
C1730 C1729 1.385 . S
C1730 C1731 1.389 . S
C1731 C1730 1.389 . S
C1731 C1732 1.387 . S
C1732 H1717 0.930 . S
C1732 C1727 1.390 . S
C1732 C1731 1.387 . S
H1733 C1745 0.930 . S
H1734 C1747 0.930 1_556 S
H1735 C1748 0.930 . S
H1736 C1752 0.959 . S
H1737 C1752 0.959 . S
H1738 C1752 0.961 . S
H1739 C1753 0.960 . S
H1740 C1753 0.961 . S
H1741 C1753 0.959 . S
H1742 C1756 0.929 . S
H1743 C1757 0.931 . S
H1744 C1759 0.930 . S
C1745 H1733 0.930 . S
C1745 C1746 1.399 . S
C1745 C1750 1.399 . S
C1746 C1745 1.399 . S
C1746 C1747 1.376 . S
C1747 H1734 0.930 1_554 S
C1747 C1746 1.376 . S
C1747 C1748 1.388 . S
C1748 H1735 0.930 . S
C1748 C1747 1.388 . S
C1748 C1749 1.390 . S
C1749 C1748 1.390 . S
C1749 C1750 1.394 . S
C1749 C1755 1.465 . S
C1750 C1745 1.399 . S
C1750 C1749 1.394 . S
C1750 C1751 1.516 . S
C1751 C1750 1.516 . S
C1751 C1752 1.502 . S
C1751 C1753 1.561 . S
C1751 C1754 1.526 . S
C1752 H1736 0.959 . S
C1752 H1737 0.959 . S
C1752 H1738 0.961 . S
C1752 C1751 1.502 . S
C1753 H1739 0.960 . S
C1753 H1740 0.961 . S
C1753 H1741 0.959 . S
C1753 C1751 1.561 . S
C1754 C1751 1.526 . S
C1754 C1755 1.396 . S
C1754 C1759 1.390 . S
C1755 C1749 1.465 . S
C1755 C1754 1.396 . S
C1755 C1756 1.399 . S
C1756 H1742 0.929 . S
C1756 C1755 1.399 . S
C1756 C1757 1.385 . S
C1757 H1743 0.931 . S
C1757 C1756 1.385 . S
C1757 C1758 1.389 . S
C1758 C1757 1.389 . S
C1758 C1759 1.387 . S
C1759 H1744 0.930 . S
C1759 C1754 1.390 . S
C1759 C1758 1.387 . S
H1760 C1772 0.930 . S
H1761 C1774 0.930 . S
H1762 C1775 0.930 . S
H1763 C1779 0.959 . S
H1764 C1779 0.959 . S
H1765 C1779 0.961 . S
H1766 C1780 0.960 . S
H1767 C1780 0.961 . S
H1768 C1780 0.959 . S
H1769 C1783 0.929 . S
H1770 C1784 0.931 . S
H1771 C1786 0.930 . S
C1772 H1760 0.930 . S
C1772 C1773 1.399 . S
C1772 C1777 1.399 . S
C1773 C1772 1.399 . S
C1773 C1774 1.376 . S
C1774 H1761 0.930 . S
C1774 C1773 1.376 . S
C1774 C1775 1.388 . S
C1775 H1762 0.930 . S
C1775 C1774 1.388 . S
C1775 C1776 1.390 . S
C1776 C1775 1.390 . S
C1776 C1777 1.394 . S
C1776 C1782 1.465 . S
C1777 C1772 1.399 . S
C1777 C1776 1.394 . S
C1777 C1778 1.516 . S
C1778 C1777 1.516 . S
C1778 C1779 1.502 . S
C1778 C1780 1.561 . S
C1778 C1781 1.526 . S
C1779 H1763 0.959 . S
C1779 H1764 0.959 . S
C1779 H1765 0.961 . S
C1779 C1778 1.502 . S
C1780 H1766 0.960 . S
C1780 H1767 0.961 . S
C1780 H1768 0.959 . S
C1780 C1778 1.561 . S
C1781 C1778 1.526 . S
C1781 C1782 1.396 . S
C1781 C1786 1.390 . S
C1782 C1776 1.465 . S
C1782 C1781 1.396 . S
C1782 C1783 1.399 . S
C1783 H1769 0.929 . S
C1783 C1782 1.399 . S
C1783 C1784 1.385 . S
C1784 H1770 0.931 . S
C1784 C1783 1.385 . S
C1784 C1785 1.389 . S
C1785 C1784 1.389 . S
C1785 C1786 1.387 . S
C1786 H1771 0.930 . S
C1786 C1781 1.390 . S
C1786 C1785 1.387 . S
H1787 C1799 0.930 . S
H1788 C1801 0.930 . S
H1789 C1802 0.930 . S
H1790 C1806 0.959 . S
H1791 C1806 0.959 . S
H1792 C1806 0.961 . S
H1793 C1807 0.960 . S
H1794 C1807 0.961 . S
H1795 C1807 0.959 . S
H1796 C1810 0.929 . S
H1797 C1811 0.931 . S
H1798 C1813 0.930 . S
C1799 H1787 0.930 . S
C1799 C1800 1.399 . S
C1799 C1804 1.399 . S
C1800 C1799 1.399 . S
C1800 C1801 1.376 . S
C1801 H1788 0.930 . S
C1801 C1800 1.376 . S
C1801 C1802 1.388 . S
C1802 H1789 0.930 . S
C1802 C1801 1.388 . S
C1802 C1803 1.390 . S
C1803 C1802 1.390 . S
C1803 C1804 1.394 . S
C1803 C1809 1.465 . S
C1804 C1799 1.399 . S
C1804 C1803 1.394 . S
C1804 C1805 1.516 . S
C1805 C1804 1.516 . S
C1805 C1806 1.502 . S
C1805 C1807 1.561 . S
C1805 C1808 1.526 . S
C1806 H1790 0.959 . S
C1806 H1791 0.959 . S
C1806 H1792 0.961 . S
C1806 C1805 1.502 . S
C1807 H1793 0.960 . S
C1807 H1794 0.961 . S
C1807 H1795 0.959 . S
C1807 C1805 1.561 . S
C1808 C1805 1.526 . S
C1808 C1809 1.396 . S
C1808 C1813 1.390 . S
C1809 C1803 1.465 . S
C1809 C1808 1.396 . S
C1809 C1810 1.399 . S
C1810 H1796 0.929 . S
C1810 C1809 1.399 . S
C1810 C1811 1.385 . S
C1811 H1797 0.931 . S
C1811 C1810 1.385 . S
C1811 C1812 1.389 . S
C1812 C1811 1.389 . S
C1812 C1813 1.387 . S
C1813 H1798 0.930 . S
C1813 C1808 1.390 . S
C1813 C1812 1.387 . S
H1814 C1826 0.930 . S
H1815 C1828 0.930 . S
H1816 C1829 0.930 . S
H1817 C1833 0.959 . S
H1818 C1833 0.959 . S
H1819 C1833 0.961 . S
H1820 C1834 0.960 . S
H1821 C1834 0.961 . S
H1822 C1834 0.959 . S
H1823 C1837 0.929 . S
H1824 C1838 0.931 . S
H1825 C1840 0.930 . S
C1826 H1814 0.930 . S
C1826 C1827 1.399 . S
C1826 C1831 1.399 . S
C1827 C1826 1.399 . S
C1827 C1828 1.376 . S
C1828 H1815 0.930 . S
C1828 C1827 1.376 . S
C1828 C1829 1.388 . S
C1829 H1816 0.930 . S
C1829 C1828 1.388 . S
C1829 C1830 1.390 . S
C1830 C1829 1.390 . S
C1830 C1831 1.394 . S
C1830 C1836 1.465 . S
C1831 C1826 1.399 . S
C1831 C1830 1.394 . S
C1831 C1832 1.516 . S
C1832 C1831 1.516 . S
C1832 C1833 1.502 . S
C1832 C1834 1.561 . S
C1832 C1835 1.526 . S
C1833 H1817 0.959 . S
C1833 H1818 0.959 . S
C1833 H1819 0.961 . S
C1833 C1832 1.502 . S
C1834 H1820 0.960 . S
C1834 H1821 0.961 . S
C1834 H1822 0.959 . S
C1834 C1832 1.561 . S
C1835 C1832 1.526 . S
C1835 C1836 1.396 . S
C1835 C1840 1.390 . S
C1836 C1830 1.465 . S
C1836 C1835 1.396 . S
C1836 C1837 1.399 . S
C1837 H1823 0.929 . S
C1837 C1836 1.399 . S
C1837 C1838 1.385 . S
C1838 H1824 0.931 . S
C1838 C1837 1.385 . S
C1838 C1839 1.389 . S
C1839 C1838 1.389 . S
C1839 C1840 1.387 . S
C1840 H1825 0.930 . S
C1840 C1835 1.390 . S
C1840 C1839 1.387 . S
H1841 C1853 0.930 . S
H1842 C1855 0.930 . S
H1843 C1856 0.930 . S
H1844 C1860 0.959 . S
H1845 C1860 0.959 . S
H1846 C1860 0.961 . S
H1847 C1861 0.960 . S
H1848 C1861 0.961 . S
H1849 C1861 0.959 . S
H1850 C1864 0.929 . S
H1851 C1865 0.931 . S
H1852 C1867 0.930 . S
C1853 H1841 0.930 . S
C1853 C1854 1.399 . S
C1853 C1858 1.399 . S
C1854 C1853 1.399 . S
C1854 C1855 1.376 . S
C1855 H1842 0.930 . S
C1855 C1854 1.376 . S
C1855 C1856 1.388 . S
C1856 H1843 0.930 . S
C1856 C1855 1.388 . S
C1856 C1857 1.390 . S
C1857 C1856 1.390 . S
C1857 C1858 1.394 . S
C1857 C1863 1.465 . S
C1858 C1853 1.399 . S
C1858 C1857 1.394 . S
C1858 C1859 1.516 . S
C1859 C1858 1.516 . S
C1859 C1860 1.502 . S
C1859 C1861 1.561 . S
C1859 C1862 1.526 . S
C1860 H1844 0.959 . S
C1860 H1845 0.959 . S
C1860 H1846 0.961 . S
C1860 C1859 1.502 . S
C1861 H1847 0.960 . S
C1861 H1848 0.961 . S
C1861 H1849 0.959 . S
C1861 C1859 1.561 . S
C1862 C1859 1.526 . S
C1862 C1863 1.396 . S
C1862 C1867 1.390 . S
C1863 C1857 1.465 . S
C1863 C1862 1.396 . S
C1863 C1864 1.399 . S
C1864 H1850 0.929 . S
C1864 C1863 1.399 . S
C1864 C1865 1.385 . S
C1865 H1851 0.931 . S
C1865 C1864 1.385 . S
C1865 C1866 1.389 . S
C1866 C1865 1.389 . S
C1866 C1867 1.387 . S
C1867 H1852 0.930 . S
C1867 C1862 1.390 . S
C1867 C1866 1.387 . S
H1868 C1880 0.904 1_554 S
H1869 C1882 0.930 . S
H1870 C1883 0.930 . S
H1871 C1887 0.959 1_556 S
H1872 C1887 0.959 . S
H1873 C1887 0.961 . S
H1874 C1888 0.960 . S
H1875 C1888 0.961 . S
H1876 C1888 0.959 . S
H1877 C1891 0.929 . S
H1878 C1892 0.931 . S
H1879 C1894 0.930 . S
C1880 H1868 0.904 1_556 S
C1880 C1881 1.399 . S
C1880 C1885 1.399 . S
C1881 C1880 1.399 . S
C1881 C1882 1.376 . S
C1882 H1869 0.930 . S
C1882 C1881 1.376 . S
C1882 C1883 1.388 . S
C1883 H1870 0.930 . S
C1883 C1882 1.388 . S
C1883 C1884 1.390 . S
C1884 C1883 1.390 . S
C1884 C1885 1.394 . S
C1884 C1890 1.465 . S
C1885 C1880 1.399 . S
C1885 C1884 1.394 . S
C1885 C1886 1.516 1_556 S
C1886 C1885 1.516 1_554 S
C1886 C1887 1.502 . S
C1886 C1888 1.561 . S
C1886 C1889 1.526 1_554 S
C1887 H1871 0.959 1_554 S
C1887 H1872 0.959 . S
C1887 H1873 0.961 . S
C1887 C1886 1.502 . S
C1888 H1874 0.960 . S
C1888 H1875 0.961 . S
C1888 H1876 0.959 . S
C1888 C1886 1.561 . S
C1889 C1886 1.526 1_556 S
C1889 C1890 1.396 . S
C1889 C1894 1.390 1_556 S
C1890 C1884 1.465 . S
C1890 C1889 1.396 . S
C1890 C1891 1.399 . S
C1891 H1877 0.929 . S
C1891 C1890 1.399 . S
C1891 C1892 1.385 . S
C1892 H1878 0.931 . S
C1892 C1891 1.385 . S
C1892 C1893 1.389 . S
C1893 C1892 1.389 . S
C1893 C1894 1.387 1_556 S
C1894 H1879 0.930 . S
C1894 C1889 1.390 1_554 S
C1894 C1893 1.387 1_554 S
H1895 C1907 0.930 . S
H1896 C1909 0.930 . S
H1897 C1910 0.930 . S
H1898 C1914 0.959 . S
H1899 C1914 0.959 . S
H1900 C1914 0.961 . S
H1901 C1915 0.960 . S
H1902 C1915 0.961 . S
H1903 C1915 0.959 . S
H1904 C1918 0.929 . S
H1905 C1919 0.931 . S
H1906 C1921 0.930 . S
C1907 H1895 0.930 . S
C1907 C1908 1.399 . S
C1907 C1912 1.399 . S
C1908 C1907 1.399 . S
C1908 C1909 1.376 . S
C1909 H1896 0.930 . S
C1909 C1908 1.376 . S
C1909 C1910 1.388 . S
C1910 H1897 0.930 . S
C1910 C1909 1.388 . S
C1910 C1911 1.390 . S
C1911 C1910 1.390 . S
C1911 C1912 1.394 . S
C1911 C1917 1.465 . S
C1912 C1907 1.399 . S
C1912 C1911 1.394 . S
C1912 C1913 1.516 . S
C1913 C1912 1.516 . S
C1913 C1914 1.502 . S
C1913 C1915 1.561 . S
C1913 C1916 1.526 . S
C1914 H1898 0.959 . S
C1914 H1899 0.959 . S
C1914 H1900 0.961 . S
C1914 C1913 1.502 . S
C1915 H1901 0.960 . S
C1915 H1902 0.961 . S
C1915 H1903 0.959 . S
C1915 C1913 1.561 . S
C1916 C1913 1.526 . S
C1916 C1917 1.396 . S
C1916 C1921 1.390 . S
C1917 C1911 1.465 . S
C1917 C1916 1.396 . S
C1917 C1918 1.399 . S
C1918 H1904 0.929 . S
C1918 C1917 1.399 . S
C1918 C1919 1.385 . S
C1919 H1905 0.931 . S
C1919 C1918 1.385 . S
C1919 C1920 1.389 . S
C1920 C1919 1.389 . S
C1920 C1921 1.387 . S
C1921 H1906 0.930 . S
C1921 C1916 1.390 . S
C1921 C1920 1.387 . S
H1922 C1934 0.930 . S
H1923 C1936 0.930 . S
H1924 C1937 0.930 . S
H1925 C1941 0.959 1_554 S
H1926 C1941 0.959 . S
H1927 C1941 0.961 . S
H1928 C1942 0.960 . S
H1929 C1942 0.961 . S
H1930 C1942 0.959 . S
H1931 C1945 0.929 . S
H1932 C1946 0.931 . S
H1933 C1948 0.930 1_556 S
C1934 H1922 0.930 . S
C1934 C1935 1.399 . S
C1934 C1939 1.399 . S
C1935 C1934 1.399 . S
C1935 C1936 1.376 . S
C1936 H1923 0.930 . S
C1936 C1935 1.376 . S
C1936 C1937 1.388 . S
C1937 H1924 0.930 . S
C1937 C1936 1.388 . S
C1937 C1938 1.390 . S
C1938 C1937 1.390 . S
C1938 C1939 1.394 . S
C1938 C1944 1.465 . S
C1939 C1934 1.399 . S
C1939 C1938 1.394 . S
C1939 C1940 1.516 . S
C1940 C1939 1.516 . S
C1940 C1941 1.502 1_554 S
C1940 C1942 1.561 1_554 S
C1940 C1943 1.526 . S
C1941 H1925 0.959 1_556 S
C1941 H1926 0.959 . S
C1941 H1927 0.961 . S
C1941 C1940 1.502 1_556 S
C1942 H1928 0.960 . S
C1942 H1929 0.961 . S
C1942 H1930 0.959 . S
C1942 C1940 1.561 1_556 S
C1943 C1940 1.526 . S
C1943 C1944 1.396 . S
C1943 C1948 1.390 . S
C1944 C1938 1.465 . S
C1944 C1943 1.396 . S
C1944 C1945 1.399 . S
C1945 H1931 0.929 . S
C1945 C1944 1.399 . S
C1945 C1946 1.385 . S
C1946 H1932 0.931 . S
C1946 C1945 1.385 . S
C1946 C1947 1.389 . S
C1947 C1946 1.389 . S
C1947 C1948 1.387 . S
C1948 H1933 0.930 1_554 S
C1948 C1943 1.390 . S
C1948 C1947 1.387 . S
H1949 C1961 0.930 . S
H1950 C1963 0.930 1_556 S
H1951 C1964 0.981 . S
H1952 C1968 0.959 . S
H1953 C1968 0.959 . S
H1954 C1968 0.961 . S
H1955 C1969 0.960 . S
H1956 C1969 0.961 . S
H1957 C1969 0.959 . S
H1958 C1972 0.929 . S
H1959 C1973 0.931 . S
H1960 C1975 0.930 . S
C1961 H1949 0.930 . S
C1961 C1962 1.399 . S
C1961 C1966 1.399 . S
C1962 C1961 1.399 . S
C1962 C1963 1.376 . S
C1963 H1950 0.930 1_554 S
C1963 C1962 1.376 . S
C1963 C1964 1.371 1_554 S
C1964 H1951 0.981 . S
C1964 C1963 1.371 1_556 S
C1964 C1965 1.357 1_556 S
C1965 C1964 1.357 1_554 S
C1965 C1966 1.394 . S
C1965 C1971 1.465 . S
C1966 C1961 1.399 . S
C1966 C1965 1.394 . S
C1966 C1967 1.516 . S
C1967 C1966 1.516 . S
C1967 C1968 1.502 . S
C1967 C1969 1.561 . S
C1967 C1970 1.526 . S
C1968 H1952 0.959 . S
C1968 H1953 0.959 . S
C1968 H1954 0.961 . S
C1968 C1967 1.502 . S
C1969 H1955 0.960 . S
C1969 H1956 0.961 . S
C1969 H1957 0.959 . S
C1969 C1967 1.561 . S
C1970 C1967 1.526 . S
C1970 C1971 1.396 . S
C1970 C1975 1.390 . S
C1971 C1965 1.465 . S
C1971 C1970 1.396 . S
C1971 C1972 1.399 1_554 S
C1972 H1958 0.929 . S
C1972 C1971 1.399 1_556 S
C1972 C1973 1.385 . S
C1973 H1959 0.931 . S
C1973 C1972 1.385 . S
C1973 C1974 1.389 1_556 S
C1974 C1973 1.389 1_554 S
C1974 C1975 1.387 . S
C1975 H1960 0.930 . S
C1975 C1970 1.390 . S
C1975 C1974 1.387 . S
C705 C520 1.423 . S
C693 C177 1.427 . S
C732 C533 1.493 . S
C720 C209 1.412 1_455 S
C747 C253 1.570 . S
C759 C553 1.443 . S
C786 C567 1.346 . S
C774 C157 1.457 1_655 S
C813 C579 1.506 . S
C801 C343 1.522 . S
C840 C593 1.408 . S
C828 C401 1.358 . S
C855 C369 1.500 . S
C867 C603 1.513 . S
C894 C618 1.467 . S
C882 C317 1.517 . S
C909 C375 1.486 . S
C921 C632 1.482 . S
C948 C651 1.433 . S
C936 C305 1.450 . S
C963 C349 1.493 . S
C975 C631 1.489 . S
C1002 C649 1.423 . S
C990 C413 1.417 . S
C1017 C241 1.569 . S
C1029 C665 1.463 . S
C1044 C151 1.423 . S
C1056 C659 1.451 . S
C1071 C189 1.451 . S
C1083 C663 1.497 . S
C1098 C215 1.499 . S
C1110 C660 1.513 . S
C1125 C113 1.475 . S
C1137 C562 1.467 . S
C1152 C471 1.447 . S
C1164 C561 1.442 . S
C1191 C525 1.350 . S
C1179 C509 1.360 1_565 S
C1218 C539 1.487 . S
C1206 C279 1.585 . S
C1233 C145 1.480 1_545 S
C1245 C576 1.482 . S
C1272 C621 1.550 . S
C1260 C381 1.530 . S
C1299 C575 1.500 . S
C1287 C311 1.488 . S
C1326 C607 1.417 . S
C1314 C407 1.414 . S
C1353 C604 1.478 . S
C1341 C465 1.471 . S
C1368 C497 1.459 . S
C1380 C617 1.505 . S
C1395 C285 1.501 . S
C1407 C581 1.525 . S
C1434 C595 1.416 . S
C1422 C445 1.412 . S
C1449 C119 1.470 . S
C1461 C551 1.524 . S
C1488 C565 1.407 . S
C1476 C17 1.359 1_655 S
C1515 C519 1.508 . S
C1503 C49 1.509 . S
C1542 C534 1.522 . S
C1530 C93 1.451 1_455 S
C1557 C55 1.524 . S
C1569 C646 1.480 . S
C1584 C81 1.421 1_556 S
C1596 C637 1.348 . S
C1611 C125 1.499 . S
C1623 C645 1.491 . S
C1638 C29 1.405 1_556 S
C1650 C635 1.437 . S
C1677 C679 1.521 . S
C1665 C273 1.583 . S
C1704 C673 1.453 . S
C1692 C439 1.440 . S
C1731 C677 1.513 . S
C1719 C477 1.472 . S
C1746 C503 1.476 1_554 S
C1758 C674 1.522 . S
C1773 C337 1.474 . S
C1785 C590 1.494 . S
C1812 C589 1.442 . S
C1800 C183 1.444 . S
C1839 C609 1.350 . S
C1827 C221 1.360 . S
C1866 C623 1.531 . S
C1854 C247 1.585 . S
C1881 C433 1.461 . S
C1893 C548 1.435 . S
C1920 C537 1.553 . S
C1908 C61 1.494 . S
C1935 C87 1.489 . S
C1947 C547 1.499 . S
C1974 C523 1.419 . S
C1962 C23 1.411 1_565 S
