# Generated by pormake.
# Topology pto, (3,4)-cn, num edge types: 1
# Building blocks:
#     Node 0, Type 0, BuildingBlock: CUQRIR_clean_linker_1, # of connection points: 3
#     Node 1, Type 0, BuildingBlock: CUQRIR_clean_linker_1, # of connection points: 3
#     Node 2, Type 0, BuildingBlock: CUQRIR_clean_linker_1, # of connection points: 3
#     Node 3, Type 0, BuildingBlock: CUQRIR_clean_linker_1, # of connection points: 3
#     Node 4, Type 0, BuildingBlock: CUQRIR_clean_linker_1, # of connection points: 3
#     Node 5, Type 0, BuildingBlock: CUQRIR_clean_linker_1, # of connection points: 3
#     Node 6, Type 0, BuildingBlock: CUQRIR_clean_linker_1, # of connection points: 3
#     Node 7, Type 0, BuildingBlock: CUQRIR_clean_linker_1, # of connection points: 3
#     Node 8, Type 1, BuildingBlock: KOZSID_clean_sbu_0, # of connection points: 4
#     Node 9, Type 1, BuildingBlock: KOZSID_clean_sbu_0, # of connection points: 4
#     Node 10, Type 1, BuildingBlock: KOZSID_clean_sbu_0, # of connection points: 4
#     Node 11, Type 1, BuildingBlock: KOZSID_clean_sbu_0, # of connection points: 4
#     Node 12, Type 1, BuildingBlock: KOZSID_clean_sbu_0, # of connection points: 4
#     Node 13, Type 1, BuildingBlock: KOZSID_clean_sbu_0, # of connection points: 4
#     Edge 14, Type (0, 1), BuildingBlock: TEMPAE_clean_linker_10, # of connection points: 2
#     Edge 15, Type (0, 1), BuildingBlock: TEMPAE_clean_linker_10, # of connection points: 2
#     Edge 16, Type (0, 1), BuildingBlock: TEMPAE_clean_linker_10, # of connection points: 2
#     Edge 17, Type (0, 1), BuildingBlock: TEMPAE_clean_linker_10, # of connection points: 2
#     Edge 18, Type (0, 1), BuildingBlock: TEMPAE_clean_linker_10, # of connection points: 2
#     Edge 19, Type (0, 1), BuildingBlock: TEMPAE_clean_linker_10, # of connection points: 2
#     Edge 20, Type (0, 1), BuildingBlock: TEMPAE_clean_linker_10, # of connection points: 2
#     Edge 21, Type (0, 1), BuildingBlock: TEMPAE_clean_linker_10, # of connection points: 2
#     Edge 22, Type (0, 1), BuildingBlock: TEMPAE_clean_linker_10, # of connection points: 2
#     Edge 23, Type (0, 1), BuildingBlock: TEMPAE_clean_linker_10, # of connection points: 2
#     Edge 24, Type (0, 1), BuildingBlock: TEMPAE_clean_linker_10, # of connection points: 2
#     Edge 25, Type (0, 1), BuildingBlock: TEMPAE_clean_linker_10, # of connection points: 2
#     Edge 26, Type (0, 1), BuildingBlock: TEMPAE_clean_linker_10, # of connection points: 2
#     Edge 27, Type (0, 1), BuildingBlock: TEMPAE_clean_linker_10, # of connection points: 2
#     Edge 28, Type (0, 1), BuildingBlock: TEMPAE_clean_linker_10, # of connection points: 2
#     Edge 29, Type (0, 1), BuildingBlock: TEMPAE_clean_linker_10, # of connection points: 2
#     Edge 30, Type (0, 1), BuildingBlock: TEMPAE_clean_linker_10, # of connection points: 2
#     Edge 31, Type (0, 1), BuildingBlock: TEMPAE_clean_linker_10, # of connection points: 2
#     Edge 32, Type (0, 1), BuildingBlock: TEMPAE_clean_linker_10, # of connection points: 2
#     Edge 33, Type (0, 1), BuildingBlock: TEMPAE_clean_linker_10, # of connection points: 2
#     Edge 34, Type (0, 1), BuildingBlock: TEMPAE_clean_linker_10, # of connection points: 2
#     Edge 35, Type (0, 1), BuildingBlock: TEMPAE_clean_linker_10, # of connection points: 2
#     Edge 36, Type (0, 1), BuildingBlock: TEMPAE_clean_linker_10, # of connection points: 2
#     Edge 37, Type (0, 1), BuildingBlock: TEMPAE_clean_linker_10, # of connection points: 2
# Relax obj value: 0.020
# Max RMSD: 0.180
# Mean RMSD: 0.078
data_MOF--net-pto--node1-KOZSID_clean_sbu_0--node2-CUQRIR_clean_linker_1--edge1-TEMPAE_clean_linker_10
_symmetry_space_group_name_H-M    P1
_symmetry_Int_Tables_number       1
_symmetry_cell_setting            triclinic
loop_
_symmetry_equiv_pos_as_xyz
'x, y, z'
_cell_length_a     36.680176
_cell_length_b     47.507459
_cell_length_c     41.799334
_cell_angle_alpha  77.636749
_cell_angle_beta   92.563151
_cell_angle_gamma 98.941054
loop_
_atom_site_label
_atom_site_type_symbol
_atom_site_fract_x
_atom_site_fract_y
_atom_site_fract_z
_atom_type_partial_charge
C0 C 0.30537 0.27466 0.29745 0.0
N1 N 0.32125 0.25676 0.28309 0.0
N2 N 0.30277 0.30014 0.27623 0.0
C3 C 0.29165 0.26692 0.33209 0.0
C4 C 0.31772 0.29706 0.24828 0.0
N5 N 0.32863 0.2704 0.25229 0.0
C6 C 0.32088 0.31992 0.21694 0.0
H7 H 0.26374 0.25389 0.3326 0.0
H8 H 0.28994 0.28677 0.34158 0.0
H9 H 0.30997 0.25346 0.34839 0.0
H10 H 0.32441 0.34222 0.2216 0.0
H11 H 0.29514 0.31692 0.20229 0.0
H12 H 0.34462 0.31818 0.20231 0.0
C13 C 0.32251 0.75095 0.70148 0.0
N14 N 0.34323 0.76912 0.71839 0.0
N15 N 0.30618 0.72654 0.72205 0.0
C16 C 0.31866 0.75727 0.66474 0.0
C17 C 0.31786 0.73079 0.7522 0.0
N18 N 0.34002 0.75669 0.7499 0.0
C19 C 0.30649 0.71038 0.78415 0.0
H20 H 0.29627 0.77068 0.65734 0.0
H21 H 0.31207 0.73685 0.65544 0.0
H22 H 0.34451 0.76991 0.65326 0.0
H23 H 0.32548 0.6939 0.79016 0.0
H24 H 0.2779 0.69899 0.78248 0.0
H25 H 0.30809 0.72221 0.80445 0.0
C26 C 0.8946 0.79063 0.34625 0.0
N27 N 0.88046 0.77395 0.32484 0.0
N28 N 0.87649 0.81373 0.34368 0.0
C29 C 0.92594 0.78415 0.36969 0.0
C30 C 0.85081 0.81057 0.31997 0.0
N31 N 0.85279 0.78608 0.30864 0.0
C32 C 0.82531 0.83245 0.30694 0.0
H33 H 0.92073 0.76105 0.38295 0.0
H34 H 0.92984 0.79863 0.38755 0.0
H35 H 0.95169 0.78713 0.35561 0.0
H36 H 0.83816 0.85465 0.30935 0.0
H37 H 0.79964 0.82668 0.32147 0.0
H38 H 0.81814 0.83273 0.28082 0.0
C39 C 0.79023 0.22641 0.76038 0.0
N40 N 0.81596 0.23952 0.73746 0.0
N41 N 0.77213 0.24641 0.76916 0.0
C42 C 0.7831 0.19415 0.77441 0.0
C43 C 0.7876 0.27202 0.75027 0.0
N44 N 0.81401 0.26783 0.73096 0.0
C45 C 0.777 0.3014 0.75029 0.0
H46 H 0.77419 0.18974 0.80024 0.0
H47 H 0.80795 0.18382 0.77327 0.0
H48 H 0.76081 0.18393 0.75989 0.0
H49 H 0.79552 0.31198 0.76742 0.0
H50 H 0.74799 0.29936 0.758 0.0
H51 H 0.78039 0.31572 0.72557 0.0
C52 C 0.77705 0.74257 0.75597 0.0
N53 N 0.8029 0.75572 0.73333 0.0
N54 N 0.75863 0.76231 0.76468 0.0
C55 C 0.77064 0.71034 0.7703 0.0
C56 C 0.77403 0.78807 0.74592 0.0
N57 N 0.80182 0.78424 0.72741 0.0
C58 C 0.76161 0.81697 0.74577 0.0
H59 H 0.74375 0.7036 0.78294 0.0
H60 H 0.7932 0.70483 0.78803 0.0
H61 H 0.77133 0.69788 0.75076 0.0
H62 H 0.77248 0.82479 0.76804 0.0
H63 H 0.73125 0.81493 0.74595 0.0
H64 H 0.77068 0.8336 0.72359 0.0
C65 C 0.81979 0.24617 0.27254 0.0
N66 N 0.84794 0.2573 0.2904 0.0
N67 N 0.81238 0.26642 0.24607 0.0
C68 C 0.79969 0.21544 0.28087 0.0
C69 C 0.83709 0.29025 0.24819 0.0
N70 N 0.85924 0.2846 0.27495 0.0
C71 C 0.83877 0.3192 0.22463 0.0
H72 H 0.81925 0.20001 0.29086 0.0
H73 H 0.78503 0.20887 0.25924 0.0
H74 H 0.77904 0.21398 0.29997 0.0
H75 H 0.8122 0.32139 0.21131 0.0
H76 H 0.86049 0.32102 0.20635 0.0
H77 H 0.84595 0.33735 0.23774 0.0
C78 C 0.22403 0.26358 0.73423 0.0
N79 N 0.24389 0.24244 0.73171 0.0
N80 N 0.21138 0.27607 0.70441 0.0
C81 C 0.21906 0.27329 0.76557 0.0
C82 C 0.22435 0.26173 0.6836 0.0
N83 N 0.24443 0.2415 0.70023 0.0
C84 C 0.2194 0.26853 0.64697 0.0
H85 H 0.21387 0.25429 0.78627 0.0
H86 H 0.19569 0.28586 0.76366 0.0
H87 H 0.24478 0.28714 0.77119 0.0
H88 H 0.24422 0.28321 0.63592 0.0
H89 H 0.19509 0.27961 0.63924 0.0
H90 H 0.21658 0.24828 0.63729 0.0
C91 C 0.32447 0.785 0.32209 0.0
N92 N 0.33361 0.76828 0.3022 0.0
N93 N 0.3494 0.8095 0.31997 0.0
C94 C 0.29111 0.77726 0.3437 0.0
C95 C 0.37415 0.80709 0.29784 0.0
N96 N 0.36478 0.7817 0.2872 0.0
C97 C 0.4078 0.82928 0.2872 0.0
H98 H 0.28237 0.79706 0.34916 0.0
H99 H 0.29806 0.76291 0.36708 0.0
H100 H 0.26778 0.76518 0.33201 0.0
H101 H 0.43138 0.82351 0.30353 0.0
H102 H 0.40398 0.85151 0.28887 0.0
H103 H 0.415 0.82977 0.26158 0.0
C104 C 0.14309 0.56497 0.34056 0.0
C105 C 0.1597 0.56649 0.37079 0.0
C106 C 0.13943 0.54584 0.39359 0.0
C107 C 0.11197 0.53266 0.37609 0.0
N108 N 0.11345 0.5436 0.34343 0.0
Co109 Co 0.0807 0.52895 0.30894 0.0
N110 N 0.05102 0.49858 0.34264 0.0
C111 C 0.05417 0.49517 0.37555 0.0
C112 C 0.03022 0.47229 0.39237 0.0
C113 C 0.01102 0.46003 0.36879 0.0
C114 C 0.02469 0.47609 0.33887 0.0
N115 N 0.04898 0.51331 0.27439 0.0
C116 C 0.02423 0.4885 0.27703 0.0
C117 C 0.01148 0.48392 0.24648 0.0
C118 C 0.0288 0.50649 0.22382 0.0
C119 C 0.05135 0.52335 0.24163 0.0
N120 N 0.10948 0.56004 0.27527 0.0
C121 C 0.1028 0.56591 0.24259 0.0
C122 C 0.1251 0.58981 0.2258 0.0
C123 C 0.14738 0.59996 0.2491 0.0
C124 C 0.13772 0.58129 0.27892 0.0
N125 N 0.1152 0.50125 0.30606 0.0
C126 C 0.16053 0.45941 0.30091 0.0
C127 C 0.15406 0.48139 0.27399 0.0
C128 C 0.13119 0.5016 0.27695 0.0
C129 C 0.14451 0.45943 0.33071 0.0
C130 C 0.12272 0.4806 0.33284 0.0
N131 N 0.04608 0.55685 0.31175 0.0
C132 C 0.00901 0.59345 0.28519 0.0
C133 C 0.00183 0.60006 0.31514 0.0
C134 C 0.01628 0.58377 0.34347 0.0
C135 C 0.03828 0.5627 0.34123 0.0
C136 C 0.03049 0.57178 0.28413 0.0
H137 H 0.04896 0.5517 0.36372 0.0
H138 H 0.03452 0.5679 0.26052 0.0
H139 H 0.12663 0.51717 0.25523 0.0
H140 H 0.11179 0.47954 0.35636 0.0
C141 C 0.08358 0.51082 0.38972 0.0
C142 C 0.15606 0.5847 0.30997 0.0
C143 C 0.01356 0.46801 0.30774 0.0
C144 C 0.07632 0.54787 0.22827 0.0
H145 H 0.18387 0.58112 0.37594 0.0
H146 H 0.14401 0.54113 0.41983 0.0
H147 H 0.02833 0.46448 0.41863 0.0
H148 H 0.99032 0.44078 0.37313 0.0
H149 H 0.99246 0.46578 0.24091 0.0
H150 H 0.02624 0.50967 0.19743 0.0
H151 H 0.12517 0.59879 0.19971 0.0
H152 H 0.16826 0.61905 0.24447 0.0
H153 H 0.16647 0.48315 0.2505 0.0
H154 H 0.14799 0.44286 0.35237 0.0
H155 H 0.99896 0.60538 0.26233 0.0
H156 H 0.01089 0.58722 0.36749 0.0
C157 C 0.08272 0.55089 0.72606 0.0
C158 C 0.09782 0.55205 0.75696 0.0
C159 C 0.07037 0.54016 0.77913 0.0
C160 C 0.04032 0.53177 0.76081 0.0
N161 N 0.04747 0.5371 0.72852 0.0
Co162 Co 0.01302 0.52566 0.69405 0.0
N163 N 0.98025 0.49823 0.72689 0.0
C164 C 0.97911 0.49815 0.759 0.0
C165 C 0.95504 0.47515 0.77565 0.0
C166 C 0.94039 0.45983 0.75254 0.0
C167 C 0.95622 0.47455 0.72291 0.0
N168 N 0.97834 0.51394 0.65998 0.0
C169 C 0.95468 0.48888 0.66157 0.0
C170 C 0.93629 0.48836 0.63197 0.0
C171 C 0.94941 0.51416 0.61107 0.0
C172 C 0.9749 0.52888 0.62914 0.0
N173 N 0.04546 0.55312 0.66083 0.0
C174 C 0.03531 0.56386 0.62975 0.0
C175 C 0.0622 0.58416 0.61282 0.0
C176 C 0.09082 0.58672 0.63471 0.0
C177 C 0.07991 0.56761 0.66399 0.0
N178 N 0.04074 0.4943 0.69133 0.0
C179 C 0.07606 0.44667 0.68798 0.0
C180 C 0.06477 0.46489 0.6594 0.0
C181 C 0.04768 0.48874 0.6616 0.0
C182 C 0.0699 0.45344 0.71818 0.0
C183 C 0.0519 0.47696 0.71932 0.0
N184 N 0.98525 0.55714 0.69677 0.0
C185 C 0.98491 0.60723 0.69945 0.0
C186 C 0.9463 0.603 0.69921 0.0
C187 C 0.92753 0.57512 0.6981 0.0
C188 C 0.9475 0.55252 0.69681 0.0
C189 C 0.00374 0.58414 0.69833 0.0
H190 H 0.93244 0.53134 0.6957 0.0
H191 H 0.0334 0.58832 0.69872 0.0
H192 H 0.03935 0.50233 0.63923 0.0
H193 H 0.04666 0.48088 0.743 0.0
C194 C 0.00742 0.5147 0.77345 0.0
C195 C 0.10063 0.56692 0.69516 0.0
C196 C 0.94835 0.46606 0.69124 0.0
C197 C 0.00174 0.55255 0.61653 0.0
H198 H 0.1255 0.56131 0.76288 0.0
H199 H 0.07247 0.53716 0.80552 0.0
H200 H 0.95081 0.4689 0.80183 0.0
H201 H 0.92119 0.43976 0.75738 0.0
H202 H 0.91598 0.47105 0.62608 0.0
H203 H 0.94283 0.52052 0.58528 0.0
H204 H 0.06119 0.59572 0.58757 0.0
H205 H 0.11618 0.60181 0.62978 0.0
H206 H 0.06841 0.46059 0.63543 0.0
H207 H 0.07892 0.44074 0.74101 0.0
H208 H 1.00061 0.6282 0.70094 0.0
H209 H 0.89765 0.57087 0.69775 0.0
C210 C 0.3944 0.99257 0.57213 0.0
C211 C 0.4304 0.99187 0.58369 0.0
C212 C 0.45069 0.01774 0.56879 0.0
C213 C 0.42616 0.03262 0.54878 0.0
N214 N 0.39179 0.01768 0.55013 0.0
Co215 Co 0.34847 0.0301 0.52382 0.0
N216 N 0.38034 0.05947 0.49174 0.0
C217 C 0.41581 0.07026 0.49692 0.0
C218 C 0.43066 0.09117 0.47104 0.0
C219 C 0.40271 0.09403 0.44831 0.0
C220 C 0.37216 0.07451 0.46159 0.0
N221 N 0.30497 0.04216 0.49753 0.0
C222 C 0.30301 0.05801 0.46657 0.0
C223 C 0.26662 0.06088 0.45756 0.0
C224 C 0.2454 0.04722 0.48419 0.0
C225 C 0.26977 0.03648 0.50781 0.0
N226 N 0.31683 1.00119 0.55635 0.0
C227 C 0.28079 1.00095 0.5613 0.0
C228 C 0.26645 0.97835 0.5859 0.0
C229 C 0.29535 0.96353 0.59707 0.0
C230 C 0.3257 0.97794 0.57843 0.0
N231 N 0.34579 0.05966 0.54954 0.0
C232 C 0.33304 0.10003 0.58616 0.0
C233 C 0.33187 0.10699 0.5519 0.0
C234 C 0.33842 0.08664 0.53413 0.0
C235 C 0.34265 0.07295 0.60173 0.0
C236 C 0.34892 0.05307 0.58297 0.0
N237 N 0.35068 1.00061 0.49802 0.0
C238 C 0.32042 0.96001 0.47617 0.0
C239 C 0.35247 0.95896 0.45952 0.0
C240 C 0.38386 0.97922 0.46329 0.0
C241 C 0.38259 0.99934 0.4831 0.0
C242 C 0.31987 0.98126 0.49447 0.0
H243 H 0.40736 0.01411 0.48598 0.0
H244 H 0.29431 0.98196 0.50576 0.0
H245 H 0.33641 0.09258 0.50787 0.0
H246 H 0.3551 0.03201 0.59556 0.0
C247 C 0.43551 0.05747 0.5242 0.0
C248 C 0.36288 0.96996 0.5833 0.0
C249 C 0.33498 0.07365 0.44669 0.0
C250 C 0.26027 0.01822 0.53822 0.0
H251 H 0.44111 0.97451 0.60079 0.0
H252 H 0.48016 0.0242 0.57098 0.0
H253 H 0.45865 0.10261 0.46868 0.0
H254 H 0.40451 0.10933 0.42499 0.0
H255 H 0.25655 0.07234 0.43446 0.0
H256 H 0.21568 0.04493 0.48587 0.0
H257 H 0.23804 0.97244 0.5937 0.0
H258 H 0.2942 0.9443 0.61654 0.0
H259 H 0.3253 0.12791 0.53884 0.0
H260 H 0.34389 0.06672 0.6282 0.0
H261 H 0.29561 0.94455 0.47536 0.0
H262 H 0.4093 0.98006 0.45078 0.0
C263 C 0.53732 0.78357 0.08865 0.0
C264 C 0.53574 0.80977 0.09801 0.0
C265 C 0.55594 0.83118 0.07605 0.0
C266 C 0.56959 0.81698 0.05512 0.0
N267 N 0.55941 0.78772 0.06231 0.0
Co268 Co 0.57944 0.75858 0.04214 0.0
N269 N 0.61055 0.79012 0.01066 0.0
C270 C 0.61189 0.81918 0.00768 0.0
C271 C 0.6308 0.8356 0.9809 0.0
C272 C 0.64179 0.81592 0.96542 0.0
C273 C 0.62954 0.78839 0.98411 0.0
N274 N 0.60056 0.72941 0.02305 0.0
C275 C 0.62433 0.73345 0.99803 0.0
C276 C 0.63413 0.70721 0.99437 0.0
C277 C 0.61439 0.68577 0.01674 0.0
C278 C 0.59432 0.7001 0.03313 0.0
N279 N 0.54714 0.72706 0.07247 0.0
C280 C 0.54352 0.69811 0.07349 0.0
C281 C 0.51645 0.68189 0.09404 0.0
C282 C 0.50206 0.70158 0.10721 0.0
C283 C 0.52185 0.72883 0.09447 0.0
N284 N 0.53926 0.75993 0.00854 0.0
C285 C 0.48985 0.76389 0.95445 0.0
C286 C 0.50135 0.73735 0.96933 0.0
C287 C 0.52552 0.73581 0.99629 0.0
C288 C 0.50209 0.78802 0.96836 0.0
C289 C 0.52651 0.78559 0.99513 0.0
N290 N 0.62002 0.75737 0.07558 0.0
C291 C 0.65713 0.73052 0.1172 0.0
C292 C 0.67667 0.75633 0.12437 0.0
C293 C 0.66702 0.7826 0.10615 0.0
C294 C 0.63983 0.78259 0.0817 0.0
C295 C 0.62876 0.73154 0.09355 0.0
H296 H 0.63516 0.8034 0.06831 0.0
H297 H 0.61424 0.7111 0.09035 0.0
H298 H 0.53348 0.715 0.00629 0.0
H299 H 0.53527 0.80496 0.00409 0.0
C300 C 0.59299 0.8304 0.0291 0.0
C301 C 0.51676 0.75549 0.10502 0.0
C302 C 0.6355 0.76118 0.9753 0.0
C303 C 0.56668 0.6867 0.05563 0.0
H304 H 0.52183 0.81333 0.11873 0.0
H305 H 0.5608 0.85429 0.07582 0.0
H306 H 0.63476 0.85907 0.9728 0.0
H307 H 0.65612 0.82155 0.94239 0.0
H308 H 0.65253 0.70379 0.97649 0.0
H309 H 0.61368 0.66249 0.01981 0.0
H310 H 0.50824 0.6585 0.09897 0.0
H311 H 0.47969 0.69627 0.12449 0.0
H312 H 0.4928 0.71793 0.95964 0.0
H313 H 0.49321 0.80889 0.95848 0.0
H314 H 0.66335 0.70936 0.12958 0.0
H315 H 0.67974 0.80349 0.11067 0.0
C316 C 0.94078 0.99294 0.58305 0.0
C317 C 0.97521 0.98475 0.59186 0.0
C318 C 1.00093 0.00886 0.58146 0.0
C319 C 0.98122 0.03024 0.56593 0.0
N320 N 0.94462 0.02099 0.56597 0.0
Co321 Co 0.90672 0.04215 0.54003 0.0
N322 N 0.9444 0.06903 0.51109 0.0
C323 C 0.98089 0.07348 0.51752 0.0
C324 C 1.00034 0.09353 0.4933 0.0
C325 C 0.9744 0.10266 0.47045 0.0
C326 C 0.94038 0.08774 0.48218 0.0
N327 N 0.86834 0.06281 0.51436 0.0
C328 C 0.87055 0.08202 0.48517 0.0
C329 C 0.83713 0.09237 0.47717 0.0
C330 C 0.81364 0.07959 0.50249 0.0
C331 C 0.83379 0.06219 0.5245 0.0
N332 N 0.8694 0.01566 0.5692 0.0
C333 C 0.83562 0.02108 0.57479 0.0
C334 C 0.817 0.9998 0.59843 0.0
C335 C 0.84061 0.97974 0.60816 0.0
C336 C 0.87222 0.98977 0.58943 0.0
N337 N 0.91113 0.06961 0.56956 0.0
C338 C 0.90637 0.10813 0.61108 0.0
C339 C 0.90801 0.07853 0.62395 0.0
C340 C 0.91082 0.05972 0.60281 0.0
C341 C 0.90919 0.11821 0.57715 0.0
C342 C 0.91151 0.09871 0.55693 0.0
N343 N 0.90208 0.01474 0.5106 0.0
C344 C 0.86454 0.97979 0.48422 0.0
C345 C 0.89615 0.97186 0.47292 0.0
C346 C 0.93067 0.98657 0.48015 0.0
C347 C 0.93302 0.00786 0.49888 0.0
C348 C 0.8681 1.00127 0.50293 0.0
H349 H 0.96004 0.01833 0.50438 0.0
H350 H 0.84339 0.00656 0.51182 0.0
H351 H 0.91139 0.03697 0.61331 0.0
H352 H 0.91212 0.10719 0.53093 0.0
C353 C 0.99627 0.05538 0.54379 0.0
C354 C 0.90468 0.97464 0.59182 0.0
C355 C 0.90487 0.09436 0.46711 0.0
C356 C 0.82045 0.04336 0.55352 0.0
H357 H 0.98186 0.9635 0.60308 0.0
H358 H 0.03062 0.00976 0.58236 0.0
H359 H 0.02993 0.10017 0.49196 0.0
H360 H 0.97983 0.11889 0.44804 0.0
H361 H 0.83075 0.10841 0.45593 0.0
H362 H 0.78529 0.08267 0.50458 0.0
H363 H 0.78909 0.99839 0.60668 0.0
H364 H 0.83505 0.95995 0.62674 0.0
H365 H 0.90649 0.06987 0.6501 0.0
H366 H 0.90783 0.14083 0.56605 0.0
H367 H 0.83726 0.96896 0.47942 0.0
H368 H 0.95585 0.98166 0.47144 0.0
C369 C 0.46492 0.25429 0.03856 0.0
C370 C 0.45123 0.28008 0.03804 0.0
C371 C 0.46918 0.30068 0.01369 0.0
C372 C 0.49216 0.28629 1.00031 0.0
N373 N 0.48961 0.25765 0.01435 0.0
Co374 Co 0.51496 0.22818 0.99987 0.0
N375 N 0.54525 0.25911 0.96719 0.0
C376 C 0.54561 0.28823 0.96262 0.0
C377 C 0.57177 0.30436 0.94106 0.0
C378 C 0.58923 0.2844 0.93122 0.0
C379 C 0.57213 0.25702 0.94691 0.0
N380 N 0.53882 0.19851 0.98408 0.0
C381 C 0.56318 0.2018 0.95955 0.0
C382 C 0.56906 0.17499 0.95415 0.0
C383 C 0.54852 0.15414 0.97651 0.0
C384 C 0.5308 0.16924 0.99386 0.0
N385 N 0.48639 0.19752 0.03415 0.0
C386 C 0.48815 0.16863 0.04053 0.0
C387 C 0.47018 0.15338 0.06835 0.0
C388 C 0.45642 0.17375 0.08085 0.0
C389 C 0.46612 0.20039 0.05941 0.0
N390 N 0.47487 0.22376 0.9668 0.0
C391 C 0.41947 0.21798 0.91858 0.0
C392 C 0.42616 0.19395 0.94268 0.0
C393 C 0.45364 0.19733 0.9665 0.0
C394 C 0.44092 0.24485 0.91905 0.0
C395 C 0.46812 0.24722 0.94306 0.0
N396 N 0.5549 0.23268 0.03265 0.0
C397 C 0.59963 0.21224 0.0714 0.0
C398 C 0.61204 0.23945 0.07889 0.0
C399 C 0.59516 0.26313 0.06297 0.0
C400 C 0.56689 0.2593 0.04017 0.0
C401 C 0.57124 0.20935 0.04836 0.0
H402 H 0.55505 0.2782 0.02898 0.0
H403 H 0.56295 0.18807 0.04355 0.0
H404 H 0.45716 0.17823 0.98433 0.0
H405 H 0.48342 0.26835 0.94159 0.0
C406 C 0.51954 0.29962 0.97749 0.0
C407 C 0.4559 0.2279 0.06403 0.0
C408 C 0.58154 0.22973 0.94097 0.0
C409 C 0.5081 0.15665 0.02058 0.0
H410 H 0.43123 0.28389 0.05429 0.0
H411 H 0.46678 0.32364 0.00734 0.0
H412 H 0.57729 0.32784 0.93322 0.0
H413 H 0.61181 0.28956 0.91415 0.0
H414 H 0.58636 0.17077 0.93596 0.0
H415 H 0.54682 0.13074 0.97981 0.0
H416 H 0.4683 0.13031 0.07888 0.0
H417 H 0.44168 0.16928 0.10361 0.0
H418 H 0.41 0.17271 0.94341 0.0
H419 H 0.43718 0.26404 0.90058 0.0
H420 H 0.61207 0.19328 0.08292 0.0
H421 H 0.6034 0.28455 0.06835 0.0
C422 C 0.24626 0.31697 0.28942 0.0
C423 C 0.28359 0.32316 0.28098 0.0
C424 C 0.22694 0.33905 0.29405 0.0
C425 C 0.24519 0.36817 0.28916 0.0
C426 C 0.28303 0.37447 0.28078 0.0
C427 C 0.30197 0.35173 0.2775 0.0
C428 C 0.18696 0.33123 0.304 0.0
C429 C 0.30329 0.40529 0.27463 0.0
C430 C 0.1835 0.427 0.26813 0.0
C431 C 0.18312 0.43646 0.29777 0.0
C432 C 0.20437 0.40542 0.26479 0.0
C433 C 0.2244 0.39206 0.29204 0.0
C434 C 0.22395 0.40113 0.32211 0.0
C435 C 0.20391 0.42353 0.32444 0.0
C436 C 0.20478 0.39681 0.23207 0.0
C437 C 0.2442 0.38689 0.35199 0.0
H438 H 0.23223 0.29478 0.29226 0.0
H439 H 0.33113 0.35625 0.27192 0.0
H440 H 0.18275 0.33942 0.32631 0.0
H441 H 0.16924 0.34182 0.28432 0.0
H442 H 0.17761 0.30733 0.30897 0.0
H443 H 0.33251 0.40655 0.26776 0.0
H444 H 0.28928 0.41923 0.25463 0.0
H445 H 0.30274 0.41448 0.29681 0.0
H446 H 0.16703 0.4361 0.24747 0.0
H447 H 0.20471 0.43087 0.3473 0.0
H448 H 0.19175 0.3738 0.23427 0.0
H449 H 0.23365 0.3984 0.22418 0.0
H450 H 0.18986 0.4107 0.2127 0.0
H451 H 0.23442 0.36308 0.3578 0.0
H452 H 0.24025 0.39588 0.37382 0.0
H453 H 0.27417 0.38993 0.34707 0.0
C454 C 0.28248 0.67394 0.72947 0.0
C455 C 0.27999 0.70288 0.71415 0.0
C456 C 0.25479 0.65108 0.72503 0.0
C457 C 0.22529 0.65705 0.70283 0.0
C458 C 0.22432 0.68591 0.68521 0.0
C459 C 0.25081 0.70858 0.69206 0.0
C460 C 0.2564 0.62082 0.74509 0.0
C461 C 0.1949 0.69298 0.65958 0.0
C462 C 0.16531 0.59121 0.67949 0.0
C463 C 0.133 0.58996 0.6967 0.0
C464 C 0.19525 0.61354 0.68018 0.0
C465 C 0.19363 0.63382 0.70035 0.0
C466 C 0.16127 0.63213 0.71833 0.0
C467 C 0.13087 0.61111 0.71507 0.0
C468 C 0.2283 0.61521 0.65924 0.0
C469 C 0.15886 0.65215 0.74157 0.0
H470 H 0.30555 0.6693 0.74577 0.0
H471 H 0.24822 0.73086 0.6805 0.0
H472 H 0.2298 0.61188 0.75774 0.0
H473 H 0.26091 0.60614 0.72879 0.0
H474 H 0.27896 0.62049 0.76375 0.0
H475 H 0.20229 0.71495 0.64371 0.0
H476 H 0.19043 0.67657 0.64392 0.0
H477 H 0.1684 0.69245 0.67159 0.0
H478 H 0.16683 0.57509 0.66494 0.0
H479 H 0.10552 0.61076 0.72763 0.0
H480 H 0.24888 0.60285 0.67382 0.0
H481 H 0.24167 0.63804 0.65048 0.0
H482 H 0.22044 0.60533 0.63765 0.0
H483 H 0.13387 0.64524 0.75704 0.0
H484 H 0.15802 0.67466 0.72756 0.0
H485 H 0.1836 0.65273 0.75786 0.0
C486 C 0.87621 0.72056 0.336 0.0
C487 C 0.89359 0.74807 0.32043 0.0
C488 C 0.89147 0.69535 0.33498 0.0
C489 C 0.92452 0.6979 0.31751 0.0
C490 C 0.94137 0.72577 0.30085 0.0
C491 C 0.92598 0.75056 0.303 0.0
C492 C 0.8731 0.6662 0.35367 0.0
C493 C 0.97612 0.72949 0.28139 0.0
C494 C 0.98919 0.64121 0.34049 0.0
C495 C 0.9805 0.62422 0.31669 0.0
C496 C 0.97034 0.66455 0.34165 0.0
C497 C 0.94264 0.67177 0.31795 0.0
C498 C 0.93351 0.65476 0.29395 0.0
C499 C 0.95215 0.63104 0.29386 0.0
C500 C 0.98061 0.68186 0.36796 0.0
C501 C 0.90457 0.66205 0.2679 0.0
H502 H 0.85145 0.719 0.34986 0.0
H503 H 0.93932 0.77206 0.29129 0.0
H504 H 0.86751 0.65047 0.33726 0.0
H505 H 0.8919 0.65722 0.37346 0.0
H506 H 0.84672 0.66775 0.36478 0.0
H507 H 0.98407 0.7523 0.26783 0.0
H508 H 0.99923 0.72319 0.29806 0.0
H509 H 0.97235 0.71495 0.26359 0.0
H510 H 0.0114 0.63676 0.3579 0.0
H511 H 0.94446 0.61788 0.27574 0.0
H512 H 0.95558 0.68328 0.38115 0.0
H513 H 0.99295 0.70444 0.35664 0.0
H514 H 1.00068 0.67212 0.38606 0.0
H515 H 0.87785 0.66182 0.27943 0.0
H516 H 0.90041 0.64656 0.2511 0.0
H517 H 0.9128 0.68438 0.25323 0.0
C518 C 0.83726 0.30744 0.68522 0.0
C519 C 0.84263 0.29049 0.71631 0.0
C520 C 0.85848 0.33504 0.67507 0.0
C521 C 0.88479 0.34598 0.69701 0.0
C522 C 0.89237 0.32766 0.72728 0.0
C523 C 0.87133 0.3 0.73639 0.0
C524 C 0.85041 0.35344 0.64215 0.0
C525 C 0.91975 0.3384 0.75167 0.0
C526 C 0.95012 0.41782 0.67697 0.0
C527 C 0.93059 0.43619 0.68932 0.0
C528 C 0.93485 0.38865 0.67755 0.0
C529 C 0.89953 0.37769 0.69128 0.0
C530 C 0.87912 0.39672 0.70236 0.0
C531 C 0.8947 0.42588 0.70068 0.0
C532 C 0.95702 0.36938 0.66461 0.0
C533 C 0.84151 0.38598 0.71747 0.0
H534 H 0.81469 0.30001 0.66997 0.0
H535 H 0.87481 0.28682 0.76061 0.0
H536 H 0.83266 0.36948 0.64544 0.0
H537 H 0.87626 0.36579 0.63035 0.0
H538 H 0.83576 0.33994 0.62549 0.0
H539 H 0.9255 0.32048 0.77225 0.0
H540 H 0.94614 0.34901 0.73961 0.0
H541 H 0.90856 0.35497 0.76193 0.0
H542 H 0.97774 0.42609 0.66769 0.0
H543 H 0.87932 0.44046 0.70933 0.0
H544 H 0.93946 0.35643 0.64897 0.0
H545 H 0.96741 0.35377 0.68536 0.0
H546 H 0.98107 0.38217 0.65019 0.0
H547 H 0.82249 0.37614 0.70012 0.0
H548 H 0.82908 0.40369 0.72437 0.0
H549 H 0.84374 0.36874 0.73976 0.0
C550 C 0.29744 0.20451 0.29701 0.0
C551 C 0.32608 0.22741 0.29817 0.0
C552 C 0.29811 0.17693 0.31747 0.0
C553 C 0.32829 0.17238 0.33939 0.0
C554 C 0.35833 0.19515 0.33905 0.0
C555 C 0.35655 0.22254 0.31875 0.0
C556 C 0.26536 0.15342 0.31735 0.0
C557 C 0.39121 0.19122 0.36171 0.0
C558 C 0.3141 0.12125 0.42236 0.0
C559 C 0.32919 0.09709 0.41782 0.0
C560 C 0.31212 0.14527 0.39655 0.0
C561 C 0.32647 0.14545 0.36558 0.0
C562 C 0.34117 0.12084 0.36068 0.0
C563 C 0.34222 0.09682 0.38692 0.0
C564 C 0.29594 0.17093 0.40282 0.0
C565 C 0.35724 0.12043 0.32821 0.0
H566 H 0.27361 0.20875 0.28146 0.0
H567 H 0.37819 0.24065 0.3199 0.0
H568 H 0.27457 0.13238 0.31673 0.0
H569 H 0.2496 0.1502 0.34024 0.0
H570 H 0.24654 0.15906 0.29616 0.0
H571 H 0.41421 0.20956 0.35532 0.0
H572 H 0.38291 0.18987 0.38726 0.0
H573 H 0.40141 0.17058 0.36096 0.0
H574 H 0.30474 0.12166 0.44649 0.0
H575 H 0.3544 0.07825 0.38368 0.0
H576 H 0.27459 0.17694 0.38402 0.0
H577 H 0.31787 0.1901 0.40103 0.0
H578 H 0.2833 0.16635 0.42741 0.0
H579 H 0.3373 0.12623 0.30802 0.0
H580 H 0.36482 0.09882 0.32754 0.0
H581 H 0.38233 0.13703 0.32348 0.0
C582 C 0.3495 0.77755 0.79922 0.0
C583 C 0.36347 0.76532 0.77564 0.0
C584 C 0.36999 0.78077 0.82782 0.0
C585 C 0.40493 0.77115 0.83288 0.0
C586 C 0.41973 0.76011 0.80816 0.0
C587 C 0.39878 0.75744 0.77976 0.0
C588 C 0.35346 0.79304 0.8533 0.0
C589 C 0.4567 0.74947 0.81253 0.0
C590 C 0.47245 0.79165 0.89894 0.0
C591 C 0.46636 0.76658 0.92411 0.0
C592 C 0.45185 0.7939 0.86955 0.0
C593 C 0.4248 0.77037 0.86492 0.0
C594 C 0.41802 0.74524 0.89039 0.0
C595 C 0.43867 0.74373 0.91967 0.0
C596 C 0.4597 0.82115 0.84313 0.0
C597 C 0.38951 0.71959 0.88639 0.0
H598 H 0.32195 0.78334 0.79584 0.0
H599 H 0.40905 0.74771 0.76142 0.0
H600 H 0.34608 0.77548 0.87518 0.0
H601 H 0.37385 0.81006 0.86133 0.0
H602 H 0.32824 0.80259 0.84407 0.0
H603 H 0.46541 0.74351 0.79004 0.0
H604 H 0.47822 0.76644 0.81923 0.0
H605 H 0.45523 0.73003 0.83287 0.0
H606 H 0.49408 0.8093 0.90177 0.0
H607 H 0.43318 0.7245 0.93909 0.0
H608 H 0.43372 0.82988 0.83491 0.0
H609 H 0.47152 0.81589 0.82153 0.0
H610 H 0.47938 0.83842 0.85153 0.0
H611 H 0.36218 0.72673 0.88036 0.0
H612 H 0.38687 0.70198 0.90881 0.0
H613 H 0.39712 0.71047 0.86572 0.0
C614 C 0.86205 0.83068 0.39246 0.0
C615 C 0.88121 0.83558 0.36315 0.0
C616 C 0.86455 0.85243 0.41088 0.0
C617 C 0.88667 0.87974 0.39951 0.0
C618 C 0.90639 0.88456 0.36992 0.0
C619 C 0.90338 0.86234 0.35207 0.0
C620 C 0.84316 0.84634 0.44226 0.0
C621 C 0.93026 0.91329 0.35695 0.0
C622 C 0.866 0.94563 0.43001 0.0
C623 C 0.89339 0.94814 0.4542 0.0
C624 C 0.86349 0.92349 0.41205 0.0
C625 C 0.88894 0.90331 0.41842 0.0
C626 C 0.91651 0.90563 0.44291 0.0
C627 C 0.91838 0.92794 0.46049 0.0
C628 C 0.8337 0.92179 0.38612 0.0
C629 C 0.94405 0.88448 0.4506 0.0
H630 H 0.8448 0.80987 0.40062 0.0
H631 H 0.91787 0.86589 0.32919 0.0
H632 H 0.86219 0.84959 0.46298 0.0
H633 H 0.82313 0.8619 0.44036 0.0
H634 H 0.82787 0.8238 0.44803 0.0
H635 H 0.94421 0.91337 0.33387 0.0
H636 H 0.91319 0.93112 0.3523 0.0
H637 H 0.95159 0.91817 0.37546 0.0
H638 H 0.84683 0.96127 0.42472 0.0
H639 H 0.93924 0.92936 0.4795 0.0
H640 H 0.81602 0.90021 0.39167 0.0
H641 H 0.84637 0.92397 0.36193 0.0
H642 H 0.81594 0.93902 0.38424 0.0
H643 H 0.92937 0.86193 0.45836 0.0
H644 H 0.96389 0.88931 0.47027 0.0
H645 H 0.95978 0.88518 0.42831 0.0
C646 C 0.74906 0.26003 0.81739 0.0
C647 C 0.74502 0.24209 0.79447 0.0
C648 C 0.72191 0.2576 0.84081 0.0
C649 C 0.69094 0.23546 0.84269 0.0
C650 C 0.68752 0.21635 0.82058 0.0
C651 C 0.71414 0.22038 0.79619 0.0
C652 C 0.72604 0.27914 0.86306 0.0
C653 C 0.65578 0.19167 0.82267 0.0
C654 C 0.64071 0.21704 0.92384 0.0
C655 C 0.60911 0.23038 0.91548 0.0
C656 C 0.66669 0.21732 0.90005 0.0
C657 C 0.66199 0.23273 0.86752 0.0
C658 C 0.63033 0.24657 0.85906 0.0
C659 C 0.60378 0.24452 0.88296 0.0
C660 C 0.69916 0.20117 0.90976 0.0
C661 C 0.62503 0.2643 0.82507 0.0
H662 H 0.77337 0.2763 0.8167 0.0
H663 H 0.71073 0.20666 0.77832 0.0
H664 H 0.701 0.28988 0.86129 0.0
H665 H 0.72882 0.26766 0.88888 0.0
H666 H 0.75048 0.29624 0.85691 0.0
H667 H 0.65912 0.17706 0.80585 0.0
H668 H 0.65333 0.17857 0.84809 0.0
H669 H 0.62952 0.20051 0.81639 0.0
H670 H 0.64489 0.20615 0.94902 0.0
H671 H 0.57918 0.25463 0.87644 0.0
H672 H 0.72504 0.2169 0.90848 0.0
H673 H 0.70177 0.18684 0.89248 0.0
H674 H 0.69659 0.18765 0.935 0.0
H675 H 0.64905 0.28171 0.8187 0.0
H676 H 0.59954 0.27456 0.82282 0.0
H677 H 0.62353 0.25031 0.80682 0.0
C678 C 0.32907 0.81877 0.70752 0.0
C679 C 0.35404 0.79974 0.70588 0.0
C680 C 0.33452 0.8475 0.68933 0.0
C681 C 0.36608 0.85744 0.66935 0.0
C682 C 0.39271 0.83874 0.66943 0.0
C683 C 0.38614 0.80988 0.68753 0.0
C684 C 0.30519 0.86649 0.68972 0.0
C685 C 0.42704 0.84868 0.64903 0.0
C686 C 0.35302 0.91573 0.5937 0.0
C687 C 0.36781 0.94123 0.60419 0.0
C688 C 0.35334 0.88825 0.61434 0.0
C689 C 0.36912 0.88628 0.64619 0.0
C690 C 0.38506 0.91202 0.65654 0.0
C691 C 0.38363 0.93926 0.63559 0.0
C692 C 0.3354 0.86142 0.60255 0.0
C693 C 0.40247 0.91085 0.69011 0.0
H694 H 0.30407 0.81046 0.72151 0.0
H695 H 0.40512 0.79482 0.68623 0.0
H696 H 0.31774 0.88787 0.69488 0.0
H697 H 0.29161 0.87076 0.66526 0.0
H698 H 0.28372 0.85621 0.7083 0.0
H699 H 0.44718 0.83305 0.65514 0.0
H700 H 0.41946 0.85094 0.6227 0.0
H701 H 0.44058 0.87038 0.6526 0.0
H702 H 0.34024 0.9174 0.56959 0.0
H703 H 0.39404 0.95906 0.64407 0.0
H704 H 0.31141 0.85056 0.61816 0.0
H705 H 0.35509 0.84558 0.6047 0.0
H706 H 0.32569 0.8666 0.5767 0.0
H707 H 0.38081 0.90355 0.70903 0.0
H708 H 0.41739 0.9324 0.69295 0.0
H709 H 0.42208 0.89479 0.69489 0.0
C710 C 0.79046 0.77442 0.28591 0.0
C711 C 0.82864 0.7748 0.28448 0.0
C712 C 0.76699 0.76863 0.25994 0.0
C713 C 0.7816 0.76078 0.23285 0.0
C714 C 0.8196 0.75818 0.23285 0.0
C715 C 0.84288 0.76616 0.25814 0.0
C716 C 0.72703 0.77274 0.26065 0.0
C717 C 0.83612 0.74805 0.20567 0.0
C718 C 0.70673 0.73191 0.177 0.0
C719 C 0.70601 0.75615 0.15087 0.0
C720 C 0.73298 0.73229 0.20258 0.0
C721 C 0.75773 0.75812 0.20345 0.0
C722 C 0.75775 0.78244 0.17713 0.0
C723 C 0.73299 0.78077 0.15078 0.0
C724 C 0.73357 0.70515 0.22901 0.0
C725 C 0.78302 0.81076 0.17729 0.0
H726 H 0.77919 0.78007 0.30679 0.0
H727 H 0.87231 0.76662 0.25655 0.0
H728 H 0.72051 0.78915 0.23879 0.0
H729 H 0.70873 0.75205 0.25973 0.0
H730 H 0.72046 0.7801 0.28294 0.0
H731 H 0.86167 0.73864 0.21407 0.0
H732 H 0.81628 0.73146 0.19631 0.0
H733 H 0.84352 0.76684 0.18507 0.0
H734 H 0.6864 0.71263 0.17821 0.0
H735 H 0.73472 0.79923 0.13037 0.0
H736 H 0.71865 0.70704 0.25076 0.0
H737 H 0.76231 0.70218 0.23678 0.0
H738 H 0.71994 0.68536 0.22065 0.0
H739 H 0.77967 0.81813 0.20033 0.0
H740 H 0.77754 0.82838 0.15627 0.0
H741 H 0.81217 0.80751 0.17626 0.0
C742 C 0.82363 0.2233 0.68676 0.0
C743 C 0.83587 0.22517 0.71847 0.0
C744 C 0.83851 0.20552 0.6695 0.0
C745 C 0.86659 0.18947 0.68433 0.0
C746 C 0.88042 0.19265 0.71579 0.0
C747 C 0.86474 0.21045 0.73257 0.0
C748 C 0.82284 0.20276 0.6361 0.0
C749 C 0.91062 0.17628 0.73228 0.0
C750 C 0.87113 0.11926 0.65575 0.0
C751 C 0.89911 0.12809 0.63233 0.0
C752 C 0.86098 0.13882 0.67342 0.0
C753 C 0.87944 0.16792 0.6678 0.0
C754 C 0.90867 0.17667 0.64511 0.0
C755 C 0.91802 0.15671 0.62753 0.0
C756 C 0.82945 0.12865 0.69718 0.0
C757 C 0.92935 0.20734 0.63871 0.0
H758 H 0.80114 0.23473 0.67619 0.0
H759 H 0.87403 0.21212 0.75716 0.0
H760 H 0.84533 0.207 0.61804 0.0
H761 H 0.80868 0.18018 0.63712 0.0
H762 H 0.80277 0.21806 0.6272 0.0
H763 H 0.92086 0.1834 0.75513 0.0
H764 H 0.90004 0.15261 0.73847 0.0
H765 H 0.93413 0.17937 0.71546 0.0
H766 H 0.85606 0.09733 0.65928 0.0
H767 H 0.9399 0.1636 0.60969 0.0
H768 H 0.80632 0.14102 0.68859 0.0
H769 H 0.83827 0.13298 0.72163 0.0
H770 H 0.81908 0.10502 0.6999 0.0
H771 H 0.91047 0.22286 0.62723 0.0
H772 H 0.9532 0.21006 0.62228 0.0
H773 H 0.9395 0.21336 0.66211 0.0
C774 C 0.37572 0.24504 0.23444 0.0
C775 C 0.34407 0.25852 0.2277 0.0
C776 C 0.39256 0.23558 0.20991 0.0
C777 C 0.37919 0.24188 0.17714 0.0
C778 C 0.34682 0.25515 0.17037 0.0
C779 C 0.32878 0.26188 0.19604 0.0
C780 C 0.42508 0.21949 0.21954 0.0
C781 C 0.33141 0.26322 0.13606 0.0
C782 C 0.45234 0.25055 0.11253 0.0
C783 C 0.43728 0.22972 0.09451 0.0
C784 C 0.43348 0.25505 0.13905 0.0
C785 C 0.40012 0.23654 0.14972 0.0
C786 C 0.38597 0.21422 0.13274 0.0
C787 C 0.40379 0.21204 0.10451 0.0
C788 C 0.4492 0.28019 0.15483 0.0
C789 C 0.35187 0.1926 0.14364 0.0
H790 H 0.38806 0.24251 0.25865 0.0
H791 H 0.30337 0.27103 0.19097 0.0
H792 H 0.4315 0.2075 0.20095 0.0
H793 H 0.4497 0.23522 0.22346 0.0
H794 H 0.41963 0.20367 0.2432 0.0
H795 H 0.3154 0.28161 0.13358 0.0
H796 H 0.35345 0.26947 0.11742 0.0
H797 H 0.31231 0.24431 0.13058 0.0
H798 H 0.47829 0.26425 0.10494 0.0
H799 H 0.39144 0.19634 0.09029 0.0
H800 H 0.46668 0.27219 0.17613 0.0
H801 H 0.42718 0.29024 0.16348 0.0
H802 H 0.46691 0.2974 0.13757 0.0
H803 H 0.34403 0.19184 0.16916 0.0
H804 H 0.35628 0.1704 0.14173 0.0
H805 H 0.32851 0.19823 0.12693 0.0
C806 C 0.81865 0.72618 0.69619 0.0
C807 C 0.82916 0.74108 0.72136 0.0
C808 C 0.83946 0.70577 0.68941 0.0
C809 C 0.87117 0.69983 0.70876 0.0
C810 C 0.88289 0.71603 0.73316 0.0
C811 C 0.86163 0.73651 0.73917 0.0
C812 C 0.82612 0.68924 0.663 0.0
C813 C 0.91642 0.71034 0.7544 0.0
C814 C 0.89591 0.62331 0.72146 0.0
C815 C 0.92608 0.62757 0.70062 0.0
C816 C 0.8778 0.64665 0.72422 0.0
C817 C 0.88998 0.67493 0.70554 0.0
C818 C 0.92003 0.67929 0.68407 0.0
C819 C 0.93776 0.65559 0.68191 0.0
C820 C 0.8459 0.6411 0.7475 0.0
C821 C 0.93356 0.70901 0.6635 0.0
H822 H 0.79299 0.72946 0.68304 0.0
H823 H 0.869 0.74767 0.75912 0.0
H824 H 0.84923 0.68887 0.64693 0.0
H825 H 0.81539 0.6663 0.67444 0.0
H826 H 0.80381 0.69886 0.64765 0.0
H827 H 0.92392 0.72669 0.76994 0.0
H828 H 0.91089 0.68839 0.77061 0.0
H829 H 0.94041 0.71053 0.73907 0.0
H830 H 0.88701 0.60183 0.73625 0.0
H831 H 0.96075 0.65896 0.66542 0.0
H832 H 0.82078 0.64762 0.73401 0.0
H833 H 0.85224 0.65456 0.76628 0.0
H834 H 0.8397 0.61784 0.76013 0.0
H835 H 0.91073 0.71736 0.64783 0.0
H836 H 0.95687 0.70867 0.64758 0.0
H837 H 0.94271 0.72461 0.6796 0.0
C838 C 0.88525 0.31273 0.31594 0.0
C839 C 0.88777 0.30512 0.28566 0.0
C840 C 0.90825 0.33706 0.32359 0.0
C841 C 0.93387 0.35423 0.30014 0.0
C842 C 0.93812 0.34529 0.27047 0.0
C843 C 0.91525 0.32065 0.26379 0.0
C844 C 0.90346 0.34541 0.35582 0.0
C845 C 0.96491 0.36293 0.2447 0.0
C846 C 0.95606 0.43583 0.2955 0.0
C847 C 0.99238 0.43865 0.30748 0.0
C848 C 0.93649 0.40838 0.29361 0.0
C849 C 0.95338 0.38308 0.30479 0.0
C850 C 0.98953 0.38577 0.31833 0.0
C851 C 0.00873 0.4136 0.3193 0.0
C852 C 0.89815 0.40655 0.27871 0.0
C853 C 0.0082 0.35934 0.33111 0.0
H854 H 0.86386 0.30069 0.33275 0.0
H855 H 0.91735 0.31437 0.24059 0.0
H856 H 0.93068 0.35131 0.36723 0.0
H857 H 0.88913 0.36483 0.35155 0.0
H858 H 0.88695 0.32754 0.37327 0.0
H859 H 0.96694 0.35179 0.22416 0.0
H860 H 0.95582 0.38433 0.23462 0.0
H861 H 0.9928 0.36728 0.2556 0.0
H862 H 0.94332 0.45525 0.28692 0.0
H863 H 0.03674 0.41589 0.32892 0.0
H864 H 0.87821 0.39181 0.29622 0.0
H865 H 0.89759 0.3972 0.25649 0.0
H866 H 0.88873 0.42819 0.27178 0.0
H867 H 0.98995 0.34279 0.34852 0.0
H868 H 0.03489 0.36488 0.34362 0.0
H869 H 0.01346 0.3492 0.31053 0.0
C870 C 0.20869 0.32711 0.70593 0.0
C871 C 0.19276 0.30127 0.69667 0.0
C872 C 0.18931 0.35084 0.70218 0.0
C873 C 0.15357 0.34899 0.68774 0.0
C874 C 0.13813 0.32342 0.67678 0.0
C875 C 0.15768 0.2996 0.68197 0.0
C876 C 0.20641 0.37734 0.71502 0.0
C877 C 0.10061 0.32093 0.66037 0.0
C878 C 0.08889 0.39581 0.7118 0.0
C879 C 0.09418 0.42087 0.68658 0.0
C880 C 0.10779 0.37223 0.71229 0.0
C881 C 0.13157 0.37307 0.68626 0.0
C882 C 0.13567 0.39754 0.65986 0.0
C883 C 0.11745 0.42132 0.66058 0.0
C884 C 0.10314 0.34677 0.74124 0.0
C885 C 0.15992 0.39885 0.63117 0.0
H886 H 0.23594 0.32826 0.71716 0.0
H887 H 0.1453 0.27941 0.67523 0.0
H888 H 0.20775 0.39718 0.69526 0.0
H889 H 0.18895 0.38039 0.73467 0.0
H890 H 0.23469 0.37548 0.72508 0.0
H891 H 0.09458 0.30115 0.64974 0.0
H892 H 0.07896 0.31996 0.67843 0.0
H893 H 0.09873 0.34042 0.6406 0.0
H894 H 0.07013 0.39461 0.7315 0.0
H895 H 0.1222 0.44052 0.64105 0.0
H896 H 0.1303 0.34407 0.75336 0.0
H897 H 0.09261 0.32633 0.73291 0.0
H898 H 0.08384 0.34959 0.75965 0.0
H899 H 0.18924 0.40036 0.63925 0.0
H900 H 0.15701 0.41787 0.611 0.0
H901 H 0.15303 0.37864 0.62148 0.0
C902 C 0.28386 0.73777 0.27895 0.0
C903 C 0.31419 0.74001 0.3002 0.0
C904 C 0.26109 0.71103 0.27984 0.0
C905 C 0.26772 0.68631 0.30384 0.0
C906 C 0.29849 0.68852 0.32541 0.0
C907 C 0.32161 0.7154 0.32309 0.0
C908 C 0.22917 0.70953 0.25586 0.0
C909 C 0.30578 0.663 0.35204 0.0
C910 C 0.18149 0.63127 0.3273 0.0
C911 C 0.18625 0.60955 0.31057 0.0
C912 C 0.20869 0.65568 0.32659 0.0
C913 C 0.24082 0.65892 0.30773 0.0
C914 C 0.24596 0.63681 0.29113 0.0
C915 C 0.21887 0.6121 0.29326 0.0
C916 C 0.20258 0.67835 0.34539 0.0
C917 C 0.27929 0.63983 0.27006 0.0
H918 H 0.27771 0.75721 0.26204 0.0
H919 H 0.34448 0.71766 0.34014 0.0
H920 H 0.22883 0.69065 0.2441 0.0
H921 H 0.20277 0.70635 0.26903 0.0
H922 H 0.23047 0.72968 0.23644 0.0
H923 H 0.33215 0.66773 0.36537 0.0
H924 H 0.28292 0.6574 0.36988 0.0
H925 H 0.30663 0.64353 0.34161 0.0
H926 H 0.15621 0.62928 0.34063 0.0
H927 H 0.22251 0.59517 0.28045 0.0
H928 H 0.19848 0.69884 0.32803 0.0
H929 H 0.22723 0.68342 0.36071 0.0
H930 H 0.17812 0.67113 0.36147 0.0
H931 H 0.27933 0.65907 0.2496 0.0
H932 H 0.27979 0.62026 0.25964 0.0
H933 H 0.30501 0.6436 0.28451 0.0
C934 C 0.83825 0.80549 0.67674 0.0
C935 C 0.82781 0.80702 0.70811 0.0
C936 C 0.859 0.82964 0.65638 0.0
C937 C 0.86605 0.85686 0.66627 0.0
C938 C 0.85647 0.85793 0.69852 0.0
C939 C 0.84055 0.83241 0.71964 0.0
C940 C 0.872 0.82561 0.62416 0.0
C941 C 0.86054 0.88596 0.71089 0.0
C942 C 0.92173 0.93102 0.63346 0.0
C943 C 0.89992 0.94265 0.60696 0.0
C944 C 0.91408 0.90164 0.64961 0.0
C945 C 0.88046 0.88456 0.64279 0.0
C946 C 0.85815 0.89628 0.61605 0.0
C947 C 0.86956 0.92433 0.59733 0.0
C948 C 0.94168 0.88989 0.67486 0.0
C949 C 0.82108 0.88043 0.60782 0.0
H950 H 0.82943 0.78587 0.66756 0.0
H951 H 0.83498 0.83312 0.74465 0.0
H952 H 0.84779 0.82143 0.60802 0.0
H953 H 0.89139 0.84453 0.61135 0.0
H954 H 0.88597 0.80597 0.62839 0.0
H955 H 0.88736 0.88889 0.72398 0.0
H956 H 0.85896 0.90533 0.69094 0.0
H957 H 0.83866 0.88507 0.7288 0.0
H958 H 0.94386 0.9449 0.64295 0.0
H959 H 0.85263 0.93298 0.57671 0.0
H960 H 0.93513 0.86607 0.68458 0.0
H961 H 0.94357 0.90153 0.69537 0.0
H962 H 0.96949 0.89449 0.66375 0.0
H963 H 0.82502 0.86699 0.58995 0.0
H964 H 0.8023 0.89601 0.59612 0.0
H965 H 0.80713 0.86609 0.62971 0.0
C966 C 0.75168 0.27467 0.22228 0.0
C967 C 0.78442 0.26327 0.2215 0.0
C968 C 0.72361 0.271 0.19894 0.0
C969 C 0.72866 0.25549 0.17444 0.0
C970 C 0.76197 0.24406 0.17361 0.0
C971 C 0.78953 0.24812 0.19726 0.0
C972 C 0.68854 0.28354 0.20061 0.0
C973 C 0.76838 0.22741 0.14791 0.0
C974 C 0.64338 0.22266 0.13264 0.0
C975 C 0.64229 0.24324 0.10316 0.0
C976 C 0.67142 0.22632 0.15602 0.0
C977 C 0.69902 0.25115 0.14975 0.0
C978 C 0.69822 0.27189 0.11997 0.0
C979 C 0.66989 0.26768 0.09703 0.0
C980 C 0.67134 0.20376 0.18755 0.0
C981 C 0.72727 0.29858 0.11237 0.0
H982 H 0.74814 0.28627 0.24134 0.0
H983 H 0.81508 0.23935 0.19709 0.0
H984 H 0.68406 0.29894 0.17728 0.0
H985 H 0.66455 0.26585 0.20387 0.0
H986 H 0.68914 0.29521 0.22105 0.0
H987 H 0.79594 0.22017 0.15054 0.0
H988 H 0.7469 0.20796 0.14959 0.0
H989 H 0.76605 0.24122 0.1231 0.0
H990 H 0.6219 0.20392 0.13771 0.0
H991 H 0.66951 0.28345 0.0741 0.0
H992 H 0.6691 0.21404 0.20871 0.0
H993 H 0.69773 0.19475 0.1905 0.0
H994 H 0.64822 0.18549 0.18847 0.0
H995 H 0.7273 0.31169 0.13138 0.0
H996 H 0.72274 0.3126 0.08804 0.0
H997 H 0.75502 0.29197 0.11283 0.0
C998 C 0.25156 0.19127 0.699 0.0
C999 C 0.26161 0.2212 0.68718 0.0
C1000 C 0.26548 0.17096 0.68482 0.0
C1001 C 0.29033 0.18097 0.6584 0.0
C1002 C 0.30196 0.21128 0.6475 0.0
C1003 C 0.28736 0.23107 0.66205 0.0
C1004 C 0.25227 0.13888 0.6971 0.0
C1005 C 0.32873 0.22282 0.61969 0.0
C1006 C 0.34334 0.12686 0.63232 0.0
C1007 C 0.32234 0.12045 0.60521 0.0
C1008 C 0.33341 0.14661 0.64992 0.0
C1009 C 0.30154 0.15994 0.64032 0.0
C1010 C 0.28004 0.15322 0.61323 0.0
C1011 C 0.29074 0.13364 0.596 0.0
C1012 C 0.35713 0.15343 0.67853 0.0
C1013 C 0.24562 0.16668 0.60243 0.0
H1014 H 0.2317 0.18388 0.71858 0.0
H1015 H 0.29564 0.2543 0.65356 0.0
H1016 H 0.23538 0.13006 0.67777 0.0
H1017 H 0.27608 0.12674 0.70257 0.0
H1018 H 0.23533 0.13462 0.71948 0.0
H1019 H 0.33745 0.24674 0.61609 0.0
H1020 H 0.35362 0.21186 0.62429 0.0
H1021 H 0.31569 0.21796 0.59663 0.0
H1022 H 0.36789 0.11682 0.6394 0.0
H1023 H 0.27406 0.12837 0.57541 0.0
H1024 H 0.34038 0.14818 0.70107 0.0
H1025 H 0.36784 0.17708 0.67399 0.0
H1026 H 0.38087 0.14109 0.683 0.0
H1027 H 0.22578 0.16144 0.62289 0.0
H1028 H 0.23176 0.1589 0.58107 0.0
H1029 H 0.25265 0.19076 0.59575 0.0
C1030 C 0.42342 0.77357 0.26614 0.0
C1031 C 0.38485 0.77105 0.26426 0.0
C1032 C 0.4439 0.76908 0.2406 0.0
C1033 C 0.42525 0.7581 0.21428 0.0
C1034 C 0.38612 0.75188 0.21456 0.0
C1035 C 0.36653 0.75991 0.23846 0.0
C1036 C 0.48536 0.77725 0.24185 0.0
C1037 C 0.36418 0.73749 0.18944 0.0
C1038 C 0.46418 0.77266 0.1283 0.0
C1039 C 0.49108 0.75421 0.13239 0.0
C1040 C 0.44349 0.77483 0.15486 0.0
C1041 C 0.44637 0.75541 0.18556 0.0
C1042 C 0.47097 0.73461 0.18884 0.0
C1043 C 0.49432 0.73536 0.16283 0.0
C1044 C 0.41966 0.79872 0.14964 0.0
C1045 C 0.47351 0.71154 0.21957 0.0
H1046 H 0.43785 0.7806 0.28687 0.0
H1047 H 0.33693 0.75822 0.23611 0.0
H1048 H 0.4976 0.75841 0.25605 0.0
H1049 H 0.49775 0.78374 0.21714 0.0
H1050 H 0.49323 0.79558 0.25465 0.0
H1051 H 0.34223 0.72027 0.20179 0.0
H1052 H 0.35 0.75378 0.17245 0.0
H1053 H 0.38134 0.72744 0.17514 0.0
H1054 H 0.46077 0.78674 0.10459 0.0
H1055 H 0.515 0.72093 0.16633 0.0
H1056 H 0.41553 0.80603 0.17252 0.0
H1057 H 0.39237 0.79071 0.13978 0.0
H1058 H 0.43206 0.81798 0.13127 0.0
H1059 H 0.4999 0.71689 0.23253 0.0
H1060 H 0.47412 0.69015 0.21301 0.0
H1061 H 0.45025 0.7091 0.23649 0.0
C1062 C 0.89896 0.23387 0.3188 0.0
C1063 C 0.86373 0.24147 0.31954 0.0
C1064 C 0.91086 0.21221 0.34379 0.0
C1065 C 0.88671 0.1979 0.36979 0.0
C1066 C 0.85217 0.20721 0.37172 0.0
C1067 C 0.84121 0.229 0.34658 0.0
C1068 C 0.94813 0.20327 0.34115 0.0
C1069 C 0.82559 0.1927 0.399 0.0
C1070 C 0.88861 0.11845 0.41007 0.0
C1071 C 0.90438 0.1208 0.44062 0.0
C1072 C 0.88402 0.14349 0.38626 0.0
C1073 C 0.89566 0.17146 0.39328 0.0
C1074 C 0.91284 0.17386 0.42377 0.0
C1075 C 0.91666 0.14846 0.44723 0.0
C1076 C 0.86525 0.13999 0.35416 0.0
C1077 C 0.92579 0.20319 0.43214 0.0
H1078 H 0.91608 0.24349 0.29762 0.0
H1079 H 0.81397 0.23509 0.34686 0.0
H1080 H 0.96297 0.2011 0.36507 0.0
H1081 H 0.94439 0.18166 0.33435 0.0
H1082 H 0.96555 0.21914 0.32238 0.0
H1083 H 0.8013 0.20416 0.39843 0.0
H1084 H 0.81562 0.16989 0.39682 0.0
H1085 H 0.83961 0.19185 0.42318 0.0
H1086 H 0.87881 0.09699 0.40526 0.0
H1087 H 0.92836 0.15016 0.47115 0.0
H1088 H 0.88257 0.15274 0.33336 0.0
H1089 H 0.83864 0.14865 0.35207 0.0
H1090 H 0.85971 0.11685 0.35181 0.0
H1091 H 0.94267 0.2177 0.41202 0.0
H1092 H 0.94235 0.20136 0.45521 0.0
H1093 H 0.90158 0.21378 0.435 0.0
C1094 C 0.25522 0.21151 0.78533 0.0
C1095 C 0.2688 0.23007 0.75634 0.0
C1096 C 0.27888 0.20425 0.81217 0.0
C1097 C 0.31686 0.21592 0.80967 0.0
C1098 C 0.33102 0.23272 0.77937 0.0
C1099 C 0.3067 0.2396 0.75301 0.0
C1100 C 0.26275 0.18599 0.84387 0.0
C1101 C 0.37132 0.24547 0.77554 0.0
C1102 C 0.3678 0.23698 0.88385 0.0
C1103 C 0.39069 0.21546 0.89277 0.0
C1104 C 0.34289 0.23676 0.85749 0.0
C1105 C 0.34064 0.21438 0.83958 0.0
C1106 C 0.36254 0.19188 0.84926 0.0
C1107 C 0.38737 0.19267 0.8758 0.0
C1108 C 0.31984 0.2611 0.84812 0.0
C1109 C 0.36074 0.16761 0.83085 0.0
H1110 H 0.22581 0.20399 0.78745 0.0
H1111 H 0.31687 0.25397 0.7304 0.0
H1112 H 0.28043 0.16942 0.85494 0.0
H1113 H 0.26151 0.20019 0.86157 0.0
H1114 H 0.23441 0.17478 0.84031 0.0
H1115 H 0.37866 0.25473 0.74951 0.0
H1116 H 0.37771 0.26309 0.78949 0.0
H1117 H 0.38901 0.22866 0.78568 0.0
H1118 H 0.36977 0.25433 0.89728 0.0
H1119 H 0.40514 0.17606 0.8825 0.0
H1120 H 0.29016 0.25198 0.84737 0.0
H1121 H 0.32735 0.27392 0.82323 0.0
H1122 H 0.32372 0.27612 0.86544 0.0
H1123 H 0.33167 0.1578 0.82772 0.0
H1124 H 0.37655 0.1502 0.84349 0.0
H1125 H 0.37221 0.17654 0.806 0.0
C1126 C 0.35099 0.82287 0.37379 0.0
C1127 C 0.35105 0.83123 0.33956 0.0
C1128 C 0.35111 0.84347 0.39338 0.0
C1129 C 0.35299 0.87335 0.37833 0.0
C1130 C 0.35375 0.88196 0.34372 0.0
C1131 C 0.35155 0.86064 0.32476 0.0
C1132 C 0.34845 0.83319 0.43008 0.0
C1133 C 0.35701 0.91364 0.32671 0.0
C1134 C 0.32007 0.9258 0.42373 0.0
C1135 C 0.35287 0.93714 0.43834 0.0
C1136 C 0.31962 0.90455 0.40494 0.0
C1137 C 0.35308 0.89548 0.39878 0.0
C1138 C 0.38648 0.90741 0.41231 0.0
C1139 C 0.38586 0.92743 0.43256 0.0
C1140 C 0.28316 0.89158 0.39198 0.0
C1141 C 0.42297 0.89911 0.40529 0.0
H1142 H 0.35039 0.80005 0.38515 0.0
H1143 H 0.35021 0.86694 0.2983 0.0
H1144 H 0.37343 0.84277 0.44216 0.0
H1145 H 0.32439 0.84067 0.43911 0.0
H1146 H 0.34548 0.80907 0.43777 0.0
H1147 H 0.361 0.91685 0.2999 0.0
H1148 H 0.33175 0.92249 0.33072 0.0
H1149 H 0.38062 0.92656 0.33714 0.0
H1150 H 0.29444 0.93348 0.42672 0.0
H1151 H 0.4114 0.93521 0.44398 0.0
H1152 H 0.27965 0.86744 0.39909 0.0
H1153 H 0.28261 0.89752 0.36485 0.0
H1154 H 0.25931 0.89918 0.40125 0.0
H1155 H 0.42355 0.87574 0.41608 0.0
H1156 H 0.44676 0.91217 0.41535 0.0
H1157 H 0.42647 0.90222 0.37845 0.0
C1158 C 0.70342 0.76909 0.79249 0.0
C1159 C 0.73701 0.75836 0.79379 0.0
C1160 C 0.68559 0.76981 0.82129 0.0
C1161 C 0.69983 0.75681 0.85213 0.0
C1162 C 0.73169 0.74308 0.85322 0.0
C1163 C 0.75066 0.74514 0.82423 0.0
C1164 C 0.65198 0.78502 0.81816 0.0
C1165 C 0.74664 0.72659 0.88478 0.0
C1166 C 0.68607 0.77703 0.93357 0.0
C1167 C 0.65147 0.7611 0.94304 0.0
C1168 C 0.70098 0.77718 0.9032 0.0
C1169 C 0.68262 0.75856 0.88318 0.0
C1170 C 0.64832 0.74136 0.89343 0.0
C1171 C 0.63255 0.7438 0.92251 0.0
C1172 C 0.73646 0.7974 0.89306 0.0
C1173 C 0.62792 0.71998 0.8744 0.0
H1174 H 0.69145 0.77761 0.76895 0.0
H1175 H 0.77657 0.73666 0.82547 0.0
H1176 H 0.6271 0.7692 0.81522 0.0
H1177 H 0.64834 0.79422 0.83987 0.0
H1178 H 0.65367 0.80296 0.79607 0.0
H1179 H 0.75809 0.70742 0.88043 0.0
H1180 H 0.76966 0.74088 0.89404 0.0
H1181 H 0.72534 0.71884 0.904 0.0
H1182 H 0.70139 0.78976 0.94977 0.0
H1183 H 0.60578 0.73131 0.92979 0.0
H1184 H 0.73943 0.80369 0.86606 0.0
H1185 H 0.7602 0.78652 0.90365 0.0
H1186 H 0.73799 0.81759 0.90275 0.0
H1187 H 0.60526 0.72989 0.86001 0.0
H1188 H 0.61497 0.69998 0.89141 0.0
H1189 H 0.64596 0.7135 0.8575 0.0
loop_
_geom_bond_atom_site_label_1
_geom_bond_atom_site_label_2
_geom_bond_distance
_geom_bond_site_symmetry_2
_ccdc_geom_bond_type
C0 N1 1.317 . S
C0 N2 1.348 . S
C0 C3 1.485 . S
N1 C0 1.317 . S
N1 N5 1.370 . S
N2 C0 1.348 . S
N2 C4 1.346 . S
C3 C0 1.485 . S
C3 H7 0.960 . S
C3 H8 0.961 . S
C3 H9 0.960 . S
C4 N2 1.346 . S
C4 N5 1.307 . S
C4 C6 1.486 . S
N5 N1 1.370 . S
N5 C4 1.307 . S
C6 C4 1.486 . S
C6 H10 0.960 . S
C6 H11 0.960 . S
C6 H12 0.959 . S
H7 C3 0.960 . S
H8 C3 0.961 . S
H9 C3 0.960 . S
H10 C6 0.960 . S
H11 C6 0.960 . S
H12 C6 0.959 . S
C13 N14 1.317 . S
C13 N15 1.348 . S
C13 C16 1.485 . S
N14 C13 1.317 . S
N14 N18 1.370 . S
N15 C13 1.348 . S
N15 C17 1.346 . S
C16 C13 1.485 . S
C16 H20 0.960 . S
C16 H21 0.961 . S
C16 H22 0.960 . S
C17 N15 1.346 . S
C17 N18 1.307 . S
C17 C19 1.486 . S
N18 N14 1.370 . S
N18 C17 1.307 . S
C19 C17 1.486 . S
C19 H23 0.960 . S
C19 H24 0.960 . S
C19 H25 0.959 . S
H20 C16 0.960 . S
H21 C16 0.961 . S
H22 C16 0.960 . S
H23 C19 0.960 . S
H24 C19 0.960 . S
H25 C19 0.959 . S
C26 N27 1.317 . S
C26 N28 1.348 . S
C26 C29 1.485 . S
N27 C26 1.317 . S
N27 N31 1.370 . S
N28 C26 1.348 . S
N28 C30 1.346 . S
C29 C26 1.485 . S
C29 H33 0.960 . S
C29 H34 0.961 . S
C29 H35 0.960 . S
C30 N28 1.346 . S
C30 N31 1.307 . S
C30 C32 1.486 . S
N31 N27 1.370 . S
N31 C30 1.307 . S
C32 C30 1.486 . S
C32 H36 0.960 . S
C32 H37 0.960 . S
C32 H38 0.959 . S
H33 C29 0.960 . S
H34 C29 0.961 . S
H35 C29 0.960 . S
H36 C32 0.960 . S
H37 C32 0.960 . S
H38 C32 0.959 . S
C39 N40 1.317 . S
C39 N41 1.348 . S
C39 C42 1.485 . S
N40 C39 1.317 . S
N40 N44 1.370 . S
N41 C39 1.348 . S
N41 C43 1.346 . S
C42 C39 1.485 . S
C42 H46 0.960 . S
C42 H47 0.961 . S
C42 H48 0.960 . S
C43 N41 1.346 . S
C43 N44 1.307 . S
C43 C45 1.486 . S
N44 N40 1.370 . S
N44 C43 1.307 . S
C45 C43 1.486 . S
C45 H49 0.960 . S
C45 H50 0.960 . S
C45 H51 0.959 . S
H46 C42 0.960 . S
H47 C42 0.961 . S
H48 C42 0.960 . S
H49 C45 0.960 . S
H50 C45 0.960 . S
H51 C45 0.959 . S
C52 N53 1.317 . S
C52 N54 1.348 . S
C52 C55 1.485 . S
N53 C52 1.317 . S
N53 N57 1.370 . S
N54 C52 1.348 . S
N54 C56 1.346 . S
C55 C52 1.485 . S
C55 H59 0.960 . S
C55 H60 0.961 . S
C55 H61 0.960 . S
C56 N54 1.346 . S
C56 N57 1.307 . S
C56 C58 1.486 . S
N57 N53 1.370 . S
N57 C56 1.307 . S
C58 C56 1.486 . S
C58 H62 0.960 . S
C58 H63 0.960 . S
C58 H64 0.959 . S
H59 C55 0.960 . S
H60 C55 0.961 . S
H61 C55 0.960 . S
H62 C58 0.960 . S
H63 C58 0.960 . S
H64 C58 0.959 . S
C65 N66 1.317 . S
C65 N67 1.348 . S
C65 C68 1.485 . S
N66 C65 1.317 . S
N66 N70 1.370 . S
N67 C65 1.348 . S
N67 C69 1.346 . S
C68 C65 1.485 . S
C68 H72 0.960 . S
C68 H73 0.961 . S
C68 H74 0.960 . S
C69 N67 1.346 . S
C69 N70 1.307 . S
C69 C71 1.486 . S
N70 N66 1.370 . S
N70 C69 1.307 . S
C71 C69 1.486 . S
C71 H75 0.960 . S
C71 H76 0.960 . S
C71 H77 0.959 . S
H72 C68 0.960 . S
H73 C68 0.961 . S
H74 C68 0.960 . S
H75 C71 0.960 . S
H76 C71 0.960 . S
H77 C71 0.959 . S
C78 N79 1.317 . S
C78 N80 1.348 . S
C78 C81 1.485 . S
N79 C78 1.317 . S
N79 N83 1.370 . S
N80 C78 1.348 . S
N80 C82 1.346 . S
C81 C78 1.485 . S
C81 H85 0.960 . S
C81 H86 0.961 . S
C81 H87 0.960 . S
C82 N80 1.346 . S
C82 N83 1.307 . S
C82 C84 1.486 . S
N83 N79 1.370 . S
N83 C82 1.307 . S
C84 C82 1.486 . S
C84 H88 0.960 . S
C84 H89 0.960 . S
C84 H90 0.959 . S
H85 C81 0.960 . S
H86 C81 0.961 . S
H87 C81 0.960 . S
H88 C84 0.960 . S
H89 C84 0.960 . S
H90 C84 0.959 . S
C91 N92 1.317 . S
C91 N93 1.348 . S
C91 C94 1.485 . S
N92 C91 1.317 . S
N92 N96 1.370 . S
N93 C91 1.348 . S
N93 C95 1.346 . S
C94 C91 1.485 . S
C94 H98 0.960 . S
C94 H99 0.961 . S
C94 H100 0.960 . S
C95 N93 1.346 . S
C95 N96 1.307 . S
C95 C97 1.486 . S
N96 N92 1.370 . S
N96 C95 1.307 . S
C97 C95 1.486 . S
C97 H101 0.960 . S
C97 H102 0.960 . S
C97 H103 0.959 . S
H98 C94 0.960 . S
H99 C94 0.961 . S
H100 C94 0.960 . S
H101 C97 0.960 . S
H102 C97 0.960 . S
H103 C97 0.959 . S
C104 C105 1.443 . S
C104 N108 1.376 . S
C104 C142 1.389 . S
C105 C104 1.443 . S
C105 C106 1.340 . S
C105 H145 0.951 . S
C106 C105 1.340 . S
C106 C107 1.439 . S
C106 H146 0.950 . S
C107 C106 1.439 . S
C107 N108 1.374 . S
C107 C141 1.395 . S
N108 C104 1.376 . S
N108 C107 1.374 . S
N108 Co109 2.008 . S
Co109 N108 2.008 . S
Co109 N110 1.995 . S
Co109 N115 2.008 . S
Co109 N120 1.995 . S
Co109 N125 2.282 . S
Co109 N131 2.282 . S
N110 Co109 1.995 . S
N110 C111 1.376 . S
N110 C114 1.383 . S
C111 N110 1.376 . S
C111 C112 1.446 . S
C111 C141 1.391 . S
C112 C111 1.446 . S
C112 C113 1.339 . S
C112 H147 0.949 . S
C113 C112 1.339 . S
C113 C114 1.439 . S
C113 H148 0.950 1_455 S
C114 N110 1.383 . S
C114 C113 1.439 . S
C114 C143 1.392 . S
N115 Co109 2.008 . S
N115 C116 1.376 . S
N115 C119 1.374 . S
C116 N115 1.376 . S
C116 C117 1.443 . S
C116 C143 1.389 . S
C117 C116 1.443 . S
C117 C118 1.340 . S
C117 H149 0.951 . S
C118 C117 1.340 . S
C118 C119 1.439 . S
C118 H150 0.950 . S
C119 N115 1.374 . S
C119 C118 1.439 . S
C119 C144 1.395 . S
N120 Co109 1.995 . S
N120 C121 1.376 . S
N120 C124 1.383 . S
C121 N120 1.376 . S
C121 C122 1.446 . S
C121 C144 1.391 . S
C122 C121 1.446 . S
C122 C123 1.339 . S
C122 H151 0.949 . S
C123 C122 1.339 . S
C123 C124 1.439 . S
C123 H152 0.950 . S
C124 N120 1.383 . S
C124 C123 1.439 . S
C124 C142 1.392 . S
N125 Co109 2.282 . S
N125 C128 1.332 . S
N125 C130 1.332 . S
C126 C127 1.386 . S
C126 C129 1.388 . S
C127 C126 1.386 . S
C127 C128 1.382 . S
C127 H153 0.950 . S
C128 N125 1.332 . S
C128 C127 1.382 . S
C128 H139 0.952 . S
C129 C126 1.388 . S
C129 C130 1.382 . S
C129 H154 0.950 . S
C130 N125 1.332 . S
C130 C129 1.382 . S
C130 H140 0.948 . S
N131 Co109 2.282 . S
N131 C135 1.332 . S
N131 C136 1.332 . S
C132 C133 1.388 . S
C132 C136 1.382 . S
C132 H155 0.950 . S
C133 C132 1.388 . S
C133 C134 1.386 . S
C134 C133 1.386 . S
C134 C135 1.382 . S
C134 H156 0.950 . S
C135 N131 1.332 . S
C135 C134 1.382 . S
C135 H137 0.952 . S
C136 N131 1.332 . S
C136 C132 1.382 . S
C136 H138 0.948 . S
H137 C135 0.952 . S
H138 C136 0.948 . S
H139 C128 0.952 . S
H140 C130 0.948 . S
C141 C107 1.395 . S
C141 C111 1.391 . S
C142 C104 1.389 . S
C142 C124 1.392 . S
C143 C114 1.392 . S
C143 C116 1.389 . S
C144 C119 1.395 . S
C144 C121 1.391 . S
H145 C105 0.951 . S
H146 C106 0.950 . S
H147 C112 0.949 . S
H148 C113 0.950 1_655 S
H149 C117 0.951 . S
H150 C118 0.950 . S
H151 C122 0.949 . S
H152 C123 0.950 . S
H153 C127 0.950 . S
H154 C129 0.950 . S
H155 C132 0.950 . S
H156 C134 0.950 . S
C157 C158 1.443 . S
C157 N161 1.376 . S
C157 C195 1.389 . S
C158 C157 1.443 . S
C158 C159 1.340 . S
C158 H198 0.951 . S
C159 C158 1.340 . S
C159 C160 1.439 . S
C159 H199 0.950 . S
C160 C159 1.439 . S
C160 N161 1.374 . S
C160 C194 1.395 1_455 S
N161 C157 1.376 . S
N161 C160 1.374 . S
N161 Co162 2.008 . S
Co162 N161 2.008 . S
Co162 N163 1.995 1_455 S
Co162 N168 2.008 1_455 S
Co162 N173 1.995 . S
Co162 N178 2.282 . S
Co162 N184 2.282 1_455 S
N163 Co162 1.995 1_655 S
N163 C164 1.376 . S
N163 C167 1.383 . S
C164 N163 1.376 . S
C164 C165 1.446 . S
C164 C194 1.391 . S
C165 C164 1.446 . S
C165 C166 1.339 . S
C165 H200 0.949 . S
C166 C165 1.339 . S
C166 C167 1.439 . S
C166 H201 0.950 . S
C167 N163 1.383 . S
C167 C166 1.439 . S
C167 C196 1.392 . S
N168 Co162 2.008 1_655 S
N168 C169 1.376 . S
N168 C172 1.374 . S
C169 N168 1.376 . S
C169 C170 1.443 . S
C169 C196 1.389 . S
C170 C169 1.443 . S
C170 C171 1.340 . S
C170 H202 0.951 . S
C171 C170 1.340 . S
C171 C172 1.439 . S
C171 H203 0.950 . S
C172 N168 1.374 . S
C172 C171 1.439 . S
C172 C197 1.395 1_655 S
N173 Co162 1.995 . S
N173 C174 1.376 . S
N173 C177 1.383 . S
C174 N173 1.376 . S
C174 C175 1.446 . S
C174 C197 1.391 . S
C175 C174 1.446 . S
C175 C176 1.339 . S
C175 H204 0.949 . S
C176 C175 1.339 . S
C176 C177 1.439 . S
C176 H205 0.950 . S
C177 N173 1.383 . S
C177 C176 1.439 . S
C177 C195 1.392 . S
N178 Co162 2.282 . S
N178 C181 1.332 . S
N178 C183 1.332 . S
C179 C180 1.386 . S
C179 C182 1.388 . S
C180 C179 1.386 . S
C180 C181 1.382 . S
C180 H206 0.950 . S
C181 N178 1.332 . S
C181 C180 1.382 . S
C181 H192 0.952 . S
C182 C179 1.388 . S
C182 C183 1.382 . S
C182 H207 0.950 . S
C183 N178 1.332 . S
C183 C182 1.382 . S
C183 H193 0.948 . S
N184 Co162 2.282 1_655 S
N184 C188 1.332 . S
N184 C189 1.332 . S
C185 C186 1.388 . S
C185 C189 1.382 . S
C185 H208 0.950 . S
C186 C185 1.388 . S
C186 C187 1.386 . S
C187 C186 1.386 . S
C187 C188 1.382 . S
C187 H209 0.950 . S
C188 N184 1.332 . S
C188 C187 1.382 . S
C188 H190 0.952 . S
C189 N184 1.332 . S
C189 C185 1.382 . S
C189 H191 0.948 . S
H190 C188 0.952 . S
H191 C189 0.948 . S
H192 C181 0.952 . S
H193 C183 0.948 . S
C194 C160 1.395 1_655 S
C194 C164 1.391 . S
C195 C157 1.389 . S
C195 C177 1.392 . S
C196 C167 1.392 . S
C196 C169 1.389 . S
C197 C172 1.395 1_455 S
C197 C174 1.391 . S
H198 C158 0.951 . S
H199 C159 0.950 . S
H200 C165 0.949 . S
H201 C166 0.950 . S
H202 C170 0.951 . S
H203 C171 0.950 . S
H204 C175 0.949 . S
H205 C176 0.950 . S
H206 C180 0.950 . S
H207 C182 0.950 . S
H208 C185 0.950 . S
H209 C187 0.950 . S
C210 C211 1.443 . S
C210 N214 1.376 1_565 S
C210 C248 1.389 . S
C211 C210 1.443 . S
C211 C212 1.340 . S
C211 H251 0.951 . S
C212 C211 1.340 . S
C212 C213 1.439 1_565 S
C212 H252 0.950 . S
C213 C212 1.439 1_545 S
C213 N214 1.374 . S
C213 C247 1.395 . S
N214 C210 1.376 1_545 S
N214 C213 1.374 . S
N214 Co215 2.008 . S
Co215 N214 2.008 . S
Co215 N216 1.995 . S
Co215 N221 2.008 . S
Co215 N226 1.995 . S
Co215 N231 2.282 . S
Co215 N237 2.276 1_545 S
N216 Co215 1.995 . S
N216 C217 1.376 . S
N216 C220 1.383 . S
C217 N216 1.376 . S
C217 C218 1.446 . S
C217 C247 1.391 . S
C218 C217 1.446 . S
C218 C219 1.339 . S
C218 H253 0.949 . S
C219 C218 1.339 . S
C219 C220 1.439 . S
C219 H254 0.950 . S
C220 N216 1.383 . S
C220 C219 1.439 . S
C220 C249 1.392 . S
N221 Co215 2.008 . S
N221 C222 1.376 . S
N221 C225 1.374 . S
C222 N221 1.376 . S
C222 C223 1.443 . S
C222 C249 1.389 . S
C223 C222 1.443 . S
C223 C224 1.340 . S
C223 H255 0.951 . S
C224 C223 1.340 . S
C224 C225 1.439 . S
C224 H256 0.950 . S
C225 N221 1.374 . S
C225 C224 1.439 . S
C225 C250 1.395 . S
N226 Co215 1.995 . S
N226 C227 1.378 1_545 S
N226 C230 1.383 1_545 S
C227 N226 1.378 1_565 S
C227 C228 1.468 . S
C227 C250 1.372 1_565 S
C228 C227 1.468 . S
C228 C229 1.339 . S
C228 H257 0.949 . S
C229 C228 1.339 . S
C229 C230 1.439 . S
C229 H258 0.950 . S
C230 N226 1.383 1_565 S
C230 C229 1.439 . S
C230 C248 1.392 . S
N231 Co215 2.282 . S
N231 C234 1.332 . S
N231 C236 1.332 . S
C232 C233 1.386 . S
C232 C235 1.388 . S
C233 C232 1.386 . S
C233 C234 1.382 . S
C233 H259 0.950 . S
C234 N231 1.332 . S
C234 C233 1.382 . S
C234 H245 0.952 . S
C235 C232 1.388 . S
C235 C236 1.382 . S
C235 H260 0.950 . S
C236 N231 1.332 . S
C236 C235 1.382 . S
C236 H246 0.948 . S
N237 Co215 2.276 1_565 S
N237 C241 1.334 . S
N237 C242 1.338 . S
C238 C239 1.388 . S
C238 C242 1.382 . S
C238 H261 0.950 . S
C239 C238 1.388 . S
C239 C240 1.386 . S
C240 C239 1.386 . S
C240 C241 1.382 . S
C240 H262 0.950 . S
C241 N237 1.334 . S
C241 C240 1.382 . S
C241 H243 0.952 1_565 S
C242 N237 1.338 . S
C242 C238 1.382 . S
C242 H244 0.948 . S
H243 C241 0.952 1_545 S
H244 C242 0.948 . S
H245 C234 0.952 . S
H246 C236 0.948 . S
C247 C213 1.395 . S
C247 C217 1.391 . S
C248 C210 1.389 . S
C248 C230 1.392 . S
C249 C220 1.392 . S
C249 C222 1.389 . S
C250 C225 1.395 . S
C250 C227 1.372 1_545 S
H251 C211 0.951 . S
H252 C212 0.950 . S
H253 C218 0.949 . S
H254 C219 0.950 . S
H255 C223 0.951 . S
H256 C224 0.950 . S
H257 C228 0.949 . S
H258 C229 0.950 . S
H259 C233 0.950 . S
H260 C235 0.950 . S
H261 C238 0.950 . S
H262 C240 0.950 . S
C263 C264 1.443 . S
C263 N267 1.376 . S
C263 C301 1.389 . S
C264 C263 1.443 . S
C264 C265 1.340 . S
C264 H304 0.951 . S
C265 C264 1.340 . S
C265 C266 1.439 . S
C265 H305 0.950 . S
C266 C265 1.439 . S
C266 N267 1.374 . S
C266 C300 1.395 . S
N267 C263 1.376 . S
N267 C266 1.374 . S
N267 Co268 2.008 . S
Co268 N267 2.008 . S
Co268 N269 1.995 . S
Co268 N274 2.008 . S
Co268 N279 1.995 . S
Co268 N284 2.282 . S
Co268 N290 2.282 . S
N269 Co268 1.995 . S
N269 C270 1.376 . S
N269 C273 1.383 1_554 S
C270 N269 1.376 . S
C270 C271 1.446 1_554 S
C270 C300 1.391 . S
C271 C270 1.446 1_556 S
C271 C272 1.339 . S
C271 H306 0.949 . S
C272 C271 1.339 . S
C272 C273 1.439 . S
C272 H307 0.950 . S
C273 N269 1.383 1_556 S
C273 C272 1.439 . S
C273 C302 1.392 . S
N274 Co268 2.008 . S
N274 C275 1.376 1_554 S
N274 C278 1.374 . S
C275 N274 1.376 1_556 S
C275 C276 1.443 . S
C275 C302 1.389 . S
C276 C275 1.443 . S
C276 C277 1.340 1_556 S
C276 H308 0.951 . S
C277 C276 1.340 1_554 S
C277 C278 1.439 . S
C277 H309 0.950 . S
C278 N274 1.374 . S
C278 C277 1.439 . S
C278 C303 1.395 . S
N279 Co268 1.995 . S
N279 C280 1.376 . S
N279 C283 1.383 . S
C280 N279 1.376 . S
C280 C281 1.446 . S
C280 C303 1.391 . S
C281 C280 1.446 . S
C281 C282 1.339 . S
C281 H310 0.949 . S
C282 C281 1.339 . S
C282 C283 1.439 . S
C282 H311 0.950 . S
C283 N279 1.383 . S
C283 C282 1.439 . S
C283 C301 1.392 . S
N284 Co268 2.282 . S
N284 C287 1.332 . S
N284 C289 1.332 1_554 S
C285 C286 1.386 . S
C285 C288 1.388 . S
C286 C285 1.386 . S
C286 C287 1.382 1_556 S
C286 H312 0.950 . S
C287 N284 1.332 . S
C287 C286 1.382 1_554 S
C287 H298 0.952 . S
C288 C285 1.388 . S
C288 C289 1.382 . S
C288 H313 0.950 . S
C289 N284 1.332 1_556 S
C289 C288 1.382 . S
C289 H299 0.948 . S
N290 Co268 2.282 . S
N290 C294 1.332 . S
N290 C295 1.332 . S
C291 C292 1.388 . S
C291 C295 1.382 . S
C291 H314 0.950 . S
C292 C291 1.388 . S
C292 C293 1.386 . S
C293 C292 1.386 . S
C293 C294 1.382 . S
C293 H315 0.950 . S
C294 N290 1.332 . S
C294 C293 1.382 . S
C294 H296 0.952 . S
C295 N290 1.332 . S
C295 C291 1.382 . S
C295 H297 0.948 . S
H296 C294 0.952 . S
H297 C295 0.948 . S
H298 C287 0.952 . S
H299 C289 0.948 . S
C300 C266 1.395 . S
C300 C270 1.391 . S
C301 C263 1.389 . S
C301 C283 1.392 . S
C302 C273 1.392 . S
C302 C275 1.389 . S
C303 C278 1.395 . S
C303 C280 1.391 . S
H304 C264 0.951 . S
H305 C265 0.950 . S
H306 C271 0.949 . S
H307 C272 0.950 . S
H308 C276 0.951 . S
H309 C277 0.950 . S
H310 C281 0.949 . S
H311 C282 0.950 . S
H312 C286 0.950 . S
H313 C288 0.950 . S
H314 C291 0.950 . S
H315 C293 0.950 . S
C316 C317 1.434 1_645 S
C316 N320 1.376 . S
C316 C354 1.389 1_545 S
C317 C316 1.434 1_465 S
C317 C318 1.325 1_565 S
C317 H357 0.973 . S
C318 C317 1.325 1_545 S
C318 C319 1.439 . S
C318 H358 0.950 . S
C319 C318 1.439 . S
C319 N320 1.374 1_455 S
C319 C353 1.395 . S
N320 C316 1.376 . S
N320 C319 1.374 1_655 S
N320 Co321 2.008 . S
Co321 N320 2.008 . S
Co321 N322 1.995 . S
Co321 N327 2.008 . S
Co321 N332 1.995 . S
Co321 N337 2.282 . S
Co321 N343 2.282 . S
N322 Co321 1.995 . S
N322 C323 1.376 1_655 S
N322 C326 1.383 . S
C323 N322 1.376 1_455 S
C323 C324 1.446 . S
C323 C353 1.391 . S
C324 C323 1.446 . S
C324 C325 1.339 . S
C324 H359 0.949 . S
C325 C324 1.339 . S
C325 C326 1.439 1_455 S
C325 H360 0.950 . S
C326 N322 1.383 . S
C326 C325 1.439 1_655 S
C326 C355 1.392 . S
N327 Co321 2.008 . S
N327 C328 1.376 . S
N327 C331 1.374 . S
C328 N327 1.376 . S
C328 C329 1.443 . S
C328 C355 1.389 . S
C329 C328 1.443 . S
C329 C330 1.340 . S
C329 H361 0.951 . S
C330 C329 1.340 . S
C330 C331 1.439 . S
C330 H362 0.950 . S
C331 N327 1.374 . S
C331 C330 1.439 . S
C331 C356 1.395 . S
N332 Co321 1.995 . S
N332 C333 1.376 . S
N332 C336 1.383 1_545 S
C333 N332 1.376 . S
C333 C334 1.446 1_545 S
C333 C356 1.391 . S
C334 C333 1.446 1_565 S
C334 C335 1.339 . S
C334 H363 0.949 . S
C335 C334 1.339 . S
C335 C336 1.439 . S
C335 H364 0.950 . S
C336 N332 1.383 1_565 S
C336 C335 1.439 . S
C336 C354 1.392 . S
N337 Co321 2.282 . S
N337 C340 1.332 . S
N337 C342 1.332 . S
C338 C339 1.386 . S
C338 C341 1.388 . S
C339 C338 1.386 . S
C339 C340 1.382 . S
C339 H365 0.950 . S
C340 N337 1.332 . S
C340 C339 1.382 . S
C340 H351 0.952 . S
C341 C338 1.388 . S
C341 C342 1.382 . S
C341 H366 0.950 . S
C342 N337 1.332 . S
C342 C341 1.382 . S
C342 H352 0.948 . S
N343 Co321 2.282 . S
N343 C347 1.332 . S
N343 C348 1.332 . S
C344 C345 1.388 . S
C344 C348 1.382 1_565 S
C344 H367 0.950 . S
C345 C344 1.388 . S
C345 C346 1.375 1_565 S
C346 C345 1.375 1_545 S
C346 C347 1.395 . S
C346 H368 0.951 1_655 S
C347 N343 1.332 . S
C347 C346 1.395 . S
C347 H349 0.952 . S
C348 N343 1.332 . S
C348 C344 1.382 1_545 S
C348 H350 0.948 . S
H349 C347 0.952 . S
H350 C348 0.948 . S
H351 C340 0.952 . S
H352 C342 0.948 . S
C353 C319 1.395 . S
C353 C323 1.391 . S
C354 C316 1.389 1_565 S
C354 C336 1.392 . S
C355 C326 1.392 . S
C355 C328 1.389 . S
C356 C331 1.395 . S
C356 C333 1.391 . S
H357 C317 0.973 . S
H358 C318 0.950 . S
H359 C324 0.949 . S
H360 C325 0.950 . S
H361 C329 0.951 . S
H362 C330 0.950 . S
H363 C334 0.949 . S
H364 C335 0.950 . S
H365 C339 0.950 . S
H366 C341 0.950 . S
H367 C344 0.950 . S
H368 C346 0.951 1_455 S
C369 C370 1.443 . S
C369 N373 1.376 . S
C369 C407 1.389 . S
C370 C369 1.443 . S
C370 C371 1.340 . S
C370 H410 0.951 . S
C371 C370 1.340 . S
C371 C372 1.439 . S
C371 H411 0.950 . S
C372 C371 1.439 . S
C372 N373 1.374 . S
C372 C406 1.395 . S
N373 C369 1.376 . S
N373 C372 1.374 . S
N373 Co374 2.008 . S
Co374 N373 2.008 . S
Co374 N375 1.995 1_554 S
Co374 N380 2.008 1_554 S
Co374 N385 1.995 . S
Co374 N390 2.282 1_554 S
Co374 N396 2.282 . S
N375 Co374 1.995 1_556 S
N375 C376 1.376 . S
N375 C379 1.383 . S
C376 N375 1.376 . S
C376 C377 1.446 . S
C376 C406 1.391 1_556 S
C377 C376 1.446 . S
C377 C378 1.339 . S
C377 H412 0.949 . S
C378 C377 1.339 . S
C378 C379 1.439 . S
C378 H413 0.950 . S
C379 N375 1.383 . S
C379 C378 1.439 . S
C379 C408 1.392 . S
N380 Co374 2.008 1_556 S
N380 C381 1.376 . S
N380 C384 1.374 1_556 S
C381 N380 1.376 . S
C381 C382 1.443 . S
C381 C408 1.389 . S
C382 C381 1.443 . S
C382 C383 1.340 . S
C382 H414 0.951 . S
C383 C382 1.340 . S
C383 C384 1.439 1_556 S
C383 H415 0.950 . S
C384 N380 1.374 1_554 S
C384 C383 1.439 1_554 S
C384 C409 1.395 . S
N385 Co374 1.995 . S
N385 C386 1.376 . S
N385 C389 1.383 . S
C386 N385 1.376 . S
C386 C387 1.446 . S
C386 C409 1.391 . S
C387 C386 1.446 . S
C387 C388 1.339 . S
C387 H416 0.949 . S
C388 C387 1.339 . S
C388 C389 1.439 . S
C388 H417 0.950 . S
C389 N385 1.383 . S
C389 C388 1.439 . S
C389 C407 1.392 . S
N390 Co374 2.282 1_556 S
N390 C393 1.332 . S
N390 C395 1.332 . S
C391 C392 1.386 . S
C391 C394 1.388 . S
C392 C391 1.386 . S
C392 C393 1.382 . S
C392 H418 0.950 . S
C393 N390 1.332 . S
C393 C392 1.382 . S
C393 H404 0.952 . S
C394 C391 1.388 . S
C394 C395 1.382 . S
C394 H419 0.950 . S
C395 N390 1.332 . S
C395 C394 1.382 . S
C395 H405 0.948 . S
N396 Co374 2.282 . S
N396 C400 1.332 . S
N396 C401 1.332 . S
C397 C398 1.388 . S
C397 C401 1.382 . S
C397 H420 0.950 . S
C398 C397 1.388 . S
C398 C399 1.386 . S
C399 C398 1.386 . S
C399 C400 1.382 . S
C399 H421 0.950 . S
C400 N396 1.332 . S
C400 C399 1.382 . S
C400 H402 0.952 . S
C401 N396 1.332 . S
C401 C397 1.382 . S
C401 H403 0.948 . S
H402 C400 0.952 . S
H403 C401 0.948 . S
H404 C393 0.952 . S
H405 C395 0.948 . S
C406 C372 1.395 . S
C406 C376 1.391 1_554 S
C407 C369 1.389 . S
C407 C389 1.392 . S
C408 C379 1.392 . S
C408 C381 1.389 . S
C409 C384 1.395 . S
C409 C386 1.391 . S
H410 C370 0.951 . S
H411 C371 0.950 . S
H412 C377 0.949 . S
H413 C378 0.950 . S
H414 C382 0.951 . S
H415 C383 0.950 . S
H416 C387 0.949 . S
H417 C388 0.950 . S
H418 C392 0.950 . S
H419 C394 0.950 . S
H420 C397 0.950 . S
H421 C399 0.950 . S
C422 C423 1.391 . S
C422 C424 1.394 . S
C422 H438 0.931 . S
C423 C422 1.391 . S
C423 C427 1.376 . S
C424 C422 1.394 . S
C424 C425 1.369 . S
C424 C428 1.531 . S
C425 C424 1.369 . S
C425 C426 1.410 . S
C425 C433 1.503 . S
C426 C425 1.410 . S
C426 C427 1.392 . S
C426 C429 1.511 . S
C427 C423 1.376 . S
C427 C426 1.392 . S
C427 H439 0.929 . S
C428 C424 1.531 . S
C428 H440 0.960 . S
C428 H441 0.962 . S
C428 H442 0.960 . S
C429 C426 1.511 . S
C429 H443 0.961 . S
C429 H444 0.961 . S
C429 H445 0.961 . S
C430 C431 1.370 . S
C430 C432 1.363 . S
C430 H446 0.931 . S
C431 C430 1.370 . S
C431 C435 1.408 . S
C432 C430 1.363 . S
C432 C433 1.370 . S
C432 C436 1.524 . S
C433 C425 1.503 . S
C433 C432 1.370 . S
C433 C434 1.403 . S
C434 C433 1.403 . S
C434 C435 1.404 . S
C434 C437 1.539 . S
C435 C431 1.408 . S
C435 C434 1.404 . S
C435 H447 0.930 . S
C436 C432 1.524 . S
C436 H448 0.956 . S
C436 H449 0.961 . S
C436 H450 0.961 . S
C437 C434 1.539 . S
C437 H451 0.958 . S
C437 H452 0.961 . S
C437 H453 0.960 . S
H438 C422 0.931 . S
H439 C427 0.929 . S
H440 C428 0.960 . S
H441 C428 0.962 . S
H442 C428 0.960 . S
H443 C429 0.961 . S
H444 C429 0.961 . S
H445 C429 0.961 . S
H446 C430 0.931 . S
H447 C435 0.930 . S
H448 C436 0.956 . S
H449 C436 0.961 . S
H450 C436 0.961 . S
H451 C437 0.958 . S
H452 C437 0.961 . S
H453 C437 0.960 . S
C454 C455 1.391 . S
C454 C456 1.394 . S
C454 H470 0.931 . S
C455 C454 1.391 . S
C455 C459 1.376 . S
C456 C454 1.394 . S
C456 C457 1.369 . S
C456 C460 1.531 . S
C457 C456 1.369 . S
C457 C458 1.410 . S
C457 C465 1.503 . S
C458 C457 1.410 . S
C458 C459 1.392 . S
C458 C461 1.511 . S
C459 C455 1.376 . S
C459 C458 1.392 . S
C459 H471 0.929 . S
C460 C456 1.531 . S
C460 H472 0.960 . S
C460 H473 0.962 . S
C460 H474 0.960 . S
C461 C458 1.511 . S
C461 H475 0.961 . S
C461 H476 0.961 . S
C461 H477 0.961 . S
C462 C463 1.370 . S
C462 C464 1.363 . S
C462 H478 0.931 . S
C463 C462 1.370 . S
C463 C467 1.408 . S
C464 C462 1.363 . S
C464 C465 1.370 . S
C464 C468 1.524 . S
C465 C457 1.503 . S
C465 C464 1.370 . S
C465 C466 1.403 . S
C466 C465 1.403 . S
C466 C467 1.404 . S
C466 C469 1.539 . S
C467 C463 1.408 . S
C467 C466 1.404 . S
C467 H479 0.930 . S
C468 C464 1.524 . S
C468 H480 0.956 . S
C468 H481 0.961 . S
C468 H482 0.961 . S
C469 C466 1.539 . S
C469 H483 0.958 . S
C469 H484 0.961 . S
C469 H485 0.960 . S
H470 C454 0.931 . S
H471 C459 0.929 . S
H472 C460 0.960 . S
H473 C460 0.962 . S
H474 C460 0.960 . S
H475 C461 0.961 . S
H476 C461 0.961 . S
H477 C461 0.961 . S
H478 C462 0.931 . S
H479 C467 0.930 . S
H480 C468 0.956 . S
H481 C468 0.961 . S
H482 C468 0.961 . S
H483 C469 0.958 . S
H484 C469 0.961 . S
H485 C469 0.960 . S
C486 C487 1.391 . S
C486 C488 1.394 . S
C486 H502 0.931 . S
C487 C486 1.391 . S
C487 C491 1.376 . S
C488 C486 1.394 . S
C488 C489 1.369 . S
C488 C492 1.531 . S
C489 C488 1.369 . S
C489 C490 1.410 . S
C489 C497 1.503 . S
C490 C489 1.410 . S
C490 C491 1.392 . S
C490 C493 1.511 . S
C491 C487 1.376 . S
C491 C490 1.392 . S
C491 H503 0.929 . S
C492 C488 1.531 . S
C492 H504 0.960 . S
C492 H505 0.962 . S
C492 H506 0.960 . S
C493 C490 1.511 . S
C493 H507 0.961 1_655 S
C493 H508 0.961 1_655 S
C493 H509 0.961 . S
C494 C495 1.370 . S
C494 C496 1.363 1_455 S
C494 H510 0.931 . S
C495 C494 1.370 . S
C495 C499 1.408 1_455 S
C496 C494 1.363 1_655 S
C496 C497 1.370 . S
C496 C500 1.524 . S
C497 C489 1.503 . S
C497 C496 1.370 . S
C497 C498 1.403 . S
C498 C497 1.403 . S
C498 C499 1.404 . S
C498 C501 1.539 . S
C499 C495 1.408 1_655 S
C499 C498 1.404 . S
C499 H511 0.930 . S
C500 C496 1.524 . S
C500 H512 0.956 . S
C500 H513 0.961 1_655 S
C500 H514 0.961 1_655 S
C501 C498 1.539 . S
C501 H515 0.958 . S
C501 H516 0.961 . S
C501 H517 0.960 . S
H502 C486 0.931 . S
H503 C491 0.929 . S
H504 C492 0.960 . S
H505 C492 0.962 . S
H506 C492 0.960 . S
H507 C493 0.961 1_455 S
H508 C493 0.961 1_455 S
H509 C493 0.961 . S
H510 C494 0.931 . S
H511 C499 0.930 . S
H512 C500 0.956 . S
H513 C500 0.961 1_455 S
H514 C500 0.961 1_455 S
H515 C501 0.958 . S
H516 C501 0.961 . S
H517 C501 0.960 . S
C518 C519 1.391 . S
C518 C520 1.394 . S
C518 H534 0.931 . S
C519 C518 1.391 . S
C519 C523 1.376 . S
C520 C518 1.394 . S
C520 C521 1.369 . S
C520 C524 1.531 . S
C521 C520 1.369 . S
C521 C522 1.410 . S
C521 C529 1.503 . S
C522 C521 1.410 . S
C522 C523 1.392 . S
C522 C525 1.511 . S
C523 C519 1.376 . S
C523 C522 1.392 . S
C523 H535 0.929 . S
C524 C520 1.531 . S
C524 H536 0.960 . S
C524 H537 0.962 . S
C524 H538 0.960 . S
C525 C522 1.511 . S
C525 H539 0.961 . S
C525 H540 0.961 . S
C525 H541 0.961 . S
C526 C527 1.370 . S
C526 C528 1.363 . S
C526 H542 0.931 . S
C527 C526 1.370 . S
C527 C531 1.408 . S
C528 C526 1.363 . S
C528 C529 1.370 . S
C528 C532 1.524 . S
C529 C521 1.503 . S
C529 C528 1.370 . S
C529 C530 1.403 . S
C530 C529 1.403 . S
C530 C531 1.404 . S
C530 C533 1.539 . S
C531 C527 1.408 . S
C531 C530 1.404 . S
C531 H543 0.930 . S
C532 C528 1.524 . S
C532 H544 0.956 . S
C532 H545 0.961 . S
C532 H546 0.961 . S
C533 C530 1.539 . S
C533 H547 0.958 . S
C533 H548 0.961 . S
C533 H549 0.960 . S
H534 C518 0.931 . S
H535 C523 0.929 . S
H536 C524 0.960 . S
H537 C524 0.962 . S
H538 C524 0.960 . S
H539 C525 0.961 . S
H540 C525 0.961 . S
H541 C525 0.961 . S
H542 C526 0.931 . S
H543 C531 0.930 . S
H544 C532 0.956 . S
H545 C532 0.961 . S
H546 C532 0.961 . S
H547 C533 0.958 . S
H548 C533 0.961 . S
H549 C533 0.960 . S
C550 C551 1.391 . S
C550 C552 1.394 . S
C550 H566 0.931 . S
C551 C550 1.391 . S
C551 C555 1.376 . S
C552 C550 1.394 . S
C552 C553 1.369 . S
C552 C556 1.531 . S
C553 C552 1.369 . S
C553 C554 1.410 . S
C553 C561 1.503 . S
C554 C553 1.410 . S
C554 C555 1.392 . S
C554 C557 1.511 . S
C555 C551 1.376 . S
C555 C554 1.392 . S
C555 H567 0.929 . S
C556 C552 1.531 . S
C556 H568 0.960 . S
C556 H569 0.962 . S
C556 H570 0.960 . S
C557 C554 1.511 . S
C557 H571 0.961 . S
C557 H572 0.961 . S
C557 H573 0.961 . S
C558 C559 1.370 . S
C558 C560 1.363 . S
C558 H574 0.931 . S
C559 C558 1.370 . S
C559 C563 1.408 . S
C560 C558 1.363 . S
C560 C561 1.370 . S
C560 C564 1.524 . S
C561 C553 1.503 . S
C561 C560 1.370 . S
C561 C562 1.403 . S
C562 C561 1.403 . S
C562 C563 1.404 . S
C562 C565 1.539 . S
C563 C559 1.408 . S
C563 C562 1.404 . S
C563 H575 0.930 . S
C564 C560 1.524 . S
C564 H576 0.956 . S
C564 H577 0.961 . S
C564 H578 0.961 . S
C565 C562 1.539 . S
C565 H579 0.958 . S
C565 H580 0.961 . S
C565 H581 0.960 . S
H566 C550 0.931 . S
H567 C555 0.929 . S
H568 C556 0.960 . S
H569 C556 0.962 . S
H570 C556 0.960 . S
H571 C557 0.961 . S
H572 C557 0.961 . S
H573 C557 0.961 . S
H574 C558 0.931 . S
H575 C563 0.930 . S
H576 C564 0.956 . S
H577 C564 0.961 . S
H578 C564 0.961 . S
H579 C565 0.958 . S
H580 C565 0.961 . S
H581 C565 0.960 . S
C582 C583 1.391 . S
C582 C584 1.394 . S
C582 H598 0.931 . S
C583 C582 1.391 . S
C583 C587 1.376 . S
C584 C582 1.394 . S
C584 C585 1.369 . S
C584 C588 1.531 . S
C585 C584 1.369 . S
C585 C586 1.410 . S
C585 C593 1.503 . S
C586 C585 1.410 . S
C586 C587 1.392 . S
C586 C589 1.511 . S
C587 C583 1.376 . S
C587 C586 1.392 . S
C587 H599 0.929 . S
C588 C584 1.531 . S
C588 H600 0.960 . S
C588 H601 0.962 . S
C588 H602 0.960 . S
C589 C586 1.511 . S
C589 H603 0.961 . S
C589 H604 0.961 . S
C589 H605 0.961 . S
C590 C591 1.370 . S
C590 C592 1.363 . S
C590 H606 0.931 . S
C591 C590 1.370 . S
C591 C595 1.408 . S
C592 C590 1.363 . S
C592 C593 1.370 . S
C592 C596 1.524 . S
C593 C585 1.503 . S
C593 C592 1.370 . S
C593 C594 1.403 . S
C594 C593 1.403 . S
C594 C595 1.404 . S
C594 C597 1.539 . S
C595 C591 1.408 . S
C595 C594 1.404 . S
C595 H607 0.930 . S
C596 C592 1.524 . S
C596 H608 0.956 . S
C596 H609 0.961 . S
C596 H610 0.961 . S
C597 C594 1.539 . S
C597 H611 0.958 . S
C597 H612 0.961 . S
C597 H613 0.960 . S
H598 C582 0.931 . S
H599 C587 0.929 . S
H600 C588 0.960 . S
H601 C588 0.962 . S
H602 C588 0.960 . S
H603 C589 0.961 . S
H604 C589 0.961 . S
H605 C589 0.961 . S
H606 C590 0.931 . S
H607 C595 0.930 . S
H608 C596 0.956 . S
H609 C596 0.961 . S
H610 C596 0.961 . S
H611 C597 0.958 . S
H612 C597 0.961 . S
H613 C597 0.960 . S
C614 C615 1.391 . S
C614 C616 1.394 . S
C614 H630 0.931 . S
C615 C614 1.391 . S
C615 C619 1.376 . S
C616 C614 1.394 . S
C616 C617 1.369 . S
C616 C620 1.531 . S
C617 C616 1.369 . S
C617 C618 1.410 . S
C617 C625 1.503 . S
C618 C617 1.410 . S
C618 C619 1.392 . S
C618 C621 1.511 . S
C619 C615 1.376 . S
C619 C618 1.392 . S
C619 H631 0.929 . S
C620 C616 1.531 . S
C620 H632 0.960 . S
C620 H633 0.962 . S
C620 H634 0.960 . S
C621 C618 1.511 . S
C621 H635 0.961 . S
C621 H636 0.961 . S
C621 H637 0.961 . S
C622 C623 1.370 . S
C622 C624 1.363 . S
C622 H638 0.931 . S
C623 C622 1.370 . S
C623 C627 1.408 . S
C624 C622 1.363 . S
C624 C625 1.370 . S
C624 C628 1.524 . S
C625 C617 1.503 . S
C625 C624 1.370 . S
C625 C626 1.403 . S
C626 C625 1.403 . S
C626 C627 1.404 . S
C626 C629 1.539 . S
C627 C623 1.408 . S
C627 C626 1.404 . S
C627 H639 0.930 1_655 S
C628 C624 1.524 . S
C628 H640 0.956 . S
C628 H641 0.961 . S
C628 H642 0.961 . S
C629 C626 1.539 . S
C629 H643 0.958 . S
C629 H644 0.961 1_655 S
C629 H645 0.960 . S
H630 C614 0.931 . S
H631 C619 0.929 . S
H632 C620 0.960 . S
H633 C620 0.962 . S
H634 C620 0.960 . S
H635 C621 0.961 . S
H636 C621 0.961 . S
H637 C621 0.961 . S
H638 C622 0.931 . S
H639 C627 0.930 1_455 S
H640 C628 0.956 . S
H641 C628 0.961 . S
H642 C628 0.961 . S
H643 C629 0.958 . S
H644 C629 0.961 1_455 S
H645 C629 0.960 . S
C646 C647 1.391 . S
C646 C648 1.394 . S
C646 H662 0.931 . S
C647 C646 1.391 . S
C647 C651 1.376 . S
C648 C646 1.394 . S
C648 C649 1.369 . S
C648 C652 1.531 . S
C649 C648 1.369 . S
C649 C650 1.410 . S
C649 C657 1.503 . S
C650 C649 1.410 . S
C650 C651 1.392 . S
C650 C653 1.511 . S
C651 C647 1.376 . S
C651 C650 1.392 . S
C651 H663 0.929 . S
C652 C648 1.531 . S
C652 H664 0.960 . S
C652 H665 0.962 . S
C652 H666 0.960 . S
C653 C650 1.511 . S
C653 H667 0.961 . S
C653 H668 0.961 . S
C653 H669 0.961 . S
C654 C655 1.370 . S
C654 C656 1.363 . S
C654 H670 0.931 . S
C655 C654 1.370 . S
C655 C659 1.408 . S
C656 C654 1.363 . S
C656 C657 1.370 . S
C656 C660 1.524 . S
C657 C649 1.503 . S
C657 C656 1.370 . S
C657 C658 1.403 . S
C658 C657 1.403 . S
C658 C659 1.404 . S
C658 C661 1.539 . S
C659 C655 1.408 . S
C659 C658 1.404 . S
C659 H671 0.930 . S
C660 C656 1.524 . S
C660 H672 0.956 . S
C660 H673 0.961 . S
C660 H674 0.961 . S
C661 C658 1.539 . S
C661 H675 0.958 . S
C661 H676 0.961 . S
C661 H677 0.960 . S
H662 C646 0.931 . S
H663 C651 0.929 . S
H664 C652 0.960 . S
H665 C652 0.962 . S
H666 C652 0.960 . S
H667 C653 0.961 . S
H668 C653 0.961 . S
H669 C653 0.961 . S
H670 C654 0.931 . S
H671 C659 0.930 . S
H672 C660 0.956 . S
H673 C660 0.961 . S
H674 C660 0.961 . S
H675 C661 0.958 . S
H676 C661 0.961 . S
H677 C661 0.960 . S
C678 C679 1.391 . S
C678 C680 1.394 . S
C678 H694 0.931 . S
C679 C678 1.391 . S
C679 C683 1.376 . S
C680 C678 1.394 . S
C680 C681 1.369 . S
C680 C684 1.531 . S
C681 C680 1.369 . S
C681 C682 1.410 . S
C681 C689 1.503 . S
C682 C681 1.410 . S
C682 C683 1.392 . S
C682 C685 1.511 . S
C683 C679 1.376 . S
C683 C682 1.392 . S
C683 H695 0.929 . S
C684 C680 1.531 . S
C684 H696 0.960 . S
C684 H697 0.962 . S
C684 H698 0.960 . S
C685 C682 1.511 . S
C685 H699 0.961 . S
C685 H700 0.961 . S
C685 H701 0.961 . S
C686 C687 1.370 . S
C686 C688 1.363 . S
C686 H702 0.931 . S
C687 C686 1.370 . S
C687 C691 1.408 . S
C688 C686 1.363 . S
C688 C689 1.370 . S
C688 C692 1.524 . S
C689 C681 1.503 . S
C689 C688 1.370 . S
C689 C690 1.403 . S
C690 C689 1.403 . S
C690 C691 1.404 . S
C690 C693 1.539 . S
C691 C687 1.408 . S
C691 C690 1.404 . S
C691 H703 0.930 . S
C692 C688 1.524 . S
C692 H704 0.956 . S
C692 H705 0.961 . S
C692 H706 0.961 . S
C693 C690 1.539 . S
C693 H707 0.958 . S
C693 H708 0.961 . S
C693 H709 0.960 . S
H694 C678 0.931 . S
H695 C683 0.929 . S
H696 C684 0.960 . S
H697 C684 0.962 . S
H698 C684 0.960 . S
H699 C685 0.961 . S
H700 C685 0.961 . S
H701 C685 0.961 . S
H702 C686 0.931 . S
H703 C691 0.930 . S
H704 C692 0.956 . S
H705 C692 0.961 . S
H706 C692 0.961 . S
H707 C693 0.958 . S
H708 C693 0.961 . S
H709 C693 0.960 . S
C710 C711 1.391 . S
C710 C712 1.394 . S
C710 H726 0.931 . S
C711 C710 1.391 . S
C711 C715 1.376 . S
C712 C710 1.394 . S
C712 C713 1.369 . S
C712 C716 1.531 . S
C713 C712 1.369 . S
C713 C714 1.410 . S
C713 C721 1.503 . S
C714 C713 1.410 . S
C714 C715 1.392 . S
C714 C717 1.511 . S
C715 C711 1.376 . S
C715 C714 1.392 . S
C715 H727 0.929 . S
C716 C712 1.531 . S
C716 H728 0.960 . S
C716 H729 0.962 . S
C716 H730 0.960 . S
C717 C714 1.511 . S
C717 H731 0.961 . S
C717 H732 0.961 . S
C717 H733 0.961 . S
C718 C719 1.370 . S
C718 C720 1.363 . S
C718 H734 0.931 . S
C719 C718 1.370 . S
C719 C723 1.408 . S
C720 C718 1.363 . S
C720 C721 1.370 . S
C720 C724 1.524 . S
C721 C713 1.503 . S
C721 C720 1.370 . S
C721 C722 1.403 . S
C722 C721 1.403 . S
C722 C723 1.404 . S
C722 C725 1.539 . S
C723 C719 1.408 . S
C723 C722 1.404 . S
C723 H735 0.930 . S
C724 C720 1.524 . S
C724 H736 0.956 . S
C724 H737 0.961 . S
C724 H738 0.961 . S
C725 C722 1.539 . S
C725 H739 0.958 . S
C725 H740 0.961 . S
C725 H741 0.960 . S
H726 C710 0.931 . S
H727 C715 0.929 . S
H728 C716 0.960 . S
H729 C716 0.962 . S
H730 C716 0.960 . S
H731 C717 0.961 . S
H732 C717 0.961 . S
H733 C717 0.961 . S
H734 C718 0.931 . S
H735 C723 0.930 . S
H736 C724 0.956 . S
H737 C724 0.961 . S
H738 C724 0.961 . S
H739 C725 0.958 . S
H740 C725 0.961 . S
H741 C725 0.960 . S
C742 C743 1.391 . S
C742 C744 1.394 . S
C742 H758 0.931 . S
C743 C742 1.391 . S
C743 C747 1.376 . S
C744 C742 1.394 . S
C744 C745 1.369 . S
C744 C748 1.531 . S
C745 C744 1.369 . S
C745 C746 1.410 . S
C745 C753 1.503 . S
C746 C745 1.410 . S
C746 C747 1.392 . S
C746 C749 1.511 . S
C747 C743 1.376 . S
C747 C746 1.392 . S
C747 H759 0.929 . S
C748 C744 1.531 . S
C748 H760 0.960 . S
C748 H761 0.962 . S
C748 H762 0.960 . S
C749 C746 1.511 . S
C749 H763 0.961 . S
C749 H764 0.961 . S
C749 H765 0.961 . S
C750 C751 1.370 . S
C750 C752 1.363 . S
C750 H766 0.931 . S
C751 C750 1.370 . S
C751 C755 1.408 . S
C752 C750 1.363 . S
C752 C753 1.370 . S
C752 C756 1.524 . S
C753 C745 1.503 . S
C753 C752 1.370 . S
C753 C754 1.403 . S
C754 C753 1.403 . S
C754 C755 1.404 . S
C754 C757 1.539 . S
C755 C751 1.408 . S
C755 C754 1.404 . S
C755 H767 0.930 . S
C756 C752 1.524 . S
C756 H768 0.956 . S
C756 H769 0.961 . S
C756 H770 0.961 . S
C757 C754 1.539 . S
C757 H771 0.958 . S
C757 H772 0.961 . S
C757 H773 0.960 . S
H758 C742 0.931 . S
H759 C747 0.929 . S
H760 C748 0.960 . S
H761 C748 0.962 . S
H762 C748 0.960 . S
H763 C749 0.961 . S
H764 C749 0.961 . S
H765 C749 0.961 . S
H766 C750 0.931 . S
H767 C755 0.930 . S
H768 C756 0.956 . S
H769 C756 0.961 . S
H770 C756 0.961 . S
H771 C757 0.958 . S
H772 C757 0.961 . S
H773 C757 0.960 . S
C774 C775 1.391 . S
C774 C776 1.394 . S
C774 H790 0.931 . S
C775 C774 1.391 . S
C775 C779 1.376 . S
C776 C774 1.394 . S
C776 C777 1.369 . S
C776 C780 1.531 . S
C777 C776 1.369 . S
C777 C778 1.410 . S
C777 C785 1.503 . S
C778 C777 1.410 . S
C778 C779 1.392 . S
C778 C781 1.511 . S
C779 C775 1.376 . S
C779 C778 1.392 . S
C779 H791 0.929 . S
C780 C776 1.531 . S
C780 H792 0.960 . S
C780 H793 0.962 . S
C780 H794 0.960 . S
C781 C778 1.511 . S
C781 H795 0.961 . S
C781 H796 0.961 . S
C781 H797 0.961 . S
C782 C783 1.370 . S
C782 C784 1.363 . S
C782 H798 0.931 . S
C783 C782 1.370 . S
C783 C787 1.408 . S
C784 C782 1.363 . S
C784 C785 1.370 . S
C784 C788 1.524 . S
C785 C777 1.503 . S
C785 C784 1.370 . S
C785 C786 1.403 . S
C786 C785 1.403 . S
C786 C787 1.404 . S
C786 C789 1.539 . S
C787 C783 1.408 . S
C787 C786 1.404 . S
C787 H799 0.930 . S
C788 C784 1.524 . S
C788 H800 0.956 . S
C788 H801 0.961 . S
C788 H802 0.961 . S
C789 C786 1.539 . S
C789 H803 0.958 . S
C789 H804 0.961 . S
C789 H805 0.960 . S
H790 C774 0.931 . S
H791 C779 0.929 . S
H792 C780 0.960 . S
H793 C780 0.962 . S
H794 C780 0.960 . S
H795 C781 0.961 . S
H796 C781 0.961 . S
H797 C781 0.961 . S
H798 C782 0.931 . S
H799 C787 0.930 . S
H800 C788 0.956 . S
H801 C788 0.961 . S
H802 C788 0.961 . S
H803 C789 0.958 . S
H804 C789 0.961 . S
H805 C789 0.960 . S
C806 C807 1.391 . S
C806 C808 1.394 . S
C806 H822 0.931 . S
C807 C806 1.391 . S
C807 C811 1.376 . S
C808 C806 1.394 . S
C808 C809 1.369 . S
C808 C812 1.531 . S
C809 C808 1.369 . S
C809 C810 1.410 . S
C809 C817 1.503 . S
C810 C809 1.410 . S
C810 C811 1.392 . S
C810 C813 1.511 . S
C811 C807 1.376 . S
C811 C810 1.392 . S
C811 H823 0.929 . S
C812 C808 1.531 . S
C812 H824 0.960 . S
C812 H825 0.962 . S
C812 H826 0.960 . S
C813 C810 1.511 . S
C813 H827 0.961 . S
C813 H828 0.961 . S
C813 H829 0.961 . S
C814 C815 1.370 . S
C814 C816 1.363 . S
C814 H830 0.931 . S
C815 C814 1.370 . S
C815 C819 1.408 . S
C816 C814 1.363 . S
C816 C817 1.370 . S
C816 C820 1.524 . S
C817 C809 1.503 . S
C817 C816 1.370 . S
C817 C818 1.403 . S
C818 C817 1.403 . S
C818 C819 1.404 . S
C818 C821 1.539 . S
C819 C815 1.408 . S
C819 C818 1.404 . S
C819 H831 0.930 . S
C820 C816 1.524 . S
C820 H832 0.956 . S
C820 H833 0.961 . S
C820 H834 0.961 . S
C821 C818 1.539 . S
C821 H835 0.958 . S
C821 H836 0.961 . S
C821 H837 0.960 . S
H822 C806 0.931 . S
H823 C811 0.929 . S
H824 C812 0.960 . S
H825 C812 0.962 . S
H826 C812 0.960 . S
H827 C813 0.961 . S
H828 C813 0.961 . S
H829 C813 0.961 . S
H830 C814 0.931 . S
H831 C819 0.930 . S
H832 C820 0.956 . S
H833 C820 0.961 . S
H834 C820 0.961 . S
H835 C821 0.958 . S
H836 C821 0.961 . S
H837 C821 0.960 . S
C838 C839 1.391 . S
C838 C840 1.394 . S
C838 H854 0.931 . S
C839 C838 1.391 . S
C839 C843 1.376 . S
C840 C838 1.394 . S
C840 C841 1.369 . S
C840 C844 1.531 . S
C841 C840 1.369 . S
C841 C842 1.410 . S
C841 C849 1.503 . S
C842 C841 1.410 . S
C842 C843 1.392 . S
C842 C845 1.511 . S
C843 C839 1.376 . S
C843 C842 1.392 . S
C843 H855 0.929 . S
C844 C840 1.531 . S
C844 H856 0.960 . S
C844 H857 0.962 . S
C844 H858 0.960 . S
C845 C842 1.511 . S
C845 H859 0.961 . S
C845 H860 0.961 . S
C845 H861 0.961 . S
C846 C847 1.370 . S
C846 C848 1.363 . S
C846 H862 0.931 . S
C847 C846 1.370 . S
C847 C851 1.408 . S
C848 C846 1.363 . S
C848 C849 1.370 . S
C848 C852 1.524 . S
C849 C841 1.503 . S
C849 C848 1.370 . S
C849 C850 1.403 . S
C850 C849 1.403 . S
C850 C851 1.404 . S
C850 C853 1.539 . S
C851 C847 1.408 . S
C851 C850 1.404 . S
C851 H863 0.930 1_655 S
C852 C848 1.524 . S
C852 H864 0.956 . S
C852 H865 0.961 . S
C852 H866 0.961 . S
C853 C850 1.539 . S
C853 H867 0.958 . S
C853 H868 0.961 1_655 S
C853 H869 0.960 . S
H854 C838 0.931 . S
H855 C843 0.929 . S
H856 C844 0.960 . S
H857 C844 0.962 . S
H858 C844 0.960 . S
H859 C845 0.961 . S
H860 C845 0.961 . S
H861 C845 0.961 . S
H862 C846 0.931 . S
H863 C851 0.930 1_455 S
H864 C852 0.956 . S
H865 C852 0.961 . S
H866 C852 0.961 . S
H867 C853 0.958 . S
H868 C853 0.961 1_455 S
H869 C853 0.960 . S
C870 C871 1.391 . S
C870 C872 1.394 . S
C870 H886 0.931 . S
C871 C870 1.391 . S
C871 C875 1.376 . S
C872 C870 1.394 . S
C872 C873 1.369 . S
C872 C876 1.531 . S
C873 C872 1.369 . S
C873 C874 1.410 . S
C873 C881 1.503 . S
C874 C873 1.410 . S
C874 C875 1.392 . S
C874 C877 1.511 . S
C875 C871 1.376 . S
C875 C874 1.392 . S
C875 H887 0.929 . S
C876 C872 1.531 . S
C876 H888 0.960 . S
C876 H889 0.962 . S
C876 H890 0.960 . S
C877 C874 1.511 . S
C877 H891 0.961 . S
C877 H892 0.961 . S
C877 H893 0.961 . S
C878 C879 1.370 . S
C878 C880 1.363 . S
C878 H894 0.931 . S
C879 C878 1.370 . S
C879 C883 1.408 . S
C880 C878 1.363 . S
C880 C881 1.370 . S
C880 C884 1.524 . S
C881 C873 1.503 . S
C881 C880 1.370 . S
C881 C882 1.403 . S
C882 C881 1.403 . S
C882 C883 1.404 . S
C882 C885 1.539 . S
C883 C879 1.408 . S
C883 C882 1.404 . S
C883 H895 0.930 . S
C884 C880 1.524 . S
C884 H896 0.956 . S
C884 H897 0.961 . S
C884 H898 0.961 . S
C885 C882 1.539 . S
C885 H899 0.958 . S
C885 H900 0.961 . S
C885 H901 0.960 . S
H886 C870 0.931 . S
H887 C875 0.929 . S
H888 C876 0.960 . S
H889 C876 0.962 . S
H890 C876 0.960 . S
H891 C877 0.961 . S
H892 C877 0.961 . S
H893 C877 0.961 . S
H894 C878 0.931 . S
H895 C883 0.930 . S
H896 C884 0.956 . S
H897 C884 0.961 . S
H898 C884 0.961 . S
H899 C885 0.958 . S
H900 C885 0.961 . S
H901 C885 0.960 . S
C902 C903 1.391 . S
C902 C904 1.394 . S
C902 H918 0.931 . S
C903 C902 1.391 . S
C903 C907 1.376 . S
C904 C902 1.394 . S
C904 C905 1.369 . S
C904 C908 1.531 . S
C905 C904 1.369 . S
C905 C906 1.410 . S
C905 C913 1.503 . S
C906 C905 1.410 . S
C906 C907 1.392 . S
C906 C909 1.511 . S
C907 C903 1.376 . S
C907 C906 1.392 . S
C907 H919 0.929 . S
C908 C904 1.531 . S
C908 H920 0.960 . S
C908 H921 0.962 . S
C908 H922 0.960 . S
C909 C906 1.511 . S
C909 H923 0.961 . S
C909 H924 0.961 . S
C909 H925 0.961 . S
C910 C911 1.370 . S
C910 C912 1.363 . S
C910 H926 0.931 . S
C911 C910 1.370 . S
C911 C915 1.408 . S
C912 C910 1.363 . S
C912 C913 1.370 . S
C912 C916 1.524 . S
C913 C905 1.503 . S
C913 C912 1.370 . S
C913 C914 1.403 . S
C914 C913 1.403 . S
C914 C915 1.404 . S
C914 C917 1.539 . S
C915 C911 1.408 . S
C915 C914 1.404 . S
C915 H927 0.930 . S
C916 C912 1.524 . S
C916 H928 0.956 . S
C916 H929 0.961 . S
C916 H930 0.961 . S
C917 C914 1.539 . S
C917 H931 0.958 . S
C917 H932 0.961 . S
C917 H933 0.960 . S
H918 C902 0.931 . S
H919 C907 0.929 . S
H920 C908 0.960 . S
H921 C908 0.962 . S
H922 C908 0.960 . S
H923 C909 0.961 . S
H924 C909 0.961 . S
H925 C909 0.961 . S
H926 C910 0.931 . S
H927 C915 0.930 . S
H928 C916 0.956 . S
H929 C916 0.961 . S
H930 C916 0.961 . S
H931 C917 0.958 . S
H932 C917 0.961 . S
H933 C917 0.960 . S
C934 C935 1.391 . S
C934 C936 1.394 . S
C934 H950 0.931 . S
C935 C934 1.391 . S
C935 C939 1.376 . S
C936 C934 1.394 . S
C936 C937 1.369 . S
C936 C940 1.531 . S
C937 C936 1.369 . S
C937 C938 1.410 . S
C937 C945 1.503 . S
C938 C937 1.410 . S
C938 C939 1.392 . S
C938 C941 1.511 . S
C939 C935 1.376 . S
C939 C938 1.392 . S
C939 H951 0.929 . S
C940 C936 1.531 . S
C940 H952 0.960 . S
C940 H953 0.962 . S
C940 H954 0.960 . S
C941 C938 1.511 . S
C941 H955 0.961 . S
C941 H956 0.961 . S
C941 H957 0.961 . S
C942 C943 1.370 . S
C942 C944 1.363 . S
C942 H958 0.931 . S
C943 C942 1.370 . S
C943 C947 1.408 . S
C944 C942 1.363 . S
C944 C945 1.370 . S
C944 C948 1.524 . S
C945 C937 1.503 . S
C945 C944 1.370 . S
C945 C946 1.403 . S
C946 C945 1.403 . S
C946 C947 1.404 . S
C946 C949 1.539 . S
C947 C943 1.408 . S
C947 C946 1.404 . S
C947 H959 0.930 . S
C948 C944 1.524 . S
C948 H960 0.956 . S
C948 H961 0.961 . S
C948 H962 0.961 . S
C949 C946 1.539 . S
C949 H963 0.958 . S
C949 H964 0.961 . S
C949 H965 0.960 . S
H950 C934 0.931 . S
H951 C939 0.929 . S
H952 C940 0.960 . S
H953 C940 0.962 . S
H954 C940 0.960 . S
H955 C941 0.961 . S
H956 C941 0.961 . S
H957 C941 0.961 . S
H958 C942 0.931 . S
H959 C947 0.930 . S
H960 C948 0.956 . S
H961 C948 0.961 . S
H962 C948 0.961 . S
H963 C949 0.958 . S
H964 C949 0.961 . S
H965 C949 0.960 . S
C966 C967 1.391 . S
C966 C968 1.394 . S
C966 H982 0.931 . S
C967 C966 1.391 . S
C967 C971 1.376 . S
C968 C966 1.394 . S
C968 C969 1.369 . S
C968 C972 1.531 . S
C969 C968 1.369 . S
C969 C970 1.410 . S
C969 C977 1.503 . S
C970 C969 1.410 . S
C970 C971 1.392 . S
C970 C973 1.511 . S
C971 C967 1.376 . S
C971 C970 1.392 . S
C971 H983 0.929 . S
C972 C968 1.531 . S
C972 H984 0.960 . S
C972 H985 0.962 . S
C972 H986 0.960 . S
C973 C970 1.511 . S
C973 H987 0.961 . S
C973 H988 0.961 . S
C973 H989 0.961 . S
C974 C975 1.370 . S
C974 C976 1.363 . S
C974 H990 0.931 . S
C975 C974 1.370 . S
C975 C979 1.408 . S
C976 C974 1.363 . S
C976 C977 1.370 . S
C976 C980 1.524 . S
C977 C969 1.503 . S
C977 C976 1.370 . S
C977 C978 1.403 . S
C978 C977 1.403 . S
C978 C979 1.404 . S
C978 C981 1.539 . S
C979 C975 1.408 . S
C979 C978 1.404 . S
C979 H991 0.930 . S
C980 C976 1.524 . S
C980 H992 0.956 . S
C980 H993 0.961 . S
C980 H994 0.961 . S
C981 C978 1.539 . S
C981 H995 0.958 . S
C981 H996 0.961 . S
C981 H997 0.960 . S
H982 C966 0.931 . S
H983 C971 0.929 . S
H984 C972 0.960 . S
H985 C972 0.962 . S
H986 C972 0.960 . S
H987 C973 0.961 . S
H988 C973 0.961 . S
H989 C973 0.961 . S
H990 C974 0.931 . S
H991 C979 0.930 . S
H992 C980 0.956 . S
H993 C980 0.961 . S
H994 C980 0.961 . S
H995 C981 0.958 . S
H996 C981 0.961 . S
H997 C981 0.960 . S
C998 C999 1.391 . S
C998 C1000 1.394 . S
C998 H1014 0.931 . S
C999 C998 1.391 . S
C999 C1003 1.376 . S
C1000 C998 1.394 . S
C1000 C1001 1.369 . S
C1000 C1004 1.531 . S
C1001 C1000 1.369 . S
C1001 C1002 1.410 . S
C1001 C1009 1.503 . S
C1002 C1001 1.410 . S
C1002 C1003 1.392 . S
C1002 C1005 1.511 . S
C1003 C999 1.376 . S
C1003 C1002 1.392 . S
C1003 H1015 0.929 . S
C1004 C1000 1.531 . S
C1004 H1016 0.960 . S
C1004 H1017 0.962 . S
C1004 H1018 0.960 . S
C1005 C1002 1.511 . S
C1005 H1019 0.961 . S
C1005 H1020 0.961 . S
C1005 H1021 0.961 . S
C1006 C1007 1.370 . S
C1006 C1008 1.363 . S
C1006 H1022 0.931 . S
C1007 C1006 1.370 . S
C1007 C1011 1.408 . S
C1008 C1006 1.363 . S
C1008 C1009 1.370 . S
C1008 C1012 1.524 . S
C1009 C1001 1.503 . S
C1009 C1008 1.370 . S
C1009 C1010 1.403 . S
C1010 C1009 1.403 . S
C1010 C1011 1.404 . S
C1010 C1013 1.539 . S
C1011 C1007 1.408 . S
C1011 C1010 1.404 . S
C1011 H1023 0.930 . S
C1012 C1008 1.524 . S
C1012 H1024 0.956 . S
C1012 H1025 0.961 . S
C1012 H1026 0.961 . S
C1013 C1010 1.539 . S
C1013 H1027 0.958 . S
C1013 H1028 0.961 . S
C1013 H1029 0.960 . S
H1014 C998 0.931 . S
H1015 C1003 0.929 . S
H1016 C1004 0.960 . S
H1017 C1004 0.962 . S
H1018 C1004 0.960 . S
H1019 C1005 0.961 . S
H1020 C1005 0.961 . S
H1021 C1005 0.961 . S
H1022 C1006 0.931 . S
H1023 C1011 0.930 . S
H1024 C1012 0.956 . S
H1025 C1012 0.961 . S
H1026 C1012 0.961 . S
H1027 C1013 0.958 . S
H1028 C1013 0.961 . S
H1029 C1013 0.960 . S
C1030 C1031 1.391 . S
C1030 C1032 1.394 . S
C1030 H1046 0.931 . S
C1031 C1030 1.391 . S
C1031 C1035 1.376 . S
C1032 C1030 1.394 . S
C1032 C1033 1.369 . S
C1032 C1036 1.531 . S
C1033 C1032 1.369 . S
C1033 C1034 1.410 . S
C1033 C1041 1.503 . S
C1034 C1033 1.410 . S
C1034 C1035 1.392 . S
C1034 C1037 1.511 . S
C1035 C1031 1.376 . S
C1035 C1034 1.392 . S
C1035 H1047 0.929 . S
C1036 C1032 1.531 . S
C1036 H1048 0.960 . S
C1036 H1049 0.962 . S
C1036 H1050 0.960 . S
C1037 C1034 1.511 . S
C1037 H1051 0.961 . S
C1037 H1052 0.961 . S
C1037 H1053 0.961 . S
C1038 C1039 1.370 . S
C1038 C1040 1.363 . S
C1038 H1054 0.931 . S
C1039 C1038 1.370 . S
C1039 C1043 1.408 . S
C1040 C1038 1.363 . S
C1040 C1041 1.370 . S
C1040 C1044 1.524 . S
C1041 C1033 1.503 . S
C1041 C1040 1.370 . S
C1041 C1042 1.403 . S
C1042 C1041 1.403 . S
C1042 C1043 1.404 . S
C1042 C1045 1.539 . S
C1043 C1039 1.408 . S
C1043 C1042 1.404 . S
C1043 H1055 0.930 . S
C1044 C1040 1.524 . S
C1044 H1056 0.956 . S
C1044 H1057 0.961 . S
C1044 H1058 0.961 . S
C1045 C1042 1.539 . S
C1045 H1059 0.958 . S
C1045 H1060 0.961 . S
C1045 H1061 0.960 . S
H1046 C1030 0.931 . S
H1047 C1035 0.929 . S
H1048 C1036 0.960 . S
H1049 C1036 0.962 . S
H1050 C1036 0.960 . S
H1051 C1037 0.961 . S
H1052 C1037 0.961 . S
H1053 C1037 0.961 . S
H1054 C1038 0.931 . S
H1055 C1043 0.930 . S
H1056 C1044 0.956 . S
H1057 C1044 0.961 . S
H1058 C1044 0.961 . S
H1059 C1045 0.958 . S
H1060 C1045 0.961 . S
H1061 C1045 0.960 . S
C1062 C1063 1.391 . S
C1062 C1064 1.394 . S
C1062 H1078 0.931 . S
C1063 C1062 1.391 . S
C1063 C1067 1.376 . S
C1064 C1062 1.394 . S
C1064 C1065 1.369 . S
C1064 C1068 1.531 . S
C1065 C1064 1.369 . S
C1065 C1066 1.410 . S
C1065 C1073 1.503 . S
C1066 C1065 1.410 . S
C1066 C1067 1.392 . S
C1066 C1069 1.511 . S
C1067 C1063 1.376 . S
C1067 C1066 1.392 . S
C1067 H1079 0.929 . S
C1068 C1064 1.531 . S
C1068 H1080 0.960 . S
C1068 H1081 0.962 . S
C1068 H1082 0.960 . S
C1069 C1066 1.511 . S
C1069 H1083 0.961 . S
C1069 H1084 0.961 . S
C1069 H1085 0.961 . S
C1070 C1071 1.370 . S
C1070 C1072 1.363 . S
C1070 H1086 0.931 . S
C1071 C1070 1.370 . S
C1071 C1075 1.408 . S
C1072 C1070 1.363 . S
C1072 C1073 1.370 . S
C1072 C1076 1.524 . S
C1073 C1065 1.503 . S
C1073 C1072 1.370 . S
C1073 C1074 1.403 . S
C1074 C1073 1.403 . S
C1074 C1075 1.404 . S
C1074 C1077 1.539 . S
C1075 C1071 1.408 . S
C1075 C1074 1.404 . S
C1075 H1087 0.930 . S
C1076 C1072 1.524 . S
C1076 H1088 0.956 . S
C1076 H1089 0.961 . S
C1076 H1090 0.961 . S
C1077 C1074 1.539 . S
C1077 H1091 0.958 . S
C1077 H1092 0.961 . S
C1077 H1093 0.960 . S
H1078 C1062 0.931 . S
H1079 C1067 0.929 . S
H1080 C1068 0.960 . S
H1081 C1068 0.962 . S
H1082 C1068 0.960 . S
H1083 C1069 0.961 . S
H1084 C1069 0.961 . S
H1085 C1069 0.961 . S
H1086 C1070 0.931 . S
H1087 C1075 0.930 . S
H1088 C1076 0.956 . S
H1089 C1076 0.961 . S
H1090 C1076 0.961 . S
H1091 C1077 0.958 . S
H1092 C1077 0.961 . S
H1093 C1077 0.960 . S
C1094 C1095 1.391 . S
C1094 C1096 1.394 . S
C1094 H1110 0.931 . S
C1095 C1094 1.391 . S
C1095 C1099 1.376 . S
C1096 C1094 1.394 . S
C1096 C1097 1.369 . S
C1096 C1100 1.531 . S
C1097 C1096 1.369 . S
C1097 C1098 1.410 . S
C1097 C1105 1.503 . S
C1098 C1097 1.410 . S
C1098 C1099 1.392 . S
C1098 C1101 1.511 . S
C1099 C1095 1.376 . S
C1099 C1098 1.392 . S
C1099 H1111 0.929 . S
C1100 C1096 1.531 . S
C1100 H1112 0.960 . S
C1100 H1113 0.962 . S
C1100 H1114 0.960 . S
C1101 C1098 1.511 . S
C1101 H1115 0.961 . S
C1101 H1116 0.961 . S
C1101 H1117 0.961 . S
C1102 C1103 1.370 . S
C1102 C1104 1.363 . S
C1102 H1118 0.931 . S
C1103 C1102 1.370 . S
C1103 C1107 1.408 . S
C1104 C1102 1.363 . S
C1104 C1105 1.370 . S
C1104 C1108 1.524 . S
C1105 C1097 1.503 . S
C1105 C1104 1.370 . S
C1105 C1106 1.403 . S
C1106 C1105 1.403 . S
C1106 C1107 1.404 . S
C1106 C1109 1.539 . S
C1107 C1103 1.408 . S
C1107 C1106 1.404 . S
C1107 H1119 0.930 . S
C1108 C1104 1.524 . S
C1108 H1120 0.956 . S
C1108 H1121 0.961 . S
C1108 H1122 0.961 . S
C1109 C1106 1.539 . S
C1109 H1123 0.958 . S
C1109 H1124 0.961 . S
C1109 H1125 0.960 . S
H1110 C1094 0.931 . S
H1111 C1099 0.929 . S
H1112 C1100 0.960 . S
H1113 C1100 0.962 . S
H1114 C1100 0.960 . S
H1115 C1101 0.961 . S
H1116 C1101 0.961 . S
H1117 C1101 0.961 . S
H1118 C1102 0.931 . S
H1119 C1107 0.930 . S
H1120 C1108 0.956 . S
H1121 C1108 0.961 . S
H1122 C1108 0.961 . S
H1123 C1109 0.958 . S
H1124 C1109 0.961 . S
H1125 C1109 0.960 . S
C1126 C1127 1.391 . S
C1126 C1128 1.394 . S
C1126 H1142 0.931 . S
C1127 C1126 1.391 . S
C1127 C1131 1.376 . S
C1128 C1126 1.394 . S
C1128 C1129 1.369 . S
C1128 C1132 1.531 . S
C1129 C1128 1.369 . S
C1129 C1130 1.410 . S
C1129 C1137 1.503 . S
C1130 C1129 1.410 . S
C1130 C1131 1.392 . S
C1130 C1133 1.511 . S
C1131 C1127 1.376 . S
C1131 C1130 1.392 . S
C1131 H1143 0.929 . S
C1132 C1128 1.531 . S
C1132 H1144 0.960 . S
C1132 H1145 0.962 . S
C1132 H1146 0.960 . S
C1133 C1130 1.511 . S
C1133 H1147 0.961 . S
C1133 H1148 0.961 . S
C1133 H1149 0.961 . S
C1134 C1135 1.370 . S
C1134 C1136 1.363 . S
C1134 H1150 0.931 . S
C1135 C1134 1.370 . S
C1135 C1139 1.408 . S
C1136 C1134 1.363 . S
C1136 C1137 1.370 . S
C1136 C1140 1.524 . S
C1137 C1129 1.503 . S
C1137 C1136 1.370 . S
C1137 C1138 1.403 . S
C1138 C1137 1.403 . S
C1138 C1139 1.404 . S
C1138 C1141 1.539 . S
C1139 C1135 1.408 . S
C1139 C1138 1.404 . S
C1139 H1151 0.930 . S
C1140 C1136 1.524 . S
C1140 H1152 0.956 . S
C1140 H1153 0.961 . S
C1140 H1154 0.961 . S
C1141 C1138 1.539 . S
C1141 H1155 0.958 . S
C1141 H1156 0.961 . S
C1141 H1157 0.960 . S
H1142 C1126 0.931 . S
H1143 C1131 0.929 . S
H1144 C1132 0.960 . S
H1145 C1132 0.962 . S
H1146 C1132 0.960 . S
H1147 C1133 0.961 . S
H1148 C1133 0.961 . S
H1149 C1133 0.961 . S
H1150 C1134 0.931 . S
H1151 C1139 0.930 . S
H1152 C1140 0.956 . S
H1153 C1140 0.961 . S
H1154 C1140 0.961 . S
H1155 C1141 0.958 . S
H1156 C1141 0.961 . S
H1157 C1141 0.960 . S
C1158 C1159 1.391 . S
C1158 C1160 1.394 . S
C1158 H1174 0.931 . S
C1159 C1158 1.391 . S
C1159 C1163 1.376 . S
C1160 C1158 1.394 . S
C1160 C1161 1.369 . S
C1160 C1164 1.531 . S
C1161 C1160 1.369 . S
C1161 C1162 1.410 . S
C1161 C1169 1.503 . S
C1162 C1161 1.410 . S
C1162 C1163 1.392 . S
C1162 C1165 1.511 . S
C1163 C1159 1.376 . S
C1163 C1162 1.392 . S
C1163 H1175 0.929 . S
C1164 C1160 1.531 . S
C1164 H1176 0.960 . S
C1164 H1177 0.962 . S
C1164 H1178 0.960 . S
C1165 C1162 1.511 . S
C1165 H1179 0.961 . S
C1165 H1180 0.961 . S
C1165 H1181 0.961 . S
C1166 C1167 1.370 . S
C1166 C1168 1.363 . S
C1166 H1182 0.931 . S
C1167 C1166 1.370 . S
C1167 C1171 1.408 . S
C1168 C1166 1.363 . S
C1168 C1169 1.370 . S
C1168 C1172 1.524 . S
C1169 C1161 1.503 . S
C1169 C1168 1.370 . S
C1169 C1170 1.403 . S
C1170 C1169 1.403 . S
C1170 C1171 1.404 . S
C1170 C1173 1.539 . S
C1171 C1167 1.408 . S
C1171 C1170 1.404 . S
C1171 H1183 0.930 . S
C1172 C1168 1.524 . S
C1172 H1184 0.956 . S
C1172 H1185 0.961 . S
C1172 H1186 0.961 . S
C1173 C1170 1.539 . S
C1173 H1187 0.958 . S
C1173 H1188 0.961 . S
C1173 H1189 0.960 . S
H1174 C1158 0.931 . S
H1175 C1163 0.929 . S
H1176 C1164 0.960 . S
H1177 C1164 0.962 . S
H1178 C1164 0.960 . S
H1179 C1165 0.961 . S
H1180 C1165 0.961 . S
H1181 C1165 0.961 . S
H1182 C1166 0.931 . S
H1183 C1171 0.930 . S
H1184 C1172 0.956 . S
H1185 C1172 0.961 . S
H1186 C1172 0.961 . S
H1187 C1173 0.958 . S
H1188 C1173 0.961 . S
H1189 C1173 0.960 . S
C431 C126 1.383 . S
C423 N2 1.378 . S
C463 C195 1.586 . S
C455 N15 1.635 . S
C495 C133 1.532 . S
C487 N27 1.530 . S
C527 C196 1.797 . S
C519 N44 1.811 . S
C559 C249 1.685 . S
C551 N1 1.717 . S
C591 C285 1.738 . S
C583 N18 1.699 . S
C615 N28 1.718 . S
C623 C345 1.699 . S
C655 C408 1.662 . S
C647 N41 1.677 . S
C687 C248 1.657 . S
C679 N14 1.671 . S
C711 N31 1.664 . S
C719 C292 1.666 . S
C751 C338 1.918 . S
C743 N40 1.898 . S
C783 C407 1.732 . S
C775 N5 1.746 . S
C807 N53 1.936 . S
C815 C186 1.913 . S
C847 C143 1.621 1_655 S
C839 N70 1.614 . S
C871 N80 1.679 . S
C879 C179 1.670 . S
C903 N92 1.604 . S
C911 C142 1.599 . S
C943 C354 1.894 . S
C935 N57 1.923 . S
C975 C398 1.551 . S
C967 N67 1.559 . S
C1007 C232 1.729 . S
C999 N83 1.767 . S
C1031 N96 1.637 . S
C1039 C301 1.636 . S
C1071 C355 1.716 . S
C1063 N66 1.766 . S
C1103 C391 1.624 . S
C1095 N79 1.639 . S
C1135 C239 1.673 . S
C1127 N93 1.687 . S
C1159 N54 1.479 . S
C1167 C302 1.479 . S
