# Generated by pormake.
# Topology anh, (6,3)-cn, num edge types: 1
# Building blocks:
#     Node 0, Type 0, BuildingBlock: CUWYAW_clean_sbu_0, # of connection points: 6
#     Node 1, Type 0, BuildingBlock: CUWYAW_clean_sbu_0, # of connection points: 6
#     Node 2, Type 0, BuildingBlock: CUWYAW_clean_sbu_0, # of connection points: 6
#     Node 3, Type 1, BuildingBlock: VETTIZ_charged_linker_0, # of connection points: 3
#     Node 4, Type 1, BuildingBlock: VETTIZ_charged_linker_0, # of connection points: 3
#     Node 5, Type 1, BuildingBlock: VETTIZ_charged_linker_0, # of connection points: 3
#     Node 6, Type 1, BuildingBlock: VETTIZ_charged_linker_0, # of connection points: 3
#     Node 7, Type 1, BuildingBlock: VETTIZ_charged_linker_0, # of connection points: 3
#     Node 8, Type 1, BuildingBlock: VETTIZ_charged_linker_0, # of connection points: 3
#     Edge 9, Type (0, 1), BuildingBlock: CIFDUS_clean_linker_0, # of connection points: 2
#     Edge 10, Type (0, 1), BuildingBlock: CIFDUS_clean_linker_0, # of connection points: 2
#     Edge 11, Type (0, 1), BuildingBlock: CIFDUS_clean_linker_0, # of connection points: 2
#     Edge 12, Type (0, 1), BuildingBlock: CIFDUS_clean_linker_0, # of connection points: 2
#     Edge 13, Type (0, 1), BuildingBlock: CIFDUS_clean_linker_0, # of connection points: 2
#     Edge 14, Type (0, 1), BuildingBlock: CIFDUS_clean_linker_0, # of connection points: 2
#     Edge 15, Type (0, 1), BuildingBlock: CIFDUS_clean_linker_0, # of connection points: 2
#     Edge 16, Type (0, 1), BuildingBlock: CIFDUS_clean_linker_0, # of connection points: 2
#     Edge 17, Type (0, 1), BuildingBlock: CIFDUS_clean_linker_0, # of connection points: 2
#     Edge 18, Type (0, 1), BuildingBlock: CIFDUS_clean_linker_0, # of connection points: 2
#     Edge 19, Type (0, 1), BuildingBlock: CIFDUS_clean_linker_0, # of connection points: 2
#     Edge 20, Type (0, 1), BuildingBlock: CIFDUS_clean_linker_0, # of connection points: 2
#     Edge 21, Type (0, 1), BuildingBlock: CIFDUS_clean_linker_0, # of connection points: 2
#     Edge 22, Type (0, 1), BuildingBlock: CIFDUS_clean_linker_0, # of connection points: 2
#     Edge 23, Type (0, 1), BuildingBlock: CIFDUS_clean_linker_0, # of connection points: 2
#     Edge 24, Type (0, 1), BuildingBlock: CIFDUS_clean_linker_0, # of connection points: 2
#     Edge 25, Type (0, 1), BuildingBlock: CIFDUS_clean_linker_0, # of connection points: 2
#     Edge 26, Type (0, 1), BuildingBlock: CIFDUS_clean_linker_0, # of connection points: 2
# Relax obj value: 0.271
# Max RMSD: 0.190
# Mean RMSD: 0.162
data_MOF--net-anh--node1-CUWYAW_clean_sbu_0--node2-VETTIZ_charged_linker_0--edge1-CIFDUS_clean_linker_0
_symmetry_space_group_name_H-M    P1
_symmetry_Int_Tables_number       1
_symmetry_cell_setting            triclinic
loop_
_symmetry_equiv_pos_as_xyz
'x, y, z'
_cell_length_a     32.286684
_cell_length_b     32.340825
_cell_length_c     60.840104
_cell_angle_alpha  90.204479
_cell_angle_beta   90.481136
_cell_angle_gamma 120.43126
loop_
_atom_site_label
_atom_site_type_symbol
_atom_site_fract_x
_atom_site_fract_y
_atom_site_fract_z
_atom_type_partial_charge
C0 C 1.06332 0.41555 0.16453 0.0
Eu1 Eu 1.10749 0.50774 0.16432 0.0
C2 C 1.01016 0.38735 0.16504 0.0
C3 C 0.9874 0.37909 0.18549 0.0
C4 C 0.94301 0.37626 0.18705 0.0
C5 C 0.91993 0.37983 0.16814 0.0
C6 C 0.93863 0.37983 0.14743 0.0
C7 C 0.98355 0.38356 0.14587 0.0
C8 C 0.1211 0.55909 0.20198 0.0
C9 C 1.03217 0.54545 0.15924 0.0
C10 C 0.17626 0.69899 0.15668 0.0
Eu11 Eu 0.15001 0.60845 0.15633 0.0
C12 C 0.21371 0.74626 0.14956 0.0
C13 C 0.20528 0.78443 0.15149 0.0
C14 C 0.24114 0.83073 0.14632 0.0
C15 C 0.28617 0.83966 0.13907 0.0
C16 C 0.29362 0.80069 0.13608 0.0
C17 C 0.25752 0.75415 0.14132 0.0
C18 C 0.12903 0.55523 0.11907 0.0
C19 C 0.22474 0.56916 0.15473 0.0
O20 O 1.08189 0.44006 0.14658 0.0
O21 O 1.08387 0.44132 0.18221 0.0
O22 O 1.08227 0.51937 0.19698 0.0
O23 O 0.1513 0.5708 0.18668 0.0
O24 O 1.03826 0.50831 0.15618 0.0
O25 O 1.07084 0.58791 0.16333 0.0
O26 O 0.18732 0.67861 0.17239 0.0
O27 O 0.14976 0.66906 0.14118 0.0
O28 O 0.16861 0.59592 0.12188 0.0
O29 O 1.10286 0.54565 0.1356 0.0
O30 O 0.22084 0.60816 0.15487 0.0
O31 O 0.18571 0.52626 0.15733 0.0
H32 H 1.00634 0.3807 0.20056 0.0
H33 H 0.92819 0.37448 0.20317 0.0
H34 H 0.92072 0.38143 0.13259 0.0
H35 H 0.99955 0.38891 0.12978 0.0
H36 H 0.17141 0.77866 0.15771 0.0
H37 H 0.23436 0.85982 0.14926 0.0
H38 H 0.32782 0.80641 0.13039 0.0
H39 H 0.26416 0.72467 0.13951 0.0
C40 C 0.54525 0.18247 0.48105 0.0
Eu41 Eu 0.59164 0.14098 0.49425 0.0
C42 C 0.56756 0.23112 0.47187 0.0
C43 C 0.5613 0.26597 0.48266 0.0
C44 C 0.59595 0.31452 0.48077 0.0
C45 C 0.63704 0.32843 0.4681 0.0
C46 C 0.63976 0.2943 0.45494 0.0
C47 C 0.60516 0.24589 0.45674 0.0
C48 C 0.61696 0.13826 0.53695 0.0
C49 C 0.7062 0.20864 0.49254 0.0
C50 C 0.70402 1.06238 0.51008 0.0
Eu51 Eu 0.64471 0.09112 0.49906 0.0
C52 C 0.71427 1.02309 0.5095 0.0
C53 C 0.68257 0.97769 0.5181 0.0
C54 C 0.69705 0.94381 0.5202 0.0
C55 C 0.7434 0.955 0.51383 0.0
C56 C 0.77373 0.99945 0.50402 0.0
C57 C 0.75927 1.03315 0.50192 0.0
C58 C 0.62167 0.09864 0.45716 0.0
C59 C 0.53001 1.02194 0.49255 0.0
O60 O 0.54827 0.15029 0.46918 0.0
O61 O 0.55608 0.18135 0.50171 0.0
O62 O 0.61799 0.1747 0.52766 0.0
O63 O 0.6011 0.1035 0.52344 0.0
O64 O 0.665 0.20278 0.48509 0.0
O65 O 0.706 0.17168 0.5022 0.0
O66 O 0.67023 1.0589 0.52303 0.0
O67 O 0.70586 0.08299 0.49143 0.0
O68 O 0.61773 1.05943 0.46484 0.0
O69 O 0.63795 0.13114 0.47151 0.0
O70 O 0.57001 1.02241 0.49845 0.0
O71 O 0.53086 1.06296 0.48941 0.0
H72 H 0.53276 0.25544 0.49444 0.0
H73 H 0.59339 0.34043 0.49114 0.0
H74 H 0.67108 0.30456 0.44496 0.0
H75 H 0.61103 0.21996 0.44812 0.0
H76 H 0.64748 0.96904 0.52391 0.0
H77 H 0.67272 0.90956 0.52757 0.0
H78 H 0.80983 1.00946 0.49921 0.0
H79 H 0.78427 1.06809 0.4953 0.0
C80 C 0.82344 0.67392 0.82972 0.0
Eu81 Eu 0.73235 0.64271 0.83122 0.0
C82 C 0.84344 0.6419 0.82707 0.0
C83 C 0.85391 0.62376 0.84593 0.0
C84 C 0.85526 0.58142 0.84475 0.0
C85 C 0.84741 0.5571 0.82463 0.0
C86 C 0.8428 0.5781 0.80534 0.0
C87 C 0.84055 0.62011 0.80654 0.0
C88 C 0.68366 0.6223 0.86967 0.0
C89 C 0.68803 0.5245 0.82689 0.0
C90 C 0.53638 0.535 0.82718 0.0
Eu91 Eu 0.6295 0.57884 0.82515 0.0
C92 C 0.49612 0.53994 0.81875 0.0
C93 C 0.4696 0.51321 0.80023 0.0
C94 C 0.42767 0.51258 0.79383 0.0
C95 C 0.41118 0.5383 0.80596 0.0
C96 C 0.43925 0.56721 0.82373 0.0
C97 C 0.48123 0.56796 0.83008 0.0
C98 C 0.67933 0.59756 0.78747 0.0
C99 C 0.67531 0.69886 0.82238 0.0
O100 O 0.79937 0.67639 0.81289 0.0
O101 O 0.80106 0.66911 0.84819 0.0
O102 O 0.71842 0.66444 0.86431 0.0
O103 O 0.67587 0.5921 0.85451 0.0
O104 O 0.72418 0.56846 0.82291 0.0
O105 O 0.64622 0.51929 0.83255 0.0
O106 O 0.56485 0.56571 0.84218 0.0
O107 O 0.55948 0.52463 0.8127 0.0
O108 O 0.64251 0.55611 0.79187 0.0
O109 O 0.6858 0.62751 0.80232 0.0
O110 O 0.63692 0.65455 0.82305 0.0
O111 O 0.71899 0.70476 0.82427 0.0
H112 H 0.85693 0.63994 0.86193 0.0
H113 H 0.86046 0.56658 0.85976 0.0
H114 H 0.83754 0.56029 0.78958 0.0
H115 H 0.83279 0.63323 0.79162 0.0
H116 H 0.48015 0.49118 0.79117 0.0
H117 H 0.40699 0.49023 0.78 0.0
H118 H 0.42718 0.5868 0.8337 0.0
H119 H 0.50074 0.58881 0.84446 0.0
C120 C 0.66803 0.37412 0.20852 0.0
C121 C 0.71337 0.40456 0.21815 0.0
C122 C 0.71735 0.40445 0.24133 0.0
C123 C 0.64061 0.33079 0.24275 0.0
C124 C 0.6341 0.33481 0.22051 0.0
C125 C 0.59703 0.28776 0.21036 0.0
H126 H 0.47793 1.04765 0.21645 0.0
C127 C 0.60817 0.28039 0.24908 0.0
C128 C 0.58325 0.25489 0.23002 0.0
H129 H 0.48922 0.13417 0.16028 0.0
H130 H 0.5275 0.20564 0.18319 0.0
H131 H 0.58079 0.11202 0.235 0.0
H132 H 0.44734 0.10411 0.25003 0.0
H133 H 0.47869 0.11624 0.27513 0.0
H134 H 0.46243 1.06145 0.26033 0.0
H135 H 0.53444 1.06405 0.25051 0.0
H136 H 0.58041 0.11829 0.26361 0.0
C137 C 0.62187 0.27408 0.19225 0.0
C138 C 0.55451 0.2929 0.202 0.0
C139 C 0.6123 0.22472 0.32709 0.0
C140 C 0.59359 0.17867 0.33641 0.0
C141 C 0.56612 0.1382 0.32269 0.0
C142 C 0.55666 0.14319 0.30073 0.0
C143 C 0.57618 0.1891 0.29176 0.0
C144 C 0.60397 0.229 0.30474 0.0
C145 C 0.6263 0.27459 0.29152 0.0
C146 C 0.60358 0.25541 0.26896 0.0
C147 C 0.57479 0.2053 0.2693 0.0
C148 C 0.68168 0.29609 0.29155 0.0
C149 C 0.61066 0.30878 0.30112 0.0
C150 C 0.48947 0.08209 0.20894 0.0
C151 C 0.48218 0.08557 0.18639 0.0
C152 C 0.49528 0.13072 0.17755 0.0
C153 C 0.51756 0.17208 0.19084 0.0
C154 C 0.52765 0.16824 0.21304 0.0
C155 C 0.51205 0.12358 0.22187 0.0
C156 C 0.52373 0.12582 0.24592 0.0
C157 C 0.55097 0.17953 0.24991 0.0
C158 C 0.5539 0.20423 0.23055 0.0
C159 C 0.55625 0.10369 0.24915 0.0
C160 C 0.4758 0.10039 0.25865 0.0
H161 H 0.68634 0.36814 0.27108 0.0
H162 H 0.66267 0.37487 0.19097 0.0
H163 H 0.54784 0.31595 0.21333 0.0
H164 H 0.5203 0.25826 0.20136 0.0
H165 H 0.56194 0.30957 0.18549 0.0
H166 H 0.65947 0.28545 0.19714 0.0
H167 H 0.62301 0.29161 0.17642 0.0
H168 H 0.60529 0.23533 0.18929 0.0
H169 H 0.63364 0.25702 0.33671 0.0
H170 H 0.55271 0.10215 0.32855 0.0
H171 H 0.5356 0.11081 0.29141 0.0
H172 H 0.69238 0.27074 0.2981 0.0
H173 H 0.70041 0.32916 0.30183 0.0
H174 H 0.69653 0.30437 0.27472 0.0
H175 H 0.57104 0.2896 0.30321 0.0
H176 H 0.61997 0.33955 0.29026 0.0
H177 H 0.62782 0.3229 0.31745 0.0
H178 H 0.75085 0.42844 0.24972 0.0
C179 C 0.68044 0.36823 0.25373 0.0
C180 C 0.86355 0.78337 0.55888 0.0
C181 C 0.85712 0.815 0.57244 0.0
C182 C 0.87182 0.82029 0.59467 0.0
C183 C 0.88741 0.75518 0.59061 0.0
C184 C 0.8791 0.75402 0.56831 0.0
C185 C 0.88492 0.71601 0.55681 0.0
H186 H 0.83706 0.49387 0.56005 0.0
C187 C 0.89247 0.71376 0.5962 0.0
C188 C 0.89311 0.69156 0.57648 0.0
H189 H 0.88655 0.59064 0.50492 0.0
H190 H 0.91525 0.6585 0.53001 0.0
H191 H 0.93378 0.56902 0.59246 0.0
H192 H 0.78792 0.54005 0.58697 0.0
H193 H 0.80279 0.53772 0.61474 0.0
H194 H 0.8028 0.4959 0.59547 0.0
H195 H 0.88439 0.51599 0.60386 0.0
H196 H 0.91406 0.57215 0.61893 0.0
C197 C 0.92926 0.74089 0.54162 0.0
C198 C 0.83755 0.68206 0.54426 0.0
C199 C 0.84279 0.6497 0.67288 0.0
C200 C 0.82851 0.60525 0.68271 0.0
C201 C 0.83518 0.57135 0.67091 0.0
C202 C 0.85293 0.5807 0.64934 0.0
C203 C 0.86357 0.62408 0.63933 0.0
C204 C 0.85987 0.65822 0.65142 0.0
C205 C 0.87366 0.70286 0.63866 0.0
C206 C 0.8842 0.68908 0.61639 0.0
C207 C 0.87807 0.64281 0.61679 0.0
C208 C 0.91986 0.74431 0.64936 0.0
C209 C 0.83037 0.71167 0.63809 0.0
C210 C 0.85488 0.52977 0.55341 0.0
C211 C 0.85811 0.53709 0.53052 0.0
C212 C 0.88241 0.58425 0.52244 0.0
C213 C 0.8981 0.62329 0.53683 0.0
C214 C 0.88763 0.61474 0.5592 0.0
C215 C 0.87016 0.56938 0.56752 0.0
C216 C 0.86531 0.5688 0.59218 0.0
C217 C 0.88019 0.62089 0.59685 0.0
C218 C 0.89093 0.64668 0.57714 0.0
C219 C 0.90089 0.55549 0.60255 0.0
C220 C 0.81204 0.53372 0.59782 0.0
H221 H 0.89707 0.79553 0.62082 0.0
H222 H 0.85395 0.77941 0.54161 0.0
H223 H 0.80659 0.66711 0.55565 0.0
H224 H 0.83784 0.65157 0.53633 0.0
H225 H 0.83072 0.70138 0.53098 0.0
H226 H 0.94792 0.7807 0.54271 0.0
H227 H 0.91891 0.7313 0.52407 0.0
H228 H 0.95674 0.73126 0.5461 0.0
H229 H 0.83808 0.67678 0.68106 0.0
H230 H 0.8258 0.53721 0.67814 0.0
H231 H 0.85624 0.55323 0.64102 0.0
H232 H 0.9448 0.73182 0.65458 0.0
H233 H 0.91119 0.75861 0.66416 0.0
H234 H 0.94066 0.77399 0.63785 0.0
H235 H 0.7992 0.68496 0.64771 0.0
H236 H 0.81583 0.70874 0.62121 0.0
H237 H 0.84017 0.74726 0.6451 0.0
H238 H 0.86979 0.8462 0.60525 0.0
C239 C 0.88725 0.79072 0.60377 0.0
C240 C 0.13075 0.47486 0.84169 0.0
C241 C 0.17646 0.5156 0.8451 0.0
C242 C 0.18812 0.53828 0.86591 0.0
C243 C 1.11177 0.47702 0.87998 0.0
C244 C 1.09885 0.45637 0.85931 0.0
C245 C 1.04957 0.41209 0.85889 0.0
H246 H 0.84668 0.35822 0.89829 0.0
C247 C 1.07289 0.44708 0.89515 0.0
C248 C 1.03577 0.40915 0.88306 0.0
H249 H 0.87676 0.31245 0.83654 0.0
H250 H 0.95068 0.32187 0.85247 0.0
H251 H 0.8676 0.30859 0.93167 0.0
H252 H 0.94498 0.44484 0.91373 0.0
H253 H 0.94681 0.43127 0.94227 0.0
H254 H 0.89026 0.40608 0.92823 0.0
H255 H 0.90767 0.34432 0.95279 0.0
H256 H 0.92196 0.307 0.93589 0.0
C257 C 1.0545 0.36877 0.85203 0.0
C258 C 1.01679 0.42081 0.84306 0.0
C259 C 1.09145 0.48994 0.97617 0.0
C260 C 1.06606 0.46314 -0.00539 0.0
C261 C 1.02325 0.41859 -0.00891 0.0
C262 C 1.00606 0.40176 0.96969 0.0
C263 C 1.0309 0.43029 0.95178 0.0
C264 C 1.07422 0.472 0.95508 0.0
C265 C 1.10185 0.49009 0.93412 0.0
C266 C 1.06794 0.45162 0.91797 0.0
C267 C 1.02536 0.41884 0.92826 0.0
C268 C 0.15018 0.49096 0.93676 0.0
C269 C 1.107 0.53942 0.92913 0.0
C270 C 0.86816 0.34879 0.88823 0.0
C271 C 0.85807 0.33873 0.86552 0.0
C272 C 0.88551 0.32372 0.85356 0.0
C273 C 0.92872 0.33053 0.86238 0.0
C274 C 0.94347 0.3518 0.88316 0.0
C275 C 0.91123 0.35456 0.89686 0.0
C276 C 0.93255 0.37234 0.91953 0.0
C277 C 0.98482 0.38634 0.91557 0.0
C278 C 0.99119 0.37818 0.89343 0.0
C279 C 0.90646 0.33084 0.9359 0.0
C280 C 0.92841 0.41619 0.92628 0.0
H281 H 0.16787 0.53736 0.89887 0.0
H282 H 0.12071 0.45679 0.82586 0.0
H283 H 0.99533 0.4333 0.85211 0.0
H284 H 0.99231 0.3884 0.83329 0.0
H285 H 1.03774 0.44853 0.83059 0.0
H286 H 1.0852 0.36949 0.86085 0.0
H287 H 1.0608 0.36918 0.83409 0.0
H288 H 1.02232 0.33424 0.85617 0.0
H289 H 0.12495 0.5236 0.97794 0.0
H290 H 1.00429 0.39571 0.0048 0.0
H291 H 0.97649 0.36584 0.96745 0.0
H292 H 0.14682 0.46295 0.94838 0.0
H293 H 0.17898 0.52617 0.94322 0.0
H294 H 0.16225 0.48257 0.92131 0.0
H295 H 1.0736 0.53951 0.93344 0.0
H296 H 1.11241 0.54865 0.91153 0.0
H297 H 0.13702 0.56845 0.93883 0.0
H298 H 0.22329 0.56918 0.86919 0.0
C299 C 0.15611 0.51921 0.88332 0.0
C300 C 1.00611 0.48463 0.47539 0.0
C301 C 0.96583 0.44466 0.46466 0.0
C302 C 0.96742 0.44181 0.44161 0.0
C303 C 1.04392 0.51678 0.43993 0.0
C304 C 1.04484 0.5206 0.46257 0.0
C305 C 1.09118 0.56633 0.47006 0.0
H306 H 0.29878 0.77529 0.43676 0.0
C307 C 1.08727 0.55908 0.43074 0.0
C308 C 0.11604 0.58938 0.44814 0.0
H309 H 0.2606 0.73121 0.50393 0.0
H310 H 0.18721 0.65895 0.49125 0.0
H311 H 0.27407 0.67319 0.41937 0.0
H312 H 0.19304 0.74556 0.41923 0.0
H313 H 0.18344 0.71696 0.39356 0.0
H314 H 0.2434 0.76278 0.40159 0.0
H315 H 0.28823 0.72288 0.40171 0.0
H316 H 0.24525 0.66209 0.39364 0.0
C317 C 0.12156 0.55154 0.48393 0.0
C318 C 1.07785 0.59894 0.48289 0.0
C319 C 1.10139 0.56897 0.34737 0.0
C320 C 0.13347 0.60377 0.3326 0.0
C321 C 0.17305 0.64579 0.34152 0.0
C322 C 0.17991 0.65306 0.36447 0.0
C323 C 0.14685 0.61807 0.37892 0.0
C324 C 1.10843 0.57704 0.37013 0.0
C325 C 1.07577 0.54422 0.38756 0.0
C326 C 1.10097 0.57182 0.40847 0.0
C327 C 0.14278 0.61492 0.40343 0.0
C328 C 1.07576 0.49629 0.3858 0.0
C329 C 1.02585 0.53979 0.38425 0.0
C330 C 0.2747 0.75073 0.44894 0.0
C331 C 0.28624 0.76022 0.47148 0.0
C332 C 0.25343 0.72555 0.48644 0.0
C333 C 0.21065 0.68344 0.47908 0.0
C334 C 0.20014 0.67465 0.45638 0.0
C335 C 0.23267 0.70842 0.4419 0.0
C336 C 0.21846 0.69376 0.41837 0.0
C337 C 0.17228 0.64596 0.42073 0.0
C338 C 0.16012 0.63388 0.4431 0.0
C339 C 0.2585 0.6879 0.4075 0.0
C340 C 0.20936 0.7317 0.40742 0.0
H341 H 1.00285 0.47115 0.41206 0.0
H342 H 1.007 0.48813 0.49311 0.0
H343 H 1.05316 0.60609 0.47292 0.0
H344 H 1.10986 0.63393 0.487 0.0
H345 H 1.05955 0.58169 0.49844 0.0
H346 H 0.1267 0.52454 0.47489 0.0
H347 H 1.10351 0.53543 0.49969 0.0
H348 H 0.15763 0.58224 0.48769 0.0
H349 H 1.07099 0.53572 0.34143 0.0
H350 H 0.19829 0.67366 0.33079 0.0
H351 H 0.21057 0.68596 0.37006 0.0
H352 H 1.11126 0.50249 0.38032 0.0
H353 H 1.04831 0.47139 0.37374 0.0
H354 H 1.06995 0.47798 0.40175 0.0
H355 H 1.02909 0.57222 0.37628 0.0
H356 H 1.00765 0.53729 0.39992 0.0
H357 H 1.00185 0.50846 0.37366 0.0
H358 H 0.93889 0.4116 0.43269 0.0
C359 C 1.00539 0.47687 0.42945 0.0
C360 C 0.68233 0.9903 0.80572 0.0
C361 C 0.67465 0.94762 0.79451 0.0
C362 C 0.66348 0.944 0.7719 0.0
C363 C 0.66919 1.02238 0.77158 0.0
C364 C 0.67852 1.02695 0.79395 0.0
C365 C 0.68211 1.07377 0.80245 0.0
H366 H 0.68535 0.28578 0.77293 0.0
C367 C 0.6694 1.06608 0.76336 0.0
C368 C 0.67677 0.09732 0.78132 0.0
H369 H 0.68862 0.24281 0.8396 0.0
H370 H 0.68653 0.16994 0.82599 0.0
H371 H 0.75803 0.25712 0.7538 0.0
H372 H 0.60457 0.1871 0.75682 0.0
H373 H 0.61702 0.17404 0.73059 0.0
H374 H 0.63959 0.23562 0.73851 0.0
H375 H 0.72361 0.27163 0.73545 0.0
H376 H 0.73741 0.22539 0.7289 0.0
C377 C 0.73123 0.10561 0.81365 0.0
C378 C 0.64033 1.06062 0.81824 0.0
C379 C 0.65001 0.07975 0.68028 0.0
C380 C 0.65253 0.11669 0.66691 0.0
C381 C 0.66292 0.16008 0.67734 0.0
C382 C 0.66887 0.16607 0.70021 0.0
C383 C 0.66522 0.12866 0.71332 0.0
C384 C 0.65681 0.08674 0.70328 0.0
C385 C 0.65671 1.052 0.71982 0.0
C386 C 0.66551 0.07967 0.74145 0.0
C387 C 0.66981 0.1243 0.7375 0.0
C388 C 0.6989 1.04392 0.71419 0.0
C389 C 0.60631 1.00604 0.71908 0.0
C390 C 0.68629 0.26153 0.78488 0.0
C391 C 0.68744 0.27153 0.80749 0.0
C392 C 0.68737 0.2369 0.82203 0.0
C393 C 0.68603 0.19431 0.81415 0.0
C394 C 0.68382 0.18481 0.79133 0.0
C395 C 0.68403 0.21889 0.77738 0.0
C396 C 0.6799 0.20431 0.75375 0.0
C397 C 0.67612 0.15567 0.75534 0.0
C398 C 0.6791 0.14311 0.77737 0.0
C399 C 0.72682 0.24149 0.7422 0.0
C400 C 0.63317 0.20028 0.74421 0.0
H401 H 0.65281 0.97433 0.74338 0.0
H402 H 0.69036 0.99462 0.82317 0.0
H403 H 0.60547 1.03504 0.81018 0.0
H404 H 0.63841 0.09243 0.82327 0.0
H405 H 0.64432 1.04347 0.83328 0.0
H406 H 0.76068 0.11266 0.80218 0.0
H407 H 0.7351 0.08785 0.82848 0.0
H408 H 0.73585 0.14061 0.81873 0.0
H409 H 0.64237 1.04586 0.67315 0.0
H410 H 0.66708 0.19015 0.66783 0.0
H411 H 0.67602 0.1999 0.70674 0.0
H412 H 0.7296 1.07686 0.70721 0.0
H413 H 0.68774 1.01464 0.70186 0.0
H414 H 0.71431 1.03607 0.72876 0.0
H415 H 0.5779 1.0148 0.71516 0.0
H416 H 0.5957 0.98768 0.73509 0.0
H417 H 0.6043 0.9804 0.70633 0.0
H418 H 0.65769 0.91286 0.76258 0.0
C419 C 0.66097 0.98043 0.76059 0.0
C420 C 0.74888 0.55601 0.14284 0.0
C421 C 0.78817 0.55487 0.13241 0.0
C422 C 0.78922 0.55633 0.10932 0.0
C423 C 0.71592 0.56065 0.10709 0.0
C424 C 0.71251 0.5581 0.12972 0.0
C425 C 0.66608 0.557 0.13676 0.0
H426 H 0.46589 0.57222 0.10155 0.0
C427 C 0.6746 0.56354 0.0976 0.0
C428 C 0.64401 0.56112 0.11472 0.0
H429 H 0.49342 0.54802 0.16831 0.0
H430 H 0.5676 0.55071 0.15678 0.0
H431 H 0.57667 0.65008 0.08853 0.0
H432 H 0.48634 0.49724 0.08158 0.0
H433 H 0.52188 0.51618 0.05801 0.0
H434 H 0.48109 0.53779 0.06332 0.0
H435 H 0.5251 0.62181 0.07056 0.0
H436 H 0.58335 0.6344 0.06164 0.0
C437 C 0.67905 0.59995 0.15203 0.0
C438 C 0.633 0.50881 0.14795 0.0
C439 C 0.67413 0.58794 0.01478 0.0
C440 C 0.64218 0.59154 0.00014 0.0
C441 C 0.59942 0.58679 0.00849 0.0
C442 C 0.58946 0.58011 0.03114 0.0
C443 C 0.62227 0.57743 0.04572 0.0
C444 C 0.66322 0.58037 0.03727 0.0
C445 C 0.69298 0.57451 0.05476 0.0
C446 C 0.66413 0.56909 0.07536 0.0
C447 C 0.62294 0.57124 0.07006 0.0
C448 C 0.74288 0.62115 0.05544 0.0
C449 C 0.69405 0.52804 0.04934 0.0
C450 C 0.48785 0.56816 0.11393 0.0
C451 C 0.47309 0.56064 0.13599 0.0
C452 C 0.50316 0.55404 0.15115 0.0
C453 C 0.54634 0.55549 0.14447 0.0
C454 C 0.55998 0.5625 0.12217 0.0
C455 C 0.53002 0.56824 0.10747 0.0
C456 C 0.54666 0.57226 0.08425 0.0
C457 C 0.59169 0.56893 0.08703 0.0
C458 C 0.60104 0.56362 0.10939 0.0
C459 C 0.55836 0.62201 0.07558 0.0
C460 C 0.50705 0.529 0.07093 0.0
H461 H 0.75906 0.56121 0.07948 0.0
H462 H 0.74624 0.55461 0.16057 0.0
H463 H 0.62717 0.47849 0.13712 0.0
H464 H 0.59736 0.50408 0.15145 0.0
H465 H 0.64923 0.50617 0.16368 0.0
H466 H 0.70501 0.63403 0.14392 0.0
H467 H 0.69574 0.59706 0.16756 0.0
H468 H 0.64698 0.60218 0.15622 0.0
H469 H 0.70709 0.59098 0.00883 0.0
H470 H 0.57437 0.5897 -0.00243 0.0
H471 H 0.55678 0.57788 0.03643 0.0
H472 H 0.73929 0.65317 0.05258 0.0
H473 H 0.76672 0.62059 0.04253 0.0
H474 H 0.7613 0.62802 0.07155 0.0
H475 H 0.66249 0.50249 0.03914 0.0
H476 H 0.69175 0.50741 0.06423 0.0
H477 H 0.72679 0.53612 0.0401 0.0
H478 H 0.81833 0.55615 0.10066 0.0
C479 C 0.75426 0.55943 0.09688 0.0
H480 H 0.26161 0.51025 0.16748 0.0
H481 H 0.29983 0.63928 0.13165 0.0
H482 H 0.37751 0.64802 0.12267 0.0
H483 H 0.4359 0.61906 0.12424 0.0
H484 H 0.40132 0.49406 0.16253 0.0
H485 H 0.32285 0.48436 0.17122 0.0
C486 C 0.28687 0.54039 0.15773 0.0
C487 C 0.27363 0.57389 0.15023 0.0
C488 C 0.33304 0.54617 0.15301 0.0
C489 C 0.30801 0.61281 0.13781 0.0
C490 C 0.35288 0.61785 0.13257 0.0
C491 C 0.4114 0.58969 0.13457 0.0
C492 C 0.42558 0.55729 0.14258 0.0
C493 C 0.36601 0.58478 0.13998 0.0
C494 C 0.39257 0.51996 0.15614 0.0
C495 C 0.34713 0.51419 0.16106 0.0
H496 H 0.80022 0.254 0.51176 0.0
H497 H 0.71723 0.26895 0.45967 0.0
H498 H 0.7865 0.34372 0.44866 0.0
H499 H 0.87135 0.40466 0.4522 0.0
H500 H 0.95913 0.39232 0.5024 0.0
H501 H 0.88823 0.31903 0.51592 0.0
C502 C 0.79728 0.27361 0.49803 0.0
C503 C 0.75219 0.25503 0.48685 0.0
C504 C 0.83856 0.31791 0.4914 0.0
C505 C 0.75022 0.28174 0.46902 0.0
C506 C 0.79031 0.3249 0.46252 0.0
C507 C 0.87538 0.38626 0.46618 0.0
C508 C 0.92152 0.40467 0.47601 0.0
C509 C 0.83468 0.34336 0.47345 0.0
C510 C 0.92467 0.37997 0.49443 0.0
C511 C 0.8839 0.3374 0.50202 0.0
H512 H 0.73659 0.79839 0.83059 0.0
H513 H 0.5973 0.69702 0.80338 0.0
H514 H 0.58397 0.76253 0.79378 0.0
H515 H 0.61203 0.84937 0.79138 0.0
H516 H 0.74857 0.95207 0.82017 0.0
H517 H 0.76193 0.88644 0.831 0.0
C518 C 0.70318 0.79044 0.82263 0.0
C519 C 0.66822 0.7416 0.81768 0.0
C520 C 0.69491 0.82911 0.81744 0.0
C521 C 0.62515 0.73327 0.80754 0.0
C522 C 0.61738 0.77114 0.80195 0.0
C523 C 0.64457 0.85767 0.80032 0.0
C524 C 0.67911 0.90667 0.80488 0.0
C525 C 0.65197 0.8193 0.80663 0.0
C526 C 0.72081 0.91548 0.81655 0.0
C527 C 0.72871 0.87758 0.82258 0.0
H528 H 0.99249 0.60189 0.17323 0.0
H529 H 0.95815 0.47516 0.13543 0.0
H530 H 0.87961 0.46381 0.12616 0.0
H531 H 0.82146 0.49225 0.12602 0.0
H532 H 0.85216 0.61726 0.16404 0.0
H533 H 0.9293 0.62611 0.17603 0.0
C534 C 0.96779 0.57161 0.16307 0.0
C535 C 0.98247 0.53945 0.15514 0.0
C536 C 0.92119 0.56477 0.15774 0.0
C537 C 0.94887 0.50047 0.14207 0.0
C538 C 0.9035 0.49398 0.13659 0.0
C539 C 0.84444 0.52098 0.13733 0.0
C540 C 0.82993 0.55386 0.1441 0.0
C541 C 0.88928 0.52609 0.14404 0.0
C542 C 0.86114 0.59081 0.1587 0.0
C543 C 0.90592 0.59623 0.16536 0.0
H544 H 0.49066 0.92842 0.50988 0.0
H545 H 0.46302 1.01005 0.46211 0.0
H546 H 0.3876 0.93892 0.45162 0.0
H547 H 0.32785 0.85287 0.45549 0.0
H548 H 0.35102 0.77025 0.50428 0.0
H549 H 0.42782 0.8412 0.5148 0.0
C550 C 0.46822 0.93067 0.49716 0.0
C551 C 0.48352 0.97556 0.4869 0.0
C552 C 0.42318 0.88892 0.49134 0.0
C553 C 0.45293 0.97688 0.47056 0.0
C554 C 0.40939 0.93583 0.46443 0.0
C555 C 0.34955 0.85006 0.46843 0.0
C556 C 0.33274 0.80525 0.4789 0.0
C557 C 0.39388 0.89155 0.47465 0.0
C558 C 0.36196 0.80365 0.49589 0.0
C559 C 0.40643 0.8445 0.50187 0.0
H560 H 0.64735 0.43408 0.84736 0.0
H561 H 0.74083 0.51562 0.79451 0.0
H562 H 0.75025 0.44772 0.78436 0.0
H563 H 0.73123 0.36374 0.78961 0.0
H564 H 0.64031 0.28204 0.84317 0.0
H565 H 0.63187 0.35046 0.8539 0.0
C566 C 0.66991 0.43714 0.83365 0.0
C567 C 0.6935 0.48105 0.82185 0.0
C568 C 0.67594 0.39732 0.82794 0.0
C569 C 0.72263 0.48333 0.80421 0.0
C570 C 0.72781 0.444 0.79823 0.0
C571 C 0.70933 0.36044 0.80364 0.0
C572 C 0.68614 0.31631 0.8153 0.0
C573 C 0.70459 0.40058 0.80987 0.0
C574 C 0.65904 0.31465 0.83374 0.0
C575 C 0.65382 0.35409 0.83985 0.0
H576 H 0.73222 0.9099 0.55245 0.0
H577 H 0.79952 0.93152 0.48925 0.0
H578 H 0.84151 0.89061 0.50188 0.0
H579 H 0.86265 0.85324 0.53171 0.0
H580 H 0.79193 0.8291 0.59428 0.0
H581 H 0.74825 0.8672 0.58106 0.0
C582 C 0.7551 0.90463 0.54122 0.0
C583 C 0.76275 0.92371 0.51996 0.0
C584 C 0.77934 0.88159 0.54862 0.0
C585 C 0.79336 0.91744 0.50578 0.0
C586 C 0.81743 0.89418 0.513 0.0
C587 C 0.83736 0.85587 0.54239 0.0
C588 C 0.83139 0.83905 0.5641 0.0
C589 C 0.81139 0.87694 0.53455 0.0
C590 C 0.79855 0.84307 0.57773 0.0
C591 C 0.77298 0.8643 0.57011 0.0
H592 H 0.78764 0.48053 0.8491 0.0
H593 H 0.89518 0.52623 0.79889 0.0
H594 H 0.8976 0.45228 0.80317 0.0
H595 H 0.88236 0.38561 0.82665 0.0
H596 H 0.77648 0.3402 0.87783 0.0
H597 H 0.7587 0.40239 0.86704 0.0
C598 C 0.8111 0.47382 0.83893 0.0
C599 C 0.84241 0.50914 0.82423 0.0
C600 C 0.81255 0.43155 0.84165 0.0
C601 C 0.8714 0.4997 0.81053 0.0
C602 C 0.87275 0.45751 0.813 0.0
C603 C 0.85383 0.38755 0.83497 0.0
C604 C 0.83213 0.35927 0.85366 0.0
C605 C 0.84526 0.42447 0.82928 0.0
C606 C 0.79493 0.3625 0.86388 0.0
C607 C 0.78504 0.39833 0.85784 0.0
H608 H 0.37708 0.87379 0.15396 0.0
H609 H 0.28574 0.91855 0.12285 0.0
H610 H 0.34357 1.00207 0.13218 0.0
H611 H 0.41154 1.05904 0.15549 0.0
H612 H 0.50216 1.01332 0.18653 0.0
H613 H 0.4534 0.93341 0.17051 0.0
C614 C 0.37055 0.90185 0.14842 0.0
C615 C 0.32661 0.88986 0.13824 0.0
C616 C 0.40338 0.94952 0.15422 0.0
C617 C 0.31883 0.92683 0.13124 0.0
C618 C 0.3518 0.97456 0.1366 0.0
C619 C 0.42144 1.03201 0.15819 0.0
C620 C 0.45942 1.04151 0.17267 0.0
C621 C 0.3929 0.98593 0.14913 0.0
C622 C 0.47207 1.00627 0.17595 0.0
C623 C 0.44435 0.96066 0.16675 0.0
H624 H 0.71605 0.33829 0.48724 0.0
H625 H 0.65432 0.41963 0.46207 0.0
H626 H 0.72322 0.49388 0.47657 0.0
H627 H 0.79495 0.53292 0.50029 0.0
H628 H 0.85285 0.44995 0.52803 0.0
H629 H 0.79185 0.37853 0.50818 0.0
C630 C 0.7188 0.37259 0.48423 0.0
C631 C 0.68114 0.3741 0.47325 0.0
C632 C 0.75745 0.41437 0.49321 0.0
C633 C 0.68344 0.41813 0.47026 0.0
C634 C 0.72261 0.4603 0.47861 0.0
C635 C 0.79512 0.49953 0.50143 0.0
C636 C 0.82833 0.49653 0.51547 0.0
C637 C 0.75907 0.45856 0.49063 0.0
C638 C 0.82756 0.4529 0.51729 0.0
C639 C 0.7927 0.41219 0.506 0.0
H640 H 0.38042 0.60281 0.80721 0.0
H641 H 0.33017 0.45214 0.79815 0.0
H642 H 0.24801 0.43279 0.80415 0.0
H643 H 0.1951 0.45658 0.8211 0.0
H644 H 0.24533 0.60635 0.83299 0.0
H645 H 0.32262 0.62813 0.81671 0.0
C646 C 0.35127 0.56587 0.80605 0.0
C647 C 0.36158 0.52896 0.80279 0.0
C648 C 0.30419 0.55471 0.81049 0.0
C649 C 0.32342 0.48135 0.8007 0.0
C650 C 0.27632 0.47012 0.80438 0.0
C651 C 0.22211 0.49413 0.81931 0.0
C652 C 0.21504 0.52973 0.82878 0.0
C653 C 0.26683 0.5062 0.81063 0.0
C654 C 0.25049 0.57822 0.8263 0.0
C655 C 0.2947 0.59067 0.81706 0.0
H656 H 0.91697 0.44857 0.19226 0.0
H657 H 0.83206 0.32968 0.14826 0.0
H658 H 0.76109 0.33584 0.15593 0.0
H659 H 0.72202 0.36419 0.18013 0.0
H660 H 0.80526 0.48246 0.22509 0.0
H661 H 0.87895 0.48836 0.21132 0.0
C662 C 0.88287 0.42431 0.18428 0.0
C663 C 0.87891 0.38759 0.17034 0.0
C664 C 0.84235 0.42794 0.18888 0.0
C665 C 0.83542 0.35753 0.15935 0.0
C666 C 0.79502 0.36114 0.16372 0.0
C667 C 0.75588 0.39266 0.18663 0.0
C668 C 0.75735 0.42152 0.20448 0.0
C669 C 0.79775 0.39481 0.17919 0.0
C670 C 0.80254 0.45838 0.21201 0.0
C671 C 0.84477 0.46168 0.2042 0.0
H672 H 0.18016 0.56275 0.0826 0.0
H673 H 1.03591 0.49423 0.10761 0.0
H674 H 1.00356 0.45922 0.07148 0.0
H675 H 1.01598 0.45159 0.03235 0.0
H676 H 0.16072 0.5136 0.0081 0.0
H677 H 0.19283 0.54807 0.04415 0.0
C678 C 0.14171 0.53996 0.08008 0.0
C679 C 1.11047 0.53157 0.09758 0.0
C680 C 0.1233 0.51918 0.05934 0.0
C681 C 1.06072 0.50142 0.09431 0.0
C682 C 1.04214 0.48144 0.07365 0.0
C683 C 1.05456 0.4719 0.03494 0.0
C684 C 1.08559 0.48073 0.0172 0.0
C685 C 1.07307 0.49051 0.05597 0.0
C686 C 0.1356 0.50749 0.02109 0.0
C687 C 0.15421 0.52691 0.04184 0.0
H688 H 0.66949 0.17833 0.43299 0.0
H689 H 0.54712 1.03486 0.43143 0.0
H690 H 0.52494 1.04884 0.39469 0.0
H691 H 0.54017 0.10213 0.36371 0.0
H692 H 0.67117 0.24063 0.36278 0.0
H693 H 0.68866 0.22914 0.40033 0.0
C694 C 0.63815 0.1501 0.42447 0.0
C695 C 0.6099 0.10563 0.43465 0.0
C696 C 0.62674 0.15785 0.40316 0.0
C697 C 0.56952 1.06914 0.42364 0.0
C698 C 0.55676 1.07729 0.40277 0.0
C699 C 0.57336 0.1296 0.37121 0.0
C700 C 0.60405 0.1723 0.35985 0.0
C701 C 0.58526 0.1215 0.39236 0.0
C702 C 0.64576 0.2078 0.37083 0.0
C703 C 0.65641 0.20103 0.39236 0.0
H704 H 0.67743 0.53174 0.75916 0.0
H705 H 0.75787 0.68214 0.77623 0.0
H706 H 0.81648 0.6957 0.74787 0.0
H707 H 0.8423 0.66576 0.7172 0.0
H708 H 0.75494 0.51778 0.6964 0.0
H709 H 0.70327 0.50181 0.72798 0.0
C710 C 0.70774 0.56749 0.7566 0.0
C711 C 0.71357 0.6059 0.7698 0.0
C712 C 0.74048 0.57526 0.73983 0.0
C713 C 0.75297 0.65197 0.7664 0.0
C714 C 0.78643 0.65973 0.75019 0.0
C715 C 0.81173 0.63002 0.71932 0.0
C716 C 0.80238 0.59338 0.70401 0.0
C717 C 0.78019 0.62173 0.73665 0.0
C718 C 0.76365 0.54684 0.70784 0.0
C719 C 0.73346 0.53775 0.72576 0.0
H720 H 0.64442 0.08543 0.5626 0.0
H721 H 0.59017 0.18275 0.56626 0.0
H722 H 0.5929 0.1816 0.6062 0.0
H723 H 0.61245 0.15543 0.64014 0.0
H724 H 0.67483 1.06487 0.63767 0.0
H725 H 0.66583 1.05983 0.59763 0.0
C726 C 0.63292 0.10602 0.5722 0.0
C727 C 0.61703 0.13409 0.56134 0.0
C728 C 0.63593 0.1064 0.5955 0.0
C729 C 0.60273 0.16098 0.57407 0.0
C730 C 0.60422 0.16034 0.597 0.0
C731 C 0.62495 0.1351 0.631 0.0
C732 C 0.64492 0.1111 0.64231 0.0
C733 C 0.62131 0.13374 0.6079 0.0
C734 C 0.65895 0.08355 0.62977 0.0
C735 C 0.65418 0.08095 0.60671 0.0
H736 H 0.72872 0.67312 0.90657 0.0
H737 H 0.60314 0.54241 0.88481 0.0
H738 H 0.57777 0.52181 0.92313 0.0
H739 H 0.59221 0.54098 0.96322 0.0
H740 H 0.72164 0.66887 0.98429 0.0
H741 H 0.74463 0.69055 0.94602 0.0
C742 C 0.69566 0.64017 0.91017 0.0
C743 C 0.66764 0.60951 0.8928 0.0
C744 C 0.68211 0.62803 0.93223 0.0
C745 C 0.62529 0.56666 0.89785 0.0
C746 C 0.61081 0.55491 0.91978 0.0
C747 C 0.62535 0.57359 0.95934 0.0
C748 C 0.65516 0.60342 0.97658 0.0
C749 C 0.639 0.58528 0.93716 0.0
C750 C 0.69824 0.64531 0.97135 0.0
C751 C 0.71134 0.65775 0.94945 0.0
H752 H 1.05808 0.54222 0.23447 0.0
H753 H 0.20981 0.61644 0.22137 0.0
H754 H 0.22749 0.63808 0.26046 0.0
H755 H 0.19936 0.63121 0.29889 0.0
H756 H 1.04678 0.56014 0.31079 0.0
H757 H 1.03023 0.54163 0.27188 0.0
C758 C 1.09507 0.56352 0.24013 0.0
C759 C 0.13256 0.57738 0.22503 0.0
C760 C 1.10488 0.57587 0.26256 0.0
C761 C 0.18025 0.60532 0.23262 0.0
C762 C 0.19035 0.61748 0.25501 0.0
C763 C 0.16247 0.61226 0.29301 0.0
C764 C 0.12448 0.59622 0.30819 0.0
C765 C 0.15291 0.60233 0.27025 0.0
C766 C 1.07696 0.57165 0.29991 0.0
C767 C 1.06731 0.56136 0.2775 0.0
loop_
_geom_bond_atom_site_label_1
_geom_bond_atom_site_label_2
_geom_bond_distance
_geom_bond_site_symmetry_2
_ccdc_geom_bond_type
C0 Eu1 2.835 . S
C0 C2 1.500 . S
C0 O20 1.257 . S
C0 O21 1.260 . S
Eu1 C0 2.835 . S
Eu1 O20 2.473 . S
Eu1 O21 2.480 . S
Eu1 O22 2.430 1_655 S
Eu1 O23 2.670 1_655 S
Eu1 O24 2.394 . S
Eu1 O29 2.355 1_655 S
Eu1 O31 2.374 1_655 S
C2 C0 1.500 . S
C2 C3 1.377 . S
C2 C7 1.377 . S
C3 C2 1.377 . S
C3 C4 1.395 . S
C3 H32 0.931 . S
C4 C3 1.395 . S
C4 C5 1.383 . S
C4 H33 0.931 . S
C5 C4 1.383 . S
C5 C6 1.394 . S
C6 C5 1.394 . S
C6 C7 1.378 . S
C6 H34 0.931 . S
C7 C2 1.377 . S
C7 C6 1.378 . S
C7 H35 0.931 . S
C8 O22 1.259 . S
C8 O23 1.270 . S
C9 O24 1.251 . S
C9 O25 1.251 . S
C10 Eu11 2.835 . S
C10 C12 1.500 . S
C10 O26 1.257 . S
C10 O27 1.260 . S
Eu11 C10 2.835 . S
Eu11 O23 2.355 . S
Eu11 O25 2.374 1_455 S
Eu11 O26 2.473 . S
Eu11 O27 2.480 . S
Eu11 O28 2.430 . S
Eu11 O29 2.670 . S
Eu11 O30 2.394 . S
C12 C10 1.500 . S
C12 C13 1.377 . S
C12 C17 1.377 . S
C13 C12 1.377 . S
C13 C14 1.395 . S
C13 H36 0.931 . S
C14 C13 1.395 . S
C14 C15 1.383 . S
C14 H37 0.931 . S
C15 C14 1.383 . S
C15 C16 1.394 . S
C16 C15 1.394 . S
C16 C17 1.378 . S
C16 H38 0.931 . S
C17 C12 1.377 . S
C17 C16 1.378 . S
C17 H39 0.931 . S
C18 O28 1.259 . S
C18 O29 1.270 . S
C19 O30 1.251 . S
C19 O31 1.251 . S
O20 C0 1.257 . S
O20 Eu1 2.473 . S
O21 C0 1.260 . S
O21 Eu1 2.480 . S
O22 Eu1 2.430 1_455 S
O22 C8 1.259 . S
O23 Eu1 2.670 1_455 S
O23 C8 1.270 . S
O23 Eu11 2.355 . S
O24 Eu1 2.394 . S
O24 C9 1.251 . S
O25 C9 1.251 . S
O25 Eu11 2.374 1_655 S
O26 C10 1.257 . S
O26 Eu11 2.473 . S
O27 C10 1.260 . S
O27 Eu11 2.480 . S
O28 Eu11 2.430 . S
O28 C18 1.259 . S
O29 Eu1 2.355 1_455 S
O29 Eu11 2.670 . S
O29 C18 1.270 . S
O30 Eu11 2.394 . S
O30 C19 1.251 . S
O31 Eu1 2.374 1_455 S
O31 C19 1.251 . S
H32 C3 0.931 . S
H33 C4 0.931 . S
H34 C6 0.931 . S
H35 C7 0.931 . S
H36 C13 0.931 . S
H37 C14 0.931 . S
H38 C16 0.931 . S
H39 C17 0.931 . S
C40 Eu41 2.835 . S
C40 C42 1.500 . S
C40 O60 1.257 . S
C40 O61 1.260 . S
Eu41 C40 2.835 . S
Eu41 O60 2.473 . S
Eu41 O61 2.480 . S
Eu41 O62 2.430 . S
Eu41 O63 2.670 . S
Eu41 O64 2.394 . S
Eu41 O69 2.355 . S
Eu41 O71 2.374 1_545 S
C42 C40 1.500 . S
C42 C43 1.377 . S
C42 C47 1.377 . S
C43 C42 1.377 . S
C43 C44 1.395 . S
C43 H72 0.931 . S
C44 C43 1.395 . S
C44 C45 1.383 . S
C44 H73 0.931 . S
C45 C44 1.383 . S
C45 C46 1.394 . S
C46 C45 1.394 . S
C46 C47 1.378 . S
C46 H74 0.931 . S
C47 C42 1.377 . S
C47 C46 1.378 . S
C47 H75 0.931 . S
C48 O62 1.259 . S
C48 O63 1.270 . S
C49 O64 1.251 . S
C49 O65 1.251 . S
C50 Eu51 2.851 . S
C50 C52 1.500 . S
C50 O66 1.257 . S
C50 O67 1.260 . S
Eu51 C50 2.851 . S
Eu51 O63 2.347 1_565 S
Eu51 O65 2.360 1_565 S
Eu51 O66 2.487 . S
Eu51 O67 2.496 . S
Eu51 O68 2.426 1_565 S
Eu51 O69 2.656 1_565 S
Eu51 O70 2.396 . S
C52 C50 1.500 . S
C52 C53 1.377 . S
C52 C57 1.377 . S
C53 C52 1.377 . S
C53 C54 1.395 . S
C53 H76 0.931 . S
C54 C53 1.395 . S
C54 C55 1.383 . S
C54 H77 0.931 . S
C55 C54 1.383 . S
C55 C56 1.394 . S
C56 C55 1.394 . S
C56 C57 1.378 . S
C56 H78 0.931 . S
C57 C52 1.377 . S
C57 C56 1.378 . S
C57 H79 0.931 . S
C58 O68 1.259 . S
C58 O69 1.270 . S
C59 O70 1.251 . S
C59 O71 1.251 . S
O60 C40 1.257 . S
O60 Eu41 2.473 . S
O61 C40 1.260 . S
O61 Eu41 2.480 . S
O62 Eu41 2.430 . S
O62 C48 1.259 . S
O63 Eu41 2.670 . S
O63 C48 1.270 . S
O63 Eu51 2.347 1_545 S
O64 Eu41 2.394 . S
O64 C49 1.251 . S
O65 C49 1.251 . S
O65 Eu51 2.360 1_545 S
O66 C50 1.257 . S
O66 Eu51 2.487 . S
O67 C50 1.260 . S
O67 Eu51 2.496 . S
O68 Eu51 2.426 1_545 S
O68 C58 1.259 . S
O69 Eu41 2.355 . S
O69 Eu51 2.656 1_545 S
O69 C58 1.270 . S
O70 Eu51 2.396 . S
O70 C59 1.251 . S
O71 Eu41 2.374 1_565 S
O71 C59 1.251 . S
H72 C43 0.931 . S
H73 C44 0.931 . S
H74 C46 0.931 . S
H75 C47 0.931 . S
H76 C53 0.931 . S
H77 C54 0.931 . S
H78 C56 0.931 . S
H79 C57 0.931 . S
C80 Eu81 2.835 . S
C80 C82 1.500 . S
C80 O100 1.257 . S
C80 O101 1.260 . S
Eu81 C80 2.835 . S
Eu81 O100 2.473 . S
Eu81 O101 2.480 . S
Eu81 O102 2.430 . S
Eu81 O103 2.670 . S
Eu81 O104 2.394 . S
Eu81 O109 2.355 . S
Eu81 O111 2.374 . S
C82 C80 1.500 . S
C82 C83 1.377 . S
C82 C87 1.377 . S
C83 C82 1.377 . S
C83 C84 1.395 . S
C83 H112 0.931 . S
C84 C83 1.395 . S
C84 C85 1.383 . S
C84 H113 0.931 . S
C85 C84 1.383 . S
C85 C86 1.394 . S
C86 C85 1.394 . S
C86 C87 1.378 . S
C86 H114 0.931 . S
C87 C82 1.377 . S
C87 C86 1.378 . S
C87 H115 0.931 . S
C88 O102 1.259 . S
C88 O103 1.270 . S
C89 O104 1.251 . S
C89 O105 1.251 . S
C90 Eu91 2.835 . S
C90 C92 1.500 . S
C90 O106 1.257 . S
C90 O107 1.260 . S
Eu91 C90 2.835 . S
Eu91 O103 2.355 . S
Eu91 O105 2.374 . S
Eu91 O106 2.473 . S
Eu91 O107 2.480 . S
Eu91 O108 2.430 . S
Eu91 O109 2.670 . S
Eu91 O110 2.394 . S
C92 C90 1.500 . S
C92 C93 1.377 . S
C92 C97 1.377 . S
C93 C92 1.377 . S
C93 C94 1.395 . S
C93 H116 0.931 . S
C94 C93 1.395 . S
C94 C95 1.383 . S
C94 H117 0.931 . S
C95 C94 1.383 . S
C95 C96 1.394 . S
C96 C95 1.394 . S
C96 C97 1.378 . S
C96 H118 0.931 . S
C97 C92 1.377 . S
C97 C96 1.378 . S
C97 H119 0.931 . S
C98 O108 1.259 . S
C98 O109 1.270 . S
C99 O110 1.251 . S
C99 O111 1.251 . S
O100 C80 1.257 . S
O100 Eu81 2.473 . S
O101 C80 1.260 . S
O101 Eu81 2.480 . S
O102 Eu81 2.430 . S
O102 C88 1.259 . S
O103 Eu81 2.670 . S
O103 C88 1.270 . S
O103 Eu91 2.355 . S
O104 Eu81 2.394 . S
O104 C89 1.251 . S
O105 C89 1.251 . S
O105 Eu91 2.374 . S
O106 C90 1.257 . S
O106 Eu91 2.473 . S
O107 C90 1.260 . S
O107 Eu91 2.480 . S
O108 Eu91 2.430 . S
O108 C98 1.259 . S
O109 Eu81 2.355 . S
O109 Eu91 2.670 . S
O109 C98 1.270 . S
O110 Eu91 2.394 . S
O110 C99 1.251 . S
O111 Eu81 2.374 . S
O111 C99 1.251 . S
H112 C83 0.931 . S
H113 C84 0.931 . S
H114 C86 0.931 . S
H115 C87 0.931 . S
H116 C93 0.931 . S
H117 C94 0.931 . S
H118 C96 0.931 . S
H119 C97 0.931 . S
C120 C121 1.391 . S
C120 C124 1.391 . S
C120 H162 0.948 . S
C121 C120 1.391 . S
C121 C122 1.391 . S
C122 C121 1.391 . S
C122 H178 0.947 . S
C122 C179 1.392 . S
C123 C124 1.391 . S
C123 C127 1.397 . S
C123 C179 1.419 . S
C124 C120 1.391 . S
C124 C123 1.391 . S
C124 C125 1.399 . S
C125 C124 1.399 . S
C125 C128 1.396 . S
C125 C137 1.453 . S
C125 C138 1.684 . S
H126 C150 0.948 . S
C127 C123 1.397 . S
C127 C128 1.394 . S
C127 C146 1.723 . S
C128 C125 1.396 . S
C128 C127 1.394 . S
C128 C158 1.723 . S
H129 C152 0.947 . S
H130 C153 0.948 1_545 S
H131 C159 0.982 . S
H132 C160 0.979 . S
H133 C160 0.980 . S
H134 C160 0.983 . S
H135 C159 0.979 . S
H136 C159 0.977 . S
C137 C125 1.453 . S
C137 H166 0.982 . S
C137 H167 0.979 . S
C137 H168 0.977 . S
C138 C125 1.684 . S
C138 H163 0.979 . S
C138 H164 0.980 . S
C138 H165 0.983 . S
C139 C140 1.391 . S
C139 C144 1.391 . S
C139 H169 0.948 . S
C140 C139 1.391 . S
C140 C141 1.391 . S
C141 C140 1.391 . S
C141 C142 1.392 . S
C141 H170 0.947 1_545 S
C142 C141 1.392 . S
C142 C143 1.419 . S
C142 H171 0.948 1_545 S
C143 C142 1.419 . S
C143 C144 1.391 . S
C143 C147 1.397 . S
C144 C139 1.391 . S
C144 C143 1.391 . S
C144 C145 1.399 . S
C145 C144 1.399 . S
C145 C146 1.396 . S
C145 C148 1.453 . S
C145 C149 1.684 . S
C146 C127 1.723 . S
C146 C145 1.396 . S
C146 C147 1.394 . S
C147 C143 1.397 . S
C147 C146 1.394 . S
C147 C157 1.723 . S
C148 C145 1.453 . S
C148 H172 0.982 . S
C148 H173 0.979 . S
C148 H174 0.977 . S
C149 C145 1.684 . S
C149 H175 0.979 . S
C149 H176 0.980 . S
C149 H177 0.983 . S
C150 H126 0.948 . S
C150 C151 1.391 . S
C150 C155 1.391 . S
C151 C150 1.391 . S
C151 C152 1.391 . S
C152 H129 0.947 . S
C152 C151 1.391 . S
C152 C153 1.392 . S
C153 H130 0.948 1_565 S
C153 C152 1.392 . S
C153 C154 1.419 . S
C154 C153 1.419 . S
C154 C155 1.391 . S
C154 C158 1.397 1_565 S
C155 C150 1.391 . S
C155 C154 1.391 . S
C155 C156 1.399 . S
C156 C155 1.399 . S
C156 C157 1.396 1_565 S
C156 C159 1.453 . S
C156 C160 1.684 . S
C157 C147 1.723 . S
C157 C156 1.396 1_545 S
C157 C158 1.394 . S
C158 C128 1.723 . S
C158 C154 1.397 1_545 S
C158 C157 1.394 . S
C159 H131 0.982 . S
C159 H135 0.979 . S
C159 H136 0.977 . S
C159 C156 1.453 . S
C160 H132 0.979 . S
C160 H133 0.980 . S
C160 H134 0.983 . S
C160 C156 1.684 . S
H161 C179 0.948 . S
H162 C120 0.948 . S
H163 C138 0.979 . S
H164 C138 0.980 . S
H165 C138 0.983 . S
H166 C137 0.982 . S
H167 C137 0.979 . S
H168 C137 0.977 . S
H169 C139 0.948 . S
H170 C141 0.947 1_565 S
H171 C142 0.948 1_565 S
H172 C148 0.982 . S
H173 C148 0.979 . S
H174 C148 0.977 . S
H175 C149 0.979 . S
H176 C149 0.980 . S
H177 C149 0.983 . S
H178 C122 0.947 . S
C179 C122 1.392 . S
C179 C123 1.419 . S
C179 H161 0.948 . S
C180 C181 1.391 . S
C180 C184 1.391 . S
C180 H222 0.948 . S
C181 C180 1.391 . S
C181 C182 1.391 . S
C182 C181 1.391 . S
C182 H238 0.947 . S
C182 C239 1.392 . S
C183 C184 1.391 . S
C183 C187 1.397 . S
C183 C239 1.419 . S
C184 C180 1.391 . S
C184 C183 1.391 . S
C184 C185 1.399 . S
C185 C184 1.399 . S
C185 C188 1.396 . S
C185 C197 1.453 . S
C185 C198 1.684 . S
H186 C210 0.948 . S
C187 C183 1.397 . S
C187 C188 1.394 . S
C187 C206 1.723 . S
C188 C185 1.396 . S
C188 C187 1.394 . S
C188 C218 1.723 . S
H189 C212 0.947 . S
H190 C213 0.948 . S
H191 C219 0.982 . S
H192 C220 0.979 . S
H193 C220 0.980 . S
H194 C220 0.983 . S
H195 C219 0.979 . S
H196 C219 0.977 . S
C197 C185 1.453 . S
C197 H226 0.982 . S
C197 H227 0.979 . S
C197 H228 0.977 . S
C198 C185 1.684 . S
C198 H223 0.979 . S
C198 H224 0.980 . S
C198 H225 0.983 . S
C199 C200 1.391 . S
C199 C204 1.391 . S
C199 H229 0.948 . S
C200 C199 1.391 . S
C200 C201 1.391 . S
C201 C200 1.391 . S
C201 C202 1.392 . S
C201 H230 0.947 . S
C202 C201 1.392 . S
C202 C203 1.419 . S
C202 H231 0.948 . S
C203 C202 1.419 . S
C203 C204 1.391 . S
C203 C207 1.397 . S
C204 C199 1.391 . S
C204 C203 1.391 . S
C204 C205 1.399 . S
C205 C204 1.399 . S
C205 C206 1.396 . S
C205 C208 1.453 . S
C205 C209 1.684 . S
C206 C187 1.723 . S
C206 C205 1.396 . S
C206 C207 1.394 . S
C207 C203 1.397 . S
C207 C206 1.394 . S
C207 C217 1.723 . S
C208 C205 1.453 . S
C208 H232 0.982 . S
C208 H233 0.979 . S
C208 H234 0.977 . S
C209 C205 1.684 . S
C209 H235 0.979 . S
C209 H236 0.980 . S
C209 H237 0.983 . S
C210 H186 0.948 . S
C210 C211 1.391 . S
C210 C215 1.391 . S
C211 C210 1.391 . S
C211 C212 1.391 . S
C212 H189 0.947 . S
C212 C211 1.391 . S
C212 C213 1.392 . S
C213 H190 0.948 . S
C213 C212 1.392 . S
C213 C214 1.419 . S
C214 C213 1.419 . S
C214 C215 1.391 . S
C214 C218 1.397 . S
C215 C210 1.391 . S
C215 C214 1.391 . S
C215 C216 1.399 . S
C216 C215 1.399 . S
C216 C217 1.396 . S
C216 C219 1.453 . S
C216 C220 1.684 . S
C217 C207 1.723 . S
C217 C216 1.396 . S
C217 C218 1.394 . S
C218 C188 1.723 . S
C218 C214 1.397 . S
C218 C217 1.394 . S
C219 H191 0.982 . S
C219 H195 0.979 . S
C219 H196 0.977 . S
C219 C216 1.453 . S
C220 H192 0.979 . S
C220 H193 0.980 . S
C220 H194 0.983 . S
C220 C216 1.684 . S
H221 C239 0.948 . S
H222 C180 0.948 . S
H223 C198 0.979 . S
H224 C198 0.980 . S
H225 C198 0.983 . S
H226 C197 0.982 . S
H227 C197 0.979 . S
H228 C197 0.977 . S
H229 C199 0.948 . S
H230 C201 0.947 . S
H231 C202 0.948 . S
H232 C208 0.982 . S
H233 C208 0.979 . S
H234 C208 0.977 . S
H235 C209 0.979 . S
H236 C209 0.980 . S
H237 C209 0.983 . S
H238 C182 0.947 . S
C239 C182 1.392 . S
C239 C183 1.419 . S
C239 H221 0.948 . S
C240 C241 1.391 . S
C240 C244 1.391 . S
C240 H282 0.948 . S
C241 C240 1.391 . S
C241 C242 1.391 . S
C242 C241 1.391 . S
C242 H298 0.947 . S
C242 C299 1.392 . S
C243 C244 1.391 . S
C243 C247 1.397 . S
C243 C299 1.419 . S
C244 C240 1.391 . S
C244 C243 1.391 . S
C244 C245 1.399 . S
C245 C244 1.399 . S
C245 C248 1.396 . S
C245 C257 1.453 . S
C245 C258 1.684 . S
H246 C270 0.948 . S
C247 C243 1.397 . S
C247 C248 1.394 . S
C247 C266 1.723 . S
C248 C245 1.396 . S
C248 C247 1.394 . S
C248 C278 1.723 1_455 S
H249 C272 0.947 . S
H250 C273 0.948 . S
H251 C279 0.982 . S
H252 C280 0.979 . S
H253 C280 0.980 . S
H254 C280 0.983 . S
H255 C279 0.979 . S
H256 C279 0.977 . S
C257 C245 1.453 . S
C257 H286 0.980 . S
C257 H287 0.979 . S
C257 H288 0.977 1_455 S
C258 C245 1.684 . S
C258 H283 0.979 . S
C258 H284 0.980 . S
C258 H285 0.983 . S
C259 C260 1.391 1_556 S
C259 C264 1.391 . S
C259 H289 0.948 1_556 S
C260 C259 1.391 1_554 S
C260 C261 1.391 1_454 S
C261 C260 1.391 1_656 S
C261 C262 1.392 . S
C261 H290 0.947 1_556 S
C262 C261 1.392 . S
C262 C263 1.419 . S
C262 H291 0.948 . S
C263 C262 1.419 . S
C263 C264 1.391 1_655 S
C263 C267 1.397 . S
C264 C259 1.391 . S
C264 C263 1.391 1_455 S
C264 C265 1.399 . S
C265 C264 1.399 . S
C265 C266 1.396 . S
C265 C268 1.453 . S
C265 C269 1.684 . S
C266 C247 1.723 . S
C266 C265 1.396 . S
C266 C267 1.394 1_455 S
C267 C263 1.397 . S
C267 C266 1.394 1_655 S
C267 C277 1.723 . S
C268 C265 1.453 . S
C268 H292 0.982 . S
C268 H293 0.979 . S
C268 H294 0.977 . S
C269 C265 1.684 . S
C269 H295 0.979 . S
C269 H296 0.980 . S
C269 H297 0.983 . S
C270 H246 0.948 . S
C270 C271 1.391 . S
C270 C275 1.391 . S
C271 C270 1.391 . S
C271 C272 1.391 . S
C272 H249 0.947 . S
C272 C271 1.391 . S
C272 C273 1.392 . S
C273 H250 0.948 . S
C273 C272 1.392 . S
C273 C274 1.419 . S
C274 C273 1.419 . S
C274 C275 1.391 . S
C274 C278 1.397 . S
C275 C270 1.391 . S
C275 C274 1.391 . S
C275 C276 1.399 . S
C276 C275 1.399 . S
C276 C277 1.396 . S
C276 C279 1.453 . S
C276 C280 1.684 . S
C277 C267 1.723 . S
C277 C276 1.396 . S
C277 C278 1.394 . S
C278 C248 1.723 1_655 S
C278 C274 1.397 . S
C278 C277 1.394 . S
C279 H251 0.982 . S
C279 H255 0.979 . S
C279 H256 0.977 . S
C279 C276 1.453 . S
C280 H252 0.979 . S
C280 H253 0.980 . S
C280 H254 0.983 . S
C280 C276 1.684 . S
H281 C299 0.948 . S
H282 C240 0.948 . S
H283 C258 0.979 . S
H284 C258 0.980 . S
H285 C258 0.983 . S
H286 C257 0.980 . S
H287 C257 0.979 . S
H288 C257 0.977 1_655 S
H289 C259 0.948 1_554 S
H290 C261 0.947 1_554 S
H291 C262 0.948 . S
H292 C268 0.982 . S
H293 C268 0.979 . S
H294 C268 0.977 . S
H295 C269 0.979 . S
H296 C269 0.980 . S
H297 C269 0.983 . S
H298 C242 0.947 . S
C299 C242 1.392 . S
C299 C243 1.419 . S
C299 H281 0.948 . S
C300 C301 1.391 . S
C300 C304 1.391 . S
C300 H342 0.948 . S
C301 C300 1.391 . S
C301 C302 1.391 . S
C302 C301 1.391 . S
C302 H358 0.947 . S
C302 C359 1.392 . S
C303 C304 1.391 . S
C303 C307 1.397 1_655 S
C303 C359 1.419 . S
C304 C300 1.391 . S
C304 C303 1.391 . S
C304 C305 1.399 1_655 S
C305 C304 1.399 1_455 S
C305 C308 1.396 . S
C305 C317 1.453 . S
C305 C318 1.684 . S
H306 C330 0.948 . S
C307 C303 1.397 1_455 S
C307 C308 1.394 . S
C307 C326 1.723 . S
C308 C305 1.396 . S
C308 C307 1.394 . S
C308 C338 1.723 . S
H309 C332 0.947 . S
H310 C333 0.948 . S
H311 C339 0.982 . S
H312 C340 0.979 . S
H313 C340 0.980 . S
H314 C340 0.983 . S
H315 C339 0.979 . S
H316 C339 0.977 . S
C317 C305 1.453 . S
C317 H346 0.982 . S
C317 H347 0.979 . S
C317 H348 0.977 . S
C318 C305 1.684 . S
C318 H343 0.979 1_455 S
C318 H344 0.980 . S
C318 H345 0.983 . S
C319 C320 1.391 . S
C319 C324 1.391 . S
C319 H349 0.948 1_455 S
C320 C319 1.391 . S
C320 C321 1.391 . S
C321 C320 1.391 . S
C321 C322 1.392 . S
C321 H350 0.947 . S
C322 C321 1.392 . S
C322 C323 1.419 . S
C322 H351 0.948 . S
C323 C322 1.419 . S
C323 C324 1.391 . S
C323 C327 1.397 . S
C324 C319 1.391 . S
C324 C323 1.391 . S
C324 C325 1.399 1_455 S
C325 C324 1.399 1_655 S
C325 C326 1.396 1_655 S
C325 C328 1.453 . S
C325 C329 1.684 . S
C326 C307 1.723 . S
C326 C325 1.396 1_455 S
C326 C327 1.394 . S
C327 C323 1.397 . S
C327 C326 1.394 . S
C327 C337 1.723 . S
C328 C325 1.453 . S
C328 H352 0.982 1_655 S
C328 H353 0.979 . S
C328 H354 0.977 . S
C329 C325 1.684 . S
C329 H355 0.979 . S
C329 H356 0.980 . S
C329 H357 0.983 . S
C330 H306 0.948 . S
C330 C331 1.391 . S
C330 C335 1.391 . S
C331 C330 1.391 . S
C331 C332 1.391 . S
C332 H309 0.947 . S
C332 C331 1.391 . S
C332 C333 1.392 . S
C333 H310 0.948 . S
C333 C332 1.392 . S
C333 C334 1.419 . S
C334 C333 1.419 . S
C334 C335 1.391 . S
C334 C338 1.397 . S
C335 C330 1.391 . S
C335 C334 1.391 . S
C335 C336 1.399 . S
C336 C335 1.399 . S
C336 C337 1.396 . S
C336 C339 1.453 . S
C336 C340 1.684 . S
C337 C327 1.723 . S
C337 C336 1.396 . S
C337 C338 1.394 . S
C338 C308 1.723 . S
C338 C334 1.397 . S
C338 C337 1.394 . S
C339 H311 0.982 . S
C339 H315 0.979 . S
C339 H316 0.977 . S
C339 C336 1.453 . S
C340 H312 0.979 . S
C340 H313 0.980 . S
C340 H314 0.983 . S
C340 C336 1.684 . S
H341 C359 0.948 . S
H342 C300 0.948 . S
H343 C318 0.979 1_655 S
H344 C318 0.980 . S
H345 C318 0.983 . S
H346 C317 0.982 . S
H347 C317 0.979 . S
H348 C317 0.977 . S
H349 C319 0.948 1_655 S
H350 C321 0.947 . S
H351 C322 0.948 . S
H352 C328 0.982 1_455 S
H353 C328 0.979 . S
H354 C328 0.977 . S
H355 C329 0.979 . S
H356 C329 0.980 . S
H357 C329 0.983 . S
H358 C302 0.947 . S
C359 C302 1.392 . S
C359 C303 1.419 . S
C359 H341 0.948 . S
C360 C361 1.391 . S
C360 C364 1.391 . S
C360 H402 0.948 . S
C361 C360 1.391 . S
C361 C362 1.391 . S
C362 C361 1.391 . S
C362 H418 0.947 . S
C362 C419 1.392 . S
C363 C364 1.391 . S
C363 C367 1.397 . S
C363 C419 1.419 . S
C364 C360 1.391 . S
C364 C363 1.391 . S
C364 C365 1.399 . S
C365 C364 1.399 . S
C365 C368 1.396 . S
C365 C377 1.453 . S
C365 C378 1.684 . S
H366 C390 0.948 . S
C367 C363 1.397 . S
C367 C368 1.394 . S
C367 C386 1.723 . S
C368 C365 1.396 . S
C368 C367 1.394 . S
C368 C398 1.723 1_565 S
H369 C392 0.947 . S
H370 C393 0.948 . S
H371 C399 0.982 . S
H372 C400 0.979 . S
H373 C400 0.980 . S
H374 C400 0.983 . S
H375 C399 0.979 . S
H376 C399 0.977 . S
C377 C365 1.453 . S
C377 H406 0.982 1_565 S
C377 H407 0.979 . S
C377 H408 0.977 1_565 S
C378 C365 1.684 . S
C378 H403 0.979 . S
C378 H404 0.980 . S
C378 H405 0.983 . S
C379 C380 1.391 1_565 S
C379 C384 1.391 . S
C379 H409 0.948 . S
C380 C379 1.391 1_545 S
C380 C381 1.391 . S
C381 C380 1.391 . S
C381 C382 1.392 . S
C381 H410 0.947 . S
C382 C381 1.392 . S
C382 C383 1.419 . S
C382 H411 0.948 . S
C383 C382 1.419 . S
C383 C384 1.391 1_545 S
C383 C387 1.397 . S
C384 C379 1.391 . S
C384 C383 1.391 1_565 S
C384 C385 1.399 . S
C385 C384 1.399 . S
C385 C386 1.396 . S
C385 C388 1.453 . S
C385 C389 1.684 . S
C386 C367 1.723 . S
C386 C385 1.396 . S
C386 C387 1.394 1_565 S
C387 C383 1.397 . S
C387 C386 1.394 1_545 S
C387 C397 1.723 . S
C388 C385 1.453 . S
C388 H412 0.982 . S
C388 H413 0.979 . S
C388 H414 0.977 . S
C389 C385 1.684 . S
C389 H415 0.979 . S
C389 H416 0.980 . S
C389 H417 0.983 . S
C390 H366 0.948 . S
C390 C391 1.391 . S
C390 C395 1.391 . S
C391 C390 1.391 . S
C391 C392 1.391 . S
C392 H369 0.947 . S
C392 C391 1.391 . S
C392 C393 1.392 . S
C393 H370 0.948 . S
C393 C392 1.392 . S
C393 C394 1.419 . S
C394 C393 1.419 . S
C394 C395 1.391 . S
C394 C398 1.397 . S
C395 C390 1.391 . S
C395 C394 1.391 . S
C395 C396 1.399 . S
C396 C395 1.399 . S
C396 C397 1.396 . S
C396 C399 1.453 . S
C396 C400 1.684 . S
C397 C387 1.723 . S
C397 C396 1.396 . S
C397 C398 1.394 . S
C398 C368 1.723 1_545 S
C398 C394 1.397 . S
C398 C397 1.394 . S
C399 H371 0.982 . S
C399 H375 0.979 . S
C399 H376 0.977 . S
C399 C396 1.453 . S
C400 H372 0.979 . S
C400 H373 0.980 . S
C400 H374 0.983 . S
C400 C396 1.684 . S
H401 C419 0.948 . S
H402 C360 0.948 . S
H403 C378 0.979 . S
H404 C378 0.980 . S
H405 C378 0.983 . S
H406 C377 0.982 1_545 S
H407 C377 0.979 . S
H408 C377 0.977 1_545 S
H409 C379 0.948 . S
H410 C381 0.947 . S
H411 C382 0.948 . S
H412 C388 0.982 . S
H413 C388 0.979 . S
H414 C388 0.977 . S
H415 C389 0.979 . S
H416 C389 0.980 . S
H417 C389 0.983 . S
H418 C362 0.947 . S
C419 C362 1.392 . S
C419 C363 1.419 . S
C419 H401 0.948 . S
C420 C421 1.391 . S
C420 C424 1.391 . S
C420 H462 0.948 . S
C421 C420 1.391 . S
C421 C422 1.391 . S
C422 C421 1.391 . S
C422 H478 0.947 . S
C422 C479 1.392 . S
C423 C424 1.391 . S
C423 C427 1.397 . S
C423 C479 1.419 . S
C424 C420 1.391 . S
C424 C423 1.391 . S
C424 C425 1.399 . S
C425 C424 1.399 . S
C425 C428 1.396 . S
C425 C437 1.453 . S
C425 C438 1.684 . S
H426 C450 0.948 . S
C427 C423 1.397 . S
C427 C428 1.394 . S
C427 C446 1.723 . S
C428 C425 1.396 . S
C428 C427 1.394 . S
C428 C458 1.723 . S
H429 C452 0.947 . S
H430 C453 0.948 . S
H431 C459 0.982 . S
H432 C460 0.979 . S
H433 C460 0.980 . S
H434 C460 0.983 . S
H435 C459 0.979 . S
H436 C459 0.977 . S
C437 C425 1.453 . S
C437 H466 0.982 . S
C437 H467 0.979 . S
C437 H468 0.977 . S
C438 C425 1.684 . S
C438 H463 0.979 . S
C438 H464 0.980 . S
C438 H465 0.983 . S
C439 C440 1.391 . S
C439 C444 1.391 . S
C439 H469 0.948 . S
C440 C439 1.391 . S
C440 C441 1.391 . S
C441 C440 1.391 . S
C441 C442 1.392 . S
C441 H470 0.947 . S
C442 C441 1.392 . S
C442 C443 1.419 . S
C442 H471 0.948 . S
C443 C442 1.419 . S
C443 C444 1.391 . S
C443 C447 1.397 . S
C444 C439 1.391 . S
C444 C443 1.391 . S
C444 C445 1.399 . S
C445 C444 1.399 . S
C445 C446 1.396 . S
C445 C448 1.453 . S
C445 C449 1.684 . S
C446 C427 1.723 . S
C446 C445 1.396 . S
C446 C447 1.394 . S
C447 C443 1.397 . S
C447 C446 1.394 . S
C447 C457 1.723 . S
C448 C445 1.453 . S
C448 H472 0.982 . S
C448 H473 0.979 . S
C448 H474 0.977 . S
C449 C445 1.684 . S
C449 H475 0.979 . S
C449 H476 0.980 . S
C449 H477 0.983 . S
C450 H426 0.948 . S
C450 C451 1.391 . S
C450 C455 1.391 . S
C451 C450 1.391 . S
C451 C452 1.391 . S
C452 H429 0.947 . S
C452 C451 1.391 . S
C452 C453 1.392 . S
C453 H430 0.948 . S
C453 C452 1.392 . S
C453 C454 1.419 . S
C454 C453 1.419 . S
C454 C455 1.391 . S
C454 C458 1.397 . S
C455 C450 1.391 . S
C455 C454 1.391 . S
C455 C456 1.399 . S
C456 C455 1.399 . S
C456 C457 1.396 . S
C456 C459 1.453 . S
C456 C460 1.684 . S
C457 C447 1.723 . S
C457 C456 1.396 . S
C457 C458 1.394 . S
C458 C428 1.723 . S
C458 C454 1.397 . S
C458 C457 1.394 . S
C459 H431 0.982 . S
C459 H435 0.979 . S
C459 H436 0.977 . S
C459 C456 1.453 . S
C460 H432 0.979 . S
C460 H433 0.980 . S
C460 H434 0.983 . S
C460 C456 1.684 . S
H461 C479 0.948 . S
H462 C420 0.948 . S
H463 C438 0.979 . S
H464 C438 0.980 . S
H465 C438 0.983 . S
H466 C437 0.982 . S
H467 C437 0.979 . S
H468 C437 0.977 . S
H469 C439 0.948 . S
H470 C441 0.947 . S
H471 C442 0.948 . S
H472 C448 0.982 . S
H473 C448 0.979 . S
H474 C448 0.977 . S
H475 C449 0.979 . S
H476 C449 0.980 . S
H477 C449 0.983 . S
H478 C422 0.947 . S
C479 C422 1.392 . S
C479 C423 1.419 . S
C479 H461 0.948 . S
H480 C486 0.930 . S
H481 C489 0.930 . S
H482 C490 0.930 . S
H483 C491 0.930 . S
H484 C494 0.930 . S
H485 C495 0.930 . S
C486 H480 0.930 . S
C486 C487 1.355 . S
C486 C488 1.415 . S
C487 C486 1.355 . S
C487 C489 1.419 . S
C488 C486 1.415 . S
C488 C493 1.425 . S
C488 C495 1.409 . S
C489 H481 0.930 . S
C489 C487 1.419 . S
C489 C490 1.362 . S
C490 H482 0.930 . S
C490 C489 1.362 . S
C490 C493 1.409 . S
C491 H483 0.930 . S
C491 C492 1.355 . S
C491 C493 1.415 . S
C492 C491 1.355 . S
C492 C494 1.419 . S
C493 C488 1.425 . S
C493 C490 1.409 . S
C493 C491 1.415 . S
C494 H484 0.930 . S
C494 C492 1.419 . S
C494 C495 1.362 . S
C495 H485 0.930 . S
C495 C488 1.409 . S
C495 C494 1.362 . S
H496 C502 0.930 . S
H497 C505 0.930 . S
H498 C506 0.930 . S
H499 C507 0.930 . S
H500 C510 0.930 . S
H501 C511 0.930 . S
C502 H496 0.930 . S
C502 C503 1.355 . S
C502 C504 1.415 . S
C503 C502 1.355 . S
C503 C505 1.419 . S
C504 C502 1.415 . S
C504 C509 1.425 . S
C504 C511 1.409 . S
C505 H497 0.930 . S
C505 C503 1.419 . S
C505 C506 1.362 . S
C506 H498 0.930 . S
C506 C505 1.362 . S
C506 C509 1.409 . S
C507 H499 0.930 . S
C507 C508 1.355 . S
C507 C509 1.415 . S
C508 C507 1.355 . S
C508 C510 1.419 . S
C509 C504 1.425 . S
C509 C506 1.409 . S
C509 C507 1.415 . S
C510 H500 0.930 . S
C510 C508 1.419 . S
C510 C511 1.362 . S
C511 H501 0.930 . S
C511 C504 1.409 . S
C511 C510 1.362 . S
H512 C518 0.930 . S
H513 C521 0.930 . S
H514 C522 0.930 . S
H515 C523 0.930 . S
H516 C526 0.930 . S
H517 C527 0.930 . S
C518 H512 0.930 . S
C518 C519 1.355 . S
C518 C520 1.415 . S
C519 C518 1.355 . S
C519 C521 1.419 . S
C520 C518 1.415 . S
C520 C525 1.425 . S
C520 C527 1.409 . S
C521 H513 0.930 . S
C521 C519 1.419 . S
C521 C522 1.362 . S
C522 H514 0.930 . S
C522 C521 1.362 . S
C522 C525 1.409 . S
C523 H515 0.930 . S
C523 C524 1.355 . S
C523 C525 1.415 . S
C524 C523 1.355 . S
C524 C526 1.419 . S
C525 C520 1.425 . S
C525 C522 1.409 . S
C525 C523 1.415 . S
C526 H516 0.930 . S
C526 C524 1.419 . S
C526 C527 1.362 . S
C527 H517 0.930 . S
C527 C520 1.409 . S
C527 C526 1.362 . S
H528 C534 0.930 . S
H529 C537 0.930 . S
H530 C538 0.930 . S
H531 C539 0.930 . S
H532 C542 0.930 . S
H533 C543 0.930 . S
C534 H528 0.930 . S
C534 C535 1.355 . S
C534 C536 1.415 . S
C535 C534 1.355 . S
C535 C537 1.419 . S
C536 C534 1.415 . S
C536 C541 1.425 . S
C536 C543 1.409 . S
C537 H529 0.930 . S
C537 C535 1.419 . S
C537 C538 1.362 . S
C538 H530 0.930 . S
C538 C537 1.362 . S
C538 C541 1.409 . S
C539 H531 0.930 . S
C539 C540 1.355 . S
C539 C541 1.415 . S
C540 C539 1.355 . S
C540 C542 1.419 . S
C541 C536 1.425 . S
C541 C538 1.409 . S
C541 C539 1.415 . S
C542 H532 0.930 . S
C542 C540 1.419 . S
C542 C543 1.362 . S
C543 H533 0.930 . S
C543 C536 1.409 . S
C543 C542 1.362 . S
H544 C550 0.930 . S
H545 C553 0.930 . S
H546 C554 0.930 . S
H547 C555 0.930 . S
H548 C558 0.930 . S
H549 C559 0.930 . S
C550 H544 0.930 . S
C550 C551 1.355 . S
C550 C552 1.415 . S
C551 C550 1.355 . S
C551 C553 1.419 . S
C552 C550 1.415 . S
C552 C557 1.425 . S
C552 C559 1.409 . S
C553 H545 0.930 . S
C553 C551 1.419 . S
C553 C554 1.362 . S
C554 H546 0.930 . S
C554 C553 1.362 . S
C554 C557 1.409 . S
C555 H547 0.930 . S
C555 C556 1.355 . S
C555 C557 1.415 . S
C556 C555 1.355 . S
C556 C558 1.419 . S
C557 C552 1.425 . S
C557 C554 1.409 . S
C557 C555 1.415 . S
C558 H548 0.930 . S
C558 C556 1.419 . S
C558 C559 1.362 . S
C559 H549 0.930 . S
C559 C552 1.409 . S
C559 C558 1.362 . S
H560 C566 0.930 . S
H561 C569 0.930 . S
H562 C570 0.930 . S
H563 C571 0.930 . S
H564 C574 0.930 . S
H565 C575 0.930 . S
C566 H560 0.930 . S
C566 C567 1.355 . S
C566 C568 1.415 . S
C567 C566 1.355 . S
C567 C569 1.419 . S
C568 C566 1.415 . S
C568 C573 1.425 . S
C568 C575 1.409 . S
C569 H561 0.930 . S
C569 C567 1.419 . S
C569 C570 1.362 . S
C570 H562 0.930 . S
C570 C569 1.362 . S
C570 C573 1.409 . S
C571 H563 0.930 . S
C571 C572 1.355 . S
C571 C573 1.415 . S
C572 C571 1.355 . S
C572 C574 1.419 . S
C573 C568 1.425 . S
C573 C570 1.409 . S
C573 C571 1.415 . S
C574 H564 0.930 . S
C574 C572 1.419 . S
C574 C575 1.362 . S
C575 H565 0.930 . S
C575 C568 1.409 . S
C575 C574 1.362 . S
H576 C582 0.930 . S
H577 C585 0.930 . S
H578 C586 0.930 . S
H579 C587 0.930 . S
H580 C590 0.930 . S
H581 C591 0.930 . S
C582 H576 0.930 . S
C582 C583 1.355 . S
C582 C584 1.415 . S
C583 C582 1.355 . S
C583 C585 1.419 . S
C584 C582 1.415 . S
C584 C589 1.425 . S
C584 C591 1.409 . S
C585 H577 0.930 . S
C585 C583 1.419 . S
C585 C586 1.362 . S
C586 H578 0.930 . S
C586 C585 1.362 . S
C586 C589 1.409 . S
C587 H579 0.930 . S
C587 C588 1.355 . S
C587 C589 1.415 . S
C588 C587 1.355 . S
C588 C590 1.419 . S
C589 C584 1.425 . S
C589 C586 1.409 . S
C589 C587 1.415 . S
C590 H580 0.930 . S
C590 C588 1.419 . S
C590 C591 1.362 . S
C591 H581 0.930 . S
C591 C584 1.409 . S
C591 C590 1.362 . S
H592 C598 0.930 . S
H593 C601 0.930 . S
H594 C602 0.930 . S
H595 C603 0.930 . S
H596 C606 0.930 . S
H597 C607 0.930 . S
C598 H592 0.930 . S
C598 C599 1.355 . S
C598 C600 1.415 . S
C599 C598 1.355 . S
C599 C601 1.419 . S
C600 C598 1.415 . S
C600 C605 1.425 . S
C600 C607 1.409 . S
C601 H593 0.930 . S
C601 C599 1.419 . S
C601 C602 1.362 . S
C602 H594 0.930 . S
C602 C601 1.362 . S
C602 C605 1.409 . S
C603 H595 0.930 . S
C603 C604 1.355 . S
C603 C605 1.415 . S
C604 C603 1.355 . S
C604 C606 1.419 . S
C605 C600 1.425 . S
C605 C602 1.409 . S
C605 C603 1.415 . S
C606 H596 0.930 . S
C606 C604 1.419 . S
C606 C607 1.362 . S
C607 H597 0.930 . S
C607 C600 1.409 . S
C607 C606 1.362 . S
H608 C614 0.930 . S
H609 C617 0.930 . S
H610 C618 0.930 . S
H611 C619 0.930 . S
H612 C622 0.930 . S
H613 C623 0.930 . S
C614 H608 0.930 . S
C614 C615 1.355 . S
C614 C616 1.415 . S
C615 C614 1.355 . S
C615 C617 1.419 . S
C616 C614 1.415 . S
C616 C621 1.425 . S
C616 C623 1.409 . S
C617 H609 0.930 . S
C617 C615 1.419 . S
C617 C618 1.362 . S
C618 H610 0.930 . S
C618 C617 1.362 . S
C618 C621 1.409 . S
C619 H611 0.930 . S
C619 C620 1.355 . S
C619 C621 1.415 . S
C620 C619 1.355 . S
C620 C622 1.419 . S
C621 C616 1.425 . S
C621 C618 1.409 . S
C621 C619 1.415 . S
C622 H612 0.930 . S
C622 C620 1.419 . S
C622 C623 1.362 . S
C623 H613 0.930 . S
C623 C616 1.409 . S
C623 C622 1.362 . S
H624 C630 0.930 . S
H625 C633 0.930 . S
H626 C634 0.930 . S
H627 C635 0.930 . S
H628 C638 0.930 . S
H629 C639 0.930 . S
C630 H624 0.930 . S
C630 C631 1.355 . S
C630 C632 1.415 . S
C631 C630 1.355 . S
C631 C633 1.419 . S
C632 C630 1.415 . S
C632 C637 1.425 . S
C632 C639 1.409 . S
C633 H625 0.930 . S
C633 C631 1.419 . S
C633 C634 1.362 . S
C634 H626 0.930 . S
C634 C633 1.362 . S
C634 C637 1.409 . S
C635 H627 0.930 . S
C635 C636 1.355 . S
C635 C637 1.415 . S
C636 C635 1.355 . S
C636 C638 1.419 . S
C637 C632 1.425 . S
C637 C634 1.409 . S
C637 C635 1.415 . S
C638 H628 0.930 . S
C638 C636 1.419 . S
C638 C639 1.362 . S
C639 H629 0.930 . S
C639 C632 1.409 . S
C639 C638 1.362 . S
H640 C646 0.930 . S
H641 C649 0.930 . S
H642 C650 0.930 . S
H643 C651 0.930 . S
H644 C654 0.930 . S
H645 C655 0.930 . S
C646 H640 0.930 . S
C646 C647 1.355 . S
C646 C648 1.415 . S
C647 C646 1.355 . S
C647 C649 1.419 . S
C648 C646 1.415 . S
C648 C653 1.425 . S
C648 C655 1.409 . S
C649 H641 0.930 . S
C649 C647 1.419 . S
C649 C650 1.362 . S
C650 H642 0.930 . S
C650 C649 1.362 . S
C650 C653 1.409 . S
C651 H643 0.930 . S
C651 C652 1.355 . S
C651 C653 1.415 . S
C652 C651 1.355 . S
C652 C654 1.419 . S
C653 C648 1.425 . S
C653 C650 1.409 . S
C653 C651 1.415 . S
C654 H644 0.930 . S
C654 C652 1.419 . S
C654 C655 1.362 . S
C655 H645 0.930 . S
C655 C648 1.409 . S
C655 C654 1.362 . S
H656 C662 0.930 . S
H657 C665 0.930 . S
H658 C666 0.930 . S
H659 C667 0.930 . S
H660 C670 0.930 . S
H661 C671 0.930 . S
C662 H656 0.930 . S
C662 C663 1.355 . S
C662 C664 1.415 . S
C663 C662 1.355 . S
C663 C665 1.419 . S
C664 C662 1.415 . S
C664 C669 1.425 . S
C664 C671 1.409 . S
C665 H657 0.930 . S
C665 C663 1.419 . S
C665 C666 1.362 . S
C666 H658 0.930 . S
C666 C665 1.362 . S
C666 C669 1.409 . S
C667 H659 0.930 . S
C667 C668 1.355 . S
C667 C669 1.415 . S
C668 C667 1.355 . S
C668 C670 1.419 . S
C669 C664 1.425 . S
C669 C666 1.409 . S
C669 C667 1.415 . S
C670 H660 0.930 . S
C670 C668 1.419 . S
C670 C671 1.362 . S
C671 H661 0.930 . S
C671 C664 1.409 . S
C671 C670 1.362 . S
H672 C678 0.930 . S
H673 C681 0.930 . S
H674 C682 0.930 . S
H675 C683 0.930 . S
H676 C686 0.930 . S
H677 C687 0.930 . S
C678 H672 0.930 . S
C678 C679 1.355 . S
C678 C680 1.415 . S
C679 C678 1.355 . S
C679 C681 1.419 1_455 S
C680 C678 1.415 . S
C680 C685 1.425 . S
C680 C687 1.409 . S
C681 H673 0.930 . S
C681 C679 1.419 1_655 S
C681 C682 1.362 . S
C682 H674 0.930 . S
C682 C681 1.362 . S
C682 C685 1.409 1_655 S
C683 H675 0.930 . S
C683 C684 1.355 1_655 S
C683 C685 1.415 1_655 S
C684 C683 1.355 1_455 S
C684 C686 1.419 . S
C685 C680 1.425 . S
C685 C682 1.409 1_455 S
C685 C683 1.415 1_455 S
C686 H676 0.930 . S
C686 C684 1.419 . S
C686 C687 1.362 . S
C687 H677 0.930 . S
C687 C680 1.409 . S
C687 C686 1.362 . S
H688 C694 0.930 . S
H689 C697 0.930 . S
H690 C698 0.930 . S
H691 C699 0.930 . S
H692 C702 0.930 . S
H693 C703 0.930 . S
C694 H688 0.930 . S
C694 C695 1.355 . S
C694 C696 1.415 . S
C695 C694 1.355 . S
C695 C697 1.419 . S
C696 C694 1.415 . S
C696 C701 1.425 . S
C696 C703 1.409 . S
C697 H689 0.930 . S
C697 C695 1.419 . S
C697 C698 1.362 . S
C698 H690 0.930 . S
C698 C697 1.362 . S
C698 C701 1.409 . S
C699 H691 0.930 . S
C699 C700 1.355 . S
C699 C701 1.415 . S
C700 C699 1.355 . S
C700 C702 1.419 . S
C701 C696 1.425 . S
C701 C698 1.409 . S
C701 C699 1.415 . S
C702 H692 0.930 . S
C702 C700 1.419 . S
C702 C703 1.362 . S
C703 H693 0.930 . S
C703 C696 1.409 . S
C703 C702 1.362 . S
H704 C710 0.930 . S
H705 C713 0.930 . S
H706 C714 0.930 . S
H707 C715 0.930 . S
H708 C718 0.930 . S
H709 C719 0.930 . S
C710 H704 0.930 . S
C710 C711 1.355 . S
C710 C712 1.415 . S
C711 C710 1.355 . S
C711 C713 1.419 . S
C712 C710 1.415 . S
C712 C717 1.425 . S
C712 C719 1.409 . S
C713 H705 0.930 . S
C713 C711 1.419 . S
C713 C714 1.362 . S
C714 H706 0.930 . S
C714 C713 1.362 . S
C714 C717 1.409 . S
C715 H707 0.930 . S
C715 C716 1.355 . S
C715 C717 1.415 . S
C716 C715 1.355 . S
C716 C718 1.419 . S
C717 C712 1.425 . S
C717 C714 1.409 . S
C717 C715 1.415 . S
C718 H708 0.930 . S
C718 C716 1.419 . S
C718 C719 1.362 . S
C719 H709 0.930 . S
C719 C712 1.409 . S
C719 C718 1.362 . S
H720 C726 0.930 . S
H721 C729 0.930 . S
H722 C730 0.930 . S
H723 C731 0.930 . S
H724 C734 0.930 . S
H725 C735 0.930 . S
C726 H720 0.930 . S
C726 C727 1.355 . S
C726 C728 1.415 . S
C727 C726 1.355 . S
C727 C729 1.419 . S
C728 C726 1.415 . S
C728 C733 1.425 . S
C728 C735 1.409 . S
C729 H721 0.930 . S
C729 C727 1.419 . S
C729 C730 1.362 . S
C730 H722 0.930 . S
C730 C729 1.362 . S
C730 C733 1.409 . S
C731 H723 0.930 . S
C731 C732 1.355 . S
C731 C733 1.415 . S
C732 C731 1.355 . S
C732 C734 1.419 . S
C733 C728 1.425 . S
C733 C730 1.409 . S
C733 C731 1.415 . S
C734 H724 0.930 . S
C734 C732 1.419 . S
C734 C735 1.362 . S
C735 H725 0.930 . S
C735 C728 1.409 . S
C735 C734 1.362 . S
H736 C742 0.930 . S
H737 C745 0.930 . S
H738 C746 0.930 . S
H739 C747 0.930 . S
H740 C750 0.930 . S
H741 C751 0.930 . S
C742 H736 0.930 . S
C742 C743 1.355 . S
C742 C744 1.415 . S
C743 C742 1.355 . S
C743 C745 1.419 . S
C744 C742 1.415 . S
C744 C749 1.425 . S
C744 C751 1.409 . S
C745 H737 0.930 . S
C745 C743 1.419 . S
C745 C746 1.362 . S
C746 H738 0.930 . S
C746 C745 1.362 . S
C746 C749 1.409 . S
C747 H739 0.930 . S
C747 C748 1.355 . S
C747 C749 1.415 . S
C748 C747 1.355 . S
C748 C750 1.419 . S
C749 C744 1.425 . S
C749 C746 1.409 . S
C749 C747 1.415 . S
C750 H740 0.930 . S
C750 C748 1.419 . S
C750 C751 1.362 . S
C751 H741 0.930 . S
C751 C744 1.409 . S
C751 C750 1.362 . S
H752 C758 0.930 . S
H753 C761 0.930 . S
H754 C762 0.930 . S
H755 C763 0.930 . S
H756 C766 0.930 . S
H757 C767 0.930 . S
C758 H752 0.930 . S
C758 C759 1.355 . S
C758 C760 1.415 . S
C759 C758 1.355 . S
C759 C761 1.419 . S
C760 C758 1.415 . S
C760 C765 1.425 . S
C760 C767 1.409 . S
C761 H753 0.930 . S
C761 C759 1.419 . S
C761 C762 1.362 . S
C762 H754 0.930 . S
C762 C761 1.362 . S
C762 C765 1.409 . S
C763 H755 0.930 . S
C763 C764 1.355 . S
C763 C765 1.415 . S
C764 C763 1.355 . S
C764 C766 1.419 . S
C765 C760 1.425 . S
C765 C762 1.409 . S
C765 C763 1.415 . S
C766 H756 0.930 . S
C766 C764 1.419 . S
C766 C767 1.362 . S
C767 H757 0.930 . S
C767 C760 1.409 . S
C767 C766 1.362 . S
C487 C19 3.033 . S
C492 C451 3.019 . S
C503 C49 3.103 . S
C508 C301 2.907 . S
C519 C99 3.022 . S
C524 C361 2.877 . S
C535 C9 3.104 . S
C540 C421 2.910 . S
C556 C331 3.036 . S
C551 C59 3.016 . S
C572 C391 3.091 . S
C567 C89 3.109 . S
C583 C55 0.384 . S
C588 C181 0.524 . S
C599 C85 0.454 . S
C604 C271 0.482 . S
C615 C15 0.497 . S
C620 C151 0.455 . S
C636 C211 0.542 . S
C631 C45 0.547 . S
C652 C241 0.564 . S
C647 C95 0.388 . S
C663 C5 0.561 . S
C668 C121 0.411 . S
C684 C260 1.074 . S
C679 C18 1.009 . S
C695 C58 1.071 . S
C700 C140 1.041 . S
C711 C98 1.068 . S
C716 C200 1.015 . S
C732 C380 1.789 . S
C727 C48 1.681 . S
C748 C440 1.756 1_556 S
C743 C88 1.688 . S
C759 C8 1.692 . S
C764 C320 1.764 . S
