# Generated by pormake.
# Topology zzz, (3,6)-cn, num edge types: 1
# Building blocks:
#     Node 0, Type 0, BuildingBlock: VETTIZ_charged_linker_0, # of connection points: 3
#     Node 1, Type 0, BuildingBlock: VETTIZ_charged_linker_0, # of connection points: 3
#     Node 2, Type 0, BuildingBlock: VETTIZ_charged_linker_0, # of connection points: 3
#     Node 3, Type 0, BuildingBlock: VETTIZ_charged_linker_0, # of connection points: 3
#     Node 4, Type 0, BuildingBlock: VETTIZ_charged_linker_0, # of connection points: 3
#     Node 5, Type 0, BuildingBlock: VETTIZ_charged_linker_0, # of connection points: 3
#     Node 6, Type 0, BuildingBlock: VETTIZ_charged_linker_0, # of connection points: 3
#     Node 7, Type 0, BuildingBlock: VETTIZ_charged_linker_0, # of connection points: 3
#     Node 8, Type 1, BuildingBlock: HISSIN_clean_sbu_0, # of connection points: 6
#     Node 9, Type 1, BuildingBlock: HISSIN_clean_sbu_0, # of connection points: 6
#     Node 10, Type 1, BuildingBlock: HISSIN_clean_sbu_0, # of connection points: 6
#     Node 11, Type 1, BuildingBlock: HISSIN_clean_sbu_0, # of connection points: 6
#     Edge 12, Type (0, 1), BuildingBlock: AJUNOK_clean_linker_0, # of connection points: 2
#     Edge 13, Type (0, 1), BuildingBlock: AJUNOK_clean_linker_0, # of connection points: 2
#     Edge 14, Type (0, 1), BuildingBlock: AJUNOK_clean_linker_0, # of connection points: 2
#     Edge 15, Type (0, 1), BuildingBlock: AJUNOK_clean_linker_0, # of connection points: 2
#     Edge 16, Type (0, 1), BuildingBlock: AJUNOK_clean_linker_0, # of connection points: 2
#     Edge 17, Type (0, 1), BuildingBlock: AJUNOK_clean_linker_0, # of connection points: 2
#     Edge 18, Type (0, 1), BuildingBlock: AJUNOK_clean_linker_0, # of connection points: 2
#     Edge 19, Type (0, 1), BuildingBlock: AJUNOK_clean_linker_0, # of connection points: 2
#     Edge 20, Type (0, 1), BuildingBlock: AJUNOK_clean_linker_0, # of connection points: 2
#     Edge 21, Type (0, 1), BuildingBlock: AJUNOK_clean_linker_0, # of connection points: 2
#     Edge 22, Type (0, 1), BuildingBlock: AJUNOK_clean_linker_0, # of connection points: 2
#     Edge 23, Type (0, 1), BuildingBlock: AJUNOK_clean_linker_0, # of connection points: 2
#     Edge 24, Type (0, 1), BuildingBlock: AJUNOK_clean_linker_0, # of connection points: 2
#     Edge 25, Type (0, 1), BuildingBlock: AJUNOK_clean_linker_0, # of connection points: 2
#     Edge 26, Type (0, 1), BuildingBlock: AJUNOK_clean_linker_0, # of connection points: 2
#     Edge 27, Type (0, 1), BuildingBlock: AJUNOK_clean_linker_0, # of connection points: 2
#     Edge 28, Type (0, 1), BuildingBlock: AJUNOK_clean_linker_0, # of connection points: 2
#     Edge 29, Type (0, 1), BuildingBlock: AJUNOK_clean_linker_0, # of connection points: 2
#     Edge 30, Type (0, 1), BuildingBlock: AJUNOK_clean_linker_0, # of connection points: 2
#     Edge 31, Type (0, 1), BuildingBlock: AJUNOK_clean_linker_0, # of connection points: 2
#     Edge 32, Type (0, 1), BuildingBlock: AJUNOK_clean_linker_0, # of connection points: 2
#     Edge 33, Type (0, 1), BuildingBlock: AJUNOK_clean_linker_0, # of connection points: 2
#     Edge 34, Type (0, 1), BuildingBlock: AJUNOK_clean_linker_0, # of connection points: 2
#     Edge 35, Type (0, 1), BuildingBlock: AJUNOK_clean_linker_0, # of connection points: 2
# Relax obj value: 0.459
# Max RMSD: 0.243
# Mean RMSD: 0.198
data_MOF--net-zzz--node1-HISSIN_clean_sbu_0--node2-VETTIZ_charged_linker_0--edge1-AJUNOK_clean_linker_0
_symmetry_space_group_name_H-M    P1
_symmetry_Int_Tables_number       1
_symmetry_cell_setting            triclinic
loop_
_symmetry_equiv_pos_as_xyz
'x, y, z'
_cell_length_a     43.541995
_cell_length_b     43.462394
_cell_length_c     16.881222
_cell_angle_alpha  89.830395
_cell_angle_beta   91.335174
_cell_angle_gamma 91.446147
loop_
_atom_site_label
_atom_site_type_symbol
_atom_site_fract_x
_atom_site_fract_y
_atom_site_fract_z
_atom_type_partial_charge
C0 C 0.83753 0.55509 0.39811 0.0
C1 C 0.86295 0.5721 0.43395 0.0
C2 C 0.86748 0.60307 0.41029 0.0
C3 C 0.82813 0.59765 0.30863 0.0
C4 C 0.81965 0.56903 0.3361 0.0
C5 C 0.78986 0.55818 0.29219 0.0
H6 H 0.6854 0.59572 0.98724 0.0
C7 C 0.80911 0.6058 0.24012 0.0
C8 C 0.78457 0.58438 0.23133 0.0
H9 H 0.67735 0.51538 0.13581 0.0
H10 H 0.72506 0.53122 0.20859 0.0
H11 H 0.7113 0.64719 0.1095 0.0
H12 H 0.74206 0.58557 0.942 0.0
H13 H 0.77807 0.60244 0.96639 0.0
H14 H 0.74772 0.62515 0.92228 0.0
H15 H 0.70916 0.64879 1.00305 0.0
H16 H 0.74111 0.66622 0.05769 0.0
C17 C 0.76375 0.55578 0.35186 0.0
C18 C 0.7952 0.52735 0.25092 0.0
C19 C 0.86203 0.6501 1.0079 0.0
C20 C 0.85 0.65034 0.92981 0.0
C21 C 0.81943 0.65929 0.91729 0.0
C22 C 0.79947 0.65961 0.98115 0.0
C23 C 0.81025 0.64939 0.05539 0.0
C24 C 0.84147 0.64833 0.07054 0.0
C25 C 0.84856 0.63757 0.15379 0.0
C26 C 0.81636 0.6269 0.17917 0.0
C27 C 0.79452 0.6324 0.11917 0.0
C28 C 0.86186 0.66538 0.20152 0.0
C29 C 0.87132 0.61072 0.15266 0.0
C30 C 0.69319 0.58182 0.03685 0.0
C31 C 0.67699 0.55485 0.05665 0.0
C32 C 0.68912 0.53663 0.1195 0.0
C33 C 0.71663 0.54584 0.16186 0.0
C34 C 0.73263 0.57314 0.14001 0.0
C35 C 0.72077 0.58996 0.07687 0.0
C36 C 0.742 0.61526 0.05086 0.0
C37 C 0.76727 0.61367 0.11403 0.0
C38 C 0.76231 0.58885 0.16746 0.0
C39 C 0.72506 0.64609 0.0549 0.0
C40 C 0.75311 0.60698 0.96638 0.0
H41 H 0.85201 0.64018 0.33834 0.0
H42 H 0.83177 0.532 0.41794 0.0
H43 H 0.81519 0.52947 0.21127 0.0
H44 H 0.77497 0.51995 0.21434 0.0
H45 H 0.79995 0.50905 0.2953 0.0
H46 H 0.76164 0.57791 0.38392 0.0
H47 H 0.76837 0.53744 0.39627 0.0
H48 H 0.74136 0.55048 0.32231 0.0
H49 H 0.88594 0.64496 1.01868 0.0
H50 H 0.80995 0.66122 0.85764 0.0
H51 H 0.77583 0.66461 0.96929 0.0
H52 H 0.87347 0.68245 0.16272 0.0
H53 H 0.87997 0.65844 0.24478 0.0
H54 H 0.84353 0.67756 0.23263 0.0
H55 H 0.86236 0.59185 0.1135 0.0
H56 H 0.8755 0.60102 0.21243 0.0
H57 H 0.89416 0.61863 0.13155 0.0
H58 H 0.88546 0.61747 0.43721 0.0
C59 C 0.84954 0.61601 0.35017 0.0
C60 C 0.89279 0.81251 0.02524 0.0
C61 C 0.88449 0.84181 0.05281 0.0
C62 C 0.87007 0.84282 0.12685 0.0
C63 C 0.89274 0.79455 0.15948 0.0
C64 C 0.89714 0.78887 0.08062 0.0
C65 C 0.91457 0.75978 0.06971 0.0
H66 H 0.03641 0.68819 0.10821 0.0
C67 C 0.9155 0.77707 0.20548 0.0
C68 C 0.92545 0.75393 0.15566 0.0
H69 H 0.94887 0.64794 0.02772 0.0
H70 H 0.92231 0.6864 0.10318 0.0
H71 H 0.01866 0.76815 0.11617 0.0
H72 H 1.00175 0.70318 0.30802 0.0
H73 H 0.02469 0.73705 0.33011 0.0
H74 H 0.0398 0.70746 0.26902 0.0
H75 H 0.04982 0.74585 0.15589 0.0
H76 H 0.03504 0.77704 0.2122 0.0
C77 C 0.94174 0.76508 1.01315 0.0
C78 C 0.8918 0.73504 0.03643 0.0
C79 C 0.96858 0.84294 0.41605 0.0
C80 C 0.99858 0.84754 0.44595 0.0
C81 C 0.02112 0.82715 0.4182 0.0
C82 C 1.01327 0.8028 0.36346 0.0
C83 C 0.98268 0.79902 0.33445 0.0
C84 C 0.96137 0.8196 0.3609 0.0
C85 C 0.93123 0.81682 0.31759 0.0
C86 C 0.93625 0.78914 0.26507 0.0
C87 C 0.96662 0.77804 0.27396 0.0
C88 C 0.92668 0.84732 0.27048 0.0
C89 C 0.90576 0.80994 0.37786 0.0
C90 C 1.01157 0.68825 0.10453 0.0
C91 C 0.99481 0.66587 0.05662 0.0
C92 C 0.96243 0.66546 0.05901 0.0
C93 C 0.94697 0.6879 0.09986 0.0
C94 C 0.96373 0.71152 0.13749 0.0
C95 C 0.99498 0.71056 0.14782 0.0
C96 C 1.0053 0.73555 0.20894 0.0
C97 C 0.97481 0.75171 0.22664 0.0
C98 C 0.95199 0.73801 0.17749 0.0
C99 C 0.0286 0.75797 0.17127 0.0
C100 C 0.01871 0.71998 0.2834 0.0
H101 H 0.86636 0.82132 0.24075 0.0
H102 H 0.90107 0.80954 0.96612 0.0
H103 H 0.87732 0.74474 0.98777 0.0
H104 H 0.87622 0.72637 0.08304 0.0
H105 H 0.90375 0.71564 1.00944 0.0
H106 H 0.95723 0.7841 0.03503 0.0
H107 H 0.93344 0.77073 0.9523 0.0
H108 H 0.95543 0.74411 1.00736 0.0
H109 H 0.95085 0.85882 0.431 0.0
H110 H 0.04476 0.83002 0.43868 0.0
H111 H 0.03111 0.78813 0.34371 0.0
H112 H 0.94247 0.86645 0.28987 0.0
H113 H 0.90345 0.85652 0.27835 0.0
H114 H 0.93138 0.84429 0.20664 0.0
H115 H 0.91308 0.79197 0.42091 0.0
H116 H 0.88438 0.80097 0.34874 0.0
H117 H 0.90038 0.83096 0.41167 0.0
H118 H 0.85982 0.86364 0.14729 0.0
C119 C 0.87425 0.81878 0.18127 0.0
C120 C 0.85081 1.00813 0.07791 0.0
C121 C 0.87199 0.99142 0.03069 0.0
C122 C 0.87125 0.95913 0.03666 0.0
C123 C 0.8258 0.96003 0.11559 0.0
C124 C 0.82806 0.99141 0.12272 0.0
C125 C 0.80338 1.0018 0.18129 0.0
H126 H 0.68108 0.94725 0.41642 0.0
C127 C 0.79843 0.94809 0.15475 0.0
C128 C 0.78535 0.97133 0.19998 0.0
H129 H 0.70753 0.04281 0.39388 0.0
H130 H 0.7499 0.02864 0.30583 0.0
H131 H 0.6699 0.93932 0.27404 0.0
H132 H 0.74765 0.90882 0.39614 0.0
H133 H 0.73209 0.88019 0.33 0.0
H134 H 0.7075 0.89796 0.39969 0.0
H135 H 0.67673 0.8999 0.27107 0.0
H136 H 0.68857 0.92576 0.19217 0.0
C137 C 0.78283 0.02559 0.14041 0.0
C138 C 0.8192 0.01501 0.2565 0.0
C139 C 0.72591 0.88632 1.00452 0.0
C140 C 0.69511 0.88581 0.02772 0.0
C141 C 0.68858 0.87299 0.10226 0.0
C142 C 0.71195 0.87278 0.16093 0.0
C143 C 0.74021 0.88675 0.1431 0.0
C144 C 0.74884 0.88826 0.06476 0.0
C145 C 0.78028 0.90323 0.05841 0.0
C146 C 0.78226 0.9202 0.13849 0.0
C147 C 0.75763 0.91138 0.18629 0.0
C148 C 0.78232 0.9248 0.98521 0.0
C149 C 0.80319 0.87683 0.05267 0.0
C150 C 0.69618 0.96538 0.39442 0.0
C151 C 0.69031 0.99607 0.41264 0.0
C152 C 0.71098 0.01875 0.38125 0.0
C153 C 0.73544 1.01061 0.3299 0.0
C154 C 0.73912 0.97952 0.30785 0.0
C155 C 0.71891 0.95787 0.33999 0.0
C156 C 0.71953 0.92758 0.29853 0.0
C157 C 0.74616 0.93281 0.2421 0.0
C158 C 0.75873 0.96332 0.24779 0.0
C159 C 0.68737 0.92261 0.25672 0.0
C160 C 0.72701 0.90215 0.35945 0.0
H161 H 0.85007 0.91912 0.08804 0.0
H162 H 0.85188 0.03302 0.07931 0.0
H163 H 0.83444 0.99769 0.28435 0.0
H164 H 0.80207 0.02152 0.30054 0.0
H165 H 0.83343 0.03577 0.24208 0.0
H166 H 0.77445 0.01696 0.08174 0.0
H167 H 0.79591 0.04751 0.1305 0.0
H168 H 0.76265 0.03055 0.17647 0.0
H169 H 0.73089 0.89349 0.94474 0.0
H170 H 0.665 0.86935 0.11986 0.0
H171 H 0.70663 0.8659 0.22038 0.0
H172 H 0.76539 0.94341 0.98809 0.0
H173 H 0.77832 0.91167 0.92948 0.0
H174 H 0.80531 0.93559 0.97908 0.0
H175 H 0.79397 0.85846 1.01223 0.0
H176 H 0.80739 0.86616 0.11166 0.0
H177 H 0.82517 0.88431 0.02655 0.0
H178 H 0.88786 0.94579 1.00574 0.0
C179 C 0.84905 0.94359 0.08105 0.0
C180 C 0.52005 0.71215 0.37217 0.0
C181 C 0.50252 0.69174 0.42202 0.0
C182 C 0.47026 0.69327 0.41698 0.0
C183 C 0.47288 0.72949 0.30844 0.0
C184 C 0.50435 0.73174 0.31661 0.0
C185 C 0.51628 0.75827 0.26355 0.0
H186 H 0.47443 0.86106 0.96085 0.0
C187 C 0.46215 0.74966 0.24435 0.0
C188 C 0.48679 0.76859 0.21875 0.0
H189 H 0.56433 0.85927 0.07248 0.0
H190 H 0.54667 0.81709 0.16055 0.0
H191 H 0.46483 0.80022 0.93165 0.0
H192 H 0.43575 0.85498 0.11863 0.0
H193 H 0.40454 0.82978 0.09541 0.0
H194 H 0.42087 0.85361 1.01854 0.0
H195 H 0.42562 0.81028 0.934 0.0
H196 H 0.43852 0.77391 0.97298 0.0
C197 C 0.54005 0.74618 0.20622 0.0
C198 C 0.52982 0.78407 0.31695 0.0
C199 C 0.37224 0.71092 0.07781 0.0
C200 C 0.36018 0.72169 1.00509 0.0
C201 C 0.36361 0.7532 0.98697 0.0
C202 C 0.38334 0.77216 0.0333 0.0
C203 C 0.40002 0.75919 0.09693 0.0
C204 C 0.39239 0.72995 0.12241 0.0
C205 C 0.41059 0.72093 0.1953 0.0
C206 C 0.43382 0.74805 0.20124 0.0
C207 C 0.42805 0.76955 0.14135 0.0
C208 C 0.42649 0.69007 0.18045 0.0
C209 C 0.38802 0.71894 0.2651 0.0
C210 C 0.49061 0.85188 1.00399 0.0
C211 C 0.52078 0.86366 1.00853 0.0
C212 C 0.54076 0.85083 0.06713 0.0
C213 C 0.53055 0.82647 0.11833 0.0
C214 C 0.4999 0.81501 0.11199 0.0
C215 C 0.48087 0.8282 0.05488 0.0
C216 C 0.44937 0.81405 0.05199 0.0
C217 C 0.45156 0.79075 0.11859 0.0
C218 C 0.48123 0.79054 0.15512 0.0
C219 C 0.44407 0.79889 0.96883 0.0
C220 C 0.42623 0.83935 0.07156 0.0
H221 H 0.43141 0.71463 0.36615 0.0
H222 H 0.54487 0.71309 0.37726 0.0
H223 H 0.51273 0.79104 0.36099 0.0
H224 H 0.53625 0.80476 0.28246 0.0
H225 H 0.55061 0.77615 0.34973 0.0
H226 H 0.52994 0.72684 0.17045 0.0
H227 H 0.5605 0.73771 0.23941 0.0
H228 H 0.54779 0.76444 0.16485 0.0
H229 H 0.36901 0.68705 0.0948 0.0
H230 H 0.3535 0.76238 0.93293 0.0
H231 H 0.38638 0.79561 1.01483 0.0
H232 H 0.44089 0.69171 0.12697 0.0
H233 H 0.40935 0.67097 0.17179 0.0
H234 H 0.44143 0.68331 0.23099 0.0
H235 H 0.36353 0.71773 0.24477 0.0
H236 H 0.3906 0.73941 0.30422 0.0
H237 H 0.39118 0.69768 0.30068 0.0
H238 H 0.45598 0.67918 0.45516 0.0
C239 C 0.45569 0.71264 0.36293 0.0
C240 C 0.36321 0.50363 0.30627 0.0
C241 C 0.36946 0.50669 0.38962 0.0
C242 C 0.34424 0.5096 0.43975 0.0
C243 C 0.30895 0.49659 0.3325 0.0
C244 C 0.33204 0.49963 0.27861 0.0
C245 C 0.31829 0.49517 0.19463 0.0
H246 H 0.18019 0.4487 1.00584 0.0
C247 C 0.28112 0.48403 0.29297 0.0
C248 C 0.28413 0.48733 0.21058 0.0
H249 H 0.22403 0.53587 0.94898 0.0
H250 H 0.26304 0.52703 0.05549 0.0
H251 H 0.2484 0.40956 0.04964 0.0
H252 H 0.1691 0.4443 0.13227 0.0
H253 H 0.18699 0.44558 0.22629 0.0
H254 H 0.17915 0.40932 0.17564 0.0
H255 H 0.20882 0.39666 0.05119 0.0
H256 H 0.23538 0.38723 0.13048 0.0
C257 C 0.33378 0.46832 0.15333 0.0
C258 C 0.32204 0.525 0.14649 0.0
C259 C 0.20365 0.42027 0.44055 0.0
C260 C 0.17931 0.40217 0.40677 0.0
C261 C 0.18583 0.38381 0.34076 0.0
C262 C 0.21178 0.39097 0.29595 0.0
C263 C 0.23003 0.41666 0.31801 0.0
C264 C 0.22864 0.42818 0.39349 0.0
C265 C 0.25117 0.45467 0.40705 0.0
C266 C 0.26235 0.45974 0.32289 0.0
C267 C 0.24832 0.43838 0.2707 0.0
C268 C 0.27657 0.44367 0.46559 0.0
C269 C 0.23409 0.48304 0.43718 0.0
C270 C 0.19875 0.46549 1.01158 0.0
C271 C 0.19891 0.49241 0.96523 0.0
C272 C 0.22307 0.51444 0.98173 0.0
C273 C 0.24595 0.50927 0.04215 0.0
C274 C 0.24507 0.4817 0.08625 0.0
C275 C 0.221 0.46095 0.07159 0.0
C276 C 0.21991 0.43537 0.13126 0.0
C277 C 0.24537 0.44601 0.18924 0.0
C278 C 0.26227 0.47141 0.15932 0.0
C279 C 0.22844 0.40547 0.08864 0.0
C280 C 0.18739 0.43346 0.16854 0.0
H281 H 0.2958 0.50704 0.45208 0.0
H282 H 0.38186 0.50296 0.2651 0.0
H283 H 0.30863 0.54373 0.17261 0.0
H284 H 0.31416 0.52136 0.0842 0.0
H285 H 0.3466 0.53258 0.14569 0.0
H286 H 0.33146 0.44687 0.18902 0.0
H287 H 0.35862 0.47356 0.14535 0.0
H288 H 0.32296 0.46404 0.09397 0.0
H289 H 0.2006 0.43332 0.49406 0.0
H290 H 0.16847 0.36803 0.31624 0.0
H291 H 0.21478 0.37902 0.2413 0.0
H292 H 0.26722 0.4266 0.50856 0.0
H293 H 0.28641 0.46244 0.50288 0.0
H294 H 0.29539 0.43255 0.43377 0.0
H295 H 0.21178 0.48558 0.40457 0.0
H296 H 0.24717 0.5048 0.4277 0.0
H297 H 0.22941 0.48085 0.5014 0.0
H298 H 0.3479 0.51438 0.50228 0.0
C299 C 0.31419 0.50457 0.41163 0.0
C300 C 0.13764 0.20378 0.4227 0.0
C301 C 0.1562 0.18281 0.38308 0.0
C302 C 0.1709 0.19316 0.3138 0.0
C303 C 0.13453 0.2334 0.30275 0.0
C304 C 0.12609 0.22874 0.37988 0.0
C305 C 0.09879 0.2476 0.40023 0.0
H306 H 0.04115 0.37577 0.2761 0.0
C307 C 0.10982 0.24936 0.26084 0.0
C308 C 0.08967 0.2596 0.31806 0.0
H309 H 0.03845 0.33629 0.51256 0.0
H310 H 0.04588 0.28597 0.45767 0.0
H311 H 0.09479 0.33049 0.18528 0.0
H312 H 0.99836 0.30158 0.19099 0.0
H313 H 0.01686 0.30705 0.09726 0.0
H314 H 1.00826 0.33984 0.15693 0.0
H315 H 0.06595 0.35643 0.14915 0.0
H316 H 0.07399 0.3223 0.09389 0.0
C317 C 0.11007 0.27324 0.45832 0.0
C318 C 0.07314 0.22654 0.4346 0.0
C319 C 0.07654 0.19931 1.00584 0.0
C320 C 0.04716 0.19431 0.97117 0.0
C321 C 0.02387 0.21479 0.99477 0.0
C322 C 0.02992 0.23848 0.05238 0.0
C323 C 0.0595 0.24198 0.08734 0.0
C324 C 0.08174 0.22162 0.06538 0.0
C325 C 0.10974 0.2237 0.11875 0.0
C326 C 0.09935 0.24659 0.18084 0.0
C327 C 0.07159 0.26029 0.15755 0.0
C328 C 0.13641 0.23734 0.07002 0.0
C329 C 0.11654 0.19108 0.15293 0.0
C330 C 0.04238 0.35646 0.31652 0.0
C331 C 0.04198 0.36117 0.40088 0.0
C332 C 0.04164 0.33456 0.4493 0.0
C333 C 0.04647 0.3054 0.41832 0.0
C334 C 0.05159 0.30218 0.33774 0.0
C335 C 0.04602 0.32597 0.2861 0.0
C336 C 0.04742 0.31366 0.20075 0.0
C337 C 0.05652 0.27969 0.21307 0.0
C338 C 0.06321 0.27589 0.29444 0.0
C339 C 0.07199 0.33182 0.15454 0.0
C340 C 1.01583 0.31562 0.15902 0.0
H341 H 0.16984 0.22526 0.21776 0.0
H342 H 0.12713 0.19756 0.47815 0.0
H343 H 0.07034 0.20495 0.3996 0.0
H344 H 0.05054 0.23756 0.4326 0.0
H345 H 0.0786 0.22031 0.49714 0.0
H346 H 0.12974 0.26556 0.49603 0.0
H347 H 0.09239 0.27948 0.50089 0.0
H348 H 0.11782 0.29425 0.42594 0.0
H349 H 0.09509 0.18437 0.99142 0.0
H350 H 1.00091 0.21251 0.96931 0.0
H351 H 1.01149 0.25277 0.07107 0.0
H352 H 0.12887 0.25772 0.0353 0.0
H353 H 0.14473 0.22 0.02781 0.0
H354 H 0.15596 0.24541 0.10793 0.0
H355 H 0.1067 0.17184 0.1169 0.0
H356 H 0.1066 0.18773 0.21241 0.0
H357 H 0.14147 0.18666 0.15517 0.0
H358 H 0.18614 0.17856 0.28259 0.0
C359 C 0.16044 0.21931 0.27413 0.0
C360 C 0.337 0.03793 0.02384 0.0
C361 C 0.35722 0.05676 0.97569 0.0
C362 C 0.35119 0.08852 0.97099 0.0
C363 C 0.31536 0.08399 0.07667 0.0
C364 C 0.31497 0.05259 0.07294 0.0
C365 C 0.28898 0.04038 0.12751 0.0
H366 H 0.1947 0.08727 0.43976 0.0
C367 C 0.2977 0.09419 0.14307 0.0
C368 C 0.27878 0.06997 0.1709 0.0
H369 H 0.17942 1.00181 0.31502 0.0
H370 H 0.22258 0.01532 0.22646 0.0
H371 H 0.25588 0.08574 0.46865 0.0
H372 H 0.20359 0.12933 0.29997 0.0
H373 H 0.23472 0.15524 0.31936 0.0
H374 H 0.21273 0.14024 0.40081 0.0
H375 H 0.25931 0.12623 0.46763 0.0
H376 H 0.2876 0.103 0.42066 0.0
C377 C 0.30134 0.01658 0.1867 0.0
C378 C 0.26284 0.02663 0.07499 0.0
C379 C 0.35812 0.1583 0.33594 0.0
C380 C 0.35089 0.16223 0.41627 0.0
C381 C 0.3206 0.17073 0.43217 0.0
C382 C 0.29691 0.16332 0.37723 0.0
C383 C 0.30444 0.14849 0.30676 0.0
C384 C 0.33439 0.14983 0.28233 0.0
C385 C 0.3379 0.13423 0.20371 0.0
C386 C 0.30564 0.11947 0.19219 0.0
C387 C 0.28728 0.12596 0.25636 0.0
C388 C 0.36328 0.10985 0.21051 0.0
C389 C 0.34584 0.15921 0.14165 0.0
C390 C 0.20049 0.07089 0.39452 0.0
C391 C 0.18355 0.04324 0.38664 0.0
C392 C 0.19191 0.02342 0.3238 0.0
C393 C 0.21691 0.03116 0.27242 0.0
C394 C 0.2338 0.05914 0.28299 0.0
C395 C 0.22498 0.07803 0.34423 0.0
C396 C 0.24407 0.10679 0.35079 0.0
C397 C 0.26407 0.10431 0.27905 0.0
C398 C 0.25951 0.07581 0.23876 0.0
C399 C 0.26269 0.10561 0.43064 0.0
C400 C 0.22276 0.13453 0.34295 0.0
H401 H 0.32565 0.12623 1.01479 0.0
H402 H 0.33907 1.01318 0.02526 0.0
H403 H 0.25385 0.04429 0.03331 0.0
H404 H 0.24356 0.01791 0.11068 0.0
H405 H 0.27124 1.00716 0.03962 0.0
H406 H 0.32065 0.02677 0.22294 0.0
H407 H 0.30981 0.99619 0.15508 0.0
H408 H 0.28297 1.00878 0.22726 0.0
H409 H 0.38163 0.15545 0.3189 0.0
H410 H 0.3146 0.17797 0.49102 0.0
H411 H 0.27367 0.16687 0.3941 0.0
H412 H 0.35796 0.09285 0.25795 0.0
H413 H 0.38613 0.12073 0.22377 0.0
H414 H 0.36601 0.09719 0.15457 0.0
H415 H 0.36063 0.17791 0.16815 0.0
H416 H 0.32473 0.16981 0.1168 0.0
H417 H 0.35946 0.14992 0.09296 0.0
H418 H 0.36374 0.10333 0.93065 0.0
C419 C 0.33013 0.10201 1.0203 0.0
C420 C 0.52445 0.33519 1.01372 0.0
C421 C 0.54267 0.35046 0.95503 0.0
C422 C 0.57267 0.33994 0.94408 0.0
C423 C 0.56861 0.30605 0.05716 0.0
C424 C 0.53782 0.31178 0.06237 0.0
C425 C 0.5237 0.29061 0.12579 0.0
H426 H 0.5563 0.1984 0.45161 0.0
C427 C 0.5785 0.28678 0.12418 0.0
C428 C 0.55211 0.27382 0.15977 0.0
H429 H 0.48203 0.17546 0.28688 0.0
H430 H 0.50023 0.21676 0.19734 0.0
H431 H 0.60441 0.20067 0.32844 0.0
H432 H 0.55436 0.27158 0.4387 0.0
H433 H 0.58878 0.2903 0.41212 0.0
H434 H 0.58971 0.25844 0.48119 0.0
H435 H 0.61001 0.21275 0.42955 0.0
H436 H 0.63111 0.23058 0.35086 0.0
C437 C 0.49989 0.26846 0.08654 0.0
C438 C 0.50893 0.31001 0.19005 0.0
C439 C 0.6771 0.32759 0.25483 0.0
C440 C 0.68296 0.33238 0.33649 0.0
C441 C 0.66926 0.31123 0.3898 0.0
C442 C 0.64686 0.28979 0.3638 0.0
C443 C 0.63679 0.29011 0.28432 0.0
C444 C 0.65209 0.30851 0.23068 0.0
C445 C 0.63599 0.30844 0.15047 0.0
C446 C 0.60686 0.2892 0.16801 0.0
C447 C 0.60849 0.27755 0.24541 0.0
C448 C 0.65669 0.29176 0.09229 0.0
C449 C 0.62936 0.34208 0.12463 0.0
C450 C 0.54264 0.20285 0.39858 0.0
C451 C 0.51726 0.1836 0.37857 0.0
C452 C 0.50153 0.18981 0.30549 0.0
C453 C 0.51132 0.21432 0.25456 0.0
C454 C 0.53661 0.23345 0.27721 0.0
C455 C 0.55224 0.2265 0.34727 0.0
C456 C 0.58201 0.24423 0.35617 0.0
C457 C 0.58344 0.26046 0.27674 0.0
C458 C 0.55581 0.25668 0.2326 0.0
C459 C 0.6084 0.22107 0.36736 0.0
C460 C 0.57882 0.26723 0.42573 0.0
H461 H 0.60802 0.30991 0.98198 0.0
H462 H 0.50081 0.34143 1.02154 0.0
H463 H 0.52606 0.32663 0.21651 0.0
H464 H 0.50008 0.29496 0.2382 0.0
H465 H 0.48944 0.32312 0.16464 0.0
H466 H 0.51133 0.25068 0.05129 0.0
H467 H 0.48412 0.28122 0.0463 0.0
H468 H 0.48533 0.25708 0.1314 0.0
H469 H 0.68942 0.34069 0.21076 0.0
H470 H 0.67333 0.31282 0.45308 0.0
H471 H 0.6368 0.27531 0.40808 0.0
H472 H 0.66521 0.27001 0.11875 0.0
H473 H 0.67694 0.30656 0.07737 0.0
H474 H 0.64433 0.28519 0.03684 0.0
H475 H 0.60626 0.34912 0.14321 0.0
H476 H 0.63155 0.34544 0.06005 0.0
H477 H 0.64592 0.35918 0.15037 0.0
H478 H 0.58709 0.35013 0.89911 0.0
C479 C 0.58527 0.31741 0.99335 0.0
Eu480 Eu 1.00301 0.03495 0.63809 0.0
Eu481 Eu 0.04644 1.00697 0.76625 0.0
C482 C 0.03503 0.07918 0.77938 0.0
C483 C 1.00408 0.07923 0.4606 0.0
C484 C 1.01449 0.10912 0.48091 0.0
C485 C 0.05065 0.07289 0.38521 0.0
C486 C 0.04381 0.11939 0.46041 0.0
C487 C 0.02146 0.06218 0.40734 0.0
C488 C 0.06286 0.10039 0.41715 0.0
C489 C 0.98227 0.06306 0.5137 0.0
O490 O 0.99846 1.00859 0.82079 0.0
O491 O 0.96477 0.02458 0.72506 0.0
C492 C 0.97023 0.01545 0.79839 0.0
O493 O 0.99233 0.98358 0.62606 0.0
O494 O 0.05782 0.99923 0.89197 0.0
O495 O 0.07294 0.96714 0.80507 0.0
O496 O 0.04052 0.97185 0.66486 0.0
C497 C 1.01477 0.964 0.62749 0.0
O498 O 0.05148 0.03194 0.58367 0.0
O499 O 0.08462 0.02488 0.68865 0.0
O500 O 0.05524 0.05771 0.79419 0.0
O501 O 0.98427 0.03318 0.51658 0.0
O502 O 0.98071 0.07468 0.58464 0.0
O503 O 1.01197 0.0739 0.72865 0.0
C504 C 0.03979 0.94852 0.90245 0.0
C505 C 1.01543 0.9427 0.84808 0.0
C506 C 1.00961 0.92312 1.00388 0.0
C507 C 0.98806 0.92897 0.87151 0.0
C508 C 0.03685 0.93839 0.98078 0.0
C509 C 0.98446 0.91918 0.94983 0.0
C510 C 0.06401 0.97062 0.87768 0.0
C511 C 0.07996 0.03004 0.61245 0.0
H512 H 1.00147 0.12325 0.52013 0.0
H513 H 0.06452 0.05862 0.34845 0.0
H514 H 0.05229 0.14152 0.48219 0.0
H515 H 1.01392 0.0393 0.38907 0.0
H516 H 0.01658 0.95074 0.78781 0.0
H517 H 1.00821 0.9148 0.06419 0.0
H518 H 0.96937 0.92705 0.82826 0.0
H519 H 0.05508 0.94296 0.0242 0.0
Eu520 Eu 0.53988 0.04388 0.75136 0.0
Eu521 Eu 0.50269 1.00073 0.62909 0.0
C522 C 0.53209 0.96799 0.78356 0.0
C523 C 0.60117 0.04913 0.88953 0.0
C524 C 0.60131 0.04101 0.97005 0.0
C525 C 0.63087 1.00405 0.86111 0.0
C526 C 0.61548 0.01411 0.99537 0.0
C527 C 0.61761 0.03126 0.83628 0.0
C528 C 0.62886 0.99479 0.94003 0.0
C529 C 0.57635 0.06805 0.85731 0.0
O530 O 0.46762 1.01113 0.72553 0.0
O531 O 0.49088 0.0518 0.78978 0.0
C532 C 0.46688 0.03305 0.77935 0.0
O533 O 0.52336 0.08095 0.66739 0.0
O534 O 0.46569 0.96722 0.60007 0.0
O535 O 0.48978 0.99014 0.50594 0.0
O536 O 0.50124 0.04898 0.57387 0.0
C537 C 0.51016 0.07675 0.59734 0.0
O538 O 0.57637 0.03124 0.66071 0.0
O539 O 0.55134 0.99474 0.58432 0.0
O540 O 0.52135 0.96371 0.71076 0.0
O541 O 0.5782 0.07549 0.78259 0.0
O542 O 0.54907 0.05737 0.87428 0.0
O543 O 0.53893 0.99601 0.80929 0.0
C544 C 0.43662 0.99617 0.50784 0.0
C545 C 0.41747 1.00449 0.56988 0.0
C546 C 0.42186 0.04257 0.4375 0.0
C547 C 0.40353 0.03299 0.56965 0.0
C548 C 0.43679 0.01447 0.43908 0.0
C549 C 0.40662 0.05295 0.50468 0.0
C550 C 0.46378 0.97757 0.52749 0.0
C551 C 0.57638 1.01136 0.60169 0.0
H552 H 0.58848 0.05409 1.012 0.0
H553 H 0.64236 0.99002 0.81847 0.0
H554 H 0.61488 1.00768 0.05738 0.0
H555 H 0.61826 0.0369 0.7739 0.0
H556 H 0.4162 0.99066 0.62302 0.0
H557 H 0.42375 0.05699 0.3853 0.0
H558 H 0.39226 0.04004 0.62283 0.0
H559 H 0.45118 1.00871 0.39002 0.0
Eu560 Eu 0.50368 0.53749 0.76718 0.0
Eu561 Eu 0.55363 0.51479 0.64318 0.0
C562 C 0.57537 0.53458 0.82326 0.0
C563 C 0.43312 0.57145 0.86179 0.0
C564 C 0.42139 0.58331 0.79014 0.0
C565 C 0.39532 0.59925 0.93357 0.0
C566 C 0.39727 0.604 0.79064 0.0
C567 C 0.41916 0.57849 0.9329 0.0
C568 C 0.38507 0.61338 0.86292 0.0
C569 C 0.46162 0.55433 0.86477 0.0
O570 O 0.53705 0.47021 0.70417 0.0
O571 O 0.51811 0.49115 0.81654 0.0
C572 C 0.52731 0.46703 0.77751 0.0
O573 O 0.47538 0.51565 0.66606 0.0
O574 O 0.5992 0.52274 0.59487 0.0
O575 O 0.56984 0.48502 0.55039 0.0
O576 O 0.50999 0.51829 0.56625 0.0
C577 C 0.48157 0.51487 0.59015 0.0
O578 O 0.50582 0.57726 0.67823 0.0
O579 O 0.55008 0.56602 0.61487 0.0
O580 O 0.57981 0.51689 0.76171 0.0
O581 O 0.4611 0.52775 0.8292 0.0
O582 O 0.48668 0.57043 0.85144 0.0
O583 O 0.54957 0.54951 0.829 0.0
C584 C 0.62398 0.47945 0.54409 0.0
C585 C 0.62287 0.44844 0.56739 0.0
C586 C 0.67406 0.47201 0.48769 0.0
C587 C 0.64642 0.42899 0.54679 0.0
C588 C 0.65041 0.49144 0.50792 0.0
C589 C 0.6713 0.44028 0.50256 0.0
C590 C 0.59687 0.49881 0.54849 0.0
C591 C 0.52746 0.58479 0.62772 0.0
H592 H 0.4319 0.57782 0.73454 0.0
H593 H 0.38675 0.60614 0.99041 0.0
H594 H 0.38953 0.61412 0.73521 0.0
H595 H 0.42792 0.5694 0.98861 0.0
H596 H 0.60291 0.43878 0.59656 0.0
H597 H 0.69314 0.48129 0.4543 0.0
H598 H 0.64364 0.40458 0.55873 0.0
H599 H 0.65184 0.51544 0.49045 0.0
Eu600 Eu 0.04101 0.54785 0.64318 0.0
Eu601 Eu 1.01074 0.49991 0.75809 0.0
C602 C 0.08416 0.51181 0.77749 0.0
C603 C 0.07999 0.55701 0.46069 0.0
C604 C 0.06111 0.53602 0.41674 0.0
C605 C 0.12307 0.52379 0.44264 0.0
C606 C 0.07261 0.50784 0.39304 0.0
C607 C 0.11173 0.55206 0.46537 0.0
C608 C 0.10295 0.50067 0.41271 0.0
C609 C 0.06626 0.57526 0.52412 0.0
O610 O 1.00854 0.54625 0.82268 0.0
O611 O 0.03607 0.58036 0.74696 0.0
C612 C 0.02138 0.57381 0.81245 0.0
O613 O 0.99058 0.56006 0.6419 0.0
O614 O 0.99754 0.48438 0.87623 0.0
O615 O 0.97515 0.464 0.77313 0.0
O616 O 0.97633 0.51044 0.65771 0.0
C617 C 0.96961 0.53813 0.6333 0.0
O618 O 0.03434 0.50166 0.5757 0.0
O619 O 0.03435 0.46722 0.67725 0.0
O620 O 0.06041 0.4943 0.79733 0.0
O621 O 0.03652 0.57247 0.53028 0.0
O622 O 0.08012 0.57297 0.59321 0.0
O623 O 0.08162 0.53347 0.72287 0.0
C624 C 0.94386 0.48898 0.86387 0.0
C625 C 0.92118 0.49209 0.80334 0.0
C626 C 0.9276 0.5371 0.92047 0.0
C627 C 0.90354 0.51851 0.79854 0.0
C628 C 0.94496 0.51061 0.92581 0.0
C629 C 0.90812 0.542 0.85449 0.0
C630 C 0.97209 0.47198 0.84699 0.0
C631 C 0.03646 0.47303 0.60128 0.0
H632 H 0.03663 0.53941 0.40982 0.0
H633 H 0.14695 0.51889 0.45566 0.0
H634 H 0.05716 0.49062 0.36692 0.0
H635 H 0.12699 0.56802 0.49724 0.0
H636 H 0.91931 0.47576 0.75499 0.0
H637 H 0.93051 0.55452 0.96604 0.0
H638 H 0.88791 0.52151 0.74839 0.0
H639 H 0.96175 0.50886 0.97388 0.0
C640 C 0.12755 0.02843 0.41994 0.0
C641 C 0.15784 0.03651 0.44522 0.0
C642 C 0.10287 0.02623 0.47387 0.0
C643 C 0.10695 0.03205 0.55614 0.0
H644 H 0.12261 0.02463 0.3575 0.0
H645 H 0.08026 0.01978 0.45068 0.0
S646 S 0.182 0.05195 0.65475 0.0
N647 N 0.19046 0.04853 0.56043 0.0
N648 N 0.14466 0.0449 0.65965 0.0
C649 C 0.1373 0.0392 0.58234 0.0
C650 C 0.16237 0.0414 0.52775 0.0
C651 C 0.51305 0.15971 0.51609 0.0
C652 C 0.50986 0.15641 0.43283 0.0
C653 C 0.51198 0.13425 0.56836 0.0
C654 C 0.50726 0.10385 0.54084 0.0
H655 H 0.51736 0.18231 0.54146 0.0
H656 H 0.51565 0.13849 0.63108 0.0
S657 S 0.49477 0.08199 0.32927 0.0
N658 N 0.49996 0.11974 0.32632 0.0
N659 N 0.49721 0.07229 0.42379 0.0
C660 C 0.50229 0.10024 0.45813 0.0
C661 C 0.50364 0.12627 0.40463 0.0
C662 C 0.42512 0.52618 0.41303 0.0
C663 C 0.40091 0.50506 0.42945 0.0
C664 C 0.45198 0.52832 0.4626 0.0
C665 C 0.45544 0.5098 0.5312 0.0
H666 H 0.42266 0.54216 0.36412 0.0
H667 H 0.46941 0.54569 0.44942 0.0
S668 S 0.40091 0.44807 0.59431 0.0
N669 N 0.38435 0.46279 0.51433 0.0
N670 N 0.43351 0.46778 0.60772 0.0
C671 C 0.43214 0.48768 0.54554 0.0
C672 C 0.40536 0.48503 0.49466 0.0
C673 C 0.05946 0.39532 0.51626 0.0
C674 C 0.04283 0.39228 0.44324 0.0
C675 C 0.05724 0.42122 0.56576 0.0
C676 C 0.03954 0.44661 0.54392 0.0
H677 H 0.07397 0.37696 0.53704 0.0
H678 H 0.06962 0.42129 0.62215 0.0
S679 S 0.99276 0.45249 0.35772 0.0
N680 N 1.00838 0.41834 0.35141 0.0
N681 N 1.00564 0.46763 0.44223 0.0
C682 C 0.02399 0.44493 0.46944 0.0
C683 C 0.0255 0.41791 0.41959 0.0
C684 C 0.88954 1.00934 0.89423 0.0
C685 C 0.89609 1.00523 0.9761 0.0
C686 C 0.91316 1.01352 0.83769 0.0
C687 C 0.94475 1.01304 0.85952 0.0
H688 H 0.86589 1.00786 0.873 0.0
H689 H 0.90651 0.01596 0.77583 0.0
S690 S 0.97448 1.00403 0.06699 0.0
N691 N 0.93679 1.00189 0.07557 0.0
N692 N 0.98067 1.00935 0.97178 0.0
C693 C 0.95145 1.00968 0.94175 0.0
C694 C 0.92743 1.00581 0.99895 0.0
C695 C 0.52229 0.88598 0.86937 0.0
C696 C 0.52974 0.88911 0.95099 0.0
C697 C 0.52451 0.91098 0.8157 0.0
C698 C 0.53407 0.9408 0.84052 0.0
H699 H 0.51355 0.86402 0.84693 0.0
H700 H 0.51754 0.90701 0.75462 0.0
S701 S 0.55755 0.96137 0.04773 0.0
N702 N 0.54837 0.92435 0.05311 0.0
N703 N 0.5524 0.97125 0.95387 0.0
C704 C 0.54279 0.94397 0.92168 0.0
C705 C 0.54073 0.9183 0.97621 0.0
C706 C 0.62502 0.56759 0.99638 0.0
C707 C 0.64877 0.54628 1.00687 0.0
C708 C 0.60111 0.56322 0.93904 0.0
C709 C 0.60006 0.53765 0.88765 0.0
H710 H 0.62541 0.58842 0.03154 0.0
H711 H 0.5839 0.58069 0.9332 0.0
S712 S 0.65589 0.47418 0.89249 0.0
N713 N 0.66884 0.4979 0.96264 0.0
N714 N 0.62454 0.48973 0.85473 0.0
C715 C 0.62325 0.5157 0.899 0.0
C716 C 0.64732 0.51997 0.95841 0.0
C717 C 1.00021 0.61098 1.01059 0.0
C718 C 1.00877 0.6424 1.00274 0.0
C719 C 1.0051 0.58929 0.95022 0.0
C720 C 0.01867 0.59766 0.8777 0.0
H721 H 0.98813 0.6033 0.06273 0.0
H722 H 0.99718 0.56579 0.95993 0.0
S723 S 0.04644 0.67685 0.82744 0.0
N724 N 0.03245 0.68051 0.91698 0.0
N725 N 0.04196 0.64009 0.80408 0.0
C726 C 0.02858 0.62882 0.87033 0.0
C727 C 0.02358 0.65097 0.93235 0.0
C728 C 0.13256 0.13572 0.3241 0.0
C729 C 0.14712 0.14974 0.39097 0.0
C730 C 0.10662 0.11636 0.33248 0.0
C731 C 0.09544 0.1097 0.40791 0.0
H732 H 0.138 0.14335 0.26489 0.0
H733 H 0.09338 0.1096 0.27995 0.0
S734 S 0.13417 0.12841 0.60006 0.0
N735 N 0.1551 0.14674 0.53353 0.0
N736 N 0.10646 0.10996 0.54969 0.0
C737 C 0.11382 0.11791 0.47445 0.0
C738 C 0.14011 0.13765 0.46577 0.0
C739 C 0.39983 0.13819 0.46174 0.0
C740 C 0.36845 0.14303 0.4748 0.0
C741 C 0.4126 0.10937 0.47583 0.0
C742 C 0.39488 0.08478 0.50666 0.0
H743 H 0.41352 0.1554 0.43099 0.0
H744 H 0.43593 0.1058 0.45781 0.0
S745 S 0.31646 0.08996 0.58611 0.0
N746 N 0.32369 0.1241 0.54689 0.0
N747 N 0.34741 0.06991 0.57121 0.0
C748 C 0.36556 0.09117 0.53436 0.0
C749 C 0.3526 0.12056 0.52025 0.0
C750 C 0.70519 0.36504 0.44801 0.0
C751 C 0.69524 0.36282 0.36781 0.0
C752 C 0.70092 0.39193 0.49178 0.0
C753 C 0.68856 0.4181 0.45553 0.0
H754 H 0.7129 0.3449 0.47983 0.0
H755 H 0.7046 0.39131 0.55546 0.0
S756 S 0.67204 0.42923 0.24118 0.0
N757 N 0.68149 0.39288 0.24986 0.0
N758 N 0.67527 0.44335 0.3315 0.0
C759 C 0.68504 0.41835 0.37274 0.0
C760 C 0.6883 0.39075 0.32858 0.0
C761 C 0.13307 0.42508 0.34408 0.0
C762 C 0.1479 0.41449 0.41419 0.0
C763 C 0.11592 0.45195 0.34413 0.0
C764 C 0.11274 0.46847 0.41437 0.0
H765 H 0.13812 0.41533 0.28708 0.0
H766 H 0.10779 0.46137 0.28819 0.0
S767 S 0.13681 0.44414 0.61605 0.0
N768 N 0.14989 0.4173 0.55768 0.0
N769 N 0.11864 0.46853 0.55763 0.0
C770 C 0.12255 0.45513 0.4861 0.0
C771 C 0.1394 0.42751 0.48615 0.0
C772 C 0.91152 0.86893 0.94204 0.0
C773 C 0.90149 0.86948 1.02074 0.0
C774 C 0.938 0.88527 0.91945 0.0
C775 C 0.95463 0.90451 0.97311 0.0
H776 H 0.9005 0.85365 0.89893 0.0
H777 H 0.94623 0.88134 0.86042 0.0
S778 S 0.93083 0.92464 0.17554 0.0
N779 N 0.90597 0.89756 0.14615 0.0
N780 N 0.95408 0.92994 0.10083 0.0
C781 C 0.94204 0.90924 0.04772 0.0
C782 C 0.91562 0.89176 0.07185 0.0
C783 C 0.64959 0.9107 0.96043 0.0
C784 C 0.67736 0.91314 1.0042 0.0
C785 C 0.63329 0.93729 0.94013 0.0
C786 C 0.64396 0.96659 0.96562 0.0
H787 H 0.64076 0.88839 0.94107 0.0
H788 H 0.61236 0.93501 0.90443 0.0
S789 S 0.71439 0.9853 0.08268 0.0
N790 N 0.7145 0.94768 0.07137 0.0
N791 N 0.6829 0.99664 0.03673 0.0
C792 C 0.67105 0.96916 1.0105 0.0
C793 C 0.688 0.94264 0.02896 0.0
C794 C 0.33698 0.67139 0.96088 0.0
C795 C 0.35344 0.69861 0.942 0.0
C796 C 0.34381 0.64343 0.92487 0.0
C797 C 0.36727 0.64196 0.86906 0.0
H798 H 0.32184 0.67094 1.01093 0.0
H799 H 0.33345 0.62243 0.94798 0.0
S800 S 0.40972 0.70839 0.78151 0.0
N801 N 0.3883 0.72358 0.84977 0.0
N802 N 0.40129 0.67118 0.78285 0.0
C803 C 0.37959 0.66981 0.83948 0.0
C804 C 0.37254 0.69825 0.87584 0.0
C805 C 0.84598 0.60023 0.86167 0.0
C806 C 0.86313 0.62779 0.87538 0.0
C807 C 0.8606 0.57255 0.84743 0.0
C808 C 0.89271 0.57171 0.84559 0.0
H809 H 0.8215 0.59917 0.87162 0.0
H810 H 0.84693 0.55137 0.84539 0.0
S811 S 0.94676 0.63892 0.84984 0.0
N812 N 0.91295 0.65363 0.86702 0.0
N813 N 0.94055 0.60151 0.83824 0.0
C814 C 0.90964 0.59969 0.84699 0.0
C815 C 0.89476 0.62784 0.86193 0.0
C816 C 0.06578 0.15619 0.86747 0.0
C817 C 0.04181 0.16649 0.91593 0.0
C818 C 0.06358 0.12826 0.8242 0.0
C819 C 0.03688 0.10933 0.82435 0.0
H820 H 0.08691 0.16969 0.86325 0.0
H821 H 0.08299 0.12155 0.78977 0.0
S822 S 0.96693 0.1244 0.93832 0.0
N823 N 0.99018 0.15393 0.96032 0.0
N824 N 0.98557 0.10299 0.87566 0.0
C825 C 1.01229 0.11957 0.86966 0.0
C826 C 1.01478 0.14764 0.9157 0.0
C827 C 0.41308 0.06446 0.93802 0.0
C828 C 0.38559 0.04633 0.93193 0.0
C829 C 0.43862 0.05986 0.88944 0.0
C830 C 0.43873 0.03656 0.83136 0.0
H831 H 0.41469 0.08326 0.98011 0.0
H832 H 0.45843 0.07517 0.89728 0.0
S833 S 0.37387 0.98041 0.79434 0.0
N834 N 0.36097 1.00282 0.86446 0.0
N835 N 0.409 0.99327 0.7756 0.0
C836 C 0.41193 0.01719 0.82685 0.0
C837 C 0.38559 0.02217 0.87629 0.0
C838 C 0.52398 0.40545 0.94378 0.0
C839 C 0.53268 0.37811 0.90652 0.0
C840 C 0.52153 0.43358 0.90142 0.0
C841 C 0.52774 0.43599 0.81948 0.0
H842 H 0.5206 0.40551 1.00711 0.0
H843 H 0.51567 0.4539 0.93426 0.0
S844 S 0.54803 0.37037 0.69174 0.0
N845 N 0.54484 0.35488 0.7807 0.0
N846 N 0.54063 0.40719 0.70218 0.0
C847 C 0.53503 0.40844 0.78092 0.0
C848 C 0.53736 0.37982 0.82394 0.0
C849 C 0.15988 0.52742 0.89557 0.0
C850 C 0.17211 0.49781 0.90691 0.0
C851 C 0.1322 0.53198 0.85138 0.0
C852 C 0.11477 0.50709 0.81862 0.0
H853 H 0.17105 0.54724 0.92348 0.0
H854 H 0.12367 0.55511 0.84585 0.0
S855 S 0.1376 0.42554 0.82049 0.0
N856 N 0.16603 0.44381 0.86828 0.0
N857 N 0.1126 0.45212 0.79647 0.0
C858 C 0.12694 0.47765 0.82737 0.0
C859 C 0.15586 0.47312 0.86826 0.0
C860 C 0.03045 0.89552 0.48919 0.0
C861 C 1.00517 0.87504 0.50064 0.0
C862 C 0.03378 0.92378 0.53129 0.0
C863 C 1.01167 0.93332 0.58561 0.0
H864 H 0.04724 0.89027 0.44522 0.0
H865 H 0.05334 0.9388 0.51914 0.0
S866 S 0.94401 0.88664 0.64785 0.0
N867 N 0.95998 0.86518 0.58036 0.0
N868 N 0.96542 0.91847 0.65418 0.0
C869 C 0.9871 0.91266 0.6 0.0
C870 C 0.98411 0.88362 0.55915 0.0
C871 C 0.66103 0.01956 0.52921 0.0
C872 C 0.66091 1.00287 0.45737 0.0
C873 C 0.63401 0.02224 0.57502 0.0
C874 C 0.6053 1.00831 0.55199 0.0
H875 H 0.68236 0.02993 0.55148 0.0
H876 H 0.63587 0.03511 0.62987 0.0
S877 S 0.5916 0.96471 0.36444 0.0
N878 N 0.62849 0.97429 0.36295 0.0
N879 N 0.57884 0.97885 0.44778 0.0
C880 C 0.60485 0.99237 0.47899 0.0
C881 C 0.63216 0.98982 0.43243 0.0
C882 C 0.53284 0.64349 0.45482 0.0
C883 C 0.51558 0.6685 0.48049 0.0
C884 C 0.53781 0.61728 0.50378 0.0
C885 C 0.52534 0.6145 0.58039 0.0
H886 H 0.54103 0.6433 0.39475 0.0
H887 H 0.55022 0.59832 0.47958 0.0
S888 S 0.48179 0.67514 0.67998 0.0
N889 N 0.48897 0.68988 0.59186 0.0
N890 N 0.49738 0.6409 0.68147 0.0
C891 C 0.50948 0.64007 0.60807 0.0
C892 C 0.50493 0.66685 0.55904 0.0
C893 C 0.8975 0.57854 0.55667 0.0
C894 C 0.8858 0.55941 0.49444 0.0
C895 C 0.92404 0.57129 0.60186 0.0
C896 C 0.9398 0.54395 0.58942 0.0
H897 H 0.88677 0.6002 0.56864 0.0
H898 H 0.93252 0.58749 0.64638 0.0
S899 S 0.91749 0.48386 0.44149 0.0
N900 N 0.89163 0.51063 0.4273 0.0
N901 N 0.94024 0.49622 0.515 0.0
C902 C 0.92718 0.5234 0.53195 0.0
C903 C 0.90052 0.5312 0.48424 0.0
loop_
_geom_bond_atom_site_label_1
_geom_bond_atom_site_label_2
_geom_bond_distance
_geom_bond_site_symmetry_2
_ccdc_geom_bond_type
C0 C1 1.391 . S
C0 C4 1.391 . S
C0 H42 0.948 . S
C1 C0 1.391 . S
C1 C2 1.391 . S
C2 C1 1.391 . S
C2 H58 0.947 . S
C2 C59 1.392 . S
C3 C4 1.391 . S
C3 C7 1.397 . S
C3 C59 1.419 . S
C4 C0 1.391 . S
C4 C3 1.391 . S
C4 C5 1.399 . S
C5 C4 1.399 . S
C5 C8 1.396 . S
C5 C17 1.453 . S
C5 C18 1.684 . S
H6 C30 0.948 . S
C7 C3 1.397 . S
C7 C8 1.394 . S
C7 C26 1.723 . S
C8 C5 1.396 . S
C8 C7 1.394 . S
C8 C38 1.723 . S
H9 C32 0.947 . S
H10 C33 0.948 . S
H11 C39 0.982 . S
H12 C40 0.979 . S
H13 C40 0.980 . S
H14 C40 0.983 . S
H15 C39 0.979 . S
H16 C39 0.977 . S
C17 C5 1.453 . S
C17 H46 0.982 . S
C17 H47 0.979 . S
C17 H48 0.977 . S
C18 C5 1.684 . S
C18 H43 0.979 . S
C18 H44 0.980 . S
C18 H45 0.983 . S
C19 C20 1.391 . S
C19 C24 1.391 . S
C19 H49 0.948 . S
C20 C19 1.391 . S
C20 C21 1.391 . S
C21 C20 1.391 . S
C21 C22 1.392 . S
C21 H50 0.947 1_554 S
C22 C21 1.392 . S
C22 C23 1.419 . S
C22 H51 0.948 . S
C23 C22 1.419 . S
C23 C24 1.391 . S
C23 C27 1.397 . S
C24 C19 1.391 . S
C24 C23 1.391 . S
C24 C25 1.399 . S
C25 C24 1.399 . S
C25 C26 1.396 . S
C25 C28 1.453 . S
C25 C29 1.684 . S
C26 C7 1.723 . S
C26 C25 1.396 . S
C26 C27 1.394 . S
C27 C23 1.397 . S
C27 C26 1.394 . S
C27 C37 1.723 . S
C28 C25 1.453 . S
C28 H52 0.982 . S
C28 H53 0.979 . S
C28 H54 0.977 . S
C29 C25 1.684 . S
C29 H55 0.979 . S
C29 H56 0.980 . S
C29 H57 0.983 . S
C30 H6 0.948 . S
C30 C31 1.391 . S
C30 C35 1.391 . S
C31 C30 1.391 . S
C31 C32 1.391 . S
C32 H9 0.947 . S
C32 C31 1.391 . S
C32 C33 1.392 . S
C33 H10 0.948 . S
C33 C32 1.392 . S
C33 C34 1.419 . S
C34 C33 1.419 . S
C34 C35 1.391 . S
C34 C38 1.397 . S
C35 C30 1.391 . S
C35 C34 1.391 . S
C35 C36 1.399 . S
C36 C35 1.399 . S
C36 C37 1.396 . S
C36 C39 1.453 . S
C36 C40 1.684 . S
C37 C27 1.723 . S
C37 C36 1.396 . S
C37 C38 1.394 . S
C38 C8 1.723 . S
C38 C34 1.397 . S
C38 C37 1.394 . S
C39 H11 0.982 . S
C39 H15 0.979 . S
C39 H16 0.977 . S
C39 C36 1.453 . S
C40 H12 0.979 . S
C40 H13 0.980 . S
C40 H14 0.983 . S
C40 C36 1.684 . S
H41 C59 0.948 . S
H42 C0 0.948 . S
H43 C18 0.979 . S
H44 C18 0.980 . S
H45 C18 0.983 . S
H46 C17 0.982 . S
H47 C17 0.979 . S
H48 C17 0.977 . S
H49 C19 0.948 . S
H50 C21 0.947 1_556 S
H51 C22 0.948 . S
H52 C28 0.982 . S
H53 C28 0.979 . S
H54 C28 0.977 . S
H55 C29 0.979 . S
H56 C29 0.980 . S
H57 C29 0.983 . S
H58 C2 0.947 . S
C59 C2 1.392 . S
C59 C3 1.419 . S
C59 H41 0.948 . S
C60 C61 1.391 . S
C60 C64 1.391 . S
C60 H102 0.948 . S
C61 C60 1.391 . S
C61 C62 1.391 . S
C62 C61 1.391 . S
C62 H118 0.947 . S
C62 C119 1.392 . S
C63 C64 1.391 . S
C63 C67 1.397 . S
C63 C119 1.419 . S
C64 C60 1.391 . S
C64 C63 1.391 . S
C64 C65 1.399 . S
C65 C64 1.399 . S
C65 C68 1.396 . S
C65 C77 1.453 . S
C65 C78 1.684 . S
H66 C90 0.948 . S
C67 C63 1.397 . S
C67 C68 1.394 . S
C67 C86 1.723 . S
C68 C65 1.396 . S
C68 C67 1.394 . S
C68 C98 1.723 . S
H69 C92 0.947 . S
H70 C93 0.948 . S
H71 C99 0.982 1_455 S
H72 C100 0.979 . S
H73 C100 0.980 . S
H74 C100 0.983 . S
H75 C99 0.979 . S
H76 C99 0.977 . S
C77 C65 1.453 . S
C77 H106 0.982 1_655 S
C77 H107 0.979 . S
C77 H108 0.977 . S
C78 C65 1.684 . S
C78 H103 0.979 . S
C78 H104 0.980 . S
C78 H105 0.983 . S
C79 C80 1.391 . S
C79 C84 1.391 . S
C79 H109 0.948 . S
C80 C79 1.391 . S
C80 C81 1.391 . S
C81 C80 1.391 . S
C81 C82 1.392 . S
C81 H110 0.947 . S
C82 C81 1.392 . S
C82 C83 1.419 . S
C82 H111 0.948 . S
C83 C82 1.419 . S
C83 C84 1.391 . S
C83 C87 1.397 . S
C84 C79 1.391 . S
C84 C83 1.391 . S
C84 C85 1.399 . S
C85 C84 1.399 . S
C85 C86 1.396 . S
C85 C88 1.453 . S
C85 C89 1.684 . S
C86 C67 1.723 . S
C86 C85 1.396 . S
C86 C87 1.394 . S
C87 C83 1.397 . S
C87 C86 1.394 . S
C87 C97 1.723 . S
C88 C85 1.453 . S
C88 H112 0.982 1_655 S
C88 H113 0.979 . S
C88 H114 0.977 . S
C89 C85 1.684 . S
C89 H115 0.979 . S
C89 H116 0.980 . S
C89 H117 0.983 . S
C90 H66 0.948 . S
C90 C91 1.391 . S
C90 C95 1.391 . S
C91 C90 1.391 . S
C91 C92 1.391 . S
C92 H69 0.947 . S
C92 C91 1.391 . S
C92 C93 1.392 . S
C93 H70 0.948 . S
C93 C92 1.392 . S
C93 C94 1.419 . S
C94 C93 1.419 . S
C94 C95 1.391 . S
C94 C98 1.397 . S
C95 C90 1.391 . S
C95 C94 1.391 . S
C95 C96 1.399 . S
C96 C95 1.399 . S
C96 C97 1.396 . S
C96 C99 1.453 . S
C96 C100 1.684 . S
C97 C87 1.723 . S
C97 C96 1.396 . S
C97 C98 1.394 . S
C98 C68 1.723 . S
C98 C94 1.397 . S
C98 C97 1.394 . S
C99 H71 0.982 1_655 S
C99 H75 0.979 . S
C99 H76 0.977 . S
C99 C96 1.453 . S
C100 H72 0.979 . S
C100 H73 0.980 . S
C100 H74 0.983 . S
C100 C96 1.684 . S
H101 C119 0.948 . S
H102 C60 0.948 . S
H103 C78 0.979 . S
H104 C78 0.980 . S
H105 C78 0.983 . S
H106 C77 0.982 1_455 S
H107 C77 0.979 . S
H108 C77 0.977 . S
H109 C79 0.948 . S
H110 C81 0.947 . S
H111 C82 0.948 . S
H112 C88 0.982 1_455 S
H113 C88 0.979 . S
H114 C88 0.977 . S
H115 C89 0.979 . S
H116 C89 0.980 . S
H117 C89 0.983 . S
H118 C62 0.947 . S
C119 C62 1.392 . S
C119 C63 1.419 . S
C119 H101 0.948 . S
C120 C121 1.391 . S
C120 C124 1.391 . S
C120 H162 0.948 . S
C121 C120 1.391 . S
C121 C122 1.391 . S
C122 C121 1.391 . S
C122 H178 0.947 . S
C122 C179 1.392 . S
C123 C124 1.391 . S
C123 C127 1.397 . S
C123 C179 1.419 . S
C124 C120 1.391 . S
C124 C123 1.391 . S
C124 C125 1.399 . S
C125 C124 1.399 . S
C125 C128 1.396 . S
C125 C137 1.453 . S
C125 C138 1.684 . S
H126 C150 0.948 . S
C127 C123 1.397 . S
C127 C128 1.394 . S
C127 C146 1.723 . S
C128 C125 1.396 . S
C128 C127 1.394 . S
C128 C158 1.723 . S
H129 C152 0.947 . S
H130 C153 0.948 . S
H131 C159 0.982 1_545 S
H132 C160 0.979 . S
H133 C160 0.980 . S
H134 C160 0.983 . S
H135 C159 0.979 . S
H136 C159 0.977 . S
C137 C125 1.453 . S
C137 H166 0.982 1_565 S
C137 H167 0.979 . S
C137 H168 0.977 . S
C138 C125 1.684 . S
C138 H163 0.979 . S
C138 H164 0.980 . S
C138 H165 0.983 . S
C139 C140 1.391 . S
C139 C144 1.391 . S
C139 H169 0.948 . S
C140 C139 1.391 . S
C140 C141 1.391 . S
C141 C140 1.391 . S
C141 C142 1.392 . S
C141 H170 0.947 . S
C142 C141 1.392 . S
C142 C143 1.419 . S
C142 H171 0.948 . S
C143 C142 1.419 . S
C143 C144 1.391 . S
C143 C147 1.397 . S
C144 C139 1.391 . S
C144 C143 1.391 . S
C144 C145 1.399 . S
C145 C144 1.399 . S
C145 C146 1.396 . S
C145 C148 1.453 . S
C145 C149 1.684 . S
C146 C127 1.723 . S
C146 C145 1.396 . S
C146 C147 1.394 . S
C147 C143 1.397 . S
C147 C146 1.394 . S
C147 C157 1.723 . S
C148 C145 1.453 . S
C148 H172 0.982 1_565 S
C148 H173 0.979 . S
C148 H174 0.977 . S
C149 C145 1.684 . S
C149 H175 0.979 . S
C149 H176 0.980 . S
C149 H177 0.983 . S
C150 H126 0.948 . S
C150 C151 1.391 . S
C150 C155 1.391 . S
C151 C150 1.391 . S
C151 C152 1.391 . S
C152 H129 0.947 . S
C152 C151 1.391 . S
C152 C153 1.392 . S
C153 H130 0.948 . S
C153 C152 1.392 . S
C153 C154 1.419 . S
C154 C153 1.419 . S
C154 C155 1.391 . S
C154 C158 1.397 . S
C155 C150 1.391 . S
C155 C154 1.391 . S
C155 C156 1.399 . S
C156 C155 1.399 . S
C156 C157 1.396 . S
C156 C159 1.453 . S
C156 C160 1.684 . S
C157 C147 1.723 . S
C157 C156 1.396 . S
C157 C158 1.394 . S
C158 C128 1.723 . S
C158 C154 1.397 . S
C158 C157 1.394 . S
C159 H131 0.982 1_565 S
C159 H135 0.979 . S
C159 H136 0.977 . S
C159 C156 1.453 . S
C160 H132 0.979 . S
C160 H133 0.980 . S
C160 H134 0.983 . S
C160 C156 1.684 . S
H161 C179 0.948 . S
H162 C120 0.948 . S
H163 C138 0.979 . S
H164 C138 0.980 . S
H165 C138 0.983 . S
H166 C137 0.982 1_545 S
H167 C137 0.979 . S
H168 C137 0.977 . S
H169 C139 0.948 . S
H170 C141 0.947 . S
H171 C142 0.948 . S
H172 C148 0.982 1_545 S
H173 C148 0.979 . S
H174 C148 0.977 . S
H175 C149 0.979 . S
H176 C149 0.980 . S
H177 C149 0.983 . S
H178 C122 0.947 . S
C179 C122 1.392 . S
C179 C123 1.419 . S
C179 H161 0.948 . S
C180 C181 1.391 . S
C180 C184 1.391 . S
C180 H222 0.948 . S
C181 C180 1.391 . S
C181 C182 1.391 . S
C182 C181 1.391 . S
C182 H238 0.947 . S
C182 C239 1.392 . S
C183 C184 1.391 . S
C183 C187 1.397 . S
C183 C239 1.419 . S
C184 C180 1.391 . S
C184 C183 1.391 . S
C184 C185 1.399 . S
C185 C184 1.399 . S
C185 C188 1.396 . S
C185 C197 1.453 . S
C185 C198 1.684 . S
H186 C210 0.948 . S
C187 C183 1.397 . S
C187 C188 1.394 . S
C187 C206 1.723 . S
C188 C185 1.396 . S
C188 C187 1.394 . S
C188 C218 1.723 . S
H189 C212 0.947 . S
H190 C213 0.948 . S
H191 C219 0.982 . S
H192 C220 0.979 . S
H193 C220 0.980 . S
H194 C220 0.983 . S
H195 C219 0.979 . S
H196 C219 0.977 . S
C197 C185 1.453 . S
C197 H226 0.982 . S
C197 H227 0.979 . S
C197 H228 0.977 . S
C198 C185 1.684 . S
C198 H223 0.979 . S
C198 H224 0.980 . S
C198 H225 0.983 . S
C199 C200 1.391 . S
C199 C204 1.391 . S
C199 H229 0.948 . S
C200 C199 1.391 . S
C200 C201 1.391 . S
C201 C200 1.391 . S
C201 C202 1.392 . S
C201 H230 0.947 1_554 S
C202 C201 1.392 . S
C202 C203 1.419 . S
C202 H231 0.948 . S
C203 C202 1.419 . S
C203 C204 1.391 . S
C203 C207 1.397 . S
C204 C199 1.391 . S
C204 C203 1.391 . S
C204 C205 1.399 . S
C205 C204 1.399 . S
C205 C206 1.396 . S
C205 C208 1.453 . S
C205 C209 1.684 . S
C206 C187 1.723 . S
C206 C205 1.396 . S
C206 C207 1.394 . S
C207 C203 1.397 . S
C207 C206 1.394 . S
C207 C217 1.723 . S
C208 C205 1.453 . S
C208 H232 0.982 . S
C208 H233 0.979 . S
C208 H234 0.977 . S
C209 C205 1.684 . S
C209 H235 0.979 . S
C209 H236 0.980 . S
C209 H237 0.983 . S
C210 H186 0.948 . S
C210 C211 1.391 . S
C210 C215 1.391 . S
C211 C210 1.391 . S
C211 C212 1.391 . S
C212 H189 0.947 . S
C212 C211 1.391 . S
C212 C213 1.392 . S
C213 H190 0.948 . S
C213 C212 1.392 . S
C213 C214 1.419 . S
C214 C213 1.419 . S
C214 C215 1.391 . S
C214 C218 1.397 . S
C215 C210 1.391 . S
C215 C214 1.391 . S
C215 C216 1.399 . S
C216 C215 1.399 . S
C216 C217 1.396 . S
C216 C219 1.453 . S
C216 C220 1.684 . S
C217 C207 1.723 . S
C217 C216 1.396 . S
C217 C218 1.394 . S
C218 C188 1.723 . S
C218 C214 1.397 . S
C218 C217 1.394 . S
C219 H191 0.982 . S
C219 H195 0.979 . S
C219 H196 0.977 . S
C219 C216 1.453 . S
C220 H192 0.979 . S
C220 H193 0.980 . S
C220 H194 0.983 . S
C220 C216 1.684 . S
H221 C239 0.948 . S
H222 C180 0.948 . S
H223 C198 0.979 . S
H224 C198 0.980 . S
H225 C198 0.983 . S
H226 C197 0.982 . S
H227 C197 0.979 . S
H228 C197 0.977 . S
H229 C199 0.948 . S
H230 C201 0.947 1_556 S
H231 C202 0.948 . S
H232 C208 0.982 . S
H233 C208 0.979 . S
H234 C208 0.977 . S
H235 C209 0.979 . S
H236 C209 0.980 . S
H237 C209 0.983 . S
H238 C182 0.947 . S
C239 C182 1.392 . S
C239 C183 1.419 . S
C239 H221 0.948 . S
C240 C241 1.391 . S
C240 C244 1.391 . S
C240 H282 0.948 . S
C241 C240 1.391 . S
C241 C242 1.391 . S
C242 C241 1.391 . S
C242 H298 0.947 . S
C242 C299 1.392 . S
C243 C244 1.391 . S
C243 C247 1.397 . S
C243 C299 1.419 . S
C244 C240 1.391 . S
C244 C243 1.391 . S
C244 C245 1.399 . S
C245 C244 1.399 . S
C245 C248 1.396 . S
C245 C257 1.453 1_554 S
C245 C258 1.684 1_554 S
H246 C270 0.948 . S
C247 C243 1.397 . S
C247 C248 1.394 . S
C247 C266 1.723 . S
C248 C245 1.396 . S
C248 C247 1.394 . S
C248 C278 1.723 1_554 S
H249 C272 0.947 . S
H250 C273 0.948 . S
H251 C279 0.982 . S
H252 C280 0.979 . S
H253 C280 0.980 1_554 S
H254 C280 0.983 . S
H255 C279 0.979 . S
H256 C279 0.977 1_554 S
C257 C245 1.453 1_556 S
C257 H286 0.982 . S
C257 H287 0.979 . S
C257 H288 0.977 . S
C258 C245 1.684 1_556 S
C258 H283 0.979 . S
C258 H284 0.980 . S
C258 H285 0.983 . S
C259 C260 1.391 . S
C259 C264 1.391 . S
C259 H289 0.948 . S
C260 C259 1.391 . S
C260 C261 1.391 . S
C261 C260 1.391 . S
C261 C262 1.392 . S
C261 H290 0.947 . S
C262 C261 1.392 . S
C262 C263 1.419 . S
C262 H291 0.948 . S
C263 C262 1.419 . S
C263 C264 1.391 . S
C263 C267 1.397 . S
C264 C259 1.391 . S
C264 C263 1.391 . S
C264 C265 1.399 . S
C265 C264 1.399 . S
C265 C266 1.396 . S
C265 C268 1.453 . S
C265 C269 1.684 . S
C266 C247 1.723 . S
C266 C265 1.396 . S
C266 C267 1.394 . S
C267 C263 1.397 . S
C267 C266 1.394 . S
C267 C277 1.723 . S
C268 C265 1.453 . S
C268 H292 0.982 . S
C268 H293 0.979 . S
C268 H294 0.977 . S
C269 C265 1.684 . S
C269 H295 0.979 . S
C269 H296 0.980 . S
C269 H297 0.983 . S
C270 H246 0.948 . S
C270 C271 1.391 . S
C270 C275 1.391 . S
C271 C270 1.391 . S
C271 C272 1.391 . S
C272 H249 0.947 . S
C272 C271 1.391 . S
C272 C273 1.392 . S
C273 H250 0.948 . S
C273 C272 1.392 . S
C273 C274 1.419 . S
C274 C273 1.419 . S
C274 C275 1.391 . S
C274 C278 1.397 . S
C275 C270 1.391 . S
C275 C274 1.391 . S
C275 C276 1.399 . S
C276 C275 1.399 . S
C276 C277 1.396 1_556 S
C276 C279 1.453 . S
C276 C280 1.684 . S
C277 C267 1.723 . S
C277 C276 1.396 1_554 S
C277 C278 1.394 1_554 S
C278 C248 1.723 1_556 S
C278 C274 1.397 . S
C278 C277 1.394 1_556 S
C279 H251 0.982 . S
C279 H255 0.979 . S
C279 H256 0.977 1_556 S
C279 C276 1.453 . S
C280 H252 0.979 . S
C280 H253 0.980 1_556 S
C280 H254 0.983 . S
C280 C276 1.684 . S
H281 C299 0.948 . S
H282 C240 0.948 . S
H283 C258 0.979 . S
H284 C258 0.980 . S
H285 C258 0.983 . S
H286 C257 0.982 . S
H287 C257 0.979 . S
H288 C257 0.977 . S
H289 C259 0.948 . S
H290 C261 0.947 . S
H291 C262 0.948 . S
H292 C268 0.982 . S
H293 C268 0.979 . S
H294 C268 0.977 . S
H295 C269 0.979 . S
H296 C269 0.980 . S
H297 C269 0.983 . S
H298 C242 0.947 . S
C299 C242 1.392 . S
C299 C243 1.419 . S
C299 H281 0.948 . S
C300 C301 1.391 . S
C300 C304 1.391 . S
C300 H342 0.948 . S
C301 C300 1.391 . S
C301 C302 1.391 . S
C302 C301 1.391 . S
C302 H358 0.947 . S
C302 C359 1.392 . S
C303 C304 1.391 . S
C303 C307 1.397 . S
C303 C359 1.419 . S
C304 C300 1.391 . S
C304 C303 1.391 . S
C304 C305 1.399 . S
C305 C304 1.399 . S
C305 C308 1.396 . S
C305 C317 1.453 . S
C305 C318 1.684 . S
H306 C330 0.948 . S
C307 C303 1.397 . S
C307 C308 1.394 . S
C307 C326 1.723 1_554 S
C308 C305 1.396 . S
C308 C307 1.394 . S
C308 C338 1.723 . S
H309 C332 0.947 . S
H310 C333 0.948 . S
H311 C339 0.982 . S
H312 C340 0.979 . S
H313 C340 0.980 . S
H314 C340 0.983 . S
H315 C339 0.979 . S
H316 C339 0.977 . S
C317 C305 1.453 . S
C317 H346 0.982 . S
C317 H347 0.979 . S
C317 H348 0.977 . S
C318 C305 1.684 . S
C318 H343 0.979 . S
C318 H344 0.980 . S
C318 H345 0.983 . S
C319 C320 1.391 . S
C319 C324 1.391 . S
C319 H349 0.948 . S
C320 C319 1.391 . S
C320 C321 1.391 . S
C321 C320 1.391 . S
C321 C322 1.392 . S
C321 H350 0.947 . S
C322 C321 1.392 . S
C322 C323 1.419 . S
C322 H351 0.948 . S
C323 C322 1.419 . S
C323 C324 1.391 . S
C323 C327 1.397 . S
C324 C319 1.391 . S
C324 C323 1.391 . S
C324 C325 1.399 . S
C325 C324 1.399 . S
C325 C326 1.396 . S
C325 C328 1.453 . S
C325 C329 1.684 . S
C326 C307 1.723 1_556 S
C326 C325 1.396 . S
C326 C327 1.394 . S
C327 C323 1.397 . S
C327 C326 1.394 . S
C327 C337 1.723 . S
C328 C325 1.453 . S
C328 H352 0.982 . S
C328 H353 0.979 . S
C328 H354 0.975 1_556 S
C329 C325 1.684 . S
C329 H355 0.979 . S
C329 H356 0.980 . S
C329 H357 0.983 . S
C330 H306 0.948 . S
C330 C331 1.391 . S
C330 C335 1.391 . S
C331 C330 1.391 . S
C331 C332 1.391 . S
C332 H309 0.947 . S
C332 C331 1.391 . S
C332 C333 1.392 . S
C333 H310 0.948 . S
C333 C332 1.392 . S
C333 C334 1.419 . S
C334 C333 1.419 . S
C334 C335 1.391 . S
C334 C338 1.397 . S
C335 C330 1.391 . S
C335 C334 1.391 . S
C335 C336 1.399 1_554 S
C336 C335 1.399 1_556 S
C336 C337 1.396 . S
C336 C339 1.453 . S
C336 C340 1.684 . S
C337 C327 1.723 . S
C337 C336 1.396 . S
C337 C338 1.394 1_556 S
C338 C308 1.723 . S
C338 C334 1.397 . S
C338 C337 1.394 1_554 S
C339 H311 0.982 . S
C339 H315 0.979 . S
C339 H316 0.977 . S
C339 C336 1.453 . S
C340 H312 0.979 . S
C340 H313 0.980 . S
C340 H314 0.983 . S
C340 C336 1.684 . S
H341 C359 0.948 . S
H342 C300 0.948 . S
H343 C318 0.979 . S
H344 C318 0.980 . S
H345 C318 0.983 . S
H346 C317 0.982 . S
H347 C317 0.979 . S
H348 C317 0.977 . S
H349 C319 0.948 . S
H350 C321 0.947 . S
H351 C322 0.948 . S
H352 C328 0.982 . S
H353 C328 0.979 . S
H354 C328 0.975 1_554 S
H355 C329 0.979 . S
H356 C329 0.980 . S
H357 C329 0.983 . S
H358 C302 0.947 . S
C359 C302 1.392 . S
C359 C303 1.419 . S
C359 H341 0.948 . S
C360 C361 1.391 . S
C360 C364 1.391 . S
C360 H402 0.948 . S
C361 C360 1.391 . S
C361 C362 1.391 . S
C362 C361 1.391 . S
C362 H418 0.947 . S
C362 C419 1.392 . S
C363 C364 1.391 . S
C363 C367 1.397 . S
C363 C419 1.419 . S
C364 C360 1.391 . S
C364 C363 1.391 . S
C364 C365 1.399 . S
C365 C364 1.399 . S
C365 C368 1.396 . S
C365 C377 1.453 . S
C365 C378 1.684 . S
H366 C390 0.948 . S
C367 C363 1.397 . S
C367 C368 1.394 . S
C367 C386 1.723 1_556 S
C368 C365 1.396 . S
C368 C367 1.394 . S
C368 C398 1.723 1_556 S
H369 C392 0.947 . S
H370 C393 0.948 . S
H371 C399 0.982 . S
H372 C400 0.979 . S
H373 C400 0.980 . S
H374 C400 0.983 . S
H375 C399 0.979 . S
H376 C399 0.977 . S
C377 C365 1.453 . S
C377 H406 0.982 . S
C377 H407 0.979 . S
C377 H408 0.977 . S
C378 C365 1.684 . S
C378 H403 0.979 . S
C378 H404 0.980 . S
C378 H405 0.983 . S
C379 C380 1.391 . S
C379 C384 1.391 . S
C379 H409 0.948 . S
C380 C379 1.391 . S
C380 C381 1.391 . S
C381 C380 1.391 . S
C381 C382 1.392 . S
C381 H410 0.947 . S
C382 C381 1.392 . S
C382 C383 1.419 . S
C382 H411 0.948 . S
C383 C382 1.419 . S
C383 C384 1.391 . S
C383 C387 1.397 . S
C384 C379 1.391 . S
C384 C383 1.391 . S
C384 C385 1.399 . S
C385 C384 1.399 . S
C385 C386 1.396 . S
C385 C388 1.453 . S
C385 C389 1.684 . S
C386 C367 1.723 1_554 S
C386 C385 1.396 . S
C386 C387 1.394 . S
C387 C383 1.397 . S
C387 C386 1.394 . S
C387 C397 1.723 . S
C388 C385 1.453 . S
C388 H412 0.982 . S
C388 H413 0.979 . S
C388 H414 0.977 1_554 S
C389 C385 1.684 . S
C389 H415 0.979 . S
C389 H416 0.980 1_554 S
C389 H417 0.983 . S
C390 H366 0.948 . S
C390 C391 1.391 . S
C390 C395 1.391 . S
C391 C390 1.391 . S
C391 C392 1.391 1_554 S
C392 H369 0.947 . S
C392 C391 1.391 1_556 S
C392 C393 1.392 . S
C393 H370 0.948 . S
C393 C392 1.392 . S
C393 C394 1.419 1_556 S
C394 C393 1.419 1_554 S
C394 C395 1.391 . S
C394 C398 1.397 . S
C395 C390 1.391 . S
C395 C394 1.391 . S
C395 C396 1.399 . S
C396 C395 1.399 . S
C396 C397 1.396 . S
C396 C399 1.453 . S
C396 C400 1.684 . S
C397 C387 1.723 . S
C397 C396 1.396 . S
C397 C398 1.394 . S
C398 C368 1.723 1_554 S
C398 C394 1.397 . S
C398 C397 1.394 . S
C399 H371 0.982 . S
C399 H375 0.979 . S
C399 H376 0.977 . S
C399 C396 1.453 . S
C400 H372 0.979 . S
C400 H373 0.980 . S
C400 H374 0.983 . S
C400 C396 1.684 . S
H401 C419 0.948 . S
H402 C360 0.948 . S
H403 C378 0.979 . S
H404 C378 0.980 . S
H405 C378 0.983 . S
H406 C377 0.982 . S
H407 C377 0.979 . S
H408 C377 0.977 . S
H409 C379 0.948 . S
H410 C381 0.947 . S
H411 C382 0.948 . S
H412 C388 0.982 . S
H413 C388 0.979 . S
H414 C388 0.977 1_556 S
H415 C389 0.979 . S
H416 C389 0.980 1_556 S
H417 C389 0.983 . S
H418 C362 0.947 . S
C419 C362 1.392 . S
C419 C363 1.419 . S
C419 H401 0.948 . S
C420 C421 1.391 . S
C420 C424 1.391 . S
C420 H462 0.948 . S
C421 C420 1.391 . S
C421 C422 1.391 . S
C422 C421 1.391 . S
C422 H478 0.947 . S
C422 C479 1.392 . S
C423 C424 1.391 . S
C423 C427 1.397 . S
C423 C479 1.419 . S
C424 C420 1.391 . S
C424 C423 1.391 . S
C424 C425 1.399 . S
C425 C424 1.399 . S
C425 C428 1.396 . S
C425 C437 1.453 . S
C425 C438 1.684 . S
H426 C450 0.948 . S
C427 C423 1.397 . S
C427 C428 1.394 . S
C427 C446 1.723 1_556 S
C428 C425 1.396 . S
C428 C427 1.394 . S
C428 C458 1.723 1_556 S
H429 C452 0.947 . S
H430 C453 0.948 1_556 S
H431 C459 0.982 . S
H432 C460 0.979 . S
H433 C460 0.980 . S
H434 C460 0.983 . S
H435 C459 0.979 . S
H436 C459 0.977 . S
C437 C425 1.453 . S
C437 H466 0.982 . S
C437 H467 0.979 . S
C437 H468 0.977 . S
C438 C425 1.684 . S
C438 H463 0.979 . S
C438 H464 0.980 . S
C438 H465 0.983 . S
C439 C440 1.391 . S
C439 C444 1.391 . S
C439 H469 0.948 . S
C440 C439 1.391 . S
C440 C441 1.391 . S
C441 C440 1.391 . S
C441 C442 1.392 . S
C441 H470 0.947 . S
C442 C441 1.392 . S
C442 C443 1.419 . S
C442 H471 0.948 . S
C443 C442 1.419 . S
C443 C444 1.391 . S
C443 C447 1.397 . S
C444 C439 1.391 . S
C444 C443 1.391 . S
C444 C445 1.399 . S
C445 C444 1.399 . S
C445 C446 1.396 . S
C445 C448 1.453 . S
C445 C449 1.684 . S
C446 C427 1.723 1_554 S
C446 C445 1.396 . S
C446 C447 1.394 . S
C447 C443 1.397 . S
C447 C446 1.394 . S
C447 C457 1.723 . S
C448 C445 1.453 . S
C448 H472 0.982 . S
C448 H473 0.979 . S
C448 H474 0.977 . S
C449 C445 1.684 . S
C449 H475 0.979 . S
C449 H476 0.980 1_554 S
C449 H477 0.983 . S
C450 H426 0.948 . S
C450 C451 1.391 . S
C450 C455 1.391 . S
C451 C450 1.391 . S
C451 C452 1.391 . S
C452 H429 0.947 . S
C452 C451 1.391 . S
C452 C453 1.392 . S
C453 H430 0.948 1_554 S
C453 C452 1.392 . S
C453 C454 1.419 . S
C454 C453 1.419 . S
C454 C455 1.391 . S
C454 C458 1.397 . S
C455 C450 1.391 . S
C455 C454 1.391 . S
C455 C456 1.399 . S
C456 C455 1.399 . S
C456 C457 1.396 . S
C456 C459 1.453 . S
C456 C460 1.684 . S
C457 C447 1.723 . S
C457 C456 1.396 . S
C457 C458 1.394 . S
C458 C428 1.723 1_554 S
C458 C454 1.397 . S
C458 C457 1.394 . S
C459 H431 0.982 . S
C459 H435 0.979 . S
C459 H436 0.977 . S
C459 C456 1.453 . S
C460 H432 0.979 . S
C460 H433 0.980 . S
C460 H434 0.983 . S
C460 C456 1.684 . S
H461 C479 0.948 . S
H462 C420 0.948 . S
H463 C438 0.979 . S
H464 C438 0.980 . S
H465 C438 0.983 . S
H466 C437 0.982 . S
H467 C437 0.979 . S
H468 C437 0.977 . S
H469 C439 0.948 . S
H470 C441 0.947 . S
H471 C442 0.948 . S
H472 C448 0.982 . S
H473 C448 0.979 . S
H474 C448 0.977 . S
H475 C449 0.979 . S
H476 C449 0.980 1_556 S
H477 C449 0.983 . S
H478 C422 0.947 . S
C479 C422 1.392 . S
C479 C423 1.419 . S
C479 H461 0.948 . S
Eu480 C489 2.828 . S
Eu480 O491 2.392 . S
Eu480 O493 2.418 1_545 S
Eu480 O498 2.373 1_655 S
Eu480 O501 2.488 . S
Eu480 O502 2.471 . S
Eu480 O503 2.349 1_655 S
Eu481 O490 2.373 1_455 S
Eu481 O494 2.488 . S
Eu481 O495 2.471 . S
Eu481 O496 2.349 . S
Eu481 O499 2.392 1_565 S
Eu481 O500 2.418 1_565 S
Eu481 C510 2.828 . S
C482 O500 1.244 . S
C482 O503 1.265 . S
C483 C484 1.379 1_655 S
C483 C487 1.373 . S
C483 C489 1.505 . S
C484 C483 1.379 1_455 S
C484 C486 1.369 . S
C484 H512 0.930 . S
C485 C487 1.383 . S
C485 C488 1.382 . S
C485 H513 0.930 . S
C486 C484 1.369 . S
C486 C488 1.392 1_455 S
C486 H514 0.930 . S
C487 C483 1.373 . S
C487 C485 1.383 . S
C487 H515 0.931 . S
C488 C485 1.382 . S
C488 C486 1.392 1_655 S
C489 Eu480 2.828 . S
C489 C483 1.505 . S
C489 O501 1.249 . S
C489 O502 1.244 . S
O490 Eu481 2.373 1_655 S
O490 C492 1.265 . S
O491 Eu480 2.392 . S
O491 C492 1.230 1_545 S
C492 O490 1.265 . S
C492 O491 1.230 1_565 S
O493 Eu480 2.418 1_565 S
O493 C497 1.244 . S
O494 Eu481 2.488 . S
O494 C510 1.249 . S
O495 Eu481 2.471 . S
O495 C510 1.244 . S
O496 Eu481 2.349 . S
O496 C497 1.265 1_455 S
C497 O493 1.244 . S
C497 O496 1.265 1_655 S
O498 Eu480 2.373 1_455 S
O498 C511 1.258 . S
O499 Eu481 2.392 1_545 S
O499 C511 1.242 . S
O500 Eu481 2.418 1_545 S
O500 C482 1.244 . S
O501 Eu480 2.488 . S
O501 C489 1.249 . S
O502 Eu480 2.471 . S
O502 C489 1.244 . S
O503 Eu480 2.349 1_455 S
O503 C482 1.265 . S
C504 C505 1.379 . S
C504 C508 1.373 1_556 S
C504 C510 1.505 . S
C505 C504 1.379 . S
C505 C507 1.369 . S
C505 H516 0.930 1_455 S
C506 C508 1.383 . S
C506 C509 1.382 . S
C506 H517 0.930 . S
C507 C505 1.369 . S
C507 C509 1.392 1_556 S
C507 H518 0.930 1_455 S
C508 C504 1.373 1_554 S
C508 C506 1.383 . S
C508 H519 0.931 . S
C509 C506 1.382 . S
C509 C507 1.392 1_554 S
C510 Eu481 2.828 . S
C510 O494 1.249 . S
C510 O495 1.244 . S
C510 C504 1.505 . S
C511 O498 1.258 . S
C511 O499 1.242 . S
H512 C484 0.930 . S
H513 C485 0.930 . S
H514 C486 0.930 . S
H515 C487 0.931 . S
H516 C505 0.930 1_655 S
H517 C506 0.930 . S
H518 C507 0.930 1_655 S
H519 C508 0.931 . S
Eu520 C529 2.828 . S
Eu520 O531 2.392 . S
Eu520 O533 2.418 . S
Eu520 O538 2.373 . S
Eu520 O541 2.488 . S
Eu520 O542 2.471 . S
Eu520 O543 2.349 1_545 S
Eu521 O530 2.373 1_565 S
Eu521 O534 2.488 . S
Eu521 O535 2.471 1_565 S
Eu521 O536 2.349 1_565 S
Eu521 O539 2.392 . S
Eu521 O540 2.418 . S
Eu521 C550 2.828 . S
C522 O540 1.244 . S
C522 O543 1.265 . S
C523 C524 1.379 . S
C523 C527 1.373 . S
C523 C529 1.505 . S
C524 C523 1.379 . S
C524 C526 1.369 . S
C524 H552 0.930 1_545 S
C525 C527 1.383 . S
C525 C528 1.382 . S
C525 H553 0.930 . S
C526 C524 1.369 . S
C526 C528 1.392 . S
C526 H554 0.930 1_545 S
C527 C523 1.373 . S
C527 C525 1.383 . S
C527 H555 0.931 . S
C528 C525 1.382 . S
C528 C526 1.392 . S
C529 Eu520 2.828 . S
C529 C523 1.505 . S
C529 O541 1.249 . S
C529 O542 1.244 . S
O530 Eu521 2.373 1_545 S
O530 C532 1.258 . S
O531 Eu520 2.392 . S
O531 C532 1.242 . S
C532 O530 1.258 . S
C532 O531 1.242 . S
O533 Eu520 2.418 . S
O533 C537 1.244 . S
O534 Eu521 2.488 . S
O534 C550 1.249 . S
O535 Eu521 2.471 1_545 S
O535 C550 1.244 1_545 S
O536 Eu521 2.349 1_545 S
O536 C537 1.265 . S
C537 O533 1.244 . S
C537 O536 1.265 . S
O538 Eu520 2.373 . S
O538 C551 1.258 1_545 S
O539 Eu521 2.392 . S
O539 C551 1.242 . S
O540 Eu521 2.418 . S
O540 C522 1.244 . S
O541 Eu520 2.488 . S
O541 C529 1.249 . S
O542 Eu520 2.471 . S
O542 C529 1.244 . S
O543 Eu520 2.349 1_565 S
O543 C522 1.265 . S
C544 C545 1.379 1_565 S
C544 C548 1.373 . S
C544 C550 1.505 . S
C545 C544 1.379 1_545 S
C545 C547 1.369 . S
C545 H556 0.930 . S
C546 C548 1.383 . S
C546 C549 1.382 . S
C546 H557 0.930 . S
C547 C545 1.369 . S
C547 C549 1.392 1_545 S
C547 H558 0.930 . S
C548 C544 1.373 . S
C548 C546 1.383 . S
C548 H559 0.931 . S
C549 C546 1.382 . S
C549 C547 1.392 1_565 S
C550 Eu521 2.828 . S
C550 O534 1.249 . S
C550 O535 1.244 1_565 S
C550 C544 1.505 . S
C551 O538 1.258 1_565 S
C551 O539 1.242 . S
H552 C524 0.930 1_565 S
H553 C525 0.930 . S
H554 C526 0.930 1_565 S
H555 C527 0.931 . S
H556 C545 0.930 . S
H557 C546 0.930 . S
H558 C547 0.930 . S
H559 C548 0.931 . S
Eu560 C569 2.828 . S
Eu560 O571 2.392 . S
Eu560 O573 2.418 . S
Eu560 O578 2.373 . S
Eu560 O581 2.488 . S
Eu560 O582 2.471 . S
Eu560 O583 2.349 . S
Eu561 O570 2.373 . S
Eu561 O574 2.488 . S
Eu561 O575 2.471 . S
Eu561 O576 2.349 . S
Eu561 O579 2.392 . S
Eu561 O580 2.418 . S
Eu561 C590 2.828 . S
C562 O580 1.244 . S
C562 O583 1.265 . S
C563 C564 1.379 . S
C563 C567 1.373 . S
C563 C569 1.505 . S
C564 C563 1.379 . S
C564 C566 1.369 . S
C564 H592 0.930 . S
C565 C567 1.383 . S
C565 C568 1.382 . S
C565 H593 0.930 . S
C566 C564 1.369 . S
C566 C568 1.392 . S
C566 H594 0.930 . S
C567 C563 1.373 . S
C567 C565 1.383 . S
C567 H595 0.931 . S
C568 C565 1.382 . S
C568 C566 1.392 . S
C569 Eu560 2.828 . S
C569 C563 1.505 . S
C569 O581 1.249 . S
C569 O582 1.244 . S
O570 Eu561 2.373 . S
O570 C572 1.258 . S
O571 Eu560 2.392 . S
O571 C572 1.242 . S
C572 O570 1.258 . S
C572 O571 1.242 . S
O573 Eu560 2.418 . S
O573 C577 1.244 . S
O574 Eu561 2.488 . S
O574 C590 1.249 . S
O575 Eu561 2.471 . S
O575 C590 1.244 . S
O576 Eu561 2.349 . S
O576 C577 1.265 . S
C577 O573 1.244 . S
C577 O576 1.265 . S
O578 Eu560 2.373 . S
O578 C591 1.258 . S
O579 Eu561 2.392 . S
O579 C591 1.242 . S
O580 Eu561 2.418 . S
O580 C562 1.244 . S
O581 Eu560 2.488 . S
O581 C569 1.249 . S
O582 Eu560 2.471 . S
O582 C569 1.244 . S
O583 Eu560 2.349 . S
O583 C562 1.265 . S
C584 C585 1.379 . S
C584 C588 1.373 . S
C584 C590 1.505 . S
C585 C584 1.379 . S
C585 C587 1.369 . S
C585 H596 0.930 . S
C586 C588 1.383 . S
C586 C589 1.382 . S
C586 H597 0.930 . S
C587 C585 1.369 . S
C587 C589 1.392 . S
C587 H598 0.930 . S
C588 C584 1.373 . S
C588 C586 1.383 . S
C588 H599 0.931 . S
C589 C586 1.382 . S
C589 C587 1.392 . S
C590 Eu561 2.828 . S
C590 O574 1.249 . S
C590 O575 1.244 . S
C590 C584 1.505 . S
C591 O578 1.258 . S
C591 O579 1.242 . S
H592 C564 0.930 . S
H593 C565 0.930 . S
H594 C566 0.930 . S
H595 C567 0.931 . S
H596 C585 0.930 . S
H597 C586 0.930 . S
H598 C587 0.930 . S
H599 C588 0.931 . S
Eu600 C609 2.828 . S
Eu600 O611 2.392 . S
Eu600 O613 2.418 1_455 S
Eu600 O618 2.373 . S
Eu600 O621 2.488 . S
Eu600 O622 2.471 . S
Eu600 O623 2.349 . S
Eu601 O610 2.373 . S
Eu601 O614 2.488 . S
Eu601 O615 2.471 . S
Eu601 O616 2.349 . S
Eu601 O619 2.392 1_655 S
Eu601 O620 2.418 1_655 S
Eu601 C630 2.828 . S
C602 O620 1.244 . S
C602 O623 1.265 . S
C603 C604 1.379 . S
C603 C607 1.373 . S
C603 C609 1.505 . S
C604 C603 1.379 . S
C604 C606 1.369 . S
C604 H632 0.930 . S
C605 C607 1.383 . S
C605 C608 1.382 . S
C605 H633 0.930 . S
C606 C604 1.369 . S
C606 C608 1.392 . S
C606 H634 0.930 . S
C607 C603 1.373 . S
C607 C605 1.383 . S
C607 H635 0.931 . S
C608 C605 1.382 . S
C608 C606 1.392 . S
C609 Eu600 2.828 . S
C609 C603 1.505 . S
C609 O621 1.249 . S
C609 O622 1.244 . S
O610 Eu601 2.373 . S
O610 C612 1.258 . S
O611 Eu600 2.392 . S
O611 C612 1.242 1_455 S
C612 O610 1.258 . S
C612 O611 1.242 1_655 S
O613 Eu600 2.418 1_655 S
O613 C617 1.244 . S
O614 Eu601 2.488 . S
O614 C630 1.249 . S
O615 Eu601 2.471 . S
O615 C630 1.244 . S
O616 Eu601 2.349 . S
O616 C617 1.265 . S
C617 O613 1.244 . S
C617 O616 1.265 . S
O618 Eu600 2.373 . S
O618 C631 1.258 . S
O619 Eu601 2.392 1_455 S
O619 C631 1.242 . S
O620 Eu601 2.418 1_455 S
O620 C602 1.244 . S
O621 Eu600 2.488 . S
O621 C609 1.249 . S
O622 Eu600 2.471 . S
O622 C609 1.244 . S
O623 Eu600 2.349 . S
O623 C602 1.265 . S
C624 C625 1.379 . S
C624 C628 1.373 . S
C624 C630 1.505 . S
C625 C624 1.379 . S
C625 C627 1.369 . S
C625 H636 0.930 . S
C626 C628 1.383 1_554 S
C626 C629 1.382 . S
C626 H637 0.930 . S
C627 C625 1.369 . S
C627 C629 1.392 1_556 S
C627 H638 0.930 . S
C628 C624 1.373 . S
C628 C626 1.383 1_556 S
C628 H639 0.931 . S
C629 C626 1.382 . S
C629 C627 1.392 1_554 S
C630 Eu601 2.828 . S
C630 O614 1.249 . S
C630 O615 1.244 . S
C630 C624 1.505 . S
C631 O618 1.258 . S
C631 O619 1.242 . S
H632 C604 0.930 . S
H633 C605 0.930 . S
H634 C606 0.930 . S
H635 C607 0.931 . S
H636 C625 0.930 . S
H637 C626 0.930 . S
H638 C627 0.930 . S
H639 C628 0.931 . S
C640 C641 1.369 . S
C640 C642 1.419 . S
C640 H644 0.930 . S
C641 C640 1.369 . S
C641 C650 1.429 . S
C642 C640 1.419 . S
C642 C643 1.363 . S
C642 H645 0.929 . S
C643 C642 1.363 . S
C643 C649 1.428 . S
H644 C640 0.930 . S
H645 C642 0.929 . S
S646 N647 1.613 1_565 S
S646 N648 1.610 1_565 S
N647 S646 1.613 1_545 S
N647 C650 1.350 . S
N648 S646 1.610 1_545 S
N648 C649 1.351 . S
C649 C643 1.428 . S
C649 N648 1.351 . S
C649 C650 1.434 . S
C650 C641 1.429 . S
C650 N647 1.350 . S
C650 C649 1.434 . S
C651 C652 1.369 . S
C651 C653 1.419 . S
C651 H655 0.930 . S
C652 C651 1.369 . S
C652 C661 1.429 . S
C653 C651 1.419 . S
C653 C654 1.363 . S
C653 H656 0.929 . S
C654 C653 1.363 . S
C654 C660 1.428 . S
H655 C651 0.930 . S
H656 C653 0.929 . S
S657 N658 1.613 1_565 S
S657 N659 1.610 1_565 S
N658 S657 1.613 1_545 S
N658 C661 1.350 . S
N659 S657 1.610 1_545 S
N659 C660 1.351 . S
C660 C654 1.428 . S
C660 N659 1.351 . S
C660 C661 1.434 . S
C661 C652 1.429 . S
C661 N658 1.350 . S
C661 C660 1.434 . S
C662 C663 1.369 . S
C662 C664 1.419 . S
C662 H666 0.930 . S
C663 C662 1.369 . S
C663 C672 1.429 . S
C664 C662 1.419 . S
C664 C665 1.363 . S
C664 H667 0.929 . S
C665 C664 1.363 . S
C665 C671 1.428 . S
H666 C662 0.930 . S
H667 C664 0.929 . S
S668 N669 1.613 . S
S668 N670 1.610 . S
N669 S668 1.613 . S
N669 C672 1.350 . S
N670 S668 1.610 . S
N670 C671 1.351 . S
C671 C665 1.428 . S
C671 N670 1.351 . S
C671 C672 1.434 . S
C672 C663 1.429 . S
C672 N669 1.350 . S
C672 C671 1.434 . S
C673 C674 1.369 . S
C673 C675 1.419 . S
C673 H677 0.930 . S
C674 C673 1.369 . S
C674 C683 1.429 . S
C675 C673 1.419 . S
C675 C676 1.363 . S
C675 H678 0.929 . S
C676 C675 1.363 . S
C676 C682 1.428 . S
H677 C673 0.930 . S
H678 C675 0.929 . S
S679 N680 1.613 . S
S679 N681 1.610 . S
N680 S679 1.613 . S
N680 C683 1.350 1_655 S
N681 S679 1.610 . S
N681 C682 1.351 1_655 S
C682 C676 1.428 . S
C682 N681 1.351 1_455 S
C682 C683 1.434 . S
C683 C674 1.429 . S
C683 N680 1.350 1_455 S
C683 C682 1.434 . S
C684 C685 1.369 . S
C684 C686 1.419 1_554 S
C684 H688 0.930 . S
C685 C684 1.369 . S
C685 C694 1.429 . S
C686 C684 1.419 1_556 S
C686 C687 1.363 . S
C686 H689 0.929 . S
C687 C686 1.363 . S
C687 C693 1.428 1_556 S
H688 C684 0.930 . S
H689 C686 0.929 . S
S690 N691 1.613 1_455 S
S690 N692 1.610 1_454 S
N691 S690 1.613 1_655 S
N691 C694 1.350 1_545 S
N692 S690 1.610 1_656 S
N692 C693 1.351 1_546 S
C693 C687 1.428 1_554 S
C693 N692 1.351 1_564 S
C693 C694 1.434 . S
C694 C685 1.429 . S
C694 N691 1.350 1_565 S
C694 C693 1.434 . S
C695 C696 1.369 . S
C695 C697 1.419 1_554 S
C695 H699 0.930 . S
C696 C695 1.369 . S
C696 C705 1.429 . S
C697 C695 1.419 1_556 S
C697 C698 1.363 . S
C697 H700 0.929 . S
C698 C697 1.363 . S
C698 C704 1.428 . S
H699 C695 0.930 . S
H700 C697 0.929 . S
S701 N702 1.613 . S
S701 N703 1.610 1_554 S
N702 S701 1.613 . S
N702 C705 1.350 1_545 S
N703 S701 1.610 1_556 S
N703 C704 1.351 1_545 S
C704 C698 1.428 . S
C704 N703 1.351 1_565 S
C704 C705 1.434 1_556 S
C705 C696 1.429 . S
C705 N702 1.350 1_565 S
C705 C704 1.434 1_554 S
C706 C707 1.369 . S
C706 C708 1.419 1_554 S
C706 H710 0.930 . S
C707 C706 1.369 . S
C707 C716 1.429 . S
C708 C706 1.419 1_556 S
C708 C709 1.363 . S
C708 H711 0.929 . S
C709 C708 1.363 . S
C709 C715 1.428 . S
H710 C706 0.930 . S
H711 C708 0.929 . S
S712 N713 1.613 1_556 S
S712 N714 1.610 . S
N713 S712 1.613 1_554 S
N713 C716 1.350 . S
N714 S712 1.610 . S
N714 C715 1.351 . S
C715 C709 1.428 . S
C715 N714 1.351 . S
C715 C716 1.434 1_556 S
C716 C707 1.429 . S
C716 N713 1.350 . S
C716 C715 1.434 1_554 S
C717 C718 1.369 . S
C717 C719 1.419 1_554 S
C717 H721 0.930 . S
C718 C717 1.369 . S
C718 C727 1.429 . S
C719 C717 1.419 1_556 S
C719 C720 1.363 . S
C719 H722 0.929 . S
C720 C719 1.363 . S
C720 C726 1.428 . S
H721 C717 0.930 . S
H722 C719 0.929 . S
S723 N724 1.613 . S
S723 N725 1.610 1_554 S
N724 S723 1.613 . S
N724 C727 1.350 1_455 S
N725 S723 1.610 1_556 S
N725 C726 1.351 1_455 S
C726 C720 1.428 . S
C726 N725 1.351 1_655 S
C726 C727 1.434 1_556 S
C727 C718 1.429 . S
C727 N724 1.350 1_655 S
C727 C726 1.434 1_554 S
C728 C729 1.369 . S
C728 C730 1.419 1_455 S
C728 H732 0.930 . S
C729 C728 1.369 . S
C729 C738 1.429 . S
C730 C728 1.419 1_655 S
C730 C731 1.363 . S
C730 H733 0.929 . S
C731 C730 1.363 . S
C731 C737 1.428 1_655 S
H732 C728 0.930 . S
H733 C730 0.929 . S
S734 N735 1.613 . S
S734 N736 1.610 . S
N735 S734 1.613 . S
N735 C738 1.350 . S
N736 S734 1.610 . S
N736 C737 1.351 . S
C737 C731 1.428 1_455 S
C737 N736 1.351 . S
C737 C738 1.434 . S
C738 C729 1.429 . S
C738 N735 1.350 . S
C738 C737 1.434 . S
C739 C740 1.369 . S
C739 C741 1.419 . S
C739 H743 0.930 . S
C740 C739 1.369 . S
C740 C749 1.429 . S
C741 C739 1.419 . S
C741 C742 1.363 1_545 S
C741 H744 0.929 . S
C742 C741 1.363 1_565 S
C742 C748 1.428 . S
H743 C739 0.930 . S
H744 C741 0.929 . S
S745 N746 1.613 1_565 S
S745 N747 1.610 . S
N746 S745 1.613 1_545 S
N746 C749 1.350 . S
N747 S745 1.610 . S
N747 C748 1.351 . S
C748 C742 1.428 . S
C748 N747 1.351 . S
C748 C749 1.434 1_565 S
C749 C740 1.429 . S
C749 N746 1.350 . S
C749 C748 1.434 1_545 S
C750 C751 1.369 . S
C750 C752 1.419 . S
C750 H754 0.930 . S
C751 C750 1.369 . S
C751 C760 1.429 . S
C752 C750 1.419 . S
C752 C753 1.363 . S
C752 H755 0.929 . S
C753 C752 1.363 . S
C753 C759 1.428 . S
H754 C750 0.930 . S
H755 C752 0.929 . S
S756 N757 1.613 . S
S756 N758 1.610 . S
N757 S756 1.613 . S
N757 C760 1.350 . S
N758 S756 1.610 . S
N758 C759 1.351 . S
C759 C753 1.428 . S
C759 N758 1.351 . S
C759 C760 1.434 . S
C760 C751 1.429 . S
C760 N757 1.350 . S
C760 C759 1.434 . S
C761 C762 1.369 . S
C761 C763 1.419 . S
C761 H765 0.930 . S
C762 C761 1.369 . S
C762 C771 1.429 . S
C763 C761 1.419 . S
C763 C764 1.363 . S
C763 H766 0.929 . S
C764 C763 1.363 . S
C764 C770 1.428 . S
H765 C761 0.930 . S
H766 C763 0.929 . S
S767 N768 1.613 . S
S767 N769 1.610 . S
N768 S767 1.613 . S
N768 C771 1.350 . S
N769 S767 1.610 . S
N769 C770 1.351 . S
C770 C764 1.428 . S
C770 N769 1.351 . S
C770 C771 1.434 . S
C771 C762 1.429 . S
C771 N768 1.350 . S
C771 C770 1.434 . S
C772 C773 1.369 . S
C772 C774 1.419 1_655 S
C772 H776 0.930 1_554 S
C773 C772 1.369 . S
C773 C782 1.429 . S
C774 C772 1.419 1_455 S
C774 C775 1.363 . S
C774 H777 0.929 1_554 S
C775 C774 1.363 . S
C775 C781 1.428 1_455 S
H776 C772 0.930 1_556 S
H777 C774 0.929 1_556 S
S778 N779 1.613 . S
S778 N780 1.585 1_655 S
N779 S778 1.613 . S
N779 C782 1.350 . S
N780 S778 1.585 1_455 S
N780 C781 1.351 1_455 S
C781 C775 1.428 1_655 S
C781 N780 1.351 1_655 S
C781 C782 1.434 . S
C782 C773 1.429 . S
C782 N779 1.350 . S
C782 C781 1.434 . S
C783 C784 1.369 . S
C783 C785 1.419 1_554 S
C783 H787 0.930 . S
C784 C783 1.369 . S
C784 C793 1.429 1_565 S
C785 C783 1.419 1_556 S
C785 C786 1.363 1_565 S
C785 H788 0.929 . S
C786 C785 1.363 1_545 S
C786 C792 1.428 1_556 S
H787 C783 0.930 . S
H788 C785 0.929 . S
S789 N790 1.613 . S
S789 N791 1.610 . S
N790 S789 1.613 . S
N790 C793 1.350 . S
N791 S789 1.610 . S
N791 C792 1.351 . S
C792 C786 1.428 1_554 S
C792 N791 1.351 . S
C792 C793 1.434 . S
C793 C784 1.429 1_545 S
C793 N790 1.350 . S
C793 C792 1.434 . S
C794 C795 1.369 . S
C794 C796 1.419 1_554 S
C794 H798 0.930 . S
C795 C794 1.369 . S
C795 C804 1.429 . S
C796 C794 1.419 1_556 S
C796 C797 1.363 . S
C796 H799 0.929 . S
C797 C796 1.363 . S
C797 C803 1.428 . S
H798 C794 0.930 . S
H799 C796 0.929 . S
S800 N801 1.613 1_556 S
S800 N802 1.610 . S
N801 S800 1.613 1_554 S
N801 C804 1.350 . S
N802 S800 1.610 . S
N802 C803 1.351 . S
C803 C797 1.428 . S
C803 N802 1.351 . S
C803 C804 1.434 1_556 S
C804 C795 1.429 . S
C804 N801 1.350 . S
C804 C803 1.434 1_554 S
C805 C806 1.369 1_556 S
C805 C807 1.419 1_556 S
C805 H809 0.930 . S
C806 C805 1.369 1_554 S
C806 C815 1.429 . S
C807 C805 1.419 1_554 S
C807 C808 1.363 . S
C807 H810 0.929 1_554 S
C808 C807 1.363 . S
C808 C814 1.428 . S
H809 C805 0.930 . S
H810 C807 0.929 1_556 S
S811 N812 1.613 . S
S811 N813 1.610 . S
N812 S811 1.613 . S
N812 C815 1.350 . S
N813 S811 1.610 . S
N813 C814 1.351 . S
C814 C808 1.428 . S
C814 N813 1.351 . S
C814 C815 1.434 . S
C815 C806 1.429 . S
C815 N812 1.350 . S
C815 C814 1.434 . S
C816 C817 1.369 . S
C816 C818 1.419 . S
C816 H820 0.930 . S
C817 C816 1.369 . S
C817 C826 1.429 . S
C818 C816 1.419 . S
C818 C819 1.363 . S
C818 H821 0.929 . S
C819 C818 1.363 . S
C819 C825 1.428 . S
H820 C816 0.930 . S
H821 C818 0.929 . S
S822 N823 1.613 1_655 S
S822 N824 1.610 1_655 S
N823 S822 1.613 1_455 S
N823 C826 1.350 . S
N824 S822 1.610 1_455 S
N824 C825 1.351 . S
C825 C819 1.428 . S
C825 N824 1.351 . S
C825 C826 1.434 . S
C826 C817 1.429 . S
C826 N823 1.350 . S
C826 C825 1.434 . S
C827 C828 1.369 . S
C827 C829 1.419 . S
C827 H831 0.930 . S
C828 C827 1.369 . S
C828 C837 1.429 . S
C829 C827 1.419 . S
C829 C830 1.363 . S
C829 H832 0.929 . S
C830 C829 1.363 . S
C830 C836 1.428 . S
H831 C827 0.930 . S
H832 C829 0.929 . S
S833 N834 1.613 . S
S833 N835 1.610 . S
N834 S833 1.613 . S
N834 C837 1.350 . S
N835 S833 1.610 . S
N835 C836 1.351 . S
C836 C830 1.428 . S
C836 N835 1.351 . S
C836 C837 1.434 . S
C837 C828 1.429 . S
C837 N834 1.350 . S
C837 C836 1.434 . S
C838 C839 1.369 . S
C838 C840 1.419 . S
C838 H842 0.930 . S
C839 C838 1.369 . S
C839 C848 1.429 . S
C840 C838 1.419 . S
C840 C841 1.363 . S
C840 H843 0.929 . S
C841 C840 1.363 . S
C841 C847 1.428 . S
H842 C838 0.930 . S
H843 C840 0.929 . S
S844 N845 1.613 . S
S844 N846 1.610 . S
N845 S844 1.613 . S
N845 C848 1.350 . S
N846 S844 1.610 . S
N846 C847 1.351 . S
C847 C841 1.428 . S
C847 N846 1.351 . S
C847 C848 1.434 . S
C848 C839 1.429 . S
C848 N845 1.350 . S
C848 C847 1.434 . S
C849 C850 1.369 . S
C849 C851 1.419 . S
C849 H853 0.930 . S
C850 C849 1.369 . S
C850 C859 1.429 . S
C851 C849 1.419 . S
C851 C852 1.363 . S
C851 H854 0.929 . S
C852 C851 1.363 . S
C852 C858 1.428 . S
H853 C849 0.930 . S
H854 C851 0.929 . S
S855 N856 1.613 . S
S855 N857 1.610 . S
N856 S855 1.613 . S
N856 C859 1.350 . S
N857 S855 1.610 . S
N857 C858 1.351 . S
C858 C852 1.428 . S
C858 N857 1.351 . S
C858 C859 1.434 . S
C859 C850 1.429 . S
C859 N856 1.350 . S
C859 C858 1.434 . S
C860 C861 1.369 . S
C860 C862 1.419 . S
C860 H864 0.930 1_655 S
C861 C860 1.369 . S
C861 C870 1.429 . S
C862 C860 1.419 . S
C862 C863 1.363 . S
C862 H865 0.929 1_655 S
C863 C862 1.363 . S
C863 C869 1.428 . S
H864 C860 0.930 1_455 S
H865 C862 0.929 1_455 S
S866 N867 1.613 . S
S866 N868 1.610 . S
N867 S866 1.613 . S
N867 C870 1.350 . S
N868 S866 1.610 . S
N868 C869 1.351 . S
C869 C863 1.428 . S
C869 N868 1.351 . S
C869 C870 1.434 . S
C870 C861 1.429 . S
C870 N867 1.350 . S
C870 C869 1.434 . S
C871 C872 1.369 . S
C871 C873 1.419 . S
C871 H875 0.930 . S
C872 C871 1.369 . S
C872 C881 1.429 . S
C873 C871 1.419 . S
C873 C874 1.363 . S
C873 H876 0.929 . S
C874 C873 1.363 . S
C874 C880 1.428 . S
H875 C871 0.930 . S
H876 C873 0.929 . S
S877 N878 1.613 . S
S877 N879 1.610 . S
N878 S877 1.613 . S
N878 C881 1.350 . S
N879 S877 1.610 . S
N879 C880 1.351 . S
C880 C874 1.428 . S
C880 N879 1.351 . S
C880 C881 1.434 . S
C881 C872 1.429 . S
C881 N878 1.350 . S
C881 C880 1.434 . S
C882 C883 1.369 . S
C882 C884 1.419 . S
C882 H886 0.930 . S
C883 C882 1.369 . S
C883 C892 1.429 . S
C884 C882 1.419 . S
C884 C885 1.363 . S
C884 H887 0.929 . S
C885 C884 1.363 . S
C885 C891 1.428 . S
H886 C882 0.930 . S
H887 C884 0.929 . S
S888 N889 1.613 . S
S888 N890 1.610 . S
N889 S888 1.613 . S
N889 C892 1.350 . S
N890 S888 1.610 . S
N890 C891 1.351 . S
C891 C885 1.428 . S
C891 N890 1.351 . S
C891 C892 1.434 . S
C892 C883 1.429 . S
C892 N889 1.350 . S
C892 C891 1.434 . S
C893 C894 1.369 . S
C893 C895 1.419 . S
C893 H897 0.930 . S
C894 C893 1.369 . S
C894 C903 1.429 . S
C895 C893 1.419 . S
C895 C896 1.363 . S
C895 H898 0.929 . S
C896 C895 1.363 . S
C896 C902 1.428 . S
H897 C893 0.930 . S
H898 C895 0.929 . S
S899 N900 1.613 . S
S899 N901 1.610 . S
N900 S899 1.613 . S
N900 C903 1.350 . S
N901 S899 1.610 . S
N901 C902 1.351 . S
C902 C896 1.428 . S
C902 N901 1.351 . S
C902 C903 1.434 . S
C903 C894 1.429 . S
C903 N900 1.350 . S
C903 C902 1.434 . S
C641 C391 3.168 . S
C643 C511 3.268 . S
C654 C537 2.920 . S
C652 C451 2.713 . S
C665 C577 2.814 . S
C663 C241 2.258 . S
C676 C631 3.161 . S
C674 C331 2.680 . S
C687 C492 3.270 . S
C685 C121 2.789 . S
C696 C211 2.752 . S
C698 C522 2.919 . S
C707 C31 2.620 . S
C709 C562 2.814 . S
C718 C91 2.719 . S
C720 C612 3.164 . S
C731 C488 0.856 . S
C729 C301 0.788 . S
C742 C549 0.953 . S
C740 C380 0.961 . S
C753 C589 0.610 . S
C751 C440 0.587 . S
C762 C260 0.766 . S
C764 C608 0.732 . S
C773 C61 0.830 . S
C775 C509 0.862 . S
C786 C528 0.951 . S
C784 C140 0.978 . S
C797 C568 0.608 . S
C795 C200 0.627 . S
C806 C20 0.753 . S
C808 C629 0.743 . S
C817 C320 3.045 . S
C819 C482 3.394 . S
C828 C361 3.131 . S
C830 C532 3.801 . S
C841 C572 3.568 . S
C839 C421 2.886 . S
C852 C602 3.129 . S
C850 C271 2.819 . S
C861 C80 3.078 . S
C863 C497 3.393 . S
C874 C551 3.802 . S
C872 C151 3.534 . S
C885 C591 3.568 . S
C883 C181 2.947 . S
C894 C1 2.404 . S
C896 C617 3.130 . S
