# Generated by pormake.
# Topology pyr, (3,6)-cn, num edge types: 1
# Building blocks:
#     Node 0, Type 0, BuildingBlock: QEWDON_clean_linker_0, # of connection points: 3
#     Node 1, Type 0, BuildingBlock: QEWDON_clean_linker_0, # of connection points: 3
#     Node 2, Type 0, BuildingBlock: QEWDON_clean_linker_0, # of connection points: 3
#     Node 3, Type 0, BuildingBlock: QEWDON_clean_linker_0, # of connection points: 3
#     Node 4, Type 0, BuildingBlock: QEWDON_clean_linker_0, # of connection points: 3
#     Node 5, Type 0, BuildingBlock: QEWDON_clean_linker_0, # of connection points: 3
#     Node 6, Type 0, BuildingBlock: QEWDON_clean_linker_0, # of connection points: 3
#     Node 7, Type 0, BuildingBlock: QEWDON_clean_linker_0, # of connection points: 3
#     Node 8, Type 1, BuildingBlock: MIDCAF_clean_sbu_0, # of connection points: 6
#     Node 9, Type 1, BuildingBlock: MIDCAF_clean_sbu_0, # of connection points: 6
#     Node 10, Type 1, BuildingBlock: MIDCAF_clean_sbu_0, # of connection points: 6
#     Node 11, Type 1, BuildingBlock: MIDCAF_clean_sbu_0, # of connection points: 6
#     Edge 12, Type (0, 1), BuildingBlock: CIFDUS_clean_linker_0, # of connection points: 2
#     Edge 13, Type (0, 1), BuildingBlock: CIFDUS_clean_linker_0, # of connection points: 2
#     Edge 14, Type (0, 1), BuildingBlock: CIFDUS_clean_linker_0, # of connection points: 2
#     Edge 15, Type (0, 1), BuildingBlock: CIFDUS_clean_linker_0, # of connection points: 2
#     Edge 16, Type (0, 1), BuildingBlock: CIFDUS_clean_linker_0, # of connection points: 2
#     Edge 17, Type (0, 1), BuildingBlock: CIFDUS_clean_linker_0, # of connection points: 2
#     Edge 18, Type (0, 1), BuildingBlock: CIFDUS_clean_linker_0, # of connection points: 2
#     Edge 19, Type (0, 1), BuildingBlock: CIFDUS_clean_linker_0, # of connection points: 2
#     Edge 20, Type (0, 1), BuildingBlock: CIFDUS_clean_linker_0, # of connection points: 2
#     Edge 21, Type (0, 1), BuildingBlock: CIFDUS_clean_linker_0, # of connection points: 2
#     Edge 22, Type (0, 1), BuildingBlock: CIFDUS_clean_linker_0, # of connection points: 2
#     Edge 23, Type (0, 1), BuildingBlock: CIFDUS_clean_linker_0, # of connection points: 2
#     Edge 24, Type (0, 1), BuildingBlock: CIFDUS_clean_linker_0, # of connection points: 2
#     Edge 25, Type (0, 1), BuildingBlock: CIFDUS_clean_linker_0, # of connection points: 2
#     Edge 26, Type (0, 1), BuildingBlock: CIFDUS_clean_linker_0, # of connection points: 2
#     Edge 27, Type (0, 1), BuildingBlock: CIFDUS_clean_linker_0, # of connection points: 2
#     Edge 28, Type (0, 1), BuildingBlock: CIFDUS_clean_linker_0, # of connection points: 2
#     Edge 29, Type (0, 1), BuildingBlock: CIFDUS_clean_linker_0, # of connection points: 2
#     Edge 30, Type (0, 1), BuildingBlock: CIFDUS_clean_linker_0, # of connection points: 2
#     Edge 31, Type (0, 1), BuildingBlock: CIFDUS_clean_linker_0, # of connection points: 2
#     Edge 32, Type (0, 1), BuildingBlock: CIFDUS_clean_linker_0, # of connection points: 2
#     Edge 33, Type (0, 1), BuildingBlock: CIFDUS_clean_linker_0, # of connection points: 2
#     Edge 34, Type (0, 1), BuildingBlock: CIFDUS_clean_linker_0, # of connection points: 2
#     Edge 35, Type (0, 1), BuildingBlock: CIFDUS_clean_linker_0, # of connection points: 2
# Relax obj value: 0.149
# Max RMSD: 0.265
# Mean RMSD: 0.190
data_MOF--net-pry--node1-MIDCAF_clean_sbu_0--node2-QEWDON_clean_linker_0--edge1-CIFDUS_clean_linker_0
_symmetry_space_group_name_H-M    P1
_symmetry_Int_Tables_number       1
_symmetry_cell_setting            triclinic
loop_
_symmetry_equiv_pos_as_xyz
'x, y, z'
_cell_length_a     30.845021
_cell_length_b     31.068344
_cell_length_c     33.444089
_cell_angle_alpha  90.525196
_cell_angle_beta   90.217867
_cell_angle_gamma 100.11402
loop_
_atom_site_label
_atom_site_type_symbol
_atom_site_fract_x
_atom_site_fract_y
_atom_site_fract_z
_atom_type_partial_charge
H0 H 0.32145 0.30434 0.22864 0.0
C1 C 0.30148 0.28674 0.25179 0.0
C2 C 0.30996 0.24594 0.26502 0.0
C3 C 0.26741 0.30598 0.26817 0.0
H4 H 0.28792 0.19326 0.30615 0.0
C5 C 0.28206 0.22416 0.29459 0.0
C6 C 0.24657 0.24195 0.31034 0.0
C7 C 0.23985 0.28335 0.29743 0.0
C8 C 0.26526 0.35206 0.25783 0.0
H9 H 0.21345 0.2979 0.31008 0.0
C10 C 0.23263 0.36352 0.23208 0.0
C11 C 0.23532 0.40741 0.2197 0.0
C12 C 0.29948 0.38487 0.27152 0.0
H13 H 0.32499 0.37679 0.29099 0.0
C14 C 0.30167 0.42813 0.25979 0.0
H15 H 0.20635 0.33849 0.22086 0.0
C16 C 0.27004 0.43932 0.23387 0.0
H17 H 0.27261 0.47309 0.22484 0.0
H18 H 0.32833 0.45304 0.27046 0.0
H19 H 0.29066 0.88067 0.86371 0.0
C20 C 0.30936 0.85748 0.85111 0.0
C21 C 0.34799 0.8496 0.8701 0.0
C22 C 0.29328 0.8353 0.81605 0.0
H23 H 0.40283 0.81578 0.86426 0.0
C24 C 0.37243 0.82099 0.85075 0.0
C25 C 0.35762 0.79885 0.81441 0.0
C26 C 0.31715 0.80601 0.79796 0.0
C27 C 0.24846 0.83922 0.80203 0.0
H28 H 0.30295 0.78779 0.77195 0.0
C29 C 0.24133 0.86192 0.76691 0.0
C30 C 0.19868 0.86979 0.75763 0.0
C31 C 0.21258 0.82329 0.82671 0.0
H32 H 0.21744 0.80598 0.8539 0.0
C33 C 0.17038 0.8302 0.81705 0.0
H34 H 0.26887 0.87489 0.74796 0.0
C35 C 0.16347 0.85362 0.78297 0.0
H36 H 0.13046 0.85903 0.77625 0.0
H37 H 0.143 0.81789 0.83636 0.0
H38 H 0.73305 0.37558 0.85643 0.0
C39 C 0.72856 0.34205 0.86652 0.0
C40 C 0.76204 0.32738 0.88882 0.0
C41 C 0.6879 0.31448 0.86005 0.0
H42 H 0.77832 0.2738 0.92357 0.0
C43 C 0.75425 0.28452 0.90405 0.0
C44 C 0.71394 0.2566 0.89698 0.0
C45 C 0.68184 0.27148 0.87376 0.0
C46 C 0.64876 0.33154 0.84561 0.0
H47 H 0.64992 0.25081 0.86956 0.0
C48 C 0.64877 0.35398 0.80927 0.0
C49 C 0.60975 0.36678 0.79541 0.0
C50 C 0.61002 0.32365 0.86854 0.0
H51 H 0.60939 0.3072 0.89703 0.0
C52 C 0.57169 0.3367 0.85511 0.0
H53 H 0.67846 0.36039 0.79147 0.0
C54 C 0.57139 0.35791 0.81873 0.0
H55 H 0.54127 0.36832 0.80922 0.0
H56 H 0.54212 0.33042 0.873 0.0
H57 H 0.82922 0.84369 0.31688 0.0
C58 C 0.80364 0.82744 0.33645 0.0
C59 C 0.8048 0.8378 0.37744 0.0
C60 C 0.76973 0.79617 0.32031 0.0
H61 H 0.77334 0.82267 0.43415 0.0
C62 C 0.77133 0.8163 0.40223 0.0
C63 C 0.73701 0.78458 0.38658 0.0
C64 C 0.73625 0.77509 0.34526 0.0
C65 C 0.77056 0.78481 0.2774 0.0
H66 H 0.71017 0.75082 0.33256 0.0
C67 C 0.80259 0.76172 0.26275 0.0
C68 C 0.80481 0.75221 0.22164 0.0
C69 C 0.74061 0.79843 0.25077 0.0
H70 H 0.71581 0.81636 0.26159 0.0
C71 C 0.7431 0.78973 0.20986 0.0
H72 H 0.82564 0.75105 0.28341 0.0
C73 C 0.77506 0.76689 0.19528 0.0
H74 H 0.77573 0.75965 0.16357 0.0
H75 H 0.72003 0.8005 0.18938 0.0
H76 H 0.88648 0.86882 0.93981 0.0
C77 C 0.90607 0.8855 0.91591 0.0
C78 C 0.94947 0.87843 0.90944 0.0
C79 C 0.88726 0.91351 0.89118 0.0
H80 H 0.00759 0.89648 0.87237 0.0
C81 C 0.97421 0.90124 0.87814 0.0
C82 C 0.95578 0.93035 0.85407 0.0
C83 C 0.91225 0.93582 0.86056 0.0
C84 C 0.84047 0.91747 0.89517 0.0
H85 H 0.89768 0.9577 0.84163 0.0
C86 C 0.8253 0.93811 0.92867 0.0
C87 C 0.78074 0.94308 0.9311 0.0
C88 C 0.81103 0.90153 0.86424 0.0
H89 H 0.82226 0.88571 0.83819 0.0
C90 C 0.76686 0.90551 0.86679 0.0
H91 H 0.84842 0.9512 0.95206 0.0
C92 C 0.75173 0.92595 0.89991 0.0
H93 H 0.71703 0.92781 0.90124 0.0
H94 H 0.74421 0.89264 0.84302 0.0
H95 H 0.71853 0.18933 0.51315 0.0
C96 C 0.70472 0.18622 0.48318 0.0
C97 C 0.72676 0.16735 0.45277 0.0
C98 C 0.665 0.20122 0.47549 0.0
H99 H 0.72472 0.14811 0.39076 0.0
C100 C 0.70846 0.16366 0.4141 0.0
C101 C 0.66836 0.17783 0.40565 0.0
C102 C 0.64687 0.19685 0.43661 0.0
C103 C 0.64089 0.21701 0.50957 0.0
H104 H 0.61578 0.20735 0.43071 0.0
C105 C 0.63027 0.25953 0.51101 0.0
C106 C 0.60951 0.2739 0.54521 0.0
C107 C 0.63014 0.18911 0.54219 0.0
H108 H 0.63788 0.15641 0.54179 0.0
C109 C 0.60959 0.20298 0.5757 0.0
H110 H 0.63851 0.28124 0.48596 0.0
C111 C 0.59958 0.24496 0.57738 0.0
H112 H 0.58461 0.25498 0.60436 0.0
H113 H 0.60176 0.1812 0.60074 0.0
H114 H 0.46976 0.67647 0.18098 0.0
C115 C 0.43689 0.66271 0.17051 0.0
C116 C 0.41443 0.68668 0.14456 0.0
C117 C 0.417 0.62153 0.18422 0.0
H118 H 0.35315 0.68677 0.11293 0.0
C119 C 0.37119 0.66877 0.13275 0.0
C120 C 0.35082 0.62773 0.14692 0.0
C121 C 0.37385 0.60408 0.17234 0.0
C122 C 0.44036 0.59839 0.21334 0.0
H123 H 0.35783 0.57268 0.1836 0.0
C124 C 0.45682 0.61983 0.24877 0.0
C125 C 0.47659 0.59772 0.27827 0.0
C126 C 0.44511 0.55485 0.20666 0.0
H127 H 0.43262 0.53782 0.17944 0.0
C128 C 0.46626 0.53311 0.23509 0.0
H129 H 0.45283 0.65341 0.25386 0.0
C130 C 0.48167 0.55419 0.2708 0.0
H131 H 0.49597 0.53579 0.29312 0.0
H132 H 0.46984 0.49948 0.22986 0.0
H133 H 0.1281 0.53441 0.67235 0.0
C134 C 0.132 0.5021 0.66213 0.0
C135 C 0.17426 0.49327 0.65407 0.0
C136 C 0.09471 0.46941 0.6562 0.0
H137 H 0.2116 0.44432 0.63433 0.0
C138 C 0.1791 0.45131 0.64081 0.0
C139 C 0.142 0.41902 0.63379 0.0
C140 C 0.09992 0.42834 0.64128 0.0
C141 C 0.05017 0.4775 0.66606 0.0
H142 H 0.0712 0.40305 0.63676 0.0
C143 C 0.0403 0.48889 0.70528 0.0
C144 C 0.99764 0.49529 0.71511 0.0
C145 C 0.01687 0.47211 0.63676 0.0
H146 H 0.02374 0.46292 0.60642 0.0
C147 C 0.97454 0.47901 0.64638 0.0
H148 H 0.06577 0.49274 0.72813 0.0
C149 C 0.96495 0.49083 0.68535 0.0
H150 H 0.93204 0.49622 0.69235 0.0
H151 H 0.94913 0.47521 0.62357 0.0
Zn152 Zn 1.00325 0.12117 0.60803 0.0
Zn153 Zn 0.07698 0.02611 0.5158 0.0
Zn154 Zn 0.03754 0.07715 0.5569 0.0
C155 C 0.10823 0.11092 0.48759 0.0
C156 C 0.98625 1.00475 0.49804 0.0
O157 O 0.03848 0.04843 0.6191 0.0
O158 O 0.99895 0.08579 0.65652 0.0
C159 C 0.07411 0.17713 0.5758 0.0
O160 O 0.08707 0.12113 0.5186 0.0
O161 O 0.10751 0.0711 0.47913 0.0
O162 O 0.02185 0.99015 0.49493 0.0
O163 O 0.98525 0.03981 0.51866 0.0
O164 O 0.05016 0.17297 0.60647 0.0
O165 O 0.07198 0.14551 0.55027 0.0
O166 O 0.96719 0.07373 0.53744 0.0
O167 O 0.94752 0.12284 0.5787 0.0
C168 C 0.93883 0.09712 0.5492 0.0
O169 O 0.07208 0.03529 0.59675 0.0
O170 O 0.11222 1.00121 0.55687 0.0
C171 C 0.01961 0.05445 0.65274 0.0
C172 C 0.10128 0.01041 0.59182 0.0
Zn173 Zn 0.48104 0.08557 0.07104 0.0
Zn174 Zn 0.58158 1.00024 0.16055 0.0
Zn175 Zn 0.53039 0.04222 0.11826 0.0
C176 C 0.6295 0.02852 0.09352 0.0
C177 C 0.50813 0.93954 0.13552 0.0
O178 O 0.49681 0.08393 0.15874 0.0
O179 O 0.45408 0.11271 0.11682 0.0
C180 C 0.57036 0.11161 0.05092 0.0
O181 O 0.59657 0.04885 0.08993 0.0
O182 O 0.63134 1.00365 0.12285 0.0
O183 O 0.53971 0.9436 0.16025 0.0
O184 O 0.50068 0.97261 0.11539 0.0
O185 O 0.53276 0.12026 0.04298 0.0
O186 O 0.57501 0.08228 0.07677 0.0
O187 O 0.48369 0.99297 0.08314 0.0
O188 O 0.44855 0.03195 0.0432 0.0
C189 C 0.45648 0.99527 0.05413 0.0
O190 O 0.53184 0.0704 0.18036 0.0
O191 O 0.58638 0.04177 0.20637 0.0
C192 C 0.46717 0.10771 0.15205 0.0
C193 C 0.55952 0.068 0.20898 0.0
Zn194 Zn 0.57758 0.64961 0.64833 0.0
Zn195 Zn 0.4584 0.55207 0.55537 0.0
Zn196 Zn 0.51934 0.59711 0.59941 0.0
C197 C 0.51208 0.49349 0.58094 0.0
C198 C 0.50717 0.61005 0.50452 0.0
O199 O 0.48313 0.63238 0.64397 0.0
O200 O 0.53335 0.67018 0.6842 0.0
C201 C 0.59101 0.56125 0.65384 0.0
O202 O 0.53185 0.52824 0.59927 0.0
O203 O 0.47793 0.49467 0.56035 0.0
O204 O 0.47162 0.58301 0.50518 0.0
O205 O 0.53043 0.61905 0.53657 0.0
O206 O 0.60626 0.59974 0.66571 0.0
O207 O 0.55846 0.55417 0.62898 0.0
O208 O 0.56068 0.64611 0.56187 0.0
O209 O 0.6041 0.68906 0.60435 0.0
C210 C 0.59124 0.67934 0.56895 0.0
O211 O 0.45239 0.60043 0.62409 0.0
O212 O 0.40494 0.56085 0.58269 0.0
C213 C 0.49346 0.65866 0.67411 0.0
C214 C 0.41245 0.58428 0.61372 0.0
Zn215 Zn 0.0676 0.61511 0.99026 0.0
Zn216 Zn 0.96448 0.52461 0.08667 0.0
Zn217 Zn 0.01532 0.571 0.03836 0.0
C218 C 0.04582 0.50816 0.10833 0.0
C219 C 0.93283 0.49578 0.01292 0.0
O220 O 1.00106 0.63981 0.03492 0.0
O221 O 0.05696 0.67456 1.00003 0.0
C222 C 0.12176 0.57914 0.03902 0.0
O223 O 0.05652 0.53878 0.08228 0.0
O224 O 1.00569 0.49319 0.11443 0.0
O225 O 0.92064 0.49232 0.04886 0.0
O226 O 0.96881 0.52142 1.00361 0.0
O227 O 0.12369 0.60034 0.00697 0.0
O228 O 0.08433 0.56642 0.05621 0.0
O229 O 0.9998 0.5427 0.97736 0.0
O230 O 0.04306 0.58956 0.93932 0.0
C231 C 0.01363 0.55613 0.94254 0.0
O232 O 0.97977 0.61812 0.07042 0.0
O233 O 0.94701 0.57372 0.1165 0.0
C234 C 0.021 0.67491 0.01768 0.0
C235 C 0.95608 0.6117 0.1023 0.0
H236 H 0.22104 0.26392 0.38608 0.0
H237 H 0.2034 0.1597 0.2982 0.0
H238 H 0.15795 0.1116 0.3446 0.0
H239 H 0.12617 0.09748 0.41034 0.0
H240 H 0.14446 0.19839 0.50108 0.0
H241 H 0.18597 0.24961 0.4535 0.0
C242 C 0.20674 0.23083 0.37711 0.0
C243 C 0.2158 0.21532 0.3387 0.0
C244 C 0.18087 0.20276 0.40448 0.0
C245 C 0.19727 0.17229 0.32758 0.0
C246 C 0.17125 0.14475 0.35411 0.0
C247 C 0.13915 0.13069 0.41998 0.0
C248 C 0.13194 0.144 0.45946 0.0
C249 C 0.16343 0.15936 0.39275 0.0
C250 C 0.14874 0.18739 0.47088 0.0
C251 C 0.17287 0.21655 0.44365 0.0
H252 H 0.43151 0.87039 0.90524 0.0
H253 H 0.29446 0.87513 0.9287 0.0
H254 H 0.31521 0.91839 0.98831 0.0
H255 H 0.3727 0.96095 0.0314 0.0
H256 H 0.50781 0.94668 0.01508 0.0
H257 H 0.487 0.89943 0.95655 0.0
C258 C 0.40574 0.87977 0.9235 0.0
C259 C 0.36139 0.87092 0.91023 0.0
C260 C 0.41751 0.90277 0.95975 0.0
C261 C 0.32919 0.88351 0.93569 0.0
C262 C 0.34086 0.90778 0.97066 0.0
C263 C 0.39728 0.94629 0.01575 0.0
C264 C 0.44165 0.95719 0.02749 0.0
C265 C 0.38499 0.91859 0.98247 0.0
C266 C 0.47331 0.93824 0.00688 0.0
C267 C 0.46148 0.91168 0.97307 0.0
H268 H 0.66762 0.43788 0.77135 0.0
H269 H 0.54828 0.35142 0.736 0.0
H270 H 0.53495 0.40235 0.68412 0.0
H271 H 0.54965 0.47694 0.659 0.0
H272 H 0.66927 0.56367 0.69292 0.0
H273 H 0.68991 0.50724 0.73575 0.0
C274 C 0.63951 0.42961 0.75141 0.0
C275 C 0.60846 0.39155 0.75797 0.0
C276 C 0.63159 0.45946 0.72215 0.0
C277 C 0.57213 0.38109 0.73196 0.0
C278 C 0.56442 0.4102 0.7024 0.0
C279 C 0.58126 0.48287 0.67398 0.0
C280 C 0.60783 0.52442 0.67251 0.0
C281 C 0.59281 0.45039 0.69859 0.0
C282 C 0.64796 0.53202 0.69375 0.0
C283 C 0.65981 0.49978 0.71828 0.0
H284 H 0.86075 0.76688 0.15789 0.0
H285 H 0.81823 0.67488 0.25172 0.0
H286 H 0.86378 0.62503 0.22449 0.0
H287 H 0.91092 0.60528 0.17184 0.0
H288 H 0.95805 0.69759 0.07993 0.0
H289 H 0.91547 0.74976 0.10838 0.0
C290 C 0.86175 0.73599 0.17239 0.0
C291 C 0.83591 0.7244 0.20661 0.0
C292 C 0.88833 0.70745 0.15666 0.0
C293 C 0.83794 0.68462 0.22551 0.0
C294 C 0.8638 0.65601 0.20983 0.0
C295 C 0.91222 0.63684 0.15787 0.0
C296 C 0.93624 0.64665 0.12231 0.0
C297 C 0.88846 0.66676 0.17507 0.0
C298 C 0.93838 0.68835 0.10589 0.0
C299 C 0.91427 0.71833 0.12254 0.0
H300 H 0.31906 0.15857 0.25929 0.0
H301 H 0.38827 0.28872 0.23269 0.0
H302 H 0.44475 0.25769 0.19837 0.0
H303 H 0.47187 0.1934 0.17061 0.0
H304 H 0.40825 0.06424 0.2038 0.0
H305 H 0.35374 0.09532 0.24266 0.0
C306 C 0.34683 0.18067 0.24715 0.0
C307 C 0.34761 0.22642 0.24788 0.0
C308 C 0.38092 0.16269 0.22891 0.0
C309 C 0.38461 0.25349 0.23125 0.0
C310 C 0.41774 0.23577 0.212 0.0
C311 C 0.44697 0.17225 0.18759 0.0
C312 C 0.44427 0.12666 0.18479 0.0
C313 C 0.41579 0.19042 0.20988 0.0
C314 C 0.41145 0.09946 0.20623 0.0
C315 C 0.37992 0.11725 0.22795 0.0
H316 H 0.16658 0.94543 0.75669 0.0
H317 H 0.20943 0.84985 0.67917 0.0
H318 H 0.18358 0.88533 0.62058 0.0
H319 H 0.14395 0.94053 0.59219 0.0
H320 H 0.10787 0.04026 0.66935 0.0
H321 H 0.13496 0.00582 0.72743 0.0
C322 C 0.1708 0.93287 0.72685 0.0
C323 C 0.18976 0.89512 0.72207 0.0
C324 C 0.15612 0.95359 0.69346 0.0
C325 C 0.19524 0.87908 0.68341 0.0
C326 C 0.18014 0.89916 0.65002 0.0
C327 C 0.14222 0.95492 0.62167 0.0
C328 C 0.12155 0.99169 0.62663 0.0
C329 C 0.15977 0.93596 0.65477 0.0
C330 C 0.12094 0.01051 0.66493 0.0
C331 C 0.13722 0.99124 0.69811 0.0
H332 H 0.76645 0.41056 0.91596 0.0
H333 H 0.84735 0.31334 0.89224 0.0
H334 H 0.91041 0.36004 0.92425 0.0
H335 H 0.93964 0.4248 0.96654 0.0
H336 H 0.85658 0.51939 0.99212 0.0
H337 H 0.7976 0.47813 0.95103 0.0
C338 C 0.79816 0.40004 0.91668 0.0
C339 C 0.80209 0.35842 0.90185 0.0
C340 C 0.83388 0.42662 0.93574 0.0
C341 C 0.84333 0.34506 0.90384 0.0
C342 C 0.87939 0.37175 0.92212 0.0
C343 C 0.90898 0.43671 0.96208 0.0
C344 C 0.90216 0.47494 0.98193 0.0
C345 C 0.87469 0.41203 0.93931 0.0
C346 C 0.86228 0.49003 0.97677 0.0
C347 C 0.82856 0.46637 0.95351 0.0
H348 H 0.69695 0.81539 0.45076 0.0
H349 H 0.70382 0.69679 0.38469 0.0
H350 H 0.6565 0.65421 0.43376 0.0
H351 H 0.61955 0.64987 0.49933 0.0
H352 H 0.61438 0.76773 0.56617 0.0
H353 H 0.65606 0.81137 0.51388 0.0
C354 C 0.68805 0.78023 0.44703 0.0
C355 C 0.70423 0.75941 0.4141 0.0
C356 C 0.6616 0.75577 0.47586 0.0
C357 C 0.69159 0.71386 0.40942 0.0
C358 C 0.6648 0.68936 0.43771 0.0
C359 C 0.62609 0.68516 0.50147 0.0
C360 C 0.613 0.70568 0.53581 0.0
C361 C 0.65031 0.70986 0.47142 0.0
C362 C 0.62391 0.75133 0.53974 0.0
C363 C 0.64768 0.77623 0.50988 0.0
H364 H 0.1533 0.42135 0.23713 0.0
H365 H 0.24666 0.42852 0.14117 0.0
H366 H 0.19768 0.46206 0.0978 0.0
H367 H 0.12729 0.48946 0.08735 0.0
H368 H 0.03666 0.48527 0.18564 0.0
H369 H 0.08483 0.45033 0.22747 0.0
C370 C 0.16235 0.42944 0.20644 0.0
C371 C 0.20282 0.42139 0.19193 0.0
C372 C 0.13457 0.44976 0.18214 0.0
C373 C 0.21504 0.43342 0.15256 0.0
C374 C 0.18723 0.45296 0.12792 0.0
C375 C 0.11876 0.48193 0.11819 0.0
C376 C 0.0787 0.49078 0.13343 0.0
C377 C 0.14693 0.46166 0.14245 0.0
C378 C 0.06735 0.47908 0.1731 0.0
C379 C 0.09485 0.45893 0.19713 0.0
H380 H 0.72243 0.24605 0.97697 0.0
H381 H 0.67239 0.17713 0.86923 0.0
H382 H 0.62443 0.12287 0.90876 0.0
H383 H 0.58663 0.10439 0.97261 0.0
H384 H 0.63898 0.16978 0.08093 0.0
H385 H 0.69623 0.21662 0.04254 0.0
C386 C 0.70254 0.21809 0.96223 0.0
C387 C 0.70012 0.21611 0.9202 0.0
C388 C 0.6745 0.1874 0.98516 0.0
C389 C 0.6742 0.17964 0.90155 0.0
C390 C 0.64643 0.14891 0.92409 0.0
C391 C 0.61125 0.12836 0.98771 0.0
C392 C 0.6086 0.1345 0.02913 0.0
C393 C 0.6445 0.15405 0.96566 0.0
C394 C 0.64062 0.16498 0.04888 0.0
C395 C 0.67323 0.1916 0.02698 0.0
H396 H 0.80328 0.90204 0.43387 0.0
H397 H 0.89156 0.84253 0.36009 0.0
H398 H 0.95452 0.89107 0.38909 0.0
H399 H 0.9849 0.9477 0.43692 0.0
H400 H 0.8987 0.00618 0.51352 0.0
H401 H 0.83446 0.96111 0.48163 0.0
C402 C 0.83633 0.89972 0.42425 0.0
C403 C 0.84262 0.86875 0.3947 0.0
C404 C 0.87269 0.92756 0.44144 0.0
C405 C 0.88564 0.86645 0.38225 0.0
C406 C 0.92174 0.89401 0.39901 0.0
C407 C 0.95207 0.95078 0.4467 0.0
C408 C 0.94663 0.98042 0.47754 0.0
C409 C 0.91565 0.92433 0.4288 0.0
C410 C 0.90383 0.98419 0.48946 0.0
C411 C 0.86711 0.95807 0.47147 0.0
H412 H 0.35735 0.77344 0.73441 0.0
H413 H 0.4169 0.75153 0.84825 0.0
H414 H 0.46302 0.70681 0.81526 0.0
H415 H 0.48917 0.67548 0.75372 0.0
H416 H 0.42268 0.68805 0.64203 0.0
H417 H 0.37504 0.73268 0.67514 0.0
C418 C 0.37937 0.75829 0.75267 0.0
C419 C 0.38369 0.7678 0.79422 0.0
C420 C 0.40451 0.73014 0.73384 0.0
C421 C 0.41351 0.74741 0.81621 0.0
C422 C 0.43974 0.72087 0.79739 0.0
C423 C 0.46375 0.68745 0.73679 0.0
C424 C 0.45965 0.6787 0.69542 0.0
C425 C 0.43598 0.71247 0.75618 0.0
C426 C 0.42635 0.69408 0.67392 0.0
C427 C 0.39937 0.71996 0.69282 0.0
H428 H 0.97994 0.90448 0.78019 0.0
H429 H 0.9861 0.01684 0.85782 0.0
H430 H 0.01214 0.06542 0.80263 0.0
H431 H 0.02284 0.07638 0.73085 0.0
H432 H 0.01535 0.96534 0.65145 0.0
H433 H 1.00105 0.91572 0.70854 0.0
C434 C 0.98836 0.93951 0.78507 0.0
C435 C 0.98135 0.95725 0.82293 0.0
C436 C 1.00244 0.96741 0.75276 0.0
C437 C 0.99159 1.00266 0.82896 0.0
C438 C 1.00614 0.03039 0.79736 0.0
C439 C 0.0188 0.04129 0.72613 0.0
C440 C 0.01961 0.02448 0.68702 0.0
C441 C 0.01008 0.01324 0.75889 0.0
C442 C 0.01481 0.97903 0.68131 0.0
C443 C 1.00638 0.95069 0.71394 0.0
H444 H 0.5834 0.14207 0.38381 0.0
H445 H 0.71014 0.19714 0.33505 0.0
H446 H 0.68411 0.1741 0.268 0.0
H447 H 0.62958 0.1291 0.2249 0.0
H448 H 0.50328 0.07155 0.27199 0.0
H449 H 0.52414 0.10555 0.33767 0.0
C450 C 0.60488 0.14995 0.35835 0.0
C451 C 0.64898 0.17072 0.3646 0.0
C452 C 0.58975 0.13598 0.31958 0.0
C453 C 0.6764 0.18055 0.33123 0.0
C454 C 0.66151 0.16743 0.29283 0.0
C455 C 0.60608 0.12531 0.24925 0.0
C456 C 0.5649 0.09825 0.24371 0.0
C457 C 0.61887 0.14383 0.28686 0.0
C458 C 0.5349 0.09286 0.27547 0.0
C459 C 0.54713 0.11184 0.31311 0.0
H460 H 0.54662 0.59149 0.327 0.0
H461 H 0.42948 0.64963 0.32008 0.0
H462 H 0.43785 0.67135 0.3899 0.0
H463 H 0.46781 0.65874 0.45561 0.0
H464 H 0.57742 0.59073 0.46467 0.0
H465 H 0.58375 0.5892 0.39193 0.0
C466 C 0.52328 0.6094 0.34066 0.0
C467 C 0.48709 0.61814 0.31833 0.0
C468 C 0.52709 0.62019 0.38153 0.0
C469 C 0.45779 0.64247 0.33625 0.0
C470 C 0.4623 0.65467 0.37644 0.0
C471 C 0.49437 0.64559 0.44148 0.0
C472 C 0.52281 0.62592 0.46517 0.0
C473 C 0.49544 0.64176 0.39976 0.0
C474 C 0.55633 0.60764 0.44694 0.0
C475 C 0.55917 0.60576 0.4053 0.0
H476 H 0.9996 0.44896 0.7833 0.0
H477 H 0.975 0.57188 0.73801 0.0
H478 H 0.97055 0.59965 0.80632 0.0
H479 H 0.9843 0.59229 0.87793 0.0
H480 H 0.0075 0.46947 0.92433 0.0
H481 H 1.00045 0.43743 0.85669 0.0
C482 C 0.99247 0.48148 0.78866 0.0
C483 C 0.98821 0.50876 0.75608 0.0
C484 C 0.98967 0.49701 0.828 0.0
C485 C 0.97852 0.55062 0.76288 0.0
C486 C 0.97609 0.56645 0.80182 0.0
C487 C 0.9865 0.55812 0.87323 0.0
C488 C 0.99671 0.53319 0.90559 0.0
C489 C 0.98304 0.54043 0.83447 0.0
C490 C 0.99938 0.48901 0.89964 0.0
C491 C 0.99591 0.47096 0.86098 0.0
H492 H 0.71979 0.99691 0.9308 0.0
H493 H 0.80344 0.93906 0.01041 0.0
H494 H 0.769 0.96794 0.068 0.0
H495 H 0.70867 1.00115 0.09578 0.0
H496 H 0.61794 0.04744 0.01537 0.0
H497 H 0.66196 0.03283 0.9584 0.0
C498 C 0.73053 0.99046 0.96072 0.0
C499 C 0.76374 0.96511 0.96608 0.0
C500 C 0.70941 0.00564 0.99373 0.0
C501 C 0.7781 0.95847 1.00517 0.0
C502 C 0.75815 0.97473 0.03822 0.0
C503 C 0.6991 0.00896 0.06584 0.0
C504 C 0.66079 0.02717 0.0601 0.0
C505 C 0.72288 0.99721 0.03287 0.0
C506 C 0.6485 0.03617 0.021 0.0
C507 C 0.67312 0.02655 0.98822 0.0
H508 H 0.7439 0.11694 0.51522 0.0
H509 H 0.80349 0.18067 0.41001 0.0
H510 H 0.87355 0.15831 0.427 0.0
H511 H 0.92009 0.12706 0.4759 0.0
H512 H 0.86024 0.0658 0.58189 0.0
H513 H 0.78823 0.07981 0.56028 0.0
C514 C 0.7722 0.12582 0.49594 0.0
C515 C 0.76853 0.15098 0.46167 0.0
C516 C 0.8124 0.1129 0.50595 0.0
C517 C 0.80534 0.1614 0.43659 0.0
C518 C 0.84549 0.14867 0.44635 0.0
C519 C 0.89091 0.11551 0.49342 0.0
C520 C 0.89518 0.09476 0.53009 0.0
C521 C 0.8497 0.12509 0.48137 0.0
C522 C 0.85748 0.08113 0.55324 0.0
C523 C 0.81642 0.08961 0.54111 0.0
H524 H 0.32132 0.59268 0.07617 0.0
H525 H 0.27841 0.62408 0.19346 0.0
H526 H 0.20108 0.60396 0.17234 0.0
H527 H 0.14666 0.58761 0.11725 0.0
H528 H 0.19108 0.55765 0.99984 0.0
H529 H 0.26668 0.56574 0.02427 0.0
C530 C 0.29485 0.59437 0.09709 0.0
C531 C 0.30488 0.61027 0.1359 0.0
C532 C 0.25087 0.58298 0.08468 0.0
C533 C 0.27087 0.61213 0.16325 0.0
C534 C 0.22686 0.6007 0.15118 0.0
C535 C 0.17279 0.58156 0.0975 0.0
C536 C 0.16367 0.57243 0.05684 0.0
C537 C 0.21648 0.58743 0.11155 0.0
C538 C 0.19764 0.56496 0.03126 0.0
C539 C 0.24085 0.56984 0.04511 0.0
H540 H 0.2478 0.49921 0.70026 0.0
H541 H 0.18812 0.56489 0.60757 0.0
H542 H 0.25927 0.61028 0.593 0.0
H543 H 0.33989 0.61727 0.59594 0.0
H544 H 0.40003 0.5518 0.68828 0.0
H545 H 0.3274 0.52161 0.715 0.0
C546 C 0.25031 0.52465 0.67795 0.0
C547 C 0.21326 0.52849 0.65454 0.0
C548 C 0.29142 0.5504 0.66961 0.0
C549 C 0.21641 0.56148 0.62581 0.0
C550 C 0.25711 0.5872 0.61732 0.0
C551 C 0.337 0.59832 0.6232 0.0
C552 C 0.37484 0.58626 0.63999 0.0
C553 C 0.29515 0.58015 0.63752 0.0
C554 C 0.37116 0.56162 0.67512 0.0
C555 C 0.32958 0.54371 0.68991 0.0
H556 H 0.90741 0.80027 0.93936 0.0
H557 H 0.03427 0.88521 0.93739 0.0
H558 H 0.06613 0.83203 0.97587 0.0
H559 H 0.05934 0.75915 1.00571 0.0
H560 H 0.93302 0.67381 0.00672 0.0
H561 H 0.89915 0.73041 0.97492 0.0
C562 C 0.94184 0.80775 0.94797 0.0
C563 C 0.96837 0.84682 0.93492 0.0
C564 C 0.95996 0.77713 0.97053 0.0
C565 C 0.01313 0.85517 0.94603 0.0
C566 C 0.03135 0.82491 0.96846 0.0
C567 C 0.02415 0.75339 0.99995 0.0
C568 C 0.99866 0.71247 0.00916 0.0
C569 C 1.00525 0.7855 0.98031 0.0
C570 C 0.95324 0.70527 1.00082 0.0
C571 C 0.93399 0.73744 0.98207 0.0
H572 H 0.37744 0.76046 0.13803 0.0
H573 H 0.5 0.71312 0.12289 0.0
H574 H 0.53923 0.78772 0.11589 0.0
H575 H 0.54019 0.86632 0.12216 0.0
H576 H 0.41845 0.91518 0.13293 0.0
H577 H 0.37704 0.83991 0.13258 0.0
C578 C 0.41251 0.76634 0.13215 0.0
C579 C 0.43592 0.73121 0.13221 0.0
C580 C 0.435 0.80953 0.12772 0.0
C581 C 0.48138 0.73958 0.12435 0.0
C582 C 0.50387 0.78223 0.12016 0.0
C583 C 0.5045 0.86036 0.12386 0.0
C584 C 0.48223 0.89571 0.12844 0.0
C585 C 0.48127 0.81742 0.12325 0.0
C586 C 0.43608 0.88811 0.12973 0.0
C587 C 0.41255 0.84519 0.12969 0.0
H588 H 0.10911 0.37719 0.56594 0.0
H589 H 0.18458 0.36199 0.67193 0.0
H590 H 0.17875 0.28378 0.6575 0.0
H591 H 0.1396 0.21864 0.62209 0.0
H592 H 0.06317 0.2333 0.51674 0.0
H593 H 0.08309 0.31302 0.52243 0.0
C594 C 0.12516 0.35677 0.58518 0.0
C595 C 0.14661 0.37473 0.62022 0.0
C596 C 0.12147 0.31192 0.57672 0.0
C597 C 0.16778 0.34851 0.64491 0.0
C598 C 0.16429 0.30388 0.63673 0.0
C599 C 0.12912 0.23942 0.59939 0.0
C600 C 0.10018 0.22058 0.56902 0.0
C601 C 0.13959 0.28499 0.60371 0.0
C602 C 0.086 0.24738 0.54001 0.0
C603 C 0.09681 0.29288 0.54368 0.0
H604 H 0.53498 0.29672 0.57569 0.0
H605 H 0.65932 0.35254 0.523 0.0
H606 H 0.64259 0.42617 0.53325 0.0
H607 H 0.59133 0.47493 0.55644 0.0
H608 H 0.46661 0.41717 0.60699 0.0
H609 H 0.48552 0.34434 0.60001 0.0
C610 C 0.55873 0.32493 0.56673 0.0
C611 C 0.59847 0.31886 0.54865 0.0
C612 C 0.54908 0.36702 0.57307 0.0
C613 C 0.62826 0.35601 0.5365 0.0
C614 C 0.61889 0.39821 0.54277 0.0
C615 C 0.56889 0.44635 0.56666 0.0
C616 C 0.52792 0.45129 0.58283 0.0
C617 C 0.57939 0.40418 0.56113 0.0
C618 C 0.4985 0.41407 0.59496 0.0
C619 C 0.50915 0.37243 0.59064 0.0
loop_
_geom_bond_atom_site_label_1
_geom_bond_atom_site_label_2
_geom_bond_distance
_geom_bond_site_symmetry_2
_ccdc_geom_bond_type
H0 C1 0.949 . S
C1 H0 0.949 . S
C1 C2 1.395 . S
C1 C3 1.391 . S
C2 C1 1.395 . S
C2 C5 1.390 . S
C3 C1 1.391 . S
C3 C7 1.387 . S
C3 C8 1.491 . S
H4 C5 0.950 . S
C5 C2 1.390 . S
C5 H4 0.950 . S
C5 C6 1.378 . S
C6 C5 1.378 . S
C6 C7 1.409 . S
C7 C3 1.387 . S
C7 C6 1.409 . S
C7 H9 0.951 . S
C8 C3 1.491 . S
C8 C10 1.382 . S
C8 C12 1.404 . S
H9 C7 0.951 . S
C10 C8 1.382 . S
C10 C11 1.390 . S
C10 H15 0.949 . S
C11 C10 1.390 . S
C11 C16 1.399 . S
C12 C8 1.404 . S
C12 H13 0.950 . S
C12 C14 1.375 . S
H13 C12 0.950 . S
C14 C12 1.375 . S
C14 C16 1.382 . S
C14 H18 0.950 . S
H15 C10 0.949 . S
C16 C11 1.399 . S
C16 C14 1.382 . S
C16 H17 0.952 . S
H17 C16 0.952 . S
H18 C14 0.950 . S
H19 C20 0.949 . S
C20 H19 0.949 . S
C20 C21 1.395 . S
C20 C22 1.391 . S
C21 C20 1.395 . S
C21 C24 1.390 . S
C22 C20 1.391 . S
C22 C26 1.387 . S
C22 C27 1.491 . S
H23 C24 0.950 . S
C24 C21 1.390 . S
C24 H23 0.950 . S
C24 C25 1.378 . S
C25 C24 1.378 . S
C25 C26 1.409 . S
C26 C22 1.387 . S
C26 C25 1.409 . S
C26 H28 0.951 . S
C27 C22 1.491 . S
C27 C29 1.382 . S
C27 C31 1.404 . S
H28 C26 0.951 . S
C29 C27 1.382 . S
C29 C30 1.390 . S
C29 H34 0.949 . S
C30 C29 1.390 . S
C30 C35 1.399 . S
C31 C27 1.404 . S
C31 H32 0.950 . S
C31 C33 1.375 . S
H32 C31 0.950 . S
C33 C31 1.375 . S
C33 C35 1.382 . S
C33 H37 0.950 . S
H34 C29 0.949 . S
C35 C30 1.399 . S
C35 C33 1.382 . S
C35 H36 0.952 . S
H36 C35 0.952 . S
H37 C33 0.950 . S
H38 C39 0.949 . S
C39 H38 0.949 . S
C39 C40 1.395 . S
C39 C41 1.391 . S
C40 C39 1.395 . S
C40 C43 1.390 . S
C41 C39 1.391 . S
C41 C45 1.387 . S
C41 C46 1.491 . S
H42 C43 0.950 . S
C43 C40 1.390 . S
C43 H42 0.950 . S
C43 C44 1.378 . S
C44 C43 1.378 . S
C44 C45 1.409 . S
C45 C41 1.387 . S
C45 C44 1.409 . S
C45 H47 0.951 . S
C46 C41 1.491 . S
C46 C48 1.382 . S
C46 C50 1.404 . S
H47 C45 0.951 . S
C48 C46 1.382 . S
C48 C49 1.390 . S
C48 H53 0.949 . S
C49 C48 1.390 . S
C49 C54 1.399 . S
C50 C46 1.404 . S
C50 H51 0.950 . S
C50 C52 1.375 . S
H51 C50 0.950 . S
C52 C50 1.375 . S
C52 C54 1.382 . S
C52 H56 0.950 . S
H53 C48 0.949 . S
C54 C49 1.399 . S
C54 C52 1.382 . S
C54 H55 0.952 . S
H55 C54 0.952 . S
H56 C52 0.950 . S
H57 C58 0.949 . S
C58 H57 0.949 . S
C58 C59 1.395 . S
C58 C60 1.391 . S
C59 C58 1.395 . S
C59 C62 1.390 . S
C60 C58 1.391 . S
C60 C64 1.387 . S
C60 C65 1.491 . S
H61 C62 0.950 . S
C62 C59 1.390 . S
C62 H61 0.950 . S
C62 C63 1.378 . S
C63 C62 1.378 . S
C63 C64 1.409 . S
C64 C60 1.387 . S
C64 C63 1.409 . S
C64 H66 0.951 . S
C65 C60 1.491 . S
C65 C67 1.382 . S
C65 C69 1.404 . S
H66 C64 0.951 . S
C67 C65 1.382 . S
C67 C68 1.390 . S
C67 H72 0.949 . S
C68 C67 1.390 . S
C68 C73 1.399 . S
C69 C65 1.404 . S
C69 H70 0.950 . S
C69 C71 1.375 . S
H70 C69 0.950 . S
C71 C69 1.375 . S
C71 C73 1.382 . S
C71 H75 0.950 . S
H72 C67 0.949 . S
C73 C68 1.399 . S
C73 C71 1.382 . S
C73 H74 0.952 . S
H74 C73 0.952 . S
H75 C71 0.950 . S
H76 C77 0.949 . S
C77 H76 0.949 . S
C77 C78 1.395 . S
C77 C79 1.391 . S
C78 C77 1.395 . S
C78 C81 1.390 1_655 S
C79 C77 1.391 . S
C79 C83 1.387 1_565 S
C79 C84 1.491 1_565 S
H80 C81 0.950 . S
C81 C78 1.390 1_455 S
C81 H80 0.950 . S
C81 C82 1.378 1_455 S
C82 C81 1.378 1_655 S
C82 C83 1.409 1_565 S
C83 C79 1.387 1_545 S
C83 C82 1.409 1_545 S
C83 H85 0.951 . S
C84 C79 1.491 1_545 S
C84 C86 1.403 . S
C84 C88 1.404 . S
H85 C83 0.951 . S
C86 C84 1.403 . S
C86 C87 1.383 1_556 S
C86 H91 0.934 1_556 S
C87 C86 1.383 1_554 S
C87 C92 1.399 1_554 S
C88 C84 1.404 . S
C88 H89 0.950 . S
C88 C90 1.375 . S
H89 C88 0.950 . S
C90 C88 1.375 . S
C90 C92 1.382 . S
C90 H94 0.950 . S
H91 C86 0.934 1_554 S
C92 C87 1.399 1_556 S
C92 C90 1.382 . S
C92 H93 0.952 . S
H93 C92 0.952 . S
H94 C90 0.950 . S
H95 C96 0.949 . S
C96 H95 0.949 . S
C96 C97 1.395 . S
C96 C98 1.391 . S
C97 C96 1.395 . S
C97 C100 1.390 . S
C98 C96 1.391 . S
C98 C102 1.387 . S
C98 C103 1.491 . S
H99 C100 0.950 . S
C100 C97 1.390 . S
C100 H99 0.950 . S
C100 C101 1.378 . S
C101 C100 1.378 . S
C101 C102 1.409 . S
C102 C98 1.387 . S
C102 C101 1.409 . S
C102 H104 0.951 . S
C103 C98 1.491 . S
C103 C105 1.382 . S
C103 C107 1.404 . S
H104 C102 0.951 . S
C105 C103 1.382 . S
C105 C106 1.390 . S
C105 H110 0.949 . S
C106 C105 1.390 . S
C106 C111 1.399 . S
C107 C103 1.404 . S
C107 H108 0.950 . S
C107 C109 1.375 . S
H108 C107 0.950 . S
C109 C107 1.375 . S
C109 C111 1.382 . S
C109 H113 0.950 . S
H110 C105 0.949 . S
C111 C106 1.399 . S
C111 C109 1.382 . S
C111 H112 0.952 . S
H112 C111 0.952 . S
H113 C109 0.950 . S
H114 C115 0.949 . S
C115 H114 0.949 . S
C115 C116 1.395 . S
C115 C117 1.391 . S
C116 C115 1.395 . S
C116 C119 1.390 . S
C117 C115 1.391 . S
C117 C121 1.387 . S
C117 C122 1.491 . S
H118 C119 0.950 . S
C119 C116 1.390 . S
C119 H118 0.950 . S
C119 C120 1.378 . S
C120 C119 1.378 . S
C120 C121 1.409 . S
C121 C117 1.387 . S
C121 C120 1.409 . S
C121 H123 0.951 . S
C122 C117 1.491 . S
C122 C124 1.382 . S
C122 C126 1.404 . S
H123 C121 0.951 . S
C124 C122 1.382 . S
C124 C125 1.390 . S
C124 H129 0.949 . S
C125 C124 1.390 . S
C125 C130 1.399 . S
C126 C122 1.404 . S
C126 H127 0.950 . S
C126 C128 1.375 . S
H127 C126 0.950 . S
C128 C126 1.375 . S
C128 C130 1.382 . S
C128 H132 0.950 . S
H129 C124 0.949 . S
C130 C125 1.399 . S
C130 C128 1.382 . S
C130 H131 0.952 . S
H131 C130 0.952 . S
H132 C128 0.950 . S
H133 C134 0.949 . S
C134 H133 0.949 . S
C134 C135 1.395 . S
C134 C136 1.391 . S
C135 C134 1.395 . S
C135 C138 1.390 . S
C136 C134 1.391 . S
C136 C140 1.387 . S
C136 C141 1.491 . S
H137 C138 0.950 . S
C138 C135 1.390 . S
C138 H137 0.950 . S
C138 C139 1.378 . S
C139 C138 1.378 . S
C139 C140 1.409 . S
C140 C136 1.387 . S
C140 C139 1.409 . S
C140 H142 0.951 . S
C141 C136 1.491 . S
C141 C143 1.382 . S
C141 C145 1.404 . S
H142 C140 0.951 . S
C143 C141 1.382 . S
C143 C144 1.390 . S
C143 H148 0.949 . S
C144 C143 1.390 . S
C144 C149 1.399 . S
C145 C141 1.404 . S
C145 H146 0.950 . S
C145 C147 1.375 . S
H146 C145 0.950 . S
C147 C145 1.375 . S
C147 C149 1.382 . S
C147 H151 0.950 . S
H148 C143 0.949 . S
C149 C144 1.399 . S
C149 C147 1.382 . S
C149 H150 0.952 . S
H150 C149 0.952 . S
H151 C147 0.950 . S
Zn152 O158 1.920 . S
Zn152 O164 1.898 . S
Zn152 O167 1.905 . S
Zn153 O161 1.905 1_565 S
Zn153 O162 1.898 . S
Zn153 O170 1.920 . S
Zn154 O157 2.080 1_455 S
Zn154 O160 2.114 . S
Zn154 O163 2.120 1_445 S
Zn154 O165 2.120 . S
Zn154 O166 2.114 1_455 S
Zn154 O169 2.080 . S
C155 O160 1.166 . S
C155 O161 1.182 . S
C156 O162 1.167 1_655 S
C156 O163 1.299 . S
O157 Zn154 2.080 1_655 S
O157 C171 1.305 . S
O158 Zn152 1.920 . S
O158 C171 1.234 . S
C159 O164 1.167 1_455 S
C159 O165 1.299 . S
O160 Zn154 2.114 . S
O160 C155 1.166 . S
O161 Zn153 1.905 1_545 S
O161 C155 1.182 . S
O162 Zn153 1.898 . S
O162 C156 1.167 1_455 S
O163 Zn154 2.120 1_665 S
O163 C156 1.299 . S
O164 Zn152 1.898 . S
O164 C159 1.167 1_655 S
O165 Zn154 2.120 . S
O165 C159 1.299 . S
O166 Zn154 2.114 1_655 S
O166 C168 1.166 . S
O167 Zn152 1.905 . S
O167 C168 1.182 . S
C168 O166 1.166 . S
C168 O167 1.182 . S
O169 Zn154 2.080 . S
O169 C172 1.305 . S
O170 Zn153 1.920 . S
O170 C172 1.234 1_565 S
C171 O157 1.305 . S
C171 O158 1.234 . S
C172 O169 1.305 . S
C172 O170 1.234 1_545 S
Zn173 O179 1.920 . S
Zn173 O185 1.898 . S
Zn173 O188 1.905 . S
Zn174 O182 1.905 . S
Zn174 O183 1.898 . S
Zn174 O191 1.920 1_565 S
Zn175 O178 2.080 . S
Zn175 O181 2.114 . S
Zn175 O184 2.120 1_545 S
Zn175 O186 2.120 . S
Zn175 O187 2.114 . S
Zn175 O190 2.080 . S
C176 O181 1.166 . S
C176 O182 1.182 1_545 S
C177 O183 1.167 . S
C177 O184 1.299 . S
O178 Zn175 2.080 . S
O178 C192 1.305 . S
O179 Zn173 1.920 . S
O179 C192 1.234 . S
C180 O185 1.167 . S
C180 O186 1.299 . S
O181 Zn175 2.114 . S
O181 C176 1.166 . S
O182 Zn174 1.905 . S
O182 C176 1.182 1_565 S
O183 Zn174 1.898 . S
O183 C177 1.167 . S
O184 Zn175 2.120 1_565 S
O184 C177 1.299 . S
O185 Zn173 1.898 . S
O185 C180 1.167 . S
O186 Zn175 2.120 . S
O186 C180 1.299 . S
O187 Zn175 2.114 . S
O187 C189 1.166 . S
O188 Zn173 1.905 . S
O188 C189 1.182 . S
C189 O187 1.166 . S
C189 O188 1.182 . S
O190 Zn175 2.080 . S
O190 C193 1.305 . S
O191 Zn174 1.920 1_545 S
O191 C193 1.234 . S
C192 O178 1.305 . S
C192 O179 1.234 . S
C193 O190 1.305 . S
C193 O191 1.234 . S
Zn194 O200 1.920 . S
Zn194 O206 1.898 . S
Zn194 O209 1.905 . S
Zn195 O203 1.905 . S
Zn195 O204 1.898 . S
Zn195 O212 1.920 . S
Zn196 O199 2.080 . S
Zn196 O202 2.114 . S
Zn196 O205 2.120 . S
Zn196 O207 2.120 . S
Zn196 O208 2.114 . S
Zn196 O211 2.080 . S
C197 O202 1.166 . S
C197 O203 1.182 . S
C198 O204 1.167 . S
C198 O205 1.299 . S
O199 Zn196 2.080 . S
O199 C213 1.305 . S
O200 Zn194 1.920 . S
O200 C213 1.234 . S
C201 O206 1.167 . S
C201 O207 1.299 . S
O202 Zn196 2.114 . S
O202 C197 1.166 . S
O203 Zn195 1.905 . S
O203 C197 1.182 . S
O204 Zn195 1.898 . S
O204 C198 1.167 . S
O205 Zn196 2.120 . S
O205 C198 1.299 . S
O206 Zn194 1.898 . S
O206 C201 1.167 . S
O207 Zn196 2.120 . S
O207 C201 1.299 . S
O208 Zn196 2.114 . S
O208 C210 1.166 . S
O209 Zn194 1.905 . S
O209 C210 1.182 . S
C210 O208 1.166 . S
C210 O209 1.182 . S
O211 Zn196 2.080 . S
O211 C214 1.305 . S
O212 Zn195 1.920 . S
O212 C214 1.234 . S
C213 O199 1.305 . S
C213 O200 1.234 . S
C214 O211 1.305 . S
C214 O212 1.234 . S
Zn215 O221 1.920 . S
Zn215 O227 1.898 1_556 S
Zn215 O230 1.905 . S
Zn216 O224 1.905 1_655 S
Zn216 O225 1.898 . S
Zn216 O233 1.920 . S
Zn217 O220 2.079 1_554 S
Zn217 O223 2.114 . S
Zn217 O226 2.120 1_455 S
Zn217 O228 2.120 . S
Zn217 O229 2.114 1_554 S
Zn217 O232 2.080 . S
C218 O223 1.166 . S
C218 O224 1.182 . S
C219 O225 1.167 . S
C219 O226 1.299 . S
O220 Zn217 2.079 1_556 S
O220 C234 1.304 . S
O221 Zn215 1.920 . S
O221 C234 1.244 . S
C222 O227 1.167 . S
C222 O228 1.299 . S
O223 Zn217 2.114 . S
O223 C218 1.166 . S
O224 Zn216 1.905 1_455 S
O224 C218 1.182 . S
O225 Zn216 1.898 . S
O225 C219 1.167 . S
O226 Zn217 2.120 1_655 S
O226 C219 1.299 . S
O227 Zn215 1.898 1_554 S
O227 C222 1.167 . S
O228 Zn217 2.120 . S
O228 C222 1.299 . S
O229 Zn217 2.114 1_556 S
O229 C231 1.166 . S
O230 Zn215 1.905 . S
O230 C231 1.182 . S
C231 O229 1.166 . S
C231 O230 1.182 . S
O232 Zn217 2.080 . S
O232 C235 1.305 1_455 S
O233 Zn216 1.920 . S
O233 C235 1.234 . S
C234 O220 1.304 . S
C234 O221 1.244 . S
C235 O232 1.305 1_655 S
C235 O233 1.234 . S
H236 C242 0.930 . S
H237 C245 0.930 . S
H238 C246 0.930 . S
H239 C247 0.930 . S
H240 C250 0.930 . S
H241 C251 0.930 . S
C242 H236 0.930 . S
C242 C243 1.355 . S
C242 C244 1.415 . S
C243 C242 1.355 . S
C243 C245 1.419 . S
C244 C242 1.415 . S
C244 C249 1.425 . S
C244 C251 1.409 . S
C245 H237 0.930 . S
C245 C243 1.419 . S
C245 C246 1.362 . S
C246 H238 0.930 . S
C246 C245 1.362 . S
C246 C249 1.409 . S
C247 H239 0.930 . S
C247 C248 1.355 . S
C247 C249 1.415 . S
C248 C247 1.355 . S
C248 C250 1.419 . S
C249 C244 1.425 . S
C249 C246 1.409 . S
C249 C247 1.415 . S
C250 H240 0.930 . S
C250 C248 1.419 . S
C250 C251 1.362 . S
C251 H241 0.930 . S
C251 C244 1.409 . S
C251 C250 1.362 . S
H252 C258 0.930 . S
H253 C261 0.930 . S
H254 C262 0.930 . S
H255 C263 0.930 . S
H256 C266 0.926 1_545 S
H257 C267 0.930 1_545 S
C258 H252 0.930 . S
C258 C259 1.355 . S
C258 C260 1.415 . S
C259 C258 1.355 . S
C259 C261 1.419 . S
C260 C258 1.415 . S
C260 C265 1.425 . S
C260 C267 1.409 . S
C261 H253 0.930 . S
C261 C259 1.419 . S
C261 C262 1.362 . S
C262 H254 0.930 . S
C262 C261 1.362 . S
C262 C265 1.409 . S
C263 H255 0.930 . S
C263 C264 1.355 . S
C263 C265 1.415 . S
C264 C263 1.355 . S
C264 C266 1.422 . S
C265 C260 1.425 . S
C265 C262 1.409 . S
C265 C263 1.415 . S
C266 H256 0.926 1_565 S
C266 C264 1.422 . S
C266 C267 1.363 . S
C267 H257 0.930 1_565 S
C267 C260 1.409 . S
C267 C266 1.363 . S
H268 C274 0.930 . S
H269 C277 0.930 . S
H270 C278 0.930 . S
H271 C279 0.930 . S
H272 C282 0.930 . S
H273 C283 0.930 . S
C274 H268 0.930 . S
C274 C275 1.355 . S
C274 C276 1.415 . S
C275 C274 1.355 . S
C275 C277 1.419 . S
C276 C274 1.415 . S
C276 C281 1.425 . S
C276 C283 1.409 . S
C277 H269 0.930 . S
C277 C275 1.419 . S
C277 C278 1.362 . S
C278 H270 0.930 . S
C278 C277 1.362 . S
C278 C281 1.409 . S
C279 H271 0.930 . S
C279 C280 1.355 . S
C279 C281 1.415 . S
C280 C279 1.355 . S
C280 C282 1.419 . S
C281 C276 1.425 . S
C281 C278 1.409 . S
C281 C279 1.415 . S
C282 H272 0.930 . S
C282 C280 1.419 . S
C282 C283 1.362 . S
C283 H273 0.930 . S
C283 C276 1.409 . S
C283 C282 1.362 . S
H284 C290 0.930 . S
H285 C293 0.930 . S
H286 C294 0.930 . S
H287 C295 0.930 . S
H288 C298 0.930 . S
H289 C299 0.930 . S
C290 H284 0.930 . S
C290 C291 1.355 . S
C290 C292 1.415 . S
C291 C290 1.355 . S
C291 C293 1.419 . S
C292 C290 1.415 . S
C292 C297 1.425 . S
C292 C299 1.409 . S
C293 H285 0.930 . S
C293 C291 1.419 . S
C293 C294 1.362 . S
C294 H286 0.930 . S
C294 C293 1.362 . S
C294 C297 1.409 . S
C295 H287 0.930 . S
C295 C296 1.355 . S
C295 C297 1.415 . S
C296 C295 1.355 . S
C296 C298 1.419 . S
C297 C292 1.425 . S
C297 C294 1.409 . S
C297 C295 1.415 . S
C298 H288 0.930 . S
C298 C296 1.419 . S
C298 C299 1.362 . S
C299 H289 0.930 . S
C299 C292 1.409 . S
C299 C298 1.362 . S
H300 C306 0.930 . S
H301 C309 0.930 . S
H302 C310 0.930 . S
H303 C311 0.930 . S
H304 C314 0.930 . S
H305 C315 0.930 . S
C306 H300 0.930 . S
C306 C307 1.355 . S
C306 C308 1.415 . S
C307 C306 1.355 . S
C307 C309 1.419 . S
C308 C306 1.415 . S
C308 C313 1.425 . S
C308 C315 1.409 . S
C309 H301 0.930 . S
C309 C307 1.419 . S
C309 C310 1.362 . S
C310 H302 0.930 . S
C310 C309 1.362 . S
C310 C313 1.409 . S
C311 H303 0.930 . S
C311 C312 1.355 . S
C311 C313 1.415 . S
C312 C311 1.355 . S
C312 C314 1.419 . S
C313 C308 1.425 . S
C313 C310 1.409 . S
C313 C311 1.415 . S
C314 H304 0.930 . S
C314 C312 1.419 . S
C314 C315 1.362 . S
C315 H305 0.930 . S
C315 C308 1.409 . S
C315 C314 1.362 . S
H316 C322 0.930 1_545 S
H317 C325 0.930 . S
H318 C326 0.930 . S
H319 C327 0.930 . S
H320 C330 0.930 . S
H321 C331 0.930 . S
C322 H316 0.930 1_565 S
C322 C323 1.355 . S
C322 C324 1.415 . S
C323 C322 1.355 . S
C323 C325 1.419 . S
C324 C322 1.415 . S
C324 C329 1.425 . S
C324 C331 1.409 1_565 S
C325 H317 0.930 . S
C325 C323 1.419 . S
C325 C326 1.362 . S
C326 H318 0.930 . S
C326 C325 1.362 . S
C326 C329 1.409 . S
C327 H319 0.930 . S
C327 C328 1.355 1_565 S
C327 C329 1.415 . S
C328 C327 1.355 1_545 S
C328 C330 1.419 . S
C329 C324 1.425 . S
C329 C326 1.409 . S
C329 C327 1.415 . S
C330 H320 0.930 . S
C330 C328 1.419 . S
C330 C331 1.362 . S
C331 H321 0.930 . S
C331 C324 1.409 1_545 S
C331 C330 1.362 . S
H332 C338 0.930 . S
H333 C341 0.930 . S
H334 C342 0.930 . S
H335 C343 0.930 . S
H336 C346 0.930 . S
H337 C347 0.930 . S
C338 H332 0.930 . S
C338 C339 1.355 . S
C338 C340 1.415 . S
C339 C338 1.355 . S
C339 C341 1.419 . S
C340 C338 1.415 . S
C340 C345 1.425 . S
C340 C347 1.409 . S
C341 H333 0.930 . S
C341 C339 1.419 . S
C341 C342 1.362 . S
C342 H334 0.930 . S
C342 C341 1.362 . S
C342 C345 1.409 . S
C343 H335 0.930 . S
C343 C344 1.355 . S
C343 C345 1.415 . S
C344 C343 1.355 . S
C344 C346 1.419 . S
C345 C340 1.425 . S
C345 C342 1.409 . S
C345 C343 1.415 . S
C346 H336 0.930 . S
C346 C344 1.419 . S
C346 C347 1.362 . S
C347 H337 0.930 . S
C347 C340 1.409 . S
C347 C346 1.362 . S
H348 C354 0.930 . S
H349 C357 0.930 . S
H350 C358 0.930 . S
H351 C359 0.930 . S
H352 C362 0.930 . S
H353 C363 0.930 . S
C354 H348 0.930 . S
C354 C355 1.355 . S
C354 C356 1.415 . S
C355 C354 1.355 . S
C355 C357 1.419 . S
C356 C354 1.415 . S
C356 C361 1.425 . S
C356 C363 1.409 . S
C357 H349 0.930 . S
C357 C355 1.419 . S
C357 C358 1.362 . S
C358 H350 0.930 . S
C358 C357 1.362 . S
C358 C361 1.409 . S
C359 H351 0.930 . S
C359 C360 1.355 . S
C359 C361 1.415 . S
C360 C359 1.355 . S
C360 C362 1.419 . S
C361 C356 1.425 . S
C361 C358 1.409 . S
C361 C359 1.415 . S
C362 H352 0.930 . S
C362 C360 1.419 . S
C362 C363 1.362 . S
C363 H353 0.930 . S
C363 C356 1.409 . S
C363 C362 1.362 . S
H364 C370 0.930 . S
H365 C373 0.930 . S
H366 C374 0.930 . S
H367 C375 0.930 . S
H368 C378 0.930 . S
H369 C379 0.930 . S
C370 H364 0.930 . S
C370 C371 1.355 . S
C370 C372 1.415 . S
C371 C370 1.355 . S
C371 C373 1.419 . S
C372 C370 1.415 . S
C372 C377 1.425 . S
C372 C379 1.409 . S
C373 H365 0.930 . S
C373 C371 1.419 . S
C373 C374 1.362 . S
C374 H366 0.930 . S
C374 C373 1.362 . S
C374 C377 1.409 . S
C375 H367 0.930 . S
C375 C376 1.355 . S
C375 C377 1.415 . S
C376 C375 1.355 . S
C376 C378 1.419 . S
C377 C372 1.425 . S
C377 C374 1.409 . S
C377 C375 1.415 . S
C378 H368 0.930 . S
C378 C376 1.419 . S
C378 C379 1.362 . S
C379 H369 0.930 . S
C379 C372 1.409 . S
C379 C378 1.362 . S
H380 C386 0.949 . S
H381 C389 0.930 . S
H382 C390 0.930 . S
H383 C391 0.930 . S
H384 C394 0.930 . S
H385 C395 0.930 . S
C386 H380 0.949 . S
C386 C387 1.327 1_554 S
C386 C388 1.423 . S
C387 C386 1.327 1_556 S
C387 C389 1.419 . S
C388 C386 1.423 . S
C388 C393 1.425 1_554 S
C388 C395 1.409 . S
C389 H381 0.930 . S
C389 C387 1.419 . S
C389 C390 1.362 . S
C390 H382 0.930 . S
C390 C389 1.362 . S
C390 C393 1.409 . S
C391 H383 0.930 . S
C391 C392 1.355 1_556 S
C391 C393 1.415 . S
C392 C391 1.355 1_554 S
C392 C394 1.419 . S
C393 C388 1.425 1_556 S
C393 C390 1.409 . S
C393 C391 1.415 . S
C394 H384 0.930 . S
C394 C392 1.419 . S
C394 C395 1.362 . S
C395 H385 0.930 . S
C395 C388 1.409 . S
C395 C394 1.362 . S
H396 C402 0.930 . S
H397 C405 0.930 . S
H398 C406 0.930 . S
H399 C407 0.930 . S
H400 C410 0.930 . S
H401 C411 0.930 . S
C402 H396 0.930 . S
C402 C403 1.355 . S
C402 C404 1.415 . S
C403 C402 1.355 . S
C403 C405 1.419 . S
C404 C402 1.415 . S
C404 C409 1.425 . S
C404 C411 1.409 . S
C405 H397 0.930 . S
C405 C403 1.419 . S
C405 C406 1.362 . S
C406 H398 0.930 . S
C406 C405 1.362 . S
C406 C409 1.409 . S
C407 H399 0.930 . S
C407 C408 1.355 . S
C407 C409 1.415 . S
C408 C407 1.355 . S
C408 C410 1.419 . S
C409 C404 1.425 . S
C409 C406 1.409 . S
C409 C407 1.415 . S
C410 H400 0.930 . S
C410 C408 1.419 . S
C410 C411 1.362 . S
C411 H401 0.930 . S
C411 C404 1.409 . S
C411 C410 1.362 . S
H412 C418 0.930 . S
H413 C421 0.930 . S
H414 C422 0.930 . S
H415 C423 0.930 . S
H416 C426 0.930 . S
H417 C427 0.930 . S
C418 H412 0.930 . S
C418 C419 1.355 . S
C418 C420 1.415 . S
C419 C418 1.355 . S
C419 C421 1.419 . S
C420 C418 1.415 . S
C420 C425 1.425 . S
C420 C427 1.409 . S
C421 H413 0.930 . S
C421 C419 1.419 . S
C421 C422 1.362 . S
C422 H414 0.930 . S
C422 C421 1.362 . S
C422 C425 1.409 . S
C423 H415 0.930 . S
C423 C424 1.355 . S
C423 C425 1.415 . S
C424 C423 1.355 . S
C424 C426 1.419 . S
C425 C420 1.425 . S
C425 C422 1.409 . S
C425 C423 1.415 . S
C426 H416 0.930 . S
C426 C424 1.419 . S
C426 C427 1.362 . S
C427 H417 0.930 . S
C427 C420 1.409 . S
C427 C426 1.362 . S
H428 C434 0.930 . S
H429 C437 0.930 . S
H430 C438 0.930 . S
H431 C439 0.930 . S
H432 C442 0.930 . S
H433 C443 0.930 . S
C434 H428 0.930 . S
C434 C435 1.355 1_565 S
C434 C436 1.414 . S
C435 C434 1.355 1_545 S
C435 C437 1.419 1_655 S
C436 C434 1.414 . S
C436 C441 1.426 1_665 S
C436 C443 1.409 . S
C437 H429 0.930 . S
C437 C435 1.419 1_455 S
C437 C438 1.362 . S
C438 H430 0.930 . S
C438 C437 1.362 . S
C438 C441 1.409 . S
C439 H431 0.930 . S
C439 C440 1.355 1_455 S
C439 C441 1.415 . S
C440 C439 1.355 1_655 S
C440 C442 1.419 1_545 S
C441 C436 1.426 1_445 S
C441 C438 1.409 . S
C441 C439 1.415 . S
C442 H432 0.930 . S
C442 C440 1.419 1_565 S
C442 C443 1.362 . S
C443 H433 0.930 . S
C443 C436 1.409 . S
C443 C442 1.362 . S
H444 C450 0.930 . S
H445 C453 0.930 . S
H446 C454 0.930 . S
H447 C455 0.930 . S
H448 C458 0.930 . S
H449 C459 0.930 1_565 S
C450 H444 0.930 . S
C450 C451 1.355 . S
C450 C452 1.415 . S
C451 C450 1.355 . S
C451 C453 1.419 . S
C452 C450 1.415 . S
C452 C457 1.425 . S
C452 C459 1.409 . S
C453 H445 0.930 . S
C453 C451 1.419 . S
C453 C454 1.362 . S
C454 H446 0.930 . S
C454 C453 1.362 . S
C454 C457 1.409 . S
C455 H447 0.930 . S
C455 C456 1.355 . S
C455 C457 1.415 . S
C456 C455 1.355 . S
C456 C458 1.419 . S
C457 C452 1.425 . S
C457 C454 1.409 . S
C457 C455 1.415 . S
C458 H448 0.930 . S
C458 C456 1.419 . S
C458 C459 1.362 . S
C459 H449 0.930 1_545 S
C459 C452 1.409 . S
C459 C458 1.362 . S
H460 C466 0.930 . S
H461 C469 0.930 . S
H462 C470 0.930 . S
H463 C471 0.930 . S
H464 C474 0.930 . S
H465 C475 0.930 . S
C466 H460 0.930 . S
C466 C467 1.355 . S
C466 C468 1.415 . S
C467 C466 1.355 . S
C467 C469 1.419 . S
C468 C466 1.415 . S
C468 C473 1.425 . S
C468 C475 1.409 . S
C469 H461 0.930 . S
C469 C467 1.419 . S
C469 C470 1.362 . S
C470 H462 0.930 . S
C470 C469 1.362 . S
C470 C473 1.409 . S
C471 H463 0.930 . S
C471 C472 1.355 . S
C471 C473 1.415 . S
C472 C471 1.355 . S
C472 C474 1.419 . S
C473 C468 1.425 . S
C473 C470 1.409 . S
C473 C471 1.415 . S
C474 H464 0.930 . S
C474 C472 1.419 . S
C474 C475 1.362 . S
C475 H465 0.930 . S
C475 C468 1.409 . S
C475 C474 1.362 . S
H476 C482 0.930 . S
H477 C485 0.930 . S
H478 C486 0.930 1_655 S
H479 C487 0.930 . S
H480 C490 0.930 . S
H481 C491 0.930 . S
C482 H476 0.930 . S
C482 C483 1.355 . S
C482 C484 1.415 . S
C483 C482 1.355 . S
C483 C485 1.419 . S
C484 C482 1.415 . S
C484 C489 1.425 . S
C484 C491 1.409 . S
C485 H477 0.930 . S
C485 C483 1.419 . S
C485 C486 1.362 . S
C486 H478 0.930 1_455 S
C486 C485 1.362 . S
C486 C489 1.409 . S
C487 H479 0.930 . S
C487 C488 1.355 . S
C487 C489 1.415 . S
C488 C487 1.355 . S
C488 C490 1.419 . S
C489 C484 1.425 . S
C489 C486 1.409 . S
C489 C487 1.415 . S
C490 H480 0.930 . S
C490 C488 1.419 . S
C490 C491 1.362 . S
C491 H481 0.930 . S
C491 C484 1.409 . S
C491 C490 1.362 . S
H492 C498 0.930 1_556 S
H493 C501 0.930 1_565 S
H494 C502 0.930 1_565 S
H495 C503 0.930 1_565 S
H496 C506 0.930 . S
H497 C507 0.930 1_556 S
C498 H492 0.930 1_554 S
C498 C499 1.355 . S
C498 C500 1.415 . S
C499 C498 1.355 . S
C499 C501 1.419 . S
C500 C498 1.415 . S
C500 C505 1.425 . S
C500 C507 1.409 . S
C501 H493 0.930 1_545 S
C501 C499 1.419 . S
C501 C502 1.362 . S
C502 H494 0.930 1_545 S
C502 C501 1.362 . S
C502 C505 1.409 . S
C503 H495 0.930 1_545 S
C503 C504 1.355 . S
C503 C505 1.415 . S
C504 C503 1.355 . S
C504 C506 1.419 . S
C505 C500 1.425 . S
C505 C502 1.409 . S
C505 C503 1.415 . S
C506 H496 0.930 . S
C506 C504 1.419 . S
C506 C507 1.362 . S
C507 H497 0.930 1_554 S
C507 C500 1.409 . S
C507 C506 1.362 . S
H508 C514 0.930 . S
H509 C517 0.930 . S
H510 C518 0.930 . S
H511 C519 0.930 . S
H512 C522 0.930 . S
H513 C523 0.930 . S
C514 H508 0.930 . S
C514 C515 1.355 . S
C514 C516 1.415 . S
C515 C514 1.355 . S
C515 C517 1.419 . S
C516 C514 1.415 . S
C516 C521 1.425 . S
C516 C523 1.409 . S
C517 H509 0.930 . S
C517 C515 1.419 . S
C517 C518 1.362 . S
C518 H510 0.930 . S
C518 C517 1.362 . S
C518 C521 1.409 . S
C519 H511 0.930 . S
C519 C520 1.355 . S
C519 C521 1.415 . S
C520 C519 1.355 . S
C520 C522 1.419 . S
C521 C516 1.425 . S
C521 C518 1.409 . S
C521 C519 1.415 . S
C522 H512 0.930 . S
C522 C520 1.419 . S
C522 C523 1.362 . S
C523 H513 0.930 . S
C523 C516 1.409 . S
C523 C522 1.362 . S
H524 C530 0.930 . S
H525 C533 0.930 . S
H526 C534 0.930 . S
H527 C535 0.930 . S
H528 C538 0.930 1_556 S
H529 C539 0.930 . S
C530 H524 0.930 . S
C530 C531 1.355 . S
C530 C532 1.415 . S
C531 C530 1.355 . S
C531 C533 1.419 . S
C532 C530 1.415 . S
C532 C537 1.425 . S
C532 C539 1.409 . S
C533 H525 0.930 . S
C533 C531 1.419 . S
C533 C534 1.362 . S
C534 H526 0.930 . S
C534 C533 1.362 . S
C534 C537 1.409 . S
C535 H527 0.930 . S
C535 C536 1.355 . S
C535 C537 1.415 . S
C536 C535 1.355 . S
C536 C538 1.419 . S
C537 C532 1.425 . S
C537 C534 1.409 . S
C537 C535 1.415 . S
C538 H528 0.930 1_554 S
C538 C536 1.419 . S
C538 C539 1.362 . S
C539 H529 0.930 . S
C539 C532 1.409 . S
C539 C538 1.362 . S
H540 C546 0.930 . S
H541 C549 0.930 . S
H542 C550 0.930 . S
H543 C551 0.930 . S
H544 C554 0.930 . S
H545 C555 0.930 . S
C546 H540 0.930 . S
C546 C547 1.355 . S
C546 C548 1.415 . S
C547 C546 1.355 . S
C547 C549 1.419 . S
C548 C546 1.415 . S
C548 C553 1.425 . S
C548 C555 1.409 . S
C549 H541 0.930 . S
C549 C547 1.419 . S
C549 C550 1.362 . S
C550 H542 0.930 . S
C550 C549 1.362 . S
C550 C553 1.409 . S
C551 H543 0.930 . S
C551 C552 1.355 . S
C551 C553 1.415 . S
C552 C551 1.355 . S
C552 C554 1.419 . S
C553 C548 1.425 . S
C553 C550 1.409 . S
C553 C551 1.415 . S
C554 H544 0.930 . S
C554 C552 1.419 . S
C554 C555 1.362 . S
C555 H545 0.930 . S
C555 C548 1.409 . S
C555 C554 1.362 . S
H556 C562 0.930 . S
H557 C565 0.930 . S
H558 C566 0.930 . S
H559 C567 0.930 . S
H560 C570 0.930 . S
H561 C571 0.930 . S
C562 H556 0.930 . S
C562 C563 1.355 . S
C562 C564 1.415 . S
C563 C562 1.355 . S
C563 C565 1.419 1_656 S
C564 C562 1.415 . S
C564 C569 1.425 1_656 S
C564 C571 1.409 . S
C565 H557 0.930 . S
C565 C563 1.419 1_454 S
C565 C566 1.362 . S
C566 H558 0.930 . S
C566 C565 1.362 . S
C566 C569 1.409 . S
C567 H559 0.930 . S
C567 C568 1.355 1_554 S
C567 C569 1.415 . S
C568 C567 1.355 1_556 S
C568 C570 1.419 1_455 S
C569 C564 1.425 1_454 S
C569 C566 1.409 . S
C569 C567 1.415 . S
C570 H560 0.930 . S
C570 C568 1.419 1_655 S
C570 C571 1.362 . S
C571 H561 0.930 . S
C571 C564 1.409 . S
C571 C570 1.362 . S
H572 C578 0.930 . S
H573 C581 0.930 . S
H574 C582 0.930 . S
H575 C583 0.930 . S
H576 C586 0.930 . S
H577 C587 0.930 . S
C578 H572 0.930 . S
C578 C579 1.355 . S
C578 C580 1.415 . S
C579 C578 1.355 . S
C579 C581 1.419 . S
C580 C578 1.415 . S
C580 C585 1.425 . S
C580 C587 1.409 . S
C581 H573 0.930 . S
C581 C579 1.419 . S
C581 C582 1.362 . S
C582 H574 0.930 . S
C582 C581 1.362 . S
C582 C585 1.409 . S
C583 H575 0.930 . S
C583 C584 1.355 . S
C583 C585 1.415 . S
C584 C583 1.355 . S
C584 C586 1.419 . S
C585 C580 1.425 . S
C585 C582 1.409 . S
C585 C583 1.415 . S
C586 H576 0.930 . S
C586 C584 1.419 . S
C586 C587 1.362 . S
C587 H577 0.930 . S
C587 C580 1.409 . S
C587 C586 1.362 . S
H588 C594 0.930 . S
H589 C597 0.930 . S
H590 C598 0.930 . S
H591 C599 0.930 . S
H592 C602 0.930 1_655 S
H593 C603 0.930 1_655 S
C594 H588 0.930 . S
C594 C595 1.355 . S
C594 C596 1.415 . S
C595 C594 1.355 . S
C595 C597 1.419 . S
C596 C594 1.415 . S
C596 C601 1.425 . S
C596 C603 1.409 . S
C597 H589 0.930 . S
C597 C595 1.419 . S
C597 C598 1.362 . S
C598 H590 0.930 . S
C598 C597 1.362 . S
C598 C601 1.409 . S
C599 H591 0.930 . S
C599 C600 1.355 . S
C599 C601 1.415 . S
C600 C599 1.355 . S
C600 C602 1.419 . S
C601 C596 1.425 . S
C601 C598 1.409 . S
C601 C599 1.415 . S
C602 H592 0.930 1_455 S
C602 C600 1.419 . S
C602 C603 1.362 . S
C603 H593 0.930 1_455 S
C603 C596 1.409 . S
C603 C602 1.362 . S
H604 C610 0.930 . S
H605 C613 0.930 . S
H606 C614 0.930 . S
H607 C615 0.930 . S
H608 C618 0.930 . S
H609 C619 0.930 . S
C610 H604 0.930 . S
C610 C611 1.355 . S
C610 C612 1.415 . S
C611 C610 1.355 . S
C611 C613 1.419 . S
C612 C610 1.415 . S
C612 C617 1.425 . S
C612 C619 1.409 . S
C613 H605 0.930 . S
C613 C611 1.419 . S
C613 C614 1.362 . S
C614 H606 0.930 . S
C614 C613 1.362 . S
C614 C617 1.409 . S
C615 H607 0.930 . S
C615 C616 1.355 . S
C615 C617 1.415 . S
C616 C615 1.355 . S
C616 C618 1.419 . S
C617 C612 1.425 . S
C617 C614 1.409 . S
C617 C615 1.415 . S
C618 H608 0.930 . S
C618 C616 1.419 . S
C618 C619 1.362 . S
C619 H609 0.930 . S
C619 C612 1.409 . S
C619 C618 1.362 . S
C243 C6 1.791 . S
C248 C155 1.625 . S
C259 C21 2.008 . S
C264 C189 1.819 1_566 S
C280 C201 0.924 . S
C275 C49 0.990 . S
C291 C68 1.221 . S
C296 C235 1.274 . S
C312 C192 2.000 . S
C307 C2 2.177 . S
C328 C172 1.273 . S
C323 C30 1.126 . S
C344 C219 1.236 1_556 S
C339 C40 1.399 . S
C360 C210 1.357 . S
C355 C63 1.393 . S
C371 C11 1.446 . S
C376 C218 1.485 . S
C392 C180 1.559 . S
C387 C44 1.671 . S
C403 C59 1.200 . S
C408 C156 1.172 . S
C419 C25 1.777 . S
C424 C213 1.649 . S
C440 C171 1.950 . S
C435 C82 2.057 1_545 S
C451 C101 1.799 . S
C456 C193 1.631 . S
C467 C125 1.438 . S
C472 C198 1.413 . S
C483 C144 1.122 . S
C488 C231 1.191 . S
C499 C87 1.329 . S
C504 C176 1.436 . S
C520 C168 1.985 . S
C515 C97 2.135 . S
C536 C222 1.381 . S
C531 C120 1.419 . S
C552 C214 1.321 . S
C547 C135 1.512 . S
C563 C78 1.909 . S
C568 C234 1.791 . S
C584 C177 1.291 . S
C579 C116 1.346 . S
C600 C159 1.607 . S
C595 C139 1.701 . S
C611 C106 1.499 . S
C616 C197 1.539 . S
