# Generated by pormake.
# Topology pyr, (3,6)-cn, num edge types: 1
# Building blocks:
#     Node 0, Type 0, BuildingBlock: BELTOD_clean_linker_0, # of connection points: 3
#     Node 1, Type 0, BuildingBlock: BELTOD_clean_linker_0, # of connection points: 3
#     Node 2, Type 0, BuildingBlock: BELTOD_clean_linker_0, # of connection points: 3
#     Node 3, Type 0, BuildingBlock: BELTOD_clean_linker_0, # of connection points: 3
#     Node 4, Type 0, BuildingBlock: BELTOD_clean_linker_0, # of connection points: 3
#     Node 5, Type 0, BuildingBlock: BELTOD_clean_linker_0, # of connection points: 3
#     Node 6, Type 0, BuildingBlock: BELTOD_clean_linker_0, # of connection points: 3
#     Node 7, Type 0, BuildingBlock: BELTOD_clean_linker_0, # of connection points: 3
#     Node 8, Type 1, BuildingBlock: INOVEN_clean_sbu_0, # of connection points: 6
#     Node 9, Type 1, BuildingBlock: INOVEN_clean_sbu_0, # of connection points: 6
#     Node 10, Type 1, BuildingBlock: INOVEN_clean_sbu_0, # of connection points: 6
#     Node 11, Type 1, BuildingBlock: INOVEN_clean_sbu_0, # of connection points: 6
#     Edge 12, Type (0, 1), BuildingBlock: TEMPAE_clean_linker_10, # of connection points: 2
#     Edge 13, Type (0, 1), BuildingBlock: TEMPAE_clean_linker_10, # of connection points: 2
#     Edge 14, Type (0, 1), BuildingBlock: TEMPAE_clean_linker_10, # of connection points: 2
#     Edge 15, Type (0, 1), BuildingBlock: TEMPAE_clean_linker_10, # of connection points: 2
#     Edge 16, Type (0, 1), BuildingBlock: TEMPAE_clean_linker_10, # of connection points: 2
#     Edge 17, Type (0, 1), BuildingBlock: TEMPAE_clean_linker_10, # of connection points: 2
#     Edge 18, Type (0, 1), BuildingBlock: TEMPAE_clean_linker_10, # of connection points: 2
#     Edge 19, Type (0, 1), BuildingBlock: TEMPAE_clean_linker_10, # of connection points: 2
#     Edge 20, Type (0, 1), BuildingBlock: TEMPAE_clean_linker_10, # of connection points: 2
#     Edge 21, Type (0, 1), BuildingBlock: TEMPAE_clean_linker_10, # of connection points: 2
#     Edge 22, Type (0, 1), BuildingBlock: TEMPAE_clean_linker_10, # of connection points: 2
#     Edge 23, Type (0, 1), BuildingBlock: TEMPAE_clean_linker_10, # of connection points: 2
#     Edge 24, Type (0, 1), BuildingBlock: TEMPAE_clean_linker_10, # of connection points: 2
#     Edge 25, Type (0, 1), BuildingBlock: TEMPAE_clean_linker_10, # of connection points: 2
#     Edge 26, Type (0, 1), BuildingBlock: TEMPAE_clean_linker_10, # of connection points: 2
#     Edge 27, Type (0, 1), BuildingBlock: TEMPAE_clean_linker_10, # of connection points: 2
#     Edge 28, Type (0, 1), BuildingBlock: TEMPAE_clean_linker_10, # of connection points: 2
#     Edge 29, Type (0, 1), BuildingBlock: TEMPAE_clean_linker_10, # of connection points: 2
#     Edge 30, Type (0, 1), BuildingBlock: TEMPAE_clean_linker_10, # of connection points: 2
#     Edge 31, Type (0, 1), BuildingBlock: TEMPAE_clean_linker_10, # of connection points: 2
#     Edge 32, Type (0, 1), BuildingBlock: TEMPAE_clean_linker_10, # of connection points: 2
#     Edge 33, Type (0, 1), BuildingBlock: TEMPAE_clean_linker_10, # of connection points: 2
#     Edge 34, Type (0, 1), BuildingBlock: TEMPAE_clean_linker_10, # of connection points: 2
#     Edge 35, Type (0, 1), BuildingBlock: TEMPAE_clean_linker_10, # of connection points: 2
# Relax obj value: 0.101
# Max RMSD: 0.128
# Mean RMSD: 0.060
data_MOF--net-pyr--node1-INOVEN_clean_sbu_0--node2-BELTOD_clean_linker_0--edge1-TEMPAE_clean_linker_10
_symmetry_space_group_name_H-M    P1
_symmetry_Int_Tables_number       1
_symmetry_cell_setting            triclinic
loop_
_symmetry_equiv_pos_as_xyz
'x, y, z'
_cell_length_a     43.437974
_cell_length_b     47.331292
_cell_length_c     42.54452
_cell_angle_alpha  91.530989
_cell_angle_beta   88.951122
_cell_angle_gamma 99.720603
loop_
_atom_site_label
_atom_site_type_symbol
_atom_site_fract_x
_atom_site_fract_y
_atom_site_fract_z
_atom_type_partial_charge
P0 P 0.35811 0.28998 0.23655 0.0
H1 H 0.41799 0.28585 0.20536 0.0
H2 H 0.43919 0.24526 0.18133 0.0
H3 H 0.35202 0.18941 0.20086 0.0
H4 H 0.33078 0.22984 0.22405 0.0
H5 H 0.3409 0.34657 0.24189 0.0
H6 H 0.30645 0.37016 0.21088 0.0
H7 H 0.30204 0.30237 0.14006 0.0
H8 H 0.33532 0.27832 0.17202 0.0
H9 H 0.36109 0.257 0.29298 0.0
H10 H 0.28996 0.2887 0.24122 0.0
O11 O 0.38691 0.31105 0.25549 0.0
H12 H 0.32051 0.22948 0.32591 0.0
H13 H 0.24986 0.26253 0.2746 0.0
C14 C 0.37316 0.26072 0.21724 0.0
C15 C 0.40347 0.26487 0.20437 0.0
C16 C 0.4155 0.24175 0.19061 0.0
C17 C 0.39736 0.21417 0.18976 0.0
C18 C 0.36669 0.21033 0.20182 0.0
C19 C 0.35457 0.23347 0.2151 0.0
C20 C 0.34091 0.31087 0.20915 0.0
C21 C 0.33324 0.33726 0.21924 0.0
C22 C 0.3135 0.35073 0.20141 0.0
C23 C 0.30115 0.33806 0.17303 0.0
C24 C 0.3106 0.31247 0.16207 0.0
C25 C 0.33002 0.29884 0.18015 0.0
C26 C 0.32873 0.27503 0.2647 0.0
C27 C 0.33688 0.25871 0.28929 0.0
C28 C 0.31366 0.24304 0.30811 0.0
C29 C 0.28192 0.24357 0.30263 0.0
C30 C 0.27404 0.2612 0.27903 0.0
C31 C 0.29716 0.27653 0.26007 0.0
P32 P 0.3538 0.92681 0.55957 0.0
H33 H 0.37674 0.97942 0.59533 0.0
H34 H 0.38977 0.98863 0.65094 0.0
H35 H 0.37284 0.89752 0.66655 0.0
H36 H 0.36018 0.88841 0.61127 0.0
H37 H 0.406 0.91041 0.52343 0.0
H38 H 0.42058 0.86385 0.51028 0.0
H39 H 0.33462 0.82185 0.55355 0.0
H40 H 0.3196 0.8682 0.56483 0.0
H41 H 0.3035 0.90675 0.60483 0.0
H42 H 0.31316 0.94775 0.51502 0.0
O43 O 0.372 0.95269 0.53662 0.0
H44 H 0.2478 0.90903 0.60606 0.0
H45 H 0.25771 0.95098 0.51651 0.0
C46 C 0.36795 0.93325 0.59902 0.0
C47 C 0.37653 0.96143 0.61059 0.0
C48 C 0.38393 0.96667 0.64229 0.0
C49 C 0.38221 0.94375 0.66293 0.0
C50 C 0.37417 0.91555 0.65112 0.0
C51 C 0.36716 0.91034 0.61942 0.0
C52 C 0.36164 0.89276 0.5449 0.0
C53 C 0.38993 0.89111 0.52924 0.0
C54 C 0.39837 0.86445 0.52204 0.0
C55 C 0.37894 0.839 0.53109 0.0
C56 C 0.34998 0.84086 0.54568 0.0
C57 C 0.34138 0.86748 0.55236 0.0
C58 C 0.31256 0.92757 0.56006 0.0
C59 C 0.29369 0.91638 0.58542 0.0
C60 C 0.26181 0.91771 0.58614 0.0
C61 C 0.24827 0.93026 0.56146 0.0
C62 C 0.26723 0.94079 0.53572 0.0
C63 C 0.29905 0.93926 0.53496 0.0
P64 P 0.65997 0.32441 0.84126 0.0
H65 H 0.72406 0.31479 0.85165 0.0
H66 H 0.76861 0.34061 0.88021 0.0
H67 H 0.7134 0.40413 0.91114 0.0
H68 H 0.66835 0.37769 0.88235 0.0
H69 H 0.61208 0.27388 0.82505 0.0
H70 H 0.58745 0.23198 0.85348 0.0
H71 H 0.63697 0.2658 0.93716 0.0
H72 H 0.65947 0.30874 0.90895 0.0
H73 H 0.67784 0.38306 0.81658 0.0
H74 H 0.59794 0.31594 0.80938 0.0
O75 O 0.67705 0.30633 0.81372 0.0
H76 H 0.65616 0.40994 0.77693 0.0
H77 H 0.57695 0.34161 0.76824 0.0
C78 C 0.69268 0.34444 0.864 0.0
C79 C 0.72135 0.33437 0.86432 0.0
C80 C 0.74713 0.34937 0.88074 0.0
C81 C 0.74523 0.37495 0.89787 0.0
C82 C 0.71608 0.38459 0.89837 0.0
C83 C 0.69019 0.36952 0.88171 0.0
C84 C 0.63701 0.29558 0.86472 0.0
C85 C 0.61668 0.27304 0.84987 0.0
C86 C 0.60313 0.2483 0.86625 0.0
C87 C 0.61004 0.2445 0.8981 0.0
C88 C 0.63021 0.26741 0.91302 0.0
C89 C 0.64334 0.29239 0.89669 0.0
C90 C 0.63943 0.34745 0.81732 0.0
C91 C 0.65523 0.37418 0.80707 0.0
C92 C 0.64293 0.38944 0.78347 0.0
C93 C 0.61454 0.37831 0.76828 0.0
C94 C 0.59851 0.35167 0.77908 0.0
C95 C 0.61069 0.33663 0.803 0.0
P96 P 0.83141 0.68076 0.3397 0.0
H97 H 0.85722 0.73771 0.31646 0.0
H98 H 0.88242 0.78245 0.34157 0.0
H99 H 0.88527 0.73879 0.42893 0.0
H100 H 0.8598 0.69377 0.40343 0.0
H101 H 0.81132 0.64973 0.28127 0.0
H102 H 0.83665 0.62409 0.24105 0.0
H103 H 0.92101 0.63711 0.29567 0.0
H104 H 0.89543 0.66435 0.33545 0.0
H105 H 0.79713 0.69617 0.39612 0.0
H106 H 0.80313 0.61903 0.34212 0.0
O107 O 0.80726 0.6953 0.31742 0.0
H108 H 0.75408 0.67047 0.42719 0.0
H109 H 0.75925 0.59325 0.3724 0.0
C110 C 0.85609 0.71211 0.35794 0.0
C111 C 0.86352 0.73751 0.34095 0.0
C112 C 0.87777 0.76335 0.35551 0.0
C113 C 0.88554 0.76472 0.38761 0.0
C114 C 0.87968 0.73882 0.40424 0.0
C115 C 0.86509 0.7129 0.38962 0.0
C116 C 0.85132 0.65941 0.31158 0.0
C117 C 0.83532 0.64719 0.28476 0.0
C118 C 0.84996 0.63207 0.26163 0.0
C119 C 0.88124 0.62801 0.26452 0.0
C120 C 0.89716 0.63989 0.29189 0.0
C121 C 0.88242 0.65536 0.31503 0.0
C122 C 0.80446 0.65955 0.36723 0.0
C123 C 0.78979 0.67347 0.39139 0.0
C124 C 0.76453 0.65873 0.40887 0.0
C125 C 0.75254 0.62956 0.40244 0.0
C126 C 0.76776 0.61549 0.3786 0.0
C127 C 0.79315 0.6303 0.36116 0.0
P128 P 0.70939 0.80577 0.83023 0.0
H129 H 0.68372 0.80432 0.89364 0.0
H130 H 0.63954 0.82415 0.91556 0.0
H131 H 0.60701 0.83376 0.82167 0.0
H132 H 0.65172 0.81445 0.79994 0.0
H133 H 0.77443 0.80633 0.84305 0.0
H134 H 0.80314 0.77038 0.86163 0.0
H135 H 0.71649 0.71144 0.8739 0.0
H136 H 0.68755 0.74825 0.85573 0.0
H137 H 0.71197 0.84444 0.77822 0.0
H138 H 0.71062 0.75405 0.79008 0.0
O139 O 0.73041 0.83805 0.83791 0.0
H140 H 0.7293 0.84011 0.7241 0.0
H141 H 0.72758 0.74929 0.73537 0.0
C142 C 0.67093 0.80773 0.84521 0.0
C143 C 0.66632 0.80947 0.87781 0.0
C144 C 0.64099 0.8209 0.89032 0.0
C145 C 0.61997 0.83095 0.87032 0.0
C146 C 0.62308 0.82663 0.83767 0.0
C147 C 0.6485 0.81528 0.82521 0.0
C148 C 0.72886 0.78013 0.84868 0.0
C149 C 0.76147 0.78591 0.85034 0.0
C150 C 0.77792 0.76516 0.86053 0.0
C151 C 0.76212 0.73793 0.86883 0.0
C152 C 0.72927 0.73229 0.86778 0.0
C153 C 0.71272 0.75326 0.85756 0.0
C154 C 0.71112 0.79983 0.7884 0.0
C155 C 0.71441 0.82343 0.76881 0.0
C156 C 0.72405 0.82078 0.73762 0.0
C157 C 0.73045 0.79437 0.72545 0.0
C158 C 0.72348 0.77002 0.74421 0.0
C159 C 0.71379 0.77274 0.77552 0.0
P160 P 0.84944 0.27058 0.34853 0.0
H161 H 0.85282 0.3224 0.38859 0.0
H162 H 0.81317 0.34237 0.4198 0.0
H163 H 0.74304 0.27176 0.38852 0.0
H164 H 0.78264 0.25174 0.35834 0.0
H165 H 0.89976 0.23784 0.3375 0.0
H166 H 0.91708 0.19936 0.36641 0.0
H167 H 0.84823 0.20774 0.43911 0.0
H168 H 0.8313 0.24606 0.41051 0.0
H169 H 0.82774 0.29289 0.29129 0.0
H170 H 0.82777 0.21006 0.33123 0.0
O171 O 0.87864 0.29621 0.33769 0.0
H172 H 0.79532 0.2699 0.24804 0.0
H173 H 0.79572 0.1872 0.28848 0.0
C174 C 0.82047 0.28605 0.37054 0.0
C175 C 0.82885 0.31138 0.3884 0.0
C176 C 0.80622 0.32271 0.40622 0.0
C177 C 0.77497 0.30863 0.40662 0.0
C178 C 0.76694 0.28294 0.38907 0.0
C179 C 0.78951 0.27169 0.37138 0.0
C180 C 0.86447 0.24498 0.3719 0.0
C181 C 0.88877 0.23164 0.3599 0.0
C182 C 0.8984 0.20952 0.37625 0.0
C183 C 0.8839 0.20051 0.40495 0.0
C184 C 0.86003 0.21441 0.41721 0.0
C185 C 0.8503 0.23637 0.40077 0.0
C186 C 0.83078 0.25319 0.31408 0.0
C187 C 0.82145 0.26975 0.29033 0.0
C188 C 0.80274 0.25665 0.26583 0.0
C189 C 0.79315 0.22675 0.26479 0.0
C190 C 0.80325 0.21022 0.28826 0.0
C191 C 0.82169 0.22333 0.31279 0.0
P192 P 0.36132 0.67452 0.2024 0.0
H193 H 0.31622 0.69567 0.16105 0.0
H194 H 0.26612 0.67336 0.13916 0.0
H195 H 0.26556 0.60024 0.1976 0.0
H196 H 0.31628 0.62238 0.2189 0.0
H197 H 0.37965 0.69878 0.14092 0.0
H198 H 0.39778 0.74666 0.12168 0.0
H199 H 0.38982 0.78177 0.21562 0.0
H200 H 0.3722 0.73293 0.23498 0.0
H201 H 0.42234 0.66721 0.22624 0.0
H202 H 0.32921 0.65963 0.2649 0.0
O203 O 0.38013 0.65493 0.17791 0.0
H204 H 0.43966 0.64676 0.27327 0.0
H205 H 0.34657 0.63999 0.31308 0.0
C206 C 0.32016 0.66138 0.19266 0.0
C207 C 0.30522 0.67515 0.16987 0.0
C208 C 0.27646 0.66212 0.15696 0.0
C209 C 0.26146 0.63481 0.1664 0.0
C210 C 0.27598 0.62138 0.18989 0.0
C211 C 0.30505 0.63426 0.20243 0.0
C212 C 0.3747 0.71171 0.18964 0.0
C213 C 0.38187 0.71663 0.15763 0.0
C214 C 0.39203 0.74443 0.14645 0.0
C215 C 0.39533 0.7688 0.16675 0.0
C216 C 0.38802 0.76387 0.199 0.0
C217 C 0.37772 0.73578 0.21023 0.0
C218 C 0.37429 0.66507 0.24141 0.0
C219 C 0.4056 0.66175 0.2452 0.0
C220 C 0.41561 0.64995 0.27258 0.0
C221 C 0.39479 0.64117 0.29777 0.0
C222 C 0.36354 0.64567 0.2944 0.0
C223 C 0.35349 0.65737 0.26674 0.0
P224 P 0.16589 0.33974 0.72231 0.0
H225 H 0.18952 0.29884 0.67961 0.0
H226 H 0.16605 0.25606 0.65042 0.0
H227 H 0.07494 0.2675 0.68578 0.0
H228 H 0.09885 0.31169 0.71353 0.0
H229 H 0.21744 0.38556 0.74029 0.0
H230 H 0.26179 0.41242 0.71126 0.0
H231 H 0.22503 0.37214 0.62461 0.0
H232 H 0.18001 0.34636 0.65346 0.0
H233 H 0.12053 0.32026 0.77273 0.0
H234 H 0.15934 0.40124 0.73252 0.0
O235 O 0.18724 0.32449 0.74696 0.0
H236 H 0.09601 0.34516 0.81491 0.0
H237 H 0.13475 0.42638 0.77448 0.0
C238 C 0.14613 0.30921 0.69845 0.0
C239 C 0.16437 0.29259 0.68064 0.0
C240 C 0.15078 0.26754 0.66423 0.0
C241 C 0.11829 0.25747 0.66562 0.0
C242 C 0.09992 0.27432 0.68348 0.0
C243 C 0.11364 0.29978 0.69963 0.0
C244 C 0.19513 0.36363 0.69935 0.0
C245 C 0.21842 0.38297 0.71495 0.0
C246 C 0.24395 0.39829 0.69829 0.0
C247 C 0.24731 0.39424 0.66556 0.0
C248 C 0.22349 0.37552 0.64983 0.0
C249 C 0.19757 0.36072 0.66643 0.0
C250 C 0.14165 0.35857 0.74882 0.0
C251 C 0.12315 0.34341 0.7724 0.0
C252 C 0.10913 0.35784 0.7968 0.0
C253 C 0.11335 0.38809 0.79874 0.0
C254 C 0.1312 0.40319 0.77447 0.0
C255 C 0.1451 0.3887 0.75 0.0
Gd256 Gd 0.01583 0.02461 0.49073 0.0
Gd257 Gd 0.98506 1.00459 0.55128 0.0
C258 C 0.02771 0.06684 0.55264 0.0
C259 C 0.03277 0.04265 0.43542 0.0
C260 C 0.05779 0.06484 0.42372 0.0
C261 C 0.0726 0.06038 0.39495 0.0
C262 C 0.06822 0.08975 0.44184 0.0
C263 C 0.10839 0.10537 0.40255 0.0
C264 C 0.09323 0.10994 0.43124 0.0
C265 C 0.09774 0.08046 0.38444 0.0
C266 C 0.05499 1.00757 0.53166 0.0
C267 C 0.9741 0.96039 0.49082 0.0
C268 C 0.963 0.97639 0.60003 0.0
C269 C 0.94622 0.94718 0.60511 0.0
C270 C 0.92392 0.93392 0.5835 0.0
C271 C 0.95078 0.93317 0.63278 0.0
C272 C 0.90811 0.89472 0.61909 0.0
C273 C 0.93191 0.90708 0.63972 0.0
C274 C 0.90506 0.90788 0.59039 0.0
C275 C 0.95623 0.04135 0.52012 0.0
O276 O 0.02573 0.06541 0.52149 0.0
O277 O 0.01779 0.04384 0.56954 0.0
O278 O 0.0421 0.02048 0.44758 0.0
O279 O 1.0104 0.05173 0.45182 0.0
O280 O 0.06222 0.02947 0.51374 0.0
O281 O 0.02741 0.99511 0.52651 0.0
O282 O 0.96618 0.96596 0.52024 0.0
O283 O 0.99352 0.97955 0.47473 0.0
O284 O 0.94761 0.993 0.58474 0.0
O285 O 0.9924 0.97897 0.59133 0.0
O286 O 0.95933 0.04227 0.55035 0.0
O287 O 0.9678 0.02091 0.50796 0.0
H288 H 0.06494 0.0412 0.38079 0.0
H289 H 0.05732 0.09343 0.46436 0.0
H290 H 0.10112 0.12883 0.44578 0.0
H291 H 0.10877 0.07658 0.36206 0.0
H292 H 0.91993 0.94439 0.562 0.0
H293 H 0.96804 0.94297 0.64961 0.0
H294 H 0.93499 0.8972 0.66186 0.0
H295 H 0.88675 0.8991 0.57419 0.0
Gd296 Gd 0.52822 1.01368 0.05627 0.0
Gd297 Gd 0.47165 1.00868 0.02641 0.0
C298 C 0.47597 0.04584 0.08637 0.0
C299 C 0.57916 0.02841 0.08776 0.0
C300 C 0.59633 0.05311 0.10521 0.0
C301 C 0.61364 0.04805 0.13126 0.0
C302 C 0.59655 0.0814 0.09587 0.0
C303 C 0.63241 0.09918 0.13801 0.0
C304 C 0.61462 0.10429 0.11211 0.0
C305 C 0.63149 0.07084 0.14755 0.0
C306 C 0.49091 0.96227 0.0696 0.0
C307 C 0.52579 0.97837 0.99322 0.0
C308 C 0.42083 0.99171 0.99562 0.0
C309 C 0.41434 0.98808 0.96171 0.0
C310 C 0.42182 1.01116 0.94123 0.0
C311 C 0.40254 0.96072 0.94923 0.0
C312 C 0.40692 0.97932 0.89632 0.0
C313 C 0.399 0.95634 0.91681 0.0
C314 C 0.41799 1.00682 0.90886 0.0
C315 C 0.50889 0.05942 1.01023 0.0
O316 O 0.50585 0.0489 0.07901 0.0
O317 O 0.4565 0.02524 0.07261 0.0
O318 O 0.55294 1.01595 0.10038 0.0
O319 O 0.57765 0.03062 0.05733 0.0
O320 O 0.52012 0.96566 0.06166 0.0
O321 O 0.48197 0.98653 0.06958 0.0
O322 O 0.49589 0.98002 0.99474 0.0
O323 O 0.54519 0.99262 1.01357 0.0
O324 O 0.429 1.01791 1.00648 0.0
O325 O 0.43764 0.97407 1.00698 0.0
O326 O 0.4792 0.05582 1.01594 0.0
O327 O 0.51808 0.03541 1.01256 0.0
H328 H 0.61376 0.02635 0.13872 0.0
H329 H 0.58312 0.08574 0.07587 0.0
H330 H 0.61473 0.12594 0.10441 0.0
H331 H 0.64529 0.06618 0.16711 0.0
H332 H 0.43127 0.03248 0.95007 0.0
H333 H 0.39669 0.94261 0.96454 0.0
H334 H 0.39012 0.93497 0.90773 0.0
H335 H 0.42452 0.02484 0.89354 0.0
Gd336 Gd 0.50107 0.48549 0.51507 0.0
Gd337 Gd 0.50118 0.53386 0.55588 0.0
C338 C 0.53003 0.48361 0.5857 0.0
C339 C 0.51473 0.4425 0.48196 0.0
C340 C 0.53955 0.42506 0.48244 0.0
C341 C 0.53473 0.39765 0.46835 0.0
C342 C 0.5686 0.43608 0.49567 0.0
C343 C 0.58879 0.39336 0.47805 0.0
C344 C 0.59306 0.4204 0.4934 0.0
C345 C 0.55912 0.38185 0.46625 0.0
C346 C 0.44556 0.4836 0.54665 0.0
C347 C 0.47414 0.53674 0.48383 0.0
C348 C 0.48501 0.57589 0.58871 0.0
C349 C 0.47233 0.60171 0.58108 0.0
C350 C 0.48215 0.62739 0.59791 0.0
C351 C 0.45101 0.60115 0.55654 0.0
C352 C 0.45005 0.65184 0.56527 0.0
C353 C 0.4401 0.62606 0.54859 0.0
C354 C 0.47098 0.65229 0.59017 0.0
C355 C 0.55698 0.53641 0.52456 0.0
O356 O 0.5313 0.47486 0.55584 0.0
O357 O 0.51585 0.50555 0.59281 0.0
O358 O 0.49488 0.43956 0.5055 0.0
O359 O 0.52369 0.46924 0.47449 0.0
O360 O 0.44819 0.47784 0.51685 0.0
O361 O 0.47251 0.49059 0.55816 0.0
O362 O 0.47679 0.54817 0.5127 0.0
O363 O 0.48359 0.51203 0.47793 0.0
O364 O 0.51375 0.57538 0.57946 0.0
O365 O 0.46652 0.55144 0.58371 0.0
O366 O 0.55394 0.54294 0.55416 0.0
O367 O 0.53013 0.52867 0.51287 0.0
H368 H 0.51232 0.38876 0.4583 0.0
H369 H 0.57267 0.45721 0.50683 0.0
H370 H 0.61565 0.43002 0.50247 0.0
H371 H 0.55492 0.36087 0.45481 0.0
H372 H 0.4986 0.62822 0.61689 0.0
H373 H 0.44275 0.58148 0.54349 0.0
H374 H 0.4236 0.62511 0.52965 0.0
H375 H 0.47908 0.672 0.60327 0.0
Gd376 Gd 1.00623 0.47705 0.05059 0.0
Gd377 Gd 0.99611 0.53671 0.01934 0.0
C378 C 0.05904 0.53484 0.06045 0.0
C379 C 0.02581 0.42933 0.05948 0.0
C380 C 0.05572 0.42161 0.06873 0.0
C381 C 0.05567 0.39814 0.08812 0.0
C382 C 0.08433 0.43802 0.05947 0.0
C383 C 0.11249 0.4075 0.08909 0.0
C384 C 0.11251 0.43091 0.06944 0.0
C385 C 0.08379 0.39116 0.09826 0.0
C386 C 0.97934 0.51141 0.09293 0.0
C387 C 0.94285 0.47841 1.00971 0.0
C388 C 0.97568 0.58384 1.01043 0.0
C389 C 0.95518 0.59532 0.98861 0.0
C390 C 0.96389 0.62325 0.97777 0.0
C391 C 0.92571 0.57973 0.9808 0.0
C392 C 0.9127 0.62104 0.95437 0.0
C393 C 0.90463 0.59251 0.96399 0.0
C394 C 0.94295 0.63594 0.96063 0.0
C395 C 0.02322 0.50275 0.97704 0.0
O396 O 0.05264 0.50628 0.05988 0.0
O397 O 0.03958 0.55082 0.0489 0.0
O398 O 0.01124 0.44225 0.08123 0.0
O399 O 0.02511 0.44056 0.03179 0.0
O400 O 0.98518 0.48607 0.09891 0.0
O401 O 0.98752 0.51588 0.06453 0.0
O402 O 0.95153 0.50649 1.0058 0.0
O403 O 0.95997 0.46285 0.02558 0.0
O404 O 1.00305 0.5794 0.99971 0.0
O405 O 0.96183 0.56363 0.02879 0.0
O406 O 0.01584 0.52743 0.97052 0.0
O407 O 0.01562 0.49846 1.00561 0.0
H408 H 0.03382 0.38532 0.09559 0.0
H409 H 0.08491 0.45645 0.04477 0.0
H410 H 0.13427 0.44403 0.06227 0.0
H411 H 0.0831 0.37283 0.11313 0.0
H412 H 0.98655 0.63558 0.9834 0.0
H413 H 0.91843 0.55803 0.98872 0.0
H414 H 0.88154 0.58042 0.95981 0.0
H415 H 0.95023 0.6577 0.95291 0.0
C416 C 0.23111 0.20975 0.30328 0.0
C417 C 0.25697 0.22433 0.31973 0.0
C418 C 0.20747 0.19107 0.31857 0.0
C419 C 0.20983 0.18656 0.3511 0.0
C420 C 0.23585 0.2011 0.36793 0.0
C421 C 0.25914 0.21989 0.35203 0.0
C422 C 0.18009 0.17591 0.29977 0.0
C423 C 0.23915 0.19668 0.40264 0.0
C424 C 0.13383 0.15583 0.39228 0.0
C425 C 0.13528 0.12645 0.39144 0.0
C426 C 0.15845 0.17582 0.38017 0.0
C427 C 0.18516 0.16616 0.36713 0.0
C428 C 0.18719 0.13663 0.36724 0.0
C429 C 0.16216 0.11711 0.3793 0.0
C430 C 0.15536 0.20712 0.38023 0.0
C431 C 0.21541 0.12555 0.35377 0.0
H432 H 0.22958 0.21254 0.27819 0.0
H433 H 0.27895 0.23122 0.36492 0.0
H434 H 0.17927 0.15238 0.30038 0.0
H435 H 0.15789 0.18056 0.31033 0.0
H436 H 0.18136 0.18242 0.27482 0.0
H437 H 0.26071 0.20972 0.41233 0.0
H438 H 0.21867 0.20239 0.41576 0.0
H439 H 0.23963 0.17373 0.40688 0.0
H440 H 0.113 0.16308 0.40148 0.0
H441 H 0.16353 0.09445 0.37912 0.0
H442 H 0.15412 0.21414 0.35567 0.0
H443 H 0.17619 0.22042 0.39096 0.0
H444 H 0.13417 0.21138 0.39328 0.0
H445 H 0.21715 0.12911 0.32808 0.0
H446 H 0.21433 0.1023 0.35776 0.0
H447 H 0.23706 0.13746 0.36441 0.0
C448 C 0.41333 0.96779 0.70803 0.0
C449 C 0.38698 0.94919 0.69702 0.0
C450 C 0.41784 0.97303 0.74039 0.0
C451 C 0.39516 0.95969 0.76205 0.0
C452 C 0.3684 0.94105 0.75097 0.0
C453 C 0.36475 0.93589 0.71857 0.0
C454 C 0.44686 0.99272 0.75141 0.0
C455 C 0.3435 0.92676 0.77333 0.0
C456 C 0.41619 0.95176 0.84713 0.0
C457 C 0.40425 0.97453 0.86188 0.0
C458 C 0.41396 0.94702 0.81451 0.0
C459 C 0.39915 0.96533 0.79635 0.0
C460 C 0.3872 0.98844 0.81112 0.0
C461 C 0.39004 0.99285 0.84373 0.0
C462 C 0.42729 0.92235 0.79952 0.0
C463 C 0.37095 1.00821 0.79254 0.0
H464 H 0.43059 0.97793 0.69131 0.0
H465 H 0.34415 0.92179 0.71 0.0
H466 H 0.44029 1.01124 0.76491 0.0
H467 H 0.46004 0.98121 0.76747 0.0
H468 H 0.46251 1.00096 0.73156 0.0
H469 H 0.32401 0.91301 0.76085 0.0
H470 H 0.35379 0.91334 0.78988 0.0
H471 H 0.33383 0.94327 0.7876 0.0
H472 H 0.4276 0.93784 0.86111 0.0
H473 H 0.38062 1.01035 0.85517 0.0
H474 H 0.44425 0.93028 0.78063 0.0
H475 H 0.40833 0.90684 0.78844 0.0
H476 H 0.4392 0.91085 0.81679 0.0
H477 H 0.38668 1.01818 0.7736 0.0
H478 H 0.36352 0.02552 0.80751 0.0
H479 H 0.35003 0.99575 0.78108 0.0
C480 C 0.62281 0.41208 0.72119 0.0
C481 C 0.60234 0.39386 0.74104 0.0
C482 C 0.61191 0.42661 0.6959 0.0
C483 C 0.57952 0.42286 0.68919 0.0
C484 C 0.55872 0.40434 0.70876 0.0
C485 C 0.57017 0.39045 0.73425 0.0
C486 C 0.63528 0.44617 0.6763 0.0
C487 C 0.52406 0.39919 0.70281 0.0
C488 C 0.54636 0.48005 0.64258 0.0
C489 C 0.54377 0.46834 0.61173 0.0
C490 C 0.55815 0.46581 0.66754 0.0
C491 C 0.56742 0.43864 0.66224 0.0
C492 C 0.5649 0.4267 0.63112 0.0
C493 C 0.55344 0.44163 0.60644 0.0
C494 C 0.56069 0.47998 0.69979 0.0
C495 C 0.57395 0.3978 0.6239 0.0
H496 H 0.6477 0.41486 0.72502 0.0
H497 H 0.55356 0.37709 0.74912 0.0
H498 H 0.6343 0.43848 0.65142 0.0
H499 H 0.62936 0.46809 0.67684 0.0
H500 H 0.65957 0.44744 0.68465 0.0
H501 H 0.51091 0.38336 0.71906 0.0
H502 H 0.51491 0.41963 0.70563 0.0
H503 H 0.5195 0.39129 0.67826 0.0
H504 H 0.53917 0.50059 0.64736 0.0
H505 H 0.55156 0.43204 0.58299 0.0
H506 H 0.58511 0.48245 0.70803 0.0
H507 H 0.5458 0.46628 0.71682 0.0
H508 H 0.55349 0.50143 0.70013 0.0
H509 H 0.59872 0.39815 0.63004 0.0
H510 H 0.5708 0.3913 0.59873 0.0
H511 H 0.55958 0.3813 0.63849 0.0
C512 C 0.87913 0.5895 0.22082 0.0
C513 C 0.89675 0.61167 0.23902 0.0
C514 C 0.89277 0.57468 0.19634 0.0
C515 C 0.92528 0.58139 0.18968 0.0
C516 C 0.94338 0.60345 0.20806 0.0
C517 C 0.92902 0.61831 0.23213 0.0
C518 C 0.87222 0.55154 0.17763 0.0
C519 C 0.97813 0.61129 0.20242 0.0
C520 C 0.96294 0.52194 0.14852 0.0
C521 C 0.96632 0.53051 0.11701 0.0
C522 C 0.9505 0.53849 0.1722 0.0
C523 C 0.94035 0.5644 0.16459 0.0
C524 C 0.94384 0.57335 0.13285 0.0
C525 C 0.95706 0.55658 0.1097 0.0
C526 C 0.94809 0.52804 0.20551 0.0
C527 C 0.93309 0.60048 0.12319 0.0
H528 H 0.85444 0.58328 0.22587 0.0
H529 H 0.94322 0.63545 0.2453 0.0
H530 H 0.87496 0.55589 0.15214 0.0
H531 H 0.87945 0.53052 0.18136 0.0
H532 H 0.84714 0.54988 0.18428 0.0
H533 H 0.9891 0.62884 0.21852 0.0
H534 H 0.98944 0.59225 0.20568 0.0
H535 H 0.98291 0.6181 0.17782 0.0
H536 H 0.97017 0.50204 0.15485 0.0
H537 H 0.95978 0.56379 0.08587 0.0
H538 H 0.92322 0.52345 0.21311 0.0
H539 H 0.96015 0.54495 0.22169 0.0
H540 H 0.95843 0.50831 0.20806 0.0
H541 H 0.90772 0.59895 0.12825 0.0
H542 H 0.93742 0.60471 0.09779 0.0
H543 H 0.9453 0.61905 0.1371 0.0
C544 C 0.42446 0.1904 0.14674 0.0
C545 C 0.41028 0.18927 0.17661 0.0
C546 C 0.43543 0.16642 0.1335 0.0
C547 C 0.43261 0.14092 0.15083 0.0
C548 C 0.41899 0.13995 0.18134 0.0
C549 C 0.40775 0.16407 0.19376 0.0
C550 C 0.44942 0.16815 0.10071 0.0
C551 C 0.41611 0.11336 0.20076 0.0
C552 C 0.4327 0.07139 0.10423 0.0
C553 C 0.46412 0.06814 0.10583 0.0
C554 C 0.42202 0.09476 0.1192 0.0
C555 C 0.44317 0.11507 0.13662 0.0
C556 C 0.4746 0.1112 0.13946 0.0
C557 C 0.48477 0.0879 0.12379 0.0
C558 C 0.38841 0.09833 0.11534 0.0
C559 C 0.49769 0.13208 0.15833 0.0
H560 H 0.42621 0.20982 0.1334 0.0
H561 H 0.39707 0.16333 0.21703 0.0
H562 H 0.47354 0.16336 0.10099 0.0
H563 H 0.43558 0.15181 0.08508 0.0
H564 H 0.45011 0.1896 0.09047 0.0
H565 H 0.40622 0.11654 0.22461 0.0
H566 H 0.40086 0.0953 0.18871 0.0
H567 H 0.43936 0.10698 0.20322 0.0
H568 H 0.41667 0.05632 0.09019 0.0
H569 H 0.50907 0.08542 0.12519 0.0
H570 H 0.38749 0.11845 0.10285 0.0
H571 H 0.37703 0.10016 0.13868 0.0
H572 H 0.37472 0.08016 0.10188 0.0
H573 H 0.50143 0.15335 0.14722 0.0
H574 H 0.52064 0.12488 0.16009 0.0
H575 H 0.48831 0.135 0.18242 0.0
C576 C 0.19696 0.9308 0.53587 0.0
C577 C 0.21499 0.93396 0.56313 0.0
C578 C 0.16747 0.93902 0.53574 0.0
C579 C 0.15554 0.9503 0.5637 0.0
C580 C 0.17226 0.95095 0.59199 0.0
C581 C 0.20197 0.943 0.59133 0.0
C582 C 0.1503 0.93784 0.50506 0.0
C583 C 0.15991 0.9621 0.62243 0.0
C584 C 0.10993 1.009 0.5466 0.0
C585 C 0.07928 0.994 0.54591 0.0
C586 C 0.1348 0.99529 0.55416 0.0
C587 C 0.12877 0.96591 0.56172 0.0
C588 C 0.09756 0.95127 0.56375 0.0
C589 C 0.07304 0.96551 0.55559 0.0
C590 C 0.16771 1.01179 0.55179 0.0
C591 C 0.09016 0.9202 0.57265 0.0
H592 H 0.20649 0.92301 0.51422 0.0
H593 H 0.21567 0.94549 0.61257 0.0
H594 H 0.12557 0.92763 0.50826 0.0
H595 H 0.15043 0.95997 0.497 0.0
H596 H 0.16111 0.92579 0.48631 0.0
H597 H 0.17206 0.95557 0.64311 0.0
H598 H 0.16351 0.98586 0.62232 0.0
H599 H 0.13446 0.9543 0.62515 0.0
H600 H 0.11473 0.0312 0.53958 0.0
H601 H 0.04925 0.95396 0.55538 0.0
H602 H 0.18043 1.00268 0.53218 0.0
H603 H 0.18056 1.00983 0.57368 0.0
H604 H 0.1682 0.03492 0.54752 0.0
H605 H 0.09473 0.90647 0.55213 0.0
H606 H 0.0653 0.91398 0.57993 0.0
H607 H 0.10524 0.91573 0.59206 0.0
C608 C 0.8038 0.393 0.90143 0.0
C609 C 0.77361 0.39121 0.91479 0.0
C610 C 0.83071 0.40733 0.91706 0.0
C611 C 0.82796 0.42041 0.94718 0.0
C612 C 0.79759 0.41892 0.96075 0.0
C613 C 0.77099 0.40455 0.94449 0.0
C614 C 0.86225 0.40846 0.90122 0.0
C615 C 0.79319 0.43229 0.99275 0.0
C616 C 0.90138 0.43435 0.99897 0.0
C617 C 0.91279 0.46368 0.99473 0.0
C618 C 0.87379 0.42025 0.9842 0.0
C619 C 0.85682 0.43554 0.96429 0.0
C620 C 0.86806 0.46519 0.96011 0.0
C621 C 0.89559 0.47879 0.9753 0.0
C622 C 0.86293 0.38876 0.98969 0.0
C623 C 0.85121 0.48259 0.93913 0.0
H624 H 0.80647 0.38339 0.87836 0.0
H625 H 0.7481 0.40326 0.95544 0.0
H626 H 0.87356 0.43109 0.89837 0.0
H627 H 0.87769 0.39818 0.91613 0.0
H628 H 0.86064 0.39751 0.87774 0.0
H629 H 0.76822 0.42958 1.00012 0.0
H630 H 0.80622 0.42246 1.01051 0.0
H631 H 0.80289 0.45552 0.99266 0.0
H632 H 0.91412 0.42222 1.01381 0.0
H633 H 0.90385 0.50136 0.97152 0.0
H634 H 0.86308 0.3765 0.96711 0.0
H635 H 0.83853 0.38517 0.99883 0.0
H636 H 0.87788 0.38002 1.0066 0.0
H637 H 0.85098 0.47373 0.91471 0.0
H638 H 0.86225 0.50554 0.93891 0.0
H639 H 0.82653 0.48118 0.94704 0.0
C640 C 0.72044 0.58523 0.42725 0.0
C641 C 0.72377 0.6144 0.4197 0.0
C642 C 0.69364 0.57103 0.44339 0.0
C643 C 0.66916 0.58612 0.4525 0.0
C644 C 0.67224 0.61546 0.44476 0.0
C645 C 0.6992 0.62909 0.42856 0.0
C646 C 0.69168 0.53982 0.45101 0.0
C647 C 0.64697 0.63261 0.45373 0.0
C648 C 0.58655 0.54595 0.47278 0.0
C649 C 0.58615 0.54715 0.50584 0.0
C650 C 0.6134 0.55796 0.45519 0.0
C651 C 0.64079 0.57163 0.47082 0.0
C652 C 0.64064 0.5723 0.5042 0.0
C653 C 0.61354 0.56012 0.52116 0.0
C654 C 0.61225 0.55649 0.41976 0.0
C655 C 0.66899 0.58648 0.52214 0.0
H656 H 0.73909 0.57347 0.42101 0.0
H657 H 0.70077 0.65137 0.42247 0.0
H658 H 0.69053 0.53728 0.47688 0.0
H659 H 0.66999 0.52713 0.44125 0.0
H660 H 0.71201 0.53073 0.44151 0.0
H661 H 0.65254 0.65509 0.44579 0.0
H662 H 0.62447 0.62238 0.44333 0.0
H663 H 0.6436 0.63291 0.47965 0.0
H664 H 0.56564 0.53602 0.46059 0.0
H665 H 0.61368 0.5612 0.54664 0.0
H666 H 0.6318 0.54642 0.41008 0.0
H667 H 0.61517 0.57848 0.41048 0.0
H668 H 0.58989 0.54409 0.41104 0.0
H669 H 0.68968 0.57694 0.51472 0.0
H670 H 0.66569 0.58436 0.54798 0.0
H671 H 0.67421 0.60962 0.51673 0.0
C672 C 0.25049 0.33135 0.14423 0.0
C673 C 0.27625 0.34994 0.15671 0.0
C674 C 0.22531 0.34194 0.13144 0.0
C675 C 0.22558 0.37188 0.13147 0.0
C676 C 0.25178 0.39085 0.14324 0.0
C677 C 0.27688 0.37966 0.15556 0.0
C678 C 0.19787 0.321 0.11894 0.0
C679 C 0.25283 0.4229 0.14379 0.0
C680 C 0.16705 0.3984 0.07899 0.0
C681 C 0.14225 0.40005 0.10015 0.0
C682 C 0.19467 0.38984 0.08895 0.0
C683 C 0.19758 0.38307 0.12086 0.0
C684 C 0.17294 0.38554 0.14249 0.0
C685 C 0.14553 0.39388 0.13183 0.0
C686 C 0.2203 0.3872 0.06517 0.0
C687 C 0.17528 0.37883 0.17678 0.0
H688 H 0.24937 0.30837 0.14551 0.0
H689 H 0.29682 0.39422 0.16474 0.0
H690 H 0.17692 0.3221 0.13395 0.0
H691 H 0.19231 0.32671 0.09482 0.0
H692 H 0.20232 0.29856 0.11838 0.0
H693 H 0.2756 0.4348 0.15211 0.0
H694 H 0.24852 0.43024 0.11997 0.0
H695 H 0.23404 0.42853 0.15957 0.0
H696 H 0.16449 0.40297 0.05444 0.0
H697 H 0.12657 0.39556 0.14833 0.0
H698 H 0.22345 0.36446 0.06275 0.0
H699 H 0.24279 0.39971 0.0733 0.0
H700 H 0.21515 0.3948 0.04166 0.0
H701 H 0.17707 0.35587 0.17912 0.0
H702 H 0.15477 0.38332 0.19084 0.0
H703 H 0.19673 0.39162 0.18692 0.0
C704 C 0.58898 0.1903 0.89861 0.0
C705 C 0.59696 0.21675 0.91517 0.0
C706 C 0.57626 0.16454 0.9139 0.0
C707 C 0.57168 0.16433 0.94705 0.0
C708 C 0.58032 0.19064 0.96408 0.0
C709 C 0.59242 0.21625 0.94814 0.0
C710 C 0.56719 0.13745 0.89432 0.0
C711 C 0.5764 0.19187 0.99938 0.0
C712 C 0.50877 0.10641 0.98338 0.0
C713 C 0.52588 0.08581 0.99398 0.0
C714 C 0.52324 0.13153 0.96812 0.0
C715 C 0.55613 0.13714 0.9635 0.0
C716 C 0.57371 0.11659 0.97447 0.0
C717 C 0.55846 0.09121 0.98923 0.0
C718 C 0.50308 0.15209 0.95668 0.0
C719 C 0.60878 0.12156 0.97084 0.0
H720 H 0.59283 0.18945 0.87344 0.0
H721 H 0.59778 0.23606 0.96175 0.0
H722 H 0.57976 0.1205 0.90243 0.0
H723 H 0.54182 0.12938 0.89731 0.0
H724 H 0.57241 0.1408 0.8689 0.0
H725 H 0.58654 0.21315 1.00967 0.0
H726 H 0.55121 0.18725 1.00578 0.0
H727 H 0.58771 0.17523 1.01019 0.0
H728 H 0.48363 0.10278 0.98676 0.0
H729 H 0.57211 0.07578 0.99742 0.0
H730 H 0.50668 0.15501 0.931 0.0
H731 H 0.5099 0.17342 0.96832 0.0
H732 H 0.47783 0.14453 0.96138 0.0
H733 H 0.61542 0.12307 0.94557 0.0
H734 H 0.61932 0.10417 0.98116 0.0
H735 H 0.61888 0.14226 0.98241 0.0
C736 C 0.92309 0.79566 0.42528 0.0
C737 C 0.89869 0.79318 0.40352 0.0
C738 C 0.9358 0.82239 0.43963 0.0
C739 C 0.92369 0.84759 0.43267 0.0
C740 C 0.89878 0.84511 0.41109 0.0
C741 C 0.88683 0.81824 0.39678 0.0
C742 C 0.96252 0.82373 0.46208 0.0
C743 C 0.88452 0.87095 0.40316 0.0
C744 C 0.93714 0.91254 0.49057 0.0
C745 C 0.9611 0.93161 0.47575 0.0
C746 C 0.92491 0.88539 0.477 0.0
C747 C 0.93696 0.87646 0.44781 0.0
C748 C 0.96131 0.8955 0.43283 0.0
C749 C 0.97286 0.92268 0.44677 0.0
C750 C 0.89882 0.86631 0.49393 0.0
C751 C 0.97532 0.88708 0.40198 0.0
H752 H 0.93276 0.77671 0.43066 0.0
H753 H 0.86769 0.81681 0.38051 0.0
H754 H 0.98301 0.83893 0.45344 0.0
H755 H 0.95587 0.83193 0.48547 0.0
H756 H 0.96955 0.80246 0.46499 0.0
H757 H 0.86498 0.86556 0.38638 0.0
H758 H 0.87565 0.88046 0.42491 0.0
H759 H 0.90257 0.88759 0.3927 0.0
H760 H 0.92763 0.91889 0.51283 0.0
H761 H 0.99144 0.93688 0.43499 0.0
H762 H 0.90605 0.84555 0.49907 0.0
H763 H 0.87805 0.86156 0.47866 0.0
H764 H 0.89194 0.8762 0.51639 0.0
H765 H 0.98439 0.86671 0.40446 0.0
H766 H 0.99466 0.90376 0.39366 0.0
H767 H 0.95707 0.88329 0.38373 0.0
C768 C 0.42125 0.8093 0.5349 0.0
C769 C 0.39001 0.81093 0.52849 0.0
C770 C 0.43121 0.78278 0.53699 0.0
C771 C 0.4093 0.75723 0.5332 0.0
C772 C 0.37814 0.75862 0.52517 0.0
C773 C 0.36894 0.78548 0.52261 0.0
C774 C 0.4648 0.78214 0.54507 0.0
C775 C 0.35409 0.73181 0.5211 0.0
C776 C 0.44009 0.6869 0.52539 0.0
C777 C 0.43864 0.67825 0.55671 0.0
C778 C 0.43024 0.71243 0.51717 0.0
C779 C 0.41832 0.72937 0.54084 0.0
C780 C 0.41611 0.7203 0.57239 0.0
C781 C 0.42654 0.69493 0.57997 0.0
C782 C 0.43337 0.72164 0.4834 0.0
C783 C 0.40304 0.73756 0.59821 0.0
H784 H 0.4377 0.82871 0.53991 0.0
H785 H 0.34493 0.7865 0.51697 0.0
H786 H 0.46596 0.77463 0.56944 0.0
H787 H 0.47468 0.76688 0.52919 0.0
H788 H 0.47966 0.8036 0.54339 0.0
H789 H 0.33173 0.73642 0.5119 0.0
H790 H 0.36301 0.71624 0.50485 0.0
H791 H 0.34932 0.72133 0.54412 0.0
H792 H 0.44968 0.67403 0.50745 0.0
H793 H 0.42508 0.68799 0.60412 0.0
H794 H 0.45053 0.74179 0.48173 0.0
H795 H 0.41076 0.72619 0.47493 0.0
H796 H 0.44122 0.70514 0.46754 0.0
H797 H 0.41808 0.75886 0.60096 0.0
H798 H 0.40146 0.72676 0.62119 0.0
H799 H 0.3794 0.7413 0.59193 0.0
C800 C 0.77677 0.78077 0.69707 0.0
C801 C 0.7503 0.79419 0.69663 0.0
C802 C 0.80227 0.78943 0.67684 0.0
C803 C 0.8013 0.81228 0.65637 0.0
C804 C 0.77275 0.82223 0.65209 0.0
C805 C 0.74736 0.81282 0.67218 0.0
C806 C 0.83175 0.77707 0.68071 0.0
C807 C 0.77038 0.84587 0.62964 0.0
C808 C 0.8703 0.87255 0.65947 0.0
C809 C 0.88363 0.87093 0.62942 0.0
C810 C 0.84412 0.85297 0.66861 0.0
C811 C 0.83096 0.83091 0.64724 0.0
C812 C 0.84522 0.82819 0.61737 0.0
C813 C 0.87126 0.84849 0.60865 0.0
C814 C 0.82974 0.8568 0.70078 0.0
C815 C 0.83244 0.80474 0.59408 0.0
H816 H 0.77924 0.76594 0.71545 0.0
H817 H 0.72645 0.82238 0.67089 0.0
H818 H 0.84413 0.77568 0.65781 0.0
H819 H 0.84765 0.79127 0.69677 0.0
H820 H 0.8267 0.75541 0.69096 0.0
H821 H 0.74569 0.84754 0.62492 0.0
H822 H 0.78203 0.86664 0.63999 0.0
H823 H 0.78239 0.84231 0.60702 0.0
H824 H 0.87937 0.89012 0.6754 0.0
H825 H 0.8816 0.84711 0.58538 0.0
H826 H 0.82878 0.83702 0.71443 0.0
H827 H 0.80543 0.86073 0.69836 0.0
H828 H 0.84303 0.87498 0.71454 0.0
H829 H 0.82161 0.78485 0.60598 0.0
H830 H 0.85104 0.79965 0.57766 0.0
H831 H 0.81426 0.81207 0.57987 0.0
C832 C 0.74386 0.22404 0.23441 0.0
C833 C 0.77086 0.21273 0.24083 0.0
C834 C 0.72046 0.20888 0.21516 0.0
C835 C 0.72423 0.18183 0.20213 0.0
C836 C 0.7522 0.17107 0.20718 0.0
C837 C 0.77517 0.18667 0.22647 0.0
C838 C 0.69102 0.22107 0.2102 0.0
C839 C 0.7572 0.14238 0.19353 0.0
C840 C 0.65449 0.12364 0.18737 0.0
C841 C 0.65305 0.12293 0.15447 0.0
C842 C 0.67671 0.1436 0.20324 0.0
C843 C 0.69798 0.1634 0.18575 0.0
C844 C 0.69557 0.16383 0.15264 0.0
C845 C 0.67309 0.14354 0.13735 0.0
C846 C 0.67835 0.1426 0.23862 0.0
C847 C 0.71773 0.18474 0.13326 0.0
H848 H 0.7403 0.24407 0.24567 0.0
H849 H 0.79623 0.17809 0.23103 0.0
H850 H 0.68485 0.21975 0.18495 0.0
H851 H 0.67133 0.20828 0.22323 0.0
H852 H 0.69334 0.24377 0.21852 0.0
H853 H 0.78119 0.13817 0.1976 0.0
H854 H 0.74027 0.12504 0.20439 0.0
H855 H 0.75295 0.14127 0.16786 0.0
H856 H 0.63867 0.10804 0.2007 0.0
H857 H 0.67217 0.14297 0.11189 0.0
H858 H 0.678 0.16418 0.2493 0.0
H859 H 0.70063 0.13601 0.24529 0.0
H860 H 0.65872 0.12731 0.24884 0.0
H861 H 0.71925 0.20682 0.14322 0.0
H862 H 0.71048 0.18456 0.10834 0.0
H863 H 0.7415 0.17914 0.13388 0.0
C864 C 0.38511 0.60628 0.3438 0.0
C865 C 0.4056 0.62687 0.32664 0.0
C866 C 0.39524 0.59213 0.36982 0.0
C867 C 0.42693 0.59807 0.37939 0.0
C868 C 0.44767 0.61894 0.36246 0.0
C869 C 0.43686 0.63304 0.33681 0.0
C870 C 0.37191 0.57042 0.38695 0.0
C871 C 0.48164 0.62624 0.37125 0.0
C872 C 0.45036 0.5784 0.46269 0.0
C873 C 0.46137 0.55229 0.45736 0.0
C874 C 0.43895 0.59324 0.43793 0.0
C875 C 0.43853 0.58215 0.40649 0.0
C876 C 0.44968 0.55585 0.40096 0.0
C877 C 0.46072 0.54136 0.42617 0.0
C878 C 0.42727 0.62094 0.4455 0.0
C879 C 0.4503 0.54304 0.36815 0.0
H880 H 0.36106 0.6006 0.33654 0.0
H881 H 0.45321 0.64916 0.32482 0.0
H882 H 0.37883 0.54895 0.38453 0.0
H883 H 0.3717 0.57607 0.41243 0.0
H884 H 0.34787 0.56902 0.37788 0.0
H885 H 0.49498 0.64282 0.35597 0.0
H886 H 0.48369 0.63414 0.39603 0.0
H887 H 0.49259 0.6067 0.36944 0.0
H888 H 0.45069 0.58742 0.48634 0.0
H889 H 0.46918 0.52142 0.42126 0.0
H890 H 0.40245 0.61893 0.43866 0.0
H891 H 0.44073 0.63858 0.43175 0.0
H892 H 0.4292 0.62699 0.47087 0.0
H893 H 0.42638 0.53903 0.35844 0.0
H894 H 0.4596 0.52257 0.36746 0.0
H895 H 0.46498 0.5584 0.3525 0.0
C896 C 0.11664 0.42946 0.8391 0.0
C897 C 0.10005 0.40369 0.82625 0.0
C898 C 0.10467 0.4442 0.86479 0.0
C899 C 0.0751 0.43327 0.87846 0.0
C900 C 0.05834 0.40717 0.86584 0.0
C901 C 0.0709 0.39281 0.84019 0.0
C902 C 0.12369 0.47176 0.87716 0.0
C903 C 0.0267 0.39459 0.87912 0.0
C904 C 0.05326 0.46237 0.96057 0.0
C905 C 0.03544 0.48331 0.95287 0.0
C906 C 0.06598 0.44573 0.93688 0.0
C907 C 0.06097 0.45003 0.90447 0.0
C908 C 0.04277 0.47104 0.89677 0.0
C909 C 0.03053 0.48732 0.92081 0.0
C910 C 0.08534 0.42391 0.94656 0.0
C911 C 0.03645 0.47665 0.86291 0.0
H912 H 0.13937 0.43809 0.8293 0.0
H913 H 0.05744 0.37321 0.83064 0.0
H914 H 0.11074 0.48976 0.874 0.0
H915 H 0.12749 0.47029 0.90275 0.0
H916 H 0.14677 0.47691 0.86508 0.0
H917 H 0.01713 0.37356 0.8679 0.0
H918 H 0.02823 0.39176 0.90482 0.0
H919 H 1.01003 0.40956 0.87565 0.0
H920 H 0.05822 0.45964 0.98501 0.0
H921 H 0.01698 0.50347 0.91435 0.0
H922 H 0.10958 0.42993 0.93742 0.0
H923 H 0.0758 0.40255 0.93615 0.0
H924 H 0.08606 0.42213 0.97252 0.0
H925 H 0.0588 0.48405 0.85027 0.0
H926 H 0.02118 0.49308 0.8607 0.0
H927 H 0.02513 0.45653 0.85099 0.0
C928 C 0.58305 0.84407 0.91223 0.0
C929 C 0.5985 0.84984 0.88329 0.0
C930 C 0.56778 0.86454 0.92753 0.0
C931 C 0.56796 0.89138 0.91352 0.0
C932 C 0.58158 0.89654 0.88333 0.0
C933 C 0.59675 0.87575 0.86861 0.0
C934 C 0.55322 0.85814 0.9596 0.0
C935 C 0.58214 0.92482 0.86753 0.0
C936 C 0.51611 0.94085 0.95024 0.0
C937 C 0.53706 0.95814 0.97039 0.0
C938 C 0.5259 0.91939 0.93098 0.0
C939 C 0.55733 0.91513 0.932 0.0
C940 C 0.57879 0.93316 0.95147 0.0
C941 C 0.56841 0.95445 0.97039 0.0
C942 C 0.50244 0.90076 0.91028 0.0
C943 C 0.6126 0.92944 0.95303 0.0
H944 H 0.58397 0.82396 0.92349 0.0
H945 H 0.60894 0.88062 0.84645 0.0
H946 H 0.56722 0.87171 0.97767 0.0
H947 H 0.52929 0.86343 0.96073 0.0
H948 H 0.55201 0.8353 0.96569 0.0
H949 H 0.58961 0.92396 0.84245 0.0
H950 H 0.55876 0.93129 0.86883 0.0
H951 H 0.59866 0.94174 0.87992 0.0
H952 H 0.49183 0.94357 0.95004 0.0
H953 H 0.58478 0.96773 0.9858 0.0
H954 H 0.49854 0.87845 0.91871 0.0
H955 H 0.5115 0.90017 0.88577 0.0
H956 H 0.47962 0.90841 0.91018 0.0
H957 H 0.61406 0.9079 0.96197 0.0
H958 H 0.6265 0.94585 0.96857 0.0
H959 H 0.62339 0.93078 0.92917 0.0
C960 C 0.89716 0.1511 0.40528 0.0
C961 C 0.8931 0.17628 0.42177 0.0
C962 C 0.90574 0.12795 0.42091 0.0
C963 C 0.9105 0.13016 0.45377 0.0
C964 C 0.90614 0.15542 0.47059 0.0
C965 C 0.89742 0.17817 0.45438 0.0
C966 C 0.91013 0.10131 0.40223 0.0
C967 C 0.91134 0.15865 0.5056 0.0
C968 C 0.9122 0.06287 0.50015 0.0
C969 C 0.94436 0.06336 0.50241 0.0
C970 C 0.90067 0.08435 0.48405 0.0
C971 C 0.92196 0.10678 0.47024 0.0
C972 C 0.95447 0.10725 0.4726 0.0
C973 C 0.96521 0.08558 0.4888 0.0
C974 C 0.86583 0.0832 0.48199 0.0
C975 C 0.97798 0.13083 0.45836 0.0
H976 H 0.89335 0.14941 0.38014 0.0
H977 H 0.89455 0.19771 0.46715 0.0
H978 H 0.93479 0.09811 0.40357 0.0
H979 H 0.8954 0.08218 0.41238 0.0
H980 H 0.9041 0.1025 0.37709 0.0
H981 H 0.90557 0.17914 0.51541 0.0
H982 H 0.89687 0.14063 0.51798 0.0
H983 H 0.93613 0.15785 0.51071 0.0
H984 H 0.89614 0.04572 0.51102 0.0
H985 H 0.99 0.08645 0.49108 0.0
H986 H 0.85891 0.083 0.457 0.0
H987 H 0.85916 0.10266 0.49344 0.0
H988 H 0.85245 0.064 0.49338 0.0
H989 H 0.97386 0.13198 0.43281 0.0
H990 H 1.00246 0.12759 0.46165 0.0
H991 H 0.97518 0.15184 0.46922 0.0
C992 C 0.22817 0.62036 0.11809 0.0
C993 C 0.23162 0.62005 0.15092 0.0
C994 C 0.2007 0.60634 0.1031 0.0
C995 C 0.17532 0.59186 0.12117 0.0
C996 C 0.17856 0.59163 0.15436 0.0
C997 C 0.20657 0.60536 0.16868 0.0
C998 C 0.19897 0.60685 0.06774 0.0
C999 C 0.15221 0.57708 0.17488 0.0
C1000 C 0.09337 0.57879 0.08432 0.0
C1001 C 0.08904 0.54953 0.07544 0.0
C1002 C 0.12093 0.59261 0.09934 0.0
C1003 C 0.14547 0.57717 0.10541 0.0
C1004 C 0.14138 0.5477 0.09618 0.0
C1005 C 0.11335 0.53429 0.0817 0.0
C1006 C 0.12363 0.62382 0.10905 0.0
C1007 C 0.16678 0.53025 0.10147 0.0
H1008 H 0.24734 0.63119 0.10389 0.0
H1009 H 0.20863 0.60502 0.19401 0.0
H1010 H 0.1944 0.5846 0.05793 0.0
H1011 H 0.17926 0.61741 0.06086 0.0
H1012 H 0.22082 0.61837 0.05687 0.0
H1013 H 0.15798 0.57911 0.20026 0.0
H1014 H 0.13089 0.58653 0.17116 0.0
H1015 H 0.14654 0.55398 0.16826 0.0
H1016 H 0.07491 0.59093 0.07999 0.0
H1017 H 0.11062 0.51175 0.07503 0.0
H1018 H 0.14402 0.63658 0.09702 0.0
H1019 H 0.12765 0.62645 0.13472 0.0
H1020 H 0.10239 0.63277 0.10339 0.0
H1021 H 0.1887 0.54028 0.08954 0.0
H1022 H 0.16043 0.50778 0.09254 0.0
H1023 H 0.17171 0.52994 0.12693 0.0
C1024 C 0.28721 0.4381 0.65214 0.0
C1025 C 0.27607 0.40858 0.64819 0.0
C1026 C 0.31434 0.45164 0.63608 0.0
C1027 C 0.33155 0.43527 0.61611 0.0
C1028 C 0.32057 0.40537 0.61238 0.0
C1029 C 0.29292 0.39255 0.62804 0.0
C1030 C 0.32441 0.4836 0.64025 0.0
C1031 C 0.33829 0.38676 0.59209 0.0
C1032 C 0.387 0.4701 0.55121 0.0
C1033 C 0.4164 0.47324 0.56533 0.0
C1034 C 0.3593 0.4587 0.5677 0.0
C1035 C 0.36082 0.44929 0.59896 0.0
C1036 C 0.39052 0.45259 0.61339 0.0
C1037 C 0.41776 0.46484 0.59663 0.0
C1038 C 0.32836 0.4565 0.55146 0.0
C1039 C 0.39365 0.44234 0.64627 0.0
H1040 H 0.27435 0.45075 0.66747 0.0
H1041 H 0.28483 0.36971 0.62506 0.0
H1042 H 0.34811 0.48829 0.65041 0.0
H1043 H 0.32573 0.49392 0.61704 0.0
H1044 H 0.30816 0.49348 0.65583 0.0
H1045 H 0.32741 0.36378 0.5924 0.0
H1046 H 0.33935 0.39396 0.56744 0.0
H1047 H 0.36269 0.38888 0.6003 0.0
H1048 H 0.38563 0.47658 0.5271 0.0
H1049 H 0.44033 0.46693 0.60773 0.0
H1050 H 0.312 0.46697 0.56623 0.0
H1051 H 0.31766 0.43364 0.54825 0.0
H1052 H 0.33079 0.46659 0.52807 0.0
H1053 H 0.37922 0.45309 0.66299 0.0
H1054 H 0.41823 0.44652 0.65431 0.0
H1055 H 0.38482 0.41896 0.64716 0.0
C1056 C 0.80784 0.71261 0.86151 0.0
C1057 C 0.7804 0.71576 0.87816 0.0
C1058 C 0.82774 0.69461 0.87213 0.0
C1059 C 0.81985 0.67913 0.89993 0.0
C1060 C 0.79119 0.68077 0.91575 0.0
C1061 C 0.77178 0.69916 0.90469 0.0
C1062 C 0.85806 0.69345 0.85456 0.0
C1063 C 0.78183 0.66427 0.94526 0.0
C1064 C 0.86725 0.6212 0.91849 0.0
C1065 C 0.88906 0.63579 0.93979 0.0
C1066 C 0.84415 0.6348 0.9057 0.0
C1067 C 0.84311 0.66375 0.91411 0.0
C1068 C 0.86507 0.6786 0.93549 0.0
C1069 C 0.88757 0.6644 0.94822 0.0
C1070 C 0.82095 0.61825 0.88313 0.0
C1071 C 0.86489 0.70959 0.94487 0.0
H1072 H 0.81422 0.72488 0.84053 0.0
H1073 H 0.7506 0.70151 0.91764 0.0
H1074 H 0.87795 0.70361 0.86924 0.0
H1075 H 0.86096 0.67089 0.84979 0.0
H1076 H 0.85938 0.70471 0.83187 0.0
H1077 H 0.75727 0.66506 0.95248 0.0
H1078 H 0.78463 0.64152 0.94181 0.0
H1079 H 0.79732 0.67343 0.96474 0.0
H1080 H 0.86835 0.59918 0.91161 0.0
H1081 H 0.90377 0.67568 0.96522 0.0
H1082 H 0.82346 0.62843 0.85983 0.0
H1083 H 0.79678 0.61878 0.89171 0.0
H1084 H 0.82409 0.59553 0.88002 0.0
H1085 H 0.86802 0.72304 0.92371 0.0
H1086 H 0.88363 0.71805 0.96175 0.0
H1087 H 0.84203 0.7119 0.95579 0.0
C1088 C 0.39864 0.80584 0.12345 0.0
C1089 C 0.40649 0.79875 0.15398 0.0
C1090 C 0.41029 0.83284 0.11029 0.0
C1091 C 0.43045 0.85407 0.1278 0.0
C1092 C 0.43781 0.84746 0.15893 0.0
C1093 C 0.42587 0.82018 0.17152 0.0
C1094 C 0.40149 0.83842 0.07715 0.0
C1095 C 0.45906 0.86905 0.17879 0.0
C1096 C 0.48819 0.9101 0.08238 0.0
C1097 C 0.47415 0.93485 0.08401 0.0
C1098 C 0.47433 0.88411 0.09634 0.0
C1099 C 0.44537 0.8822 0.11282 0.0
C1100 C 0.43085 0.90707 0.11443 0.0
C1101 C 0.44527 0.93292 0.10004 0.0
C1102 C 0.49091 0.85856 0.09344 0.0
C1103 C 0.40009 0.90642 0.1316 0.0
H1104 H 0.38321 0.79015 0.10955 0.0
H1105 H 0.43258 0.81541 0.19494 0.0
H1106 H 0.39127 0.85835 0.07666 0.0
H1107 H 0.42271 0.84167 0.06187 0.0
H1108 H 0.38446 0.82048 0.06702 0.0
H1109 H 0.46094 0.86172 0.20316 0.0
H1110 H 0.48277 0.87301 0.16793 0.0
H1111 H 0.45041 0.88982 0.17979 0.0
H1112 H 0.51039 0.91102 0.07006 0.0
H1113 H 0.43406 0.95172 0.10165 0.0
H1114 H 0.47562 0.84036 0.08165 0.0
H1115 H 0.49601 0.85149 0.11716 0.0
H1116 H 0.51319 0.86331 0.07986 0.0
H1117 H 0.38216 0.88951 0.12108 0.0
H1118 H 0.39165 0.92728 0.13089 0.0
H1119 H 0.40249 0.90092 0.15653 0.0
C1120 C 0.07372 0.22507 0.63682 0.0
C1121 C 0.10418 0.22945 0.64901 0.0
C1122 C 0.06068 0.19908 0.62113 0.0
C1123 C 0.07839 0.17657 0.61689 0.0
C1124 C 0.10907 0.18081 0.62903 0.0
C1125 C 0.12133 0.20676 0.64502 0.0
C1126 C 0.02779 0.19569 0.60904 0.0
C1127 C 0.12913 0.15779 0.62512 0.0
C1128 C 0.03769 0.09855 0.60178 0.0
C1129 C 0.04074 0.09494 0.56899 0.0
C1130 C 0.04926 0.12489 0.61743 0.0
C1131 C 0.06487 0.14853 0.60019 0.0
C1132 C 0.06812 0.14499 0.56708 0.0
C1133 C 0.0559 0.11852 0.55196 0.0
C1134 C 0.04469 0.12743 0.65257 0.0
C1135 C 0.08485 0.16916 0.54754 0.0
H1136 H 0.06002 0.24214 0.63911 0.0
H1137 H 0.14449 0.20902 0.65477 0.0
H1138 H 0.02787 0.19212 0.58317 0.0
H1139 H 0.01324 0.17657 0.61942 0.0
H1140 H 0.01671 0.21475 0.61466 0.0
H1141 H 0.15287 0.16459 0.63484 0.0
H1142 H 0.11786 0.13813 0.63714 0.0
H1143 H 0.13145 0.15204 0.59983 0.0
H1144 H 0.0259 0.08077 0.61536 0.0
H1145 H 0.05853 0.11625 0.52668 0.0
H1146 H 0.03216 0.14552 0.6584 0.0
H1147 H 0.0677 0.13221 0.66419 0.0
H1148 H 0.03125 0.10754 0.66256 0.0
H1149 H 0.07314 0.18818 0.55042 0.0
H1150 H 0.08555 0.16318 0.52214 0.0
H1151 H 0.10917 0.1756 0.55581 0.0
C1152 C 0.72655 0.30336 0.44032 0.0
C1153 C 0.75033 0.32111 0.42397 0.0
C1154 C 0.70082 0.31418 0.45315 0.0
C1155 C 0.69897 0.34348 0.44966 0.0
C1156 C 0.72382 0.36187 0.43489 0.0
C1157 C 0.7492 0.35045 0.42215 0.0
C1158 C 0.67484 0.29393 0.46885 0.0
C1159 C 0.72275 0.3933 0.43089 0.0
C1160 C 0.61968 0.36551 0.44254 0.0
C1161 C 0.6158 0.37837 0.4721 0.0
C1162 C 0.64625 0.35335 0.43536 0.0
C1163 C 0.6697 0.35426 0.4582 0.0
C1164 C 0.66564 0.36651 0.48838 0.0
C1165 C 0.63866 0.3784 0.49501 0.0
C1166 C 0.64967 0.34033 0.40293 0.0
C1167 C 0.69015 0.36777 0.51331 0.0
H1168 H 0.72763 0.28076 0.44234 0.0
H1169 H 0.76738 0.36425 0.40938 0.0
H1170 H 0.66812 0.30317 0.49169 0.0
H1171 H 0.65389 0.29069 0.45378 0.0
H1172 H 0.68147 0.27268 0.47296 0.0
H1173 H 0.7453 0.40524 0.42196 0.0
H1174 H 0.7042 0.39564 0.41403 0.0
H1175 H 0.71682 0.40331 0.45358 0.0
H1176 H 0.60243 0.36582 0.42453 0.0
H1177 H 0.63561 0.38799 0.51803 0.0
H1178 H 0.65414 0.31803 0.40472 0.0
H1179 H 0.67001 0.35275 0.39048 0.0
H1180 H 0.62857 0.34001 0.38846 0.0
H1181 H 0.69588 0.34611 0.51681 0.0
H1182 H 0.68252 0.37629 0.53621 0.0
H1183 H 0.71195 0.3817 0.50553 0.0
loop_
_geom_bond_atom_site_label_1
_geom_bond_atom_site_label_2
_geom_bond_distance
_geom_bond_site_symmetry_2
_ccdc_geom_bond_type
P0 O11 1.490 . S
P0 C14 1.812 . S
P0 C20 1.803 . S
P0 C26 1.819 . S
H1 C15 0.941 . S
H2 C16 0.939 . S
H3 C18 0.940 . S
H4 C19 0.940 . S
H5 C21 0.939 . S
H6 C22 0.942 . S
H7 C24 0.940 . S
H8 C25 0.939 . S
H9 C27 0.941 . S
H10 C31 0.939 . S
O11 P0 1.490 . S
H12 C28 0.939 . S
H13 C30 0.940 . S
C14 P0 1.812 . S
C14 C15 1.389 . S
C14 C19 1.391 . S
C15 H1 0.941 . S
C15 C14 1.389 . S
C15 C16 1.397 . S
C16 H2 0.939 . S
C16 C15 1.397 . S
C16 C17 1.378 . S
C17 C16 1.378 . S
C17 C18 1.378 . S
C18 H3 0.940 . S
C18 C17 1.378 . S
C18 C19 1.396 . S
C19 H4 0.940 . S
C19 C14 1.391 . S
C19 C18 1.396 . S
C20 P0 1.803 . S
C20 C21 1.378 . S
C20 C25 1.400 . S
C21 H5 0.939 . S
C21 C20 1.378 . S
C21 C22 1.361 . S
C22 H6 0.942 . S
C22 C21 1.361 . S
C22 C23 1.369 . S
C23 C22 1.369 . S
C23 C24 1.404 . S
C24 H7 0.940 . S
C24 C23 1.404 . S
C24 C25 1.389 . S
C25 H8 0.939 . S
C25 C20 1.400 . S
C25 C24 1.389 . S
C26 P0 1.819 . S
C26 C27 1.391 . S
C26 C31 1.391 . S
C27 H9 0.941 . S
C27 C26 1.391 . S
C27 C28 1.396 . S
C28 H12 0.939 . S
C28 C27 1.396 . S
C28 C29 1.397 . S
C29 C28 1.397 . S
C29 C30 1.385 . S
C30 H13 0.940 . S
C30 C29 1.385 . S
C30 C31 1.388 . S
C31 H10 0.939 . S
C31 C26 1.391 . S
C31 C30 1.388 . S
P32 O43 1.490 . S
P32 C46 1.812 . S
P32 C52 1.803 . S
P32 C58 1.819 . S
H33 C47 0.941 . S
H34 C48 0.939 . S
H35 C50 0.940 . S
H36 C51 0.940 . S
H37 C53 0.939 . S
H38 C54 0.942 . S
H39 C56 0.940 . S
H40 C57 0.939 . S
H41 C59 0.941 . S
H42 C63 0.939 . S
O43 P32 1.490 . S
H44 C60 0.939 . S
H45 C62 0.940 . S
C46 P32 1.812 . S
C46 C47 1.389 . S
C46 C51 1.391 . S
C47 H33 0.941 . S
C47 C46 1.389 . S
C47 C48 1.397 . S
C48 H34 0.939 . S
C48 C47 1.397 . S
C48 C49 1.378 . S
C49 C48 1.378 . S
C49 C50 1.378 . S
C50 H35 0.940 . S
C50 C49 1.378 . S
C50 C51 1.396 . S
C51 H36 0.940 . S
C51 C46 1.391 . S
C51 C50 1.396 . S
C52 P32 1.803 . S
C52 C53 1.378 . S
C52 C57 1.400 . S
C53 H37 0.939 . S
C53 C52 1.378 . S
C53 C54 1.361 . S
C54 H38 0.942 . S
C54 C53 1.361 . S
C54 C55 1.369 . S
C55 C54 1.369 . S
C55 C56 1.404 . S
C56 H39 0.940 . S
C56 C55 1.404 . S
C56 C57 1.389 . S
C57 H40 0.939 . S
C57 C52 1.400 . S
C57 C56 1.389 . S
C58 P32 1.819 . S
C58 C59 1.391 . S
C58 C63 1.391 . S
C59 H41 0.941 . S
C59 C58 1.391 . S
C59 C60 1.396 . S
C60 H44 0.939 . S
C60 C59 1.396 . S
C60 C61 1.397 . S
C61 C60 1.397 . S
C61 C62 1.385 . S
C62 H45 0.940 . S
C62 C61 1.385 . S
C62 C63 1.388 . S
C63 H42 0.939 . S
C63 C58 1.391 . S
C63 C62 1.388 . S
P64 O75 1.490 . S
P64 C78 1.812 . S
P64 C84 1.803 . S
P64 C90 1.819 . S
H65 C79 0.941 . S
H66 C80 0.939 . S
H67 C82 0.940 . S
H68 C83 0.940 . S
H69 C85 0.939 . S
H70 C86 0.942 . S
H71 C88 0.940 . S
H72 C89 0.939 . S
H73 C91 0.941 . S
H74 C95 0.939 . S
O75 P64 1.490 . S
H76 C92 0.939 . S
H77 C94 0.940 . S
C78 P64 1.812 . S
C78 C79 1.389 . S
C78 C83 1.391 . S
C79 H65 0.941 . S
C79 C78 1.389 . S
C79 C80 1.397 . S
C80 H66 0.939 . S
C80 C79 1.397 . S
C80 C81 1.378 . S
C81 C80 1.378 . S
C81 C82 1.378 . S
C82 H67 0.940 . S
C82 C81 1.378 . S
C82 C83 1.396 . S
C83 H68 0.940 . S
C83 C78 1.391 . S
C83 C82 1.396 . S
C84 P64 1.803 . S
C84 C85 1.378 . S
C84 C89 1.400 . S
C85 H69 0.939 . S
C85 C84 1.378 . S
C85 C86 1.361 . S
C86 H70 0.942 . S
C86 C85 1.361 . S
C86 C87 1.369 . S
C87 C86 1.369 . S
C87 C88 1.404 . S
C88 H71 0.940 . S
C88 C87 1.404 . S
C88 C89 1.389 . S
C89 H72 0.939 . S
C89 C84 1.400 . S
C89 C88 1.389 . S
C90 P64 1.819 . S
C90 C91 1.391 . S
C90 C95 1.391 . S
C91 H73 0.941 . S
C91 C90 1.391 . S
C91 C92 1.396 . S
C92 H76 0.939 . S
C92 C91 1.396 . S
C92 C93 1.397 . S
C93 C92 1.397 . S
C93 C94 1.385 . S
C94 H77 0.940 . S
C94 C93 1.385 . S
C94 C95 1.388 . S
C95 H74 0.939 . S
C95 C90 1.391 . S
C95 C94 1.388 . S
P96 O107 1.490 . S
P96 C110 1.812 . S
P96 C116 1.803 . S
P96 C122 1.819 . S
H97 C111 0.941 . S
H98 C112 0.939 . S
H99 C114 0.940 . S
H100 C115 0.940 . S
H101 C117 0.939 . S
H102 C118 0.942 . S
H103 C120 0.940 . S
H104 C121 0.939 . S
H105 C123 0.941 . S
H106 C127 0.939 . S
O107 P96 1.490 . S
H108 C124 0.939 . S
H109 C126 0.940 . S
C110 P96 1.812 . S
C110 C111 1.389 . S
C110 C115 1.391 . S
C111 H97 0.941 . S
C111 C110 1.389 . S
C111 C112 1.397 . S
C112 H98 0.939 . S
C112 C111 1.397 . S
C112 C113 1.378 . S
C113 C112 1.378 . S
C113 C114 1.378 . S
C114 H99 0.940 . S
C114 C113 1.378 . S
C114 C115 1.396 . S
C115 H100 0.940 . S
C115 C110 1.391 . S
C115 C114 1.396 . S
C116 P96 1.803 . S
C116 C117 1.378 . S
C116 C121 1.400 . S
C117 H101 0.939 . S
C117 C116 1.378 . S
C117 C118 1.361 . S
C118 H102 0.942 . S
C118 C117 1.361 . S
C118 C119 1.369 . S
C119 C118 1.369 . S
C119 C120 1.404 . S
C120 H103 0.940 . S
C120 C119 1.404 . S
C120 C121 1.389 . S
C121 H104 0.939 . S
C121 C116 1.400 . S
C121 C120 1.389 . S
C122 P96 1.819 . S
C122 C123 1.391 . S
C122 C127 1.391 . S
C123 H105 0.941 . S
C123 C122 1.391 . S
C123 C124 1.396 . S
C124 H108 0.939 . S
C124 C123 1.396 . S
C124 C125 1.397 . S
C125 C124 1.397 . S
C125 C126 1.385 . S
C126 H109 0.940 . S
C126 C125 1.385 . S
C126 C127 1.388 . S
C127 H106 0.939 . S
C127 C122 1.391 . S
C127 C126 1.388 . S
P128 O139 1.490 . S
P128 C142 1.812 . S
P128 C148 1.803 . S
P128 C154 1.819 . S
H129 C143 0.941 . S
H130 C144 0.939 . S
H131 C146 0.940 . S
H132 C147 0.940 . S
H133 C149 0.939 . S
H134 C150 0.942 . S
H135 C152 0.940 . S
H136 C153 0.939 . S
H137 C155 0.941 . S
H138 C159 0.939 . S
O139 P128 1.490 . S
H140 C156 0.939 . S
H141 C158 0.940 . S
C142 P128 1.812 . S
C142 C143 1.389 . S
C142 C147 1.391 . S
C143 H129 0.941 . S
C143 C142 1.389 . S
C143 C144 1.397 . S
C144 H130 0.939 . S
C144 C143 1.397 . S
C144 C145 1.378 . S
C145 C144 1.378 . S
C145 C146 1.378 . S
C146 H131 0.940 . S
C146 C145 1.378 . S
C146 C147 1.396 . S
C147 H132 0.940 . S
C147 C142 1.391 . S
C147 C146 1.396 . S
C148 P128 1.803 . S
C148 C149 1.378 . S
C148 C153 1.400 . S
C149 H133 0.939 . S
C149 C148 1.378 . S
C149 C150 1.361 . S
C150 H134 0.942 . S
C150 C149 1.361 . S
C150 C151 1.369 . S
C151 C150 1.369 . S
C151 C152 1.404 . S
C152 H135 0.940 . S
C152 C151 1.404 . S
C152 C153 1.389 . S
C153 H136 0.939 . S
C153 C148 1.400 . S
C153 C152 1.389 . S
C154 P128 1.819 . S
C154 C155 1.391 . S
C154 C159 1.391 . S
C155 H137 0.941 . S
C155 C154 1.391 . S
C155 C156 1.396 . S
C156 H140 0.939 . S
C156 C155 1.396 . S
C156 C157 1.397 . S
C157 C156 1.397 . S
C157 C158 1.385 . S
C158 H141 0.940 . S
C158 C157 1.385 . S
C158 C159 1.388 . S
C159 H138 0.939 . S
C159 C154 1.391 . S
C159 C158 1.388 . S
P160 O171 1.490 . S
P160 C174 1.812 . S
P160 C180 1.803 . S
P160 C186 1.819 . S
H161 C175 0.941 . S
H162 C176 0.939 . S
H163 C178 0.940 . S
H164 C179 0.940 . S
H165 C181 0.939 . S
H166 C182 0.942 . S
H167 C184 0.940 . S
H168 C185 0.939 . S
H169 C187 0.941 . S
H170 C191 0.939 . S
O171 P160 1.490 . S
H172 C188 0.939 . S
H173 C190 0.940 . S
C174 P160 1.812 . S
C174 C175 1.389 . S
C174 C179 1.391 . S
C175 H161 0.941 . S
C175 C174 1.389 . S
C175 C176 1.397 . S
C176 H162 0.939 . S
C176 C175 1.397 . S
C176 C177 1.378 . S
C177 C176 1.378 . S
C177 C178 1.378 . S
C178 H163 0.940 . S
C178 C177 1.378 . S
C178 C179 1.396 . S
C179 H164 0.940 . S
C179 C174 1.391 . S
C179 C178 1.396 . S
C180 P160 1.803 . S
C180 C181 1.378 . S
C180 C185 1.400 . S
C181 H165 0.939 . S
C181 C180 1.378 . S
C181 C182 1.361 . S
C182 H166 0.942 . S
C182 C181 1.361 . S
C182 C183 1.369 . S
C183 C182 1.369 . S
C183 C184 1.404 . S
C184 H167 0.940 . S
C184 C183 1.404 . S
C184 C185 1.389 . S
C185 H168 0.939 . S
C185 C180 1.400 . S
C185 C184 1.389 . S
C186 P160 1.819 . S
C186 C187 1.391 . S
C186 C191 1.391 . S
C187 H169 0.941 . S
C187 C186 1.391 . S
C187 C188 1.396 . S
C188 H172 0.939 . S
C188 C187 1.396 . S
C188 C189 1.397 . S
C189 C188 1.397 . S
C189 C190 1.385 . S
C190 H173 0.940 . S
C190 C189 1.385 . S
C190 C191 1.388 . S
C191 H170 0.939 . S
C191 C186 1.391 . S
C191 C190 1.388 . S
P192 O203 1.490 . S
P192 C206 1.812 . S
P192 C212 1.803 . S
P192 C218 1.819 . S
H193 C207 0.941 . S
H194 C208 0.939 . S
H195 C210 0.940 . S
H196 C211 0.940 . S
H197 C213 0.939 . S
H198 C214 0.942 . S
H199 C216 0.940 . S
H200 C217 0.939 . S
H201 C219 0.941 . S
H202 C223 0.939 . S
O203 P192 1.490 . S
H204 C220 0.939 . S
H205 C222 0.940 . S
C206 P192 1.812 . S
C206 C207 1.389 . S
C206 C211 1.391 . S
C207 H193 0.941 . S
C207 C206 1.389 . S
C207 C208 1.397 . S
C208 H194 0.939 . S
C208 C207 1.397 . S
C208 C209 1.378 . S
C209 C208 1.378 . S
C209 C210 1.378 . S
C210 H195 0.940 . S
C210 C209 1.378 . S
C210 C211 1.396 . S
C211 H196 0.940 . S
C211 C206 1.391 . S
C211 C210 1.396 . S
C212 P192 1.803 . S
C212 C213 1.378 . S
C212 C217 1.400 . S
C213 H197 0.939 . S
C213 C212 1.378 . S
C213 C214 1.361 . S
C214 H198 0.942 . S
C214 C213 1.361 . S
C214 C215 1.369 . S
C215 C214 1.369 . S
C215 C216 1.404 . S
C216 H199 0.940 . S
C216 C215 1.404 . S
C216 C217 1.389 . S
C217 H200 0.939 . S
C217 C212 1.400 . S
C217 C216 1.389 . S
C218 P192 1.819 . S
C218 C219 1.391 . S
C218 C223 1.391 . S
C219 H201 0.941 . S
C219 C218 1.391 . S
C219 C220 1.396 . S
C220 H204 0.939 . S
C220 C219 1.396 . S
C220 C221 1.397 . S
C221 C220 1.397 . S
C221 C222 1.385 . S
C222 H205 0.940 . S
C222 C221 1.385 . S
C222 C223 1.388 . S
C223 H202 0.939 . S
C223 C218 1.391 . S
C223 C222 1.388 . S
P224 O235 1.490 . S
P224 C238 1.812 . S
P224 C244 1.803 . S
P224 C250 1.819 . S
H225 C239 0.941 . S
H226 C240 0.939 . S
H227 C242 0.940 . S
H228 C243 0.940 . S
H229 C245 0.939 . S
H230 C246 0.942 . S
H231 C248 0.940 . S
H232 C249 0.939 . S
H233 C251 0.941 . S
H234 C255 0.939 . S
O235 P224 1.490 . S
H236 C252 0.939 . S
H237 C254 0.940 . S
C238 P224 1.812 . S
C238 C239 1.389 . S
C238 C243 1.391 . S
C239 H225 0.941 . S
C239 C238 1.389 . S
C239 C240 1.397 . S
C240 H226 0.939 . S
C240 C239 1.397 . S
C240 C241 1.378 . S
C241 C240 1.378 . S
C241 C242 1.378 . S
C242 H227 0.940 . S
C242 C241 1.378 . S
C242 C243 1.396 . S
C243 H228 0.940 . S
C243 C238 1.391 . S
C243 C242 1.396 . S
C244 P224 1.803 . S
C244 C245 1.378 . S
C244 C249 1.400 . S
C245 H229 0.939 . S
C245 C244 1.378 . S
C245 C246 1.361 . S
C246 H230 0.942 . S
C246 C245 1.361 . S
C246 C247 1.369 . S
C247 C246 1.369 . S
C247 C248 1.404 . S
C248 H231 0.940 . S
C248 C247 1.404 . S
C248 C249 1.389 . S
C249 H232 0.939 . S
C249 C244 1.400 . S
C249 C248 1.389 . S
C250 P224 1.819 . S
C250 C251 1.391 . S
C250 C255 1.391 . S
C251 H233 0.941 . S
C251 C250 1.391 . S
C251 C252 1.396 . S
C252 H236 0.939 . S
C252 C251 1.396 . S
C252 C253 1.397 . S
C253 C252 1.397 . S
C253 C254 1.385 . S
C254 H237 0.940 . S
C254 C253 1.385 . S
C254 C255 1.388 . S
C255 H234 0.939 . S
C255 C250 1.391 . S
C255 C254 1.388 . S
Gd256 C259 2.818 . S
Gd256 O276 2.377 . S
Gd256 O278 2.448 . S
Gd256 O279 2.506 . S
Gd256 O280 2.435 1_545 S
Gd256 O281 2.717 1_545 S
Gd256 O283 2.395 1_445 S
Gd256 O287 2.327 1_455 S
Gd257 C268 2.818 . S
Gd257 O277 2.395 1_665 S
Gd257 O281 2.327 1_655 S
Gd257 O282 2.377 . S
Gd257 O284 2.448 . S
Gd257 O285 2.506 . S
Gd257 O286 2.435 1_565 S
Gd257 O287 2.717 1_565 S
C258 O276 1.240 . S
C258 O277 1.240 . S
C259 Gd256 2.818 . S
C259 C260 1.510 . S
C259 O278 1.249 . S
C259 O279 1.252 . S
C260 C259 1.510 . S
C260 C261 1.404 . S
C260 C262 1.352 . S
C261 C260 1.404 . S
C261 C265 1.389 . S
C261 H288 0.930 . S
C262 C260 1.352 . S
C262 C264 1.374 . S
C262 H289 0.931 . S
C263 C264 1.359 . S
C263 C265 1.364 . S
C264 C262 1.374 . S
C264 C263 1.359 . S
C264 H290 0.931 . S
C265 C261 1.389 . S
C265 C263 1.364 . S
C265 H291 0.931 . S
C266 O280 1.256 . S
C266 O281 1.257 . S
C267 O282 1.240 . S
C267 O283 1.240 . S
C268 Gd257 2.818 . S
C268 C269 1.510 . S
C268 O284 1.249 . S
C268 O285 1.252 . S
C269 C268 1.510 . S
C269 C270 1.404 . S
C269 C271 1.352 . S
C270 C269 1.404 . S
C270 C274 1.389 . S
C270 H292 0.930 . S
C271 C269 1.352 . S
C271 C273 1.374 . S
C271 H293 0.931 . S
C272 C273 1.359 . S
C272 C274 1.364 . S
C273 C271 1.374 . S
C273 C272 1.359 . S
C273 H294 0.931 . S
C274 C270 1.389 . S
C274 C272 1.364 . S
C274 H295 0.931 . S
C275 O286 1.256 . S
C275 O287 1.257 . S
O276 Gd256 2.377 . S
O276 C258 1.240 . S
O277 Gd257 2.395 1_445 S
O277 C258 1.240 . S
O278 Gd256 2.448 . S
O278 C259 1.249 . S
O279 Gd256 2.506 . S
O279 C259 1.252 . S
O280 Gd256 2.435 1_565 S
O280 C266 1.256 . S
O281 Gd256 2.717 1_565 S
O281 Gd257 2.327 1_455 S
O281 C266 1.257 . S
O282 Gd257 2.377 . S
O282 C267 1.240 . S
O283 Gd256 2.395 1_665 S
O283 C267 1.240 . S
O284 Gd257 2.448 . S
O284 C268 1.249 . S
O285 Gd257 2.506 . S
O285 C268 1.252 . S
O286 Gd257 2.435 1_545 S
O286 C275 1.256 . S
O287 Gd256 2.327 1_655 S
O287 Gd257 2.717 1_545 S
O287 C275 1.257 . S
H288 C261 0.930 . S
H289 C262 0.931 . S
H290 C264 0.931 . S
H291 C265 0.931 . S
H292 C270 0.930 . S
H293 C271 0.931 . S
H294 C273 0.931 . S
H295 C274 0.931 . S
Gd296 C299 2.818 . S
Gd296 O316 2.377 . S
Gd296 O318 2.448 . S
Gd296 O319 2.506 . S
Gd296 O320 2.435 1_545 S
Gd296 O321 2.717 1_545 S
Gd296 O323 2.395 1_544 S
Gd296 O327 2.327 1_554 S
Gd297 C308 2.818 1_545 S
Gd297 O317 2.395 1_556 S
Gd297 O321 2.327 1_546 S
Gd297 O322 2.377 1_545 S
Gd297 O324 2.448 1_545 S
Gd297 O325 2.506 1_545 S
Gd297 O326 2.435 . S
Gd297 O327 2.717 . S
C298 O316 1.240 . S
C298 O317 1.240 . S
C299 Gd296 2.818 . S
C299 C300 1.510 . S
C299 O318 1.249 . S
C299 O319 1.252 . S
C300 C299 1.510 . S
C300 C301 1.404 . S
C300 C302 1.352 . S
C301 C300 1.404 . S
C301 C305 1.389 . S
C301 H328 0.930 . S
C302 C300 1.352 . S
C302 C304 1.374 . S
C302 H329 0.931 . S
C303 C304 1.359 . S
C303 C305 1.364 . S
C304 C302 1.374 . S
C304 C303 1.359 . S
C304 H330 0.931 . S
C305 C301 1.389 . S
C305 C303 1.364 . S
C305 H331 0.931 . S
C306 O320 1.256 . S
C306 O321 1.257 . S
C307 O322 1.240 . S
C307 O323 1.240 . S
C308 Gd297 2.818 1_565 S
C308 C309 1.510 . S
C308 O324 1.249 . S
C308 O325 1.252 . S
C309 C308 1.510 . S
C309 C310 1.404 . S
C309 C311 1.352 . S
C310 C309 1.404 . S
C310 C314 1.389 . S
C310 H332 0.930 . S
C311 C309 1.352 . S
C311 C313 1.374 . S
C311 H333 0.931 . S
C312 C313 1.359 . S
C312 C314 1.364 . S
C313 C311 1.374 . S
C313 C312 1.359 . S
C313 H334 0.931 . S
C314 C310 1.389 . S
C314 C312 1.364 . S
C314 H335 0.931 . S
C315 O326 1.256 . S
C315 O327 1.257 . S
O316 Gd296 2.377 . S
O316 C298 1.240 . S
O317 Gd297 2.395 1_554 S
O317 C298 1.240 . S
O318 Gd296 2.448 . S
O318 C299 1.249 . S
O319 Gd296 2.506 . S
O319 C299 1.252 . S
O320 Gd296 2.435 1_565 S
O320 C306 1.256 . S
O321 Gd296 2.717 1_565 S
O321 Gd297 2.327 1_564 S
O321 C306 1.257 . S
O322 Gd297 2.377 1_565 S
O322 C307 1.240 . S
O323 Gd296 2.395 1_566 S
O323 C307 1.240 . S
O324 Gd297 2.448 1_565 S
O324 C308 1.249 . S
O325 Gd297 2.506 1_565 S
O325 C308 1.252 . S
O326 Gd297 2.435 . S
O326 C315 1.256 . S
O327 Gd296 2.327 1_556 S
O327 Gd297 2.717 . S
O327 C315 1.257 . S
H328 C301 0.930 . S
H329 C302 0.931 . S
H330 C304 0.931 . S
H331 C305 0.931 . S
H332 C310 0.930 . S
H333 C311 0.931 . S
H334 C313 0.931 . S
H335 C314 0.931 . S
Gd336 C339 2.818 . S
Gd336 O356 2.377 . S
Gd336 O358 2.448 . S
Gd336 O359 2.506 . S
Gd336 O360 2.435 . S
Gd336 O361 2.717 . S
Gd336 O363 2.395 . S
Gd336 O367 2.327 . S
Gd337 C348 2.818 . S
Gd337 O357 2.395 . S
Gd337 O361 2.327 . S
Gd337 O362 2.377 . S
Gd337 O364 2.448 . S
Gd337 O365 2.506 . S
Gd337 O366 2.435 . S
Gd337 O367 2.717 . S
C338 O356 1.240 . S
C338 O357 1.240 . S
C339 Gd336 2.818 . S
C339 C340 1.510 . S
C339 O358 1.249 . S
C339 O359 1.252 . S
C340 C339 1.510 . S
C340 C341 1.404 . S
C340 C342 1.352 . S
C341 C340 1.404 . S
C341 C345 1.389 . S
C341 H368 0.930 . S
C342 C340 1.352 . S
C342 C344 1.374 . S
C342 H369 0.931 . S
C343 C344 1.359 . S
C343 C345 1.364 . S
C344 C342 1.374 . S
C344 C343 1.359 . S
C344 H370 0.931 . S
C345 C341 1.389 . S
C345 C343 1.364 . S
C345 H371 0.931 . S
C346 O360 1.256 . S
C346 O361 1.257 . S
C347 O362 1.240 . S
C347 O363 1.240 . S
C348 Gd337 2.818 . S
C348 C349 1.510 . S
C348 O364 1.249 . S
C348 O365 1.252 . S
C349 C348 1.510 . S
C349 C350 1.404 . S
C349 C351 1.352 . S
C350 C349 1.404 . S
C350 C354 1.389 . S
C350 H372 0.930 . S
C351 C349 1.352 . S
C351 C353 1.374 . S
C351 H373 0.931 . S
C352 C353 1.359 . S
C352 C354 1.364 . S
C353 C351 1.374 . S
C353 C352 1.359 . S
C353 H374 0.931 . S
C354 C350 1.389 . S
C354 C352 1.364 . S
C354 H375 0.931 . S
C355 O366 1.256 . S
C355 O367 1.257 . S
O356 Gd336 2.377 . S
O356 C338 1.240 . S
O357 Gd337 2.395 . S
O357 C338 1.240 . S
O358 Gd336 2.448 . S
O358 C339 1.249 . S
O359 Gd336 2.506 . S
O359 C339 1.252 . S
O360 Gd336 2.435 . S
O360 C346 1.256 . S
O361 Gd336 2.717 . S
O361 Gd337 2.327 . S
O361 C346 1.257 . S
O362 Gd337 2.377 . S
O362 C347 1.240 . S
O363 Gd336 2.395 . S
O363 C347 1.240 . S
O364 Gd337 2.448 . S
O364 C348 1.249 . S
O365 Gd337 2.506 . S
O365 C348 1.252 . S
O366 Gd337 2.435 . S
O366 C355 1.256 . S
O367 Gd336 2.327 . S
O367 Gd337 2.717 . S
O367 C355 1.257 . S
H368 C341 0.930 . S
H369 C342 0.931 . S
H370 C344 0.931 . S
H371 C345 0.931 . S
H372 C350 0.930 . S
H373 C351 0.931 . S
H374 C353 0.931 . S
H375 C354 0.931 . S
Gd376 C379 2.818 . S
Gd376 O396 2.377 . S
Gd376 O398 2.448 . S
Gd376 O399 2.506 . S
Gd376 O400 2.435 1_455 S
Gd376 O401 2.717 1_455 S
Gd376 O403 2.411 1_455 S
Gd376 O407 2.327 1_554 S
Gd377 C388 2.818 . S
Gd377 O397 2.395 1_656 S
Gd377 O401 2.327 1_556 S
Gd377 O402 2.377 . S
Gd377 O404 2.448 . S
Gd377 O405 2.506 . S
Gd377 O406 2.435 1_655 S
Gd377 O407 2.717 1_655 S
C378 O396 1.240 . S
C378 O397 1.240 . S
C379 Gd376 2.818 . S
C379 C380 1.510 . S
C379 O398 1.249 . S
C379 O399 1.252 . S
C380 C379 1.510 . S
C380 C381 1.404 . S
C380 C382 1.352 . S
C381 C380 1.404 . S
C381 C385 1.389 . S
C381 H408 0.930 . S
C382 C380 1.352 . S
C382 C384 1.374 . S
C382 H409 0.931 . S
C383 C384 1.359 . S
C383 C385 1.364 . S
C384 C382 1.374 . S
C384 C383 1.359 . S
C384 H410 0.931 . S
C385 C381 1.389 . S
C385 C383 1.364 . S
C385 H411 0.931 . S
C386 O400 1.256 . S
C386 O401 1.257 . S
C387 O402 1.240 . S
C387 O403 1.218 1_556 S
C388 Gd377 2.818 . S
C388 C389 1.510 . S
C388 O404 1.249 . S
C388 O405 1.252 . S
C389 C388 1.510 . S
C389 C390 1.404 . S
C389 C391 1.352 . S
C390 C389 1.404 . S
C390 C394 1.389 . S
C390 H412 0.930 . S
C391 C389 1.352 . S
C391 C393 1.374 . S
C391 H413 0.931 . S
C392 C393 1.359 . S
C392 C394 1.364 . S
C393 C391 1.374 . S
C393 C392 1.359 . S
C393 H414 0.931 . S
C394 C390 1.389 . S
C394 C392 1.364 . S
C394 H415 0.931 . S
C395 O406 1.256 . S
C395 O407 1.257 . S
O396 Gd376 2.377 . S
O396 C378 1.240 . S
O397 Gd377 2.395 1_454 S
O397 C378 1.240 . S
O398 Gd376 2.448 . S
O398 C379 1.249 . S
O399 Gd376 2.506 . S
O399 C379 1.252 . S
O400 Gd376 2.435 1_655 S
O400 C386 1.256 . S
O401 Gd376 2.717 1_655 S
O401 Gd377 2.327 1_554 S
O401 C386 1.257 . S
O402 Gd377 2.377 . S
O402 C387 1.240 . S
O403 Gd376 2.411 1_655 S
O403 C387 1.218 1_554 S
O404 Gd377 2.448 . S
O404 C388 1.249 . S
O405 Gd377 2.506 . S
O405 C388 1.252 . S
O406 Gd377 2.435 1_455 S
O406 C395 1.256 . S
O407 Gd376 2.327 1_556 S
O407 Gd377 2.717 1_455 S
O407 C395 1.257 . S
H408 C381 0.930 . S
H409 C382 0.931 . S
H410 C384 0.931 . S
H411 C385 0.931 . S
H412 C390 0.930 . S
H413 C391 0.931 . S
H414 C393 0.931 . S
H415 C394 0.931 . S
C416 C417 1.391 . S
C416 C418 1.394 . S
C416 H432 0.931 . S
C417 C416 1.391 . S
C417 C421 1.376 . S
C418 C416 1.394 . S
C418 C419 1.369 . S
C418 C422 1.531 . S
C419 C418 1.369 . S
C419 C420 1.410 . S
C419 C427 1.503 . S
C420 C419 1.410 . S
C420 C421 1.392 . S
C420 C423 1.511 . S
C421 C417 1.376 . S
C421 C420 1.392 . S
C421 H433 0.929 . S
C422 C418 1.531 . S
C422 H434 0.960 . S
C422 H435 0.962 . S
C422 H436 0.960 . S
C423 C420 1.511 . S
C423 H437 0.961 . S
C423 H438 0.961 . S
C423 H439 0.961 . S
C424 C425 1.370 . S
C424 C426 1.363 . S
C424 H440 0.931 . S
C425 C424 1.370 . S
C425 C429 1.408 . S
C426 C424 1.363 . S
C426 C427 1.370 . S
C426 C430 1.524 . S
C427 C419 1.503 . S
C427 C426 1.370 . S
C427 C428 1.403 . S
C428 C427 1.403 . S
C428 C429 1.404 . S
C428 C431 1.539 . S
C429 C425 1.408 . S
C429 C428 1.404 . S
C429 H441 0.930 . S
C430 C426 1.524 . S
C430 H442 0.956 . S
C430 H443 0.961 . S
C430 H444 0.961 . S
C431 C428 1.539 . S
C431 H445 0.958 . S
C431 H446 0.961 . S
C431 H447 0.960 . S
H432 C416 0.931 . S
H433 C421 0.929 . S
H434 C422 0.960 . S
H435 C422 0.962 . S
H436 C422 0.960 . S
H437 C423 0.961 . S
H438 C423 0.961 . S
H439 C423 0.961 . S
H440 C424 0.931 . S
H441 C429 0.930 . S
H442 C430 0.956 . S
H443 C430 0.961 . S
H444 C430 0.961 . S
H445 C431 0.958 . S
H446 C431 0.961 . S
H447 C431 0.960 . S
C448 C449 1.391 . S
C448 C450 1.394 . S
C448 H464 0.931 . S
C449 C448 1.391 . S
C449 C453 1.376 . S
C450 C448 1.394 . S
C450 C451 1.369 . S
C450 C454 1.531 . S
C451 C450 1.369 . S
C451 C452 1.410 . S
C451 C459 1.503 . S
C452 C451 1.410 . S
C452 C453 1.392 . S
C452 C455 1.511 . S
C453 C449 1.376 . S
C453 C452 1.392 . S
C453 H465 0.929 . S
C454 C450 1.531 . S
C454 H466 0.960 . S
C454 H467 0.962 . S
C454 H468 0.960 . S
C455 C452 1.511 . S
C455 H469 0.961 . S
C455 H470 0.961 . S
C455 H471 0.961 . S
C456 C457 1.370 . S
C456 C458 1.363 . S
C456 H472 0.931 . S
C457 C456 1.370 . S
C457 C461 1.408 . S
C458 C456 1.363 . S
C458 C459 1.370 . S
C458 C462 1.524 . S
C459 C451 1.503 . S
C459 C458 1.370 . S
C459 C460 1.403 . S
C460 C459 1.403 . S
C460 C461 1.404 . S
C460 C463 1.539 . S
C461 C457 1.408 . S
C461 C460 1.404 . S
C461 H473 0.930 . S
C462 C458 1.524 . S
C462 H474 0.956 . S
C462 H475 0.961 . S
C462 H476 0.961 . S
C463 C460 1.539 . S
C463 H477 0.958 . S
C463 H478 0.961 . S
C463 H479 0.960 . S
H464 C448 0.931 . S
H465 C453 0.929 . S
H466 C454 0.960 . S
H467 C454 0.962 . S
H468 C454 0.960 . S
H469 C455 0.961 . S
H470 C455 0.961 . S
H471 C455 0.961 . S
H472 C456 0.931 . S
H473 C461 0.930 . S
H474 C462 0.956 . S
H475 C462 0.961 . S
H476 C462 0.961 . S
H477 C463 0.958 . S
H478 C463 0.961 . S
H479 C463 0.960 . S
C480 C481 1.391 . S
C480 C482 1.394 . S
C480 H496 0.931 . S
C481 C480 1.391 . S
C481 C485 1.376 . S
C482 C480 1.394 . S
C482 C483 1.369 . S
C482 C486 1.531 . S
C483 C482 1.369 . S
C483 C484 1.410 . S
C483 C491 1.503 . S
C484 C483 1.410 . S
C484 C485 1.392 . S
C484 C487 1.511 . S
C485 C481 1.376 . S
C485 C484 1.392 . S
C485 H497 0.929 . S
C486 C482 1.531 . S
C486 H498 0.960 . S
C486 H499 0.962 . S
C486 H500 0.960 . S
C487 C484 1.511 . S
C487 H501 0.961 . S
C487 H502 0.961 . S
C487 H503 0.961 . S
C488 C489 1.370 . S
C488 C490 1.363 . S
C488 H504 0.931 . S
C489 C488 1.370 . S
C489 C493 1.408 . S
C490 C488 1.363 . S
C490 C491 1.370 . S
C490 C494 1.524 . S
C491 C483 1.503 . S
C491 C490 1.370 . S
C491 C492 1.403 . S
C492 C491 1.403 . S
C492 C493 1.404 . S
C492 C495 1.539 . S
C493 C489 1.408 . S
C493 C492 1.404 . S
C493 H505 0.930 . S
C494 C490 1.524 . S
C494 H506 0.956 . S
C494 H507 0.961 . S
C494 H508 0.961 . S
C495 C492 1.539 . S
C495 H509 0.958 . S
C495 H510 0.961 . S
C495 H511 0.960 . S
H496 C480 0.931 . S
H497 C485 0.929 . S
H498 C486 0.960 . S
H499 C486 0.962 . S
H500 C486 0.960 . S
H501 C487 0.961 . S
H502 C487 0.961 . S
H503 C487 0.961 . S
H504 C488 0.931 . S
H505 C493 0.930 . S
H506 C494 0.956 . S
H507 C494 0.961 . S
H508 C494 0.961 . S
H509 C495 0.958 . S
H510 C495 0.961 . S
H511 C495 0.960 . S
C512 C513 1.391 . S
C512 C514 1.394 . S
C512 H528 0.931 . S
C513 C512 1.391 . S
C513 C517 1.376 . S
C514 C512 1.394 . S
C514 C515 1.369 . S
C514 C518 1.531 . S
C515 C514 1.369 . S
C515 C516 1.410 . S
C515 C523 1.503 . S
C516 C515 1.410 . S
C516 C517 1.392 . S
C516 C519 1.511 . S
C517 C513 1.376 . S
C517 C516 1.392 . S
C517 H529 0.929 . S
C518 C514 1.531 . S
C518 H530 0.960 . S
C518 H531 0.962 . S
C518 H532 0.960 . S
C519 C516 1.511 . S
C519 H533 0.961 . S
C519 H534 0.961 . S
C519 H535 0.961 . S
C520 C521 1.370 . S
C520 C522 1.363 . S
C520 H536 0.931 . S
C521 C520 1.370 . S
C521 C525 1.408 . S
C522 C520 1.363 . S
C522 C523 1.370 . S
C522 C526 1.524 . S
C523 C515 1.503 . S
C523 C522 1.370 . S
C523 C524 1.403 . S
C524 C523 1.403 . S
C524 C525 1.404 . S
C524 C527 1.539 . S
C525 C521 1.408 . S
C525 C524 1.404 . S
C525 H537 0.930 . S
C526 C522 1.524 . S
C526 H538 0.956 . S
C526 H539 0.961 . S
C526 H540 0.961 . S
C527 C524 1.539 . S
C527 H541 0.958 . S
C527 H542 0.961 . S
C527 H543 0.960 . S
H528 C512 0.931 . S
H529 C517 0.929 . S
H530 C518 0.960 . S
H531 C518 0.962 . S
H532 C518 0.960 . S
H533 C519 0.961 . S
H534 C519 0.961 . S
H535 C519 0.961 . S
H536 C520 0.931 . S
H537 C525 0.930 . S
H538 C526 0.956 . S
H539 C526 0.961 . S
H540 C526 0.961 . S
H541 C527 0.958 . S
H542 C527 0.961 . S
H543 C527 0.960 . S
C544 C545 1.391 . S
C544 C546 1.394 . S
C544 H560 0.931 . S
C545 C544 1.391 . S
C545 C549 1.376 . S
C546 C544 1.394 . S
C546 C547 1.369 . S
C546 C550 1.531 . S
C547 C546 1.369 . S
C547 C548 1.410 . S
C547 C555 1.503 . S
C548 C547 1.410 . S
C548 C549 1.392 . S
C548 C551 1.511 . S
C549 C545 1.376 . S
C549 C548 1.392 . S
C549 H561 0.929 . S
C550 C546 1.531 . S
C550 H562 0.960 . S
C550 H563 0.962 . S
C550 H564 0.960 . S
C551 C548 1.511 . S
C551 H565 0.961 . S
C551 H566 0.961 . S
C551 H567 0.961 . S
C552 C553 1.370 . S
C552 C554 1.363 . S
C552 H568 0.931 . S
C553 C552 1.370 . S
C553 C557 1.408 . S
C554 C552 1.363 . S
C554 C555 1.370 . S
C554 C558 1.524 . S
C555 C547 1.503 . S
C555 C554 1.370 . S
C555 C556 1.403 . S
C556 C555 1.403 . S
C556 C557 1.404 . S
C556 C559 1.539 . S
C557 C553 1.408 . S
C557 C556 1.404 . S
C557 H569 0.930 . S
C558 C554 1.524 . S
C558 H570 0.956 . S
C558 H571 0.961 . S
C558 H572 0.961 . S
C559 C556 1.539 . S
C559 H573 0.958 . S
C559 H574 0.961 . S
C559 H575 0.960 . S
H560 C544 0.931 . S
H561 C549 0.929 . S
H562 C550 0.960 . S
H563 C550 0.962 . S
H564 C550 0.960 . S
H565 C551 0.961 . S
H566 C551 0.961 . S
H567 C551 0.961 . S
H568 C552 0.931 . S
H569 C557 0.930 . S
H570 C558 0.956 . S
H571 C558 0.961 . S
H572 C558 0.961 . S
H573 C559 0.958 . S
H574 C559 0.961 . S
H575 C559 0.960 . S
C576 C577 1.391 . S
C576 C578 1.394 . S
C576 H592 0.931 . S
C577 C576 1.391 . S
C577 C581 1.376 . S
C578 C576 1.394 . S
C578 C579 1.369 . S
C578 C582 1.531 . S
C579 C578 1.369 . S
C579 C580 1.410 . S
C579 C587 1.503 . S
C580 C579 1.410 . S
C580 C581 1.392 . S
C580 C583 1.511 . S
C581 C577 1.376 . S
C581 C580 1.392 . S
C581 H593 0.929 . S
C582 C578 1.531 . S
C582 H594 0.960 . S
C582 H595 0.962 . S
C582 H596 0.960 . S
C583 C580 1.511 . S
C583 H597 0.961 . S
C583 H598 0.961 . S
C583 H599 0.961 . S
C584 C585 1.370 . S
C584 C586 1.363 . S
C584 H600 0.931 . S
C585 C584 1.370 . S
C585 C589 1.408 . S
C586 C584 1.363 . S
C586 C587 1.370 . S
C586 C590 1.524 . S
C587 C579 1.503 . S
C587 C586 1.370 . S
C587 C588 1.403 . S
C588 C587 1.403 . S
C588 C589 1.404 . S
C588 C591 1.539 . S
C589 C585 1.408 . S
C589 C588 1.404 . S
C589 H601 0.930 . S
C590 C586 1.524 . S
C590 H602 0.956 . S
C590 H603 0.961 . S
C590 H604 0.961 . S
C591 C588 1.539 . S
C591 H605 0.958 . S
C591 H606 0.961 . S
C591 H607 0.960 . S
H592 C576 0.931 . S
H593 C581 0.929 . S
H594 C582 0.960 . S
H595 C582 0.962 . S
H596 C582 0.960 . S
H597 C583 0.961 . S
H598 C583 0.961 . S
H599 C583 0.961 . S
H600 C584 0.931 . S
H601 C589 0.930 . S
H602 C590 0.956 . S
H603 C590 0.961 . S
H604 C590 0.961 . S
H605 C591 0.958 . S
H606 C591 0.961 . S
H607 C591 0.960 . S
C608 C609 1.391 . S
C608 C610 1.394 . S
C608 H624 0.931 . S
C609 C608 1.391 . S
C609 C613 1.376 . S
C610 C608 1.394 . S
C610 C611 1.369 . S
C610 C614 1.531 . S
C611 C610 1.369 . S
C611 C612 1.410 . S
C611 C619 1.503 . S
C612 C611 1.410 . S
C612 C613 1.392 . S
C612 C615 1.511 . S
C613 C609 1.376 . S
C613 C612 1.392 . S
C613 H625 0.929 . S
C614 C610 1.531 . S
C614 H626 0.960 . S
C614 H627 0.962 . S
C614 H628 0.960 . S
C615 C612 1.511 . S
C615 H629 0.961 . S
C615 H630 0.961 . S
C615 H631 0.961 . S
C616 C617 1.370 . S
C616 C618 1.363 . S
C616 H632 0.931 . S
C617 C616 1.370 . S
C617 C621 1.408 . S
C618 C616 1.363 . S
C618 C619 1.370 . S
C618 C622 1.524 . S
C619 C611 1.503 . S
C619 C618 1.370 . S
C619 C620 1.403 . S
C620 C619 1.403 . S
C620 C621 1.404 . S
C620 C623 1.539 . S
C621 C617 1.408 . S
C621 C620 1.404 . S
C621 H633 0.930 . S
C622 C618 1.524 . S
C622 H634 0.956 . S
C622 H635 0.961 . S
C622 H636 0.961 . S
C623 C620 1.539 . S
C623 H637 0.958 . S
C623 H638 0.961 . S
C623 H639 0.960 . S
H624 C608 0.931 . S
H625 C613 0.929 . S
H626 C614 0.960 . S
H627 C614 0.962 . S
H628 C614 0.960 . S
H629 C615 0.961 . S
H630 C615 0.961 . S
H631 C615 0.961 . S
H632 C616 0.931 . S
H633 C621 0.930 . S
H634 C622 0.956 . S
H635 C622 0.961 . S
H636 C622 0.961 . S
H637 C623 0.958 . S
H638 C623 0.961 . S
H639 C623 0.960 . S
C640 C641 1.391 . S
C640 C642 1.394 . S
C640 H656 0.931 . S
C641 C640 1.391 . S
C641 C645 1.376 . S
C642 C640 1.394 . S
C642 C643 1.369 . S
C642 C646 1.531 . S
C643 C642 1.369 . S
C643 C644 1.410 . S
C643 C651 1.503 . S
C644 C643 1.410 . S
C644 C645 1.392 . S
C644 C647 1.511 . S
C645 C641 1.376 . S
C645 C644 1.392 . S
C645 H657 0.929 . S
C646 C642 1.531 . S
C646 H658 0.960 . S
C646 H659 0.962 . S
C646 H660 0.960 . S
C647 C644 1.511 . S
C647 H661 0.961 . S
C647 H662 0.961 . S
C647 H663 0.961 . S
C648 C649 1.370 . S
C648 C650 1.363 . S
C648 H664 0.931 . S
C649 C648 1.370 . S
C649 C653 1.408 . S
C650 C648 1.363 . S
C650 C651 1.370 . S
C650 C654 1.524 . S
C651 C643 1.503 . S
C651 C650 1.370 . S
C651 C652 1.403 . S
C652 C651 1.403 . S
C652 C653 1.404 . S
C652 C655 1.539 . S
C653 C649 1.408 . S
C653 C652 1.404 . S
C653 H665 0.930 . S
C654 C650 1.524 . S
C654 H666 0.956 . S
C654 H667 0.961 . S
C654 H668 0.961 . S
C655 C652 1.539 . S
C655 H669 0.958 . S
C655 H670 0.961 . S
C655 H671 0.960 . S
H656 C640 0.931 . S
H657 C645 0.929 . S
H658 C646 0.960 . S
H659 C646 0.962 . S
H660 C646 0.960 . S
H661 C647 0.961 . S
H662 C647 0.961 . S
H663 C647 0.961 . S
H664 C648 0.931 . S
H665 C653 0.930 . S
H666 C654 0.956 . S
H667 C654 0.961 . S
H668 C654 0.961 . S
H669 C655 0.958 . S
H670 C655 0.961 . S
H671 C655 0.960 . S
C672 C673 1.391 . S
C672 C674 1.394 . S
C672 H688 0.931 . S
C673 C672 1.391 . S
C673 C677 1.376 . S
C674 C672 1.394 . S
C674 C675 1.369 . S
C674 C678 1.531 . S
C675 C674 1.369 . S
C675 C676 1.410 . S
C675 C683 1.503 . S
C676 C675 1.410 . S
C676 C677 1.392 . S
C676 C679 1.511 . S
C677 C673 1.376 . S
C677 C676 1.392 . S
C677 H689 0.929 . S
C678 C674 1.531 . S
C678 H690 0.960 . S
C678 H691 0.962 . S
C678 H692 0.960 . S
C679 C676 1.511 . S
C679 H693 0.961 . S
C679 H694 0.961 . S
C679 H695 0.961 . S
C680 C681 1.370 . S
C680 C682 1.363 . S
C680 H696 0.931 . S
C681 C680 1.370 . S
C681 C685 1.408 . S
C682 C680 1.363 . S
C682 C683 1.370 . S
C682 C686 1.524 . S
C683 C675 1.503 . S
C683 C682 1.370 . S
C683 C684 1.403 . S
C684 C683 1.403 . S
C684 C685 1.404 . S
C684 C687 1.539 . S
C685 C681 1.408 . S
C685 C684 1.404 . S
C685 H697 0.930 . S
C686 C682 1.524 . S
C686 H698 0.956 . S
C686 H699 0.961 . S
C686 H700 0.961 . S
C687 C684 1.539 . S
C687 H701 0.958 . S
C687 H702 0.961 . S
C687 H703 0.960 . S
H688 C672 0.931 . S
H689 C677 0.929 . S
H690 C678 0.960 . S
H691 C678 0.962 . S
H692 C678 0.960 . S
H693 C679 0.961 . S
H694 C679 0.961 . S
H695 C679 0.961 . S
H696 C680 0.931 . S
H697 C685 0.930 . S
H698 C686 0.956 . S
H699 C686 0.961 . S
H700 C686 0.961 . S
H701 C687 0.958 . S
H702 C687 0.961 . S
H703 C687 0.960 . S
C704 C705 1.391 . S
C704 C706 1.394 . S
C704 H720 0.931 . S
C705 C704 1.391 . S
C705 C709 1.376 . S
C706 C704 1.394 . S
C706 C707 1.369 . S
C706 C710 1.531 . S
C707 C706 1.369 . S
C707 C708 1.410 . S
C707 C715 1.503 . S
C708 C707 1.410 . S
C708 C709 1.392 . S
C708 C711 1.511 . S
C709 C705 1.376 . S
C709 C708 1.392 . S
C709 H721 0.929 . S
C710 C706 1.531 . S
C710 H722 0.960 . S
C710 H723 0.962 . S
C710 H724 0.960 . S
C711 C708 1.511 . S
C711 H725 0.961 . S
C711 H726 0.961 . S
C711 H727 0.961 . S
C712 C713 1.370 . S
C712 C714 1.363 . S
C712 H728 0.931 . S
C713 C712 1.370 . S
C713 C717 1.408 . S
C714 C712 1.363 . S
C714 C715 1.370 . S
C714 C718 1.524 . S
C715 C707 1.503 . S
C715 C714 1.370 . S
C715 C716 1.403 . S
C716 C715 1.403 . S
C716 C717 1.404 . S
C716 C719 1.539 . S
C717 C713 1.408 . S
C717 C716 1.404 . S
C717 H729 0.930 . S
C718 C714 1.524 . S
C718 H730 0.956 . S
C718 H731 0.961 . S
C718 H732 0.961 . S
C719 C716 1.539 . S
C719 H733 0.958 . S
C719 H734 0.961 . S
C719 H735 0.960 . S
H720 C704 0.931 . S
H721 C709 0.929 . S
H722 C710 0.960 . S
H723 C710 0.962 . S
H724 C710 0.960 . S
H725 C711 0.961 . S
H726 C711 0.961 . S
H727 C711 0.961 . S
H728 C712 0.931 . S
H729 C717 0.930 . S
H730 C718 0.956 . S
H731 C718 0.961 . S
H732 C718 0.961 . S
H733 C719 0.958 . S
H734 C719 0.961 . S
H735 C719 0.960 . S
C736 C737 1.391 . S
C736 C738 1.394 . S
C736 H752 0.931 . S
C737 C736 1.391 . S
C737 C741 1.376 . S
C738 C736 1.394 . S
C738 C739 1.369 . S
C738 C742 1.531 . S
C739 C738 1.369 . S
C739 C740 1.410 . S
C739 C747 1.503 . S
C740 C739 1.410 . S
C740 C741 1.392 . S
C740 C743 1.511 . S
C741 C737 1.376 . S
C741 C740 1.392 . S
C741 H753 0.929 . S
C742 C738 1.531 . S
C742 H754 0.960 . S
C742 H755 0.962 . S
C742 H756 0.960 . S
C743 C740 1.511 . S
C743 H757 0.961 . S
C743 H758 0.961 . S
C743 H759 0.961 . S
C744 C745 1.370 . S
C744 C746 1.363 . S
C744 H760 0.931 . S
C745 C744 1.370 . S
C745 C749 1.408 . S
C746 C744 1.363 . S
C746 C747 1.370 . S
C746 C750 1.524 . S
C747 C739 1.503 . S
C747 C746 1.370 . S
C747 C748 1.403 . S
C748 C747 1.403 . S
C748 C749 1.404 . S
C748 C751 1.539 . S
C749 C745 1.408 . S
C749 C748 1.404 . S
C749 H761 0.930 . S
C750 C746 1.524 . S
C750 H762 0.956 . S
C750 H763 0.961 . S
C750 H764 0.961 . S
C751 C748 1.539 . S
C751 H765 0.958 . S
C751 H766 0.961 1_655 S
C751 H767 0.960 . S
H752 C736 0.931 . S
H753 C741 0.929 . S
H754 C742 0.960 . S
H755 C742 0.962 . S
H756 C742 0.960 . S
H757 C743 0.961 . S
H758 C743 0.961 . S
H759 C743 0.961 . S
H760 C744 0.931 . S
H761 C749 0.930 . S
H762 C750 0.956 . S
H763 C750 0.961 . S
H764 C750 0.961 . S
H765 C751 0.958 . S
H766 C751 0.961 1_455 S
H767 C751 0.960 . S
C768 C769 1.391 . S
C768 C770 1.394 . S
C768 H784 0.931 . S
C769 C768 1.391 . S
C769 C773 1.376 . S
C770 C768 1.394 . S
C770 C771 1.369 . S
C770 C774 1.531 . S
C771 C770 1.369 . S
C771 C772 1.410 . S
C771 C779 1.503 . S
C772 C771 1.410 . S
C772 C773 1.392 . S
C772 C775 1.511 . S
C773 C769 1.376 . S
C773 C772 1.392 . S
C773 H785 0.929 . S
C774 C770 1.531 . S
C774 H786 0.960 . S
C774 H787 0.962 . S
C774 H788 0.960 . S
C775 C772 1.511 . S
C775 H789 0.961 . S
C775 H790 0.961 . S
C775 H791 0.961 . S
C776 C777 1.370 . S
C776 C778 1.363 . S
C776 H792 0.931 . S
C777 C776 1.370 . S
C777 C781 1.408 . S
C778 C776 1.363 . S
C778 C779 1.370 . S
C778 C782 1.524 . S
C779 C771 1.503 . S
C779 C778 1.370 . S
C779 C780 1.403 . S
C780 C779 1.403 . S
C780 C781 1.404 . S
C780 C783 1.539 . S
C781 C777 1.408 . S
C781 C780 1.404 . S
C781 H793 0.930 . S
C782 C778 1.524 . S
C782 H794 0.956 . S
C782 H795 0.961 . S
C782 H796 0.961 . S
C783 C780 1.539 . S
C783 H797 0.958 . S
C783 H798 0.961 . S
C783 H799 0.960 . S
H784 C768 0.931 . S
H785 C773 0.929 . S
H786 C774 0.960 . S
H787 C774 0.962 . S
H788 C774 0.960 . S
H789 C775 0.961 . S
H790 C775 0.961 . S
H791 C775 0.961 . S
H792 C776 0.931 . S
H793 C781 0.930 . S
H794 C782 0.956 . S
H795 C782 0.961 . S
H796 C782 0.961 . S
H797 C783 0.958 . S
H798 C783 0.961 . S
H799 C783 0.960 . S
C800 C801 1.391 . S
C800 C802 1.394 . S
C800 H816 0.931 . S
C801 C800 1.391 . S
C801 C805 1.376 . S
C802 C800 1.394 . S
C802 C803 1.369 . S
C802 C806 1.531 . S
C803 C802 1.369 . S
C803 C804 1.410 . S
C803 C811 1.503 . S
C804 C803 1.410 . S
C804 C805 1.392 . S
C804 C807 1.511 . S
C805 C801 1.376 . S
C805 C804 1.392 . S
C805 H817 0.929 . S
C806 C802 1.531 . S
C806 H818 0.960 . S
C806 H819 0.962 . S
C806 H820 0.960 . S
C807 C804 1.511 . S
C807 H821 0.961 . S
C807 H822 0.961 . S
C807 H823 0.961 . S
C808 C809 1.370 . S
C808 C810 1.363 . S
C808 H824 0.931 . S
C809 C808 1.370 . S
C809 C813 1.408 . S
C810 C808 1.363 . S
C810 C811 1.370 . S
C810 C814 1.524 . S
C811 C803 1.503 . S
C811 C810 1.370 . S
C811 C812 1.403 . S
C812 C811 1.403 . S
C812 C813 1.404 . S
C812 C815 1.539 . S
C813 C809 1.408 . S
C813 C812 1.404 . S
C813 H825 0.930 . S
C814 C810 1.524 . S
C814 H826 0.956 . S
C814 H827 0.961 . S
C814 H828 0.961 . S
C815 C812 1.539 . S
C815 H829 0.958 . S
C815 H830 0.961 . S
C815 H831 0.960 . S
H816 C800 0.931 . S
H817 C805 0.929 . S
H818 C806 0.960 . S
H819 C806 0.962 . S
H820 C806 0.960 . S
H821 C807 0.961 . S
H822 C807 0.961 . S
H823 C807 0.961 . S
H824 C808 0.931 . S
H825 C813 0.930 . S
H826 C814 0.956 . S
H827 C814 0.961 . S
H828 C814 0.961 . S
H829 C815 0.958 . S
H830 C815 0.961 . S
H831 C815 0.960 . S
C832 C833 1.391 . S
C832 C834 1.394 . S
C832 H848 0.931 . S
C833 C832 1.391 . S
C833 C837 1.376 . S
C834 C832 1.394 . S
C834 C835 1.369 . S
C834 C838 1.531 . S
C835 C834 1.369 . S
C835 C836 1.410 . S
C835 C843 1.503 . S
C836 C835 1.410 . S
C836 C837 1.392 . S
C836 C839 1.511 . S
C837 C833 1.376 . S
C837 C836 1.392 . S
C837 H849 0.929 . S
C838 C834 1.531 . S
C838 H850 0.960 . S
C838 H851 0.962 . S
C838 H852 0.960 . S
C839 C836 1.511 . S
C839 H853 0.961 . S
C839 H854 0.961 . S
C839 H855 0.961 . S
C840 C841 1.370 . S
C840 C842 1.363 . S
C840 H856 0.931 . S
C841 C840 1.370 . S
C841 C845 1.408 . S
C842 C840 1.363 . S
C842 C843 1.370 . S
C842 C846 1.524 . S
C843 C835 1.503 . S
C843 C842 1.370 . S
C843 C844 1.403 . S
C844 C843 1.403 . S
C844 C845 1.404 . S
C844 C847 1.539 . S
C845 C841 1.408 . S
C845 C844 1.404 . S
C845 H857 0.930 . S
C846 C842 1.524 . S
C846 H858 0.956 . S
C846 H859 0.961 . S
C846 H860 0.961 . S
C847 C844 1.539 . S
C847 H861 0.958 . S
C847 H862 0.961 . S
C847 H863 0.960 . S
H848 C832 0.931 . S
H849 C837 0.929 . S
H850 C838 0.960 . S
H851 C838 0.962 . S
H852 C838 0.960 . S
H853 C839 0.961 . S
H854 C839 0.961 . S
H855 C839 0.961 . S
H856 C840 0.931 . S
H857 C845 0.930 . S
H858 C846 0.956 . S
H859 C846 0.961 . S
H860 C846 0.961 . S
H861 C847 0.958 . S
H862 C847 0.961 . S
H863 C847 0.960 . S
C864 C865 1.391 . S
C864 C866 1.394 . S
C864 H880 0.931 . S
C865 C864 1.391 . S
C865 C869 1.376 . S
C866 C864 1.394 . S
C866 C867 1.369 . S
C866 C870 1.531 . S
C867 C866 1.369 . S
C867 C868 1.410 . S
C867 C875 1.503 . S
C868 C867 1.410 . S
C868 C869 1.392 . S
C868 C871 1.511 . S
C869 C865 1.376 . S
C869 C868 1.392 . S
C869 H881 0.929 . S
C870 C866 1.531 . S
C870 H882 0.960 . S
C870 H883 0.962 . S
C870 H884 0.960 . S
C871 C868 1.511 . S
C871 H885 0.961 . S
C871 H886 0.961 . S
C871 H887 0.961 . S
C872 C873 1.370 . S
C872 C874 1.363 . S
C872 H888 0.931 . S
C873 C872 1.370 . S
C873 C877 1.408 . S
C874 C872 1.363 . S
C874 C875 1.370 . S
C874 C878 1.524 . S
C875 C867 1.503 . S
C875 C874 1.370 . S
C875 C876 1.403 . S
C876 C875 1.403 . S
C876 C877 1.404 . S
C876 C879 1.539 . S
C877 C873 1.408 . S
C877 C876 1.404 . S
C877 H889 0.930 . S
C878 C874 1.524 . S
C878 H890 0.956 . S
C878 H891 0.961 . S
C878 H892 0.961 . S
C879 C876 1.539 . S
C879 H893 0.958 . S
C879 H894 0.961 . S
C879 H895 0.960 . S
H880 C864 0.931 . S
H881 C869 0.929 . S
H882 C870 0.960 . S
H883 C870 0.962 . S
H884 C870 0.960 . S
H885 C871 0.961 . S
H886 C871 0.961 . S
H887 C871 0.961 . S
H888 C872 0.931 . S
H889 C877 0.930 . S
H890 C878 0.956 . S
H891 C878 0.961 . S
H892 C878 0.961 . S
H893 C879 0.958 . S
H894 C879 0.961 . S
H895 C879 0.960 . S
C896 C897 1.391 . S
C896 C898 1.394 . S
C896 H912 0.931 . S
C897 C896 1.391 . S
C897 C901 1.376 . S
C898 C896 1.394 . S
C898 C899 1.369 . S
C898 C902 1.531 . S
C899 C898 1.369 . S
C899 C900 1.410 . S
C899 C907 1.503 . S
C900 C899 1.410 . S
C900 C901 1.392 . S
C900 C903 1.511 . S
C901 C897 1.376 . S
C901 C900 1.392 . S
C901 H913 0.929 . S
C902 C898 1.531 . S
C902 H914 0.960 . S
C902 H915 0.962 . S
C902 H916 0.960 . S
C903 C900 1.511 . S
C903 H917 0.961 . S
C903 H918 0.961 . S
C903 H919 0.961 . S
C904 C905 1.370 . S
C904 C906 1.363 . S
C904 H920 0.931 . S
C905 C904 1.370 . S
C905 C909 1.408 . S
C906 C904 1.363 . S
C906 C907 1.370 . S
C906 C910 1.524 . S
C907 C899 1.503 . S
C907 C906 1.370 . S
C907 C908 1.403 . S
C908 C907 1.403 . S
C908 C909 1.404 . S
C908 C911 1.539 . S
C909 C905 1.408 . S
C909 C908 1.404 . S
C909 H921 0.930 . S
C910 C906 1.524 . S
C910 H922 0.956 . S
C910 H923 0.961 . S
C910 H924 0.961 . S
C911 C908 1.539 . S
C911 H925 0.958 . S
C911 H926 0.961 . S
C911 H927 0.960 . S
H912 C896 0.931 . S
H913 C901 0.929 . S
H914 C902 0.960 . S
H915 C902 0.962 . S
H916 C902 0.960 . S
H917 C903 0.961 . S
H918 C903 0.961 . S
H919 C903 0.961 . S
H920 C904 0.931 . S
H921 C909 0.930 . S
H922 C910 0.956 . S
H923 C910 0.961 . S
H924 C910 0.961 . S
H925 C911 0.958 . S
H926 C911 0.961 . S
H927 C911 0.960 . S
C928 C929 1.391 . S
C928 C930 1.394 . S
C928 H944 0.931 . S
C929 C928 1.391 . S
C929 C933 1.376 . S
C930 C928 1.394 . S
C930 C931 1.369 . S
C930 C934 1.531 . S
C931 C930 1.369 . S
C931 C932 1.410 . S
C931 C939 1.503 . S
C932 C931 1.410 . S
C932 C933 1.392 . S
C932 C935 1.511 . S
C933 C929 1.376 . S
C933 C932 1.392 . S
C933 H945 0.929 . S
C934 C930 1.531 . S
C934 H946 0.960 . S
C934 H947 0.962 . S
C934 H948 0.960 . S
C935 C932 1.511 . S
C935 H949 0.961 . S
C935 H950 0.961 . S
C935 H951 0.961 . S
C936 C937 1.370 . S
C936 C938 1.363 . S
C936 H952 0.931 . S
C937 C936 1.370 . S
C937 C941 1.408 . S
C938 C936 1.363 . S
C938 C939 1.370 . S
C938 C942 1.524 . S
C939 C931 1.503 . S
C939 C938 1.370 . S
C939 C940 1.403 . S
C940 C939 1.403 . S
C940 C941 1.404 . S
C940 C943 1.539 . S
C941 C937 1.408 . S
C941 C940 1.404 . S
C941 H953 0.930 . S
C942 C938 1.524 . S
C942 H954 0.956 . S
C942 H955 0.961 . S
C942 H956 0.961 . S
C943 C940 1.539 . S
C943 H957 0.958 . S
C943 H958 0.961 . S
C943 H959 0.960 . S
H944 C928 0.931 . S
H945 C933 0.929 . S
H946 C934 0.960 . S
H947 C934 0.962 . S
H948 C934 0.960 . S
H949 C935 0.961 . S
H950 C935 0.961 . S
H951 C935 0.961 . S
H952 C936 0.931 . S
H953 C941 0.930 . S
H954 C942 0.956 . S
H955 C942 0.961 . S
H956 C942 0.961 . S
H957 C943 0.958 . S
H958 C943 0.961 . S
H959 C943 0.960 . S
C960 C961 1.391 . S
C960 C962 1.394 . S
C960 H976 0.931 . S
C961 C960 1.391 . S
C961 C965 1.376 . S
C962 C960 1.394 . S
C962 C963 1.369 . S
C962 C966 1.531 . S
C963 C962 1.369 . S
C963 C964 1.410 . S
C963 C971 1.503 . S
C964 C963 1.410 . S
C964 C965 1.392 . S
C964 C967 1.511 . S
C965 C961 1.376 . S
C965 C964 1.392 . S
C965 H977 0.929 . S
C966 C962 1.531 . S
C966 H978 0.960 . S
C966 H979 0.962 . S
C966 H980 0.960 . S
C967 C964 1.511 . S
C967 H981 0.961 . S
C967 H982 0.961 . S
C967 H983 0.961 . S
C968 C969 1.370 . S
C968 C970 1.363 . S
C968 H984 0.931 . S
C969 C968 1.370 . S
C969 C973 1.408 . S
C970 C968 1.363 . S
C970 C971 1.370 . S
C970 C974 1.524 . S
C971 C963 1.503 . S
C971 C970 1.370 . S
C971 C972 1.403 . S
C972 C971 1.403 . S
C972 C973 1.404 . S
C972 C975 1.539 . S
C973 C969 1.408 . S
C973 C972 1.404 . S
C973 H985 0.930 . S
C974 C970 1.524 . S
C974 H986 0.956 . S
C974 H987 0.961 . S
C974 H988 0.961 . S
C975 C972 1.539 . S
C975 H989 0.958 . S
C975 H990 0.961 . S
C975 H991 0.960 . S
H976 C960 0.931 . S
H977 C965 0.929 . S
H978 C966 0.960 . S
H979 C966 0.962 . S
H980 C966 0.960 . S
H981 C967 0.961 . S
H982 C967 0.961 . S
H983 C967 0.961 . S
H984 C968 0.931 . S
H985 C973 0.930 . S
H986 C974 0.956 . S
H987 C974 0.961 . S
H988 C974 0.961 . S
H989 C975 0.958 . S
H990 C975 0.961 . S
H991 C975 0.960 . S
C992 C993 1.391 . S
C992 C994 1.394 . S
C992 H1008 0.931 . S
C993 C992 1.391 . S
C993 C997 1.376 . S
C994 C992 1.394 . S
C994 C995 1.369 . S
C994 C998 1.531 . S
C995 C994 1.369 . S
C995 C996 1.410 . S
C995 C1003 1.503 . S
C996 C995 1.410 . S
C996 C997 1.392 . S
C996 C999 1.511 . S
C997 C993 1.376 . S
C997 C996 1.392 . S
C997 H1009 0.929 . S
C998 C994 1.531 . S
C998 H1010 0.960 . S
C998 H1011 0.962 . S
C998 H1012 0.960 . S
C999 C996 1.511 . S
C999 H1013 0.961 . S
C999 H1014 0.961 . S
C999 H1015 0.961 . S
C1000 C1001 1.370 . S
C1000 C1002 1.363 . S
C1000 H1016 0.931 . S
C1001 C1000 1.370 . S
C1001 C1005 1.408 . S
C1002 C1000 1.363 . S
C1002 C1003 1.370 . S
C1002 C1006 1.524 . S
C1003 C995 1.503 . S
C1003 C1002 1.370 . S
C1003 C1004 1.403 . S
C1004 C1003 1.403 . S
C1004 C1005 1.404 . S
C1004 C1007 1.539 . S
C1005 C1001 1.408 . S
C1005 C1004 1.404 . S
C1005 H1017 0.930 . S
C1006 C1002 1.524 . S
C1006 H1018 0.956 . S
C1006 H1019 0.961 . S
C1006 H1020 0.961 . S
C1007 C1004 1.539 . S
C1007 H1021 0.958 . S
C1007 H1022 0.961 . S
C1007 H1023 0.960 . S
H1008 C992 0.931 . S
H1009 C997 0.929 . S
H1010 C998 0.960 . S
H1011 C998 0.962 . S
H1012 C998 0.960 . S
H1013 C999 0.961 . S
H1014 C999 0.961 . S
H1015 C999 0.961 . S
H1016 C1000 0.931 . S
H1017 C1005 0.930 . S
H1018 C1006 0.956 . S
H1019 C1006 0.961 . S
H1020 C1006 0.961 . S
H1021 C1007 0.958 . S
H1022 C1007 0.961 . S
H1023 C1007 0.960 . S
C1024 C1025 1.391 . S
C1024 C1026 1.394 . S
C1024 H1040 0.931 . S
C1025 C1024 1.391 . S
C1025 C1029 1.376 . S
C1026 C1024 1.394 . S
C1026 C1027 1.369 . S
C1026 C1030 1.531 . S
C1027 C1026 1.369 . S
C1027 C1028 1.410 . S
C1027 C1035 1.503 . S
C1028 C1027 1.410 . S
C1028 C1029 1.392 . S
C1028 C1031 1.511 . S
C1029 C1025 1.376 . S
C1029 C1028 1.392 . S
C1029 H1041 0.929 . S
C1030 C1026 1.531 . S
C1030 H1042 0.960 . S
C1030 H1043 0.962 . S
C1030 H1044 0.960 . S
C1031 C1028 1.511 . S
C1031 H1045 0.961 . S
C1031 H1046 0.961 . S
C1031 H1047 0.961 . S
C1032 C1033 1.370 . S
C1032 C1034 1.363 . S
C1032 H1048 0.931 . S
C1033 C1032 1.370 . S
C1033 C1037 1.408 . S
C1034 C1032 1.363 . S
C1034 C1035 1.370 . S
C1034 C1038 1.524 . S
C1035 C1027 1.503 . S
C1035 C1034 1.370 . S
C1035 C1036 1.403 . S
C1036 C1035 1.403 . S
C1036 C1037 1.404 . S
C1036 C1039 1.539 . S
C1037 C1033 1.408 . S
C1037 C1036 1.404 . S
C1037 H1049 0.930 . S
C1038 C1034 1.524 . S
C1038 H1050 0.956 . S
C1038 H1051 0.961 . S
C1038 H1052 0.961 . S
C1039 C1036 1.539 . S
C1039 H1053 0.958 . S
C1039 H1054 0.961 . S
C1039 H1055 0.960 . S
H1040 C1024 0.931 . S
H1041 C1029 0.929 . S
H1042 C1030 0.960 . S
H1043 C1030 0.962 . S
H1044 C1030 0.960 . S
H1045 C1031 0.961 . S
H1046 C1031 0.961 . S
H1047 C1031 0.961 . S
H1048 C1032 0.931 . S
H1049 C1037 0.930 . S
H1050 C1038 0.956 . S
H1051 C1038 0.961 . S
H1052 C1038 0.961 . S
H1053 C1039 0.958 . S
H1054 C1039 0.961 . S
H1055 C1039 0.960 . S
C1056 C1057 1.391 . S
C1056 C1058 1.394 . S
C1056 H1072 0.931 . S
C1057 C1056 1.391 . S
C1057 C1061 1.376 . S
C1058 C1056 1.394 . S
C1058 C1059 1.369 . S
C1058 C1062 1.531 . S
C1059 C1058 1.369 . S
C1059 C1060 1.410 . S
C1059 C1067 1.503 . S
C1060 C1059 1.410 . S
C1060 C1061 1.392 . S
C1060 C1063 1.511 . S
C1061 C1057 1.376 . S
C1061 C1060 1.392 . S
C1061 H1073 0.929 . S
C1062 C1058 1.531 . S
C1062 H1074 0.960 . S
C1062 H1075 0.962 . S
C1062 H1076 0.960 . S
C1063 C1060 1.511 . S
C1063 H1077 0.961 . S
C1063 H1078 0.961 . S
C1063 H1079 0.961 . S
C1064 C1065 1.370 . S
C1064 C1066 1.363 . S
C1064 H1080 0.931 . S
C1065 C1064 1.370 . S
C1065 C1069 1.408 . S
C1066 C1064 1.363 . S
C1066 C1067 1.370 . S
C1066 C1070 1.524 . S
C1067 C1059 1.503 . S
C1067 C1066 1.370 . S
C1067 C1068 1.403 . S
C1068 C1067 1.403 . S
C1068 C1069 1.404 . S
C1068 C1071 1.539 . S
C1069 C1065 1.408 . S
C1069 C1068 1.404 . S
C1069 H1081 0.930 . S
C1070 C1066 1.524 . S
C1070 H1082 0.956 . S
C1070 H1083 0.961 . S
C1070 H1084 0.961 . S
C1071 C1068 1.539 . S
C1071 H1085 0.958 . S
C1071 H1086 0.961 . S
C1071 H1087 0.960 . S
H1072 C1056 0.931 . S
H1073 C1061 0.929 . S
H1074 C1062 0.960 . S
H1075 C1062 0.962 . S
H1076 C1062 0.960 . S
H1077 C1063 0.961 . S
H1078 C1063 0.961 . S
H1079 C1063 0.961 . S
H1080 C1064 0.931 . S
H1081 C1069 0.930 . S
H1082 C1070 0.956 . S
H1083 C1070 0.961 . S
H1084 C1070 0.961 . S
H1085 C1071 0.958 . S
H1086 C1071 0.961 . S
H1087 C1071 0.960 . S
C1088 C1089 1.391 . S
C1088 C1090 1.394 . S
C1088 H1104 0.931 . S
C1089 C1088 1.391 . S
C1089 C1093 1.376 . S
C1090 C1088 1.394 . S
C1090 C1091 1.369 . S
C1090 C1094 1.531 . S
C1091 C1090 1.369 . S
C1091 C1092 1.410 . S
C1091 C1099 1.503 . S
C1092 C1091 1.410 . S
C1092 C1093 1.392 . S
C1092 C1095 1.511 . S
C1093 C1089 1.376 . S
C1093 C1092 1.392 . S
C1093 H1105 0.929 . S
C1094 C1090 1.531 . S
C1094 H1106 0.960 . S
C1094 H1107 0.962 . S
C1094 H1108 0.960 . S
C1095 C1092 1.511 . S
C1095 H1109 0.961 . S
C1095 H1110 0.961 . S
C1095 H1111 0.961 . S
C1096 C1097 1.370 . S
C1096 C1098 1.363 . S
C1096 H1112 0.931 . S
C1097 C1096 1.370 . S
C1097 C1101 1.408 . S
C1098 C1096 1.363 . S
C1098 C1099 1.370 . S
C1098 C1102 1.524 . S
C1099 C1091 1.503 . S
C1099 C1098 1.370 . S
C1099 C1100 1.403 . S
C1100 C1099 1.403 . S
C1100 C1101 1.404 . S
C1100 C1103 1.539 . S
C1101 C1097 1.408 . S
C1101 C1100 1.404 . S
C1101 H1113 0.930 . S
C1102 C1098 1.524 . S
C1102 H1114 0.956 . S
C1102 H1115 0.961 . S
C1102 H1116 0.961 . S
C1103 C1100 1.539 . S
C1103 H1117 0.958 . S
C1103 H1118 0.961 . S
C1103 H1119 0.960 . S
H1104 C1088 0.931 . S
H1105 C1093 0.929 . S
H1106 C1094 0.960 . S
H1107 C1094 0.962 . S
H1108 C1094 0.960 . S
H1109 C1095 0.961 . S
H1110 C1095 0.961 . S
H1111 C1095 0.961 . S
H1112 C1096 0.931 . S
H1113 C1101 0.930 . S
H1114 C1102 0.956 . S
H1115 C1102 0.961 . S
H1116 C1102 0.961 . S
H1117 C1103 0.958 . S
H1118 C1103 0.961 . S
H1119 C1103 0.960 . S
C1120 C1121 1.391 . S
C1120 C1122 1.394 . S
C1120 H1136 0.931 . S
C1121 C1120 1.391 . S
C1121 C1125 1.376 . S
C1122 C1120 1.394 . S
C1122 C1123 1.369 . S
C1122 C1126 1.531 . S
C1123 C1122 1.369 . S
C1123 C1124 1.410 . S
C1123 C1131 1.503 . S
C1124 C1123 1.410 . S
C1124 C1125 1.392 . S
C1124 C1127 1.511 . S
C1125 C1121 1.376 . S
C1125 C1124 1.392 . S
C1125 H1137 0.929 . S
C1126 C1122 1.531 . S
C1126 H1138 0.960 . S
C1126 H1139 0.962 . S
C1126 H1140 0.960 . S
C1127 C1124 1.511 . S
C1127 H1141 0.961 . S
C1127 H1142 0.961 . S
C1127 H1143 0.961 . S
C1128 C1129 1.370 . S
C1128 C1130 1.363 . S
C1128 H1144 0.931 . S
C1129 C1128 1.370 . S
C1129 C1133 1.408 . S
C1130 C1128 1.363 . S
C1130 C1131 1.370 . S
C1130 C1134 1.524 . S
C1131 C1123 1.503 . S
C1131 C1130 1.370 . S
C1131 C1132 1.403 . S
C1132 C1131 1.403 . S
C1132 C1133 1.404 . S
C1132 C1135 1.539 . S
C1133 C1129 1.408 . S
C1133 C1132 1.404 . S
C1133 H1145 0.930 . S
C1134 C1130 1.524 . S
C1134 H1146 0.956 . S
C1134 H1147 0.961 . S
C1134 H1148 0.961 . S
C1135 C1132 1.539 . S
C1135 H1149 0.958 . S
C1135 H1150 0.961 . S
C1135 H1151 0.960 . S
H1136 C1120 0.931 . S
H1137 C1125 0.929 . S
H1138 C1126 0.960 . S
H1139 C1126 0.962 . S
H1140 C1126 0.960 . S
H1141 C1127 0.961 . S
H1142 C1127 0.961 . S
H1143 C1127 0.961 . S
H1144 C1128 0.931 . S
H1145 C1133 0.930 . S
H1146 C1134 0.956 . S
H1147 C1134 0.961 . S
H1148 C1134 0.961 . S
H1149 C1135 0.958 . S
H1150 C1135 0.961 . S
H1151 C1135 0.960 . S
C1152 C1153 1.391 . S
C1152 C1154 1.394 . S
C1152 H1168 0.931 . S
C1153 C1152 1.391 . S
C1153 C1157 1.376 . S
C1154 C1152 1.394 . S
C1154 C1155 1.369 . S
C1154 C1158 1.531 . S
C1155 C1154 1.369 . S
C1155 C1156 1.410 . S
C1155 C1163 1.503 . S
C1156 C1155 1.410 . S
C1156 C1157 1.392 . S
C1156 C1159 1.511 . S
C1157 C1153 1.376 . S
C1157 C1156 1.392 . S
C1157 H1169 0.929 . S
C1158 C1154 1.531 . S
C1158 H1170 0.960 . S
C1158 H1171 0.962 . S
C1158 H1172 0.960 . S
C1159 C1156 1.511 . S
C1159 H1173 0.961 . S
C1159 H1174 0.961 . S
C1159 H1175 0.961 . S
C1160 C1161 1.370 . S
C1160 C1162 1.363 . S
C1160 H1176 0.931 . S
C1161 C1160 1.370 . S
C1161 C1165 1.408 . S
C1162 C1160 1.363 . S
C1162 C1163 1.370 . S
C1162 C1166 1.524 . S
C1163 C1155 1.503 . S
C1163 C1162 1.370 . S
C1163 C1164 1.403 . S
C1164 C1163 1.403 . S
C1164 C1165 1.404 . S
C1164 C1167 1.539 . S
C1165 C1161 1.408 . S
C1165 C1164 1.404 . S
C1165 H1177 0.930 . S
C1166 C1162 1.524 . S
C1166 H1178 0.956 . S
C1166 H1179 0.961 . S
C1166 H1180 0.961 . S
C1167 C1164 1.539 . S
C1167 H1181 0.958 . S
C1167 H1182 0.961 . S
C1167 H1183 0.960 . S
H1168 C1152 0.931 . S
H1169 C1157 0.929 . S
H1170 C1158 0.960 . S
H1171 C1158 0.962 . S
H1172 C1158 0.960 . S
H1173 C1159 0.961 . S
H1174 C1159 0.961 . S
H1175 C1159 0.961 . S
H1176 C1160 0.931 . S
H1177 C1165 0.930 . S
H1178 C1166 0.956 . S
H1179 C1166 0.961 . S
H1180 C1166 0.961 . S
H1181 C1167 0.958 . S
H1182 C1167 0.961 . S
H1183 C1167 0.960 . S
C417 C29 1.242 . S
C425 C263 1.225 . S
C449 C49 0.932 . S
C457 C312 0.935 . S
C489 C338 2.483 . S
C481 C93 2.462 . S
C513 C119 2.271 . S
C521 C386 2.288 . S
C553 C298 2.313 . S
C545 C17 2.296 . S
C585 C266 0.909 . S
C577 C61 0.902 . S
C617 C387 1.885 . S
C609 C81 1.898 . S
C649 C355 1.625 . S
C641 C125 1.626 . S
C673 C23 1.623 . S
C681 C383 1.633 . S
C713 C315 2.298 . S
C705 C87 2.312 . S
C737 C113 2.324 . S
C745 C267 2.355 . S
C769 C55 0.829 . S
C777 C352 0.898 . S
C809 C272 1.205 . S
C801 C157 1.143 . S
C833 C189 0.953 . S
C841 C303 0.992 . S
C865 C221 2.423 . S
C873 C347 2.444 . S
C897 C253 2.372 . S
C905 C395 2.361 . S
C929 C145 2.121 . S
C937 C307 2.395 . S
C969 C275 0.858 . S
C961 C183 0.814 . S
C1001 C378 1.926 . S
C993 C209 1.912 . S
C1033 C346 1.584 . S
C1025 C247 1.550 . S
C1057 C151 1.456 . S
C1065 C392 1.649 . S
C1097 C306 2.294 . S
C1089 C215 2.311 . S
C1129 C258 2.317 . S
C1121 C241 2.263 . S
C1153 C177 0.901 . S
C1161 C343 0.871 . S
