# Generated by pormake.
# Topology apo, (3,6)-cn, num edge types: 1
# Building blocks:
#     Node 0, Type 0, BuildingBlock: VETTIZ_charged_linker_0, # of connection points: 3
#     Node 1, Type 0, BuildingBlock: VETTIZ_charged_linker_0, # of connection points: 3
#     Node 2, Type 0, BuildingBlock: VETTIZ_charged_linker_0, # of connection points: 3
#     Node 3, Type 0, BuildingBlock: VETTIZ_charged_linker_0, # of connection points: 3
#     Node 4, Type 0, BuildingBlock: VETTIZ_charged_linker_0, # of connection points: 3
#     Node 5, Type 0, BuildingBlock: VETTIZ_charged_linker_0, # of connection points: 3
#     Node 6, Type 0, BuildingBlock: VETTIZ_charged_linker_0, # of connection points: 3
#     Node 7, Type 0, BuildingBlock: VETTIZ_charged_linker_0, # of connection points: 3
#     Node 8, Type 1, BuildingBlock: MIDCAF_clean_sbu_0, # of connection points: 6
#     Node 9, Type 1, BuildingBlock: MIDCAF_clean_sbu_0, # of connection points: 6
#     Node 10, Type 1, BuildingBlock: MIDCAF_clean_sbu_0, # of connection points: 6
#     Node 11, Type 1, BuildingBlock: MIDCAF_clean_sbu_0, # of connection points: 6
#     Edge 12, Type (0, 1), None
#     Edge 13, Type (0, 1), None
#     Edge 14, Type (0, 1), None
#     Edge 15, Type (0, 1), None
#     Edge 16, Type (0, 1), None
#     Edge 17, Type (0, 1), None
#     Edge 18, Type (0, 1), None
#     Edge 19, Type (0, 1), None
#     Edge 20, Type (0, 1), None
#     Edge 21, Type (0, 1), None
#     Edge 22, Type (0, 1), None
#     Edge 23, Type (0, 1), None
#     Edge 24, Type (0, 1), None
#     Edge 25, Type (0, 1), None
#     Edge 26, Type (0, 1), None
#     Edge 27, Type (0, 1), None
#     Edge 28, Type (0, 1), None
#     Edge 29, Type (0, 1), None
#     Edge 30, Type (0, 1), None
#     Edge 31, Type (0, 1), None
#     Edge 32, Type (0, 1), None
#     Edge 33, Type (0, 1), None
#     Edge 34, Type (0, 1), None
#     Edge 35, Type (0, 1), None
# Relax obj value: 0.090
# Max RMSD: 0.101
# Mean RMSD: 0.093
data_MOF--net-apo--node1-MIDCAF_clean_sbu_0--node2-VETTIZ_charged_linker_0--edge1-none
_symmetry_space_group_name_H-M    P1
_symmetry_Int_Tables_number       1
_symmetry_cell_setting            triclinic
loop_
_symmetry_equiv_pos_as_xyz
'x, y, z'
_cell_length_a     22.3588
_cell_length_b     27.066944
_cell_length_c     24.405106
_cell_angle_alpha  88.638546
_cell_angle_beta   90.412251
_cell_angle_gamma 90.465829
loop_
_atom_site_label
_atom_site_type_symbol
_atom_site_fract_x
_atom_site_fract_y
_atom_site_fract_z
_atom_type_partial_charge
C0 C 0.42627 0.29841 0.55764 0.0
C1 C 0.47062 0.32555 0.58532 0.0
C2 C 0.501 0.36381 0.55646 0.0
C3 C 0.44491 0.34747 0.47422 0.0
C4 C 0.41411 0.31022 0.502 0.0
C5 C 0.36814 0.2863 0.46555 0.0
H6 H 0.1902 0.30179 0.24203 0.0
C7 C 0.42026 0.35273 0.4182 0.0
C8 C 0.37497 0.31725 0.4126 0.0
H9 H 0.19656 0.18828 0.3699 0.0
H10 H 0.2857 0.2239 0.40641 0.0
H11 H 0.22915 0.39441 0.31415 0.0
H12 H 0.34428 0.29863 0.22311 0.0
H13 H 0.36299 0.36125 0.20984 0.0
H14 H 0.29042 0.33833 0.18982 0.0
H15 H 0.22823 0.39422 0.24052 0.0
H16 H 0.28262 0.42993 0.27768 0.0
C17 C 0.30617 0.29299 0.49214 0.0
C18 C 0.38591 0.23155 0.45799 0.0
C19 C 0.49139 0.49711 0.29948 0.0
C20 C 0.46445 0.5229 0.25563 0.0
C21 C 0.417 0.50012 0.22705 0.0
C22 C 0.39416 0.45371 0.24447 0.0
C23 C 0.41742 0.43085 0.29238 0.0
C24 C 0.46583 0.45252 0.3185 0.0
C25 C 0.47837 0.42896 0.37358 0.0
C26 C 0.43181 0.38786 0.37529 0.0
C27 C 0.39605 0.38868 0.32759 0.0
C28 C 0.46731 0.46819 0.4181 0.0
C29 C 0.54273 0.40831 0.37292 0.0
C30 C 0.2112 0.28459 0.27768 0.0
C31 C 0.18462 0.24305 0.30426 0.0
C32 C 0.21432 0.2211 0.34965 0.0
C33 C 0.26635 0.24188 0.37112 0.0
C34 C 0.28951 0.2854 0.34738 0.0
C35 C 0.26438 0.3048 0.29974 0.0
C36 C 0.29967 0.34918 0.27856 0.0
C37 C 0.34851 0.35346 0.32238 0.0
C38 C 0.34036 0.31674 0.36353 0.0
C39 C 0.25798 0.3945 0.27717 0.0
C40 C 0.32565 0.33663 0.22214 0.0
H41 H 0.51525 0.40314 0.4823 0.0
H42 H 0.40211 0.26876 0.5785 0.0
H43 H 0.43332 0.22459 0.46977 0.0
H44 H 0.38264 0.22067 0.41453 0.0
H45 H 0.35773 0.20611 0.48341 0.0
H46 H 0.29961 0.33226 0.503 0.0
H47 H 0.30231 0.27002 0.53031 0.0
H48 H 0.26847 0.28325 0.46511 0.0
H49 H 0.52572 0.51489 0.32388 0.0
H50 H 0.39453 0.52004 0.19395 0.0
H51 H 0.35654 0.43917 0.22238 0.0
H52 H 0.43893 0.49912 0.40253 0.0
H53 H 0.51 0.48469 0.43277 0.0
H54 H 0.44215 0.453 0.45367 0.0
H55 H 0.55161 0.38994 0.33351 0.0
H56 H 0.55068 0.37976 0.40519 0.0
H57 H 0.5763 0.43846 0.37743 0.0
H58 H 0.53342 0.38697 0.57649 0.0
C59 C 0.48938 0.37415 0.50133 0.0
C60 C 0.30018 0.22665 0.77408 0.0
C61 C 0.32941 0.26982 0.79165 0.0
C62 C 0.30237 0.29811 0.83234 0.0
C63 C 0.22647 0.23539 0.84625 0.0
C64 C 0.24833 0.21011 0.802 0.0
C65 C 0.21352 0.16275 0.79335 0.0
H66 H 0.04351 0.98126 0.91047 0.0
C67 C 0.18189 0.20394 0.87482 0.0
C68 C 0.17396 0.161 0.84404 0.0
H69 H 0.10534 0.98793 0.74336 0.0
H70 H 0.1443 0.07123 0.75681 0.0
H71 H 0.14806 0.0176 0.96318 0.0
H72 H 0.9933 0.09906 0.91076 0.0
H73 H 1.00967 0.11277 0.97956 0.0
H74 H 0.99465 0.05013 0.96173 0.0
H75 H 0.08677 0.02575 0.0087 0.0
H76 H 0.14855 0.06925 1.00529 0.0
C77 C 0.25739 0.11893 0.79265 0.0
C78 C 0.17615 0.16889 0.74002 0.0
C79 C 0.09971 0.24945 0.0628 0.0
C80 C 0.07123 0.22001 0.10346 0.0
C81 C 0.06699 0.16882 0.09714 0.0
C82 C 0.08444 0.14735 0.04872 0.0
C83 C 0.10804 0.17725 1.00636 0.0
C84 C 0.11936 0.22673 0.01478 0.0
C85 C 0.15465 0.24979 0.96782 0.0
C86 C 0.15678 0.20682 0.92821 0.0
C87 C 0.12747 0.16543 0.95091 0.0
C88 C 0.21763 0.26469 0.98957 0.0
C89 C 0.11897 0.29357 0.94293 0.0
C90 C 0.06422 1.00108 0.87634 0.0
C91 C 0.07177 0.97843 0.82613 0.0
C92 C 0.09881 0.00516 0.78246 0.0
C93 C 0.12184 0.05308 0.79048 0.0
C94 C 0.11717 0.07407 0.84249 0.0
C95 C 0.08667 0.04859 0.88348 0.0
C96 C 0.08397 0.07606 0.93568 0.0
C97 C 0.11683 0.12318 0.91926 0.0
C98 C 0.13783 0.12156 0.86526 0.0
C99 C 0.11816 0.04573 0.98076 0.0
C100 C 0.01707 0.08502 0.94813 0.0
H101 H 0.23394 0.30329 0.89171 0.0
H102 H 0.31989 0.20441 0.74277 0.0
H103 H 0.16362 0.20817 0.73232 0.0
H104 H 0.13307 0.14863 0.74215 0.0
H105 H 0.20155 0.15665 0.70389 0.0
H106 H 0.28776 0.1198 0.82892 0.0
H107 H 0.28528 0.12055 0.75516 0.0
H108 H 0.23445 0.08274 0.79397 0.0
H109 H 0.1057 0.28881 0.06796 0.0
H110 H 0.04842 0.14554 0.12931 0.0
H111 H 0.07757 0.10838 0.046 0.0
H112 H 0.22597 0.25078 0.03218 0.0
H113 H 0.22347 0.30548 0.98999 0.0
H114 H 0.25395 0.2489 0.96489 0.0
H115 H 0.07178 0.28236 0.93502 0.0
H116 H 0.13739 0.30675 0.90323 0.0
H117 H 0.11873 0.32503 0.97135 0.0
H118 H 0.32315 0.3321 0.84555 0.0
C119 C 0.25117 0.28118 0.85966 0.0
C120 C 0.91771 0.21423 0.44581 0.0
C121 C 0.96271 0.18774 0.41924 0.0
C122 C 0.98737 0.14591 0.44606 0.0
C123 C 0.92468 0.15738 0.5246 0.0
C124 C 0.89955 0.19835 0.4988 0.0
C125 C 0.85347 0.2218 0.53482 0.0
H126 H 0.67492 0.20468 0.75897 0.0
C127 C 0.89549 0.149 0.57801 0.0
C128 C 0.85345 0.1864 0.58465 0.0
H129 H 0.68898 0.32372 0.63808 0.0
H130 H 0.77017 0.28312 0.59501 0.0
H131 H 0.69105 0.11764 0.67944 0.0
H132 H 0.82771 0.19174 0.77362 0.0
H133 H 0.83367 0.12696 0.78264 0.0
H134 H 0.76697 0.15734 0.80423 0.0
H135 H 0.70026 0.10561 0.75165 0.0
H136 H 0.74327 0.07327 0.70165 0.0
C137 C 0.79283 0.22124 0.50397 0.0
C138 C 0.87592 0.27425 0.54957 0.0
C139 C 0.94856 0.99514 0.68912 0.0
C140 C 0.91904 0.96895 0.7311 0.0
C141 C 0.86964 0.99046 0.75662 0.0
C142 C 0.84951 0.0376 0.73974 0.0
C143 C 0.87776 0.06243 0.69551 0.0
C144 C 0.92611 0.0407 0.67082 0.0
C145 C 0.94456 0.06742 0.6191 0.0
C146 C 0.90117 0.11023 0.61785 0.0
C147 C 0.86278 0.10784 0.66317 0.0
C148 C 0.93437 0.032 0.57042 0.0
C149 C 1.01005 0.0853 0.62655 0.0
C150 C 0.69611 0.22225 0.72373 0.0
C151 C 0.67449 0.26729 0.70164 0.0
C152 C 0.70369 0.28887 0.65574 0.0
C153 C 0.751 0.26517 0.63041 0.0
C154 C 0.77011 0.21924 0.65102 0.0
C155 C 0.7444 0.19916 0.69803 0.0
C156 C 0.77291 0.15071 0.71472 0.0
C157 C 0.81975 0.1456 0.6702 0.0
C158 C 0.81664 0.18539 0.63212 0.0
C159 C 0.72461 0.10945 0.71224 0.0
C160 C 0.80175 0.15655 0.77198 0.0
H161 H 0.9911 0.09948 0.51624 0.0
H162 H 0.89816 0.24674 0.42644 0.0
H163 H 0.9253 0.27789 0.54545 0.0
H164 H 0.86704 0.28294 0.59287 0.0
H165 H 0.85534 0.30306 0.52246 0.0
H166 H 0.78349 0.18389 0.4877 0.0
H167 H 0.79327 0.24803 0.46876 0.0
H168 H 0.75466 0.23 0.53028 0.0
H169 H 0.98503 0.9784 0.66735 0.0
H170 H 0.84582 0.97026 0.78863 0.0
H171 H 0.81133 0.05202 0.76021 0.0
H172 H 0.90312 1.0011 0.5811 0.0
H173 H 0.97696 0.01519 0.55736 0.0
H174 H 0.91289 0.0506 0.53458 0.0
H175 H 0.01714 0.10023 0.66822 0.0
H176 H 0.02241 0.11576 0.59779 0.0
H177 H 0.04179 0.05437 0.62164 0.0
H178 H 0.02042 0.12372 0.42628 0.0
C179 C 0.96937 0.13111 0.4984 0.0
C180 C 0.81427 0.28774 0.22591 0.0
C181 C 0.83835 0.24252 0.20956 0.0
C182 C 0.80844 0.21557 0.16881 0.0
C183 C 0.73818 0.28199 0.15429 0.0
C184 C 0.76403 0.30693 0.19749 0.0
C185 C 0.73561 0.35688 0.20451 0.0
H186 H 0.56295 0.53942 0.09219 0.0
C187 C 0.69449 0.31483 0.12652 0.0
C188 C 0.69255 0.35904 0.1558 0.0
H189 H 0.65636 0.54289 0.24715 0.0
H190 H 0.68688 0.45725 0.23679 0.0
H191 H 0.64682 0.4987 0.02724 0.0
H192 H 0.51015 0.41482 0.11246 0.0
H193 H 0.50821 0.40483 0.04095 0.0
H194 H 0.49855 0.46588 0.06599 0.0
H195 H 0.57768 0.484 0.99399 0.0
H196 H 0.64112 0.44307 0.99209 0.0
C197 C 0.7848 0.39725 0.20018 0.0
C198 C 0.70197 0.35591 0.25965 0.0
C199 C 0.59601 0.26435 0.94541 0.0
C200 C 0.56224 0.29173 0.90651 0.0
C201 C 0.55225 0.34196 0.91496 0.0
C202 C 0.57125 0.36436 0.96282 0.0
C203 C 0.60308 0.33679 1.00247 0.0
C204 C 0.61687 0.28806 0.9929 0.0
C205 C 0.657 0.26685 0.03753 0.0
C206 C 0.66256 0.31043 0.07605 0.0
C207 C 0.6299 0.35068 0.05537 0.0
C208 C 0.71771 0.25345 0.01138 0.0
C209 C 0.62408 0.22259 0.06534 0.0
C210 C 0.58929 0.52144 0.12427 0.0
C211 C 0.60803 0.54757 0.16998 0.0
C212 C 0.64168 0.52311 0.21134 0.0
C213 C 0.65951 0.47365 0.20506 0.0
C214 C 0.64284 0.44862 0.15721 0.0
C215 C 0.60657 0.47235 0.11897 0.0
C216 C 0.59182 0.44109 0.07104 0.0
C217 C 0.62637 0.39471 0.08543 0.0
C218 C 0.65632 0.39882 0.136 0.0
C219 C 0.61518 0.46796 0.01826 0.0
C220 C 0.52358 0.43105 0.07202 0.0
H221 H 0.73912 0.21328 0.10945 0.0
H222 H 0.83674 0.30933 0.2568 0.0
H223 H 0.68032 0.31927 0.26739 0.0
H224 H 0.66515 0.38281 0.26034 0.0
H225 H 0.7331 0.36295 0.29434 0.0
H226 H 0.81455 0.39037 0.16487 0.0
H227 H 0.81286 0.39758 0.23792 0.0
H228 H 0.7667 0.43461 0.19314 0.0
H229 H 0.60578 0.22579 0.93909 0.0
H230 H 0.52935 0.36401 0.88431 0.0
H231 H 0.56015 0.40237 0.96663 0.0
H232 H 0.7254 0.27437 0.97223 0.0
H233 H 0.71976 0.2135 1.00222 0.0
H234 H 0.75644 0.26333 0.03747 0.0
H235 H 0.57651 0.23189 0.07289 0.0
H236 H 0.64316 0.21235 0.10586 0.0
H237 H 0.62469 0.18971 0.03895 0.0
H238 H 0.8259 0.18048 0.15595 0.0
C239 C 0.75845 0.23486 0.1414 0.0
C240 C 0.58291 0.5156 0.76016 0.0
C241 C 0.53592 0.48852 0.73604 0.0
C242 C 0.49303 0.51392 0.70402 0.0
C243 C 0.55799 0.58521 0.70109 0.0
C244 C 0.5927 0.56484 0.74251 0.0
C245 C 0.64497 0.59828 0.75608 0.0
H246 H 0.83538 0.77658 0.66472 0.0
C247 C 0.59133 0.62673 0.67572 0.0
C248 C 0.64105 0.63657 0.7093 0.0
H249 H 0.84354 0.699 0.82136 0.0
H250 H 0.7478 0.65916 0.80114 0.0
H251 H 0.80632 0.68306 0.60272 0.0
H252 H 0.6876 0.79773 0.65432 0.0
H253 H 0.67479 0.78481 0.58437 0.0
H254 H 0.74677 0.80788 0.60576 0.0
H255 H 0.80173 0.74135 0.56649 0.0
H256 H 0.75173 0.69076 0.55155 0.0
C257 C 0.70357 0.56829 0.75467 0.0
C258 C 0.63241 0.62147 0.81209 0.0
C259 C 0.55963 0.6545 0.47208 0.0
C260 C 0.59044 0.68073 0.43043 0.0
C261 C 0.63648 0.71363 0.44577 0.0
C262 C 0.65331 0.71766 0.50167 0.0
C263 C 0.62386 0.68839 0.5423 0.0
C264 C 0.57695 0.65838 0.52676 0.0
C265 C 0.55013 0.62913 0.57365 0.0
C266 C 0.58943 0.64582 0.62094 0.0
C267 C 0.63323 0.67974 0.60242 0.0
C268 C 0.5583 0.5736 0.56131 0.0
C269 C 0.48381 0.6444 0.58027 0.0
C270 C 0.81611 0.75177 0.69547 0.0
C271 C 0.84703 0.74076 0.74476 0.0
C272 C 0.82037 0.70833 0.78343 0.0
C273 C 0.76512 0.68512 0.77128 0.0
C274 C 0.73726 0.69401 0.71976 0.0
C275 C 0.76266 0.72761 0.68331 0.0
C276 C 0.73113 0.72967 0.62858 0.0
C277 C 0.67962 0.69427 0.63903 0.0
C278 C 0.68361 0.67296 0.69229 0.0
C279 C 0.77468 0.71061 0.5847 0.0
C280 C 0.70899 0.78288 0.6172 0.0
H281 H 0.47233 0.57961 0.65882 0.0
H282 H 0.61578 0.49687 0.78578 0.0
H283 H 0.58396 0.62938 0.81656 0.0
H284 H 0.65486 0.65759 0.81685 0.0
H285 H 0.64577 0.59615 0.84644 0.0
H286 H 0.70448 0.54514 0.71763 0.0
H287 H 0.70758 0.54347 0.79138 0.0
H288 H 0.74402 0.59171 0.75268 0.0
H289 H 0.52225 0.63046 0.46239 0.0
H290 H 0.66012 0.73519 0.41475 0.0
H291 H 0.6892 0.74273 0.51122 0.0
H292 H 0.60628 0.5654 0.55431 0.0
H293 H 0.53272 0.56324 0.52407 0.0
H294 H 0.54295 0.54839 0.59424 0.0
H295 H 0.47203 0.67738 0.55446 0.0
H296 H 0.47398 0.65495 0.62294 0.0
H297 H 0.45276 0.61417 0.56841 0.0
H298 H 0.45618 0.49393 0.68551 0.0
C299 C 0.50349 0.56289 0.687 0.0
C300 C 0.71727 0.79266 0.23179 0.0
C301 C 0.69117 0.74768 0.21524 0.0
C302 C 0.72026 0.72016 0.17522 0.0
C303 C 0.79501 0.78433 0.16312 0.0
C304 C 0.76972 0.81014 0.20527 0.0
C305 C 0.80279 0.85837 0.21432 0.0
H306 H 1.00635 0.02742 0.1175 0.0
C307 C 0.84563 0.81329 0.14044 0.0
C308 C 0.85202 0.85641 0.17124 0.0
H309 H 0.88655 0.04383 0.25312 0.0
H310 H 0.85581 0.95759 0.247 0.0
H311 H 0.06091 0.9362 0.1482 0.0
H312 H 0.91493 0.95823 0.03784 0.0
H313 H 0.9752 0.92476 0.00937 0.0
H314 H 0.98917 0.98427 0.03564 0.0
H315 H 0.07169 0.93083 0.07656 0.0
H316 H 0.05241 0.8773 0.1188 0.0
C317 C 0.82883 0.85737 0.27314 0.0
C318 C 0.75875 0.90116 0.20263 0.0
C319 C 0.93906 0.76801 0.95707 0.0
C320 C 0.99214 0.78477 0.93158 0.0
C321 C 0.03033 0.81723 0.96012 0.0
C322 C 0.01388 0.83632 0.01023 0.0
C323 C 0.9587 0.82306 0.0327 0.0
C324 C 0.92455 0.78646 0.00905 0.0
C325 C 0.87555 0.76902 0.04744 0.0
C326 C 0.88254 0.80567 0.09415 0.0
C327 C 0.92989 0.83847 0.08334 0.0
C328 C 0.88935 0.71509 0.06647 0.0
C329 C 0.81477 0.77464 0.01753 0.0
C330 C 0.97398 0.01205 0.14616 0.0
C331 C 0.94909 0.04188 0.18591 0.0
C332 C 0.90696 0.02106 0.22262 0.0
C333 C 0.88853 0.97131 0.21838 0.0
C334 C 0.9116 0.94247 0.17624 0.0
C335 C 0.95486 0.96282 0.14203 0.0
C336 C 0.97626 0.92721 0.10045 0.0
C337 C 0.93659 0.88243 0.11352 0.0
C338 C 0.89791 0.89163 0.15741 0.0
C339 C 0.04369 0.91724 0.1113 0.0
C340 C 0.96326 0.94958 0.04261 0.0
H341 H 0.79012 0.71618 0.11775 0.0
H342 H 0.69551 0.81498 0.2619 0.0
H343 H 0.73188 0.89406 0.16504 0.0
H344 H 0.78126 0.93694 0.19488 0.0
H345 H 0.72722 0.90515 0.2372 0.0
H346 H 0.84753 0.82035 0.28367 0.0
H347 H 0.7937 0.86536 0.30358 0.0
H348 H 0.86633 0.88368 0.27821 0.0
H349 H 0.91038 0.74116 0.93748 0.0
H350 H 0.07247 0.82951 0.94271 0.0
H351 H 0.04435 0.86117 0.02948 0.0
H352 H 0.93505 0.70342 0.05485 0.0
H353 H 0.85748 0.68837 0.04809 0.0
H354 H 0.8881 0.71058 0.11177 0.0
H355 H 0.80973 0.81292 1.00063 0.0
H356 H 0.77643 0.76735 0.04487 0.0
H357 H 0.81131 0.74876 0.98297 0.0
H358 H 0.70148 0.68538 0.16211 0.0
C359 C 0.77171 0.73813 0.14921 0.0
C360 C 0.10485 0.99963 0.26945 0.0
C361 C 0.05435 0.02539 0.28784 0.0
C362 C 1.00914 0.99893 0.31578 0.0
C363 C 0.07421 0.92852 0.32423 0.0
C364 C 0.11325 0.95021 0.28724 0.0
C365 C 0.16615 0.91688 0.27742 0.0
H366 H 0.34038 0.73483 0.38826 0.0
C367 C 0.10453 0.8864 0.35135 0.0
C368 C 0.15803 0.87796 0.32313 0.0
H369 H 0.36206 0.80069 0.22633 0.0
H370 H 0.27356 0.85123 0.24101 0.0
H371 H 0.3121 0.83023 0.44722 0.0
H372 H 0.2023 0.71512 0.3809 0.0
H373 H 0.17356 0.72879 0.44578 0.0
H374 H 0.24923 0.70734 0.44047 0.0
H375 H 0.29729 0.77404 0.48513 0.0
H376 H 0.24931 0.82713 0.48971 0.0
C377 C 0.22519 0.9463 0.28316 0.0
C378 C 0.15747 0.89427 0.22045 0.0
C379 C 0.04343 0.84339 0.54593 0.0
C380 C 0.07154 0.81804 0.59007 0.0
C381 C 0.12296 0.79033 0.57981 0.0
C382 C 0.14734 0.7903 0.52662 0.0
C383 C 0.12031 0.81879 0.48389 0.0
C384 C 0.06883 0.84426 0.49419 0.0
C385 C 0.04802 0.87592 0.44638 0.0
C386 C 0.09546 0.86469 0.40432 0.0
C387 C 0.13757 0.83169 0.42669 0.0
C388 C 0.05067 0.9304 0.46487 0.0
C389 C 0.98479 0.85838 0.42835 0.0
C390 C 0.32672 0.75988 0.3553 0.0
C391 C 0.35856 0.76365 0.30601 0.0
C392 C 0.3382 0.7969 0.26468 0.0
C393 C 0.28667 0.82581 0.27314 0.0
C394 C 0.25522 0.82073 0.32302 0.0
C395 C 0.27581 0.78769 0.3626 0.0
C396 C 0.23803 0.78506 0.41282 0.0
C397 C 0.18861 0.81976 0.39614 0.0
C398 C 0.19893 0.84194 0.34419 0.0
C399 C 0.27582 0.80475 0.4615 0.0
C400 C 0.21463 0.73129 0.42097 0.0
H401 H 0.98471 0.93267 0.3583 0.0
H402 H 0.13979 0.0192 0.2472 0.0
H403 H 0.11049 0.88137 0.21497 0.0
H404 H 0.18503 0.86134 0.2146 0.0
H405 H 0.1676 0.92199 0.18742 0.0
H406 H 0.22572 0.96683 0.3221 0.0
H407 H 0.2306 0.97337 0.2486 0.0
H408 H 0.26477 0.92228 0.28386 0.0
H409 H 1.00286 0.86419 0.55163 0.0
H410 H 0.14499 0.77001 0.61285 0.0
H411 H 0.1871 0.76909 0.52116 0.0
H412 H 0.09565 0.93928 0.48195 0.0
H413 H 0.01709 0.93701 0.49716 0.0
H414 H 0.04214 0.95777 0.43198 0.0
H415 H 0.97371 0.82089 0.4452 0.0
H416 H 0.98112 0.85505 0.38323 0.0
H417 H 0.94965 0.88385 0.44242 0.0
H418 H 0.97001 0.01791 0.33025 0.0
C419 C 0.0185 0.95006 0.33341 0.0
C420 C 0.21594 0.72168 0.77637 0.0
C421 C 0.19486 0.76871 0.79074 0.0
C422 C 0.21699 0.78967 0.83958 0.0
C423 C 0.27914 0.71897 0.85868 0.0
C424 C 0.25888 0.69776 0.81077 0.0
C425 C 0.28846 0.64834 0.80254 0.0
H426 H 0.48039 0.47208 0.90332 0.0
C427 C 0.32209 0.68548 0.88645 0.0
C428 C 0.32849 0.64381 0.85351 0.0
H429 H 0.37219 0.46307 0.75718 0.0
H430 H 0.33646 0.5469 0.77016 0.0
H431 H 0.51978 0.59501 0.89125 0.0
H432 H 0.38757 0.50269 0.97018 0.0
H433 H 0.3921 0.55472 0.01137 0.0
H434 H 0.45711 0.51645 1.00324 0.0
H435 H 0.53474 0.54836 0.9427 0.0
H436 H 0.51643 0.61026 0.961 0.0
C437 C 0.32542 0.65179 0.74934 0.0
C438 C 0.23931 0.60792 0.802 0.0
C439 C 0.41629 0.731 0.07164 0.0
C440 C 0.45458 0.70442 0.1076 0.0
C441 C 0.47055 0.65612 0.09476 0.0
C442 C 0.45274 0.63531 0.04555 0.0
C443 C 0.41636 0.66235 0.00882 0.0
C444 C 0.397 0.70875 0.02265 0.0
C445 C 0.35495 0.72994 0.97947 0.0
C446 C 0.35366 0.68891 0.93737 0.0
C447 C 0.39071 0.65017 0.95473 0.0
C448 C 0.38346 0.77814 0.95576 0.0
C449 C 0.29312 0.73685 1.0065 0.0
C450 C 0.45075 0.48893 0.87299 0.0
C451 C 0.43029 0.46191 0.82857 0.0
C452 C 0.38964 0.48401 0.79111 0.0
C453 C 0.36838 0.53229 0.7992 0.0
C454 C 0.38708 0.55804 0.84594 0.0
C455 C 0.42827 0.53612 0.88124 0.0
C456 C 0.43912 0.56516 0.9316 0.0
C457 C 0.39902 0.60899 0.92094 0.0
C458 C 0.36847 0.60539 0.87053 0.0
C459 C 0.50603 0.58047 0.9323 0.0
C460 C 0.41828 0.5333 0.98188 0.0
H461 H 0.27245 0.7837 0.90952 0.0
H462 H 0.20019 0.70446 0.73931 0.0
H463 H 0.20585 0.61427 0.83456 0.0
H464 H 0.25698 0.57059 0.81056 0.0
H465 H 0.21531 0.60801 0.76197 0.0
H466 H 0.35155 0.68694 0.74745 0.0
H467 H 0.29577 0.65091 0.71265 0.0
H468 H 0.35851 0.62197 0.74657 0.0
H469 H 0.40254 0.76812 0.08094 0.0
H470 H 0.49768 0.63449 0.12275 0.0
H471 H 0.46888 0.59904 0.03812 0.0
H472 H 0.43284 0.77443 0.95255 0.0
H473 H 0.37451 0.80992 0.98241 0.0
H474 H 0.36816 0.78728 0.91364 0.0
H475 H 0.28468 0.70767 0.03848 0.0
H476 H 0.2554 0.73318 0.97738 0.0
H477 H 0.29045 0.77317 0.02655 0.0
H478 H 0.20163 0.82531 0.85277 0.0
C479 C 0.25833 0.76529 0.87322 0.0
Zn480 Zn 0.10673 0.14895 0.38659 0.0
Zn481 Zn 0.93144 0.18918 0.10892 0.0
Zn482 Zn 1.00939 0.19315 0.25567 0.0
C483 C 0.04078 0.24109 0.15044 0.0
C484 C 0.95833 0.09585 0.18155 0.0
O485 O 0.95502 0.21854 0.32494 0.0
O486 O 0.03981 0.19068 0.35262 0.0
C487 C 0.1243 0.22411 0.28947 0.0
O488 O 0.06599 0.23602 0.19723 0.0
O489 O 0.98426 0.23799 0.15152 0.0
O490 O 0.93817 0.11708 0.13773 0.0
O491 O 0.98386 0.1194 0.22132 0.0
O492 O 0.09676 0.19382 0.32055 0.0
O493 O 0.09508 0.23679 0.24655 0.0
O494 O 0.03132 0.11168 0.27133 0.0
O495 O 0.09072 0.08704 0.3434 0.0
C496 C 0.06028 0.07816 0.29992 0.0
O497 O 0.92293 0.22967 0.27245 0.0
O498 O 0.93404 0.21183 0.18799 0.0
C499 C 0.98701 0.20248 0.36485 0.0
C500 C 0.89985 0.22754 0.22467 0.0
Zn501 Zn 0.60684 0.37566 0.63473 0.0
Zn502 Zn 0.41844 0.31136 0.8973 0.0
Zn503 Zn 0.50194 0.31763 0.75359 0.0
C504 C 0.44089 0.4083 0.8297 0.0
C505 C 0.39306 0.28009 0.77916 0.0
O506 O 0.58746 0.27399 0.76146 0.0
O507 O 0.59503 0.32577 0.69518 0.0
C508 C 0.54755 0.43744 0.72099 0.0
O509 O 0.47073 0.38807 0.79073 0.0
O510 O 0.41998 0.38427 0.87134 0.0
O511 O 0.42817 0.29083 0.81805 0.0
O512 O 0.41615 0.28109 0.73155 0.0
O513 O 0.58201 0.43345 0.67958 0.0
O514 O 0.51974 0.40048 0.74497 0.0
O515 O 0.45416 0.29448 0.67907 0.0
O516 O 0.53717 0.33186 0.66114 0.0
C517 C 0.48785 0.31538 0.64329 0.0
O518 O 0.56006 0.27548 0.81219 0.0
O519 O 0.47752 0.26909 0.85492 0.0
C520 C 0.61855 0.29007 0.7212 0.0
C521 C 0.53415 0.26926 0.85821 0.0
Zn522 Zn 0.09046 0.83551 0.82885 0.0
Zn523 Zn 0.94842 0.83312 0.70145 0.0
Zn524 Zn 0.01633 0.82551 0.76334 0.0
C525 C 0.93424 0.91671 0.74062 0.0
C526 C 0.91003 0.75783 0.74798 0.0
O527 O 0.09807 0.77952 0.74867 0.0
O528 O 0.15071 0.84354 0.76684 0.0
C529 C 0.06119 0.92498 0.82356 0.0
O530 O 0.98944 0.90333 0.74494 0.0
O531 O 0.89422 0.88393 0.73461 0.0
O532 O 0.93662 0.75996 0.70284 0.0
O533 O 0.93048 0.78551 0.78605 0.0
O534 O 0.07467 0.89817 0.86472 0.0
O535 O 0.04143 0.90476 0.77953 0.0
O536 O 0.9754 0.79252 0.83617 0.0
O537 O 0.06381 0.77065 0.86528 0.0
C538 C 1.00827 0.77366 0.87438 0.0
O539 O 0.05569 0.79592 0.68732 0.0
O540 O 1.00725 0.85763 0.64896 0.0
C541 C 0.14995 0.79802 0.75815 0.0
C542 C 0.04592 0.82431 0.64521 0.0
Zn543 Zn 0.60455 0.70094 0.11061 0.0
Zn544 Zn 0.47149 0.65024 0.31881 0.0
Zn545 Zn 0.52713 0.68292 0.2569 0.0
C546 C 0.57129 0.67174 0.37286 0.0
C547 C 0.46933 0.5772 0.25579 0.0
O548 O 0.45902 0.7191 0.20318 0.0
O549 O 0.53926 0.73065 0.15797 0.0
C550 C 0.62873 0.73346 0.22881 0.0
O551 O 0.57148 0.70507 0.3344 0.0
O552 O 0.5421 0.63229 0.36487 0.0
O553 O 0.42623 0.59956 0.2766 0.0
O554 O 0.51973 0.60034 0.25106 0.0
O555 O 0.59363 0.72119 0.19039 0.0
O556 O 0.60859 0.72644 0.27709 0.0
O557 O 0.56762 0.61929 0.21133 0.0
O558 O 0.61313 0.62678 0.12844 0.0
C559 C 0.59685 0.60109 0.17067 0.0
O560 O 0.43835 0.72324 0.25545 0.0
O561 O 0.42794 0.70748 0.34315 0.0
C562 C 0.48272 0.72656 0.15625 0.0
C563 C 0.41151 0.73145 0.30092 0.0
loop_
_geom_bond_atom_site_label_1
_geom_bond_atom_site_label_2
_geom_bond_distance
_geom_bond_site_symmetry_2
_ccdc_geom_bond_type
C0 C1 1.391 . S
C0 C4 1.391 . S
C0 H42 0.948 . S
C1 C0 1.391 . S
C1 C2 1.391 . S
C2 C1 1.391 . S
C2 H58 0.947 . S
C2 C59 1.392 . S
C3 C4 1.391 . S
C3 C7 1.397 . S
C3 C59 1.419 . S
C4 C0 1.391 . S
C4 C3 1.391 . S
C4 C5 1.399 . S
C5 C4 1.399 . S
C5 C8 1.396 . S
C5 C17 1.453 . S
C5 C18 1.684 . S
H6 C30 0.948 . S
C7 C3 1.397 . S
C7 C8 1.394 . S
C7 C26 1.723 . S
C8 C5 1.396 . S
C8 C7 1.394 . S
C8 C38 1.723 . S
H9 C32 0.947 . S
H10 C33 0.948 . S
H11 C39 0.982 . S
H12 C40 0.979 . S
H13 C40 0.980 . S
H14 C40 0.983 . S
H15 C39 0.979 . S
H16 C39 0.977 . S
C17 C5 1.453 . S
C17 H46 0.982 . S
C17 H47 0.979 . S
C17 H48 0.977 . S
C18 C5 1.684 . S
C18 H43 0.979 . S
C18 H44 0.980 . S
C18 H45 0.983 . S
C19 C20 1.391 . S
C19 C24 1.391 . S
C19 H49 0.948 . S
C20 C19 1.391 . S
C20 C21 1.391 . S
C21 C20 1.391 . S
C21 C22 1.392 . S
C21 H50 0.947 . S
C22 C21 1.392 . S
C22 C23 1.419 . S
C22 H51 0.948 . S
C23 C22 1.419 . S
C23 C24 1.391 . S
C23 C27 1.397 . S
C24 C19 1.391 . S
C24 C23 1.391 . S
C24 C25 1.399 . S
C25 C24 1.399 . S
C25 C26 1.396 . S
C25 C28 1.453 . S
C25 C29 1.684 . S
C26 C7 1.723 . S
C26 C25 1.396 . S
C26 C27 1.394 . S
C27 C23 1.397 . S
C27 C26 1.394 . S
C27 C37 1.723 . S
C28 C25 1.453 . S
C28 H52 0.982 . S
C28 H53 0.979 . S
C28 H54 0.977 . S
C29 C25 1.684 . S
C29 H55 0.979 . S
C29 H56 0.980 . S
C29 H57 0.983 . S
C30 H6 0.948 . S
C30 C31 1.391 . S
C30 C35 1.391 . S
C31 C30 1.391 . S
C31 C32 1.391 . S
C32 H9 0.947 . S
C32 C31 1.391 . S
C32 C33 1.392 . S
C33 H10 0.948 . S
C33 C32 1.392 . S
C33 C34 1.419 . S
C34 C33 1.419 . S
C34 C35 1.391 . S
C34 C38 1.397 . S
C35 C30 1.391 . S
C35 C34 1.391 . S
C35 C36 1.399 . S
C36 C35 1.399 . S
C36 C37 1.396 . S
C36 C39 1.453 . S
C36 C40 1.684 . S
C37 C27 1.723 . S
C37 C36 1.396 . S
C37 C38 1.394 . S
C38 C8 1.723 . S
C38 C34 1.397 . S
C38 C37 1.394 . S
C39 H11 0.982 . S
C39 H15 0.979 . S
C39 H16 0.977 . S
C39 C36 1.453 . S
C40 H12 0.979 . S
C40 H13 0.980 . S
C40 H14 0.983 . S
C40 C36 1.684 . S
H41 C59 0.948 . S
H42 C0 0.948 . S
H43 C18 0.979 . S
H44 C18 0.980 . S
H45 C18 0.983 . S
H46 C17 0.982 . S
H47 C17 0.979 . S
H48 C17 0.977 . S
H49 C19 0.948 . S
H50 C21 0.947 . S
H51 C22 0.948 . S
H52 C28 0.982 . S
H53 C28 0.979 . S
H54 C28 0.977 . S
H55 C29 0.979 . S
H56 C29 0.980 . S
H57 C29 0.983 . S
H58 C2 0.947 . S
C59 C2 1.392 . S
C59 C3 1.419 . S
C59 H41 0.948 . S
C60 C61 1.391 . S
C60 C64 1.391 . S
C60 H102 0.948 . S
C61 C60 1.391 . S
C61 C62 1.391 . S
C62 C61 1.391 . S
C62 H118 0.947 . S
C62 C119 1.392 . S
C63 C64 1.391 . S
C63 C67 1.397 . S
C63 C119 1.419 . S
C64 C60 1.391 . S
C64 C63 1.391 . S
C64 C65 1.399 . S
C65 C64 1.399 . S
C65 C68 1.396 . S
C65 C77 1.453 . S
C65 C78 1.684 . S
H66 C90 0.948 1_565 S
C67 C63 1.397 . S
C67 C68 1.394 . S
C67 C86 1.723 . S
C68 C65 1.396 . S
C68 C67 1.394 . S
C68 C98 1.723 . S
H69 C92 0.947 . S
H70 C93 0.948 . S
H71 C99 0.982 . S
H72 C100 0.979 1_655 S
H73 C100 0.980 . S
H74 C100 0.983 1_655 S
H75 C99 0.979 . S
H76 C99 0.977 . S
C77 C65 1.453 . S
C77 H106 0.982 . S
C77 H107 0.979 . S
C77 H108 0.977 . S
C78 C65 1.684 . S
C78 H103 0.979 . S
C78 H104 0.980 . S
C78 H105 0.983 . S
C79 C80 1.391 . S
C79 C84 1.391 . S
C79 H109 0.948 . S
C80 C79 1.391 . S
C80 C81 1.391 . S
C81 C80 1.391 . S
C81 C82 1.392 . S
C81 H110 0.947 . S
C82 C81 1.392 . S
C82 C83 1.419 1_554 S
C82 H111 0.937 1_554 S
C83 C82 1.419 1_556 S
C83 C84 1.391 1_556 S
C83 C87 1.397 . S
C84 C79 1.391 . S
C84 C83 1.391 1_554 S
C84 C85 1.399 1_554 S
C85 C84 1.399 1_556 S
C85 C86 1.396 . S
C85 C88 1.453 1_556 S
C85 C89 1.684 . S
C86 C67 1.723 . S
C86 C85 1.396 . S
C86 C87 1.394 . S
C87 C83 1.397 . S
C87 C86 1.394 . S
C87 C97 1.723 . S
C88 C85 1.453 1_554 S
C88 H112 0.982 . S
C88 H113 0.979 . S
C88 H114 0.977 1_554 S
C89 C85 1.684 . S
C89 H115 0.979 . S
C89 H116 0.980 . S
C89 H117 0.983 1_556 S
C90 H66 0.948 1_545 S
C90 C91 1.391 . S
C90 C95 1.391 . S
C91 C90 1.391 . S
C91 C92 1.390 . S
C92 H69 0.947 . S
C92 C91 1.390 . S
C92 C93 1.392 . S
C93 H70 0.948 . S
C93 C92 1.392 . S
C93 C94 1.419 . S
C94 C93 1.419 . S
C94 C95 1.391 . S
C94 C98 1.397 . S
C95 C90 1.391 . S
C95 C94 1.391 . S
C95 C96 1.399 . S
C96 C95 1.399 . S
C96 C97 1.396 . S
C96 C99 1.453 . S
C96 C100 1.684 . S
C97 C87 1.723 . S
C97 C96 1.396 . S
C97 C98 1.394 . S
C98 C68 1.723 . S
C98 C94 1.397 . S
C98 C97 1.394 . S
C99 H71 0.982 . S
C99 H75 0.979 . S
C99 H76 0.977 . S
C99 C96 1.453 . S
C100 H72 0.979 1_455 S
C100 H73 0.980 . S
C100 H74 0.983 1_455 S
C100 C96 1.684 . S
H101 C119 0.948 . S
H102 C60 0.948 . S
H103 C78 0.979 . S
H104 C78 0.980 . S
H105 C78 0.983 . S
H106 C77 0.982 . S
H107 C77 0.979 . S
H108 C77 0.977 . S
H109 C79 0.948 . S
H110 C81 0.947 . S
H111 C82 0.937 1_556 S
H112 C88 0.982 . S
H113 C88 0.979 . S
H114 C88 0.977 1_556 S
H115 C89 0.979 . S
H116 C89 0.980 . S
H117 C89 0.983 1_554 S
H118 C62 0.947 . S
C119 C62 1.392 . S
C119 C63 1.419 . S
C119 H101 0.948 . S
C120 C121 1.391 . S
C120 C124 1.391 . S
C120 H162 0.948 . S
C121 C120 1.391 . S
C121 C122 1.391 . S
C122 C121 1.391 . S
C122 H178 0.947 . S
C122 C179 1.392 . S
C123 C124 1.391 . S
C123 C127 1.397 . S
C123 C179 1.419 . S
C124 C120 1.391 . S
C124 C123 1.391 . S
C124 C125 1.399 . S
C125 C124 1.399 . S
C125 C128 1.396 . S
C125 C137 1.453 . S
C125 C138 1.684 . S
H126 C150 0.948 . S
C127 C123 1.397 . S
C127 C128 1.394 . S
C127 C146 1.723 . S
C128 C125 1.396 . S
C128 C127 1.394 . S
C128 C158 1.723 . S
H129 C152 0.947 . S
H130 C153 0.948 . S
H131 C159 0.982 . S
H132 C160 0.979 . S
H133 C160 0.980 . S
H134 C160 0.983 . S
H135 C159 0.979 . S
H136 C159 0.977 . S
C137 C125 1.453 . S
C137 H166 0.982 . S
C137 H167 0.979 . S
C137 H168 0.977 . S
C138 C125 1.684 . S
C138 H163 0.979 . S
C138 H164 0.980 . S
C138 H165 0.983 . S
C139 C140 1.391 1_545 S
C139 C144 1.391 . S
C139 H169 0.948 1_545 S
C140 C139 1.391 1_565 S
C140 C141 1.391 1_565 S
C141 C140 1.391 1_545 S
C141 C142 1.392 . S
C141 H170 0.947 . S
C142 C141 1.392 . S
C142 C143 1.419 . S
C142 H171 0.948 . S
C143 C142 1.419 . S
C143 C144 1.391 . S
C143 C147 1.397 . S
C144 C139 1.391 . S
C144 C143 1.391 . S
C144 C145 1.399 . S
C145 C144 1.399 . S
C145 C146 1.396 . S
C145 C148 1.453 . S
C145 C149 1.684 . S
C146 C127 1.723 . S
C146 C145 1.396 . S
C146 C147 1.394 . S
C147 C143 1.397 . S
C147 C146 1.394 . S
C147 C157 1.723 . S
C148 C145 1.453 . S
C148 H172 0.982 . S
C148 H173 0.979 . S
C148 H174 0.977 . S
C149 C145 1.684 . S
C149 H175 0.979 1_655 S
C149 H176 0.980 . S
C149 H177 0.983 1_655 S
C150 H126 0.948 . S
C150 C151 1.391 . S
C150 C155 1.391 . S
C151 C150 1.391 . S
C151 C152 1.391 . S
C152 H129 0.947 . S
C152 C151 1.391 . S
C152 C153 1.392 . S
C153 H130 0.948 . S
C153 C152 1.392 . S
C153 C154 1.419 . S
C154 C153 1.419 . S
C154 C155 1.391 . S
C154 C158 1.397 . S
C155 C150 1.391 . S
C155 C154 1.391 . S
C155 C156 1.399 . S
C156 C155 1.399 . S
C156 C157 1.396 . S
C156 C159 1.453 . S
C156 C160 1.684 . S
C157 C147 1.723 . S
C157 C156 1.396 . S
C157 C158 1.394 . S
C158 C128 1.723 . S
C158 C154 1.397 . S
C158 C157 1.394 . S
C159 H131 0.982 . S
C159 H135 0.979 . S
C159 H136 0.977 . S
C159 C156 1.453 . S
C160 H132 0.979 . S
C160 H133 0.980 . S
C160 H134 0.983 . S
C160 C156 1.684 . S
H161 C179 0.948 . S
H162 C120 0.948 . S
H163 C138 0.979 . S
H164 C138 0.980 . S
H165 C138 0.983 . S
H166 C137 0.982 . S
H167 C137 0.979 . S
H168 C137 0.977 . S
H169 C139 0.948 1_565 S
H170 C141 0.947 . S
H171 C142 0.948 . S
H172 C148 0.982 . S
H173 C148 0.979 . S
H174 C148 0.977 . S
H175 C149 0.979 1_455 S
H176 C149 0.980 . S
H177 C149 0.983 1_455 S
H178 C122 0.947 . S
C179 C122 1.392 . S
C179 C123 1.419 . S
C179 H161 0.948 . S
C180 C181 1.391 . S
C180 C184 1.391 . S
C180 H222 0.948 . S
C181 C180 1.391 . S
C181 C182 1.391 . S
C182 C181 1.391 . S
C182 H238 0.947 . S
C182 C239 1.392 . S
C183 C184 1.391 . S
C183 C187 1.397 . S
C183 C239 1.419 . S
C184 C180 1.391 . S
C184 C183 1.391 . S
C184 C185 1.399 . S
C185 C184 1.399 . S
C185 C188 1.396 . S
C185 C197 1.453 . S
C185 C198 1.684 . S
H186 C210 0.948 . S
C187 C183 1.397 . S
C187 C188 1.394 . S
C187 C206 1.723 . S
C188 C185 1.396 . S
C188 C187 1.394 . S
C188 C218 1.723 . S
H189 C212 0.947 . S
H190 C213 0.948 . S
H191 C219 0.982 . S
H192 C220 0.979 . S
H193 C220 0.980 . S
H194 C220 0.983 . S
H195 C219 0.979 . S
H196 C219 0.977 . S
C197 C185 1.453 . S
C197 H226 0.982 . S
C197 H227 0.979 . S
C197 H228 0.977 . S
C198 C185 1.684 . S
C198 H223 0.979 . S
C198 H224 0.980 . S
C198 H225 0.983 . S
C199 C200 1.391 . S
C199 C204 1.391 . S
C199 H229 0.948 . S
C200 C199 1.391 . S
C200 C201 1.391 . S
C201 C200 1.391 . S
C201 C202 1.392 . S
C201 H230 0.947 . S
C202 C201 1.392 . S
C202 C203 1.419 1_556 S
C202 H231 0.948 1_556 S
C203 C202 1.419 1_554 S
C203 C204 1.391 1_554 S
C203 C207 1.397 . S
C204 C199 1.391 . S
C204 C203 1.391 1_556 S
C204 C205 1.399 1_556 S
C205 C204 1.399 1_554 S
C205 C206 1.396 . S
C205 C208 1.453 1_554 S
C205 C209 1.684 . S
C206 C187 1.723 . S
C206 C205 1.396 . S
C206 C207 1.394 . S
C207 C203 1.397 . S
C207 C206 1.394 . S
C207 C217 1.723 . S
C208 C205 1.453 1_556 S
C208 H232 0.982 . S
C208 H233 0.979 . S
C208 H234 0.977 1_556 S
C209 C205 1.684 . S
C209 H235 0.979 . S
C209 H236 0.980 . S
C209 H237 0.983 1_554 S
C210 H186 0.948 . S
C210 C211 1.391 . S
C210 C215 1.391 . S
C211 C210 1.391 . S
C211 C212 1.391 . S
C212 H189 0.947 . S
C212 C211 1.391 . S
C212 C213 1.392 . S
C213 H190 0.948 . S
C213 C212 1.392 . S
C213 C214 1.419 . S
C214 C213 1.419 . S
C214 C215 1.391 . S
C214 C218 1.397 . S
C215 C210 1.391 . S
C215 C214 1.391 . S
C215 C216 1.399 . S
C216 C215 1.399 . S
C216 C217 1.396 . S
C216 C219 1.453 . S
C216 C220 1.684 . S
C217 C207 1.723 . S
C217 C216 1.396 . S
C217 C218 1.394 . S
C218 C188 1.723 . S
C218 C214 1.397 . S
C218 C217 1.394 . S
C219 H191 0.982 . S
C219 H195 0.979 . S
C219 H196 0.977 . S
C219 C216 1.453 . S
C220 H192 0.979 . S
C220 H193 0.980 . S
C220 H194 0.983 . S
C220 C216 1.684 . S
H221 C239 0.948 . S
H222 C180 0.948 . S
H223 C198 0.979 . S
H224 C198 0.980 . S
H225 C198 0.983 . S
H226 C197 0.982 . S
H227 C197 0.979 . S
H228 C197 0.977 . S
H229 C199 0.948 . S
H230 C201 0.947 . S
H231 C202 0.948 1_554 S
H232 C208 0.982 . S
H233 C208 0.979 . S
H234 C208 0.977 1_554 S
H235 C209 0.979 . S
H236 C209 0.980 . S
H237 C209 0.983 1_556 S
H238 C182 0.947 . S
C239 C182 1.392 . S
C239 C183 1.419 . S
C239 H221 0.948 . S
C240 C241 1.391 . S
C240 C244 1.391 . S
C240 H282 0.948 . S
C241 C240 1.391 . S
C241 C242 1.391 . S
C242 C241 1.391 . S
C242 H298 0.947 . S
C242 C299 1.392 . S
C243 C244 1.391 . S
C243 C247 1.397 . S
C243 C299 1.419 . S
C244 C240 1.391 . S
C244 C243 1.391 . S
C244 C245 1.399 . S
C245 C244 1.399 . S
C245 C248 1.396 . S
C245 C257 1.453 . S
C245 C258 1.684 . S
H246 C270 0.948 . S
C247 C243 1.397 . S
C247 C248 1.394 . S
C247 C266 1.723 . S
C248 C245 1.396 . S
C248 C247 1.394 . S
C248 C278 1.723 . S
H249 C272 0.947 . S
H250 C273 0.948 . S
H251 C279 0.982 . S
H252 C280 0.979 . S
H253 C280 0.980 . S
H254 C280 0.983 . S
H255 C279 0.979 . S
H256 C279 0.977 . S
C257 C245 1.453 . S
C257 H286 0.982 . S
C257 H287 0.979 . S
C257 H288 0.977 . S
C258 C245 1.684 . S
C258 H283 0.979 . S
C258 H284 0.980 . S
C258 H285 0.983 . S
C259 C260 1.391 . S
C259 C264 1.391 . S
C259 H289 0.948 . S
C260 C259 1.391 . S
C260 C261 1.391 . S
C261 C260 1.391 . S
C261 C262 1.392 . S
C261 H290 0.947 . S
C262 C261 1.392 . S
C262 C263 1.419 . S
C262 H291 0.948 . S
C263 C262 1.419 . S
C263 C264 1.391 . S
C263 C267 1.397 . S
C264 C259 1.391 . S
C264 C263 1.391 . S
C264 C265 1.399 . S
C265 C264 1.399 . S
C265 C266 1.396 . S
C265 C268 1.453 . S
C265 C269 1.684 . S
C266 C247 1.723 . S
C266 C265 1.396 . S
C266 C267 1.394 . S
C267 C263 1.397 . S
C267 C266 1.394 . S
C267 C277 1.723 . S
C268 C265 1.453 . S
C268 H292 0.982 . S
C268 H293 0.979 . S
C268 H294 0.977 . S
C269 C265 1.684 . S
C269 H295 0.979 . S
C269 H296 0.980 . S
C269 H297 0.983 . S
C270 H246 0.948 . S
C270 C271 1.391 . S
C270 C275 1.391 . S
C271 C270 1.391 . S
C271 C272 1.391 . S
C272 H249 0.947 . S
C272 C271 1.391 . S
C272 C273 1.392 . S
C273 H250 0.948 . S
C273 C272 1.392 . S
C273 C274 1.419 . S
C274 C273 1.419 . S
C274 C275 1.391 . S
C274 C278 1.397 . S
C275 C270 1.391 . S
C275 C274 1.391 . S
C275 C276 1.399 . S
C276 C275 1.399 . S
C276 C277 1.396 . S
C276 C279 1.453 . S
C276 C280 1.684 . S
C277 C267 1.723 . S
C277 C276 1.396 . S
C277 C278 1.394 . S
C278 C248 1.723 . S
C278 C274 1.397 . S
C278 C277 1.394 . S
C279 H251 0.982 . S
C279 H255 0.979 . S
C279 H256 0.977 . S
C279 C276 1.453 . S
C280 H252 0.979 . S
C280 H253 0.980 . S
C280 H254 0.983 . S
C280 C276 1.684 . S
H281 C299 0.948 . S
H282 C240 0.948 . S
H283 C258 0.979 . S
H284 C258 0.980 . S
H285 C258 0.983 . S
H286 C257 0.982 . S
H287 C257 0.979 . S
H288 C257 0.977 . S
H289 C259 0.948 . S
H290 C261 0.947 . S
H291 C262 0.948 . S
H292 C268 0.982 . S
H293 C268 0.979 . S
H294 C268 0.977 . S
H295 C269 0.979 . S
H296 C269 0.980 . S
H297 C269 0.983 . S
H298 C242 0.947 . S
C299 C242 1.392 . S
C299 C243 1.419 . S
C299 H281 0.948 . S
C300 C301 1.391 . S
C300 C304 1.391 . S
C300 H342 0.948 . S
C301 C300 1.391 . S
C301 C302 1.391 . S
C302 C301 1.391 . S
C302 H358 0.947 . S
C302 C359 1.392 . S
C303 C304 1.391 . S
C303 C307 1.397 . S
C303 C359 1.419 . S
C304 C300 1.391 . S
C304 C303 1.391 . S
C304 C305 1.399 . S
C305 C304 1.399 . S
C305 C308 1.396 . S
C305 C317 1.453 . S
C305 C318 1.684 . S
H306 C330 0.948 1_545 S
C307 C303 1.397 . S
C307 C308 1.394 . S
C307 C326 1.723 . S
C308 C305 1.396 . S
C308 C307 1.394 . S
C308 C338 1.723 . S
H309 C332 0.947 . S
H310 C333 0.948 . S
H311 C339 0.982 . S
H312 C340 0.979 . S
H313 C340 0.980 . S
H314 C340 0.983 . S
H315 C339 0.979 . S
H316 C339 0.977 . S
C317 C305 1.453 . S
C317 H346 0.982 . S
C317 H347 0.979 . S
C317 H348 0.977 . S
C318 C305 1.684 . S
C318 H343 0.979 . S
C318 H344 0.980 . S
C318 H345 0.983 . S
C319 C320 1.391 . S
C319 C324 1.391 . S
C319 H349 0.948 . S
C320 C319 1.391 . S
C320 C321 1.391 . S
C321 C320 1.391 . S
C321 C322 1.392 . S
C321 H350 0.947 . S
C322 C321 1.392 . S
C322 C323 1.419 1_556 S
C322 H351 0.948 . S
C323 C322 1.419 1_554 S
C323 C324 1.391 1_554 S
C323 C327 1.397 . S
C324 C319 1.391 . S
C324 C323 1.391 1_556 S
C324 C325 1.399 1_556 S
C325 C324 1.399 1_554 S
C325 C326 1.396 . S
C325 C328 1.453 . S
C325 C329 1.684 1_554 S
C326 C307 1.723 . S
C326 C325 1.396 . S
C326 C327 1.394 . S
C327 C323 1.397 . S
C327 C326 1.394 . S
C327 C337 1.723 . S
C328 C325 1.453 . S
C328 H352 0.982 . S
C328 H353 0.979 1_554 S
C328 H354 0.977 . S
C329 C325 1.684 1_556 S
C329 H355 0.979 . S
C329 H356 0.980 1_556 S
C329 H357 0.983 . S
C330 H306 0.948 1_565 S
C330 C331 1.391 1_565 S
C330 C335 1.391 . S
C331 C330 1.391 1_545 S
C331 C332 1.391 1_545 S
C332 H309 0.947 . S
C332 C331 1.391 1_565 S
C332 C333 1.392 . S
C333 H310 0.948 . S
C333 C332 1.392 . S
C333 C334 1.419 . S
C334 C333 1.419 . S
C334 C335 1.391 . S
C334 C338 1.397 . S
C335 C330 1.391 . S
C335 C334 1.391 . S
C335 C336 1.399 . S
C336 C335 1.399 . S
C336 C337 1.396 . S
C336 C339 1.453 . S
C336 C340 1.684 . S
C337 C327 1.723 . S
C337 C336 1.396 . S
C337 C338 1.394 . S
C338 C308 1.723 . S
C338 C334 1.397 . S
C338 C337 1.394 . S
C339 H311 0.982 . S
C339 H315 0.979 . S
C339 H316 0.977 . S
C339 C336 1.453 . S
C340 H312 0.979 . S
C340 H313 0.980 . S
C340 H314 0.983 . S
C340 C336 1.684 . S
H341 C359 0.948 . S
H342 C300 0.948 . S
H343 C318 0.979 . S
H344 C318 0.980 . S
H345 C318 0.983 . S
H346 C317 0.982 . S
H347 C317 0.979 . S
H348 C317 0.977 . S
H349 C319 0.948 . S
H350 C321 0.947 . S
H351 C322 0.948 . S
H352 C328 0.982 . S
H353 C328 0.979 1_556 S
H354 C328 0.977 . S
H355 C329 0.979 . S
H356 C329 0.980 1_554 S
H357 C329 0.983 . S
H358 C302 0.947 . S
C359 C302 1.392 . S
C359 C303 1.419 . S
C359 H341 0.948 . S
C360 C361 1.391 1_565 S
C360 C364 1.391 . S
C360 H402 0.948 . S
C361 C360 1.391 1_545 S
C361 C362 1.391 . S
C362 C361 1.391 . S
C362 H418 0.947 . S
C362 C419 1.392 1_545 S
C363 C364 1.391 . S
C363 C367 1.397 . S
C363 C419 1.419 . S
C364 C360 1.391 . S
C364 C363 1.391 . S
C364 C365 1.399 . S
C365 C364 1.399 . S
C365 C368 1.396 . S
C365 C377 1.453 . S
C365 C378 1.684 . S
H366 C390 0.948 . S
C367 C363 1.397 . S
C367 C368 1.394 . S
C367 C386 1.723 . S
C368 C365 1.396 . S
C368 C367 1.394 . S
C368 C398 1.723 . S
H369 C392 0.947 . S
H370 C393 0.948 . S
H371 C399 0.982 . S
H372 C400 0.979 . S
H373 C400 0.980 . S
H374 C400 0.983 . S
H375 C399 0.979 . S
H376 C399 0.977 . S
C377 C365 1.453 . S
C377 H406 0.982 . S
C377 H407 0.979 . S
C377 H408 0.977 . S
C378 C365 1.684 . S
C378 H403 0.979 . S
C378 H404 0.980 . S
C378 H405 0.983 . S
C379 C380 1.391 . S
C379 C384 1.391 . S
C379 H409 0.948 . S
C380 C379 1.391 . S
C380 C381 1.391 . S
C381 C380 1.391 . S
C381 C382 1.392 . S
C381 H410 0.947 . S
C382 C381 1.392 . S
C382 C383 1.419 . S
C382 H411 0.948 . S
C383 C382 1.419 . S
C383 C384 1.391 . S
C383 C387 1.397 . S
C384 C379 1.391 . S
C384 C383 1.391 . S
C384 C385 1.399 . S
C385 C384 1.399 . S
C385 C386 1.396 . S
C385 C388 1.453 . S
C385 C389 1.684 . S
C386 C367 1.723 . S
C386 C385 1.396 . S
C386 C387 1.394 . S
C387 C383 1.397 . S
C387 C386 1.394 . S
C387 C397 1.723 . S
C388 C385 1.453 . S
C388 H412 0.982 . S
C388 H413 0.979 . S
C388 H414 0.977 . S
C389 C385 1.684 . S
C389 H415 0.979 1_455 S
C389 H416 0.980 . S
C389 H417 0.982 . S
C390 H366 0.948 . S
C390 C391 1.391 . S
C390 C395 1.391 . S
C391 C390 1.391 . S
C391 C392 1.391 . S
C392 H369 0.947 . S
C392 C391 1.391 . S
C392 C393 1.392 . S
C393 H370 0.948 . S
C393 C392 1.392 . S
C393 C394 1.419 . S
C394 C393 1.419 . S
C394 C395 1.391 . S
C394 C398 1.397 . S
C395 C390 1.391 . S
C395 C394 1.391 . S
C395 C396 1.399 . S
C396 C395 1.399 . S
C396 C397 1.396 . S
C396 C399 1.453 . S
C396 C400 1.684 . S
C397 C387 1.723 . S
C397 C396 1.396 . S
C397 C398 1.394 . S
C398 C368 1.723 . S
C398 C394 1.397 . S
C398 C397 1.394 . S
C399 H371 0.982 . S
C399 H375 0.979 . S
C399 H376 0.977 . S
C399 C396 1.453 . S
C400 H372 0.979 . S
C400 H373 0.980 . S
C400 H374 0.983 . S
C400 C396 1.684 . S
H401 C419 0.948 . S
H402 C360 0.948 . S
H403 C378 0.979 . S
H404 C378 0.980 . S
H405 C378 0.983 . S
H406 C377 0.982 . S
H407 C377 0.979 . S
H408 C377 0.977 . S
H409 C379 0.948 . S
H410 C381 0.947 . S
H411 C382 0.948 . S
H412 C388 0.982 . S
H413 C388 0.979 . S
H414 C388 0.977 . S
H415 C389 0.979 1_655 S
H416 C389 0.980 . S
H417 C389 0.982 . S
H418 C362 0.947 . S
C419 C362 1.392 1_565 S
C419 C363 1.419 . S
C419 H401 0.948 . S
C420 C421 1.391 . S
C420 C424 1.391 . S
C420 H462 0.948 . S
C421 C420 1.391 . S
C421 C422 1.391 . S
C422 C421 1.391 . S
C422 H478 0.947 . S
C422 C479 1.392 . S
C423 C424 1.391 . S
C423 C427 1.397 . S
C423 C479 1.419 . S
C424 C420 1.391 . S
C424 C423 1.391 . S
C424 C425 1.399 . S
C425 C424 1.399 . S
C425 C428 1.396 . S
C425 C437 1.453 . S
C425 C438 1.684 . S
H426 C450 0.948 . S
C427 C423 1.397 . S
C427 C428 1.394 . S
C427 C446 1.723 . S
C428 C425 1.396 . S
C428 C427 1.394 . S
C428 C458 1.723 . S
H429 C452 0.947 . S
H430 C453 0.948 . S
H431 C459 0.982 . S
H432 C460 0.979 . S
H433 C460 0.980 . S
H434 C460 0.983 . S
H435 C459 0.979 . S
H436 C459 0.977 . S
C437 C425 1.453 . S
C437 H466 0.982 . S
C437 H467 0.979 . S
C437 H468 0.977 . S
C438 C425 1.684 . S
C438 H463 0.979 . S
C438 H464 0.980 . S
C438 H465 0.983 . S
C439 C440 1.391 . S
C439 C444 1.391 . S
C439 H469 0.948 . S
C440 C439 1.391 . S
C440 C441 1.391 . S
C441 C440 1.391 . S
C441 C442 1.392 . S
C441 H470 0.947 . S
C442 C441 1.392 . S
C442 C443 1.419 1_554 S
C442 H471 0.948 . S
C443 C442 1.419 1_556 S
C443 C444 1.391 1_556 S
C443 C447 1.397 . S
C444 C439 1.391 . S
C444 C443 1.391 1_554 S
C444 C445 1.399 1_554 S
C445 C444 1.399 1_556 S
C445 C446 1.396 . S
C445 C448 1.453 . S
C445 C449 1.684 1_556 S
C446 C427 1.723 . S
C446 C445 1.396 . S
C446 C447 1.394 . S
C447 C443 1.397 . S
C447 C446 1.394 . S
C447 C457 1.723 . S
C448 C445 1.453 . S
C448 H472 0.982 . S
C448 H473 0.979 1_556 S
C448 H474 0.977 . S
C449 C445 1.684 1_554 S
C449 H475 0.979 . S
C449 H476 0.980 1_554 S
C449 H477 0.983 . S
C450 H426 0.948 . S
C450 C451 1.391 . S
C450 C455 1.391 . S
C451 C450 1.391 . S
C451 C452 1.391 . S
C452 H429 0.947 . S
C452 C451 1.391 . S
C452 C453 1.392 . S
C453 H430 0.948 . S
C453 C452 1.392 . S
C453 C454 1.419 . S
C454 C453 1.419 . S
C454 C455 1.391 . S
C454 C458 1.397 . S
C455 C450 1.391 . S
C455 C454 1.391 . S
C455 C456 1.399 . S
C456 C455 1.399 . S
C456 C457 1.396 . S
C456 C459 1.453 . S
C456 C460 1.684 . S
C457 C447 1.723 . S
C457 C456 1.396 . S
C457 C458 1.394 . S
C458 C428 1.723 . S
C458 C454 1.397 . S
C458 C457 1.394 . S
C459 H431 0.982 . S
C459 H435 0.979 . S
C459 H436 0.977 . S
C459 C456 1.453 . S
C460 H432 0.979 . S
C460 H433 0.980 . S
C460 H434 0.983 . S
C460 C456 1.684 . S
H461 C479 0.948 . S
H462 C420 0.948 . S
H463 C438 0.979 . S
H464 C438 0.980 . S
H465 C438 0.983 . S
H466 C437 0.982 . S
H467 C437 0.979 . S
H468 C437 0.977 . S
H469 C439 0.948 . S
H470 C441 0.947 . S
H471 C442 0.948 . S
H472 C448 0.982 . S
H473 C448 0.979 1_554 S
H474 C448 0.977 . S
H475 C449 0.979 . S
H476 C449 0.980 1_556 S
H477 C449 0.983 . S
H478 C422 0.947 . S
C479 C422 1.392 . S
C479 C423 1.419 . S
C479 H461 0.948 . S
Zn480 O486 1.920 1_455 S
Zn480 O492 1.898 . S
Zn480 O495 1.905 . S
Zn481 O489 1.905 1_655 S
Zn481 O490 1.898 . S
Zn481 O498 1.920 . S
Zn482 O485 2.080 1_455 S
Zn482 O488 2.114 . S
Zn482 O491 2.120 1_455 S
Zn482 O493 2.120 . S
Zn482 O494 2.114 . S
Zn482 O497 2.080 1_455 S
C483 O488 1.166 . S
C483 O489 1.182 . S
C484 O490 1.167 . S
C484 O491 1.299 . S
O485 Zn482 2.080 1_655 S
O485 C499 1.305 . S
O486 Zn480 1.920 1_655 S
O486 C499 1.234 . S
C487 O492 1.167 . S
C487 O493 1.299 . S
O488 Zn482 2.114 . S
O488 C483 1.166 . S
O489 Zn481 1.905 1_455 S
O489 C483 1.182 . S
O490 Zn481 1.898 . S
O490 C484 1.167 . S
O491 Zn482 2.120 1_655 S
O491 C484 1.299 . S
O492 Zn480 1.898 . S
O492 C487 1.167 . S
O493 Zn482 2.120 . S
O493 C487 1.299 . S
O494 Zn482 2.114 . S
O494 C496 1.166 . S
O495 Zn480 1.905 . S
O495 C496 1.182 . S
C496 O494 1.166 . S
C496 O495 1.182 . S
O497 Zn482 2.080 1_655 S
O497 C500 1.305 . S
O498 Zn481 1.920 . S
O498 C500 1.234 . S
C499 O485 1.305 . S
C499 O486 1.234 . S
C500 O497 1.305 . S
C500 O498 1.234 . S
Zn501 O507 1.920 . S
Zn501 O513 1.898 . S
Zn501 O516 1.905 . S
Zn502 O510 1.905 . S
Zn502 O511 1.898 . S
Zn502 O519 1.920 . S
Zn503 O506 2.080 . S
Zn503 O509 2.114 . S
Zn503 O512 2.120 . S
Zn503 O514 2.120 . S
Zn503 O515 2.114 . S
Zn503 O518 2.080 . S
C504 O509 1.166 . S
C504 O510 1.182 . S
C505 O511 1.167 . S
C505 O512 1.299 . S
O506 Zn503 2.080 . S
O506 C520 1.305 . S
O507 Zn501 1.920 . S
O507 C520 1.234 . S
C508 O513 1.167 . S
C508 O514 1.299 . S
O509 Zn503 2.114 . S
O509 C504 1.166 . S
O510 Zn502 1.905 . S
O510 C504 1.182 . S
O511 Zn502 1.898 . S
O511 C505 1.167 . S
O512 Zn503 2.120 . S
O512 C505 1.299 . S
O513 Zn501 1.898 . S
O513 C508 1.167 . S
O514 Zn503 2.120 . S
O514 C508 1.299 . S
O515 Zn503 2.114 . S
O515 C517 1.166 . S
O516 Zn501 1.905 . S
O516 C517 1.182 . S
C517 O515 1.166 . S
C517 O516 1.182 . S
O518 Zn503 2.080 . S
O518 C521 1.305 . S
O519 Zn502 1.920 . S
O519 C521 1.234 . S
C520 O506 1.305 . S
C520 O507 1.234 . S
C521 O518 1.305 . S
C521 O519 1.234 . S
Zn522 O528 1.920 . S
Zn522 O534 1.898 . S
Zn522 O537 1.905 1_455 S
Zn523 O531 1.905 . S
Zn523 O532 1.898 . S
Zn523 O540 1.920 1_655 S
Zn524 O527 2.090 . S
Zn524 O530 2.103 1_455 S
Zn524 O533 2.110 1_455 S
Zn524 O535 2.131 . S
Zn524 O536 2.106 1_455 S
Zn524 O539 2.089 . S
C525 O530 1.166 . S
C525 O531 1.182 . S
C526 O532 1.167 . S
C526 O533 1.299 . S
O527 Zn524 2.090 . S
O527 C541 1.305 . S
O528 Zn522 1.920 . S
O528 C541 1.234 . S
C529 O534 1.167 . S
C529 O535 1.299 . S
O530 Zn524 2.103 1_655 S
O530 C525 1.166 . S
O531 Zn523 1.905 . S
O531 C525 1.182 . S
O532 Zn523 1.898 . S
O532 C526 1.167 . S
O533 Zn524 2.110 1_655 S
O533 C526 1.299 . S
O534 Zn522 1.898 . S
O534 C529 1.167 . S
O535 Zn524 2.131 . S
O535 C529 1.299 . S
O536 Zn524 2.106 1_655 S
O536 C538 1.166 . S
O537 Zn522 1.905 1_655 S
O537 C538 1.182 . S
C538 O536 1.166 . S
C538 O537 1.182 . S
O539 Zn524 2.089 . S
O539 C542 1.305 . S
O540 Zn523 1.920 1_455 S
O540 C542 1.234 . S
C541 O527 1.305 . S
C541 O528 1.234 . S
C542 O539 1.305 . S
C542 O540 1.234 . S
Zn543 O549 1.920 . S
Zn543 O555 1.898 . S
Zn543 O558 1.905 . S
Zn544 O552 1.905 . S
Zn544 O553 1.898 . S
Zn544 O561 1.920 . S
Zn545 O548 2.080 . S
Zn545 O551 2.114 . S
Zn545 O554 2.120 . S
Zn545 O556 2.120 . S
Zn545 O557 2.114 . S
Zn545 O560 2.080 . S
C546 O551 1.166 . S
C546 O552 1.182 . S
C547 O553 1.167 . S
C547 O554 1.299 . S
O548 Zn545 2.080 . S
O548 C562 1.305 . S
O549 Zn543 1.920 . S
O549 C562 1.234 . S
C550 O555 1.167 . S
C550 O556 1.299 . S
O551 Zn545 2.114 . S
O551 C546 1.166 . S
O552 Zn544 1.905 . S
O552 C546 1.182 . S
O553 Zn544 1.898 . S
O553 C547 1.167 . S
O554 Zn545 2.120 . S
O554 C547 1.299 . S
O555 Zn543 1.898 . S
O555 C550 1.167 . S
O556 Zn545 2.120 . S
O556 C550 1.299 . S
O557 Zn545 2.114 . S
O557 C559 1.166 . S
O558 Zn543 1.905 . S
O558 C559 1.182 . S
C559 O557 1.166 . S
C559 O558 1.182 . S
O560 Zn545 2.080 . S
O560 C563 1.305 . S
O561 Zn544 1.920 . S
O561 C563 1.234 . S
C562 O548 1.305 . S
C562 O549 1.234 . S
C563 O560 1.305 . S
C563 O561 1.234 . S
C361 C496 2.006 . S
C504 C451 2.211 . S
C508 C241 1.989 . S
C331 C484 2.174 . S
C525 C140 2.339 . S
C559 C211 2.339 . S
C20 C547 2.311 . S
C91 C529 2.312 1_545 S
C483 C80 1.276 . S
C517 C1 1.276 . S
C521 C200 1.260 . S
C499 C121 1.260 . S
C538 C320 1.273 . S
C260 C546 1.595 . S
C562 C440 1.277 . S
C380 C542 1.573 . S
C487 C31 1.263 . S
C505 C61 1.263 . S
C151 C520 1.235 . S
C500 C181 1.235 . S
C526 C271 1.324 . S
C301 C550 1.157 . S
C391 C563 1.320 . S
C421 C541 1.141 . S
