# Generated by pormake.
# Topology nom, (4,4)-cn, num edge types: 1
# Building blocks:
#     Node 0, Type 0, BuildingBlock: GIZVER_clean_linker_0, # of connection points: 4
#     Node 1, Type 0, BuildingBlock: GIZVER_clean_linker_0, # of connection points: 4
#     Node 2, Type 0, BuildingBlock: GIZVER_clean_linker_0, # of connection points: 4
#     Node 3, Type 0, BuildingBlock: GIZVER_clean_linker_0, # of connection points: 4
#     Node 4, Type 0, BuildingBlock: GIZVER_clean_linker_0, # of connection points: 4
#     Node 5, Type 0, BuildingBlock: GIZVER_clean_linker_0, # of connection points: 4
#     Node 6, Type 1, BuildingBlock: KUFVIS_clean_sbu_0, # of connection points: 4
#     Node 7, Type 1, BuildingBlock: KUFVIS_clean_sbu_0, # of connection points: 4
#     Node 8, Type 1, BuildingBlock: KUFVIS_clean_sbu_0, # of connection points: 4
#     Node 9, Type 1, BuildingBlock: KUFVIS_clean_sbu_0, # of connection points: 4
#     Node 10, Type 1, BuildingBlock: KUFVIS_clean_sbu_0, # of connection points: 4
#     Node 11, Type 1, BuildingBlock: KUFVIS_clean_sbu_0, # of connection points: 4
#     Edge 12, Type (0, 1), None
#     Edge 13, Type (0, 1), None
#     Edge 14, Type (0, 1), None
#     Edge 15, Type (0, 1), None
#     Edge 16, Type (0, 1), None
#     Edge 17, Type (0, 1), None
#     Edge 18, Type (0, 1), None
#     Edge 19, Type (0, 1), None
#     Edge 20, Type (0, 1), None
#     Edge 21, Type (0, 1), None
#     Edge 22, Type (0, 1), None
#     Edge 23, Type (0, 1), None
#     Edge 24, Type (0, 1), None
#     Edge 25, Type (0, 1), None
#     Edge 26, Type (0, 1), None
#     Edge 27, Type (0, 1), None
#     Edge 28, Type (0, 1), None
#     Edge 29, Type (0, 1), None
#     Edge 30, Type (0, 1), None
#     Edge 31, Type (0, 1), None
#     Edge 32, Type (0, 1), None
#     Edge 33, Type (0, 1), None
#     Edge 34, Type (0, 1), None
#     Edge 35, Type (0, 1), None
# Relax obj value: 0.005
# Max RMSD: 0.081
# Mean RMSD: 0.053
data_MOF--net-nom--node1-KUFVIS_clean_sbu_0--node2-GIZVER_clean_linker_0--edge1-none
_symmetry_space_group_name_H-M    P1
_symmetry_Int_Tables_number       1
_symmetry_cell_setting            triclinic
loop_
_symmetry_equiv_pos_as_xyz
'x, y, z'
_cell_length_a     21.70152
_cell_length_b     22.138661
_cell_length_c     21.324203
_cell_angle_alpha  90.913069
_cell_angle_beta   90.914426
_cell_angle_gamma 120.24767
loop_
_atom_site_label
_atom_site_type_symbol
_atom_site_fract_x
_atom_site_fract_y
_atom_site_fract_z
_atom_type_partial_charge
H0 H 0.8945 0.5446 0.38411 0.0
H1 H 0.96459 0.54936 0.19589 0.0
H2 H 0.74994 0.39919 0.24354 0.0
H3 H 0.99851 0.64591 0.34872 0.0
H4 H 0.02388 0.65174 0.26931 0.0
H5 H 0.03705 0.58807 0.4275 0.0
H6 H 0.23906 0.60724 0.38772 0.0
H7 H 0.11731 0.63279 0.2406 0.0
C8 C 0.88497 0.52106 0.33736 0.0
C9 C 0.81646 0.4668 0.31976 0.0
C10 C 0.93939 0.54973 0.29346 0.0
C11 C 0.92489 0.52325 0.23111 0.0
C12 C 0.85708 0.4677 0.21303 0.0
C13 C 0.80386 0.43827 0.2583 0.0
C14 C 0.00744 0.61685 0.31022 0.0
C15 C 0.0671 0.60445 0.33021 0.0
C16 C 0.07559 0.59208 0.39363 0.0
C17 C 0.13727 0.592 0.41438 0.0
C18 C 0.18954 0.60283 0.37077 0.0
C19 C 0.18455 0.62088 0.30867 0.0
C20 C 0.12133 0.61768 0.28792 0.0
H21 H 0.39568 0.89307 0.54443 0.0
H22 H 0.44902 0.97019 0.35775 0.0
H23 H 0.4131 0.76643 0.39905 0.0
H24 H 0.38192 0.98854 0.51138 0.0
H25 H 0.39785 0.01675 0.43287 0.0
H26 H 0.47903 0.03671 0.59203 0.0
H27 H 0.64866 0.24386 0.55709 0.0
H28 H 0.50718 0.11682 0.40562 0.0
C29 C 0.41147 0.88777 0.49762 0.0
C30 C 0.40293 0.82333 0.47711 0.0
C31 C 0.43035 0.94213 0.45519 0.0
C32 C 0.44204 0.93179 0.3921 0.0
C33 C 0.43665 0.86865 0.37202 0.0
C34 C 0.42169 0.81673 0.41576 0.0
C35 C 0.42118 0.00323 0.47338 0.0
C36 C 0.49042 0.0668 0.49492 0.0
C37 C 0.51121 0.07651 0.559 0.0
C38 C 0.56876 0.14031 0.58144 0.0
C39 C 0.60691 0.19337 0.5388 0.0
C40 C 0.58291 0.18703 0.47599 0.0
C41 C 0.52709 0.12213 0.45353 0.0
H42 H 0.34525 0.46584 0.56378 0.0
H43 H 0.43664 0.46685 0.74412 0.0
H44 H 0.37471 0.61894 0.70511 0.0
H45 H 0.35359 0.36788 0.59205 0.0
H46 H 0.36879 0.35826 0.67247 0.0
H47 H 0.45375 0.4195 0.51815 0.0
H48 H 0.63662 0.40513 0.57226 0.0
H49 H 0.4788 0.3706 0.70794 0.0
C50 C 0.36732 0.49121 0.6091 0.0
C51 C 0.35916 0.54741 0.62881 0.0
C52 C 0.39712 0.46303 0.6498 0.0
C53 C 0.41957 0.49226 0.71073 0.0
C54 C 0.41296 0.54957 0.73064 0.0
C55 C 0.38553 0.57874 0.68835 0.0
C56 C 0.39151 0.39409 0.63252 0.0
C57 C 0.46289 0.40273 0.61686 0.0
C58 C 0.48657 0.41527 0.55468 0.0
C59 C 0.54976 0.41663 0.53893 0.0
C60 C 0.58967 0.40722 0.58566 0.0
C61 C 0.56177 0.38526 0.64515 0.0
C62 C 0.50081 0.38749 0.66198 0.0
H63 H 0.88992 0.38042 0.73953 0.0
H64 H 0.97369 0.47052 0.92204 0.0
H65 H 0.75195 0.38925 0.87645 0.0
H66 H 0.99417 0.38628 0.7758 0.0
H67 H 0.01376 0.39954 0.85758 0.0
H68 H 0.03318 0.49795 0.7095 0.0
H69 H 0.25691 0.63405 0.74867 0.0
H70 H 0.12456 0.49055 0.88696 0.0
C71 C 0.88328 0.40026 0.78418 0.0
C72 C 0.81499 0.38401 0.80195 0.0
C73 C 0.9407 0.43143 0.8272 0.0
C74 C 0.93083 0.45211 0.88696 0.0
C75 C 0.86292 0.43833 0.90479 0.0
C76 C 0.80565 0.40683 0.86095 0.0
C77 C 0.00441 0.42355 0.81567 0.0
C78 C 0.07011 0.4917 0.80218 0.0
C79 C 0.07777 0.52145 0.74303 0.0
C80 C 0.14519 0.57368 0.72346 0.0
C81 C 0.20397 0.59849 0.7654 0.0
C82 C 0.19689 0.56708 0.82374 0.0
C83 C 0.12953 0.51609 0.84279 0.0
H84 H 0.66655 0.13065 0.05204 0.0
H85 H 0.56785 0.03954 0.87272 0.0
H86 H 0.63374 0.25378 0.91636 0.0
H87 H 0.65229 0.0214 0.02087 0.0
H88 H 0.63748 0.99823 0.93942 0.0
H89 H 0.54962 0.98189 0.09166 0.0
H90 H 0.37026 0.78235 0.03855 0.0
H91 H 0.52837 0.90118 0.90329 0.0
C92 C 0.64335 0.1341 0.00778 0.0
C93 C 0.65072 0.1981 0.99039 0.0
C94 C 0.61135 0.07607 0.96618 0.0
C95 C 0.58631 0.08231 0.90697 0.0
C96 C 0.59388 0.14627 0.8888 0.0
C97 C 0.6228 0.20296 0.93197 0.0
C98 C 0.61518 0.01182 0.98037 0.0
C99 C 0.54258 0.95153 0.99411 0.0
C100 C 0.51721 0.94338 0.0554 0.0
C101 C 0.4555 0.88158 0.07186 0.0
C102 C 0.41597 0.83125 0.02497 0.0
C103 C 0.44426 0.83588 0.96512 0.0
C104 C 0.50534 0.89781 0.94876 0.0
H105 H 0.61176 0.50715 0.06958 0.0
H106 H 0.5776 0.55235 0.25771 0.0
H107 H 0.57999 0.36331 0.21481 0.0
H108 H 0.64548 0.62314 0.10142 0.0
H109 H 0.63499 0.6439 0.17996 0.0
H110 H 0.54719 0.58294 0.0223 0.0
H111 H 0.39297 0.64421 0.0643 0.0
H112 H 0.52955 0.64261 0.21087 0.0
C113 C 0.59641 0.48968 0.11699 0.0
C114 C 0.59623 0.42979 0.13723 0.0
C115 C 0.58853 0.53352 0.16002 0.0
C116 C 0.57747 0.51551 0.22351 0.0
C117 C 0.57425 0.4538 0.24374 0.0
C118 C 0.57807 0.4087 0.19909 0.0
C119 C 0.60721 0.60557 0.14043 0.0
C120 C 0.5417 0.60738 0.11988 0.0
C121 C 0.51903 0.59605 0.05648 0.0
C122 C 0.46384 0.60722 0.03648 0.0
C123 C 0.43107 0.62946 0.08047 0.0
C124 C 0.45611 0.64439 0.14304 0.0
C125 C 0.50887 0.62977 0.16293 0.0
Mn126 Mn 0.60878 0.35453 0.40474 0.0
Mn127 Mn 0.68447 0.52846 0.42255 0.0
C128 C 0.56306 0.40323 0.47429 0.0
C129 C 0.60237 0.25218 0.44203 0.0
C130 C 0.58957 0.44653 0.31022 0.0
O131 O 0.7043 0.3889 0.36318 0.0
O132 O 0.75291 0.50512 0.38196 0.0
C133 C 0.79416 0.54832 0.51783 0.0
N134 N 0.73688 0.55451 0.50075 0.0
C135 C 0.73166 0.5961 0.60438 0.0
C136 C 0.79113 0.59095 0.62285 0.0
C137 C 0.82248 0.56693 0.57937 0.0
C138 C 0.70626 0.57753 0.54222 0.0
H139 H 0.81762 0.52866 0.48491 0.0
C140 C 0.75525 0.45204 0.35947 0.0
O141 O 0.57649 0.25274 0.38664 0.0
O142 O 0.63502 0.3113 0.4726 0.0
N143 N 0.62344 0.55623 0.46179 0.0
C144 C 0.56421 0.55465 0.43742 0.0
C145 C 0.52574 0.5759 0.47523 0.0
C146 C 0.54838 0.59824 0.5377 0.0
C147 C 0.60964 0.59961 0.56166 0.0
C148 C 0.64651 0.57894 0.52145 0.0
H149 H 0.54617 0.53678 0.38964 0.0
O150 O 0.52368 0.33978 0.45255 0.0
O151 O 0.62733 0.43541 0.45345 0.0
O152 O 0.57507 0.38585 0.32809 0.0
O153 O 0.62914 0.50321 0.34214 0.0
C154 C 0.63472 0.61926 0.62422 0.0
C155 C 0.69565 0.61747 0.64557 0.0
H156 H 0.81268 0.60456 0.67046 0.0
H157 H 0.86795 0.56214 0.59344 0.0
H158 H 0.4784 0.57453 0.45646 0.0
H159 H 0.51804 0.61371 0.56696 0.0
H160 H 0.60706 0.63506 0.6565 0.0
H161 H 0.71395 0.63196 0.69396 0.0
Mn162 Mn 0.25937 0.65824 0.55122 0.0
Mn163 Mn 0.15071 0.48442 0.54779 0.0
C164 C 0.1603 0.60507 0.48132 0.0
C165 C 0.35603 0.7586 0.51106 0.0
C166 C 0.15953 0.57916 0.65582 0.0
O167 O 0.32142 0.62431 0.59197 0.0
O168 O 0.24818 0.50727 0.57721 0.0
C169 C 0.20801 0.42712 0.45472 0.0
N170 N 0.154 0.43676 0.47396 0.0
C171 C 0.0675 0.33775 0.41161 0.0
C172 C 0.12221 0.3268 0.39079 0.0
C173 C 0.19301 0.37262 0.41142 0.0
C174 C 0.0863 0.39518 0.45179 0.0
H175 H 0.26157 0.45933 0.47389 0.0
C176 C 0.30787 0.56112 0.59508 0.0
O177 O 0.33244 0.7597 0.56644 0.0
O178 O 0.32595 0.69871 0.48125 0.0
N179 N 0.05627 0.45837 0.51986 0.0
C180 C 0.01064 0.47783 0.54337 0.0
C181 C 0.93961 0.44414 0.52055 0.0
C182 C 0.91569 0.3887 0.47617 0.0
C183 C 0.96367 0.36892 0.45392 0.0
C184 C 0.03496 0.40819 0.47468 0.0
H185 H 0.02834 0.51841 0.57942 0.0
O186 O 0.18593 0.66894 0.5021 0.0
O187 O 0.1908 0.5731 0.50565 0.0
O188 O 0.20325 0.63766 0.63264 0.0
O189 O 0.13849 0.5212 0.62726 0.0
C190 C 0.94315 0.30967 0.4148 0.0
C191 C 0.99464 0.29241 0.39623 0.0
H192 H 0.11041 0.28322 0.35926 0.0
H193 H 0.23544 0.36423 0.39592 0.0
H194 H 0.90284 0.45927 0.53859 0.0
H195 H 0.86013 0.36061 0.46077 0.0
H196 H 0.88777 0.27593 0.40035 0.0
H197 H 0.97794 0.24472 0.36908 0.0
Mn198 Mn 0.60349 0.25555 0.71944 0.0
Mn199 Mn 0.7004 0.17678 0.71706 0.0
C200 C 0.57419 0.16241 0.64806 0.0
C201 C 0.58429 0.34201 0.67957 0.0
C202 C 0.6014 0.16234 0.82192 0.0
O203 O 0.695 0.32706 0.7647 0.0
O204 O 0.76042 0.27487 0.74919 0.0
C205 C 0.81406 0.25502 0.62755 0.0
N206 N 0.75556 0.1942 0.6439 0.0
C207 C 0.78441 0.12726 0.57291 0.0
C208 C 0.84484 0.1892 0.55502 0.0
C209 C 0.85955 0.25334 0.58242 0.0
C210 C 0.7401 0.13228 0.617 0.0
H211 H 0.82726 0.30407 0.6504 0.0
C212 C 0.7534 0.32648 0.76802 0.0
O213 O 0.55814 0.31429 0.73306 0.0
O214 O 0.62223 0.32047 0.65126 0.0
N215 N 0.64674 0.08235 0.6862 0.0
C216 C 0.58714 0.02754 0.70974 0.0
C217 C 0.56243 0.95981 0.68491 0.0
C218 C 0.60085 0.94907 0.63793 0.0
C219 C 0.66228 0.00653 0.61493 0.0
C220 C 0.6817 0.07313 0.63874 0.0
H221 H 0.55918 0.03545 0.74751 0.0
O222 O 0.52641 0.17714 0.6664 0.0
O223 O 0.63645 0.20079 0.67483 0.0
O224 O 0.57463 0.19681 0.79842 0.0
O225 O 0.64816 0.15352 0.79502 0.0
C226 C 0.70688 0.00013 0.57154 0.0
C227 C 0.7688 0.06041 0.55168 0.0
H228 H 0.88116 0.18796 0.52144 0.0
H229 H 0.90751 0.30096 0.57092 0.0
H230 H 0.51512 0.9158 0.70313 0.0
H231 H 0.58318 0.89649 0.62038 0.0
H232 H 0.69505 0.94887 0.55487 0.0
H233 H 0.80481 0.05497 0.52069 0.0
Mn234 Mn 0.41329 0.66498 0.89547 0.0
Mn235 Mn 0.32535 0.49267 0.91394 0.0
C236 C 0.45382 0.61614 0.9696 0.0
C237 C 0.42439 0.76975 0.93127 0.0
C238 C 0.41054 0.56337 0.79816 0.0
O239 O 0.3181 0.63435 0.85335 0.0
O240 O 0.25672 0.52198 0.88369 0.0
C241 C 0.23327 0.48061 0.01936 0.0
N242 N 0.2861 0.47174 -0.00437 0.0
C243 C 0.30261 0.4285 0.09364 0.0
C244 C 0.24817 0.43696 0.11907 0.0
C245 C 0.21327 0.46286 0.08163 0.0
C246 C 0.31981 0.44641 0.03108 0.0
H247 H 0.20673 0.50114 0.99096 0.0
C248 C 0.26065 0.57587 0.85749 0.0
O249 O 0.44965 0.76623 0.87716 0.0
O250 O 0.39162 0.71268 0.96169 0.0
N251 N 0.38808 0.46136 0.9435 0.0
C252 C 0.44022 0.45743 0.91214 0.0
C253 C 0.47929 0.43101 0.94237 0.0
C254 C 0.46459 0.40924 0.00455 0.0
C255 C 0.41139 0.41471 0.0362 0.0
C256 C 0.37335 0.44029 0.00327 0.0
H257 H 0.45173 0.47403 0.86434 0.0
O258 O 0.49717 0.67681 0.94714 0.0
O259 O 0.39031 0.58602 0.94465 0.0
O260 O 0.43978 0.62677 0.8186 0.0
O261 O 0.36617 0.51085 0.82933 0.0
C262 C 0.39489 0.39619 0.09918 0.0
C263 C 0.34071 0.40334 0.12796 0.0
H264 H 0.23269 0.42373 0.16721 0.0
H265 H 0.17104 0.46908 0.10067 0.0
H266 H 0.52054 0.42729 0.91777 0.0
H267 H 0.49444 0.38834 0.02745 0.0
H268 H 0.42379 0.37677 0.12602 0.0
H269 H 0.32874 0.38929 0.17651 0.0
Mn270 Mn 0.74096 0.40704 0.07082 0.0
Mn271 Mn 0.8525 0.34576 0.0808 0.0
C272 C 0.83375 0.45481 0.1462 0.0
C273 C 0.63986 0.40654 0.10395 0.0
C274 C 0.84595 0.42863 0.97161 0.0
O275 O 0.68652 0.31274 0.02571 0.0
O276 O 0.7571 0.26779 0.05037 0.0
C277 C 0.79808 0.23694 0.1759 0.0
N278 N 0.84981 0.30067 0.15685 0.0
C279 C 0.93573 0.30176 0.23012 0.0
C280 C 0.88344 0.23581 0.2503 0.0
C281 C 0.81395 0.20398 0.22403 0.0
C282 C 0.91598 0.33318 0.18384 0.0
H283 H 0.74593 0.21052 0.15303 0.0
C284 C 0.69973 0.26268 0.02632 0.0
O285 O 0.66691 0.43176 0.05004 0.0
O286 O 0.66833 0.37673 0.13537 0.0
N287 N 0.94462 0.41822 0.10962 0.0
C288 C 0.98873 0.48123 0.08393 0.0
C289 C 0.05772 0.52386 0.10986 0.0
C290 C 0.08127 0.50009 0.16038 0.0
C291 C 0.03518 0.43446 0.18501 0.0
C292 C 0.96558 0.39641 0.15988 0.0
H293 H 0.97142 0.49885 0.04407 0.0
O294 O 0.80632 0.49087 0.12472 0.0
O295 O 0.80766 0.39292 0.12041 0.0
O296 O 0.80383 0.44664 0.99461 0.0
O297 O 0.86378 0.38948 -0.00033 0.0
C298 C 0.05653 0.40357 0.23105 0.0
C299 C 0.00768 0.336 0.25124 0.0
H300 H 0.89596 0.20856 0.28533 0.0
H301 H 0.77353 0.15296 0.23913 0.0
H302 H 0.09316 0.57415 0.0901 0.0
H303 H 0.13536 0.5319 0.17891 0.0
H304 H 0.11114 0.42985 0.24908 0.0
H305 H 0.02711 0.31004 0.28086 0.0
Mn306 Mn 0.35788 0.75112 0.23381 0.0
Mn307 Mn 0.53652 0.84311 0.24065 0.0
C308 C 0.41909 0.8447 0.30598 0.0
C309 C 0.2511 0.66107 0.27327 0.0
C310 C 0.4483 0.85778 0.13703 0.0
O311 O 0.38287 0.68529 0.18713 0.0
O312 O 0.5028 0.74953 0.20075 0.0
C313 C 0.56681 0.75865 0.32852 0.0
N314 N 0.57301 0.82087 0.31303 0.0
C315 C 0.66173 0.8822 0.39459 0.0
C316 C 0.65686 0.81893 0.41137 0.0
C317 C 0.60831 0.75666 0.3788 0.0
C318 C 0.61694 0.88041 0.34593 0.0
H319 H 0.53121 0.71123 0.30219 0.0
C320 C 0.44554 0.69456 0.18092 0.0
O321 O 0.25219 0.68769 0.21904 0.0
O322 O 0.3122 0.68337 0.3015 0.0
N323 N 0.57509 0.93412 0.27856 0.0
C324 C 0.57126 0.99008 0.25781 0.0
C325 C 0.61323 0.05576 0.28786 0.0
C326 C 0.66022 0.06348 0.33748 0.0
C327 C 0.66325 0.00498 0.35759 0.0
C328 C 0.61789 0.94038 0.32776 0.0
H329 H 0.53705 0.98475 0.21823 0.0
O330 O 0.35454 0.82496 0.28685 0.0
O331 O 0.44616 0.81023 0.28039 0.0
O332 O 0.38678 0.81367 0.15685 0.0
O333 O 0.50633 0.87156 0.16506 0.0
C334 C 0.71138 0.00866 0.40442 0.0
C335 C 0.71093 0.94733 0.42268 0.0
H336 H 0.69022 0.81757 0.44902 0.0
H337 H 0.60417 0.70762 0.39142 0.0
H338 H 0.61074 0.10063 0.27183 0.0
H339 H 0.69411 0.1146 0.35941 0.0
H340 H 0.74977 0.05882 0.42544 0.0
H341 H 0.7492 0.95065 0.45769 0.0
loop_
_geom_bond_atom_site_label_1
_geom_bond_atom_site_label_2
_geom_bond_distance
_geom_bond_site_symmetry_2
_ccdc_geom_bond_type
H0 C8 0.930 . S
H1 C11 0.930 . S
H2 C13 0.930 . S
H3 C14 0.970 1_655 S
H4 C14 0.970 . S
H5 C16 0.930 . S
H6 C18 0.930 . S
H7 C20 0.930 . S
C8 H0 0.930 . S
C8 C9 1.382 . S
C8 C10 1.426 . S
C9 C8 1.382 . S
C9 C13 1.389 . S
C10 C8 1.426 . S
C10 C11 1.375 . S
C10 C14 1.532 1_655 S
C11 H1 0.930 . S
C11 C10 1.375 . S
C11 C12 1.416 . S
C12 C11 1.416 . S
C12 C13 1.371 . S
C13 H2 0.930 . S
C13 C9 1.389 . S
C13 C12 1.371 . S
C14 H3 0.970 1_455 S
C14 H4 0.970 . S
C14 C10 1.532 1_455 S
C14 C15 1.499 . S
C15 C14 1.499 . S
C15 C16 1.370 . S
C15 C20 1.415 . S
C16 H5 0.930 . S
C16 C15 1.370 . S
C16 C17 1.407 . S
C17 C16 1.407 . S
C17 C18 1.365 . S
C18 H6 0.930 . S
C18 C17 1.365 . S
C18 C19 1.393 . S
C19 C18 1.393 . S
C19 C20 1.387 . S
C20 H7 0.930 . S
C20 C15 1.415 . S
C20 C19 1.387 . S
H21 C29 0.930 . S
H22 C32 0.930 . S
H23 C34 0.930 . S
H24 C35 0.970 1_565 S
H25 C35 0.970 . S
H26 C37 0.930 . S
H27 C39 0.930 . S
H28 C41 0.930 . S
C29 H21 0.930 . S
C29 C30 1.382 . S
C29 C31 1.426 . S
C30 C29 1.382 . S
C30 C34 1.389 . S
C31 C29 1.426 . S
C31 C32 1.375 . S
C31 C35 1.532 1_565 S
C32 H22 0.930 . S
C32 C31 1.375 . S
C32 C33 1.416 . S
C33 C32 1.416 . S
C33 C34 1.371 . S
C34 H23 0.930 . S
C34 C30 1.389 . S
C34 C33 1.371 . S
C35 H24 0.970 1_545 S
C35 H25 0.970 . S
C35 C31 1.532 1_545 S
C35 C36 1.499 . S
C36 C35 1.499 . S
C36 C37 1.370 . S
C36 C41 1.415 . S
C37 H26 0.930 . S
C37 C36 1.370 . S
C37 C38 1.407 . S
C38 C37 1.407 . S
C38 C39 1.365 . S
C39 H27 0.930 . S
C39 C38 1.365 . S
C39 C40 1.393 . S
C40 C39 1.393 . S
C40 C41 1.387 . S
C41 H28 0.930 . S
C41 C36 1.415 . S
C41 C40 1.387 . S
H42 C50 0.930 . S
H43 C53 0.930 . S
H44 C55 0.930 . S
H45 C56 0.970 . S
H46 C56 0.970 . S
H47 C58 0.930 . S
H48 C60 0.930 . S
H49 C62 0.930 . S
C50 H42 0.930 . S
C50 C51 1.382 . S
C50 C52 1.426 . S
C51 C50 1.382 . S
C51 C55 1.389 . S
C52 C50 1.426 . S
C52 C53 1.375 . S
C52 C56 1.532 . S
C53 H43 0.930 . S
C53 C52 1.375 . S
C53 C54 1.416 . S
C54 C53 1.416 . S
C54 C55 1.371 . S
C55 H44 0.930 . S
C55 C51 1.389 . S
C55 C54 1.371 . S
C56 H45 0.970 . S
C56 H46 0.970 . S
C56 C52 1.532 . S
C56 C57 1.499 . S
C57 C56 1.499 . S
C57 C58 1.370 . S
C57 C62 1.415 . S
C58 H47 0.930 . S
C58 C57 1.370 . S
C58 C59 1.407 . S
C59 C58 1.407 . S
C59 C60 1.365 . S
C60 H48 0.930 . S
C60 C59 1.365 . S
C60 C61 1.393 . S
C61 C60 1.393 . S
C61 C62 1.387 . S
C62 H49 0.930 . S
C62 C57 1.415 . S
C62 C61 1.387 . S
H63 C71 0.930 . S
H64 C74 0.930 . S
H65 C76 0.930 . S
H66 C77 0.970 1_655 S
H67 C77 0.970 . S
H68 C79 0.930 . S
H69 C81 0.930 . S
H70 C83 0.930 . S
C71 H63 0.930 . S
C71 C72 1.382 . S
C71 C73 1.426 . S
C72 C71 1.382 . S
C72 C76 1.389 . S
C73 C71 1.426 . S
C73 C74 1.375 . S
C73 C77 1.532 1_655 S
C74 H64 0.930 . S
C74 C73 1.375 . S
C74 C75 1.416 . S
C75 C74 1.416 . S
C75 C76 1.371 . S
C76 H65 0.930 . S
C76 C72 1.389 . S
C76 C75 1.371 . S
C77 H66 0.970 1_455 S
C77 H67 0.970 . S
C77 C73 1.532 1_455 S
C77 C78 1.499 . S
C78 C77 1.499 . S
C78 C79 1.370 . S
C78 C83 1.415 . S
C79 H68 0.930 . S
C79 C78 1.370 . S
C79 C80 1.407 . S
C80 C79 1.407 . S
C80 C81 1.365 . S
C81 H69 0.930 . S
C81 C80 1.365 . S
C81 C82 1.393 . S
C82 C81 1.393 . S
C82 C83 1.387 . S
C83 H70 0.930 . S
C83 C78 1.415 . S
C83 C82 1.387 . S
H84 C92 0.930 . S
H85 C95 0.930 . S
H86 C97 0.930 . S
H87 C98 0.970 1_554 S
H88 C98 0.970 . S
H89 C100 0.930 . S
H90 C102 0.930 . S
H91 C104 0.930 . S
C92 H84 0.930 . S
C92 C93 1.382 . S
C92 C94 1.426 1_554 S
C93 C92 1.382 . S
C93 C97 1.389 1_554 S
C94 C92 1.426 1_556 S
C94 C95 1.375 . S
C94 C98 1.532 . S
C95 H85 0.930 . S
C95 C94 1.375 . S
C95 C96 1.416 . S
C96 C95 1.416 . S
C96 C97 1.371 . S
C97 H86 0.930 . S
C97 C93 1.389 1_556 S
C97 C96 1.371 . S
C98 H87 0.970 1_556 S
C98 H88 0.970 . S
C98 C94 1.532 . S
C98 C99 1.499 1_546 S
C99 C98 1.499 1_564 S
C99 C100 1.370 . S
C99 C104 1.415 1_554 S
C100 H89 0.930 . S
C100 C99 1.370 . S
C100 C101 1.407 . S
C101 C100 1.407 . S
C101 C102 1.365 . S
C102 H90 0.930 . S
C102 C101 1.365 . S
C102 C103 1.393 1_554 S
C103 C102 1.393 1_556 S
C103 C104 1.387 . S
C104 H91 0.930 . S
C104 C99 1.415 1_556 S
C104 C103 1.387 . S
H105 C113 0.930 . S
H106 C116 0.930 . S
H107 C118 0.930 . S
H108 C119 0.970 . S
H109 C119 0.970 . S
H110 C121 0.930 . S
H111 C123 0.930 . S
H112 C125 0.930 . S
C113 H105 0.930 . S
C113 C114 1.382 . S
C113 C115 1.426 . S
C114 C113 1.382 . S
C114 C118 1.389 . S
C115 C113 1.426 . S
C115 C116 1.375 . S
C115 C119 1.532 . S
C116 H106 0.930 . S
C116 C115 1.375 . S
C116 C117 1.416 . S
C117 C116 1.416 . S
C117 C118 1.371 . S
C118 H107 0.930 . S
C118 C114 1.389 . S
C118 C117 1.371 . S
C119 H108 0.970 . S
C119 H109 0.970 . S
C119 C115 1.532 . S
C119 C120 1.499 . S
C120 C119 1.499 . S
C120 C121 1.370 . S
C120 C125 1.415 . S
C121 H110 0.930 . S
C121 C120 1.370 . S
C121 C122 1.407 . S
C122 C121 1.407 . S
C122 C123 1.365 . S
C123 H111 0.930 . S
C123 C122 1.365 . S
C123 C124 1.393 . S
C124 C123 1.393 . S
C124 C125 1.387 . S
C125 H112 0.930 . S
C125 C120 1.415 . S
C125 C124 1.387 . S
Mn126 O131 2.095 . S
Mn126 O141 2.162 . S
Mn126 O142 2.297 . S
Mn126 O150 2.385 . S
Mn126 O151 2.209 . S
Mn126 O152 2.094 . S
Mn127 O132 2.121 . S
Mn127 N134 2.257 . S
Mn127 N143 2.282 . S
Mn127 O151 2.215 . S
Mn127 O153 2.117 . S
C128 O150 1.234 . S
C128 O151 1.283 . S
C129 O141 1.281 . S
C129 O142 1.236 . S
C130 O152 1.240 . S
C130 O153 1.264 . S
O131 Mn126 2.095 . S
O131 C140 1.250 . S
O132 Mn127 2.121 . S
O132 C140 1.258 . S
C133 N134 1.326 . S
C133 C137 1.460 . S
C133 H139 0.929 . S
N134 Mn127 2.257 . S
N134 C133 1.326 . S
N134 C138 1.362 . S
C135 C136 1.258 . S
C135 C138 1.431 . S
C135 C155 1.449 . S
C136 C135 1.258 . S
C136 C137 1.477 . S
C136 H156 0.931 . S
C137 C133 1.460 . S
C137 C136 1.477 . S
C137 H157 0.930 . S
C138 N134 1.362 . S
C138 C135 1.431 . S
C138 C148 1.476 . S
H139 C133 0.929 . S
C140 O131 1.250 . S
C140 O132 1.258 . S
O141 Mn126 2.162 . S
O141 C129 1.281 . S
O142 Mn126 2.297 . S
O142 C129 1.236 . S
N143 Mn127 2.282 . S
N143 C144 1.328 . S
N143 C148 1.318 . S
C144 N143 1.328 . S
C144 C145 1.457 . S
C144 H149 0.929 . S
C145 C144 1.457 . S
C145 C146 1.291 . S
C145 H158 0.931 . S
C146 C145 1.291 . S
C146 C147 1.373 . S
C146 H159 0.929 . S
C147 C146 1.373 . S
C147 C148 1.396 . S
C147 C154 1.403 . S
C148 C138 1.476 . S
C148 N143 1.318 . S
C148 C147 1.396 . S
H149 C144 0.929 . S
O150 Mn126 2.385 . S
O150 C128 1.234 . S
O151 Mn126 2.209 . S
O151 Mn127 2.215 . S
O151 C128 1.283 . S
O152 Mn126 2.094 . S
O152 C130 1.240 . S
O153 Mn127 2.117 . S
O153 C130 1.264 . S
C154 C147 1.403 . S
C154 C155 1.399 . S
C154 H160 0.929 . S
C155 C135 1.449 . S
C155 C154 1.399 . S
C155 H161 0.930 . S
H156 C136 0.931 . S
H157 C137 0.930 . S
H158 C145 0.931 . S
H159 C146 0.929 . S
H160 C154 0.929 . S
H161 C155 0.930 . S
Mn162 O167 2.095 . S
Mn162 O177 2.162 . S
Mn162 O178 2.297 . S
Mn162 O186 2.385 . S
Mn162 O187 2.209 . S
Mn162 O188 2.094 . S
Mn163 O168 2.121 . S
Mn163 N170 2.257 . S
Mn163 N179 2.282 . S
Mn163 O187 2.215 . S
Mn163 O189 2.117 . S
C164 O186 1.234 . S
C164 O187 1.283 . S
C165 O177 1.281 . S
C165 O178 1.236 . S
C166 O188 1.240 . S
C166 O189 1.264 . S
O167 Mn162 2.095 . S
O167 C176 1.250 . S
O168 Mn163 2.121 . S
O168 C176 1.258 . S
C169 N170 1.326 . S
C169 C173 1.460 . S
C169 H175 0.929 . S
N170 Mn163 2.257 . S
N170 C169 1.326 . S
N170 C174 1.362 . S
C171 C172 1.258 . S
C171 C174 1.431 . S
C171 C191 1.449 . S
C172 C171 1.258 . S
C172 C173 1.477 . S
C172 H192 0.931 . S
C173 C169 1.460 . S
C173 C172 1.477 . S
C173 H193 0.930 . S
C174 N170 1.362 . S
C174 C171 1.431 . S
C174 C184 1.476 . S
H175 C169 0.929 . S
C176 O167 1.250 . S
C176 O168 1.258 . S
O177 Mn162 2.162 . S
O177 C165 1.281 . S
O178 Mn162 2.297 . S
O178 C165 1.236 . S
N179 Mn163 2.282 . S
N179 C180 1.328 . S
N179 C184 1.318 . S
C180 N179 1.328 . S
C180 C181 1.457 1_455 S
C180 H185 0.929 . S
C181 C180 1.457 1_655 S
C181 C182 1.291 . S
C181 H194 0.931 . S
C182 C181 1.291 . S
C182 C183 1.373 . S
C182 H195 0.929 . S
C183 C182 1.373 . S
C183 C184 1.396 1_655 S
C183 C190 1.403 . S
C184 C174 1.476 . S
C184 N179 1.318 . S
C184 C183 1.396 1_455 S
H185 C180 0.929 . S
O186 Mn162 2.385 . S
O186 C164 1.234 . S
O187 Mn162 2.209 . S
O187 Mn163 2.215 . S
O187 C164 1.283 . S
O188 Mn162 2.094 . S
O188 C166 1.240 . S
O189 Mn163 2.117 . S
O189 C166 1.264 . S
C190 C183 1.403 . S
C190 C191 1.399 1_655 S
C190 H196 0.929 . S
C191 C171 1.449 . S
C191 C190 1.399 1_455 S
C191 H197 0.930 1_455 S
H192 C172 0.931 . S
H193 C173 0.930 . S
H194 C181 0.931 . S
H195 C182 0.929 . S
H196 C190 0.929 . S
H197 C191 0.930 1_655 S
Mn198 O203 2.095 . S
Mn198 O213 2.162 . S
Mn198 O214 2.297 . S
Mn198 O222 2.385 . S
Mn198 O223 2.209 . S
Mn198 O224 2.094 . S
Mn199 O204 2.121 . S
Mn199 N206 2.257 . S
Mn199 N215 2.282 . S
Mn199 O223 2.215 . S
Mn199 O225 2.117 . S
C200 O222 1.234 . S
C200 O223 1.283 . S
C201 O213 1.281 . S
C201 O214 1.236 . S
C202 O224 1.240 . S
C202 O225 1.264 . S
O203 Mn198 2.095 . S
O203 C212 1.250 . S
O204 Mn199 2.121 . S
O204 C212 1.258 . S
C205 N206 1.326 . S
C205 C209 1.460 . S
C205 H211 0.929 . S
N206 Mn199 2.257 . S
N206 C205 1.326 . S
N206 C210 1.362 . S
C207 C208 1.258 . S
C207 C210 1.431 . S
C207 C227 1.449 . S
C208 C207 1.258 . S
C208 C209 1.477 . S
C208 H228 0.931 . S
C209 C205 1.460 . S
C209 C208 1.477 . S
C209 H229 0.930 . S
C210 N206 1.362 . S
C210 C207 1.431 . S
C210 C220 1.476 . S
H211 C205 0.929 . S
C212 O203 1.250 . S
C212 O204 1.258 . S
O213 Mn198 2.162 . S
O213 C201 1.281 . S
O214 Mn198 2.297 . S
O214 C201 1.236 . S
N215 Mn199 2.282 . S
N215 C216 1.328 . S
N215 C220 1.318 . S
C216 N215 1.328 . S
C216 C217 1.457 1_545 S
C216 H221 0.929 . S
C217 C216 1.457 1_565 S
C217 C218 1.291 . S
C217 H230 0.931 . S
C218 C217 1.291 . S
C218 C219 1.373 . S
C218 H231 0.929 . S
C219 C218 1.373 . S
C219 C220 1.396 1_565 S
C219 C226 1.403 . S
C220 C210 1.476 . S
C220 N215 1.318 . S
C220 C219 1.396 1_545 S
H221 C216 0.929 . S
O222 Mn198 2.385 . S
O222 C200 1.234 . S
O223 Mn198 2.209 . S
O223 Mn199 2.215 . S
O223 C200 1.283 . S
O224 Mn198 2.094 . S
O224 C202 1.240 . S
O225 Mn199 2.117 . S
O225 C202 1.264 . S
C226 C219 1.403 . S
C226 C227 1.399 1_565 S
C226 H232 0.929 . S
C227 C207 1.449 . S
C227 C226 1.399 1_545 S
C227 H233 0.930 1_545 S
H228 C208 0.931 . S
H229 C209 0.930 . S
H230 C217 0.931 . S
H231 C218 0.929 . S
H232 C226 0.929 . S
H233 C227 0.930 1_565 S
Mn234 O239 2.095 . S
Mn234 O249 2.162 . S
Mn234 O250 2.297 . S
Mn234 O258 2.385 . S
Mn234 O259 2.209 . S
Mn234 O260 2.094 . S
Mn235 O240 2.121 . S
Mn235 N242 2.257 . S
Mn235 N251 2.282 . S
Mn235 O259 2.215 . S
Mn235 O261 2.117 . S
C236 O258 1.234 . S
C236 O259 1.283 . S
C237 O249 1.281 . S
C237 O250 1.236 . S
C238 O260 1.240 . S
C238 O261 1.264 . S
O239 Mn234 2.095 . S
O239 C248 1.250 . S
O240 Mn235 2.121 . S
O240 C248 1.258 . S
C241 N242 1.326 1_554 S
C241 C245 1.460 . S
C241 H247 0.929 1_554 S
N242 Mn235 2.257 . S
N242 C241 1.326 1_556 S
N242 C246 1.362 1_556 S
C243 C244 1.258 . S
C243 C246 1.431 . S
C243 C263 1.449 . S
C244 C243 1.258 . S
C244 C245 1.477 . S
C244 H264 0.931 . S
C245 C241 1.460 . S
C245 C244 1.477 . S
C245 H265 0.930 . S
C246 N242 1.362 1_554 S
C246 C243 1.431 . S
C246 C256 1.476 1_554 S
H247 C241 0.929 1_556 S
C248 O239 1.250 . S
C248 O240 1.258 . S
O249 Mn234 2.162 . S
O249 C237 1.281 . S
O250 Mn234 2.297 . S
O250 C237 1.236 . S
N251 Mn235 2.282 . S
N251 C252 1.328 . S
N251 C256 1.318 . S
C252 N251 1.328 . S
C252 C253 1.457 . S
C252 H257 0.929 . S
C253 C252 1.457 . S
C253 C254 1.291 1_556 S
C253 H266 0.931 . S
C254 C253 1.291 1_554 S
C254 C255 1.373 . S
C254 H267 0.929 . S
C255 C254 1.373 . S
C255 C256 1.396 1_554 S
C255 C262 1.403 . S
C256 C246 1.476 1_556 S
C256 N251 1.318 . S
C256 C255 1.396 1_556 S
H257 C252 0.929 . S
O258 Mn234 2.385 . S
O258 C236 1.234 . S
O259 Mn234 2.209 . S
O259 Mn235 2.215 . S
O259 C236 1.283 . S
O260 Mn234 2.094 . S
O260 C238 1.240 . S
O261 Mn235 2.117 . S
O261 C238 1.264 . S
C262 C255 1.403 . S
C262 C263 1.399 . S
C262 H268 0.929 . S
C263 C243 1.449 . S
C263 C262 1.399 . S
C263 H269 0.930 . S
H264 C244 0.931 . S
H265 C245 0.930 . S
H266 C253 0.931 . S
H267 C254 0.929 . S
H268 C262 0.929 . S
H269 C263 0.930 . S
Mn270 O275 2.095 . S
Mn270 O285 2.162 . S
Mn270 O286 2.297 . S
Mn270 O294 2.385 . S
Mn270 O295 2.209 . S
Mn270 O296 2.094 1_554 S
Mn271 O276 2.121 . S
Mn271 N278 2.257 . S
Mn271 N287 2.282 . S
Mn271 O295 2.215 . S
Mn271 O297 2.117 . S
C272 O294 1.234 . S
C272 O295 1.283 . S
C273 O285 1.281 . S
C273 O286 1.236 . S
C274 O296 1.240 . S
C274 O297 1.264 1_556 S
O275 Mn270 2.095 . S
O275 C284 1.250 . S
O276 Mn271 2.121 . S
O276 C284 1.258 . S
C277 N278 1.326 . S
C277 C281 1.460 . S
C277 H283 0.929 . S
N278 Mn271 2.257 . S
N278 C277 1.326 . S
N278 C282 1.362 . S
C279 C280 1.258 . S
C279 C282 1.431 . S
C279 C299 1.443 1_655 S
C280 C279 1.258 . S
C280 C281 1.477 . S
C280 H300 0.931 . S
C281 C277 1.460 . S
C281 C280 1.477 . S
C281 H301 0.930 . S
C282 N278 1.362 . S
C282 C279 1.431 . S
C282 C292 1.476 . S
H283 C277 0.929 . S
C284 O275 1.250 . S
C284 O276 1.258 . S
O285 Mn270 2.162 . S
O285 C273 1.281 . S
O286 Mn270 2.297 . S
O286 C273 1.236 . S
N287 Mn271 2.282 . S
N287 C288 1.328 . S
N287 C292 1.318 . S
C288 N287 1.328 . S
C288 C289 1.457 1_655 S
C288 H293 0.929 . S
C289 C288 1.457 1_455 S
C289 C290 1.291 . S
C289 H302 0.931 . S
C290 C289 1.291 . S
C290 C291 1.373 . S
C290 H303 0.929 . S
C291 C290 1.373 . S
C291 C292 1.396 1_455 S
C291 C298 1.403 . S
C292 C282 1.476 . S
C292 N287 1.318 . S
C292 C291 1.396 1_655 S
H293 C288 0.929 . S
O294 Mn270 2.385 . S
O294 C272 1.234 . S
O295 Mn270 2.209 . S
O295 Mn271 2.215 . S
O295 C272 1.283 . S
O296 Mn270 2.094 1_556 S
O296 C274 1.240 . S
O297 Mn271 2.117 . S
O297 C274 1.264 1_554 S
C298 C291 1.403 . S
C298 C299 1.402 . S
C298 H304 0.929 . S
C299 C279 1.443 1_455 S
C299 C298 1.402 . S
C299 H305 0.934 . S
H300 C280 0.931 . S
H301 C281 0.930 . S
H302 C289 0.931 . S
H303 C290 0.929 . S
H304 C298 0.929 . S
H305 C299 0.934 . S
Mn306 O311 2.095 . S
Mn306 O321 2.162 . S
Mn306 O322 2.297 . S
Mn306 O330 2.385 . S
Mn306 O331 2.209 . S
Mn306 O332 2.094 . S
Mn307 O312 2.121 . S
Mn307 N314 2.257 . S
Mn307 N323 2.282 . S
Mn307 O331 2.215 . S
Mn307 O333 2.117 . S
C308 O330 1.234 . S
C308 O331 1.283 . S
C309 O321 1.281 . S
C309 O322 1.236 . S
C310 O332 1.240 . S
C310 O333 1.264 . S
O311 Mn306 2.095 . S
O311 C320 1.250 . S
O312 Mn307 2.121 . S
O312 C320 1.258 . S
C313 N314 1.326 . S
C313 C317 1.460 . S
C313 H319 0.929 . S
N314 Mn307 2.257 . S
N314 C313 1.326 . S
N314 C318 1.362 . S
C315 C316 1.258 . S
C315 C318 1.431 . S
C315 C335 1.449 1_565 S
C316 C315 1.258 . S
C316 C317 1.477 . S
C316 H336 0.931 . S
C317 C313 1.460 . S
C317 C316 1.477 . S
C317 H337 0.930 . S
C318 N314 1.362 . S
C318 C315 1.431 . S
C318 C328 1.476 . S
H319 C313 0.929 . S
C320 O311 1.250 . S
C320 O312 1.258 . S
O321 Mn306 2.162 . S
O321 C309 1.281 . S
O322 Mn306 2.297 . S
O322 C309 1.236 . S
N323 Mn307 2.282 . S
N323 C324 1.328 1_565 S
N323 C328 1.318 . S
C324 N323 1.328 1_545 S
C324 C325 1.457 . S
C324 H329 0.929 1_545 S
C325 C324 1.457 . S
C325 C326 1.291 . S
C325 H338 0.931 . S
C326 C325 1.291 . S
C326 C327 1.373 . S
C326 H339 0.929 . S
C327 C326 1.373 . S
C327 C328 1.396 1_545 S
C327 C334 1.403 . S
C328 C318 1.476 . S
C328 N323 1.318 . S
C328 C327 1.396 1_565 S
H329 C324 0.929 1_565 S
O330 Mn306 2.385 . S
O330 C308 1.234 . S
O331 Mn306 2.209 . S
O331 Mn307 2.215 . S
O331 C308 1.283 . S
O332 Mn306 2.094 . S
O332 C310 1.240 . S
O333 Mn307 2.117 . S
O333 C310 1.264 . S
C334 C327 1.403 . S
C334 C335 1.399 . S
C334 H340 0.929 . S
C335 C315 1.449 1_545 S
C335 C334 1.399 . S
C335 H341 0.930 . S
H336 C316 0.931 . S
H337 C317 0.930 . S
H338 C325 0.931 . S
H339 C326 0.929 . S
H340 C334 0.929 . S
H341 C335 0.930 . S
C309 C19 1.543 . S
C40 C129 1.584 . S
C51 C176 1.493 . S
C72 C212 1.430 . S
C237 C103 1.475 . S
C114 C273 1.453 . S
C30 C165 1.532 . S
C61 C201 1.511 . S
C82 C248 1.404 . S
C284 C93 1.437 . S
C320 C124 1.560 . S
C140 C9 1.529 . S
C17 C164 1.409 . S
C38 C200 1.415 . S
C238 C54 1.470 . S
C75 C274 1.449 . S
C310 C101 1.341 . S
C130 C117 1.342 . S
C308 C33 1.388 . S
C59 C128 1.380 . S
C166 C80 1.434 . S
C96 C202 1.449 . S
C122 C236 1.505 1_554 S
C12 C272 1.501 . S
