# Generated by pormake.
# Topology anh, (6,3)-cn, num edge types: 1
# Building blocks:
#     Node 0, Type 0, BuildingBlock: BETDAH_clean_sbu_0, # of connection points: 6
#     Node 1, Type 0, BuildingBlock: BETDAH_clean_sbu_0, # of connection points: 6
#     Node 2, Type 0, BuildingBlock: BETDAH_clean_sbu_0, # of connection points: 6
#     Node 3, Type 1, BuildingBlock: MIDCAF_clean_linker_0, # of connection points: 3
#     Node 4, Type 1, BuildingBlock: MIDCAF_clean_linker_0, # of connection points: 3
#     Node 5, Type 1, BuildingBlock: MIDCAF_clean_linker_0, # of connection points: 3
#     Node 6, Type 1, BuildingBlock: MIDCAF_clean_linker_0, # of connection points: 3
#     Node 7, Type 1, BuildingBlock: MIDCAF_clean_linker_0, # of connection points: 3
#     Node 8, Type 1, BuildingBlock: MIDCAF_clean_linker_0, # of connection points: 3
#     Edge 9, Type (0, 1), BuildingBlock: XUDNAN_clean_linker_2, # of connection points: 2
#     Edge 10, Type (0, 1), BuildingBlock: XUDNAN_clean_linker_2, # of connection points: 2
#     Edge 11, Type (0, 1), BuildingBlock: XUDNAN_clean_linker_2, # of connection points: 2
#     Edge 12, Type (0, 1), BuildingBlock: XUDNAN_clean_linker_2, # of connection points: 2
#     Edge 13, Type (0, 1), BuildingBlock: XUDNAN_clean_linker_2, # of connection points: 2
#     Edge 14, Type (0, 1), BuildingBlock: XUDNAN_clean_linker_2, # of connection points: 2
#     Edge 15, Type (0, 1), BuildingBlock: XUDNAN_clean_linker_2, # of connection points: 2
#     Edge 16, Type (0, 1), BuildingBlock: XUDNAN_clean_linker_2, # of connection points: 2
#     Edge 17, Type (0, 1), BuildingBlock: XUDNAN_clean_linker_2, # of connection points: 2
#     Edge 18, Type (0, 1), BuildingBlock: XUDNAN_clean_linker_2, # of connection points: 2
#     Edge 19, Type (0, 1), BuildingBlock: XUDNAN_clean_linker_2, # of connection points: 2
#     Edge 20, Type (0, 1), BuildingBlock: XUDNAN_clean_linker_2, # of connection points: 2
#     Edge 21, Type (0, 1), BuildingBlock: XUDNAN_clean_linker_2, # of connection points: 2
#     Edge 22, Type (0, 1), BuildingBlock: XUDNAN_clean_linker_2, # of connection points: 2
#     Edge 23, Type (0, 1), BuildingBlock: XUDNAN_clean_linker_2, # of connection points: 2
#     Edge 24, Type (0, 1), BuildingBlock: XUDNAN_clean_linker_2, # of connection points: 2
#     Edge 25, Type (0, 1), BuildingBlock: XUDNAN_clean_linker_2, # of connection points: 2
#     Edge 26, Type (0, 1), BuildingBlock: XUDNAN_clean_linker_2, # of connection points: 2
# Relax obj value: 0.183
# Max RMSD: 0.211
# Mean RMSD: 0.157
data_MOF--net-anh--node1-BETDAH_clean_sbu_0--node2-MIDCAF_clean_linker_0--edge1-XUDNAN_clean_linker_2
_symmetry_space_group_name_H-M    P1
_symmetry_Int_Tables_number       1
_symmetry_cell_setting            triclinic
loop_
_symmetry_equiv_pos_as_xyz
'x, y, z'
_cell_length_a     36.08447
_cell_length_b     43.437904
_cell_length_c     66.436664
_cell_angle_alpha  92.630685
_cell_angle_beta   89.600513
_cell_angle_gamma 128.47428
loop_
_atom_site_label
_atom_site_type_symbol
_atom_site_fract_x
_atom_site_fract_y
_atom_site_fract_z
_atom_type_partial_charge
Ho0 Ho 0.14703 0.56141 0.16216 0.0
Ho1 Ho 0.07185 0.57284 0.16037 0.0
C2 C 0.18177 0.6498 0.1573 0.0
C3 C 0.21159 0.55302 0.15797 0.0
C4 C 0.24643 0.55769 0.14419 0.0
C5 C 0.24424 0.56245 0.12362 0.0
C6 C 0.26464 0.55237 0.10961 0.0
C7 C 0.28693 0.53693 0.11605 0.0
C8 C 0.29377 0.53681 0.13688 0.0
C9 C 0.27369 0.54717 0.15081 0.0
C10 C 0.10854 0.55817 0.19791 0.0
C11 C 1.03834 0.48595 0.16018 0.0
C12 C 1.01173 0.58492 0.16853 0.0
C13 C 0.96021 0.55714 0.17085 0.0
C14 C 0.9386 0.51866 0.17649 0.0
C15 C 0.8896 0.49173 0.17817 0.0
C16 C 0.8612 0.50272 0.17421 0.0
C17 C 0.88304 0.54153 0.16889 0.0
C18 C 0.93222 0.56852 0.16721 0.0
C19 C 0.08932 0.55224 0.12451 0.0
O20 O 0.19395 0.62662 0.1576 0.0
O21 O 0.13711 0.63595 0.15831 0.0
O22 O 0.22002 0.58428 0.16705 0.0
O23 O 0.16755 0.52677 0.15177 0.0
O24 O 0.12223 0.53764 0.1931 0.0
O25 O 0.11926 0.58117 0.18426 0.0
O26 O 1.02903 0.50915 0.16753 0.0
O27 O 0.08049 0.50089 0.15309 0.0
O28 O 1.02684 0.58668 0.15033 0.0
O29 O 1.0364 0.58364 0.18229 0.0
O30 O 1.04768 0.54041 0.12967 0.0
O31 O 0.11932 0.57549 0.13813 0.0
H32 H 0.22332 0.57054 0.11827 0.0
H33 H 0.25967 0.5537 0.0937 0.0
H34 H 0.31037 0.5249 0.14251 0.0
H35 H 0.27545 0.54307 0.16665 0.0
H36 H 0.95956 0.5093 0.17951 0.0
H37 H 0.87393 0.46221 0.18246 0.0
H38 H 0.86203 0.55069 0.16542 0.0
H39 H 0.94831 0.59806 0.16281 0.0
Ho40 Ho 0.63931 0.01291 0.48062 0.0
Ho41 Ho 0.57499 0.03571 0.4775 0.0
C42 C 0.52474 0.94562 0.48007 0.0
C43 C 0.6788 0.982 0.49001 0.0
C44 C 0.66123 0.94176 0.49327 0.0
C45 C 0.61548 0.90911 0.48663 0.0
C46 C 0.59864 0.87098 0.49025 0.0
C47 C 0.62732 0.86481 0.50051 0.0
C48 C 0.67329 0.89768 0.50699 0.0
C49 C 0.69003 0.93582 0.50342 0.0
C50 C 0.61948 0.02056 0.44306 0.0
C51 C 0.69097 0.10392 0.47901 0.0
C52 C 0.53538 0.06606 0.46731 0.0
C53 C 0.5465 0.10473 0.4709 0.0
C54 C 0.53227 0.1185 0.45661 0.0
C55 C 0.54229 0.15507 0.4599 0.0
C56 C 0.56648 0.17836 0.47762 0.0
C57 C 0.58118 0.16464 0.49181 0.0
C58 C 0.57154 0.12825 0.48843 0.0
C59 C 0.59662 0.03035 0.51531 0.0
O60 O 0.5661 0.95724 0.48713 0.0
O61 O 0.52066 0.97051 0.4718 0.0
O62 O 0.67472 0.98894 0.47155 0.0
O63 O 0.66655 0.99704 0.50337 0.0
O64 O 0.66066 0.03176 0.4488 0.0
O65 O 0.59068 1.00455 0.4571 0.0
O66 O 0.64889 0.0937 0.47404 0.0
O67 O 0.69583 0.07784 0.48473 0.0
O68 O 0.52356 0.04504 0.4831 0.0
O69 O 0.56441 0.06542 0.45574 0.0
O70 O 0.55607 0.02095 0.51007 0.0
O71 O 0.62405 0.04463 0.5008 0.0
H72 H 0.59277 0.91308 0.47867 0.0
H73 H 0.56328 0.84631 0.48488 0.0
H74 H 0.69601 0.89398 0.51519 0.0
H75 H 0.72535 0.96071 0.50872 0.0
H76 H 0.51315 0.10084 0.44295 0.0
H77 H 0.53029 0.16479 0.44876 0.0
H78 H 0.60045 0.1822 0.50547 0.0
H79 H 0.58345 0.1184 0.49953 0.0
Ho80 Ho 0.67048 0.58264 0.84282 0.0
Ho81 Ho 0.60293 0.49305 0.84372 0.0
C82 C 0.55608 0.53592 0.84373 0.0
C83 C 0.71272 0.65539 0.83538 0.0
C84 C 0.69875 0.68079 0.83325 0.0
C85 C 0.67994 0.68119 0.81487 0.0
C86 C 0.66789 0.7059 0.81285 0.0
C87 C 0.67441 0.73084 0.82913 0.0
C88 C 0.69304 0.73036 0.84751 0.0
C89 C 0.70531 0.70577 0.84951 0.0
C90 C 0.65306 0.55281 0.87951 0.0
C91 C 0.71891 0.54111 0.84234 0.0
C92 C 0.55862 0.42074 0.85278 0.0
C93 C 0.55913 0.38779 0.84771 0.0
C94 C 0.59525 0.39282 0.8363 0.0
C95 C 0.59353 0.36039 0.83091 0.0
C96 C 0.55553 0.32253 0.83679 0.0
C97 C 0.52023 0.31807 0.8487 0.0
C98 C 0.52203 0.35042 0.85408 0.0
C99 C 0.62095 0.52074 0.80647 0.0
O100 O 0.59803 0.56683 0.8378 0.0
O101 O 0.55055 0.50478 0.85009 0.0
O102 O 0.71062 0.64362 0.85343 0.0
O103 O 0.69757 0.62759 0.8213 0.0
O104 O 0.69424 0.58387 0.87443 0.0
O105 O 0.62343 0.54062 0.8653 0.0
O106 O 0.67627 0.50799 0.84627 0.0
O107 O 0.72465 0.57336 0.83813 0.0
O108 O 0.54454 0.43111 0.83838 0.0
O109 O 0.59537 0.45089 0.86304 0.0
O110 O 0.58118 0.48817 0.81138 0.0
O111 O 0.65036 0.5348 0.82097 0.0
H112 H 0.67464 0.66252 0.80198 0.0
H113 H 0.65321 0.70534 0.79855 0.0
H114 H 0.6991 0.74962 0.86024 0.0
H115 H 0.72027 0.70655 0.86379 0.0
H116 H 0.62423 0.42161 0.8313 0.0
H117 H 0.62107 0.36472 0.82163 0.0
H118 H 0.49092 0.28945 0.85373 0.0
H119 H 0.49404 0.34613 0.86301 0.0
C120 C 0.47972 0.92914 0.19435 0.0
C121 C 0.46189 0.9273 0.17525 0.0
C122 C 0.48408 0.96251 0.16518 0.0
C123 C 0.5228 0.99879 0.17425 0.0
H124 H 0.65001 0.13639 0.17177 0.0
H125 H 0.71816 0.1988 0.15828 0.0
H126 H 0.80767 0.21236 0.20635 0.0
H127 H 0.74015 0.15127 0.2201 0.0
H128 H 0.67938 0.08853 0.26295 0.0
H129 H 0.6714 0.07855 0.29905 0.0
H130 H 0.53151 0.04685 0.2955 0.0
H131 H 0.53854 0.05351 0.25925 0.0
H132 H 0.52959 0.96511 0.21835 0.0
H133 H 0.46325 0.90285 0.2027 0.0
H134 H 0.47125 0.96202 0.15039 0.0
H135 H 0.53871 0.02551 0.16638 0.0
N136 N 0.61305 0.07072 0.19534 0.0
N137 N 0.64795 0.10344 0.22701 0.0
N138 N 0.57619 0.03949 0.22525 0.0
C139 C 0.64888 0.10346 0.20652 0.0
C140 C 0.61127 0.07178 0.23638 0.0
C141 C 0.57685 0.03825 0.20482 0.0
C142 C 0.68977 0.13896 0.19698 0.0
C143 C 0.68435 0.15265 0.17932 0.0
C144 C 0.72308 0.18837 0.17172 0.0
C145 C 0.76791 0.21027 0.18139 0.0
C146 C 0.77343 0.19602 0.19868 0.0
C147 C 0.73477 0.16106 0.20651 0.0
C148 C 0.60944 0.07149 0.25848 0.0
C149 C 0.64722 0.07974 0.27008 0.0
C150 C 0.64257 0.07419 0.29081 0.0
C151 C 0.60044 0.0613 0.30041 0.0
C152 C 0.56385 0.0554 0.28873 0.0
C153 C 0.56797 0.05969 0.26796 0.0
C154 C 0.53927 1.00047 0.1937 0.0
C155 C 0.51762 0.96509 0.20344 0.0
C156 C 0.61847 0.42116 0.55007 0.0
C157 C 0.6042 0.41262 0.52961 0.0
C158 C 0.59252 0.43432 0.52052 0.0
C159 C 0.59472 0.46359 0.53167 0.0
H160 H 0.61727 0.57518 0.52751 0.0
H161 H 0.6058 0.61979 0.513 0.0
H162 H 0.5572 0.63162 0.57019 0.0
H163 H 0.5691 0.58784 0.58472 0.0
H164 H 0.65118 0.59796 0.62085 0.0
H165 H 0.6639 0.60506 0.65737 0.0
H166 H 0.61873 0.48682 0.65752 0.0
H167 H 0.60649 0.47967 0.6209 0.0
H168 H 0.63158 0.45581 0.57695 0.0
H169 H 0.62857 0.40559 0.55749 0.0
H170 H 0.58086 0.42823 0.50486 0.0
H171 H 0.58507 0.47944 0.52421 0.0
N172 N 0.6026 0.52565 0.55537 0.0
N173 N 0.61145 0.55673 0.58683 0.0
N174 N 0.61788 0.50629 0.58458 0.0
C175 C 0.60316 0.55291 0.56663 0.0
C176 C 0.61896 0.53367 0.59592 0.0
C177 C 0.60986 0.50212 0.5643 0.0
C178 C 0.59428 0.57813 0.55727 0.0
C179 C 0.60384 0.58713 0.5369 0.0
C180 C 0.59749 0.61271 0.52863 0.0
C181 C 0.58045 0.62894 0.54048 0.0
C182 C 0.56992 0.6192 0.56067 0.0
C183 C 0.57708 0.59434 0.56902 0.0
C184 C 0.62773 0.5382 0.61798 0.0
C185 C 0.64405 0.57348 0.62864 0.0
C186 C 0.65162 0.57768 0.64951 0.0
C187 C 0.64223 0.54648 0.66019 0.0
C188 C 0.62598 0.51123 0.6496 0.0
C189 C 0.61921 0.50725 0.62866 0.0
C190 C 0.60849 0.47177 0.5522 0.0
C191 C 0.62047 0.45023 0.56122 0.0
C192 C 0.97001 0.50015 0.87618 0.0
C193 C 0.9768 0.51927 0.85842 0.0
C194 C 1.01795 0.53311 0.84743 0.0
C195 C 1.05189 0.52938 0.85449 0.0
H196 H 0.19201 0.53697 0.84581 0.0
H197 H 0.26001 0.54191 0.83368 0.0
H198 H 0.26285 0.49385 0.88859 0.0
H199 H 0.19516 0.48777 0.90015 0.0
H200 H 0.17225 0.51032 0.93993 0.0
H201 H 0.175 0.51573 0.97657 0.0
H202 H 1.06386 0.52656 0.97576 0.0
H203 H 1.06023 0.52025 0.93907 0.0
H204 H 0.99707 0.48252 0.89728 0.0
H205 H 0.93958 0.48936 0.88533 0.0
H206 H 1.02445 0.54746 0.83348 0.0
H207 H 0.0837 0.54164 0.84606 0.0
N208 N 0.11769 0.51328 0.87279 0.0
N209 N 0.14853 0.51325 0.90397 0.0
N210 N 0.08395 0.51315 0.90338 0.0
C211 C 0.1501 0.51299 0.88352 0.0
C212 C 0.11603 0.51353 0.91403 0.0
C213 C 0.08382 0.51284 0.88291 0.0
C214 C 0.18781 0.5123 0.87409 0.0
C215 C 0.20666 0.52682 0.85509 0.0
C216 C 0.24619 0.53003 0.84825 0.0
C217 C 0.2679 0.51859 0.86015 0.0
C218 C 0.24753 0.50264 0.87872 0.0
C219 C 0.20849 0.49954 0.88549 0.0
C220 C 0.11622 0.51508 0.93644 0.0
C221 C 0.14817 0.51365 0.9475 0.0
C222 C 0.14992 0.51694 0.96857 0.0
C223 C 0.11989 0.52187 0.97915 0.0
C224 C 0.08717 0.52239 0.96813 0.0
C225 C 0.08533 0.51901 0.94704 0.0
C226 C 1.0458 0.51191 0.87281 0.0
C227 C 1.00367 0.49655 0.88319 0.0
C228 C 0.18874 0.67461 0.4543 0.0
C229 C 0.22416 0.67512 0.46352 0.0
C230 C 0.21518 0.63882 0.46562 0.0
C231 C 0.17299 0.60343 0.45792 0.0
H232 H 1.03848 0.4779 0.4706 0.0
H233 H 0.98492 0.4122 0.48374 0.0
H234 H 0.90694 0.36704 0.42685 0.0
H235 H 0.95931 0.43211 0.41388 0.0
H236 H 0.99791 0.48119 0.37643 0.0
H237 H 0.99397 0.48735 0.34037 0.0
H238 H 0.10041 0.61355 0.34848 0.0
H239 H 0.10402 0.60769 0.38449 0.0
H240 H 0.1218 0.64041 0.43837 0.0
H241 H 0.1932 0.70148 0.45295 0.0
H242 H 0.2415 0.63772 0.47238 0.0
H243 H 0.16792 0.57622 0.45898 0.0
N244 N 0.07162 0.53229 0.44408 0.0
N245 N 1.02905 0.50447 0.41325 0.0
N246 N 0.09199 0.57191 0.41661 0.0
C247 C 1.03563 0.50017 0.43273 0.0
C248 C 1.05707 0.54011 0.40504 0.0
C249 C 0.09959 0.56833 0.43603 0.0
C250 C 1.00347 0.46053 0.44115 0.0
C251 C 1.00982 0.45399 0.46092 0.0
C252 C 0.9792 0.41628 0.46844 0.0
C253 C 0.94144 0.38433 0.45639 0.0
C254 C 0.93505 0.39102 0.4367 0.0
C255 C 0.96555 0.42849 0.42919 0.0
C256 C 1.05154 0.54393 0.38341 0.0
C257 C 1.02011 0.51033 0.3706 0.0
C258 C 1.01798 0.51379 0.3499 0.0
C259 C 1.04698 0.5509 0.34157 0.0
C260 C 0.0772 0.58457 0.35446 0.0
C261 C 0.07949 0.58113 0.37512 0.0
C262 C 0.13945 0.60372 0.4476 0.0
C263 C 0.14735 0.6395 0.44617 0.0
C264 C 0.58293 0.11866 0.76333 0.0
C265 C 0.58839 0.12609 0.78427 0.0
C266 C 0.60539 0.11071 0.79577 0.0
C267 C 0.61531 0.08702 0.78643 0.0
H268 H 0.63436 1.00021 0.79649 0.0
H269 H 0.63825 0.95402 0.81402 0.0
H270 H 0.61189 0.88928 0.75748 0.0
H271 H 0.60945 0.93575 0.73998 0.0
H272 H 0.59623 0.96588 0.69824 0.0
H273 H 0.60164 0.96701 0.66138 0.0
H274 H 0.67181 0.09159 0.66493 0.0
H275 H 0.66527 0.09052 0.70163 0.0
H276 H 0.58827 0.09025 0.73779 0.0
H277 H 0.56994 0.13036 0.75419 0.0
H278 H 0.60967 0.11609 0.81199 0.0
H279 H 0.62747 0.07479 0.79564 0.0
N280 N 0.61776 0.0267 0.76564 0.0
N281 N 0.62559 1.00129 0.73535 0.0
N282 N 0.62178 0.05307 0.73489 0.0
C283 C 0.62186 1.0008 0.75573 0.0
C284 C 0.62598 0.02754 0.72488 0.0
C285 C 0.61735 0.05277 0.7552 0.0
C286 C 0.62203 0.97197 0.76679 0.0
C287 C 0.62928 0.97605 0.78783 0.0
C288 C 0.63131 0.94945 0.79789 0.0
C289 C 0.62584 0.91809 0.78715 0.0
C290 C 0.61743 0.91358 0.7662 0.0
C291 C 0.61576 0.94022 0.75615 0.0
C292 C 0.63029 0.02812 0.70276 0.0
C293 C 0.61288 0.9935 0.69114 0.0
C294 C 0.61577 0.99405 0.67013 0.0
C295 C 0.6372 0.02939 0.66054 0.0
C296 C 0.65527 0.06408 0.67212 0.0
C297 C 0.65136 0.06337 0.69305 0.0
C298 C 0.6092 0.0791 0.76541 0.0
C299 C 0.59358 0.09574 0.75398 0.0
C300 C 0.55911 0.31504 0.10147 0.0
C301 C 0.54595 0.31668 0.12123 0.0
C302 C 0.49961 0.30323 0.12444 0.0
C303 C 0.46868 0.29197 0.1081 0.0
H304 H 0.37793 0.31366 0.09612 0.0
H305 H 0.34334 0.34673 0.10167 0.0
H306 H 0.30975 0.33268 0.03797 0.0
H307 H 0.34301 0.29877 0.03245 0.0
H308 H 0.42015 0.31658 0.00437 0.0
H309 H 0.46566 0.35627 0.9769 0.0
H310 H 0.58196 0.35848 0.99572 0.0
H311 H 0.5369 0.32075 0.02464 0.0
H312 H 0.54073 0.30518 0.0701 0.0
H313 H 0.59462 0.32542 0.09838 0.0
H314 H 0.4881 0.30339 0.13951 0.0
H315 H 0.4342 0.28397 0.11108 0.0
N316 N 0.41839 0.29134 0.07461 0.0
N317 N 0.414 0.30051 0.04061 0.0
N318 N 0.47281 0.29756 0.05202 0.0
C319 C 0.39703 0.29542 0.05941 0.0
C320 C 0.45171 0.30165 0.03667 0.0
C321 C 0.45581 0.2917 0.07101 0.0
C322 C 0.36422 0.30434 0.06377 0.0
C323 C 0.36178 0.31642 0.08339 0.0
C324 C 0.34247 0.33582 0.08654 0.0
C325 C 0.32506 0.34328 0.07017 0.0
C326 C 0.32304 0.32756 0.0509 0.0
C327 C 0.34231 0.30819 0.04774 0.0
C328 C 0.47517 0.31619 0.01711 0.0
C329 C 0.45516 0.32491 0.00262 0.0
C330 C 0.48143 0.34759 0.98653 0.0
C331 C 0.52817 0.36138 0.98402 0.0
C332 C 0.54665 0.34947 -0.00256 0.0
C333 C 0.52053 0.32731 0.01391 0.0
C334 C 0.4835 0.29396 0.08821 0.0
C335 C 0.52817 0.30366 0.08515 0.0
H336 H 0.35882 0.53126 0.11662 0.0
H337 H 0.22966 0.48831 0.08396 0.0
H338 H 0.22997 0.43781 0.06599 0.0
H339 H 0.41081 0.50653 0.07566 0.0
H340 H 0.43296 0.49165 0.09388 0.0
H341 H 0.4288 0.53007 0.10062 0.0
H342 H 0.37818 0.49105 0.13107 0.0
H343 H 0.38105 0.45209 0.12418 0.0
H344 H 0.32433 0.44131 0.12682 0.0
H345 H 0.23559 0.38463 0.05621 0.0
H346 H 0.25099 0.33656 0.05306 0.0
H347 H 0.3748 0.41275 0.0928 0.0
C348 C 0.33137 0.512 0.10527 0.0
C349 C 0.29438 0.51403 0.10172 0.0
C350 C 0.25905 0.48813 0.08672 0.0
C351 C 0.25862 0.45897 0.07651 0.0
C352 C 0.29386 0.45618 0.08136 0.0
C353 C 0.33012 0.48245 0.09511 0.0
C354 C 0.36082 0.47062 0.09919 0.0
C355 C 0.41134 0.50155 0.09189 0.0
C356 C 0.36107 0.46333 0.12164 0.0
C357 C 0.33487 0.43269 0.08629 0.0
C358 C 0.29673 0.42511 0.07591 0.0
C359 C 0.26593 0.39062 0.06394 0.0
C360 C 0.27483 0.36345 0.0623 0.0
C361 C 0.31394 0.37081 0.07274 0.0
C362 C 0.34423 0.40598 0.08484 0.0
H363 H 0.69907 0.16535 0.46321 0.0
H364 H 0.7795 0.13752 0.49442 0.0
H365 H 0.85094 0.20692 0.4938 0.0
H366 H 0.7901 0.23213 0.43026 0.0
H367 H 0.77602 0.26535 0.43077 0.0
H368 H 0.73038 0.21394 0.43474 0.0
H369 H 0.71117 0.23211 0.46877 0.0
H370 H 0.75679 0.28364 0.46492 0.0
H371 H 0.75775 0.2628 0.48757 0.0
H372 H 0.91448 0.27888 0.48885 0.0
H373 H 0.96616 0.34764 0.47863 0.0
H374 H 0.84475 0.32896 0.45069 0.0
C375 C 0.73158 0.17388 0.47007 0.0
C376 C 0.73354 0.14589 0.4789 0.0
C377 C 0.777 0.1583 0.48753 0.0
C378 C 0.81781 0.19775 0.48733 0.0
C379 C 0.81474 0.22452 0.47843 0.0
C380 C 0.77279 0.21314 0.46991 0.0
C381 C 0.77958 0.24746 0.46054 0.0
C382 C 0.76837 0.23922 0.43773 0.0
C383 C 0.74954 0.25706 0.47109 0.0
C384 C 0.83202 0.27975 0.46492 0.0
C385 C 0.85152 0.26598 0.47541 0.0
C386 C 0.89956 0.2901 0.48076 0.0
C387 C 0.92861 0.32921 0.47499 0.0
C388 C 0.90963 0.34384 0.46388 0.0
C389 C 0.86049 0.31868 0.45904 0.0
H390 H 0.69422 0.7765 0.79734 0.0
H391 H 0.6286 0.74641 0.85568 0.0
H392 H 0.60992 0.79186 0.85175 0.0
H393 H 0.74671 0.87894 0.8016 0.0
H394 H 0.73629 0.88108 0.7754 0.0
H395 H 0.7444 0.84628 0.78293 0.0
H396 H 0.66386 0.78916 0.76573 0.0
H397 H 0.65553 0.82379 0.75813 0.0
H398 H 0.61116 0.78283 0.77263 0.0
H399 H 0.5973 0.84011 0.84094 0.0
H400 H 0.59212 0.88711 0.82427 0.0
H401 H 0.66794 0.88618 0.77351 0.0
C402 C 0.67556 0.77919 0.80922 0.0
C403 C 0.66276 0.75784 0.8268 0.0
C404 C 0.6391 0.76275 0.84216 0.0
C405 C 0.62818 0.78835 0.84002 0.0
C406 C 0.64135 0.80895 0.82248 0.0
C407 C 0.66461 0.80468 0.80738 0.0
C408 C 0.67514 0.83025 0.79006 0.0
C409 C 0.72882 0.86096 0.78735 0.0
C410 C 0.6499 0.80499 0.77048 0.0
C411 C 0.65392 0.84944 0.7977 0.0
C412 C 0.63458 0.83684 0.81641 0.0
C413 C 0.61255 0.85031 0.82632 0.0
C414 C 0.61004 0.87721 0.81678 0.0
C415 C 0.62951 0.89038 0.79753 0.0
C416 C 0.652 0.87634 0.78806 0.0
H417 H 0.80675 0.42683 0.1587 0.0
H418 H 0.79761 0.51237 0.18905 0.0
H419 H 0.71053 0.46575 0.18474 0.0
H420 H 0.72828 0.3978 0.1218 0.0
H421 H 0.70128 0.34617 0.12035 0.0
H422 H 0.76086 0.38157 0.13005 0.0
H423 H 0.73824 0.34541 0.16342 0.0
H424 H 0.67873 0.30917 0.15338 0.0
H425 H 0.68889 0.33507 0.17727 0.0
H426 H 0.62788 0.41598 0.17185 0.0
H427 H 0.55748 0.36918 0.15005 0.0
H428 H 0.6191 0.31446 0.12869 0.0
C429 C 0.78631 0.43514 0.16519 0.0
C430 C 0.80887 0.47313 0.17428 0.0
C431 C 0.78101 0.48346 0.18193 0.0
C432 C 0.73152 0.457 0.17977 0.0
C433 C 0.71045 0.42018 0.17015 0.0
C434 C 0.73697 0.40908 0.16314 0.0
C435 C 0.7066 0.37022 0.15094 0.0
C436 C 0.72537 0.37423 0.12952 0.0
C437 C 0.70288 0.33804 0.1619 0.0
C438 C 0.65974 0.36283 0.15076 0.0
C439 C 0.66225 0.39122 0.16253 0.0
C440 C 0.62501 0.39297 0.16304 0.0
C441 C 0.58495 0.36603 0.15063 0.0
C442 C 0.58261 0.33795 0.1377 0.0
C443 C 0.61978 0.33546 0.13846 0.0
H444 H 0.44338 0.90407 0.45655 0.0
H445 H 0.51163 0.89227 0.5057 0.0
H446 H 0.44161 0.82229 0.50757 0.0
H447 H 0.32393 0.83985 0.47392 0.0
H448 H 0.29798 0.81899 0.44908 0.0
H449 H 0.35268 0.86847 0.45216 0.0
H450 H 0.39319 0.85036 0.42751 0.0
H451 H 0.33857 0.80089 0.42428 0.0
H452 H 0.39185 0.80917 0.43235 0.0
H453 H 0.36242 0.75364 0.50461 0.0
H454 H 0.28393 0.69103 0.49536 0.0
H455 H 0.2714 0.74678 0.44607 0.0
C456 C 0.44342 0.88684 0.46781 0.0
C457 C 0.48271 0.90372 0.48113 0.0
C458 C 0.48182 0.87998 0.49539 0.0
C459 C 0.44215 0.84023 0.4966 0.0
C460 C 0.40392 0.82449 0.48327 0.0
C461 C 0.40451 0.84695 0.46898 0.0
C462 C 0.35992 0.82253 0.45579 0.0
C463 C 0.33198 0.83841 0.45787 0.0
C464 C 0.37159 0.82062 0.43367 0.0
C465 C 0.33393 0.78292 0.465 0.0
C466 C 0.35961 0.78468 0.48094 0.0
C467 C 0.34223 0.75184 0.49199 0.0
C468 C 0.2976 0.71622 0.4865 0.0
C469 C 0.2709 0.71341 0.46989 0.0
C470 C 0.28987 0.74755 0.45908 0.0
H471 H 0.6253 0.31411 0.83492 0.0
H472 H 0.47569 0.25174 0.82222 0.0
H473 H 0.46727 0.19334 0.80977 0.0
H474 H 0.64626 0.27666 0.79135 0.0
H475 H 0.68713 0.27264 0.80387 0.0
H476 H 0.68109 0.30898 0.81293 0.0
H477 H 0.66192 0.2808 0.84837 0.0
H478 H 0.66772 0.24422 0.8394 0.0
H479 H 0.61391 0.22927 0.85106 0.0
H480 H 0.4755 0.14355 0.79667 0.0
H481 H 0.50022 0.10468 0.78377 0.0
H482 H 0.64397 0.1977 0.80537 0.0
C483 C 0.59078 0.2881 0.82957 0.0
C484 C 0.55104 0.28738 0.82971 0.0
C485 C 0.50643 0.25276 0.82261 0.0
C486 C 0.50132 0.21947 0.81544 0.0
C487 C 0.54107 0.22111 0.81552 0.0
C488 C 0.58495 0.25441 0.82243 0.0
C489 C 0.62214 0.24858 0.82029 0.0
C490 C 0.66147 0.27848 0.80627 0.0
C491 C 0.64262 0.25085 0.84102 0.0
C492 C 0.5924 0.20707 0.81075 0.0
C493 C 0.5457 0.19183 0.80821 0.0
C494 C 0.51179 0.15489 0.79879 0.0
C495 C 0.52608 0.13308 0.79152 0.0
C496 C 0.57369 0.14815 0.79385 0.0
C497 C 0.60716 0.18536 0.80381 0.0
H498 H 0.67443 0.83378 0.49798 0.0
H499 H 0.5391 0.80461 0.51336 0.0
H500 H 0.50981 0.73846 0.52228 0.0
H501 H 0.62777 0.73562 0.47724 0.0
H502 H 0.6764 0.73915 0.4876 0.0
H503 H 0.68538 0.78299 0.48074 0.0
H504 H 0.71738 0.81385 0.5169 0.0
H505 H 0.70865 0.77023 0.52384 0.0
H506 H 0.68159 0.78749 0.53813 0.0
H507 H 0.49771 0.67797 0.53242 0.0
H508 H 0.50354 0.6271 0.54275 0.0
H509 H 0.64631 0.69523 0.52054 0.0
C510 C 0.63854 0.81342 0.50312 0.0
C511 C 0.609 0.82436 0.5049 0.0
C512 C 0.56215 0.79672 0.51158 0.0
C513 C 0.54524 0.75911 0.51674 0.0
C514 C 0.57546 0.74946 0.515 0.0
C515 C 0.62104 0.77573 0.50827 0.0
C516 C 0.64707 0.75871 0.50868 0.0
C517 C 0.6599 0.75383 0.48729 0.0
C518 C 0.69127 0.78408 0.52273 0.0
C519 C 0.6094 0.71915 0.51719 0.0
C520 C 0.56825 0.7143 0.52061 0.0
C521 C 0.5295 0.68119 0.52956 0.0
C522 C 0.53315 0.65255 0.53542 0.0
C523 C 0.57517 0.65717 0.53225 0.0
C524 C 0.61342 0.69061 0.52272 0.0
H525 H 0.72869 0.48553 0.85477 0.0
H526 H 0.80732 0.60039 0.82947 0.0
H527 H 0.87909 0.60547 0.82944 0.0
H528 H 0.82297 0.50935 0.88774 0.0
H529 H 0.80962 0.46195 0.88424 0.0
H530 H 0.76322 0.46606 0.88155 0.0
H531 H 0.74278 0.43272 0.84569 0.0
H532 H 0.78913 0.4285 0.84828 0.0
H533 H 0.78854 0.45314 0.82733 0.0
H534 H 0.94406 0.59965 0.83284 0.0
H535 H 0.99729 0.58407 0.8404 0.0
H536 H 0.87855 0.47263 0.86328 0.0
C537 C 0.7609 0.51163 0.84909 0.0
C538 C 0.76174 0.54253 0.84208 0.0
C539 C 0.80512 0.57622 0.83495 0.0
C540 C 0.84637 0.57942 0.83483 0.0
C541 C 0.84446 0.54875 0.8419 0.0
C542 C 0.8029 0.51546 0.84893 0.0
C543 C 0.81126 0.48736 0.85621 0.0
C544 C 0.80117 0.4808 0.87878 0.0
C545 C 0.78113 0.4481 0.84363 0.0
C546 C 0.86394 0.51025 0.85233 0.0
C547 C 0.88219 0.54547 0.84394 0.0
C548 C 0.92999 0.57197 0.83929 0.0
C549 C 0.96007 0.56262 0.8435 0.0
C550 C 0.94281 0.52694 0.85239 0.0
C551 C 0.8936 0.50035 0.85664 0.0
H552 H 0.27706 0.6929 0.16558 0.0
H553 H 0.17182 0.70436 0.14607 0.0
H554 H 0.23402 0.77636 0.14505 0.0
H555 H 0.33963 0.77703 0.19869 0.0
H556 H 0.39721 0.79088 0.19355 0.0
H557 H 0.34544 0.74004 0.19063 0.0
H558 H 0.36701 0.73705 0.15369 0.0
H559 H 0.41888 0.788 0.15649 0.0
H560 H 0.37595 0.77193 0.1365 0.0
H561 H 0.30735 0.84791 0.148 0.0
H562 H 0.38394 0.91277 0.15711 0.0
H563 H 0.44083 0.85458 0.17518 0.0
C564 C 0.26718 0.71044 0.16075 0.0
C565 C 0.21952 0.69285 0.15575 0.0
C566 C 0.20804 0.71707 0.14994 0.0
C567 C 0.2432 0.75802 0.14921 0.0
C568 C 0.28976 0.77446 0.15441 0.0
C569 C 0.30174 0.7514 0.16016 0.0
C570 C 0.35359 0.77654 0.16652 0.0
C571 C 0.35928 0.77078 0.18866 0.0
C572 C 0.38044 0.76786 0.15246 0.0
C573 C 0.36873 0.81737 0.16382 0.0
C574 C 0.33163 0.81557 0.15653 0.0
C575 C 0.33675 0.84963 0.15355 0.0
C576 C 0.38051 0.8864 0.15863 0.0
C577 C 0.41849 0.88887 0.16683 0.0
C578 C 0.41251 0.85374 0.16899 0.0
H579 H 0.55267 0.20568 0.51252 0.0
H580 H 0.60055 0.23698 0.45139 0.0
H581 H 0.61503 0.3003 0.45781 0.0
H582 H 0.49215 0.2472 0.51518 0.0
H583 H 0.50855 0.26395 0.54128 0.0
H584 H 0.50241 0.22141 0.53183 0.0
H585 H 0.588 0.25411 0.54438 0.0
H586 H 0.5944 0.29675 0.55387 0.0
H587 H 0.63623 0.30225 0.5363 0.0
H588 H 0.62519 0.36069 0.47123 0.0
H589 H 0.62945 0.41296 0.4904 0.0
H590 H 0.5726 0.34078 0.54238 0.0
C591 C 0.56658 0.22601 0.50054 0.0
C592 C 0.57564 0.21653 0.48147 0.0
C593 C 0.59306 0.24359 0.46606 0.0
C594 C 0.60155 0.27964 0.46959 0.0
C595 C 0.59213 0.28803 0.48857 0.0
C596 C 0.57488 0.26191 0.50376 0.0
C597 C 0.56706 0.27768 0.52271 0.0
C598 C 0.51441 0.25097 0.52806 0.0
C599 C 0.5983 0.28302 0.54035 0.0
C600 C 0.58304 0.31695 0.5159 0.0
C601 C 0.59735 0.32241 0.49617 0.0
C602 C 0.61384 0.35663 0.48667 0.0
C603 C 0.61584 0.38606 0.49765 0.0
C604 C 0.60136 0.38109 0.51792 0.0
C605 C 0.58458 0.34586 0.52702 0.0
H606 H 0.46485 0.48394 0.85917 0.0
H607 H 0.55524 0.59252 0.82791 0.0
H608 H 0.49155 0.59817 0.82759 0.0
H609 H 0.35393 0.44711 0.83331 0.0
H610 H 0.31891 0.42703 0.85549 0.0
H611 H 0.37106 0.4304 0.85286 0.0
H612 H 0.40459 0.47055 0.88699 0.0
H613 H 0.35254 0.46728 0.88972 0.0
H614 H 0.41041 0.51476 0.89081 0.0
H615 H 0.41826 0.59338 0.83107 0.0
H616 H 0.34251 0.57944 0.83906 0.0
H617 H 0.29725 0.47358 0.86779 0.0
C618 C 0.47117 0.50877 0.85214 0.0
C619 C 0.51562 0.5377 0.84351 0.0
C620 C 0.52199 0.56982 0.83465 0.0
C621 C 0.48578 0.57334 0.83435 0.0
C622 C 0.44271 0.54458 0.84299 0.0
C623 C 0.43515 0.5129 0.85177 0.0
C624 C 0.38568 0.48671 0.86041 0.0
C625 C 0.35562 0.44536 0.84989 0.0
C626 C 0.38849 0.48471 0.88335 0.0
C627 C 0.36693 0.50874 0.85523 0.0
C628 C 0.40041 0.54194 0.84507 0.0
C629 C 0.3917 0.56728 0.83891 0.0
C630 C 0.34806 0.55884 0.8434 0.0
C631 C 0.31293 0.52524 0.85404 0.0
C632 C 0.32293 0.49978 0.85982 0.0
H633 H 0.94389 0.44308 0.16966 0.0
H634 H 1.04897 0.43006 0.15038 0.0
H635 H 0.98927 0.35801 0.15126 0.0
H636 H 0.88641 0.36725 0.20403 0.0
H637 H 0.82752 0.35017 0.19799 0.0
H638 H 0.87769 0.40073 0.19471 0.0
H639 H 0.85141 0.39303 0.15766 0.0
H640 H 0.8019 0.34186 0.16025 0.0
H641 H 0.84434 0.35562 0.14101 0.0
H642 H 0.92068 0.28798 0.1568 0.0
H643 H 0.84658 0.22417 0.16606 0.0
H644 H 0.78409 0.28098 0.18048 0.0
C645 C 0.95429 0.42509 0.16547 0.0
C646 C 1.00134 0.44244 0.15997 0.0
C647 C 1.01329 0.41767 0.1546 0.0
C648 C 0.97955 0.37661 0.15503 0.0
C649 C 0.93372 0.3605 0.16066 0.0
C650 C 0.92085 0.38387 0.16566 0.0
C651 C 0.86936 0.35894 0.17163 0.0
C652 C 0.86502 0.36993 0.19338 0.0
C653 C 0.84005 0.36262 0.15675 0.0
C654 C 0.85578 0.31803 0.16982 0.0
C655 C 0.89347 0.3197 0.16333 0.0
C656 C 0.89069 0.28621 0.16158 0.0
C657 C 0.84856 0.25013 0.16684 0.0
C658 C 0.80962 0.2477 0.17361 0.0
C659 C 0.81307 0.28201 0.17487 0.0
H660 H 1.03001 0.50913 0.09152 0.0
H661 H 0.17786 0.58947 0.11072 0.0
H662 H 0.20142 0.58686 0.07614 0.0
H663 H 1.03977 0.44981 0.05411 0.0
H664 H 0.99851 0.44512 0.03652 0.0
H665 H 0.99298 0.45036 0.0632 0.0
H666 H 0.9967 0.51083 0.05751 0.0
H667 H 1.00245 0.5059 0.03085 0.0
H668 H 1.04628 0.5518 0.04468 0.0
H669 H 0.20929 0.57878 0.03936 0.0
H670 H 0.2013 0.56645 0.00248 0.0
H671 H 1.04826 0.49221 0.00646 0.0
C672 C 1.06726 0.52568 0.08844 0.0
C673 C 0.10221 0.54878 0.10386 0.0
C674 C 0.15061 0.57069 0.09923 0.0
C675 C 0.16431 0.56962 0.0796 0.0
C676 C 0.12912 0.54678 0.06469 0.0
C677 C 0.08158 0.52525 0.06881 0.0
C678 C 1.05117 0.50486 0.04973 0.0
C679 C 1.01869 0.45986 0.05097 0.0
C680 C 1.02247 0.51922 0.04545 0.0
C681 C 0.08908 0.51873 0.03427 0.0
C682 C 0.13374 0.54263 0.04328 0.0
C683 C 0.17449 0.55977 0.03213 0.0
C684 C 0.16954 0.5524 0.01118 0.0
C685 C 0.12416 0.52812 0.00151 0.0
C686 C 0.08346 0.51103 0.01333 0.0
H687 H 0.67961 0.06908 0.41412 0.0
H688 H 0.53111 0.97845 0.42602 0.0
H689 H 0.50981 0.98061 0.39112 0.0
H690 H 0.66034 0.12525 0.38243 0.0
H691 H 0.70752 0.13876 0.36583 0.0
H692 H 0.71086 0.13056 0.39187 0.0
H693 H 0.72179 0.07873 0.38076 0.0
H694 H 0.71821 0.08658 0.3547 0.0
H695 H 0.67843 0.03774 0.36387 0.0
H696 H 0.50563 0.98826 0.35433 0.0
H697 H 0.5173 1.00452 0.31883 0.0
H698 H 0.66801 0.09574 0.33159 0.0
C699 C 0.64264 0.04986 0.40934 0.0
C700 C 0.60694 0.02334 0.42258 0.0
C701 C 0.5589 0.9989 0.41601 0.0
C702 C 0.5465 0.99991 0.39625 0.0
C703 C 0.58256 0.02609 0.38344 0.0
C704 C 0.62957 0.05108 0.38978 0.0
C705 C 0.66128 0.07666 0.37303 0.0
C706 C 0.68648 0.1204 0.37863 0.0
C707 C 0.69702 0.06948 0.36778 0.0
C708 C 0.62485 0.06134 0.35612 0.0
C709 C 0.57975 0.03211 0.36246 0.0
C710 C 0.54063 0.01179 0.34929 0.0
C711 C 0.54771 0.02162 0.32909 0.0
C712 C 0.59355 0.05208 0.32217 0.0
C713 C 0.63248 0.07224 0.3361 0.0
H714 H 0.56482 0.48258 0.77278 0.0
H715 H 0.70497 0.58576 0.79302 0.0
H716 H 0.72534 0.60503 0.75772 0.0
H717 H 0.60252 0.45991 0.72885 0.0
H718 H 0.55112 0.44289 0.71371 0.0
H719 H 0.54677 0.43887 0.74062 0.0
H720 H 0.5146 0.47816 0.74271 0.0
H721 H 0.51868 0.48218 0.71578 0.0
H722 H 0.54821 0.52594 0.73224 0.0
H723 H 0.72991 0.61259 0.71999 0.0
H724 H 0.71981 0.60616 0.68279 0.0
H725 H 0.5783 0.49589 0.68752 0.0
C726 C 0.59968 0.50941 0.7698 0.0
C727 C 0.63317 0.53305 0.78559 0.0
C728 C 0.67861 0.56762 0.78112 0.0
C729 C 0.6905 0.57869 0.76113 0.0
C730 C 0.65666 0.55457 0.74587 0.0
C731 C 0.61228 0.52051 0.74998 0.0
C732 C 0.58301 0.49874 0.73086 0.0
C733 C 0.57012 0.45768 0.72837 0.0
C734 C 0.5385 0.49612 0.73038 0.0
C735 C 0.61783 0.52579 0.7153 0.0
C736 C 0.65995 0.55805 0.72423 0.0
C737 C 0.69715 0.5874 0.71284 0.0
C738 C 0.6911 0.58357 0.69179 0.0
C739 C 0.64845 0.55042 0.68239 0.0
C740 C 0.61149 0.52126 0.69434 0.0
H741 H 0.54039 0.9955 0.54782 0.0
H742 H 0.68648 0.06704 0.52938 0.0
H743 H 0.71256 0.07166 0.56442 0.0
H744 H 0.5607 0.04581 0.59474 0.0
H745 H 0.51736 1.00231 0.608 0.0
H746 H 0.5099 1.00288 0.5813 0.0
H747 H 0.50463 0.94085 0.57539 0.0
H748 H 0.51198 0.94003 0.60211 0.0
H749 H 0.55164 0.94127 0.58487 0.0
H750 H 0.7233 0.07365 0.60176 0.0
H751 H 0.71733 0.069 0.63884 0.0
H752 H 0.56433 0.99303 0.63285 0.0
C753 C 0.57779 0.01182 0.55118 0.0
C754 C 0.6115 0.03106 0.53601 0.0
C755 C 0.66013 0.05208 0.54085 0.0
C756 C 0.67527 0.05487 0.56068 0.0
C757 C 0.64123 0.03597 0.57539 0.0
C758 C 0.59346 0.01445 0.57087 0.0
C759 C 0.56429 0.99747 0.58956 0.0
C760 C 0.53644 0.01307 0.59363 0.0
C761 C 0.53118 0.95221 0.58788 0.0
C762 C 0.60321 0.01362 0.60536 0.0
C763 C 0.64735 0.0358 0.59686 0.0
C764 C 0.68894 0.05581 0.60856 0.0
C765 C 0.68529 0.05313 0.62953 0.0
C766 C 0.64044 0.03028 0.63844 0.0
C767 C 0.59894 0.01003 0.62622 0.0
H768 H 0.56921 0.48488 0.89002 0.0
H769 H 0.71752 0.56858 0.90832 0.0
H770 H 0.70328 0.52692 0.93635 0.0
H771 H 0.52213 0.45875 0.93962 0.0
H772 H 0.47629 0.40774 0.93203 0.0
H773 H 0.4985 0.44511 0.91411 0.0
H774 H 0.51609 0.40757 0.8905 0.0
H775 H 0.49746 0.37101 0.90842 0.0
H776 H 0.55623 0.39866 0.8986 0.0
H777 H 0.67118 0.47653 0.9631 0.0
H778 H 0.6245 0.42272 0.98627 0.0
H779 H 0.50006 0.36836 0.94712 0.0
C780 C 0.59871 0.49448 0.89994 0.0
C781 C 0.64449 0.52979 0.89704 0.0
C782 C 0.68215 0.54156 0.91036 0.0
C783 C 0.67444 0.51802 0.92622 0.0
C784 C 0.629 0.48275 0.92833 0.0
C785 C 0.59183 0.47103 0.9155 0.0
C786 C 0.54647 0.43183 0.92087 0.0
C787 C 0.50863 0.43613 0.92703 0.0
C788 C 0.52807 0.40044 0.90356 0.0
C789 C 0.56387 0.4232 0.93869 0.0
C790 C 0.61135 0.45301 0.94296 0.0
C791 C 0.63412 0.45268 0.95969 0.0
C792 C 0.60728 0.42159 0.97267 0.0
C793 C 0.55823 0.39087 0.96869 0.0
C794 C 0.53709 0.3914 0.951 0.0
H795 H 0.08414 0.50938 0.22838 0.0
H796 H 0.09889 0.6124 0.21298 0.0
H797 H 0.07663 0.61785 0.24746 0.0
H798 H 0.98442 0.46912 0.26265 0.0
H799 H 1.00721 0.45314 0.27979 0.0
H800 H 1.01902 0.45482 0.25329 0.0
H801 H 0.10915 0.49984 0.26162 0.0
H802 H 0.09764 0.49831 0.28808 0.0
H803 H 0.13619 0.54504 0.27662 0.0
H804 H 1.0596 0.61537 0.28434 0.0
H805 H 1.04981 0.60559 0.32092 0.0
H806 H 1.04802 0.50503 0.31228 0.0
C807 C 0.08192 0.53269 0.2322 0.0
C808 C 0.09257 0.56019 0.21802 0.0
C809 C 0.08997 0.59062 0.22356 0.0
C810 C 0.07748 0.59399 0.24311 0.0
C811 C 1.06766 0.56662 0.25685 0.0
C812 C 1.06963 0.5365 0.25163 0.0
C813 C 1.06063 0.51256 0.26954 0.0
C814 C 1.0151 0.46988 0.26611 0.0
C815 C 0.10346 0.51406 0.27424 0.0
C816 C 1.05456 0.53456 0.28579 0.0
C817 C 1.05821 0.56538 0.27813 0.0
C818 C 1.05621 0.5911 0.29047 0.0
C819 C 1.05094 0.58547 0.31123 0.0
C820 C 1.04796 0.55447 0.31943 0.0
C821 C 1.04916 0.52846 0.30642 0.0
loop_
_geom_bond_atom_site_label_1
_geom_bond_atom_site_label_2
_geom_bond_distance
_geom_bond_site_symmetry_2
_ccdc_geom_bond_type
Ho0 C3 2.811 . S
Ho0 O20 2.322 . S
Ho0 O22 2.378 . S
Ho0 O23 2.524 . S
Ho0 O24 2.381 . S
Ho0 O25 2.669 . S
Ho0 O27 2.346 1_455 S
Ho0 O31 2.305 . S
Ho1 C12 2.811 . S
Ho1 O21 2.346 1_655 S
Ho1 O25 2.305 1_655 S
Ho1 O26 2.322 . S
Ho1 O28 2.378 . S
Ho1 O29 2.524 . S
Ho1 O30 2.375 1_655 S
Ho1 O31 2.669 1_655 S
C2 O20 1.259 . S
C2 O21 1.268 . S
C3 Ho0 2.811 . S
C3 C4 1.488 . S
C3 O22 1.215 . S
C3 O23 1.289 . S
C4 C3 1.488 . S
C4 C5 1.348 . S
C4 C9 1.413 . S
C5 C4 1.348 . S
C5 C6 1.442 . S
C5 H32 0.930 . S
C6 C5 1.442 . S
C6 C7 1.381 . S
C6 H33 0.931 . S
C7 C6 1.381 . S
C7 C8 1.321 . S
C8 C7 1.321 . S
C8 C9 1.403 . S
C8 H34 0.934 . S
C9 C4 1.413 . S
C9 C8 1.403 . S
C9 H35 0.930 . S
C10 O24 1.275 . S
C10 O25 1.256 . S
C11 O26 1.259 . S
C11 O27 1.268 . S
C12 Ho1 2.811 . S
C12 C13 1.488 . S
C12 O28 1.215 . S
C12 O29 1.289 . S
C13 C12 1.488 . S
C13 C14 1.348 . S
C13 C18 1.413 . S
C14 C13 1.348 . S
C14 C15 1.442 . S
C14 H36 0.930 . S
C15 C14 1.442 . S
C15 C16 1.381 . S
C15 H37 0.931 . S
C16 C15 1.381 . S
C16 C17 1.321 . S
C17 C16 1.321 . S
C17 C18 1.403 . S
C17 H38 0.934 . S
C18 C13 1.413 . S
C18 C17 1.403 . S
C18 H39 0.930 . S
C19 O30 1.307 . S
C19 O31 1.256 . S
O20 Ho0 2.322 . S
O20 C2 1.259 . S
O21 Ho1 2.346 1_455 S
O21 C2 1.268 . S
O22 Ho0 2.378 . S
O22 C3 1.215 . S
O23 Ho0 2.524 . S
O23 C3 1.289 . S
O24 Ho0 2.381 . S
O24 C10 1.275 . S
O25 Ho0 2.669 . S
O25 Ho1 2.305 1_455 S
O25 C10 1.256 . S
O26 Ho1 2.322 . S
O26 C11 1.259 . S
O27 Ho0 2.346 1_655 S
O27 C11 1.268 . S
O28 Ho1 2.378 . S
O28 C12 1.215 . S
O29 Ho1 2.524 . S
O29 C12 1.289 . S
O30 Ho1 2.375 1_455 S
O30 C19 1.307 . S
O31 Ho0 2.305 . S
O31 Ho1 2.669 1_455 S
O31 C19 1.256 . S
H32 C5 0.930 . S
H33 C6 0.931 . S
H34 C8 0.934 . S
H35 C9 0.930 . S
H36 C14 0.930 . S
H37 C15 0.931 . S
H38 C17 0.934 . S
H39 C18 0.930 . S
Ho40 C43 2.811 . S
Ho40 O60 2.322 . S
Ho40 O62 2.378 . S
Ho40 O63 2.524 . S
Ho40 O64 2.381 . S
Ho40 O65 2.669 1_565 S
Ho40 O67 2.346 1_565 S
Ho40 O71 2.304 1_565 S
Ho41 C52 2.811 . S
Ho41 O61 2.346 1_545 S
Ho41 O65 2.305 . S
Ho41 O66 2.322 . S
Ho41 O68 2.378 . S
Ho41 O69 2.524 . S
Ho41 O70 2.381 . S
Ho41 O71 2.670 . S
C42 O60 1.259 . S
C42 O61 1.268 . S
C43 Ho40 2.811 . S
C43 C44 1.488 . S
C43 O62 1.215 . S
C43 O63 1.289 . S
C44 C43 1.488 . S
C44 C45 1.348 . S
C44 C49 1.413 . S
C45 C44 1.348 . S
C45 C46 1.442 . S
C45 H72 0.930 . S
C46 C45 1.442 . S
C46 C47 1.381 . S
C46 H73 0.931 . S
C47 C46 1.381 . S
C47 C48 1.321 . S
C48 C47 1.321 . S
C48 C49 1.403 . S
C48 H74 0.934 . S
C49 C44 1.413 . S
C49 C48 1.403 . S
C49 H75 0.930 . S
C50 O64 1.275 1_545 S
C50 O65 1.256 . S
C51 O66 1.259 . S
C51 O67 1.268 . S
C52 Ho41 2.811 . S
C52 C53 1.488 . S
C52 O68 1.215 . S
C52 O69 1.289 . S
C53 C52 1.488 . S
C53 C54 1.348 . S
C53 C58 1.413 . S
C54 C53 1.348 . S
C54 C55 1.442 . S
C54 H76 0.930 . S
C55 C54 1.442 . S
C55 C56 1.381 . S
C55 H77 0.931 . S
C56 C55 1.381 . S
C56 C57 1.321 . S
C57 C56 1.321 . S
C57 C58 1.403 . S
C57 H78 0.934 . S
C58 C53 1.413 . S
C58 C57 1.403 . S
C58 H79 0.930 . S
C59 O70 1.275 . S
C59 O71 1.257 . S
O60 Ho40 2.322 . S
O60 C42 1.259 . S
O61 Ho41 2.346 1_565 S
O61 C42 1.268 . S
O62 Ho40 2.378 . S
O62 C43 1.215 . S
O63 Ho40 2.524 . S
O63 C43 1.289 . S
O64 Ho40 2.381 . S
O64 C50 1.275 1_565 S
O65 Ho40 2.669 1_545 S
O65 Ho41 2.305 . S
O65 C50 1.256 . S
O66 Ho41 2.322 . S
O66 C51 1.259 . S
O67 Ho40 2.346 1_545 S
O67 C51 1.268 . S
O68 Ho41 2.378 . S
O68 C52 1.215 . S
O69 Ho41 2.524 . S
O69 C52 1.289 . S
O70 Ho41 2.381 . S
O70 C59 1.275 . S
O71 Ho40 2.304 1_545 S
O71 Ho41 2.670 . S
O71 C59 1.257 . S
H72 C45 0.930 . S
H73 C46 0.931 . S
H74 C48 0.934 . S
H75 C49 0.930 . S
H76 C54 0.930 . S
H77 C55 0.931 . S
H78 C57 0.934 . S
H79 C58 0.930 . S
Ho80 C83 2.811 . S
Ho80 O100 2.322 . S
Ho80 O102 2.378 . S
Ho80 O103 2.524 . S
Ho80 O104 2.381 . S
Ho80 O105 2.669 . S
Ho80 O107 2.346 . S
Ho80 O111 2.305 . S
Ho81 C92 2.811 . S
Ho81 O101 2.346 . S
Ho81 O105 2.305 . S
Ho81 O106 2.322 . S
Ho81 O108 2.378 . S
Ho81 O109 2.524 . S
Ho81 O110 2.381 . S
Ho81 O111 2.669 . S
C82 O100 1.259 . S
C82 O101 1.268 . S
C83 Ho80 2.811 . S
C83 C84 1.488 . S
C83 O102 1.215 . S
C83 O103 1.289 . S
C84 C83 1.488 . S
C84 C85 1.348 . S
C84 C89 1.413 . S
C85 C84 1.348 . S
C85 C86 1.442 . S
C85 H112 0.930 . S
C86 C85 1.442 . S
C86 C87 1.381 . S
C86 H113 0.931 . S
C87 C86 1.381 . S
C87 C88 1.321 . S
C88 C87 1.321 . S
C88 C89 1.403 . S
C88 H114 0.934 . S
C89 C84 1.413 . S
C89 C88 1.403 . S
C89 H115 0.930 . S
C90 O104 1.275 . S
C90 O105 1.256 . S
C91 O106 1.259 . S
C91 O107 1.268 . S
C92 Ho81 2.811 . S
C92 C93 1.488 . S
C92 O108 1.215 . S
C92 O109 1.289 . S
C93 C92 1.488 . S
C93 C94 1.348 . S
C93 C98 1.413 . S
C94 C93 1.348 . S
C94 C95 1.442 . S
C94 H116 0.930 . S
C95 C94 1.442 . S
C95 C96 1.381 . S
C95 H117 0.931 . S
C96 C95 1.381 . S
C96 C97 1.321 . S
C97 C96 1.321 . S
C97 C98 1.403 . S
C97 H118 0.934 . S
C98 C93 1.413 . S
C98 C97 1.403 . S
C98 H119 0.930 . S
C99 O110 1.275 . S
C99 O111 1.256 . S
O100 Ho80 2.322 . S
O100 C82 1.259 . S
O101 Ho81 2.346 . S
O101 C82 1.268 . S
O102 Ho80 2.378 . S
O102 C83 1.215 . S
O103 Ho80 2.524 . S
O103 C83 1.289 . S
O104 Ho80 2.381 . S
O104 C90 1.275 . S
O105 Ho80 2.669 . S
O105 Ho81 2.305 . S
O105 C90 1.256 . S
O106 Ho81 2.322 . S
O106 C91 1.259 . S
O107 Ho80 2.346 . S
O107 C91 1.268 . S
O108 Ho81 2.378 . S
O108 C92 1.215 . S
O109 Ho81 2.524 . S
O109 C92 1.289 . S
O110 Ho81 2.381 . S
O110 C99 1.275 . S
O111 Ho80 2.305 . S
O111 Ho81 2.669 . S
O111 C99 1.256 . S
H112 C85 0.930 . S
H113 C86 0.931 . S
H114 C88 0.934 . S
H115 C89 0.930 . S
H116 C94 0.930 . S
H117 C95 0.931 . S
H118 C97 0.934 . S
H119 C98 0.930 . S
C120 C121 1.384 . S
C120 H133 0.947 . S
C120 C155 1.382 . S
C121 C120 1.384 . S
C121 C122 1.378 . S
C122 C121 1.378 . S
C122 C123 1.378 . S
C122 H134 0.952 . S
C123 C122 1.378 . S
C123 H135 0.950 . S
C123 C154 1.383 . S
H124 C143 0.947 . S
H125 C144 0.946 . S
H126 C146 0.953 . S
H127 C147 0.945 . S
H128 C149 0.952 . S
H129 C150 0.949 . S
H130 C152 0.950 . S
H131 C153 0.948 . S
H132 C155 0.951 . S
H133 C120 0.947 . S
H134 C122 0.952 . S
H135 C123 0.950 . S
N136 C139 1.382 . S
N136 C141 1.363 1_545 S
N137 C139 1.371 . S
N137 C140 1.372 . S
N138 C140 1.361 1_565 S
N138 C141 1.377 . S
C139 N136 1.382 . S
C139 N137 1.371 . S
C139 C142 1.480 . S
C140 N137 1.372 . S
C140 N138 1.361 1_545 S
C140 C148 1.457 . S
C141 N136 1.363 1_565 S
C141 N138 1.377 . S
C141 C154 1.479 . S
C142 C139 1.480 . S
C142 C143 1.383 . S
C142 C147 1.385 . S
C143 H124 0.947 . S
C143 C142 1.383 . S
C143 C144 1.388 . S
C144 H125 0.946 . S
C144 C143 1.388 . S
C144 C145 1.384 . S
C145 C144 1.384 . S
C145 C146 1.377 . S
C146 H126 0.953 . S
C146 C145 1.377 . S
C146 C147 1.369 . S
C147 H127 0.945 . S
C147 C142 1.385 . S
C147 C146 1.369 . S
C148 C140 1.457 . S
C148 C149 1.372 . S
C148 C153 1.364 1_545 S
C149 H128 0.952 . S
C149 C148 1.372 . S
C149 C150 1.389 . S
C150 H129 0.949 . S
C150 C149 1.389 . S
C150 C151 1.387 . S
C151 C150 1.387 . S
C151 C152 1.372 1_545 S
C152 H130 0.950 . S
C152 C151 1.372 1_565 S
C152 C153 1.379 . S
C153 H131 0.948 . S
C153 C148 1.364 1_565 S
C153 C152 1.379 . S
C154 C123 1.383 . S
C154 C141 1.479 . S
C154 C155 1.398 . S
C155 C120 1.382 . S
C155 H132 0.951 . S
C155 C154 1.398 . S
C156 C157 1.384 . S
C156 H169 0.947 . S
C156 C191 1.382 . S
C157 C156 1.384 . S
C157 C158 1.378 . S
C158 C157 1.378 . S
C158 C159 1.378 . S
C158 H170 0.952 . S
C159 C158 1.378 . S
C159 H171 0.950 . S
C159 C190 1.383 . S
H160 C179 0.947 . S
H161 C180 0.946 . S
H162 C182 0.953 . S
H163 C183 0.945 . S
H164 C185 0.952 . S
H165 C186 0.949 . S
H166 C188 0.950 . S
H167 C189 0.948 . S
H168 C191 0.951 . S
H169 C156 0.947 . S
H170 C158 0.952 . S
H171 C159 0.950 . S
N172 C175 1.382 . S
N172 C177 1.363 . S
N173 C175 1.371 . S
N173 C176 1.372 . S
N174 C176 1.361 . S
N174 C177 1.377 . S
C175 N172 1.382 . S
C175 N173 1.371 . S
C175 C178 1.480 . S
C176 N173 1.372 . S
C176 N174 1.361 . S
C176 C184 1.457 . S
C177 N172 1.363 . S
C177 N174 1.377 . S
C177 C190 1.479 . S
C178 C175 1.480 . S
C178 C179 1.383 . S
C178 C183 1.385 . S
C179 H160 0.947 . S
C179 C178 1.383 . S
C179 C180 1.388 . S
C180 H161 0.946 . S
C180 C179 1.388 . S
C180 C181 1.384 . S
C181 C180 1.384 . S
C181 C182 1.377 . S
C182 H162 0.953 . S
C182 C181 1.377 . S
C182 C183 1.369 . S
C183 H163 0.945 . S
C183 C178 1.385 . S
C183 C182 1.369 . S
C184 C176 1.457 . S
C184 C185 1.372 . S
C184 C189 1.364 . S
C185 H164 0.952 . S
C185 C184 1.372 . S
C185 C186 1.389 . S
C186 H165 0.949 . S
C186 C185 1.389 . S
C186 C187 1.387 . S
C187 C186 1.387 . S
C187 C188 1.372 . S
C188 H166 0.950 . S
C188 C187 1.372 . S
C188 C189 1.379 . S
C189 H167 0.948 . S
C189 C184 1.364 . S
C189 C188 1.379 . S
C190 C159 1.383 . S
C190 C177 1.479 . S
C190 C191 1.398 . S
C191 C156 1.382 . S
C191 H168 0.951 . S
C191 C190 1.398 . S
C192 C193 1.384 . S
C192 H205 0.947 . S
C192 C227 1.382 . S
C193 C192 1.384 . S
C193 C194 1.378 . S
C194 C193 1.378 . S
C194 C195 1.378 . S
C194 H206 0.952 . S
C195 C194 1.378 . S
C195 H207 0.950 1_655 S
C195 C226 1.383 . S
H196 C215 0.947 . S
H197 C216 0.946 . S
H198 C218 0.953 . S
H199 C219 0.945 . S
H200 C221 0.952 . S
H201 C222 0.949 . S
H202 C224 0.950 1_655 S
H203 C225 0.948 1_655 S
H204 C227 0.951 . S
H205 C192 0.947 . S
H206 C194 0.952 . S
H207 C195 0.950 1_455 S
N208 C211 1.382 . S
N208 C213 1.363 . S
N209 C211 1.371 . S
N209 C212 1.372 . S
N210 C212 1.361 . S
N210 C213 1.377 . S
C211 N208 1.382 . S
C211 N209 1.371 . S
C211 C214 1.480 . S
C212 N209 1.372 . S
C212 N210 1.361 . S
C212 C220 1.457 . S
C213 N208 1.363 . S
C213 N210 1.377 . S
C213 C226 1.479 1_455 S
C214 C211 1.480 . S
C214 C215 1.383 . S
C214 C219 1.385 . S
C215 H196 0.947 . S
C215 C214 1.383 . S
C215 C216 1.388 . S
C216 H197 0.946 . S
C216 C215 1.388 . S
C216 C217 1.384 . S
C217 C216 1.384 . S
C217 C218 1.377 . S
C218 H198 0.953 . S
C218 C217 1.377 . S
C218 C219 1.369 . S
C219 H199 0.945 . S
C219 C214 1.385 . S
C219 C218 1.369 . S
C220 C212 1.457 . S
C220 C221 1.372 . S
C220 C225 1.364 . S
C221 H200 0.952 . S
C221 C220 1.372 . S
C221 C222 1.389 . S
C222 H201 0.949 . S
C222 C221 1.389 . S
C222 C223 1.387 . S
C223 C222 1.387 . S
C223 C224 1.372 . S
C224 H202 0.950 1_455 S
C224 C223 1.372 . S
C224 C225 1.379 . S
C225 H203 0.948 1_455 S
C225 C220 1.364 . S
C225 C224 1.379 . S
C226 C195 1.383 . S
C226 C213 1.479 1_655 S
C226 C227 1.398 . S
C227 C192 1.382 . S
C227 H204 0.951 . S
C227 C226 1.398 . S
C228 C229 1.384 . S
C228 H241 0.947 . S
C228 C263 1.382 . S
C229 C228 1.384 . S
C229 C230 1.378 . S
C230 C229 1.378 . S
C230 C231 1.378 . S
C230 H242 0.952 . S
C231 C230 1.378 . S
C231 H243 0.950 . S
C231 C262 1.383 . S
H232 C251 0.947 . S
H233 C252 0.946 . S
H234 C254 0.953 . S
H235 C255 0.945 . S
H236 C257 0.952 . S
H237 C258 0.949 . S
H238 C260 0.950 . S
H239 C261 0.948 . S
H240 C263 0.951 . S
H241 C228 0.947 . S
H242 C230 0.952 . S
H243 C231 0.950 . S
N244 C247 1.382 1_455 S
N244 C249 1.363 . S
N245 C247 1.371 . S
N245 C248 1.372 1_655 S
N246 C248 1.361 . S
N246 C249 1.377 . S
C247 N244 1.382 1_655 S
C247 N245 1.371 . S
C247 C250 1.480 . S
C248 N245 1.372 1_455 S
C248 N246 1.361 . S
C248 C256 1.457 . S
C249 N244 1.363 . S
C249 N246 1.377 . S
C249 C262 1.479 . S
C250 C247 1.480 . S
C250 C251 1.383 . S
C250 C255 1.385 . S
C251 H232 0.947 . S
C251 C250 1.383 . S
C251 C252 1.388 . S
C252 H233 0.946 . S
C252 C251 1.388 . S
C252 C253 1.384 . S
C253 C252 1.384 . S
C253 C254 1.377 . S
C254 H234 0.953 . S
C254 C253 1.377 . S
C254 C255 1.369 . S
C255 H235 0.945 . S
C255 C250 1.385 . S
C255 C254 1.369 . S
C256 C248 1.457 . S
C256 C257 1.372 1_455 S
C256 C261 1.364 . S
C257 H236 0.952 . S
C257 C256 1.372 1_655 S
C257 C258 1.389 . S
C258 H237 0.949 . S
C258 C257 1.389 . S
C258 C259 1.387 1_655 S
C259 C258 1.387 1_455 S
C259 C260 1.372 . S
C260 H238 0.950 . S
C260 C259 1.372 . S
C260 C261 1.379 . S
C261 H239 0.948 . S
C261 C256 1.364 . S
C261 C260 1.379 . S
C262 C231 1.383 . S
C262 C249 1.479 . S
C262 C263 1.398 . S
C263 C228 1.382 . S
C263 H240 0.951 . S
C263 C262 1.398 . S
C264 C265 1.384 . S
C264 H277 0.947 . S
C264 C299 1.382 . S
C265 C264 1.384 . S
C265 C266 1.378 . S
C266 C265 1.378 . S
C266 C267 1.378 . S
C266 H278 0.952 . S
C267 C266 1.378 . S
C267 H279 0.950 . S
C267 C298 1.383 . S
H268 C287 0.947 . S
H269 C288 0.946 . S
H270 C290 0.953 . S
H271 C291 0.945 . S
H272 C293 0.952 . S
H273 C294 0.949 . S
H274 C296 0.950 . S
H275 C297 0.948 . S
H276 C299 0.951 . S
H277 C264 0.947 . S
H278 C266 0.952 . S
H279 C267 0.950 . S
N280 C283 1.382 1_545 S
N280 C285 1.363 . S
N281 C283 1.371 . S
N281 C284 1.372 1_565 S
N282 C284 1.361 . S
N282 C285 1.377 . S
C283 N280 1.382 1_565 S
C283 N281 1.371 . S
C283 C286 1.480 . S
C284 N281 1.372 1_545 S
C284 N282 1.361 . S
C284 C292 1.457 . S
C285 N280 1.363 . S
C285 N282 1.377 . S
C285 C298 1.479 . S
C286 C283 1.480 . S
C286 C287 1.383 . S
C286 C291 1.385 . S
C287 H268 0.947 . S
C287 C286 1.383 . S
C287 C288 1.388 . S
C288 H269 0.946 . S
C288 C287 1.388 . S
C288 C289 1.384 . S
C289 C288 1.384 . S
C289 C290 1.377 . S
C290 H270 0.953 . S
C290 C289 1.377 . S
C290 C291 1.369 . S
C291 H271 0.945 . S
C291 C286 1.385 . S
C291 C290 1.369 . S
C292 C284 1.457 . S
C292 C293 1.372 1_545 S
C292 C297 1.364 . S
C293 H272 0.952 . S
C293 C292 1.372 1_565 S
C293 C294 1.389 . S
C294 H273 0.949 . S
C294 C293 1.389 . S
C294 C295 1.387 . S
C295 C294 1.387 . S
C295 C296 1.372 1_565 S
C296 H274 0.950 . S
C296 C295 1.372 1_545 S
C296 C297 1.379 . S
C297 H275 0.948 . S
C297 C292 1.364 . S
C297 C296 1.379 . S
C298 C267 1.383 . S
C298 C285 1.479 . S
C298 C299 1.398 . S
C299 C264 1.382 . S
C299 H276 0.951 . S
C299 C298 1.398 . S
C300 C301 1.384 . S
C300 H313 0.947 . S
C300 C335 1.382 . S
C301 C300 1.384 . S
C301 C302 1.378 . S
C302 C301 1.378 . S
C302 C303 1.378 . S
C302 H314 0.952 . S
C303 C302 1.378 . S
C303 H315 0.950 . S
C303 C334 1.383 . S
H304 C323 0.947 . S
H305 C324 0.946 . S
H306 C326 0.953 . S
H307 C327 0.945 . S
H308 C329 0.952 . S
H309 C330 0.949 . S
H310 C332 0.950 . S
H311 C333 0.948 . S
H312 C335 0.951 . S
H313 C300 0.947 . S
H314 C302 0.952 . S
H315 C303 0.950 . S
N316 C319 1.382 . S
N316 C321 1.363 . S
N317 C319 1.371 . S
N317 C320 1.372 . S
N318 C320 1.361 . S
N318 C321 1.377 . S
C319 N316 1.382 . S
C319 N317 1.371 . S
C319 C322 1.480 . S
C320 N317 1.372 . S
C320 N318 1.361 . S
C320 C328 1.457 . S
C321 N316 1.363 . S
C321 N318 1.377 . S
C321 C334 1.479 . S
C322 C319 1.480 . S
C322 C323 1.383 . S
C322 C327 1.385 . S
C323 H304 0.947 . S
C323 C322 1.383 . S
C323 C324 1.388 . S
C324 H305 0.946 . S
C324 C323 1.388 . S
C324 C325 1.384 . S
C325 C324 1.384 . S
C325 C326 1.377 . S
C326 H306 0.953 . S
C326 C325 1.377 . S
C326 C327 1.369 . S
C327 H307 0.945 . S
C327 C322 1.385 . S
C327 C326 1.369 . S
C328 C320 1.457 . S
C328 C329 1.372 . S
C328 C333 1.364 . S
C329 H308 0.952 . S
C329 C328 1.372 . S
C329 C330 1.389 . S
C330 H309 0.949 . S
C330 C329 1.389 . S
C330 C331 1.387 . S
C331 C330 1.387 . S
C331 C332 1.372 . S
C332 H310 0.950 . S
C332 C331 1.372 . S
C332 C333 1.379 . S
C333 H311 0.948 . S
C333 C328 1.364 . S
C333 C332 1.379 . S
C334 C303 1.383 . S
C334 C321 1.479 . S
C334 C335 1.398 . S
C335 C300 1.382 . S
C335 H312 0.951 . S
C335 C334 1.398 . S
H336 C348 0.930 . S
H337 C350 0.930 . S
H338 C351 0.930 . S
H339 C355 0.959 . S
H340 C355 0.959 . S
H341 C355 0.961 . S
H342 C356 0.960 . S
H343 C356 0.961 . S
H344 C356 0.959 . S
H345 C359 0.929 . S
H346 C360 0.931 . S
H347 C362 0.930 . S
C348 H336 0.930 . S
C348 C349 1.399 . S
C348 C353 1.399 . S
C349 C348 1.399 . S
C349 C350 1.376 . S
C350 H337 0.930 . S
C350 C349 1.376 . S
C350 C351 1.388 . S
C351 H338 0.930 . S
C351 C350 1.388 . S
C351 C352 1.390 . S
C352 C351 1.390 . S
C352 C353 1.394 . S
C352 C358 1.465 . S
C353 C348 1.399 . S
C353 C352 1.394 . S
C353 C354 1.516 . S
C354 C353 1.516 . S
C354 C355 1.502 . S
C354 C356 1.561 . S
C354 C357 1.526 . S
C355 H339 0.959 . S
C355 H340 0.959 . S
C355 H341 0.961 . S
C355 C354 1.502 . S
C356 H342 0.960 . S
C356 H343 0.961 . S
C356 H344 0.959 . S
C356 C354 1.561 . S
C357 C354 1.526 . S
C357 C358 1.396 . S
C357 C362 1.390 . S
C358 C352 1.465 . S
C358 C357 1.396 . S
C358 C359 1.399 . S
C359 H345 0.929 . S
C359 C358 1.399 . S
C359 C360 1.385 . S
C360 H346 0.931 . S
C360 C359 1.385 . S
C360 C361 1.389 . S
C361 C360 1.389 . S
C361 C362 1.387 . S
C362 H347 0.930 . S
C362 C357 1.390 . S
C362 C361 1.387 . S
H363 C375 0.930 . S
H364 C377 0.930 . S
H365 C378 0.930 . S
H366 C382 0.959 . S
H367 C382 0.959 . S
H368 C382 0.961 . S
H369 C383 0.960 . S
H370 C383 0.961 . S
H371 C383 0.959 . S
H372 C386 0.929 . S
H373 C387 0.931 . S
H374 C389 0.930 . S
C375 H363 0.930 . S
C375 C376 1.399 . S
C375 C380 1.399 . S
C376 C375 1.399 . S
C376 C377 1.376 . S
C377 H364 0.930 . S
C377 C376 1.376 . S
C377 C378 1.388 . S
C378 H365 0.930 . S
C378 C377 1.388 . S
C378 C379 1.390 . S
C379 C378 1.390 . S
C379 C380 1.394 . S
C379 C385 1.465 . S
C380 C375 1.399 . S
C380 C379 1.394 . S
C380 C381 1.516 . S
C381 C380 1.516 . S
C381 C382 1.502 . S
C381 C383 1.561 . S
C381 C384 1.526 . S
C382 H366 0.959 . S
C382 H367 0.959 . S
C382 H368 0.961 . S
C382 C381 1.502 . S
C383 H369 0.960 . S
C383 H370 0.961 . S
C383 H371 0.959 . S
C383 C381 1.561 . S
C384 C381 1.526 . S
C384 C385 1.396 . S
C384 C389 1.390 . S
C385 C379 1.465 . S
C385 C384 1.396 . S
C385 C386 1.399 . S
C386 H372 0.929 . S
C386 C385 1.399 . S
C386 C387 1.385 . S
C387 H373 0.931 . S
C387 C386 1.385 . S
C387 C388 1.389 . S
C388 C387 1.389 . S
C388 C389 1.387 . S
C389 H374 0.930 . S
C389 C384 1.390 . S
C389 C388 1.387 . S
H390 C402 0.930 . S
H391 C404 0.930 . S
H392 C405 0.930 . S
H393 C409 0.959 . S
H394 C409 0.959 . S
H395 C409 0.961 . S
H396 C410 0.960 . S
H397 C410 0.961 . S
H398 C410 0.959 . S
H399 C413 0.929 . S
H400 C414 0.931 . S
H401 C416 0.930 . S
C402 H390 0.930 . S
C402 C403 1.399 . S
C402 C407 1.399 . S
C403 C402 1.399 . S
C403 C404 1.376 . S
C404 H391 0.930 . S
C404 C403 1.376 . S
C404 C405 1.388 . S
C405 H392 0.930 . S
C405 C404 1.388 . S
C405 C406 1.390 . S
C406 C405 1.390 . S
C406 C407 1.394 . S
C406 C412 1.465 . S
C407 C402 1.399 . S
C407 C406 1.394 . S
C407 C408 1.516 . S
C408 C407 1.516 . S
C408 C409 1.502 . S
C408 C410 1.561 . S
C408 C411 1.526 . S
C409 H393 0.959 . S
C409 H394 0.959 . S
C409 H395 0.961 . S
C409 C408 1.502 . S
C410 H396 0.960 . S
C410 H397 0.961 . S
C410 H398 0.959 . S
C410 C408 1.561 . S
C411 C408 1.526 . S
C411 C412 1.396 . S
C411 C416 1.390 . S
C412 C406 1.465 . S
C412 C411 1.396 . S
C412 C413 1.399 . S
C413 H399 0.929 . S
C413 C412 1.399 . S
C413 C414 1.385 . S
C414 H400 0.931 . S
C414 C413 1.385 . S
C414 C415 1.389 . S
C415 C414 1.389 . S
C415 C416 1.387 . S
C416 H401 0.930 . S
C416 C411 1.390 . S
C416 C415 1.387 . S
H417 C429 0.930 . S
H418 C431 0.930 . S
H419 C432 0.930 . S
H420 C436 0.959 . S
H421 C436 0.959 . S
H422 C436 0.961 . S
H423 C437 0.960 . S
H424 C437 0.961 . S
H425 C437 0.959 . S
H426 C440 0.929 . S
H427 C441 0.931 . S
H428 C443 0.930 . S
C429 H417 0.930 . S
C429 C430 1.399 . S
C429 C434 1.399 . S
C430 C429 1.399 . S
C430 C431 1.376 . S
C431 H418 0.930 . S
C431 C430 1.376 . S
C431 C432 1.388 . S
C432 H419 0.930 . S
C432 C431 1.388 . S
C432 C433 1.390 . S
C433 C432 1.390 . S
C433 C434 1.394 . S
C433 C439 1.465 . S
C434 C429 1.399 . S
C434 C433 1.394 . S
C434 C435 1.516 . S
C435 C434 1.516 . S
C435 C436 1.502 . S
C435 C437 1.561 . S
C435 C438 1.526 . S
C436 H420 0.959 . S
C436 H421 0.959 . S
C436 H422 0.961 . S
C436 C435 1.502 . S
C437 H423 0.960 . S
C437 H424 0.961 . S
C437 H425 0.959 . S
C437 C435 1.561 . S
C438 C435 1.526 . S
C438 C439 1.396 . S
C438 C443 1.390 . S
C439 C433 1.465 . S
C439 C438 1.396 . S
C439 C440 1.399 . S
C440 H426 0.929 . S
C440 C439 1.399 . S
C440 C441 1.385 . S
C441 H427 0.931 . S
C441 C440 1.385 . S
C441 C442 1.389 . S
C442 C441 1.389 . S
C442 C443 1.387 . S
C443 H428 0.930 . S
C443 C438 1.390 . S
C443 C442 1.387 . S
H444 C456 0.930 . S
H445 C458 0.930 . S
H446 C459 0.930 . S
H447 C463 0.959 . S
H448 C463 0.959 . S
H449 C463 0.961 . S
H450 C464 0.960 . S
H451 C464 0.961 . S
H452 C464 0.959 . S
H453 C467 0.929 . S
H454 C468 0.931 . S
H455 C470 0.930 . S
C456 H444 0.930 . S
C456 C457 1.399 . S
C456 C461 1.399 . S
C457 C456 1.399 . S
C457 C458 1.376 . S
C458 H445 0.930 . S
C458 C457 1.376 . S
C458 C459 1.388 . S
C459 H446 0.930 . S
C459 C458 1.388 . S
C459 C460 1.390 . S
C460 C459 1.390 . S
C460 C461 1.394 . S
C460 C466 1.465 . S
C461 C456 1.399 . S
C461 C460 1.394 . S
C461 C462 1.516 . S
C462 C461 1.516 . S
C462 C463 1.502 . S
C462 C464 1.561 . S
C462 C465 1.526 . S
C463 H447 0.959 . S
C463 H448 0.959 . S
C463 H449 0.961 . S
C463 C462 1.502 . S
C464 H450 0.960 . S
C464 H451 0.961 . S
C464 H452 0.959 . S
C464 C462 1.561 . S
C465 C462 1.526 . S
C465 C466 1.396 . S
C465 C470 1.390 . S
C466 C460 1.465 . S
C466 C465 1.396 . S
C466 C467 1.399 . S
C467 H453 0.929 . S
C467 C466 1.399 . S
C467 C468 1.385 . S
C468 H454 0.931 . S
C468 C467 1.385 . S
C468 C469 1.389 . S
C469 C468 1.389 . S
C469 C470 1.387 . S
C470 H455 0.930 . S
C470 C465 1.390 . S
C470 C469 1.387 . S
H471 C483 0.930 . S
H472 C485 0.930 . S
H473 C486 0.930 . S
H474 C490 0.959 . S
H475 C490 0.959 . S
H476 C490 0.961 . S
H477 C491 0.960 . S
H478 C491 0.961 . S
H479 C491 0.959 . S
H480 C494 0.929 . S
H481 C495 0.931 . S
H482 C497 0.930 . S
C483 H471 0.930 . S
C483 C484 1.399 . S
C483 C488 1.399 . S
C484 C483 1.399 . S
C484 C485 1.376 . S
C485 H472 0.930 . S
C485 C484 1.376 . S
C485 C486 1.388 . S
C486 H473 0.930 . S
C486 C485 1.388 . S
C486 C487 1.390 . S
C487 C486 1.390 . S
C487 C488 1.394 . S
C487 C493 1.465 . S
C488 C483 1.399 . S
C488 C487 1.394 . S
C488 C489 1.516 . S
C489 C488 1.516 . S
C489 C490 1.502 . S
C489 C491 1.561 . S
C489 C492 1.526 . S
C490 H474 0.959 . S
C490 H475 0.959 . S
C490 H476 0.961 . S
C490 C489 1.502 . S
C491 H477 0.960 . S
C491 H478 0.961 . S
C491 H479 0.959 . S
C491 C489 1.561 . S
C492 C489 1.526 . S
C492 C493 1.396 . S
C492 C497 1.390 . S
C493 C487 1.465 . S
C493 C492 1.396 . S
C493 C494 1.399 . S
C494 H480 0.929 . S
C494 C493 1.399 . S
C494 C495 1.385 . S
C495 H481 0.931 . S
C495 C494 1.385 . S
C495 C496 1.389 . S
C496 C495 1.389 . S
C496 C497 1.387 . S
C497 H482 0.930 . S
C497 C492 1.390 . S
C497 C496 1.387 . S
H498 C510 0.930 . S
H499 C512 0.930 . S
H500 C513 0.930 . S
H501 C517 0.959 . S
H502 C517 0.959 . S
H503 C517 0.961 . S
H504 C518 0.960 . S
H505 C518 0.961 . S
H506 C518 0.959 . S
H507 C521 0.929 . S
H508 C522 0.931 . S
H509 C524 0.930 . S
C510 H498 0.930 . S
C510 C511 1.399 . S
C510 C515 1.399 . S
C511 C510 1.399 . S
C511 C512 1.376 . S
C512 H499 0.930 . S
C512 C511 1.376 . S
C512 C513 1.388 . S
C513 H500 0.930 . S
C513 C512 1.388 . S
C513 C514 1.390 . S
C514 C513 1.390 . S
C514 C515 1.394 . S
C514 C520 1.465 . S
C515 C510 1.399 . S
C515 C514 1.394 . S
C515 C516 1.516 . S
C516 C515 1.516 . S
C516 C517 1.502 . S
C516 C518 1.561 . S
C516 C519 1.526 . S
C517 H501 0.959 . S
C517 H502 0.959 . S
C517 H503 0.961 . S
C517 C516 1.502 . S
C518 H504 0.960 . S
C518 H505 0.961 . S
C518 H506 0.959 . S
C518 C516 1.561 . S
C519 C516 1.526 . S
C519 C520 1.396 . S
C519 C524 1.390 . S
C520 C514 1.465 . S
C520 C519 1.396 . S
C520 C521 1.399 . S
C521 H507 0.929 . S
C521 C520 1.399 . S
C521 C522 1.385 . S
C522 H508 0.931 . S
C522 C521 1.385 . S
C522 C523 1.389 . S
C523 C522 1.389 . S
C523 C524 1.387 . S
C524 H509 0.930 . S
C524 C519 1.390 . S
C524 C523 1.387 . S
H525 C537 0.930 . S
H526 C539 0.930 . S
H527 C540 0.930 . S
H528 C544 0.959 . S
H529 C544 0.959 . S
H530 C544 0.961 . S
H531 C545 0.960 . S
H532 C545 0.961 . S
H533 C545 0.959 . S
H534 C548 0.929 . S
H535 C549 0.931 . S
H536 C551 0.930 . S
C537 H525 0.930 . S
C537 C538 1.399 . S
C537 C542 1.399 . S
C538 C537 1.399 . S
C538 C539 1.376 . S
C539 H526 0.930 . S
C539 C538 1.376 . S
C539 C540 1.388 . S
C540 H527 0.930 . S
C540 C539 1.388 . S
C540 C541 1.390 . S
C541 C540 1.390 . S
C541 C542 1.394 . S
C541 C547 1.465 . S
C542 C537 1.399 . S
C542 C541 1.394 . S
C542 C543 1.516 . S
C543 C542 1.516 . S
C543 C544 1.502 . S
C543 C545 1.561 . S
C543 C546 1.526 . S
C544 H528 0.959 . S
C544 H529 0.959 . S
C544 H530 0.961 . S
C544 C543 1.502 . S
C545 H531 0.960 . S
C545 H532 0.961 . S
C545 H533 0.959 . S
C545 C543 1.561 . S
C546 C543 1.526 . S
C546 C547 1.396 . S
C546 C551 1.390 . S
C547 C541 1.465 . S
C547 C546 1.396 . S
C547 C548 1.399 . S
C548 H534 0.929 . S
C548 C547 1.399 . S
C548 C549 1.385 . S
C549 H535 0.931 . S
C549 C548 1.385 . S
C549 C550 1.389 . S
C550 C549 1.389 . S
C550 C551 1.387 . S
C551 H536 0.930 . S
C551 C546 1.390 . S
C551 C550 1.387 . S
H552 C564 0.930 . S
H553 C566 0.930 . S
H554 C567 0.930 . S
H555 C571 0.959 . S
H556 C571 0.959 . S
H557 C571 0.961 . S
H558 C572 0.960 . S
H559 C572 0.961 . S
H560 C572 0.959 . S
H561 C575 0.929 . S
H562 C576 0.931 . S
H563 C578 0.930 . S
C564 H552 0.930 . S
C564 C565 1.399 . S
C564 C569 1.399 . S
C565 C564 1.399 . S
C565 C566 1.376 . S
C566 H553 0.930 . S
C566 C565 1.376 . S
C566 C567 1.388 . S
C567 H554 0.930 . S
C567 C566 1.388 . S
C567 C568 1.390 . S
C568 C567 1.390 . S
C568 C569 1.394 . S
C568 C574 1.465 . S
C569 C564 1.399 . S
C569 C568 1.394 . S
C569 C570 1.516 . S
C570 C569 1.516 . S
C570 C571 1.502 . S
C570 C572 1.561 . S
C570 C573 1.526 . S
C571 H555 0.959 . S
C571 H556 0.959 . S
C571 H557 0.961 . S
C571 C570 1.502 . S
C572 H558 0.960 . S
C572 H559 0.961 . S
C572 H560 0.959 . S
C572 C570 1.561 . S
C573 C570 1.526 . S
C573 C574 1.396 . S
C573 C578 1.390 . S
C574 C568 1.465 . S
C574 C573 1.396 . S
C574 C575 1.399 . S
C575 H561 0.929 . S
C575 C574 1.399 . S
C575 C576 1.385 . S
C576 H562 0.931 . S
C576 C575 1.385 . S
C576 C577 1.389 . S
C577 C576 1.389 . S
C577 C578 1.387 . S
C578 H563 0.930 . S
C578 C573 1.390 . S
C578 C577 1.387 . S
H579 C591 0.930 . S
H580 C593 0.930 . S
H581 C594 0.930 . S
H582 C598 0.959 . S
H583 C598 0.959 . S
H584 C598 0.961 . S
H585 C599 0.960 . S
H586 C599 0.961 . S
H587 C599 0.959 . S
H588 C602 0.929 . S
H589 C603 0.931 . S
H590 C605 0.930 . S
C591 H579 0.930 . S
C591 C592 1.399 . S
C591 C596 1.399 . S
C592 C591 1.399 . S
C592 C593 1.376 . S
C593 H580 0.930 . S
C593 C592 1.376 . S
C593 C594 1.388 . S
C594 H581 0.930 . S
C594 C593 1.388 . S
C594 C595 1.390 . S
C595 C594 1.390 . S
C595 C596 1.394 . S
C595 C601 1.465 . S
C596 C591 1.399 . S
C596 C595 1.394 . S
C596 C597 1.516 . S
C597 C596 1.516 . S
C597 C598 1.502 . S
C597 C599 1.561 . S
C597 C600 1.526 . S
C598 H582 0.959 . S
C598 H583 0.959 . S
C598 H584 0.961 . S
C598 C597 1.502 . S
C599 H585 0.960 . S
C599 H586 0.961 . S
C599 H587 0.959 . S
C599 C597 1.561 . S
C600 C597 1.526 . S
C600 C601 1.396 . S
C600 C605 1.390 . S
C601 C595 1.465 . S
C601 C600 1.396 . S
C601 C602 1.399 . S
C602 H588 0.929 . S
C602 C601 1.399 . S
C602 C603 1.385 . S
C603 H589 0.931 . S
C603 C602 1.385 . S
C603 C604 1.389 . S
C604 C603 1.389 . S
C604 C605 1.387 . S
C605 H590 0.930 . S
C605 C600 1.390 . S
C605 C604 1.387 . S
H606 C618 0.930 . S
H607 C620 0.930 . S
H608 C621 0.930 . S
H609 C625 0.959 . S
H610 C625 0.959 . S
H611 C625 0.961 . S
H612 C626 0.960 . S
H613 C626 0.961 . S
H614 C626 0.959 . S
H615 C629 0.929 . S
H616 C630 0.931 . S
H617 C632 0.930 . S
C618 H606 0.930 . S
C618 C619 1.399 . S
C618 C623 1.399 . S
C619 C618 1.399 . S
C619 C620 1.376 . S
C620 H607 0.930 . S
C620 C619 1.376 . S
C620 C621 1.388 . S
C621 H608 0.930 . S
C621 C620 1.388 . S
C621 C622 1.390 . S
C622 C621 1.390 . S
C622 C623 1.394 . S
C622 C628 1.465 . S
C623 C618 1.399 . S
C623 C622 1.394 . S
C623 C624 1.516 . S
C624 C623 1.516 . S
C624 C625 1.502 . S
C624 C626 1.561 . S
C624 C627 1.526 . S
C625 H609 0.959 . S
C625 H610 0.959 . S
C625 H611 0.961 . S
C625 C624 1.502 . S
C626 H612 0.960 . S
C626 H613 0.961 . S
C626 H614 0.959 . S
C626 C624 1.561 . S
C627 C624 1.526 . S
C627 C628 1.396 . S
C627 C632 1.390 . S
C628 C622 1.465 . S
C628 C627 1.396 . S
C628 C629 1.399 . S
C629 H615 0.929 . S
C629 C628 1.399 . S
C629 C630 1.385 . S
C630 H616 0.931 . S
C630 C629 1.385 . S
C630 C631 1.389 . S
C631 C630 1.389 . S
C631 C632 1.387 . S
C632 H617 0.930 . S
C632 C627 1.390 . S
C632 C631 1.387 . S
H633 C645 0.930 . S
H634 C647 0.930 . S
H635 C648 0.930 . S
H636 C652 0.959 . S
H637 C652 0.959 . S
H638 C652 0.961 . S
H639 C653 0.960 . S
H640 C653 0.961 . S
H641 C653 0.959 . S
H642 C656 0.929 . S
H643 C657 0.931 . S
H644 C659 0.930 . S
C645 H633 0.930 . S
C645 C646 1.399 . S
C645 C650 1.399 . S
C646 C645 1.399 . S
C646 C647 1.376 . S
C647 H634 0.930 . S
C647 C646 1.376 . S
C647 C648 1.388 . S
C648 H635 0.930 . S
C648 C647 1.388 . S
C648 C649 1.390 . S
C649 C648 1.390 . S
C649 C650 1.394 . S
C649 C655 1.465 . S
C650 C645 1.399 . S
C650 C649 1.394 . S
C650 C651 1.516 . S
C651 C650 1.516 . S
C651 C652 1.502 . S
C651 C653 1.561 . S
C651 C654 1.526 . S
C652 H636 0.959 . S
C652 H637 0.959 . S
C652 H638 0.961 . S
C652 C651 1.502 . S
C653 H639 0.960 . S
C653 H640 0.961 . S
C653 H641 0.959 . S
C653 C651 1.561 . S
C654 C651 1.526 . S
C654 C655 1.396 . S
C654 C659 1.390 . S
C655 C649 1.465 . S
C655 C654 1.396 . S
C655 C656 1.399 . S
C656 H642 0.929 . S
C656 C655 1.399 . S
C656 C657 1.385 . S
C657 H643 0.931 . S
C657 C656 1.385 . S
C657 C658 1.389 . S
C658 C657 1.389 . S
C658 C659 1.387 . S
C659 H644 0.930 . S
C659 C654 1.390 . S
C659 C658 1.387 . S
H660 C672 0.930 . S
H661 C674 0.930 . S
H662 C675 0.930 . S
H663 C679 0.959 . S
H664 C679 0.959 . S
H665 C679 0.961 . S
H666 C680 0.960 . S
H667 C680 0.961 . S
H668 C680 0.959 . S
H669 C683 0.929 . S
H670 C684 0.957 . S
H671 C686 0.930 . S
C672 H660 0.930 . S
C672 C673 1.399 . S
C672 C677 1.399 . S
C673 C672 1.399 . S
C673 C674 1.376 . S
C674 H661 0.930 . S
C674 C673 1.376 . S
C674 C675 1.388 . S
C675 H662 0.930 . S
C675 C674 1.388 . S
C675 C676 1.390 . S
C676 C675 1.390 . S
C676 C677 1.394 . S
C676 C682 1.465 . S
C677 C672 1.399 . S
C677 C676 1.394 . S
C677 C678 1.516 . S
C678 C677 1.516 . S
C678 C679 1.502 . S
C678 C680 1.561 1_455 S
C678 C681 1.526 . S
C679 H663 0.959 . S
C679 H664 0.959 . S
C679 H665 0.961 . S
C679 C678 1.502 . S
C680 H666 0.960 . S
C680 H667 0.961 . S
C680 H668 0.959 . S
C680 C678 1.561 1_655 S
C681 C678 1.526 . S
C681 C682 1.396 . S
C681 C686 1.390 . S
C682 C676 1.465 . S
C682 C681 1.396 . S
C682 C683 1.399 . S
C683 H669 0.929 . S
C683 C682 1.399 . S
C683 C684 1.385 . S
C684 H670 0.957 . S
C684 C683 1.385 . S
C684 C685 1.396 . S
C685 C684 1.396 . S
C685 C686 1.398 . S
C686 H671 0.930 . S
C686 C681 1.390 . S
C686 C685 1.398 . S
H687 C699 0.930 . S
H688 C701 0.930 . S
H689 C702 0.930 . S
H690 C706 0.959 . S
H691 C706 0.959 . S
H692 C706 0.961 . S
H693 C707 0.960 . S
H694 C707 0.961 . S
H695 C707 0.959 . S
H696 C710 0.929 . S
H697 C711 0.931 . S
H698 C713 0.930 . S
C699 H687 0.930 . S
C699 C700 1.399 . S
C699 C704 1.399 . S
C700 C699 1.399 . S
C700 C701 1.376 1_545 S
C701 H688 0.930 . S
C701 C700 1.376 1_565 S
C701 C702 1.388 . S
C702 H689 0.930 . S
C702 C701 1.388 . S
C702 C703 1.403 . S
C703 C702 1.403 . S
C703 C704 1.378 1_565 S
C703 C709 1.462 1_565 S
C704 C699 1.399 . S
C704 C703 1.378 1_545 S
C704 C705 1.516 . S
C705 C704 1.516 . S
C705 C706 1.502 . S
C705 C707 1.561 . S
C705 C708 1.526 . S
C706 H690 0.959 . S
C706 H691 0.959 . S
C706 H692 0.961 . S
C706 C705 1.502 . S
C707 H693 0.960 . S
C707 H694 0.961 . S
C707 H695 0.959 . S
C707 C705 1.561 . S
C708 C705 1.526 . S
C708 C709 1.431 . S
C708 C713 1.390 . S
C709 C703 1.462 1_545 S
C709 C708 1.431 . S
C709 C710 1.374 1_545 S
C710 H696 0.929 . S
C710 C709 1.374 1_565 S
C710 C711 1.385 . S
C711 H697 0.931 . S
C711 C710 1.385 . S
C711 C712 1.389 1_565 S
C712 C711 1.389 1_545 S
C712 C713 1.387 . S
C713 H698 0.930 . S
C713 C708 1.390 . S
C713 C712 1.387 . S
H714 C726 0.930 . S
H715 C728 0.930 . S
H716 C729 0.930 . S
H717 C733 0.959 . S
H718 C733 0.959 . S
H719 C733 0.961 . S
H720 C734 0.960 . S
H721 C734 0.961 . S
H722 C734 0.959 . S
H723 C737 0.929 . S
H724 C738 0.931 . S
H725 C740 0.930 . S
C726 H714 0.930 . S
C726 C727 1.399 . S
C726 C731 1.399 . S
C727 C726 1.399 . S
C727 C728 1.376 . S
C728 H715 0.930 . S
C728 C727 1.376 . S
C728 C729 1.388 . S
C729 H716 0.930 . S
C729 C728 1.388 . S
C729 C730 1.390 . S
C730 C729 1.390 . S
C730 C731 1.394 . S
C730 C736 1.465 . S
C731 C726 1.399 . S
C731 C730 1.394 . S
C731 C732 1.516 . S
C732 C731 1.516 . S
C732 C733 1.502 . S
C732 C734 1.561 . S
C732 C735 1.526 . S
C733 H717 0.959 . S
C733 H718 0.959 . S
C733 H719 0.961 . S
C733 C732 1.502 . S
C734 H720 0.960 . S
C734 H721 0.961 . S
C734 H722 0.959 . S
C734 C732 1.561 . S
C735 C732 1.526 . S
C735 C736 1.396 . S
C735 C740 1.390 . S
C736 C730 1.465 . S
C736 C735 1.396 . S
C736 C737 1.399 . S
C737 H723 0.929 . S
C737 C736 1.399 . S
C737 C738 1.385 . S
C738 H724 0.931 . S
C738 C737 1.385 . S
C738 C739 1.389 . S
C739 C738 1.389 . S
C739 C740 1.387 . S
C740 H725 0.930 . S
C740 C735 1.390 . S
C740 C739 1.387 . S
H741 C753 0.930 . S
H742 C755 0.930 . S
H743 C756 0.930 . S
H744 C760 0.959 . S
H745 C760 0.959 . S
H746 C760 0.961 . S
H747 C761 0.960 . S
H748 C761 0.961 . S
H749 C761 0.959 . S
H750 C764 0.929 . S
H751 C765 0.931 . S
H752 C767 0.930 . S
C753 H741 0.930 . S
C753 C754 1.399 1_565 S
C753 C758 1.399 . S
C754 C753 1.399 1_545 S
C754 C755 1.376 . S
C755 H742 0.930 . S
C755 C754 1.376 . S
C755 C756 1.388 . S
C756 H743 0.930 . S
C756 C755 1.388 . S
C756 C757 1.390 . S
C757 C756 1.390 . S
C757 C758 1.394 1_545 S
C757 C763 1.465 . S
C758 C753 1.399 . S
C758 C757 1.394 1_565 S
C758 C759 1.516 . S
C759 C758 1.516 . S
C759 C760 1.502 . S
C759 C761 1.561 . S
C759 C762 1.526 . S
C760 H744 0.959 . S
C760 H745 0.959 . S
C760 H746 0.961 . S
C760 C759 1.502 . S
C761 H747 0.960 . S
C761 H748 0.961 . S
C761 H749 0.959 . S
C761 C759 1.561 . S
C762 C759 1.526 . S
C762 C763 1.396 1_565 S
C762 C767 1.390 . S
C763 C757 1.465 . S
C763 C762 1.396 1_545 S
C763 C764 1.399 . S
C764 H750 0.929 . S
C764 C763 1.399 . S
C764 C765 1.385 . S
C765 H751 0.931 . S
C765 C764 1.385 . S
C765 C766 1.371 1_545 S
C766 C765 1.371 1_565 S
C766 C767 1.400 . S
C767 H752 0.930 . S
C767 C762 1.390 . S
C767 C766 1.400 . S
H768 C780 0.930 . S
H769 C782 0.930 . S
H770 C783 0.930 . S
H771 C787 0.959 . S
H772 C787 0.959 . S
H773 C787 0.961 . S
H774 C788 0.960 . S
H775 C788 0.961 . S
H776 C788 0.959 . S
H777 C791 0.929 . S
H778 C792 0.931 . S
H779 C794 0.930 . S
C780 H768 0.930 . S
C780 C781 1.399 . S
C780 C785 1.399 . S
C781 C780 1.399 . S
C781 C782 1.376 . S
C782 H769 0.930 . S
C782 C781 1.376 . S
C782 C783 1.388 . S
C783 H770 0.930 . S
C783 C782 1.388 . S
C783 C784 1.390 . S
C784 C783 1.390 . S
C784 C785 1.394 . S
C784 C790 1.465 . S
C785 C780 1.399 . S
C785 C784 1.394 . S
C785 C786 1.516 . S
C786 C785 1.516 . S
C786 C787 1.502 . S
C786 C788 1.561 . S
C786 C789 1.526 . S
C787 H771 0.959 . S
C787 H772 0.959 . S
C787 H773 0.961 . S
C787 C786 1.502 . S
C788 H774 0.960 . S
C788 H775 0.961 . S
C788 H776 0.959 . S
C788 C786 1.561 . S
C789 C786 1.526 . S
C789 C790 1.396 . S
C789 C794 1.390 . S
C790 C784 1.465 . S
C790 C789 1.396 . S
C790 C791 1.399 . S
C791 H777 0.929 . S
C791 C790 1.399 . S
C791 C792 1.385 . S
C792 H778 0.931 . S
C792 C791 1.385 . S
C792 C793 1.389 . S
C793 C792 1.389 . S
C793 C794 1.387 . S
C794 H779 0.930 . S
C794 C789 1.390 . S
C794 C793 1.387 . S
H795 C807 0.930 . S
H796 C809 0.930 . S
H797 C810 0.930 . S
H798 C814 0.959 . S
H799 C814 0.959 . S
H800 C814 0.961 . S
H801 C815 0.960 . S
H802 C815 0.961 . S
H803 C815 0.959 1_455 S
H804 C818 0.929 . S
H805 C819 0.931 . S
H806 C821 0.930 . S
C807 H795 0.930 . S
C807 C808 1.399 1_655 S
C807 C812 1.399 . S
C808 C807 1.399 1_455 S
C808 C809 1.376 . S
C809 H796 0.930 . S
C809 C808 1.376 . S
C809 C810 1.388 . S
C810 H797 0.930 . S
C810 C809 1.388 . S
C810 C811 1.390 . S
C811 C810 1.390 . S
C811 C812 1.394 1_455 S
C811 C817 1.465 . S
C812 C807 1.399 . S
C812 C811 1.394 1_655 S
C812 C813 1.516 . S
C813 C812 1.516 . S
C813 C814 1.502 . S
C813 C815 1.561 . S
C813 C816 1.526 . S
C814 H798 0.959 . S
C814 H799 0.959 . S
C814 H800 0.961 . S
C814 C813 1.502 . S
C815 H801 0.960 . S
C815 H802 0.961 . S
C815 H803 0.959 1_655 S
C815 C813 1.561 . S
C816 C813 1.526 . S
C816 C817 1.396 1_655 S
C816 C821 1.390 . S
C817 C811 1.465 . S
C817 C816 1.396 1_455 S
C817 C818 1.399 . S
C818 H804 0.929 . S
C818 C817 1.399 . S
C818 C819 1.385 . S
C819 H805 0.931 . S
C819 C818 1.385 . S
C819 C820 1.389 . S
C820 C819 1.389 . S
C820 C821 1.387 1_455 S
C821 H806 0.930 . S
C821 C816 1.390 . S
C821 C820 1.387 1_655 S
C349 C7 0.521 . S
C361 C325 0.623 . S
C376 C51 1.925 . S
C388 C253 1.826 . S
C403 C87 1.242 . S
C415 C289 1.253 . S
C430 C16 0.535 . S
C442 C301 0.388 . S
C469 C229 2.018 . S
C457 C42 2.051 . S
C496 C265 1.310 . S
C484 C96 1.287 . S
C511 C47 1.186 . S
C523 C181 1.187 . S
C538 C91 3.110 . S
C550 C193 3.059 . S
C565 C2 2.083 . S
C577 C121 2.055 . S
C604 C157 1.292 . S
C592 C56 1.285 . S
C631 C217 2.961 . S
C619 C82 3.014 . S
C646 C11 1.917 . S
C658 C145 1.831 . S
C685 C223 1.749 1_554 S
C673 C19 1.675 . S
C700 C50 1.301 . S
C712 C151 1.351 . S
C727 C99 1.485 . S
C739 C187 1.504 . S
C766 C295 1.462 . S
C754 C59 1.461 . S
C793 C331 1.094 1_556 S
C781 C90 1.083 . S
C808 C10 1.321 . S
C820 C259 1.347 . S
