# Generated by pormake.
# Topology anh, (6,3)-cn, num edge types: 1
# Building blocks:
#     Node 0, Type 0, BuildingBlock: PAMTOO_clean_sbu_0, # of connection points: 6
#     Node 1, Type 0, BuildingBlock: PAMTOO_clean_sbu_0, # of connection points: 6
#     Node 2, Type 0, BuildingBlock: PAMTOO_clean_sbu_0, # of connection points: 6
#     Node 3, Type 1, BuildingBlock: MIDCAF_clean_linker_0, # of connection points: 3
#     Node 4, Type 1, BuildingBlock: MIDCAF_clean_linker_0, # of connection points: 3
#     Node 5, Type 1, BuildingBlock: MIDCAF_clean_linker_0, # of connection points: 3
#     Node 6, Type 1, BuildingBlock: MIDCAF_clean_linker_0, # of connection points: 3
#     Node 7, Type 1, BuildingBlock: MIDCAF_clean_linker_0, # of connection points: 3
#     Node 8, Type 1, BuildingBlock: MIDCAF_clean_linker_0, # of connection points: 3
#     Edge 9, Type (0, 1), BuildingBlock: EZIPEK_clean_linker_0, # of connection points: 2
#     Edge 10, Type (0, 1), BuildingBlock: EZIPEK_clean_linker_0, # of connection points: 2
#     Edge 11, Type (0, 1), BuildingBlock: EZIPEK_clean_linker_0, # of connection points: 2
#     Edge 12, Type (0, 1), BuildingBlock: EZIPEK_clean_linker_0, # of connection points: 2
#     Edge 13, Type (0, 1), BuildingBlock: EZIPEK_clean_linker_0, # of connection points: 2
#     Edge 14, Type (0, 1), BuildingBlock: EZIPEK_clean_linker_0, # of connection points: 2
#     Edge 15, Type (0, 1), BuildingBlock: EZIPEK_clean_linker_0, # of connection points: 2
#     Edge 16, Type (0, 1), BuildingBlock: EZIPEK_clean_linker_0, # of connection points: 2
#     Edge 17, Type (0, 1), BuildingBlock: EZIPEK_clean_linker_0, # of connection points: 2
#     Edge 18, Type (0, 1), BuildingBlock: EZIPEK_clean_linker_0, # of connection points: 2
#     Edge 19, Type (0, 1), BuildingBlock: EZIPEK_clean_linker_0, # of connection points: 2
#     Edge 20, Type (0, 1), BuildingBlock: EZIPEK_clean_linker_0, # of connection points: 2
#     Edge 21, Type (0, 1), BuildingBlock: EZIPEK_clean_linker_0, # of connection points: 2
#     Edge 22, Type (0, 1), BuildingBlock: EZIPEK_clean_linker_0, # of connection points: 2
#     Edge 23, Type (0, 1), BuildingBlock: EZIPEK_clean_linker_0, # of connection points: 2
#     Edge 24, Type (0, 1), BuildingBlock: EZIPEK_clean_linker_0, # of connection points: 2
#     Edge 25, Type (0, 1), BuildingBlock: EZIPEK_clean_linker_0, # of connection points: 2
#     Edge 26, Type (0, 1), BuildingBlock: EZIPEK_clean_linker_0, # of connection points: 2
# Relax obj value: 0.214
# Max RMSD: 0.209
# Mean RMSD: 0.165
data_MOF--net-anh--node1-PAMTOO_clean_sbu_0--node2-MIDCAF_clean_linker_0--edge1-EZIPEK_clean_linker_0
_symmetry_space_group_name_H-M    P1
_symmetry_Int_Tables_number       1
_symmetry_cell_setting            triclinic
loop_
_symmetry_equiv_pos_as_xyz
'x, y, z'
_cell_length_a     28.999608
_cell_length_b     27.46239
_cell_length_c     52.397825
_cell_angle_alpha  90.377228
_cell_angle_beta   95.166405
_cell_angle_gamma 102.24408
loop_
_atom_site_label
_atom_site_type_symbol
_atom_site_fract_x
_atom_site_fract_y
_atom_site_fract_z
_atom_type_partial_charge
Dy0 Dy 0.0865 0.62145 0.14878 0.0
Dy1 Dy 1.05911 0.50104 0.13904 0.0
C2 C 0.07215 0.5752 0.093 0.0
O3 O 1.00595 0.60916 0.14732 0.0
O4 O 0.98748 0.52404 0.14104 0.0
O5 O 0.11293 0.69304 0.13246 0.0
O6 O 0.10073 0.68854 0.17255 0.0
O7 O 0.07678 0.51113 0.18124 0.0
O8 O 0.07011 0.592 0.1871 0.0
O9 O 0.13948 0.51351 0.13966 0.0
O10 O 0.15839 0.5978 0.14896 0.0
O11 O 1.05819 0.42524 0.15039 0.0
O12 O 1.01809 0.43932 0.11538 0.0
C13 C 0.97384 0.56677 0.14416 0.0
O14 O 1.0594 0.60752 0.10776 0.0
O15 O 0.08265 0.53429 0.10226 0.0
C16 C 0.1667 0.74919 0.16104 0.0
C17 C 0.2571 0.81151 0.17232 0.0
C18 C 0.22943 0.81731 0.14963 0.0
C19 C 0.18447 0.78656 0.14411 0.0
C20 C 0.19483 0.7431 0.18364 0.0
C21 C 0.23956 0.7742 0.18927 0.0
C22 C 0.11936 0.71665 0.15456 0.0
C23 C 0.07358 0.54848 0.19613 0.0
C24 C 0.17179 0.55534 0.14443 0.0
C25 C 0.98306 0.37231 0.14072 0.0
C26 C 0.90431 0.30947 0.16003 0.0
C27 C 0.89902 0.3531 0.14732 0.0
C28 C 0.9381 0.38447 0.13791 0.0
C29 C 0.98808 0.3283 0.15311 0.0
C30 C 0.94912 0.29725 0.16277 0.0
C31 C 1.02539 0.40634 0.13225 0.0
H32 H 0.24249 0.84593 0.13636 0.0
H33 H 0.16356 0.79187 0.12656 0.0
H34 H 0.18237 0.71435 0.19697 0.0
H35 H 0.2606 0.76916 0.20682 0.0
H36 H 0.86479 0.36326 0.14507 0.0
H37 H 0.93319 0.41848 0.12876 0.0
H38 H 1.02238 0.31835 0.15568 0.0
H39 H 0.95394 0.26382 0.17256 0.0
Dy40 Dy 0.56004 0.01768 0.522 0.0
Dy41 Dy 0.67664 0.04581 0.53124 0.0
C42 C 0.61356 0.02551 0.57745 0.0
O43 O 0.57827 0.09994 0.51604 0.0
O44 O 0.65342 0.11785 0.537 0.0
O45 O 0.49292 0.99771 0.538 0.0
O46 O 0.49471 1.00632 0.49706 0.0
O47 O 0.6569 0.06343 0.49079 0.0
O48 O 0.58803 1.00448 0.48481 0.0
O49 O 0.65884 0.96326 0.52262 0.0
O50 O 0.58013 0.94464 0.5304 0.0
O51 O 0.74505 0.04189 0.51936 0.0
O52 O 0.74026 0.08324 0.55406 0.0
C53 C 0.61555 0.132 0.52655 0.0
O54 O 0.58085 0.04145 0.56299 0.0
O55 O 0.65037 0.01475 0.56774 0.0
C56 C 0.43546 0.94233 0.51114 0.0
C57 C 0.37258 0.84985 0.50115 0.0
C58 C 0.41288 0.8535 0.51859 0.0
C59 C 0.44437 0.89938 0.52339 0.0
C60 C 0.39488 0.93869 0.49396 0.0
C61 C 0.36368 0.89271 0.48893 0.0
C62 C 0.46871 0.99071 0.51563 0.0
C63 C 0.62353 0.03487 0.47564 0.0
C64 C 0.6198 0.93086 0.52667 0.0
C65 C 0.80043 0.11723 0.52823 0.0
C66 C 0.86189 0.20175 0.51149 0.0
C67 C 0.81651 0.18534 0.49877 0.0
C68 C 0.78593 0.14342 0.50712 0.0
C69 C 0.84563 0.13384 0.54111 0.0
C70 C 0.87626 0.17598 0.5328 0.0
C71 C 0.76781 0.07365 0.5372 0.0
H72 H 0.42021 0.82074 0.52815 0.0
H73 H 0.47575 0.90119 0.53656 0.0
H74 H 0.38756 0.97135 0.48428 0.0
H75 H 0.33269 0.89043 0.47542 0.0
H76 H 0.8049 0.2049 0.48234 0.0
H77 H 0.751 0.13134 0.49706 0.0
H78 H 0.85717 0.11428 0.55756 0.0
H79 H 0.9112 0.18834 0.54282 0.0
Dy80 Dy 0.57963 0.48718 0.85096 0.0
Dy81 Dy 0.46455 0.46474 0.8367 0.0
C82 C 0.53613 0.48318 0.79251 0.0
O83 O 0.55762 0.55951 0.85831 0.0
O84 O 0.49067 0.54623 0.83029 0.0
O85 O 0.64819 0.53705 0.85379 0.0
O86 O 0.64168 0.46037 0.86512 0.0
O87 O 0.47514 0.4814 0.87893 0.0
O88 O 0.55079 0.4691 0.88837 0.0
O89 O 0.48032 0.39062 0.8473 0.0
O90 O 0.55686 0.40763 0.83657 0.0
O91 O 0.39547 0.4718 0.84624 0.0
O92 O 0.4024 0.43436 0.81082 0.0
C93 C 0.52494 0.57657 0.84419 0.0
O94 O 0.57202 0.50144 0.80926 0.0
O95 O 0.49455 0.46075 0.79916 0.0
C96 C 0.70848 0.49739 0.84456 0.0
C97 C 0.78131 0.49855 0.81281 0.0
C98 C 0.7345 0.47669 0.80377 0.0
C99 C 0.69812 0.47627 0.81964 0.0
C100 C 0.75535 0.51767 0.85377 0.0
C101 C 0.79156 0.51819 0.838 0.0
C102 C 0.67046 0.50188 0.86031 0.0
C103 C 0.51029 0.47555 0.89538 0.0
C104 C 0.51845 0.37562 0.84175 0.0
C105 C 0.35257 0.49263 0.8097 0.0
C106 C 0.32613 0.57966 0.79148 0.0
C107 C 0.30662 0.556 0.81291 0.0
C108 C 0.31953 0.51273 0.82187 0.0
C109 C 0.36977 0.51444 0.78717 0.0
C110 C 0.35625 0.55757 0.77797 0.0
C111 C 0.37557 0.45633 0.82353 0.0
H112 H 0.7261 0.46138 0.78439 0.0
H113 H 0.66187 0.46067 0.81236 0.0
H114 H 0.7638 0.53427 0.8729 0.0
H115 H 0.82761 0.5352 0.84521 0.0
H116 H 0.28284 0.57232 0.82341 0.0
H117 H 0.30611 0.49685 0.83932 0.0
H118 H 0.39543 0.49973 0.77742 0.0
H119 H 0.3709 0.57487 0.76111 0.0
C120 C 0.45825 0.92158 0.22997 0.0
C121 C 0.4415 0.93331 0.20538 0.0
C122 C 0.46835 0.97266 0.19255 0.0
C123 C 0.51121 1.00053 0.20446 0.0
H124 H 0.63714 0.1113 0.19441 0.0
H125 H 0.69828 0.1676 0.17291 0.0
H126 H 0.79333 0.18155 0.24194 0.0
H127 H 0.73263 0.1262 0.26371 0.0
H128 H 0.68647 0.0995 0.31718 0.0
H129 H 0.69169 0.09706 0.36414 0.0
H130 H 0.56125 0.9864 0.36003 0.0
H131 H 0.55551 0.98816 0.31335 0.0
H132 H 0.51205 0.93971 0.2611 0.0
H133 H 0.43794 0.89135 0.24012 0.0
H134 H 0.45576 0.98221 0.17354 0.0
H135 H 0.53089 0.03127 0.19439 0.0
N136 N 0.60365 0.05228 0.23092 0.0
N137 N 0.64852 0.07733 0.27028 0.0
N138 N 0.57703 0.01856 0.2693 0.0
C139 C 0.64298 0.08041 0.24428 0.0
C140 C 0.61557 0.04658 0.28294 0.0
C141 C 0.57063 0.02094 0.24341 0.0
C142 C 0.6798 0.11413 0.23085 0.0
C143 C 0.67104 0.12627 0.20504 0.0
C144 C 0.70589 0.15849 0.19271 0.0
C145 C 0.75034 0.17866 0.20584 0.0
C146 C 0.75927 0.16642 0.23149 0.0
C147 C 0.72439 0.13475 0.24389 0.0
C148 C 0.62048 0.04418 0.31137 0.0
C149 C 0.65899 0.07442 0.32621 0.0
C150 C 0.66209 0.07312 0.35303 0.0
C151 C 0.62677 0.04163 0.36541 0.0
C152 C 0.58878 0.01093 0.35074 0.0
C153 C 0.58564 0.01212 0.32402 0.0
C154 C 0.52741 0.98974 0.2295 0.0
C155 C 0.50061 0.9495 0.24192 0.0
C156 C 0.64432 0.36253 0.56166 0.0
C157 C 0.62103 0.34397 0.53792 0.0
C158 C 0.5995 0.37566 0.52203 0.0
C159 C 0.59884 0.42428 0.53063 0.0
H160 H 0.63946 0.60963 0.52469 0.0
H161 H 0.64601 0.69575 0.50974 0.0
H162 H 0.56822 0.72877 0.57155 0.0
H163 H 0.56103 0.6441 0.58633 0.0
H164 H 0.59874 0.5966 0.64196 0.0
H165 H 0.58522 0.58739 0.68736 0.0
H166 H 0.5503 0.42755 0.67671 0.0
H167 H 0.56469 0.43617 0.63155 0.0
H168 H 0.66021 0.42277 0.58918 0.0
H169 H 0.66132 0.33892 0.57414 0.0
H170 H 0.58128 0.36195 0.5036 0.0
H171 H 0.5796 0.44694 0.5188 0.0
N172 N 0.60925 0.53043 0.55546 0.0
N173 N 0.59193 0.56537 0.59375 0.0
N174 N 0.60128 0.48323 0.59279 0.0
C175 C 0.60021 0.57025 0.56865 0.0
C176 C 0.59219 0.52211 0.60589 0.0
C177 C 0.60994 0.48664 0.56778 0.0
C178 C 0.60016 0.61975 0.5569 0.0
C179 C 0.62308 0.635 0.5348 0.0
C180 C 0.62695 0.6842 0.52628 0.0
C181 C 0.60782 0.71873 0.53968 0.0
C182 C 0.5834 0.70292 0.561 0.0
C183 C 0.57952 0.65425 0.56945 0.0
C184 C 0.58293 0.51711 0.63317 0.0
C185 C 0.5881 0.5595 0.64926 0.0
C186 C 0.58049 0.55435 0.67517 0.0
C187 C 0.56683 0.50681 0.68528 0.0
C188 C 0.56097 0.4645 0.66921 0.0
C189 C 0.56929 0.46957 0.64344 0.0
C190 C 0.61958 0.44153 0.55523 0.0
C191 C 0.64366 0.4106 0.57018 0.0
C192 C 0.94946 0.58395 0.83913 0.0
C193 C 0.95627 0.57713 0.8133 0.0
C194 C 1.00009 0.59768 0.80435 0.0
C195 C 1.03682 0.62484 0.82126 0.0
H196 H 0.16287 0.77337 0.83751 0.0
H197 H 0.21965 0.7736 0.8055 0.0
H198 H 0.2854 0.67289 0.85149 0.0
H199 H 0.23082 0.67488 0.88399 0.0
H200 H 0.15713 0.71606 0.95066 0.0
H201 H 0.14926 0.69449 -0.00421 0.0
H202 H 1.04405 0.56236 0.97204 0.0
H203 H 1.05071 0.58401 0.92726 0.0
H204 H 0.97965 0.61461 0.87588 0.0
H205 H 0.91568 0.56835 0.84629 0.0
H206 H 1.0058 0.59258 0.78445 0.0
H207 H 0.07067 0.63987 0.81406 0.0
N208 N 0.10922 0.68421 0.85745 0.0
N209 N 0.14656 0.69299 0.89946 0.0
N210 N 0.06851 0.64686 0.89114 0.0
C211 C 0.14757 0.70319 0.87406 0.0
C212 C 0.10646 0.66536 0.90813 0.0
C213 C 0.06964 0.65605 0.86581 0.0
C214 C 0.19216 0.7234 0.86292 0.0
C215 C 0.19147 0.75395 0.84148 0.0
C216 C 0.22357 0.75377 0.8231 0.0
C217 C 0.25503 0.7214 0.82565 0.0
C218 C 0.26058 0.69733 0.84896 0.0
C219 C 0.22959 0.69878 0.86768 0.0
C220 C 0.10433 0.65199 0.93541 0.0
C221 C 0.1325 0.68237 0.9551 0.0
C222 C 0.12796 0.67017 0.98082 0.0
C223 C 0.09588 0.62695 0.98718 0.0
C224 C 0.06874 0.59598 0.96752 0.0
C225 C 0.0726 0.60856 0.94194 0.0
C226 C 1.03015 0.63108 0.84733 0.0
C227 C 0.986 0.61049 0.856 0.0
C228 C 0.22705 0.67207 0.43967 0.0
C229 C 0.23705 0.67189 0.4663 0.0
C230 C 0.21315 0.63253 0.48028 0.0
C231 C 0.17895 0.59409 0.46768 0.0
H232 H 0.07025 0.4717 0.47925 0.0
H233 H 1.02111 0.40506 0.50182 0.0
H234 H 0.94652 0.34464 0.4299 0.0
H235 H 0.99505 0.4107 0.40706 0.0
H236 H 1.01178 0.50223 0.35578 0.0
H237 H 1.00539 0.50874 0.30888 0.0
H238 H 0.15774 0.53678 0.31024 0.0
H239 H 0.16431 0.53292 0.35706 0.0
H240 H 0.18639 0.63535 0.40649 0.0
H241 H 0.24529 0.70216 0.42862 0.0
H242 H 0.22073 0.63185 0.50088 0.0
H243 H 0.16072 0.5643 0.4789 0.0
N244 N 0.10254 0.5203 0.44014 0.0
N245 N 1.06327 0.48443 0.40113 0.0
N246 N 0.12726 0.55269 0.40117 0.0
C247 C 0.06806 0.48501 0.42721 0.0
C248 C 0.09302 0.51799 0.38808 0.0
C249 C 0.13209 0.5545 0.42717 0.0
C250 C 1.03684 0.44656 0.44127 0.0
C251 C 1.0432 0.44451 0.46819 0.0
C252 C 1.0152 0.40655 0.48116 0.0
C253 C 0.9804 0.37019 0.46744 0.0
C254 C 0.97328 0.37254 0.44072 0.0
C255 C 1.00116 0.41036 0.42775 0.0
C256 C 0.08852 0.51732 0.35988 0.0
C257 C 1.04377 0.50946 0.34597 0.0
C258 C 1.04011 0.51323 0.31928 0.0
C259 C 0.08112 0.52334 0.30615 0.0
C260 C 0.12573 0.52918 0.32004 0.0
C261 C 0.12943 0.527 0.34671 0.0
C262 C 0.16864 0.59431 0.44091 0.0
C263 C 0.19334 0.63369 0.42709 0.0
C264 C 0.5678 0.16379 0.81543 0.0
C265 C 0.53289 0.16822 0.83155 0.0
C266 C 0.50585 0.12448 0.84117 0.0
C267 C 0.51207 0.07703 0.83352 0.0
H268 H 0.55509 0.90894 0.85104 0.0
H269 H 0.55195 0.82347 0.8664 0.0
H270 H 0.50268 0.76424 0.79017 0.0
H271 H 0.50567 0.84824 0.77481 0.0
H272 H 0.57169 0.91256 0.73151 0.0
H273 H 0.58765 0.92078 0.68638 0.0
H274 H 0.58172 0.0761 0.69009 0.0
H275 H 0.56628 0.06875 0.73504 0.0
H276 H 0.60037 0.11529 0.79467 0.0
H277 H 0.58935 0.19681 0.80796 0.0
H278 H 0.47876 0.12705 0.85374 0.0
H279 H 0.48916 0.04395 0.84004 0.0
N280 N 0.53784 0.9791 0.81442 0.0
N281 N 0.54879 0.94082 0.77559 0.0
N282 N 0.55622 0.02689 0.77813 0.0
C283 C 0.53908 0.93677 0.80054 0.0
C284 C 0.55739 0.98561 0.76425 0.0
C285 C 0.54658 0.02461 0.80299 0.0
C286 C 0.53098 0.88579 0.81162 0.0
C287 C 0.54271 0.87763 0.8377 0.0
C288 C 0.54112 0.8288 0.84648 0.0
C289 C 0.52729 0.78733 0.82938 0.0
C290 C 0.5136 0.79545 0.8037 0.0
C291 C 0.51545 0.84378 0.79496 0.0
C292 C 0.56759 0.98994 0.73698 0.0
C293 C 0.57387 0.94852 0.72278 0.0
C294 C 0.58308 0.95311 0.69703 0.0
C295 C 0.58583 0.99904 0.68501 0.0
C296 C 0.57982 0.04041 0.69909 0.0
C297 C 0.57094 0.03599 0.72481 0.0
C298 C 0.54541 0.07276 0.81614 0.0
C299 C 0.57404 0.11691 0.8079 0.0
C300 C 0.74109 0.56531 0.11384 0.0
C301 C 0.76354 0.56344 0.13864 0.0
C302 C 0.73343 0.55971 0.15897 0.0
C303 C 0.68319 0.55681 0.15437 0.0
H304 H 0.46414 0.48649 0.15553 0.0
H305 H 0.38108 0.4882 0.16151 0.0
H306 H 0.39723 0.62973 0.12501 0.0
H307 H 0.48014 0.62821 0.11929 0.0
H308 H 0.46306 0.51696 0.05702 0.0
H309 H 0.44695 0.50069 0.01071 0.0
H310 H 0.59062 0.48441 0.00648 0.0
H311 H 0.6074 0.50058 0.05261 0.0
H312 H 0.67796 0.56457 0.08954 0.0
H313 H 0.76191 0.56837 0.09754 0.0
H314 H 0.74872 0.55843 0.17851 0.0
H315 H 0.66186 0.55255 0.17046 0.0
N316 N 0.57121 0.5573 0.13623 0.0
N317 N 0.51418 0.53353 0.10054 0.0
N318 N 0.59347 0.53272 0.09672 0.0
C319 C 0.52407 0.54922 0.1254 0.0
C320 C 0.54818 0.525 0.08615 0.0
C321 C 0.6067 0.54886 0.12138 0.0
C322 C 0.48102 0.55852 0.13812 0.0
C323 C 0.45104 0.51937 0.15 0.0
C324 C 0.40264 0.5199 0.153 0.0
C325 C 0.38135 0.55912 0.14377 0.0
C326 C 0.41159 0.59891 0.1326 0.0
C327 C 0.45991 0.59844 0.12975 0.0
C328 C 0.5367 0.51054 0.0586 0.0
C329 C 0.49115 0.50933 0.04636 0.0
C330 C 0.48177 0.49998 0.01992 0.0
C331 C 0.51768 0.49151 0.00535 0.0
C332 C 0.56255 0.49085 0.01753 0.0
C333 C 0.57202 0.50028 0.0439 0.0
C334 C 0.66088 0.55779 0.12921 0.0
C335 C 0.69185 0.56294 0.10932 0.0
C336 C 0.2596 0.58065 0.16441 0.0
C337 C 0.2256 0.55512 0.14457 0.0
C338 C 0.29327 0.52798 0.12589 0.0
C339 C 0.32745 0.55736 0.1443 0.0
N340 N 0.342 0.61749 0.17923 0.0
N341 N 0.21384 0.51088 0.10369 0.0
C342 C 0.31009 0.58551 0.16288 0.0
C343 C 0.24359 0.53023 0.12472 0.0
N344 N 0.24373 0.5978 0.18579 0.0
N345 N 0.3082 0.49732 0.10928 0.0
H346 H 0.17802 0.51173 0.10156 0.0
H347 H 0.22542 0.49814 0.08716 0.0
H348 H 0.34382 0.4966 0.10835 0.0
H349 H 0.28516 0.47002 0.09771 0.0
H350 H 0.26585 0.61212 0.20207 0.0
H351 H 0.20789 0.5927 0.18849 0.0
H352 H 0.33256 0.64381 0.19098 0.0
H353 H 0.3785 0.62028 0.17966 0.0
C354 C 0.9327 0.23847 0.48831 0.0
C355 C 0.89454 0.24559 0.50203 0.0
C356 C 0.91272 0.3349 0.4933 0.0
C357 C 0.95237 0.32813 0.48078 0.0
N358 N 1.00601 0.27618 0.47071 0.0
N359 N 0.85305 0.30099 0.52178 0.0
C360 C 0.9642 0.28068 0.47965 0.0
C361 C 0.88601 0.29402 0.5058 0.0
N362 N 0.93759 0.1913 0.48253 0.0
N363 N 0.89964 0.3799 0.49244 0.0
H364 H 0.83285 0.27183 0.53124 0.0
H365 H 0.84846 0.33596 0.52738 0.0
H366 H 0.91885 0.41092 0.48383 0.0
H367 H 0.86803 0.38565 0.4986 0.0
H368 H 0.96132 0.18365 0.47007 0.0
H369 H 0.91528 0.15931 0.4885 0.0
H370 H 1.01904 0.24366 0.47196 0.0
H371 H 1.02988 0.3063 0.46407 0.0
C372 C 0.49061 0.65256 0.85167 0.0
C373 C 0.52758 0.63168 0.84297 0.0
C374 C 0.56884 0.71539 0.83117 0.0
C375 C 0.52972 0.73531 0.83731 0.0
N376 N 0.45347 0.7241 0.85369 0.0
N377 N 0.59908 0.64212 0.82151 0.0
C378 C 0.4908 0.70425 0.8479 0.0
C379 C 0.56624 0.66293 0.83222 0.0
N380 N 0.45579 0.62301 0.86398 0.0
N381 N 0.60895 0.74698 0.82465 0.0
H382 H 0.59839 0.60403 0.8216 0.0
H383 H 0.62482 0.66182 0.81065 0.0
H384 H 0.61194 0.78543 0.82355 0.0
H385 H 0.64065 0.73596 0.82262 0.0
H386 H 0.43024 0.6362 0.87305 0.0
H387 H 0.45392 0.58505 0.86655 0.0
H388 H 0.42135 0.70316 0.85858 0.0
H389 H 0.4537 0.76203 0.85233 0.0
C390 C 0.89952 0.60348 0.13042 0.0
C391 C 0.91997 0.56678 0.14384 0.0
C392 C 0.83738 0.52607 0.15329 0.0
C393 C 0.81798 0.56578 0.14232 0.0
N394 N 0.83566 0.64871 0.12587 0.0
N395 N 0.90648 0.499 0.17327 0.0
C396 C 0.85072 0.60629 0.13256 0.0
C397 C 0.88822 0.52973 0.15669 0.0
N398 N 0.92559 0.63424 0.11417 0.0
N399 N 0.80733 0.48345 0.15959 0.0
H400 H 0.94275 0.50201 0.17752 0.0
H401 H 0.88593 0.47454 0.18499 0.0
H402 H 0.77057 0.47876 0.15718 0.0
H403 H 0.81879 0.45113 0.16485 0.0
H404 H 0.91126 0.65808 0.10193 0.0
H405 H 0.95981 0.63183 0.11061 0.0
H406 H 0.85859 0.68131 0.12111 0.0
H407 H 0.80128 0.65305 0.12786 0.0
C408 C 0.35371 0.76393 0.48073 0.0
C409 C 0.33959 0.80108 0.49531 0.0
C410 C 0.25843 0.75135 0.49294 0.0
C411 C 0.27295 0.71353 0.47909 0.0
N412 N 0.33599 0.67791 0.46537 0.0
N413 N 0.28234 0.82498 0.52074 0.0
C414 C 0.32123 0.71794 0.47485 0.0
C415 C 0.29309 0.79308 0.50318 0.0
N416 N 0.39715 0.77349 0.47135 0.0
N417 N 0.21138 0.74872 0.49523 0.0
H418 H 0.30709 0.85572 0.52878 0.0
H419 H 0.25044 0.8184 0.52913 0.0
H420 H 0.18484 0.71865 0.48815 0.0
H421 H 0.19831 0.77799 0.50247 0.0
H422 H 0.40724 0.74995 0.45826 0.0
H423 H 0.42192 0.80689 0.47495 0.0
H424 H 0.3715 0.67722 0.46419 0.0
H425 H 0.31297 0.64358 0.461 0.0
C426 C 0.54842 0.3013 0.85903 0.0
C427 C 0.51832 0.32109 0.84087 0.0
C428 C 0.49006 0.23753 0.8206 0.0
C429 C 0.52403 0.2191 0.8369 0.0
N430 N 0.58766 0.2336 0.87072 0.0
N431 N 0.46377 0.3096 0.80274 0.0
C432 C 0.55363 0.25104 0.85597 0.0
C433 C 0.48958 0.28947 0.82138 0.0
N434 N 0.57098 0.33025 0.87967 0.0
N435 N 0.45821 0.20525 0.8043 0.0
H436 H 0.46247 0.34726 0.80262 0.0
H437 H 0.44646 0.29003 0.78632 0.0
H438 H 0.45838 0.16743 0.80265 0.0
H439 H 0.4293 0.21489 0.79391 0.0
H440 H 0.58946 0.31684 0.89506 0.0
H441 H 0.56799 0.36704 0.88251 0.0
H442 H 0.61433 0.25625 0.88271 0.0
H443 H 0.59081 0.19648 0.86994 0.0
C444 C 0.58623 0.8416 0.51182 0.0
C445 C 0.62036 0.87651 0.52765 0.0
C446 C 0.65317 0.80736 0.54603 0.0
C447 C 0.61517 0.77251 0.53288 0.0
N448 N 0.54294 0.7559 0.50475 0.0
N449 N 0.68217 0.89179 0.56272 0.0
C450 C 0.58107 0.78949 0.51607 0.0
C451 C 0.65315 0.85925 0.54533 0.0
N452 N 0.55978 0.8582 0.49216 0.0
N453 N 0.68936 0.79078 0.55931 0.0
H454 H 0.68262 0.92978 0.56353 0.0
H455 H 0.70273 0.88054 0.57796 0.0
H456 H 0.69011 0.75306 0.56063 0.0
H457 H 0.72058 0.81441 0.56701 0.0
H458 H 0.53749 0.83464 0.47848 0.0
H459 H 0.56348 0.89585 0.48802 0.0
H460 H 0.51378 0.76614 0.4949 0.0
H461 H 0.53912 0.71747 0.50657 0.0
C462 C 0.85431 0.47443 0.80134 0.0
C463 C 0.82072 0.50442 0.79632 0.0
C464 C 0.88225 0.57398 0.78529 0.0
C465 C 0.91599 0.54824 0.79649 0.0
N466 N 0.93784 0.47049 0.80568 0.0
N467 N 0.7987 0.57306 0.77398 0.0
C468 C 0.90306 0.49655 0.80063 0.0
C469 C 0.83349 0.5507 0.7844 0.0
N470 N 0.83931 0.42668 0.8089 0.0
N471 N 0.897 0.62187 0.77786 0.0
H472 H 0.76293 0.55572 0.77359 0.0
H473 H 0.80497 0.60639 0.76427 0.0
H474 H 0.93291 0.63847 0.77805 0.0
H475 H 0.87434 0.64494 0.77161 0.0
H476 H 0.86178 0.4032 0.81483 0.0
H477 H 0.80326 0.41072 0.80901 0.0
H478 H 0.93158 0.43232 0.8086 0.0
H479 H 0.97358 0.48758 0.80534 0.0
C480 C 0.30759 0.89214 0.19063 0.0
C481 C 0.30442 0.8449 0.17861 0.0
C482 C 0.39123 0.86053 0.17968 0.0
C483 C 0.39443 0.90536 0.19397 0.0
N484 N 0.35688 0.96335 0.21454 0.0
N485 N 0.34209 0.78215 0.16261 0.0
C486 C 0.35289 0.92127 0.19966 0.0
C487 C 0.34598 0.82865 0.17325 0.0
N488 N 0.2672 0.9092 0.19325 0.0
N489 N 0.43154 0.84891 0.17202 0.0
H490 H 0.30957 0.75872 0.15663 0.0
H491 H 0.37073 0.76544 0.16093 0.0
H492 H 0.46519 0.87114 0.17677 0.0
H493 H 0.43168 0.81947 0.15946 0.0
H494 H 0.26706 0.94543 0.19912 0.0
H495 H 0.2333 0.88807 0.18794 0.0
H496 H 0.32842 0.97384 0.22216 0.0
H497 H 0.38936 0.9868 0.22057 0.0
C498 C 0.57905 0.20304 0.53968 0.0
C499 C 0.61462 0.18625 0.52723 0.0
C500 C 0.65307 0.27344 0.51994 0.0
C501 C 0.61627 0.28992 0.53131 0.0
N502 N 0.53957 0.2705 0.5476 0.0
N503 N 0.68 0.20476 0.50096 0.0
C504 C 0.57765 0.25463 0.53964 0.0
C505 C 0.65011 0.22131 0.51605 0.0
N506 N 0.5484 0.17027 0.55304 0.0
N507 N 0.69149 0.30765 0.51345 0.0
H508 H 0.67832 0.16705 0.4973 0.0
H509 H 0.70358 0.22813 0.49022 0.0
H510 H 0.69372 0.34601 0.5149 0.0
H511 H 0.72225 0.29819 0.5081 0.0
H512 H 0.52533 0.18116 0.56496 0.0
H513 H 0.54881 0.1325 0.55421 0.0
H514 H 0.50806 0.2464 0.55119 0.0
H515 H 0.53779 0.308 0.54851 0.0
C516 C 0.26728 0.62828 0.77666 0.0
C517 C 0.31492 0.62835 0.78463 0.0
C518 C 0.32522 0.71147 0.80397 0.0
C519 C 0.27532 0.70362 0.8032 0.0
N520 N 0.19824 0.66095 0.78396 0.0
N521 N 0.39333 0.67553 0.79724 0.0
C522 C 0.24619 0.6651 0.78709 0.0
C523 C 0.34557 0.67252 0.79496 0.0
N524 N 0.2423 0.59115 0.76031 0.0
N525 N 0.35213 0.75456 0.81501 0.0
H526 H 0.4082 0.64694 0.79069 0.0
H527 H 0.41826 0.70673 0.80428 0.0
H528 H 0.3365 0.78268 0.82155 0.0
H529 H 0.38895 0.76361 0.81662 0.0
H530 H 0.20787 0.5897 0.75228 0.0
H531 H 0.25833 0.56391 0.75314 0.0
H532 H 0.17454 0.63024 0.77531 0.0
H533 H 0.18171 0.68829 0.79029 0.0
C534 C 0.84293 0.29408 0.19197 0.0
C535 C 0.86314 0.27676 0.17088 0.0
C536 C 0.81061 0.19435 0.17326 0.0
C537 C 0.78782 0.21289 0.19293 0.0
N538 N 0.77553 0.28328 0.21715 0.0
N539 N 0.85941 0.21389 0.13795 0.0
C540 C 0.80197 0.26369 0.20112 0.0
C541 C 0.84493 0.22787 0.16047 0.0
N542 N 0.86398 0.33862 0.20399 0.0
N543 N 0.80099 0.14439 0.16747 0.0
H544 H 0.88397 0.23762 0.12784 0.0
H545 H 0.84379 0.1806 0.12807 0.0
H546 H 0.77648 0.11849 0.17653 0.0
H547 H 0.82029 0.1281 0.15534 0.0
H548 H 0.8538 0.35058 0.22111 0.0
H549 H 0.89446 0.36169 0.19822 0.0
H550 H 0.78125 0.32122 0.22166 0.0
H551 H 0.74496 0.26236 0.224 0.0
C552 C 1.03874 0.5957 0.04949 0.0
C553 C 0.07791 0.58736 0.0658 0.0
C554 C 0.12771 0.60076 0.03003 0.0
C555 C 0.08999 0.61407 0.01441 0.0
N556 N 1.01244 0.63389 0.01087 0.0
N557 N 0.16253 0.59502 0.07327 0.0
C558 C 1.04621 0.61426 0.02459 0.0
C559 C 0.12324 0.59338 0.05655 0.0
N560 N 0.99421 0.58457 0.05751 0.0
N561 N 0.16729 0.59375 0.01947 0.0
H562 H 0.16106 0.59272 0.09302 0.0
H563 H 0.19695 0.6041 0.06784 0.0
H564 H 0.17173 0.59809 2e-05 0.0
H565 H 0.19362 0.57905 0.02955 0.0
H566 H 0.96369 0.58507 0.04549 0.0
H567 H 0.98732 0.57036 0.07552 0.0
H568 H 0.98192 0.63965 0.01838 0.0
H569 H 1.017 0.64893 0.99281 0.0
C570 C 0.61664 0.07987 0.43445 0.0
C571 C 0.62579 0.03731 0.44755 0.0
C572 C 0.64172 1.00088 0.40722 0.0
C573 C 0.62855 0.04134 0.39385 0.0
N574 N 0.59756 0.11618 0.39381 0.0
N575 N 0.64285 0.95512 0.44667 0.0
C576 C 0.6147 0.0802 0.40723 0.0
C577 C 0.63704 0.9971 0.43399 0.0
N578 N 0.60974 0.12001 0.44804 0.0
N579 N 0.66012 0.96696 0.3944 0.0
H580 H 0.64233 0.95199 0.46647 0.0
H581 H 0.64537 0.92219 0.43749 0.0
H582 H 0.66403 0.96864 0.37481 0.0
H583 H 0.67506 0.93953 0.40339 0.0
H584 H 0.60894 0.15446 0.44005 0.0
H585 H 0.60768 0.12003 0.46778 0.0
H586 H 0.58167 0.14216 0.40213 0.0
H587 H 0.59591 0.11798 0.37388 0.0
C588 C 0.51564 0.51559 0.7492 0.0
C589 C 0.54297 0.48826 0.76494 0.0
C590 C 0.58953 0.47862 0.72927 0.0
C591 C 0.55888 0.50105 0.71281 0.0
N592 N 0.4869 0.53206 0.70599 0.0
N593 N 0.59861 0.43413 0.76846 0.0
C594 C 0.52019 0.51704 0.72244 0.0
C595 C 0.57794 0.46706 0.75457 0.0
N596 N 0.48684 0.5419 0.75987 0.0
N597 N 0.63048 0.46978 0.72104 0.0
H598 H 0.58938 0.42306 0.78665 0.0
H599 H 0.62115 0.41399 0.76094 0.0
H600 H 0.64073 0.4786 0.70276 0.0
H601 H 0.65642 0.45827 0.73315 0.0
H602 H 0.46996 0.56663 0.74966 0.0
H603 H 0.48321 0.54266 0.77946 0.0
H604 H 0.45541 0.5391 0.71173 0.0
H605 H 0.48856 0.53299 0.6862 0.0
C606 C 0.64252 0.04273 0.62402 0.0
C607 C 0.60752 0.01746 0.60501 0.0
C608 C 0.5573 0.98214 0.63843 0.0
C609 C 0.59393 1.00394 0.65745 0.0
N610 N 0.67486 0.04714 0.66849 0.0
N611 N 0.53669 0.95402 0.59423 0.0
C612 C 0.63765 0.03192 0.65027 0.0
C613 C 0.56629 0.98457 0.61223 0.0
N614 N 0.67928 0.07869 0.61712 0.0
N615 N 0.51333 0.9606 0.64528 0.0
H616 H 0.54285 0.9534 0.57496 0.0
H617 H 0.50882 0.92573 0.59879 0.0
H618 H 0.50513 0.95818 0.66427 0.0
H619 H 0.48392 0.94914 0.63204 0.0
H620 H 0.70303 0.10203 0.63031 0.0
H621 H 0.68359 0.0884 0.59814 0.0
H622 H 0.70903 0.06313 0.66412 0.0
H623 H 0.67264 0.03969 0.68789 0.0
C624 C 0.50997 0.52625 0.93515 0.0
C625 C 0.50552 0.47878 0.92316 0.0
C626 C 0.50002 0.43897 0.96488 0.0
C627 C 0.50972 0.48684 0.97701 0.0
N628 N 0.52766 0.57644 0.97448 0.0
N629 N 0.49817 0.38995 0.92589 0.0
C630 C 0.51516 0.53062 0.96235 0.0
C631 C 0.50083 0.43504 0.93783 0.0
N632 N 0.50959 0.56723 0.92051 0.0
N633 N 0.48927 0.39743 0.97927 0.0
H634 H 0.49586 0.38535 0.906 0.0
H635 H 0.5005 0.35749 0.93558 0.0
H636 H 0.48878 0.39921 -0.00086 0.0
H637 H 0.47737 0.3615 0.97152 0.0
H638 H 0.50703 0.60178 0.92782 0.0
H639 H 0.5086 0.56603 0.9006 0.0
H640 H 0.53794 0.60968 0.96506 0.0
H641 H 0.53084 0.58131 -0.00563 0.0
C642 C 0.10396 0.57889 0.24112 0.0
C643 C 0.07508 0.54167 0.22426 0.0
C644 C 1.05412 0.48974 0.26112 0.0
C645 C 0.0778 0.52974 0.27793 0.0
N646 N 0.11511 0.61708 0.28348 0.0
N647 N 1.01383 0.46614 0.21908 0.0
C648 C 0.09964 0.5758 0.2678 0.0
C649 C 1.0476 0.49825 0.23446 0.0
N650 N 0.13737 0.6158 0.23197 0.0
N651 N 1.03932 0.44317 0.27037 0.0
H652 H 1.00625 0.47172 0.19966 0.0
H653 H 0.98984 0.43678 0.22621 0.0
H654 H 1.04458 0.43498 0.28968 0.0
H655 H 1.02616 0.41178 0.2585 0.0
H656 H 0.16206 0.64096 0.24394 0.0
H657 H 0.14428 0.61779 0.21279 0.0
H658 H 0.12723 0.65253 0.27653 0.0
H659 H 0.11103 0.61695 0.30306 0.0
loop_
_geom_bond_atom_site_label_1
_geom_bond_atom_site_label_2
_geom_bond_distance
_geom_bond_site_symmetry_2
_ccdc_geom_bond_type
Dy0 O3 2.307 1_455 S
Dy0 O5 2.395 . S
Dy0 O6 2.379 . S
Dy0 O8 2.339 . S
Dy0 O10 2.298 . S
Dy0 O14 2.275 . S
Dy0 C22 2.738 . S
Dy1 O4 2.298 . S
Dy1 O7 2.275 1_655 S
Dy1 O9 2.307 1_655 S
Dy1 O11 2.395 . S
Dy1 O12 2.379 . S
Dy1 O15 2.339 . S
Dy1 C31 2.738 . S
C2 O14 1.254 . S
C2 O15 1.257 1_455 S
O3 Dy0 2.307 1_655 S
O3 C13 1.266 . S
O4 Dy1 2.298 . S
O4 C13 1.236 . S
O5 Dy0 2.395 . S
O5 C22 1.255 . S
O6 Dy0 2.379 . S
O6 C22 1.249 . S
O7 Dy1 2.275 1_455 S
O7 C23 1.254 . S
O8 Dy0 2.339 . S
O8 C23 1.257 . S
O9 Dy1 2.307 1_455 S
O9 C24 1.266 . S
O10 Dy0 2.298 . S
O10 C24 1.236 . S
O11 Dy1 2.395 . S
O11 C31 1.255 . S
O12 Dy1 2.379 . S
O12 C31 1.249 . S
C13 O3 1.266 . S
C13 O4 1.236 . S
O14 Dy0 2.275 . S
O14 C2 1.254 . S
O15 Dy1 2.339 . S
O15 C2 1.257 1_655 S
C16 C19 1.344 . S
C16 C20 1.328 . S
C16 C22 1.516 . S
C17 C18 1.304 . S
C17 C21 1.323 . S
C18 C17 1.304 . S
C18 C19 1.371 . S
C18 H32 0.930 . S
C19 C16 1.344 . S
C19 C18 1.371 . S
C19 H33 0.931 . S
C20 C16 1.328 . S
C20 C21 1.433 . S
C20 H34 0.931 . S
C21 C17 1.323 . S
C21 C20 1.433 . S
C21 H35 0.933 . S
C22 Dy0 2.738 . S
C22 O5 1.255 . S
C22 O6 1.249 . S
C22 C16 1.516 . S
C23 O7 1.254 . S
C23 O8 1.257 . S
C24 O9 1.266 . S
C24 O10 1.236 . S
C25 C28 1.344 . S
C25 C29 1.328 . S
C25 C31 1.516 . S
C26 C27 1.304 . S
C26 C30 1.323 . S
C27 C26 1.304 . S
C27 C28 1.371 . S
C27 H36 0.930 . S
C28 C25 1.344 . S
C28 C27 1.371 . S
C28 H37 0.931 . S
C29 C25 1.328 . S
C29 C30 1.433 . S
C29 H38 0.931 . S
C30 C26 1.323 . S
C30 C29 1.433 . S
C30 H39 0.933 . S
C31 Dy1 2.738 . S
C31 O11 1.255 . S
C31 O12 1.249 . S
C31 C25 1.516 . S
H32 C18 0.930 . S
H33 C19 0.931 . S
H34 C20 0.931 . S
H35 C21 0.933 . S
H36 C27 0.930 . S
H37 C28 0.931 . S
H38 C29 0.931 . S
H39 C30 0.933 . S
Dy40 O43 2.307 1_565 S
Dy40 O45 2.395 . S
Dy40 O46 2.379 . S
Dy40 O48 2.339 1_565 S
Dy40 O50 2.298 . S
Dy40 O54 2.275 1_565 S
Dy40 C62 2.738 . S
Dy41 O44 2.298 . S
Dy41 O47 2.275 . S
Dy41 O49 2.307 1_545 S
Dy41 O51 2.395 . S
Dy41 O52 2.379 . S
Dy41 O55 2.339 . S
Dy41 C71 2.738 . S
C42 O54 1.254 . S
C42 O55 1.257 . S
O43 Dy40 2.307 1_545 S
O43 C53 1.266 . S
O44 Dy41 2.298 . S
O44 C53 1.236 . S
O45 Dy40 2.395 . S
O45 C62 1.255 . S
O46 Dy40 2.379 . S
O46 C62 1.249 . S
O47 Dy41 2.275 . S
O47 C63 1.254 . S
O48 Dy40 2.339 1_545 S
O48 C63 1.257 . S
O49 Dy41 2.307 1_565 S
O49 C64 1.266 . S
O50 Dy40 2.298 . S
O50 C64 1.236 . S
O51 Dy41 2.395 . S
O51 C71 1.255 . S
O52 Dy41 2.379 . S
O52 C71 1.249 . S
C53 O43 1.266 . S
C53 O44 1.236 . S
O54 Dy40 2.275 1_545 S
O54 C42 1.254 . S
O55 Dy41 2.339 . S
O55 C42 1.257 . S
C56 C59 1.344 . S
C56 C60 1.328 . S
C56 C62 1.516 . S
C57 C58 1.304 . S
C57 C61 1.323 . S
C58 C57 1.304 . S
C58 C59 1.371 . S
C58 H72 0.930 . S
C59 C56 1.344 . S
C59 C58 1.371 . S
C59 H73 0.931 . S
C60 C56 1.328 . S
C60 C61 1.433 . S
C60 H74 0.931 . S
C61 C57 1.323 . S
C61 C60 1.433 . S
C61 H75 0.933 . S
C62 Dy40 2.738 . S
C62 O45 1.255 . S
C62 O46 1.249 . S
C62 C56 1.516 . S
C63 O47 1.254 . S
C63 O48 1.257 . S
C64 O49 1.266 . S
C64 O50 1.236 . S
C65 C68 1.344 . S
C65 C69 1.328 . S
C65 C71 1.516 . S
C66 C67 1.304 . S
C66 C70 1.323 . S
C67 C66 1.304 . S
C67 C68 1.371 . S
C67 H76 0.930 . S
C68 C65 1.344 . S
C68 C67 1.371 . S
C68 H77 0.931 . S
C69 C65 1.328 . S
C69 C70 1.433 . S
C69 H78 0.931 . S
C70 C66 1.323 . S
C70 C69 1.433 . S
C70 H79 0.933 . S
C71 Dy41 2.738 . S
C71 O51 1.255 . S
C71 O52 1.249 . S
C71 C65 1.516 . S
H72 C58 0.930 . S
H73 C59 0.931 . S
H74 C60 0.931 . S
H75 C61 0.933 . S
H76 C67 0.930 . S
H77 C68 0.931 . S
H78 C69 0.931 . S
H79 C70 0.933 . S
Dy80 O83 2.307 . S
Dy80 O85 2.395 . S
Dy80 O86 2.379 . S
Dy80 O88 2.339 . S
Dy80 O90 2.298 . S
Dy80 O94 2.275 . S
Dy80 C102 2.738 . S
Dy81 O84 2.298 . S
Dy81 O87 2.275 . S
Dy81 O89 2.307 . S
Dy81 O91 2.395 . S
Dy81 O92 2.379 . S
Dy81 O95 2.339 . S
Dy81 C111 2.738 . S
C82 O94 1.254 . S
C82 O95 1.257 . S
O83 Dy80 2.307 . S
O83 C93 1.266 . S
O84 Dy81 2.298 . S
O84 C93 1.236 . S
O85 Dy80 2.395 . S
O85 C102 1.255 . S
O86 Dy80 2.379 . S
O86 C102 1.249 . S
O87 Dy81 2.275 . S
O87 C103 1.254 . S
O88 Dy80 2.339 . S
O88 C103 1.257 . S
O89 Dy81 2.307 . S
O89 C104 1.266 . S
O90 Dy80 2.298 . S
O90 C104 1.236 . S
O91 Dy81 2.395 . S
O91 C111 1.255 . S
O92 Dy81 2.379 . S
O92 C111 1.249 . S
C93 O83 1.266 . S
C93 O84 1.236 . S
O94 Dy80 2.275 . S
O94 C82 1.254 . S
O95 Dy81 2.339 . S
O95 C82 1.257 . S
C96 C99 1.344 . S
C96 C100 1.328 . S
C96 C102 1.516 . S
C97 C98 1.304 . S
C97 C101 1.323 . S
C98 C97 1.304 . S
C98 C99 1.371 . S
C98 H112 0.930 . S
C99 C96 1.344 . S
C99 C98 1.371 . S
C99 H113 0.931 . S
C100 C96 1.328 . S
C100 C101 1.433 . S
C100 H114 0.931 . S
C101 C97 1.323 . S
C101 C100 1.433 . S
C101 H115 0.933 . S
C102 Dy80 2.738 . S
C102 O85 1.255 . S
C102 O86 1.249 . S
C102 C96 1.516 . S
C103 O87 1.254 . S
C103 O88 1.257 . S
C104 O89 1.266 . S
C104 O90 1.236 . S
C105 C108 1.344 . S
C105 C109 1.328 . S
C105 C111 1.516 . S
C106 C107 1.304 . S
C106 C110 1.323 . S
C107 C106 1.304 . S
C107 C108 1.371 . S
C107 H116 0.930 . S
C108 C105 1.344 . S
C108 C107 1.371 . S
C108 H117 0.931 . S
C109 C105 1.328 . S
C109 C110 1.433 . S
C109 H118 0.931 . S
C110 C106 1.323 . S
C110 C109 1.433 . S
C110 H119 0.933 . S
C111 Dy81 2.738 . S
C111 O91 1.255 . S
C111 O92 1.249 . S
C111 C105 1.516 . S
H112 C98 0.930 . S
H113 C99 0.931 . S
H114 C100 0.931 . S
H115 C101 0.933 . S
H116 C107 0.930 . S
H117 C108 0.931 . S
H118 C109 0.931 . S
H119 C110 0.933 . S
C120 C121 1.384 . S
C120 H133 0.947 . S
C120 C155 1.382 . S
C121 C120 1.384 . S
C121 C122 1.378 . S
C122 C121 1.378 . S
C122 C123 1.378 . S
C122 H134 0.952 . S
C123 C122 1.378 . S
C123 H135 0.950 . S
C123 C154 1.383 . S
H124 C143 0.947 . S
H125 C144 0.946 . S
H126 C146 0.953 . S
H127 C147 0.945 . S
H128 C149 0.952 . S
H129 C150 0.949 . S
H130 C152 0.950 1_565 S
H131 C153 0.948 1_565 S
H132 C155 0.951 . S
H133 C120 0.947 . S
H134 C122 0.952 . S
H135 C123 0.950 . S
N136 C139 1.382 . S
N136 C141 1.363 . S
N137 C139 1.371 . S
N137 C140 1.372 . S
N138 C140 1.361 . S
N138 C141 1.377 . S
C139 N136 1.382 . S
C139 N137 1.371 . S
C139 C142 1.480 . S
C140 N137 1.372 . S
C140 N138 1.361 . S
C140 C148 1.457 . S
C141 N136 1.363 . S
C141 N138 1.377 . S
C141 C154 1.479 1_545 S
C142 C139 1.480 . S
C142 C143 1.383 . S
C142 C147 1.385 . S
C143 H124 0.947 . S
C143 C142 1.383 . S
C143 C144 1.388 . S
C144 H125 0.946 . S
C144 C143 1.388 . S
C144 C145 1.384 . S
C145 C144 1.384 . S
C145 C146 1.377 . S
C146 H126 0.953 . S
C146 C145 1.377 . S
C146 C147 1.369 . S
C147 H127 0.945 . S
C147 C142 1.385 . S
C147 C146 1.369 . S
C148 C140 1.457 . S
C148 C149 1.372 . S
C148 C153 1.364 . S
C149 H128 0.952 . S
C149 C148 1.372 . S
C149 C150 1.389 . S
C150 H129 0.949 . S
C150 C149 1.389 . S
C150 C151 1.387 . S
C151 C150 1.387 . S
C151 C152 1.372 . S
C152 H130 0.950 1_545 S
C152 C151 1.372 . S
C152 C153 1.379 . S
C153 H131 0.948 1_545 S
C153 C148 1.364 . S
C153 C152 1.379 . S
C154 C123 1.383 . S
C154 C141 1.479 1_565 S
C154 C155 1.398 . S
C155 C120 1.382 . S
C155 H132 0.951 . S
C155 C154 1.398 . S
C156 C157 1.384 . S
C156 H169 0.947 . S
C156 C191 1.382 . S
C157 C156 1.384 . S
C157 C158 1.378 . S
C158 C157 1.378 . S
C158 C159 1.378 . S
C158 H170 0.952 . S
C159 C158 1.378 . S
C159 H171 0.950 . S
C159 C190 1.383 . S
H160 C179 0.947 . S
H161 C180 0.946 . S
H162 C182 0.953 . S
H163 C183 0.945 . S
H164 C185 0.952 . S
H165 C186 0.949 . S
H166 C188 0.950 . S
H167 C189 0.948 . S
H168 C191 0.951 . S
H169 C156 0.947 . S
H170 C158 0.952 . S
H171 C159 0.950 . S
N172 C175 1.382 . S
N172 C177 1.363 . S
N173 C175 1.371 . S
N173 C176 1.372 . S
N174 C176 1.361 . S
N174 C177 1.377 . S
C175 N172 1.382 . S
C175 N173 1.371 . S
C175 C178 1.480 . S
C176 N173 1.372 . S
C176 N174 1.361 . S
C176 C184 1.457 . S
C177 N172 1.363 . S
C177 N174 1.377 . S
C177 C190 1.479 . S
C178 C175 1.480 . S
C178 C179 1.383 . S
C178 C183 1.385 . S
C179 H160 0.947 . S
C179 C178 1.383 . S
C179 C180 1.388 . S
C180 H161 0.946 . S
C180 C179 1.388 . S
C180 C181 1.384 . S
C181 C180 1.384 . S
C181 C182 1.377 . S
C182 H162 0.953 . S
C182 C181 1.377 . S
C182 C183 1.369 . S
C183 H163 0.945 . S
C183 C178 1.385 . S
C183 C182 1.369 . S
C184 C176 1.457 . S
C184 C185 1.372 . S
C184 C189 1.364 . S
C185 H164 0.952 . S
C185 C184 1.372 . S
C185 C186 1.389 . S
C186 H165 0.949 . S
C186 C185 1.389 . S
C186 C187 1.387 . S
C187 C186 1.387 . S
C187 C188 1.372 . S
C188 H166 0.950 . S
C188 C187 1.372 . S
C188 C189 1.379 . S
C189 H167 0.948 . S
C189 C184 1.364 . S
C189 C188 1.379 . S
C190 C159 1.383 . S
C190 C177 1.479 . S
C190 C191 1.398 . S
C191 C156 1.382 . S
C191 H168 0.951 . S
C191 C190 1.398 . S
C192 C193 1.384 . S
C192 H205 0.947 . S
C192 C227 1.382 . S
C193 C192 1.384 . S
C193 C194 1.378 . S
C194 C193 1.378 . S
C194 C195 1.378 . S
C194 H206 0.952 . S
C195 C194 1.378 . S
C195 H207 0.950 . S
C195 C226 1.383 . S
H196 C215 0.947 . S
H197 C216 0.946 . S
H198 C218 0.953 . S
H199 C219 0.945 . S
H200 C221 0.952 . S
H201 C222 0.949 . S
H202 C224 0.950 . S
H203 C225 0.948 . S
H204 C227 0.951 . S
H205 C192 0.947 . S
H206 C194 0.952 . S
H207 C195 0.950 . S
N208 C211 1.382 . S
N208 C213 1.363 1_455 S
N209 C211 1.371 . S
N209 C212 1.372 . S
N210 C212 1.361 1_655 S
N210 C213 1.377 . S
C211 N208 1.382 . S
C211 N209 1.371 . S
C211 C214 1.480 . S
C212 N209 1.372 . S
C212 N210 1.361 1_455 S
C212 C220 1.457 . S
C213 N208 1.363 1_655 S
C213 N210 1.377 . S
C213 C226 1.479 . S
C214 C211 1.480 . S
C214 C215 1.383 . S
C214 C219 1.385 . S
C215 H196 0.947 . S
C215 C214 1.383 . S
C215 C216 1.388 . S
C216 H197 0.946 . S
C216 C215 1.388 . S
C216 C217 1.384 . S
C217 C216 1.384 . S
C217 C218 1.377 . S
C218 H198 0.953 . S
C218 C217 1.377 . S
C218 C219 1.369 . S
C219 H199 0.945 . S
C219 C214 1.385 . S
C219 C218 1.369 . S
C220 C212 1.457 . S
C220 C221 1.372 . S
C220 C225 1.364 1_455 S
C221 H200 0.952 . S
C221 C220 1.372 . S
C221 C222 1.389 1_556 S
C222 H201 0.949 . S
C222 C221 1.389 1_554 S
C222 C223 1.387 . S
C223 C222 1.387 . S
C223 C224 1.372 1_455 S
C224 H202 0.950 . S
C224 C223 1.372 1_655 S
C224 C225 1.379 1_554 S
C225 H203 0.948 . S
C225 C220 1.364 1_655 S
C225 C224 1.379 1_556 S
C226 C195 1.383 . S
C226 C213 1.479 . S
C226 C227 1.398 . S
C227 C192 1.382 . S
C227 H204 0.951 . S
C227 C226 1.398 . S
C228 C229 1.384 . S
C228 H241 0.947 . S
C228 C263 1.382 . S
C229 C228 1.384 . S
C229 C230 1.378 . S
C230 C229 1.378 . S
C230 C231 1.378 . S
C230 H242 0.952 . S
C231 C230 1.378 . S
C231 H243 0.950 . S
C231 C262 1.383 . S
H232 C251 0.947 . S
H233 C252 0.946 . S
H234 C254 0.953 . S
H235 C255 0.945 . S
H236 C257 0.952 . S
H237 C258 0.949 . S
H238 C260 0.950 . S
H239 C261 0.948 . S
H240 C263 0.951 . S
H241 C228 0.947 . S
H242 C230 0.952 . S
H243 C231 0.950 . S
N244 C247 1.382 1_455 S
N244 C249 1.363 . S
N245 C247 1.371 . S
N245 C248 1.372 1_655 S
N246 C248 1.361 . S
N246 C249 1.377 . S
C247 N244 1.382 1_655 S
C247 N245 1.371 . S
C247 C250 1.480 . S
C248 N245 1.372 1_455 S
C248 N246 1.361 . S
C248 C256 1.457 . S
C249 N244 1.363 . S
C249 N246 1.377 . S
C249 C262 1.479 . S
C250 C247 1.480 . S
C250 C251 1.383 . S
C250 C255 1.385 . S
C251 H232 0.947 . S
C251 C250 1.383 . S
C251 C252 1.388 . S
C252 H233 0.946 . S
C252 C251 1.388 . S
C252 C253 1.384 . S
C253 C252 1.384 . S
C253 C254 1.377 . S
C254 H234 0.953 . S
C254 C253 1.377 . S
C254 C255 1.369 . S
C255 H235 0.945 . S
C255 C250 1.385 . S
C255 C254 1.369 . S
C256 C248 1.457 . S
C256 C257 1.372 1_455 S
C256 C261 1.364 . S
C257 H236 0.952 . S
C257 C256 1.372 1_655 S
C257 C258 1.389 . S
C258 H237 0.949 . S
C258 C257 1.389 . S
C258 C259 1.387 . S
C259 C258 1.387 . S
C259 C260 1.372 1_655 S
C260 H238 0.950 . S
C260 C259 1.372 1_455 S
C260 C261 1.379 . S
C261 H239 0.948 . S
C261 C256 1.364 . S
C261 C260 1.379 . S
C262 C231 1.383 . S
C262 C249 1.479 . S
C262 C263 1.398 . S
C263 C228 1.382 . S
C263 H240 0.951 . S
C263 C262 1.398 . S
C264 C265 1.384 . S
C264 H277 0.947 . S
C264 C299 1.382 . S
C265 C264 1.384 . S
C265 C266 1.378 . S
C266 C265 1.378 . S
C266 C267 1.378 . S
C266 H278 0.952 . S
C267 C266 1.378 . S
C267 H279 0.950 . S
C267 C298 1.383 . S
H268 C287 0.947 . S
H269 C288 0.946 . S
H270 C290 0.953 . S
H271 C291 0.945 . S
H272 C293 0.952 . S
H273 C294 0.949 . S
H274 C296 0.950 . S
H275 C297 0.948 . S
H276 C299 0.951 . S
H277 C264 0.947 . S
H278 C266 0.952 . S
H279 C267 0.950 . S
N280 C283 1.382 1_545 S
N280 C285 1.363 . S
N281 C283 1.371 . S
N281 C284 1.372 1_565 S
N282 C284 1.361 . S
N282 C285 1.377 . S
C283 N280 1.382 1_565 S
C283 N281 1.371 . S
C283 C286 1.480 . S
C284 N281 1.372 1_545 S
C284 N282 1.361 . S
C284 C292 1.457 . S
C285 N280 1.363 . S
C285 N282 1.377 . S
C285 C298 1.479 . S
C286 C283 1.480 . S
C286 C287 1.383 . S
C286 C291 1.385 . S
C287 H268 0.947 . S
C287 C286 1.383 . S
C287 C288 1.388 . S
C288 H269 0.946 . S
C288 C287 1.388 . S
C288 C289 1.384 . S
C289 C288 1.384 . S
C289 C290 1.377 . S
C290 H270 0.953 . S
C290 C289 1.377 . S
C290 C291 1.369 . S
C291 H271 0.945 . S
C291 C286 1.385 . S
C291 C290 1.369 . S
C292 C284 1.457 . S
C292 C293 1.372 1_545 S
C292 C297 1.364 . S
C293 H272 0.952 . S
C293 C292 1.372 1_565 S
C293 C294 1.389 . S
C294 H273 0.949 . S
C294 C293 1.389 . S
C294 C295 1.387 1_565 S
C295 C294 1.387 1_545 S
C295 C296 1.372 . S
C296 H274 0.950 . S
C296 C295 1.372 . S
C296 C297 1.379 . S
C297 H275 0.948 . S
C297 C292 1.364 . S
C297 C296 1.379 . S
C298 C267 1.383 . S
C298 C285 1.479 . S
C298 C299 1.398 . S
C299 C264 1.382 . S
C299 H276 0.951 . S
C299 C298 1.398 . S
C300 C301 1.384 . S
C300 H313 0.947 . S
C300 C335 1.382 . S
C301 C300 1.384 . S
C301 C302 1.378 . S
C302 C301 1.378 . S
C302 C303 1.378 . S
C302 H314 0.952 . S
C303 C302 1.378 . S
C303 H315 0.950 . S
C303 C334 1.383 . S
H304 C323 0.947 . S
H305 C324 0.946 . S
H306 C326 0.953 . S
H307 C327 0.945 . S
H308 C329 0.952 . S
H309 C330 0.935 1_556 S
H310 C332 0.950 . S
H311 C333 0.948 . S
H312 C335 0.951 . S
H313 C300 0.947 . S
H314 C302 0.952 . S
H315 C303 0.950 . S
N316 C319 1.382 . S
N316 C321 1.363 . S
N317 C319 1.371 . S
N317 C320 1.372 . S
N318 C320 1.361 . S
N318 C321 1.377 . S
C319 N316 1.382 . S
C319 N317 1.371 . S
C319 C322 1.480 . S
C320 N317 1.372 . S
C320 N318 1.361 . S
C320 C328 1.457 . S
C321 N316 1.363 . S
C321 N318 1.377 . S
C321 C334 1.479 . S
C322 C319 1.480 . S
C322 C323 1.383 . S
C322 C327 1.385 . S
C323 H304 0.947 . S
C323 C322 1.383 . S
C323 C324 1.388 . S
C324 H305 0.946 . S
C324 C323 1.388 . S
C324 C325 1.384 . S
C325 C324 1.384 . S
C325 C326 1.377 . S
C326 H306 0.953 . S
C326 C325 1.377 . S
C326 C327 1.369 . S
C327 H307 0.945 . S
C327 C322 1.385 . S
C327 C326 1.369 . S
C328 C320 1.457 . S
C328 C329 1.372 . S
C328 C333 1.364 . S
C329 H308 0.952 . S
C329 C328 1.372 . S
C329 C330 1.389 . S
C330 H309 0.935 1_554 S
C330 C329 1.389 . S
C330 C331 1.387 1_554 S
C331 C330 1.387 1_556 S
C331 C332 1.372 1_556 S
C332 H310 0.950 . S
C332 C331 1.372 1_554 S
C332 C333 1.379 . S
C333 H311 0.948 . S
C333 C328 1.364 . S
C333 C332 1.379 . S
C334 C303 1.383 . S
C334 C321 1.479 . S
C334 C335 1.398 . S
C335 C300 1.382 . S
C335 H312 0.951 . S
C335 C334 1.398 . S
C336 C337 1.363 . S
C336 C342 1.379 . S
C336 N344 1.356 . S
C337 C336 1.363 . S
C337 C343 1.363 . S
C338 C339 1.363 . S
C338 C343 1.379 . S
C338 N345 1.356 . S
C339 C338 1.363 . S
C339 C342 1.363 . S
N340 C342 1.356 . S
N340 H352 0.984 . S
N340 H353 0.985 . S
N341 C343 1.356 . S
N341 H346 0.984 . S
N341 H347 0.985 . S
C342 C336 1.379 . S
C342 C339 1.363 . S
C342 N340 1.356 . S
C343 C337 1.363 . S
C343 C338 1.379 . S
C343 N341 1.356 . S
N344 C336 1.356 . S
N344 H350 0.984 . S
N344 H351 0.984 . S
N345 C338 1.356 . S
N345 H348 0.984 . S
N345 H349 0.985 . S
H346 N341 0.984 . S
H347 N341 0.985 . S
H348 N345 0.984 . S
H349 N345 0.985 . S
H350 N344 0.984 . S
H351 N344 0.984 . S
H352 N340 0.984 . S
H353 N340 0.985 . S
C354 C355 1.363 . S
C354 C360 1.379 . S
C354 N362 1.356 . S
C355 C354 1.363 . S
C355 C361 1.363 . S
C356 C357 1.363 . S
C356 C361 1.379 . S
C356 N363 1.356 . S
C357 C356 1.363 . S
C357 C360 1.363 . S
N358 C360 1.356 . S
N358 H370 0.984 . S
N358 H371 0.985 . S
N359 C361 1.356 . S
N359 H364 0.984 . S
N359 H365 0.985 . S
C360 C354 1.379 . S
C360 C357 1.363 . S
C360 N358 1.356 . S
C361 C355 1.363 . S
C361 C356 1.379 . S
C361 N359 1.356 . S
N362 C354 1.356 . S
N362 H368 0.984 . S
N362 H369 0.984 . S
N363 C356 1.356 . S
N363 H366 0.984 . S
N363 H367 0.985 . S
H364 N359 0.984 . S
H365 N359 0.985 . S
H366 N363 0.984 . S
H367 N363 0.985 . S
H368 N362 0.984 . S
H369 N362 0.984 . S
H370 N358 0.984 . S
H371 N358 0.985 . S
C372 C373 1.363 . S
C372 C378 1.379 . S
C372 N380 1.356 . S
C373 C372 1.363 . S
C373 C379 1.363 . S
C374 C375 1.363 . S
C374 C379 1.379 . S
C374 N381 1.356 . S
C375 C374 1.363 . S
C375 C378 1.363 . S
N376 C378 1.356 . S
N376 H388 0.984 . S
N376 H389 0.985 . S
N377 C379 1.356 . S
N377 H382 0.984 . S
N377 H383 0.985 . S
C378 C372 1.379 . S
C378 C375 1.363 . S
C378 N376 1.356 . S
C379 C373 1.363 . S
C379 C374 1.379 . S
C379 N377 1.356 . S
N380 C372 1.356 . S
N380 H386 0.984 . S
N380 H387 0.984 . S
N381 C374 1.356 . S
N381 H384 0.984 . S
N381 H385 0.985 . S
H382 N377 0.984 . S
H383 N377 0.985 . S
H384 N381 0.984 . S
H385 N381 0.985 . S
H386 N380 0.984 . S
H387 N380 0.984 . S
H388 N376 0.984 . S
H389 N376 0.985 . S
C390 C391 1.363 . S
C390 C396 1.379 . S
C390 N398 1.356 . S
C391 C390 1.363 . S
C391 C397 1.363 . S
C392 C393 1.363 . S
C392 C397 1.379 . S
C392 N399 1.356 . S
C393 C392 1.363 . S
C393 C396 1.363 . S
N394 C396 1.356 . S
N394 H406 0.984 . S
N394 H407 0.985 . S
N395 C397 1.356 . S
N395 H400 0.984 . S
N395 H401 0.985 . S
C396 C390 1.379 . S
C396 C393 1.363 . S
C396 N394 1.356 . S
C397 C391 1.363 . S
C397 C392 1.379 . S
C397 N395 1.356 . S
N398 C390 1.356 . S
N398 H404 0.984 . S
N398 H405 0.984 . S
N399 C392 1.356 . S
N399 H402 0.984 . S
N399 H403 0.985 . S
H400 N395 0.984 . S
H401 N395 0.985 . S
H402 N399 0.984 . S
H403 N399 0.985 . S
H404 N398 0.984 . S
H405 N398 0.984 . S
H406 N394 0.984 . S
H407 N394 0.985 . S
C408 C409 1.363 . S
C408 C414 1.379 . S
C408 N416 1.356 . S
C409 C408 1.363 . S
C409 C415 1.363 . S
C410 C411 1.363 . S
C410 C415 1.379 . S
C410 N417 1.356 . S
C411 C410 1.363 . S
C411 C414 1.363 . S
N412 C414 1.356 . S
N412 H424 0.984 . S
N412 H425 0.985 . S
N413 C415 1.356 . S
N413 H418 0.984 . S
N413 H419 0.985 . S
C414 C408 1.379 . S
C414 C411 1.363 . S
C414 N412 1.356 . S
C415 C409 1.363 . S
C415 C410 1.379 . S
C415 N413 1.356 . S
N416 C408 1.356 . S
N416 H422 0.984 . S
N416 H423 0.984 . S
N417 C410 1.356 . S
N417 H420 0.984 . S
N417 H421 0.985 . S
H418 N413 0.984 . S
H419 N413 0.985 . S
H420 N417 0.984 . S
H421 N417 0.985 . S
H422 N416 0.984 . S
H423 N416 0.984 . S
H424 N412 0.984 . S
H425 N412 0.985 . S
C426 C427 1.363 . S
C426 C432 1.379 . S
C426 N434 1.356 . S
C427 C426 1.363 . S
C427 C433 1.363 . S
C428 C429 1.363 . S
C428 C433 1.379 . S
C428 N435 1.356 . S
C429 C428 1.363 . S
C429 C432 1.363 . S
N430 C432 1.356 . S
N430 H442 0.984 . S
N430 H443 0.985 . S
N431 C433 1.356 . S
N431 H436 0.984 . S
N431 H437 0.985 . S
C432 C426 1.379 . S
C432 C429 1.363 . S
C432 N430 1.356 . S
C433 C427 1.363 . S
C433 C428 1.379 . S
C433 N431 1.356 . S
N434 C426 1.356 . S
N434 H440 0.984 . S
N434 H441 0.984 . S
N435 C428 1.356 . S
N435 H438 0.984 . S
N435 H439 0.985 . S
H436 N431 0.984 . S
H437 N431 0.985 . S
H438 N435 0.984 . S
H439 N435 0.985 . S
H440 N434 0.984 . S
H441 N434 0.984 . S
H442 N430 0.984 . S
H443 N430 0.985 . S
C444 C445 1.363 . S
C444 C450 1.379 . S
C444 N452 1.356 . S
C445 C444 1.363 . S
C445 C451 1.363 . S
C446 C447 1.363 . S
C446 C451 1.379 . S
C446 N453 1.356 . S
C447 C446 1.363 . S
C447 C450 1.363 . S
N448 C450 1.356 . S
N448 H460 0.984 . S
N448 H461 0.985 . S
N449 C451 1.356 . S
N449 H454 0.984 . S
N449 H455 0.985 . S
C450 C444 1.379 . S
C450 C447 1.363 . S
C450 N448 1.356 . S
C451 C445 1.363 . S
C451 C446 1.379 . S
C451 N449 1.356 . S
N452 C444 1.356 . S
N452 H458 0.984 . S
N452 H459 0.984 . S
N453 C446 1.356 . S
N453 H456 0.984 . S
N453 H457 0.985 . S
H454 N449 0.984 . S
H455 N449 0.985 . S
H456 N453 0.984 . S
H457 N453 0.985 . S
H458 N452 0.984 . S
H459 N452 0.984 . S
H460 N448 0.984 . S
H461 N448 0.985 . S
C462 C463 1.363 . S
C462 C468 1.379 . S
C462 N470 1.356 . S
C463 C462 1.363 . S
C463 C469 1.363 . S
C464 C465 1.363 . S
C464 C469 1.379 . S
C464 N471 1.356 . S
C465 C464 1.363 . S
C465 C468 1.363 . S
N466 C468 1.356 . S
N466 H478 0.984 . S
N466 H479 0.985 . S
N467 C469 1.356 . S
N467 H472 0.984 . S
N467 H473 0.985 . S
C468 C462 1.379 . S
C468 C465 1.363 . S
C468 N466 1.356 . S
C469 C463 1.363 . S
C469 C464 1.379 . S
C469 N467 1.356 . S
N470 C462 1.356 . S
N470 H476 0.984 . S
N470 H477 0.984 . S
N471 C464 1.356 . S
N471 H474 0.984 . S
N471 H475 0.985 . S
H472 N467 0.984 . S
H473 N467 0.985 . S
H474 N471 0.984 . S
H475 N471 0.985 . S
H476 N470 0.984 . S
H477 N470 0.984 . S
H478 N466 0.984 . S
H479 N466 0.985 . S
C480 C481 1.363 . S
C480 C486 1.379 . S
C480 N488 1.356 . S
C481 C480 1.363 . S
C481 C487 1.363 . S
C482 C483 1.363 . S
C482 C487 1.379 . S
C482 N489 1.356 . S
C483 C482 1.363 . S
C483 C486 1.363 . S
N484 C486 1.356 . S
N484 H496 0.984 . S
N484 H497 0.985 . S
N485 C487 1.356 . S
N485 H490 0.984 . S
N485 H491 0.985 . S
C486 C480 1.379 . S
C486 C483 1.363 . S
C486 N484 1.356 . S
C487 C481 1.363 . S
C487 C482 1.379 . S
C487 N485 1.356 . S
N488 C480 1.356 . S
N488 H494 0.984 . S
N488 H495 0.984 . S
N489 C482 1.356 . S
N489 H492 0.984 . S
N489 H493 0.985 . S
H490 N485 0.984 . S
H491 N485 0.985 . S
H492 N489 0.984 . S
H493 N489 0.985 . S
H494 N488 0.984 . S
H495 N488 0.984 . S
H496 N484 0.984 . S
H497 N484 0.985 . S
C498 C499 1.363 . S
C498 C504 1.379 . S
C498 N506 1.356 . S
C499 C498 1.363 . S
C499 C505 1.363 . S
C500 C501 1.363 . S
C500 C505 1.379 . S
C500 N507 1.356 . S
C501 C500 1.363 . S
C501 C504 1.363 . S
N502 C504 1.356 . S
N502 H514 0.984 . S
N502 H515 0.985 . S
N503 C505 1.356 . S
N503 H508 0.984 . S
N503 H509 0.985 . S
C504 C498 1.379 . S
C504 C501 1.363 . S
C504 N502 1.356 . S
C505 C499 1.363 . S
C505 C500 1.379 . S
C505 N503 1.356 . S
N506 C498 1.356 . S
N506 H512 0.984 . S
N506 H513 0.984 . S
N507 C500 1.356 . S
N507 H510 0.984 . S
N507 H511 0.985 . S
H508 N503 0.984 . S
H509 N503 0.985 . S
H510 N507 0.984 . S
H511 N507 0.985 . S
H512 N506 0.984 . S
H513 N506 0.984 . S
H514 N502 0.984 . S
H515 N502 0.985 . S
C516 C517 1.363 . S
C516 C522 1.379 . S
C516 N524 1.356 . S
C517 C516 1.363 . S
C517 C523 1.363 . S
C518 C519 1.363 . S
C518 C523 1.379 . S
C518 N525 1.356 . S
C519 C518 1.363 . S
C519 C522 1.363 . S
N520 C522 1.356 . S
N520 H532 0.984 . S
N520 H533 0.985 . S
N521 C523 1.356 . S
N521 H526 0.984 . S
N521 H527 0.985 . S
C522 C516 1.379 . S
C522 C519 1.363 . S
C522 N520 1.356 . S
C523 C517 1.363 . S
C523 C518 1.379 . S
C523 N521 1.356 . S
N524 C516 1.356 . S
N524 H530 0.984 . S
N524 H531 0.984 . S
N525 C518 1.356 . S
N525 H528 0.984 . S
N525 H529 0.985 . S
H526 N521 0.984 . S
H527 N521 0.985 . S
H528 N525 0.984 . S
H529 N525 0.985 . S
H530 N524 0.984 . S
H531 N524 0.984 . S
H532 N520 0.984 . S
H533 N520 0.985 . S
C534 C535 1.363 . S
C534 C540 1.379 . S
C534 N542 1.356 . S
C535 C534 1.363 . S
C535 C541 1.363 . S
C536 C537 1.363 . S
C536 C541 1.379 . S
C536 N543 1.356 . S
C537 C536 1.363 . S
C537 C540 1.363 . S
N538 C540 1.356 . S
N538 H550 0.984 . S
N538 H551 0.985 . S
N539 C541 1.356 . S
N539 H544 0.984 . S
N539 H545 0.985 . S
C540 C534 1.379 . S
C540 C537 1.363 . S
C540 N538 1.356 . S
C541 C535 1.363 . S
C541 C536 1.379 . S
C541 N539 1.356 . S
N542 C534 1.356 . S
N542 H548 0.984 . S
N542 H549 0.984 . S
N543 C536 1.356 . S
N543 H546 0.984 . S
N543 H547 0.985 . S
H544 N539 0.984 . S
H545 N539 0.985 . S
H546 N543 0.984 . S
H547 N543 0.985 . S
H548 N542 0.984 . S
H549 N542 0.984 . S
H550 N538 0.984 . S
H551 N538 0.985 . S
C552 C553 1.363 . S
C552 C558 1.379 . S
C552 N560 1.356 1_455 S
C553 C552 1.363 . S
C553 C559 1.363 . S
C554 C555 1.363 . S
C554 C559 1.379 . S
C554 N561 1.356 . S
C555 C554 1.363 . S
C555 C558 1.363 . S
N556 C558 1.356 . S
N556 H568 0.984 . S
N556 H569 0.985 . S
N557 C559 1.356 . S
N557 H562 0.984 . S
N557 H563 0.985 . S
C558 C552 1.379 . S
C558 C555 1.363 . S
C558 N556 1.356 . S
C559 C553 1.363 . S
C559 C554 1.379 . S
C559 N557 1.356 . S
N560 C552 1.356 1_655 S
N560 H566 0.984 . S
N560 H567 0.984 . S
N561 C554 1.356 . S
N561 H564 0.984 . S
N561 H565 0.985 . S
H562 N557 0.984 . S
H563 N557 0.985 . S
H564 N561 0.984 . S
H565 N561 0.985 . S
H566 N560 0.984 . S
H567 N560 0.984 . S
H568 N556 0.984 . S
H569 N556 0.985 . S
C570 C571 1.363 . S
C570 C576 1.379 . S
C570 N578 1.356 . S
C571 C570 1.363 . S
C571 C577 1.363 . S
C572 C573 1.363 . S
C572 C577 1.379 . S
C572 N579 1.356 1_545 S
C573 C572 1.363 . S
C573 C576 1.363 . S
N574 C576 1.356 . S
N574 H586 0.984 . S
N574 H587 0.985 . S
N575 C577 1.356 1_565 S
N575 H580 0.984 . S
N575 H581 0.985 . S
C576 C570 1.379 . S
C576 C573 1.363 . S
C576 N574 1.356 . S
C577 C571 1.363 . S
C577 C572 1.379 . S
C577 N575 1.356 1_545 S
N578 C570 1.356 . S
N578 H584 0.984 . S
N578 H585 0.984 . S
N579 C572 1.356 1_565 S
N579 H582 0.984 . S
N579 H583 0.985 . S
H580 N575 0.984 . S
H581 N575 0.985 . S
H582 N579 0.984 . S
H583 N579 0.985 . S
H584 N578 0.984 . S
H585 N578 0.984 . S
H586 N574 0.984 . S
H587 N574 0.985 . S
C588 C589 1.363 . S
C588 C594 1.379 . S
C588 N596 1.356 . S
C589 C588 1.363 . S
C589 C595 1.363 . S
C590 C591 1.363 . S
C590 C595 1.379 . S
C590 N597 1.356 . S
C591 C590 1.363 . S
C591 C594 1.363 . S
N592 C594 1.356 . S
N592 H604 0.984 . S
N592 H605 0.985 . S
N593 C595 1.356 . S
N593 H598 0.984 . S
N593 H599 0.985 . S
C594 C588 1.379 . S
C594 C591 1.363 . S
C594 N592 1.356 . S
C595 C589 1.363 . S
C595 C590 1.379 . S
C595 N593 1.356 . S
N596 C588 1.356 . S
N596 H602 0.984 . S
N596 H603 0.984 . S
N597 C590 1.356 . S
N597 H600 0.984 . S
N597 H601 0.985 . S
H598 N593 0.984 . S
H599 N593 0.985 . S
H600 N597 0.984 . S
H601 N597 0.985 . S
H602 N596 0.984 . S
H603 N596 0.984 . S
H604 N592 0.984 . S
H605 N592 0.985 . S
C606 C607 1.363 . S
C606 C612 1.379 . S
C606 N614 1.356 . S
C607 C606 1.363 . S
C607 C613 1.363 1_545 S
C608 C609 1.363 1_565 S
C608 C613 1.379 . S
C608 N615 1.356 . S
C609 C608 1.363 1_545 S
C609 C612 1.363 . S
N610 C612 1.356 . S
N610 H622 0.984 . S
N610 H623 0.985 . S
N611 C613 1.356 . S
N611 H616 0.984 . S
N611 H617 0.985 . S
C612 C606 1.379 . S
C612 C609 1.363 . S
C612 N610 1.356 . S
C613 C607 1.363 1_565 S
C613 C608 1.379 . S
C613 N611 1.356 . S
N614 C606 1.356 . S
N614 H620 0.984 . S
N614 H621 0.984 . S
N615 C608 1.356 . S
N615 H618 0.984 . S
N615 H619 0.985 . S
H616 N611 0.984 . S
H617 N611 0.985 . S
H618 N615 0.984 . S
H619 N615 0.985 . S
H620 N614 0.984 . S
H621 N614 0.984 . S
H622 N610 0.984 . S
H623 N610 0.985 . S
C624 C625 1.363 . S
C624 C630 1.379 . S
C624 N632 1.356 . S
C625 C624 1.363 . S
C625 C631 1.363 . S
C626 C627 1.363 . S
C626 C631 1.379 . S
C626 N633 1.356 . S
C627 C626 1.363 . S
C627 C630 1.363 . S
N628 C630 1.356 . S
N628 H640 0.984 . S
N628 H641 0.985 . S
N629 C631 1.356 . S
N629 H634 0.984 . S
N629 H635 0.985 . S
C630 C624 1.379 . S
C630 C627 1.363 . S
C630 N628 1.356 . S
C631 C625 1.363 . S
C631 C626 1.379 . S
C631 N629 1.356 . S
N632 C624 1.356 . S
N632 H638 0.984 . S
N632 H639 0.984 . S
N633 C626 1.356 . S
N633 H636 0.984 . S
N633 H637 0.985 . S
H634 N629 0.984 . S
H635 N629 0.985 . S
H636 N633 0.984 . S
H637 N633 0.985 . S
H638 N632 0.984 . S
H639 N632 0.984 . S
H640 N628 0.984 . S
H641 N628 0.985 . S
C642 C643 1.371 . S
C642 C648 1.379 . S
C642 N650 1.356 . S
C643 C642 1.371 . S
C643 C649 1.352 1_455 S
C644 C645 1.363 . S
C644 C649 1.379 . S
C644 N651 1.356 . S
C645 C644 1.363 . S
C645 C648 1.363 1_655 S
N646 C648 1.356 . S
N646 H658 0.984 . S
N646 H659 0.985 . S
N647 C649 1.356 . S
N647 H652 0.984 . S
N647 H653 0.985 . S
C648 C642 1.379 . S
C648 C645 1.363 1_455 S
C648 N646 1.356 . S
C649 C643 1.352 1_655 S
C649 C644 1.379 . S
C649 N647 1.356 . S
N650 C642 1.356 . S
N650 H656 0.984 . S
N650 H657 0.984 . S
N651 C644 1.356 . S
N651 H654 0.984 . S
N651 H655 0.985 . S
H652 N647 0.984 . S
H653 N647 0.985 . S
H654 N651 0.984 . S
H655 N651 0.985 . S
H656 N650 0.984 . S
H657 N650 0.984 . S
H658 N646 0.984 . S
H659 N646 0.985 . S
C337 C24 3.051 . S
C339 C325 2.960 . S
C355 C66 1.251 . S
C357 C253 1.312 . S
C373 C93 1.988 . S
C375 C289 1.872 . S
C391 C13 3.189 . S
C393 C301 3.122 . S
C411 C229 1.366 . S
C409 C57 1.358 . S
C429 C265 2.023 . S
C427 C104 2.087 . S
C445 C64 2.060 . S
C447 C181 1.947 . S
C463 C97 0.873 . S
C465 C193 0.882 . S
C481 C17 1.406 . S
C483 C121 1.462 . S
C501 C157 1.924 . S
C499 C53 1.998 . S
C519 C217 0.499 . S
C517 C106 0.638 . S
C535 C26 1.277 . S
C537 C145 1.326 . S
C555 C223 1.043 . S
C553 C2 1.065 . S
C571 C63 1.455 . S
C573 C151 1.486 . S
C589 C82 1.365 . S
C591 C187 1.378 . S
C609 C295 1.390 . S
C607 C42 1.384 . S
C627 C331 1.800 . S
C625 C103 1.760 . S
C643 C23 1.484 . S
C645 C259 1.495 . S
