# Generated by pormake.
# Topology pyr, (3,6)-cn, num edge types: 1
# Building blocks:
#     Node 0, Type 0, BuildingBlock: BELTOD_clean_linker_0, # of connection points: 3
#     Node 1, Type 0, BuildingBlock: BELTOD_clean_linker_0, # of connection points: 3
#     Node 2, Type 0, BuildingBlock: BELTOD_clean_linker_0, # of connection points: 3
#     Node 3, Type 0, BuildingBlock: BELTOD_clean_linker_0, # of connection points: 3
#     Node 4, Type 0, BuildingBlock: BELTOD_clean_linker_0, # of connection points: 3
#     Node 5, Type 0, BuildingBlock: BELTOD_clean_linker_0, # of connection points: 3
#     Node 6, Type 0, BuildingBlock: BELTOD_clean_linker_0, # of connection points: 3
#     Node 7, Type 0, BuildingBlock: BELTOD_clean_linker_0, # of connection points: 3
#     Node 8, Type 1, BuildingBlock: BETFEN_clean_sbu_0, # of connection points: 6
#     Node 9, Type 1, BuildingBlock: BETFEN_clean_sbu_0, # of connection points: 6
#     Node 10, Type 1, BuildingBlock: BETFEN_clean_sbu_0, # of connection points: 6
#     Node 11, Type 1, BuildingBlock: BETFEN_clean_sbu_0, # of connection points: 6
#     Edge 12, Type (0, 1), BuildingBlock: EZIPEK_clean_linker_0, # of connection points: 2
#     Edge 13, Type (0, 1), BuildingBlock: EZIPEK_clean_linker_0, # of connection points: 2
#     Edge 14, Type (0, 1), BuildingBlock: EZIPEK_clean_linker_0, # of connection points: 2
#     Edge 15, Type (0, 1), BuildingBlock: EZIPEK_clean_linker_0, # of connection points: 2
#     Edge 16, Type (0, 1), BuildingBlock: EZIPEK_clean_linker_0, # of connection points: 2
#     Edge 17, Type (0, 1), BuildingBlock: EZIPEK_clean_linker_0, # of connection points: 2
#     Edge 18, Type (0, 1), BuildingBlock: EZIPEK_clean_linker_0, # of connection points: 2
#     Edge 19, Type (0, 1), BuildingBlock: EZIPEK_clean_linker_0, # of connection points: 2
#     Edge 20, Type (0, 1), BuildingBlock: EZIPEK_clean_linker_0, # of connection points: 2
#     Edge 21, Type (0, 1), BuildingBlock: EZIPEK_clean_linker_0, # of connection points: 2
#     Edge 22, Type (0, 1), BuildingBlock: EZIPEK_clean_linker_0, # of connection points: 2
#     Edge 23, Type (0, 1), BuildingBlock: EZIPEK_clean_linker_0, # of connection points: 2
#     Edge 24, Type (0, 1), BuildingBlock: EZIPEK_clean_linker_0, # of connection points: 2
#     Edge 25, Type (0, 1), BuildingBlock: EZIPEK_clean_linker_0, # of connection points: 2
#     Edge 26, Type (0, 1), BuildingBlock: EZIPEK_clean_linker_0, # of connection points: 2
#     Edge 27, Type (0, 1), BuildingBlock: EZIPEK_clean_linker_0, # of connection points: 2
#     Edge 28, Type (0, 1), BuildingBlock: EZIPEK_clean_linker_0, # of connection points: 2
#     Edge 29, Type (0, 1), BuildingBlock: EZIPEK_clean_linker_0, # of connection points: 2
#     Edge 30, Type (0, 1), BuildingBlock: EZIPEK_clean_linker_0, # of connection points: 2
#     Edge 31, Type (0, 1), BuildingBlock: EZIPEK_clean_linker_0, # of connection points: 2
#     Edge 32, Type (0, 1), BuildingBlock: EZIPEK_clean_linker_0, # of connection points: 2
#     Edge 33, Type (0, 1), BuildingBlock: EZIPEK_clean_linker_0, # of connection points: 2
#     Edge 34, Type (0, 1), BuildingBlock: EZIPEK_clean_linker_0, # of connection points: 2
#     Edge 35, Type (0, 1), BuildingBlock: EZIPEK_clean_linker_0, # of connection points: 2
# Relax obj value: 0.190
# Max RMSD: 0.273
# Mean RMSD: 0.131
data_MOF--net-pyr--node1-BETFEN_clean_sbu_0--node2-BELTOD_clean_linker_0--edge1-EZIPEK_clean_linker_0
_symmetry_space_group_name_H-M    P1
_symmetry_Int_Tables_number       1
_symmetry_cell_setting            triclinic
loop_
_symmetry_equiv_pos_as_xyz
'x, y, z'
_cell_length_a     32.091548
_cell_length_b     36.358029
_cell_length_c     33.206802
_cell_angle_alpha  91.843239
_cell_angle_beta   101.15046
_cell_angle_gamma 112.20541
loop_
_atom_site_label
_atom_site_type_symbol
_atom_site_fract_x
_atom_site_fract_y
_atom_site_fract_z
_atom_type_partial_charge
P0 P 0.47912 0.40855 0.32966 0.0
H1 H 0.55374 0.39264 0.30192 0.0
H2 H 0.55169 0.33643 0.25675 0.0
H3 H 0.40325 0.28325 0.23723 0.0
H4 H 0.40508 0.3394 0.28081 0.0
H5 H 0.46226 0.47854 0.35501 0.0
H6 H 0.41002 0.50791 0.31908 0.0
H7 H 0.39375 0.43826 0.20527 0.0
H8 H 0.44579 0.40949 0.24054 0.0
H9 H 0.47756 0.34062 0.3734 0.0
H10 H 0.39649 0.41276 0.35552 0.0
O11 O 0.53201 0.43548 0.35762 0.0
H12 H 0.41968 0.2934 0.40529 0.0
H13 H 0.33935 0.3658 0.38761 0.0
C14 C 0.47958 0.36993 0.29475 0.0
C15 C 0.52084 0.36907 0.28753 0.0
C16 C 0.5197 0.33709 0.26202 0.0
C17 C 0.47731 0.30569 0.24412 0.0
C18 C 0.43622 0.30711 0.25098 0.0
C19 C 0.43733 0.33909 0.27582 0.0
C20 C 0.45629 0.44057 0.30097 0.0
C21 C 0.44912 0.47101 0.32197 0.0
C22 C 0.41942 0.48778 0.30152 0.0
C23 C 0.3976 0.47455 0.25979 0.0
C24 C 0.41013 0.4485 0.23758 0.0
C25 C 0.43942 0.43162 0.25805 0.0
C26 C 0.44202 0.38067 0.36223 0.0
C27 C 0.4483 0.34715 0.37753 0.0
C28 C 0.41528 0.32012 0.39562 0.0
C29 C 0.3754 0.32623 0.39866 0.0
C30 C 0.37019 0.36086 0.38569 0.0
C31 C 0.40316 0.38781 0.36736 0.0
P32 P 0.36259 0.8989 0.66541 0.0
H33 H 0.43702 0.93385 0.73866 0.0
H34 H 0.43761 0.9379 0.81255 0.0
H35 H 0.2914 0.86603 0.78547 0.0
H36 H 0.29049 0.8625 0.71123 0.0
H37 H 0.406 0.88356 0.60107 0.0
H38 H 0.43349 0.83066 0.58895 0.0
H39 H 0.36134 0.76423 0.67696 0.0
H40 H 0.3335 0.8169 0.689 0.0
H41 H 0.34572 0.971 0.6595 0.0
H42 H 0.26787 0.84475 0.62236 0.0
O43 O 0.40846 0.93817 0.65938 0.0
H44 H 0.27619 0.98397 0.63541 0.0
H45 H 0.19755 0.85792 0.59799 0.0
C46 C 0.36352 0.89882 0.71957 0.0
C47 C 0.40508 0.91895 0.7485 0.0
C48 C 0.40547 0.92109 0.79054 0.0
C49 C 0.36443 0.90265 0.80405 0.0
C50 C 0.32322 0.88062 0.77532 0.0
C51 C 0.32276 0.87887 0.73315 0.0
C52 C 0.36847 0.85456 0.64651 0.0
C53 C 0.39484 0.85709 0.61684 0.0
C54 C 0.41063 0.82703 0.60998 0.0
C55 C 0.39986 0.79398 0.6325 0.0
C56 C 0.37006 0.78968 0.65946 0.0
C57 C 0.35423 0.81978 0.66628 0.0
C58 C 0.31213 0.90707 0.64153 0.0
C59 C 0.3138 0.94613 0.6454 0.0
C60 C 0.27411 0.95353 0.63215 0.0
C61 C 0.23196 0.92192 0.61511 0.0
C62 C 0.22997 0.88264 0.61112 0.0
C63 C 0.26998 0.87521 0.62453 0.0
P64 P 0.64228 0.29686 0.80606 0.0
H65 H 0.71031 0.27749 0.86152 0.0
H66 H 0.78333 0.31796 0.90966 0.0
H67 H 0.76389 0.42541 0.87842 0.0
H68 H 0.69117 0.38526 0.82994 0.0
H69 H 0.56845 0.2167 0.78415 0.0
H70 H 0.53554 0.16427 0.8273 0.0
H71 H 0.60113 0.24995 0.93601 0.0
H72 H 0.63333 0.30255 0.893 0.0
H73 H 0.64099 0.30266 0.71828 0.0
H74 H 0.60148 0.35759 0.8133 0.0
O75 O 0.65728 0.2666 0.77846 0.0
H76 H 0.62656 0.34851 0.67103 0.0
H77 H 0.58831 0.40496 0.76559 0.0
C78 C 0.69515 0.32813 0.84189 0.0
C79 C 0.7216 0.30974 0.865 0.0
C80 C 0.76306 0.33272 0.89255 0.0
C81 C 0.77864 0.3745 0.89754 0.0
C82 C 0.75207 0.39312 0.87501 0.0
C83 C 0.71051 0.37004 0.84726 0.0
C84 C 0.60374 0.26374 0.83511 0.0
C85 C 0.57436 0.2247 0.81706 0.0
C86 C 0.55588 0.1946 0.84175 0.0
C87 C 0.56646 0.20298 0.885 0.0
C88 C 0.59276 0.24268 0.90277 0.0
C89 C 0.61093 0.27282 0.87805 0.0
C90 C 0.62188 0.32609 0.76956 0.0
C91 C 0.62847 0.32409 0.72901 0.0
C92 C 0.62066 0.35065 0.7019 0.0
C93 C 0.60662 0.3804 0.71465 0.0
C94 C 0.59915 0.38223 0.755 0.0
C95 C 0.6062 0.35496 0.78208 0.0
P96 P 0.85935 0.66743 0.30496 0.0
H97 H 0.88591 0.74791 0.27768 0.0
H98 H 0.92062 0.81571 0.31449 0.0
H99 H 0.94319 0.7677 0.42977 0.0
H100 H 0.90851 0.6998 0.39309 0.0
H101 H 0.83934 0.58427 0.27129 0.0
H102 H 0.87066 0.55663 0.2213 0.0
H103 H 0.97647 0.67337 0.22379 0.0
H104 H 0.94531 0.70084 0.27381 0.0
H105 H 0.75916 0.63981 0.29948 0.0
H106 H 0.8739 0.62896 0.38273 0.0
O107 O 0.82362 0.67453 0.26517 0.0
H108 H 0.70907 0.60983 0.34615 0.0
H109 H 0.82343 0.6003 0.43093 0.0
C110 C 0.89356 0.71797 0.3323 0.0
C111 C 0.89861 0.75166 0.31083 0.0
C112 C 0.91839 0.79061 0.33192 0.0
C113 C 0.93404 0.79712 0.37515 0.0
C114 C 0.93098 0.76366 0.39652 0.0
C115 C 0.91112 0.72463 0.37537 0.0
C116 C 0.89067 0.64463 0.27811 0.0
C117 C 0.87027 0.60379 0.26234 0.0
C118 C 0.8879 0.58801 0.23315 0.0
C119 C 0.92621 0.61265 0.21812 0.0
C120 C 0.94716 0.65334 0.23456 0.0
C121 C 0.92954 0.66904 0.26376 0.0
C122 C 0.82109 0.63726 0.33713 0.0
C123 C 0.77387 0.63063 0.3275 0.0
C124 C 0.74488 0.6135 0.35449 0.0
C125 C 0.76202 0.60289 0.39264 0.0
C126 C 0.80894 0.60813 0.40188 0.0
C127 C 0.83794 0.62469 0.37428 0.0
P128 P 0.65167 0.6962 0.78158 0.0
H129 H 0.62505 0.71474 0.85582 0.0
H130 H 0.57965 0.75365 0.86545 0.0
H131 H 0.52168 0.73462 0.73443 0.0
H132 H 0.56984 0.69758 0.72434 0.0
H133 H 0.70301 0.65708 0.74788 0.0
H134 H 0.72789 0.60575 0.77475 0.0
H135 H 0.62673 0.57597 0.84984 0.0
H136 H 0.60173 0.62831 0.82299 0.0
H137 H 0.70411 0.77769 0.76974 0.0
H138 H 0.63323 0.66391 0.69403 0.0
O139 O 0.69477 0.72277 0.82131 0.0
H140 H 0.73399 0.80841 0.71149 0.0
H141 H 0.6636 0.69517 0.63507 0.0
C142 C 0.60187 0.70445 0.78924 0.0
C143 C 0.60152 0.71769 0.82918 0.0
C144 C 0.57558 0.73994 0.8347 0.0
C145 C 0.54896 0.74836 0.80038 0.0
C146 C 0.54316 0.72929 0.76104 0.0
C147 C 0.57026 0.70787 0.75538 0.0
C148 C 0.65006 0.64638 0.78302 0.0
C149 C 0.68393 0.63807 0.76808 0.0
C150 C 0.69854 0.60884 0.78373 0.0
C151 C 0.67979 0.58773 0.81484 0.0
C152 C 0.64162 0.59212 0.82585 0.0
C153 C 0.62724 0.62186 0.81037 0.0
C154 C 0.66805 0.71827 0.73649 0.0
C155 C 0.69489 0.75932 0.74052 0.0
C156 C 0.71173 0.7769 0.7073 0.0
C157 C 0.70154 0.75376 0.66943 0.0
C158 C 0.67198 0.71317 0.66435 0.0
C159 C 0.65502 0.69547 0.69786 0.0
P160 P 0.82799 0.25099 0.34936 0.0
H161 H 0.82132 0.32826 0.35024 0.0
H162 H 0.7685 0.35284 0.37507 0.0
H163 H 0.71537 0.2455 0.43311 0.0
H164 H 0.76864 0.22077 0.40831 0.0
H165 H 0.82971 0.17588 0.31734 0.0
H166 H 0.8621 0.13012 0.34822 0.0
H167 H 0.90938 0.20398 0.46529 0.0
H168 H 0.87459 0.24951 0.4346 0.0
H169 H 0.81874 0.26417 0.26158 0.0
H170 H 0.74291 0.18056 0.33673 0.0
O171 O 0.87271 0.28698 0.33698 0.0
H172 H 0.76164 0.22482 0.19913 0.0
H173 H 0.68662 0.14114 0.2745 0.0
C174 C 0.79965 0.27309 0.37824 0.0
C175 C 0.79959 0.31058 0.36958 0.0
C176 C 0.76922 0.32449 0.38341 0.0
C177 C 0.73817 0.30094 0.40582 0.0
C178 C 0.73939 0.26413 0.41604 0.0
C179 C 0.76992 0.25019 0.40215 0.0
C180 C 0.84834 0.21558 0.37402 0.0
C181 C 0.84561 0.1819 0.34999 0.0
C182 C 0.86449 0.1558 0.36746 0.0
C183 C 0.888 0.16362 0.40897 0.0
C184 C 0.89102 0.19736 0.43321 0.0
C185 C 0.87121 0.22322 0.41578 0.0
C186 C 0.78508 0.22496 0.30358 0.0
C187 C 0.78982 0.23758 0.26466 0.0
C188 C 0.75745 0.21524 0.22917 0.0
C189 C 0.7205 0.18006 0.23254 0.0
C190 C 0.7152 0.16812 0.27154 0.0
C191 C 0.74712 0.19064 0.30689 0.0
P192 P 0.44175 0.70036 0.22331 0.0
H193 H 0.40331 0.69016 0.13527 0.0
H194 H 0.32426 0.66375 0.09338 0.0
H195 H 0.27132 0.63785 0.20365 0.0
H196 H 0.3506 0.66613 0.24588 0.0
H197 H 0.52661 0.75976 0.20624 0.0
H198 H 0.54137 0.82378 0.17796 0.0
H199 H 0.41312 0.82274 0.20023 0.0
H200 H 0.39806 0.75837 0.22849 0.0
H201 H 0.39885 0.6211 0.24726 0.0
H202 H 0.50179 0.73453 0.30737 0.0
O203 O 0.47192 0.68362 0.19734 0.0
H204 H 0.41477 0.58905 0.30847 0.0
H205 H 0.51813 0.7021 0.36949 0.0
C206 C 0.38292 0.67887 0.19356 0.0
C207 C 0.37476 0.67858 0.1505 0.0
C208 C 0.32972 0.6637 0.12661 0.0
C209 C 0.29194 0.64851 0.14536 0.0
C210 C 0.30001 0.64923 0.18858 0.0
C211 C 0.34523 0.66498 0.2126 0.0
C212 C 0.46109 0.75387 0.21953 0.0
C213 C 0.5023 0.77379 0.20655 0.0
C214 C 0.51066 0.81033 0.19006 0.0
C215 C 0.47816 0.82794 0.18651 0.0
C216 C 0.43871 0.80976 0.20262 0.0
C217 C 0.43031 0.7731 0.21909 0.0
C218 C 0.44772 0.68065 0.27293 0.0
C219 C 0.42379 0.63951 0.27414 0.0
C220 C 0.43315 0.62102 0.3091 0.0
C221 C 0.4673 0.64311 0.34387 0.0
C222 C 0.49115 0.68451 0.34323 0.0
C223 C 0.48164 0.70309 0.30789 0.0
P224 P 0.21693 0.37644 0.74641 0.0
H225 H 0.24611 0.33235 0.69087 0.0
H226 H 0.21093 0.26569 0.65215 0.0
H227 H 0.08678 0.24323 0.69625 0.0
H228 H 0.12209 0.31101 0.7349 0.0
H229 H 0.31063 0.44021 0.76286 0.0
H230 H 0.36252 0.47026 0.7168 0.0
H231 H 0.24928 0.41765 0.61127 0.0
H232 H 0.19713 0.38763 0.65736 0.0
H233 H 0.20223 0.36227 0.83012 0.0
H234 H 0.16245 0.4292 0.73639 0.0
O235 O 0.25774 0.36913 0.78069 0.0
H236 H 0.16866 0.38868 0.87809 0.0
H237 H 0.12658 0.4546 0.78439 0.0
C238 C 0.18656 0.32751 0.71527 0.0
C239 C 0.21094 0.3136 0.69178 0.0
C240 C 0.19095 0.27524 0.66975 0.0
C241 C 0.14607 0.24907 0.671 0.0
C242 C 0.12139 0.26277 0.69453 0.0
C243 C 0.14148 0.30158 0.71654 0.0
C244 C 0.2496 0.41119 0.71393 0.0
C245 C 0.29629 0.43621 0.72995 0.0
C246 C 0.32619 0.45335 0.70353 0.0
C247 C 0.31017 0.44616 0.66033 0.0
C248 C 0.26269 0.42386 0.64439 0.0
C249 C 0.23273 0.40682 0.67086 0.0
C250 C 0.18572 0.39379 0.7792 0.0
C251 C 0.18596 0.38246 0.81946 0.0
C252 C 0.16656 0.39764 0.84721 0.0
C253 C 0.14495 0.42417 0.83569 0.0
C254 C 0.14315 0.43452 0.79475 0.0
C255 C 0.1635 0.41978 0.76703 0.0
Pr256 Pr 1.00723 1.00937 0.54355 0.0
Pr257 Pr 0.06832 0.03944 0.49485 0.0
C258 C 0.9321 0.97476 0.5754 0.0
C259 C 0.89655 0.93593 0.57988 0.0
C260 C 0.89486 0.92401 0.6195 0.0
C261 C 0.85923 0.88923 0.62506 0.0
C262 C 0.82462 0.86584 0.59114 0.0
C263 C 0.82665 0.87697 0.55132 0.0
C264 C 0.86215 0.91203 0.54575 0.0
C265 C 0.07078 0.08685 0.581 0.0
C266 C 0.09461 0.98625 0.56359 0.0
C267 C 0.14106 0.07368 0.45989 0.0
C268 C 0.17297 0.11307 0.45323 0.0
C269 C 0.20919 0.11541 0.43438 0.0
C270 C 0.24041 0.15251 0.42803 0.0
C271 C 0.23584 0.18774 0.44056 0.0
C272 C 0.19964 0.18551 0.45961 0.0
C273 C 0.16832 0.14825 0.466 0.0
C274 C 1.00428 0.96135 0.45901 0.0
C275 C 0.98316 0.06395 0.47526 0.0
O276 O 0.93039 0.9865 0.53862 0.0
O277 O 0.97421 0.98423 0.59665 0.0
O278 O 0.05262 0.07757 0.54279 0.0
O279 O 0.05782 0.05553 0.60034 0.0
O280 O 0.11232 1.01983 0.54787 0.0
O281 O 0.04977 0.96982 0.56014 0.0
O282 O 0.14508 0.06521 0.49797 0.0
O283 O 0.09821 0.06164 0.43957 0.0
O284 O 1.02394 0.97138 0.49675 0.0
O285 O 1.01535 0.99249 0.43915 0.0
O286 O 0.96467 0.02898 0.48836 0.0
O287 O 0.02818 0.08061 0.4812 0.0
H288 H 0.92056 0.94209 0.64632 0.0
H289 H 0.85812 0.88091 0.656 0.0
H290 H 0.80019 0.85909 0.52485 0.0
H291 H 0.86209 0.92073 0.51487 0.0
H292 H 0.21327 0.08851 0.42449 0.0
H293 H 0.26802 0.15378 0.41309 0.0
H294 H 0.19555 0.21248 0.46918 0.0
H295 H 0.14052 0.14684 0.48076 0.0
Pr296 Pr 0.47597 0.02677 0.04973 0.0
Pr297 Pr 0.54127 1.00261 1.02128 0.0
C298 C 0.4162 0.04575 0.08342 0.0
C299 C 0.42136 0.08458 0.10276 0.0
C300 C 0.44951 0.12009 0.08972 0.0
C301 C 0.46011 0.15701 0.11154 0.0
C302 C 0.44222 0.15903 0.14643 0.0
C303 C 0.41307 0.12371 0.15895 0.0
C304 C 0.40288 0.08661 0.13731 0.0
C305 C 0.52296 0.08122 0.99845 0.0
C306 C 0.58265 0.07127 0.09753 0.0
C307 C 0.59031 0.9754 0.97989 0.0
C308 C 0.57857 0.94807 0.94212 0.0
C309 C 0.60503 0.92553 0.93905 0.0
C310 C 0.59049 0.8947 0.90699 0.0
C311 C 0.54913 0.8858 0.87769 0.0
C312 C 0.52331 0.90923 0.87969 0.0
C313 C 0.538 0.94028 0.91184 0.0
C314 C 0.51325 0.96301 0.08894 0.0
C315 C 0.43245 0.96033 0.97013 0.0
O316 O 0.44347 0.03016 0.10368 0.0
O317 O 0.41378 0.04297 0.04357 0.0
O318 O 0.5069 0.04357 0.99118 0.0
O319 O 0.5153 0.09139 0.03297 0.0
O320 O 0.59156 0.06194 0.06247 0.0
O321 O 0.54087 0.05397 0.10411 0.0
O322 O 0.58769 1.01013 0.9758 0.0
O323 O 0.57305 0.95851 1.01021 0.0
O324 O 0.48633 0.96765 0.05801 0.0
O325 O 0.55589 0.98151 0.08667 0.0
O326 O 0.42132 0.97705 0.99963 0.0
O327 O 0.47545 0.966 0.97086 0.0
H328 H 0.46432 0.11931 0.06326 0.0
H329 H 0.4827 0.18399 0.10156 0.0
H330 H 0.39906 0.12489 0.18591 0.0
H331 H 0.38162 0.05952 0.14812 0.0
H332 H 0.63608 0.93083 0.96231 0.0
H333 H 0.61085 0.87693 0.9057 0.0
H334 H 0.49143 0.90281 0.85715 0.0
H335 H 0.51703 0.95733 0.9137 0.0
Pr336 Pr 0.56341 0.55408 0.56275 0.0
Pr337 Pr 0.5204 0.481 0.50275 0.0
C338 C 0.5812 0.62484 0.60506 0.0
C339 C 0.55439 0.64902 0.61152 0.0
C340 C 0.52932 0.64258 0.64284 0.0
C341 C 0.50308 0.66494 0.64766 0.0
C342 C 0.50162 0.694 0.6213 0.0
C343 C 0.52695 0.70087 0.59043 0.0
C344 C 0.55335 0.67878 0.58574 0.0
C345 C 0.58322 0.48985 0.5942 0.0
C346 C 0.45238 0.4911 0.56061 0.0
C347 C 0.50795 0.4104 0.46348 0.0
C348 C 0.53956 0.39314 0.45238 0.0
C349 C 0.53109 0.35291 0.45719 0.0
C350 C 0.56222 0.3366 0.44939 0.0
C351 C 0.60261 0.36056 0.4374 0.0
C352 C 0.6113 0.40081 0.43274 0.0
C353 C 0.58002 0.41703 0.44026 0.0
C354 C 0.49878 0.54367 0.47117 0.0
C355 C 0.62745 0.54586 0.49895 0.0
O356 O 0.58762 0.62121 0.56777 0.0
O357 O 0.57287 0.59177 0.62233 0.0
O358 O 0.54515 0.48851 0.57359 0.0
O359 O 0.61319 0.52682 0.60003 0.0
O360 O 0.45578 0.4675 0.53155 0.0
O361 O 0.48639 0.52668 0.57375 0.0
O362 O 0.51086 0.41616 0.50301 0.0
O363 O 0.50373 0.43989 0.44388 0.0
O364 O 0.53775 0.5469 0.49199 0.0
O365 O 0.46958 0.50643 0.46511 0.0
O366 O 0.62472 0.5697 0.52831 0.0
O367 O 0.59469 0.5097 0.48737 0.0
H368 H 0.52987 0.62027 0.66355 0.0
H369 H 0.48396 0.65965 0.67191 0.0
H370 H 0.52644 0.7235 0.57011 0.0
H371 H 0.57274 0.68487 0.56169 0.0
H372 H 0.50048 0.33419 0.4672 0.0
H373 H 0.55516 0.30549 0.45321 0.0
H374 H 0.64243 0.41968 0.42357 0.0
H375 H 0.58773 0.4483 0.43699 0.0
Pr376 Pr 1.01654 0.54288 0.99353 0.0
Pr377 Pr 0.04711 0.49229 0.0548 0.0
C378 C 0.96812 0.56064 0.92717 0.0
C379 C 0.91983 0.55577 0.91323 0.0
C380 C 0.9091 0.58112 0.88604 0.0
C381 C 0.86346 0.57727 0.87312 0.0
C382 C 0.82794 0.5479 0.88708 0.0
C383 C 0.8384 0.52192 0.91374 0.0
C384 C 0.88422 0.52594 0.92688 0.0
C385 C 0.10684 0.58217 0.0399 0.0
C386 C 0.99436 0.55046 0.0868 0.0
C387 C 0.08982 0.47179 0.12268 0.0
C388 C 0.1361 0.47461 0.1419 0.0
C389 C 0.16832 0.4761 0.11813 0.0
C390 C 0.21261 0.47963 0.13752 0.0
C391 C 0.22507 0.48227 0.18076 0.0
C392 C 0.19328 0.48215 0.20443 0.0
C393 C 0.14898 0.47821 0.18507 0.0
C394 C 0.95813 0.45311 1.00727 0.0
C395 C 0.072 0.48695 0.96249 0.0
O396 O 0.97497 0.52741 0.92802 0.0
O397 O 0.99281 0.58702 0.95929 0.0
O398 O 0.08782 0.54588 0.02543 0.0
O399 O 0.08097 0.60118 0.02552 0.0
O400 O 1.01816 0.52782 0.09657 0.0
O401 O 0.9855 0.55849 0.04813 0.0
O402 O 0.08534 0.50602 0.12136 0.0
O403 O 0.06773 0.44679 0.08901 0.0
O404 O 0.97562 0.48903 0.0231 0.0
O405 O 0.98522 0.43458 1.01913 0.0
O406 O 0.04483 0.50662 0.95165 0.0
O407 O 0.08303 0.48113 1.00177 0.0
H408 H 0.93608 0.60419 0.87519 0.0
H409 H 0.85586 0.59772 0.85278 0.0
H410 H 0.81141 0.49938 0.92509 0.0
H411 H 0.89193 0.50614 0.94804 0.0
H412 H 0.15915 0.47429 0.08475 0.0
H413 H 0.23687 0.47964 0.11891 0.0
H414 H 0.20246 0.48408 0.23782 0.0
H415 H 0.12468 0.47781 0.20378 0.0
C416 C 0.29913 0.26804 0.37922 0.0
C417 C 0.33678 0.29381 0.41058 0.0
C418 C 0.30644 0.25167 0.46288 0.0
C419 C 0.26815 0.22664 0.43162 0.0
N420 N 0.22217 0.21578 0.36242 0.0
N421 N 0.3723 0.3152 0.48272 0.0
C422 C 0.26263 0.23646 0.39052 0.0
C423 C 0.33913 0.28722 0.45266 0.0
N424 N 0.29934 0.27247 0.33849 0.0
N425 N 0.31251 0.24057 0.50182 0.0
H426 H 0.39689 0.34134 0.47605 0.0
H427 H 0.37325 0.31422 0.51417 0.0
H428 H 0.28877 0.21518 0.51057 0.0
H429 H 0.3423 0.25503 0.52476 0.0
H430 H 0.2757 0.25173 0.31426 0.0
H431 H 0.32531 0.29524 0.32866 0.0
H432 H 0.21413 0.22415 0.33316 0.0
H433 H 0.19471 0.19234 0.36969 0.0
C434 C 0.38156 0.88623 0.8763 0.0
C435 C 0.3653 0.90897 0.84839 0.0
C436 C 0.37807 0.95949 0.90476 0.0
C437 C 0.39784 0.93837 0.93233 0.0
N438 N 0.40592 0.87708 0.94796 0.0
N439 N 0.33411 0.95939 0.83656 0.0
C440 C 0.39496 0.89988 0.91918 0.0
C441 C 0.35836 0.94274 0.86299 0.0
N442 N 0.38615 0.8528 0.86143 0.0
N443 N 0.38192 0.99707 0.91726 0.0
H444 H 0.32033 0.94837 0.80543 0.0
H445 H 0.32398 0.98164 0.84619 0.0
H446 H 0.39498 1.01043 0.94766 0.0
H447 H 0.37438 1.01613 0.89703 0.0
H448 H 0.40238 0.83712 0.8795 0.0
H449 H 0.37479 0.84142 0.83024 0.0
H450 H 0.40216 0.84771 0.94111 0.0
H451 H 0.41493 0.88674 0.97956 0.0
C452 C 0.55534 0.40373 0.66336 0.0
C453 C 0.60025 0.40923 0.68499 0.0
C454 C 0.63359 0.46184 0.64164 0.0
C455 C 0.58856 0.45821 0.62138 0.0
N456 N 0.50761 0.41322 0.60253 0.0
N457 N 0.68218 0.44745 0.69944 0.0
C458 C 0.54957 0.42589 0.62944 0.0
C459 C 0.63936 0.43935 0.67533 0.0
N460 N 0.51776 0.37741 0.67545 0.0
N461 N 0.67069 0.48392 0.62612 0.0
H462 H 0.68767 0.43161 0.72418 0.0
H463 H 0.71154 0.47211 0.69754 0.0
H464 H 0.66735 0.49678 0.5987 0.0
H465 H 0.70388 0.48504 0.6369 0.0
H466 H 0.48447 0.37639 0.66546 0.0
H467 H 0.52011 0.35874 0.69819 0.0
H468 H 0.47955 0.38743 0.60451 0.0
H469 H 0.50211 0.42403 0.57444 0.0
C470 C 0.98781 0.5945 0.19307 0.0
C471 C 0.94348 0.59637 0.18445 0.0
C472 C 0.93046 0.5645 0.11318 0.0
C473 C 0.97673 0.56659 0.12039 0.0
N474 N 0.05214 0.59185 0.16662 0.0
N475 N 0.87621 0.5898 0.13289 0.0
C476 C 1.00604 0.58376 0.16026 0.0
C477 C 0.9159 0.58322 0.14351 0.0
N478 N 1.01226 0.60175 0.23305 0.0
N479 N 0.89927 0.54283 0.07821 0.0
H480 H 0.86453 0.60355 0.15371 0.0
H481 H 0.8573 0.58516 0.10258 0.0
H482 H 0.90743 0.52753 0.05595 0.0
H483 H 0.86407 0.53649 0.07336 0.0
H484 H 0.04225 0.59647 0.24213 0.0
H485 H 1.00024 0.60938 0.25777 0.0
H486 H 0.07602 0.60839 0.19322 0.0
H487 H 0.06752 0.58577 0.14381 0.0
C488 C 0.45234 0.26455 0.17558 0.0
C489 C 0.47475 0.27081 0.21792 0.0
C490 C 0.48386 0.20725 0.21056 0.0
C491 C 0.45491 0.19824 0.17039 0.0
N492 N 0.40662 0.21616 0.11612 0.0
N493 N 0.50673 0.24584 0.27761 0.0
C494 C 0.43799 0.22642 0.1531 0.0
C495 C 0.48954 0.24171 0.23596 0.0
N496 N 0.44531 0.29529 0.15683 0.0
N497 N 0.50663 0.18336 0.2241 0.0
H498 H 0.51066 0.27026 0.2975 0.0
H499 H 0.51342 0.22343 0.29292 0.0
H500 H 0.50366 0.15806 0.20611 0.0
H501 H 0.53181 0.19078 0.25144 0.0
H502 H 0.43309 0.29362 0.12511 0.0
H503 H 0.45606 0.32383 0.17241 0.0
H504 H 0.38941 0.23402 0.10426 0.0
H505 H 0.39465 0.18825 0.09889 0.0
C506 C 0.17856 0.93683 0.55873 0.0
C507 C 0.19058 0.93104 0.60068 0.0
C508 C 0.13577 0.95779 0.61825 0.0
C509 C 0.1239 0.96363 0.57627 0.0
N510 N 0.12464 0.9495 0.50496 0.0
N511 N 0.1749 0.92786 0.66879 0.0
C512 C 0.1424 0.95022 0.546 0.0
C513 C 0.16713 0.93882 0.62995 0.0
N514 N 0.20318 0.93134 0.53141 0.0
N515 N 0.11877 0.97208 0.64709 0.0
H516 H 0.19786 0.9141 0.67813 0.0
H517 H 0.15608 0.9293 0.6906 0.0
H518 H 0.09512 0.98543 0.63933 0.0
H519 H 0.12996 0.9729 0.67881 0.0
H520 H 0.20015 0.94008 0.5018 0.0
H521 H 0.22899 0.92032 0.53917 0.0
H522 H 0.13304 0.93604 0.48134 0.0
H523 H 0.09816 0.9591 0.49442 0.0
C524 C 0.8274 0.4096 0.96713 0.0
C525 C 0.82422 0.39842 0.92497 0.0
C526 C 0.90829 0.42163 0.93716 0.0
C527 C 0.9119 0.43423 0.9791 0.0
N528 N 0.87597 0.44441 0.03356 0.0
N529 N 0.86071 0.40084 0.86767 0.0
C530 C 0.87173 0.42976 0.99387 0.0
C531 C 0.86446 0.40664 0.90935 0.0
N532 N 0.78798 0.39953 0.98179 0.0
N533 N 0.94666 0.42322 0.924 0.0
H534 H 0.82906 0.38945 0.84638 0.0
H535 H 0.88883 0.4105 0.85374 0.0
H536 H 0.97957 0.43519 0.94292 0.0
H537 H 0.94566 0.41009 0.89531 0.0
H538 H 0.78761 0.40251 1.01297 0.0
H539 H 0.75502 0.386 0.96274 0.0
H540 H 0.84878 0.44655 0.04483 0.0
H541 H 0.90742 0.4565 0.05504 0.0
C542 C 0.71823 0.54967 0.43556 0.0
C543 C 0.73101 0.58892 0.42323 0.0
C544 C 0.67434 0.59891 0.45856 0.0
C545 C 0.66495 0.5614 0.47464 0.0
N546 N 0.68568 0.50455 0.48423 0.0
N547 N 0.72919 0.65426 0.43309 0.0
C548 C 0.68919 0.53779 0.46478 0.0
C549 C 0.71155 0.61452 0.43796 0.0
N550 N 0.73207 0.52298 0.41809 0.0
N551 N 0.64586 0.6187 0.4601 0.0
H552 H 0.75716 0.66716 0.41933 0.0
H553 H 0.71935 0.675 0.44673 0.0
H554 H 0.61633 0.60757 0.47203 0.0
H555 H 0.64844 0.64389 0.44498 0.0
H556 H 0.71974 0.49276 0.42226 0.0
H557 H 0.75269 0.53024 0.39648 0.0
H558 H 0.70569 0.48818 0.48134 0.0
H559 H 0.66613 0.49565 0.50652 0.0
C560 C 0.3544 0.51289 0.22188 0.0
C561 C 0.3541 0.4791 0.24212 0.0
C562 C 0.27024 0.4465 0.21876 0.0
C563 C 0.26988 0.48149 0.20138 0.0
N564 N 0.30997 0.55013 0.19085 0.0
N565 N 0.31165 0.41725 0.26717 0.0
C566 C 0.31158 0.5154 0.20415 0.0
C567 C 0.31193 0.44703 0.2429 0.0
N568 N 0.39547 0.54197 0.21899 0.0
N569 N 0.23114 0.41209 0.21061 0.0
H570 H 0.3415 0.41603 0.28509 0.0
H571 H 0.2815 0.39565 0.2725 0.0
H572 H 0.19986 0.41006 0.19229 0.0
H573 H 0.23074 0.38451 0.2186 0.0
H574 H 0.39808 0.56503 0.20058 0.0
H575 H 0.42728 0.5416 0.23317 0.0
H576 H 0.33877 0.57675 0.19421 0.0
H577 H 0.27903 0.55311 0.17881 0.0
C578 C 0.58418 0.15015 0.92416 0.0
C579 C 0.55368 0.16978 0.9119 0.0
C580 C 0.49948 0.12589 0.95022 0.0
C581 C 0.53213 0.10927 0.96603 0.0
N582 N 0.60729 0.10782 0.97094 0.0
N583 N 0.4841 0.17899 0.91581 0.0
C584 C 0.5748 0.12178 0.95346 0.0
C585 C 0.51175 0.15828 0.92559 0.0
N586 N 0.62199 0.15837 0.90738 0.0
N587 N 0.45607 0.10974 0.95763 0.0
H588 H 0.49121 0.20185 0.89678 0.0
H589 H 0.45589 0.17545 0.92866 0.0
H590 H 0.44568 0.08573 0.97489 0.0
H591 H 0.42907 0.11753 0.94371 0.0
H592 H 0.64268 0.14198 0.91109 0.0
H593 H 0.63102 0.17991 0.88712 0.0
H594 H 0.64118 0.11921 0.96729 0.0
H595 H 0.60119 0.08638 0.99152 0.0
C596 C 0.92688 0.85027 0.42222 0.0
C597 C 0.95294 0.83891 0.39785 0.0
C598 C 1.01235 0.90808 0.41247 0.0
C599 C 0.98717 0.91897 0.43838 0.0
N600 N 0.92494 0.89795 0.47408 0.0
N601 N 1.02438 0.85501 0.37598 0.0
C602 C 0.9459 0.88921 0.44519 0.0
C603 C 0.9967 0.86738 0.39459 0.0
N604 N 0.88288 0.82443 0.422 0.0
N605 N 0.05165 0.9365 0.40508 0.0
H606 H 1.01432 0.82566 0.36287 0.0
H607 H 0.0587 0.87268 0.37649 0.0
H608 H 0.06731 0.96533 0.42061 0.0
H609 H 0.06791 0.93211 0.38221 0.0
H610 H 0.86004 0.83234 0.43511 0.0
H611 H 0.86766 0.79589 0.40566 0.0
H612 H 0.8983 0.87639 0.48433 0.0
H613 H 0.93659 0.92628 0.49031 0.0
C614 C 0.47059 0.77954 0.65485 0.0
C615 C 0.42446 0.76677 0.63163 0.0
C616 C 0.4269 0.70356 0.60667 0.0
C617 C 0.47442 0.71821 0.62643 0.0
N618 N 0.54336 0.77141 0.66561 0.0
N619 N 0.35927 0.7187 0.58288 0.0
C620 C 0.4968 0.75657 0.64954 0.0
C621 C 0.4026 0.72918 0.607 0.0
N622 N 0.48886 0.81309 0.68286 0.0
N623 N 0.40506 0.6651 0.58786 0.0
H624 H 0.34026 0.73647 0.58304 0.0
H625 H 0.3432 0.69379 0.56076 0.0
H626 H 0.42216 0.64598 0.58579 0.0
H627 H 0.36951 0.6511 0.57675 0.0
H628 H 0.52041 0.82161 0.70384 0.0
H629 H 0.47079 0.83081 0.68765 0.0
H630 H 0.56269 0.80102 0.67817 0.0
H631 H 0.56344 0.75475 0.66429 0.0
C632 C 0.76593 0.76901 0.6322 0.0
C633 C 0.72458 0.7728 0.63657 0.0
C634 C 0.74335 0.83253 0.60053 0.0
C635 C 0.78606 0.83017 0.59846 0.0
N636 N 0.83169 0.79065 0.59991 0.0
N637 N 0.66695 0.79935 0.61436 0.0
C638 C 0.79501 0.79626 0.60994 0.0
C639 C 0.71083 0.80154 0.61676 0.0
N640 N 0.77891 0.74122 0.65169 0.0
N641 N 0.73522 0.86554 0.5896 0.0
H642 H 0.64279 0.77665 0.62617 0.0
H643 H 0.6533 0.81743 0.59751 0.0
H644 H 0.75795 0.88859 0.57704 0.0
H645 H 0.70718 0.87118 0.59501 0.0
H646 H 0.81133 0.74033 0.65405 0.0
H647 H 0.75799 0.7201 0.66746 0.0
H648 H 0.83797 0.76481 0.60424 0.0
H649 H 0.85344 0.81042 0.58358 0.0
C650 C 0.69697 0.12526 0.17507 0.0
C651 C 0.68718 0.15495 0.19534 0.0
C652 C 0.61186 0.13349 0.14758 0.0
C653 C 0.61946 0.10091 0.13013 0.0
N654 N 0.66619 0.06183 0.13219 0.0
N655 N 0.63427 0.18547 0.20447 0.0
C656 C 0.66141 0.0959 0.14486 0.0
C657 C 0.64432 0.15857 0.18258 0.0
N658 N 0.74026 0.12502 0.18488 0.0
N659 N 0.57454 0.14151 0.12982 0.0
H660 H 0.65813 0.20591 0.22893 0.0
H661 H 0.60144 0.18588 0.20022 0.0
H662 H 0.55 0.12427 0.10404 0.0
H663 H 0.56989 0.16728 0.13829 0.0
H664 H 0.75104 0.10711 0.16788 0.0
H665 H 0.76675 0.14505 0.20805 0.0
H666 H 0.69376 0.05446 0.14543 0.0
H667 H 0.64063 0.03882 0.11112 0.0
C668 C 0.46179 0.62064 0.41505 0.0
C669 C 0.47997 0.62162 0.37912 0.0
C670 C 0.51212 0.57265 0.40429 0.0
C671 C 0.49451 0.57215 0.44055 0.0
N672 N 0.46226 0.60224 0.48492 0.0
N673 N 0.53018 0.6051 0.34333 0.0
C674 C 0.47224 0.59817 0.44726 0.0
C675 C 0.50758 0.5996 0.375 0.0
N676 N 0.43324 0.64011 0.41778 0.0
N677 N 0.53203 0.54648 0.3972 0.0
H678 H 0.52738 0.62431 0.32125 0.0
H679 H 0.55473 0.59346 0.34074 0.0
H680 H 0.53658 0.52664 0.41788 0.0
H681 H 0.54111 0.54215 0.36953 0.0
H682 H 0.4146 0.63697 0.44076 0.0
H683 H 0.42584 0.65758 0.39539 0.0
H684 H 0.45026 0.62356 0.49352 0.0
H685 H 0.47005 0.58661 0.50908 0.0
C686 C 0.14117 0.48257 0.87927 0.0
C687 C 0.12475 0.4407 0.86681 0.0
C688 C 0.07722 0.4291 0.91981 0.0
C689 C 0.09031 0.47105 0.92949 0.0
N690 N 0.12853 0.53739 0.91121 0.0
N691 N 0.06833 0.37498 0.86956 0.0
C692 C 0.12013 0.49758 0.90681 0.0
C693 C 0.09038 0.41426 0.88566 0.0
N694 N 0.17876 0.50819 0.86673 0.0
N695 N 0.05197 0.403 0.94315 0.0
H696 H 0.07545 0.36332 0.84382 0.0
H697 H 0.0397 0.355 0.87878 0.0
H698 H 0.03983 0.41197 0.96701 0.0
H699 H 0.04604 0.37272 0.94087 0.0
H700 H 0.19562 0.53831 0.87836 0.0
H701 H 0.1961 0.49865 0.84792 0.0
H702 H 0.14551 0.55733 0.89218 0.0
H703 H 0.11523 0.55004 0.93142 0.0
C704 C 0.5021 0.77801 0.83108 0.0
C705 C 0.53441 0.78204 0.8062 0.0
C706 C 0.55654 0.85461 0.81333 0.0
C707 C 0.53345 0.85089 0.84603 0.0
N708 N 0.48113 0.80963 0.88494 0.0
N709 N 0.59306 0.82472 0.77295 0.0
C710 C 0.50423 0.81269 0.85389 0.0
C711 C 0.56085 0.8204 0.79599 0.0
N712 N 0.47054 0.74085 0.83357 0.0
N713 N 0.57546 0.89116 0.79996 0.0
H714 H 0.59779 0.80079 0.75946 0.0
H715 H 0.61717 0.85238 0.76912 0.0
H716 H 0.57281 0.91657 0.81281 0.0
H717 H 0.58935 0.89539 0.77377 0.0
H718 H 0.44374 0.73582 0.84879 0.0
H719 H 0.46889 0.71529 0.81691 0.0
H720 H 0.46345 0.78266 0.89543 0.0
H721 H 0.48134 0.83458 0.90152 0.0
C722 C 0.89528 0.11281 0.45669 0.0
C723 C 0.91131 0.13727 0.426 0.0
C724 C 0.9659 0.10589 0.42156 0.0
C725 C 0.95492 0.08593 0.45646 0.0
N726 N 0.91396 0.0764 0.51208 0.0
N727 N 0.96823 0.16267 0.38479 0.0
C728 C 0.92067 0.09072 0.47529 0.0
C729 C 0.94846 0.1354 0.40998 0.0
N730 N 0.85522 0.10988 0.46744 0.0
N731 N 0.99163 0.09565 0.39845 0.0
H732 H 0.95734 0.18555 0.37643 0.0
H733 H 0.99837 0.16505 0.37569 0.0
H734 H 1.00299 0.07262 0.40459 0.0
H735 H 0.99707 0.10676 0.37054 0.0
H736 H 0.83932 0.08914 0.48633 0.0
H737 H 0.83557 0.12549 0.45442 0.0
H738 H 0.89319 0.08319 0.52908 0.0
H739 H 0.93244 0.0612 0.52797 0.0
C740 C 0.21308 0.65045 0.12172 0.0
C741 C 0.2441 0.63153 0.11928 0.0
C742 C 0.18852 0.58599 0.06016 0.0
C743 C 0.15479 0.60095 0.06611 0.0
N744 N 0.13346 0.64308 0.10908 0.0
N745 N 0.25684 0.57536 0.09178 0.0
C746 C 0.16661 0.63208 0.09865 0.0
C747 C 0.23034 0.59738 0.09032 0.0
N748 N 0.22824 0.68662 0.14496 0.0
N749 N 0.18232 0.56306 0.02441 0.0
H750 H 0.28781 0.58263 0.11341 0.0
H751 H 0.2457 0.54778 0.07413 0.0
H752 H 0.15481 0.55766 0.99948 0.0
H753 H 0.20764 0.5542 1.0173 0.0
H754 H 0.20841 0.7037 0.14427 0.0
H755 H 0.26212 0.70136 0.16183 0.0
H756 H 0.13967 0.66247 0.13538 0.0
H757 H 0.09873 0.62992 0.09433 0.0
C758 C 0.36078 0.49593 0.61934 0.0
C759 C 0.34387 0.45705 0.63207 0.0
C760 C 0.39109 0.43735 0.59176 0.0
C761 C 0.41082 0.47734 0.58097 0.0
N762 N 0.40268 0.54026 0.57442 0.0
N763 N 0.34825 0.39264 0.63579 0.0
C764 C 0.39253 0.50548 0.59231 0.0
C765 C 0.3602 0.4283 0.61937 0.0
N766 N 0.34744 0.52425 0.6342 0.0
N767 N 0.39969 0.40695 0.57467 0.0
H768 H 0.32474 0.38397 0.65486 0.0
H769 H 0.36456 0.37298 0.63364 0.0
H770 H 0.42215 0.41003 0.55533 0.0
H771 H 0.38072 0.37688 0.57638 0.0
H772 H 0.36245 0.55451 0.63086 0.0
H773 H 0.32308 0.51786 0.65248 0.0
H774 H 0.38797 0.56084 0.57815 0.0
H775 H 0.42195 0.54656 0.55177 0.0
C776 C 0.71028 0.53377 0.82324 0.0
C777 C 0.70696 0.56839 0.84072 0.0
C778 C 0.77128 0.57615 0.89837 0.0
C779 C 0.78078 0.54758 0.87611 0.0
N780 N 0.75843 0.4963 0.81937 0.0
N781 N 0.73575 0.6241 0.89468 0.0
C782 C 0.74942 0.52487 0.83947 0.0
C783 C 0.73702 0.58943 0.87886 0.0
N784 N 0.6763 0.51008 0.79083 0.0
N785 N 0.79593 0.59122 0.93782 0.0
H786 H 0.71164 0.63554 0.88171 0.0
H787 H 0.76081 0.64329 0.91924 0.0
H788 H 0.82172 0.58226 0.9526 0.0
H789 H 0.78774 0.60933 0.95718 0.0
H790 H 0.6745 0.48272 0.77843 0.0
H791 H 0.64752 0.5164 0.77872 0.0
H792 H 0.73986 0.48152 0.79021 0.0
H793 H 0.78594 0.48834 0.83157 0.0
C794 C 0.5035 0.90261 0.18176 0.0
C795 C 0.48331 0.86276 0.16189 0.0
C796 C 0.48215 0.88845 0.09407 0.0
C797 C 0.49977 0.92832 0.11375 0.0
N798 N 0.52116 0.97324 0.17597 0.0
N799 N 0.44489 0.8175 0.09925 0.0
C800 C 0.50864 0.93532 0.15756 0.0
C801 C 0.4699 0.85568 0.11806 0.0
N802 N 0.51903 0.90922 0.22373 0.0
N803 N 0.47981 0.88173 0.05277 0.0
H804 H 0.4359 0.79266 0.11558 0.0
H805 H 0.42956 0.81078 0.06782 0.0
H806 H 0.48946 0.90458 0.03406 0.0
H807 H 0.47237 0.85369 0.03767 0.0
H808 H 0.53875 0.93741 0.23994 0.0
H809 H 0.51469 0.88603 0.24231 0.0
H810 H 0.52372 0.98008 0.20726 0.0
H811 H 0.52545 0.99771 0.15924 0.0
C812 C 0.08889 0.19625 0.61284 0.0
C813 C 0.1259 0.20726 0.64819 0.0
C814 C 0.13022 0.1414 0.636 0.0
C815 C 0.09017 0.12886 0.60325 0.0
N816 N 1.02497 0.14235 0.56804 0.0
N817 N 0.17625 0.18707 0.6978 0.0
C818 C 0.06783 0.1558 0.59358 0.0
C819 C 0.14499 0.17886 0.66096 0.0
N820 N 0.0744 0.22463 0.59683 0.0
N821 N 0.15532 0.11816 0.64249 0.0
H822 H 0.18741 0.21371 0.71714 0.0
H823 H 0.18775 0.16605 0.71101 0.0
H824 H 0.14622 0.09097 0.62472 0.0
H825 H 0.18743 0.12754 0.66282 0.0
H826 H 0.05122 0.21945 0.56851 0.0
H827 H 0.08873 0.2544 0.60991 0.0
H828 H 1.00522 0.15955 0.56307 0.0
H829 H 1.00672 0.11262 0.55574 0.0
C830 C 0.66202 0.30695 0.38384 0.0
C831 C 0.7019 0.31366 0.41527 0.0
C832 C 0.67373 0.34692 0.46274 0.0
C833 C 0.63624 0.34358 0.43006 0.0
N834 N 0.59689 0.32481 0.35836 0.0
N835 N 0.74864 0.34291 0.4832 0.0
C836 C 0.63089 0.32469 0.39028 0.0
C837 C 0.70848 0.33429 0.45445 0.0
N838 N 0.65342 0.28281 0.34819 0.0
N839 N 0.67564 0.3616 0.50179 0.0
H840 H 0.77424 0.33321 0.47852 0.0
H841 H 0.75806 0.36176 0.51055 0.0
H842 H 0.65144 0.37207 0.50875 0.0
H843 H 0.69916 0.36087 0.52784 0.0
H844 H 0.62257 0.27317 0.32603 0.0
H845 H 0.67564 0.26957 0.34219 0.0
H846 H 0.59483 0.31616 0.32761 0.0
H847 H 0.5725 0.33639 0.36212 0.0
loop_
_geom_bond_atom_site_label_1
_geom_bond_atom_site_label_2
_geom_bond_distance
_geom_bond_site_symmetry_2
_ccdc_geom_bond_type
P0 O11 1.490 . S
P0 C14 1.812 . S
P0 C20 1.803 . S
P0 C26 1.819 . S
H1 C15 0.941 . S
H2 C16 0.939 . S
H3 C18 0.940 . S
H4 C19 0.940 . S
H5 C21 0.939 . S
H6 C22 0.942 . S
H7 C24 0.940 . S
H8 C25 0.939 . S
H9 C27 0.941 . S
H10 C31 0.939 . S
O11 P0 1.490 . S
H12 C28 0.939 . S
H13 C30 0.940 . S
C14 P0 1.812 . S
C14 C15 1.389 . S
C14 C19 1.391 . S
C15 H1 0.941 . S
C15 C14 1.389 . S
C15 C16 1.397 . S
C16 H2 0.939 . S
C16 C15 1.397 . S
C16 C17 1.378 . S
C17 C16 1.378 . S
C17 C18 1.378 . S
C18 H3 0.940 . S
C18 C17 1.378 . S
C18 C19 1.396 . S
C19 H4 0.940 . S
C19 C14 1.391 . S
C19 C18 1.396 . S
C20 P0 1.803 . S
C20 C21 1.378 . S
C20 C25 1.400 . S
C21 H5 0.939 . S
C21 C20 1.378 . S
C21 C22 1.361 . S
C22 H6 0.942 . S
C22 C21 1.361 . S
C22 C23 1.369 . S
C23 C22 1.369 . S
C23 C24 1.404 . S
C24 H7 0.940 . S
C24 C23 1.404 . S
C24 C25 1.389 . S
C25 H8 0.939 . S
C25 C20 1.400 . S
C25 C24 1.389 . S
C26 P0 1.819 . S
C26 C27 1.391 . S
C26 C31 1.391 . S
C27 H9 0.941 . S
C27 C26 1.391 . S
C27 C28 1.396 . S
C28 H12 0.939 . S
C28 C27 1.396 . S
C28 C29 1.397 . S
C29 C28 1.397 . S
C29 C30 1.385 . S
C30 H13 0.940 . S
C30 C29 1.385 . S
C30 C31 1.388 . S
C31 H10 0.939 . S
C31 C26 1.391 . S
C31 C30 1.388 . S
P32 O43 1.490 . S
P32 C46 1.812 . S
P32 C52 1.803 . S
P32 C58 1.819 . S
H33 C47 0.941 . S
H34 C48 0.939 . S
H35 C50 0.940 . S
H36 C51 0.940 . S
H37 C53 0.939 . S
H38 C54 0.942 . S
H39 C56 0.940 . S
H40 C57 0.939 . S
H41 C59 0.941 . S
H42 C63 0.939 . S
O43 P32 1.490 . S
H44 C60 0.939 . S
H45 C62 0.940 . S
C46 P32 1.812 . S
C46 C47 1.389 . S
C46 C51 1.391 . S
C47 H33 0.941 . S
C47 C46 1.389 . S
C47 C48 1.397 . S
C48 H34 0.939 . S
C48 C47 1.397 . S
C48 C49 1.378 . S
C49 C48 1.378 . S
C49 C50 1.378 . S
C50 H35 0.940 . S
C50 C49 1.378 . S
C50 C51 1.396 . S
C51 H36 0.940 . S
C51 C46 1.391 . S
C51 C50 1.396 . S
C52 P32 1.803 . S
C52 C53 1.378 . S
C52 C57 1.400 . S
C53 H37 0.939 . S
C53 C52 1.378 . S
C53 C54 1.361 . S
C54 H38 0.942 . S
C54 C53 1.361 . S
C54 C55 1.369 . S
C55 C54 1.369 . S
C55 C56 1.404 . S
C56 H39 0.940 . S
C56 C55 1.404 . S
C56 C57 1.389 . S
C57 H40 0.939 . S
C57 C52 1.400 . S
C57 C56 1.389 . S
C58 P32 1.819 . S
C58 C59 1.391 . S
C58 C63 1.391 . S
C59 H41 0.941 . S
C59 C58 1.391 . S
C59 C60 1.396 . S
C60 H44 0.939 . S
C60 C59 1.396 . S
C60 C61 1.397 . S
C61 C60 1.397 . S
C61 C62 1.385 . S
C62 H45 0.940 . S
C62 C61 1.385 . S
C62 C63 1.388 . S
C63 H42 0.939 . S
C63 C58 1.391 . S
C63 C62 1.388 . S
P64 O75 1.490 . S
P64 C78 1.812 . S
P64 C84 1.803 . S
P64 C90 1.819 . S
H65 C79 0.941 . S
H66 C80 0.939 . S
H67 C82 0.940 . S
H68 C83 0.940 . S
H69 C85 0.939 . S
H70 C86 0.942 . S
H71 C88 0.940 . S
H72 C89 0.939 . S
H73 C91 0.941 . S
H74 C95 0.939 . S
O75 P64 1.490 . S
H76 C92 0.939 . S
H77 C94 0.940 . S
C78 P64 1.812 . S
C78 C79 1.389 . S
C78 C83 1.391 . S
C79 H65 0.941 . S
C79 C78 1.389 . S
C79 C80 1.397 . S
C80 H66 0.939 . S
C80 C79 1.397 . S
C80 C81 1.378 . S
C81 C80 1.378 . S
C81 C82 1.378 . S
C82 H67 0.940 . S
C82 C81 1.378 . S
C82 C83 1.396 . S
C83 H68 0.940 . S
C83 C78 1.391 . S
C83 C82 1.396 . S
C84 P64 1.803 . S
C84 C85 1.378 . S
C84 C89 1.400 . S
C85 H69 0.939 . S
C85 C84 1.378 . S
C85 C86 1.361 . S
C86 H70 0.942 . S
C86 C85 1.361 . S
C86 C87 1.369 . S
C87 C86 1.369 . S
C87 C88 1.404 . S
C88 H71 0.940 . S
C88 C87 1.404 . S
C88 C89 1.389 . S
C89 H72 0.939 . S
C89 C84 1.400 . S
C89 C88 1.389 . S
C90 P64 1.819 . S
C90 C91 1.391 . S
C90 C95 1.391 . S
C91 H73 0.941 . S
C91 C90 1.391 . S
C91 C92 1.396 . S
C92 H76 0.939 . S
C92 C91 1.396 . S
C92 C93 1.397 . S
C93 C92 1.397 . S
C93 C94 1.385 . S
C94 H77 0.940 . S
C94 C93 1.385 . S
C94 C95 1.388 . S
C95 H74 0.939 . S
C95 C90 1.391 . S
C95 C94 1.388 . S
P96 O107 1.490 . S
P96 C110 1.812 . S
P96 C116 1.803 . S
P96 C122 1.819 . S
H97 C111 0.941 . S
H98 C112 0.939 . S
H99 C114 0.940 . S
H100 C115 0.940 . S
H101 C117 0.939 . S
H102 C118 0.942 . S
H103 C120 0.940 . S
H104 C121 0.939 . S
H105 C123 0.941 . S
H106 C127 0.939 . S
O107 P96 1.490 . S
H108 C124 0.939 . S
H109 C126 0.940 . S
C110 P96 1.812 . S
C110 C111 1.389 . S
C110 C115 1.391 . S
C111 H97 0.941 . S
C111 C110 1.389 . S
C111 C112 1.397 . S
C112 H98 0.939 . S
C112 C111 1.397 . S
C112 C113 1.378 . S
C113 C112 1.378 . S
C113 C114 1.378 . S
C114 H99 0.940 . S
C114 C113 1.378 . S
C114 C115 1.396 . S
C115 H100 0.940 . S
C115 C110 1.391 . S
C115 C114 1.396 . S
C116 P96 1.803 . S
C116 C117 1.378 . S
C116 C121 1.400 . S
C117 H101 0.939 . S
C117 C116 1.378 . S
C117 C118 1.361 . S
C118 H102 0.942 . S
C118 C117 1.361 . S
C118 C119 1.369 . S
C119 C118 1.369 . S
C119 C120 1.404 . S
C120 H103 0.940 . S
C120 C119 1.404 . S
C120 C121 1.389 . S
C121 H104 0.939 . S
C121 C116 1.400 . S
C121 C120 1.389 . S
C122 P96 1.819 . S
C122 C123 1.391 . S
C122 C127 1.391 . S
C123 H105 0.941 . S
C123 C122 1.391 . S
C123 C124 1.396 . S
C124 H108 0.939 . S
C124 C123 1.396 . S
C124 C125 1.397 . S
C125 C124 1.397 . S
C125 C126 1.385 . S
C126 H109 0.940 . S
C126 C125 1.385 . S
C126 C127 1.388 . S
C127 H106 0.939 . S
C127 C122 1.391 . S
C127 C126 1.388 . S
P128 O139 1.490 . S
P128 C142 1.812 . S
P128 C148 1.803 . S
P128 C154 1.819 . S
H129 C143 0.941 . S
H130 C144 0.939 . S
H131 C146 0.940 . S
H132 C147 0.940 . S
H133 C149 0.939 . S
H134 C150 0.942 . S
H135 C152 0.940 . S
H136 C153 0.939 . S
H137 C155 0.941 . S
H138 C159 0.939 . S
O139 P128 1.490 . S
H140 C156 0.939 . S
H141 C158 0.940 . S
C142 P128 1.812 . S
C142 C143 1.389 . S
C142 C147 1.391 . S
C143 H129 0.941 . S
C143 C142 1.389 . S
C143 C144 1.397 . S
C144 H130 0.939 . S
C144 C143 1.397 . S
C144 C145 1.378 . S
C145 C144 1.378 . S
C145 C146 1.378 . S
C146 H131 0.940 . S
C146 C145 1.378 . S
C146 C147 1.396 . S
C147 H132 0.940 . S
C147 C142 1.391 . S
C147 C146 1.396 . S
C148 P128 1.803 . S
C148 C149 1.378 . S
C148 C153 1.400 . S
C149 H133 0.939 . S
C149 C148 1.378 . S
C149 C150 1.361 . S
C150 H134 0.942 . S
C150 C149 1.361 . S
C150 C151 1.369 . S
C151 C150 1.369 . S
C151 C152 1.404 . S
C152 H135 0.940 . S
C152 C151 1.404 . S
C152 C153 1.389 . S
C153 H136 0.939 . S
C153 C148 1.400 . S
C153 C152 1.389 . S
C154 P128 1.819 . S
C154 C155 1.391 . S
C154 C159 1.391 . S
C155 H137 0.941 . S
C155 C154 1.391 . S
C155 C156 1.396 . S
C156 H140 0.939 . S
C156 C155 1.396 . S
C156 C157 1.397 . S
C157 C156 1.397 . S
C157 C158 1.385 . S
C158 H141 0.940 . S
C158 C157 1.385 . S
C158 C159 1.388 . S
C159 H138 0.939 . S
C159 C154 1.391 . S
C159 C158 1.388 . S
P160 O171 1.490 . S
P160 C174 1.812 . S
P160 C180 1.803 . S
P160 C186 1.819 . S
H161 C175 0.941 . S
H162 C176 0.939 . S
H163 C178 0.940 . S
H164 C179 0.940 . S
H165 C181 0.939 . S
H166 C182 0.942 . S
H167 C184 0.940 . S
H168 C185 0.939 . S
H169 C187 0.941 . S
H170 C191 0.939 . S
O171 P160 1.490 . S
H172 C188 0.939 . S
H173 C190 0.940 . S
C174 P160 1.812 . S
C174 C175 1.389 . S
C174 C179 1.391 . S
C175 H161 0.941 . S
C175 C174 1.389 . S
C175 C176 1.397 . S
C176 H162 0.939 . S
C176 C175 1.397 . S
C176 C177 1.378 . S
C177 C176 1.378 . S
C177 C178 1.378 . S
C178 H163 0.940 . S
C178 C177 1.378 . S
C178 C179 1.396 . S
C179 H164 0.940 . S
C179 C174 1.391 . S
C179 C178 1.396 . S
C180 P160 1.803 . S
C180 C181 1.378 . S
C180 C185 1.400 . S
C181 H165 0.939 . S
C181 C180 1.378 . S
C181 C182 1.361 . S
C182 H166 0.942 . S
C182 C181 1.361 . S
C182 C183 1.369 . S
C183 C182 1.369 . S
C183 C184 1.404 . S
C184 H167 0.940 . S
C184 C183 1.404 . S
C184 C185 1.389 . S
C185 H168 0.939 . S
C185 C180 1.400 . S
C185 C184 1.389 . S
C186 P160 1.819 . S
C186 C187 1.391 . S
C186 C191 1.391 . S
C187 H169 0.941 . S
C187 C186 1.391 . S
C187 C188 1.396 . S
C188 H172 0.939 . S
C188 C187 1.396 . S
C188 C189 1.397 . S
C189 C188 1.397 . S
C189 C190 1.385 . S
C190 H173 0.940 . S
C190 C189 1.385 . S
C190 C191 1.388 . S
C191 H170 0.939 . S
C191 C186 1.391 . S
C191 C190 1.388 . S
P192 O203 1.490 . S
P192 C206 1.812 . S
P192 C212 1.803 . S
P192 C218 1.819 . S
H193 C207 0.941 . S
H194 C208 0.939 . S
H195 C210 0.940 . S
H196 C211 0.940 . S
H197 C213 0.939 . S
H198 C214 0.942 . S
H199 C216 0.940 . S
H200 C217 0.939 . S
H201 C219 0.941 . S
H202 C223 0.939 . S
O203 P192 1.490 . S
H204 C220 0.939 . S
H205 C222 0.940 . S
C206 P192 1.812 . S
C206 C207 1.389 . S
C206 C211 1.391 . S
C207 H193 0.941 . S
C207 C206 1.389 . S
C207 C208 1.397 . S
C208 H194 0.939 . S
C208 C207 1.397 . S
C208 C209 1.378 . S
C209 C208 1.378 . S
C209 C210 1.378 . S
C210 H195 0.940 . S
C210 C209 1.378 . S
C210 C211 1.396 . S
C211 H196 0.940 . S
C211 C206 1.391 . S
C211 C210 1.396 . S
C212 P192 1.803 . S
C212 C213 1.378 . S
C212 C217 1.400 . S
C213 H197 0.939 . S
C213 C212 1.378 . S
C213 C214 1.361 . S
C214 H198 0.942 . S
C214 C213 1.361 . S
C214 C215 1.369 . S
C215 C214 1.369 . S
C215 C216 1.404 . S
C216 H199 0.940 . S
C216 C215 1.404 . S
C216 C217 1.389 . S
C217 H200 0.939 . S
C217 C212 1.400 . S
C217 C216 1.389 . S
C218 P192 1.819 . S
C218 C219 1.391 . S
C218 C223 1.391 . S
C219 H201 0.941 . S
C219 C218 1.391 . S
C219 C220 1.396 . S
C220 H204 0.939 . S
C220 C219 1.396 . S
C220 C221 1.397 . S
C221 C220 1.397 . S
C221 C222 1.385 . S
C222 H205 0.940 . S
C222 C221 1.385 . S
C222 C223 1.388 . S
C223 H202 0.939 . S
C223 C218 1.391 . S
C223 C222 1.388 . S
P224 O235 1.490 . S
P224 C238 1.812 . S
P224 C244 1.803 . S
P224 C250 1.819 . S
H225 C239 0.941 . S
H226 C240 0.939 . S
H227 C242 0.940 . S
H228 C243 0.940 . S
H229 C245 0.939 . S
H230 C246 0.942 . S
H231 C248 0.940 . S
H232 C249 0.939 . S
H233 C251 0.941 . S
H234 C255 0.939 . S
O235 P224 1.490 . S
H236 C252 0.939 . S
H237 C254 0.940 . S
C238 P224 1.812 . S
C238 C239 1.389 . S
C238 C243 1.391 . S
C239 H225 0.941 . S
C239 C238 1.389 . S
C239 C240 1.397 . S
C240 H226 0.939 . S
C240 C239 1.397 . S
C240 C241 1.378 . S
C241 C240 1.378 . S
C241 C242 1.378 . S
C242 H227 0.940 . S
C242 C241 1.378 . S
C242 C243 1.396 . S
C243 H228 0.940 . S
C243 C238 1.391 . S
C243 C242 1.396 . S
C244 P224 1.803 . S
C244 C245 1.378 . S
C244 C249 1.400 . S
C245 H229 0.939 . S
C245 C244 1.378 . S
C245 C246 1.361 . S
C246 H230 0.942 . S
C246 C245 1.361 . S
C246 C247 1.369 . S
C247 C246 1.369 . S
C247 C248 1.404 . S
C248 H231 0.940 . S
C248 C247 1.404 . S
C248 C249 1.389 . S
C249 H232 0.939 . S
C249 C244 1.400 . S
C249 C248 1.389 . S
C250 P224 1.819 . S
C250 C251 1.391 . S
C250 C255 1.391 . S
C251 H233 0.941 . S
C251 C250 1.391 . S
C251 C252 1.396 . S
C252 H236 0.939 . S
C252 C251 1.396 . S
C252 C253 1.397 . S
C253 C252 1.397 . S
C253 C254 1.385 . S
C254 H237 0.940 . S
C254 C253 1.385 . S
C254 C255 1.388 . S
C255 H234 0.939 . S
C255 C250 1.391 . S
C255 C254 1.388 . S
Pr256 C258 2.880 . S
Pr256 O276 2.562 . S
Pr256 O277 2.490 . S
Pr256 O278 2.695 1_665 S
Pr256 O279 2.512 1_665 S
Pr256 O281 2.437 1_655 S
Pr256 O284 2.436 . S
Pr256 O286 2.438 1_565 S
Pr257 C267 2.880 . S
Pr257 O278 2.436 . S
Pr257 O280 2.438 1_545 S
Pr257 O282 2.562 . S
Pr257 O283 2.490 . S
Pr257 O284 2.695 1_445 S
Pr257 O285 2.512 1_545 S
Pr257 O287 2.437 1_455 S
C258 Pr256 2.880 . S
C258 C259 1.491 . S
C258 O276 1.254 . S
C258 O277 1.225 . S
C259 C258 1.491 . S
C259 C260 1.392 . S
C259 C264 1.356 . S
C260 C259 1.392 . S
C260 C261 1.368 . S
C260 H288 0.929 . S
C261 C260 1.368 . S
C261 C262 1.386 . S
C261 H289 0.929 . S
C262 C261 1.386 . S
C262 C263 1.373 . S
C263 C262 1.373 . S
C263 C264 1.409 . S
C263 H290 0.931 . S
C264 C259 1.356 . S
C264 C263 1.409 . S
C264 H291 0.930 . S
C265 O278 1.270 . S
C265 O279 1.248 . S
C266 O280 1.267 . S
C266 O281 1.278 . S
C267 Pr257 2.880 . S
C267 C268 1.491 . S
C267 O282 1.254 . S
C267 O283 1.225 . S
C268 C267 1.491 . S
C268 C269 1.392 . S
C268 C273 1.356 . S
C269 C268 1.392 . S
C269 C270 1.368 . S
C269 H292 0.929 . S
C270 C269 1.368 . S
C270 C271 1.386 . S
C270 H293 0.929 . S
C271 C270 1.386 . S
C271 C272 1.373 . S
C272 C271 1.373 . S
C272 C273 1.409 . S
C272 H294 0.931 . S
C273 C268 1.356 . S
C273 C272 1.409 . S
C273 H295 0.930 . S
C274 O284 1.270 . S
C274 O285 1.248 1_655 S
C275 O286 1.267 . S
C275 O287 1.278 . S
O276 Pr256 2.562 . S
O276 C258 1.254 . S
O277 Pr256 2.490 . S
O277 C258 1.225 . S
O278 Pr256 2.695 1_445 S
O278 Pr257 2.436 . S
O278 C265 1.270 . S
O279 Pr256 2.512 1_445 S
O279 C265 1.248 . S
O280 Pr257 2.438 1_565 S
O280 C266 1.267 . S
O281 Pr256 2.437 1_455 S
O281 C266 1.278 . S
O282 Pr257 2.562 . S
O282 C267 1.254 . S
O283 Pr257 2.490 . S
O283 C267 1.225 . S
O284 Pr256 2.436 . S
O284 Pr257 2.695 1_665 S
O284 C274 1.270 . S
O285 Pr257 2.512 1_565 S
O285 C274 1.248 1_455 S
O286 Pr256 2.438 1_545 S
O286 C275 1.267 . S
O287 Pr257 2.437 1_655 S
O287 C275 1.278 . S
H288 C260 0.929 . S
H289 C261 0.929 . S
H290 C263 0.931 . S
H291 C264 0.930 . S
H292 C269 0.929 . S
H293 C270 0.929 . S
H294 C272 0.931 . S
H295 C273 0.930 . S
Pr296 C298 2.880 . S
Pr296 O316 2.562 . S
Pr296 O317 2.490 . S
Pr296 O318 2.695 1_554 S
Pr296 O319 2.512 1_554 S
Pr296 O321 2.437 . S
Pr296 O324 2.436 1_545 S
Pr296 O326 2.438 1_544 S
Pr297 C307 2.880 1_554 S
Pr297 O318 2.436 1_564 S
Pr297 O320 2.438 1_565 S
Pr297 O322 2.562 1_554 S
Pr297 O323 2.490 1_554 S
Pr297 O324 2.695 . S
Pr297 O325 2.512 . S
Pr297 O327 2.437 1_554 S
C298 Pr296 2.880 . S
C298 C299 1.491 . S
C298 O316 1.254 . S
C298 O317 1.225 . S
C299 C298 1.491 . S
C299 C300 1.392 . S
C299 C304 1.356 . S
C300 C299 1.392 . S
C300 C301 1.368 . S
C300 H328 0.929 . S
C301 C300 1.368 . S
C301 C302 1.386 . S
C301 H329 0.929 . S
C302 C301 1.386 . S
C302 C303 1.373 . S
C303 C302 1.373 . S
C303 C304 1.409 . S
C303 H330 0.931 . S
C304 C299 1.356 . S
C304 C303 1.409 . S
C304 H331 0.930 . S
C305 O318 1.270 . S
C305 O319 1.248 . S
C306 O320 1.267 . S
C306 O321 1.278 . S
C307 Pr297 2.880 1_556 S
C307 C308 1.491 . S
C307 O322 1.254 . S
C307 O323 1.225 . S
C308 C307 1.491 . S
C308 C309 1.392 . S
C308 C313 1.356 . S
C309 C308 1.392 . S
C309 C310 1.368 . S
C309 H332 0.929 . S
C310 C309 1.368 . S
C310 C311 1.386 . S
C310 H333 0.929 . S
C311 C310 1.386 . S
C311 C312 1.373 . S
C312 C311 1.373 . S
C312 C313 1.409 . S
C312 H334 0.931 . S
C313 C308 1.356 . S
C313 C312 1.409 . S
C313 H335 0.930 . S
C314 O324 1.270 . S
C314 O325 1.248 . S
C315 O326 1.267 . S
C315 O327 1.278 . S
O316 Pr296 2.562 . S
O316 C298 1.254 . S
O317 Pr296 2.490 . S
O317 C298 1.225 . S
O318 Pr296 2.695 1_556 S
O318 Pr297 2.436 1_546 S
O318 C305 1.270 . S
O319 Pr296 2.512 1_556 S
O319 C305 1.248 . S
O320 Pr297 2.438 1_545 S
O320 C306 1.267 . S
O321 Pr296 2.437 . S
O321 C306 1.278 . S
O322 Pr297 2.562 1_556 S
O322 C307 1.254 . S
O323 Pr297 2.490 1_556 S
O323 C307 1.225 . S
O324 Pr296 2.436 1_565 S
O324 Pr297 2.695 . S
O324 C314 1.270 . S
O325 Pr297 2.512 . S
O325 C314 1.248 . S
O326 Pr296 2.438 1_566 S
O326 C315 1.267 . S
O327 Pr297 2.437 1_556 S
O327 C315 1.278 . S
H328 C300 0.929 . S
H329 C301 0.929 . S
H330 C303 0.931 . S
H331 C304 0.930 . S
H332 C309 0.929 . S
H333 C310 0.929 . S
H334 C312 0.931 . S
H335 C313 0.930 . S
Pr336 C338 2.880 . S
Pr336 O356 2.562 . S
Pr336 O357 2.490 . S
Pr336 O358 2.695 . S
Pr336 O359 2.512 . S
Pr336 O361 2.437 . S
Pr336 O364 2.436 . S
Pr336 O366 2.438 . S
Pr337 C347 2.880 . S
Pr337 O358 2.436 . S
Pr337 O360 2.438 . S
Pr337 O362 2.562 . S
Pr337 O363 2.490 . S
Pr337 O364 2.695 . S
Pr337 O365 2.512 . S
Pr337 O367 2.437 . S
C338 Pr336 2.880 . S
C338 C339 1.491 . S
C338 O356 1.254 . S
C338 O357 1.225 . S
C339 C338 1.491 . S
C339 C340 1.392 . S
C339 C344 1.356 . S
C340 C339 1.392 . S
C340 C341 1.368 . S
C340 H368 0.929 . S
C341 C340 1.368 . S
C341 C342 1.386 . S
C341 H369 0.929 . S
C342 C341 1.386 . S
C342 C343 1.373 . S
C343 C342 1.373 . S
C343 C344 1.409 . S
C343 H370 0.931 . S
C344 C339 1.356 . S
C344 C343 1.409 . S
C344 H371 0.930 . S
C345 O358 1.270 . S
C345 O359 1.248 . S
C346 O360 1.267 . S
C346 O361 1.278 . S
C347 Pr337 2.880 . S
C347 C348 1.491 . S
C347 O362 1.254 . S
C347 O363 1.225 . S
C348 C347 1.491 . S
C348 C349 1.392 . S
C348 C353 1.356 . S
C349 C348 1.392 . S
C349 C350 1.368 . S
C349 H372 0.929 . S
C350 C349 1.368 . S
C350 C351 1.386 . S
C350 H373 0.929 . S
C351 C350 1.386 . S
C351 C352 1.373 . S
C352 C351 1.373 . S
C352 C353 1.409 . S
C352 H374 0.931 . S
C353 C348 1.356 . S
C353 C352 1.409 . S
C353 H375 0.930 . S
C354 O364 1.270 . S
C354 O365 1.248 . S
C355 O366 1.267 . S
C355 O367 1.278 . S
O356 Pr336 2.562 . S
O356 C338 1.254 . S
O357 Pr336 2.490 . S
O357 C338 1.225 . S
O358 Pr336 2.695 . S
O358 Pr337 2.436 . S
O358 C345 1.270 . S
O359 Pr336 2.512 . S
O359 C345 1.248 . S
O360 Pr337 2.438 . S
O360 C346 1.267 . S
O361 Pr336 2.437 . S
O361 C346 1.278 . S
O362 Pr337 2.562 . S
O362 C347 1.254 . S
O363 Pr337 2.490 . S
O363 C347 1.225 . S
O364 Pr336 2.436 . S
O364 Pr337 2.695 . S
O364 C354 1.270 . S
O365 Pr337 2.512 . S
O365 C354 1.248 . S
O366 Pr336 2.438 . S
O366 C355 1.267 . S
O367 Pr337 2.437 . S
O367 C355 1.278 . S
H368 C340 0.929 . S
H369 C341 0.929 . S
H370 C343 0.931 . S
H371 C344 0.930 . S
H372 C349 0.929 . S
H373 C350 0.929 . S
H374 C352 0.931 . S
H375 C353 0.930 . S
Pr376 C378 2.880 . S
Pr376 O396 2.562 . S
Pr376 O397 2.490 . S
Pr376 O398 2.695 1_656 S
Pr376 O399 2.512 1_656 S
Pr376 O401 2.437 1_556 S
Pr376 O404 2.436 . S
Pr376 O406 2.438 1_655 S
Pr377 C387 2.880 . S
Pr377 O398 2.436 . S
Pr377 O400 2.438 1_455 S
Pr377 O402 2.562 . S
Pr377 O403 2.490 . S
Pr377 O404 2.695 1_454 S
Pr377 O405 2.512 1_454 S
Pr377 O407 2.437 1_554 S
C378 Pr376 2.880 . S
C378 C379 1.491 . S
C378 O396 1.254 . S
C378 O397 1.225 . S
C379 C378 1.491 . S
C379 C380 1.392 . S
C379 C384 1.356 . S
C380 C379 1.392 . S
C380 C381 1.368 . S
C380 H408 0.929 . S
C381 C380 1.368 . S
C381 C382 1.386 . S
C381 H409 0.929 . S
C382 C381 1.386 . S
C382 C383 1.373 . S
C383 C382 1.373 . S
C383 C384 1.409 . S
C383 H410 0.931 . S
C384 C379 1.356 . S
C384 C383 1.409 . S
C384 H411 0.930 . S
C385 O398 1.270 . S
C385 O399 1.248 . S
C386 O400 1.267 . S
C386 O401 1.278 . S
C387 Pr377 2.880 . S
C387 C388 1.491 . S
C387 O402 1.254 . S
C387 O403 1.225 . S
C388 C387 1.491 . S
C388 C389 1.392 . S
C388 C393 1.356 . S
C389 C388 1.392 . S
C389 C390 1.368 . S
C389 H412 0.929 . S
C390 C389 1.368 . S
C390 C391 1.386 . S
C390 H413 0.929 . S
C391 C390 1.386 . S
C391 C392 1.373 . S
C392 C391 1.373 . S
C392 C393 1.409 . S
C392 H414 0.931 . S
C393 C388 1.356 . S
C393 C392 1.409 . S
C393 H415 0.930 . S
C394 O404 1.270 . S
C394 O405 1.248 . S
C395 O406 1.267 . S
C395 O407 1.278 . S
O396 Pr376 2.562 . S
O396 C378 1.254 . S
O397 Pr376 2.490 . S
O397 C378 1.225 . S
O398 Pr376 2.695 1_454 S
O398 Pr377 2.436 . S
O398 C385 1.270 . S
O399 Pr376 2.512 1_454 S
O399 C385 1.248 . S
O400 Pr377 2.438 1_655 S
O400 C386 1.267 . S
O401 Pr376 2.437 1_554 S
O401 C386 1.278 . S
O402 Pr377 2.562 . S
O402 C387 1.254 . S
O403 Pr377 2.490 . S
O403 C387 1.225 . S
O404 Pr376 2.436 . S
O404 Pr377 2.695 1_656 S
O404 C394 1.270 . S
O405 Pr377 2.512 1_656 S
O405 C394 1.248 . S
O406 Pr376 2.438 1_455 S
O406 C395 1.267 . S
O407 Pr377 2.437 1_556 S
O407 C395 1.278 . S
H408 C380 0.929 . S
H409 C381 0.929 . S
H410 C383 0.931 . S
H411 C384 0.930 . S
H412 C389 0.929 . S
H413 C390 0.929 . S
H414 C392 0.931 . S
H415 C393 0.930 . S
C416 C417 1.363 . S
C416 C422 1.379 . S
C416 N424 1.356 . S
C417 C416 1.363 . S
C417 C423 1.363 . S
C418 C419 1.363 . S
C418 C423 1.379 . S
C418 N425 1.356 . S
C419 C418 1.363 . S
C419 C422 1.363 . S
N420 C422 1.356 . S
N420 H432 0.984 . S
N420 H433 0.985 . S
N421 C423 1.356 . S
N421 H426 0.984 . S
N421 H427 0.985 . S
C422 C416 1.379 . S
C422 C419 1.363 . S
C422 N420 1.356 . S
C423 C417 1.363 . S
C423 C418 1.379 . S
C423 N421 1.356 . S
N424 C416 1.356 . S
N424 H430 0.984 . S
N424 H431 0.984 . S
N425 C418 1.356 . S
N425 H428 0.984 . S
N425 H429 0.985 . S
H426 N421 0.984 . S
H427 N421 0.985 . S
H428 N425 0.984 . S
H429 N425 0.985 . S
H430 N424 0.984 . S
H431 N424 0.984 . S
H432 N420 0.984 . S
H433 N420 0.985 . S
C434 C435 1.363 . S
C434 C440 1.379 . S
C434 N442 1.356 . S
C435 C434 1.363 . S
C435 C441 1.363 . S
C436 C437 1.363 . S
C436 C441 1.379 . S
C436 N443 1.356 . S
C437 C436 1.363 . S
C437 C440 1.363 . S
N438 C440 1.356 . S
N438 H450 0.984 . S
N438 H451 0.985 . S
N439 C441 1.356 . S
N439 H444 0.984 . S
N439 H445 0.985 . S
C440 C434 1.379 . S
C440 C437 1.363 . S
C440 N438 1.356 . S
C441 C435 1.363 . S
C441 C436 1.379 . S
C441 N439 1.356 . S
N442 C434 1.356 . S
N442 H448 0.984 . S
N442 H449 0.984 . S
N443 C436 1.356 . S
N443 H446 0.984 . S
N443 H447 0.985 . S
H444 N439 0.984 . S
H445 N439 0.985 . S
H446 N443 0.984 . S
H447 N443 0.985 . S
H448 N442 0.984 . S
H449 N442 0.984 . S
H450 N438 0.984 . S
H451 N438 0.985 . S
C452 C453 1.363 . S
C452 C458 1.379 . S
C452 N460 1.356 . S
C453 C452 1.363 . S
C453 C459 1.363 . S
C454 C455 1.363 . S
C454 C459 1.379 . S
C454 N461 1.356 . S
C455 C454 1.363 . S
C455 C458 1.363 . S
N456 C458 1.356 . S
N456 H468 0.984 . S
N456 H469 0.985 . S
N457 C459 1.356 . S
N457 H462 0.984 . S
N457 H463 0.985 . S
C458 C452 1.379 . S
C458 C455 1.363 . S
C458 N456 1.356 . S
C459 C453 1.363 . S
C459 C454 1.379 . S
C459 N457 1.356 . S
N460 C452 1.356 . S
N460 H466 0.984 . S
N460 H467 0.984 . S
N461 C454 1.356 . S
N461 H464 0.984 . S
N461 H465 0.985 . S
H462 N457 0.984 . S
H463 N457 0.985 . S
H464 N461 0.984 . S
H465 N461 0.985 . S
H466 N460 0.984 . S
H467 N460 0.984 . S
H468 N456 0.984 . S
H469 N456 0.985 . S
C470 C471 1.363 . S
C470 C476 1.379 . S
C470 N478 1.356 . S
C471 C470 1.363 . S
C471 C477 1.363 . S
C472 C473 1.363 . S
C472 C477 1.379 . S
C472 N479 1.356 . S
C473 C472 1.363 . S
C473 C476 1.363 . S
N474 C476 1.356 . S
N474 H486 0.984 . S
N474 H487 0.985 . S
N475 C477 1.356 . S
N475 H480 0.984 . S
N475 H481 0.985 . S
C476 C470 1.379 . S
C476 C473 1.363 . S
C476 N474 1.356 . S
C477 C471 1.363 . S
C477 C472 1.379 . S
C477 N475 1.356 . S
N478 C470 1.356 . S
N478 H484 0.984 . S
N478 H485 0.984 . S
N479 C472 1.356 . S
N479 H482 0.984 . S
N479 H483 0.985 . S
H480 N475 0.984 . S
H481 N475 0.985 . S
H482 N479 0.984 . S
H483 N479 0.985 . S
H484 N478 0.984 . S
H485 N478 0.984 . S
H486 N474 0.984 . S
H487 N474 0.985 . S
C488 C489 1.363 . S
C488 C494 1.379 . S
C488 N496 1.356 . S
C489 C488 1.363 . S
C489 C495 1.363 . S
C490 C491 1.363 . S
C490 C495 1.379 . S
C490 N497 1.356 . S
C491 C490 1.363 . S
C491 C494 1.363 . S
N492 C494 1.356 . S
N492 H504 0.984 . S
N492 H505 0.985 . S
N493 C495 1.356 . S
N493 H498 0.984 . S
N493 H499 0.985 . S
C494 C488 1.379 . S
C494 C491 1.363 . S
C494 N492 1.356 . S
C495 C489 1.363 . S
C495 C490 1.379 . S
C495 N493 1.356 . S
N496 C488 1.356 . S
N496 H502 0.984 . S
N496 H503 0.984 . S
N497 C490 1.356 . S
N497 H500 0.984 . S
N497 H501 0.985 . S
H498 N493 0.984 . S
H499 N493 0.985 . S
H500 N497 0.984 . S
H501 N497 0.985 . S
H502 N496 0.984 . S
H503 N496 0.984 . S
H504 N492 0.984 . S
H505 N492 0.985 . S
C506 C507 1.363 . S
C506 C512 1.379 . S
C506 N514 1.356 . S
C507 C506 1.363 . S
C507 C513 1.363 . S
C508 C509 1.363 . S
C508 C513 1.379 . S
C508 N515 1.356 . S
C509 C508 1.363 . S
C509 C512 1.363 . S
N510 C512 1.356 . S
N510 H522 0.984 . S
N510 H523 0.985 . S
N511 C513 1.356 . S
N511 H516 0.984 . S
N511 H517 0.985 . S
C512 C506 1.379 . S
C512 C509 1.363 . S
C512 N510 1.356 . S
C513 C507 1.363 . S
C513 C508 1.379 . S
C513 N511 1.356 . S
N514 C506 1.356 . S
N514 H520 0.984 . S
N514 H521 0.984 . S
N515 C508 1.356 . S
N515 H518 0.984 . S
N515 H519 0.985 . S
H516 N511 0.984 . S
H517 N511 0.985 . S
H518 N515 0.984 . S
H519 N515 0.985 . S
H520 N514 0.984 . S
H521 N514 0.984 . S
H522 N510 0.984 . S
H523 N510 0.985 . S
C524 C525 1.363 . S
C524 C530 1.379 . S
C524 N532 1.356 . S
C525 C524 1.363 . S
C525 C531 1.363 . S
C526 C527 1.363 . S
C526 C531 1.379 . S
C526 N533 1.356 . S
C527 C526 1.363 . S
C527 C530 1.363 . S
N528 C530 1.356 . S
N528 H540 0.984 . S
N528 H541 0.985 . S
N529 C531 1.356 . S
N529 H534 0.984 . S
N529 H535 0.985 . S
C530 C524 1.379 . S
C530 C527 1.363 . S
C530 N528 1.356 . S
C531 C525 1.363 . S
C531 C526 1.379 . S
C531 N529 1.356 . S
N532 C524 1.356 . S
N532 H538 0.984 . S
N532 H539 0.984 . S
N533 C526 1.356 . S
N533 H536 0.984 . S
N533 H537 0.985 . S
H534 N529 0.984 . S
H535 N529 0.985 . S
H536 N533 0.984 . S
H537 N533 0.985 . S
H538 N532 0.984 . S
H539 N532 0.984 . S
H540 N528 0.984 . S
H541 N528 0.985 . S
C542 C543 1.363 . S
C542 C548 1.379 . S
C542 N550 1.356 . S
C543 C542 1.363 . S
C543 C549 1.363 . S
C544 C545 1.363 . S
C544 C549 1.379 . S
C544 N551 1.356 . S
C545 C544 1.363 . S
C545 C548 1.363 . S
N546 C548 1.356 . S
N546 H558 0.984 . S
N546 H559 0.985 . S
N547 C549 1.356 . S
N547 H552 0.984 . S
N547 H553 0.985 . S
C548 C542 1.379 . S
C548 C545 1.363 . S
C548 N546 1.356 . S
C549 C543 1.363 . S
C549 C544 1.379 . S
C549 N547 1.356 . S
N550 C542 1.356 . S
N550 H556 0.984 . S
N550 H557 0.984 . S
N551 C544 1.356 . S
N551 H554 0.984 . S
N551 H555 0.985 . S
H552 N547 0.984 . S
H553 N547 0.985 . S
H554 N551 0.984 . S
H555 N551 0.985 . S
H556 N550 0.984 . S
H557 N550 0.984 . S
H558 N546 0.984 . S
H559 N546 0.985 . S
C560 C561 1.363 . S
C560 C566 1.379 . S
C560 N568 1.356 . S
C561 C560 1.363 . S
C561 C567 1.363 . S
C562 C563 1.363 . S
C562 C567 1.379 . S
C562 N569 1.356 . S
C563 C562 1.363 . S
C563 C566 1.363 . S
N564 C566 1.356 . S
N564 H576 0.984 . S
N564 H577 0.985 . S
N565 C567 1.356 . S
N565 H570 0.984 . S
N565 H571 0.985 . S
C566 C560 1.379 . S
C566 C563 1.363 . S
C566 N564 1.356 . S
C567 C561 1.363 . S
C567 C562 1.379 . S
C567 N565 1.356 . S
N568 C560 1.356 . S
N568 H574 0.984 . S
N568 H575 0.984 . S
N569 C562 1.356 . S
N569 H572 0.984 . S
N569 H573 0.985 . S
H570 N565 0.984 . S
H571 N565 0.985 . S
H572 N569 0.984 . S
H573 N569 0.985 . S
H574 N568 0.984 . S
H575 N568 0.984 . S
H576 N564 0.984 . S
H577 N564 0.985 . S
C578 C579 1.363 . S
C578 C584 1.379 . S
C578 N586 1.356 . S
C579 C578 1.363 . S
C579 C585 1.363 . S
C580 C581 1.363 . S
C580 C585 1.379 . S
C580 N587 1.356 . S
C581 C580 1.363 . S
C581 C584 1.363 . S
N582 C584 1.356 . S
N582 H594 0.984 . S
N582 H595 0.985 . S
N583 C585 1.356 . S
N583 H588 0.984 . S
N583 H589 0.985 . S
C584 C578 1.379 . S
C584 C581 1.363 . S
C584 N582 1.356 . S
C585 C579 1.363 . S
C585 C580 1.379 . S
C585 N583 1.356 . S
N586 C578 1.356 . S
N586 H592 0.984 . S
N586 H593 0.984 . S
N587 C580 1.356 . S
N587 H590 0.984 . S
N587 H591 0.985 . S
H588 N583 0.984 . S
H589 N583 0.985 . S
H590 N587 0.984 . S
H591 N587 0.985 . S
H592 N586 0.984 . S
H593 N586 0.984 . S
H594 N582 0.984 . S
H595 N582 0.985 . S
C596 C597 1.363 . S
C596 C602 1.379 . S
C596 N604 1.356 . S
C597 C596 1.363 . S
C597 C603 1.363 . S
C598 C599 1.363 . S
C598 C603 1.379 . S
C598 N605 1.356 1_655 S
C599 C598 1.363 . S
C599 C602 1.363 . S
N600 C602 1.356 . S
N600 H612 0.984 . S
N600 H613 0.985 . S
N601 C603 1.356 . S
N601 H606 0.984 . S
N601 H607 0.985 . S
C602 C596 1.379 . S
C602 C599 1.363 . S
C602 N600 1.356 . S
C603 C597 1.363 . S
C603 C598 1.379 . S
C603 N601 1.356 . S
N604 C596 1.356 . S
N604 H610 0.984 . S
N604 H611 0.984 . S
N605 C598 1.356 1_455 S
N605 H608 0.984 . S
N605 H609 0.985 . S
H606 N601 0.984 . S
H607 N601 0.985 . S
H608 N605 0.984 . S
H609 N605 0.985 . S
H610 N604 0.984 . S
H611 N604 0.984 . S
H612 N600 0.984 . S
H613 N600 0.985 . S
C614 C615 1.363 . S
C614 C620 1.379 . S
C614 N622 1.356 . S
C615 C614 1.363 . S
C615 C621 1.363 . S
C616 C617 1.363 . S
C616 C621 1.379 . S
C616 N623 1.356 . S
C617 C616 1.363 . S
C617 C620 1.363 . S
N618 C620 1.356 . S
N618 H630 0.984 . S
N618 H631 0.985 . S
N619 C621 1.356 . S
N619 H624 0.984 . S
N619 H625 0.985 . S
C620 C614 1.379 . S
C620 C617 1.363 . S
C620 N618 1.356 . S
C621 C615 1.363 . S
C621 C616 1.379 . S
C621 N619 1.356 . S
N622 C614 1.356 . S
N622 H628 0.984 . S
N622 H629 0.984 . S
N623 C616 1.356 . S
N623 H626 0.984 . S
N623 H627 0.985 . S
H624 N619 0.984 . S
H625 N619 0.985 . S
H626 N623 0.984 . S
H627 N623 0.985 . S
H628 N622 0.984 . S
H629 N622 0.984 . S
H630 N618 0.984 . S
H631 N618 0.985 . S
C632 C633 1.363 . S
C632 C638 1.379 . S
C632 N640 1.356 . S
C633 C632 1.363 . S
C633 C639 1.363 . S
C634 C635 1.363 . S
C634 C639 1.379 . S
C634 N641 1.356 . S
C635 C634 1.363 . S
C635 C638 1.363 . S
N636 C638 1.356 . S
N636 H648 0.984 . S
N636 H649 0.985 . S
N637 C639 1.356 . S
N637 H642 0.984 . S
N637 H643 0.985 . S
C638 C632 1.379 . S
C638 C635 1.363 . S
C638 N636 1.356 . S
C639 C633 1.363 . S
C639 C634 1.379 . S
C639 N637 1.356 . S
N640 C632 1.356 . S
N640 H646 0.984 . S
N640 H647 0.984 . S
N641 C634 1.356 . S
N641 H644 0.984 . S
N641 H645 0.985 . S
H642 N637 0.984 . S
H643 N637 0.985 . S
H644 N641 0.984 . S
H645 N641 0.985 . S
H646 N640 0.984 . S
H647 N640 0.984 . S
H648 N636 0.984 . S
H649 N636 0.985 . S
C650 C651 1.363 . S
C650 C656 1.379 . S
C650 N658 1.356 . S
C651 C650 1.363 . S
C651 C657 1.363 . S
C652 C653 1.363 . S
C652 C657 1.379 . S
C652 N659 1.356 . S
C653 C652 1.363 . S
C653 C656 1.363 . S
N654 C656 1.356 . S
N654 H666 0.984 . S
N654 H667 0.985 . S
N655 C657 1.356 . S
N655 H660 0.984 . S
N655 H661 0.985 . S
C656 C650 1.379 . S
C656 C653 1.363 . S
C656 N654 1.356 . S
C657 C651 1.363 . S
C657 C652 1.379 . S
C657 N655 1.356 . S
N658 C650 1.356 . S
N658 H664 0.984 . S
N658 H665 0.984 . S
N659 C652 1.356 . S
N659 H662 0.984 . S
N659 H663 0.985 . S
H660 N655 0.984 . S
H661 N655 0.985 . S
H662 N659 0.984 . S
H663 N659 0.985 . S
H664 N658 0.984 . S
H665 N658 0.984 . S
H666 N654 0.984 . S
H667 N654 0.985 . S
C668 C669 1.363 . S
C668 C674 1.379 . S
C668 N676 1.356 . S
C669 C668 1.363 . S
C669 C675 1.363 . S
C670 C671 1.363 . S
C670 C675 1.379 . S
C670 N677 1.356 . S
C671 C670 1.363 . S
C671 C674 1.363 . S
N672 C674 1.356 . S
N672 H684 0.984 . S
N672 H685 0.985 . S
N673 C675 1.356 . S
N673 H678 0.984 . S
N673 H679 0.985 . S
C674 C668 1.379 . S
C674 C671 1.363 . S
C674 N672 1.356 . S
C675 C669 1.363 . S
C675 C670 1.379 . S
C675 N673 1.356 . S
N676 C668 1.356 . S
N676 H682 0.984 . S
N676 H683 0.984 . S
N677 C670 1.356 . S
N677 H680 0.984 . S
N677 H681 0.985 . S
H678 N673 0.984 . S
H679 N673 0.985 . S
H680 N677 0.984 . S
H681 N677 0.985 . S
H682 N676 0.984 . S
H683 N676 0.984 . S
H684 N672 0.984 . S
H685 N672 0.985 . S
C686 C687 1.363 . S
C686 C692 1.379 . S
C686 N694 1.356 . S
C687 C686 1.363 . S
C687 C693 1.363 . S
C688 C689 1.363 . S
C688 C693 1.379 . S
C688 N695 1.356 . S
C689 C688 1.363 . S
C689 C692 1.363 . S
N690 C692 1.356 . S
N690 H702 0.984 . S
N690 H703 0.985 . S
N691 C693 1.356 . S
N691 H696 0.984 . S
N691 H697 0.985 . S
C692 C686 1.379 . S
C692 C689 1.363 . S
C692 N690 1.356 . S
C693 C687 1.363 . S
C693 C688 1.379 . S
C693 N691 1.356 . S
N694 C686 1.356 . S
N694 H700 0.984 . S
N694 H701 0.984 . S
N695 C688 1.356 . S
N695 H698 0.984 . S
N695 H699 0.985 . S
H696 N691 0.984 . S
H697 N691 0.985 . S
H698 N695 0.984 . S
H699 N695 0.985 . S
H700 N694 0.984 . S
H701 N694 0.984 . S
H702 N690 0.984 . S
H703 N690 0.985 . S
C704 C705 1.363 . S
C704 C710 1.379 . S
C704 N712 1.356 . S
C705 C704 1.363 . S
C705 C711 1.363 . S
C706 C707 1.363 . S
C706 C711 1.379 . S
C706 N713 1.356 . S
C707 C706 1.363 . S
C707 C710 1.363 . S
N708 C710 1.356 . S
N708 H720 0.984 . S
N708 H721 0.985 . S
N709 C711 1.356 . S
N709 H714 0.984 . S
N709 H715 0.985 . S
C710 C704 1.379 . S
C710 C707 1.363 . S
C710 N708 1.356 . S
C711 C705 1.363 . S
C711 C706 1.379 . S
C711 N709 1.356 . S
N712 C704 1.356 . S
N712 H718 0.984 . S
N712 H719 0.984 . S
N713 C706 1.356 . S
N713 H716 0.984 . S
N713 H717 0.985 . S
H714 N709 0.984 . S
H715 N709 0.985 . S
H716 N713 0.984 . S
H717 N713 0.985 . S
H718 N712 0.984 . S
H719 N712 0.984 . S
H720 N708 0.984 . S
H721 N708 0.985 . S
C722 C723 1.363 . S
C722 C728 1.379 . S
C722 N730 1.356 . S
C723 C722 1.363 . S
C723 C729 1.363 . S
C724 C725 1.363 . S
C724 C729 1.379 . S
C724 N731 1.356 1_655 S
C725 C724 1.363 . S
C725 C728 1.363 . S
N726 C728 1.356 . S
N726 H738 0.984 . S
N726 H739 0.985 . S
N727 C729 1.356 . S
N727 H732 0.984 . S
N727 H733 0.985 1_655 S
C728 C722 1.379 . S
C728 C725 1.363 . S
C728 N726 1.356 . S
C729 C723 1.363 . S
C729 C724 1.379 . S
C729 N727 1.356 . S
N730 C722 1.356 . S
N730 H736 0.984 . S
N730 H737 0.984 . S
N731 C724 1.356 1_455 S
N731 H734 0.984 . S
N731 H735 0.985 . S
H732 N727 0.984 . S
H733 N727 0.985 1_455 S
H734 N731 0.984 . S
H735 N731 0.985 . S
H736 N730 0.984 . S
H737 N730 0.984 . S
H738 N726 0.984 . S
H739 N726 0.985 . S
C740 C741 1.363 . S
C740 C746 1.379 . S
C740 N748 1.356 . S
C741 C740 1.363 . S
C741 C747 1.363 . S
C742 C743 1.363 . S
C742 C747 1.379 . S
C742 N749 1.356 . S
C743 C742 1.363 . S
C743 C746 1.363 . S
N744 C746 1.356 . S
N744 H756 0.984 . S
N744 H757 0.985 . S
N745 C747 1.356 . S
N745 H750 0.984 . S
N745 H751 0.985 . S
C746 C740 1.379 . S
C746 C743 1.363 . S
C746 N744 1.356 . S
C747 C741 1.363 . S
C747 C742 1.379 . S
C747 N745 1.356 . S
N748 C740 1.356 . S
N748 H754 0.984 . S
N748 H755 0.984 . S
N749 C742 1.356 . S
N749 H752 0.984 . S
N749 H753 0.985 . S
H750 N745 0.984 . S
H751 N745 0.985 . S
H752 N749 0.984 . S
H753 N749 0.985 . S
H754 N748 0.984 . S
H755 N748 0.984 . S
H756 N744 0.984 . S
H757 N744 0.985 . S
C758 C759 1.363 . S
C758 C764 1.379 . S
C758 N766 1.356 . S
C759 C758 1.363 . S
C759 C765 1.363 . S
C760 C761 1.363 . S
C760 C765 1.379 . S
C760 N767 1.356 . S
C761 C760 1.363 . S
C761 C764 1.363 . S
N762 C764 1.356 . S
N762 H774 0.984 . S
N762 H775 0.985 . S
N763 C765 1.356 . S
N763 H768 0.984 . S
N763 H769 0.985 . S
C764 C758 1.379 . S
C764 C761 1.363 . S
C764 N762 1.356 . S
C765 C759 1.363 . S
C765 C760 1.379 . S
C765 N763 1.356 . S
N766 C758 1.356 . S
N766 H772 0.984 . S
N766 H773 0.984 . S
N767 C760 1.356 . S
N767 H770 0.984 . S
N767 H771 0.985 . S
H768 N763 0.984 . S
H769 N763 0.985 . S
H770 N767 0.984 . S
H771 N767 0.985 . S
H772 N766 0.984 . S
H773 N766 0.984 . S
H774 N762 0.984 . S
H775 N762 0.985 . S
C776 C777 1.363 . S
C776 C782 1.379 . S
C776 N784 1.356 . S
C777 C776 1.363 . S
C777 C783 1.363 . S
C778 C779 1.363 . S
C778 C783 1.379 . S
C778 N785 1.356 . S
C779 C778 1.363 . S
C779 C782 1.363 . S
N780 C782 1.356 . S
N780 H792 0.984 . S
N780 H793 0.985 . S
N781 C783 1.356 . S
N781 H786 0.984 . S
N781 H787 0.985 . S
C782 C776 1.379 . S
C782 C779 1.363 . S
C782 N780 1.356 . S
C783 C777 1.363 . S
C783 C778 1.379 . S
C783 N781 1.356 . S
N784 C776 1.356 . S
N784 H790 0.984 . S
N784 H791 0.984 . S
N785 C778 1.356 . S
N785 H788 0.984 . S
N785 H789 0.985 . S
H786 N781 0.984 . S
H787 N781 0.985 . S
H788 N785 0.984 . S
H789 N785 0.985 . S
H790 N784 0.984 . S
H791 N784 0.984 . S
H792 N780 0.984 . S
H793 N780 0.985 . S
C794 C795 1.363 . S
C794 C800 1.379 . S
C794 N802 1.356 . S
C795 C794 1.363 . S
C795 C801 1.363 . S
C796 C797 1.363 . S
C796 C801 1.379 . S
C796 N803 1.356 . S
C797 C796 1.363 . S
C797 C800 1.363 . S
N798 C800 1.356 . S
N798 H810 0.984 . S
N798 H811 0.985 . S
N799 C801 1.356 . S
N799 H804 0.984 . S
N799 H805 0.985 . S
C800 C794 1.379 . S
C800 C797 1.363 . S
C800 N798 1.356 . S
C801 C795 1.363 . S
C801 C796 1.379 . S
C801 N799 1.356 . S
N802 C794 1.356 . S
N802 H808 0.984 . S
N802 H809 0.984 . S
N803 C796 1.356 . S
N803 H806 0.984 . S
N803 H807 0.985 . S
H804 N799 0.984 . S
H805 N799 0.985 . S
H806 N803 0.984 . S
H807 N803 0.985 . S
H808 N802 0.984 . S
H809 N802 0.984 . S
H810 N798 0.984 . S
H811 N798 0.985 . S
C812 C813 1.363 . S
C812 C818 1.379 . S
C812 N820 1.356 . S
C813 C812 1.363 . S
C813 C819 1.363 . S
C814 C815 1.363 . S
C814 C819 1.379 . S
C814 N821 1.356 . S
C815 C814 1.363 . S
C815 C818 1.363 . S
N816 C818 1.356 . S
N816 H828 0.984 . S
N816 H829 0.985 . S
N817 C819 1.356 . S
N817 H822 0.984 . S
N817 H823 0.985 . S
C818 C812 1.379 . S
C818 C815 1.363 . S
C818 N816 1.356 . S
C819 C813 1.363 . S
C819 C814 1.379 . S
C819 N817 1.356 . S
N820 C812 1.356 . S
N820 H826 0.984 . S
N820 H827 0.984 . S
N821 C814 1.356 . S
N821 H824 0.984 . S
N821 H825 0.985 . S
H822 N817 0.984 . S
H823 N817 0.985 . S
H824 N821 0.984 . S
H825 N821 0.985 . S
H826 N820 0.984 . S
H827 N820 0.984 . S
H828 N816 0.984 . S
H829 N816 0.985 . S
C830 C831 1.363 . S
C830 C836 1.379 . S
C830 N838 1.356 . S
C831 C830 1.363 . S
C831 C837 1.363 . S
C832 C833 1.363 . S
C832 C837 1.379 . S
C832 N839 1.356 . S
C833 C832 1.363 . S
C833 C836 1.363 . S
N834 C836 1.356 . S
N834 H846 0.984 . S
N834 H847 0.985 . S
N835 C837 1.356 . S
N835 H840 0.984 . S
N835 H841 0.985 . S
C836 C830 1.379 . S
C836 C833 1.363 . S
C836 N834 1.356 . S
C837 C831 1.363 . S
C837 C832 1.379 . S
C837 N835 1.356 . S
N838 C830 1.356 . S
N838 H844 0.984 . S
N838 H845 0.984 . S
N839 C832 1.356 . S
N839 H842 0.984 . S
N839 H843 0.985 . S
H840 N835 0.984 . S
H841 N835 0.985 . S
H842 N839 0.984 . S
H843 N839 0.985 . S
H844 N838 0.984 . S
H845 N838 0.984 . S
H846 N834 0.984 . S
H847 N834 0.985 . S
C417 C29 1.430 . S
C419 C271 1.380 . S
C435 C49 1.392 . S
C437 C315 1.550 . S
C455 C345 2.395 . S
C453 C93 2.377 . S
C471 C119 2.713 . S
C473 C386 2.690 . S
C491 C302 0.985 . S
C489 C17 0.982 . S
C509 C266 2.444 . S
C507 C61 2.236 . S
C527 C394 1.244 . S
C525 C81 1.226 . S
C545 C355 2.381 . S
C543 C125 2.510 . S
C561 C23 1.734 . S
C563 C391 1.626 . S
C581 C305 2.125 . S
C579 C87 2.138 . S
C597 C113 2.066 . S
C599 C274 2.002 . S
C615 C55 1.928 . S
C617 C342 2.063 . S
C635 C262 1.381 . S
C633 C157 1.114 . S
C651 C189 1.684 . S
C653 C306 1.604 . S
C669 C221 2.242 . S
C671 C354 2.371 . S
C687 C253 2.768 . S
C689 C395 2.745 . S
C705 C145 0.919 . S
C707 C311 1.034 . S
C725 C275 2.403 . S
C723 C183 2.390 . S
C743 C385 1.270 . S
C741 C209 1.172 . S
C761 C346 2.382 . S
C759 C247 2.466 . S
C777 C151 1.302 . S
C779 C382 1.598 . S
C797 C314 2.103 . S
C795 C215 2.038 . S
C815 C265 2.007 . S
C813 C241 2.036 . S
C831 C177 2.126 . S
C833 C351 2.060 . S
