# Generated by pormake.
# Topology dag, (6,3)-cn, num edge types: 1
# Building blocks:
#     Node 0, Type 0, BuildingBlock: IZENUY_clean_sbu_0, # of connection points: 6
#     Node 1, Type 0, BuildingBlock: IZENUY_clean_sbu_0, # of connection points: 6
#     Node 2, Type 0, BuildingBlock: IZENUY_clean_sbu_0, # of connection points: 6
#     Node 3, Type 0, BuildingBlock: IZENUY_clean_sbu_0, # of connection points: 6
#     Node 4, Type 1, BuildingBlock: BELTOD_clean_linker_0, # of connection points: 3
#     Node 5, Type 1, BuildingBlock: BELTOD_clean_linker_0, # of connection points: 3
#     Node 6, Type 1, BuildingBlock: BELTOD_clean_linker_0, # of connection points: 3
#     Node 7, Type 1, BuildingBlock: BELTOD_clean_linker_0, # of connection points: 3
#     Node 8, Type 1, BuildingBlock: BELTOD_clean_linker_0, # of connection points: 3
#     Node 9, Type 1, BuildingBlock: BELTOD_clean_linker_0, # of connection points: 3
#     Node 10, Type 1, BuildingBlock: BELTOD_clean_linker_0, # of connection points: 3
#     Node 11, Type 1, BuildingBlock: BELTOD_clean_linker_0, # of connection points: 3
#     Edge 12, Type (0, 1), BuildingBlock: EZIPEK_clean_linker_0, # of connection points: 2
#     Edge 13, Type (0, 1), BuildingBlock: EZIPEK_clean_linker_0, # of connection points: 2
#     Edge 14, Type (0, 1), BuildingBlock: EZIPEK_clean_linker_0, # of connection points: 2
#     Edge 15, Type (0, 1), BuildingBlock: EZIPEK_clean_linker_0, # of connection points: 2
#     Edge 16, Type (0, 1), BuildingBlock: EZIPEK_clean_linker_0, # of connection points: 2
#     Edge 17, Type (0, 1), BuildingBlock: EZIPEK_clean_linker_0, # of connection points: 2
#     Edge 18, Type (0, 1), BuildingBlock: EZIPEK_clean_linker_0, # of connection points: 2
#     Edge 19, Type (0, 1), BuildingBlock: EZIPEK_clean_linker_0, # of connection points: 2
#     Edge 20, Type (0, 1), BuildingBlock: EZIPEK_clean_linker_0, # of connection points: 2
#     Edge 21, Type (0, 1), BuildingBlock: EZIPEK_clean_linker_0, # of connection points: 2
#     Edge 22, Type (0, 1), BuildingBlock: EZIPEK_clean_linker_0, # of connection points: 2
#     Edge 23, Type (0, 1), BuildingBlock: EZIPEK_clean_linker_0, # of connection points: 2
#     Edge 24, Type (0, 1), BuildingBlock: EZIPEK_clean_linker_0, # of connection points: 2
#     Edge 25, Type (0, 1), BuildingBlock: EZIPEK_clean_linker_0, # of connection points: 2
#     Edge 26, Type (0, 1), BuildingBlock: EZIPEK_clean_linker_0, # of connection points: 2
#     Edge 27, Type (0, 1), BuildingBlock: EZIPEK_clean_linker_0, # of connection points: 2
#     Edge 28, Type (0, 1), BuildingBlock: EZIPEK_clean_linker_0, # of connection points: 2
#     Edge 29, Type (0, 1), BuildingBlock: EZIPEK_clean_linker_0, # of connection points: 2
#     Edge 30, Type (0, 1), BuildingBlock: EZIPEK_clean_linker_0, # of connection points: 2
#     Edge 31, Type (0, 1), BuildingBlock: EZIPEK_clean_linker_0, # of connection points: 2
#     Edge 32, Type (0, 1), BuildingBlock: EZIPEK_clean_linker_0, # of connection points: 2
#     Edge 33, Type (0, 1), BuildingBlock: EZIPEK_clean_linker_0, # of connection points: 2
#     Edge 34, Type (0, 1), BuildingBlock: EZIPEK_clean_linker_0, # of connection points: 2
#     Edge 35, Type (0, 1), BuildingBlock: EZIPEK_clean_linker_0, # of connection points: 2
# Relax obj value: 0.238
# Max RMSD: 0.188
# Mean RMSD: 0.156
data_MOF--net-dag--node1-IZENUY_clean_sbu_0--node2-BELTOD_clean_linker_0--edge1-EZIPEK_clean_linker_0
_symmetry_space_group_name_H-M    P1
_symmetry_Int_Tables_number       1
_symmetry_cell_setting            triclinic
loop_
_symmetry_equiv_pos_as_xyz
'x, y, z'
_cell_length_a     32.746586
_cell_length_b     34.898347
_cell_length_c     29.244204
_cell_angle_alpha  95.012576
_cell_angle_beta   90.466365
_cell_angle_gamma 90.209436
loop_
_atom_site_label
_atom_site_type_symbol
_atom_site_fract_x
_atom_site_fract_y
_atom_site_fract_z
_atom_type_partial_charge
Fe0 Fe 0.20153 0.85235 0.10103 0.0
Fe1 Fe 0.12438 0.88866 0.06396 0.0
O2 O 0.15541 0.84795 0.06915 0.0
Fe3 Fe 0.1397 0.80224 0.04296 0.0
O4 O 0.16451 0.77411 0.08539 0.0
O5 O 0.18368 0.81779 0.1395 0.0
O6 O 0.18314 0.88991 0.14392 0.0
C7 C 0.14752 0.90091 0.15484 0.0
C8 C 0.22064 0.80001 0.02323 0.0
O9 O 0.11914 0.89776 0.12536 0.0
C10 C 0.11231 0.85371 0.97896 0.0
O11 O 0.22243 0.8877 0.06531 0.0
O12 O 0.1668 0.92277 0.0629 0.0
O13 O 0.18466 0.79882 0.00707 0.0
O14 O 0.2282 0.81537 0.06348 0.0
C15 C 0.06849 0.82964 0.0808 0.0
O16 O 0.12734 0.8826 0.0018 0.0
O17 O 0.1113 0.82149 0.99566 0.0
C18 C 0.20461 0.91815 0.05618 0.0
O19 O 0.0762 0.86164 0.06517 0.0
O20 O 0.09416 0.80275 0.07768 0.0
C21 C 0.1747 0.78341 0.12664 0.0
Fe22 Fe 0.68574 0.64493 0.45465 0.0
Fe23 Fe 0.61949 0.69798 0.50144 0.0
O24 O 0.63633 0.65139 0.47956 0.0
Fe25 Fe 0.60379 0.61104 0.48195 0.0
O26 O 0.64051 0.58681 0.51594 0.0
O27 O 0.69337 0.59594 0.47251 0.0
O28 O 0.71059 0.66335 0.50761 0.0
C29 C 0.70291 0.69514 0.52972 0.0
C30 C 0.64043 0.59791 0.39452 0.0
O31 O 0.67041 0.71352 0.52283 0.0
C32 C 0.54965 0.66559 0.45561 0.0
O33 O 0.68754 0.69231 0.43204 0.0
O34 O 0.62711 0.71732 0.44691 0.0
O35 O 0.62149 0.58625 0.42809 0.0
O36 O 0.66453 0.62618 0.39958 0.0
C37 C 0.58806 0.65451 0.56694 0.0
O38 O 0.56587 0.69075 0.48381 0.0
O39 O 0.56481 0.6325 0.44811 0.0
C40 C 0.65987 0.71629 0.42489 0.0
O41 O 0.60951 0.68296 0.55805 0.0
O42 O 0.58002 0.6279 0.53613 0.0
C43 C 0.67622 0.57825 0.50321 0.0
Fe44 Fe 0.86954 0.23824 0.01728 0.0
Fe45 Fe 0.89177 0.1533 0.02461 0.0
O46 O 0.85647 0.18847 0.00971 0.0
Fe47 Fe 0.80779 0.17375 0.98682 0.0
O48 O 0.81827 0.19501 0.93398 0.0
O49 O 0.84061 0.25071 0.96645 0.0
O50 O 0.91361 0.23181 0.98016 0.0
C51 C 0.94201 0.20831 0.98546 0.0
C52 C 0.79003 0.24025 0.04505 0.0
O53 O 0.93704 0.17976 0.00867 0.0
C54 C 0.81571 0.12626 0.05531 0.0
O55 O 0.90107 0.23453 0.06926 0.0
O56 O 0.8949 0.17383 0.08329 0.0
O57 O 0.78097 0.21677 0.01109 0.0
O58 O 0.82663 0.24853 0.0552 0.0
C59 C 0.8602 0.11533 0.94724 0.0
O60 O 0.85259 0.12069 0.04397 0.0
O61 O 0.79436 0.15145 0.03826 0.0
C62 C 0.90362 0.2082 0.0963 0.0
O63 O 0.89161 0.12994 0.96676 0.0
O64 O 0.82509 0.12754 0.95859 0.0
C65 C 0.82847 0.2296 0.93147 0.0
Fe66 Fe 0.39377 0.35397 0.5549 0.0
Fe67 Fe 0.31034 0.33364 0.59429 0.0
O68 O 0.3582 0.31886 0.5701 0.0
Fe69 Fe 0.3703 0.26897 0.56125 0.0
O70 O 0.41536 0.27457 0.59773 0.0
O71 O 0.4389 0.32687 0.56983 0.0
O72 O 0.39584 0.37693 0.61274 0.0
C73 C 0.36565 0.38963 0.63552 0.0
C74 C 0.40283 0.29965 0.48228 0.0
O75 O 0.3297 0.37867 0.62464 0.0
C76 C 0.29001 0.26782 0.5346 0.0
O77 O 0.35482 0.38724 0.53674 0.0
O78 O 0.29605 0.35765 0.54429 0.0
O79 O 0.40056 0.27308 0.50896 0.0
O80 O 0.39505 0.33398 0.49594 0.0
C81 C 0.33083 0.27598 0.64739 0.0
O82 O 0.28192 0.29155 0.56848 0.0
O83 O 0.32629 0.25951 0.52393 0.0
C84 C 0.31742 0.38237 0.52662 0.0
O85 O 0.32111 0.31067 0.64589 0.0
O86 O 0.34257 0.25563 0.61203 0.0
C87 C 0.44392 0.29803 0.59255 0.0
P88 P 0.04312 0.12166 0.37622 0.0
H89 H 0.05806 0.04272 0.39944 0.0
H90 H 0.08596 0.98575 0.35485 0.0
H91 H 0.10143 0.05203 0.23844 0.0
H92 H 0.07381 0.10877 0.28269 0.0
H93 H 0.04893 0.1775 0.45658 0.0
H94 H 0.10702 0.21305 0.49401 0.0
H95 H 0.18759 0.16171 0.39032 0.0
H96 H 0.13007 0.12701 0.35253 0.0
H97 H 0.98173 0.09721 0.30796 0.0
H98 H 0.03885 0.20417 0.3596 0.0
O99 O 0.01238 0.10821 0.41719 0.0
H100 H 0.94844 0.12976 0.24702 0.0
H101 H 0.00398 0.23715 0.29939 0.0
C102 C 0.06291 0.07959 0.34393 0.0
C103 C 0.06724 0.0449 0.36427 0.0
C104 C 0.08329 0.01258 0.33906 0.0
C105 C 0.09547 0.01492 0.29346 0.0
C106 C 0.09199 0.04982 0.27354 0.0
C107 C 0.07593 0.08199 0.29865 0.0
C108 C 0.0852 0.14908 0.40226 0.0
C109 C 0.07907 0.17399 0.44187 0.0
C110 C 0.11204 0.1942 0.46316 0.0
C111 C 0.15142 0.18952 0.44501 0.0
C112 C 0.15738 0.16531 0.40488 0.0
C113 C 0.12444 0.14548 0.38341 0.0
C114 C 0.01358 0.14805 0.33747 0.0
C115 C 0.98659 0.12781 0.30664 0.0
C116 C 0.96754 0.14634 0.27198 0.0
C117 C 0.97444 0.18561 0.26833 0.0
C118 C 0.99876 0.20669 0.3015 0.0
C119 C 0.01864 0.18786 0.3357 0.0
P120 P 0.43972 0.61946 0.86855 0.0
H121 H 0.52439 0.60349 0.84448 0.0
H122 H 0.56342 0.61527 0.77579 0.0
H123 H 0.46532 0.6852 0.73039 0.0
H124 H 0.42591 0.67266 0.79826 0.0
H125 H 0.35502 0.61052 0.89697 0.0
H126 H 0.30437 0.65657 0.9293 0.0
H127 H 0.3904 0.74934 0.92026 0.0
H128 H 0.44128 0.70325 0.88775 0.0
H129 H 0.46288 0.53849 0.86358 0.0
H130 H 0.37204 0.60807 0.803 0.0
O131 O 0.46705 0.60755 0.91354 0.0
H132 H 0.44253 0.48315 0.8106 0.0
H133 H 0.35127 0.55256 0.75057 0.0
C134 C 0.47275 0.63806 0.82706 0.0
C135 C 0.51197 0.62261 0.8207 0.0
C136 C 0.53419 0.62923 0.78156 0.0
C137 C 0.51727 0.6513 0.74838 0.0
C138 C 0.47901 0.66854 0.75603 0.0
C139 C 0.45666 0.66155 0.79487 0.0
C140 C 0.40145 0.65364 0.88866 0.0
C141 C 0.36276 0.64082 0.90088 0.0
C142 C 0.33388 0.66702 0.91928 0.0
C143 C 0.34354 0.70631 0.92627 0.0
C144 C 0.38225 0.71921 0.91418 0.0
C145 C 0.41117 0.69293 0.89576 0.0
C146 C 0.41813 0.57705 0.83813 0.0
C147 C 0.43762 0.54151 0.84006 0.0
C148 C 0.42619 0.51002 0.80975 0.0
C149 C 0.39529 0.51382 0.77697 0.0
C150 C 0.37489 0.54905 0.776 0.0
C151 C 0.38655 0.58057 0.80608 0.0
P152 P 0.81699 0.91166 0.25774 0.0
H153 H 0.76139 0.97657 0.27337 0.0
H154 H 0.74661 0.0304 0.22683 0.0
H155 H 0.81127 0.97227 0.11326 0.0
H156 H 0.82481 0.91846 0.15853 0.0
H157 H 0.8269 0.85711 0.32486 0.0
H158 H 0.78016 0.81199 0.35725 0.0
H159 H 0.68309 0.84727 0.26981 0.0
H160 H 0.73018 0.89274 0.23701 0.0
H161 H 0.90345 0.92843 0.24985 0.0
H162 H 0.81918 0.83877 0.19962 0.0
O163 O 0.83665 0.93816 0.30294 0.0
H164 H 0.95766 0.8972 0.20318 0.0
H165 H 0.87375 0.80753 0.15257 0.0
C166 C 0.79507 0.94403 0.21988 0.0
C167 C 0.7711 0.97486 0.23793 0.0
C168 C 0.76263 0.00546 0.21149 0.0
C169 C 0.77874 0.00549 0.16713 0.0
C170 C 0.79904 0.97285 0.14764 0.0
C171 C 0.80696 0.94218 0.17376 0.0
C172 C 0.78175 0.87839 0.27908 0.0
C173 C 0.7956 0.85512 0.31254 0.0
C174 C 0.7691 0.82939 0.33086 0.0
C175 C 0.72843 0.82652 0.3158 0.0
C176 C 0.71453 0.84925 0.2816 0.0
C177 C 0.74124 0.87516 0.26316 0.0
C178 C 0.85769 0.8854 0.22892 0.0
C179 C 0.89686 0.90163 0.22957 0.0
C180 C 0.92764 0.88401 0.20281 0.0
C181 C 0.91945 0.85022 0.17466 0.0
C182 C 0.88042 0.83355 0.17434 0.0
C183 C 0.84956 0.8512 0.20132 0.0
P184 P 0.75399 0.3177 0.61495 0.0
H185 H 0.79845 0.36247 0.55077 0.0
H186 H 0.78614 0.4269 0.52596 0.0
H187 H 0.69564 0.4472 0.63146 0.0
H188 H 0.70801 0.38297 0.6565 0.0
H189 H 0.78117 0.24611 0.64724 0.0
H190 H 0.80238 0.22853 0.72316 0.0
H191 H 0.7997 0.34799 0.77515 0.0
H192 H 0.77803 0.36566 0.69922 0.0
H193 H 0.69133 0.31088 0.54401 0.0
H194 H 0.69968 0.29564 0.68877 0.0
O195 O 0.7767 0.29247 0.57126 0.0
H196 H 0.6172 0.30074 0.54644 0.0
H197 H 0.62588 0.28476 0.69074 0.0
C198 C 0.75388 0.3679 0.60521 0.0
C199 C 0.77689 0.38117 0.5695 0.0
C200 C 0.76997 0.41789 0.55539 0.0
C201 C 0.73996 0.44156 0.5769 0.0
C202 C 0.71906 0.42931 0.6147 0.0
C203 C 0.7261 0.39272 0.62888 0.0
C204 C 0.77849 0.30717 0.66753 0.0
C205 C 0.78618 0.26865 0.67462 0.0
C206 C 0.79806 0.25859 0.71786 0.0
C207 C 0.80239 0.28698 0.75455 0.0
C208 C 0.79651 0.32578 0.74706 0.0
C209 C 0.78428 0.33581 0.70376 0.0
C210 C 0.70116 0.30346 0.61591 0.0
C211 C 0.67743 0.30444 0.57596 0.0
C212 C 0.63525 0.29882 0.57737 0.0
C213 C 0.61629 0.29218 0.61881 0.0
C214 C 0.64013 0.28984 0.65851 0.0
C215 C 0.6823 0.29587 0.65719 0.0
P216 P 0.53282 0.37161 0.18892 0.0
H217 H 0.55537 0.44532 0.15466 0.0
H218 H 0.58733 0.50404 0.19236 0.0
H219 H 0.59304 0.45075 0.31987 0.0
H220 H 0.56249 0.39219 0.28233 0.0
H221 H 0.55387 0.34084 0.09553 0.0
H222 H 0.61582 0.30966 0.06384 0.0
H223 H 0.66745 0.31138 0.20015 0.0
H224 H 0.60519 0.34174 0.232 0.0
H225 H 0.47346 0.40088 0.25605 0.0
H226 H 0.52821 0.29128 0.21397 0.0
O227 O 0.50124 0.38233 0.14688 0.0
H228 H 0.44199 0.37318 0.3214 0.0
H229 H 0.4954 0.26318 0.27882 0.0
C230 C 0.55512 0.41503 0.21616 0.0
C231 C 0.5633 0.44644 0.19077 0.0
C232 C 0.5817 0.47971 0.21207 0.0
C233 C 0.59187 0.48174 0.25897 0.0
C234 C 0.58492 0.4498 0.28379 0.0
C235 C 0.56709 0.41656 0.26243 0.0
C236 C 0.57498 0.34347 0.1661 0.0
C237 C 0.57816 0.33391 0.1187 0.0
C238 C 0.61349 0.31634 0.1006 0.0
C239 C 0.64615 0.30853 0.12971 0.0
C240 C 0.64254 0.3173 0.17723 0.0
C241 C 0.60706 0.33448 0.19532 0.0
C242 C 0.50408 0.34842 0.23104 0.0
C243 C 0.47815 0.37071 0.26045 0.0
C244 C 0.46016 0.35495 0.29763 0.0
C245 C 0.46704 0.3164 0.30526 0.0
C246 C 0.49019 0.29312 0.27362 0.0
C247 C 0.50893 0.30918 0.2368 0.0
P248 P 0.2516 0.18703 0.961 0.0
H249 H 0.31779 0.13789 0.98924 0.0
H250 H 0.31876 0.07078 0.00946 0.0
H251 H 0.19154 0.05868 0.97161 0.0
H252 H 0.19075 0.12466 0.95009 0.0
H253 H 0.28223 0.25831 0.93021 0.0
H254 H 0.30464 0.27583 0.85494 0.0
H255 H 0.29396 0.15725 0.80067 0.0
H256 H 0.271 0.13971 0.87586 0.0
H257 H 0.19103 0.19838 0.03292 0.0
H258 H 0.19564 0.20563 0.88641 0.0
O259 O 0.27522 0.21176 0.005 0.0
H260 H 0.11697 0.20888 0.03092 0.0
H261 H 0.12189 0.21689 0.88477 0.0
C262 C 0.25395 0.13659 0.96948 0.0
C263 C 0.29032 0.12056 0.98467 0.0
C264 C 0.29095 0.08239 0.99601 0.0
C265 C 0.25501 0.06022 0.99267 0.0
C266 C 0.2194 0.07559 0.97483 0.0
C267 C 0.21895 0.1134 0.9629 0.0
C268 C 0.27568 0.19768 0.90869 0.0
C269 C 0.2857 0.23593 0.90245 0.0
C270 C 0.29831 0.24594 0.85962 0.0
C271 C 0.30091 0.21778 0.82253 0.0
C272 C 0.29229 0.17923 0.82913 0.0
C273 C 0.27939 0.16927 0.87198 0.0
C274 C 0.19895 0.2017 0.96003 0.0
C275 C 0.17634 0.20318 0.0006 0.0
C276 C 0.13419 0.20903 -0.00055 0.0
C277 C 0.11415 0.21348 0.95766 0.0
C278 C 0.13696 0.21351 0.91728 0.0
C279 C 0.17907 0.20723 0.91836 0.0
P280 P 0.3024 0.56448 0.28294 0.0
H281 H 0.24851 0.49799 0.28596 0.0
H282 H 0.23843 0.45423 0.34636 0.0
H283 H 0.30436 0.53297 0.44235 0.0
H284 H 0.3128 0.57724 0.38316 0.0
H285 H 0.29594 0.59049 0.19236 0.0
H286 H 0.25716 0.64274 0.1626 0.0
H287 H 0.19226 0.66002 0.29042 0.0
H288 H 0.23135 0.60736 0.32054 0.0
H289 H 0.38634 0.54442 0.30236 0.0
H290 H 0.31258 0.64711 0.31188 0.0
O291 O 0.31824 0.53141 0.24234 0.0
H292 H 0.44222 0.58061 0.34269 0.0
H293 H 0.36852 0.68306 0.3519 0.0
C294 C 0.28266 0.54007 0.32966 0.0
C295 C 0.25935 0.50649 0.32046 0.0
C296 C 0.25349 0.48165 0.35485 0.0
C297 C 0.27161 0.4901 0.3983 0.0
C298 C 0.29063 0.52584 0.40883 0.0
C299 C 0.29577 0.55092 0.37477 0.0
C300 C 0.26592 0.59476 0.25824 0.0
C301 C 0.2724 0.60454 0.21348 0.0
C302 C 0.25052 0.6344 0.19661 0.0
C303 C 0.2221 0.65498 0.22446 0.0
C304 C 0.21396 0.64407 0.26853 0.0
C305 C 0.23602 0.61403 0.28548 0.0
C306 C 0.34559 0.59314 0.30342 0.0
C307 C 0.38256 0.57488 0.31195 0.0
C308 C 0.41424 0.59538 0.33513 0.0
C309 C 0.40915 0.6343 0.35022 0.0
C310 C 0.37279 0.65302 0.3403 0.0
C311 C 0.34102 0.63246 0.31726 0.0
P312 P 0.85237 0.83915 0.8 0.0
H313 H 0.8111 0.88428 0.87427 0.0
H314 H 0.8143 0.95266 0.9003 0.0
H315 H 0.88277 0.97459 0.77994 0.0
H316 H 0.87869 0.90584 0.75305 0.0
H317 H 0.88574 0.77735 0.73742 0.0
H318 H 0.85659 0.74241 0.6682 0.0
H319 H 0.75727 0.82331 0.67012 0.0
H320 H 0.78669 0.8586 0.73888 0.0
H321 H 0.89103 0.8128 0.88117 0.0
H322 H 0.92918 0.85255 0.7525 0.0
O323 O 0.82301 0.8157 0.83482 0.0
H324 H 0.9612 0.81802 0.90975 0.0
H325 H -9e-05 0.85838 0.78174 0.0
C326 C 0.84439 0.89001 0.81154 0.0
C327 C 0.82549 0.90382 0.85249 0.0
C328 C 0.82743 0.94283 0.86747 0.0
C329 C 0.84873 0.96854 0.842 0.0
C330 C 0.86589 0.95516 0.79979 0.0
C331 C 0.86356 0.91603 0.78454 0.0
C332 C 0.8388 0.82104 0.74262 0.0
C333 C 0.85861 0.78849 0.72195 0.0
C334 C 0.84188 0.76839 0.68273 0.0
C335 C 0.80473 0.78025 0.66446 0.0
C336 C 0.78602 0.81387 0.6838 0.0
C337 C 0.80293 0.83409 0.72277 0.0
C338 C 0.90499 0.8319 0.81455 0.0
C339 C 0.91468 0.82133 0.85843 0.0
C340 C 0.9547 0.8244 0.87482 0.0
C341 C 0.98553 0.83846 0.84774 0.0
C342 C 0.97646 0.84707 0.80281 0.0
C343 C 0.93623 0.84377 0.78627 0.0
C344 C 0.0972 0.92228 0.21557 0.0
C345 C 0.13841 0.92194 0.2008 0.0
C346 C 0.15332 0.97523 0.25955 0.0
C347 C 0.11072 0.98056 0.26558 0.0
N348 N 0.04141 0.95961 0.24936 0.0
N349 N 0.20835 0.94163 0.21843 0.0
C350 C 0.08246 0.95392 0.2441 0.0
C351 C 0.16751 0.94616 0.22605 0.0
N352 N 0.07267 0.89131 0.20357 0.0
N353 N 0.17997 0.99747 0.28675 0.0
H354 H 0.22095 0.91646 0.20312 0.0
H355 H 0.23026 0.96232 0.22876 0.0
H356 H 0.1703 0.01889 0.31136 0.0
H357 H 0.2114 0.99337 0.28746 0.0
H358 H 0.04327 0.88815 0.2161 0.0
H359 H 0.08416 0.86667 0.18566 0.0
H360 H 0.01946 0.94358 0.22998 0.0
H361 H 0.0292 0.98211 0.27074 0.0
C362 C 0.5311 0.63591 0.61971 0.0
C363 C 0.5704 0.65278 0.61389 0.0
C364 C 0.57332 0.67147 0.697 0.0
C365 C 0.5364 0.65138 0.70264 0.0
N366 N 0.4866 0.6051 0.671 0.0
N367 N 0.63346 0.67607 0.65083 0.0
C368 C 0.51734 0.63067 0.66452 0.0
C369 C 0.59283 0.66774 0.65363 0.0
N370 N 0.50556 0.62649 0.58323 0.0
N371 N 0.58961 0.69446 0.73282 0.0
H372 H 0.65002 0.67054 0.62086 0.0
H373 H 0.65181 0.68376 0.67947 0.0
H374 H 0.57627 0.69757 0.76521 0.0
H375 H 0.61425 0.7129 0.72915 0.0
H376 H 0.47515 0.61853 0.58711 0.0
H377 H 0.51244 0.63035 0.54943 0.0
H378 H 0.47481 0.58615 0.6446 0.0
H379 H 0.47587 0.59985 0.70337 0.0
C380 C 0.81247 0.10306 0.13295 0.0
C381 C 0.79738 0.10081 0.08736 0.0
C382 C 0.75877 0.04276 0.10109 0.0
C383 C 0.78025 0.04115 0.14317 0.0
N384 N 0.83163 0.06784 0.19708 0.0
N385 N 0.75679 0.06822 0.02655 0.0
C386 C 0.80775 0.07108 0.15902 0.0
C387 C 0.77007 0.07093 0.07114 0.0
N388 N 0.83122 0.13593 0.15131 0.0
N389 N 0.72777 0.01725 0.08994 0.0
H390 H 0.76379 0.08873 0.00392 0.0
H391 H 0.74086 0.04456 0.0112 0.0
H392 H 0.71898 0.99643 0.1115 0.0
H393 H 0.70854 0.01894 0.06166 0.0
H394 H 0.83966 0.14065 0.18578 0.0
H395 H 0.83405 0.16012 0.13308 0.0
H396 H 0.85552 0.08672 0.20668 0.0
H397 H 0.83021 0.04458 0.21703 0.0
C398 C 0.50846 0.25894 0.58884 0.0
C399 C 0.48569 0.29051 0.60905 0.0
C400 C 0.54827 0.32104 0.64086 0.0
C401 C 0.57112 0.28961 0.62054 0.0
N402 N 0.57267 0.22434 0.58634 0.0
N403 N 0.48177 0.34479 0.66541 0.0
C404 C 0.55101 0.25704 0.59828 0.0
C405 C 0.505 0.31929 0.63887 0.0
N406 N 0.49022 0.23212 0.55837 0.0
N407 N 0.56776 0.35345 0.65966 0.0
H408 H 0.44993 0.34329 0.66536 0.0
H409 H 0.4939 0.36448 0.69079 0.0
H410 H 0.59945 0.35615 0.66159 0.0
H411 H 0.55255 0.37883 0.67014 0.0
H412 H 0.50642 0.21149 0.53811 0.0
H413 H 0.45907 0.23186 0.55094 0.0
H414 H 0.55911 0.19839 0.57402 0.0
H415 H 0.60392 0.2222 0.59287 0.0
C416 C 0.59791 0.57995 0.32563 0.0
C417 C 0.63507 0.57577 0.3495 0.0
C418 C 0.64966 0.5172 0.30029 0.0
C419 C 0.60889 0.51733 0.28344 0.0
N420 N 0.54302 0.54821 0.28117 0.0
N421 N 0.69764 0.54152 0.35971 0.0
C422 C 0.58286 0.54895 0.29558 0.0
C423 C 0.66179 0.54506 0.33627 0.0
N424 N 0.57703 0.61365 0.33224 0.0
N425 N 0.67644 0.49027 0.2819 0.0
H426 H 0.70802 0.56246 0.3848 0.0
H427 H 0.71616 0.5173 0.3557 0.0
H428 H 0.66816 0.46973 0.2553 0.0
H429 H 0.70746 0.4904 0.28996 0.0
H430 H 0.55147 0.62007 0.31298 0.0
H431 H 0.58836 0.63664 0.35383 0.0
H432 H 0.52144 0.56829 0.29356 0.0
H433 H 0.53059 0.52603 0.25915 0.0
C434 C 0.0023 0.18542 0.9401 0.0
C435 C 0.98359 0.21527 0.96831 0.0
C436 C 0.04933 0.24914 0.97669 0.0
C437 C 0.06891 0.21581 0.95635 0.0
N438 N 0.06447 0.15048 0.92158 0.0
N439 N 0.98943 0.27554 0.01556 0.0
C440 C 0.04552 0.18361 0.93818 0.0
C441 C 0.00692 0.24759 0.98652 0.0
N442 N 0.97854 0.15897 0.91493 0.0
N443 N 0.07133 0.28223 0.98645 0.0
H444 H 0.95847 0.27602 0.02337 0.0
H445 H 0.00614 0.29696 0.03447 0.0
H446 H 0.10247 0.28413 0.97961 0.0
H447 H 0.0581 0.30855 0.99718 0.0
H448 H 0.99022 0.13838 0.89062 0.0
H449 H 0.94672 0.16047 0.91479 0.0
H450 H 0.04887 0.12478 0.91286 0.0
H451 H 0.09611 0.14763 0.91991 0.0
C452 C 0.3112 0.39978 0.44644 0.0
C453 C 0.29903 0.40623 0.49272 0.0
C454 C 0.25977 0.46239 0.4737 0.0
C455 C 0.27782 0.45942 0.42958 0.0
N456 N 0.32735 0.42892 0.37717 0.0
N457 N 0.26336 0.44458 0.55208 0.0
C458 C 0.30511 0.42893 0.41657 0.0
C459 C 0.27334 0.4376 0.50686 0.0
N460 N 0.328 0.36544 0.43078 0.0
N461 N 0.22957 0.48865 0.4836 0.0
H462 H 0.27216 0.42652 0.57698 0.0
H463 H 0.24857 0.46942 0.56538 0.0
H464 H 0.21906 0.50702 0.4598 0.0
H465 H 0.21265 0.48995 0.51368 0.0
H466 H 0.33406 0.35787 0.39624 0.0
H467 H 0.33112 0.34288 0.45156 0.0
H468 H 0.35082 0.40947 0.36907 0.0
H469 H 0.32554 0.4505 0.35477 0.0
C470 C 0.05496 0.88535 0.93747 0.0
C471 C 0.0875 0.85818 0.937 0.0
C472 C 0.05804 0.82306 0.86809 0.0
C473 C 0.02518 0.84927 0.87 0.0
N474 N 0.99976 0.91213 0.89482 0.0
N475 N 0.1266 0.80926 0.89403 0.0
C476 C 0.02655 0.88294 0.90051 0.0
C477 C 0.09128 0.82979 0.8994 0.0
N478 N 0.04834 0.91107 0.97468 0.0
N479 N 0.05648 0.7909 0.83795 0.0
H480 H 0.15156 0.81428 0.91619 0.0
H481 H 0.1326 0.7902 0.86548 0.0
H482 H 0.03312 0.7861 0.81361 0.0
H483 H 0.07714 0.76833 0.83849 0.0
H484 H 0.02171 0.9272 0.97881 0.0
H485 H 0.06723 0.91472 0.00339 0.0
H486 H 0.00182 0.93899 0.9133 0.0
H487 H 0.97819 0.91078 0.86825 0.0
C488 C 0.88396 0.04674 0.93067 0.0
C489 C 0.86347 0.07952 0.91602 0.0
C490 C 0.83599 0.04013 0.84899 0.0
C491 C 0.85741 0.00797 0.8632 0.0
N492 N 0.91138 0.98351 0.90885 0.0
N493 N 0.82958 0.1096 0.85507 0.0
C494 C 0.88471 0.01235 0.90109 0.0
C495 C 0.84246 0.07688 0.87314 0.0
N496 N 0.90009 0.04712 0.974 0.0
N497 N 0.80839 0.03534 0.81367 0.0
H498 H 0.83522 0.13698 0.87118 0.0
H499 H 0.81726 0.10986 0.82216 0.0
H500 H 0.8035 0.00895 0.79474 0.0
H501 H 0.78847 0.05686 0.80516 0.0
H502 H 0.91082 0.02248 0.98776 0.0
H503 H 0.89938 0.07083 0.99809 0.0
H504 H 0.9348 0.98668 0.93324 0.0
H505 H 0.9128 0.95787 0.88772 0.0
C506 C 0.46356 0.29747 0.43087 0.0
C507 C 0.42094 0.29219 0.43614 0.0
C508 C 0.41004 0.2937 0.35336 0.0
C509 C 0.4522 0.30194 0.34849 0.0
N510 N 0.52069 0.30455 0.3798 0.0
N511 N 0.35555 0.27461 0.40285 0.0
C512 C 0.47955 0.30113 0.38637 0.0
C513 C 0.3948 0.28672 0.39734 0.0
N514 N 0.48831 0.30064 0.46888 0.0
N515 N 0.3845 0.29403 0.31619 0.0
H516 H 0.34409 0.26912 0.43483 0.0
H517 H 0.33537 0.26717 0.37584 0.0
H518 H 0.39514 0.29698 0.28313 0.0
H519 H 0.35282 0.29287 0.31811 0.0
H520 H 0.51869 0.30942 0.46909 0.0
H521 H 0.47796 0.29496 0.50116 0.0
H522 H 0.54272 0.3005 0.4047 0.0
H523 H 0.53347 0.30937 0.3483 0.0
C524 C 0.24299 0.95217 0.99764 0.0
C525 C 0.22849 0.95167 0.04314 0.0
C526 C 0.24468 0.02035 0.05857 0.0
C527 C 0.25283 0.02203 0.01123 0.0
N528 N 0.26209 0.99056 0.93554 0.0
N529 N 0.21758 0.98374 0.11827 0.0
C530 C 0.25331 0.98805 0.98082 0.0
C531 C 0.23061 0.98527 0.0742 0.0
N532 N 0.24633 0.91838 0.97061 0.0
N533 N 0.25001 0.05246 0.0884 0.0
H534 H 0.21017 0.95794 0.13153 0.0
H535 H 0.21284 0.00771 0.14132 0.0
H536 H 0.25869 0.07908 0.07799 0.0
H537 H 0.24865 0.05247 0.12392 0.0
H538 H 0.25951 0.91594 0.93825 0.0
H539 H 0.2386 0.89193 0.98217 0.0
H540 H 0.25863 0.96797 0.91015 0.0
H541 H 0.27167 0.01614 0.9229 0.0
C542 C 0.51117 0.67957 0.38505 0.0
C543 C 0.51082 0.67367 0.4322 0.0
C544 C 0.43897 0.65544 0.42743 0.0
C545 C 0.44135 0.65445 0.37885 0.0
N546 N 0.47681 0.66983 0.31093 0.0
N547 N 0.47119 0.67568 0.50071 0.0
C548 C 0.47636 0.6687 0.35752 0.0
C549 C 0.47355 0.66784 0.45432 0.0
N550 N 0.54435 0.69677 0.36754 0.0
N551 N 0.40472 0.64229 0.44754 0.0
H552 H 0.49589 0.68743 0.51996 0.0
H553 H 0.44413 0.67479 0.51904 0.0
H554 H 0.37841 0.6337 0.42901 0.0
H555 H 0.40307 0.63798 0.48226 0.0
H556 H 0.54615 0.7046 0.3341 0.0
H557 H 0.56936 0.70565 0.38812 0.0
H558 H 0.50263 0.6761 0.29243 0.0
H559 H 0.4511 0.66339 0.29032 0.0
C560 C 0.36332 0.41631 0.71836 0.0
C561 C 0.37222 0.42155 0.67186 0.0
C562 C 0.3999 0.48571 0.69529 0.0
C563 C 0.38696 0.48204 0.74089 0.0
N564 N 0.35048 0.44646 0.79474 0.0
N565 N 0.39164 0.46424 0.61493 0.0
C566 C 0.36689 0.44807 0.75213 0.0
C567 C 0.38846 0.45712 0.65998 0.0
N568 N 0.35337 0.38062 0.73068 0.0
N569 N 0.42444 0.51579 0.68593 0.0
H570 H 0.38309 0.44438 0.5879 0.0
H571 H 0.399 0.49118 0.60445 0.0
H572 H 0.434 0.53718 0.71089 0.0
H573 H 0.43848 0.51758 0.65435 0.0
H574 H 0.35071 0.37418 0.76464 0.0
H575 H 0.35175 0.35651 0.70714 0.0
H576 H 0.33179 0.42403 0.80337 0.0
H577 H 0.35264 0.46916 0.82035 0.0
C578 C 0.02241 0.81025 0.1441 0.0
C579 C 0.02732 0.82352 0.09973 0.0
C580 C 0.95628 0.84491 0.09973 0.0
C581 C 0.95225 0.8336 0.14481 0.0
N582 N 0.97525 0.7945 0.20343 0.0
N583 N 0.99524 0.83936 0.02936 0.0
C584 C 0.98321 0.8121 0.16452 0.0
C585 C 0.99289 0.83618 0.07552 0.0
N586 N 0.05542 0.79917 0.16853 0.0
N587 N 0.92604 0.86558 0.08098 0.0
H588 H 0.0213 0.83148 0.01053 0.0
H589 H 0.97027 0.84568 0.00909 0.0
H590 H 0.89822 0.87139 0.09723 0.0
H591 H 0.92941 0.87866 0.05055 0.0
H592 H 0.05401 0.79289 0.20263 0.0
H593 H 0.08526 0.80036 0.15693 0.0
H594 H 0.99524 0.77537 0.21728 0.0
H595 H 0.94674 0.79607 0.2192 0.0
C596 C 0.67458 0.50673 0.50937 0.0
C597 C 0.69504 0.54272 0.51866 0.0
C598 C 0.74583 0.5121 0.56591 0.0
C599 C 0.72585 0.47629 0.55566 0.0
N600 N 0.67654 0.43739 0.51079 0.0
N601 N 0.75497 0.5779 0.54741 0.0
C602 C 0.69176 0.47302 0.52537 0.0
C603 C 0.73227 0.54484 0.54424 0.0
N604 N 0.63852 0.50463 0.48538 0.0
N605 N 0.77696 0.51501 0.59748 0.0
H606 H 0.74613 0.60252 0.5324 0.0
H607 H 0.78426 0.58004 0.56153 0.0
H608 H 0.78825 0.49138 0.61303 0.0
H609 H 0.78969 0.54107 0.61071 0.0
H610 H 0.61911 0.48085 0.48364 0.0
H611 H 0.62676 0.52726 0.46861 0.0
H612 H 0.6551 0.4325 0.48443 0.0
H613 H 0.68765 0.41196 0.52237 0.0
C614 C 0.96624 0.21183 0.14584 0.0
C615 C 0.9233 0.21574 0.14192 0.0
C616 C 0.91555 0.21056 0.22432 0.0
C617 C 0.95804 0.20318 0.22755 0.0
N618 N 0.02543 0.20476 0.19488 0.0
N619 N 0.85867 0.22982 0.17745 0.0
C620 C 0.98398 0.20687 0.18947 0.0
C621 C 0.89848 0.21886 0.18141 0.0
N622 N 0.98963 0.21077 0.10726 0.0
N623 N 0.89151 0.20802 0.26194 0.0
H624 H 0.846 0.23632 0.1462 0.0
H625 H 0.83917 0.23534 0.20513 0.0
H626 H 0.90357 0.20408 0.29433 0.0
H627 H 0.85975 0.20853 0.26102 0.0
H628 H 0.02024 0.20299 0.10589 0.0
H629 H 0.97783 0.21706 0.07565 0.0
H630 H 0.04634 0.21089 0.16993 0.0
H631 H 0.03952 0.19912 0.22562 0.0
C632 C 0.15621 0.72081 0.15883 0.0
C633 C 0.18373 0.75247 0.15716 0.0
C634 C 0.22855 0.72414 0.21257 0.0
C635 C 0.20457 0.69029 0.2082 0.0
N636 N 0.1469 0.65449 0.1757 0.0
N637 N 0.25156 0.77868 0.17486 0.0
C638 C 0.16851 0.6882 0.18127 0.0
C639 C 0.22115 0.75307 0.18254 0.0
N640 N 0.11813 0.72192 0.13961 0.0
N641 N 0.25921 0.72818 0.24465 0.0
H642 H 0.25011 0.79811 0.14989 0.0
H643 H 0.28071 0.77737 0.18918 0.0
H644 H 0.266 0.70705 0.26665 0.0
H645 H 0.275 0.75394 0.25247 0.0
H646 H 0.0953 0.70191 0.14465 0.0
H647 H 0.10799 0.74439 0.1215 0.0
H648 H 0.12344 0.64936 0.15166 0.0
H649 H 0.15405 0.63069 0.19346 0.0
C650 C 0.74209 0.69847 0.60392 0.0
C651 C 0.73429 0.71353 0.56126 0.0
C652 C 0.78065 0.76772 0.58286 0.0
C653 C 0.78318 0.75571 0.62784 0.0
N654 N 0.76275 0.71207 0.68328 0.0
N655 N 0.74686 0.76152 0.50845 0.0
C656 C 0.76339 0.72146 0.63884 0.0
C657 C 0.75392 0.74788 0.55019 0.0
N658 N 0.72914 0.66226 0.61122 0.0
N659 N 0.8046 0.7975 0.57125 0.0
H660 H 0.73082 0.74586 0.48214 0.0
H661 H 0.75565 0.78877 0.50027 0.0
H662 H 0.82458 0.81242 0.59448 0.0
H663 H 0.80728 0.80554 0.53797 0.0
H664 H 0.73816 0.64806 0.63949 0.0
H665 H 0.71167 0.64519 0.58743 0.0
H666 H 0.74462 0.69012 0.69426 0.0
H667 H 0.77761 0.72818 0.7102 0.0
C668 C 0.74476 0.29762 0.06166 0.0
C669 C 0.75658 0.26006 0.07107 0.0
C670 C 0.69569 0.2539 0.11787 0.0
C671 C 0.68467 0.2921 0.11028 0.0
N672 N 0.70301 0.35335 0.08362 0.0
N673 N 0.74992 0.20698 0.11782 0.0
C674 C 0.71051 0.31492 0.08469 0.0
C675 C 0.73402 0.23956 0.10217 0.0
N676 N 0.76554 0.31632 0.02984 0.0
N677 N 0.66893 0.23081 0.1385 0.0
H678 H 0.77892 0.19707 0.10861 0.0
H679 H 0.73665 0.19252 0.14365 0.0
H680 H 0.64029 0.24011 0.15008 0.0
H681 H 0.67362 0.20149 0.14047 0.0
H682 H 0.75536 0.34165 0.01728 0.0
H683 H 0.7918 0.30522 0.01378 0.0
H684 H 0.72303 0.37224 0.06948 0.0
H685 H 0.67848 0.36712 0.1005 0.0
C686 C 0.35601 0.25906 0.724 0.0
C687 C 0.32432 0.258 0.69055 0.0
C688 C 0.27719 0.23072 0.74367 0.0
C689 C 0.30957 0.22947 0.77608 0.0
N690 N 0.38125 0.23568 0.79461 0.0
N691 N 0.25702 0.23721 0.66486 0.0
C692 C 0.3495 0.2416 0.76546 0.0
C693 C 0.28564 0.24192 0.6992 0.0
N694 N 0.3918 0.27782 0.71676 0.0
N695 N 0.23799 0.22317 0.75614 0.0
H696 H 0.26162 0.2463 0.6323 0.0
H697 H 0.23009 0.22162 0.66743 0.0
H698 H 0.2303 0.2151 0.78849 0.0
H699 H 0.21257 0.22795 0.73583 0.0
H700 H 0.41425 0.28338 0.7419 0.0
H701 H 0.39783 0.2905 0.68653 0.0
H702 H 0.41171 0.24033 0.78668 0.0
H703 H 0.37746 0.22291 0.82527 0.0
C704 C 0.67208 0.78555 0.41148 0.0
C705 C 0.66831 0.74643 0.39374 0.0
C706 C 0.69584 0.76192 0.32001 0.0
C707 C 0.7007 0.80061 0.33825 0.0
N708 N 0.68326 0.85173 0.39516 0.0
N709 N 0.66424 0.69994 0.328 0.0
C710 C 0.68512 0.81323 0.38194 0.0
C711 C 0.67625 0.73542 0.34687 0.0
N712 N 0.66592 0.79593 0.45707 0.0
N713 N 0.71147 0.75024 0.27792 0.0
H714 H 0.64848 0.68061 0.3467 0.0
H715 H 0.66601 0.69127 0.2931 0.0
H716 H 0.72461 0.76931 0.25667 0.0
H717 H 0.71331 0.72151 0.26509 0.0
H718 H 0.6734 0.82294 0.47293 0.0
H719 H 0.65612 0.77688 0.4802 0.0
H720 H 0.6686 0.86308 0.42475 0.0
H721 H 0.693 0.87261 0.37417 0.0
C722 C 0.854 0.2429 0.85411 0.0
C723 C 0.82273 0.24659 0.88745 0.0
C724 C 0.77792 0.27666 0.83366 0.0
C725 C 0.81019 0.27538 0.8014 0.0
N726 N 0.88104 0.26399 0.78348 0.0
N727 N 0.75758 0.27222 0.91253 0.0
C728 C 0.84893 0.26049 0.81243 0.0
C729 C 0.78556 0.26528 0.87838 0.0
N730 N 0.88801 0.22167 0.86175 0.0
N731 N 0.73944 0.28676 0.82083 0.0
H732 H 0.76139 0.26294 0.94519 0.0
H733 H 0.73212 0.28966 0.90961 0.0
H734 H 0.73233 0.29496 0.78827 0.0
H735 H 0.71378 0.28398 0.84108 0.0
H736 H 0.90979 0.21436 0.83678 0.0
H737 H 0.89299 0.20875 0.89212 0.0
H738 H 0.91101 0.25722 0.79168 0.0
H739 H 0.87835 0.27691 0.75274 0.0
C740 C 0.24398 0.21025 0.52283 0.0
C741 C 0.256 0.24682 0.50979 0.0
C742 C 0.20074 0.24482 0.45235 0.0
C743 C 0.18685 0.20975 0.46801 0.0
N744 N 0.19194 0.1604 0.52051 0.0
N745 N 0.24598 0.30004 0.46377 0.0
C746 C 0.20757 0.19281 0.50394 0.0
C747 C 0.23441 0.26439 0.47491 0.0
N748 N 0.26801 0.19177 0.55236 0.0
N749 N 0.18213 0.25891 0.41528 0.0
H750 H 0.27235 0.31367 0.47693 0.0
H751 H 0.22893 0.31684 0.44304 0.0
H752 H 0.15622 0.2463 0.39923 0.0
H753 H 0.19338 0.28183 0.3986 0.0
H754 H 0.26344 0.16343 0.55965 0.0
H755 H 0.29472 0.20375 0.56708 0.0
H756 H 0.20264 0.14911 0.55011 0.0
H757 H 0.16622 0.14597 0.50641 0.0
C758 C 0.26111 0.78229 0.95117 0.0
C759 C 0.25316 0.77726 0.99804 0.0
C760 C 0.31002 0.73172 0.99874 0.0
C761 C 0.31438 0.733 0.95086 0.0
N762 N 0.29159 0.75609 0.87977 0.0
N763 N 0.26411 0.7392 0.06253 0.0
C764 C 0.28929 0.75743 0.92651 0.0
C765 C 0.27619 0.75001 0.02094 0.0
N766 N 0.24282 0.81153 0.9306 0.0
N767 N 0.33836 0.71309 0.02321 0.0
H768 H 0.23764 0.7492 0.07856 0.0
H769 H 0.27747 0.71671 0.0784 0.0
H770 H 0.36358 0.69905 0.00809 0.0
H771 H 0.339 0.71484 0.05897 0.0
H772 H 0.25067 0.81914 0.89816 0.0
H773 H 0.22218 0.83039 0.94743 0.0
H774 H 0.27093 0.76989 0.85956 0.0
H775 H 0.31251 0.73886 0.86083 0.0
loop_
_geom_bond_atom_site_label_1
_geom_bond_atom_site_label_2
_geom_bond_distance
_geom_bond_site_symmetry_2
_ccdc_geom_bond_type
Fe0 O2 1.918 . S
Fe0 O5 1.997 . S
Fe0 O6 2.002 . S
Fe0 O11 1.976 . S
Fe0 O14 1.996 . S
Fe1 O2 1.918 . S
Fe1 O9 1.997 . S
Fe1 O12 1.996 . S
Fe1 O16 1.976 1_554 S
Fe1 O19 2.002 . S
O2 Fe0 1.918 . S
O2 Fe1 1.918 . S
O2 Fe3 1.918 . S
Fe3 O2 1.918 . S
Fe3 O4 2.002 . S
Fe3 O13 1.976 . S
Fe3 O17 1.996 1_554 S
Fe3 O20 1.997 . S
O4 Fe3 2.002 . S
O4 C21 1.295 . S
O5 Fe0 1.997 . S
O5 C21 1.235 . S
O6 Fe0 2.002 . S
O6 C7 1.295 . S
C7 O6 1.295 . S
C7 O9 1.235 . S
C8 O13 1.287 . S
C8 O14 1.255 . S
O9 Fe1 1.997 . S
O9 C7 1.235 . S
C10 O16 1.287 . S
C10 O17 1.255 . S
O11 Fe0 1.976 . S
O11 C18 1.287 . S
O12 Fe1 1.996 . S
O12 C18 1.255 . S
O13 Fe3 1.976 . S
O13 C8 1.287 . S
O14 Fe0 1.996 . S
O14 C8 1.255 . S
C15 O19 1.295 . S
C15 O20 1.235 . S
O16 Fe1 1.976 1_556 S
O16 C10 1.287 . S
O17 Fe3 1.996 1_556 S
O17 C10 1.255 . S
C18 O11 1.287 . S
C18 O12 1.255 . S
O19 Fe1 2.002 . S
O19 C15 1.295 . S
O20 Fe3 1.997 . S
O20 C15 1.235 . S
C21 O4 1.295 . S
C21 O5 1.235 . S
Fe22 O24 1.918 . S
Fe22 O27 1.997 . S
Fe22 O28 2.002 . S
Fe22 O33 1.976 . S
Fe22 O36 1.996 . S
Fe23 O24 1.918 . S
Fe23 O31 1.997 . S
Fe23 O34 1.996 . S
Fe23 O38 1.976 . S
Fe23 O41 2.002 . S
O24 Fe22 1.918 . S
O24 Fe23 1.918 . S
O24 Fe25 1.918 . S
Fe25 O24 1.918 . S
Fe25 O26 2.002 . S
Fe25 O35 1.976 . S
Fe25 O39 1.996 . S
Fe25 O42 1.997 . S
O26 Fe25 2.002 . S
O26 C43 1.295 . S
O27 Fe22 1.997 . S
O27 C43 1.235 . S
O28 Fe22 2.002 . S
O28 C29 1.295 . S
C29 O28 1.295 . S
C29 O31 1.235 . S
C30 O35 1.287 . S
C30 O36 1.255 . S
O31 Fe23 1.997 . S
O31 C29 1.235 . S
C32 O38 1.287 . S
C32 O39 1.255 . S
O33 Fe22 1.976 . S
O33 C40 1.287 . S
O34 Fe23 1.996 . S
O34 C40 1.255 . S
O35 Fe25 1.976 . S
O35 C30 1.287 . S
O36 Fe22 1.996 . S
O36 C30 1.255 . S
C37 O41 1.295 . S
C37 O42 1.235 . S
O38 Fe23 1.976 . S
O38 C32 1.287 . S
O39 Fe25 1.996 . S
O39 C32 1.255 . S
C40 O33 1.287 . S
C40 O34 1.255 . S
O41 Fe23 2.002 . S
O41 C37 1.295 . S
O42 Fe25 1.997 . S
O42 C37 1.235 . S
C43 O26 1.295 . S
C43 O27 1.235 . S
Fe44 O46 1.918 . S
Fe44 O49 1.997 1_554 S
Fe44 O50 2.002 1_554 S
Fe44 O55 1.976 . S
Fe44 O58 1.996 . S
Fe45 O46 1.918 . S
Fe45 O53 1.997 1_554 S
Fe45 O56 1.996 . S
Fe45 O60 1.976 . S
Fe45 O63 2.002 1_554 S
O46 Fe44 1.918 . S
O46 Fe45 1.918 . S
O46 Fe47 1.918 1_554 S
Fe47 O46 1.918 1_556 S
Fe47 O48 2.002 . S
Fe47 O57 1.976 1_556 S
Fe47 O61 1.996 1_556 S
Fe47 O64 1.997 . S
O48 Fe47 2.002 . S
O48 C65 1.295 . S
O49 Fe44 1.997 1_556 S
O49 C65 1.235 . S
O50 Fe44 2.002 1_556 S
O50 C51 1.295 . S
C51 O50 1.295 . S
C51 O53 1.235 . S
C52 O57 1.287 . S
C52 O58 1.255 . S
O53 Fe45 1.997 1_556 S
O53 C51 1.235 . S
C54 O60 1.287 . S
C54 O61 1.255 . S
O55 Fe44 1.976 . S
O55 C62 1.287 . S
O56 Fe45 1.996 . S
O56 C62 1.255 . S
O57 Fe47 1.976 1_554 S
O57 C52 1.287 . S
O58 Fe44 1.996 . S
O58 C52 1.255 . S
C59 O63 1.295 . S
C59 O64 1.235 . S
O60 Fe45 1.976 . S
O60 C54 1.287 . S
O61 Fe47 1.996 1_554 S
O61 C54 1.255 . S
C62 O55 1.287 . S
C62 O56 1.255 . S
O63 Fe45 2.002 1_556 S
O63 C59 1.295 . S
O64 Fe47 1.997 . S
O64 C59 1.235 . S
C65 O48 1.295 . S
C65 O49 1.235 . S
Fe66 O68 1.918 . S
Fe66 O71 1.997 . S
Fe66 O72 2.002 . S
Fe66 O77 1.976 . S
Fe66 O80 1.996 . S
Fe67 O68 1.918 . S
Fe67 O75 1.997 . S
Fe67 O78 1.996 . S
Fe67 O82 1.976 . S
Fe67 O85 2.002 . S
O68 Fe66 1.918 . S
O68 Fe67 1.918 . S
O68 Fe69 1.918 . S
Fe69 O68 1.918 . S
Fe69 O70 2.002 . S
Fe69 O79 1.976 . S
Fe69 O83 1.996 . S
Fe69 O86 1.997 . S
O70 Fe69 2.002 . S
O70 C87 1.295 . S
O71 Fe66 1.997 . S
O71 C87 1.235 . S
O72 Fe66 2.002 . S
O72 C73 1.295 . S
C73 O72 1.295 . S
C73 O75 1.235 . S
C74 O79 1.287 . S
C74 O80 1.255 . S
O75 Fe67 1.997 . S
O75 C73 1.235 . S
C76 O82 1.287 . S
C76 O83 1.255 . S
O77 Fe66 1.976 . S
O77 C84 1.287 . S
O78 Fe67 1.996 . S
O78 C84 1.255 . S
O79 Fe69 1.976 . S
O79 C74 1.287 . S
O80 Fe66 1.996 . S
O80 C74 1.255 . S
C81 O85 1.295 . S
C81 O86 1.235 . S
O82 Fe67 1.976 . S
O82 C76 1.287 . S
O83 Fe69 1.996 . S
O83 C76 1.255 . S
C84 O77 1.287 . S
C84 O78 1.255 . S
O85 Fe67 2.002 . S
O85 C81 1.295 . S
O86 Fe69 1.997 . S
O86 C81 1.235 . S
C87 O70 1.295 . S
C87 O71 1.235 . S
P88 O99 1.490 . S
P88 C102 1.812 . S
P88 C108 1.803 . S
P88 C114 1.819 . S
H89 C103 0.941 . S
H90 C104 0.939 1_565 S
H91 C106 0.940 . S
H92 C107 0.940 . S
H93 C109 0.939 . S
H94 C110 0.942 . S
H95 C112 0.940 . S
H96 C113 0.939 . S
H97 C115 0.941 . S
H98 C119 0.939 . S
O99 P88 1.490 . S
H100 C116 0.939 . S
H101 C118 0.940 . S
C102 P88 1.812 . S
C102 C103 1.389 . S
C102 C107 1.391 . S
C103 H89 0.941 . S
C103 C102 1.389 . S
C103 C104 1.397 . S
C104 H90 0.939 1_545 S
C104 C103 1.397 . S
C104 C105 1.378 . S
C105 C104 1.378 . S
C105 C106 1.378 . S
C106 H91 0.940 . S
C106 C105 1.378 . S
C106 C107 1.396 . S
C107 H92 0.940 . S
C107 C102 1.391 . S
C107 C106 1.396 . S
C108 P88 1.803 . S
C108 C109 1.378 . S
C108 C113 1.400 . S
C109 H93 0.939 . S
C109 C108 1.378 . S
C109 C110 1.361 . S
C110 H94 0.942 . S
C110 C109 1.361 . S
C110 C111 1.369 . S
C111 C110 1.369 . S
C111 C112 1.404 . S
C112 H95 0.940 . S
C112 C111 1.404 . S
C112 C113 1.389 . S
C113 H96 0.939 . S
C113 C108 1.400 . S
C113 C112 1.389 . S
C114 P88 1.819 . S
C114 C115 1.391 1_455 S
C114 C119 1.391 . S
C115 H97 0.941 . S
C115 C114 1.391 1_655 S
C115 C116 1.396 . S
C116 H100 0.939 . S
C116 C115 1.396 . S
C116 C117 1.397 . S
C117 C116 1.397 . S
C117 C118 1.385 1_655 S
C118 H101 0.940 . S
C118 C117 1.385 1_455 S
C118 C119 1.388 . S
C119 H98 0.939 . S
C119 C114 1.391 . S
C119 C118 1.388 . S
P120 O131 1.490 . S
P120 C134 1.812 . S
P120 C140 1.803 . S
P120 C146 1.819 . S
H121 C135 0.941 . S
H122 C136 0.939 . S
H123 C138 0.940 . S
H124 C139 0.940 . S
H125 C141 0.939 . S
H126 C142 0.942 1_554 S
H127 C144 0.940 . S
H128 C145 0.939 . S
H129 C147 0.941 . S
H130 C151 0.939 . S
O131 P120 1.490 . S
H132 C148 0.939 . S
H133 C150 0.940 . S
C134 P120 1.812 . S
C134 C135 1.389 . S
C134 C139 1.391 . S
C135 H121 0.941 . S
C135 C134 1.389 . S
C135 C136 1.397 . S
C136 H122 0.939 . S
C136 C135 1.397 . S
C136 C137 1.378 . S
C137 C136 1.378 . S
C137 C138 1.378 . S
C138 H123 0.940 . S
C138 C137 1.378 . S
C138 C139 1.396 . S
C139 H124 0.940 . S
C139 C134 1.391 . S
C139 C138 1.396 . S
C140 P120 1.803 . S
C140 C141 1.378 . S
C140 C145 1.400 . S
C141 H125 0.939 . S
C141 C140 1.378 . S
C141 C142 1.361 . S
C142 H126 0.942 1_556 S
C142 C141 1.361 . S
C142 C143 1.369 . S
C143 C142 1.369 . S
C143 C144 1.404 . S
C144 H127 0.940 . S
C144 C143 1.404 . S
C144 C145 1.389 . S
C145 H128 0.939 . S
C145 C140 1.400 . S
C145 C144 1.389 . S
C146 P120 1.819 . S
C146 C147 1.391 . S
C146 C151 1.391 . S
C147 H129 0.941 . S
C147 C146 1.391 . S
C147 C148 1.396 . S
C148 H132 0.939 . S
C148 C147 1.396 . S
C148 C149 1.397 . S
C149 C148 1.397 . S
C149 C150 1.385 . S
C150 H133 0.940 . S
C150 C149 1.385 . S
C150 C151 1.388 . S
C151 H130 0.939 . S
C151 C146 1.391 . S
C151 C150 1.388 . S
P152 O163 1.490 . S
P152 C166 1.812 . S
P152 C172 1.803 . S
P152 C178 1.819 . S
H153 C167 0.941 . S
H154 C168 0.939 . S
H155 C170 0.940 . S
H156 C171 0.940 . S
H157 C173 0.939 . S
H158 C174 0.942 . S
H159 C176 0.940 . S
H160 C177 0.939 . S
H161 C179 0.941 . S
H162 C183 0.939 . S
O163 P152 1.490 . S
H164 C180 0.939 . S
H165 C182 0.940 . S
C166 P152 1.812 . S
C166 C167 1.389 . S
C166 C171 1.391 . S
C167 H153 0.941 . S
C167 C166 1.389 . S
C167 C168 1.397 . S
C168 H154 0.939 . S
C168 C167 1.397 . S
C168 C169 1.378 . S
C169 C168 1.378 . S
C169 C170 1.378 . S
C170 H155 0.940 . S
C170 C169 1.378 . S
C170 C171 1.396 . S
C171 H156 0.940 . S
C171 C166 1.391 . S
C171 C170 1.396 . S
C172 P152 1.803 . S
C172 C173 1.378 . S
C172 C177 1.400 . S
C173 H157 0.939 . S
C173 C172 1.378 . S
C173 C174 1.361 . S
C174 H158 0.942 . S
C174 C173 1.361 . S
C174 C175 1.369 . S
C175 C174 1.369 . S
C175 C176 1.404 . S
C176 H159 0.940 . S
C176 C175 1.404 . S
C176 C177 1.389 . S
C177 H160 0.939 . S
C177 C172 1.400 . S
C177 C176 1.389 . S
C178 P152 1.819 . S
C178 C179 1.391 . S
C178 C183 1.391 . S
C179 H161 0.941 . S
C179 C178 1.391 . S
C179 C180 1.396 . S
C180 H164 0.939 . S
C180 C179 1.396 . S
C180 C181 1.397 . S
C181 C180 1.397 . S
C181 C182 1.385 . S
C182 H165 0.940 . S
C182 C181 1.385 . S
C182 C183 1.388 . S
C183 H162 0.939 . S
C183 C178 1.391 . S
C183 C182 1.388 . S
P184 O195 1.490 . S
P184 C198 1.812 . S
P184 C204 1.803 . S
P184 C210 1.819 . S
H185 C199 0.941 . S
H186 C200 0.939 . S
H187 C202 0.940 . S
H188 C203 0.940 . S
H189 C205 0.939 . S
H190 C206 0.942 . S
H191 C208 0.940 . S
H192 C209 0.939 . S
H193 C211 0.941 . S
H194 C215 0.939 . S
O195 P184 1.490 . S
H196 C212 0.939 . S
H197 C214 0.940 . S
C198 P184 1.812 . S
C198 C199 1.389 . S
C198 C203 1.391 . S
C199 H185 0.941 . S
C199 C198 1.389 . S
C199 C200 1.397 . S
C200 H186 0.939 . S
C200 C199 1.397 . S
C200 C201 1.378 . S
C201 C200 1.378 . S
C201 C202 1.378 . S
C202 H187 0.940 . S
C202 C201 1.378 . S
C202 C203 1.396 . S
C203 H188 0.940 . S
C203 C198 1.391 . S
C203 C202 1.396 . S
C204 P184 1.803 . S
C204 C205 1.378 . S
C204 C209 1.400 . S
C205 H189 0.939 . S
C205 C204 1.378 . S
C205 C206 1.361 . S
C206 H190 0.942 . S
C206 C205 1.361 . S
C206 C207 1.369 . S
C207 C206 1.369 . S
C207 C208 1.404 . S
C208 H191 0.940 . S
C208 C207 1.404 . S
C208 C209 1.389 . S
C209 H192 0.939 . S
C209 C204 1.400 . S
C209 C208 1.389 . S
C210 P184 1.819 . S
C210 C211 1.391 . S
C210 C215 1.391 . S
C211 H193 0.941 . S
C211 C210 1.391 . S
C211 C212 1.396 . S
C212 H196 0.939 . S
C212 C211 1.396 . S
C212 C213 1.397 . S
C213 C212 1.397 . S
C213 C214 1.385 . S
C214 H197 0.940 . S
C214 C213 1.385 . S
C214 C215 1.388 . S
C215 H194 0.939 . S
C215 C210 1.391 . S
C215 C214 1.388 . S
P216 O227 1.490 . S
P216 C230 1.812 . S
P216 C236 1.803 . S
P216 C242 1.819 . S
H217 C231 0.941 . S
H218 C232 0.939 . S
H219 C234 0.940 . S
H220 C235 0.940 . S
H221 C237 0.939 . S
H222 C238 0.942 . S
H223 C240 0.940 . S
H224 C241 0.939 . S
H225 C243 0.941 . S
H226 C247 0.939 . S
O227 P216 1.490 . S
H228 C244 0.939 . S
H229 C246 0.940 . S
C230 P216 1.812 . S
C230 C231 1.389 . S
C230 C235 1.391 . S
C231 H217 0.941 . S
C231 C230 1.389 . S
C231 C232 1.397 . S
C232 H218 0.939 . S
C232 C231 1.397 . S
C232 C233 1.378 . S
C233 C232 1.378 . S
C233 C234 1.378 . S
C234 H219 0.940 . S
C234 C233 1.378 . S
C234 C235 1.396 . S
C235 H220 0.940 . S
C235 C230 1.391 . S
C235 C234 1.396 . S
C236 P216 1.803 . S
C236 C237 1.378 . S
C236 C241 1.400 . S
C237 H221 0.939 . S
C237 C236 1.378 . S
C237 C238 1.361 . S
C238 H222 0.942 . S
C238 C237 1.361 . S
C238 C239 1.369 . S
C239 C238 1.369 . S
C239 C240 1.404 . S
C240 H223 0.940 . S
C240 C239 1.404 . S
C240 C241 1.389 . S
C241 H224 0.939 . S
C241 C236 1.400 . S
C241 C240 1.389 . S
C242 P216 1.819 . S
C242 C243 1.391 . S
C242 C247 1.391 . S
C243 H225 0.941 . S
C243 C242 1.391 . S
C243 C244 1.396 . S
C244 H228 0.939 . S
C244 C243 1.396 . S
C244 C245 1.397 . S
C245 C244 1.397 . S
C245 C246 1.385 . S
C246 H229 0.940 . S
C246 C245 1.385 . S
C246 C247 1.388 . S
C247 H226 0.939 . S
C247 C242 1.391 . S
C247 C246 1.388 . S
P248 O259 1.490 1_556 S
P248 C262 1.812 . S
P248 C268 1.803 . S
P248 C274 1.819 . S
H249 C263 0.941 1_554 S
H250 C264 0.939 1_554 S
H251 C266 0.940 . S
H252 C267 0.940 . S
H253 C269 0.939 . S
H254 C270 0.942 . S
H255 C272 0.940 . S
H256 C273 0.939 . S
H257 C275 0.941 . S
H258 C279 0.939 . S
O259 P248 1.490 1_554 S
H260 C276 0.939 . S
H261 C278 0.940 . S
C262 P248 1.812 . S
C262 C263 1.389 . S
C262 C267 1.391 . S
C263 H249 0.941 1_556 S
C263 C262 1.389 . S
C263 C264 1.397 . S
C264 H250 0.939 1_556 S
C264 C263 1.397 . S
C264 C265 1.378 . S
C265 C264 1.378 . S
C265 C266 1.378 . S
C266 H251 0.940 . S
C266 C265 1.378 . S
C266 C267 1.396 . S
C267 H252 0.940 . S
C267 C262 1.391 . S
C267 C266 1.396 . S
C268 P248 1.803 . S
C268 C269 1.378 . S
C268 C273 1.400 . S
C269 H253 0.939 . S
C269 C268 1.378 . S
C269 C270 1.361 . S
C270 H254 0.942 . S
C270 C269 1.361 . S
C270 C271 1.369 . S
C271 C270 1.369 . S
C271 C272 1.404 . S
C272 H255 0.940 . S
C272 C271 1.404 . S
C272 C273 1.389 . S
C273 H256 0.939 . S
C273 C268 1.400 . S
C273 C272 1.389 . S
C274 P248 1.819 . S
C274 C275 1.391 1_556 S
C274 C279 1.391 . S
C275 H257 0.941 . S
C275 C274 1.391 1_554 S
C275 C276 1.396 . S
C276 H260 0.939 . S
C276 C275 1.396 . S
C276 C277 1.397 1_554 S
C277 C276 1.397 1_556 S
C277 C278 1.385 . S
C278 H261 0.940 . S
C278 C277 1.385 . S
C278 C279 1.388 . S
C279 H258 0.939 . S
C279 C274 1.391 . S
C279 C278 1.388 . S
P280 O291 1.490 . S
P280 C294 1.812 . S
P280 C300 1.803 . S
P280 C306 1.819 . S
H281 C295 0.941 . S
H282 C296 0.939 . S
H283 C298 0.940 . S
H284 C299 0.940 . S
H285 C301 0.939 . S
H286 C302 0.942 . S
H287 C304 0.940 . S
H288 C305 0.939 . S
H289 C307 0.941 . S
H290 C311 0.939 . S
O291 P280 1.490 . S
H292 C308 0.939 . S
H293 C310 0.940 . S
C294 P280 1.812 . S
C294 C295 1.389 . S
C294 C299 1.391 . S
C295 H281 0.941 . S
C295 C294 1.389 . S
C295 C296 1.397 . S
C296 H282 0.939 . S
C296 C295 1.397 . S
C296 C297 1.378 . S
C297 C296 1.378 . S
C297 C298 1.378 . S
C298 H283 0.940 . S
C298 C297 1.378 . S
C298 C299 1.396 . S
C299 H284 0.940 . S
C299 C294 1.391 . S
C299 C298 1.396 . S
C300 P280 1.803 . S
C300 C301 1.378 . S
C300 C305 1.400 . S
C301 H285 0.939 . S
C301 C300 1.378 . S
C301 C302 1.361 . S
C302 H286 0.942 . S
C302 C301 1.361 . S
C302 C303 1.369 . S
C303 C302 1.369 . S
C303 C304 1.404 . S
C304 H287 0.940 . S
C304 C303 1.404 . S
C304 C305 1.389 . S
C305 H288 0.939 . S
C305 C300 1.400 . S
C305 C304 1.389 . S
C306 P280 1.819 . S
C306 C307 1.391 . S
C306 C311 1.391 . S
C307 H289 0.941 . S
C307 C306 1.391 . S
C307 C308 1.396 . S
C308 H292 0.939 . S
C308 C307 1.396 . S
C308 C309 1.397 . S
C309 C308 1.397 . S
C309 C310 1.385 . S
C310 H293 0.940 . S
C310 C309 1.385 . S
C310 C311 1.388 . S
C311 H290 0.939 . S
C311 C306 1.391 . S
C311 C310 1.388 . S
P312 O323 1.490 . S
P312 C326 1.812 . S
P312 C332 1.803 . S
P312 C338 1.819 . S
H313 C327 0.941 . S
H314 C328 0.939 . S
H315 C330 0.940 . S
H316 C331 0.940 . S
H317 C333 0.939 . S
H318 C334 0.942 . S
H319 C336 0.940 . S
H320 C337 0.939 . S
H321 C339 0.941 . S
H322 C343 0.939 . S
O323 P312 1.490 . S
H324 C340 0.939 1_455 S
H325 C342 0.940 . S
C326 P312 1.812 . S
C326 C327 1.389 . S
C326 C331 1.391 . S
C327 H313 0.941 . S
C327 C326 1.389 . S
C327 C328 1.397 . S
C328 H314 0.939 . S
C328 C327 1.397 . S
C328 C329 1.378 . S
C329 C328 1.378 . S
C329 C330 1.378 . S
C330 H315 0.940 . S
C330 C329 1.378 . S
C330 C331 1.396 . S
C331 H316 0.940 . S
C331 C326 1.391 . S
C331 C330 1.396 . S
C332 P312 1.803 . S
C332 C333 1.378 . S
C332 C337 1.400 . S
C333 H317 0.939 . S
C333 C332 1.378 . S
C333 C334 1.361 . S
C334 H318 0.942 . S
C334 C333 1.361 . S
C334 C335 1.369 . S
C335 C334 1.369 . S
C335 C336 1.404 . S
C336 H319 0.940 . S
C336 C335 1.404 . S
C336 C337 1.389 . S
C337 H320 0.939 . S
C337 C332 1.400 . S
C337 C336 1.389 . S
C338 P312 1.819 . S
C338 C339 1.391 . S
C338 C343 1.391 . S
C339 H321 0.941 . S
C339 C338 1.391 . S
C339 C340 1.396 . S
C340 H324 0.939 1_655 S
C340 C339 1.396 . S
C340 C341 1.397 1_655 S
C341 C340 1.397 1_455 S
C341 C342 1.385 . S
C342 H325 0.940 . S
C342 C341 1.385 . S
C342 C343 1.388 1_455 S
C343 H322 0.939 . S
C343 C338 1.391 . S
C343 C342 1.388 1_655 S
C344 C345 1.363 . S
C344 C350 1.379 . S
C344 N352 1.356 . S
C345 C344 1.363 . S
C345 C351 1.363 . S
C346 C347 1.363 . S
C346 C351 1.379 . S
C346 N353 1.356 1_565 S
C347 C346 1.363 . S
C347 C350 1.363 . S
N348 C350 1.356 . S
N348 H360 0.984 . S
N348 H361 0.985 . S
N349 C351 1.356 . S
N349 H354 0.984 . S
N349 H355 0.985 . S
C350 C344 1.379 . S
C350 C347 1.363 . S
C350 N348 1.356 . S
C351 C345 1.363 . S
C351 C346 1.379 . S
C351 N349 1.356 . S
N352 C344 1.356 . S
N352 H358 0.984 . S
N352 H359 0.984 . S
N353 C346 1.356 1_545 S
N353 H356 0.984 . S
N353 H357 0.985 . S
H354 N349 0.984 . S
H355 N349 0.985 . S
H356 N353 0.984 . S
H357 N353 0.985 . S
H358 N352 0.984 . S
H359 N352 0.984 . S
H360 N348 0.984 . S
H361 N348 0.985 . S
C362 C363 1.363 . S
C362 C368 1.379 . S
C362 N370 1.356 . S
C363 C362 1.363 . S
C363 C369 1.363 . S
C364 C365 1.363 . S
C364 C369 1.379 . S
C364 N371 1.356 . S
C365 C364 1.363 . S
C365 C368 1.363 . S
N366 C368 1.356 . S
N366 H378 0.984 . S
N366 H379 0.985 . S
N367 C369 1.356 . S
N367 H372 0.984 . S
N367 H373 0.985 . S
C368 C362 1.379 . S
C368 C365 1.363 . S
C368 N366 1.356 . S
C369 C363 1.363 . S
C369 C364 1.379 . S
C369 N367 1.356 . S
N370 C362 1.356 . S
N370 H376 0.984 . S
N370 H377 0.984 . S
N371 C364 1.356 . S
N371 H374 0.984 . S
N371 H375 0.985 . S
H372 N367 0.984 . S
H373 N367 0.985 . S
H374 N371 0.984 . S
H375 N371 0.985 . S
H376 N370 0.984 . S
H377 N370 0.984 . S
H378 N366 0.984 . S
H379 N366 0.985 . S
C380 C381 1.363 . S
C380 C386 1.379 1_545 S
C380 N388 1.356 . S
C381 C380 1.363 . S
C381 C387 1.363 . S
C382 C383 1.363 1_545 S
C382 C387 1.379 . S
C382 N389 1.356 1_545 S
C383 C382 1.363 1_565 S
C383 C386 1.363 . S
N384 C386 1.356 . S
N384 H396 0.984 . S
N384 H397 0.985 . S
N385 C387 1.356 . S
N385 H390 0.984 . S
N385 H391 0.985 1_554 S
C386 C380 1.379 1_565 S
C386 C383 1.363 . S
C386 N384 1.356 . S
C387 C381 1.363 . S
C387 C382 1.379 . S
C387 N385 1.356 . S
N388 C380 1.356 . S
N388 H394 0.984 . S
N388 H395 0.984 . S
N389 C382 1.356 1_565 S
N389 H392 0.984 . S
N389 H393 0.985 1_554 S
H390 N385 0.984 . S
H391 N385 0.985 1_556 S
H392 N389 0.984 . S
H393 N389 0.985 1_556 S
H394 N388 0.984 . S
H395 N388 0.984 . S
H396 N384 0.984 . S
H397 N384 0.985 . S
C398 C399 1.363 . S
C398 C404 1.379 . S
C398 N406 1.356 . S
C399 C398 1.363 . S
C399 C405 1.363 . S
C400 C401 1.363 . S
C400 C405 1.379 . S
C400 N407 1.356 . S
C401 C400 1.363 . S
C401 C404 1.363 . S
N402 C404 1.356 . S
N402 H414 0.984 . S
N402 H415 0.985 . S
N403 C405 1.356 . S
N403 H408 0.984 . S
N403 H409 0.985 . S
C404 C398 1.379 . S
C404 C401 1.363 . S
C404 N402 1.356 . S
C405 C399 1.363 . S
C405 C400 1.379 . S
C405 N403 1.356 . S
N406 C398 1.356 . S
N406 H412 0.984 . S
N406 H413 0.984 . S
N407 C400 1.356 . S
N407 H410 0.984 . S
N407 H411 0.985 . S
H408 N403 0.984 . S
H409 N403 0.985 . S
H410 N407 0.984 . S
H411 N407 0.985 . S
H412 N406 0.984 . S
H413 N406 0.984 . S
H414 N402 0.984 . S
H415 N402 0.985 . S
C416 C417 1.363 . S
C416 C422 1.379 . S
C416 N424 1.356 . S
C417 C416 1.363 . S
C417 C423 1.363 . S
C418 C419 1.363 . S
C418 C423 1.379 . S
C418 N425 1.356 . S
C419 C418 1.363 . S
C419 C422 1.363 . S
N420 C422 1.356 . S
N420 H432 0.984 . S
N420 H433 0.985 . S
N421 C423 1.356 . S
N421 H426 0.984 . S
N421 H427 0.985 . S
C422 C416 1.379 . S
C422 C419 1.363 . S
C422 N420 1.356 . S
C423 C417 1.363 . S
C423 C418 1.379 . S
C423 N421 1.356 . S
N424 C416 1.356 . S
N424 H430 0.984 . S
N424 H431 0.984 . S
N425 C418 1.356 . S
N425 H428 0.984 . S
N425 H429 0.985 . S
H426 N421 0.984 . S
H427 N421 0.985 . S
H428 N425 0.984 . S
H429 N425 0.985 . S
H430 N424 0.984 . S
H431 N424 0.984 . S
H432 N420 0.984 . S
H433 N420 0.985 . S
C434 C435 1.363 1_455 S
C434 C440 1.379 . S
C434 N442 1.356 1_455 S
C435 C434 1.363 1_655 S
C435 C441 1.363 1_656 S
C436 C437 1.361 1_554 S
C436 C441 1.379 . S
C436 N443 1.357 . S
C437 C436 1.361 1_556 S
C437 C440 1.363 . S
N438 C440 1.356 . S
N438 H450 0.984 . S
N438 H451 0.985 . S
N439 C441 1.356 1_655 S
N439 H444 0.984 . S
N439 H445 0.985 . S
C440 C434 1.379 . S
C440 C437 1.363 . S
C440 N438 1.356 . S
C441 C435 1.363 1_454 S
C441 C436 1.379 . S
C441 N439 1.356 1_455 S
N442 C434 1.356 1_655 S
N442 H448 0.984 . S
N442 H449 0.984 . S
N443 C436 1.357 . S
N443 H446 0.984 . S
N443 H447 0.985 . S
H444 N439 0.984 . S
H445 N439 0.985 . S
H446 N443 0.984 . S
H447 N443 0.985 . S
H448 N442 0.984 . S
H449 N442 0.984 . S
H450 N438 0.984 . S
H451 N438 0.985 . S
C452 C453 1.363 . S
C452 C458 1.379 . S
C452 N460 1.356 . S
C453 C452 1.363 . S
C453 C459 1.363 . S
C454 C455 1.363 . S
C454 C459 1.379 . S
C454 N461 1.356 . S
C455 C454 1.363 . S
C455 C458 1.363 . S
N456 C458 1.356 . S
N456 H468 0.984 . S
N456 H469 0.985 . S
N457 C459 1.356 . S
N457 H462 0.984 . S
N457 H463 0.985 . S
C458 C452 1.379 . S
C458 C455 1.363 . S
C458 N456 1.356 . S
C459 C453 1.363 . S
C459 C454 1.379 . S
C459 N457 1.356 . S
N460 C452 1.356 . S
N460 H466 0.984 . S
N460 H467 0.984 . S
N461 C454 1.356 . S
N461 H464 0.984 . S
N461 H465 0.985 . S
H462 N457 0.984 . S
H463 N457 0.985 . S
H464 N461 0.984 . S
H465 N461 0.985 . S
H466 N460 0.984 . S
H467 N460 0.984 . S
H468 N456 0.984 . S
H469 N456 0.985 . S
C470 C471 1.363 . S
C470 C476 1.379 . S
C470 N478 1.356 . S
C471 C470 1.363 . S
C471 C477 1.363 . S
C472 C473 1.363 . S
C472 C477 1.379 . S
C472 N479 1.356 . S
C473 C472 1.363 . S
C473 C476 1.363 . S
N474 C476 1.356 . S
N474 H486 0.984 . S
N474 H487 0.985 . S
N475 C477 1.356 . S
N475 H480 0.984 . S
N475 H481 0.985 . S
C476 C470 1.379 . S
C476 C473 1.363 . S
C476 N474 1.356 . S
C477 C471 1.363 . S
C477 C472 1.379 . S
C477 N475 1.356 . S
N478 C470 1.356 . S
N478 H484 0.984 . S
N478 H485 0.984 . S
N479 C472 1.356 . S
N479 H482 0.984 . S
N479 H483 0.985 . S
H480 N475 0.984 . S
H481 N475 0.985 . S
H482 N479 0.984 . S
H483 N479 0.985 . S
H484 N478 0.984 . S
H485 N478 0.984 . S
H486 N474 0.984 . S
H487 N474 0.985 . S
C488 C489 1.363 . S
C488 C494 1.379 . S
C488 N496 1.356 . S
C489 C488 1.363 . S
C489 C495 1.363 . S
C490 C491 1.363 . S
C490 C495 1.379 . S
C490 N497 1.356 . S
C491 C490 1.363 . S
C491 C494 1.363 . S
N492 C494 1.356 1_565 S
N492 H504 0.984 . S
N492 H505 0.985 . S
N493 C495 1.356 . S
N493 H498 0.984 . S
N493 H499 0.985 . S
C494 C488 1.379 . S
C494 C491 1.363 . S
C494 N492 1.356 1_545 S
C495 C489 1.363 . S
C495 C490 1.379 . S
C495 N493 1.356 . S
N496 C488 1.356 . S
N496 H502 0.984 . S
N496 H503 0.984 . S
N497 C490 1.356 . S
N497 H500 0.984 . S
N497 H501 0.985 . S
H498 N493 0.984 . S
H499 N493 0.985 . S
H500 N497 0.984 . S
H501 N497 0.985 . S
H502 N496 0.984 . S
H503 N496 0.984 . S
H504 N492 0.984 . S
H505 N492 0.985 . S
C506 C507 1.363 . S
C506 C512 1.379 . S
C506 N514 1.356 . S
C507 C506 1.363 . S
C507 C513 1.363 . S
C508 C509 1.363 . S
C508 C513 1.379 . S
C508 N515 1.356 . S
C509 C508 1.363 . S
C509 C512 1.363 . S
N510 C512 1.356 . S
N510 H522 0.984 . S
N510 H523 0.985 . S
N511 C513 1.356 . S
N511 H516 0.984 . S
N511 H517 0.985 . S
C512 C506 1.379 . S
C512 C509 1.363 . S
C512 N510 1.356 . S
C513 C507 1.363 . S
C513 C508 1.379 . S
C513 N511 1.356 . S
N514 C506 1.356 . S
N514 H520 0.984 . S
N514 H521 0.984 . S
N515 C508 1.356 . S
N515 H518 0.984 . S
N515 H519 0.985 . S
H516 N511 0.984 . S
H517 N511 0.985 . S
H518 N515 0.984 . S
H519 N515 0.985 . S
H520 N514 0.984 . S
H521 N514 0.984 . S
H522 N510 0.984 . S
H523 N510 0.985 . S
C524 C525 1.363 1_556 S
C524 C530 1.379 . S
C524 N532 1.356 . S
C525 C524 1.363 1_554 S
C525 C531 1.363 . S
C526 C527 1.363 1_554 S
C526 C531 1.379 1_545 S
C526 N533 1.356 . S
C527 C526 1.363 1_556 S
C527 C530 1.363 1_545 S
N528 C530 1.356 . S
N528 H540 0.984 . S
N528 H541 0.985 1_565 S
N529 C531 1.356 . S
N529 H534 0.984 . S
N529 H535 1.004 . S
C530 C524 1.379 . S
C530 C527 1.363 1_565 S
C530 N528 1.356 . S
C531 C525 1.363 . S
C531 C526 1.379 1_565 S
C531 N529 1.356 . S
N532 C524 1.356 . S
N532 H538 0.984 . S
N532 H539 0.984 . S
N533 C526 1.356 . S
N533 H536 0.984 . S
N533 H537 0.985 . S
H534 N529 0.984 . S
H535 N529 1.004 . S
H536 N533 0.984 . S
H537 N533 0.985 . S
H538 N532 0.984 . S
H539 N532 0.984 . S
H540 N528 0.984 . S
H541 N528 0.985 1_545 S
C542 C543 1.363 . S
C542 C548 1.379 . S
C542 N550 1.356 . S
C543 C542 1.363 . S
C543 C549 1.363 . S
C544 C545 1.363 . S
C544 C549 1.379 . S
C544 N551 1.356 . S
C545 C544 1.363 . S
C545 C548 1.363 . S
N546 C548 1.356 . S
N546 H558 0.984 . S
N546 H559 0.985 . S
N547 C549 1.356 . S
N547 H552 0.984 . S
N547 H553 0.985 . S
C548 C542 1.379 . S
C548 C545 1.363 . S
C548 N546 1.356 . S
C549 C543 1.363 . S
C549 C544 1.379 . S
C549 N547 1.356 . S
N550 C542 1.356 . S
N550 H556 0.984 . S
N550 H557 0.984 . S
N551 C544 1.356 . S
N551 H554 0.984 . S
N551 H555 0.985 . S
H552 N547 0.984 . S
H553 N547 0.985 . S
H554 N551 0.984 . S
H555 N551 0.985 . S
H556 N550 0.984 . S
H557 N550 0.984 . S
H558 N546 0.984 . S
H559 N546 0.985 . S
C560 C561 1.363 . S
C560 C566 1.379 . S
C560 N568 1.356 . S
C561 C560 1.363 . S
C561 C567 1.363 . S
C562 C563 1.363 . S
C562 C567 1.379 . S
C562 N569 1.356 . S
C563 C562 1.363 . S
C563 C566 1.363 . S
N564 C566 1.356 . S
N564 H576 0.984 . S
N564 H577 0.985 . S
N565 C567 1.356 . S
N565 H570 0.984 . S
N565 H571 0.985 . S
C566 C560 1.379 . S
C566 C563 1.363 . S
C566 N564 1.356 . S
C567 C561 1.363 . S
C567 C562 1.379 . S
C567 N565 1.356 . S
N568 C560 1.356 . S
N568 H574 0.984 . S
N568 H575 0.984 . S
N569 C562 1.356 . S
N569 H572 0.984 . S
N569 H573 0.985 . S
H570 N565 0.984 . S
H571 N565 0.985 . S
H572 N569 0.984 . S
H573 N569 0.985 . S
H574 N568 0.984 . S
H575 N568 0.984 . S
H576 N564 0.984 . S
H577 N564 0.985 . S
C578 C579 1.363 1_655 S
C578 C584 1.379 . S
C578 N586 1.356 1_655 S
C579 C578 1.363 1_455 S
C579 C585 1.363 1_455 S
C580 C581 1.363 . S
C580 C585 1.379 . S
C580 N587 1.356 . S
C581 C580 1.363 . S
C581 C584 1.363 . S
N582 C584 1.356 . S
N582 H594 0.984 . S
N582 H595 0.985 . S
N583 C585 1.356 1_455 S
N583 H588 0.984 . S
N583 H589 0.985 . S
C584 C578 1.379 . S
C584 C581 1.363 . S
C584 N582 1.356 . S
C585 C579 1.363 1_655 S
C585 C580 1.379 . S
C585 N583 1.356 1_655 S
N586 C578 1.356 1_455 S
N586 H592 0.984 . S
N586 H593 0.984 . S
N587 C580 1.356 . S
N587 H590 0.984 . S
N587 H591 0.985 . S
H588 N583 0.984 . S
H589 N583 0.985 . S
H590 N587 0.984 . S
H591 N587 0.985 . S
H592 N586 0.984 . S
H593 N586 0.984 . S
H594 N582 0.984 . S
H595 N582 0.985 . S
C596 C597 1.363 . S
C596 C602 1.379 . S
C596 N604 1.356 . S
C597 C596 1.363 . S
C597 C603 1.363 . S
C598 C599 1.363 . S
C598 C603 1.379 . S
C598 N605 1.356 . S
C599 C598 1.363 . S
C599 C602 1.363 . S
N600 C602 1.356 . S
N600 H612 0.984 . S
N600 H613 0.985 . S
N601 C603 1.356 . S
N601 H606 0.984 . S
N601 H607 0.985 . S
C602 C596 1.379 . S
C602 C599 1.363 . S
C602 N600 1.356 . S
C603 C597 1.363 . S
C603 C598 1.379 . S
C603 N601 1.356 . S
N604 C596 1.356 . S
N604 H610 0.984 . S
N604 H611 0.984 . S
N605 C598 1.356 . S
N605 H608 0.984 . S
N605 H609 0.985 . S
H606 N601 0.984 . S
H607 N601 0.985 . S
H608 N605 0.984 . S
H609 N605 0.985 . S
H610 N604 0.984 . S
H611 N604 0.984 . S
H612 N600 0.984 . S
H613 N600 0.985 . S
C614 C615 1.363 . S
C614 C620 1.379 . S
C614 N622 1.356 . S
C615 C614 1.363 . S
C615 C621 1.363 . S
C616 C617 1.363 . S
C616 C621 1.379 . S
C616 N623 1.356 . S
C617 C616 1.363 . S
C617 C620 1.363 . S
N618 C620 1.356 . S
N618 H630 0.984 . S
N618 H631 0.985 . S
N619 C621 1.356 . S
N619 H624 0.984 . S
N619 H625 0.985 . S
C620 C614 1.379 . S
C620 C617 1.363 . S
C620 N618 1.356 . S
C621 C615 1.363 . S
C621 C616 1.379 . S
C621 N619 1.356 . S
N622 C614 1.356 . S
N622 H628 0.984 . S
N622 H629 0.984 . S
N623 C616 1.356 . S
N623 H626 0.984 . S
N623 H627 0.985 . S
H624 N619 0.984 . S
H625 N619 0.985 . S
H626 N623 0.984 . S
H627 N623 0.985 . S
H628 N622 0.984 . S
H629 N622 0.984 . S
H630 N618 0.984 . S
H631 N618 0.985 . S
C632 C633 1.363 . S
C632 C638 1.379 . S
C632 N640 1.356 . S
C633 C632 1.363 . S
C633 C639 1.363 . S
C634 C635 1.363 . S
C634 C639 1.379 . S
C634 N641 1.356 . S
C635 C634 1.363 . S
C635 C638 1.363 . S
N636 C638 1.356 . S
N636 H648 0.984 . S
N636 H649 0.985 . S
N637 C639 1.356 . S
N637 H642 0.984 . S
N637 H643 0.985 . S
C638 C632 1.379 . S
C638 C635 1.363 . S
C638 N636 1.356 . S
C639 C633 1.363 . S
C639 C634 1.379 . S
C639 N637 1.356 . S
N640 C632 1.356 . S
N640 H646 0.984 . S
N640 H647 0.984 . S
N641 C634 1.356 . S
N641 H644 0.984 . S
N641 H645 0.985 . S
H642 N637 0.984 . S
H643 N637 0.985 . S
H644 N641 0.984 . S
H645 N641 0.985 . S
H646 N640 0.984 . S
H647 N640 0.984 . S
H648 N636 0.984 . S
H649 N636 0.985 . S
C650 C651 1.363 . S
C650 C656 1.379 . S
C650 N658 1.356 . S
C651 C650 1.363 . S
C651 C657 1.363 . S
C652 C653 1.363 . S
C652 C657 1.379 . S
C652 N659 1.356 . S
C653 C652 1.363 . S
C653 C656 1.363 . S
N654 C656 1.356 . S
N654 H666 0.984 . S
N654 H667 0.985 . S
N655 C657 1.356 . S
N655 H660 0.984 . S
N655 H661 0.985 . S
C656 C650 1.379 . S
C656 C653 1.363 . S
C656 N654 1.356 . S
C657 C651 1.363 . S
C657 C652 1.379 . S
C657 N655 1.356 . S
N658 C650 1.356 . S
N658 H664 0.984 . S
N658 H665 0.984 . S
N659 C652 1.356 . S
N659 H662 0.984 . S
N659 H663 0.985 . S
H660 N655 0.984 . S
H661 N655 0.985 . S
H662 N659 0.984 . S
H663 N659 0.985 . S
H664 N658 0.984 . S
H665 N658 0.984 . S
H666 N654 0.984 . S
H667 N654 0.985 . S
C668 C669 1.363 . S
C668 C674 1.379 . S
C668 N676 1.356 . S
C669 C668 1.363 . S
C669 C675 1.363 . S
C670 C671 1.363 . S
C670 C675 1.379 . S
C670 N677 1.356 . S
C671 C670 1.363 . S
C671 C674 1.363 . S
N672 C674 1.356 . S
N672 H684 0.984 . S
N672 H685 0.985 . S
N673 C675 1.356 . S
N673 H678 0.984 . S
N673 H679 0.985 . S
C674 C668 1.379 . S
C674 C671 1.363 . S
C674 N672 1.356 . S
C675 C669 1.363 . S
C675 C670 1.379 . S
C675 N673 1.356 . S
N676 C668 1.356 . S
N676 H682 0.984 . S
N676 H683 0.984 . S
N677 C670 1.356 . S
N677 H680 0.984 . S
N677 H681 0.985 . S
H678 N673 0.984 . S
H679 N673 0.985 . S
H680 N677 0.984 . S
H681 N677 0.985 . S
H682 N676 0.984 . S
H683 N676 0.984 . S
H684 N672 0.984 . S
H685 N672 0.985 . S
C686 C687 1.363 . S
C686 C692 1.379 . S
C686 N694 1.356 . S
C687 C686 1.363 . S
C687 C693 1.363 . S
C688 C689 1.363 . S
C688 C693 1.379 . S
C688 N695 1.356 . S
C689 C688 1.363 . S
C689 C692 1.363 . S
N690 C692 1.356 . S
N690 H702 0.984 . S
N690 H703 0.985 . S
N691 C693 1.356 . S
N691 H696 0.984 . S
N691 H697 0.985 . S
C692 C686 1.379 . S
C692 C689 1.363 . S
C692 N690 1.356 . S
C693 C687 1.363 . S
C693 C688 1.379 . S
C693 N691 1.356 . S
N694 C686 1.356 . S
N694 H700 0.984 . S
N694 H701 0.984 . S
N695 C688 1.356 . S
N695 H698 0.984 . S
N695 H699 0.985 . S
H696 N691 0.984 . S
H697 N691 0.985 . S
H698 N695 0.984 . S
H699 N695 0.985 . S
H700 N694 0.984 . S
H701 N694 0.984 . S
H702 N690 0.984 . S
H703 N690 0.985 . S
C704 C705 1.363 . S
C704 C710 1.379 . S
C704 N712 1.356 . S
C705 C704 1.363 . S
C705 C711 1.363 . S
C706 C707 1.363 . S
C706 C711 1.379 . S
C706 N713 1.356 . S
C707 C706 1.363 . S
C707 C710 1.363 . S
N708 C710 1.356 . S
N708 H720 0.984 . S
N708 H721 0.985 . S
N709 C711 1.356 . S
N709 H714 0.984 . S
N709 H715 0.985 . S
C710 C704 1.379 . S
C710 C707 1.363 . S
C710 N708 1.356 . S
C711 C705 1.363 . S
C711 C706 1.379 . S
C711 N709 1.356 . S
N712 C704 1.356 . S
N712 H718 0.984 . S
N712 H719 0.984 . S
N713 C706 1.356 . S
N713 H716 0.984 . S
N713 H717 0.985 . S
H714 N709 0.984 . S
H715 N709 0.985 . S
H716 N713 0.984 . S
H717 N713 0.985 . S
H718 N712 0.984 . S
H719 N712 0.984 . S
H720 N708 0.984 . S
H721 N708 0.985 . S
C722 C723 1.363 . S
C722 C728 1.379 . S
C722 N730 1.356 . S
C723 C722 1.363 . S
C723 C729 1.363 . S
C724 C725 1.363 . S
C724 C729 1.379 . S
C724 N731 1.356 . S
C725 C724 1.363 . S
C725 C728 1.363 . S
N726 C728 1.356 . S
N726 H738 0.984 . S
N726 H739 0.985 . S
N727 C729 1.356 . S
N727 H732 0.984 . S
N727 H733 0.985 . S
C728 C722 1.379 . S
C728 C725 1.363 . S
C728 N726 1.356 . S
C729 C723 1.363 . S
C729 C724 1.379 . S
C729 N727 1.356 . S
N730 C722 1.356 . S
N730 H736 0.984 . S
N730 H737 0.984 . S
N731 C724 1.356 . S
N731 H734 0.984 . S
N731 H735 0.985 . S
H732 N727 0.984 . S
H733 N727 0.985 . S
H734 N731 0.984 . S
H735 N731 0.985 . S
H736 N730 0.984 . S
H737 N730 0.984 . S
H738 N726 0.984 . S
H739 N726 0.985 . S
C740 C741 1.363 . S
C740 C746 1.379 . S
C740 N748 1.356 . S
C741 C740 1.363 . S
C741 C747 1.363 . S
C742 C743 1.363 . S
C742 C747 1.379 . S
C742 N749 1.356 . S
C743 C742 1.363 . S
C743 C746 1.363 . S
N744 C746 1.356 . S
N744 H756 0.984 . S
N744 H757 0.985 . S
N745 C747 1.356 . S
N745 H750 0.984 . S
N745 H751 0.985 . S
C746 C740 1.379 . S
C746 C743 1.363 . S
C746 N744 1.356 . S
C747 C741 1.363 . S
C747 C742 1.379 . S
C747 N745 1.356 . S
N748 C740 1.356 . S
N748 H754 0.984 . S
N748 H755 0.984 . S
N749 C742 1.356 . S
N749 H752 0.984 . S
N749 H753 0.985 . S
H750 N745 0.984 . S
H751 N745 0.985 . S
H752 N749 0.984 . S
H753 N749 0.985 . S
H754 N748 0.984 . S
H755 N748 0.984 . S
H756 N744 0.984 . S
H757 N744 0.985 . S
C758 C759 1.363 . S
C758 C764 1.379 . S
C758 N766 1.356 . S
C759 C758 1.363 . S
C759 C765 1.363 1_556 S
C760 C761 1.363 1_554 S
C760 C765 1.379 . S
C760 N767 1.356 . S
C761 C760 1.363 1_556 S
C761 C764 1.363 . S
N762 C764 1.356 . S
N762 H774 0.984 . S
N762 H775 0.985 . S
N763 C765 1.356 . S
N763 H768 0.984 . S
N763 H769 0.985 . S
C764 C758 1.379 . S
C764 C761 1.363 . S
C764 N762 1.356 . S
C765 C759 1.363 1_554 S
C765 C760 1.379 . S
C765 N763 1.356 . S
N766 C758 1.356 . S
N766 H772 0.984 . S
N766 H773 0.984 . S
N767 C760 1.356 . S
N767 H770 0.984 . S
N767 H771 0.985 . S
H768 N763 0.984 . S
H769 N763 0.985 . S
H770 N767 0.984 . S
H771 N767 0.985 . S
H772 N766 0.984 . S
H773 N766 0.984 . S
H774 N762 0.984 . S
H775 N762 0.985 . S
C345 C7 1.628 . S
C347 C105 1.600 1_565 S
C363 C37 1.557 . S
C365 C137 1.501 . S
C381 C54 1.722 . S
C383 C169 1.510 . S
C401 C213 1.555 . S
C399 C87 1.522 . S
C419 C233 1.523 . S
C417 C30 1.541 . S
C435 C51 1.556 . S
C437 C277 1.590 . S
C453 C84 1.750 . S
C455 C297 1.531 . S
C471 C10 1.543 . S
C473 C341 1.323 . S
C489 C59 1.626 . S
C491 C329 1.456 1_545 S
C509 C245 1.523 . S
C507 C74 1.577 . S
C527 C265 1.702 . S
C525 C18 1.772 . S
C543 C32 1.533 . S
C545 C309 1.396 . S
C563 C149 1.632 . S
C561 C73 1.651 . S
C579 C15 1.536 . S
C581 C181 1.412 . S
C599 C201 1.704 . S
C597 C43 1.763 . S
C617 C117 1.510 . S
C615 C62 1.552 . S
C635 C303 1.446 . S
C633 C21 1.647 . S
C653 C335 1.309 . S
C651 C29 1.431 . S
C669 C52 1.421 . S
C671 C239 1.414 . S
C689 C271 1.641 . S
C687 C81 1.649 . S
C707 C175 1.429 . S
C705 C40 1.612 . S
C723 C65 1.618 . S
C725 C207 1.608 . S
C743 C111 1.436 . S
C741 C76 1.437 . S
C761 C143 1.449 . S
C759 C8 1.439 1_556 S
