# Generated by pormake.
# Topology rtl, (3,6)-cn, num edge types: 1
# Building blocks:
#     Node 0, Type 0, BuildingBlock: BETDAH_clean_linker_0, # of connection points: 3
#     Node 1, Type 0, BuildingBlock: BETDAH_clean_linker_0, # of connection points: 3
#     Node 2, Type 0, BuildingBlock: BETDAH_clean_linker_0, # of connection points: 3
#     Node 3, Type 0, BuildingBlock: BETDAH_clean_linker_0, # of connection points: 3
#     Node 4, Type 1, BuildingBlock: CIFDUS_clean_sbu_1, # of connection points: 6
#     Node 5, Type 1, BuildingBlock: CIFDUS_clean_sbu_1, # of connection points: 6
#     Edge 6, Type (0, 1), BuildingBlock: MIFKUJ_clean_linker_0, # of connection points: 2
#     Edge 7, Type (0, 1), BuildingBlock: MIFKUJ_clean_linker_0, # of connection points: 2
#     Edge 8, Type (0, 1), BuildingBlock: MIFKUJ_clean_linker_0, # of connection points: 2
#     Edge 9, Type (0, 1), BuildingBlock: MIFKUJ_clean_linker_0, # of connection points: 2
#     Edge 10, Type (0, 1), BuildingBlock: MIFKUJ_clean_linker_0, # of connection points: 2
#     Edge 11, Type (0, 1), BuildingBlock: MIFKUJ_clean_linker_0, # of connection points: 2
#     Edge 12, Type (0, 1), BuildingBlock: MIFKUJ_clean_linker_0, # of connection points: 2
#     Edge 13, Type (0, 1), BuildingBlock: MIFKUJ_clean_linker_0, # of connection points: 2
#     Edge 14, Type (0, 1), BuildingBlock: MIFKUJ_clean_linker_0, # of connection points: 2
#     Edge 15, Type (0, 1), BuildingBlock: MIFKUJ_clean_linker_0, # of connection points: 2
#     Edge 16, Type (0, 1), BuildingBlock: MIFKUJ_clean_linker_0, # of connection points: 2
#     Edge 17, Type (0, 1), BuildingBlock: MIFKUJ_clean_linker_0, # of connection points: 2
# Relax obj value: 0.016
# Max RMSD: 0.116
# Mean RMSD: 0.087
data_MOF--net-rtl--node1-CIFDUS_clean_sbu_1--node2-BETDAH_clean_linker_0--edge1-MIFKUJ_clean_linker_0
_symmetry_space_group_name_H-M    P1
_symmetry_Int_Tables_number       1
_symmetry_cell_setting            triclinic
loop_
_symmetry_equiv_pos_as_xyz
'x, y, z'
_cell_length_a     46.101889
_cell_length_b     46.259964
_cell_length_c     28.95534
_cell_angle_alpha  91.136638
_cell_angle_beta   98.578814
_cell_angle_gamma 90.064324
loop_
_atom_site_label
_atom_site_type_symbol
_atom_site_fract_x
_atom_site_fract_y
_atom_site_fract_z
_atom_type_partial_charge
H0 H 0.17256 0.88808 0.07084 0.0
H1 H 0.21607 0.81985 0.15266 0.0
H2 H 0.21119 0.81678 0.00404 0.0
C3 C 0.18592 0.86878 0.07301 0.0
C4 C 0.19168 0.85486 0.03161 0.0
C5 C 0.19492 0.85674 0.11709 0.0
C6 C 0.21006 0.83023 0.11941 0.0
C7 C 0.21596 0.81595 0.07867 0.0
C8 C 0.20712 0.82849 0.03516 0.0
N9 N 0.22343 0.78622 0.0803 0.0
C10 C 0.25185 0.77532 0.08598 0.0
H11 H 0.64944 0.66302 0.57402 0.0
H12 H 0.70824 0.72649 0.53124 0.0
H13 H 0.70658 0.71205 0.67739 0.0
C14 C 0.66621 0.67951 0.58284 0.0
C15 C 0.67655 0.68596 0.62985 0.0
C16 C 0.67767 0.69377 0.54706 0.0
C17 C 0.69938 0.7154 0.55866 0.0
C18 C 0.7099 0.72193 0.60608 0.0
C19 C 0.69849 0.70695 0.64103 0.0
N20 N 0.73189 0.74309 0.62124 0.0
C21 C 0.74702 0.76063 0.59429 0.0
H22 H 0.86152 0.157 0.01565 0.0
H23 H 0.81575 0.22988 0.06511 0.0
H24 H 0.82032 0.219 0.9186 0.0
C25 C 0.84856 0.17639 0.00849 0.0
C26 C 0.84172 0.18572 0.96234 0.0
C27 C 0.8395 0.19214 0.04581 0.0
C28 C 0.8225 0.21736 0.03657 0.0
C29 C 0.81512 0.22665 0.99018 0.0
C30 C 0.82513 0.21097 0.95382 0.0
N31 N 0.80008 0.25291 0.97829 0.0
C32 C 0.77856 0.26599 1.0005 0.0
H33 H 0.35551 0.38031 0.51241 0.0
H34 H 0.28681 0.33106 0.56118 0.0
H35 H 0.28379 0.34665 0.41474 0.0
C36 C 0.33563 0.36744 0.50539 0.0
C37 C 0.32168 0.36417 0.45912 0.0
C38 C 0.32341 0.35574 0.54279 0.0
C39 C 0.29679 0.33996 0.53298 0.0
C40 C 0.28259 0.3367 0.4865 0.0
C41 C 0.29501 0.34911 0.45027 0.0
N42 N 0.25454 0.32358 0.47449 0.0
C43 C 0.24361 0.29984 0.49527 0.0
O44 O 0.98786 0.04055 0.47753 0.0
Mn45 Mn 0.00912 0.01583 0.53332 0.0
O46 O 0.96544 0.00788 0.42581 0.0
Mn47 Mn 0.9783 0.97567 0.45906 0.0
O48 O 0.02961 0.9901 0.58886 0.0
O49 O 0.03925 0.0492 0.5467 0.0
Mn50 Mn 0.04585 0.05083 0.60846 0.0
O51 O 0.98155 0.03426 0.5782 0.0
O52 O 0.06358 0.01782 0.63157 0.0
O53 O 0.03793 0.99758 0.49005 0.0
O54 O 0.01392 0.96098 0.44985 0.0
O55 O 0.06877 0.07933 0.59311 0.0
O56 O 0.01199 0.05996 0.6316 0.0
C57 C 0.9583 0.9627 0.51507 0.0
C58 C 0.97149 0.03392 0.43863 0.0
C59 C 0.0512 0.99357 0.62223 0.0
C60 C 0.05823 0.07063 0.5511 0.0
C61 C 0.98662 0.05032 0.61545 0.0
C62 C 0.0373 0.9751 0.46304 0.0
O63 O 0.97828 0.98317 0.51935 0.0
O64 O 0.95133 0.95077 0.47405 0.0
O65 O 0.52843 0.54377 0.10426 0.0
Mn66 Mn 0.50774 0.51732 0.04772 0.0
O67 O 0.55555 0.51308 0.15099 0.0
Mn68 Mn 0.5433 0.48075 0.11631 0.0
O69 O 0.48636 0.4906 0.99143 0.0
O70 O 0.47407 0.54692 0.03839 0.0
Mn71 Mn 0.46578 0.54763 0.97632 0.0
O72 O 0.53236 0.53874 0.00301 0.0
O73 O 0.44549 0.51399 0.96174 0.0
O74 O 0.48197 0.49636 0.09231 0.0
O75 O 0.51042 0.46336 0.13083 0.0
O76 O 0.45406 0.58239 0.99598 0.0
O77 O 0.4977 0.55202 0.94545 0.0
C78 C 0.56233 0.46707 0.06043 0.0
C79 C 0.54639 0.53841 0.14169 0.0
C80 C 0.46071 0.49108 0.96613 0.0
C81 C 0.46647 0.57415 0.03666 0.0
C82 C 0.52447 0.54991 0.96289 0.0
C83 C 0.4856 0.47497 0.12029 0.0
O84 O 0.54119 0.48653 0.05543 0.0
O85 O 0.57111 0.45721 0.10176 0.0
H86 H 0.18737 0.30107 0.50837 0.0
H87 H 0.15432 0.2597 0.50858 0.0
H88 H 0.22664 0.20156 0.50027 0.0
H89 H 0.25958 0.24333 0.49858 0.0
H90 H 0.18168 0.18389 0.44088 0.0
H91 H 0.19414 0.21064 0.60214 0.0
H92 H 0.19557 0.2428 0.67137 0.0
H93 H 0.10427 0.26223 0.63214 0.0
H94 H 0.10239 0.23049 0.56226 0.0
H95 H 0.107 0.05952 0.51309 0.0
H96 H 0.13825 0.09846 0.49273 0.0
H97 H 0.06609 0.15799 0.48951 0.0
H98 H 0.035 0.11895 0.51049 0.0
H99 H 0.11147 0.17421 0.55379 0.0
H100 H 0.10037 0.14431 0.392 0.0
H101 H 0.10062 0.10875 0.32752 0.0
H102 H 0.19178 0.09165 0.37342 0.0
H103 H 0.19199 0.12686 0.4386 0.0
C104 C 0.1963 0.27942 0.50782 0.0
C105 C 0.22602 0.27525 0.50452 0.0
C106 C 0.1774 0.25574 0.50782 0.0
C107 C 0.18791 0.22731 0.50497 0.0
C108 C 0.21792 0.22319 0.50259 0.0
C109 C 0.23681 0.247 0.50223 0.0
C110 C 0.16727 0.20215 0.50265 0.0
C111 C 0.16659 0.18162 0.46597 0.0
C112 C 0.14715 0.1992 0.5348 0.0
C113 C 0.1482 0.2184 0.5767 0.0
C114 C 0.17443 0.22196 0.60805 0.0
C115 C 0.17531 0.24008 0.64745 0.0
C116 C 0.15005 0.25461 0.65608 0.0
C117 C 0.12383 0.25099 0.62537 0.0
C118 C 0.12284 0.23293 0.58588 0.0
C119 C 0.09722 0.08043 0.50471 0.0
C120 C 0.06843 0.08609 0.51271 0.0
C121 C 0.11529 0.1029 0.4938 0.0
C122 C 0.10472 0.13138 0.49019 0.0
C123 C 0.07486 0.13627 0.49239 0.0
C124 C 0.05684 0.11377 0.50332 0.0
C125 C 0.12551 0.15629 0.4916 0.0
C126 C 0.12638 0.17666 0.52844 0.0
C127 C 0.14605 0.15876 0.4601 0.0
C128 C 0.14614 0.13809 0.42034 0.0
C129 C 0.12043 0.13287 0.38848 0.0
C130 C 0.1205 0.11278 0.35179 0.0
C131 C 0.14618 0.09791 0.34642 0.0
C132 C 0.1719 0.10319 0.37763 0.0
C133 C 0.17196 0.12324 0.4144 0.0
H134 H 0.14617 0.08233 0.31804 0.0
H135 H 0.15077 0.26861 0.68663 0.0
H136 H 0.25188 0.71787 0.09058 0.0
H137 H 0.29404 0.68538 0.09733 0.0
H138 H 0.35214 0.75876 0.09939 0.0
H139 H 0.30946 0.79145 0.09176 0.0
H140 H 0.36655 0.71557 0.04203 0.0
H141 H 0.34637 0.7211 0.20036 0.0
H142 H 0.31452 0.71871 0.26148 0.0
H143 H 0.29401 0.62997 0.2238 0.0
H144 H 0.32545 0.63194 0.16206 0.0
H145 H 0.48766 0.62584 0.07134 0.0
H146 H 0.45597 0.66339 0.09687 0.0
H147 H 0.38952 0.59913 0.1073 0.0
H148 H 0.42182 0.56152 0.08381 0.0
H149 H 0.38256 0.64147 0.16477 0.0
H150 H 0.39499 0.63552 0.00329 0.0
H151 H 0.42207 0.63564 0.936 0.0
H152 H 0.45212 0.72218 0.97238 0.0
H153 H 0.42554 0.72241 0.04035 0.0
C154 C 0.2737 0.72704 0.09272 0.0
C155 C 0.27759 0.75703 0.09098 0.0
C156 C 0.29781 0.70848 0.09683 0.0
C157 C 0.32644 0.71954 0.0998 0.0
C158 C 0.33032 0.74968 0.09754 0.0
C159 C 0.30603 0.76834 0.09331 0.0
C160 C 0.352 0.6994 0.10387 0.0
C161 C 0.37048 0.69984 0.06954 0.0
C162 C 0.3566 0.6781 0.13875 0.0
C163 C 0.33818 0.67671 0.17649 0.0
C164 C 0.33498 0.70111 0.20501 0.0
C165 C 0.317 0.69983 0.23976 0.0
C166 C 0.30223 0.67421 0.24649 0.0
C167 C 0.30548 0.6498 0.21857 0.0
C168 C 0.32342 0.65097 0.18375 0.0
C169 C 0.46714 0.61948 0.08229 0.0
C170 C 0.45736 0.59069 0.07596 0.0
C171 C 0.44864 0.6411 0.09572 0.0
C172 C 0.41976 0.63438 0.1021 0.0
C173 C 0.41151 0.60508 0.10205 0.0
C174 C 0.43026 0.58339 0.0894 0.0
C175 C 0.39721 0.65761 0.10293 0.0
C176 C 0.3791 0.65761 0.13786 0.0
C177 C 0.39252 0.67896 0.06797 0.0
C178 C 0.40863 0.67883 0.02727 0.0
C179 C 0.40758 0.65448 0.99717 0.0
C180 C 0.42281 0.6545 0.95888 0.0
C181 C 0.4389 0.67886 0.95002 0.0
C182 C 0.43972 0.70329 0.97938 0.0
C183 C 0.42459 0.70336 0.0178 0.0
H184 H 0.45065 0.67884 0.92034 0.0
H185 H 0.28829 0.67328 0.27338 0.0
H186 H 0.80379 0.75265 0.58496 0.0
H187 H 0.84013 0.79059 0.57834 0.0
H188 H 0.77193 0.8549 0.56984 0.0
H189 H 0.73556 0.8168 0.57579 0.0
H190 H 0.81097 0.86706 0.5115 0.0
H191 H 0.81718 0.84088 0.67422 0.0
H192 H 0.82405 0.80703 0.73971 0.0
H193 H 0.90921 0.78448 0.70743 0.0
H194 H 0.90268 0.81792 0.64142 0.0
H195 H 0.90777 0.98388 0.53924 0.0
H196 H 0.86982 0.95245 0.56224 0.0
H197 H 0.93331 0.88403 0.58853 0.0
H198 H 0.97122 0.91586 0.5675 0.0
H199 H 0.89456 0.87567 0.64058 0.0
H200 H 0.8902 0.89636 0.47814 0.0
H201 H 0.88587 0.9267 0.4084 0.0
H202 H 0.80065 0.95484 0.43291 0.0
H203 H 0.80473 0.92509 0.50337 0.0
C204 C 0.79651 0.77481 0.58029 0.0
C205 C 0.76692 0.78187 0.58016 0.0
C206 C 0.81732 0.79653 0.57716 0.0
C207 C 0.80894 0.82577 0.57457 0.0
C208 C 0.77902 0.83258 0.57201 0.0
C209 C 0.75821 0.81082 0.57508 0.0
C210 C 0.83138 0.84929 0.57637 0.0
C211 C 0.82899 0.86922 0.5401 0.0
C212 C 0.85545 0.85174 0.61296 0.0
C213 C 0.85934 0.83172 0.65271 0.0
C214 C 0.83728 0.82856 0.68094 0.0
C215 C 0.84113 0.80947 0.71817 0.0
C216 C 0.86702 0.79358 0.72768 0.0
C217 C 0.88915 0.79678 0.70002 0.0
C218 C 0.8854 0.81581 0.66273 0.0
C219 C 0.914 0.96282 0.55308 0.0
C220 C 0.94256 0.95245 0.55221 0.0
C221 C 0.8921 0.94452 0.56501 0.0
C222 C 0.89831 0.91535 0.57526 0.0
C223 C 0.92769 0.90625 0.58024 0.0
C224 C 0.94959 0.92467 0.56894 0.0
C225 C 0.87432 0.89351 0.57558 0.0
C226 C 0.8764 0.8738 0.61216 0.0
C227 C 0.85038 0.89082 0.53862 0.0
C228 C 0.84795 0.90883 0.49641 0.0
C229 C 0.87065 0.90923 0.4689 0.0
C230 C 0.86823 0.9263 0.42922 0.0
C231 C 0.84304 0.94277 0.41632 0.0
C232 C 0.82019 0.94216 0.44304 0.0
C233 C 0.82256 0.92522 0.48288 0.0
H234 H 0.84119 0.95593 0.38554 0.0
H235 H 0.86996 0.77882 0.75652 0.0
H236 H 0.78347 0.32037 0.03534 0.0
H237 H 0.74364 0.35508 0.03769 0.0
H238 H 0.68028 0.28838 0.9887 0.0
H239 H 0.72045 0.25382 0.98534 0.0
H240 H 0.66622 0.3346 0.9412 0.0
H241 H 0.68796 0.31663 0.10247 0.0
H242 H 0.71785 0.31057 0.17962 0.0
H243 H 0.74575 0.39919 0.18047 0.0
H244 H 0.71634 0.40569 0.10294 0.0
H245 H 0.5459 0.41965 0.00704 0.0
H246 H 0.58194 0.38445 0.98761 0.0
H247 H 0.65008 0.44894 0.01743 0.0
H248 H 0.61397 0.48404 0.03694 0.0
H249 H 0.65951 0.40201 0.07441 0.0
H250 H 0.63422 0.41707 0.90797 0.0
H251 H 0.599 0.42026 0.83526 0.0
H252 H 0.57149 0.3327 0.85063 0.0
H253 H 0.60644 0.32907 0.92365 0.0
C254 C 0.76098 0.31299 0.02638 0.0
C255 C 0.75489 0.28438 0.01115 0.0
C256 C 0.73817 0.33285 0.02754 0.0
C257 C 0.70873 0.32445 0.0137 0.0
C258 C 0.70269 0.2955 0.99956 0.0
C259 C 0.72559 0.27566 0.99823 0.0
C260 C 0.68461 0.34625 0.01205 0.0
C261 C 0.6646 0.34908 0.97062 0.0
C262 C 0.68226 0.36536 0.05016 0.0
C263 C 0.70017 0.36156 0.09665 0.0
C264 C 0.70068 0.33477 0.1189 0.0
C265 C 0.7175 0.33126 0.16274 0.0
C266 C 0.73375 0.35446 0.18488 0.0
C267 C 0.73318 0.38123 0.16324 0.0
C268 C 0.71642 0.38484 0.11936 0.0
C269 C 0.56816 0.42691 0.0061 0.0
C270 C 0.57698 0.4548 0.02278 0.0
C271 C 0.58895 0.40655 0.99584 0.0
C272 C 0.61891 0.41385 1.00175 0.0
C273 C 0.62716 0.4427 0.01288 0.0
C274 C 0.60634 0.46302 0.02295 0.0
C275 C 0.64179 0.39086 0.00323 0.0
C276 C 0.66137 0.38766 0.04491 0.0
C277 C 0.64317 0.37097 0.96588 0.0
C278 C 0.6228 0.37287 0.92137 0.0
C279 C 0.62059 0.39854 0.8959 0.0
C280 C 0.6007 0.40041 0.85463 0.0
C281 C 0.58299 0.37671 0.83838 0.0
C282 C 0.58525 0.35103 0.86324 0.0
C283 C 0.60514 0.34903 0.9045 0.0
H284 H 0.56753 0.37824 0.8065 0.0
H285 H 0.74674 0.35171 0.21884 0.0
H286 H 0.19289 0.91458 0.14049 0.0
H287 H 0.17184 0.93675 0.20528 0.0
H288 H 0.15486 0.85211 0.25534 0.0
H289 H 0.17456 0.82984 0.18966 0.0
H290 H 0.1077 0.88445 0.25084 0.0
H291 H 0.21017 0.89881 0.3117 0.0
H292 H 0.26054 0.91639 0.31027 0.0
H293 H 0.22907 0.0036 0.29662 0.0
H294 H 0.17845 0.98649 0.29729 0.0
H295 H 0.05805 0.92086 0.45793 0.0
H296 H 0.09137 0.90291 0.40596 0.0
H297 H 0.10603 0.99021 0.36465 0.0
H298 H 0.07337 0.00836 0.41852 0.0
H299 H 0.15462 0.95894 0.36341 0.0
H300 H 0.05347 0.94647 0.30094 0.0
H301 H 0.00217 0.93082 0.29924 0.0
H302 H 0.0298 0.84231 0.31093 0.0
H303 H 0.08134 0.85748 0.31346 0.0
C304 C 0.18479 0.90066 0.1654 0.0
C305 C 0.18547 0.87035 0.15966 0.0
C306 C 0.17302 0.9134 0.20277 0.0
C307 C 0.16193 0.89615 0.23556 0.0
C308 C 0.16333 0.86593 0.23063 0.0
C309 C 0.17494 0.85318 0.19321 0.0
C310 C 0.14696 0.90933 0.27306 0.0
C311 C 0.11821 0.90037 0.27592 0.0
C312 C 0.16008 0.93108 0.30462 0.0
C313 C 0.1905 0.94133 0.30409 0.0
C314 C 0.21396 0.9217 0.30799 0.0
C315 C 0.24257 0.93159 0.30739 0.0
C316 C 0.248 0.96108 0.30324 0.0
C317 C 0.22483 0.98076 0.29976 0.0
C318 C 0.19619 0.97098 0.30028 0.0
C319 C 0.0692 0.93629 0.43896 0.0
C320 C 0.06322 0.96597 0.4422 0.0
C321 C 0.08797 0.92601 0.40884 0.0
C322 C 0.10049 0.94509 0.38018 0.0
C323 C 0.09643 0.97502 0.38608 0.0
C324 C 0.07795 0.98542 0.41706 0.0
C325 C 0.1157 0.93346 0.34181 0.0
C326 C 0.14425 0.94288 0.33848 0.0
C327 C 0.10229 0.91235 0.30925 0.0
C328 C 0.0713 0.90316 0.30786 0.0
C329 C 0.04863 0.9237 0.30353 0.0
C330 C 0.01951 0.9149 0.30237 0.0
C331 C 0.01273 0.88559 0.30509 0.0
C332 C 0.03508 0.86501 0.30891 0.0
C333 C 0.06425 0.87369 0.31019 0.0
H334 H 0.99017 0.87883 0.30413 0.0
H335 H 0.27016 0.9687 0.30282 0.0
H336 H 0.70612 0.65368 0.6993 0.0
H337 H 0.6859 0.62897 0.76198 0.0
H338 H 0.59968 0.66051 0.70845 0.0
H339 H 0.61969 0.68446 0.64498 0.0
H340 H 0.61865 0.66876 0.8094 0.0
H341 H 0.60895 0.59653 0.6869 0.0
H342 H 0.62627 0.56485 0.62734 0.0
H343 H 0.68626 0.52383 0.73374 0.0
H344 H 0.66963 0.5557 0.79391 0.0
H345 H 0.51261 0.58855 0.8939 0.0
H346 H 0.54533 0.60977 0.84612 0.0
H347 H 0.61807 0.56295 0.92013 0.0
H348 H 0.58474 0.5409 0.96921 0.0
H349 H 0.61388 0.56182 0.81806 0.0
H350 H 0.61655 0.63152 0.9425 0.0
H351 H 0.59527 0.6625 0.99896 0.0
H352 H 0.54535 0.70807 0.88625 0.0
H353 H 0.56598 0.67708 0.82906 0.0
C354 C 0.68285 0.6552 0.70098 0.0
C355 C 0.66439 0.67086 0.66743 0.0
C356 C 0.67135 0.64111 0.73664 0.0
C357 C 0.64132 0.64296 0.73983 0.0
C358 C 0.62293 0.65887 0.7066 0.0
C359 C 0.6343 0.6724 0.67034 0.0
C360 C 0.62899 0.62834 0.77779 0.0
C361 C 0.6176 0.64539 0.81134 0.0
C362 C 0.62823 0.59786 0.78084 0.0
C363 C 0.6384 0.5788 0.7448 0.0
C364 C 0.62611 0.58102 0.69753 0.0
C365 C 0.63573 0.56298 0.66367 0.0
C366 C 0.65744 0.54242 0.67672 0.0
C367 C 0.66951 0.53983 0.72367 0.0
C368 C 0.66 0.55789 0.75767 0.0
C369 C 0.53552 0.58248 0.90039 0.0
C370 C 0.54596 0.5628 0.93554 0.0
C371 C 0.55428 0.59488 0.87296 0.0
C372 C 0.58417 0.58821 0.87974 0.0
C373 C 0.595 0.56846 0.91449 0.0
C374 C 0.57603 0.556 0.9426 0.0
C375 C 0.60329 0.60225 0.84956 0.0
C376 C 0.61573 0.58517 0.81708 0.0
C377 C 0.60484 0.63278 0.84723 0.0
C378 C 0.59276 0.65188 0.88148 0.0
C379 C 0.60092 0.64806 0.92974 0.0
C380 C 0.58898 0.66563 0.96188 0.0
C381 C 0.56895 0.68722 0.9462 0.0
C382 C 0.56088 0.69135 0.89834 0.0
C383 C 0.57274 0.67381 0.86604 0.0
H384 H 0.5597 0.70078 0.97115 0.0
H385 H 0.66483 0.52843 0.65046 0.0
H386 H 0.83011 0.1397 0.08166 0.0
H387 H 0.85302 0.12034 0.15642 0.0
H388 H 0.89647 0.20208 0.19225 0.0
H389 H 0.87316 0.22168 0.11729 0.0
H390 H 0.93431 0.15155 0.20405 0.0
H391 H 0.84341 0.18576 0.24868 0.0
H392 H 0.78962 0.19056 0.2402 0.0
H393 H 0.7807 0.09849 0.24888 0.0
H394 H 0.83442 0.09311 0.25672 0.0
H395 H 0.98935 0.09074 0.4297 0.0
H396 H 0.96769 0.12532 0.37045 0.0
H397 H 0.90237 0.06175 0.31543 0.0
H398 H 0.92316 0.02794 0.37378 0.0
H399 H 0.87732 0.11187 0.32084 0.0
H400 H 0.96238 0.07444 0.26291 0.0
H401 H 0.01503 0.06425 0.26485 0.0
H402 H 0.03415 0.15522 0.27403 0.0
H403 H 0.98157 0.16594 0.27277 0.0
C404 C 0.84404 0.15371 0.10596 0.0
C405 C 0.84954 0.1823 0.09407 0.0
C406 C 0.85723 0.14262 0.14853 0.0
C407 C 0.87644 0.15977 0.17997 0.0
C408 C 0.88169 0.1885 0.16852 0.0
C409 C 0.86812 0.19977 0.12606 0.0
C410 C 0.8914 0.14716 0.2241 0.0
C411 C 0.92199 0.14348 0.23025 0.0
C412 C 0.87523 0.13583 0.25749 0.0
C413 C 0.84293 0.13904 0.25304 0.0
C414 C 0.82997 0.16653 0.24846 0.0
C415 C 0.79949 0.16935 0.24382 0.0
C416 C 0.78175 0.14484 0.24395 0.0
C417 C 0.79446 0.11746 0.24879 0.0
C418 C 0.82492 0.11451 0.25339 0.0
C419 C 0.97016 0.08441 0.40526 0.0
C420 C 0.95812 0.05651 0.40641 0.0
C421 C 0.95794 0.10406 0.37123 0.0
C422 C 0.93343 0.09609 0.33822 0.0
C423 C 0.92115 0.06854 0.34041 0.0
C424 C 0.93327 0.0491 0.37386 0.0
C425 C 0.92024 0.1157 0.30059 0.0
C426 C 0.88987 0.12059 0.29543 0.0
C427 C 0.93653 0.12735 0.26749 0.0
C428 C 0.96812 0.12098 0.2685 0.0
C429 C 0.97785 0.09226 0.26585 0.0
C430 C 0.00766 0.08639 0.26671 0.0
C431 C 0.02793 0.10907 0.26976 0.0
C432 C 0.01842 0.13768 0.27182 0.0
C433 C 0.98862 0.14367 0.27104 0.0
H434 H 0.051 0.10448 0.27033 0.0
H435 H 0.75816 0.14708 0.24036 0.0
H436 H 0.29784 0.37129 0.61961 0.0
H437 H 0.3225 0.38834 0.6961 0.0
H438 H 0.40664 0.37365 0.65176 0.0
H439 H 0.3822 0.35522 0.57643 0.0
H440 H 0.41147 0.36064 0.73791 0.0
H441 H 0.37427 0.44208 0.65121 0.0
H442 H 0.33809 0.47327 0.60485 0.0
H443 H 0.28889 0.4798 0.71937 0.0
H444 H 0.32456 0.44828 0.76621 0.0
H445 H 0.4912 0.46009 0.90787 0.0
H446 H 0.46955 0.43138 0.83909 0.0
H447 H 0.38411 0.44031 0.8816 0.0
H448 H 0.40554 0.46982 0.94893 0.0
H449 H 0.38168 0.45612 0.79541 0.0
H450 H 0.42453 0.37303 0.8819 0.0
H451 H 0.46622 0.34659 0.92485 0.0
H452 H 0.51096 0.34874 0.80506 0.0
H453 H 0.46961 0.37538 0.76154 0.0
C454 C 0.32158 0.37099 0.62656 0.0
C455 C 0.33799 0.36211 0.59159 0.0
C456 C 0.33571 0.38116 0.67014 0.0
C457 C 0.36653 0.38298 0.67953 0.0
C458 C 0.38289 0.37271 0.6455 0.0
C459 C 0.36883 0.36234 0.6022 0.0
C460 C 0.38175 0.39643 0.72398 0.0
C461 C 0.405 0.3816 0.75029 0.0
C462 C 0.37367 0.42392 0.7403 0.0
C463 C 0.35188 0.4425 0.71199 0.0
C464 C 0.35556 0.44991 0.66633 0.0
C465 C 0.33519 0.4677 0.64001 0.0
C466 C 0.31115 0.47843 0.65909 0.0
C467 C 0.30747 0.47141 0.70458 0.0
C468 C 0.32777 0.45358 0.73104 0.0
C469 C 0.46801 0.45493 0.90337 0.0
C470 C 0.45006 0.4669 0.93392 0.0
C471 C 0.45557 0.43864 0.86388 0.0
C472 C 0.42507 0.43359 0.85494 0.0
C473 C 0.4076 0.44396 0.8874 0.0
C474 C 0.4199 0.46056 0.92621 0.0
C475 C 0.41072 0.41992 0.81012 0.0
C476 C 0.38783 0.43495 0.78337 0.0
C477 C 0.41968 0.39304 0.79287 0.0
C478 C 0.44408 0.37632 0.81862 0.0
C479 C 0.44329 0.3679 0.86479 0.0
C480 C 0.46686 0.35288 0.88921 0.0
C481 C 0.49125 0.34603 0.86772 0.0
C482 C 0.49205 0.35405 0.82165 0.0
C483 C 0.46854 0.36904 0.79707 0.0
H484 H 0.50951 0.33449 0.88673 0.0
H485 H 0.29543 0.49224 0.63868 0.0
H486 H 0.64474 0.72459 0.47841 0.0
H487 H 0.62109 0.706 0.40158 0.0
H488 H 0.66224 0.62326 0.43035 0.0
H489 H 0.6855 0.64171 0.50678 0.0
H490 H 0.66428 0.6381 0.34179 0.0
H491 H 0.59334 0.63255 0.44492 0.0
H492 H 0.56175 0.64998 0.50109 0.0
H493 H 0.5178 0.70698 0.39831 0.0
H494 H 0.54952 0.69021 0.3417 0.0
H495 H 0.57848 0.52991 0.22656 0.0
H496 H 0.59866 0.56492 0.2852 0.0
H497 H 0.55968 0.63412 0.2 0.0
H498 H 0.5387 0.59842 0.1392 0.0
H499 H 0.55559 0.63485 0.30671 0.0
H500 H 0.62693 0.62877 0.19942 0.0
H501 H 0.65676 0.60144 0.14971 0.0
H502 H 0.69859 0.55605 0.26938 0.0
H503 H 0.66873 0.58282 0.31969 0.0
C504 C 0.64914 0.70267 0.46767 0.0
C505 C 0.66714 0.68462 0.49808 0.0
C506 C 0.63545 0.69198 0.42409 0.0
C507 C 0.63975 0.66316 0.41024 0.0
C508 C 0.65865 0.64556 0.44007 0.0
C509 C 0.67199 0.6561 0.48366 0.0
C510 C 0.62399 0.65073 0.36556 0.0
C511 C 0.64053 0.63769 0.33399 0.0
C512 C 0.59294 0.65004 0.35524 0.0
C513 C 0.57416 0.66053 0.38935 0.0
C514 C 0.57721 0.64909 0.43449 0.0
C515 C 0.55922 0.65878 0.46636 0.0
C516 C 0.53787 0.67968 0.45335 0.0
C517 C 0.53443 0.69088 0.40839 0.0
C518 C 0.55242 0.68131 0.37641 0.0
C519 C 0.57395 0.55249 0.21952 0.0
C520 C 0.55718 0.56122 0.1773 0.0
C521 C 0.58558 0.57254 0.25357 0.0
C522 C 0.58105 0.60209 0.24682 0.0
C523 C 0.56354 0.61129 0.20569 0.0
C524 C 0.55168 0.59094 0.17097 0.0
C525 C 0.59595 0.62255 0.283 0.0
C526 C 0.57933 0.63655 0.31351 0.0
C527 C 0.62696 0.62334 0.29327 0.0
C528 C 0.64558 0.60783 0.26329 0.0
C529 C 0.64244 0.61292 0.2151 0.0
C530 C 0.65935 0.59751 0.18682 0.0
C531 C 0.67957 0.57703 0.20638 0.0
C532 C 0.68297 0.57196 0.25429 0.0
C533 C 0.66611 0.5873 0.28271 0.0
H534 H 0.6926 0.56509 0.18441 0.0
H535 H 0.52392 0.68712 0.47804 0.0
H536 H 0.89603 0.16169 0.96196 0.0
H537 H 0.91465 0.13671 0.89748 0.0
H538 H 0.83198 0.14975 0.80904 0.0
H539 H 0.81273 0.17385 0.87411 0.0
H540 H 0.85229 0.09601 0.79614 0.0
H541 H 0.8915 0.19217 0.79917 0.0
H542 H 0.91763 0.23579 0.83382 0.0
H543 H 0.99628 0.18635 0.86939 0.0
H544 H 0.97052 0.14234 0.83556 0.0
H545 H 0.92939 0.06897 0.58938 0.0
H546 H 0.89741 0.08957 0.64309 0.0
H547 H 0.96159 0.06734 0.76091 0.0
H548 H 0.99289 0.04666 0.70839 0.0
H549 H 0.94605 0.12902 0.74992 0.0
H550 H 0.90617 0.0327 0.75538 0.0
H551 H 0.88103 0.98845 0.72138 0.0
H552 H 0.80475 0.03805 0.66995 0.0
H553 H 0.82967 0.08271 0.70306 0.0
C554 C 0.88161 0.15892 0.92904 0.0
C555 C 0.85286 0.16986 0.92327 0.0
C556 C 0.89242 0.14489 0.89198 0.0
C557 C 0.87487 0.14174 0.84812 0.0
C558 C 0.84597 0.15207 0.84245 0.0
C559 C 0.8351 0.16605 0.87959 0.0
C560 C 0.88691 0.12788 0.80825 0.0
C561 C 0.87251 0.10358 0.78546 0.0
C562 C 0.91347 0.13749 0.79453 0.0
C563 C 0.92899 0.16391 0.81514 0.0
C564 C 0.9143 0.19055 0.81472 0.0
C565 C 0.92906 0.21535 0.83416 0.0
C566 C 0.95858 0.21383 0.85387 0.0
C567 C 0.97341 0.1875 0.85414 0.0
C568 C 0.95875 0.16263 0.8348 0.0
C569 C 0.93606 0.06771 0.62676 0.0
C570 C 0.96369 0.05656 0.6448 0.0
C571 C 0.91795 0.07957 0.65733 0.0
C572 C 0.92742 0.08025 0.70589 0.0
C573 C 0.95402 0.06724 0.72362 0.0
C574 C 0.97184 0.05542 0.69351 0.0
C575 C 0.91175 0.09696 0.73865 0.0
C576 C 0.92554 0.12183 0.7601 0.0
C577 C 0.88482 0.0878 0.75118 0.0
C578 C 0.86994 0.06108 0.73098 0.0
C579 C 0.88419 0.03423 0.73626 0.0
C580 C 0.86995 0.00906 0.71731 0.0
C581 C 0.84136 0.01045 0.69333 0.0
C582 C 0.82693 0.03701 0.68839 0.0
C583 C 0.8411 0.06226 0.70724 0.0
H584 H 0.83035 0.99093 0.67872 0.0
H585 H 0.96997 0.23306 0.86886 0.0
H586 H 0.29402 0.39496 0.38538 0.0
H587 H 0.316 0.41699 0.32257 0.0
H588 H 0.40071 0.38413 0.3819 0.0
H589 H 0.37891 0.36253 0.44502 0.0
H590 H 0.40663 0.43716 0.35977 0.0
H591 H 0.35806 0.35427 0.28084 0.0
H592 H 0.31665 0.32169 0.25204 0.0
H593 H 0.27219 0.39092 0.17437 0.0
H594 H 0.31319 0.42403 0.20326 0.0
H595 H 0.48697 0.42781 0.17485 0.0
H596 H 0.45285 0.41433 0.22676 0.0
H597 H 0.39585 0.48433 0.17669 0.0
H598 H 0.43078 0.49889 0.12448 0.0
H599 H 0.3708 0.42018 0.19116 0.0
H600 H 0.42622 0.50114 0.26739 0.0
H601 H 0.47149 0.5289 0.29422 0.0
H602 H 0.50677 0.4573 0.37631 0.0
H603 H 0.46194 0.42889 0.34922 0.0
C604 C 0.31729 0.39224 0.38475 0.0
C605 C 0.33475 0.37702 0.4202 0.0
C606 C 0.32983 0.40482 0.34878 0.0
C607 C 0.36002 0.40209 0.34716 0.0
C608 C 0.3774 0.38671 0.38241 0.0
C609 C 0.36494 0.37438 0.41855 0.0
C610 C 0.37388 0.41581 0.30969 0.0
C611 C 0.39872 0.43334 0.32295 0.0
C612 C 0.36333 0.41147 0.26147 0.0
C613 C 0.33849 0.39172 0.24472 0.0
C614 C 0.33931 0.36263 0.25803 0.0
C615 C 0.31594 0.34404 0.2416 0.0
C616 C 0.29176 0.35425 0.21153 0.0
C617 C 0.2909 0.38306 0.19777 0.0
C618 C 0.31419 0.40174 0.21415 0.0
C619 C 0.46712 0.44039 0.17417 0.0
C620 C 0.46185 0.46473 0.14561 0.0
C621 C 0.4476 0.43252 0.20403 0.0
C622 C 0.42207 0.44848 0.20588 0.0
C623 C 0.4156 0.47182 0.17571 0.0
C624 C 0.43549 0.48004 0.14588 0.0
C625 C 0.40351 0.44106 0.24155 0.0
C626 C 0.37805 0.42453 0.22804 0.0
C627 C 0.41379 0.44578 0.28961 0.0
C628 C 0.44081 0.46281 0.3059 0.0
C629 C 0.44376 0.4912 0.29074 0.0
C630 C 0.46932 0.50707 0.30608 0.0
C631 C 0.49202 0.49485 0.33687 0.0
C632 C 0.48919 0.46673 0.35242 0.0
C633 C 0.4637 0.45074 0.33709 0.0
H634 H 0.51177 0.50719 0.34875 0.0
H635 H 0.27371 0.33982 0.19878 0.0
H636 H 0.18321 0.9118 0.00616 0.0
H637 H 0.15728 0.93012 0.93281 0.0
H638 H 0.14645 0.84326 0.87666 0.0
H639 H 0.17036 0.82435 0.95067 0.0
H640 H 0.16982 0.89846 0.81926 0.0
H641 H 0.09191 0.85789 0.90056 0.0
H642 H 0.06733 0.85467 0.97036 0.0
H643 H 0.05427 0.94657 0.97017 0.0
H644 H 0.07926 0.95036 0.90085 0.0
H645 H 0.07469 0.93902 0.61417 0.0
H646 H 0.09678 0.90923 0.67994 0.0
H647 H 0.06848 0.9715 0.77692 0.0
H648 H 0.04566 1.0 0.712 0.0
H649 H 0.06479 0.92393 0.81245 0.0
H650 H 0.13978 0.9704 0.74408 0.0
H651 H 0.16885 0.98361 0.6827 0.0
H652 H 0.19288 0.89473 0.66661 0.0
H653 H 0.16358 0.88092 0.72749 0.0
C654 C 0.17518 0.89643 0.97852 0.0
C655 C 0.17891 0.86643 0.98498 0.0
C656 C 0.1606 0.90704 0.93641 0.0
C657 C 0.14999 0.888 0.8995 0.0
C658 C 0.15466 0.85827 0.90478 0.0
C659 C 0.16864 0.84755 0.94719 0.0
C660 C 0.13272 0.89906 0.85625 0.0
C661 C 0.1467 0.90357 0.81721 0.0
C662 C 0.10299 0.90685 0.85459 0.0
C663 C 0.08773 0.90442 0.89591 0.0
C664 C 0.08408 0.87743 0.91572 0.0
C665 C 0.07001 0.8755 0.95513 0.0
C666 C 0.05932 0.90041 0.97478 0.0
C667 C 0.0626 0.9273 0.95498 0.0
C668 C 0.0767 0.92934 0.91564 0.0
C669 C 0.0724 0.94558 0.64955 0.0
C670 C 0.05844 0.97162 0.65824 0.0
C671 C 0.08539 0.92888 0.68716 0.0
C672 C 0.08489 0.93836 0.73369 0.0
C673 C 0.06929 0.96353 0.74169 0.0
C674 C 0.05621 0.97986 0.70449 0.0
C675 C 0.10169 0.92345 0.77447 0.0
C676 C 0.08773 0.91837 0.81357 0.0
C677 C 0.13184 0.91644 0.77683 0.0
C678 C 0.14912 0.92456 0.73978 0.0
C679 C 0.15101 0.95363 0.72709 0.0
C680 C 0.16757 0.96123 0.69247 0.0
C681 C 0.1826 0.94 0.67062 0.0
C682 C 0.18114 0.91113 0.68344 0.0
C683 C 0.16455 0.9034 0.71798 0.0
H684 H 0.19546 0.94594 0.64388 0.0
H685 H 0.04843 0.89886 0.00527 0.0
loop_
_geom_bond_atom_site_label_1
_geom_bond_atom_site_label_2
_geom_bond_distance
_geom_bond_site_symmetry_2
_ccdc_geom_bond_type
H0 C3 0.929 . S
H1 C6 0.929 . S
H2 C8 0.930 . S
C3 H0 0.929 . S
C3 C4 1.398 . S
C3 C5 1.396 . S
C4 C3 1.398 . S
C4 C8 1.407 . S
C5 C3 1.396 . S
C5 C6 1.394 . S
C6 H1 0.929 . S
C6 C5 1.394 . S
C6 C7 1.382 . S
C7 C6 1.382 . S
C7 C8 1.392 . S
C7 N9 1.420 . S
C8 H2 0.930 . S
C8 C4 1.407 . S
C8 C7 1.392 . S
N9 C7 1.420 . S
N9 C10 1.244 . S
C10 N9 1.244 . S
H11 C14 0.929 . S
H12 C17 0.929 . S
H13 C19 0.930 . S
C14 H11 0.929 . S
C14 C15 1.398 . S
C14 C16 1.396 . S
C15 C14 1.398 . S
C15 C19 1.407 . S
C16 C14 1.396 . S
C16 C17 1.394 . S
C17 H12 0.929 . S
C17 C16 1.394 . S
C17 C18 1.382 . S
C18 C17 1.382 . S
C18 C19 1.392 . S
C18 N20 1.420 . S
C19 H13 0.930 . S
C19 C15 1.407 . S
C19 C18 1.392 . S
N20 C18 1.420 . S
N20 C21 1.244 . S
C21 N20 1.244 . S
H22 C25 0.929 . S
H23 C28 0.929 . S
H24 C30 0.930 . S
C25 H22 0.929 . S
C25 C26 1.398 1_554 S
C25 C27 1.396 . S
C26 C25 1.398 1_556 S
C26 C30 1.407 . S
C27 C25 1.396 . S
C27 C28 1.394 . S
C28 H23 0.929 . S
C28 C27 1.394 . S
C28 C29 1.382 1_554 S
C29 C28 1.382 1_556 S
C29 C30 1.392 . S
C29 N31 1.420 . S
C30 H24 0.930 . S
C30 C26 1.407 . S
C30 C29 1.392 . S
N31 C29 1.420 . S
N31 C32 1.244 1_556 S
C32 N31 1.244 1_554 S
H33 C36 0.929 . S
H34 C39 0.929 . S
H35 C41 0.930 . S
C36 H33 0.929 . S
C36 C37 1.398 . S
C36 C38 1.396 . S
C37 C36 1.398 . S
C37 C41 1.407 . S
C38 C36 1.396 . S
C38 C39 1.394 . S
C39 H34 0.929 . S
C39 C38 1.394 . S
C39 C40 1.382 . S
C40 C39 1.382 . S
C40 C41 1.392 . S
C40 N42 1.420 . S
C41 H35 0.930 . S
C41 C37 1.407 . S
C41 C40 1.392 . S
N42 C40 1.420 . S
N42 C43 1.244 . S
C43 N42 1.244 . S
O44 Mn45 2.163 1_655 S
O44 C58 1.244 . S
Mn45 O44 2.163 1_455 S
Mn45 O48 2.160 1_545 S
Mn45 O49 2.221 . S
Mn45 O51 2.163 1_455 S
Mn45 O53 2.160 1_545 S
Mn45 O63 2.221 1_445 S
O46 Mn47 2.087 1_545 S
O46 C58 1.256 . S
Mn47 O46 2.087 1_565 S
Mn47 O54 2.089 1_655 S
Mn47 O63 2.290 . S
Mn47 O64 2.251 . S
O48 Mn45 2.160 1_565 S
O48 C59 1.239 . S
O49 Mn45 2.221 . S
O49 Mn50 2.290 . S
O49 C60 1.278 . S
Mn50 O49 2.290 . S
Mn50 O52 2.089 . S
Mn50 O55 2.251 . S
Mn50 O56 2.087 . S
O51 Mn45 2.163 1_655 S
O51 C61 1.244 . S
O52 Mn50 2.089 . S
O52 C59 1.256 1_545 S
O53 Mn45 2.160 1_565 S
O53 C62 1.239 . S
O54 Mn47 2.089 1_455 S
O54 C62 1.256 . S
O55 Mn50 2.251 . S
O55 C60 1.241 . S
O56 Mn50 2.087 . S
O56 C61 1.256 1_455 S
C57 O63 1.278 . S
C57 O64 1.241 . S
C58 O44 1.244 . S
C58 O46 1.256 . S
C59 O48 1.239 . S
C59 O52 1.256 1_565 S
C60 O49 1.278 . S
C60 O55 1.241 . S
C61 O51 1.244 . S
C61 O56 1.256 1_655 S
C62 O53 1.239 . S
C62 O54 1.256 . S
O63 Mn45 2.221 1_665 S
O63 Mn47 2.290 . S
O63 C57 1.278 . S
O64 Mn47 2.251 . S
O64 C57 1.241 . S
O65 Mn66 2.163 . S
O65 C79 1.244 . S
Mn66 O65 2.163 . S
Mn66 O69 2.160 1_554 S
Mn66 O70 2.221 . S
Mn66 O72 2.163 . S
Mn66 O74 2.160 . S
Mn66 O84 2.221 . S
O67 Mn68 2.087 . S
O67 C79 1.256 . S
Mn68 O67 2.087 . S
Mn68 O75 2.089 . S
Mn68 O84 2.290 . S
Mn68 O85 2.251 . S
O69 Mn66 2.160 1_556 S
O69 C80 1.239 . S
O70 Mn66 2.221 . S
O70 Mn71 2.290 1_554 S
O70 C81 1.278 . S
Mn71 O70 2.290 1_556 S
Mn71 O73 2.089 . S
Mn71 O76 2.251 1_556 S
Mn71 O77 2.087 . S
O72 Mn66 2.163 . S
O72 C82 1.244 1_554 S
O73 Mn71 2.089 . S
O73 C80 1.256 . S
O74 Mn66 2.160 . S
O74 C83 1.239 . S
O75 Mn68 2.089 . S
O75 C83 1.256 . S
O76 Mn71 2.251 1_554 S
O76 C81 1.241 . S
O77 Mn71 2.087 . S
O77 C82 1.256 . S
C78 O84 1.278 . S
C78 O85 1.241 . S
C79 O65 1.244 . S
C79 O67 1.256 . S
C80 O69 1.239 . S
C80 O73 1.256 . S
C81 O70 1.278 . S
C81 O76 1.241 . S
C82 O72 1.244 1_556 S
C82 O77 1.256 . S
C83 O74 1.239 . S
C83 O75 1.256 . S
O84 Mn66 2.221 . S
O84 Mn68 2.290 . S
O84 C78 1.278 . S
O85 Mn68 2.251 . S
O85 C78 1.241 . S
H86 C104 0.951 . S
H87 C106 0.951 . S
H88 C108 0.950 . S
H89 C109 0.950 . S
H90 C111 0.950 . S
H91 C114 0.950 . S
H92 C115 0.950 . S
H93 C117 0.950 . S
H94 C118 0.950 . S
H95 C119 0.951 . S
H96 C121 0.951 . S
H97 C123 0.950 . S
H98 C124 0.950 . S
H99 C126 0.950 . S
H100 C129 0.950 . S
H101 C130 0.950 . S
H102 C132 0.950 . S
H103 C133 0.950 . S
C104 H86 0.951 . S
C104 C105 1.366 . S
C104 C106 1.388 . S
C105 C104 1.366 . S
C105 C109 1.385 . S
C106 H87 0.951 . S
C106 C104 1.388 . S
C106 C107 1.366 . S
C107 C106 1.366 . S
C107 C108 1.414 . S
C107 C110 1.499 . S
C108 H88 0.950 . S
C108 C107 1.414 . S
C108 C109 1.374 . S
C109 H89 0.950 . S
C109 C105 1.385 . S
C109 C108 1.374 . S
C110 C107 1.499 . S
C110 C111 1.373 . S
C110 C112 1.389 . S
C111 H90 0.950 . S
C111 C110 1.373 . S
C111 C127 1.377 . S
C112 C110 1.389 . S
C112 C113 1.524 . S
C112 C126 1.377 . S
C113 C112 1.524 . S
C113 C114 1.397 . S
C113 C118 1.363 . S
C114 H91 0.950 . S
C114 C113 1.397 . S
C114 C115 1.334 . S
C115 H92 0.950 . S
C115 C114 1.334 . S
C115 C116 1.287 . S
C116 C115 1.287 . S
C116 C117 1.524 . S
C116 H135 0.913 . S
C117 H93 0.950 . S
C117 C116 1.524 . S
C117 C118 1.415 . S
C118 H94 0.950 . S
C118 C113 1.363 . S
C118 C117 1.415 . S
C119 H95 0.951 . S
C119 C120 1.366 . S
C119 C121 1.388 . S
C120 C119 1.366 . S
C120 C124 1.385 . S
C121 H96 0.951 . S
C121 C119 1.388 . S
C121 C122 1.366 . S
C122 C121 1.366 . S
C122 C123 1.414 . S
C122 C125 1.499 . S
C123 H97 0.950 . S
C123 C122 1.414 . S
C123 C124 1.374 . S
C124 H98 0.950 . S
C124 C120 1.385 . S
C124 C123 1.374 . S
C125 C122 1.499 . S
C125 C126 1.373 . S
C125 C127 1.389 . S
C126 H99 0.950 . S
C126 C112 1.377 . S
C126 C125 1.373 . S
C127 C111 1.377 . S
C127 C125 1.389 . S
C127 C128 1.524 . S
C128 C127 1.524 . S
C128 C129 1.397 . S
C128 C133 1.363 . S
C129 H100 0.950 . S
C129 C128 1.397 . S
C129 C130 1.334 . S
C130 H101 0.950 . S
C130 C129 1.334 . S
C130 C131 1.287 . S
C131 C130 1.287 . S
C131 C132 1.524 . S
C131 H134 0.999 . S
C132 H102 0.950 . S
C132 C131 1.524 . S
C132 C133 1.415 . S
C133 H103 0.950 . S
C133 C128 1.363 . S
C133 C132 1.415 . S
H134 C131 0.999 . S
H135 C116 0.913 . S
H136 C154 0.951 . S
H137 C156 0.951 . S
H138 C158 0.950 . S
H139 C159 0.950 . S
H140 C161 0.950 . S
H141 C164 0.950 . S
H142 C165 0.950 . S
H143 C167 0.950 . S
H144 C168 0.950 . S
H145 C169 0.951 . S
H146 C171 0.951 . S
H147 C173 0.950 . S
H148 C174 0.950 . S
H149 C176 0.950 . S
H150 C179 0.950 . S
H151 C180 0.950 . S
H152 C182 0.950 . S
H153 C183 0.937 1_554 S
C154 H136 0.951 . S
C154 C155 1.366 . S
C154 C156 1.388 . S
C155 C154 1.366 . S
C155 C159 1.385 . S
C156 H137 0.951 . S
C156 C154 1.388 . S
C156 C157 1.366 . S
C157 C156 1.366 . S
C157 C158 1.414 . S
C157 C160 1.499 . S
C158 H138 0.950 . S
C158 C157 1.414 . S
C158 C159 1.374 . S
C159 H139 0.950 . S
C159 C155 1.385 . S
C159 C158 1.374 . S
C160 C157 1.499 . S
C160 C161 1.373 . S
C160 C162 1.389 . S
C161 H140 0.950 . S
C161 C160 1.373 . S
C161 C177 1.377 . S
C162 C160 1.389 . S
C162 C163 1.524 . S
C162 C176 1.377 . S
C163 C162 1.524 . S
C163 C164 1.397 . S
C163 C168 1.363 . S
C164 H141 0.950 . S
C164 C163 1.397 . S
C164 C165 1.334 . S
C165 H142 0.950 . S
C165 C164 1.334 . S
C165 C166 1.287 . S
C166 C165 1.287 . S
C166 C167 1.524 . S
C166 H185 0.913 . S
C167 H143 0.950 . S
C167 C166 1.524 . S
C167 C168 1.415 . S
C168 H144 0.950 . S
C168 C163 1.363 . S
C168 C167 1.415 . S
C169 H145 0.951 . S
C169 C170 1.366 . S
C169 C171 1.388 . S
C170 C169 1.366 . S
C170 C174 1.385 . S
C171 H146 0.951 . S
C171 C169 1.388 . S
C171 C172 1.366 . S
C172 C171 1.366 . S
C172 C173 1.414 . S
C172 C175 1.499 . S
C173 H147 0.950 . S
C173 C172 1.414 . S
C173 C174 1.374 . S
C174 H148 0.950 . S
C174 C170 1.385 . S
C174 C173 1.374 . S
C175 C172 1.499 . S
C175 C176 1.373 . S
C175 C177 1.389 . S
C176 H149 0.950 . S
C176 C162 1.377 . S
C176 C175 1.373 . S
C177 C161 1.377 . S
C177 C175 1.389 . S
C177 C178 1.524 . S
C178 C177 1.524 . S
C178 C179 1.397 1_554 S
C178 C183 1.359 1_554 S
C179 H150 0.950 . S
C179 C178 1.397 1_556 S
C179 C180 1.334 . S
C180 H151 0.950 . S
C180 C179 1.334 . S
C180 C181 1.287 . S
C181 C180 1.287 . S
C181 C182 1.524 . S
C181 H184 0.999 . S
C182 H152 0.950 . S
C182 C181 1.524 . S
C182 C183 1.432 . S
C183 H153 0.937 1_556 S
C183 C178 1.359 1_556 S
C183 C182 1.432 . S
H184 C181 0.999 . S
H185 C166 0.913 . S
H186 C204 0.951 . S
H187 C206 0.951 . S
H188 C208 0.950 . S
H189 C209 0.950 . S
H190 C211 0.950 . S
H191 C214 0.950 . S
H192 C215 0.950 . S
H193 C217 0.950 . S
H194 C218 0.950 . S
H195 C219 0.951 . S
H196 C221 0.951 . S
H197 C223 0.950 . S
H198 C224 0.950 . S
H199 C226 0.950 . S
H200 C229 0.950 . S
H201 C230 0.950 . S
H202 C232 0.950 . S
H203 C233 0.950 . S
C204 H186 0.951 . S
C204 C205 1.366 . S
C204 C206 1.388 . S
C205 C204 1.366 . S
C205 C209 1.385 . S
C206 H187 0.951 . S
C206 C204 1.388 . S
C206 C207 1.366 . S
C207 C206 1.366 . S
C207 C208 1.414 . S
C207 C210 1.499 . S
C208 H188 0.950 . S
C208 C207 1.414 . S
C208 C209 1.374 . S
C209 H189 0.950 . S
C209 C205 1.385 . S
C209 C208 1.374 . S
C210 C207 1.499 . S
C210 C211 1.373 . S
C210 C212 1.389 . S
C211 H190 0.950 . S
C211 C210 1.373 . S
C211 C227 1.377 . S
C212 C210 1.389 . S
C212 C213 1.524 . S
C212 C226 1.377 . S
C213 C212 1.524 . S
C213 C214 1.397 . S
C213 C218 1.363 . S
C214 H191 0.950 . S
C214 C213 1.397 . S
C214 C215 1.334 . S
C215 H192 0.950 . S
C215 C214 1.334 . S
C215 C216 1.287 . S
C216 C215 1.287 . S
C216 C217 1.524 . S
C216 H235 0.913 . S
C217 H193 0.950 . S
C217 C216 1.524 . S
C217 C218 1.415 . S
C218 H194 0.950 . S
C218 C213 1.363 . S
C218 C217 1.415 . S
C219 H195 0.951 . S
C219 C220 1.366 . S
C219 C221 1.388 . S
C220 C219 1.366 . S
C220 C224 1.385 . S
C221 H196 0.951 . S
C221 C219 1.388 . S
C221 C222 1.366 . S
C222 C221 1.366 . S
C222 C223 1.414 . S
C222 C225 1.499 . S
C223 H197 0.950 . S
C223 C222 1.414 . S
C223 C224 1.374 . S
C224 H198 0.950 . S
C224 C220 1.385 . S
C224 C223 1.374 . S
C225 C222 1.499 . S
C225 C226 1.373 . S
C225 C227 1.389 . S
C226 H199 0.950 . S
C226 C212 1.377 . S
C226 C225 1.373 . S
C227 C211 1.377 . S
C227 C225 1.389 . S
C227 C228 1.524 . S
C228 C227 1.524 . S
C228 C229 1.397 . S
C228 C233 1.363 . S
C229 H200 0.950 . S
C229 C228 1.397 . S
C229 C230 1.334 . S
C230 H201 0.950 . S
C230 C229 1.334 . S
C230 C231 1.287 . S
C231 C230 1.287 . S
C231 C232 1.524 . S
C231 H234 0.999 . S
C232 H202 0.950 . S
C232 C231 1.524 . S
C232 C233 1.415 . S
C233 H203 0.950 . S
C233 C228 1.363 . S
C233 C232 1.415 . S
H234 C231 0.999 . S
H235 C216 0.913 . S
H236 C254 0.951 . S
H237 C256 0.951 . S
H238 C258 0.951 . S
H239 C259 0.950 . S
H240 C261 0.950 . S
H241 C264 0.950 . S
H242 C265 0.950 . S
H243 C267 0.950 . S
H244 C268 0.950 . S
H245 C269 0.951 . S
H246 C271 0.951 . S
H247 C273 0.950 . S
H248 C274 0.950 . S
H249 C276 0.950 . S
H250 C279 0.950 . S
H251 C280 0.950 . S
H252 C282 0.950 . S
H253 C283 0.950 . S
C254 H236 0.951 . S
C254 C255 1.366 . S
C254 C256 1.388 . S
C255 C254 1.366 . S
C255 C259 1.385 1_554 S
C256 H237 0.951 . S
C256 C254 1.388 . S
C256 C257 1.366 . S
C257 C256 1.366 . S
C257 C258 1.412 1_554 S
C257 C260 1.499 . S
C258 H238 0.951 . S
C258 C257 1.412 1_556 S
C258 C259 1.375 . S
C259 H239 0.950 . S
C259 C255 1.385 1_556 S
C259 C258 1.375 . S
C260 C257 1.499 . S
C260 C261 1.373 1_554 S
C260 C262 1.389 . S
C261 H240 0.950 . S
C261 C260 1.373 1_556 S
C261 C277 1.377 . S
C262 C260 1.389 . S
C262 C263 1.524 . S
C262 C276 1.377 . S
C263 C262 1.524 . S
C263 C264 1.397 . S
C263 C268 1.363 . S
C264 H241 0.950 . S
C264 C263 1.397 . S
C264 C265 1.334 . S
C265 H242 0.950 . S
C265 C264 1.334 . S
C265 C266 1.287 . S
C266 C265 1.287 . S
C266 C267 1.524 . S
C266 H285 0.913 . S
C267 H243 0.950 . S
C267 C266 1.524 . S
C267 C268 1.415 . S
C268 H244 0.950 . S
C268 C263 1.363 . S
C268 C267 1.415 . S
C269 H245 0.951 . S
C269 C270 1.366 . S
C269 C271 1.388 . S
C270 C269 1.366 . S
C270 C274 1.385 . S
C271 H246 0.951 . S
C271 C269 1.388 . S
C271 C272 1.366 . S
C272 C271 1.366 . S
C272 C273 1.414 . S
C272 C275 1.499 . S
C273 H247 0.950 . S
C273 C272 1.414 . S
C273 C274 1.374 . S
C274 H248 0.950 . S
C274 C270 1.385 . S
C274 C273 1.374 . S
C275 C272 1.499 . S
C275 C276 1.373 . S
C275 C277 1.389 1_554 S
C276 H249 0.950 . S
C276 C262 1.377 . S
C276 C275 1.373 . S
C277 C261 1.377 . S
C277 C275 1.389 1_556 S
C277 C278 1.524 . S
C278 C277 1.524 . S
C278 C279 1.397 . S
C278 C283 1.363 . S
C279 H250 0.950 . S
C279 C278 1.397 . S
C279 C280 1.334 . S
C280 H251 0.950 . S
C280 C279 1.334 . S
C280 C281 1.287 . S
C281 C280 1.287 . S
C281 C282 1.524 . S
C281 H284 0.999 . S
C282 H252 0.950 . S
C282 C281 1.524 . S
C282 C283 1.415 . S
C283 H253 0.950 . S
C283 C278 1.363 . S
C283 C282 1.415 . S
H284 C281 0.999 . S
H285 C266 0.913 . S
H286 C304 0.951 . S
H287 C306 0.951 . S
H288 C308 0.950 . S
H289 C309 0.950 . S
H290 C311 0.950 . S
H291 C314 0.950 . S
H292 C315 0.950 . S
H293 C317 0.925 1_545 S
H294 C318 0.950 . S
H295 C319 0.951 . S
H296 C321 0.951 . S
H297 C323 0.950 . S
H298 C324 0.950 1_545 S
H299 C326 0.950 . S
H300 C329 0.950 . S
H301 C330 0.930 1_655 S
H302 C332 0.950 . S
H303 C333 0.950 . S
C304 H286 0.951 . S
C304 C305 1.366 . S
C304 C306 1.388 . S
C305 C304 1.366 . S
C305 C309 1.385 . S
C306 H287 0.951 . S
C306 C304 1.388 . S
C306 C307 1.366 . S
C307 C306 1.366 . S
C307 C308 1.414 . S
C307 C310 1.499 . S
C308 H288 0.950 . S
C308 C307 1.414 . S
C308 C309 1.374 . S
C309 H289 0.950 . S
C309 C305 1.385 . S
C309 C308 1.374 . S
C310 C307 1.499 . S
C310 C311 1.373 . S
C310 C312 1.389 . S
C311 H290 0.950 . S
C311 C310 1.373 . S
C311 C327 1.377 . S
C312 C310 1.389 . S
C312 C313 1.524 . S
C312 C326 1.377 . S
C313 C312 1.524 . S
C313 C314 1.397 . S
C313 C318 1.363 . S
C314 H291 0.950 . S
C314 C313 1.397 . S
C314 C315 1.334 . S
C315 H292 0.950 . S
C315 C314 1.334 . S
C315 C316 1.287 . S
C316 C315 1.287 . S
C316 C317 1.524 . S
C316 H335 0.913 . S
C317 H293 0.925 1_565 S
C317 C316 1.524 . S
C317 C318 1.415 . S
C318 H294 0.950 . S
C318 C313 1.363 . S
C318 C317 1.415 . S
C319 H295 0.951 . S
C319 C320 1.366 . S
C319 C321 1.388 . S
C320 C319 1.366 . S
C320 C324 1.385 . S
C321 H296 0.951 . S
C321 C319 1.388 . S
C321 C322 1.366 . S
C322 C321 1.366 . S
C322 C323 1.414 . S
C322 C325 1.499 . S
C323 H297 0.950 . S
C323 C322 1.414 . S
C323 C324 1.374 . S
C324 H298 0.950 1_565 S
C324 C320 1.385 . S
C324 C323 1.374 . S
C325 C322 1.499 . S
C325 C326 1.373 . S
C325 C327 1.389 . S
C326 H299 0.950 . S
C326 C312 1.377 . S
C326 C325 1.373 . S
C327 C311 1.377 . S
C327 C325 1.389 . S
C327 C328 1.524 . S
C328 C327 1.524 . S
C328 C329 1.397 . S
C328 C333 1.363 . S
C329 H300 0.950 . S
C329 C328 1.397 . S
C329 C330 1.334 . S
C330 H301 0.930 1_455 S
C330 C329 1.334 . S
C330 C331 1.287 . S
C331 C330 1.287 . S
C331 C332 1.524 . S
C331 H334 0.999 1_455 S
C332 H302 0.950 . S
C332 C331 1.524 . S
C332 C333 1.415 . S
C333 H303 0.950 . S
C333 C328 1.363 . S
C333 C332 1.415 . S
H334 C331 0.999 1_655 S
H335 C316 0.913 . S
H336 C354 0.951 . S
H337 C356 0.951 . S
H338 C358 0.950 . S
H339 C359 0.950 . S
H340 C361 0.950 . S
H341 C364 0.950 . S
H342 C365 0.950 . S
H343 C367 0.950 . S
H344 C368 0.950 . S
H345 C369 0.951 . S
H346 C371 0.951 . S
H347 C373 0.950 . S
H348 C374 0.950 . S
H349 C376 0.950 . S
H350 C379 0.950 . S
H351 C380 0.950 . S
H352 C382 0.950 . S
H353 C383 0.950 . S
C354 H336 0.951 . S
C354 C355 1.366 . S
C354 C356 1.388 . S
C355 C354 1.366 . S
C355 C359 1.385 . S
C356 H337 0.951 . S
C356 C354 1.388 . S
C356 C357 1.366 . S
C357 C356 1.366 . S
C357 C358 1.414 . S
C357 C360 1.499 . S
C358 H338 0.950 . S
C358 C357 1.414 . S
C358 C359 1.374 . S
C359 H339 0.950 . S
C359 C355 1.385 . S
C359 C358 1.374 . S
C360 C357 1.499 . S
C360 C361 1.373 . S
C360 C362 1.389 . S
C361 H340 0.950 . S
C361 C360 1.373 . S
C361 C377 1.377 . S
C362 C360 1.389 . S
C362 C363 1.524 . S
C362 C376 1.377 . S
C363 C362 1.524 . S
C363 C364 1.397 . S
C363 C368 1.363 . S
C364 H341 0.950 . S
C364 C363 1.397 . S
C364 C365 1.334 . S
C365 H342 0.950 . S
C365 C364 1.334 . S
C365 C366 1.287 . S
C366 C365 1.287 . S
C366 C367 1.524 . S
C366 H385 0.913 . S
C367 H343 0.950 . S
C367 C366 1.524 . S
C367 C368 1.415 . S
C368 H344 0.950 . S
C368 C363 1.363 . S
C368 C367 1.415 . S
C369 H345 0.951 . S
C369 C370 1.366 . S
C369 C371 1.388 . S
C370 C369 1.366 . S
C370 C374 1.385 . S
C371 H346 0.951 . S
C371 C369 1.388 . S
C371 C372 1.366 . S
C372 C371 1.366 . S
C372 C373 1.414 . S
C372 C375 1.499 . S
C373 H347 0.950 . S
C373 C372 1.414 . S
C373 C374 1.374 . S
C374 H348 0.950 . S
C374 C370 1.385 . S
C374 C373 1.374 . S
C375 C372 1.499 . S
C375 C376 1.373 . S
C375 C377 1.389 . S
C376 H349 0.950 . S
C376 C362 1.377 . S
C376 C375 1.373 . S
C377 C361 1.377 . S
C377 C375 1.389 . S
C377 C378 1.524 . S
C378 C377 1.524 . S
C378 C379 1.397 . S
C378 C383 1.363 . S
C379 H350 0.950 . S
C379 C378 1.397 . S
C379 C380 1.334 . S
C380 H351 0.950 . S
C380 C379 1.334 . S
C380 C381 1.287 . S
C381 C380 1.287 . S
C381 C382 1.524 . S
C381 H384 0.999 . S
C382 H352 0.950 . S
C382 C381 1.524 . S
C382 C383 1.415 . S
C383 H353 0.950 . S
C383 C378 1.363 . S
C383 C382 1.415 . S
H384 C381 0.999 . S
H385 C366 0.913 . S
H386 C404 0.951 . S
H387 C406 0.951 . S
H388 C408 0.950 . S
H389 C409 0.950 . S
H390 C411 0.950 . S
H391 C414 0.950 . S
H392 C415 0.950 . S
H393 C417 0.950 . S
H394 C418 0.950 . S
H395 C419 0.951 . S
H396 C421 0.951 . S
H397 C423 0.950 . S
H398 C424 0.950 . S
H399 C426 0.950 . S
H400 C429 0.950 . S
H401 C430 0.950 . S
H402 C432 0.950 . S
H403 C433 0.950 . S
C404 H386 0.951 . S
C404 C405 1.366 . S
C404 C406 1.388 . S
C405 C404 1.366 . S
C405 C409 1.385 . S
C406 H387 0.951 . S
C406 C404 1.388 . S
C406 C407 1.366 . S
C407 C406 1.366 . S
C407 C408 1.414 . S
C407 C410 1.499 . S
C408 H388 0.950 . S
C408 C407 1.414 . S
C408 C409 1.374 . S
C409 H389 0.950 . S
C409 C405 1.385 . S
C409 C408 1.374 . S
C410 C407 1.499 . S
C410 C411 1.373 . S
C410 C412 1.389 . S
C411 H390 0.950 . S
C411 C410 1.373 . S
C411 C427 1.377 . S
C412 C410 1.389 . S
C412 C413 1.524 . S
C412 C426 1.377 . S
C413 C412 1.524 . S
C413 C414 1.397 . S
C413 C418 1.363 . S
C414 H391 0.950 . S
C414 C413 1.397 . S
C414 C415 1.334 . S
C415 H392 0.950 . S
C415 C414 1.334 . S
C415 C416 1.287 . S
C416 C415 1.287 . S
C416 C417 1.524 . S
C416 H435 0.913 . S
C417 H393 0.950 . S
C417 C416 1.524 . S
C417 C418 1.415 . S
C418 H394 0.950 . S
C418 C413 1.363 . S
C418 C417 1.415 . S
C419 H395 0.951 . S
C419 C420 1.366 . S
C419 C421 1.388 . S
C420 C419 1.366 . S
C420 C424 1.385 . S
C421 H396 0.951 . S
C421 C419 1.388 . S
C421 C422 1.366 . S
C422 C421 1.366 . S
C422 C423 1.414 . S
C422 C425 1.499 . S
C423 H397 0.950 . S
C423 C422 1.414 . S
C423 C424 1.374 . S
C424 H398 0.950 . S
C424 C420 1.385 . S
C424 C423 1.374 . S
C425 C422 1.499 . S
C425 C426 1.373 . S
C425 C427 1.389 . S
C426 H399 0.950 . S
C426 C412 1.377 . S
C426 C425 1.373 . S
C427 C411 1.377 . S
C427 C425 1.389 . S
C427 C428 1.524 . S
C428 C427 1.524 . S
C428 C429 1.397 . S
C428 C433 1.363 . S
C429 H400 0.950 . S
C429 C428 1.397 . S
C429 C430 1.334 1_655 S
C430 H401 0.950 . S
C430 C429 1.334 1_455 S
C430 C431 1.287 . S
C431 C430 1.287 . S
C431 C432 1.524 . S
C431 H434 0.999 . S
C432 H402 0.950 . S
C432 C431 1.524 . S
C432 C433 1.415 1_455 S
C433 H403 0.950 . S
C433 C428 1.363 . S
C433 C432 1.415 1_655 S
H434 C431 0.999 . S
H435 C416 0.913 . S
H436 C454 0.951 . S
H437 C456 0.951 . S
H438 C458 0.950 . S
H439 C459 0.950 . S
H440 C461 0.950 . S
H441 C464 0.950 . S
H442 C465 0.950 . S
H443 C467 0.950 . S
H444 C468 0.950 . S
H445 C469 0.951 . S
H446 C471 0.951 . S
H447 C473 0.950 . S
H448 C474 0.950 . S
H449 C476 0.950 . S
H450 C479 0.950 . S
H451 C480 0.950 . S
H452 C482 0.950 . S
H453 C483 0.950 . S
C454 H436 0.951 . S
C454 C455 1.366 . S
C454 C456 1.388 . S
C455 C454 1.366 . S
C455 C459 1.385 . S
C456 H437 0.951 . S
C456 C454 1.388 . S
C456 C457 1.366 . S
C457 C456 1.366 . S
C457 C458 1.414 . S
C457 C460 1.499 . S
C458 H438 0.950 . S
C458 C457 1.414 . S
C458 C459 1.374 . S
C459 H439 0.950 . S
C459 C455 1.385 . S
C459 C458 1.374 . S
C460 C457 1.499 . S
C460 C461 1.373 . S
C460 C462 1.389 . S
C461 H440 0.950 . S
C461 C460 1.373 . S
C461 C477 1.377 . S
C462 C460 1.389 . S
C462 C463 1.524 . S
C462 C476 1.377 . S
C463 C462 1.524 . S
C463 C464 1.397 . S
C463 C468 1.363 . S
C464 H441 0.950 . S
C464 C463 1.397 . S
C464 C465 1.334 . S
C465 H442 0.950 . S
C465 C464 1.334 . S
C465 C466 1.287 . S
C466 C465 1.287 . S
C466 C467 1.524 . S
C466 H485 0.913 . S
C467 H443 0.950 . S
C467 C466 1.524 . S
C467 C468 1.415 . S
C468 H444 0.950 . S
C468 C463 1.363 . S
C468 C467 1.415 . S
C469 H445 0.951 . S
C469 C470 1.366 . S
C469 C471 1.388 . S
C470 C469 1.366 . S
C470 C474 1.385 . S
C471 H446 0.951 . S
C471 C469 1.388 . S
C471 C472 1.366 . S
C472 C471 1.366 . S
C472 C473 1.414 . S
C472 C475 1.499 . S
C473 H447 0.950 . S
C473 C472 1.414 . S
C473 C474 1.374 . S
C474 H448 0.950 . S
C474 C470 1.385 . S
C474 C473 1.374 . S
C475 C472 1.499 . S
C475 C476 1.373 . S
C475 C477 1.389 . S
C476 H449 0.950 . S
C476 C462 1.377 . S
C476 C475 1.373 . S
C477 C461 1.377 . S
C477 C475 1.389 . S
C477 C478 1.524 . S
C478 C477 1.524 . S
C478 C479 1.397 . S
C478 C483 1.363 . S
C479 H450 0.950 . S
C479 C478 1.397 . S
C479 C480 1.334 . S
C480 H451 0.950 . S
C480 C479 1.334 . S
C480 C481 1.287 . S
C481 C480 1.287 . S
C481 C482 1.524 . S
C481 H484 0.999 . S
C482 H452 0.950 . S
C482 C481 1.524 . S
C482 C483 1.415 . S
C483 H453 0.950 . S
C483 C478 1.363 . S
C483 C482 1.415 . S
H484 C481 0.999 . S
H485 C466 0.913 . S
H486 C504 0.951 . S
H487 C506 0.951 . S
H488 C508 0.950 . S
H489 C509 0.950 . S
H490 C511 0.950 . S
H491 C514 0.950 . S
H492 C515 0.950 . S
H493 C517 0.950 . S
H494 C518 0.950 . S
H495 C519 0.951 . S
H496 C521 0.951 . S
H497 C523 0.950 . S
H498 C524 0.950 . S
H499 C526 0.950 . S
H500 C529 0.950 . S
H501 C530 0.950 . S
H502 C532 0.950 . S
H503 C533 0.950 . S
C504 H486 0.951 . S
C504 C505 1.366 . S
C504 C506 1.388 . S
C505 C504 1.366 . S
C505 C509 1.385 . S
C506 H487 0.951 . S
C506 C504 1.388 . S
C506 C507 1.366 . S
C507 C506 1.366 . S
C507 C508 1.414 . S
C507 C510 1.499 . S
C508 H488 0.950 . S
C508 C507 1.414 . S
C508 C509 1.374 . S
C509 H489 0.950 . S
C509 C505 1.385 . S
C509 C508 1.374 . S
C510 C507 1.499 . S
C510 C511 1.373 . S
C510 C512 1.389 . S
C511 H490 0.950 . S
C511 C510 1.373 . S
C511 C527 1.377 . S
C512 C510 1.389 . S
C512 C513 1.524 . S
C512 C526 1.377 . S
C513 C512 1.524 . S
C513 C514 1.397 . S
C513 C518 1.363 . S
C514 H491 0.950 . S
C514 C513 1.397 . S
C514 C515 1.334 . S
C515 H492 0.950 . S
C515 C514 1.334 . S
C515 C516 1.287 . S
C516 C515 1.287 . S
C516 C517 1.524 . S
C516 H535 0.913 . S
C517 H493 0.950 . S
C517 C516 1.524 . S
C517 C518 1.415 . S
C518 H494 0.950 . S
C518 C513 1.363 . S
C518 C517 1.415 . S
C519 H495 0.951 . S
C519 C520 1.366 . S
C519 C521 1.388 . S
C520 C519 1.366 . S
C520 C524 1.385 . S
C521 H496 0.951 . S
C521 C519 1.388 . S
C521 C522 1.366 . S
C522 C521 1.366 . S
C522 C523 1.414 . S
C522 C525 1.499 . S
C523 H497 0.950 . S
C523 C522 1.414 . S
C523 C524 1.374 . S
C524 H498 0.950 . S
C524 C520 1.385 . S
C524 C523 1.374 . S
C525 C522 1.499 . S
C525 C526 1.373 . S
C525 C527 1.389 . S
C526 H499 0.950 . S
C526 C512 1.377 . S
C526 C525 1.373 . S
C527 C511 1.377 . S
C527 C525 1.389 . S
C527 C528 1.524 . S
C528 C527 1.524 . S
C528 C529 1.397 . S
C528 C533 1.363 . S
C529 H500 0.950 . S
C529 C528 1.397 . S
C529 C530 1.334 . S
C530 H501 0.950 . S
C530 C529 1.334 . S
C530 C531 1.287 . S
C531 C530 1.287 . S
C531 C532 1.524 . S
C531 H534 0.999 . S
C532 H502 0.950 . S
C532 C531 1.524 . S
C532 C533 1.415 . S
C533 H503 0.950 . S
C533 C528 1.363 . S
C533 C532 1.415 . S
H534 C531 0.999 . S
H535 C516 0.913 . S
H536 C554 0.951 . S
H537 C556 0.951 . S
H538 C558 0.950 . S
H539 C559 0.950 . S
H540 C561 0.950 . S
H541 C564 0.950 . S
H542 C565 0.950 . S
H543 C567 0.950 1_455 S
H544 C568 0.950 . S
H545 C569 0.951 . S
H546 C571 0.951 . S
H547 C573 0.950 . S
H548 C574 0.950 . S
H549 C576 0.950 . S
H550 C579 0.950 . S
H551 C580 0.950 1_565 S
H552 C582 0.950 . S
H553 C583 0.950 . S
C554 H536 0.951 . S
C554 C555 1.366 . S
C554 C556 1.388 . S
C555 C554 1.366 . S
C555 C559 1.385 . S
C556 H537 0.951 . S
C556 C554 1.388 . S
C556 C557 1.366 . S
C557 C556 1.366 . S
C557 C558 1.414 . S
C557 C560 1.499 . S
C558 H538 0.950 . S
C558 C557 1.414 . S
C558 C559 1.374 . S
C559 H539 0.950 . S
C559 C555 1.385 . S
C559 C558 1.374 . S
C560 C557 1.499 . S
C560 C561 1.373 . S
C560 C562 1.389 . S
C561 H540 0.950 . S
C561 C560 1.373 . S
C561 C577 1.377 . S
C562 C560 1.389 . S
C562 C563 1.524 . S
C562 C576 1.377 . S
C563 C562 1.524 . S
C563 C564 1.397 . S
C563 C568 1.363 . S
C564 H541 0.950 . S
C564 C563 1.397 . S
C564 C565 1.334 . S
C565 H542 0.950 . S
C565 C564 1.334 . S
C565 C566 1.287 . S
C566 C565 1.287 . S
C566 C567 1.524 . S
C566 H585 0.913 . S
C567 H543 0.950 1_655 S
C567 C566 1.524 . S
C567 C568 1.415 . S
C568 H544 0.950 . S
C568 C563 1.363 . S
C568 C567 1.415 . S
C569 H545 0.951 . S
C569 C570 1.366 . S
C569 C571 1.388 . S
C570 C569 1.366 . S
C570 C574 1.385 . S
C571 H546 0.951 . S
C571 C569 1.388 . S
C571 C572 1.366 . S
C572 C571 1.366 . S
C572 C573 1.414 . S
C572 C575 1.499 . S
C573 H547 0.950 . S
C573 C572 1.414 . S
C573 C574 1.374 . S
C574 H548 0.950 . S
C574 C570 1.385 . S
C574 C573 1.374 . S
C575 C572 1.499 . S
C575 C576 1.373 . S
C575 C577 1.389 . S
C576 H549 0.950 . S
C576 C562 1.377 . S
C576 C575 1.373 . S
C577 C561 1.377 . S
C577 C575 1.389 . S
C577 C578 1.524 . S
C578 C577 1.524 . S
C578 C579 1.397 . S
C578 C583 1.363 . S
C579 H550 0.950 . S
C579 C578 1.397 . S
C579 C580 1.334 . S
C580 H551 0.950 1_545 S
C580 C579 1.334 . S
C580 C581 1.287 . S
C581 C580 1.287 . S
C581 C582 1.524 . S
C581 H584 0.999 1_545 S
C582 H552 0.950 . S
C582 C581 1.524 . S
C582 C583 1.415 . S
C583 H553 0.950 . S
C583 C578 1.363 . S
C583 C582 1.415 . S
H584 C581 0.999 1_565 S
H585 C566 0.913 . S
H586 C604 0.951 . S
H587 C606 0.951 . S
H588 C608 0.950 . S
H589 C609 0.950 . S
H590 C611 0.950 . S
H591 C614 0.950 . S
H592 C615 0.950 . S
H593 C617 0.950 . S
H594 C618 0.950 . S
H595 C619 0.951 . S
H596 C621 0.951 . S
H597 C623 0.950 . S
H598 C624 0.950 . S
H599 C626 0.950 . S
H600 C629 0.950 . S
H601 C630 0.950 . S
H602 C632 0.950 . S
H603 C633 0.950 . S
C604 H586 0.951 . S
C604 C605 1.366 . S
C604 C606 1.388 . S
C605 C604 1.366 . S
C605 C609 1.385 . S
C606 H587 0.951 . S
C606 C604 1.388 . S
C606 C607 1.366 . S
C607 C606 1.366 . S
C607 C608 1.414 . S
C607 C610 1.499 . S
C608 H588 0.950 . S
C608 C607 1.414 . S
C608 C609 1.374 . S
C609 H589 0.950 . S
C609 C605 1.385 . S
C609 C608 1.374 . S
C610 C607 1.499 . S
C610 C611 1.373 . S
C610 C612 1.389 . S
C611 H590 0.950 . S
C611 C610 1.373 . S
C611 C627 1.377 . S
C612 C610 1.389 . S
C612 C613 1.524 . S
C612 C626 1.377 . S
C613 C612 1.524 . S
C613 C614 1.397 . S
C613 C618 1.363 . S
C614 H591 0.950 . S
C614 C613 1.397 . S
C614 C615 1.334 . S
C615 H592 0.950 . S
C615 C614 1.334 . S
C615 C616 1.287 . S
C616 C615 1.287 . S
C616 C617 1.524 . S
C616 H635 0.913 . S
C617 H593 0.950 . S
C617 C616 1.524 . S
C617 C618 1.415 . S
C618 H594 0.950 . S
C618 C613 1.363 . S
C618 C617 1.415 . S
C619 H595 0.951 . S
C619 C620 1.366 . S
C619 C621 1.388 . S
C620 C619 1.366 . S
C620 C624 1.385 . S
C621 H596 0.951 . S
C621 C619 1.388 . S
C621 C622 1.366 . S
C622 C621 1.366 . S
C622 C623 1.414 . S
C622 C625 1.499 . S
C623 H597 0.950 . S
C623 C622 1.414 . S
C623 C624 1.374 . S
C624 H598 0.950 . S
C624 C620 1.385 . S
C624 C623 1.374 . S
C625 C622 1.499 . S
C625 C626 1.373 . S
C625 C627 1.389 . S
C626 H599 0.950 . S
C626 C612 1.377 . S
C626 C625 1.373 . S
C627 C611 1.377 . S
C627 C625 1.389 . S
C627 C628 1.524 . S
C628 C627 1.524 . S
C628 C629 1.397 . S
C628 C633 1.363 . S
C629 H600 0.950 . S
C629 C628 1.397 . S
C629 C630 1.334 . S
C630 H601 0.950 . S
C630 C629 1.334 . S
C630 C631 1.287 . S
C631 C630 1.287 . S
C631 C632 1.524 . S
C631 H634 0.999 . S
C632 H602 0.950 . S
C632 C631 1.524 . S
C632 C633 1.415 . S
C633 H603 0.950 . S
C633 C628 1.363 . S
C633 C632 1.415 . S
H634 C631 0.999 . S
H635 C616 0.913 . S
H636 C654 0.951 1_554 S
H637 C656 0.951 . S
H638 C658 0.950 . S
H639 C659 0.950 . S
H640 C661 0.950 . S
H641 C664 0.950 . S
H642 C665 0.950 . S
H643 C667 0.950 . S
H644 C668 0.950 . S
H645 C669 0.951 . S
H646 C671 0.951 . S
H647 C673 0.950 . S
H648 C674 0.950 1_545 S
H649 C676 0.950 . S
H650 C679 0.950 . S
H651 C680 0.950 . S
H652 C682 0.950 . S
H653 C683 0.950 . S
C654 H636 0.951 1_556 S
C654 C655 1.366 . S
C654 C656 1.388 . S
C655 C654 1.366 . S
C655 C659 1.385 . S
C656 H637 0.951 . S
C656 C654 1.388 . S
C656 C657 1.366 . S
C657 C656 1.366 . S
C657 C658 1.414 . S
C657 C660 1.499 . S
C658 H638 0.950 . S
C658 C657 1.414 . S
C658 C659 1.374 . S
C659 H639 0.950 . S
C659 C655 1.385 . S
C659 C658 1.374 . S
C660 C657 1.499 . S
C660 C661 1.373 . S
C660 C662 1.389 . S
C661 H640 0.950 . S
C661 C660 1.373 . S
C661 C677 1.377 . S
C662 C660 1.389 . S
C662 C663 1.524 . S
C662 C676 1.377 . S
C663 C662 1.524 . S
C663 C664 1.397 . S
C663 C668 1.363 . S
C664 H641 0.950 . S
C664 C663 1.397 . S
C664 C665 1.334 . S
C665 H642 0.950 . S
C665 C664 1.334 . S
C665 C666 1.287 . S
C666 C665 1.287 . S
C666 C667 1.524 . S
C666 H685 0.913 . S
C667 H643 0.950 . S
C667 C666 1.524 . S
C667 C668 1.415 . S
C668 H644 0.950 . S
C668 C663 1.363 . S
C668 C667 1.415 . S
C669 H645 0.951 . S
C669 C670 1.366 . S
C669 C671 1.388 . S
C670 C669 1.366 . S
C670 C674 1.385 . S
C671 H646 0.951 . S
C671 C669 1.388 . S
C671 C672 1.366 . S
C672 C671 1.366 . S
C672 C673 1.414 . S
C672 C675 1.499 . S
C673 H647 0.950 . S
C673 C672 1.414 . S
C673 C674 1.374 . S
C674 H648 0.950 1_565 S
C674 C670 1.385 . S
C674 C673 1.374 . S
C675 C672 1.499 . S
C675 C676 1.373 . S
C675 C677 1.389 . S
C676 H649 0.950 . S
C676 C662 1.377 . S
C676 C675 1.373 . S
C677 C661 1.377 . S
C677 C675 1.389 . S
C677 C678 1.524 . S
C678 C677 1.524 . S
C678 C679 1.397 . S
C678 C683 1.363 . S
C679 H650 0.950 . S
C679 C678 1.397 . S
C679 C680 1.334 . S
C680 H651 0.950 . S
C680 C679 1.334 . S
C680 C681 1.287 . S
C681 C680 1.287 . S
C681 C682 1.524 . S
C681 H684 0.999 . S
C682 H652 0.950 . S
C682 C681 1.524 . S
C682 C683 1.415 . S
C683 H653 0.950 . S
C683 C678 1.363 . S
C683 C682 1.415 . S
H684 C681 0.999 . S
H685 C666 0.913 . S
C120 C60 1.236 . S
C105 C43 1.421 . S
C155 C10 1.449 . S
C170 C81 1.257 . S
C205 C21 1.630 . S
C220 C57 1.433 . S
C255 C32 1.629 . S
C270 C78 1.417 . S
C320 C62 1.508 . S
C305 C5 1.519 . S
C370 C82 1.561 . S
C355 C15 1.618 . S
C405 C27 1.593 . S
C420 C58 1.558 . S
C455 C38 1.527 . S
C470 C80 1.480 . S
C520 C79 1.475 . S
C505 C16 1.511 . S
C570 C61 1.479 . S
C555 C26 1.532 . S
C620 C83 1.423 . S
C605 C37 1.456 . S
C655 C4 1.458 1_556 S
C670 C59 1.407 . S
