# Generated by pormake.
# Topology ptr, (4,4)-cn, num edge types: 1
# Building blocks:
#     Node 0, Type 0, BuildingBlock: QUQFOY_clean_sbu_1, # of connection points: 4
#     Node 1, Type 0, BuildingBlock: QUQFOY_clean_sbu_1, # of connection points: 4
#     Node 2, Type 0, BuildingBlock: QUQFOY_clean_sbu_1, # of connection points: 4
#     Node 3, Type 0, BuildingBlock: QUQFOY_clean_sbu_1, # of connection points: 4
#     Node 4, Type 0, BuildingBlock: QUQFOY_clean_sbu_1, # of connection points: 4
#     Node 5, Type 0, BuildingBlock: QUQFOY_clean_sbu_1, # of connection points: 4
#     Node 6, Type 0, BuildingBlock: QUQFOY_clean_sbu_1, # of connection points: 4
#     Node 7, Type 0, BuildingBlock: QUQFOY_clean_sbu_1, # of connection points: 4
#     Node 8, Type 0, BuildingBlock: QUQFOY_clean_sbu_1, # of connection points: 4
#     Node 9, Type 0, BuildingBlock: QUQFOY_clean_sbu_1, # of connection points: 4
#     Node 10, Type 0, BuildingBlock: QUQFOY_clean_sbu_1, # of connection points: 4
#     Node 11, Type 0, BuildingBlock: QUQFOY_clean_sbu_1, # of connection points: 4
#     Node 12, Type 0, BuildingBlock: QUQFOY_clean_sbu_1, # of connection points: 4
#     Node 13, Type 0, BuildingBlock: QUQFOY_clean_sbu_1, # of connection points: 4
#     Node 14, Type 0, BuildingBlock: QUQFOY_clean_sbu_1, # of connection points: 4
#     Node 15, Type 0, BuildingBlock: QUQFOY_clean_sbu_1, # of connection points: 4
#     Node 16, Type 0, BuildingBlock: QUQFOY_clean_sbu_1, # of connection points: 4
#     Node 17, Type 0, BuildingBlock: QUQFOY_clean_sbu_1, # of connection points: 4
#     Node 18, Type 1, BuildingBlock: KUFVIS_clean_linker_0, # of connection points: 4
#     Node 19, Type 1, BuildingBlock: KUFVIS_clean_linker_0, # of connection points: 4
#     Node 20, Type 1, BuildingBlock: KUFVIS_clean_linker_0, # of connection points: 4
#     Node 21, Type 1, BuildingBlock: KUFVIS_clean_linker_0, # of connection points: 4
#     Node 22, Type 1, BuildingBlock: KUFVIS_clean_linker_0, # of connection points: 4
#     Node 23, Type 1, BuildingBlock: KUFVIS_clean_linker_0, # of connection points: 4
#     Node 24, Type 1, BuildingBlock: KUFVIS_clean_linker_0, # of connection points: 4
#     Node 25, Type 1, BuildingBlock: KUFVIS_clean_linker_0, # of connection points: 4
#     Node 26, Type 1, BuildingBlock: KUFVIS_clean_linker_0, # of connection points: 4
#     Node 27, Type 1, BuildingBlock: KUFVIS_clean_linker_0, # of connection points: 4
#     Node 28, Type 1, BuildingBlock: KUFVIS_clean_linker_0, # of connection points: 4
#     Node 29, Type 1, BuildingBlock: KUFVIS_clean_linker_0, # of connection points: 4
#     Node 30, Type 1, BuildingBlock: KUFVIS_clean_linker_0, # of connection points: 4
#     Node 31, Type 1, BuildingBlock: KUFVIS_clean_linker_0, # of connection points: 4
#     Node 32, Type 1, BuildingBlock: KUFVIS_clean_linker_0, # of connection points: 4
#     Node 33, Type 1, BuildingBlock: KUFVIS_clean_linker_0, # of connection points: 4
#     Node 34, Type 1, BuildingBlock: KUFVIS_clean_linker_0, # of connection points: 4
#     Node 35, Type 1, BuildingBlock: KUFVIS_clean_linker_0, # of connection points: 4
#     Edge 36, Type (0, 1), BuildingBlock: EZIPEK_clean_linker_0, # of connection points: 2
#     Edge 37, Type (0, 1), BuildingBlock: EZIPEK_clean_linker_0, # of connection points: 2
#     Edge 38, Type (0, 1), BuildingBlock: EZIPEK_clean_linker_0, # of connection points: 2
#     Edge 39, Type (0, 1), BuildingBlock: EZIPEK_clean_linker_0, # of connection points: 2
#     Edge 40, Type (0, 1), BuildingBlock: EZIPEK_clean_linker_0, # of connection points: 2
#     Edge 41, Type (0, 1), BuildingBlock: EZIPEK_clean_linker_0, # of connection points: 2
#     Edge 42, Type (0, 1), BuildingBlock: EZIPEK_clean_linker_0, # of connection points: 2
#     Edge 43, Type (0, 1), BuildingBlock: EZIPEK_clean_linker_0, # of connection points: 2
#     Edge 44, Type (0, 1), BuildingBlock: EZIPEK_clean_linker_0, # of connection points: 2
#     Edge 45, Type (0, 1), BuildingBlock: EZIPEK_clean_linker_0, # of connection points: 2
#     Edge 46, Type (0, 1), BuildingBlock: EZIPEK_clean_linker_0, # of connection points: 2
#     Edge 47, Type (0, 1), BuildingBlock: EZIPEK_clean_linker_0, # of connection points: 2
#     Edge 48, Type (0, 1), BuildingBlock: EZIPEK_clean_linker_0, # of connection points: 2
#     Edge 49, Type (0, 1), BuildingBlock: EZIPEK_clean_linker_0, # of connection points: 2
#     Edge 50, Type (0, 1), BuildingBlock: EZIPEK_clean_linker_0, # of connection points: 2
#     Edge 51, Type (0, 1), BuildingBlock: EZIPEK_clean_linker_0, # of connection points: 2
#     Edge 52, Type (0, 1), BuildingBlock: EZIPEK_clean_linker_0, # of connection points: 2
#     Edge 53, Type (0, 1), BuildingBlock: EZIPEK_clean_linker_0, # of connection points: 2
#     Edge 54, Type (0, 1), BuildingBlock: EZIPEK_clean_linker_0, # of connection points: 2
#     Edge 55, Type (0, 1), BuildingBlock: EZIPEK_clean_linker_0, # of connection points: 2
#     Edge 56, Type (0, 1), BuildingBlock: EZIPEK_clean_linker_0, # of connection points: 2
#     Edge 57, Type (0, 1), BuildingBlock: EZIPEK_clean_linker_0, # of connection points: 2
#     Edge 58, Type (0, 1), BuildingBlock: EZIPEK_clean_linker_0, # of connection points: 2
#     Edge 59, Type (0, 1), BuildingBlock: EZIPEK_clean_linker_0, # of connection points: 2
#     Edge 60, Type (0, 1), BuildingBlock: EZIPEK_clean_linker_0, # of connection points: 2
#     Edge 61, Type (0, 1), BuildingBlock: EZIPEK_clean_linker_0, # of connection points: 2
#     Edge 62, Type (0, 1), BuildingBlock: EZIPEK_clean_linker_0, # of connection points: 2
#     Edge 63, Type (0, 1), BuildingBlock: EZIPEK_clean_linker_0, # of connection points: 2
#     Edge 64, Type (0, 1), BuildingBlock: EZIPEK_clean_linker_0, # of connection points: 2
#     Edge 65, Type (0, 1), BuildingBlock: EZIPEK_clean_linker_0, # of connection points: 2
#     Edge 66, Type (0, 1), BuildingBlock: EZIPEK_clean_linker_0, # of connection points: 2
#     Edge 67, Type (0, 1), BuildingBlock: EZIPEK_clean_linker_0, # of connection points: 2
#     Edge 68, Type (0, 1), BuildingBlock: EZIPEK_clean_linker_0, # of connection points: 2
#     Edge 69, Type (0, 1), BuildingBlock: EZIPEK_clean_linker_0, # of connection points: 2
#     Edge 70, Type (0, 1), BuildingBlock: EZIPEK_clean_linker_0, # of connection points: 2
#     Edge 71, Type (0, 1), BuildingBlock: EZIPEK_clean_linker_0, # of connection points: 2
#     Edge 72, Type (0, 1), BuildingBlock: EZIPEK_clean_linker_0, # of connection points: 2
#     Edge 73, Type (0, 1), BuildingBlock: EZIPEK_clean_linker_0, # of connection points: 2
#     Edge 74, Type (0, 1), BuildingBlock: EZIPEK_clean_linker_0, # of connection points: 2
#     Edge 75, Type (0, 1), BuildingBlock: EZIPEK_clean_linker_0, # of connection points: 2
#     Edge 76, Type (0, 1), BuildingBlock: EZIPEK_clean_linker_0, # of connection points: 2
#     Edge 77, Type (0, 1), BuildingBlock: EZIPEK_clean_linker_0, # of connection points: 2
#     Edge 78, Type (0, 1), BuildingBlock: EZIPEK_clean_linker_0, # of connection points: 2
#     Edge 79, Type (0, 1), BuildingBlock: EZIPEK_clean_linker_0, # of connection points: 2
#     Edge 80, Type (0, 1), BuildingBlock: EZIPEK_clean_linker_0, # of connection points: 2
#     Edge 81, Type (0, 1), BuildingBlock: EZIPEK_clean_linker_0, # of connection points: 2
#     Edge 82, Type (0, 1), BuildingBlock: EZIPEK_clean_linker_0, # of connection points: 2
#     Edge 83, Type (0, 1), BuildingBlock: EZIPEK_clean_linker_0, # of connection points: 2
#     Edge 84, Type (0, 1), BuildingBlock: EZIPEK_clean_linker_0, # of connection points: 2
#     Edge 85, Type (0, 1), BuildingBlock: EZIPEK_clean_linker_0, # of connection points: 2
#     Edge 86, Type (0, 1), BuildingBlock: EZIPEK_clean_linker_0, # of connection points: 2
#     Edge 87, Type (0, 1), BuildingBlock: EZIPEK_clean_linker_0, # of connection points: 2
#     Edge 88, Type (0, 1), BuildingBlock: EZIPEK_clean_linker_0, # of connection points: 2
#     Edge 89, Type (0, 1), BuildingBlock: EZIPEK_clean_linker_0, # of connection points: 2
#     Edge 90, Type (0, 1), BuildingBlock: EZIPEK_clean_linker_0, # of connection points: 2
#     Edge 91, Type (0, 1), BuildingBlock: EZIPEK_clean_linker_0, # of connection points: 2
#     Edge 92, Type (0, 1), BuildingBlock: EZIPEK_clean_linker_0, # of connection points: 2
#     Edge 93, Type (0, 1), BuildingBlock: EZIPEK_clean_linker_0, # of connection points: 2
#     Edge 94, Type (0, 1), BuildingBlock: EZIPEK_clean_linker_0, # of connection points: 2
#     Edge 95, Type (0, 1), BuildingBlock: EZIPEK_clean_linker_0, # of connection points: 2
#     Edge 96, Type (0, 1), BuildingBlock: EZIPEK_clean_linker_0, # of connection points: 2
#     Edge 97, Type (0, 1), BuildingBlock: EZIPEK_clean_linker_0, # of connection points: 2
#     Edge 98, Type (0, 1), BuildingBlock: EZIPEK_clean_linker_0, # of connection points: 2
#     Edge 99, Type (0, 1), BuildingBlock: EZIPEK_clean_linker_0, # of connection points: 2
#     Edge 100, Type (0, 1), BuildingBlock: EZIPEK_clean_linker_0, # of connection points: 2
#     Edge 101, Type (0, 1), BuildingBlock: EZIPEK_clean_linker_0, # of connection points: 2
#     Edge 102, Type (0, 1), BuildingBlock: EZIPEK_clean_linker_0, # of connection points: 2
#     Edge 103, Type (0, 1), BuildingBlock: EZIPEK_clean_linker_0, # of connection points: 2
#     Edge 104, Type (0, 1), BuildingBlock: EZIPEK_clean_linker_0, # of connection points: 2
#     Edge 105, Type (0, 1), BuildingBlock: EZIPEK_clean_linker_0, # of connection points: 2
#     Edge 106, Type (0, 1), BuildingBlock: EZIPEK_clean_linker_0, # of connection points: 2
#     Edge 107, Type (0, 1), BuildingBlock: EZIPEK_clean_linker_0, # of connection points: 2
# Relax obj value: 0.018
# Max RMSD: 0.077
# Mean RMSD: 0.059
data_MOF--net-ptr--node1-QUQFOY_clean_sbu_1--node2-KUFVIS_clean_linker_0--edge1-EZIPEK_clean_linker_0
_symmetry_space_group_name_H-M    P1
_symmetry_Int_Tables_number       1
_symmetry_cell_setting            triclinic
loop_
_symmetry_equiv_pos_as_xyz
'x, y, z'
_cell_length_a     59.427763
_cell_length_b     59.44135
_cell_length_c     37.481314
_cell_angle_alpha  90.041509
_cell_angle_beta   90.009733
_cell_angle_gamma 120.01754
loop_
_atom_site_label
_atom_site_type_symbol
_atom_site_fract_x
_atom_site_fract_y
_atom_site_fract_z
_atom_type_partial_charge
O0 O 0.04361 0.41814 0.05655 0.0
Cd1 Cd 0.05332 0.4045 0.01191 0.0
Cd2 Cd 1.00049 0.37634 0.00747 0.0
O3 O 1.00095 0.39307 0.0565 0.0
O4 O 0.08873 0.40991 0.02249 0.0
O5 O 0.05503 0.37144 0.01089 0.0
C6 C 0.07919 0.38512 0.01983 0.0
C7 C 0.97338 0.33113 -0.00187 0.0
C8 C 1.02162 0.41113 0.07067 0.0
C9 C 0.03187 0.41764 0.9502 0.0
O10 O 1.01003 0.40035 0.9627 0.0
O11 O 0.05297 0.42242 0.96529 0.0
O12 O 0.96454 0.347 -0.00328 0.0
O13 O 0.99758 0.34091 0.00639 0.0
O14 O 0.623 0.62889 0.06077 0.0
Cd15 Cd 0.63548 0.65449 0.01828 0.0
Cd16 Cd 0.66677 0.63066 0.00971 0.0
O17 O 0.64734 0.61044 0.05537 0.0
O18 O 0.62035 0.67766 0.02666 0.0
O19 O 0.66251 0.69215 0.02716 0.0
C20 C 0.64359 0.6967 0.03161 0.0
C21 C 0.71223 0.64815 0.00254 0.0
C22 C 0.62964 0.61268 0.07139 0.0
C23 C 0.6268 0.62272 0.95218 0.0
O24 O 0.64454 0.6185 0.96358 0.0
O25 O 0.62079 0.63747 0.96923 0.0
O26 O 0.69589 0.62371 -0.00134 0.0
O27 O 0.70278 0.66258 0.01233 0.0
O28 O 0.43235 0.04483 0.97774 0.0
Cd29 Cd 0.41174 0.04929 0.01897 0.0
Cd30 Cd 0.3839 0.99541 0.01166 0.0
O31 O 0.40384 1.00419 0.96359 0.0
O32 O 0.42319 0.08731 0.01897 0.0
O33 O 0.38331 0.05678 0.00491 0.0
C34 C 0.40044 0.0812 0.00724 0.0
C35 C 0.33888 0.96374 0.01395 0.0
C36 C 0.42474 0.02536 0.9571 0.0
C37 C 0.41763 0.01871 0.07719 0.0
O38 O 0.40589 0.99919 0.05657 0.0
O39 O 0.41912 0.04026 0.0694 0.0
O40 O 0.35665 0.95755 0.01002 0.0
O41 O 0.34689 0.98827 0.01686 0.0
O42 O 1.0049 0.61615 0.96944 0.0
Cd43 Cd 1.00048 0.63422 0.01383 0.0
Cd44 Cd 0.05552 0.66207 0.0063 0.0
O45 O 0.04637 0.64323 0.95751 0.0
O46 O 0.96222 0.62189 0.01487 0.0
O47 O 0.99171 0.66284 0.00796 0.0
C48 C 0.96739 0.64549 0.0105 0.0
C49 C 0.08886 0.70638 0.0094 0.0
C50 C 0.02466 0.62342 0.9495 0.0
C51 C 0.03148 0.62603 0.06992 0.0
O52 O 0.05126 0.63909 0.05019 0.0
O53 O 1.00965 0.62393 0.06216 0.0
O54 O 0.09381 0.68782 0.0049 0.0
O55 O 0.06461 0.69958 0.01251 0.0
O56 O 0.42437 0.39629 0.96475 0.0
Cd57 Cd 0.40443 0.37387 0.00857 0.0
Cd58 Cd 0.38084 0.40343 0.00088 0.0
O59 O 0.3977 0.41075 0.95085 0.0
O60 O 0.41292 0.34515 0.01008 0.0
O61 O 0.37331 0.3378 0.00181 0.0
C62 C 0.3887 0.32845 0.00521 0.0
C63 C 0.33812 0.39316 0.01312 0.0
C64 C 0.41759 0.40873 0.9439 0.0
C65 C 0.41609 0.4143 0.06375 0.0
O66 O 0.40573 0.42313 0.04246 0.0
O67 O 0.41511 0.39278 0.05741 0.0
O68 O 0.355 0.41576 0.00121 0.0
O69 O 0.3448 0.37555 0.01488 0.0
O70 O 0.62868 1.00563 0.06522 0.0
Cd71 Cd 0.63975 0.99323 0.0202 0.0
Cd72 Cd 0.66641 0.04708 0.01007 0.0
O73 O 0.64758 0.04805 0.05592 0.0
O74 O 0.63138 0.95695 0.0327 0.0
O75 O 0.6707 0.98766 0.01779 0.0
C76 C 0.65555 0.96406 0.02819 0.0
C77 C 0.71114 0.0764 0.0011 0.0
C78 C 0.63277 0.02803 0.07431 0.0
C79 C 0.62519 1.01223 0.95571 0.0
O80 O 0.64329 0.03465 0.96499 0.0
O81 O 0.62006 0.99224 0.9741 0.0
O82 O 0.69386 0.0832 -0.00348 0.0
O83 O 0.703 0.05313 0.01264 0.0
O84 O 0.70501 0.74504 0.39398 0.0
Cd85 Cd 0.71507 0.73255 0.34816 0.0
Cd86 Cd 0.66024 0.70957 0.33847 0.0
O87 O 0.6624 0.72673 0.38747 0.0
O88 O 0.75101 0.7393 0.35936 0.0
O89 O 0.71884 0.70047 0.34563 0.0
C90 C 0.74277 0.71485 0.35527 0.0
C91 C 0.62625 0.66739 0.32461 0.0
C92 C 0.68308 0.7412 0.40489 0.0
C93 C 0.69721 0.75092 0.28564 0.0
O94 O 0.67412 0.73507 0.29583 0.0
O95 O 0.71676 0.75285 0.30236 0.0
O96 O 0.62201 0.68643 0.32924 0.0
O97 O 0.64965 0.6719 0.32978 0.0
O98 O 0.2907 0.96087 0.39167 0.0
Cd99 Cd 0.30856 0.98555 0.34865 0.0
Cd100 Cd 0.336 0.9588 0.35078 0.0
O101 O 0.31533 0.94287 0.3969 0.0
O102 O 0.29503 1.01054 0.34944 0.0
O103 O 0.33591 0.0226 0.36077 0.0
C104 C 0.31775 0.02851 0.35938 0.0
C105 C 0.38161 0.9769 0.3493 0.0
C106 C 0.29655 0.94558 0.4077 0.0
C107 C 0.30207 0.95008 0.28689 0.0
O108 O 0.31539 0.94267 0.30467 0.0
O109 O 0.29911 0.9687 0.29806 0.0
O110 O 0.36585 0.95216 0.35005 0.0
O111 O 0.37117 0.99146 0.34916 0.0
O112 O 0.09594 0.37111 0.30659 0.0
Cd113 Cd 0.07548 0.37579 0.34781 0.0
Cd114 Cd 0.04879 0.3213 0.34028 0.0
O115 O 0.06663 0.33112 0.29076 0.0
O116 O 0.08802 0.4141 0.34838 0.0
O117 O 0.04789 0.3846 0.33378 0.0
C118 C 0.06553 0.40881 0.33654 0.0
C119 C 1.00602 0.28743 0.35027 0.0
C120 C 0.08785 0.35213 0.28496 0.0
C121 C 0.08282 0.34546 0.40478 0.0
O122 O 0.07288 0.32648 0.38305 0.0
O123 O 0.0824 0.36626 0.39819 0.0
O124 O 1.02386 0.28282 0.33923 0.0
O125 O 1.01183 0.31144 0.3526 0.0
O126 O 0.66882 0.94675 0.3065 0.0
Cd127 Cd 0.66281 0.96445 0.35005 0.0
Cd128 Cd 0.7175 0.99125 0.34769 0.0
O129 O 0.71151 0.97049 0.30121 0.0
O130 O 0.62456 0.95172 0.34775 0.0
O131 O 0.65446 0.99267 0.33833 0.0
C132 C 0.63026 0.97475 0.33795 0.0
C133 C 0.74773 0.0365 0.3492 0.0
C134 C 0.68972 0.95223 0.29022 0.0
C135 C 0.69125 0.95644 0.41088 0.0
O136 O 0.71204 0.96984 0.39323 0.0
O137 O 0.66978 0.95404 0.40017 0.0
O138 O 0.75494 0.01935 0.34826 0.0
O139 O 0.72297 0.02771 0.34981 0.0
O140 O 0.0932 0.73082 0.29751 0.0
Cd141 Cd 0.07361 0.70756 0.34104 0.0
Cd142 Cd 0.04923 0.73711 0.33429 0.0
O143 O 0.06636 0.74521 0.28435 0.0
O144 O 0.08346 0.67973 0.34218 0.0
O145 O 0.04336 0.67092 0.33424 0.0
C146 C 0.0594 0.66236 0.33767 0.0
C147 C 1.00652 0.7271 0.34627 0.0
C148 C 0.08637 0.74347 0.27712 0.0
C149 C 0.08406 0.74697 0.39757 0.0
O150 O 0.0737 0.75602 0.37664 0.0
O151 O 0.08356 0.7258 0.39034 0.0
O152 O 1.02366 0.74978 0.33493 0.0
O153 O 1.01293 0.70929 0.34755 0.0
O154 O 0.28432 0.32693 0.38772 0.0
Cd155 Cd 0.29709 0.31447 0.34485 0.0
Cd156 Cd 0.32833 0.36981 0.33736 0.0
O157 O 0.30858 0.36977 0.38316 0.0
O158 O 0.28236 0.27622 0.35268 0.0
O159 O 0.32444 0.30441 0.35389 0.0
C160 C 0.30569 0.28082 0.35813 0.0
C161 C 0.3736 0.39857 0.33009 0.0
C162 C 0.29089 0.34965 0.39887 0.0
C163 C 0.28883 0.33808 0.27915 0.0
O164 O 0.30636 0.35993 0.29112 0.0
O165 O 0.28274 0.31714 0.29574 0.0
O166 O 0.3569 0.40625 0.32683 0.0
O167 O 0.36467 0.3747 0.33954 0.0
O168 O 0.37215 0.08 0.72901 0.0
Cd169 Cd 0.38079 0.06483 0.68506 0.0
Cd170 Cd 0.32542 0.03814 0.68166 0.0
O171 O 0.32956 0.0546 0.73198 0.0
O172 O 0.41716 0.07216 0.69459 0.0
O173 O 0.38442 0.03268 0.68586 0.0
C174 C 0.4087 0.04751 0.69348 0.0
C175 C 0.29087 0.99629 0.66816 0.0
C176 C 0.35063 0.07316 0.74445 0.0
C177 C 0.35819 0.07858 0.62426 0.0
O178 O 0.33622 0.06304 0.63817 0.0
O179 O 0.37914 0.08157 0.63787 0.0
O180 O 0.28686 1.01514 0.67562 0.0
O181 O 0.31439 1.00063 0.67094 0.0
O182 O 0.95074 0.3012 0.71146 0.0
Cd183 Cd 0.97038 0.32665 0.67047 0.0
Cd184 Cd 0.99948 0.30169 0.67661 0.0
O185 O 0.98054 0.29079 0.7254 0.0
O186 O 0.95732 0.35186 0.6719 0.0
O187 O 0.99782 0.36278 0.68498 0.0
C188 C 0.97986 0.36897 0.68374 0.0
C189 C 0.04472 0.31555 0.67368 0.0
C190 C 0.95925 0.2902 0.73211 0.0
C191 C 0.96382 0.29038 0.61247 0.0
O192 O 0.97617 0.28302 0.63263 0.0
O193 O 0.96262 0.31062 0.62003 0.0
O194 O 0.02713 0.29148 0.67723 0.0
O195 O 0.0364 0.33181 0.67091 0.0
O196 O 0.76685 0.70562 0.64019 0.0
Cd197 Cd 0.74731 0.71104 0.68178 0.0
Cd198 Cd 0.72006 0.65676 0.67508 0.0
O199 O 0.73645 0.66595 0.62479 0.0
O200 O 0.75974 0.74929 0.68102 0.0
O201 O 0.71944 0.71934 0.6678 0.0
C202 C 0.73708 0.74362 0.66935 0.0
C203 C 0.67756 0.62341 0.68723 0.0
C204 C 0.75786 0.68663 0.6185 0.0
C205 C 0.75539 0.68111 0.73816 0.0
O206 O 0.74516 0.66216 0.71644 0.0
O207 O 0.75482 0.70189 0.73205 0.0
O208 O 0.69492 0.61836 0.6754 0.0
O209 O 0.68363 0.64751 0.68917 0.0
O210 O 0.34628 0.28722 0.62457 0.0
Cd211 Cd 0.33668 0.30143 0.66935 0.0
Cd212 Cd 0.39167 0.32906 0.67182 0.0
O213 O 0.38924 0.30975 0.62513 0.0
O214 O 0.2991 0.29041 0.65976 0.0
O215 O 0.32911 0.33112 0.66776 0.0
C216 C 0.30524 0.3145 0.66017 0.0
C217 C 0.42139 0.37433 0.67545 0.0
C218 C 0.36809 0.29254 0.61116 0.0
C219 C 0.36211 0.29114 0.73189 0.0
O220 O 0.38372 0.3066 0.71712 0.0
O221 O 0.34075 0.2873 0.71839 0.0
O222 O 0.42884 0.35736 0.67629 0.0
O223 O 0.39664 0.36534 0.67339 0.0
O224 O 0.75849 0.05891 0.63441 0.0
Cd225 Cd 0.74379 0.03711 0.68019 0.0
Cd226 Cd 0.71608 0.06403 0.68053 0.0
O227 O 0.73463 0.07796 0.63155 0.0
O228 O 0.75251 1.00863 0.67733 0.0
O229 O 0.71238 1.00084 0.67933 0.0
C230 C 0.72806 0.99172 0.67817 0.0
C231 C 0.67126 0.04951 0.68981 0.0
C232 C 0.7524 0.07417 0.61888 0.0
C233 C 0.7561 0.07459 0.73955 0.0
O234 O 0.73939 0.07928 0.72546 0.0
O235 O 0.76044 0.05741 0.72643 0.0
O236 O 0.6886 0.07385 0.68938 0.0
O237 O 0.67932 0.03349 0.68257 0.0
O238 O 0.95624 0.65936 0.72399 0.0
Cd239 Cd 0.96966 0.65206 0.67688 0.0
Cd240 Cd 0.9963 0.70556 0.67328 0.0
O241 O 0.97656 0.70222 0.72051 0.0
O242 O 0.96169 0.61514 0.67994 0.0
O243 O 1.00153 0.64806 0.67689 0.0
C244 C 0.98625 0.62321 0.67866 0.0
C245 C 0.04169 0.735 0.6707 0.0
C246 C 0.96095 0.68121 0.73648 0.0
C247 C 0.95751 0.67612 0.61456 0.0
O248 O 0.97477 0.69801 0.62684 0.0
O249 O 0.95244 0.65514 0.63031 0.0
O250 O 0.02489 0.74269 0.67003 0.0
O251 O 0.03246 0.7102 0.67215 0.0
H252 H 0.27236 0.35742 0.1256 0.0
H253 H 0.21811 0.37188 0.06916 0.0
H254 H 0.19963 0.33669 0.17438 0.0
H255 H 0.18043 0.3594 0.18128 0.0
H256 H 0.11752 0.36099 0.12928 0.0
H257 H 0.17436 0.35496 0.06569 0.0
C258 C 0.2534 0.3559 0.12414 0.0
C259 C 0.23692 0.34677 0.15357 0.0
C260 C 0.24628 0.36402 0.09332 0.0
C261 C 0.22247 0.36388 0.09231 0.0
C262 C 0.20523 0.35457 0.12187 0.0
C263 C 0.21241 0.34483 0.15165 0.0
C264 C 0.1808 0.35647 0.12317 0.0
C265 C 0.17061 0.35842 0.15654 0.0
C266 C 0.14736 0.35903 0.15869 0.0
C267 C 0.13515 0.35985 0.12744 0.0
C268 C 0.14516 0.35922 0.09394 0.0
C269 C 0.16754 0.3567 0.09174 0.0
H270 H 0.6739 0.92003 0.13325 0.0
H271 H 0.68178 0.86424 0.06941 0.0
H272 H 0.68558 0.86314 0.18513 0.0
H273 H 0.70716 0.84373 0.1767 0.0
H274 H 0.68167 0.76802 0.13525 0.0
H275 H 0.66578 0.82012 0.07572 0.0
C276 C 0.67646 0.90321 0.13136 0.0
C277 C 0.68086 0.89317 0.16237 0.0
C278 C 0.67711 0.89324 0.09785 0.0
C279 C 0.6808 0.87152 0.09549 0.0
C280 C 0.68363 0.85977 0.12696 0.0
C281 C 0.68369 0.8712 0.16025 0.0
C282 C 0.68608 0.83561 0.12617 0.0
C283 C 0.69741 0.82982 0.15555 0.0
C284 C 0.69444 0.80504 0.15979 0.0
C285 C 0.68374 0.78713 0.13211 0.0
C286 C 0.67446 0.79285 0.10119 0.0
C287 C 0.67495 0.81682 0.09849 0.0
H288 H 0.28029 0.9241 0.12737 0.0
H289 H 0.21975 0.86349 0.06587 0.0
H290 H 0.21998 0.85902 0.18178 0.0
H291 H 0.1805 0.83081 0.17981 0.0
H292 H 0.12297 0.76585 0.12171 0.0
H293 H 0.1896 0.82354 0.06582 0.0
C294 C 0.26229 0.90559 0.12631 0.0
C295 C 0.25043 0.893 0.15798 0.0
C296 C 0.25181 0.89443 0.09333 0.0
C297 C 0.22786 0.87085 0.0919 0.0
C298 C 0.21513 0.85724 0.12368 0.0
C299 C 0.22757 0.86862 0.15661 0.0
C300 C 0.18933 0.8316 0.12283 0.0
C301 C 0.17443 0.82097 0.15448 0.0
C302 C 0.15084 0.79718 0.15416 0.0
C303 C 0.14127 0.78409 0.122 0.0
C304 C 0.15518 0.79362 0.09041 0.0
C305 C 0.17914 0.81718 0.0907 0.0
H306 H 0.36165 0.10931 0.90029 0.0
H307 H 0.37892 0.18044 0.95155 0.0
H308 H 0.35293 0.16572 0.84117 0.0
H309 H 0.36814 0.20654 0.83723 0.0
H310 H 0.36487 0.26819 0.89078 0.0
H311 H 0.36415 0.20758 0.953 0.0
C312 C 0.362 0.12774 0.89949 0.0
C313 C 0.35728 0.13632 0.86726 0.0
C314 C 0.37024 0.14373 0.92947 0.0
C315 C 0.37151 0.16807 0.92833 0.0
C316 C 0.36456 0.17657 0.89683 0.0
C317 C 0.35773 0.16022 0.86623 0.0
C318 C 0.36528 0.20252 0.89534 0.0
C319 C 0.36636 0.21463 0.86215 0.0
C320 C 0.36528 0.23773 0.86042 0.0
C321 C 0.36496 0.24999 0.89202 0.0
C322 C 0.36584 0.23982 0.92516 0.0
C323 C 0.36489 0.21564 0.92691 0.0
H324 H 0.77478 0.11307 0.891 0.0
H325 H 0.83302 0.17698 0.95161 0.0
H326 H 0.8467 0.16515 0.84114 0.0
H327 H 0.86784 0.20655 0.83695 0.0
H328 H 0.93238 0.26906 0.88894 0.0
H329 H 0.87517 0.20643 0.95239 0.0
C330 C 0.79387 0.13034 0.89254 0.0
C331 C 0.80965 0.13826 0.86243 0.0
C332 C 0.80269 0.14336 0.92507 0.0
C333 C 0.82703 0.16654 0.9266 0.0
C334 C 0.84301 0.17599 0.89571 0.0
C335 C 0.83448 0.16033 0.86449 0.0
C336 C 0.86794 0.20208 0.89491 0.0
C337 C 0.87802 0.21463 0.86172 0.0
C338 C 0.90167 0.23802 0.85962 0.0
C339 C 0.91446 0.25054 0.89081 0.0
C340 C 0.90461 0.23975 0.92429 0.0
C341 C 0.8818 0.21508 0.92638 0.0
H342 H 0.77512 0.67131 0.89501 0.0
H343 H 0.83704 0.67405 0.95718 0.0
H344 H 0.83715 0.6698 0.84123 0.0
H345 H 0.87775 0.68636 0.84419 0.0
H346 H 0.93101 0.66859 0.89509 0.0
H347 H 0.86728 0.66309 0.9556 0.0
C348 C 0.7935 0.67159 0.89646 0.0
C349 C 0.80603 0.67201 0.86498 0.0
C350 C 0.80408 0.67141 0.92967 0.0
C351 C 0.82861 0.67289 0.93124 0.0
C352 C 0.8417 0.67275 0.89937 0.0
C353 C 0.82925 0.67138 0.86641 0.0
C354 C 0.86772 0.67355 0.8996 0.0
C355 C 0.8829 0.67974 0.86798 0.0
C356 C 0.90497 0.67694 0.86588 0.0
C357 C 0.91372 0.67037 0.89647 0.0
C358 C 0.90081 0.66651 0.92898 0.0
C359 C 0.87754 0.66747 0.93049 0.0
H360 H 0.94116 0.69344 0.45959 0.0
H361 H 0.88611 0.70562 0.40107 0.0
H362 H 0.86804 0.67214 0.50734 0.0
H363 H 0.84879 0.69467 0.51306 0.0
H364 H 0.78474 0.69392 0.46126 0.0
H365 H 0.8421 0.68871 0.39757 0.0
C366 C 0.92206 0.69154 0.45772 0.0
C367 C 0.90557 0.68271 0.48717 0.0
C368 C 0.91472 0.69884 0.4263 0.0
C369 C 0.89068 0.69823 0.42469 0.0
C370 C 0.87344 0.68924 0.45424 0.0
C371 C 0.88084 0.6802 0.48463 0.0
C372 C 0.84883 0.69085 0.45508 0.0
C373 C 0.83873 0.69308 0.48832 0.0
C374 C 0.81525 0.69313 0.49046 0.0
C375 C 0.80261 0.69323 0.45931 0.0
C376 C 0.8125 0.69245 0.42578 0.0
C377 C 0.83526 0.69051 0.42358 0.0
H378 H 0.34523 0.25164 0.46275 0.0
H379 H 0.33067 0.18259 0.40754 0.0
H380 H 0.37324 0.20471 0.50794 0.0
H381 H 0.35823 0.16491 0.51699 0.0
H382 H 0.34501 0.09491 0.46787 0.0
H383 H 0.34218 0.15286 0.40316 0.0
C384 C 0.34772 0.23478 0.46089 0.0
C385 C 0.35922 0.22904 0.48904 0.0
C386 C 0.33844 0.21868 0.43098 0.0
C387 C 0.33975 0.19562 0.42978 0.0
C388 C 0.35176 0.18934 0.45791 0.0
C389 C 0.36278 0.20746 0.48645 0.0
C390 C 0.35111 0.16344 0.45946 0.0
C391 C 0.35491 0.15412 0.49253 0.0
C392 C 0.35305 0.12974 0.49545 0.0
C393 C 0.34708 0.11406 0.46536 0.0
C394 C 0.34303 0.12223 0.43231 0.0
C395 C 0.3453 0.14698 0.4291 0.0
H396 H 0.94074 0.25395 0.45812 0.0
H397 H 0.88563 0.18523 0.40314 0.0
H398 H 0.87406 0.19768 0.51452 0.0
H399 H 0.84614 0.15781 0.51704 0.0
H400 H 0.78203 0.09746 0.46073 0.0
H401 H 0.84451 0.15728 0.40097 0.0
C402 C 0.92234 0.2358 0.45802 0.0
C403 C 0.90851 0.22677 0.48971 0.0
C404 C 0.91424 0.22083 0.42708 0.0
C405 C 0.89075 0.19681 0.42715 0.0
C406 C 0.87499 0.18776 0.4584 0.0
C407 C 0.88462 0.20333 0.48969 0.0
C408 C 0.84921 0.1622 0.45889 0.0
C409 C 0.83699 0.1501 0.49163 0.0
C410 C 0.81243 0.12736 0.49233 0.0
C411 C 0.8006 0.11541 0.46026 0.0
C412 C 0.81276 0.1255 0.42765 0.0
C413 C 0.83638 0.14936 0.4268 0.0
H414 H 0.02951 0.4411 0.2299 0.0
H415 H 0.04848 0.51162 0.28457 0.0
H416 H 1.02378 0.50022 0.1736 0.0
H417 H 0.04019 0.54094 0.17108 0.0
H418 H 0.03914 0.60313 0.22602 0.0
H419 H 0.03595 0.54072 0.28695 0.0
C420 C 0.03051 0.45985 0.23003 0.0
C421 C 0.02665 0.46959 0.19823 0.0
C422 C 0.03882 0.47507 0.26079 0.0
C423 C 0.04107 0.49987 0.26079 0.0
C424 C 0.03509 0.50962 0.22968 0.0
C425 C 0.02801 0.49391 0.19839 0.0
C426 C 0.03712 0.53621 0.22914 0.0
C427 C 0.03879 0.54892 0.1963 0.0
C428 C 0.03853 0.57242 0.19516 0.0
C429 C 0.03872 0.58467 0.22693 0.0
C430 C 0.03886 0.57383 0.25984 0.0
C431 C 0.03717 0.54925 0.26107 0.0
H432 H 0.43559 0.4412 0.2216 0.0
H433 H 0.49834 0.49874 0.28526 0.0
H434 H 0.49974 0.50452 0.16975 0.0
H435 H 0.54185 0.5207 0.17753 0.0
H436 H 0.59381 0.59579 0.22013 0.0
H437 H 0.52499 0.54433 0.27897 0.0
C438 C 0.45424 0.45899 0.22352 0.0
C439 C 0.46714 0.47138 0.19231 0.0
C440 C 0.46488 0.46896 0.25709 0.0
C441 C 0.48967 0.49167 0.25929 0.0
C442 C 0.50311 0.50483 0.22775 0.0
C443 C 0.4909 0.49465 0.19447 0.0
C444 C 0.52963 0.52899 0.2284 0.0
C445 C 0.54661 0.53462 0.19891 0.0
C446 C 0.56903 0.55905 0.19515 0.0
C447 C 0.57642 0.57691 0.22298 0.0
C448 C 0.56121 0.57143 0.25368 0.0
C449 C 0.5375 0.54765 0.25623 0.0
H450 H 0.43988 1.00746 0.23545 0.0
H451 H 0.50375 1.01009 0.29214 0.0
H452 H 0.50295 1.01109 0.1763 0.0
H453 H 0.54482 0.03114 0.18039 0.0
H454 H 0.59845 1.0109 0.22479 0.0
H455 H 0.53107 0.99534 0.28516 0.0
C456 C 0.45869 1.00861 0.23509 0.0
C457 C 0.47089 1.0106 0.20253 0.0
C458 C 0.47001 1.00737 0.26713 0.0
C459 C 0.49491 1.00988 0.26684 0.0
C460 C 0.50773 1.01158 0.23416 0.0
C461 C 0.49481 1.01114 0.20206 0.0
C462 C 0.53395 1.01311 0.23307 0.0
C463 C 0.55004 0.02294 0.20244 0.0
C464 C 0.57267 0.02121 0.19891 0.0
C465 C 0.58093 1.01217 0.22747 0.0
C466 C 0.56648 1.00374 0.25891 0.0
C467 C 0.54274 1.00362 0.26151 0.0
H468 H 0.6071 0.02595 0.80207 0.0
H469 H 0.55065 0.03314 0.73889 0.0
H470 H 0.53564 1.00964 0.84999 0.0
H471 H 0.51689 0.03225 0.85307 0.0
H472 H 0.45231 0.03 0.80105 0.0
H473 H 0.50827 0.02191 0.73802 0.0
C474 C 0.58834 0.02481 0.79975 0.0
C475 C 0.57239 0.01808 0.82962 0.0
C476 C 0.58015 0.02889 0.7666 0.0
C477 C 0.55627 0.02882 0.76428 0.0
C478 C 0.54023 0.02348 0.79498 0.0
C479 C 0.54802 0.01623 0.82672 0.0
C480 C 0.51599 0.02598 0.79536 0.0
C481 C 0.50651 0.02972 0.82837 0.0
C482 C 0.48308 0.02994 0.83048 0.0
C483 C 0.4701 0.02914 0.79925 0.0
C484 C 0.47944 0.02713 0.76585 0.0
C485 C 0.502 0.02477 0.76386 0.0
H486 H 1.01458 0.59208 0.79098 0.0
H487 H 1.0156 0.53055 0.73275 0.0
H488 H 1.0154 0.53068 0.84862 0.0
H489 H 0.03451 0.50809 0.84449 0.0
H490 H 1.01283 0.43433 0.79841 0.0
H491 H 1.0002 0.48832 0.73857 0.0
C492 C 1.01513 0.5741 0.79086 0.0
C493 C 1.0164 0.56316 0.82313 0.0
C494 C 1.01377 0.56184 0.7585 0.0
C495 C 1.01548 0.53899 0.75825 0.0
C496 C 1.01648 0.52719 0.7907 0.0
C497 C 1.01609 0.53939 0.82305 0.0
C498 C 1.01717 0.50206 0.79139 0.0
C499 C 0.0262 0.49498 0.82212 0.0
C500 C 1.0237 0.47028 0.82518 0.0
C501 C 1.0146 0.45336 0.79617 0.0
C502 C 1.00711 0.46026 0.76463 0.0
C503 C 1.00775 0.48425 0.76243 0.0
H504 H 0.61076 0.58893 0.79968 0.0
H505 H 0.55755 0.52265 0.73839 0.0
H506 H 0.53696 0.53575 0.8446 0.0
H507 H 0.51393 0.49406 0.84772 0.0
H508 H 0.45305 0.43261 0.78812 0.0
H509 H 0.51545 0.49559 0.73182 0.0
C510 C 0.59182 0.57157 0.79703 0.0
C511 C 0.57475 0.5633 0.82583 0.0
C512 C 0.58527 0.55748 0.76522 0.0
C513 C 0.56139 0.53401 0.76248 0.0
C514 C 0.54335 0.52514 0.79124 0.0
C515 C 0.55017 0.54092 0.82231 0.0
C516 C 0.51821 0.49924 0.78988 0.0
C517 C 0.50556 0.4863 0.82188 0.0
C518 C 0.4817 0.46285 0.82123 0.0
C519 C 0.47112 0.45107 0.78859 0.0
C520 C 0.48375 0.46229 0.75661 0.0
C521 C 0.50672 0.48677 0.75707 0.0
H522 H 0.70211 0.77611 0.5567 0.0
H523 H 0.71514 0.84246 0.61777 0.0
H524 H 0.68047 0.82861 0.51212 0.0
H525 H 0.69903 0.87038 0.50877 0.0
H526 H 0.69897 0.93151 0.56833 0.0
H527 H 0.6998 0.86927 0.62466 0.0
C528 C 0.70038 0.79337 0.55938 0.0
C529 C 0.69115 0.80136 0.53073 0.0
C530 C 0.70816 0.80763 0.59105 0.0
C531 C 0.70748 0.83097 0.59381 0.0
C532 C 0.69789 0.83956 0.56523 0.0
C533 C 0.68879 0.82364 0.53428 0.0
C534 C 0.69833 0.86531 0.5666 0.0
C535 C 0.69831 0.8781 0.53458 0.0
C536 C 0.69765 0.90142 0.53522 0.0
C537 C 0.69874 0.91314 0.56787 0.0
C538 C 0.70069 0.90223 0.59983 0.0
C539 C 0.69946 0.87787 0.59941 0.0
H540 H 0.10179 0.77207 0.55836 0.0
H541 H 0.16344 0.8317 0.62071 0.0
H542 H 0.16497 0.83561 0.50506 0.0
H543 H 0.20698 0.85562 0.51193 0.0
H544 H 0.2575 0.9298 0.55815 0.0
H545 H 0.18957 0.87547 0.6159 0.0
C546 C 0.12026 0.79009 0.55976 0.0
C547 C 0.13302 0.80223 0.52828 0.0
C548 C 0.13068 0.80105 0.59298 0.0
C549 C 0.15516 0.82404 0.59476 0.0
C550 C 0.16843 0.83696 0.56311 0.0
C551 C 0.15643 0.82596 0.52999 0.0
C552 C 0.19431 0.86192 0.5638 0.0
C553 C 0.21122 0.86889 0.53401 0.0
C554 C 0.2333 0.89367 0.53131 0.0
C555 C 0.24029 0.91069 0.5601 0.0
C556 C 0.22522 0.90384 0.59106 0.0
C557 C 0.20188 0.87973 0.59271 0.0
H558 H 0.10389 0.33689 0.56418 0.0
H559 H 0.167 0.33876 0.62246 0.0
H560 H 0.16484 0.33581 0.5065 0.0
H561 H 0.20569 0.35446 0.50781 0.0
H562 H 0.26016 0.33553 0.55125 0.0
H563 H 0.19945 0.33059 0.61861 0.0
C564 C 0.12232 0.33722 0.56437 0.0
C565 C 0.13413 0.33772 0.53214 0.0
C566 C 0.13357 0.33663 0.59679 0.0
C567 C 0.15819 0.33818 0.597 0.0
C568 C 0.17081 0.33874 0.5644 0.0
C569 C 0.1575 0.33731 0.5322 0.0
C570 C 0.19717 0.34022 0.56284 0.0
C571 C 0.21145 0.3472 0.53035 0.0
C572 C 0.2334 0.34451 0.52579 0.0
C573 C 0.24293 0.33722 0.55475 0.0
C574 C 0.23178 0.3337 0.5886 0.0
C575 C 0.20844 0.33448 0.59259 0.0
C576 C 0.04052 0.4309 0.13008 0.0
C577 C 1.02087 0.4245 0.10408 0.0
C578 C 1.00291 0.44586 0.14147 0.0
C579 C 0.02486 0.4554 0.16433 0.0
N580 N 0.06843 0.4629 0.17307 0.0
N581 N 0.98649 0.4314 0.08176 0.0
C582 C 0.04487 0.44974 0.15637 0.0
C583 C 1.00279 0.4334 0.10882 0.0
N584 N 0.05449 0.41833 0.13069 0.0
N585 N 0.98191 0.44798 0.15118 0.0
H586 H 0.98657 0.42381 0.05676 0.0
H587 H 0.97482 0.43988 0.08295 0.0
H588 H 0.98111 0.45655 0.17508 0.0
H589 H 0.96444 0.43906 0.13708 0.0
H590 H 0.06756 0.421 0.15105 0.0
H591 H 0.05066 0.40297 0.11356 0.0
H592 H 0.08423 0.46077 0.16594 0.0
H593 H 0.0731 0.47809 0.19093 0.0
C594 C 0.62654 0.59225 0.13207 0.0
C595 C 0.61438 0.59464 0.10083 0.0
C596 C 0.57185 0.57093 0.12993 0.0
C597 C 0.58376 0.56767 0.16085 0.0
N598 N 0.6213 0.56907 0.18757 0.0
N599 N 0.575 0.57824 0.06623 0.0
C600 C 0.61078 0.57625 0.16056 0.0
C601 C 0.58686 0.58131 0.09855 0.0
N602 N 0.65295 0.60638 0.13558 0.0
N603 N 0.54677 0.56596 0.13093 0.0
H604 H 0.58537 0.58479 0.04241 0.0
H605 H 0.55499 0.56664 0.06265 0.0
H606 H 0.53509 0.55939 0.15358 0.0
H607 H 0.53834 0.57082 0.11014 0.0
H608 H 0.66257 0.60757 0.15935 0.0
H609 H 0.66517 0.61863 0.11569 0.0
H610 H 0.64039 0.57277 0.18733 0.0
H611 H 0.61011 0.55711 0.20849 0.0
C612 C 0.41842 0.99531 0.1329 0.0
C613 C 0.43137 0.01668 0.10923 0.0
C614 C 0.47004 0.03478 0.14758 0.0
C615 C 0.4581 1.01206 0.16899 0.0
N616 N 0.42304 0.96801 0.1768 0.0
N617 N 0.47215 0.05303 0.08929 0.0
C618 C 0.4329 0.99147 0.16002 0.0
C619 C 0.45795 0.03541 0.11518 0.0
N620 N 0.39212 0.97929 0.13061 0.0
N621 N 0.4924 0.05622 0.15868 0.0
H622 H 0.46464 0.05342 0.06431 0.0
H623 H 0.49219 0.06534 0.09112 0.0
H624 H 0.50168 0.05694 0.18262 0.0
H625 H 0.5003 0.07411 0.14579 0.0
H626 H 0.38142 0.96499 0.14945 0.0
H627 H 0.3806 0.98205 0.11214 0.0
H628 H 0.4058 0.95161 0.16899 0.0
H629 H 0.4334 0.96423 0.19604 0.0
C630 C 0.44852 1.00825 0.92052 0.0
C631 C 0.44098 0.02724 0.92575 0.0
C632 C 0.46701 0.05114 0.87369 0.0
C633 C 0.47107 0.03014 0.86538 0.0
N634 N 0.46164 0.98638 0.87802 0.0
N635 N 0.43956 0.06465 0.90338 0.0
C636 C 0.46082 1.00807 0.88808 0.0
C637 C 0.44941 0.04825 0.90139 0.0
N638 N 0.44488 0.99096 0.94701 0.0
N639 N 0.48022 0.07396 0.85532 0.0
H640 H 0.42569 0.06254 0.92215 0.0
H641 H 0.44309 0.07867 0.88414 0.0
H642 H 0.49357 0.07682 0.83525 0.0
H643 H 0.47992 0.09076 0.8624 0.0
H644 H 0.45239 0.97845 0.94586 0.0
H645 H 0.43688 0.991 0.97174 0.0
H646 H 0.45185 0.96881 0.89174 0.0
H647 H 0.47006 0.98509 0.85429 0.0
C648 C 0.04765 0.43706 0.88884 0.0
C649 C 0.03231 0.43379 0.91956 0.0
C650 C 1.01237 0.45608 0.88932 0.0
C651 C 0.0288 0.46076 0.8594 0.0
N652 N 0.06648 0.46141 0.83445 0.0
N653 N 1.0064 0.44757 0.95267 0.0
C654 C 0.04794 0.45313 0.86047 0.0
C655 C 1.01662 0.4456 0.92093 0.0
N656 N 0.06077 0.42373 0.88573 0.0
N657 N 0.99174 0.4602 0.88712 0.0
H658 H 1.00997 0.44119 0.9768 0.0
H659 H 0.9969 0.45819 0.95564 0.0
H660 H 0.98729 0.46722 0.86433 0.0
H661 H 0.97758 0.4543 0.90691 0.0
H662 H 0.06999 0.42329 0.86232 0.0
H663 H 0.06045 0.41113 0.9053 0.0
H664 H 0.08235 0.45848 0.8355 0.0
H665 H 0.06737 0.47348 0.81362 0.0
C666 C 0.60713 0.61973 0.89111 0.0
C667 C 0.61078 0.6074 0.92118 0.0
C668 C 0.589 0.56557 0.8898 0.0
C669 C 0.58408 0.57754 0.86039 0.0
N670 N 0.5829 0.61458 0.83661 0.0
N671 N 0.59758 0.56736 0.95306 0.0
C672 C 0.59133 0.60421 0.86228 0.0
C673 C 0.59934 0.57992 0.92174 0.0
N674 N 0.61977 0.64623 0.88916 0.0
N675 N 0.58527 0.541 0.8868 0.0
H676 H 0.6039 0.577 0.97744 0.0
H677 H 0.58718 0.5472 0.9555 0.0
H678 H 0.57835 0.5298 0.86374 0.0
H679 H 0.59139 0.53266 0.90618 0.0
H680 H 0.62003 0.65627 0.86626 0.0
H681 H 0.63187 0.65826 0.90936 0.0
H682 H 0.58552 0.63324 0.83818 0.0
H683 H 0.57104 0.60358 0.81549 0.0
C684 C 1.00142 0.59999 0.89335 0.0
C685 C 1.02249 0.60771 0.91742 0.0
C686 C 0.04028 0.58696 0.87894 0.0
C687 C 1.01781 0.57695 0.85704 0.0
N688 N 0.9741 0.56883 0.84866 0.0
N689 N 0.05812 0.60221 0.93773 0.0
C690 C 0.99745 0.58188 0.86591 0.0
C691 C 0.04087 0.59941 0.91157 0.0
N692 N 0.98588 0.61082 0.8955 0.0
N693 N 0.06151 0.58558 0.86809 0.0
H694 H 0.05844 0.60995 0.96281 0.0
H695 H 0.07015 0.59416 0.93592 0.0
H696 H 0.06222 0.57716 0.84402 0.0
H697 H 0.07928 0.59505 0.88139 0.0
H698 H 0.97185 0.60768 0.87643 0.0
H699 H 0.98885 0.62513 0.91407 0.0
H700 H 0.95781 0.56989 0.85639 0.0
H701 H 0.97024 0.55486 0.82908 0.0
C702 C 0.44314 0.44966 0.90786 0.0
C703 C 0.43439 0.4228 0.91285 0.0
C704 C 0.46182 0.4245 0.86285 0.0
C705 C 0.46724 0.45005 0.85459 0.0
N706 N 0.45861 0.48509 0.86572 0.0
N707 N 0.43195 0.38347 0.89063 0.0
C708 C 0.4567 0.46217 0.87613 0.0
C709 C 0.44285 0.40987 0.88917 0.0
N710 N 0.4397 0.46367 0.93406 0.0
N711 N 0.4752 0.41439 0.84606 0.0
H712 H 0.41721 0.37188 0.9085 0.0
H713 H 0.43558 0.37284 0.87168 0.0
H714 H 0.48975 0.42483 0.82733 0.0
H715 H 0.47377 0.39681 0.85338 0.0
H716 H 0.448 0.4838 0.93301 0.0
H717 H 0.43115 0.45579 0.95861 0.0
H718 H 0.4488 0.4932 0.8786 0.0
H719 H 0.46789 0.49476 0.84234 0.0
C720 C 0.60418 0.99395 0.89576 0.0
C721 C 0.60822 1.01043 0.92539 0.0
C722 C 0.58721 0.0309 0.89327 0.0
C723 C 0.58206 1.01367 0.8642 0.0
N724 N 0.57956 0.97446 0.8417 0.0
N725 N 0.5959 0.03823 0.95649 0.0
C726 C 0.58857 0.99374 0.86677 0.0
C727 C 0.59727 0.02689 0.92544 0.0
N728 N 0.61629 0.97957 0.89433 0.0
N729 N 0.584 0.05201 0.88972 0.0
H730 H 0.60213 0.03495 0.98096 0.0
H731 H 0.58591 0.04842 0.95863 0.0
H732 H 0.57744 0.05634 0.86636 0.0
H733 H 0.59024 0.06663 0.9089 0.0
H734 H 0.61633 0.96946 0.87164 0.0
H735 H 0.62812 0.97943 0.91476 0.0
H736 H 0.5817 0.95816 0.84385 0.0
H737 H 0.56766 0.9735 0.82058 0.0
C738 C 0.62931 0.04609 0.1341 0.0
C739 C 0.61723 0.0298 0.10416 0.0
C740 C 0.57519 1.00962 0.13486 0.0
C741 C 0.58696 0.0265 0.16439 0.0
N742 N 0.62362 0.06497 0.18846 0.0
N743 N 0.57756 1.00263 0.07175 0.0
C744 C 0.61355 0.04617 0.16272 0.0
C745 C 0.58979 1.01367 0.10319 0.0
N746 N 0.65579 0.06037 0.13617 0.0
N747 N 0.55067 0.98867 0.13756 0.0
H748 H 0.5875 1.00586 0.04764 0.0
H749 H 0.55741 0.99273 0.06889 0.0
H750 H 0.53929 0.98429 0.16044 0.0
H751 H 0.5425 0.97422 0.11813 0.0
H752 H 0.66571 0.07035 0.15905 0.0
H753 H 0.66797 0.06062 0.11598 0.0
H754 H 0.6422 0.08116 0.18711 0.0
H755 H 0.61242 0.06562 0.20945 0.0
C756 C 1.01553 0.58501 0.10597 0.0
C757 C 0.03372 0.61188 0.10126 0.0
C758 C 0.05828 0.61028 0.15283 0.0
C759 C 0.03792 0.58479 0.1608 0.0
N760 N 0.99455 0.54963 0.14802 0.0
N761 N 0.07 0.65128 0.12464 0.0
C762 C 1.01582 0.57256 0.13818 0.0
C763 C 0.05455 0.62486 0.12582 0.0
N764 N 0.99871 0.57099 0.07917 0.0
N765 N 0.08136 0.62041 0.17075 0.0
H766 H 0.0672 0.66291 0.10643 0.0
H767 H 0.08379 0.66189 0.14415 0.0
H768 H 0.08496 0.61 0.19011 0.0
H769 H 0.0977 0.63796 0.16379 0.0
H770 H 0.98685 0.55086 0.08011 0.0
H771 H 0.99864 0.5789 0.05438 0.0
H772 H 0.97697 0.54146 0.13424 0.0
H773 H 0.99358 0.53999 0.17168 0.0
C774 C 0.4168 0.43839 0.11933 0.0
C775 C 0.42966 0.42959 0.09606 0.0
C776 C 0.46744 0.44822 0.136 0.0
C777 C 0.45551 0.45907 0.15738 0.0
N778 N 0.42141 0.46944 0.16472 0.0
N779 N 0.46974 0.43181 0.07784 0.0
C780 C 0.43098 0.45574 0.14749 0.0
C781 C 0.45574 0.43614 0.10309 0.0
N782 N 0.39071 0.42912 0.11581 0.0
N783 N 0.48929 0.44837 0.14772 0.0
H784 H 0.46226 0.42382 0.05288 0.0
H785 H 0.4896 0.43865 0.08025 0.0
H786 H 0.49839 0.45666 0.17186 0.0
H787 H 0.49704 0.43818 0.13497 0.0
H788 H 0.37992 0.43298 0.13418 0.0
H789 H 0.37927 0.41533 0.09673 0.0
H790 H 0.40479 0.46966 0.15638 0.0
H791 H 0.43153 0.48266 0.1851 0.0
C792 C 0.66649 0.74459 0.46586 0.0
C793 C 0.68243 0.75672 0.43568 0.0
C794 C 0.70274 0.79873 0.46667 0.0
C795 C 0.68599 0.78694 0.49626 0.0
N796 N 0.64785 0.75008 0.52056 0.0
N797 N 0.70942 0.79653 0.40344 0.0
C798 C 0.66648 0.76028 0.49466 0.0
C799 C 0.6986 0.78418 0.43488 0.0
N800 N 0.65241 0.7181 0.46792 0.0
N801 N 0.72358 0.82333 0.46937 0.0
H802 H 0.70608 0.78672 0.37919 0.0
H803 H 0.71927 0.81668 0.40075 0.0
H804 H 0.7279 0.8347 0.49228 0.0
H805 H 0.73799 0.83157 0.44992 0.0
H806 H 0.64266 0.70815 0.49089 0.0
H807 H 0.65221 0.70597 0.44767 0.0
H808 H 0.63174 0.73145 0.51925 0.0
H809 H 0.6472 0.7612 0.54168 0.0
C810 C 0.25278 0.91655 0.43516 0.0
C811 C 0.28029 0.92981 0.43824 0.0
C812 C 0.27576 0.91199 0.49851 0.0
C813 C 0.24871 0.90308 0.49769 0.0
N814 N 0.21219 0.9013 0.46639 0.0
N815 N 0.31809 0.94337 0.47576 0.0
C816 C 0.23731 0.90638 0.46626 0.0
C817 C 0.2919 0.92823 0.47061 0.0
N818 N 0.24129 0.91287 0.40244 0.0
N819 N 0.286 0.90483 0.52593 0.0
H820 H 0.33057 0.9566 0.45691 0.0
H821 H 0.32703 0.94479 0.50023 0.0
H822 H 0.27456 0.89255 0.54642 0.0
H823 H 0.30519 0.90884 0.52627 0.0
H824 H 0.22131 0.90128 0.3986 0.0
H825 H 0.25184 0.91879 0.37871 0.0
H826 H 0.20407 0.9061 0.44514 0.0
H827 H 0.20023 0.89473 0.48877 0.0
C828 C 0.08289 0.32187 0.46047 0.0
C829 C 0.09606 0.34353 0.4373 0.0
C830 C 0.13394 0.36195 0.47706 0.0
C831 C 0.12177 0.3391 0.49821 0.0
N832 N 0.08687 0.29498 0.50574 0.0
N833 N 0.13653 0.38097 0.41914 0.0
C834 C 0.09689 0.31832 0.48857 0.0
C835 C 0.12228 0.36271 0.44432 0.0
N836 N 0.05677 0.30532 0.4567 0.0
N837 N 0.15609 0.38336 0.48878 0.0
H838 H 0.12916 0.38173 0.3942 0.0
H839 H 0.15646 0.39366 0.42151 0.0
H840 H 0.16516 0.38387 0.51283 0.0
H841 H 0.1641 0.40138 0.47624 0.0
H842 H 0.04572 0.29073 0.475 0.0
H843 H 0.04559 0.30778 0.43733 0.0
H844 H 0.06997 0.27838 0.49753 0.0
H845 H 0.0968 0.29154 0.52602 0.0
C846 C 0.11338 0.37613 0.23045 0.0
C847 C 0.10406 0.3543 0.25348 0.0
C848 C 0.12375 0.33555 0.21475 0.0
C849 C 0.13491 0.35838 0.19351 0.0
N850 N 0.1454 0.40287 0.18624 0.0
N851 N 0.10653 0.31673 0.27253 0.0
C852 C 0.13135 0.37949 0.20308 0.0
C853 C 0.11104 0.335 0.24712 0.0
N854 N 0.10407 0.39293 0.23339 0.0
N855 N 0.12418 0.31391 0.20337 0.0
H856 H 0.09823 0.31619 0.29725 0.0
H857 H 0.1136 0.30388 0.27061 0.0
H858 H 0.13295 0.3132 0.17965 0.0
H859 H 0.11377 0.29593 0.21594 0.0
H860 H 0.10831 0.4077 0.21505 0.0
H861 H 0.08994 0.39051 0.25191 0.0
H862 H 0.14541 0.41965 0.19436 0.0
H863 H 0.15907 0.40609 0.1665 0.0
C864 C 0.68733 0.78284 0.25673 0.0
C865 C 0.70085 0.76882 0.25565 0.0
C866 C 0.71716 0.78671 0.19612 0.0
C867 C 0.69943 0.79613 0.19461 0.0
N868 N 0.66427 0.79924 0.22253 0.0
N869 N 0.7273 0.75567 0.22267 0.0
C870 C 0.68379 0.79345 0.22479 0.0
C871 C 0.71577 0.77055 0.22509 0.0
N872 N 0.67816 0.78636 0.28845 0.0
N873 N 0.73527 0.79323 0.1698 0.0
H874 H 0.72637 0.74322 0.2429 0.0
H875 H 0.73598 0.75406 0.19941 0.0
H876 H 0.73684 0.80526 0.14852 0.0
H877 H 0.7502 0.78889 0.17095 0.0
H878 H 0.67027 0.79847 0.29119 0.0
H879 H 0.68116 0.77962 0.31268 0.0
H880 H 0.65065 0.79483 0.24274 0.0
H881 H 0.65993 0.80602 0.19943 0.0
C882 C 0.26158 0.926 0.24915 0.0
C883 C 0.28864 0.93562 0.25385 0.0
C884 C 0.2886 0.91213 0.20001 0.0
C885 C 0.26268 0.90586 0.19253 0.0
N886 N 0.22623 0.91163 0.20693 0.0
N887 N 0.32901 0.94204 0.22919 0.0
C888 C 0.2496 0.91412 0.21625 0.0
C889 C 0.30249 0.92982 0.22802 0.0
N890 N 0.2469 0.92694 0.27658 0.0
N891 N 0.2998 0.90073 0.18087 0.0
H892 H 0.34005 0.95608 0.24823 0.0
H893 H 0.34013 0.94034 0.209 0.0
H894 H 0.28993 0.88704 0.16088 0.0
H895 H 0.31779 0.90279 0.18737 0.0
H896 H 0.2267 0.91785 0.27545 0.0
H897 H 0.25442 0.93417 0.30181 0.0
H898 H 0.21731 0.91987 0.2217 0.0
H899 H 0.21693 0.90356 0.18281 0.0
C900 C 0.70327 0.94925 0.22738 0.0
C901 C 0.68852 0.93673 0.25832 0.0
C902 C 0.66765 0.8952 0.22606 0.0
C903 C 0.68442 0.90732 0.19666 0.0
N904 N 0.72358 0.94443 0.17438 0.0
N905 N 0.66239 0.89623 0.28984 0.0
C906 C 0.70399 0.9339 0.19895 0.0
C907 C 0.67235 0.90921 0.25854 0.0
N908 N 0.7154 0.97565 0.22396 0.0
N909 N 0.64667 0.87078 0.22279 0.0
H910 H 0.66675 0.90546 0.31462 0.0
H911 H 0.65238 0.87602 0.29158 0.0
H912 H 0.64206 0.86011 0.19916 0.0
H913 H 0.63249 0.86221 0.2425 0.0
H914 H 0.72434 0.98524 0.20037 0.0
H915 H 0.71394 0.98772 0.24286 0.0
H916 H 0.72546 0.93351 0.15401 0.0
H917 H 0.73946 0.96316 0.17674 0.0
C918 C 0.1122 0.74489 0.22293 0.0
C919 C 0.10293 0.75756 0.24577 0.0
C920 C 0.1245 0.79647 0.20786 0.0
C921 C 0.13604 0.78474 0.18755 0.0
N922 N 0.14594 0.75013 0.182 0.0
N923 N 0.10655 0.79817 0.26497 0.0
C924 C 0.13147 0.75967 0.19709 0.0
C925 C 0.11082 0.78416 0.23968 0.0
N926 N 0.10178 0.71856 0.22464 0.0
N927 N 0.12572 0.81883 0.19627 0.0
H928 H 0.09805 0.79057 0.28962 0.0
H929 H 0.11415 0.81818 0.2631 0.0
H930 H 0.13514 0.82826 0.17282 0.0
H931 H 0.11527 0.82661 0.20821 0.0
H932 H 0.10616 0.70816 0.20623 0.0
H933 H 0.08662 0.70674 0.24181 0.0
H934 H 0.14499 0.73297 0.19041 0.0
H935 H 0.16085 0.76073 0.16382 0.0
C936 C 0.26978 0.32232 0.21753 0.0
C937 C 0.27303 0.33773 0.24815 0.0
C938 C 0.25169 0.35835 0.21736 0.0
C939 C 0.2469 0.34185 0.18748 0.0
N940 N 0.24611 0.30412 0.16238 0.0
N941 N 0.25944 0.36395 0.28085 0.0
C942 C 0.25426 0.32249 0.18865 0.0
C943 C 0.2616 0.35374 0.24919 0.0
N944 N 0.28249 0.30854 0.2152 0.0
N945 N 0.24826 0.3794 0.21494 0.0
H946 H 0.2654 0.36014 0.30517 0.0
H947 H 0.24902 0.37369 0.2835 0.0
H948 H 0.24195 0.38432 0.19184 0.0
H949 H 0.25421 0.3935 0.23483 0.0
H950 H 0.28305 0.29921 0.19197 0.0
H951 H 0.29434 0.30826 0.23549 0.0
H952 H 0.2488 0.28811 0.16342 0.0
H953 H 0.23443 0.30355 0.1412 0.0
C954 C 0.24852 0.33721 0.42872 0.0
C955 C 0.27611 0.35211 0.42928 0.0
C956 C 0.27389 0.36831 0.4886 0.0
C957 C 0.24707 0.34935 0.49076 0.0
N958 N 0.20951 0.31296 0.46369 0.0
N959 N 0.31546 0.37996 0.46214 0.0
C960 C 0.23443 0.33318 0.46092 0.0
C961 C 0.28898 0.36747 0.45969 0.0
N962 N 0.2357 0.32737 0.39723 0.0
N963 N 0.28488 0.38719 0.51412 0.0
H964 H 0.32731 0.37927 0.4422 0.0
H965 H 0.32553 0.38906 0.48539 0.0
H966 H 0.27417 0.38866 0.53514 0.0
H967 H 0.30377 0.40284 0.51231 0.0
H968 H 0.21555 0.31836 0.3949 0.0
H969 H 0.2453 0.3309 0.37279 0.0
H970 H 0.20057 0.29899 0.44378 0.0
H971 H 0.19855 0.30864 0.48697 0.0
C972 C 0.67427 0.91515 0.44704 0.0
C973 C 0.69214 0.9422 0.44307 0.0
C974 C 0.71646 0.9404 0.49476 0.0
C975 C 0.69651 0.91453 0.50182 0.0
N976 N 0.65348 0.87913 0.4882 0.0
N977 N 0.72711 0.98166 0.46839 0.0
C978 C 0.67454 0.90238 0.47897 0.0
C979 C 0.71239 0.95516 0.46842 0.0
N980 N 0.65795 0.9012 0.41975 0.0
N981 N 0.73958 0.95071 0.5126 0.0
H982 H 0.72391 0.99331 0.45071 0.0
H983 H 0.7405 0.99212 0.48841 0.0
H984 H 0.74365 0.94015 0.53116 0.0
H985 H 0.7556 0.96865 0.50615 0.0
H986 H 0.64645 0.88102 0.42026 0.0
H987 H 0.65794 0.90923 0.39505 0.0
H988 H 0.63598 0.87089 0.47418 0.0
H989 H 0.65253 0.8693 0.51167 0.0
C990 C 0.08333 0.76923 0.45429 0.0
C991 C 0.09692 0.7615 0.43068 0.0
C992 C 0.13405 0.77969 0.47175 0.0
C993 C 0.12146 0.78968 0.49343 0.0
N994 N 0.08658 0.79894 0.5009 0.0
N995 N 0.13762 0.7649 0.41299 0.0
C996 C 0.09684 0.786 0.48329 0.0
C997 C 0.12299 0.76829 0.43826 0.0
N998 N 0.05722 0.75956 0.45017 0.0
N999 N 0.15598 0.78008 0.48366 0.0
H1000 H 0.13062 0.75745 0.38764 0.0
H1001 H 0.15749 0.77199 0.41587 0.0
H1002 H 0.16457 0.78787 0.50825 0.0
H1003 H 0.16427 0.77051 0.47059 0.0
H1004 H 0.04592 0.7626 0.46866 0.0
H1005 H 0.04627 0.7462 0.43035 0.0
H1006 H 0.06988 0.79894 0.49241 0.0
H1007 H 0.09618 0.8118 0.52185 0.0
C1008 C 0.33224 0.09659 0.78079 0.0
C1009 C 0.35064 0.08801 0.77666 0.0
C1010 C 0.37561 0.11597 0.82649 0.0
C1011 C 0.35528 0.12123 0.83425 0.0
N1012 N 0.31157 0.11199 0.82217 0.0
N1013 N 0.3859 0.08444 0.80295 0.0
C1014 C 0.33275 0.11019 0.81242 0.0
C1015 C 0.37117 0.09618 0.80172 0.0
N1016 N 0.31529 0.09327 0.75395 0.0
N1017 N 0.39948 0.13035 0.84202 0.0
H1018 H 0.38214 0.06855 0.78698 0.0
H1019 H 0.39969 0.08842 0.82281 0.0
H1020 H 0.40408 0.14609 0.85877 0.0
H1021 H 0.41545 0.12851 0.83492 0.0
H1022 H 0.30331 0.10141 0.75466 0.0
H1023 H 0.31517 0.08506 0.72936 0.0
H1024 H 0.29379 0.10204 0.80894 0.0
H1025 H 0.31104 0.12141 0.84537 0.0
C1026 C 0.93529 0.28912 0.78795 0.0
C1027 C 0.94379 0.27631 0.76411 0.0
C1028 C 0.92431 0.23787 0.80274 0.0
C1029 C 0.91385 0.24986 0.82474 0.0
N1030 N 0.90432 0.28441 0.8335 0.0
N1031 N 0.94068 0.23613 0.74432 0.0
C1032 C 0.91771 0.27471 0.81574 0.0
C1033 C 0.93666 0.24997 0.77016 0.0
N1034 N 0.94505 0.31533 0.78534 0.0
N1035 N 0.92356 0.21555 0.81356 0.0
H1036 H 0.94886 0.24394 0.71957 0.0
H1037 H 0.93344 0.21618 0.74601 0.0
H1038 H 0.91498 0.20609 0.83737 0.0
H1039 H 0.93349 0.20768 0.80041 0.0
H1040 H 0.94139 0.32602 0.80415 0.0
H1041 H 0.95903 0.32691 0.76658 0.0
H1042 H 0.9045 0.30135 0.82583 0.0
H1043 H 0.89095 0.27413 0.85364 0.0
C1044 C 0.79497 0.69789 0.77744 0.0
C1045 C 0.7687 0.67889 0.77037 0.0
C1046 C 0.76956 0.65289 0.82052 0.0
C1047 C 0.79441 0.67352 0.83049 0.0
N1048 N 0.82894 0.71781 0.82184 0.0
N1049 N 0.72935 0.64061 0.78945 0.0
C1050 C 0.80669 0.69663 0.80986 0.0
C1051 C 0.75553 0.65693 0.79301 0.0
N1052 N 0.80917 0.7165 0.75262 0.0
N1053 N 0.75954 0.62931 0.83701 0.0
H1054 H 0.71809 0.64359 0.77078 0.0
H1055 H 0.71836 0.62573 0.80742 0.0
H1056 H 0.76954 0.62559 0.8569 0.0
H1057 H 0.74262 0.61284 0.82853 0.0
H1058 H 0.82912 0.7291 0.75497 0.0
H1059 H 0.8017 0.71768 0.72797 0.0
H1060 H 0.83699 0.736 0.80978 0.0
H1061 H 0.83813 0.71791 0.84558 0.0
C1062 C 0.77998 0.66914 0.57941 0.0
C1063 C 0.77317 0.68848 0.58627 0.0
C1064 C 0.79938 0.71349 0.53509 0.0
C1065 C 0.80296 0.69243 0.52533 0.0
N1066 N 0.79263 0.64806 0.53499 0.0
N1067 N 0.77257 0.72691 0.56673 0.0
C1068 C 0.79222 0.66965 0.54664 0.0
C1069 C 0.78193 0.71018 0.56314 0.0
N1070 N 0.77579 0.65088 0.60469 0.0
N1071 N 0.81295 0.73677 0.51785 0.0
H1072 H 0.75878 0.72446 0.58585 0.0
H1073 H 0.77639 0.7416 0.54847 0.0
H1074 H 0.82622 0.73994 0.49753 0.0
H1075 H 0.81299 0.75353 0.52607 0.0
H1076 H 0.78283 0.63803 0.60238 0.0
H1077 H 0.76771 0.65028 0.6296 0.0
H1078 H 0.7825 0.6301 0.54767 0.0
H1079 H 0.8011 0.64736 0.51097 0.0
C1080 C 0.37458 0.09638 0.5624 0.0
C1081 C 0.35906 0.09406 0.59254 0.0
C1082 C 0.33936 0.1153 0.55914 0.0
C1083 C 0.35652 0.11969 0.53027 0.0
N1084 N 0.39535 0.12075 0.50891 0.0
N1085 N 0.33303 0.10908 0.62278 0.0
C1086 C 0.37577 0.11232 0.53341 0.0
C1087 C 0.34339 0.10592 0.59193 0.0
N1088 N 0.38692 0.08224 0.56021 0.0
N1089 N 0.31843 0.11872 0.55499 0.0
H1090 H 0.3368 0.10398 0.64777 0.0
H1091 H 0.32335 0.11963 0.62398 0.0
H1092 H 0.31398 0.12452 0.53103 0.0
H1093 H 0.30402 0.11323 0.57434 0.0
H1094 H 0.39632 0.08145 0.53717 0.0
H1095 H 0.38544 0.0691 0.57973 0.0
H1096 H 0.41116 0.11784 0.51177 0.0
H1097 H 0.3972 0.13302 0.48782 0.0
C1098 C 0.92281 0.26699 0.57529 0.0
C1099 C 0.94924 0.27404 0.5812 0.0
C1100 C 0.9458 0.24476 0.53288 0.0
C1101 C 0.92108 0.2412 0.52326 0.0
N1102 N 0.88799 0.25288 0.5321 0.0
N1103 N 0.98741 0.27361 0.55984 0.0
C1104 C 0.91008 0.25342 0.54355 0.0
C1105 C 0.96118 0.264 0.5584 0.0
N1106 N 0.9093 0.27189 0.60067 0.0
N1107 N 0.9544 0.22938 0.51814 0.0
H1108 H 0.9997 0.28878 0.57674 0.0
H1109 H 0.99729 0.26858 0.54142 0.0
H1110 H 0.94324 0.21434 0.50037 0.0
H1111 H 0.97127 0.22971 0.52658 0.0
H1112 H 0.88939 0.26492 0.59887 0.0
H1113 H 0.91713 0.2802 0.62535 0.0
H1114 H 0.88077 0.26382 0.54402 0.0
H1115 H 0.87823 0.24339 0.50883 0.0
C1116 C 0.35442 0.2489 0.5844 0.0
C1117 C 0.36861 0.27638 0.58115 0.0
C1118 C 0.38293 0.27177 0.52153 0.0
C1119 C 0.365 0.24465 0.52248 0.0
N1120 N 0.33024 0.20798 0.55347 0.0
N1121 N 0.39439 0.31426 0.54473 0.0
C1122 C 0.34993 0.23328 0.55364 0.0
C1123 C 0.38261 0.28797 0.54933 0.0
N1124 N 0.34584 0.23761 0.61707 0.0
N1125 N 0.4003 0.28196 0.4941 0.0
H1126 H 0.39405 0.32675 0.56398 0.0
H1127 H 0.4025 0.32343 0.52061 0.0
H1128 H 0.40114 0.27047 0.47364 0.0
H1129 H 0.41541 0.30117 0.49353 0.0
H1130 H 0.33759 0.21769 0.62132 0.0
H1131 H 0.34963 0.24831 0.6406 0.0
H1132 H 0.31692 0.19982 0.57426 0.0
H1133 H 0.32556 0.19577 0.53141 0.0
C1134 C 0.77784 0.11551 0.58265 0.0
C1135 C 0.76721 0.08819 0.58624 0.0
C1136 C 0.79156 0.08861 0.53318 0.0
C1137 C 0.79882 0.1149 0.52649 0.0
N1138 N 0.79406 0.15182 0.54178 0.0
N1139 N 0.75936 0.04795 0.55918 0.0
C1140 C 0.79062 0.12797 0.55035 0.0
C1141 C 0.77278 0.0745 0.55986 0.0
N1142 N 0.77706 0.12993 0.61052 0.0
N1143 N 0.803 0.07723 0.51457 0.0
H1144 H 0.74426 0.03678 0.57682 0.0
H1145 H 0.76113 0.03717 0.53853 0.0
H1146 H 0.81762 0.08727 0.49577 0.0
H1147 H 0.80002 0.05882 0.52064 0.0
H1148 H 0.78679 0.15018 0.61018 0.0
H1149 H 0.76927 0.12206 0.63538 0.0
H1150 H 0.786 0.16087 0.55662 0.0
H1151 H 0.80277 0.16144 0.51812 0.0
C1152 C 0.93009 0.69123 0.58329 0.0
C1153 C 0.94181 0.67546 0.58312 0.0
C1154 C 0.92335 0.65941 0.52361 0.0
C1155 C 0.91562 0.67845 0.52157 0.0
N1156 N 0.91619 0.71595 0.54782 0.0
N1157 N 0.95234 0.64675 0.5508 0.0
C1158 C 0.92008 0.69524 0.55103 0.0
C1159 C 0.939 0.65991 0.55277 0.0
N1160 N 0.92773 0.70177 0.61451 0.0
N1161 N 0.91547 0.64068 0.49787 0.0
H1162 H 0.96459 0.64716 0.57102 0.0
H1163 H 0.95316 0.63737 0.52776 0.0
H1164 H 0.90372 0.63961 0.4765 0.0
H1165 H 0.91842 0.62485 0.49963 0.0
H1166 H 0.91711 0.71134 0.61659 0.0
H1167 H 0.93376 0.6984 0.63908 0.0
H1168 H 0.92188 0.73029 0.56733 0.0
H1169 H 0.90971 0.72035 0.52444 0.0
C1170 C 0.95991 0.69801 0.7983 0.0
C1171 C 0.94655 0.68185 0.7687 0.0
C1172 C 0.90586 0.6623 0.80283 0.0
C1173 C 0.91874 0.67991 0.8313 0.0
N1174 N 0.95671 0.71866 0.85238 0.0
N1175 N 0.9054 0.65435 0.73952 0.0
C1176 C 0.94539 0.6991 0.82782 0.0
C1177 C 0.91909 0.66571 0.76997 0.0
N1178 N 0.98646 0.71129 0.79922 0.0
N1179 N 0.88146 0.64151 0.80751 0.0
H1180 H 0.91413 0.65733 0.7145 0.0
H1181 H 0.88516 0.64445 0.73847 0.0
H1182 H 0.87121 0.63765 0.8314 0.0
H1183 H 0.87243 0.62666 0.78875 0.0
H1184 H 0.9971 0.72117 0.82175 0.0
H1185 H 0.99789 0.71037 0.77881 0.0
H1186 H 0.97535 0.73454 0.8494 0.0
H1187 H 0.9465 0.72034 0.8739 0.0
C1188 C 0.38101 0.29057 0.79183 0.0
C1189 C 0.36228 0.27701 0.76476 0.0
C1190 C 0.34453 0.23727 0.80095 0.0
C1191 C 0.36525 0.25017 0.82571 0.0
N1192 N 0.40717 0.28742 0.83881 0.0
N1193 N 0.33066 0.23538 0.73985 0.0
C1194 C 0.38477 0.27631 0.81924 0.0
C1195 C 0.34524 0.24974 0.7682 0.0
N1196 N 0.39441 0.31712 0.79254 0.0
N1197 N 0.32363 0.21362 0.80908 0.0
H1198 H 0.33159 0.24325 0.7147 0.0
H1199 H 0.31989 0.21514 0.74024 0.0
H1200 H 0.3219 0.20402 0.83306 0.0
H1201 H 0.3069 0.20474 0.7934 0.0
H1202 H 0.40656 0.32777 0.81359 0.0
H1203 H 0.39106 0.32843 0.77442 0.0
H1204 H 0.42293 0.3057 0.83303 0.0
H1205 H 0.41107 0.27725 0.85822 0.0
C1206 C 0.77536 0.07966 0.80131 0.0
C1207 C 0.77213 0.09103 0.76984 0.0
C1208 C 0.7947 0.13396 0.79835 0.0
C1209 C 0.79948 0.12286 0.82888 0.0
N1210 N 0.80047 0.08636 0.85523 0.0
N1211 N 0.78618 0.13004 0.73494 0.0
C1212 C 0.7918 0.09606 0.82894 0.0
C1213 C 0.78408 0.11852 0.76728 0.0
N1214 N 0.76169 0.05332 0.80584 0.0
N1215 N 0.79898 0.15879 0.79938 0.0
H1216 H 0.77991 0.11959 0.71114 0.0
H1217 H 0.79685 0.15009 0.73123 0.0
H1218 H 0.80614 0.17072 0.82177 0.0
H1219 H 0.7931 0.16667 0.77905 0.0
H1220 H 0.76135 0.04431 0.82983 0.0
H1221 H 0.74864 0.0406 0.78696 0.0
H1222 H 0.7974 0.0675 0.85488 0.0
H1223 H 0.81305 0.09801 0.87537 0.0
C1224 C 0.08616 0.34931 0.04697 0.0
C1225 C 0.09584 0.37336 0.02829 0.0
C1226 C 0.14053 0.38409 0.04242 0.0
C1227 C 0.13072 0.3608 0.06229 0.0
N1228 N 0.09598 0.31712 0.07064 0.0
N1229 N 0.13208 0.40682 0.99541 0.0
C1230 C 0.1041 0.34186 0.05947 0.0
C1231 C 0.12303 0.38847 0.02169 0.0
N1232 N 0.06051 0.33455 0.05592 0.0
N1233 N 0.1661 0.40276 0.04496 0.0
H1234 H 0.11961 0.40938 0.97843 0.0
H1235 H 0.15155 0.41708 0.9878 0.0
H1236 H 0.17963 0.40012 0.05926 0.0
H1237 H 0.17347 0.42136 0.03443 0.0
H1238 H 0.05363 0.31873 0.07318 0.0
H1239 H 0.04617 0.33883 0.04907 0.0
H1240 H 0.07712 0.30178 0.06671 0.0
H1241 H 0.10903 0.31165 0.08032 0.0
C1242 C 0.63351 0.72439 0.07275 0.0
C1243 C 0.64833 0.72264 0.04407 0.0
C1244 C 0.67692 0.77011 0.0459 0.0
C1245 C 0.662 0.77156 0.07434 0.0
N1246 N 0.62166 0.75185 0.10631 0.0
N1247 N 0.67911 0.74474 -0.00333 0.0
C1248 C 0.63852 0.74924 0.08432 0.0
C1249 C 0.66847 0.74583 0.02845 0.0
N1250 N 0.61643 0.70272 0.09137 0.0
N1251 N 0.69979 0.79164 0.03674 0.0
H1252 H 0.67271 0.72744 0.98258 0.0
H1253 H 0.69231 0.7612 0.98257 0.0
H1254 H 0.70582 0.80984 0.04804 0.0
H1255 H 0.7132 0.79116 0.01932 0.0
H1256 H 0.60722 0.70348 0.11461 0.0
H1257 H 0.61357 0.68424 0.08639 0.0
H1258 H 0.60315 0.73656 0.11229 0.0
H1259 H 0.6253 0.76999 0.11538 0.0
C1260 C 0.30377 0.91658 0.02166 0.0
C1261 C 0.31086 0.94317 0.02018 0.0
C1262 C 0.27055 0.93273 0.05172 0.0
C1263 C 0.26736 0.9081 0.06098 0.0
N1264 N 0.28034 0.87585 0.05353 0.0
N1265 N 0.29354 0.97199 0.01599 0.0
C1266 C 0.28336 0.89952 0.04483 0.0
C1267 C 0.29193 0.94998 0.02977 0.0
N1268 N 0.31549 0.90736 -0.00061 0.0
N1269 N 0.25381 0.93994 0.06547 0.0
H1270 H 0.30704 0.98292 -0.00366 0.0
H1271 H 0.27971 0.97756 0.0202 0.0
H1272 H 0.23722 0.92706 0.07977 0.0
H1273 H 0.25666 0.95866 0.06379 0.0
H1274 H 0.30984 0.88776 -0.00264 0.0
H1275 H 0.32819 0.91881 0.97928 0.0
H1276 H 0.29364 0.87008 0.04635 0.0
H1277 H 0.2653 0.8625 0.06968 0.0
C1278 C 0.41197 0.12015 0.96818 0.0
C1279 C 0.39491 0.10154 0.9935 0.0
C1280 C 0.36379 0.11688 0.98439 0.0
C1281 C 0.38092 0.13529 0.95928 0.0
N1282 N 0.42423 0.16004 0.93601 0.0
N1283 N 0.35794 0.08705 0.0325 0.0
C1284 C 0.40617 0.139 0.9547 0.0
C1285 C 0.37186 0.10149 0.00385 0.0
N1286 N 0.43235 0.11845 0.95425 0.0
N1287 N 0.33941 0.11338 0.98838 0.0
H1288 H 0.36371 0.07611 0.04771 0.0
H1289 H 0.34218 0.08785 0.04319 0.0
H1290 H 0.33364 0.12531 0.9757 0.0
H1291 H 0.32477 0.09817 0.00289 0.0
H1292 H 0.44348 0.12975 0.9329 0.0
H1293 H 0.43656 0.10398 0.961 0.0
H1294 H 0.4437 0.1651 0.93432 0.0
H1295 H 0.42021 0.17388 0.92541 0.0
C1296 C 0.96476 0.28804 0.96982 0.0
C1297 C 0.95591 0.30286 0.98923 0.0
C1298 C 0.91069 0.26949 0.97629 0.0
C1299 C 0.91967 0.25549 0.95589 0.0
N1300 N 0.95367 0.24566 0.94604 0.0
N1301 N 0.92055 0.30094 0.02347 0.0
C1302 C 0.94621 0.26268 0.95779 0.0
C1303 C 0.92886 0.2913 -0.00334 0.0
N1304 N 0.99015 0.29851 0.95971 0.0
N1305 N 0.88523 0.2631 0.97464 0.0
H1306 H 0.93347 0.31582 0.0403 0.0
H1307 H 0.90122 0.29208 0.03165 0.0
H1308 H 0.87123 0.24696 0.96072 0.0
H1309 H 0.87841 0.2747 0.98555 0.0
H1310 H 0.99642 0.28919 0.94214 0.0
H1311 H 1.00476 0.31723 0.9657 0.0
H1312 H 0.97247 0.24883 0.94923 0.0
H1313 H 0.94017 0.22719 0.93663 0.0
C1314 C 0.75622 0.68303 0.97687 0.0
C1315 C 0.74061 0.6587 0.99442 0.0
C1316 C 0.77345 0.64634 0.98018 0.0
C1317 C 0.78822 0.67003 0.96155 0.0
N1318 N 0.79922 0.71446 0.95508 0.0
N1319 N 0.74085 0.62326 0.02554 0.0
C1320 C 0.7816 0.6897 0.96508 0.0
C1321 C 0.75143 0.64236 0.00034 0.0
N1322 N 0.74649 0.69885 0.96821 0.0
N1323 N 0.77936 0.62701 0.97701 0.0
H1324 H 0.72574 0.6209 0.04218 0.0
H1325 H 0.74911 0.61203 0.03275 0.0
H1326 H 0.79568 0.62942 0.9633 0.0
H1327 H 0.76728 0.60822 0.98644 0.0
H1328 H 0.75636 0.71508 0.95185 0.0
H1329 H 0.72785 0.69498 0.97421 0.0
H1330 H 0.79649 0.73024 0.95955 0.0
H1331 H 0.8177 0.71934 0.94582 0.0
C1332 C 0.95246 0.67796 -0.00242 0.0
C1333 C 0.94621 0.65189 0.00332 0.0
C1334 C 0.90439 0.63637 0.97298 0.0
C1335 C 0.91297 0.66203 0.96102 0.0
N1336 N 0.9435 0.70791 0.9648 0.0
N1337 N 0.91027 0.60906 0.01553 0.0
C1338 C 0.93629 0.68311 0.97489 0.0
C1339 C 0.92025 0.6318 -0.00305 0.0
N1340 N 0.97282 0.6975 0.01565 0.0
N1341 N 0.8819 0.61617 0.95979 0.0
H1342 H 0.92024 0.60664 0.0367 0.0
H1343 H 0.89092 0.59436 0.01379 0.0
H1344 H 0.86943 0.61884 0.94301 0.0
H1345 H 0.87639 0.59675 0.9639 0.0
H1346 H 0.97768 0.71691 0.01456 0.0
H1347 H 0.98286 0.69373 0.03542 0.0
H1348 H 0.96171 0.72392 0.96989 0.0
H1349 H 0.93132 0.71232 0.95 0.0
C1350 C 0.35365 0.28227 0.98893 0.0
C1351 C 0.37975 0.30012 -0.00144 0.0
C1352 C 0.39372 0.27104 0.97323 0.0
C1353 C 0.36884 0.256 0.9573 0.0
N1354 N 0.32398 0.24465 0.95341 0.0
N1355 N 0.41912 0.30217 0.01917 0.0
C1356 C 0.34828 0.26052 0.96688 0.0
C1357 C 0.39818 0.29162 -0.0032 0.0
N1358 N 0.33405 0.28522 0.00284 0.0
N1359 N 0.41364 0.26698 0.96399 0.0
H1360 H 0.42106 0.31492 0.03963 0.0
H1361 H 0.43224 0.29543 0.02094 0.0
H1362 H 0.41125 0.25189 0.94735 0.0
H1363 H 0.43291 0.2796 0.97113 0.0
H1364 H 0.3144 0.27227 -0.00143 0.0
H1365 H 0.33742 0.29895 0.02255 0.0
H1366 H 0.30872 0.24844 0.95538 0.0
H1367 H 0.31934 0.2278 0.9391 0.0
C1368 C 0.75547 0.08607 0.97645 0.0
C1369 C 0.73906 0.0948 0.99151 0.0
C1370 C 0.77021 0.13934 0.97212 0.0
C1371 C 0.78602 0.13035 0.95683 0.0
N1372 N 0.79921 0.09824 0.95778 0.0
N1373 N 0.73756 0.13153 0.01659 0.0
C1374 C 0.78065 0.10482 0.96436 0.0
C1375 C 0.74867 0.12208 0.99363 0.0
N1376 N 0.74671 0.06034 0.97013 0.0
N1377 N 0.77479 0.16375 0.96473 0.0
H1378 H 0.72305 0.11961 0.03456 0.0
H1379 H 0.74499 0.15134 0.02085 0.0
H1380 H 0.79064 0.17701 0.94965 0.0
H1381 H 0.76198 0.17014 0.97193 0.0
H1382 H 0.75742 0.05391 0.95573 0.0
H1383 H 0.72801 0.04539 0.97536 0.0
H1384 H 0.79717 0.08042 0.96524 0.0
H1385 H 0.81765 0.11179 0.94839 0.0
C1386 C 0.64828 0.91843 0.02944 0.0
C1387 C 0.66512 0.94545 0.03605 0.0
C1388 C 0.69579 0.93441 0.06386 0.0
C1389 C 0.67587 0.90815 0.06654 0.0
N1390 N 0.63282 0.87453 0.05065 0.0
N1391 N 0.70526 0.97881 0.06345 0.0
C1392 C 0.65215 0.89983 0.04834 0.0
C1393 C 0.68938 0.95354 0.05345 0.0
N1394 N 0.62889 0.91057 0.00474 0.0
N1395 N 0.7205 0.94109 0.07355 0.0
H1396 H 0.70114 0.99363 0.05927 0.0
H1397 H 0.72159 0.98469 0.07951 0.0
H1398 H 0.7252 0.92716 0.08182 0.0
H1399 H 0.7364 0.95964 0.06975 0.0
H1400 H 0.61726 0.89124 -0.00294 0.0
H1401 H 0.62656 0.92371 0.98893 0.0
H1402 H 0.61397 0.868 0.04156 0.0
H1403 H 0.63546 0.86038 0.06327 0.0
C1404 C 0.13608 0.73959 0.0226 0.0
C1405 C 0.11025 0.73396 0.01596 0.0
C1406 C 0.12078 0.77575 0.04299 0.0
C1407 C 0.14372 0.77761 0.05764 0.0
N1408 N 0.17407 0.76193 0.06038 0.0
N1409 N 0.08398 0.75316 0.00266 0.0
C1410 C 0.15197 0.76009 0.04646 0.0
C1411 C 0.10434 0.75412 0.02085 0.0
N1412 N 0.14591 0.72649 0.00452 0.0
N1413 N 0.1142 0.79401 0.05193 0.0
H1414 H 0.07372 0.739 0.98337 0.0
H1415 H 0.07919 0.76777 0.00327 0.0
H1416 H 0.12667 0.81069 0.06638 0.0
H1417 H 0.09635 0.79241 0.04603 0.0
H1418 H 0.1652 0.73098 0.00655 0.0
H1419 H 0.13595 0.71398 0.98343 0.0
H1420 H 0.17917 0.74766 0.05687 0.0
H1421 H 0.18659 0.77705 0.07716 0.0
C1422 C 0.31192 0.40527 0.05389 0.0
C1423 C 0.31268 0.38825 0.02768 0.0
C1424 C 0.26628 0.35756 0.03795 0.0
C1425 C 0.26579 0.3746 0.06402 0.0
N1426 N 0.28531 0.41756 0.0887 0.0
N1427 N 0.28908 0.35181 0.98814 0.0
C1428 C 0.28766 0.39959 0.06879 0.0
C1429 C 0.28931 0.36552 0.01754 0.0
N1430 N 0.33442 0.42552 0.06713 0.0
N1431 N 0.24513 0.33334 0.03393 0.0
H1432 H 0.30548 0.35752 0.97225 0.0
H1433 H 0.2722 0.33635 0.97758 0.0
H1434 H 0.22768 0.32752 0.04736 0.0
H1435 H 0.24526 0.31876 0.01867 0.0
H1436 H 0.33492 0.43656 0.08903 0.0
H1437 H 0.35289 0.42986 0.05898 0.0
H1438 H 0.29992 0.43694 0.09061 0.0
H1439 H 0.26771 0.41359 0.10022 0.0
C1440 C 0.78763 0.72041 0.35553 0.0
C1441 C 0.76062 0.70429 0.36271 0.0
C1442 C 0.771 0.67362 0.39209 0.0
C1443 C 0.79742 0.69326 0.39431 0.0
N1444 N 0.83146 0.73581 0.3768 0.0
N1445 N 0.72675 0.66466 0.39045 0.0
C1446 C 0.80606 0.7166 0.37495 0.0
C1447 C 0.75214 0.68021 0.38082 0.0
N1448 N 0.79563 0.73918 0.3299 0.0
N1449 N 0.76396 0.64904 0.40285 0.0
H1450 H 0.71196 0.66857 0.38476 0.0
H1451 H 0.7206 0.64866 0.4072 0.0
H1452 H 0.7777 0.64425 0.41174 0.0
H1453 H 0.7453 0.63324 0.39938 0.0
H1454 H 0.81493 0.75021 0.32176 0.0
H1455 H 0.78252 0.74144 0.31389 0.0
H1456 H 0.8381 0.75445 0.36684 0.0
H1457 H 0.8456 0.73345 0.38991 0.0
C1458 C 0.30411 0.05624 0.39454 0.0
C1459 C 0.32233 0.0545 0.37156 0.0
C1460 C 0.35262 0.10125 0.3805 0.0
C1461 C 0.33419 0.10269 0.40291 0.0
N1462 N 0.28973 0.08413 0.42112 0.0
N1463 N 0.36051 0.07721 0.33457 0.0
C1464 C 0.30887 0.08106 0.4058 0.0
C1465 C 0.34554 0.07764 0.3619 0.0
N1466 N 0.28366 0.03438 0.40875 0.0
N1467 N 0.37721 0.12203 0.37829 0.0
H1468 H 0.35533 0.06055 0.31949 0.0
H1469 H 0.37648 0.09388 0.32449 0.0
H1470 H 0.38248 0.13981 0.39042 0.0
H1471 H 0.39249 0.12121 0.36594 0.0
H1472 H 0.27147 0.03498 0.42824 0.0
H1473 H 0.28054 1.01571 0.40476 0.0
H1474 H 0.27028 0.06951 0.42143 0.0
H1475 H 0.29307 0.1022 0.43001 0.0
C1476 C 0.95691 0.26491 0.3532 0.0
C1477 C 0.98048 0.26593 0.36335 0.0
C1478 C 0.95532 0.22744 0.40094 0.0
C1479 C 0.93317 0.23016 0.39697 0.0
N1480 N 0.91215 0.2511 0.36903 0.0
N1481 N 1.00213 0.24988 0.40207 0.0
C1482 C 0.93363 0.24853 0.37249 0.0
C1483 C 0.97971 0.2473 0.38803 0.0
N1484 N 0.95674 0.27928 0.3249 0.0
N1485 N 0.95318 0.20642 0.41874 0.0
H1486 H 1.02059 0.26519 0.3961 0.0
H1487 H 1.00235 0.23841 0.42291 0.0
H1488 H 0.93546 0.19188 0.42888 0.0
H1489 H 0.96816 0.20214 0.42004 0.0
H1490 H 0.93981 0.27777 0.3144 0.0
H1491 H 0.9733 0.29086 0.30972 0.0
H1492 H 0.91208 0.26619 0.35504 0.0
H1493 H 0.89462 0.23852 0.38165 0.0
C1494 C 0.03809 0.43042 0.33353 0.0
C1495 C 0.06086 0.42986 0.32329 0.0
C1496 C 0.07359 0.46826 0.28572 0.0
C1497 C 0.04863 0.46531 0.29015 0.0
N1498 N 1.00676 0.44386 0.31832 0.0
N1499 N 0.09859 0.44645 0.28464 0.0
C1500 C 0.03089 0.44669 0.31455 0.0
C1501 C 0.07849 0.44864 0.29859 0.0
N1502 N 1.02364 0.41575 0.36171 0.0
N1503 N 0.09227 0.48936 0.26781 0.0
H1504 H 0.10217 0.43148 0.29094 0.0
H1505 H 0.11011 0.45792 0.26367 0.0
H1506 H 0.08895 0.50379 0.25769 0.0
H1507 H 0.11159 0.49384 0.26634 0.0
H1508 H 1.00808 0.41694 0.37236 0.0
H1509 H 0.02878 0.40419 0.37663 0.0
H1510 H 0.9917 0.4286 0.33224 0.0
H1511 H 1.00161 0.4564 0.30602 0.0
C1512 C 0.58914 0.64001 0.28231 0.0
C1513 C 0.60521 0.64153 0.31154 0.0
C1514 C 0.58612 0.59402 0.30933 0.0
C1515 C 0.57014 0.59279 0.28046 0.0
N1516 N 0.55025 0.61292 0.24772 0.0
N1517 N 0.61309 0.61906 0.35924 0.0
C1518 C 0.56935 0.61527 0.27028 0.0
C1519 C 0.60181 0.6182 0.32713 0.0
N1520 N 0.59419 0.66181 0.26366 0.0
N1521 N 0.58721 0.57238 0.31861 0.0
H1522 H 0.62386 0.63626 0.37357 0.0
H1523 H 0.60953 0.60249 0.37331 0.0
H1524 H 0.57514 0.55426 0.30704 0.0
H1525 H 0.60083 0.57271 0.3364 0.0
H1526 H 0.58462 0.66122 0.24009 0.0
H1527 H 0.60983 0.68021 0.26901 0.0
H1528 H 0.54727 0.62832 0.24156 0.0
H1529 H 0.53577 0.59487 0.23831 0.0
C1530 C 0.42697 1.01438 0.33546 0.0
C1531 C 0.41025 0.98769 0.34315 0.0
C1532 C 0.44076 0.97695 0.31471 0.0
C1533 C 0.45439 1.00244 0.30032 0.0
N1534 N 0.4635 0.04669 0.30073 0.0
N1535 N 0.41036 0.94862 0.35948 0.0
C1536 C 0.44874 0.02173 0.31256 0.0
C1537 C 0.42005 0.97047 0.33897 0.0
N1538 N 0.42284 0.03257 0.3517 0.0
N1539 N 0.4462 0.95836 0.30324 0.0
H1540 H 0.39714 0.94505 0.38003 0.0
H1541 H 0.41801 0.93622 0.35956 0.0
H1542 H 0.46148 0.96229 0.28598 0.0
H1543 H 0.43459 0.93871 0.30928 0.0
H1544 H 0.43493 0.05251 0.34879 0.0
H1545 H 0.40905 0.02763 0.37184 0.0
H1546 H 0.45882 0.06118 0.30483 0.0
H1547 H 0.48035 0.05269 0.2857 0.0
C1548 C 0.60821 1.00168 0.33436 0.0
C1549 C 0.60993 0.97979 0.32289 0.0
C1550 C 0.5742 0.96873 0.28075 0.0
C1551 C 0.57619 0.99309 0.28715 0.0
N1552 N 0.59522 0.03338 0.31965 0.0
N1553 N 0.59689 0.9446 0.28034 0.0
C1554 C 0.59298 1.00962 0.31426 0.0
C1555 C 0.5932 0.96352 0.29525 0.0
N1556 N 0.62074 1.01456 0.36475 0.0
N1557 N 0.55456 0.95093 0.25972 0.0
H1558 H 0.61176 0.94113 0.28774 0.0
H1559 H 0.58697 0.93416 0.2577 0.0
H1560 H 0.54057 0.95453 0.24853 0.0
H1561 H 0.55063 0.93189 0.25658 0.0
H1562 H 0.61843 0.02924 0.3762 0.0
H1563 H 0.63151 1.00884 0.38042 0.0
H1564 H 0.60941 0.04768 0.33585 0.0
H1565 H 0.58353 0.03919 0.30639 0.0
C1566 C 0.07027 0.62631 0.33048 0.0
C1567 C 0.05129 0.63413 0.33178 0.0
C1568 C 1.02038 0.59362 0.30143 0.0
C1569 C 0.04131 0.5896 0.29221 0.0
N1570 N 0.08621 0.60132 0.29941 0.0
N1571 N 1.00534 0.6179 0.33669 0.0
C1572 C 0.06612 0.6053 0.30792 0.0
C1573 C 0.02527 0.61551 0.32281 0.0
N1574 N 0.09141 0.63786 0.35243 0.0
N1575 N 0.99618 0.57719 0.28808 0.0
H1576 H 1.00844 0.63182 0.35598 0.0
H1577 H 0.98579 0.60433 0.33295 0.0
H1578 H 0.99193 0.56028 0.27417 0.0
H1579 H 0.98067 0.58061 0.28969 0.0
H1580 H 0.10501 0.63175 0.35453 0.0
H1581 H 0.09317 0.65091 0.37235 0.0
H1582 H 0.10547 0.61429 0.30616 0.0
H1583 H 0.08381 0.58571 0.28389 0.0
C1584 C 0.41243 0.44386 0.32822 0.0
C1585 C 0.40181 0.41681 0.3215 0.0
C1586 C 0.4426 0.42753 0.29096 0.0
C1587 C 0.44906 0.45384 0.28859 0.0
N1588 N 0.44009 0.48757 0.30602 0.0
N1589 N 0.40764 0.38316 0.29305 0.0
C1590 C 0.43429 0.46231 0.30816 0.0
C1591 C 0.41736 0.40853 0.30279 0.0
N1592 N 0.40183 0.45189 0.35407 0.0
N1593 N 0.46023 0.42068 0.27988 0.0
H1594 H 0.38899 0.36828 0.29875 0.0
H1595 H 0.41746 0.37715 0.27599 0.0
H1596 H 0.47862 0.43449 0.27063 0.0
H1597 H 0.45762 0.40214 0.28348 0.0
H1598 H 0.40995 0.47125 0.36185 0.0
H1599 H 0.38682 0.43883 0.37058 0.0
H1600 H 0.42802 0.49406 0.31619 0.0
H1601 H 0.45632 0.50172 0.29242 0.0
C1602 C 0.33126 0.25731 0.35617 0.0
C1603 C 0.31072 0.25998 0.37117 0.0
C1604 C 0.30162 0.22441 0.41254 0.0
C1605 C 0.32548 0.22617 0.40322 0.0
N1606 N 0.36336 0.24404 0.3658 0.0
N1607 N 0.2784 0.24782 0.41796 0.0
C1608 C 0.3402 0.24223 0.37444 0.0
C1609 C 0.29599 0.24359 0.40003 0.0
N1610 N 0.34186 0.26879 0.32424 0.0
N1611 N 0.28504 0.20505 0.43488 0.0
H1612 H 0.27499 0.26299 0.41227 0.0
H1613 H 0.26921 0.23803 0.4413 0.0
H1614 H 0.2892 0.19107 0.44466 0.0
H1615 H 0.26631 0.20135 0.44048 0.0
H1616 H 0.35539 0.26577 0.3106 0.0
H1617 H 0.33513 0.27917 0.30963 0.0
H1618 H 0.37662 0.2578 0.34813 0.0
H1619 H 0.36976 0.23238 0.37775 0.0
C1620 C 0.79409 0.07292 0.35768 0.0
C1621 C 0.76733 0.06489 0.35468 0.0
C1622 C 0.77568 0.10528 0.38405 0.0
C1623 C 0.80035 0.10942 0.39519 0.0
N1624 N 0.83378 0.09768 0.39136 0.0
N1625 N 0.73737 0.08056 0.34695 0.0
C1626 C 0.81009 0.09384 0.38084 0.0
C1627 C 0.75943 0.08329 0.36231 0.0
N1628 N 0.80441 0.06145 0.33694 0.0
N1629 N 0.76748 0.12173 0.39585 0.0
H1630 H 0.72724 0.0666 0.3274 0.0
H1631 H 0.73099 0.09388 0.34982 0.0
H1632 H 0.77968 0.13871 0.40995 0.0
H1633 H 0.74863 0.11832 0.39269 0.0
H1634 H 0.82421 0.06777 0.33596 0.0
H1635 H 0.79361 0.04813 0.31698 0.0
H1636 H 0.84024 0.08473 0.38547 0.0
H1637 H 0.84639 0.11301 0.40774 0.0
C1638 C 0.98048 0.73944 0.38703 0.0
C1639 C 0.98111 0.72234 0.36086 0.0
C1640 C 0.93463 0.69194 0.3711 0.0
C1641 C 0.93425 0.70914 0.397 0.0
N1642 N 0.95403 0.75222 0.42129 0.0
N1643 N 0.95728 0.68593 0.32132 0.0
C1644 C 0.95624 0.73405 0.40167 0.0
C1645 C 0.95764 0.69971 0.35071 0.0
N1646 N 1.00302 0.75946 0.40056 0.0
N1647 N 0.91341 0.66775 0.36722 0.0
H1648 H 0.97364 0.69152 0.30541 0.0
H1649 H 0.94033 0.67056 0.31078 0.0
H1650 H 0.896 0.66203 0.38067 0.0
H1651 H 0.91348 0.65308 0.35208 0.0
H1652 H 1.00351 0.77054 0.4224 0.0
H1653 H 1.02147 0.76345 0.39285 0.0
H1654 H 0.96878 0.77156 0.42312 0.0
H1655 H 0.93643 0.74846 0.43259 0.0
C1656 C 0.45355 0.0528 0.69368 0.0
C1657 C 0.42665 0.03722 0.70211 0.0
C1658 C 0.43733 1.00745 0.73355 0.0
C1659 C 0.46385 0.02693 0.73433 0.0
N1660 N 0.49772 0.06864 0.71381 0.0
N1661 N 0.39331 0.99914 0.73352 0.0
C1662 C 0.47224 0.04955 0.71336 0.0
C1663 C 0.41841 1.01392 0.72215 0.0
N1664 N 0.46118 0.07044 0.66656 0.0
N1665 N 0.43027 0.98322 0.74593 0.0
H1666 H 0.3786 1.00326 0.72835 0.0
H1667 H 0.3875 0.98381 0.75141 0.0
H1668 H 0.44407 0.97855 0.75497 0.0
H1669 H 0.41146 0.96747 0.74363 0.0
H1670 H 0.48033 0.08095 0.65764 0.0
H1671 H 0.44787 0.07212 0.65024 0.0
H1672 H 0.5043 0.0869 0.70252 0.0
H1673 H 0.51203 0.06662 0.72705 0.0
C1674 C 0.96715 0.39432 0.72517 0.0
C1675 C 0.98431 0.39412 0.69875 0.0
C1676 C 1.01423 0.44063 0.70932 0.0
C1677 C 0.997 0.44059 0.73549 0.0
N1678 N 0.95403 0.42014 0.76027 0.0
N1679 N 1.02043 0.41849 0.65906 0.0
C1680 C 0.97228 0.41835 0.74026 0.0
C1681 C 1.00669 0.41779 0.68866 0.0
N1682 N 0.94732 0.37156 0.73841 0.0
N1683 N 0.03826 0.46208 0.70543 0.0
H1684 H 1.01501 0.40223 0.64298 0.0
H1685 H 0.03558 0.43559 0.64855 0.0
H1686 H 0.04386 0.47939 0.71911 0.0
H1687 H 0.05297 0.46231 0.69005 0.0
H1688 H 0.93623 0.37073 0.76042 0.0
H1689 H 0.94347 0.35325 0.73016 0.0
H1690 H 0.93479 0.40519 0.76219 0.0
H1691 H 0.95759 0.4376 0.77185 0.0
C1692 C 0.65175 0.58447 0.72715 0.0
C1693 C 0.65222 0.60232 0.70134 0.0
C1694 C 0.60549 0.58524 0.71086 0.0
C1695 C 0.60525 0.56756 0.73645 0.0
N1696 N 0.6256 0.5448 0.76068 0.0
N1697 N 0.62821 0.61465 0.66184 0.0
C1698 C 0.62754 0.56517 0.74135 0.0
C1699 C 0.62861 0.60107 0.69099 0.0
N1700 N 0.67438 0.58725 0.74069 0.0
N1701 N 0.584 0.58773 0.70682 0.0
H1702 H 0.64467 0.62588 0.6463 0.0
H1703 H 0.61121 0.6128 0.65109 0.0
H1704 H 0.56652 0.57563 0.71986 0.0
H1705 H 0.58389 0.60247 0.69196 0.0
H1706 H 0.67499 0.57659 0.76234 0.0
H1707 H 0.69277 0.60193 0.7331 0.0
H1708 H 0.64059 0.54058 0.76262 0.0
H1709 H 0.60801 0.53061 0.77161 0.0
C1710 C 0.70951 0.76493 0.6655 0.0
C1711 C 0.73212 0.7642 0.655 0.0
C1712 C 0.74347 0.80082 0.61439 0.0
C1713 C 0.7186 0.79792 0.61961 0.0
N1714 N 0.6774 0.77717 0.64984 0.0
N1715 N 0.76914 0.77971 0.61519 0.0
C1716 C 0.70158 0.78021 0.64553 0.0
C1717 C 0.74905 0.78203 0.62881 0.0
N1718 N 0.69591 0.75139 0.6949 0.0
N1719 N 0.76146 0.8212 0.59462 0.0
H1720 H 0.77339 0.76546 0.62303 0.0
H1721 H 0.7801 0.7903 0.59329 0.0
H1722 H 0.7576 0.83503 0.58353 0.0
H1723 H 0.78079 0.82583 0.59244 0.0
H1724 H 0.68059 0.7529 0.70576 0.0
H1725 H 0.70159 0.74056 0.71052 0.0
H1726 H 0.66284 0.76236 0.66497 0.0
H1727 H 0.67154 0.78888 0.63673 0.0
C1728 C 0.2664 0.94714 0.66686 0.0
C1729 C 0.2695 0.97105 0.65405 0.0
C1730 C 0.23315 0.94658 0.61272 0.0
C1731 C 0.23423 0.92382 0.61982 0.0
N1732 N 0.25183 0.90187 0.65372 0.0
N1733 N 0.25769 0.99333 0.61001 0.0
C1734 C 0.25055 0.92381 0.64738 0.0
C1735 C 0.253 0.97077 0.6262 0.0
N1736 N 0.27821 0.94667 0.69789 0.0
N1737 N 0.21371 0.9451 0.59163 0.0
H1738 H 0.27333 1.01152 0.61631 0.0
H1739 H 0.24777 0.99374 0.58733 0.0
H1740 H 0.19919 0.92746 0.58119 0.0
H1741 H 0.21053 0.96065 0.5878 0.0
H1742 H 0.27493 0.92955 0.7101 0.0
H1743 H 0.28921 0.96325 0.71334 0.0
H1744 H 0.26569 0.90146 0.67032 0.0
H1745 H 0.23968 0.88429 0.6409 0.0
C1746 C 0.0807 0.30447 0.66651 0.0
C1747 C 0.07301 0.32354 0.66823 0.0
C1748 C 0.11409 0.35477 0.63939 0.0
C1749 C 0.11807 0.33392 0.62959 0.0
N1750 N 0.10609 0.28891 0.63556 0.0
N1751 N 0.08953 0.36946 0.67471 0.0
C1752 C 0.10205 0.3089 0.64446 0.0
C1753 C 0.09193 0.34967 0.66031 0.0
N1754 N 0.06869 0.28293 0.68765 0.0
N1755 N 0.1308 0.37915 0.6269 0.0
H1756 H 0.0754 0.36615 0.69373 0.0
H1757 H 0.10328 0.38903 0.67173 0.0
H1758 H 0.14785 0.38349 0.61333 0.0
H1759 H 0.12746 0.3947 0.62885 0.0
H1760 H 0.07464 0.2692 0.68946 0.0
H1761 H 0.05536 0.2809 0.70727 0.0
H1762 H 0.09298 0.26956 0.64158 0.0
H1763 H 0.122 0.29157 0.62052 0.0
C1764 C 0.25846 0.30454 0.65562 0.0
C1765 C 0.2855 0.3224 0.6503 0.0
C1766 C 0.273 0.3521 0.62289 0.0
C1767 C 0.24713 0.3315 0.6188 0.0
N1768 N 0.21505 0.28704 0.63123 0.0
N1769 N 0.3177 0.3629 0.62214 0.0
C1770 C 0.23964 0.30745 0.63559 0.0
C1771 C 0.29272 0.34645 0.63283 0.0
N1772 N 0.25066 0.28525 0.68042 0.0
N1773 N 0.27888 0.37686 0.61498 0.0
H1774 H 0.33279 0.35896 0.62436 0.0
H1775 H 0.32283 0.37929 0.60655 0.0
H1776 H 0.2646 0.38122 0.60722 0.0
H1777 H 0.29711 0.393 0.61987 0.0
H1778 H 0.23119 0.2729 0.68687 0.0
H1779 H 0.26366 0.28387 0.69772 0.0
H1780 H 0.2095 0.26825 0.63962 0.0
H1781 H 0.20072 0.28868 0.61736 0.0
C1782 C 0.69205 0.94499 0.66672 0.0
C1783 C 0.71867 0.96319 0.67293 0.0
C1784 C 0.73101 0.93332 0.64603 0.0
C1785 C 0.70529 0.91804 0.63283 0.0
N1786 N 0.66035 0.90654 0.63438 0.0
N1787 N 0.75937 0.96617 0.6884 0.0
C1788 C 0.68537 0.92272 0.6451 0.0
C1789 C 0.73697 0.95468 0.6689 0.0
N1790 N 0.67338 0.94821 0.68324 0.0
N1791 N 0.75019 0.92874 0.63466 0.0
H1792 H 0.76272 0.97987 0.70816 0.0
H1793 H 0.77266 0.95959 0.68863 0.0
H1794 H 0.74661 0.91295 0.61865 0.0
H1795 H 0.76985 0.94141 0.63956 0.0
H1796 H 0.65356 0.93505 0.68139 0.0
H1797 H 0.67795 0.96239 0.70272 0.0
H1798 H 0.64524 0.91035 0.63835 0.0
H1799 H 0.65494 0.88941 0.6203 0.0
C1800 C 0.08803 0.74588 0.65554 0.0
C1801 C 0.07019 0.75413 0.66516 0.0
C1802 C 0.09982 0.79758 0.64153 0.0
C1803 C 0.11468 0.78775 0.62512 0.0
N1804 N 0.12569 0.75407 0.62003 0.0
N1805 N 0.06768 0.79099 0.68638 0.0
C1806 C 0.10991 0.76247 0.63391 0.0
C1807 C 0.07881 0.78108 0.66422 0.0
N1808 N 0.08497 0.72315 0.6689 0.0
N1809 N 0.10443 0.82193 0.63341 0.0
H1810 H 0.05404 0.77956 0.70564 0.0
H1811 H 0.0744 0.8108 0.68903 0.0
H1812 H 0.11991 0.83487 0.61752 0.0
H1813 H 0.09203 0.82877 0.64084 0.0
H1814 H 0.09787 0.71645 0.66434 0.0
H1815 H 0.07137 0.7127 0.68867 0.0
H1816 H 0.12169 0.73493 0.62129 0.0
H1817 H 0.14266 0.76642 0.60606 0.0
C1818 C 0.97821 0.57766 0.6878 0.0
C1819 C 0.99618 0.60457 0.68429 0.0
C1820 C 0.02933 0.59823 0.71411 0.0
C1821 C 1.00947 0.57335 0.72564 0.0
N1822 N 0.9649 0.53848 0.72197 0.0
N1823 N 0.04151 0.63574 0.67605 0.0
C1824 C 0.98403 0.56247 0.71123 0.0
C1825 C 1.02274 0.61355 0.69185 0.0
N1826 N 0.95623 0.56649 0.6674 0.0
N1827 N 0.05416 0.60752 0.72604 0.0
H1828 H 0.03714 0.64517 0.65609 0.0
H1829 H 0.06135 0.64287 0.67896 0.0
H1830 H 0.05961 0.59602 0.74058 0.0
H1831 H 0.06907 0.6266 0.7226 0.0
H1832 H 0.94326 0.54656 0.66672 0.0
H1833 H 0.953 0.57685 0.64753 0.0
H1834 H 0.94532 0.53112 0.71605 0.0
H1835 H 0.96836 0.52645 0.73851 0.0
C1836 C 0.46734 0.41105 0.68555 0.0
C1837 C 0.44056 0.40272 0.68164 0.0
C1838 C 0.44776 0.44253 0.71149 0.0
C1839 C 0.47235 0.44691 0.72337 0.0
N1840 N 0.50654 0.43628 0.72012 0.0
N1841 N 0.4104 0.41807 0.67273 0.0
C1842 C 0.48276 0.43191 0.70912 0.0
C1843 C 0.43219 0.42081 0.68899 0.0
N1844 N 0.47819 0.39986 0.66532 0.0
N1845 N 0.43891 0.45845 0.72334 0.0
H1846 H 0.40086 0.40441 0.65262 0.0
H1847 H 0.40382 0.43124 0.6754 0.0
H1848 H 0.45061 0.47526 0.73808 0.0
H1849 H 0.41999 0.4547 0.71966 0.0
H1850 H 0.49804 0.40636 0.66497 0.0
H1851 H 0.46778 0.38648 0.64522 0.0
H1852 H 0.51354 0.42374 0.71436 0.0
H1853 H 0.51875 0.45172 0.73665 0.0
C1854 C 0.62723 0.01658 0.718 0.0
C1855 C 0.64356 0.04083 0.70053 0.0
C1856 C 0.61293 0.05545 0.71828 0.0
C1857 C 0.59699 0.03136 0.73535 0.0
N1858 N 0.58349 0.98599 0.73784 0.0
N1859 N 0.64441 0.07763 0.67145 0.0
C1860 C 0.60216 1.01082 0.72977 0.0
C1861 C 0.63397 0.05846 0.69655 0.0
N1862 N 0.63591 0.99991 0.72684 0.0
N1863 N 0.60894 0.07586 0.72397 0.0
H1864 H 0.65813 0.07896 0.65293 0.0
H1865 H 0.63693 0.08982 0.66606 0.0
H1866 H 0.59358 0.07428 0.73929 0.0
H1867 H 0.62189 0.09464 0.71523 0.0
H1868 H 0.62515 0.98354 0.74269 0.0
H1869 H 0.6546 1.00336 0.72257 0.0
H1870 H 0.5854 0.9699 0.73182 0.0
H1871 H 0.5651 0.98155 0.74691 0.0
loop_
_geom_bond_atom_site_label_1
_geom_bond_atom_site_label_2
_geom_bond_distance
_geom_bond_site_symmetry_2
_ccdc_geom_bond_type
O0 Cd1 2.223 . S
O0 C8 1.315 . S
Cd1 O0 2.223 . S
Cd1 O4 2.297 . S
Cd1 O5 2.439 . S
Cd1 O11 2.240 1_554 S
Cd2 O3 2.240 . S
Cd2 O10 2.223 1_554 S
Cd2 O12 2.297 1_554 S
Cd2 O13 2.439 1_554 S
O3 Cd2 2.240 . S
O3 C8 1.279 1_655 S
O4 Cd1 2.297 . S
O4 C6 1.247 . S
O5 Cd1 2.439 . S
O5 C6 1.208 . S
C6 O4 1.247 . S
C6 O5 1.208 . S
C7 O12 1.247 . S
C7 O13 1.208 . S
C8 O0 1.315 . S
C8 O3 1.279 1_455 S
C9 O10 1.315 . S
C9 O11 1.279 1_655 S
O10 Cd2 2.223 1_556 S
O10 C9 1.315 . S
O11 Cd1 2.240 1_556 S
O11 C9 1.279 1_455 S
O12 Cd2 2.297 1_556 S
O12 C7 1.247 . S
O13 Cd2 2.439 1_556 S
O13 C7 1.208 . S
O14 Cd15 2.223 . S
O14 C22 1.315 . S
Cd15 O14 2.223 . S
Cd15 O18 2.297 . S
Cd15 O19 2.439 . S
Cd15 O25 2.240 1_554 S
Cd16 O17 2.240 . S
Cd16 O24 2.223 1_554 S
Cd16 O26 2.297 1_554 S
Cd16 O27 2.439 1_554 S
O17 Cd16 2.240 . S
O17 C22 1.279 . S
O18 Cd15 2.297 . S
O18 C20 1.247 . S
O19 Cd15 2.439 . S
O19 C20 1.208 . S
C20 O18 1.247 . S
C20 O19 1.208 . S
C21 O26 1.247 . S
C21 O27 1.208 . S
C22 O14 1.315 . S
C22 O17 1.279 . S
C23 O24 1.315 . S
C23 O25 1.279 . S
O24 Cd16 2.223 1_556 S
O24 C23 1.315 . S
O25 Cd15 2.240 1_556 S
O25 C23 1.279 . S
O26 Cd16 2.297 1_556 S
O26 C21 1.247 . S
O27 Cd16 2.439 1_556 S
O27 C21 1.208 . S
O28 Cd29 2.223 1_556 S
O28 C36 1.315 . S
Cd29 O28 2.223 1_554 S
Cd29 O32 2.297 1_554 S
Cd29 O33 2.439 1_554 S
Cd29 O39 2.240 . S
Cd30 O31 2.240 1_554 S
Cd30 O38 2.223 . S
Cd30 O40 2.297 . S
Cd30 O41 2.439 . S
O31 Cd30 2.240 1_556 S
O31 C36 1.279 1_565 S
O32 Cd29 2.297 1_556 S
O32 C34 1.247 . S
O33 Cd29 2.439 1_556 S
O33 C34 1.208 . S
C34 O32 1.247 . S
C34 O33 1.208 . S
C35 O40 1.247 . S
C35 O41 1.208 . S
C36 O28 1.315 . S
C36 O31 1.279 1_545 S
C37 O38 1.315 . S
C37 O39 1.279 1_565 S
O38 Cd30 2.223 . S
O38 C37 1.315 . S
O39 Cd29 2.240 . S
O39 C37 1.279 1_545 S
O40 Cd30 2.297 . S
O40 C35 1.247 . S
O41 Cd30 2.439 . S
O41 C35 1.208 . S
O42 Cd43 2.223 1_556 S
O42 C50 1.315 . S
Cd43 O42 2.223 1_554 S
Cd43 O46 2.297 1_554 S
Cd43 O47 2.439 1_554 S
Cd43 O53 2.240 . S
Cd44 O45 2.240 1_554 S
Cd44 O52 2.223 . S
Cd44 O54 2.297 . S
Cd44 O55 2.439 . S
O45 Cd44 2.240 1_556 S
O45 C50 1.279 1_455 S
O46 Cd43 2.297 1_556 S
O46 C48 1.247 . S
O47 Cd43 2.439 1_556 S
O47 C48 1.208 . S
C48 O46 1.247 . S
C48 O47 1.208 . S
C49 O54 1.247 . S
C49 O55 1.208 . S
C50 O42 1.315 . S
C50 O45 1.279 1_655 S
C51 O52 1.315 . S
C51 O53 1.279 1_455 S
O52 Cd44 2.223 . S
O52 C51 1.315 . S
O53 Cd43 2.240 . S
O53 C51 1.279 1_655 S
O54 Cd44 2.297 . S
O54 C49 1.247 . S
O55 Cd44 2.439 . S
O55 C49 1.208 . S
O56 Cd57 2.223 1_556 S
O56 C64 1.315 . S
Cd57 O56 2.223 1_554 S
Cd57 O60 2.297 1_554 S
Cd57 O61 2.439 1_554 S
Cd57 O67 2.240 . S
Cd58 O59 2.240 1_554 S
Cd58 O66 2.223 . S
Cd58 O68 2.297 . S
Cd58 O69 2.439 . S
O59 Cd58 2.240 1_556 S
O59 C64 1.279 . S
O60 Cd57 2.297 1_556 S
O60 C62 1.247 . S
O61 Cd57 2.439 1_556 S
O61 C62 1.208 . S
C62 O60 1.247 . S
C62 O61 1.208 . S
C63 O68 1.247 . S
C63 O69 1.208 . S
C64 O56 1.315 . S
C64 O59 1.279 . S
C65 O66 1.315 . S
C65 O67 1.279 . S
O66 Cd58 2.223 . S
O66 C65 1.315 . S
O67 Cd57 2.240 . S
O67 C65 1.279 . S
O68 Cd58 2.297 . S
O68 C63 1.247 . S
O69 Cd58 2.439 . S
O69 C63 1.208 . S
O70 Cd71 2.223 . S
O70 C78 1.315 . S
Cd71 O70 2.223 . S
Cd71 O74 2.297 . S
Cd71 O75 2.439 . S
Cd71 O81 2.240 1_554 S
Cd72 O73 2.240 . S
Cd72 O80 2.223 1_554 S
Cd72 O82 2.297 1_554 S
Cd72 O83 2.439 1_554 S
O73 Cd72 2.240 . S
O73 C78 1.279 1_545 S
O74 Cd71 2.297 . S
O74 C76 1.247 . S
O75 Cd71 2.439 . S
O75 C76 1.208 . S
C76 O74 1.247 . S
C76 O75 1.208 . S
C77 O82 1.247 . S
C77 O83 1.208 . S
C78 O70 1.315 . S
C78 O73 1.279 1_565 S
C79 O80 1.315 . S
C79 O81 1.279 1_545 S
O80 Cd72 2.223 1_556 S
O80 C79 1.315 . S
O81 Cd71 2.240 1_556 S
O81 C79 1.279 1_565 S
O82 Cd72 2.297 1_556 S
O82 C77 1.247 . S
O83 Cd72 2.439 1_556 S
O83 C77 1.208 . S
O84 Cd85 2.223 . S
O84 C92 1.315 . S
Cd85 O84 2.223 . S
Cd85 O88 2.297 . S
Cd85 O89 2.439 . S
Cd85 O95 2.240 . S
Cd86 O87 2.240 . S
Cd86 O94 2.223 . S
Cd86 O96 2.297 . S
Cd86 O97 2.439 . S
O87 Cd86 2.240 . S
O87 C92 1.279 . S
O88 Cd85 2.297 . S
O88 C90 1.247 . S
O89 Cd85 2.439 . S
O89 C90 1.208 . S
C90 O88 1.247 . S
C90 O89 1.208 . S
C91 O96 1.247 . S
C91 O97 1.208 . S
C92 O84 1.315 . S
C92 O87 1.279 . S
C93 O94 1.315 . S
C93 O95 1.279 . S
O94 Cd86 2.223 . S
O94 C93 1.315 . S
O95 Cd85 2.240 . S
O95 C93 1.279 . S
O96 Cd86 2.297 . S
O96 C91 1.247 . S
O97 Cd86 2.439 . S
O97 C91 1.208 . S
O98 Cd99 2.223 . S
O98 C106 1.315 . S
Cd99 O98 2.223 . S
Cd99 O102 2.297 1_565 S
Cd99 O103 2.439 1_565 S
Cd99 O109 2.240 . S
Cd100 O101 2.240 . S
Cd100 O108 2.223 . S
Cd100 O110 2.297 . S
Cd100 O111 2.439 . S
O101 Cd100 2.240 . S
O101 C106 1.279 . S
O102 Cd99 2.297 1_545 S
O102 C104 1.247 . S
O103 Cd99 2.439 1_545 S
O103 C104 1.208 . S
C104 O102 1.247 . S
C104 O103 1.208 . S
C105 O110 1.247 . S
C105 O111 1.208 . S
C106 O98 1.315 . S
C106 O101 1.279 . S
C107 O108 1.315 . S
C107 O109 1.279 . S
O108 Cd100 2.223 . S
O108 C107 1.315 . S
O109 Cd99 2.240 . S
O109 C107 1.279 . S
O110 Cd100 2.297 . S
O110 C105 1.247 . S
O111 Cd100 2.439 . S
O111 C105 1.208 . S
O112 Cd113 2.223 . S
O112 C120 1.315 . S
Cd113 O112 2.223 . S
Cd113 O116 2.297 . S
Cd113 O117 2.439 . S
Cd113 O123 2.240 . S
Cd114 O115 2.240 . S
Cd114 O122 2.223 . S
Cd114 O124 2.297 1_455 S
Cd114 O125 2.439 1_455 S
O115 Cd114 2.240 . S
O115 C120 1.279 . S
O116 Cd113 2.297 . S
O116 C118 1.247 . S
O117 Cd113 2.439 . S
O117 C118 1.208 . S
C118 O116 1.247 . S
C118 O117 1.208 . S
C119 O124 1.247 . S
C119 O125 1.208 . S
C120 O112 1.315 . S
C120 O115 1.279 . S
C121 O122 1.315 . S
C121 O123 1.279 . S
O122 Cd114 2.223 . S
O122 C121 1.315 . S
O123 Cd113 2.240 . S
O123 C121 1.279 . S
O124 Cd114 2.297 1_655 S
O124 C119 1.247 . S
O125 Cd114 2.439 1_655 S
O125 C119 1.208 . S
O126 Cd127 2.223 . S
O126 C134 1.315 . S
Cd127 O126 2.223 . S
Cd127 O130 2.297 . S
Cd127 O131 2.439 . S
Cd127 O137 2.240 . S
Cd128 O129 2.240 . S
Cd128 O136 2.223 . S
Cd128 O138 2.297 1_565 S
Cd128 O139 2.439 1_565 S
O129 Cd128 2.240 . S
O129 C134 1.279 . S
O130 Cd127 2.297 . S
O130 C132 1.247 . S
O131 Cd127 2.439 . S
O131 C132 1.208 . S
C132 O130 1.247 . S
C132 O131 1.208 . S
C133 O138 1.247 . S
C133 O139 1.208 . S
C134 O126 1.315 . S
C134 O129 1.279 . S
C135 O136 1.315 . S
C135 O137 1.279 . S
O136 Cd128 2.223 . S
O136 C135 1.315 . S
O137 Cd127 2.240 . S
O137 C135 1.279 . S
O138 Cd128 2.297 1_545 S
O138 C133 1.247 . S
O139 Cd128 2.439 1_545 S
O139 C133 1.208 . S
O140 Cd141 2.223 . S
O140 C148 1.315 . S
Cd141 O140 2.223 . S
Cd141 O144 2.297 . S
Cd141 O145 2.439 . S
Cd141 O151 2.240 . S
Cd142 O143 2.240 . S
Cd142 O150 2.223 . S
Cd142 O152 2.297 1_455 S
Cd142 O153 2.439 1_455 S
O143 Cd142 2.240 . S
O143 C148 1.279 . S
O144 Cd141 2.297 . S
O144 C146 1.247 . S
O145 Cd141 2.439 . S
O145 C146 1.208 . S
C146 O144 1.247 . S
C146 O145 1.208 . S
C147 O152 1.247 . S
C147 O153 1.208 . S
C148 O140 1.315 . S
C148 O143 1.279 . S
C149 O150 1.315 . S
C149 O151 1.279 . S
O150 Cd142 2.223 . S
O150 C149 1.315 . S
O151 Cd141 2.240 . S
O151 C149 1.279 . S
O152 Cd142 2.297 1_655 S
O152 C147 1.247 . S
O153 Cd142 2.439 1_655 S
O153 C147 1.208 . S
O154 Cd155 2.223 . S
O154 C162 1.315 . S
Cd155 O154 2.223 . S
Cd155 O158 2.297 . S
Cd155 O159 2.439 . S
Cd155 O165 2.240 . S
Cd156 O157 2.240 . S
Cd156 O164 2.223 . S
Cd156 O166 2.297 . S
Cd156 O167 2.439 . S
O157 Cd156 2.240 . S
O157 C162 1.279 . S
O158 Cd155 2.297 . S
O158 C160 1.247 . S
O159 Cd155 2.439 . S
O159 C160 1.208 . S
C160 O158 1.247 . S
C160 O159 1.208 . S
C161 O166 1.247 . S
C161 O167 1.208 . S
C162 O154 1.315 . S
C162 O157 1.279 . S
C163 O164 1.315 . S
C163 O165 1.279 . S
O164 Cd156 2.223 . S
O164 C163 1.315 . S
O165 Cd155 2.240 . S
O165 C163 1.279 . S
O166 Cd156 2.297 . S
O166 C161 1.247 . S
O167 Cd156 2.439 . S
O167 C161 1.208 . S
O168 Cd169 2.223 . S
O168 C176 1.315 . S
Cd169 O168 2.223 . S
Cd169 O172 2.297 . S
Cd169 O173 2.439 . S
Cd169 O179 2.240 . S
Cd170 O171 2.240 . S
Cd170 O178 2.223 . S
Cd170 O180 2.297 1_545 S
Cd170 O181 2.439 1_545 S
O171 Cd170 2.240 . S
O171 C176 1.279 . S
O172 Cd169 2.297 . S
O172 C174 1.247 . S
O173 Cd169 2.439 . S
O173 C174 1.208 . S
C174 O172 1.247 . S
C174 O173 1.208 . S
C175 O180 1.247 . S
C175 O181 1.208 . S
C176 O168 1.315 . S
C176 O171 1.279 . S
C177 O178 1.315 . S
C177 O179 1.279 . S
O178 Cd170 2.223 . S
O178 C177 1.315 . S
O179 Cd169 2.240 . S
O179 C177 1.279 . S
O180 Cd170 2.297 1_565 S
O180 C175 1.247 . S
O181 Cd170 2.439 1_565 S
O181 C175 1.208 . S
O182 Cd183 2.223 . S
O182 C190 1.315 . S
Cd183 O182 2.223 . S
Cd183 O186 2.297 . S
Cd183 O187 2.439 . S
Cd183 O193 2.240 . S
Cd184 O185 2.240 . S
Cd184 O192 2.223 . S
Cd184 O194 2.297 1_655 S
Cd184 O195 2.439 1_655 S
O185 Cd184 2.240 . S
O185 C190 1.279 . S
O186 Cd183 2.297 . S
O186 C188 1.247 . S
O187 Cd183 2.439 . S
O187 C188 1.208 . S
C188 O186 1.247 . S
C188 O187 1.208 . S
C189 O194 1.247 . S
C189 O195 1.208 . S
C190 O182 1.315 . S
C190 O185 1.279 . S
C191 O192 1.315 . S
C191 O193 1.279 . S
O192 Cd184 2.223 . S
O192 C191 1.315 . S
O193 Cd183 2.240 . S
O193 C191 1.279 . S
O194 Cd184 2.297 1_455 S
O194 C189 1.247 . S
O195 Cd184 2.439 1_455 S
O195 C189 1.208 . S
O196 Cd197 2.223 . S
O196 C204 1.315 . S
Cd197 O196 2.223 . S
Cd197 O200 2.297 . S
Cd197 O201 2.439 . S
Cd197 O207 2.240 . S
Cd198 O199 2.240 . S
Cd198 O206 2.223 . S
Cd198 O208 2.297 . S
Cd198 O209 2.439 . S
O199 Cd198 2.240 . S
O199 C204 1.279 . S
O200 Cd197 2.297 . S
O200 C202 1.247 . S
O201 Cd197 2.439 . S
O201 C202 1.208 . S
C202 O200 1.247 . S
C202 O201 1.208 . S
C203 O208 1.247 . S
C203 O209 1.208 . S
C204 O196 1.315 . S
C204 O199 1.279 . S
C205 O206 1.315 . S
C205 O207 1.279 . S
O206 Cd198 2.223 . S
O206 C205 1.315 . S
O207 Cd197 2.240 . S
O207 C205 1.279 . S
O208 Cd198 2.297 . S
O208 C203 1.247 . S
O209 Cd198 2.439 . S
O209 C203 1.208 . S
O210 Cd211 2.223 . S
O210 C218 1.315 . S
Cd211 O210 2.223 . S
Cd211 O214 2.297 . S
Cd211 O215 2.439 . S
Cd211 O221 2.240 . S
Cd212 O213 2.240 . S
Cd212 O220 2.223 . S
Cd212 O222 2.297 . S
Cd212 O223 2.439 . S
O213 Cd212 2.240 . S
O213 C218 1.279 . S
O214 Cd211 2.297 . S
O214 C216 1.247 . S
O215 Cd211 2.439 . S
O215 C216 1.208 . S
C216 O214 1.247 . S
C216 O215 1.208 . S
C217 O222 1.247 . S
C217 O223 1.208 . S
C218 O210 1.315 . S
C218 O213 1.279 . S
C219 O220 1.315 . S
C219 O221 1.279 . S
O220 Cd212 2.223 . S
O220 C219 1.315 . S
O221 Cd211 2.240 . S
O221 C219 1.279 . S
O222 Cd212 2.297 . S
O222 C217 1.247 . S
O223 Cd212 2.439 . S
O223 C217 1.208 . S
O224 Cd225 2.223 . S
O224 C232 1.315 . S
Cd225 O224 2.223 . S
Cd225 O228 2.297 1_545 S
Cd225 O229 2.439 1_545 S
Cd225 O235 2.240 . S
Cd226 O227 2.240 . S
Cd226 O234 2.223 . S
Cd226 O236 2.297 . S
Cd226 O237 2.439 . S
O227 Cd226 2.240 . S
O227 C232 1.279 . S
O228 Cd225 2.297 1_565 S
O228 C230 1.247 . S
O229 Cd225 2.439 1_565 S
O229 C230 1.208 . S
C230 O228 1.247 . S
C230 O229 1.208 . S
C231 O236 1.247 . S
C231 O237 1.208 . S
C232 O224 1.315 . S
C232 O227 1.279 . S
C233 O234 1.315 . S
C233 O235 1.279 . S
O234 Cd226 2.223 . S
O234 C233 1.315 . S
O235 Cd225 2.240 . S
O235 C233 1.279 . S
O236 Cd226 2.297 . S
O236 C231 1.247 . S
O237 Cd226 2.439 . S
O237 C231 1.208 . S
O238 Cd239 2.223 . S
O238 C246 1.315 . S
Cd239 O238 2.223 . S
Cd239 O242 2.297 . S
Cd239 O243 2.439 . S
Cd239 O249 2.240 . S
Cd240 O241 2.240 . S
Cd240 O248 2.223 . S
Cd240 O250 2.297 1_655 S
Cd240 O251 2.439 1_655 S
O241 Cd240 2.240 . S
O241 C246 1.279 . S
O242 Cd239 2.297 . S
O242 C244 1.247 . S
O243 Cd239 2.439 . S
O243 C244 1.208 . S
C244 O242 1.247 . S
C244 O243 1.208 . S
C245 O250 1.247 . S
C245 O251 1.208 . S
C246 O238 1.315 . S
C246 O241 1.279 . S
C247 O248 1.315 . S
C247 O249 1.279 . S
O248 Cd240 2.223 . S
O248 C247 1.315 . S
O249 Cd239 2.240 . S
O249 C247 1.279 . S
O250 Cd240 2.297 1_455 S
O250 C245 1.247 . S
O251 Cd240 2.439 1_455 S
O251 C245 1.208 . S
H252 C258 0.930 . S
H253 C261 0.931 . S
H254 C263 0.931 . S
H255 C265 0.930 . S
H256 C267 0.930 . S
H257 C269 0.931 . S
C258 H252 0.930 . S
C258 C259 1.380 . S
C258 C260 1.394 . S
C259 C258 1.380 . S
C259 C263 1.382 . S
C260 C258 1.394 . S
C260 C261 1.400 . S
C261 H253 0.931 . S
C261 C260 1.400 . S
C261 C262 1.375 . S
C262 C261 1.375 . S
C262 C263 1.415 . S
C262 C264 1.501 . S
C263 H254 0.931 . S
C263 C259 1.382 . S
C263 C262 1.415 . S
C264 C262 1.501 . S
C264 C265 1.384 . S
C264 C269 1.408 . S
C265 H255 0.930 . S
C265 C264 1.384 . S
C265 C266 1.389 . S
C266 C265 1.389 . S
C266 C267 1.405 . S
C267 H256 0.930 . S
C267 C266 1.405 . S
C267 C268 1.364 . S
C268 C267 1.364 . S
C268 C269 1.400 . S
C269 H257 0.931 . S
C269 C264 1.408 . S
C269 C268 1.400 . S
H270 C276 0.930 . S
H271 C279 0.931 . S
H272 C281 0.931 . S
H273 C283 0.930 . S
H274 C285 0.930 . S
H275 C287 0.931 . S
C276 H270 0.930 . S
C276 C277 1.380 . S
C276 C278 1.394 . S
C277 C276 1.380 . S
C277 C281 1.382 . S
C278 C276 1.394 . S
C278 C279 1.400 . S
C279 H271 0.931 . S
C279 C278 1.400 . S
C279 C280 1.375 . S
C280 C279 1.375 . S
C280 C281 1.415 . S
C280 C282 1.501 . S
C281 H272 0.931 . S
C281 C277 1.382 . S
C281 C280 1.415 . S
C282 C280 1.501 . S
C282 C283 1.384 . S
C282 C287 1.408 . S
C283 H273 0.930 . S
C283 C282 1.384 . S
C283 C284 1.389 . S
C284 C283 1.389 . S
C284 C285 1.405 . S
C285 H274 0.930 . S
C285 C284 1.405 . S
C285 C286 1.364 . S
C286 C285 1.364 . S
C286 C287 1.400 . S
C287 H275 0.931 . S
C287 C282 1.408 . S
C287 C286 1.400 . S
H288 C294 0.930 . S
H289 C297 0.931 . S
H290 C299 0.931 . S
H291 C301 0.930 . S
H292 C303 0.930 . S
H293 C305 0.931 . S
C294 H288 0.930 . S
C294 C295 1.380 . S
C294 C296 1.394 . S
C295 C294 1.380 . S
C295 C299 1.382 . S
C296 C294 1.394 . S
C296 C297 1.400 . S
C297 H289 0.931 . S
C297 C296 1.400 . S
C297 C298 1.375 . S
C298 C297 1.375 . S
C298 C299 1.415 . S
C298 C300 1.501 . S
C299 H290 0.931 . S
C299 C295 1.382 . S
C299 C298 1.415 . S
C300 C298 1.501 . S
C300 C301 1.384 . S
C300 C305 1.408 . S
C301 H291 0.930 . S
C301 C300 1.384 . S
C301 C302 1.389 . S
C302 C301 1.389 . S
C302 C303 1.405 . S
C303 H292 0.930 . S
C303 C302 1.405 . S
C303 C304 1.364 . S
C304 C303 1.364 . S
C304 C305 1.400 . S
C305 H293 0.931 . S
C305 C300 1.408 . S
C305 C304 1.400 . S
H306 C312 0.930 . S
H307 C315 0.931 . S
H308 C317 0.931 . S
H309 C319 0.930 . S
H310 C321 0.930 . S
H311 C323 0.931 . S
C312 H306 0.930 . S
C312 C313 1.380 . S
C312 C314 1.394 . S
C313 C312 1.380 . S
C313 C317 1.382 . S
C314 C312 1.394 . S
C314 C315 1.400 . S
C315 H307 0.931 . S
C315 C314 1.400 . S
C315 C316 1.375 . S
C316 C315 1.375 . S
C316 C317 1.415 . S
C316 C318 1.501 . S
C317 H308 0.931 . S
C317 C313 1.382 . S
C317 C316 1.415 . S
C318 C316 1.501 . S
C318 C319 1.384 . S
C318 C323 1.408 . S
C319 H309 0.930 . S
C319 C318 1.384 . S
C319 C320 1.389 . S
C320 C319 1.389 . S
C320 C321 1.405 . S
C321 H310 0.930 . S
C321 C320 1.405 . S
C321 C322 1.364 . S
C322 C321 1.364 . S
C322 C323 1.400 . S
C323 H311 0.931 . S
C323 C318 1.408 . S
C323 C322 1.400 . S
H324 C330 0.930 . S
H325 C333 0.931 . S
H326 C335 0.931 . S
H327 C337 0.930 . S
H328 C339 0.930 . S
H329 C341 0.931 . S
C330 H324 0.930 . S
C330 C331 1.380 . S
C330 C332 1.394 . S
C331 C330 1.380 . S
C331 C335 1.382 . S
C332 C330 1.394 . S
C332 C333 1.400 . S
C333 H325 0.931 . S
C333 C332 1.400 . S
C333 C334 1.375 . S
C334 C333 1.375 . S
C334 C335 1.415 . S
C334 C336 1.501 . S
C335 H326 0.931 . S
C335 C331 1.382 . S
C335 C334 1.415 . S
C336 C334 1.501 . S
C336 C337 1.384 . S
C336 C341 1.408 . S
C337 H327 0.930 . S
C337 C336 1.384 . S
C337 C338 1.389 . S
C338 C337 1.389 . S
C338 C339 1.405 . S
C339 H328 0.930 . S
C339 C338 1.405 . S
C339 C340 1.364 . S
C340 C339 1.364 . S
C340 C341 1.400 . S
C341 H329 0.931 . S
C341 C336 1.408 . S
C341 C340 1.400 . S
H342 C348 0.930 . S
H343 C351 0.931 . S
H344 C353 0.931 . S
H345 C355 0.930 . S
H346 C357 0.930 . S
H347 C359 0.931 . S
C348 H342 0.930 . S
C348 C349 1.380 . S
C348 C350 1.394 . S
C349 C348 1.380 . S
C349 C353 1.382 . S
C350 C348 1.394 . S
C350 C351 1.400 . S
C351 H343 0.931 . S
C351 C350 1.400 . S
C351 C352 1.375 . S
C352 C351 1.375 . S
C352 C353 1.415 . S
C352 C354 1.501 . S
C353 H344 0.931 . S
C353 C349 1.382 . S
C353 C352 1.415 . S
C354 C352 1.501 . S
C354 C355 1.384 . S
C354 C359 1.408 . S
C355 H345 0.930 . S
C355 C354 1.384 . S
C355 C356 1.389 . S
C356 C355 1.389 . S
C356 C357 1.405 . S
C357 H346 0.930 . S
C357 C356 1.405 . S
C357 C358 1.364 . S
C358 C357 1.364 . S
C358 C359 1.400 . S
C359 H347 0.931 . S
C359 C354 1.408 . S
C359 C358 1.400 . S
H360 C366 0.930 . S
H361 C369 0.931 . S
H362 C371 0.931 . S
H363 C373 0.930 . S
H364 C375 0.930 . S
H365 C377 0.931 . S
C366 H360 0.930 . S
C366 C367 1.380 . S
C366 C368 1.394 . S
C367 C366 1.380 . S
C367 C371 1.382 . S
C368 C366 1.394 . S
C368 C369 1.400 . S
C369 H361 0.931 . S
C369 C368 1.400 . S
C369 C370 1.375 . S
C370 C369 1.375 . S
C370 C371 1.415 . S
C370 C372 1.501 . S
C371 H362 0.931 . S
C371 C367 1.382 . S
C371 C370 1.415 . S
C372 C370 1.501 . S
C372 C373 1.384 . S
C372 C377 1.408 . S
C373 H363 0.930 . S
C373 C372 1.384 . S
C373 C374 1.389 . S
C374 C373 1.389 . S
C374 C375 1.405 . S
C375 H364 0.930 . S
C375 C374 1.405 . S
C375 C376 1.364 . S
C376 C375 1.364 . S
C376 C377 1.400 . S
C377 H365 0.931 . S
C377 C372 1.408 . S
C377 C376 1.400 . S
H378 C384 0.930 . S
H379 C387 0.931 . S
H380 C389 0.931 . S
H381 C391 0.930 . S
H382 C393 0.930 . S
H383 C395 0.931 . S
C384 H378 0.930 . S
C384 C385 1.380 . S
C384 C386 1.394 . S
C385 C384 1.380 . S
C385 C389 1.382 . S
C386 C384 1.394 . S
C386 C387 1.400 . S
C387 H379 0.931 . S
C387 C386 1.400 . S
C387 C388 1.375 . S
C388 C387 1.375 . S
C388 C389 1.415 . S
C388 C390 1.501 . S
C389 H380 0.931 . S
C389 C385 1.382 . S
C389 C388 1.415 . S
C390 C388 1.501 . S
C390 C391 1.384 . S
C390 C395 1.408 . S
C391 H381 0.930 . S
C391 C390 1.384 . S
C391 C392 1.389 . S
C392 C391 1.389 . S
C392 C393 1.405 . S
C393 H382 0.930 . S
C393 C392 1.405 . S
C393 C394 1.364 . S
C394 C393 1.364 . S
C394 C395 1.400 . S
C395 H383 0.931 . S
C395 C390 1.408 . S
C395 C394 1.400 . S
H396 C402 0.930 . S
H397 C405 0.931 . S
H398 C407 0.931 . S
H399 C409 0.930 . S
H400 C411 0.930 . S
H401 C413 0.931 . S
C402 H396 0.930 . S
C402 C403 1.380 . S
C402 C404 1.394 . S
C403 C402 1.380 . S
C403 C407 1.382 . S
C404 C402 1.394 . S
C404 C405 1.400 . S
C405 H397 0.931 . S
C405 C404 1.400 . S
C405 C406 1.375 . S
C406 C405 1.375 . S
C406 C407 1.415 . S
C406 C408 1.501 . S
C407 H398 0.931 . S
C407 C403 1.382 . S
C407 C406 1.415 . S
C408 C406 1.501 . S
C408 C409 1.384 . S
C408 C413 1.408 . S
C409 H399 0.930 . S
C409 C408 1.384 . S
C409 C410 1.389 . S
C410 C409 1.389 . S
C410 C411 1.405 . S
C411 H400 0.930 . S
C411 C410 1.405 . S
C411 C412 1.364 . S
C412 C411 1.364 . S
C412 C413 1.400 . S
C413 H401 0.931 . S
C413 C408 1.408 . S
C413 C412 1.400 . S
H414 C420 0.918 . S
H415 C423 0.931 . S
H416 C425 0.931 . S
H417 C427 0.930 . S
H418 C429 0.930 . S
H419 C431 0.942 . S
C420 H414 0.918 . S
C420 C421 1.391 . S
C420 C422 1.396 1_655 S
C421 C420 1.391 . S
C421 C425 1.382 . S
C422 C420 1.396 1_455 S
C422 C423 1.400 . S
C423 H415 0.931 . S
C423 C422 1.400 . S
C423 C424 1.375 . S
C424 C423 1.375 . S
C424 C425 1.415 1_455 S
C424 C426 1.501 . S
C425 H416 0.931 . S
C425 C421 1.382 . S
C425 C424 1.415 1_655 S
C426 C424 1.501 . S
C426 C427 1.384 . S
C426 C431 1.423 . S
C427 H417 0.930 . S
C427 C426 1.384 . S
C427 C428 1.389 . S
C428 C427 1.389 . S
C428 C429 1.405 . S
C429 H418 0.930 . S
C429 C428 1.405 . S
C429 C430 1.357 . S
C430 C429 1.357 . S
C430 C431 1.394 . S
C431 H419 0.942 . S
C431 C426 1.423 . S
C431 C430 1.394 . S
H432 C438 0.930 . S
H433 C441 0.931 . S
H434 C443 0.931 . S
H435 C445 0.930 . S
H436 C447 0.930 . S
H437 C449 0.931 . S
C438 H432 0.930 . S
C438 C439 1.380 . S
C438 C440 1.394 . S
C439 C438 1.380 . S
C439 C443 1.382 . S
C440 C438 1.394 . S
C440 C441 1.400 . S
C441 H433 0.931 . S
C441 C440 1.400 . S
C441 C442 1.375 . S
C442 C441 1.375 . S
C442 C443 1.415 . S
C442 C444 1.501 . S
C443 H434 0.931 . S
C443 C439 1.382 . S
C443 C442 1.415 . S
C444 C442 1.501 . S
C444 C445 1.384 . S
C444 C449 1.408 . S
C445 H435 0.930 . S
C445 C444 1.384 . S
C445 C446 1.389 . S
C446 C445 1.389 . S
C446 C447 1.405 . S
C447 H436 0.930 . S
C447 C446 1.405 . S
C447 C448 1.364 . S
C448 C447 1.364 . S
C448 C449 1.400 . S
C449 H437 0.931 . S
C449 C444 1.408 . S
C449 C448 1.400 . S
H450 C456 0.946 . S
H451 C459 0.931 . S
H452 C461 0.931 . S
H453 C463 0.930 . S
H454 C465 0.930 . S
H455 C467 0.918 . S
C456 H450 0.946 . S
C456 C457 1.376 . S
C456 C458 1.382 1_545 S
C457 C456 1.376 . S
C457 C461 1.382 . S
C458 C456 1.382 1_565 S
C458 C459 1.400 . S
C459 H451 0.931 . S
C459 C458 1.400 . S
C459 C460 1.375 . S
C460 C459 1.375 . S
C460 C461 1.415 1_565 S
C460 C462 1.501 . S
C461 H452 0.931 . S
C461 C457 1.382 . S
C461 C460 1.415 1_545 S
C462 C460 1.501 . S
C462 C463 1.384 . S
C462 C467 1.398 . S
C463 H453 0.930 . S
C463 C462 1.384 . S
C463 C464 1.389 . S
C464 C463 1.389 . S
C464 C465 1.405 . S
C465 H454 0.930 . S
C465 C464 1.405 . S
C465 C466 1.376 . S
C466 C465 1.376 . S
C466 C467 1.407 . S
C467 H455 0.918 . S
C467 C462 1.398 . S
C467 C466 1.407 . S
H468 C474 0.912 . S
H469 C477 0.931 . S
H470 C479 0.926 . S
H471 C481 0.930 . S
H472 C483 0.930 . S
H473 C485 0.931 . S
C474 H468 0.912 . S
C474 C475 1.385 . S
C474 C476 1.414 1_545 S
C475 C474 1.385 . S
C475 C479 1.403 1_545 S
C476 C474 1.414 1_565 S
C476 C477 1.380 . S
C477 H469 0.931 . S
C477 C476 1.380 . S
C477 C478 1.375 . S
C478 C477 1.375 . S
C478 C479 1.410 . S
C478 C480 1.501 . S
C479 H470 0.926 . S
C479 C475 1.403 1_565 S
C479 C478 1.410 . S
C480 C478 1.501 . S
C480 C481 1.384 . S
C480 C485 1.408 1_565 S
C481 H471 0.930 . S
C481 C480 1.384 . S
C481 C482 1.389 . S
C482 C481 1.389 . S
C482 C483 1.405 . S
C483 H472 0.930 . S
C483 C482 1.405 . S
C483 C484 1.364 1_565 S
C484 C483 1.364 1_545 S
C484 C485 1.400 . S
C485 H473 0.931 . S
C485 C480 1.408 1_545 S
C485 C484 1.400 . S
H486 C492 0.954 . S
H487 C495 0.931 . S
H488 C497 0.936 . S
H489 C499 0.930 . S
H490 C501 0.930 . S
H491 C503 0.931 . S
C492 H486 0.954 . S
C492 C493 1.375 . S
C492 C494 1.370 1_655 S
C493 C492 1.375 . S
C493 C497 1.359 1_655 S
C494 C492 1.370 1_455 S
C494 C495 1.429 . S
C495 H487 0.931 . S
C495 C494 1.429 . S
C495 C496 1.375 . S
C496 C495 1.375 . S
C496 C497 1.422 . S
C496 C498 1.501 . S
C497 H488 0.936 . S
C497 C493 1.359 1_455 S
C497 C496 1.422 . S
C498 C496 1.501 . S
C498 C499 1.384 . S
C498 C503 1.408 1_455 S
C499 H489 0.930 . S
C499 C498 1.384 . S
C499 C500 1.389 . S
C500 C499 1.389 . S
C500 C501 1.405 . S
C501 H490 0.930 . S
C501 C500 1.405 . S
C501 C502 1.364 1_455 S
C502 C501 1.364 1_655 S
C502 C503 1.400 . S
C503 H491 0.931 . S
C503 C498 1.408 1_655 S
C503 C502 1.400 . S
H504 C510 0.930 . S
H505 C513 0.931 . S
H506 C515 0.931 . S
H507 C517 0.930 . S
H508 C519 0.930 . S
H509 C521 0.931 . S
C510 H504 0.930 . S
C510 C511 1.380 . S
C510 C512 1.394 . S
C511 C510 1.380 . S
C511 C515 1.382 . S
C512 C510 1.394 . S
C512 C513 1.400 . S
C513 H505 0.931 . S
C513 C512 1.400 . S
C513 C514 1.375 . S
C514 C513 1.375 . S
C514 C515 1.415 . S
C514 C516 1.501 . S
C515 H506 0.931 . S
C515 C511 1.382 . S
C515 C514 1.415 . S
C516 C514 1.501 . S
C516 C517 1.384 . S
C516 C521 1.408 . S
C517 H507 0.930 . S
C517 C516 1.384 . S
C517 C518 1.389 . S
C518 C517 1.389 . S
C518 C519 1.405 . S
C519 H508 0.930 . S
C519 C518 1.405 . S
C519 C520 1.364 . S
C520 C519 1.364 . S
C520 C521 1.400 . S
C521 H509 0.931 . S
C521 C516 1.408 . S
C521 C520 1.400 . S
H522 C528 0.930 . S
H523 C531 0.931 . S
H524 C533 0.931 . S
H525 C535 0.930 . S
H526 C537 0.930 . S
H527 C539 0.931 . S
C528 H522 0.930 . S
C528 C529 1.380 . S
C528 C530 1.394 . S
C529 C528 1.380 . S
C529 C533 1.382 . S
C530 C528 1.394 . S
C530 C531 1.400 . S
C531 H523 0.931 . S
C531 C530 1.400 . S
C531 C532 1.375 . S
C532 C531 1.375 . S
C532 C533 1.415 . S
C532 C534 1.501 . S
C533 H524 0.931 . S
C533 C529 1.382 . S
C533 C532 1.415 . S
C534 C532 1.501 . S
C534 C535 1.384 . S
C534 C539 1.408 . S
C535 H525 0.930 . S
C535 C534 1.384 . S
C535 C536 1.389 . S
C536 C535 1.389 . S
C536 C537 1.405 . S
C537 H526 0.930 . S
C537 C536 1.405 . S
C537 C538 1.364 . S
C538 C537 1.364 . S
C538 C539 1.400 . S
C539 H527 0.931 . S
C539 C534 1.408 . S
C539 C538 1.400 . S
H540 C546 0.930 . S
H541 C549 0.931 . S
H542 C551 0.931 . S
H543 C553 0.930 . S
H544 C555 0.930 . S
H545 C557 0.931 . S
C546 H540 0.930 . S
C546 C547 1.380 . S
C546 C548 1.394 . S
C547 C546 1.380 . S
C547 C551 1.382 . S
C548 C546 1.394 . S
C548 C549 1.400 . S
C549 H541 0.931 . S
C549 C548 1.400 . S
C549 C550 1.375 . S
C550 C549 1.375 . S
C550 C551 1.415 . S
C550 C552 1.501 . S
C551 H542 0.931 . S
C551 C547 1.382 . S
C551 C550 1.415 . S
C552 C550 1.501 . S
C552 C553 1.384 . S
C552 C557 1.408 . S
C553 H543 0.930 . S
C553 C552 1.384 . S
C553 C554 1.389 . S
C554 C553 1.389 . S
C554 C555 1.405 . S
C555 H544 0.930 . S
C555 C554 1.405 . S
C555 C556 1.364 . S
C556 C555 1.364 . S
C556 C557 1.400 . S
C557 H545 0.931 . S
C557 C552 1.408 . S
C557 C556 1.400 . S
H558 C564 0.930 . S
H559 C567 0.931 . S
H560 C569 0.931 . S
H561 C571 0.930 . S
H562 C573 0.930 . S
H563 C575 0.931 . S
C564 H558 0.930 . S
C564 C565 1.380 . S
C564 C566 1.394 . S
C565 C564 1.380 . S
C565 C569 1.382 . S
C566 C564 1.394 . S
C566 C567 1.400 . S
C567 H559 0.931 . S
C567 C566 1.400 . S
C567 C568 1.375 . S
C568 C567 1.375 . S
C568 C569 1.415 . S
C568 C570 1.501 . S
C569 H560 0.931 . S
C569 C565 1.382 . S
C569 C568 1.415 . S
C570 C568 1.501 . S
C570 C571 1.384 . S
C570 C575 1.408 . S
C571 H561 0.930 . S
C571 C570 1.384 . S
C571 C572 1.389 . S
C572 C571 1.389 . S
C572 C573 1.405 . S
C573 H562 0.930 . S
C573 C572 1.405 . S
C573 C574 1.364 . S
C574 C573 1.364 . S
C574 C575 1.400 . S
C575 H563 0.931 . S
C575 C570 1.408 . S
C575 C574 1.400 . S
C576 C577 1.361 1_455 S
C576 C582 1.379 . S
C576 N584 1.356 . S
C577 C576 1.361 1_655 S
C577 C583 1.368 . S
C578 C579 1.363 . S
C578 C583 1.379 . S
C578 N585 1.356 . S
C579 C578 1.363 . S
C579 C582 1.363 1_655 S
N580 C582 1.356 . S
N580 H592 0.984 . S
N580 H593 0.985 . S
N581 C583 1.356 . S
N581 H586 0.984 . S
N581 H587 0.985 . S
C582 C576 1.379 . S
C582 C579 1.363 1_455 S
C582 N580 1.356 . S
C583 C577 1.368 . S
C583 C578 1.379 . S
C583 N581 1.356 . S
N584 C576 1.356 . S
N584 H590 0.984 . S
N584 H591 0.984 . S
N585 C578 1.356 . S
N585 H588 0.984 . S
N585 H589 0.985 . S
H586 N581 0.984 . S
H587 N581 0.985 . S
H588 N585 0.984 . S
H589 N585 0.985 . S
H590 N584 0.984 . S
H591 N584 0.984 . S
H592 N580 0.984 . S
H593 N580 0.985 . S
C594 C595 1.363 . S
C594 C600 1.379 . S
C594 N602 1.356 . S
C595 C594 1.363 . S
C595 C601 1.363 . S
C596 C597 1.363 . S
C596 C601 1.379 . S
C596 N603 1.356 . S
C597 C596 1.363 . S
C597 C600 1.363 . S
N598 C600 1.356 . S
N598 H610 0.984 . S
N598 H611 0.985 . S
N599 C601 1.356 . S
N599 H604 0.984 . S
N599 H605 0.985 . S
C600 C594 1.379 . S
C600 C597 1.363 . S
C600 N598 1.356 . S
C601 C595 1.363 . S
C601 C596 1.379 . S
C601 N599 1.356 . S
N602 C594 1.356 . S
N602 H608 0.984 . S
N602 H609 0.984 . S
N603 C596 1.356 . S
N603 H606 0.984 . S
N603 H607 0.985 . S
H604 N599 0.984 . S
H605 N599 0.985 . S
H606 N603 0.984 . S
H607 N603 0.985 . S
H608 N602 0.984 . S
H609 N602 0.984 . S
H610 N598 0.984 . S
H611 N598 0.985 . S
C612 C613 1.356 1_565 S
C612 C618 1.379 . S
C612 N620 1.356 . S
C613 C612 1.356 1_545 S
C613 C619 1.368 . S
C614 C615 1.363 . S
C614 C619 1.379 . S
C614 N621 1.356 . S
C615 C614 1.363 . S
C615 C618 1.363 1_545 S
N616 C618 1.356 . S
N616 H628 0.984 . S
N616 H629 0.985 . S
N617 C619 1.356 . S
N617 H622 0.984 . S
N617 H623 0.985 . S
C618 C612 1.379 . S
C618 C615 1.363 1_565 S
C618 N616 1.356 . S
C619 C613 1.368 . S
C619 C614 1.379 . S
C619 N617 1.356 . S
N620 C612 1.356 . S
N620 H626 0.984 . S
N620 H627 0.984 . S
N621 C614 1.356 . S
N621 H624 0.984 . S
N621 H625 0.985 . S
H622 N617 0.984 . S
H623 N617 0.985 . S
H624 N621 0.984 . S
H625 N621 0.985 . S
H626 N620 0.984 . S
H627 N620 0.984 . S
H628 N616 0.984 . S
H629 N616 0.985 . S
C630 C631 1.371 . S
C630 C636 1.379 . S
C630 N638 1.356 . S
C631 C630 1.371 . S
C631 C637 1.359 1_565 S
C632 C633 1.363 1_545 S
C632 C637 1.379 . S
C632 N639 1.356 . S
C633 C632 1.363 1_565 S
C633 C636 1.363 . S
N634 C636 1.356 . S
N634 H646 0.984 . S
N634 H647 0.985 . S
N635 C637 1.356 . S
N635 H640 0.984 . S
N635 H641 0.985 . S
C636 C630 1.379 . S
C636 C633 1.363 . S
C636 N634 1.356 . S
C637 C631 1.359 1_545 S
C637 C632 1.379 . S
C637 N635 1.356 . S
N638 C630 1.356 . S
N638 H644 0.984 . S
N638 H645 0.984 . S
N639 C632 1.356 . S
N639 H642 0.984 . S
N639 H643 0.985 . S
H640 N635 0.984 . S
H641 N635 0.985 . S
H642 N639 0.984 . S
H643 N639 0.985 . S
H644 N638 0.984 . S
H645 N638 0.984 . S
H646 N634 0.984 . S
H647 N634 0.985 . S
C648 C649 1.371 . S
C648 C654 1.379 . S
C648 N656 1.356 . S
C649 C648 1.371 . S
C649 C655 1.349 1_455 S
C650 C651 1.363 1_655 S
C650 C655 1.379 . S
C650 N657 1.356 . S
C651 C650 1.363 1_455 S
C651 C654 1.363 . S
N652 C654 1.356 . S
N652 H664 0.984 . S
N652 H665 0.985 . S
N653 C655 1.356 . S
N653 H658 0.984 . S
N653 H659 0.985 . S
C654 C648 1.379 . S
C654 C651 1.363 . S
C654 N652 1.356 . S
C655 C649 1.349 1_655 S
C655 C650 1.379 . S
C655 N653 1.356 . S
N656 C648 1.356 . S
N656 H662 0.984 . S
N656 H663 0.984 . S
N657 C650 1.356 . S
N657 H660 0.984 . S
N657 H661 0.985 . S
H658 N653 0.984 . S
H659 N653 0.985 . S
H660 N657 0.984 . S
H661 N657 0.985 . S
H662 N656 0.984 . S
H663 N656 0.984 . S
H664 N652 0.984 . S
H665 N652 0.985 . S
C666 C667 1.363 . S
C666 C672 1.379 . S
C666 N674 1.356 . S
C667 C666 1.363 . S
C667 C673 1.363 . S
C668 C669 1.363 . S
C668 C673 1.379 . S
C668 N675 1.356 . S
C669 C668 1.363 . S
C669 C672 1.363 . S
N670 C672 1.356 . S
N670 H682 0.984 . S
N670 H683 0.985 . S
N671 C673 1.356 . S
N671 H676 0.986 1_556 S
N671 H677 0.985 1_556 S
C672 C666 1.379 . S
C672 C669 1.363 . S
C672 N670 1.356 . S
C673 C667 1.363 . S
C673 C668 1.379 . S
C673 N671 1.356 . S
N674 C666 1.356 . S
N674 H680 0.984 . S
N674 H681 0.984 . S
N675 C668 1.356 . S
N675 H678 0.984 . S
N675 H679 0.985 . S
H676 N671 0.986 1_554 S
H677 N671 0.985 1_554 S
H678 N675 0.984 . S
H679 N675 0.985 . S
H680 N674 0.984 . S
H681 N674 0.984 . S
H682 N670 0.984 . S
H683 N670 0.985 . S
C684 C685 1.385 . S
C684 C690 1.379 . S
C684 N692 1.356 . S
C685 C684 1.385 . S
C685 C691 1.321 1_655 S
C686 C687 1.350 1_455 S
C686 C691 1.379 . S
C686 N693 1.356 . S
C687 C686 1.350 1_655 S
C687 C690 1.390 . S
N688 C690 1.356 . S
N688 H700 0.984 . S
N688 H701 0.985 . S
N689 C691 1.356 . S
N689 H694 0.984 . S
N689 H695 0.985 . S
C690 C684 1.379 . S
C690 C687 1.390 . S
C690 N688 1.356 . S
C691 C685 1.321 1_455 S
C691 C686 1.379 . S
C691 N689 1.356 . S
N692 C684 1.356 . S
N692 H698 0.984 . S
N692 H699 0.984 . S
N693 C686 1.356 . S
N693 H696 0.984 . S
N693 H697 0.985 . S
H694 N689 0.984 . S
H695 N689 0.985 . S
H696 N693 0.984 . S
H697 N693 0.985 . S
H698 N692 0.984 . S
H699 N692 0.984 . S
H700 N688 0.984 . S
H701 N688 0.985 . S
C702 C703 1.363 . S
C702 C708 1.379 . S
C702 N710 1.356 . S
C703 C702 1.363 . S
C703 C709 1.363 . S
C704 C705 1.363 . S
C704 C709 1.379 . S
C704 N711 1.356 . S
C705 C704 1.363 . S
C705 C708 1.363 . S
N706 C708 1.356 . S
N706 H718 0.984 . S
N706 H719 0.985 . S
N707 C709 1.356 . S
N707 H712 0.984 . S
N707 H713 0.985 . S
C708 C702 1.379 . S
C708 C705 1.363 . S
C708 N706 1.356 . S
C709 C703 1.363 . S
C709 C704 1.379 . S
C709 N707 1.356 . S
N710 C702 1.356 . S
N710 H716 0.984 . S
N710 H717 0.984 . S
N711 C704 1.356 . S
N711 H714 0.984 . S
N711 H715 0.985 . S
H712 N707 0.984 . S
H713 N707 0.985 . S
H714 N711 0.984 . S
H715 N711 0.985 . S
H716 N710 0.984 . S
H717 N710 0.984 . S
H718 N706 0.984 . S
H719 N706 0.985 . S
C720 C721 1.363 1_565 S
C720 C726 1.379 . S
C720 N728 1.356 . S
C721 C720 1.363 1_545 S
C721 C727 1.363 . S
C722 C723 1.388 . S
C722 C727 1.379 . S
C722 N729 1.356 . S
C723 C722 1.388 . S
C723 C726 1.321 1_545 S
N724 C726 1.356 . S
N724 H736 0.984 . S
N724 H737 0.985 . S
N725 C727 1.356 . S
N725 H730 0.984 . S
N725 H731 0.985 . S
C726 C720 1.379 . S
C726 C723 1.321 1_565 S
C726 N724 1.356 . S
C727 C721 1.363 . S
C727 C722 1.379 . S
C727 N725 1.356 . S
N728 C720 1.356 . S
N728 H734 0.984 . S
N728 H735 0.984 . S
N729 C722 1.356 . S
N729 H732 0.984 . S
N729 H733 0.985 . S
H730 N725 0.984 . S
H731 N725 0.985 . S
H732 N729 0.984 . S
H733 N729 0.985 . S
H734 N728 0.984 . S
H735 N728 0.984 . S
H736 N724 0.984 . S
H737 N724 0.985 . S
C738 C739 1.335 1_545 S
C738 C744 1.379 . S
C738 N746 1.356 . S
C739 C738 1.335 1_565 S
C739 C745 1.373 . S
C740 C741 1.383 . S
C740 C745 1.379 . S
C740 N747 1.356 . S
C741 C740 1.383 . S
C741 C744 1.357 1_565 S
N742 C744 1.356 . S
N742 H754 0.984 . S
N742 H755 0.985 . S
N743 C745 1.356 . S
N743 H748 0.984 . S
N743 H749 0.985 . S
C744 C738 1.379 . S
C744 C741 1.357 1_545 S
C744 N742 1.356 . S
C745 C739 1.373 . S
C745 C740 1.379 . S
C745 N743 1.356 . S
N746 C738 1.356 . S
N746 H752 0.984 . S
N746 H753 0.984 . S
N747 C740 1.356 . S
N747 H750 0.984 . S
N747 H751 0.985 . S
H748 N743 0.984 . S
H749 N743 0.985 . S
H750 N747 0.984 . S
H751 N747 0.985 . S
H752 N746 0.984 . S
H753 N746 0.984 . S
H754 N742 0.984 . S
H755 N742 0.985 . S
C756 C757 1.363 1_655 S
C756 C762 1.379 . S
C756 N764 1.356 . S
C757 C756 1.363 1_455 S
C757 C763 1.363 . S
C758 C759 1.382 . S
C758 C763 1.379 . S
C758 N765 1.356 . S
C759 C758 1.382 . S
C759 C762 1.327 1_455 S
N760 C762 1.356 . S
N760 H772 0.984 . S
N760 H773 0.985 . S
N761 C763 1.356 . S
N761 H766 0.984 . S
N761 H767 0.985 . S
C762 C756 1.379 . S
C762 C759 1.327 1_655 S
C762 N760 1.356 . S
C763 C757 1.363 . S
C763 C758 1.379 . S
C763 N761 1.356 . S
N764 C756 1.356 . S
N764 H770 0.984 . S
N764 H771 0.984 . S
N765 C758 1.356 . S
N765 H768 0.984 . S
N765 H769 0.985 . S
H766 N761 0.984 . S
H767 N761 0.985 . S
H768 N765 0.984 . S
H769 N765 0.985 . S
H770 N764 0.984 . S
H771 N764 0.984 . S
H772 N760 0.984 . S
H773 N760 0.985 . S
C774 C775 1.363 . S
C774 C780 1.379 . S
C774 N782 1.356 . S
C775 C774 1.363 . S
C775 C781 1.363 . S
C776 C777 1.363 . S
C776 C781 1.379 . S
C776 N783 1.356 . S
C777 C776 1.363 . S
C777 C780 1.363 . S
N778 C780 1.356 . S
N778 H790 0.984 . S
N778 H791 0.985 . S
N779 C781 1.356 . S
N779 H784 0.984 . S
N779 H785 0.985 . S
C780 C774 1.379 . S
C780 C777 1.363 . S
C780 N778 1.356 . S
C781 C775 1.363 . S
C781 C776 1.379 . S
C781 N779 1.356 . S
N782 C774 1.356 . S
N782 H788 0.984 . S
N782 H789 0.984 . S
N783 C776 1.356 . S
N783 H786 0.984 . S
N783 H787 0.985 . S
H784 N779 0.984 . S
H785 N779 0.985 . S
H786 N783 0.984 . S
H787 N783 0.985 . S
H788 N782 0.984 . S
H789 N782 0.984 . S
H790 N778 0.984 . S
H791 N778 0.985 . S
C792 C793 1.363 . S
C792 C798 1.379 . S
C792 N800 1.356 . S
C793 C792 1.363 . S
C793 C799 1.363 . S
C794 C795 1.363 . S
C794 C799 1.379 . S
C794 N801 1.356 . S
C795 C794 1.363 . S
C795 C798 1.363 . S
N796 C798 1.356 . S
N796 H808 0.984 . S
N796 H809 0.985 . S
N797 C799 1.356 . S
N797 H802 0.984 . S
N797 H803 0.985 . S
C798 C792 1.379 . S
C798 C795 1.363 . S
C798 N796 1.356 . S
C799 C793 1.363 . S
C799 C794 1.379 . S
C799 N797 1.356 . S
N800 C792 1.356 . S
N800 H806 0.984 . S
N800 H807 0.984 . S
N801 C794 1.356 . S
N801 H804 0.984 . S
N801 H805 0.985 . S
H802 N797 0.984 . S
H803 N797 0.985 . S
H804 N801 0.984 . S
H805 N801 0.985 . S
H806 N800 0.984 . S
H807 N800 0.984 . S
H808 N796 0.984 . S
H809 N796 0.985 . S
C810 C811 1.363 . S
C810 C816 1.379 . S
C810 N818 1.356 . S
C811 C810 1.363 . S
C811 C817 1.363 . S
C812 C813 1.363 . S
C812 C817 1.379 . S
C812 N819 1.356 . S
C813 C812 1.363 . S
C813 C816 1.363 . S
N814 C816 1.356 . S
N814 H826 0.984 . S
N814 H827 0.985 . S
N815 C817 1.356 . S
N815 H820 0.984 . S
N815 H821 0.985 . S
C816 C810 1.379 . S
C816 C813 1.363 . S
C816 N814 1.356 . S
C817 C811 1.363 . S
C817 C812 1.379 . S
C817 N815 1.356 . S
N818 C810 1.356 . S
N818 H824 0.984 . S
N818 H825 0.984 . S
N819 C812 1.356 . S
N819 H822 0.984 . S
N819 H823 0.985 . S
H820 N815 0.984 . S
H821 N815 0.985 . S
H822 N819 0.984 . S
H823 N819 0.985 . S
H824 N818 0.984 . S
H825 N818 0.984 . S
H826 N814 0.984 . S
H827 N814 0.985 . S
C828 C829 1.363 . S
C828 C834 1.379 . S
C828 N836 1.356 . S
C829 C828 1.363 . S
C829 C835 1.363 . S
C830 C831 1.363 . S
C830 C835 1.379 . S
C830 N837 1.356 . S
C831 C830 1.363 . S
C831 C834 1.363 . S
N832 C834 1.356 . S
N832 H844 0.984 . S
N832 H845 0.985 . S
N833 C835 1.356 . S
N833 H838 0.984 . S
N833 H839 0.985 . S
C834 C828 1.379 . S
C834 C831 1.363 . S
C834 N832 1.356 . S
C835 C829 1.363 . S
C835 C830 1.379 . S
C835 N833 1.356 . S
N836 C828 1.356 . S
N836 H842 0.984 . S
N836 H843 0.984 . S
N837 C830 1.356 . S
N837 H840 0.984 . S
N837 H841 0.985 . S
H838 N833 0.984 . S
H839 N833 0.985 . S
H840 N837 0.984 . S
H841 N837 0.985 . S
H842 N836 0.984 . S
H843 N836 0.984 . S
H844 N832 0.984 . S
H845 N832 0.985 . S
C846 C847 1.363 . S
C846 C852 1.379 . S
C846 N854 1.356 . S
C847 C846 1.363 . S
C847 C853 1.363 . S
C848 C849 1.363 . S
C848 C853 1.379 . S
C848 N855 1.356 . S
C849 C848 1.363 . S
C849 C852 1.363 . S
N850 C852 1.356 . S
N850 H862 0.984 . S
N850 H863 0.985 . S
N851 C853 1.356 . S
N851 H856 0.984 . S
N851 H857 0.985 . S
C852 C846 1.379 . S
C852 C849 1.363 . S
C852 N850 1.356 . S
C853 C847 1.363 . S
C853 C848 1.379 . S
C853 N851 1.356 . S
N854 C846 1.356 . S
N854 H860 0.984 . S
N854 H861 0.984 . S
N855 C848 1.356 . S
N855 H858 0.984 . S
N855 H859 0.985 . S
H856 N851 0.984 . S
H857 N851 0.985 . S
H858 N855 0.984 . S
H859 N855 0.985 . S
H860 N854 0.984 . S
H861 N854 0.984 . S
H862 N850 0.984 . S
H863 N850 0.985 . S
C864 C865 1.363 . S
C864 C870 1.379 . S
C864 N872 1.356 . S
C865 C864 1.363 . S
C865 C871 1.363 . S
C866 C867 1.363 . S
C866 C871 1.379 . S
C866 N873 1.356 . S
C867 C866 1.363 . S
C867 C870 1.363 . S
N868 C870 1.356 . S
N868 H880 0.984 . S
N868 H881 0.985 . S
N869 C871 1.356 . S
N869 H874 0.984 . S
N869 H875 0.985 . S
C870 C864 1.379 . S
C870 C867 1.363 . S
C870 N868 1.356 . S
C871 C865 1.363 . S
C871 C866 1.379 . S
C871 N869 1.356 . S
N872 C864 1.356 . S
N872 H878 0.984 . S
N872 H879 0.984 . S
N873 C866 1.356 . S
N873 H876 0.984 . S
N873 H877 0.985 . S
H874 N869 0.984 . S
H875 N869 0.985 . S
H876 N873 0.984 . S
H877 N873 0.985 . S
H878 N872 0.984 . S
H879 N872 0.984 . S
H880 N868 0.984 . S
H881 N868 0.985 . S
C882 C883 1.363 . S
C882 C888 1.379 . S
C882 N890 1.356 . S
C883 C882 1.363 . S
C883 C889 1.363 . S
C884 C885 1.363 . S
C884 C889 1.379 . S
C884 N891 1.356 . S
C885 C884 1.363 . S
C885 C888 1.363 . S
N886 C888 1.356 . S
N886 H898 0.984 . S
N886 H899 0.985 . S
N887 C889 1.356 . S
N887 H892 0.984 . S
N887 H893 0.985 . S
C888 C882 1.379 . S
C888 C885 1.363 . S
C888 N886 1.356 . S
C889 C883 1.363 . S
C889 C884 1.379 . S
C889 N887 1.356 . S
N890 C882 1.356 . S
N890 H896 0.984 . S
N890 H897 0.984 . S
N891 C884 1.356 . S
N891 H894 0.984 . S
N891 H895 0.985 . S
H892 N887 0.984 . S
H893 N887 0.985 . S
H894 N891 0.984 . S
H895 N891 0.985 . S
H896 N890 0.984 . S
H897 N890 0.984 . S
H898 N886 0.984 . S
H899 N886 0.985 . S
C900 C901 1.363 . S
C900 C906 1.379 . S
C900 N908 1.356 . S
C901 C900 1.363 . S
C901 C907 1.363 . S
C902 C903 1.363 . S
C902 C907 1.379 . S
C902 N909 1.356 . S
C903 C902 1.363 . S
C903 C906 1.363 . S
N904 C906 1.356 . S
N904 H916 0.984 . S
N904 H917 0.985 . S
N905 C907 1.356 . S
N905 H910 0.984 . S
N905 H911 0.985 . S
C906 C900 1.379 . S
C906 C903 1.363 . S
C906 N904 1.356 . S
C907 C901 1.363 . S
C907 C902 1.379 . S
C907 N905 1.356 . S
N908 C900 1.356 . S
N908 H914 0.984 . S
N908 H915 0.984 . S
N909 C902 1.356 . S
N909 H912 0.984 . S
N909 H913 0.985 . S
H910 N905 0.984 . S
H911 N905 0.985 . S
H912 N909 0.984 . S
H913 N909 0.985 . S
H914 N908 0.984 . S
H915 N908 0.984 . S
H916 N904 0.984 . S
H917 N904 0.985 . S
C918 C919 1.363 . S
C918 C924 1.379 . S
C918 N926 1.356 . S
C919 C918 1.363 . S
C919 C925 1.363 . S
C920 C921 1.363 . S
C920 C925 1.379 . S
C920 N927 1.356 . S
C921 C920 1.363 . S
C921 C924 1.363 . S
N922 C924 1.356 . S
N922 H934 0.984 . S
N922 H935 0.985 . S
N923 C925 1.356 . S
N923 H928 0.984 . S
N923 H929 0.985 . S
C924 C918 1.379 . S
C924 C921 1.363 . S
C924 N922 1.356 . S
C925 C919 1.363 . S
C925 C920 1.379 . S
C925 N923 1.356 . S
N926 C918 1.356 . S
N926 H932 0.984 . S
N926 H933 0.984 . S
N927 C920 1.356 . S
N927 H930 0.984 . S
N927 H931 0.985 . S
H928 N923 0.984 . S
H929 N923 0.985 . S
H930 N927 0.984 . S
H931 N927 0.985 . S
H932 N926 0.984 . S
H933 N926 0.984 . S
H934 N922 0.984 . S
H935 N922 0.985 . S
C936 C937 1.363 . S
C936 C942 1.379 . S
C936 N944 1.356 . S
C937 C936 1.363 . S
C937 C943 1.363 . S
C938 C939 1.363 . S
C938 C943 1.379 . S
C938 N945 1.356 . S
C939 C938 1.363 . S
C939 C942 1.363 . S
N940 C942 1.356 . S
N940 H952 0.984 . S
N940 H953 0.985 . S
N941 C943 1.356 . S
N941 H946 0.984 . S
N941 H947 0.985 . S
C942 C936 1.379 . S
C942 C939 1.363 . S
C942 N940 1.356 . S
C943 C937 1.363 . S
C943 C938 1.379 . S
C943 N941 1.356 . S
N944 C936 1.356 . S
N944 H950 0.984 . S
N944 H951 0.984 . S
N945 C938 1.356 . S
N945 H948 0.984 . S
N945 H949 0.985 . S
H946 N941 0.984 . S
H947 N941 0.985 . S
H948 N945 0.984 . S
H949 N945 0.985 . S
H950 N944 0.984 . S
H951 N944 0.984 . S
H952 N940 0.984 . S
H953 N940 0.985 . S
C954 C955 1.363 . S
C954 C960 1.379 . S
C954 N962 1.356 . S
C955 C954 1.363 . S
C955 C961 1.363 . S
C956 C957 1.363 . S
C956 C961 1.379 . S
C956 N963 1.356 . S
C957 C956 1.363 . S
C957 C960 1.363 . S
N958 C960 1.356 . S
N958 H970 0.984 . S
N958 H971 0.985 . S
N959 C961 1.356 . S
N959 H964 0.984 . S
N959 H965 0.985 . S
C960 C954 1.379 . S
C960 C957 1.363 . S
C960 N958 1.356 . S
C961 C955 1.363 . S
C961 C956 1.379 . S
C961 N959 1.356 . S
N962 C954 1.356 . S
N962 H968 0.984 . S
N962 H969 0.984 . S
N963 C956 1.356 . S
N963 H966 0.984 . S
N963 H967 0.985 . S
H964 N959 0.984 . S
H965 N959 0.985 . S
H966 N963 0.984 . S
H967 N963 0.985 . S
H968 N962 0.984 . S
H969 N962 0.984 . S
H970 N958 0.984 . S
H971 N958 0.985 . S
C972 C973 1.363 . S
C972 C978 1.379 . S
C972 N980 1.356 . S
C973 C972 1.363 . S
C973 C979 1.363 . S
C974 C975 1.363 . S
C974 C979 1.379 . S
C974 N981 1.356 . S
C975 C974 1.363 . S
C975 C978 1.363 . S
N976 C978 1.356 . S
N976 H988 0.984 . S
N976 H989 0.985 . S
N977 C979 1.356 . S
N977 H982 0.984 . S
N977 H983 0.985 . S
C978 C972 1.379 . S
C978 C975 1.363 . S
C978 N976 1.356 . S
C979 C973 1.363 . S
C979 C974 1.379 . S
C979 N977 1.356 . S
N980 C972 1.356 . S
N980 H986 0.984 . S
N980 H987 0.984 . S
N981 C974 1.356 . S
N981 H984 0.984 . S
N981 H985 0.985 . S
H982 N977 0.984 . S
H983 N977 0.985 . S
H984 N981 0.984 . S
H985 N981 0.985 . S
H986 N980 0.984 . S
H987 N980 0.984 . S
H988 N976 0.984 . S
H989 N976 0.985 . S
C990 C991 1.363 . S
C990 C996 1.379 . S
C990 N998 1.356 . S
C991 C990 1.363 . S
C991 C997 1.363 . S
C992 C993 1.363 . S
C992 C997 1.379 . S
C992 N999 1.356 . S
C993 C992 1.363 . S
C993 C996 1.363 . S
N994 C996 1.356 . S
N994 H1006 0.984 . S
N994 H1007 0.985 . S
N995 C997 1.356 . S
N995 H1000 0.984 . S
N995 H1001 0.985 . S
C996 C990 1.379 . S
C996 C993 1.363 . S
C996 N994 1.356 . S
C997 C991 1.363 . S
C997 C992 1.379 . S
C997 N995 1.356 . S
N998 C990 1.356 . S
N998 H1004 0.984 . S
N998 H1005 0.984 . S
N999 C992 1.356 . S
N999 H1002 0.984 . S
N999 H1003 0.985 . S
H1000 N995 0.984 . S
H1001 N995 0.985 . S
H1002 N999 0.984 . S
H1003 N999 0.985 . S
H1004 N998 0.984 . S
H1005 N998 0.984 . S
H1006 N994 0.984 . S
H1007 N994 0.985 . S
C1008 C1009 1.363 . S
C1008 C1014 1.379 . S
C1008 N1016 1.356 . S
C1009 C1008 1.363 . S
C1009 C1015 1.363 . S
C1010 C1011 1.363 . S
C1010 C1015 1.379 . S
C1010 N1017 1.356 . S
C1011 C1010 1.363 . S
C1011 C1014 1.363 . S
N1012 C1014 1.356 . S
N1012 H1024 0.984 . S
N1012 H1025 0.985 . S
N1013 C1015 1.356 . S
N1013 H1018 0.984 . S
N1013 H1019 0.985 . S
C1014 C1008 1.379 . S
C1014 C1011 1.363 . S
C1014 N1012 1.356 . S
C1015 C1009 1.363 . S
C1015 C1010 1.379 . S
C1015 N1013 1.356 . S
N1016 C1008 1.356 . S
N1016 H1022 0.984 . S
N1016 H1023 0.984 . S
N1017 C1010 1.356 . S
N1017 H1020 0.984 . S
N1017 H1021 0.985 . S
H1018 N1013 0.984 . S
H1019 N1013 0.985 . S
H1020 N1017 0.984 . S
H1021 N1017 0.985 . S
H1022 N1016 0.984 . S
H1023 N1016 0.984 . S
H1024 N1012 0.984 . S
H1025 N1012 0.985 . S
C1026 C1027 1.363 . S
C1026 C1032 1.379 . S
C1026 N1034 1.356 . S
C1027 C1026 1.363 . S
C1027 C1033 1.363 . S
C1028 C1029 1.363 . S
C1028 C1033 1.379 . S
C1028 N1035 1.356 . S
C1029 C1028 1.363 . S
C1029 C1032 1.363 . S
N1030 C1032 1.356 . S
N1030 H1042 0.984 . S
N1030 H1043 0.985 . S
N1031 C1033 1.356 . S
N1031 H1036 0.984 . S
N1031 H1037 0.985 . S
C1032 C1026 1.379 . S
C1032 C1029 1.363 . S
C1032 N1030 1.356 . S
C1033 C1027 1.363 . S
C1033 C1028 1.379 . S
C1033 N1031 1.356 . S
N1034 C1026 1.356 . S
N1034 H1040 0.984 . S
N1034 H1041 0.984 . S
N1035 C1028 1.356 . S
N1035 H1038 0.984 . S
N1035 H1039 0.985 . S
H1036 N1031 0.984 . S
H1037 N1031 0.985 . S
H1038 N1035 0.984 . S
H1039 N1035 0.985 . S
H1040 N1034 0.984 . S
H1041 N1034 0.984 . S
H1042 N1030 0.984 . S
H1043 N1030 0.985 . S
C1044 C1045 1.363 . S
C1044 C1050 1.379 . S
C1044 N1052 1.356 . S
C1045 C1044 1.363 . S
C1045 C1051 1.363 . S
C1046 C1047 1.363 . S
C1046 C1051 1.379 . S
C1046 N1053 1.356 . S
C1047 C1046 1.363 . S
C1047 C1050 1.363 . S
N1048 C1050 1.356 . S
N1048 H1060 0.984 . S
N1048 H1061 0.985 . S
N1049 C1051 1.356 . S
N1049 H1054 0.984 . S
N1049 H1055 0.985 . S
C1050 C1044 1.379 . S
C1050 C1047 1.363 . S
C1050 N1048 1.356 . S
C1051 C1045 1.363 . S
C1051 C1046 1.379 . S
C1051 N1049 1.356 . S
N1052 C1044 1.356 . S
N1052 H1058 0.984 . S
N1052 H1059 0.984 . S
N1053 C1046 1.356 . S
N1053 H1056 0.984 . S
N1053 H1057 0.985 . S
H1054 N1049 0.984 . S
H1055 N1049 0.985 . S
H1056 N1053 0.984 . S
H1057 N1053 0.985 . S
H1058 N1052 0.984 . S
H1059 N1052 0.984 . S
H1060 N1048 0.984 . S
H1061 N1048 0.985 . S
C1062 C1063 1.363 . S
C1062 C1068 1.379 . S
C1062 N1070 1.356 . S
C1063 C1062 1.363 . S
C1063 C1069 1.363 . S
C1064 C1065 1.363 . S
C1064 C1069 1.379 . S
C1064 N1071 1.356 . S
C1065 C1064 1.363 . S
C1065 C1068 1.363 . S
N1066 C1068 1.356 . S
N1066 H1078 0.984 . S
N1066 H1079 0.985 . S
N1067 C1069 1.356 . S
N1067 H1072 0.984 . S
N1067 H1073 0.985 . S
C1068 C1062 1.379 . S
C1068 C1065 1.363 . S
C1068 N1066 1.356 . S
C1069 C1063 1.363 . S
C1069 C1064 1.379 . S
C1069 N1067 1.356 . S
N1070 C1062 1.356 . S
N1070 H1076 0.984 . S
N1070 H1077 0.984 . S
N1071 C1064 1.356 . S
N1071 H1074 0.984 . S
N1071 H1075 0.985 . S
H1072 N1067 0.984 . S
H1073 N1067 0.985 . S
H1074 N1071 0.984 . S
H1075 N1071 0.985 . S
H1076 N1070 0.984 . S
H1077 N1070 0.984 . S
H1078 N1066 0.984 . S
H1079 N1066 0.985 . S
C1080 C1081 1.363 . S
C1080 C1086 1.379 . S
C1080 N1088 1.356 . S
C1081 C1080 1.363 . S
C1081 C1087 1.363 . S
C1082 C1083 1.363 . S
C1082 C1087 1.379 . S
C1082 N1089 1.356 . S
C1083 C1082 1.363 . S
C1083 C1086 1.363 . S
N1084 C1086 1.356 . S
N1084 H1096 0.984 . S
N1084 H1097 0.985 . S
N1085 C1087 1.356 . S
N1085 H1090 0.984 . S
N1085 H1091 0.985 . S
C1086 C1080 1.379 . S
C1086 C1083 1.363 . S
C1086 N1084 1.356 . S
C1087 C1081 1.363 . S
C1087 C1082 1.379 . S
C1087 N1085 1.356 . S
N1088 C1080 1.356 . S
N1088 H1094 0.984 . S
N1088 H1095 0.984 . S
N1089 C1082 1.356 . S
N1089 H1092 0.984 . S
N1089 H1093 0.985 . S
H1090 N1085 0.984 . S
H1091 N1085 0.985 . S
H1092 N1089 0.984 . S
H1093 N1089 0.985 . S
H1094 N1088 0.984 . S
H1095 N1088 0.984 . S
H1096 N1084 0.984 . S
H1097 N1084 0.985 . S
C1098 C1099 1.363 . S
C1098 C1104 1.379 . S
C1098 N1106 1.356 . S
C1099 C1098 1.363 . S
C1099 C1105 1.363 . S
C1100 C1101 1.363 . S
C1100 C1105 1.379 . S
C1100 N1107 1.356 . S
C1101 C1100 1.363 . S
C1101 C1104 1.363 . S
N1102 C1104 1.356 . S
N1102 H1114 0.984 . S
N1102 H1115 0.985 . S
N1103 C1105 1.356 . S
N1103 H1108 0.984 . S
N1103 H1109 0.985 . S
C1104 C1098 1.379 . S
C1104 C1101 1.363 . S
C1104 N1102 1.356 . S
C1105 C1099 1.363 . S
C1105 C1100 1.379 . S
C1105 N1103 1.356 . S
N1106 C1098 1.356 . S
N1106 H1112 0.984 . S
N1106 H1113 0.984 . S
N1107 C1100 1.356 . S
N1107 H1110 0.984 . S
N1107 H1111 0.985 . S
H1108 N1103 0.984 . S
H1109 N1103 0.985 . S
H1110 N1107 0.984 . S
H1111 N1107 0.985 . S
H1112 N1106 0.984 . S
H1113 N1106 0.984 . S
H1114 N1102 0.984 . S
H1115 N1102 0.985 . S
C1116 C1117 1.363 . S
C1116 C1122 1.379 . S
C1116 N1124 1.356 . S
C1117 C1116 1.363 . S
C1117 C1123 1.363 . S
C1118 C1119 1.363 . S
C1118 C1123 1.379 . S
C1118 N1125 1.356 . S
C1119 C1118 1.363 . S
C1119 C1122 1.363 . S
N1120 C1122 1.356 . S
N1120 H1132 0.984 . S
N1120 H1133 0.985 . S
N1121 C1123 1.356 . S
N1121 H1126 0.984 . S
N1121 H1127 0.985 . S
C1122 C1116 1.379 . S
C1122 C1119 1.363 . S
C1122 N1120 1.356 . S
C1123 C1117 1.363 . S
C1123 C1118 1.379 . S
C1123 N1121 1.356 . S
N1124 C1116 1.356 . S
N1124 H1130 0.984 . S
N1124 H1131 0.984 . S
N1125 C1118 1.356 . S
N1125 H1128 0.984 . S
N1125 H1129 0.985 . S
H1126 N1121 0.984 . S
H1127 N1121 0.985 . S
H1128 N1125 0.984 . S
H1129 N1125 0.985 . S
H1130 N1124 0.984 . S
H1131 N1124 0.984 . S
H1132 N1120 0.984 . S
H1133 N1120 0.985 . S
C1134 C1135 1.363 . S
C1134 C1140 1.379 . S
C1134 N1142 1.356 . S
C1135 C1134 1.363 . S
C1135 C1141 1.363 . S
C1136 C1137 1.363 . S
C1136 C1141 1.379 . S
C1136 N1143 1.356 . S
C1137 C1136 1.363 . S
C1137 C1140 1.363 . S
N1138 C1140 1.356 . S
N1138 H1150 0.984 . S
N1138 H1151 0.985 . S
N1139 C1141 1.356 . S
N1139 H1144 0.984 . S
N1139 H1145 0.985 . S
C1140 C1134 1.379 . S
C1140 C1137 1.363 . S
C1140 N1138 1.356 . S
C1141 C1135 1.363 . S
C1141 C1136 1.379 . S
C1141 N1139 1.356 . S
N1142 C1134 1.356 . S
N1142 H1148 0.984 . S
N1142 H1149 0.984 . S
N1143 C1136 1.356 . S
N1143 H1146 0.984 . S
N1143 H1147 0.985 . S
H1144 N1139 0.984 . S
H1145 N1139 0.985 . S
H1146 N1143 0.984 . S
H1147 N1143 0.985 . S
H1148 N1142 0.984 . S
H1149 N1142 0.984 . S
H1150 N1138 0.984 . S
H1151 N1138 0.985 . S
C1152 C1153 1.363 . S
C1152 C1158 1.379 . S
C1152 N1160 1.356 . S
C1153 C1152 1.363 . S
C1153 C1159 1.363 . S
C1154 C1155 1.363 . S
C1154 C1159 1.379 . S
C1154 N1161 1.356 . S
C1155 C1154 1.363 . S
C1155 C1158 1.363 . S
N1156 C1158 1.356 . S
N1156 H1168 0.984 . S
N1156 H1169 0.985 . S
N1157 C1159 1.356 . S
N1157 H1162 0.984 . S
N1157 H1163 0.985 . S
C1158 C1152 1.379 . S
C1158 C1155 1.363 . S
C1158 N1156 1.356 . S
C1159 C1153 1.363 . S
C1159 C1154 1.379 . S
C1159 N1157 1.356 . S
N1160 C1152 1.356 . S
N1160 H1166 0.984 . S
N1160 H1167 0.984 . S
N1161 C1154 1.356 . S
N1161 H1164 0.984 . S
N1161 H1165 0.985 . S
H1162 N1157 0.984 . S
H1163 N1157 0.985 . S
H1164 N1161 0.984 . S
H1165 N1161 0.985 . S
H1166 N1160 0.984 . S
H1167 N1160 0.984 . S
H1168 N1156 0.984 . S
H1169 N1156 0.985 . S
C1170 C1171 1.363 . S
C1170 C1176 1.379 . S
C1170 N1178 1.356 . S
C1171 C1170 1.363 . S
C1171 C1177 1.363 . S
C1172 C1173 1.363 . S
C1172 C1177 1.379 . S
C1172 N1179 1.356 . S
C1173 C1172 1.363 . S
C1173 C1176 1.363 . S
N1174 C1176 1.356 . S
N1174 H1186 0.984 . S
N1174 H1187 0.985 . S
N1175 C1177 1.356 . S
N1175 H1180 0.984 . S
N1175 H1181 0.985 . S
C1176 C1170 1.379 . S
C1176 C1173 1.363 . S
C1176 N1174 1.356 . S
C1177 C1171 1.363 . S
C1177 C1172 1.379 . S
C1177 N1175 1.356 . S
N1178 C1170 1.356 . S
N1178 H1184 0.984 . S
N1178 H1185 0.984 . S
N1179 C1172 1.356 . S
N1179 H1182 0.984 . S
N1179 H1183 0.985 . S
H1180 N1175 0.984 . S
H1181 N1175 0.985 . S
H1182 N1179 0.984 . S
H1183 N1179 0.985 . S
H1184 N1178 0.984 . S
H1185 N1178 0.984 . S
H1186 N1174 0.984 . S
H1187 N1174 0.985 . S
C1188 C1189 1.363 . S
C1188 C1194 1.379 . S
C1188 N1196 1.356 . S
C1189 C1188 1.363 . S
C1189 C1195 1.363 . S
C1190 C1191 1.363 . S
C1190 C1195 1.379 . S
C1190 N1197 1.356 . S
C1191 C1190 1.363 . S
C1191 C1194 1.363 . S
N1192 C1194 1.356 . S
N1192 H1204 0.984 . S
N1192 H1205 0.985 . S
N1193 C1195 1.356 . S
N1193 H1198 0.984 . S
N1193 H1199 0.985 . S
C1194 C1188 1.379 . S
C1194 C1191 1.363 . S
C1194 N1192 1.356 . S
C1195 C1189 1.363 . S
C1195 C1190 1.379 . S
C1195 N1193 1.356 . S
N1196 C1188 1.356 . S
N1196 H1202 0.984 . S
N1196 H1203 0.984 . S
N1197 C1190 1.356 . S
N1197 H1200 0.984 . S
N1197 H1201 0.985 . S
H1198 N1193 0.984 . S
H1199 N1193 0.985 . S
H1200 N1197 0.984 . S
H1201 N1197 0.985 . S
H1202 N1196 0.984 . S
H1203 N1196 0.984 . S
H1204 N1192 0.984 . S
H1205 N1192 0.985 . S
C1206 C1207 1.363 . S
C1206 C1212 1.379 . S
C1206 N1214 1.356 . S
C1207 C1206 1.363 . S
C1207 C1213 1.363 . S
C1208 C1209 1.363 . S
C1208 C1213 1.379 . S
C1208 N1215 1.356 . S
C1209 C1208 1.363 . S
C1209 C1212 1.363 . S
N1210 C1212 1.356 . S
N1210 H1222 0.984 . S
N1210 H1223 0.985 . S
N1211 C1213 1.356 . S
N1211 H1216 0.984 . S
N1211 H1217 0.985 . S
C1212 C1206 1.379 . S
C1212 C1209 1.363 . S
C1212 N1210 1.356 . S
C1213 C1207 1.363 . S
C1213 C1208 1.379 . S
C1213 N1211 1.356 . S
N1214 C1206 1.356 . S
N1214 H1220 0.984 . S
N1214 H1221 0.984 . S
N1215 C1208 1.356 . S
N1215 H1218 0.984 . S
N1215 H1219 0.985 . S
H1216 N1211 0.984 . S
H1217 N1211 0.985 . S
H1218 N1215 0.984 . S
H1219 N1215 0.985 . S
H1220 N1214 0.984 . S
H1221 N1214 0.984 . S
H1222 N1210 0.984 . S
H1223 N1210 0.985 . S
C1224 C1225 1.363 . S
C1224 C1230 1.379 . S
C1224 N1232 1.356 . S
C1225 C1224 1.363 . S
C1225 C1231 1.363 . S
C1226 C1227 1.363 . S
C1226 C1231 1.379 . S
C1226 N1233 1.356 . S
C1227 C1226 1.363 . S
C1227 C1230 1.363 . S
N1228 C1230 1.356 . S
N1228 H1240 0.984 . S
N1228 H1241 0.985 . S
N1229 C1231 1.356 . S
N1229 H1234 0.984 . S
N1229 H1235 0.985 . S
C1230 C1224 1.379 . S
C1230 C1227 1.363 . S
C1230 N1228 1.356 . S
C1231 C1225 1.363 . S
C1231 C1226 1.379 . S
C1231 N1229 1.356 . S
N1232 C1224 1.356 . S
N1232 H1238 0.984 . S
N1232 H1239 0.984 . S
N1233 C1226 1.356 . S
N1233 H1236 0.984 . S
N1233 H1237 0.985 . S
H1234 N1229 0.984 . S
H1235 N1229 0.985 . S
H1236 N1233 0.984 . S
H1237 N1233 0.985 . S
H1238 N1232 0.984 . S
H1239 N1232 0.984 . S
H1240 N1228 0.984 . S
H1241 N1228 0.985 . S
C1242 C1243 1.363 . S
C1242 C1248 1.379 . S
C1242 N1250 1.356 . S
C1243 C1242 1.363 . S
C1243 C1249 1.363 . S
C1244 C1245 1.363 . S
C1244 C1249 1.379 . S
C1244 N1251 1.356 . S
C1245 C1244 1.363 . S
C1245 C1248 1.363 . S
N1246 C1248 1.356 . S
N1246 H1258 0.984 . S
N1246 H1259 0.985 . S
N1247 C1249 1.356 . S
N1247 H1252 0.984 . S
N1247 H1253 0.985 . S
C1248 C1242 1.379 . S
C1248 C1245 1.363 . S
C1248 N1246 1.356 . S
C1249 C1243 1.363 . S
C1249 C1244 1.379 . S
C1249 N1247 1.356 . S
N1250 C1242 1.356 . S
N1250 H1256 0.984 . S
N1250 H1257 0.984 . S
N1251 C1244 1.356 . S
N1251 H1254 0.984 . S
N1251 H1255 0.985 . S
H1252 N1247 0.984 . S
H1253 N1247 0.985 . S
H1254 N1251 0.984 . S
H1255 N1251 0.985 . S
H1256 N1250 0.984 . S
H1257 N1250 0.984 . S
H1258 N1246 0.984 . S
H1259 N1246 0.985 . S
C1260 C1261 1.363 . S
C1260 C1266 1.379 . S
C1260 N1268 1.356 . S
C1261 C1260 1.363 . S
C1261 C1267 1.363 . S
C1262 C1263 1.363 . S
C1262 C1267 1.379 . S
C1262 N1269 1.356 . S
C1263 C1262 1.363 . S
C1263 C1266 1.363 . S
N1264 C1266 1.356 . S
N1264 H1276 0.984 . S
N1264 H1277 0.985 . S
N1265 C1267 1.356 . S
N1265 H1270 0.984 . S
N1265 H1271 0.985 . S
C1266 C1260 1.379 . S
C1266 C1263 1.363 . S
C1266 N1264 1.356 . S
C1267 C1261 1.363 . S
C1267 C1262 1.379 . S
C1267 N1265 1.356 . S
N1268 C1260 1.356 . S
N1268 H1274 0.984 . S
N1268 H1275 0.984 . S
N1269 C1262 1.356 . S
N1269 H1272 0.984 . S
N1269 H1273 0.985 . S
H1270 N1265 0.984 . S
H1271 N1265 0.985 . S
H1272 N1269 0.984 . S
H1273 N1269 0.985 . S
H1274 N1268 0.984 . S
H1275 N1268 0.984 . S
H1276 N1264 0.984 . S
H1277 N1264 0.985 . S
C1278 C1279 1.363 . S
C1278 C1284 1.379 . S
C1278 N1286 1.356 . S
C1279 C1278 1.363 . S
C1279 C1285 1.363 . S
C1280 C1281 1.363 . S
C1280 C1285 1.379 . S
C1280 N1287 1.356 . S
C1281 C1280 1.363 . S
C1281 C1284 1.363 . S
N1282 C1284 1.356 . S
N1282 H1294 0.984 . S
N1282 H1295 0.985 . S
N1283 C1285 1.356 1_554 S
N1283 H1288 0.984 . S
N1283 H1289 0.985 . S
C1284 C1278 1.379 . S
C1284 C1281 1.363 . S
C1284 N1282 1.356 . S
C1285 C1279 1.363 . S
C1285 C1280 1.379 . S
C1285 N1283 1.356 1_556 S
N1286 C1278 1.356 . S
N1286 H1292 0.984 . S
N1286 H1293 0.984 . S
N1287 C1280 1.356 . S
N1287 H1290 0.984 . S
N1287 H1291 0.985 . S
H1288 N1283 0.984 . S
H1289 N1283 0.985 . S
H1290 N1287 0.984 . S
H1291 N1287 0.985 . S
H1292 N1286 0.984 . S
H1293 N1286 0.984 . S
H1294 N1282 0.984 . S
H1295 N1282 0.985 . S
C1296 C1297 1.363 . S
C1296 C1302 1.379 . S
C1296 N1304 1.356 . S
C1297 C1296 1.363 . S
C1297 C1303 1.363 . S
C1298 C1299 1.363 . S
C1298 C1303 1.379 . S
C1298 N1305 1.356 . S
C1299 C1298 1.363 . S
C1299 C1302 1.363 . S
N1300 C1302 1.356 . S
N1300 H1312 0.984 . S
N1300 H1313 0.985 . S
N1301 C1303 1.356 . S
N1301 H1306 0.979 1_556 S
N1301 H1307 0.985 1_556 S
C1302 C1296 1.379 . S
C1302 C1299 1.363 . S
C1302 N1300 1.356 . S
C1303 C1297 1.363 . S
C1303 C1298 1.379 . S
C1303 N1301 1.356 . S
N1304 C1296 1.356 . S
N1304 H1310 0.984 . S
N1304 H1311 0.984 . S
N1305 C1298 1.356 . S
N1305 H1308 0.984 . S
N1305 H1309 0.985 . S
H1306 N1301 0.979 1_554 S
H1307 N1301 0.985 1_554 S
H1308 N1305 0.984 . S
H1309 N1305 0.985 . S
H1310 N1304 0.984 . S
H1311 N1304 0.984 . S
H1312 N1300 0.984 . S
H1313 N1300 0.985 . S
C1314 C1315 1.363 . S
C1314 C1320 1.379 . S
C1314 N1322 1.356 . S
C1315 C1314 1.363 . S
C1315 C1321 1.363 . S
C1316 C1317 1.363 . S
C1316 C1321 1.379 . S
C1316 N1323 1.356 . S
C1317 C1316 1.363 . S
C1317 C1320 1.363 . S
N1318 C1320 1.356 . S
N1318 H1330 0.984 . S
N1318 H1331 0.985 . S
N1319 C1321 1.356 . S
N1319 H1324 0.984 . S
N1319 H1325 0.985 . S
C1320 C1314 1.379 . S
C1320 C1317 1.363 . S
C1320 N1318 1.356 . S
C1321 C1315 1.363 . S
C1321 C1316 1.379 . S
C1321 N1319 1.356 . S
N1322 C1314 1.356 . S
N1322 H1328 0.984 . S
N1322 H1329 0.984 . S
N1323 C1316 1.356 . S
N1323 H1326 0.984 . S
N1323 H1327 0.985 . S
H1324 N1319 0.984 . S
H1325 N1319 0.985 . S
H1326 N1323 0.984 . S
H1327 N1323 0.985 . S
H1328 N1322 0.984 . S
H1329 N1322 0.984 . S
H1330 N1318 0.984 . S
H1331 N1318 0.985 . S
C1332 C1333 1.363 . S
C1332 C1338 1.379 . S
C1332 N1340 1.356 . S
C1333 C1332 1.363 . S
C1333 C1339 1.363 . S
C1334 C1335 1.363 . S
C1334 C1339 1.379 . S
C1334 N1341 1.356 . S
C1335 C1334 1.363 . S
C1335 C1338 1.363 . S
N1336 C1338 1.356 . S
N1336 H1348 0.984 . S
N1336 H1349 0.985 . S
N1337 C1339 1.356 1_554 S
N1337 H1342 0.984 . S
N1337 H1343 0.985 . S
C1338 C1332 1.379 . S
C1338 C1335 1.363 . S
C1338 N1336 1.356 . S
C1339 C1333 1.363 . S
C1339 C1334 1.379 . S
C1339 N1337 1.356 1_556 S
N1340 C1332 1.356 . S
N1340 H1346 0.984 . S
N1340 H1347 0.984 . S
N1341 C1334 1.356 . S
N1341 H1344 0.984 . S
N1341 H1345 0.985 . S
H1342 N1337 0.984 . S
H1343 N1337 0.985 . S
H1344 N1341 0.984 . S
H1345 N1341 0.985 . S
H1346 N1340 0.984 . S
H1347 N1340 0.984 . S
H1348 N1336 0.984 . S
H1349 N1336 0.985 . S
C1350 C1351 1.363 . S
C1350 C1356 1.379 . S
C1350 N1358 1.356 . S
C1351 C1350 1.363 . S
C1351 C1357 1.363 . S
C1352 C1353 1.363 . S
C1352 C1357 1.379 . S
C1352 N1359 1.356 . S
C1353 C1352 1.363 . S
C1353 C1356 1.363 . S
N1354 C1356 1.356 . S
N1354 H1366 0.984 . S
N1354 H1367 0.985 . S
N1355 C1357 1.356 1_554 S
N1355 H1360 0.984 . S
N1355 H1361 0.985 . S
C1356 C1350 1.379 . S
C1356 C1353 1.363 . S
C1356 N1354 1.356 . S
C1357 C1351 1.363 . S
C1357 C1352 1.379 . S
C1357 N1355 1.356 1_556 S
N1358 C1350 1.356 . S
N1358 H1364 0.984 . S
N1358 H1365 0.984 . S
N1359 C1352 1.356 . S
N1359 H1362 0.984 . S
N1359 H1363 0.985 . S
H1360 N1355 0.984 . S
H1361 N1355 0.985 . S
H1362 N1359 0.984 . S
H1363 N1359 0.985 . S
H1364 N1358 0.984 . S
H1365 N1358 0.984 . S
H1366 N1354 0.984 . S
H1367 N1354 0.985 . S
C1368 C1369 1.363 . S
C1368 C1374 1.379 . S
C1368 N1376 1.356 . S
C1369 C1368 1.363 . S
C1369 C1375 1.363 . S
C1370 C1371 1.363 . S
C1370 C1375 1.379 . S
C1370 N1377 1.356 . S
C1371 C1370 1.363 . S
C1371 C1374 1.363 . S
N1372 C1374 1.356 . S
N1372 H1384 0.984 . S
N1372 H1385 0.985 . S
N1373 C1375 1.356 . S
N1373 H1378 0.984 . S
N1373 H1379 0.985 1_556 S
C1374 C1368 1.379 . S
C1374 C1371 1.363 . S
C1374 N1372 1.356 . S
C1375 C1369 1.363 . S
C1375 C1370 1.379 . S
C1375 N1373 1.356 . S
N1376 C1368 1.356 . S
N1376 H1382 0.984 . S
N1376 H1383 0.984 . S
N1377 C1370 1.356 . S
N1377 H1380 0.984 . S
N1377 H1381 0.985 . S
H1378 N1373 0.984 . S
H1379 N1373 0.985 1_554 S
H1380 N1377 0.984 . S
H1381 N1377 0.985 . S
H1382 N1376 0.984 . S
H1383 N1376 0.984 . S
H1384 N1372 0.984 . S
H1385 N1372 0.985 . S
C1386 C1387 1.363 . S
C1386 C1392 1.379 . S
C1386 N1394 1.356 . S
C1387 C1386 1.363 . S
C1387 C1393 1.363 . S
C1388 C1389 1.363 . S
C1388 C1393 1.379 . S
C1388 N1395 1.356 . S
C1389 C1388 1.363 . S
C1389 C1392 1.363 . S
N1390 C1392 1.356 . S
N1390 H1402 0.984 . S
N1390 H1403 0.985 . S
N1391 C1393 1.356 . S
N1391 H1396 0.984 . S
N1391 H1397 0.985 . S
C1392 C1386 1.379 . S
C1392 C1389 1.363 . S
C1392 N1390 1.356 . S
C1393 C1387 1.363 . S
C1393 C1388 1.379 . S
C1393 N1391 1.356 . S
N1394 C1386 1.356 . S
N1394 H1400 0.984 . S
N1394 H1401 0.984 . S
N1395 C1388 1.356 . S
N1395 H1398 0.984 . S
N1395 H1399 0.985 . S
H1396 N1391 0.984 . S
H1397 N1391 0.985 . S
H1398 N1395 0.984 . S
H1399 N1395 0.985 . S
H1400 N1394 0.984 . S
H1401 N1394 0.984 . S
H1402 N1390 0.984 . S
H1403 N1390 0.985 . S
C1404 C1405 1.363 . S
C1404 C1410 1.379 . S
C1404 N1412 1.356 . S
C1405 C1404 1.363 . S
C1405 C1411 1.363 . S
C1406 C1407 1.363 . S
C1406 C1411 1.379 . S
C1406 N1413 1.356 . S
C1407 C1406 1.363 . S
C1407 C1410 1.363 . S
N1408 C1410 1.356 . S
N1408 H1420 0.984 . S
N1408 H1421 0.985 . S
N1409 C1411 1.356 . S
N1409 H1414 0.984 . S
N1409 H1415 0.985 . S
C1410 C1404 1.379 . S
C1410 C1407 1.363 . S
C1410 N1408 1.356 . S
C1411 C1405 1.363 . S
C1411 C1406 1.379 . S
C1411 N1409 1.356 . S
N1412 C1404 1.356 . S
N1412 H1418 0.984 . S
N1412 H1419 0.984 . S
N1413 C1406 1.356 . S
N1413 H1416 0.984 . S
N1413 H1417 0.985 . S
H1414 N1409 0.984 . S
H1415 N1409 0.985 . S
H1416 N1413 0.984 . S
H1417 N1413 0.985 . S
H1418 N1412 0.984 . S
H1419 N1412 0.984 . S
H1420 N1408 0.984 . S
H1421 N1408 0.985 . S
C1422 C1423 1.363 . S
C1422 C1428 1.379 . S
C1422 N1430 1.356 . S
C1423 C1422 1.363 . S
C1423 C1429 1.363 . S
C1424 C1425 1.363 . S
C1424 C1429 1.379 . S
C1424 N1431 1.356 . S
C1425 C1424 1.363 . S
C1425 C1428 1.363 . S
N1426 C1428 1.356 . S
N1426 H1438 0.984 . S
N1426 H1439 0.985 . S
N1427 C1429 1.356 . S
N1427 H1432 0.984 . S
N1427 H1433 0.985 . S
C1428 C1422 1.379 . S
C1428 C1425 1.363 . S
C1428 N1426 1.356 . S
C1429 C1423 1.363 . S
C1429 C1424 1.379 . S
C1429 N1427 1.356 . S
N1430 C1422 1.356 . S
N1430 H1436 0.984 . S
N1430 H1437 0.984 . S
N1431 C1424 1.356 . S
N1431 H1434 0.984 . S
N1431 H1435 0.985 . S
H1432 N1427 0.984 . S
H1433 N1427 0.985 . S
H1434 N1431 0.984 . S
H1435 N1431 0.985 . S
H1436 N1430 0.984 . S
H1437 N1430 0.984 . S
H1438 N1426 0.984 . S
H1439 N1426 0.985 . S
C1440 C1441 1.363 . S
C1440 C1446 1.379 . S
C1440 N1448 1.356 . S
C1441 C1440 1.363 . S
C1441 C1447 1.363 . S
C1442 C1443 1.363 . S
C1442 C1447 1.379 . S
C1442 N1449 1.356 . S
C1443 C1442 1.363 . S
C1443 C1446 1.363 . S
N1444 C1446 1.356 . S
N1444 H1456 0.984 . S
N1444 H1457 0.985 . S
N1445 C1447 1.356 . S
N1445 H1450 0.984 . S
N1445 H1451 0.985 . S
C1446 C1440 1.379 . S
C1446 C1443 1.363 . S
C1446 N1444 1.356 . S
C1447 C1441 1.363 . S
C1447 C1442 1.379 . S
C1447 N1445 1.356 . S
N1448 C1440 1.356 . S
N1448 H1454 0.984 . S
N1448 H1455 0.984 . S
N1449 C1442 1.356 . S
N1449 H1452 0.984 . S
N1449 H1453 0.985 . S
H1450 N1445 0.984 . S
H1451 N1445 0.985 . S
H1452 N1449 0.984 . S
H1453 N1449 0.985 . S
H1454 N1448 0.984 . S
H1455 N1448 0.984 . S
H1456 N1444 0.984 . S
H1457 N1444 0.985 . S
C1458 C1459 1.363 . S
C1458 C1464 1.379 . S
C1458 N1466 1.356 . S
C1459 C1458 1.363 . S
C1459 C1465 1.363 . S
C1460 C1461 1.363 . S
C1460 C1465 1.379 . S
C1460 N1467 1.356 . S
C1461 C1460 1.363 . S
C1461 C1464 1.363 . S
N1462 C1464 1.356 . S
N1462 H1474 0.984 . S
N1462 H1475 0.985 . S
N1463 C1465 1.356 . S
N1463 H1468 0.984 . S
N1463 H1469 0.985 . S
C1464 C1458 1.379 . S
C1464 C1461 1.363 . S
C1464 N1462 1.356 . S
C1465 C1459 1.363 . S
C1465 C1460 1.379 . S
C1465 N1463 1.356 . S
N1466 C1458 1.356 . S
N1466 H1472 0.984 . S
N1466 H1473 0.984 . S
N1467 C1460 1.356 . S
N1467 H1470 0.984 . S
N1467 H1471 0.985 . S
H1468 N1463 0.984 . S
H1469 N1463 0.985 . S
H1470 N1467 0.984 . S
H1471 N1467 0.985 . S
H1472 N1466 0.984 . S
H1473 N1466 0.984 . S
H1474 N1462 0.984 . S
H1475 N1462 0.985 . S
C1476 C1477 1.363 . S
C1476 C1482 1.379 . S
C1476 N1484 1.356 . S
C1477 C1476 1.363 . S
C1477 C1483 1.363 . S
C1478 C1479 1.363 . S
C1478 C1483 1.379 . S
C1478 N1485 1.356 . S
C1479 C1478 1.363 . S
C1479 C1482 1.363 . S
N1480 C1482 1.356 . S
N1480 H1492 0.984 . S
N1480 H1493 0.985 . S
N1481 C1483 1.356 . S
N1481 H1486 0.984 . S
N1481 H1487 0.985 . S
C1482 C1476 1.379 . S
C1482 C1479 1.363 . S
C1482 N1480 1.356 . S
C1483 C1477 1.363 . S
C1483 C1478 1.379 . S
C1483 N1481 1.356 . S
N1484 C1476 1.356 . S
N1484 H1490 0.984 . S
N1484 H1491 0.984 . S
N1485 C1478 1.356 . S
N1485 H1488 0.984 . S
N1485 H1489 0.985 . S
H1486 N1481 0.984 . S
H1487 N1481 0.985 . S
H1488 N1485 0.984 . S
H1489 N1485 0.985 . S
H1490 N1484 0.984 . S
H1491 N1484 0.984 . S
H1492 N1480 0.984 . S
H1493 N1480 0.985 . S
C1494 C1495 1.363 . S
C1494 C1500 1.387 . S
C1494 N1502 1.356 1_455 S
C1495 C1494 1.363 . S
C1495 C1501 1.363 . S
C1496 C1497 1.363 . S
C1496 C1501 1.379 . S
C1496 N1503 1.356 . S
C1497 C1496 1.363 . S
C1497 C1500 1.366 . S
N1498 C1500 1.345 1_655 S
N1498 H1510 0.984 . S
N1498 H1511 0.985 . S
N1499 C1501 1.356 . S
N1499 H1504 0.984 . S
N1499 H1505 0.985 . S
C1500 C1494 1.387 . S
C1500 C1497 1.366 . S
C1500 N1498 1.345 1_455 S
C1501 C1495 1.363 . S
C1501 C1496 1.379 . S
C1501 N1499 1.356 . S
N1502 C1494 1.356 1_655 S
N1502 H1508 0.984 . S
N1502 H1509 0.984 . S
N1503 C1496 1.356 . S
N1503 H1506 0.984 . S
N1503 H1507 0.985 . S
H1504 N1499 0.984 . S
H1505 N1499 0.985 . S
H1506 N1503 0.984 . S
H1507 N1503 0.985 . S
H1508 N1502 0.984 . S
H1509 N1502 0.984 . S
H1510 N1498 0.984 . S
H1511 N1498 0.985 . S
C1512 C1513 1.363 . S
C1512 C1518 1.379 . S
C1512 N1520 1.356 . S
C1513 C1512 1.363 . S
C1513 C1519 1.363 . S
C1514 C1515 1.363 . S
C1514 C1519 1.379 . S
C1514 N1521 1.356 . S
C1515 C1514 1.363 . S
C1515 C1518 1.363 . S
N1516 C1518 1.356 . S
N1516 H1528 0.984 . S
N1516 H1529 0.985 . S
N1517 C1519 1.356 . S
N1517 H1522 0.984 . S
N1517 H1523 0.985 . S
C1518 C1512 1.379 . S
C1518 C1515 1.363 . S
C1518 N1516 1.356 . S
C1519 C1513 1.363 . S
C1519 C1514 1.379 . S
C1519 N1517 1.356 . S
N1520 C1512 1.356 . S
N1520 H1526 0.984 . S
N1520 H1527 0.984 . S
N1521 C1514 1.356 . S
N1521 H1524 0.984 . S
N1521 H1525 0.985 . S
H1522 N1517 0.984 . S
H1523 N1517 0.985 . S
H1524 N1521 0.984 . S
H1525 N1521 0.985 . S
H1526 N1520 0.984 . S
H1527 N1520 0.984 . S
H1528 N1516 0.984 . S
H1529 N1516 0.985 . S
C1530 C1531 1.363 1_545 S
C1530 C1536 1.379 . S
C1530 N1538 1.356 . S
C1531 C1530 1.363 1_565 S
C1531 C1537 1.363 . S
C1532 C1533 1.363 . S
C1532 C1537 1.379 . S
C1532 N1539 1.356 . S
C1533 C1532 1.363 . S
C1533 C1536 1.363 1_565 S
N1534 C1536 1.356 . S
N1534 H1546 0.984 . S
N1534 H1547 0.985 . S
N1535 C1537 1.356 . S
N1535 H1540 0.984 . S
N1535 H1541 0.985 . S
C1536 C1530 1.379 . S
C1536 C1533 1.363 1_545 S
C1536 N1534 1.356 . S
C1537 C1531 1.363 . S
C1537 C1532 1.379 . S
C1537 N1535 1.356 . S
N1538 C1530 1.356 . S
N1538 H1544 0.984 . S
N1538 H1545 0.984 . S
N1539 C1532 1.356 . S
N1539 H1542 0.984 . S
N1539 H1543 0.985 . S
H1540 N1535 0.984 . S
H1541 N1535 0.985 . S
H1542 N1539 0.984 . S
H1543 N1539 0.985 . S
H1544 N1538 0.984 . S
H1545 N1538 0.984 . S
H1546 N1534 0.984 . S
H1547 N1534 0.985 . S
C1548 C1549 1.363 1_545 S
C1548 C1554 1.379 . S
C1548 N1556 1.356 . S
C1549 C1548 1.363 1_565 S
C1549 C1555 1.363 . S
C1550 C1551 1.363 . S
C1550 C1555 1.379 . S
C1550 N1557 1.356 . S
C1551 C1550 1.363 . S
C1551 C1554 1.363 1_565 S
N1552 C1554 1.356 . S
N1552 H1564 0.984 . S
N1552 H1565 0.985 . S
N1553 C1555 1.356 . S
N1553 H1558 0.984 . S
N1553 H1559 0.985 . S
C1554 C1548 1.379 . S
C1554 C1551 1.363 1_545 S
C1554 N1552 1.356 . S
C1555 C1549 1.363 . S
C1555 C1550 1.379 . S
C1555 N1553 1.356 . S
N1556 C1548 1.356 . S
N1556 H1562 0.984 . S
N1556 H1563 0.984 . S
N1557 C1550 1.356 . S
N1557 H1560 0.984 . S
N1557 H1561 0.985 . S
H1558 N1553 0.984 . S
H1559 N1553 0.985 . S
H1560 N1557 0.984 . S
H1561 N1557 0.985 . S
H1562 N1556 0.984 . S
H1563 N1556 0.984 . S
H1564 N1552 0.984 . S
H1565 N1552 0.985 . S
C1566 C1567 1.363 . S
C1566 C1572 1.379 . S
C1566 N1574 1.356 . S
C1567 C1566 1.363 . S
C1567 C1573 1.363 . S
C1568 C1569 1.344 1_655 S
C1568 C1573 1.393 1_655 S
C1568 N1575 1.356 . S
C1569 C1568 1.344 1_455 S
C1569 C1572 1.363 . S
N1570 C1572 1.356 . S
N1570 H1582 0.984 . S
N1570 H1583 0.985 . S
N1571 C1573 1.356 . S
N1571 H1576 0.984 . S
N1571 H1577 0.985 1_455 S
C1572 C1566 1.379 . S
C1572 C1569 1.363 . S
C1572 N1570 1.356 . S
C1573 C1567 1.363 . S
C1573 C1568 1.393 1_455 S
C1573 N1571 1.356 . S
N1574 C1566 1.356 . S
N1574 H1580 0.984 . S
N1574 H1581 0.984 . S
N1575 C1568 1.356 . S
N1575 H1578 0.984 . S
N1575 H1579 0.985 . S
H1576 N1571 0.984 . S
H1577 N1571 0.985 1_655 S
H1578 N1575 0.984 . S
H1579 N1575 0.985 . S
H1580 N1574 0.984 . S
H1581 N1574 0.984 . S
H1582 N1570 0.984 . S
H1583 N1570 0.985 . S
C1584 C1585 1.363 . S
C1584 C1590 1.379 . S
C1584 N1592 1.356 . S
C1585 C1584 1.363 . S
C1585 C1591 1.363 . S
C1586 C1587 1.363 . S
C1586 C1591 1.379 . S
C1586 N1593 1.356 . S
C1587 C1586 1.363 . S
C1587 C1590 1.363 . S
N1588 C1590 1.356 . S
N1588 H1600 0.984 . S
N1588 H1601 0.985 . S
N1589 C1591 1.356 . S
N1589 H1594 0.984 . S
N1589 H1595 0.985 . S
C1590 C1584 1.379 . S
C1590 C1587 1.363 . S
C1590 N1588 1.356 . S
C1591 C1585 1.363 . S
C1591 C1586 1.379 . S
C1591 N1589 1.356 . S
N1592 C1584 1.356 . S
N1592 H1598 0.984 . S
N1592 H1599 0.984 . S
N1593 C1586 1.356 . S
N1593 H1596 0.984 . S
N1593 H1597 0.985 . S
H1594 N1589 0.984 . S
H1595 N1589 0.985 . S
H1596 N1593 0.984 . S
H1597 N1593 0.985 . S
H1598 N1592 0.984 . S
H1599 N1592 0.984 . S
H1600 N1588 0.984 . S
H1601 N1588 0.985 . S
C1602 C1603 1.363 . S
C1602 C1608 1.379 . S
C1602 N1610 1.356 . S
C1603 C1602 1.363 . S
C1603 C1609 1.363 . S
C1604 C1605 1.363 . S
C1604 C1609 1.379 . S
C1604 N1611 1.356 . S
C1605 C1604 1.363 . S
C1605 C1608 1.363 . S
N1606 C1608 1.356 . S
N1606 H1618 0.984 . S
N1606 H1619 0.985 . S
N1607 C1609 1.356 . S
N1607 H1612 0.984 . S
N1607 H1613 0.985 . S
C1608 C1602 1.379 . S
C1608 C1605 1.363 . S
C1608 N1606 1.356 . S
C1609 C1603 1.363 . S
C1609 C1604 1.379 . S
C1609 N1607 1.356 . S
N1610 C1602 1.356 . S
N1610 H1616 0.984 . S
N1610 H1617 0.984 . S
N1611 C1604 1.356 . S
N1611 H1614 0.984 . S
N1611 H1615 0.985 . S
H1612 N1607 0.984 . S
H1613 N1607 0.985 . S
H1614 N1611 0.984 . S
H1615 N1611 0.985 . S
H1616 N1610 0.984 . S
H1617 N1610 0.984 . S
H1618 N1606 0.984 . S
H1619 N1606 0.985 . S
C1620 C1621 1.363 . S
C1620 C1626 1.379 . S
C1620 N1628 1.356 . S
C1621 C1620 1.363 . S
C1621 C1627 1.363 . S
C1622 C1623 1.363 . S
C1622 C1627 1.379 . S
C1622 N1629 1.356 . S
C1623 C1622 1.363 . S
C1623 C1626 1.363 . S
N1624 C1626 1.356 . S
N1624 H1636 0.984 . S
N1624 H1637 0.985 . S
N1625 C1627 1.356 . S
N1625 H1630 0.984 . S
N1625 H1631 0.985 . S
C1626 C1620 1.379 . S
C1626 C1623 1.363 . S
C1626 N1624 1.356 . S
C1627 C1621 1.363 . S
C1627 C1622 1.379 . S
C1627 N1625 1.356 . S
N1628 C1620 1.356 . S
N1628 H1634 0.984 . S
N1628 H1635 0.984 . S
N1629 C1622 1.356 . S
N1629 H1632 0.984 . S
N1629 H1633 0.985 . S
H1630 N1625 0.984 . S
H1631 N1625 0.985 . S
H1632 N1629 0.984 . S
H1633 N1629 0.985 . S
H1634 N1628 0.984 . S
H1635 N1628 0.984 . S
H1636 N1624 0.984 . S
H1637 N1624 0.985 . S
C1638 C1639 1.363 . S
C1638 C1644 1.379 . S
C1638 N1646 1.356 . S
C1639 C1638 1.363 . S
C1639 C1645 1.363 . S
C1640 C1641 1.363 . S
C1640 C1645 1.379 . S
C1640 N1647 1.356 . S
C1641 C1640 1.363 . S
C1641 C1644 1.363 . S
N1642 C1644 1.356 . S
N1642 H1654 0.984 . S
N1642 H1655 0.985 . S
N1643 C1645 1.356 . S
N1643 H1648 0.984 . S
N1643 H1649 0.985 . S
C1644 C1638 1.379 . S
C1644 C1641 1.363 . S
C1644 N1642 1.356 . S
C1645 C1639 1.363 . S
C1645 C1640 1.379 . S
C1645 N1643 1.356 . S
N1646 C1638 1.356 . S
N1646 H1652 0.984 . S
N1646 H1653 0.984 . S
N1647 C1640 1.356 . S
N1647 H1650 0.984 . S
N1647 H1651 0.985 . S
H1648 N1643 0.984 . S
H1649 N1643 0.985 . S
H1650 N1647 0.984 . S
H1651 N1647 0.985 . S
H1652 N1646 0.984 . S
H1653 N1646 0.984 . S
H1654 N1642 0.984 . S
H1655 N1642 0.985 . S
C1656 C1657 1.363 . S
C1656 C1662 1.379 . S
C1656 N1664 1.356 . S
C1657 C1656 1.363 . S
C1657 C1663 1.363 1_545 S
C1658 C1659 1.363 1_565 S
C1658 C1663 1.379 . S
C1658 N1665 1.356 . S
C1659 C1658 1.363 1_545 S
C1659 C1662 1.363 . S
N1660 C1662 1.356 . S
N1660 H1672 0.984 . S
N1660 H1673 0.985 . S
N1661 C1663 1.356 . S
N1661 H1666 0.984 . S
N1661 H1667 0.985 . S
C1662 C1656 1.379 . S
C1662 C1659 1.363 . S
C1662 N1660 1.356 . S
C1663 C1657 1.363 1_565 S
C1663 C1658 1.379 . S
C1663 N1661 1.356 . S
N1664 C1656 1.356 . S
N1664 H1670 0.984 . S
N1664 H1671 0.984 . S
N1665 C1658 1.356 . S
N1665 H1668 0.984 . S
N1665 H1669 0.985 . S
H1666 N1661 0.984 . S
H1667 N1661 0.985 . S
H1668 N1665 0.984 . S
H1669 N1665 0.985 . S
H1670 N1664 0.984 . S
H1671 N1664 0.984 . S
H1672 N1660 0.984 . S
H1673 N1660 0.985 . S
C1674 C1675 1.363 . S
C1674 C1680 1.379 . S
C1674 N1682 1.356 . S
C1675 C1674 1.363 . S
C1675 C1681 1.363 1_655 S
C1676 C1677 1.363 1_455 S
C1676 C1681 1.379 . S
C1676 N1683 1.356 . S
C1677 C1676 1.363 1_655 S
C1677 C1680 1.363 . S
N1678 C1680 1.356 . S
N1678 H1690 0.984 . S
N1678 H1691 0.985 . S
N1679 C1681 1.356 . S
N1679 H1684 0.984 . S
N1679 H1685 0.985 . S
C1680 C1674 1.379 . S
C1680 C1677 1.363 . S
C1680 N1678 1.356 . S
C1681 C1675 1.363 1_455 S
C1681 C1676 1.379 . S
C1681 N1679 1.356 . S
N1682 C1674 1.356 . S
N1682 H1688 0.984 . S
N1682 H1689 0.984 . S
N1683 C1676 1.356 . S
N1683 H1686 0.984 . S
N1683 H1687 0.985 . S
H1684 N1679 0.984 . S
H1685 N1679 0.985 . S
H1686 N1683 0.984 . S
H1687 N1683 0.985 . S
H1688 N1682 0.984 . S
H1689 N1682 0.984 . S
H1690 N1678 0.984 . S
H1691 N1678 0.985 . S
C1692 C1693 1.363 . S
C1692 C1698 1.379 . S
C1692 N1700 1.356 . S
C1693 C1692 1.363 . S
C1693 C1699 1.363 . S
C1694 C1695 1.363 . S
C1694 C1699 1.379 . S
C1694 N1701 1.356 . S
C1695 C1694 1.363 . S
C1695 C1698 1.363 . S
N1696 C1698 1.356 . S
N1696 H1708 0.984 . S
N1696 H1709 0.985 . S
N1697 C1699 1.356 . S
N1697 H1702 0.984 . S
N1697 H1703 0.985 . S
C1698 C1692 1.379 . S
C1698 C1695 1.363 . S
C1698 N1696 1.356 . S
C1699 C1693 1.363 . S
C1699 C1694 1.379 . S
C1699 N1697 1.356 . S
N1700 C1692 1.356 . S
N1700 H1706 0.984 . S
N1700 H1707 0.984 . S
N1701 C1694 1.356 . S
N1701 H1704 0.984 . S
N1701 H1705 0.985 . S
H1702 N1697 0.984 . S
H1703 N1697 0.985 . S
H1704 N1701 0.984 . S
H1705 N1701 0.985 . S
H1706 N1700 0.984 . S
H1707 N1700 0.984 . S
H1708 N1696 0.984 . S
H1709 N1696 0.985 . S
C1710 C1711 1.363 . S
C1710 C1716 1.379 . S
C1710 N1718 1.356 . S
C1711 C1710 1.363 . S
C1711 C1717 1.363 . S
C1712 C1713 1.363 . S
C1712 C1717 1.379 . S
C1712 N1719 1.356 . S
C1713 C1712 1.363 . S
C1713 C1716 1.363 . S
N1714 C1716 1.356 . S
N1714 H1726 0.984 . S
N1714 H1727 0.985 . S
N1715 C1717 1.356 . S
N1715 H1720 0.984 . S
N1715 H1721 0.985 . S
C1716 C1710 1.379 . S
C1716 C1713 1.363 . S
C1716 N1714 1.356 . S
C1717 C1711 1.363 . S
C1717 C1712 1.379 . S
C1717 N1715 1.356 . S
N1718 C1710 1.356 . S
N1718 H1724 0.984 . S
N1718 H1725 0.984 . S
N1719 C1712 1.356 . S
N1719 H1722 0.984 . S
N1719 H1723 0.985 . S
H1720 N1715 0.984 . S
H1721 N1715 0.985 . S
H1722 N1719 0.984 . S
H1723 N1719 0.985 . S
H1724 N1718 0.984 . S
H1725 N1718 0.984 . S
H1726 N1714 0.984 . S
H1727 N1714 0.985 . S
C1728 C1729 1.363 . S
C1728 C1734 1.379 . S
C1728 N1736 1.356 . S
C1729 C1728 1.363 . S
C1729 C1735 1.363 . S
C1730 C1731 1.363 . S
C1730 C1735 1.379 . S
C1730 N1737 1.356 . S
C1731 C1730 1.363 . S
C1731 C1734 1.363 . S
N1732 C1734 1.356 . S
N1732 H1744 0.984 . S
N1732 H1745 0.985 . S
N1733 C1735 1.356 . S
N1733 H1738 0.984 . S
N1733 H1739 0.985 . S
C1734 C1728 1.379 . S
C1734 C1731 1.363 . S
C1734 N1732 1.356 . S
C1735 C1729 1.363 . S
C1735 C1730 1.379 . S
C1735 N1733 1.356 . S
N1736 C1728 1.356 . S
N1736 H1742 0.984 . S
N1736 H1743 0.984 . S
N1737 C1730 1.356 . S
N1737 H1740 0.984 . S
N1737 H1741 0.985 . S
H1738 N1733 0.984 . S
H1739 N1733 0.985 . S
H1740 N1737 0.984 . S
H1741 N1737 0.985 . S
H1742 N1736 0.984 . S
H1743 N1736 0.984 . S
H1744 N1732 0.984 . S
H1745 N1732 0.985 . S
C1746 C1747 1.363 . S
C1746 C1752 1.379 . S
C1746 N1754 1.356 . S
C1747 C1746 1.363 . S
C1747 C1753 1.363 . S
C1748 C1749 1.363 . S
C1748 C1753 1.379 . S
C1748 N1755 1.356 . S
C1749 C1748 1.363 . S
C1749 C1752 1.363 . S
N1750 C1752 1.356 . S
N1750 H1762 0.984 . S
N1750 H1763 0.985 . S
N1751 C1753 1.356 . S
N1751 H1756 0.984 . S
N1751 H1757 0.985 . S
C1752 C1746 1.379 . S
C1752 C1749 1.363 . S
C1752 N1750 1.356 . S
C1753 C1747 1.363 . S
C1753 C1748 1.379 . S
C1753 N1751 1.356 . S
N1754 C1746 1.356 . S
N1754 H1760 0.984 . S
N1754 H1761 0.984 . S
N1755 C1748 1.356 . S
N1755 H1758 0.984 . S
N1755 H1759 0.985 . S
H1756 N1751 0.984 . S
H1757 N1751 0.985 . S
H1758 N1755 0.984 . S
H1759 N1755 0.985 . S
H1760 N1754 0.984 . S
H1761 N1754 0.984 . S
H1762 N1750 0.984 . S
H1763 N1750 0.985 . S
C1764 C1765 1.363 . S
C1764 C1770 1.379 . S
C1764 N1772 1.356 . S
C1765 C1764 1.363 . S
C1765 C1771 1.363 . S
C1766 C1767 1.363 . S
C1766 C1771 1.379 . S
C1766 N1773 1.356 . S
C1767 C1766 1.363 . S
C1767 C1770 1.363 . S
N1768 C1770 1.356 . S
N1768 H1780 0.984 . S
N1768 H1781 0.985 . S
N1769 C1771 1.356 . S
N1769 H1774 0.984 . S
N1769 H1775 0.985 . S
C1770 C1764 1.379 . S
C1770 C1767 1.363 . S
C1770 N1768 1.356 . S
C1771 C1765 1.363 . S
C1771 C1766 1.379 . S
C1771 N1769 1.356 . S
N1772 C1764 1.356 . S
N1772 H1778 0.984 . S
N1772 H1779 0.984 . S
N1773 C1766 1.356 . S
N1773 H1776 0.984 . S
N1773 H1777 0.985 . S
H1774 N1769 0.984 . S
H1775 N1769 0.985 . S
H1776 N1773 0.984 . S
H1777 N1773 0.985 . S
H1778 N1772 0.984 . S
H1779 N1772 0.984 . S
H1780 N1768 0.984 . S
H1781 N1768 0.985 . S
C1782 C1783 1.363 . S
C1782 C1788 1.379 . S
C1782 N1790 1.356 . S
C1783 C1782 1.363 . S
C1783 C1789 1.363 . S
C1784 C1785 1.363 . S
C1784 C1789 1.379 . S
C1784 N1791 1.356 . S
C1785 C1784 1.363 . S
C1785 C1788 1.363 . S
N1786 C1788 1.356 . S
N1786 H1798 0.984 . S
N1786 H1799 0.985 . S
N1787 C1789 1.356 . S
N1787 H1792 0.984 . S
N1787 H1793 0.985 . S
C1788 C1782 1.379 . S
C1788 C1785 1.363 . S
C1788 N1786 1.356 . S
C1789 C1783 1.363 . S
C1789 C1784 1.379 . S
C1789 N1787 1.356 . S
N1790 C1782 1.356 . S
N1790 H1796 0.984 . S
N1790 H1797 0.984 . S
N1791 C1784 1.356 . S
N1791 H1794 0.984 . S
N1791 H1795 0.985 . S
H1792 N1787 0.984 . S
H1793 N1787 0.985 . S
H1794 N1791 0.984 . S
H1795 N1791 0.985 . S
H1796 N1790 0.984 . S
H1797 N1790 0.984 . S
H1798 N1786 0.984 . S
H1799 N1786 0.985 . S
C1800 C1801 1.363 . S
C1800 C1806 1.379 . S
C1800 N1808 1.356 . S
C1801 C1800 1.363 . S
C1801 C1807 1.363 . S
C1802 C1803 1.363 . S
C1802 C1807 1.379 . S
C1802 N1809 1.356 . S
C1803 C1802 1.363 . S
C1803 C1806 1.363 . S
N1804 C1806 1.356 . S
N1804 H1816 0.984 . S
N1804 H1817 0.985 . S
N1805 C1807 1.356 . S
N1805 H1810 0.984 . S
N1805 H1811 0.985 . S
C1806 C1800 1.379 . S
C1806 C1803 1.363 . S
C1806 N1804 1.356 . S
C1807 C1801 1.363 . S
C1807 C1802 1.379 . S
C1807 N1805 1.356 . S
N1808 C1800 1.356 . S
N1808 H1814 0.984 . S
N1808 H1815 0.984 . S
N1809 C1802 1.356 . S
N1809 H1812 0.984 . S
N1809 H1813 0.985 . S
H1810 N1805 0.984 . S
H1811 N1805 0.985 . S
H1812 N1809 0.984 . S
H1813 N1809 0.985 . S
H1814 N1808 0.984 . S
H1815 N1808 0.984 . S
H1816 N1804 0.984 . S
H1817 N1804 0.985 . S
C1818 C1819 1.363 . S
C1818 C1824 1.379 . S
C1818 N1826 1.356 . S
C1819 C1818 1.363 . S
C1819 C1825 1.363 1_655 S
C1820 C1821 1.363 1_455 S
C1820 C1825 1.379 . S
C1820 N1827 1.356 . S
C1821 C1820 1.363 1_655 S
C1821 C1824 1.363 . S
N1822 C1824 1.356 . S
N1822 H1834 0.984 . S
N1822 H1835 0.985 . S
N1823 C1825 1.356 . S
N1823 H1828 0.984 . S
N1823 H1829 0.985 . S
C1824 C1818 1.379 . S
C1824 C1821 1.363 . S
C1824 N1822 1.356 . S
C1825 C1819 1.363 1_455 S
C1825 C1820 1.379 . S
C1825 N1823 1.356 . S
N1826 C1818 1.356 . S
N1826 H1832 0.984 . S
N1826 H1833 0.984 . S
N1827 C1820 1.356 . S
N1827 H1830 0.984 . S
N1827 H1831 0.985 . S
H1828 N1823 0.984 . S
H1829 N1823 0.985 . S
H1830 N1827 0.984 . S
H1831 N1827 0.985 . S
H1832 N1826 0.984 . S
H1833 N1826 0.984 . S
H1834 N1822 0.984 . S
H1835 N1822 0.985 . S
C1836 C1837 1.363 . S
C1836 C1842 1.379 . S
C1836 N1844 1.356 . S
C1837 C1836 1.363 . S
C1837 C1843 1.363 . S
C1838 C1839 1.363 . S
C1838 C1843 1.379 . S
C1838 N1845 1.356 . S
C1839 C1838 1.363 . S
C1839 C1842 1.363 . S
N1840 C1842 1.356 . S
N1840 H1852 0.984 . S
N1840 H1853 0.985 . S
N1841 C1843 1.356 . S
N1841 H1846 0.984 . S
N1841 H1847 0.985 . S
C1842 C1836 1.379 . S
C1842 C1839 1.363 . S
C1842 N1840 1.356 . S
C1843 C1837 1.363 . S
C1843 C1838 1.379 . S
C1843 N1841 1.356 . S
N1844 C1836 1.356 . S
N1844 H1850 0.984 . S
N1844 H1851 0.984 . S
N1845 C1838 1.356 . S
N1845 H1848 0.984 . S
N1845 H1849 0.985 . S
H1846 N1841 0.984 . S
H1847 N1841 0.985 . S
H1848 N1845 0.984 . S
H1849 N1845 0.985 . S
H1850 N1844 0.984 . S
H1851 N1844 0.984 . S
H1852 N1840 0.984 . S
H1853 N1840 0.985 . S
C1854 C1855 1.363 1_565 S
C1854 C1860 1.379 . S
C1854 N1862 1.356 . S
C1855 C1854 1.363 1_545 S
C1855 C1861 1.363 . S
C1856 C1857 1.363 . S
C1856 C1861 1.379 . S
C1856 N1863 1.356 . S
C1857 C1856 1.363 . S
C1857 C1860 1.363 1_545 S
N1858 C1860 1.356 . S
N1858 H1870 0.984 . S
N1858 H1871 0.985 . S
N1859 C1861 1.356 . S
N1859 H1864 0.984 . S
N1859 H1865 0.985 . S
C1860 C1854 1.379 . S
C1860 C1857 1.363 1_565 S
C1860 N1858 1.356 . S
C1861 C1855 1.363 . S
C1861 C1856 1.379 . S
C1861 N1859 1.356 . S
N1862 C1854 1.356 . S
N1862 H1868 0.984 . S
N1862 H1869 0.984 . S
N1863 C1856 1.356 . S
N1863 H1866 0.984 . S
N1863 H1867 0.985 . S
H1864 N1859 0.984 . S
H1865 N1859 0.985 . S
H1866 N1863 0.984 . S
H1867 N1863 0.985 . S
H1868 N1862 0.984 . S
H1869 N1862 0.984 . S
H1870 N1858 0.984 . S
H1871 N1858 0.985 . S
C577 C8 1.547 1_655 S
C579 C421 1.521 . S
C595 C22 1.551 . S
C597 C446 1.531 . S
C615 C457 1.521 . S
C613 C37 1.554 1_545 S
C631 C36 1.546 1_565 S
C633 C482 1.531 . S
C649 C9 1.554 1_455 S
C651 C500 1.534 . S
C667 C23 1.551 . S
C669 C511 1.522 . S
C685 C50 1.549 . S
C687 C493 1.506 . S
C705 C518 1.515 . S
C703 C64 1.522 . S
C723 C475 1.521 . S
C721 C79 1.521 . S
C739 C78 1.546 . S
C741 C464 1.503 . S
C759 C428 1.532 . S
C757 C51 1.522 . S
C775 C65 1.522 . S
C777 C439 1.514 . S
C793 C92 1.552 . S
C795 C529 1.522 . S
C811 C106 1.552 . S
C813 C554 1.531 . S
C831 C565 1.522 . S
C829 C121 1.551 . S
C847 C120 1.551 . S
C849 C266 1.531 . S
C865 C93 1.551 . S
C867 C284 1.531 . S
C883 C107 1.551 . S
C885 C295 1.522 . S
C901 C134 1.523 . S
C903 C277 1.514 . S
C919 C148 1.522 . S
C921 C302 1.515 . S
C939 C259 1.514 . S
C937 C163 1.522 . S
C957 C572 1.516 . S
C955 C162 1.523 . S
C975 C536 1.516 . S
C973 C135 1.523 . S
C993 C547 1.515 . S
C991 C149 1.523 . S
C1009 C176 1.552 . S
C1011 C313 1.522 . S
C1027 C190 1.551 . S
C1029 C338 1.531 . S
C1045 C205 1.552 . S
C1047 C349 1.523 . S
C1063 C204 1.552 . S
C1065 C374 1.532 . S
C1083 C392 1.531 . S
C1081 C177 1.552 . S
C1101 C403 1.523 . S
C1099 C191 1.552 . S
C1119 C385 1.515 . S
C1117 C218 1.523 . S
C1137 C410 1.516 . S
C1135 C232 1.523 . S
C1153 C247 1.522 . S
C1155 C367 1.514 . S
C1173 C356 1.515 . S
C1171 C246 1.522 . S
C1189 C219 1.523 . S
C1191 C320 1.516 . S
C1209 C331 1.514 . S
C1207 C233 1.522 . S
C1227 C268 1.441 . S
C1225 C6 1.466 . S
C1243 C20 1.466 . S
C1245 C286 1.439 . S
C1263 C296 1.444 . S
C1261 C35 1.468 . S
C1281 C314 1.443 . S
C1279 C34 1.460 . S
C1299 C340 1.440 . S
C1297 C7 1.468 . S
C1317 C350 1.445 . S
C1315 C21 1.467 . S
C1333 C48 1.488 . S
C1335 C358 1.447 . S
C1351 C62 1.486 . S
C1353 C322 1.440 . S
C1369 C77 1.486 . S
C1371 C332 1.447 . S
C1387 C76 1.485 . S
C1389 C278 1.452 . S
C1407 C304 1.441 . S
C1405 C49 1.486 . S
C1423 C63 1.486 . S
C1425 C260 1.449 . S
C1443 C376 1.442 . S
C1441 C90 1.469 . S
C1459 C104 1.467 . S
C1461 C394 1.440 . S
C1477 C119 1.466 . S
C1479 C404 1.445 . S
C1497 C422 1.443 . S
C1495 C118 1.461 . S
C1513 C91 1.467 . S
C1515 C448 1.440 . S
C1531 C105 1.466 . S
C1533 C458 1.447 . S
C1549 C132 1.487 . S
C1551 C466 1.454 . S
C1567 C146 1.486 . S
C1569 C430 1.430 . S
C1587 C440 1.449 . S
C1585 C161 1.486 . S
C1603 C160 1.485 . S
C1605 C386 1.448 . S
C1621 C133 1.487 . S
C1623 C412 1.441 . S
C1641 C368 1.450 . S
C1639 C147 1.486 . S
C1659 C484 1.441 . S
C1657 C174 1.464 . S
C1675 C188 1.467 . S
C1677 C502 1.441 . S
C1693 C203 1.466 . S
C1695 C512 1.444 . S
C1713 C530 1.442 . S
C1711 C202 1.464 . S
C1731 C556 1.440 . S
C1729 C175 1.467 . S
C1747 C189 1.467 . S
C1749 C566 1.445 . S
C1765 C216 1.488 . S
C1767 C574 1.442 . S
C1783 C230 1.487 . S
C1785 C538 1.442 . S
C1803 C548 1.449 . S
C1801 C245 1.486 . S
C1821 C494 1.427 1_655 S
C1819 C244 1.480 . S
C1839 C520 1.441 . S
C1837 C217 1.486 . S
C1855 C231 1.486 . S
C1857 C476 1.467 1_545 S
