# Generated by pormake.
# Topology ptr, (4,4)-cn, num edge types: 1
# Building blocks:
#     Node 0, Type 0, BuildingBlock: GALJAG_clean_sbu_0, # of connection points: 4
#     Node 1, Type 0, BuildingBlock: GALJAG_clean_sbu_0, # of connection points: 4
#     Node 2, Type 0, BuildingBlock: GALJAG_clean_sbu_0, # of connection points: 4
#     Node 3, Type 0, BuildingBlock: GALJAG_clean_sbu_0, # of connection points: 4
#     Node 4, Type 0, BuildingBlock: GALJAG_clean_sbu_0, # of connection points: 4
#     Node 5, Type 0, BuildingBlock: GALJAG_clean_sbu_0, # of connection points: 4
#     Node 6, Type 0, BuildingBlock: GALJAG_clean_sbu_0, # of connection points: 4
#     Node 7, Type 0, BuildingBlock: GALJAG_clean_sbu_0, # of connection points: 4
#     Node 8, Type 0, BuildingBlock: GALJAG_clean_sbu_0, # of connection points: 4
#     Node 9, Type 0, BuildingBlock: GALJAG_clean_sbu_0, # of connection points: 4
#     Node 10, Type 0, BuildingBlock: GALJAG_clean_sbu_0, # of connection points: 4
#     Node 11, Type 0, BuildingBlock: GALJAG_clean_sbu_0, # of connection points: 4
#     Node 12, Type 0, BuildingBlock: GALJAG_clean_sbu_0, # of connection points: 4
#     Node 13, Type 0, BuildingBlock: GALJAG_clean_sbu_0, # of connection points: 4
#     Node 14, Type 0, BuildingBlock: GALJAG_clean_sbu_0, # of connection points: 4
#     Node 15, Type 0, BuildingBlock: GALJAG_clean_sbu_0, # of connection points: 4
#     Node 16, Type 0, BuildingBlock: GALJAG_clean_sbu_0, # of connection points: 4
#     Node 17, Type 0, BuildingBlock: GALJAG_clean_sbu_0, # of connection points: 4
#     Node 18, Type 1, BuildingBlock: GIZVER_clean_linker_0, # of connection points: 4
#     Node 19, Type 1, BuildingBlock: GIZVER_clean_linker_0, # of connection points: 4
#     Node 20, Type 1, BuildingBlock: GIZVER_clean_linker_0, # of connection points: 4
#     Node 21, Type 1, BuildingBlock: GIZVER_clean_linker_0, # of connection points: 4
#     Node 22, Type 1, BuildingBlock: GIZVER_clean_linker_0, # of connection points: 4
#     Node 23, Type 1, BuildingBlock: GIZVER_clean_linker_0, # of connection points: 4
#     Node 24, Type 1, BuildingBlock: GIZVER_clean_linker_0, # of connection points: 4
#     Node 25, Type 1, BuildingBlock: GIZVER_clean_linker_0, # of connection points: 4
#     Node 26, Type 1, BuildingBlock: GIZVER_clean_linker_0, # of connection points: 4
#     Node 27, Type 1, BuildingBlock: GIZVER_clean_linker_0, # of connection points: 4
#     Node 28, Type 1, BuildingBlock: GIZVER_clean_linker_0, # of connection points: 4
#     Node 29, Type 1, BuildingBlock: GIZVER_clean_linker_0, # of connection points: 4
#     Node 30, Type 1, BuildingBlock: GIZVER_clean_linker_0, # of connection points: 4
#     Node 31, Type 1, BuildingBlock: GIZVER_clean_linker_0, # of connection points: 4
#     Node 32, Type 1, BuildingBlock: GIZVER_clean_linker_0, # of connection points: 4
#     Node 33, Type 1, BuildingBlock: GIZVER_clean_linker_0, # of connection points: 4
#     Node 34, Type 1, BuildingBlock: GIZVER_clean_linker_0, # of connection points: 4
#     Node 35, Type 1, BuildingBlock: GIZVER_clean_linker_0, # of connection points: 4
#     Edge 36, Type (0, 1), None
#     Edge 37, Type (0, 1), None
#     Edge 38, Type (0, 1), None
#     Edge 39, Type (0, 1), None
#     Edge 40, Type (0, 1), None
#     Edge 41, Type (0, 1), None
#     Edge 42, Type (0, 1), None
#     Edge 43, Type (0, 1), None
#     Edge 44, Type (0, 1), None
#     Edge 45, Type (0, 1), None
#     Edge 46, Type (0, 1), None
#     Edge 47, Type (0, 1), None
#     Edge 48, Type (0, 1), None
#     Edge 49, Type (0, 1), None
#     Edge 50, Type (0, 1), None
#     Edge 51, Type (0, 1), None
#     Edge 52, Type (0, 1), None
#     Edge 53, Type (0, 1), None
#     Edge 54, Type (0, 1), None
#     Edge 55, Type (0, 1), None
#     Edge 56, Type (0, 1), None
#     Edge 57, Type (0, 1), None
#     Edge 58, Type (0, 1), None
#     Edge 59, Type (0, 1), None
#     Edge 60, Type (0, 1), None
#     Edge 61, Type (0, 1), None
#     Edge 62, Type (0, 1), None
#     Edge 63, Type (0, 1), None
#     Edge 64, Type (0, 1), None
#     Edge 65, Type (0, 1), None
#     Edge 66, Type (0, 1), None
#     Edge 67, Type (0, 1), None
#     Edge 68, Type (0, 1), None
#     Edge 69, Type (0, 1), None
#     Edge 70, Type (0, 1), None
#     Edge 71, Type (0, 1), None
#     Edge 72, Type (0, 1), None
#     Edge 73, Type (0, 1), None
#     Edge 74, Type (0, 1), None
#     Edge 75, Type (0, 1), None
#     Edge 76, Type (0, 1), None
#     Edge 77, Type (0, 1), None
#     Edge 78, Type (0, 1), None
#     Edge 79, Type (0, 1), None
#     Edge 80, Type (0, 1), None
#     Edge 81, Type (0, 1), None
#     Edge 82, Type (0, 1), None
#     Edge 83, Type (0, 1), None
#     Edge 84, Type (0, 1), None
#     Edge 85, Type (0, 1), None
#     Edge 86, Type (0, 1), None
#     Edge 87, Type (0, 1), None
#     Edge 88, Type (0, 1), None
#     Edge 89, Type (0, 1), None
#     Edge 90, Type (0, 1), None
#     Edge 91, Type (0, 1), None
#     Edge 92, Type (0, 1), None
#     Edge 93, Type (0, 1), None
#     Edge 94, Type (0, 1), None
#     Edge 95, Type (0, 1), None
#     Edge 96, Type (0, 1), None
#     Edge 97, Type (0, 1), None
#     Edge 98, Type (0, 1), None
#     Edge 99, Type (0, 1), None
#     Edge 100, Type (0, 1), None
#     Edge 101, Type (0, 1), None
#     Edge 102, Type (0, 1), None
#     Edge 103, Type (0, 1), None
#     Edge 104, Type (0, 1), None
#     Edge 105, Type (0, 1), None
#     Edge 106, Type (0, 1), None
#     Edge 107, Type (0, 1), None
# Relax obj value: 0.069
# Max RMSD: 0.094
# Mean RMSD: 0.093
data_MOF--net-ptr--node1-GALJAG_clean_sbu_0--node2-GIZVER_clean_linker_0--edge1-none
_symmetry_space_group_name_H-M    P1
_symmetry_Int_Tables_number       1
_symmetry_cell_setting            triclinic
loop_
_symmetry_equiv_pos_as_xyz
'x, y, z'
_cell_length_a     36.247824
_cell_length_b     36.283453
_cell_length_c     24.563699
_cell_angle_alpha  90.168692
_cell_angle_beta   90.362997
_cell_angle_gamma 120.43062
loop_
_atom_site_label
_atom_site_type_symbol
_atom_site_fract_x
_atom_site_fract_y
_atom_site_fract_z
_atom_type_partial_charge
In0 In 0.02744 0.37925 -0.00695 0.0
O1 O 0.99422 0.38835 0.06588 0.0
O2 O 0.05721 0.43838 0.04646 0.0
C3 C 0.96247 0.31155 0.94038 0.0
C4 C 0.06649 0.34724 0.05302 0.0
C5 C 0.0592 0.4334 0.90907 0.0
O6 O 0.95895 0.34269 0.9567 0.0
O7 O 0.99791 0.31468 0.95113 0.0
O8 O 0.07286 0.40868 0.92216 0.0
O9 O 0.03042 0.4316 0.93942 0.0
C10 C 0.02615 0.42426 0.07884 0.0
O11 O 0.08561 0.37154 0.01326 0.0
O12 O 0.02857 0.33873 0.06017 0.0
In13 In 0.6592 0.65846 -0.00521 0.0
O14 O 0.63955 0.60636 0.05861 0.0
O15 O 0.60888 0.64357 0.05874 0.0
C16 C 0.72553 0.66475 0.93894 0.0
C17 C 0.69956 0.73205 0.04982 0.0
C18 C 0.60509 0.62416 0.91016 0.0
O19 O 0.70735 0.63658 0.97534 0.0
O20 O 0.71131 0.68988 0.9336 0.0
O21 O 0.62419 0.66392 0.92016 0.0
O22 O 0.6107 0.60221 0.94537 0.0
C23 C 0.61279 0.61427 0.08078 0.0
O24 O 0.66988 0.72485 0.01619 0.0
O25 O 0.70895 0.70301 0.05339 0.0
In26 In 0.37829 0.011 -0.00459 0.0
O27 O 0.39925 0.08041 0.97409 0.0
O28 O 0.34416 0.02974 0.93474 0.0
C29 C 0.4253 0.01167 0.08018 0.0
C30 C 0.41158 0.99009 0.91201 0.0
C31 C 0.30507 0.96839 0.05117 0.0
O32 O 0.41991 0.04289 0.07029 0.0
O33 O 0.40944 0.98192 0.0453 0.0
O34 O 0.31497 0.95034 0.01455 0.0
O35 O 0.33089 0.00793 0.0568 0.0
C36 C 0.36971 0.06948 0.93892 0.0
O37 O 0.37333 0.96623 0.92726 0.0
O38 O 0.43301 0.02405 0.93949 0.0
In39 In 0.0177 0.64914 -0.00452 0.0
O40 O 0.06333 0.65442 0.92903 0.0
O41 O 1.00503 0.59493 0.93794 0.0
C42 C 0.05994 0.72295 0.05129 0.0
C43 C 0.95942 0.65756 0.93777 0.0
C44 C 0.01681 0.60304 0.08085 0.0
O45 O 0.07806 0.71271 0.01526 0.0
O46 O 0.02045 0.69697 0.05655 0.0
O47 O 0.98555 0.6082 0.06976 0.0
O48 O 0.0467 0.61852 0.04673 0.0
C49 C 0.03942 0.61648 0.91203 0.0
O50 O 0.94833 0.62775 0.97199 0.0
O51 O 0.99916 0.68337 0.93516 0.0
In52 In 0.37056 0.37253 -0.00554 0.0
O53 O 0.36547 0.40707 0.91946 0.0
O54 O 0.42708 0.42008 0.94566 0.0
C55 C 0.29739 0.33328 0.04926 0.0
C56 C 0.3631 0.30515 0.93937 0.0
C57 C 0.41588 0.41869 0.081 0.0
O58 O 0.30461 0.36292 0.01608 0.0
O59 O 0.32611 0.3234 0.05242 0.0
O60 O 0.42316 0.39168 0.05814 0.0
O61 O 0.38665 0.42312 0.05929 0.0
C62 C 0.40522 0.4256 0.90998 0.0
O63 O 0.3913 0.32346 0.97635 0.0
O64 O 0.33848 0.3199 0.93286 0.0
In65 In 0.6527 1.00236 -0.00733 0.0
O66 O 0.6425 0.03443 0.06622 0.0
O67 O 0.59288 0.97161 0.04401 0.0
C68 C 0.72084 0.06587 0.94054 0.0
C69 C 0.68527 0.96352 0.05224 0.0
C70 C 0.59766 0.97348 0.9082 0.0
O71 O 0.69328 0.07225 0.96314 0.0
O72 O 0.71396 0.02835 0.9448 0.0
O73 O 0.6198 0.95687 0.92159 0.0
O74 O 0.60269 1.00397 0.93824 0.0
C75 C 0.60644 1.00233 0.07743 0.0
O76 O 0.66039 0.94425 0.01241 0.0
O77 O 0.69413 1.00156 0.0597 0.0
In78 In 0.6941 0.71257 0.32637 0.0
O79 O 0.66088 0.72169 0.39919 0.0
O80 O 0.72388 0.7717 0.37978 0.0
C81 C 0.62912 0.64488 0.2737 0.0
C82 C 0.73313 0.68055 0.38634 0.0
C83 C 0.72586 0.76673 0.24238 0.0
O84 O 0.62559 0.67602 0.29003 0.0
O85 O 0.66457 0.64802 0.28443 0.0
O86 O 0.73952 0.742 0.25548 0.0
O87 O 0.69707 0.76493 0.27274 0.0
C88 C 0.69282 0.75759 0.41215 0.0
O89 O 0.75226 0.70485 0.34658 0.0
O90 O 0.6952 0.67204 0.39349 0.0
In91 In 0.3259 0.99179 0.32813 0.0
O92 O 0.30625 0.93969 0.39196 0.0
O93 O 0.27557 0.9769 0.39207 0.0
C94 C 0.39223 0.99807 0.27227 0.0
C95 C 0.36626 0.06538 0.38316 0.0
C96 C 0.27179 0.95748 0.2435 0.0
O97 O 0.37404 0.9699 0.30868 0.0
O98 O 0.37801 0.0232 0.26694 0.0
O99 O 0.29089 0.99725 0.2535 0.0
O100 O 0.2774 0.93553 0.27871 0.0
C101 C 0.27948 0.9476 0.41412 0.0
O102 O 0.33658 0.05818 0.34953 0.0
O103 O 0.37565 0.03633 0.38673 0.0
In104 In 0.04496 0.34436 0.32875 0.0
O105 O 0.06592 0.41377 0.30744 0.0
O106 O 0.01083 0.36309 0.26809 0.0
C107 C 0.09198 0.34504 0.41352 0.0
C108 C 0.07827 0.32346 0.24535 0.0
C109 C 0.97174 0.30175 0.38451 0.0
O110 O 0.08658 0.37625 0.40364 0.0
O111 O 0.07612 0.31529 0.37864 0.0
O112 O 0.98164 0.2837 0.34789 0.0
O113 O 0.99757 0.34129 0.39014 0.0
C114 C 0.03637 0.40283 0.27226 0.0
O115 O 0.04002 0.29959 0.26061 0.0
O116 O 0.09968 0.35743 0.27282 0.0
In117 In 0.6844 0.98249 0.3288 0.0
O118 O 0.73004 0.98779 0.26233 0.0
O119 O 0.67175 0.92827 0.27127 0.0
C120 C 0.72664 0.05629 0.38461 0.0
C121 C 0.62611 0.99089 0.27109 0.0
C122 C 0.68352 0.93639 0.41416 0.0
O123 O 0.74476 0.04606 0.34858 0.0
O124 O 0.68715 0.03031 0.38986 0.0
O125 O 0.65226 0.94155 0.40307 0.0
O126 O 0.71342 0.95187 0.38005 0.0
C127 C 0.70614 0.94984 0.24535 0.0
O128 O 0.61503 0.96108 0.30531 0.0
O129 O 0.66586 0.01671 0.26848 0.0
In130 In 0.03723 0.70588 0.3278 0.0
O131 O 0.03215 0.74044 0.2528 0.0
O132 O 0.09375 0.75343 0.27901 0.0
C133 C 0.96406 0.66665 0.38261 0.0
C134 C 0.02976 0.6385 0.27272 0.0
C135 C 0.08256 0.75205 0.41435 0.0
O136 O 0.97128 0.69629 0.34943 0.0
O137 O 0.99278 0.65676 0.38576 0.0
O138 O 0.08984 0.72503 0.39148 0.0
O139 O 0.05333 0.75648 0.39264 0.0
C140 C 0.0719 0.75896 0.24332 0.0
O141 O 0.05796 0.65681 0.30969 0.0
O142 O 1.00515 0.65326 0.26621 0.0
In143 In 0.31935 0.33567 0.32601 0.0
O144 O 0.32703 0.27756 0.34575 0.0
O145 O 0.36078 0.33486 0.39304 0.0
C146 C 0.2643 0.30679 0.24154 0.0
C147 C 0.27309 0.33564 0.41077 0.0
C148 C 0.38749 0.39918 0.27387 0.0
O149 O 0.28645 0.29018 0.25493 0.0
O150 O 0.26934 0.33729 0.27158 0.0
O151 O 0.35994 0.40556 0.29649 0.0
O152 O 0.3806 0.36165 0.27813 0.0
C153 C 0.35192 0.29683 0.38558 0.0
O154 O 0.30915 0.36775 0.39956 0.0
O155 O 0.25953 0.30492 0.37735 0.0
In156 In 0.36079 0.0459 0.65971 0.0
O157 O 0.41895 0.03819 0.67992 0.0
O158 O 0.3619 1.00538 0.72683 0.0
C159 C 0.39255 0.10005 0.57572 0.0
C160 C 0.3595 0.09092 0.74549 0.0
C161 C 0.29581 0.97821 0.60704 0.0
O162 O 0.40621 0.07533 0.58881 0.0
O163 O 0.36377 0.09826 0.60608 0.0
O164 O 0.29229 0.00935 0.62335 0.0
O165 O 0.33125 0.98134 0.61779 0.0
C166 C 0.39982 0.01388 0.71968 0.0
O167 O 0.32757 0.05502 0.73253 0.0
O168 O 0.39056 0.10503 0.71312 0.0
In169 In 0.99257 0.32514 0.66147 0.0
O170 O 1.00324 0.39153 0.68287 0.0
O171 O 0.04231 0.36969 0.72007 0.0
C172 C 0.93845 0.29084 0.57683 0.0
C173 C 0.94615 0.28095 0.74745 0.0
C174 C 0.0589 0.33143 0.60562 0.0
O175 O 0.95756 0.33061 0.58684 0.0
O176 O 0.94406 0.26889 0.61205 0.0
O177 O 0.04071 0.30326 0.64202 0.0
O178 O 0.04468 0.35656 0.60028 0.0
C179 C 0.03292 0.39873 0.7165 0.0
O180 O 0.97291 0.27304 0.72529 0.0
O181 O 0.94224 0.31025 0.72542 0.0
In182 In 0.71159 0.67767 0.66207 0.0
O183 O 0.73257 0.74708 0.64076 0.0
O184 O 0.67747 0.69642 0.60141 0.0
C185 C 0.75861 0.67836 0.74684 0.0
C186 C 0.74488 0.65676 0.57867 0.0
C187 C 0.63837 0.63507 0.71783 0.0
O188 O 0.75322 0.70957 0.73696 0.0
O189 O 0.74275 0.6486 0.71196 0.0
O190 O 0.64828 0.61702 0.68121 0.0
O191 O 0.6642 0.67461 0.72346 0.0
C192 C 0.70303 0.73616 0.60558 0.0
O193 O 0.70663 0.6329 0.59392 0.0
O194 O 0.76631 0.69072 0.60615 0.0
In195 In 0.35105 0.31578 0.66214 0.0
O196 O 0.39668 0.32108 0.59568 0.0
O197 O 0.33839 0.26157 0.6046 0.0
C198 C 0.39328 0.38959 0.71795 0.0
C199 C 0.29276 0.3242 0.60443 0.0
C200 C 0.35017 0.26969 0.7475 0.0
O201 O 0.4114 0.37936 0.68192 0.0
O202 O 0.35379 0.36361 0.7232 0.0
O203 O 0.3189 0.27485 0.73641 0.0
O204 O 0.38006 0.28518 0.71339 0.0
C205 C 0.37278 0.28314 0.57869 0.0
O206 O 0.28167 0.29439 0.63864 0.0
O207 O 0.33251 0.35001 0.60182 0.0
In208 In 0.70391 0.03921 0.66112 0.0
O209 O 0.69883 0.07377 0.58612 0.0
O210 O 0.76043 0.08677 0.61233 0.0
C211 C 0.63074 0.99996 0.71592 0.0
C212 C 0.69645 0.97184 0.60603 0.0
C213 C 0.74924 0.08538 0.74767 0.0
O214 O 0.63796 0.0296 0.68274 0.0
O215 O 0.65946 0.99008 0.71908 0.0
O216 O 0.75652 0.05837 0.7248 0.0
O217 O 0.72 0.0898 0.72596 0.0
C218 C 0.73858 0.09229 0.57664 0.0
O219 O 0.72465 0.99014 0.64301 0.0
O220 O 0.67184 0.9866 0.59952 0.0
In221 In 0.98602 0.66904 0.65935 0.0
O222 O 0.99369 0.61092 0.67909 0.0
O223 O 0.02744 0.66822 0.72639 0.0
C224 C 0.93097 0.64017 0.57489 0.0
C225 C 0.93976 0.66901 0.74411 0.0
C226 C 0.05417 0.73253 0.60722 0.0
O227 O 0.9531 0.62354 0.58828 0.0
O228 O 0.93603 0.67067 0.60492 0.0
O229 O 0.02662 0.73892 0.62985 0.0
O230 O 0.04726 0.695 0.61147 0.0
C231 C 0.01858 0.63018 0.71893 0.0
O232 O 0.97582 0.70111 0.73291 0.0
O233 O 0.92619 0.63829 0.71069 0.0
H234 H 0.12239 0.28526 0.20961 0.0
H235 H 0.118 0.31232 0.03894 0.0
H236 H 0.05919 0.35204 0.15878 0.0
H237 H 0.12615 0.2394 0.13079 0.0
H238 H 0.13804 0.26113 0.06412 0.0
H239 H 0.18163 0.27828 0.20846 0.0
H240 H 0.30917 0.32474 0.15284 0.0
H241 H 0.21161 0.30727 0.03798 0.0
C242 C 0.11427 0.30024 0.17738 0.0
C243 C 0.09111 0.32039 0.18998 0.0
C244 C 0.12489 0.29767 0.12279 0.0
C245 C 0.11179 0.31563 0.08124 0.0
C246 C 0.08737 0.3345 0.09424 0.0
C247 C 0.07795 0.3373 0.14857 0.0
C248 C 0.14355 0.26995 0.10807 0.0
C249 C 0.19072 0.29026 0.12154 0.0
C250 C 0.20428 0.28966 0.17542 0.0
C251 C 0.24703 0.30206 0.18629 0.0
C252 C 0.27604 0.31487 0.14384 0.0
C253 C 0.2639 0.31784 0.09074 0.0
C254 C 0.2213 0.30611 0.07947 0.0
H255 H 0.75428 0.84905 0.20957 0.0
H256 H 0.72512 0.8175 0.03864 0.0
H257 H 0.70887 0.72138 0.15339 0.0
H258 H 0.79262 0.90432 0.13241 0.0
H259 H 0.77081 0.89138 0.06531 0.0
H260 H 0.74494 0.90629 0.2103 0.0
H261 H 0.67899 0.96994 0.15797 0.0
H262 H 0.72084 0.91249 0.03868 0.0
C263 C 0.74303 0.82617 0.17637 0.0
C264 C 0.73114 0.78367 0.18713 0.0
C265 C 0.7419 0.83914 0.12248 0.0
C266 C 0.72655 0.80827 0.08018 0.0
C267 C 0.71541 0.76597 0.09133 0.0
C268 C 0.71866 0.75439 0.14448 0.0
C269 C 0.76209 0.88614 0.10911 0.0
C270 C 0.73429 0.90492 0.12295 0.0
C271 C 0.73053 0.91471 0.17761 0.0
C272 C 0.71005 0.93761 0.18983 0.0
C273 C 0.69392 0.95131 0.148 0.0
C274 C 0.69766 0.9425 0.09362 0.0
C275 C 0.71686 0.9183 0.08095 0.0
H276 H 0.15411 0.81354 0.2197 0.0
H277 H 0.14374 0.78435 0.04892 0.0
H278 H 0.031 0.73218 0.14774 0.0
H279 H 0.21413 0.81545 0.16336 0.0
H280 H 0.21152 0.81684 0.09115 0.0
H281 H 0.21622 0.87559 0.21939 0.0
H282 H 0.2973 0.99781 0.14822 0.0
H283 H 0.244 0.8842 0.04877 0.0
C284 C 0.13452 0.80047 0.18347 0.0
C285 C 0.09004 0.77481 0.18896 0.0
C286 C 0.15407 0.80539 0.13266 0.0
C287 C 0.12859 0.78341 0.08722 0.0
C288 C 0.08426 0.75646 0.09254 0.0
C289 C 0.06492 0.75446 0.14276 0.0
C290 C 0.20212 0.82666 0.12913 0.0
C291 C 0.22392 0.87474 0.13254 0.0
C292 C 0.2291 0.8948 0.18328 0.0
C293 C 0.25506 0.93921 0.18903 0.0
C294 C 0.27493 0.96389 0.14299 0.0
C295 C 0.27227 0.94414 0.09257 0.0
C296 C 0.24538 0.89973 0.08712 0.0
H297 H 0.39487 0.23154 0.77406 0.0
H298 H 0.40323 0.25816 0.94592 0.0
H299 H 0.32752 0.28907 0.84059 0.0
H300 H 0.4529 0.23323 0.83826 0.0
H301 H 0.4428 0.22751 0.90977 0.0
H302 H 0.4006 0.1742 0.77303 0.0
H303 H 0.33766 0.04813 0.83824 0.0
H304 H 0.40523 0.15655 0.94563 0.0
C305 C 0.38394 0.24081 0.80953 0.0
C306 C 0.35726 0.25789 0.80215 0.0
C307 C 0.39838 0.23802 0.86186 0.0
C308 C 0.3893 0.25674 0.90625 0.0
C309 C 0.36427 0.27585 0.89856 0.0
C310 C 0.34597 0.27347 0.84719 0.0
C311 C 0.42701 0.2192 0.869 0.0
C312 C 0.40209 0.17121 0.86097 0.0
C313 C 0.38982 0.15368 0.80825 0.0
C314 C 0.36522 0.10945 0.80031 0.0
C315 C 0.35426 0.0824 0.84516 0.0
C316 C 0.37048 0.09903 0.89721 0.0
C317 C 0.39314 0.14353 0.90538 0.0
H318 H 0.89744 0.19834 0.77997 0.0
H319 H 0.90578 0.22635 0.95175 0.0
H320 H 0.96202 0.32837 0.83612 0.0
H321 H 0.88685 0.14429 0.85403 0.0
H322 H 0.87842 0.15426 0.92256 0.0
H323 H 0.83194 0.13549 0.7802 0.0
H324 H 0.70275 0.06687 0.83675 0.0
H325 H 0.80638 0.1236 0.95247 0.0
C326 C 0.90563 0.22104 0.81303 0.0
C327 C 0.92891 0.26492 0.80184 0.0
C328 C 0.89468 0.20662 0.86702 0.0
C329 C 0.91022 0.23695 0.90985 0.0
C330 C 0.93437 0.28087 0.89867 0.0
C331 C 0.94175 0.29455 0.84462 0.0
C332 C 0.87256 0.15924 0.87941 0.0
C333 C 0.82485 0.13611 0.86769 0.0
C334 C 0.80967 0.1261 0.81357 0.0
C335 C 0.76567 0.10203 0.80249 0.0
C336 C 0.73662 0.0876 0.84543 0.0
C337 C 0.75103 0.09453 0.89947 0.0
C338 C 0.79513 0.11945 0.91067 0.0
H339 H 0.85574 0.62805 0.769 0.0
H340 H 0.87233 0.62194 0.94182 0.0
H341 H 0.98159 0.68999 0.83823 0.0
H342 H 0.79582 0.57539 0.83164 0.0
H343 H 0.80165 0.58402 0.90369 0.0
H344 H 0.79781 0.63419 0.77087 0.0
H345 H 0.74032 0.70045 0.84111 0.0
H346 H 0.77185 0.62359 0.94265 0.0
C347 C 0.87612 0.63837 0.80482 0.0
C348 C 0.92053 0.66278 0.79831 0.0
C349 C 0.85824 0.6259 0.85701 0.0
C350 C 0.88563 0.63431 0.9021 0.0
C351 C 0.93019 0.65695 0.89534 0.0
C352 C 0.94722 0.67341 0.844 0.0
C353 C 0.8102 0.60058 0.86376 0.0
C354 C 0.79115 0.62911 0.8584 0.0
C355 C 0.78841 0.64446 0.8069 0.0
C356 C 0.77113 0.67105 0.80096 0.0
C357 C 0.75593 0.68191 0.84671 0.0
C358 C 0.75402 0.66323 0.89739 0.0
C359 C 0.77295 0.6379 0.90359 0.0
H360 H 0.78903 0.61859 0.54293 0.0
H361 H 0.78466 0.64565 0.37227 0.0
H362 H 0.72579 0.68532 0.4921 0.0
H363 H 0.79283 0.57274 0.46412 0.0
H364 H 0.80471 0.59447 0.39745 0.0
H365 H 0.84829 0.61164 0.54179 0.0
H366 H 0.97585 0.65813 0.48619 0.0
H367 H 0.87828 0.64063 0.37132 0.0
C368 C 0.78091 0.63355 0.5107 0.0
C369 C 0.75773 0.65369 0.5233 0.0
C370 C 0.79154 0.631 0.45612 0.0
C371 C 0.77844 0.64895 0.41457 0.0
C372 C 0.754 0.6678 0.42756 0.0
C373 C 0.74456 0.67059 0.48189 0.0
C374 C 0.81022 0.6033 0.44141 0.0
C375 C 0.85739 0.62362 0.45487 0.0
C376 C 0.87094 0.62302 0.50876 0.0
C377 C 0.9137 0.63544 0.51963 0.0
C378 C 0.94272 0.64825 0.47718 0.0
C379 C 0.93058 0.65121 0.42408 0.0
C380 C 0.88797 0.63947 0.41281 0.0
H381 H 0.42096 0.18238 0.54291 0.0
H382 H 0.3918 0.15083 0.37198 0.0
H383 H 0.37558 0.05471 0.48673 0.0
H384 H 0.45929 0.23765 0.46574 0.0
H385 H 0.43747 0.2247 0.39865 0.0
H386 H 0.41159 0.2396 0.54364 0.0
H387 H 0.34561 0.30322 0.49131 0.0
H388 H 0.3875 0.2458 0.37202 0.0
C389 C 0.40971 0.1595 0.50971 0.0
C390 C 0.39783 0.117 0.52047 0.0
C391 C 0.40858 0.17247 0.45582 0.0
C392 C 0.39324 0.1416 0.41351 0.0
C393 C 0.38211 0.09929 0.42467 0.0
C394 C 0.38536 0.08772 0.47782 0.0
C395 C 0.42875 0.21946 0.44245 0.0
C396 C 0.40094 0.23823 0.45629 0.0
C397 C 0.39718 0.24802 0.51095 0.0
C398 C 0.37669 0.27091 0.52317 0.0
C399 C 0.36055 0.2846 0.48134 0.0
C400 C 0.3643 0.2758 0.42696 0.0
C401 C 0.38352 0.25161 0.41428 0.0
H402 H 0.82079 0.14688 0.55303 0.0
H403 H 0.81043 0.11771 0.38225 0.0
H404 H 0.69768 0.06551 0.48106 0.0
H405 H 0.88081 0.14881 0.4967 0.0
H406 H 0.87821 0.15019 0.42449 0.0
H407 H 0.88289 0.20894 0.55273 0.0
H408 H 0.96397 0.33117 0.48156 0.0
H409 H 0.91068 0.21756 0.38211 0.0
C410 C 0.8012 0.13382 0.5168 0.0
C411 C 0.75672 0.10815 0.52228 0.0
C412 C 0.82075 0.13874 0.46599 0.0
C413 C 0.79528 0.11676 0.42055 0.0
C414 C 0.75095 0.08981 0.42586 0.0
C415 C 0.7316 0.0878 0.47608 0.0
C416 C 0.8688 0.16002 0.46247 0.0
C417 C 0.89059 0.2081 0.46588 0.0
C418 C 0.89577 0.22815 0.51662 0.0
C419 C 0.92173 0.27256 0.52237 0.0
C420 C 0.9416 0.29725 0.47633 0.0
C421 C 0.93894 0.2775 0.42591 0.0
C422 C 0.91206 0.23309 0.42046 0.0
H423 H 0.0615 0.56488 0.1074 0.0
H424 H 0.06989 0.59151 0.27926 0.0
H425 H 0.99417 0.62242 0.17394 0.0
H426 H 0.11954 0.56658 0.17159 0.0
H427 H 0.10945 0.56086 0.2431 0.0
H428 H 0.06724 0.50754 0.10637 0.0
H429 H 1.00431 0.38147 0.17159 0.0
H430 H 0.07188 0.4899 0.27897 0.0
C431 C 0.05058 0.57416 0.14287 0.0
C432 C 0.02391 0.59124 0.1355 0.0
C433 C 0.06503 0.57137 0.1952 0.0
C434 C 0.05595 0.59008 0.23959 0.0
C435 C 0.03092 0.6092 0.23191 0.0
C436 C 0.01262 0.60682 0.18054 0.0
C437 C 0.09365 0.55254 0.20233 0.0
C438 C 0.06874 0.50456 0.19431 0.0
C439 C 0.05646 0.48703 0.14159 0.0
C440 C 0.03187 0.4428 0.13365 0.0
C441 C 0.02091 0.41575 0.1785 0.0
C442 C 0.03713 0.43238 0.23055 0.0
C443 C 0.05979 0.47688 0.23872 0.0
H444 H 0.56407 0.53166 0.11329 0.0
H445 H 0.57243 0.55969 0.28508 0.0
H446 H 0.62865 0.66169 0.16944 0.0
H447 H 0.55351 0.47762 0.18736 0.0
H448 H 0.54507 0.4876 0.25589 0.0
H449 H 0.49859 0.46881 0.11353 0.0
H450 H 0.3694 0.40017 0.17009 0.0
H451 H 0.47303 0.45692 0.2858 0.0
C452 C 0.57227 0.55437 0.14635 0.0
C453 C 0.59554 0.59825 0.13516 0.0
C454 C 0.56133 0.53994 0.20035 0.0
C455 C 0.57687 0.57028 0.24317 0.0
C456 C 0.60102 0.6142 0.23199 0.0
C457 C 0.60839 0.62787 0.17794 0.0
C458 C 0.53921 0.49256 0.21274 0.0
C459 C 0.49149 0.46943 0.20102 0.0
C460 C 0.47632 0.45942 0.1469 0.0
C461 C 0.43232 0.43534 0.13583 0.0
C462 C 0.40327 0.4209 0.17877 0.0
C463 C 0.41768 0.42783 0.23281 0.0
C464 C 0.46178 0.45277 0.244 0.0
H465 H 0.52242 0.96136 0.10233 0.0
H466 H 0.53903 0.95527 0.27514 0.0
H467 H 0.64827 0.02331 0.17155 0.0
H468 H 0.46251 0.9087 0.16498 0.0
H469 H 0.46834 0.91733 0.23702 0.0
H470 H 0.46449 0.9675 0.1042 0.0
H471 H 0.40701 0.03377 0.17445 0.0
H472 H 0.43854 0.95691 0.27599 0.0
C473 C 0.5428 0.97168 0.13814 0.0
C474 C 0.58721 0.9961 0.13162 0.0
C475 C 0.52493 0.95922 0.19034 0.0
C476 C 0.55232 0.96763 0.23542 0.0
C477 C 0.59688 0.99027 0.22866 0.0
C478 C 0.61391 1.00673 0.17732 0.0
C479 C 0.47689 0.9339 0.19709 0.0
C480 C 0.45784 0.96242 0.19174 0.0
C481 C 0.45509 0.97777 0.14023 0.0
C482 C 0.43782 1.00437 0.1343 0.0
C483 C 0.42262 0.01522 0.18005 0.0
C484 C 0.42072 0.99655 0.23072 0.0
C485 C 0.43964 0.97121 0.23692 0.0
H486 H 0.45572 0.95191 0.87626 0.0
H487 H 0.45135 0.97897 0.7056 0.0
H488 H 0.3925 0.01866 0.82544 0.0
H489 H 0.45951 0.90606 0.79745 0.0
H490 H 0.47139 0.92779 0.73077 0.0
H491 H 0.51498 0.94495 0.87511 0.0
H492 H 0.64253 0.99144 0.8195 0.0
H493 H 0.54496 0.97394 0.70464 0.0
C494 C 0.4476 0.96688 0.84403 0.0
C495 C 0.42443 0.98702 0.85663 0.0
C496 C 0.45823 0.96432 0.78944 0.0
C497 C 0.44513 0.98228 0.7479 0.0
C498 C 0.4207 1.00114 0.7609 0.0
C499 C 0.41127 1.00393 0.81522 0.0
C500 C 0.4769 0.93661 0.77473 0.0
C501 C 0.52407 0.95693 0.78819 0.0
C502 C 0.53763 0.95633 0.84208 0.0
C503 C 0.58038 0.96875 0.85295 0.0
C504 C 0.6094 0.98156 0.8105 0.0
C505 C 0.59726 0.98452 0.7574 0.0
C506 C 0.55465 0.97278 0.74613 0.0
H507 H 0.08761 0.51572 0.87626 0.0
H508 H 0.05846 0.48418 0.70533 0.0
H509 H 0.04223 0.38806 0.82007 0.0
H510 H 0.12594 0.571 0.7991 0.0
H511 H 0.10413 0.55805 0.732 0.0
H512 H 0.07823 0.57295 0.87699 0.0
H513 H 0.01226 0.63657 0.82465 0.0
H514 H 0.05416 0.57916 0.70537 0.0
C515 C 0.07636 0.49285 0.84305 0.0
C516 C 0.06448 0.45035 0.85382 0.0
C517 C 0.07523 0.50582 0.78917 0.0
C518 C 0.05989 0.47495 0.74686 0.0
C519 C 0.04876 0.43265 0.75801 0.0
C520 C 0.05201 0.42107 0.81117 0.0
C521 C 0.0954 0.55281 0.77581 0.0
C522 C 0.06759 0.57158 0.78964 0.0
C523 C 0.06382 0.58137 0.84429 0.0
C524 C 0.04333 0.60425 0.85652 0.0
C525 C 0.0272 0.61795 0.81468 0.0
C526 C 0.03096 0.60915 0.7603 0.0
C527 C 0.05017 0.58496 0.74763 0.0
H528 H 0.48743 0.4802 0.88636 0.0
H529 H 0.47707 0.45102 0.71558 0.0
H530 H 0.36432 0.39881 0.81439 0.0
H531 H 0.54745 0.48213 0.83003 0.0
H532 H 0.54485 0.48351 0.75781 0.0
H533 H 0.54952 0.54226 0.88605 0.0
H534 H 0.6306 0.66449 0.81488 0.0
H535 H 0.57732 0.55088 0.71543 0.0
C536 C 0.46784 0.46713 0.85013 0.0
C537 C 0.42336 0.44146 0.85562 0.0
C538 C 0.48739 0.47205 0.79932 0.0
C539 C 0.46192 0.45007 0.75388 0.0
C540 C 0.41759 0.42311 0.7592 0.0
C541 C 0.39824 0.4211 0.80941 0.0
C542 C 0.53544 0.49334 0.7958 0.0
C543 C 0.55723 0.54142 0.7992 0.0
C544 C 0.5624 0.56147 0.84994 0.0
C545 C 0.58836 0.60588 0.85569 0.0
C546 C 0.60823 0.63056 0.80965 0.0
C547 C 0.60557 0.61082 0.75923 0.0
C548 C 0.57869 0.5664 0.75378 0.0
H549 H 0.72821 0.89823 0.44071 0.0
H550 H 0.73658 0.92485 0.61258 0.0
H551 H 0.66088 0.95577 0.50725 0.0
H552 H 0.78624 0.89991 0.50491 0.0
H553 H 0.77615 0.89419 0.57642 0.0
H554 H 0.73393 0.84087 0.43969 0.0
H555 H 0.67097 0.71481 0.50491 0.0
H556 H 0.73856 0.82323 0.61229 0.0
C557 C 0.71729 0.90751 0.47619 0.0
C558 C 0.69062 0.92459 0.46881 0.0
C559 C 0.73173 0.90471 0.52851 0.0
C560 C 0.72265 0.92343 0.57291 0.0
C561 C 0.69762 0.94254 0.56522 0.0
C562 C 0.67933 0.94017 0.51385 0.0
C563 C 0.76035 0.88588 0.53565 0.0
C564 C 0.73542 0.83789 0.52762 0.0
C565 C 0.72315 0.82036 0.4749 0.0
C566 C 0.69854 0.77613 0.46697 0.0
C567 C 0.68758 0.74909 0.51182 0.0
C568 C 0.7038 0.76571 0.56387 0.0
C569 C 0.72647 0.81021 0.57204 0.0
H570 H 0.23077 0.86499 0.44664 0.0
H571 H 0.23912 0.89302 0.61842 0.0
H572 H 0.29535 0.99502 0.50277 0.0
H573 H 0.22018 0.81095 0.52071 0.0
H574 H 0.21175 0.82093 0.58924 0.0
H575 H 0.16527 0.80215 0.44687 0.0
H576 H 0.03608 0.73353 0.50343 0.0
H577 H 0.13971 0.79026 0.61915 0.0
C578 C 0.23896 0.8877 0.47969 0.0
C579 C 0.26224 0.93158 0.4685 0.0
C580 C 0.22801 0.87327 0.53369 0.0
C581 C 0.24356 0.90361 0.57651 0.0
C582 C 0.26771 0.94753 0.56533 0.0
C583 C 0.27509 0.9612 0.51128 0.0
C584 C 0.20589 0.82589 0.54609 0.0
C585 C 0.15818 0.80277 0.53437 0.0
C586 C 0.143 0.79276 0.48025 0.0
C587 C 0.099 0.7687 0.46917 0.0
C588 C 0.06995 0.75426 0.51211 0.0
C589 C 0.08436 0.76119 0.56615 0.0
C590 C 0.12846 0.78611 0.57735 0.0
H591 H 0.18907 0.2947 0.43567 0.0
H592 H 0.20568 0.28859 0.60848 0.0
H593 H 0.31493 0.35662 0.50489 0.0
H594 H 0.12916 0.24205 0.49832 0.0
H595 H 0.13499 0.25067 0.57036 0.0
H596 H 0.13116 0.30086 0.43755 0.0
H597 H 0.07369 0.36714 0.50779 0.0
H598 H 0.1052 0.29026 0.60933 0.0
C599 C 0.20946 0.30501 0.47148 0.0
C600 C 0.25386 0.32942 0.46496 0.0
C601 C 0.19158 0.29255 0.52368 0.0
C602 C 0.21897 0.30096 0.56876 0.0
C603 C 0.26353 0.32359 0.562 0.0
C604 C 0.28057 0.34005 0.51066 0.0
C605 C 0.14354 0.26724 0.53043 0.0
C606 C 0.12451 0.29578 0.52508 0.0
C607 C 0.12176 0.31113 0.47358 0.0
C608 C 0.1045 0.33773 0.46764 0.0
C609 C 0.08929 0.34859 0.51339 0.0
C610 C 0.08739 0.32991 0.56407 0.0
C611 C 0.1063 0.30457 0.57026 0.0
loop_
_geom_bond_atom_site_label_1
_geom_bond_atom_site_label_2
_geom_bond_distance
_geom_bond_site_symmetry_2
_ccdc_geom_bond_type
In0 O1 2.294 1_455 S
In0 O2 2.326 . S
In0 O6 2.266 1_455 S
In0 O7 2.326 1_454 S
In0 O8 2.266 1_554 S
In0 O9 2.326 1_454 S
In0 O11 2.294 . S
In0 O12 2.326 . S
O1 In0 2.294 1_655 S
O1 C10 1.240 1_655 S
O2 In0 2.326 . S
O2 C10 1.252 . S
C3 O6 1.252 1_556 S
C3 O7 1.260 . S
C4 O11 1.240 . S
C4 O12 1.252 . S
C5 O8 1.249 . S
C5 O9 1.262 1_455 S
O6 In0 2.266 1_655 S
O6 C3 1.252 1_554 S
O7 In0 2.326 1_656 S
O7 C3 1.260 . S
O8 In0 2.266 1_556 S
O8 C5 1.249 . S
O9 In0 2.326 1_656 S
O9 C5 1.262 1_655 S
C10 O1 1.240 1_455 S
C10 O2 1.252 . S
O11 In0 2.294 . S
O11 C4 1.240 . S
O12 In0 2.326 . S
O12 C4 1.252 . S
In13 O14 2.294 . S
In13 O15 2.326 . S
In13 O19 2.266 . S
In13 O20 2.326 1_554 S
In13 O21 2.266 1_554 S
In13 O22 2.326 1_554 S
In13 O24 2.294 . S
In13 O25 2.326 . S
O14 In13 2.294 . S
O14 C23 1.240 . S
O15 In13 2.326 . S
O15 C23 1.252 . S
C16 O19 1.252 1_556 S
C16 O20 1.260 . S
C17 O24 1.240 . S
C17 O25 1.252 . S
C18 O21 1.252 . S
C18 O22 1.260 . S
O19 In13 2.266 . S
O19 C16 1.252 1_554 S
O20 In13 2.326 1_556 S
O20 C16 1.260 . S
O21 In13 2.266 1_556 S
O21 C18 1.252 . S
O22 In13 2.326 1_556 S
O22 C18 1.260 . S
C23 O14 1.240 . S
C23 O15 1.252 . S
O24 In13 2.294 . S
O24 C17 1.240 . S
O25 In13 2.326 . S
O25 C17 1.252 . S
In26 O27 2.294 . S
In26 O28 2.326 1_554 S
In26 O32 2.266 . S
In26 O33 2.326 1_545 S
In26 O34 2.266 1_545 S
In26 O35 2.326 1_545 S
In26 O37 2.294 1_544 S
In26 O38 2.326 1_554 S
O27 In26 2.294 . S
O27 C36 1.240 1_554 S
O28 In26 2.326 1_556 S
O28 C36 1.252 . S
C29 O32 1.283 . S
C29 O33 1.240 1_545 S
C30 O37 1.240 1_545 S
C30 O38 1.252 . S
C31 O34 1.252 . S
C31 O35 1.260 . S
O32 In26 2.266 . S
O32 C29 1.283 . S
O33 In26 2.326 1_565 S
O33 C29 1.240 1_565 S
O34 In26 2.266 1_565 S
O34 C31 1.252 . S
O35 In26 2.326 1_565 S
O35 C31 1.260 . S
C36 O27 1.240 1_556 S
C36 O28 1.252 . S
O37 In26 2.294 1_566 S
O37 C30 1.240 1_565 S
O38 In26 2.326 1_556 S
O38 C30 1.252 . S
In39 O40 2.294 1_554 S
In39 O41 2.326 1_454 S
In39 O45 2.266 . S
In39 O46 2.326 . S
In39 O47 2.266 1_455 S
In39 O48 2.326 . S
In39 O50 2.294 1_455 S
In39 O51 2.326 1_454 S
O40 In39 2.294 1_556 S
O40 C49 1.239 . S
O41 In39 2.326 1_656 S
O41 C49 1.254 1_655 S
C42 O45 1.252 . S
C42 O46 1.260 . S
C43 O50 1.240 1_556 S
C43 O51 1.252 . S
C44 O47 1.252 1_455 S
C44 O48 1.260 . S
O45 In39 2.266 . S
O45 C42 1.252 . S
O46 In39 2.326 . S
O46 C42 1.260 . S
O47 In39 2.266 1_655 S
O47 C44 1.252 1_655 S
O48 In39 2.326 . S
O48 C44 1.260 . S
C49 O40 1.239 . S
C49 O41 1.254 1_455 S
O50 In39 2.294 1_655 S
O50 C43 1.240 1_554 S
O51 In39 2.326 1_656 S
O51 C43 1.252 . S
In52 O53 2.294 1_554 S
In52 O54 2.326 1_554 S
In52 O58 2.266 . S
In52 O59 2.326 . S
In52 O60 2.266 . S
In52 O61 2.326 . S
In52 O63 2.294 . S
In52 O64 2.326 1_554 S
O53 In52 2.294 1_556 S
O53 C62 1.240 . S
O54 In52 2.326 1_556 S
O54 C62 1.252 . S
C55 O58 1.252 . S
C55 O59 1.260 . S
C56 O63 1.240 1_556 S
C56 O64 1.252 . S
C57 O60 1.252 . S
C57 O61 1.260 . S
O58 In52 2.266 . S
O58 C55 1.252 . S
O59 In52 2.326 . S
O59 C55 1.260 . S
O60 In52 2.266 . S
O60 C57 1.252 . S
O61 In52 2.326 . S
O61 C57 1.260 . S
C62 O53 1.240 . S
C62 O54 1.252 . S
O63 In52 2.294 . S
O63 C56 1.240 1_554 S
O64 In52 2.326 1_556 S
O64 C56 1.252 . S
In65 O66 2.294 . S
In65 O67 2.326 1_545 S
In65 O71 2.266 . S
In65 O72 2.326 1_554 S
In65 O73 2.266 1_544 S
In65 O74 2.326 1_554 S
In65 O76 2.294 1_545 S
In65 O77 2.326 1_545 S
O66 In65 2.294 . S
O66 C75 1.240 . S
O67 In65 2.326 1_565 S
O67 C75 1.252 1_565 S
C68 O71 1.252 1_556 S
C68 O72 1.260 . S
C69 O76 1.240 . S
C69 O77 1.252 . S
C70 O73 1.252 1_545 S
C70 O74 1.260 . S
O71 In65 2.266 . S
O71 C68 1.252 1_554 S
O72 In65 2.326 1_556 S
O72 C68 1.260 . S
O73 In65 2.266 1_566 S
O73 C70 1.252 1_565 S
O74 In65 2.326 1_556 S
O74 C70 1.260 . S
C75 O66 1.240 . S
C75 O67 1.252 1_545 S
O76 In65 2.294 1_565 S
O76 C69 1.240 . S
O77 In65 2.326 1_565 S
O77 C69 1.252 . S
In78 O79 2.294 . S
In78 O80 2.326 . S
In78 O84 2.266 . S
In78 O85 2.326 . S
In78 O86 2.266 . S
In78 O87 2.326 . S
In78 O89 2.294 . S
In78 O90 2.326 . S
O79 In78 2.294 . S
O79 C88 1.240 . S
O80 In78 2.326 . S
O80 C88 1.252 . S
C81 O84 1.252 . S
C81 O85 1.260 . S
C82 O89 1.240 . S
C82 O90 1.252 . S
C83 O86 1.252 . S
C83 O87 1.260 . S
O84 In78 2.266 . S
O84 C81 1.252 . S
O85 In78 2.326 . S
O85 C81 1.260 . S
O86 In78 2.266 . S
O86 C83 1.252 . S
O87 In78 2.326 . S
O87 C83 1.260 . S
C88 O79 1.240 . S
C88 O80 1.252 . S
O89 In78 2.294 . S
O89 C82 1.240 . S
O90 In78 2.326 . S
O90 C82 1.252 . S
In91 O92 2.294 . S
In91 O93 2.326 . S
In91 O97 2.266 . S
In91 O98 2.326 1_565 S
In91 O99 2.266 . S
In91 O100 2.326 . S
In91 O102 2.294 1_565 S
In91 O103 2.326 1_565 S
O92 In91 2.294 . S
O92 C101 1.240 . S
O93 In91 2.326 . S
O93 C101 1.252 . S
C94 O97 1.254 . S
C94 O98 1.257 1_565 S
C95 O102 1.240 . S
C95 O103 1.252 . S
C96 O99 1.252 . S
C96 O100 1.260 . S
O97 In91 2.266 . S
O97 C94 1.254 . S
O98 In91 2.326 1_545 S
O98 C94 1.257 1_545 S
O99 In91 2.266 . S
O99 C96 1.252 . S
O100 In91 2.326 . S
O100 C96 1.260 . S
C101 O92 1.240 . S
C101 O93 1.252 . S
O102 In91 2.294 1_545 S
O102 C95 1.240 . S
O103 In91 2.326 1_545 S
O103 C95 1.252 . S
In104 O105 2.294 . S
In104 O106 2.326 1_455 S
In104 O110 2.266 . S
In104 O111 2.326 . S
In104 O112 2.266 1_455 S
In104 O113 2.326 1_455 S
In104 O115 2.294 . S
In104 O116 2.326 . S
O105 In104 2.294 . S
O105 C114 1.240 . S
O106 In104 2.326 1_655 S
O106 C114 1.252 1_655 S
C107 O110 1.252 . S
C107 O111 1.260 . S
C108 O115 1.240 . S
C108 O116 1.252 . S
C109 O112 1.252 . S
C109 O113 1.260 . S
O110 In104 2.266 . S
O110 C107 1.252 . S
O111 In104 2.326 . S
O111 C107 1.260 . S
O112 In104 2.266 1_655 S
O112 C109 1.252 . S
O113 In104 2.326 1_655 S
O113 C109 1.260 . S
C114 O105 1.240 . S
C114 O106 1.252 1_455 S
O115 In104 2.294 . S
O115 C108 1.240 . S
O116 In104 2.326 . S
O116 C108 1.252 . S
In117 O118 2.294 . S
In117 O119 2.326 . S
In117 O123 2.266 1_565 S
In117 O124 2.326 1_565 S
In117 O125 2.266 . S
In117 O126 2.326 . S
In117 O128 2.294 . S
In117 O129 2.326 1_565 S
O118 In117 2.294 . S
O118 C127 1.240 . S
O119 In117 2.326 . S
O119 C127 1.252 . S
C120 O123 1.252 . S
C120 O124 1.260 . S
C121 O128 1.240 . S
C121 O129 1.252 1_565 S
C122 O125 1.252 . S
C122 O126 1.260 . S
O123 In117 2.266 1_545 S
O123 C120 1.252 . S
O124 In117 2.326 1_545 S
O124 C120 1.260 . S
O125 In117 2.266 . S
O125 C122 1.252 . S
O126 In117 2.326 . S
O126 C122 1.260 . S
C127 O118 1.240 . S
C127 O119 1.252 . S
O128 In117 2.294 . S
O128 C121 1.240 . S
O129 In117 2.326 1_545 S
O129 C121 1.252 1_545 S
In130 O131 2.294 . S
In130 O132 2.326 . S
In130 O136 2.266 1_455 S
In130 O137 2.326 1_455 S
In130 O138 2.266 . S
In130 O139 2.326 . S
In130 O141 2.294 . S
In130 O142 2.326 1_455 S
O131 In130 2.294 . S
O131 C140 1.240 . S
O132 In130 2.326 . S
O132 C140 1.252 . S
C133 O136 1.252 . S
C133 O137 1.260 . S
C134 O141 1.240 . S
C134 O142 1.252 1_455 S
C135 O138 1.252 . S
C135 O139 1.260 . S
O136 In130 2.266 1_655 S
O136 C133 1.252 . S
O137 In130 2.326 1_655 S
O137 C133 1.260 . S
O138 In130 2.266 . S
O138 C135 1.252 . S
O139 In130 2.326 . S
O139 C135 1.260 . S
C140 O131 1.240 . S
C140 O132 1.252 . S
O141 In130 2.294 . S
O141 C134 1.240 . S
O142 In130 2.326 1_655 S
O142 C134 1.252 1_655 S
In143 O144 2.294 . S
In143 O145 2.326 . S
In143 O149 2.266 . S
In143 O150 2.326 . S
In143 O151 2.266 . S
In143 O152 2.326 . S
In143 O154 2.294 . S
In143 O155 2.326 . S
O144 In143 2.294 . S
O144 C153 1.240 . S
O145 In143 2.326 . S
O145 C153 1.252 . S
C146 O149 1.252 . S
C146 O150 1.260 . S
C147 O154 1.240 . S
C147 O155 1.252 . S
C148 O151 1.252 . S
C148 O152 1.260 . S
O149 In143 2.266 . S
O149 C146 1.252 . S
O150 In143 2.326 . S
O150 C146 1.260 . S
O151 In143 2.266 . S
O151 C148 1.252 . S
O152 In143 2.326 . S
O152 C148 1.260 . S
C153 O144 1.240 . S
C153 O145 1.252 . S
O154 In143 2.294 . S
O154 C147 1.240 . S
O155 In143 2.326 . S
O155 C147 1.252 . S
In156 O157 2.294 . S
In156 O158 2.326 1_545 S
In156 O162 2.266 . S
In156 O163 2.326 . S
In156 O164 2.266 1_545 S
In156 O165 2.326 1_545 S
In156 O167 2.294 . S
In156 O168 2.326 . S
O157 In156 2.294 . S
O157 C166 1.240 . S
O158 In156 2.326 1_565 S
O158 C166 1.252 1_565 S
C159 O162 1.252 . S
C159 O163 1.260 . S
C160 O167 1.240 . S
C160 O168 1.252 . S
C161 O164 1.252 . S
C161 O165 1.260 . S
O162 In156 2.266 . S
O162 C159 1.252 . S
O163 In156 2.326 . S
O163 C159 1.260 . S
O164 In156 2.266 1_565 S
O164 C161 1.252 . S
O165 In156 2.326 1_565 S
O165 C161 1.260 . S
C166 O157 1.240 . S
C166 O158 1.252 1_545 S
O167 In156 2.294 . S
O167 C160 1.240 . S
O168 In156 2.326 . S
O168 C160 1.252 . S
In169 O170 2.294 . S
In169 O171 2.326 1_655 S
In169 O175 2.266 . S
In169 O176 2.326 . S
In169 O177 2.266 1_655 S
In169 O178 2.326 1_655 S
In169 O180 2.294 . S
In169 O181 2.326 . S
O170 In169 2.294 . S
O170 C179 1.252 . S
O171 In169 2.326 1_455 S
O171 C179 1.233 1_455 S
C172 O175 1.252 . S
C172 O176 1.260 . S
C173 O180 1.240 . S
C173 O181 1.252 . S
C174 O177 1.252 . S
C174 O178 1.260 . S
O175 In169 2.266 . S
O175 C172 1.252 . S
O176 In169 2.326 . S
O176 C172 1.260 . S
O177 In169 2.266 1_455 S
O177 C174 1.252 . S
O178 In169 2.326 1_455 S
O178 C174 1.260 . S
C179 O170 1.252 . S
C179 O171 1.233 1_655 S
O180 In169 2.294 . S
O180 C173 1.240 . S
O181 In169 2.326 . S
O181 C173 1.252 . S
In182 O183 2.294 . S
In182 O184 2.326 . S
In182 O188 2.266 . S
In182 O189 2.326 . S
In182 O190 2.266 . S
In182 O191 2.326 . S
In182 O193 2.294 . S
In182 O194 2.326 . S
O183 In182 2.294 . S
O183 C192 1.240 . S
O184 In182 2.326 . S
O184 C192 1.252 . S
C185 O188 1.252 . S
C185 O189 1.260 . S
C186 O193 1.240 . S
C186 O194 1.252 . S
C187 O190 1.252 . S
C187 O191 1.260 . S
O188 In182 2.266 . S
O188 C185 1.252 . S
O189 In182 2.326 . S
O189 C185 1.260 . S
O190 In182 2.266 . S
O190 C187 1.252 . S
O191 In182 2.326 . S
O191 C187 1.260 . S
C192 O183 1.240 . S
C192 O184 1.252 . S
O193 In182 2.294 . S
O193 C186 1.240 . S
O194 In182 2.326 . S
O194 C186 1.252 . S
In195 O196 2.294 . S
In195 O197 2.326 . S
In195 O201 2.266 . S
In195 O202 2.326 . S
In195 O203 2.266 . S
In195 O204 2.326 . S
In195 O206 2.294 . S
In195 O207 2.326 . S
O196 In195 2.294 . S
O196 C205 1.240 . S
O197 In195 2.326 . S
O197 C205 1.252 . S
C198 O201 1.252 . S
C198 O202 1.260 . S
C199 O206 1.240 . S
C199 O207 1.252 . S
C200 O203 1.252 . S
C200 O204 1.260 . S
O201 In195 2.266 . S
O201 C198 1.252 . S
O202 In195 2.326 . S
O202 C198 1.260 . S
O203 In195 2.266 . S
O203 C200 1.252 . S
O204 In195 2.326 . S
O204 C200 1.260 . S
C205 O196 1.240 . S
C205 O197 1.252 . S
O206 In195 2.294 . S
O206 C199 1.240 . S
O207 In195 2.326 . S
O207 C199 1.252 . S
In208 O209 2.294 . S
In208 O210 2.326 . S
In208 O214 2.266 . S
In208 O215 2.326 1_545 S
In208 O216 2.266 . S
In208 O217 2.326 . S
In208 O219 2.294 1_545 S
In208 O220 2.326 1_545 S
O209 In208 2.294 . S
O209 C218 1.240 . S
O210 In208 2.326 . S
O210 C218 1.252 . S
C211 O214 1.252 . S
C211 O215 1.260 1_545 S
C212 O219 1.240 . S
C212 O220 1.252 . S
C213 O216 1.252 . S
C213 O217 1.260 . S
O214 In208 2.266 . S
O214 C211 1.252 . S
O215 In208 2.326 1_565 S
O215 C211 1.260 1_565 S
O216 In208 2.266 . S
O216 C213 1.252 . S
O217 In208 2.326 . S
O217 C213 1.260 . S
C218 O209 1.240 . S
C218 O210 1.252 . S
O219 In208 2.294 1_565 S
O219 C212 1.240 . S
O220 In208 2.326 1_565 S
O220 C212 1.252 . S
In221 O222 2.294 . S
In221 O223 2.326 1_655 S
In221 O227 2.266 . S
In221 O228 2.326 . S
In221 O229 2.266 1_655 S
In221 O230 2.326 1_655 S
In221 O232 2.294 . S
In221 O233 2.326 . S
O222 In221 2.294 . S
O222 C231 1.240 . S
O223 In221 2.326 1_455 S
O223 C231 1.252 1_455 S
C224 O227 1.252 . S
C224 O228 1.260 . S
C225 O232 1.240 . S
C225 O233 1.252 . S
C226 O229 1.252 . S
C226 O230 1.260 . S
O227 In221 2.266 . S
O227 C224 1.252 . S
O228 In221 2.326 . S
O228 C224 1.260 . S
O229 In221 2.266 1_455 S
O229 C226 1.252 . S
O230 In221 2.326 1_455 S
O230 C226 1.260 . S
C231 O222 1.240 . S
C231 O223 1.252 1_655 S
O232 In221 2.294 . S
O232 C225 1.240 . S
O233 In221 2.326 . S
O233 C225 1.252 . S
H234 C242 0.930 . S
H235 C245 0.930 . S
H236 C247 0.930 . S
H237 C248 0.970 . S
H238 C248 0.970 . S
H239 C250 0.930 . S
H240 C252 0.930 . S
H241 C254 0.930 . S
C242 H234 0.930 . S
C242 C243 1.382 . S
C242 C244 1.426 . S
C243 C242 1.382 . S
C243 C247 1.389 . S
C244 C242 1.426 . S
C244 C245 1.375 . S
C244 C248 1.532 . S
C245 H235 0.930 . S
C245 C244 1.375 . S
C245 C246 1.416 . S
C246 C245 1.416 . S
C246 C247 1.371 . S
C247 H236 0.930 . S
C247 C243 1.389 . S
C247 C246 1.371 . S
C248 H237 0.970 . S
C248 H238 0.970 . S
C248 C244 1.532 . S
C248 C249 1.499 . S
C249 C248 1.499 . S
C249 C250 1.370 . S
C249 C254 1.415 . S
C250 H239 0.930 . S
C250 C249 1.370 . S
C250 C251 1.407 . S
C251 C250 1.407 . S
C251 C252 1.365 . S
C252 H240 0.930 . S
C252 C251 1.365 . S
C252 C253 1.393 . S
C253 C252 1.393 . S
C253 C254 1.387 . S
C254 H241 0.930 . S
C254 C249 1.415 . S
C254 C253 1.387 . S
H255 C263 0.930 . S
H256 C266 0.930 . S
H257 C268 0.930 . S
H258 C269 0.970 . S
H259 C269 0.970 . S
H260 C271 0.930 . S
H261 C273 0.930 . S
H262 C275 0.930 . S
C263 H255 0.930 . S
C263 C264 1.382 . S
C263 C265 1.426 . S
C264 C263 1.382 . S
C264 C268 1.389 . S
C265 C263 1.426 . S
C265 C266 1.375 . S
C265 C269 1.532 . S
C266 H256 0.930 . S
C266 C265 1.375 . S
C266 C267 1.416 . S
C267 C266 1.416 . S
C267 C268 1.371 . S
C268 H257 0.930 . S
C268 C264 1.389 . S
C268 C267 1.371 . S
C269 H258 0.970 . S
C269 H259 0.970 . S
C269 C265 1.532 . S
C269 C270 1.499 . S
C270 C269 1.499 . S
C270 C271 1.370 . S
C270 C275 1.415 . S
C271 H260 0.930 . S
C271 C270 1.370 . S
C271 C272 1.407 . S
C272 C271 1.407 . S
C272 C273 1.365 . S
C273 H261 0.930 . S
C273 C272 1.365 . S
C273 C274 1.393 . S
C274 C273 1.393 . S
C274 C275 1.387 . S
C275 H262 0.930 . S
C275 C270 1.415 . S
C275 C274 1.387 . S
H276 C284 0.930 . S
H277 C287 0.930 . S
H278 C289 0.930 . S
H279 C290 0.970 . S
H280 C290 0.970 . S
H281 C292 0.930 . S
H282 C294 0.930 . S
H283 C296 0.930 . S
C284 H276 0.930 . S
C284 C285 1.382 . S
C284 C286 1.426 . S
C285 C284 1.382 . S
C285 C289 1.389 . S
C286 C284 1.426 . S
C286 C287 1.375 . S
C286 C290 1.532 . S
C287 H277 0.930 . S
C287 C286 1.375 . S
C287 C288 1.416 . S
C288 C287 1.416 . S
C288 C289 1.371 . S
C289 H278 0.930 . S
C289 C285 1.389 . S
C289 C288 1.371 . S
C290 H279 0.970 . S
C290 H280 0.970 . S
C290 C286 1.532 . S
C290 C291 1.499 . S
C291 C290 1.499 . S
C291 C292 1.370 . S
C291 C296 1.415 . S
C292 H281 0.930 . S
C292 C291 1.370 . S
C292 C293 1.407 . S
C293 C292 1.407 . S
C293 C294 1.365 . S
C294 H282 0.930 . S
C294 C293 1.365 . S
C294 C295 1.393 . S
C295 C294 1.393 . S
C295 C296 1.387 . S
C296 H283 0.930 . S
C296 C291 1.415 . S
C296 C295 1.387 . S
H297 C305 0.930 . S
H298 C308 0.930 . S
H299 C310 0.930 . S
H300 C311 0.970 . S
H301 C311 0.970 . S
H302 C313 0.930 . S
H303 C315 0.930 . S
H304 C317 0.930 . S
C305 H297 0.930 . S
C305 C306 1.382 . S
C305 C307 1.426 . S
C306 C305 1.382 . S
C306 C310 1.389 . S
C307 C305 1.426 . S
C307 C308 1.375 . S
C307 C311 1.532 . S
C308 H298 0.930 . S
C308 C307 1.375 . S
C308 C309 1.416 . S
C309 C308 1.416 . S
C309 C310 1.371 . S
C310 H299 0.930 . S
C310 C306 1.389 . S
C310 C309 1.371 . S
C311 H300 0.970 . S
C311 H301 0.970 . S
C311 C307 1.532 . S
C311 C312 1.499 . S
C312 C311 1.499 . S
C312 C313 1.370 . S
C312 C317 1.415 . S
C313 H302 0.930 . S
C313 C312 1.370 . S
C313 C314 1.407 . S
C314 C313 1.407 . S
C314 C315 1.365 . S
C315 H303 0.930 . S
C315 C314 1.365 . S
C315 C316 1.393 . S
C316 C315 1.393 . S
C316 C317 1.387 . S
C317 H304 0.930 . S
C317 C312 1.415 . S
C317 C316 1.387 . S
H318 C326 0.930 . S
H319 C329 0.930 . S
H320 C331 0.930 . S
H321 C332 0.970 . S
H322 C332 0.970 . S
H323 C334 0.930 . S
H324 C336 0.930 . S
H325 C338 0.930 . S
C326 H318 0.930 . S
C326 C327 1.382 . S
C326 C328 1.426 . S
C327 C326 1.382 . S
C327 C331 1.389 . S
C328 C326 1.426 . S
C328 C329 1.375 . S
C328 C332 1.532 . S
C329 H319 0.930 . S
C329 C328 1.375 . S
C329 C330 1.416 . S
C330 C329 1.416 . S
C330 C331 1.371 . S
C331 H320 0.930 . S
C331 C327 1.389 . S
C331 C330 1.371 . S
C332 H321 0.970 . S
C332 H322 0.970 . S
C332 C328 1.532 . S
C332 C333 1.499 . S
C333 C332 1.499 . S
C333 C334 1.370 . S
C333 C338 1.415 . S
C334 H323 0.930 . S
C334 C333 1.370 . S
C334 C335 1.407 . S
C335 C334 1.407 . S
C335 C336 1.365 . S
C336 H324 0.930 . S
C336 C335 1.365 . S
C336 C337 1.393 . S
C337 C336 1.393 . S
C337 C338 1.387 . S
C338 H325 0.930 . S
C338 C333 1.415 . S
C338 C337 1.387 . S
H339 C347 0.930 . S
H340 C350 0.930 . S
H341 C352 0.930 . S
H342 C353 0.970 . S
H343 C353 0.970 . S
H344 C355 0.930 . S
H345 C357 0.930 . S
H346 C359 0.930 . S
C347 H339 0.930 . S
C347 C348 1.382 . S
C347 C349 1.426 . S
C348 C347 1.382 . S
C348 C352 1.389 . S
C349 C347 1.426 . S
C349 C350 1.375 . S
C349 C353 1.532 . S
C350 H340 0.930 . S
C350 C349 1.375 . S
C350 C351 1.416 . S
C351 C350 1.416 . S
C351 C352 1.371 . S
C352 H341 0.930 . S
C352 C348 1.389 . S
C352 C351 1.371 . S
C353 H342 0.970 . S
C353 H343 0.970 . S
C353 C349 1.532 . S
C353 C354 1.499 . S
C354 C353 1.499 . S
C354 C355 1.370 . S
C354 C359 1.415 . S
C355 H344 0.930 . S
C355 C354 1.370 . S
C355 C356 1.407 . S
C356 C355 1.407 . S
C356 C357 1.365 . S
C357 H345 0.930 . S
C357 C356 1.365 . S
C357 C358 1.393 . S
C358 C357 1.393 . S
C358 C359 1.387 . S
C359 H346 0.930 . S
C359 C354 1.415 . S
C359 C358 1.387 . S
H360 C368 0.930 . S
H361 C371 0.930 . S
H362 C373 0.930 . S
H363 C374 0.970 . S
H364 C374 0.970 . S
H365 C376 0.930 . S
H366 C378 0.930 . S
H367 C380 0.930 . S
C368 H360 0.930 . S
C368 C369 1.382 . S
C368 C370 1.426 . S
C369 C368 1.382 . S
C369 C373 1.389 . S
C370 C368 1.426 . S
C370 C371 1.375 . S
C370 C374 1.532 . S
C371 H361 0.930 . S
C371 C370 1.375 . S
C371 C372 1.416 . S
C372 C371 1.416 . S
C372 C373 1.371 . S
C373 H362 0.930 . S
C373 C369 1.389 . S
C373 C372 1.371 . S
C374 H363 0.970 . S
C374 H364 0.970 . S
C374 C370 1.532 . S
C374 C375 1.499 . S
C375 C374 1.499 . S
C375 C376 1.370 . S
C375 C380 1.415 . S
C376 H365 0.930 . S
C376 C375 1.370 . S
C376 C377 1.407 . S
C377 C376 1.407 . S
C377 C378 1.365 . S
C378 H366 0.930 . S
C378 C377 1.365 . S
C378 C379 1.393 . S
C379 C378 1.393 . S
C379 C380 1.387 . S
C380 H367 0.930 . S
C380 C375 1.415 . S
C380 C379 1.387 . S
H381 C389 0.930 . S
H382 C392 0.930 . S
H383 C394 0.930 . S
H384 C395 0.970 . S
H385 C395 0.970 . S
H386 C397 0.930 . S
H387 C399 0.930 . S
H388 C401 0.930 . S
C389 H381 0.930 . S
C389 C390 1.382 . S
C389 C391 1.426 . S
C390 C389 1.382 . S
C390 C394 1.389 . S
C391 C389 1.426 . S
C391 C392 1.375 . S
C391 C395 1.532 . S
C392 H382 0.930 . S
C392 C391 1.375 . S
C392 C393 1.416 . S
C393 C392 1.416 . S
C393 C394 1.371 . S
C394 H383 0.930 . S
C394 C390 1.389 . S
C394 C393 1.371 . S
C395 H384 0.970 . S
C395 H385 0.970 . S
C395 C391 1.532 . S
C395 C396 1.499 . S
C396 C395 1.499 . S
C396 C397 1.370 . S
C396 C401 1.415 . S
C397 H386 0.930 . S
C397 C396 1.370 . S
C397 C398 1.407 . S
C398 C397 1.407 . S
C398 C399 1.365 . S
C399 H387 0.930 . S
C399 C398 1.365 . S
C399 C400 1.393 . S
C400 C399 1.393 . S
C400 C401 1.387 . S
C401 H388 0.930 . S
C401 C396 1.415 . S
C401 C400 1.387 . S
H402 C410 0.930 . S
H403 C413 0.930 . S
H404 C415 0.930 . S
H405 C416 0.970 . S
H406 C416 0.970 . S
H407 C418 0.930 . S
H408 C420 0.930 . S
H409 C422 0.930 . S
C410 H402 0.930 . S
C410 C411 1.382 . S
C410 C412 1.426 . S
C411 C410 1.382 . S
C411 C415 1.389 . S
C412 C410 1.426 . S
C412 C413 1.375 . S
C412 C416 1.532 . S
C413 H403 0.930 . S
C413 C412 1.375 . S
C413 C414 1.416 . S
C414 C413 1.416 . S
C414 C415 1.371 . S
C415 H404 0.930 . S
C415 C411 1.389 . S
C415 C414 1.371 . S
C416 H405 0.970 . S
C416 H406 0.970 . S
C416 C412 1.532 . S
C416 C417 1.499 . S
C417 C416 1.499 . S
C417 C418 1.370 . S
C417 C422 1.415 . S
C418 H407 0.930 . S
C418 C417 1.370 . S
C418 C419 1.407 . S
C419 C418 1.407 . S
C419 C420 1.365 . S
C420 H408 0.930 . S
C420 C419 1.365 . S
C420 C421 1.393 . S
C421 C420 1.393 . S
C421 C422 1.387 . S
C422 H409 0.930 . S
C422 C417 1.415 . S
C422 C421 1.387 . S
H423 C431 0.930 . S
H424 C434 0.930 . S
H425 C436 0.930 1_655 S
H426 C437 0.970 . S
H427 C437 0.970 . S
H428 C439 0.930 . S
H429 C441 0.930 1_655 S
H430 C443 0.930 . S
C431 H423 0.930 . S
C431 C432 1.382 . S
C431 C433 1.426 . S
C432 C431 1.382 . S
C432 C436 1.389 . S
C433 C431 1.426 . S
C433 C434 1.375 . S
C433 C437 1.532 . S
C434 H424 0.930 . S
C434 C433 1.375 . S
C434 C435 1.416 . S
C435 C434 1.416 . S
C435 C436 1.371 . S
C436 H425 0.930 1_455 S
C436 C432 1.389 . S
C436 C435 1.371 . S
C437 H426 0.970 . S
C437 H427 0.970 . S
C437 C433 1.532 . S
C437 C438 1.499 . S
C438 C437 1.499 . S
C438 C439 1.370 . S
C438 C443 1.415 . S
C439 H428 0.930 . S
C439 C438 1.370 . S
C439 C440 1.407 . S
C440 C439 1.407 . S
C440 C441 1.365 . S
C441 H429 0.930 1_455 S
C441 C440 1.365 . S
C441 C442 1.393 . S
C442 C441 1.393 . S
C442 C443 1.387 . S
C443 H430 0.930 . S
C443 C438 1.415 . S
C443 C442 1.387 . S
H444 C452 0.930 . S
H445 C455 0.930 . S
H446 C457 0.930 . S
H447 C458 0.970 . S
H448 C458 0.970 . S
H449 C460 0.930 . S
H450 C462 0.930 . S
H451 C464 0.930 . S
C452 H444 0.930 . S
C452 C453 1.382 . S
C452 C454 1.426 . S
C453 C452 1.382 . S
C453 C457 1.389 . S
C454 C452 1.426 . S
C454 C455 1.375 . S
C454 C458 1.532 . S
C455 H445 0.930 . S
C455 C454 1.375 . S
C455 C456 1.416 . S
C456 C455 1.416 . S
C456 C457 1.371 . S
C457 H446 0.930 . S
C457 C453 1.389 . S
C457 C456 1.371 . S
C458 H447 0.970 . S
C458 H448 0.970 . S
C458 C454 1.532 . S
C458 C459 1.499 . S
C459 C458 1.499 . S
C459 C460 1.370 . S
C459 C464 1.415 . S
C460 H449 0.930 . S
C460 C459 1.370 . S
C460 C461 1.407 . S
C461 C460 1.407 . S
C461 C462 1.365 . S
C462 H450 0.930 . S
C462 C461 1.365 . S
C462 C463 1.393 . S
C463 C462 1.393 . S
C463 C464 1.387 . S
C464 H451 0.930 . S
C464 C459 1.415 . S
C464 C463 1.387 . S
H465 C473 0.930 . S
H466 C476 0.930 . S
H467 C478 0.930 . S
H468 C479 0.970 . S
H469 C479 0.970 . S
H470 C481 0.930 . S
H471 C483 0.930 . S
H472 C485 0.930 . S
C473 H465 0.930 . S
C473 C474 1.382 . S
C473 C475 1.426 . S
C474 C473 1.382 . S
C474 C478 1.389 1_565 S
C475 C473 1.426 . S
C475 C476 1.375 . S
C475 C479 1.532 . S
C476 H466 0.930 . S
C476 C475 1.375 . S
C476 C477 1.416 . S
C477 C476 1.416 . S
C477 C478 1.371 1_565 S
C478 H467 0.930 . S
C478 C474 1.389 1_545 S
C478 C477 1.371 1_545 S
C479 H468 0.970 . S
C479 H469 0.970 . S
C479 C475 1.532 . S
C479 C480 1.499 . S
C480 C479 1.499 . S
C480 C481 1.370 . S
C480 C485 1.415 . S
C481 H470 0.930 . S
C481 C480 1.370 . S
C481 C482 1.407 . S
C482 C481 1.407 . S
C482 C483 1.365 1_565 S
C483 H471 0.930 . S
C483 C482 1.365 1_545 S
C483 C484 1.393 1_545 S
C484 C483 1.393 1_565 S
C484 C485 1.387 . S
C485 H472 0.930 . S
C485 C480 1.415 . S
C485 C484 1.387 . S
H486 C494 0.930 . S
H487 C497 0.930 . S
H488 C499 0.930 . S
H489 C500 0.970 . S
H490 C500 0.970 . S
H491 C502 0.930 . S
H492 C504 0.930 . S
H493 C506 0.930 . S
C494 H486 0.930 . S
C494 C495 1.396 . S
C494 C496 1.426 . S
C495 C494 1.396 . S
C495 C499 1.380 1_565 S
C496 C494 1.426 . S
C496 C497 1.375 . S
C496 C500 1.532 . S
C497 H487 0.930 . S
C497 C496 1.375 . S
C497 C498 1.416 1_565 S
C498 C497 1.416 1_545 S
C498 C499 1.371 . S
C499 H488 0.930 . S
C499 C495 1.380 1_545 S
C499 C498 1.371 . S
C500 H489 0.970 . S
C500 H490 0.970 . S
C500 C496 1.532 . S
C500 C501 1.499 . S
C501 C500 1.499 . S
C501 C502 1.370 . S
C501 C506 1.415 . S
C502 H491 0.930 . S
C502 C501 1.370 . S
C502 C503 1.407 1_565 S
C503 C502 1.407 1_545 S
C503 C504 1.365 . S
C504 H492 0.930 . S
C504 C503 1.365 . S
C504 C505 1.393 . S
C505 C504 1.393 . S
C505 C506 1.387 1_545 S
C506 H493 0.930 . S
C506 C501 1.415 . S
C506 C505 1.387 1_565 S
H507 C515 0.930 . S
H508 C518 0.930 . S
H509 C520 0.930 . S
H510 C521 0.970 . S
H511 C521 0.970 . S
H512 C523 0.930 . S
H513 C525 0.930 . S
H514 C527 0.930 . S
C515 H507 0.930 . S
C515 C516 1.382 . S
C515 C517 1.426 . S
C516 C515 1.382 . S
C516 C520 1.389 1_455 S
C517 C515 1.426 . S
C517 C518 1.375 . S
C517 C521 1.532 . S
C518 H508 0.930 . S
C518 C517 1.375 . S
C518 C519 1.416 . S
C519 C518 1.416 . S
C519 C520 1.371 1_455 S
C520 H509 0.930 . S
C520 C516 1.389 1_655 S
C520 C519 1.371 1_655 S
C521 H510 0.970 . S
C521 H511 0.970 . S
C521 C517 1.532 . S
C521 C522 1.499 . S
C522 C521 1.499 . S
C522 C523 1.370 . S
C522 C527 1.415 . S
C523 H512 0.930 . S
C523 C522 1.370 . S
C523 C524 1.407 . S
C524 C523 1.407 . S
C524 C525 1.365 1_455 S
C525 H513 0.930 . S
C525 C524 1.365 1_655 S
C525 C526 1.393 1_655 S
C526 C525 1.393 1_455 S
C526 C527 1.387 . S
C527 H514 0.930 . S
C527 C522 1.415 . S
C527 C526 1.387 . S
H528 C536 0.930 . S
H529 C539 0.930 . S
H530 C541 0.930 . S
H531 C542 0.970 . S
H532 C542 0.970 . S
H533 C544 0.930 . S
H534 C546 0.930 . S
H535 C548 0.930 . S
C536 H528 0.930 . S
C536 C537 1.382 . S
C536 C538 1.426 . S
C537 C536 1.382 . S
C537 C541 1.389 . S
C538 C536 1.426 . S
C538 C539 1.375 . S
C538 C542 1.532 . S
C539 H529 0.930 . S
C539 C538 1.375 . S
C539 C540 1.416 . S
C540 C539 1.416 . S
C540 C541 1.371 . S
C541 H530 0.930 . S
C541 C537 1.389 . S
C541 C540 1.371 . S
C542 H531 0.970 . S
C542 H532 0.970 . S
C542 C538 1.532 . S
C542 C543 1.499 . S
C543 C542 1.499 . S
C543 C544 1.370 . S
C543 C548 1.415 . S
C544 H533 0.930 . S
C544 C543 1.370 . S
C544 C545 1.407 . S
C545 C544 1.407 . S
C545 C546 1.365 . S
C546 H534 0.930 . S
C546 C545 1.365 . S
C546 C547 1.393 . S
C547 C546 1.393 . S
C547 C548 1.387 . S
C548 H535 0.930 . S
C548 C543 1.415 . S
C548 C547 1.387 . S
H549 C557 0.930 . S
H550 C560 0.930 . S
H551 C562 0.930 . S
H552 C563 0.970 . S
H553 C563 0.970 . S
H554 C565 0.930 . S
H555 C567 0.930 . S
H556 C569 0.930 . S
C557 H549 0.930 . S
C557 C558 1.382 . S
C557 C559 1.426 . S
C558 C557 1.382 . S
C558 C562 1.389 . S
C559 C557 1.426 . S
C559 C560 1.375 . S
C559 C563 1.532 . S
C560 H550 0.930 . S
C560 C559 1.375 . S
C560 C561 1.416 . S
C561 C560 1.416 . S
C561 C562 1.371 . S
C562 H551 0.930 . S
C562 C558 1.389 . S
C562 C561 1.371 . S
C563 H552 0.970 . S
C563 H553 0.970 . S
C563 C559 1.532 . S
C563 C564 1.499 . S
C564 C563 1.499 . S
C564 C565 1.370 . S
C564 C569 1.415 . S
C565 H554 0.930 . S
C565 C564 1.370 . S
C565 C566 1.407 . S
C566 C565 1.407 . S
C566 C567 1.365 . S
C567 H555 0.930 . S
C567 C566 1.365 . S
C567 C568 1.393 . S
C568 C567 1.393 . S
C568 C569 1.387 . S
C569 H556 0.930 . S
C569 C564 1.415 . S
C569 C568 1.387 . S
H570 C578 0.930 . S
H571 C581 0.930 . S
H572 C583 0.930 . S
H573 C584 0.970 . S
H574 C584 0.970 . S
H575 C586 0.930 . S
H576 C588 0.930 . S
H577 C590 0.930 . S
C578 H570 0.930 . S
C578 C579 1.382 . S
C578 C580 1.426 . S
C579 C578 1.382 . S
C579 C583 1.389 . S
C580 C578 1.426 . S
C580 C581 1.375 . S
C580 C584 1.532 . S
C581 H571 0.930 . S
C581 C580 1.375 . S
C581 C582 1.416 . S
C582 C581 1.416 . S
C582 C583 1.371 . S
C583 H572 0.930 . S
C583 C579 1.389 . S
C583 C582 1.371 . S
C584 H573 0.970 . S
C584 H574 0.970 . S
C584 C580 1.532 . S
C584 C585 1.499 . S
C585 C584 1.499 . S
C585 C586 1.370 . S
C585 C590 1.415 . S
C586 H575 0.930 . S
C586 C585 1.370 . S
C586 C587 1.407 . S
C587 C586 1.407 . S
C587 C588 1.365 . S
C588 H576 0.930 . S
C588 C587 1.365 . S
C588 C589 1.393 . S
C589 C588 1.393 . S
C589 C590 1.387 . S
C590 H577 0.930 . S
C590 C585 1.415 . S
C590 C589 1.387 . S
H591 C599 0.930 . S
H592 C602 0.930 . S
H593 C604 0.930 . S
H594 C605 0.970 . S
H595 C605 0.970 . S
H596 C607 0.930 . S
H597 C609 0.930 . S
H598 C611 0.930 . S
C599 H591 0.930 . S
C599 C600 1.382 . S
C599 C601 1.426 . S
C600 C599 1.382 . S
C600 C604 1.389 . S
C601 C599 1.426 . S
C601 C602 1.375 . S
C601 C605 1.532 . S
C602 H592 0.930 . S
C602 C601 1.375 . S
C602 C603 1.416 . S
C603 C602 1.416 . S
C603 C604 1.371 . S
C604 H593 0.930 . S
C604 C600 1.389 . S
C604 C603 1.371 . S
C605 H594 0.970 . S
C605 H595 0.970 . S
C605 C601 1.532 . S
C605 C606 1.499 . S
C606 C605 1.499 . S
C606 C607 1.370 . S
C606 C611 1.415 . S
C607 H596 0.930 . S
C607 C606 1.370 . S
C607 C608 1.407 . S
C608 C607 1.407 . S
C608 C609 1.365 . S
C609 H597 0.930 . S
C609 C608 1.365 . S
C609 C610 1.393 . S
C610 C609 1.393 . S
C610 C611 1.387 . S
C611 H598 0.930 . S
C611 C606 1.415 . S
C611 C610 1.387 . S
C10 C440 1.678 . S
C23 C453 1.752 . S
C482 C29 1.656 1_565 S
C30 C495 1.741 1_545 S
C5 C516 1.791 . S
C18 C545 1.671 . S
C49 C524 1.708 . S
C537 C62 1.685 . S
C503 C70 1.693 . S
C75 C474 1.682 1_545 S
C432 C44 1.707 . S
C57 C461 1.699 . S
C88 C566 1.678 . S
C101 C579 1.753 . S
C608 C107 1.665 . S
C108 C243 1.747 . S
C83 C264 1.790 . S
C96 C293 1.671 . S
C127 C272 1.710 . S
C140 C285 1.685 . S
C251 C146 1.693 . S
C600 C147 1.683 . S
C558 C122 1.707 . S
C587 C135 1.699 . S
C160 C314 1.678 . S
C173 C327 1.753 . S
C185 C356 1.665 . S
C186 C369 1.747 . S
C390 C159 1.791 . S
C419 C172 1.671 . S
C398 C205 1.710 . S
C411 C218 1.685 . S
C224 C377 1.693 . S
C348 C225 1.682 . S
C200 C306 1.707 . S
C335 C213 1.699 . S
C246 C4 1.311 . S
C17 C267 1.291 . S
C295 C31 1.423 . S
C316 C36 1.400 . S
C330 C3 1.312 . S
C358 C16 1.427 . S
C43 C351 1.344 . S
C56 C309 1.328 . S
C68 C337 1.363 . S
C69 C274 1.350 . S
C288 C42 1.358 . S
C55 C253 1.368 . S
C372 C82 1.311 . S
C95 C393 1.292 . S
C109 C421 1.423 . S
C442 C114 1.399 . S
C81 C456 1.312 . S
C94 C484 1.432 . S
C121 C477 1.344 . S
C134 C435 1.328 . S
C463 C148 1.362 . S
C153 C400 1.350 . S
C120 C414 1.359 . S
C379 C133 1.367 . S
C498 C166 1.311 . S
C179 C519 1.302 1_655 S
C187 C547 1.423 . S
C568 C192 1.399 . S
C582 C161 1.312 . S
C174 C610 1.427 . S
C199 C603 1.345 . S
C212 C561 1.328 . S
C589 C226 1.363 . S
C526 C231 1.348 1_455 S
C540 C198 1.359 . S
C211 C505 1.367 . S
