# Generated by pormake.
# Topology eea, (3,6)-cn, num edge types: 1
# Building blocks:
#     Node 0, Type 0, BuildingBlock: VETTIZ_charged_linker_0, # of connection points: 3
#     Node 1, Type 0, BuildingBlock: VETTIZ_charged_linker_0, # of connection points: 3
#     Node 2, Type 0, BuildingBlock: VETTIZ_charged_linker_0, # of connection points: 3
#     Node 3, Type 0, BuildingBlock: VETTIZ_charged_linker_0, # of connection points: 3
#     Node 4, Type 0, BuildingBlock: VETTIZ_charged_linker_0, # of connection points: 3
#     Node 5, Type 0, BuildingBlock: VETTIZ_charged_linker_0, # of connection points: 3
#     Node 6, Type 0, BuildingBlock: VETTIZ_charged_linker_0, # of connection points: 3
#     Node 7, Type 0, BuildingBlock: VETTIZ_charged_linker_0, # of connection points: 3
#     Node 8, Type 0, BuildingBlock: VETTIZ_charged_linker_0, # of connection points: 3
#     Node 9, Type 0, BuildingBlock: VETTIZ_charged_linker_0, # of connection points: 3
#     Node 10, Type 0, BuildingBlock: VETTIZ_charged_linker_0, # of connection points: 3
#     Node 11, Type 0, BuildingBlock: VETTIZ_charged_linker_0, # of connection points: 3
#     Node 12, Type 0, BuildingBlock: VETTIZ_charged_linker_0, # of connection points: 3
#     Node 13, Type 0, BuildingBlock: VETTIZ_charged_linker_0, # of connection points: 3
#     Node 14, Type 0, BuildingBlock: VETTIZ_charged_linker_0, # of connection points: 3
#     Node 15, Type 0, BuildingBlock: VETTIZ_charged_linker_0, # of connection points: 3
#     Node 16, Type 0, BuildingBlock: VETTIZ_charged_linker_0, # of connection points: 3
#     Node 17, Type 0, BuildingBlock: VETTIZ_charged_linker_0, # of connection points: 3
#     Node 18, Type 1, BuildingBlock: LEVNOQ01_clean_sbu_1, # of connection points: 6
#     Node 19, Type 1, BuildingBlock: LEVNOQ01_clean_sbu_1, # of connection points: 6
#     Node 20, Type 1, BuildingBlock: LEVNOQ01_clean_sbu_1, # of connection points: 6
#     Node 21, Type 1, BuildingBlock: LEVNOQ01_clean_sbu_1, # of connection points: 6
#     Node 22, Type 1, BuildingBlock: LEVNOQ01_clean_sbu_1, # of connection points: 6
#     Node 23, Type 1, BuildingBlock: LEVNOQ01_clean_sbu_1, # of connection points: 6
#     Node 24, Type 1, BuildingBlock: LEVNOQ01_clean_sbu_1, # of connection points: 6
#     Node 25, Type 1, BuildingBlock: LEVNOQ01_clean_sbu_1, # of connection points: 6
#     Node 26, Type 1, BuildingBlock: LEVNOQ01_clean_sbu_1, # of connection points: 6
#     Edge 27, Type (0, 1), BuildingBlock: XUDNAN_clean_linker_2, # of connection points: 2
#     Edge 28, Type (0, 1), BuildingBlock: XUDNAN_clean_linker_2, # of connection points: 2
#     Edge 29, Type (0, 1), BuildingBlock: XUDNAN_clean_linker_2, # of connection points: 2
#     Edge 30, Type (0, 1), BuildingBlock: XUDNAN_clean_linker_2, # of connection points: 2
#     Edge 31, Type (0, 1), BuildingBlock: XUDNAN_clean_linker_2, # of connection points: 2
#     Edge 32, Type (0, 1), BuildingBlock: XUDNAN_clean_linker_2, # of connection points: 2
#     Edge 33, Type (0, 1), BuildingBlock: XUDNAN_clean_linker_2, # of connection points: 2
#     Edge 34, Type (0, 1), BuildingBlock: XUDNAN_clean_linker_2, # of connection points: 2
#     Edge 35, Type (0, 1), BuildingBlock: XUDNAN_clean_linker_2, # of connection points: 2
#     Edge 36, Type (0, 1), BuildingBlock: XUDNAN_clean_linker_2, # of connection points: 2
#     Edge 37, Type (0, 1), BuildingBlock: XUDNAN_clean_linker_2, # of connection points: 2
#     Edge 38, Type (0, 1), BuildingBlock: XUDNAN_clean_linker_2, # of connection points: 2
#     Edge 39, Type (0, 1), BuildingBlock: XUDNAN_clean_linker_2, # of connection points: 2
#     Edge 40, Type (0, 1), BuildingBlock: XUDNAN_clean_linker_2, # of connection points: 2
#     Edge 41, Type (0, 1), BuildingBlock: XUDNAN_clean_linker_2, # of connection points: 2
#     Edge 42, Type (0, 1), BuildingBlock: XUDNAN_clean_linker_2, # of connection points: 2
#     Edge 43, Type (0, 1), BuildingBlock: XUDNAN_clean_linker_2, # of connection points: 2
#     Edge 44, Type (0, 1), BuildingBlock: XUDNAN_clean_linker_2, # of connection points: 2
#     Edge 45, Type (0, 1), BuildingBlock: XUDNAN_clean_linker_2, # of connection points: 2
#     Edge 46, Type (0, 1), BuildingBlock: XUDNAN_clean_linker_2, # of connection points: 2
#     Edge 47, Type (0, 1), BuildingBlock: XUDNAN_clean_linker_2, # of connection points: 2
#     Edge 48, Type (0, 1), BuildingBlock: XUDNAN_clean_linker_2, # of connection points: 2
#     Edge 49, Type (0, 1), BuildingBlock: XUDNAN_clean_linker_2, # of connection points: 2
#     Edge 50, Type (0, 1), BuildingBlock: XUDNAN_clean_linker_2, # of connection points: 2
#     Edge 51, Type (0, 1), BuildingBlock: XUDNAN_clean_linker_2, # of connection points: 2
#     Edge 52, Type (0, 1), BuildingBlock: XUDNAN_clean_linker_2, # of connection points: 2
#     Edge 53, Type (0, 1), BuildingBlock: XUDNAN_clean_linker_2, # of connection points: 2
#     Edge 54, Type (0, 1), BuildingBlock: XUDNAN_clean_linker_2, # of connection points: 2
#     Edge 55, Type (0, 1), BuildingBlock: XUDNAN_clean_linker_2, # of connection points: 2
#     Edge 56, Type (0, 1), BuildingBlock: XUDNAN_clean_linker_2, # of connection points: 2
#     Edge 57, Type (0, 1), BuildingBlock: XUDNAN_clean_linker_2, # of connection points: 2
#     Edge 58, Type (0, 1), BuildingBlock: XUDNAN_clean_linker_2, # of connection points: 2
#     Edge 59, Type (0, 1), BuildingBlock: XUDNAN_clean_linker_2, # of connection points: 2
#     Edge 60, Type (0, 1), BuildingBlock: XUDNAN_clean_linker_2, # of connection points: 2
#     Edge 61, Type (0, 1), BuildingBlock: XUDNAN_clean_linker_2, # of connection points: 2
#     Edge 62, Type (0, 1), BuildingBlock: XUDNAN_clean_linker_2, # of connection points: 2
#     Edge 63, Type (0, 1), BuildingBlock: XUDNAN_clean_linker_2, # of connection points: 2
#     Edge 64, Type (0, 1), BuildingBlock: XUDNAN_clean_linker_2, # of connection points: 2
#     Edge 65, Type (0, 1), BuildingBlock: XUDNAN_clean_linker_2, # of connection points: 2
#     Edge 66, Type (0, 1), BuildingBlock: XUDNAN_clean_linker_2, # of connection points: 2
#     Edge 67, Type (0, 1), BuildingBlock: XUDNAN_clean_linker_2, # of connection points: 2
#     Edge 68, Type (0, 1), BuildingBlock: XUDNAN_clean_linker_2, # of connection points: 2
#     Edge 69, Type (0, 1), BuildingBlock: XUDNAN_clean_linker_2, # of connection points: 2
#     Edge 70, Type (0, 1), BuildingBlock: XUDNAN_clean_linker_2, # of connection points: 2
#     Edge 71, Type (0, 1), BuildingBlock: XUDNAN_clean_linker_2, # of connection points: 2
#     Edge 72, Type (0, 1), BuildingBlock: XUDNAN_clean_linker_2, # of connection points: 2
#     Edge 73, Type (0, 1), BuildingBlock: XUDNAN_clean_linker_2, # of connection points: 2
#     Edge 74, Type (0, 1), BuildingBlock: XUDNAN_clean_linker_2, # of connection points: 2
#     Edge 75, Type (0, 1), BuildingBlock: XUDNAN_clean_linker_2, # of connection points: 2
#     Edge 76, Type (0, 1), BuildingBlock: XUDNAN_clean_linker_2, # of connection points: 2
#     Edge 77, Type (0, 1), BuildingBlock: XUDNAN_clean_linker_2, # of connection points: 2
#     Edge 78, Type (0, 1), BuildingBlock: XUDNAN_clean_linker_2, # of connection points: 2
#     Edge 79, Type (0, 1), BuildingBlock: XUDNAN_clean_linker_2, # of connection points: 2
#     Edge 80, Type (0, 1), BuildingBlock: XUDNAN_clean_linker_2, # of connection points: 2
# Relax obj value: 0.096
# Max RMSD: 0.185
# Mean RMSD: 0.093
data_MOF--net-eea--node1-LEVNOQ01_clean_sbu_1--node2-VETTIZ_charged_linker_0--edge1-XUDNAN_clean_linker_2
_symmetry_space_group_name_H-M    P1
_symmetry_Int_Tables_number       1
_symmetry_cell_setting            triclinic
loop_
_symmetry_equiv_pos_as_xyz
'x, y, z'
_cell_length_a     66.123156
_cell_length_b     65.566458
_cell_length_c     67.841439
_cell_angle_alpha  90.246372
_cell_angle_beta   90.146807
_cell_angle_gamma 119.96621
loop_
_atom_site_label
_atom_site_type_symbol
_atom_site_fract_x
_atom_site_fract_y
_atom_site_fract_z
_atom_type_partial_charge
C0 C 0.21155 0.16035 0.39557 0.0
C1 C 0.22033 0.18289 0.40378 0.0
C2 C 0.23868 0.19115 0.41767 0.0
C3 C 0.23935 0.15459 0.41459 0.0
C4 C 0.2213 0.14666 0.40107 0.0
C5 C 0.21344 0.1222 0.39382 0.0
H6 H 0.2248 0.02597 0.39502 0.0
C7 C 0.24548 0.13591 0.41683 0.0
C8 C 0.23052 0.11707 0.40451 0.0
H9 H 0.1685 0.03409 0.37044 0.0
H10 H 0.18938 0.07487 0.3787 0.0
H11 H 0.27027 0.08087 0.3847 0.0
H12 H 0.22442 0.04338 0.43179 0.0
H13 H 0.24664 0.06811 0.44394 0.0
H14 H 0.25338 0.04791 0.43144 0.0
H15 H 0.26955 0.05734 0.39875 0.0
H16 H 0.2866 0.08753 0.40687 0.0
C17 C 0.21689 0.12302 0.3712 0.0
C18 C 0.18783 0.10598 0.40061 0.0
C19 C 0.3003 0.14028 0.471 0.0
C20 C 0.30704 0.1241 0.47736 0.0
C21 C 0.30298 0.10522 0.46482 0.0
C22 C 0.29051 0.10127 0.44717 0.0
C23 C 0.28181 0.11619 0.44213 0.0
C24 C 0.28776 0.13602 0.45336 0.0
C25 C 0.27714 0.15002 0.44544 0.0
C26 C 0.26224 0.13414 0.4287 0.0
C27 C 0.26493 0.11426 0.42698 0.0
C28 C 0.2971 0.17382 0.43782 0.0
C29 C 0.26215 0.15238 0.46183 0.0
C30 C 0.21643 0.03611 0.39167 0.0
C31 C 0.19452 0.02604 0.38205 0.0
C32 C 0.18532 0.04085 0.37753 0.0
C33 C 0.19731 0.06469 0.38273 0.0
C34 C 0.21826 0.07388 0.39342 0.0
C35 C 0.22748 0.05965 0.39779 0.0
C36 C 0.24842 0.07162 0.41123 0.0
C37 C 0.24991 0.0953 0.4144 0.0
C38 C 0.23258 0.09663 0.4035 0.0
C39 C 0.26994 0.07445 0.39992 0.0
C40 C 0.24314 0.0571 0.43055 0.0
H41 H 0.26234 0.1843 0.43363 0.0
H42 H 0.1972 0.1534 0.3851 0.0
H43 H 0.18272 0.11414 0.41257 0.0
H44 H 0.1851 0.08927 0.40701 0.0
H45 H 0.1753 0.10191 0.38825 0.0
H46 H 0.23422 0.13809 0.36715 0.0
H47 H 0.20329 0.12524 0.36346 0.0
H48 H 0.21656 0.10714 0.36529 0.0
H49 H 0.30313 0.15501 0.48021 0.0
H50 H 0.30861 0.09291 0.46907 0.0
H51 H 0.28725 0.0862 0.43852 0.0
H52 H 0.31186 0.17196 0.43209 0.0
H53 H 0.30409 0.18729 0.44976 0.0
H54 H 0.29163 0.18062 0.42523 0.0
H55 H 0.25173 0.13534 0.46959 0.0
H56 H 0.24934 0.15702 0.45617 0.0
H57 H 0.27332 0.16585 0.47295 0.0
H58 H 0.24584 0.20859 0.42404 0.0
C59 C 0.24835 0.17714 0.42304 0.0
C60 C 0.93822 0.17383 0.36822 0.0
C61 C 0.95714 0.19311 0.37732 0.0
C62 C 0.95353 0.20312 0.39439 0.0
C63 C 0.91286 0.17249 0.39459 0.0
C64 C 0.91638 0.1635 0.37728 0.0
C65 C 0.89583 0.14012 0.37176 0.0
H66 H 0.80231 0.04184 0.4026 0.0
C67 C 0.8894 0.15542 0.40198 0.0
C68 C 0.87942 0.13639 0.3887 0.0
H69 H 0.83876 0.0542 0.34728 0.0
H70 H 0.86072 0.09587 0.35446 0.0
H71 H 0.846 0.07579 0.42985 0.0
H72 H 0.79536 0.08695 0.39917 0.0
H73 H 0.80379 0.10542 0.42004 0.0
H74 H 0.78947 0.07385 0.42313 0.0
H75 H 0.81533 0.06069 0.43527 0.0
H76 H 0.8348 0.08876 0.44609 0.0
C77 C 0.90421 0.12176 0.37148 0.0
C78 C 0.88587 0.14286 0.35188 0.0
C79 C 0.86592 0.16568 0.47074 0.0
C80 C 0.84784 0.15021 0.48325 0.0
C81 C 0.82892 0.1297 0.47517 0.0
C82 C 0.82919 0.12358 0.45537 0.0
C83 C 0.84878 0.13789 0.44374 0.0
C84 C 0.86621 0.15908 0.45118 0.0
C85 C 0.88613 0.17161 0.43703 0.0
C86 C 0.87776 0.15438 0.41984 0.0
C87 C 0.85609 0.13449 0.42403 0.0
C88 C 0.90865 0.17429 0.44681 0.0
C89 C 0.88772 0.19516 0.43131 0.0
C90 C 0.81519 0.05362 0.39216 0.0
C91 C 0.81955 0.04486 0.37474 0.0
C92 C 0.83551 0.06064 0.36097 0.0
C93 C 0.84822 0.08474 0.36517 0.0
C94 C 0.84512 0.093 0.38341 0.0
C95 C 0.82803 0.07777 0.39612 0.0
C96 C 0.82648 0.09002 0.41436 0.0
C97 C 0.84655 0.11485 0.41101 0.0
C98 C 0.85772 0.11622 0.3931 0.0
C99 C 0.83076 0.07827 0.43244 0.0
C100 C 0.80253 0.08896 0.41436 0.0
H101 H 0.92964 0.20113 0.41614 0.0
H102 H 0.94081 0.16568 0.35527 0.0
H103 H 0.88816 0.1608 0.35047 0.0
H104 H 0.86682 0.13079 0.35049 0.0
H105 H 0.89482 0.14006 0.3392 0.0
H106 H 0.91787 0.12599 0.38292 0.0
H107 H 0.91181 0.12147 0.35698 0.0
H108 H 0.89051 0.10375 0.37506 0.0
H109 H 0.88053 0.18179 0.47646 0.0
H110 H 0.81472 0.11756 0.48446 0.0
H111 H 0.81484 0.10724 0.45024 0.0
H112 H 0.90457 0.16128 0.45879 0.0
H113 H 0.91947 0.1921 0.45339 0.0
H114 H 0.91944 0.17077 0.43645 0.0
H115 H 0.87005 0.19253 0.42815 0.0
H116 H 0.89797 0.20281 0.41779 0.0
H117 H 0.89551 0.20824 0.44349 0.0
H118 H 0.96807 0.21813 0.40149 0.0
C119 C 0.93131 0.19313 0.40289 0.0
C120 C 0.94768 0.7725 0.37831 0.0
C121 C 0.96526 0.77264 0.38992 0.0
C122 C 0.95952 0.76181 0.40857 0.0
C123 C 0.91926 0.75234 0.40406 0.0
C124 C 0.92512 0.7627 0.38569 0.0
C125 C 0.90569 0.76445 0.37606 0.0
H126 H 0.80405 0.76262 0.38451 0.0
C127 C 0.89473 0.74596 0.40789 0.0
C128 C 0.88694 0.75328 0.39157 0.0
H129 H 0.8544 0.79085 0.33751 0.0
H130 H 0.87606 0.77401 0.35202 0.0
H131 H 0.80375 0.71179 0.38789 0.0
H132 H 0.83997 0.77787 0.41914 0.0
H133 H 0.82944 0.75508 0.43653 0.0
H134 H 0.80907 0.75814 0.42103 0.0
H135 H 0.78973 0.71965 0.40663 0.0
H136 H 0.80611 0.70516 0.41255 0.0
C137 C 0.89871 0.74947 0.35689 0.0
C138 C 0.91394 0.79102 0.37297 0.0
C139 C 0.85614 0.71004 0.47336 0.0
C140 C 0.83453 0.70474 0.4817 0.0
C141 C 0.81831 0.70726 0.46989 0.0
C142 C 0.82376 0.71561 0.45055 0.0
C143 C 0.84584 0.722 0.44291 0.0
C144 C 0.86146 0.71874 0.4541 0.0
C145 C 0.88437 0.72715 0.44367 0.0
C146 C 0.87973 0.73565 0.4243 0.0
C147 C 0.8572 0.73284 0.42407 0.0
C148 C 0.88815 0.70592 0.44058 0.0
C149 C 0.90386 0.74753 0.45594 0.0
C150 C 0.81966 0.76483 0.37737 0.0
C151 C 0.82793 0.77816 0.36009 0.0
C152 C 0.84808 0.78081 0.35097 0.0
C153 C 0.86062 0.77113 0.3595 0.0
C154 C 0.85324 0.75934 0.37761 0.0
C155 C 0.83267 0.75566 0.38597 0.0
C156 C 0.82795 0.74313 0.40544 0.0
C157 C 0.84975 0.74109 0.40782 0.0
C158 C 0.86441 0.75075 0.39151 0.0
C159 C 0.80566 0.7187 0.4032 0.0
C160 C 0.82635 0.75918 0.42147 0.0
H161 H 0.93306 0.74347 0.42994 0.0
H162 H 0.95168 0.78122 0.36414 0.0
H163 H 0.92925 0.80268 0.3824 0.0
H164 H 0.90058 0.79564 0.37724 0.0
H165 H 0.9191 0.79634 0.35744 0.0
H166 H 0.89905 0.73285 0.35919 0.0
H167 H 0.91097 0.75919 0.34475 0.0
H168 H 0.8807 0.74384 0.35201 0.0
H169 H 0.86893 0.70794 0.48174 0.0
H170 H 0.80166 0.70364 0.47579 0.0
H171 H 0.8108 0.71748 0.4425 0.0
H172 H 0.87185 0.69038 0.43505 0.0
H173 H 0.89308 0.70089 0.45465 0.0
H174 H 0.90165 0.70931 0.4295 0.0
H175 H 0.89698 0.75755 0.46406 0.0
H176 H 0.918 0.76084 0.44672 0.0
H177 H 0.91147 0.74078 0.46699 0.0
H178 H 0.97289 0.76166 0.41773 0.0
C179 C 0.93648 0.75136 0.41561 0.0
C180 C 0.17169 0.24775 0.64673 0.0
C181 C 0.19241 0.24989 0.63921 0.0
C182 C 0.20253 0.26379 0.62237 0.0
C183 C 0.16896 0.26881 0.61844 0.0
C184 C 0.16021 0.25728 0.63606 0.0
C185 C 0.13673 0.25443 0.64069 0.0
H186 H 0.03662 0.24206 0.60616 0.0
C187 C 0.1511 0.27292 0.60921 0.0
C188 C 0.13236 0.26504 0.62235 0.0
H189 H 0.0533 0.23192 0.66565 0.0
H190 H 0.09413 0.25043 0.6573 0.0
H191 H 0.08012 0.29484 0.60352 0.0
H192 H 0.07189 0.22921 0.58185 0.0
H193 H 0.08179 0.2506 0.56297 0.0
H194 H 0.05427 0.24164 0.5743 0.0
H195 H 0.06676 0.283 0.58006 0.0
H196 H 0.09802 0.30157 0.58267 0.0
C197 C 0.13904 0.2689 0.65957 0.0
C198 C 0.1191 0.22771 0.64249 0.0
C199 C 0.15811 0.29289 0.53645 0.0
C200 C 0.14309 0.29491 0.52299 0.0
C201 C 0.12253 0.29388 0.52986 0.0
C202 C 0.11631 0.28945 0.54981 0.0
C203 C 0.13082 0.28597 0.56292 0.0
C204 C 0.15178 0.28872 0.55632 0.0
C205 C 0.16537 0.2852 0.57242 0.0
C206 C 0.14896 0.27961 0.58977 0.0
C207 C 0.12844 0.27941 0.58397 0.0
C208 C 0.18867 0.30857 0.57556 0.0
C209 C 0.16827 0.26396 0.56638 0.0
C210 C 0.04917 0.24378 0.61728 0.0
C211 C 0.04182 0.23493 0.63639 0.0
C212 C 0.05859 0.23834 0.65079 0.0
C213 C 0.0822 0.24887 0.6459 0.0
C214 C 0.08906 0.25577 0.62637 0.0
C215 C 0.07297 0.25449 0.61269 0.0
C216 C 0.08421 0.26499 0.59321 0.0
C217 C 0.10935 0.27123 0.59721 0.0
C218 C 0.11173 0.26501 0.61651 0.0
C219 C 0.08212 0.28717 0.5895 0.0
C220 C 0.07247 0.24572 0.57712 0.0
H221 H 0.19913 0.28307 0.59892 0.0
H222 H 0.16375 0.23741 0.65979 0.0
H223 H 0.12077 0.21794 0.62973 0.0
H224 H 0.10075 0.22335 0.64268 0.0
H225 H 0.12233 0.2205 0.65617 0.0
H226 H 0.15753 0.28221 0.66291 0.0
H227 H 0.13204 0.25736 0.67267 0.0
H228 H 0.13002 0.27924 0.65799 0.0
H229 H 0.17411 0.29384 0.53146 0.0
H230 H 0.11078 0.29543 0.51962 0.0
H231 H 0.10012 0.28811 0.55417 0.0
H232 H 0.18718 0.32405 0.57097 0.0
H233 H 0.203 0.30881 0.56688 0.0
H234 H 0.19391 0.31195 0.59129 0.0
H235 H 0.1516 0.2494 0.56032 0.0
H236 H 0.17285 0.25616 0.5787 0.0
H237 H 0.18181 0.26906 0.55483 0.0
H238 H 0.21888 0.26624 0.61664 0.0
C239 C 0.19101 0.27345 0.61205 0.0
C240 C 0.76768 0.8133 0.60961 0.0
C241 C 0.76272 0.79302 0.59876 0.0
C242 C 0.74419 0.78393 0.585 0.0
C243 C 0.73812 0.81699 0.59135 0.0
C244 C 0.75542 0.82503 0.6056 0.0
C245 C 0.76063 0.84822 0.61437 0.0
H246 H 0.75752 0.94821 0.60328 0.0
C247 C 0.73092 0.83493 0.58915 0.0
C248 C 0.74434 0.85338 0.60242 0.0
H249 H 0.79811 0.9338 0.64505 0.0
H250 H 0.77763 0.89267 0.63533 0.0
H251 H 0.75964 0.91852 0.56788 0.0
H252 H 0.70873 0.90152 0.61339 0.0
H253 H 0.69288 0.88541 0.59256 0.0
H254 H 0.70896 0.91722 0.59174 0.0
H255 H 0.74099 0.93107 0.5696 0.0
H256 H 0.73193 0.90386 0.55668 0.0
C257 C 0.78685 0.86639 0.61087 0.0
C258 C 0.75344 0.84422 0.63634 0.0
C259 C 0.67488 0.82728 0.5344 0.0
C260 C 0.66834 0.84313 0.52695 0.0
C261 C 0.67514 0.86437 0.53701 0.0
C262 C 0.68907 0.87022 0.55397 0.0
C263 C 0.6968 0.85494 0.56054 0.0
C264 C 0.68924 0.8336 0.55112 0.0
C265 C 0.7002 0.8202 0.55964 0.0
C266 C 0.71538 0.83695 0.57585 0.0
C267 C 0.71347 0.85735 0.57609 0.0
C268 C 0.71487 0.81714 0.5433 0.0
C269 C 0.68059 0.7968 0.56812 0.0
C270 C 0.76194 0.9361 0.61026 0.0
C271 C 0.77981 0.94411 0.62444 0.0
C272 C 0.78462 0.9279 0.63383 0.0
C273 C 0.77274 0.90414 0.62818 0.0
C274 C 0.75592 0.89664 0.61304 0.0
C275 C 0.75009 0.91231 0.60493 0.0
C276 C 0.73128 0.90104 0.5895 0.0
C277 C 0.72768 0.87629 0.58896 0.0
C278 C 0.74246 0.87399 0.60249 0.0
C279 C 0.74123 0.91425 0.56985 0.0
C280 C 0.70931 0.90138 0.597 0.0
H281 H 0.71828 0.78843 0.57027 0.0
H282 H 0.78141 0.82039 0.62066 0.0
H283 H 0.73669 0.82743 0.63821 0.0
H284 H 0.75027 0.85803 0.64243 0.0
H285 H 0.76687 0.8432 0.64547 0.0
H286 H 0.79409 0.86113 0.59831 0.0
H287 H 0.79761 0.86825 0.62407 0.0
H288 H 0.78986 0.88395 0.60668 0.0
H289 H 0.67017 0.81101 0.52663 0.0
H290 H 0.67022 0.87674 0.53139 0.0
H291 H 0.6941 0.88687 0.56078 0.0
H292 H 0.72187 0.83205 0.53275 0.0
H293 H 0.70421 0.80067 0.53473 0.0
H294 H 0.73053 0.81723 0.5491 0.0
H295 H 0.66775 0.79978 0.57635 0.0
H296 H 0.68714 0.78876 0.57878 0.0
H297 H 0.67102 0.78389 0.55613 0.0
H298 H 0.73985 0.76813 0.57665 0.0
C299 C 0.73181 0.7958 0.58127 0.0
C300 C 0.05935 0.81801 0.62729 0.0
C301 C 0.0399 0.79934 0.61827 0.0
C302 C 0.04228 0.79036 0.6001 0.0
C303 C 0.08341 0.81993 0.59958 0.0
C304 C 0.08077 0.82819 0.61764 0.0
C305 C 0.10233 0.85 0.6243 0.0
H306 H 0.20109 0.94504 0.59763 0.0
C307 C 0.10764 0.8357 0.593 0.0
C308 C 0.11869 0.85334 0.60744 0.0
H309 H 0.15871 0.93376 0.64937 0.0
H310 H 0.13737 0.89235 0.64251 0.0
H311 H 0.20608 0.90035 0.60221 0.0
H312 H 0.15953 0.91273 0.56696 0.0
H313 H 0.17387 0.90096 0.55273 0.0
H314 H 0.1909 0.9279 0.56569 0.0
H315 H 0.21196 0.90762 0.57672 0.0
H316 H 0.19499 0.87738 0.58456 0.0
C317 C 0.11085 0.8444 0.64375 0.0
C318 C 0.09658 0.87029 0.626 0.0
C319 C 0.13481 0.82701 0.52473 0.0
C320 C 0.15658 0.83965 0.51526 0.0
C321 C 0.1759 0.85694 0.52597 0.0
C322 C 0.17337 0.86253 0.54535 0.0
C323 C 0.15126 0.85112 0.55401 0.0
C324 C 0.13267 0.83282 0.54426 0.0
C325 C 0.1111 0.82142 0.55692 0.0
C326 C 0.11986 0.83646 0.57554 0.0
C327 C 0.14317 0.85437 0.57327 0.0
C328 C 0.10466 0.79563 0.56072 0.0
C329 C 0.09173 0.82405 0.54641 0.0
C330 C 0.18695 0.93362 0.60729 0.0
C331 C 0.18107 0.94285 0.62363 0.0
C332 C 0.16348 0.92728 0.63652 0.0
C333 C 0.15076 0.90323 0.63234 0.0
C334 C 0.15505 0.89474 0.61478 0.0
C335 C 0.17361 0.90952 0.60306 0.0
C336 C 0.17571 0.89701 0.58519 0.0
C337 C 0.15375 0.873 0.58722 0.0
C338 C 0.14174 0.87204 0.60448 0.0
C339 C 0.19835 0.89554 0.58715 0.0
C340 C 0.17499 0.91026 0.56659 0.0
H341 H 0.06495 0.79317 0.57678 0.0
H342 H 0.05769 0.82529 0.64117 0.0
H343 H 0.07915 0.86541 0.61977 0.0
H344 H 0.10886 0.88607 0.61754 0.0
H345 H 0.09653 0.87548 0.6416 0.0
H346 H 0.1092 0.82667 0.643 0.0
H347 H 0.10035 0.84454 0.65646 0.0
H348 H 0.12953 0.85678 0.64681 0.0
H349 H 0.11981 0.81318 0.51704 0.0
H350 H 0.19284 0.86688 0.51909 0.0
H351 H 0.18853 0.87608 0.55268 0.0
H352 H 0.12065 0.79423 0.56259 0.0
H353 H 0.09449 0.78403 0.54819 0.0
H354 H 0.09474 0.78855 0.57447 0.0
H355 H 0.09907 0.84191 0.53991 0.0
H356 H 0.07787 0.82227 0.55645 0.0
H357 H 0.08364 0.81096 0.53427 0.0
H358 H 0.02722 0.77585 0.59304 0.0
C359 C 0.06409 0.80046 0.59074 0.0
C360 C 0.89049 0.49929 0.70474 0.0
C361 C 0.8955 0.52189 0.71067 0.0
C362 C 0.90973 0.53217 0.72749 0.0
C363 C 0.91269 0.49704 0.73232 0.0
C364 C 0.89931 0.48741 0.71555 0.0
C365 C 0.89468 0.46303 0.71119 0.0
H366 H 0.89393 0.36543 0.74174 0.0
C367 C 0.91769 0.47917 0.74071 0.0
C368 C 0.90714 0.45929 0.72831 0.0
H369 H 0.86316 0.3754 0.68899 0.0
H370 H 0.88065 0.41677 0.69628 0.0
H371 H 0.94349 0.41168 0.73646 0.0
H372 H 0.88348 0.39841 0.77065 0.0
H373 H 0.90861 0.41301 0.78564 0.0
H374 H 0.90091 0.38488 0.77517 0.0
H375 H 0.93842 0.39844 0.76034 0.0
H376 H 0.95439 0.43004 0.75732 0.0
C377 C 0.90641 0.46358 0.69128 0.0
C378 C 0.86783 0.44605 0.71166 0.0
C379 C 0.95818 0.49257 0.80727 0.0
C380 C 0.96388 0.47844 0.81901 0.0
C381 C 0.95994 0.45672 0.81136 0.0
C382 C 0.94958 0.44874 0.7928 0.0
C383 C 0.9429 0.4625 0.78176 0.0
C384 C 0.94791 0.48436 0.78871 0.0
C385 C 0.94022 0.49685 0.77455 0.0
C386 C 0.92929 0.4786 0.7582 0.0
C387 C 0.9306 0.45837 0.76272 0.0
C388 C 0.96215 0.51944 0.76741 0.0
C389 C 0.92206 0.50137 0.78506 0.0
C390 C 0.89091 0.37661 0.73188 0.0
C391 C 0.87681 0.36718 0.715 0.0
C392 C 0.87386 0.38229 0.70213 0.0
C393 C 0.884 0.4063 0.70643 0.0
C394 C 0.89716 0.41531 0.72382 0.0
C395 C 0.90102 0.40071 0.73593 0.0
C396 C 0.91597 0.41365 0.75351 0.0
C397 C 0.91947 0.43815 0.75036 0.0
C398 C 0.9082 0.43884 0.73308 0.0
C399 C 0.93925 0.41339 0.75203 0.0
C400 C 0.9017 0.40194 0.77233 0.0
H401 H 0.92891 0.52849 0.75108 0.0
H402 H 0.87926 0.4905 0.6922 0.0
H403 H 0.85909 0.45278 0.72162 0.0
H404 H 0.86287 0.42854 0.71762 0.0
H405 H 0.85995 0.44385 0.69677 0.0
H406 H 0.92313 0.48045 0.68955 0.0
H407 H 0.89497 0.46191 0.67863 0.0
H408 H 0.91131 0.44978 0.6901 0.0
H409 H 0.96088 0.50933 0.81263 0.0
H410 H 0.96472 0.44577 0.8198 0.0
H411 H 0.94675 0.43194 0.78793 0.0
H412 H 0.97708 0.51629 0.76544 0.0
H413 H 0.96759 0.53403 0.77825 0.0
H414 H 0.95961 0.52533 0.75286 0.0
H415 H 0.91004 0.48591 0.7941 0.0
H416 H 0.91066 0.50401 0.77476 0.0
H417 H 0.93076 0.5169 0.79505 0.0
H418 H 0.91423 0.54972 0.73226 0.0
C419 C 0.91837 0.51987 0.73833 0.0
C420 C 0.59666 0.50501 0.70278 0.0
C421 C 0.61086 0.52859 0.70854 0.0
C422 C 0.60283 0.53814 0.72319 0.0
C423 C 0.56823 0.5001 0.72764 0.0
C424 C 0.57557 0.49112 0.71255 0.0
C425 C 0.55965 0.46516 0.70955 0.0
H426 H 0.46778 0.36348 0.74059 0.0
C427 C 0.54683 0.48046 0.73612 0.0
C428 C 0.54176 0.45996 0.72552 0.0
H429 H 0.51495 0.37335 0.69282 0.0
H430 H 0.53534 0.41537 0.69852 0.0
H431 H 0.50624 0.39738 0.77012 0.0
H432 H 0.46088 0.40653 0.73044 0.0
H433 H 0.46297 0.42308 0.75154 0.0
H434 H 0.45104 0.39166 0.75355 0.0
H435 H 0.47599 0.3865 0.7753 0.0
H436 H 0.49829 0.41566 0.78263 0.0
C437 C 0.57389 0.45253 0.71314 0.0
C438 C 0.54868 0.46126 0.68871 0.0
C439 C 0.51132 0.49203 0.79879 0.0
C440 C 0.49281 0.47596 0.81067 0.0
C441 C 0.47859 0.45265 0.80409 0.0
C442 C 0.4833 0.44506 0.78635 0.0
C443 C 0.50271 0.46081 0.77521 0.0
C444 C 0.51602 0.48403 0.78113 0.0
C445 C 0.53608 0.498 0.76732 0.0
C446 C 0.53283 0.4791 0.75249 0.0
C447 C 0.51342 0.4574 0.75745 0.0
C448 C 0.55912 0.50745 0.7792 0.0
C449 C 0.53253 0.51739 0.75777 0.0
C450 C 0.48278 0.3746 0.73159 0.0
C451 C 0.48999 0.36506 0.71645 0.0
C452 C 0.50912 0.3803 0.70464 0.0
C453 C 0.52092 0.40468 0.70797 0.0
C454 C 0.51359 0.41389 0.72333 0.0
C455 C 0.49475 0.39888 0.73473 0.0
C456 C 0.48946 0.41157 0.75051 0.0
C457 C 0.50838 0.43675 0.74682 0.0
C458 C 0.52243 0.43802 0.73091 0.0
C459 C 0.49243 0.40235 0.77075 0.0
C460 C 0.46477 0.40799 0.74652 0.0
H461 H 0.5766 0.53216 0.74402 0.0
H462 H 0.60247 0.4971 0.69175 0.0
H463 H 0.54393 0.47495 0.68535 0.0
H464 H 0.53226 0.44429 0.68717 0.0
H465 H 0.56112 0.4623 0.67724 0.0
H466 H 0.58847 0.46253 0.72376 0.0
H467 H 0.58162 0.4506 0.69923 0.0
H468 H 0.56349 0.43504 0.71996 0.0
H469 H 0.5225 0.51006 0.8036 0.0
H470 H 0.46404 0.44017 0.81292 0.0
H471 H 0.47205 0.42698 0.78234 0.0
H472 H 0.55804 0.49389 0.78962 0.0
H473 H 0.56276 0.52329 0.78797 0.0
H474 H 0.57437 0.51181 0.7699 0.0
H475 H 0.51366 0.51106 0.75527 0.0
H476 H 0.54053 0.52252 0.74303 0.0
H477 H 0.53959 0.53329 0.76736 0.0
H478 H 0.61335 0.55642 0.72764 0.0
C479 C 0.58153 0.52405 0.73269 0.0
C480 C 0.59562 0.08808 0.69751 0.0
C481 C 0.61379 0.0869 0.70711 0.0
C482 C 0.61083 0.07957 0.72695 0.0
C483 C 0.57228 0.07568 0.72727 0.0
C484 C 0.57531 0.08256 0.70776 0.0
C485 C 0.55553 0.085 0.69974 0.0
H486 H 0.46371 0.09885 0.71738 0.0
C487 C 0.54967 0.07295 0.73378 0.0
C488 C 0.54004 0.07863 0.71766 0.0
H489 H 0.50161 0.11009 0.66308 0.0
H490 H 0.52343 0.09318 0.67733 0.0
H491 H 0.45652 0.04693 0.72476 0.0
H492 H 0.50572 0.11558 0.74708 0.0
H493 H 0.49544 0.09585 0.767 0.0
H494 H 0.47508 0.10016 0.75263 0.0
H495 H 0.45003 0.05909 0.74589 0.0
H496 H 0.46456 0.04205 0.74821 0.0
C497 C 0.54367 0.06659 0.68297 0.0
C498 C 0.56532 0.11103 0.69335 0.0
C499 C 0.52156 0.05119 0.8047 0.0
C500 C 0.50178 0.04881 0.81463 0.0
C501 C 0.48505 0.05164 0.80398 0.0
C502 C 0.48812 0.05726 0.78395 0.0
C503 C 0.5083 0.06042 0.77441 0.0
C504 C 0.52445 0.05698 0.78461 0.0
C505 C 0.54473 0.06101 0.77176 0.0
C506 C 0.5378 0.06707 0.75218 0.0
C507 C 0.51662 0.06705 0.75404 0.0
C508 C 0.54541 0.03782 0.77048 0.0
C509 C 0.56721 0.08201 0.78045 0.0
C510 C 0.47664 0.0974 0.70865 0.0
C511 C 0.48155 0.10613 0.68937 0.0
C512 C 0.49793 0.10364 0.67807 0.0
C513 C 0.51055 0.0939 0.6864 0.0
C514 C 0.50668 0.08671 0.70621 0.0
C515 C 0.48928 0.08757 0.71674 0.0
C516 C 0.48727 0.0785 0.73739 0.0
C517 C 0.50752 0.07374 0.73793 0.0
C518 C 0.51888 0.07885 0.71972 0.0
C519 C 0.46335 0.05555 0.73933 0.0
C520 C 0.49092 0.0984 0.75191 0.0
H521 H 0.58879 0.06839 0.75213 0.0
H522 H 0.59748 0.09417 0.68245 0.0
H523 H 0.58206 0.12315 0.70096 0.0
H524 H 0.55372 0.11802 0.69732 0.0
H525 H 0.56868 0.11314 0.67725 0.0
H526 H 0.54317 0.04981 0.68666 0.0
H527 H 0.55334 0.07305 0.66891 0.0
H528 H 0.52523 0.06163 0.68056 0.0
H529 H 0.53475 0.04915 0.8125 0.0
H530 H 0.46945 0.04939 0.81115 0.0
H531 H 0.47481 0.05929 0.77673 0.0
H532 H 0.52752 0.02257 0.76827 0.0
H533 H 0.55262 0.03481 0.78427 0.0
H534 H 0.55572 0.03739 0.7579 0.0
H535 H 0.56359 0.09566 0.78648 0.0
H536 H 0.58091 0.09123 0.76932 0.0
H537 H 0.57439 0.07621 0.79263 0.0
H538 H 0.62455 0.07833 0.73463 0.0
C539 C 0.59007 0.07379 0.73705 0.0
C540 C 0.83372 0.55718 0.97624 0.0
C541 C 0.84974 0.55187 0.96766 0.0
C542 C 0.85827 0.56004 0.94865 0.0
C543 C 0.83295 0.5767 0.94617 0.0
C544 C 0.82523 0.5692 0.96511 0.0
C545 C 0.80544 0.57295 0.97085 0.0
H546 H 0.71589 0.58569 0.94128 0.0
C547 C 0.81857 0.58597 0.9378 0.0
C548 C 0.80223 0.58352 0.95204 0.0
H549 H 0.72856 0.56439 0.99805 0.0
H550 H 0.76744 0.57497 0.98823 0.0
H551 H 0.77024 0.63312 0.9384 0.0
H552 H 0.73903 0.56281 0.91394 0.0
H553 H 0.75379 0.58413 0.89548 0.0
H554 H 0.72945 0.58329 0.90775 0.0
H555 H 0.75126 0.62449 0.91729 0.0
H556 H 0.78211 0.63486 0.91491 0.0
C557 C 0.81398 0.59101 0.98805 0.0
C558 C 0.78386 0.54857 0.97575 0.0
C559 C 0.83144 0.61392 0.86708 0.0
C560 C 0.8204 0.62251 0.85471 0.0
C561 C 0.80167 0.62474 0.86215 0.0
C562 C 0.79379 0.61802 0.88154 0.0
C563 C 0.80477 0.60903 0.89362 0.0
C564 C 0.82353 0.60753 0.88639 0.0
C565 C 0.83346 0.59804 0.90129 0.0
C566 C 0.81792 0.59456 0.91881 0.0
C567 C 0.80083 0.60061 0.91421 0.0
C568 C 0.85911 0.61715 0.9055 0.0
C569 C 0.83035 0.5744 0.89327 0.0
C570 C 0.72727 0.58358 0.95155 0.0
C571 C 0.71912 0.57361 0.97025 0.0
C572 C 0.73435 0.57145 0.98342 0.0
C573 C 0.75688 0.57753 0.97767 0.0
C574 C 0.76411 0.58537 0.95839 0.0
C575 C 0.74992 0.5893 0.94588 0.0
C576 C 0.76128 0.59836 0.92609 0.0
C577 C 0.78361 0.59718 0.92842 0.0
C578 C 0.78485 0.58933 0.94737 0.0
C579 C 0.76642 0.62399 0.92386 0.0
C580 C 0.74509 0.58139 0.90984 0.0
H581 H 0.85702 0.57822 0.92339 0.0
H582 H 0.82679 0.55074 0.99079 0.0
H583 H 0.78587 0.53361 0.9704 0.0
H584 H 0.7677 0.54575 0.96841 0.0
H585 H 0.78083 0.54628 0.99189 0.0
H586 H 0.83232 0.60522 0.98568 0.0
H587 H 0.8134 0.58243 0.00229 0.0
H588 H 0.80384 0.60019 0.98938 0.0
H589 H 0.84606 0.6123 0.86188 0.0
H590 H 0.79284 0.63126 0.85283 0.0
H591 H 0.77929 0.61979 0.88632 0.0
H592 H 0.86071 0.63483 0.90676 0.0
H593 H 0.87074 0.61789 0.8934 0.0
H594 H 0.86584 0.61448 0.91958 0.0
H595 H 0.81603 0.56619 0.88216 0.0
H596 H 0.82519 0.5609 0.90486 0.0
H597 H 0.84653 0.57698 0.88607 0.0
H598 H 0.87084 0.55614 0.94197 0.0
C599 C 0.85015 0.57271 0.93791 0.0
C600 C 0.43184 0.15723 0.95643 0.0
C601 C 0.42403 0.13329 0.95301 0.0
C602 C 0.4061 0.121 0.93898 0.0
C603 C 0.40396 0.15641 0.93273 0.0
C604 C 0.4214 0.16817 0.94657 0.0
C605 C 0.4274 0.19322 0.94959 0.0
H606 H 0.41324 0.28457 0.92432 0.0
C607 C 0.39706 0.17329 0.92525 0.0
C608 C 0.41062 0.19473 0.93534 0.0
H609 H 0.46317 0.28408 0.96512 0.0
H610 H 0.44672 0.24221 0.96004 0.0
H611 H 0.42033 0.25517 0.89262 0.0
H612 H 0.36834 0.23483 0.93753 0.0
H613 H 0.35375 0.21801 0.91656 0.0
H614 H 0.36805 0.24975 0.91552 0.0
H615 H 0.39615 0.26021 0.89044 0.0
H616 H 0.39445 0.23336 0.88183 0.0
C617 C 0.45329 0.20943 0.94363 0.0
C618 C 0.4218 0.19615 0.97126 0.0
C619 C 0.34419 0.15421 0.86524 0.0
C620 C 0.33726 0.16802 0.85444 0.0
C621 C 0.341 0.18943 0.86252 0.0
C622 C 0.35308 0.19792 0.8803 0.0
C623 C 0.36186 0.18506 0.88997 0.0
C624 C 0.3565 0.16309 0.883 0.0
C625 C 0.36701 0.15189 0.89573 0.0
C626 C 0.38102 0.17162 0.91044 0.0
C627 C 0.37797 0.19101 0.9068 0.0
C628 C 0.38285 0.14627 0.88276 0.0
C629 C 0.3469 0.13009 0.9058 0.0
C630 C 0.42041 0.27524 0.93218 0.0
C631 C 0.43947 0.28727 0.94499 0.0
C632 C 0.44859 0.27492 0.95501 0.0
C633 C 0.43899 0.25068 0.95205 0.0
C634 C 0.42031 0.23883 0.9387 0.0
C635 C 0.41126 0.2511 0.92911 0.0
C636 C 0.39248 0.23599 0.91455 0.0
C637 C 0.39164 0.21257 0.91707 0.0
C638 C 0.40789 0.21437 0.93124 0.0
C639 C 0.401 0.24663 0.89376 0.0
C640 C 0.36941 0.2346 0.92117 0.0
H641 H 0.38242 0.12227 0.91833 0.0
H642 H 0.44596 0.16752 0.96668 0.0
H643 H 0.40543 0.18034 0.97614 0.0
H644 H 0.41864 0.21103 0.97338 0.0
H645 H 0.43604 0.19843 0.98136 0.0
H646 H 0.45899 0.20073 0.93261 0.0
H647 H 0.46513 0.21413 0.95659 0.0
H648 H 0.45632 0.22574 0.9363 0.0
H649 H 0.34137 0.13758 0.85942 0.0
H650 H 0.33527 0.20004 0.85469 0.0
H651 H 0.35602 0.2147 0.88536 0.0
H652 H 0.39396 0.16145 0.8731 0.0
H653 H 0.37224 0.13071 0.87316 0.0
H654 H 0.39498 0.14288 0.8914 0.0
H655 H 0.33221 0.13314 0.90943 0.0
H656 H 0.35219 0.12604 0.92004 0.0
H657 H 0.33992 0.11435 0.89602 0.0
H658 H 0.3996 0.10249 0.93611 0.0
C659 C 0.39601 0.13245 0.92881 0.0
C660 C 0.73707 0.15599 0.97532 0.0
C661 C 0.72264 0.13203 0.97081 0.0
C662 C 0.72923 0.1217 0.95575 0.0
C663 C 0.76235 0.1597 0.94798 0.0
C664 C 0.75673 0.16954 0.96362 0.0
C665 C 0.77219 0.19586 0.96456 0.0
H666 H 0.8492 0.2958 0.91849 0.0
C667 C 0.78167 0.17894 0.937 0.0
C668 C 0.78756 0.2002 0.94666 0.0
H669 H 0.81605 0.28896 0.97494 0.0
H670 H 0.79801 0.24679 0.97274 0.0
H671 H 0.86637 0.26158 0.92847 0.0
H672 H 0.80587 0.25053 0.89587 0.0
H673 H 0.82105 0.23945 0.88222 0.0
H674 H 0.83562 0.27001 0.88878 0.0
H675 H 0.86786 0.267 0.9025 0.0
H676 H 0.86015 0.23833 0.91208 0.0
C677 C 0.78647 0.20217 0.98397 0.0
C678 C 0.75649 0.20712 0.96249 0.0
C679 C 0.80633 0.16206 0.87077 0.0
C680 C 0.82307 0.17661 0.85684 0.0
C681 C 0.83829 0.20047 0.86171 0.0
C682 C 0.8359 0.20997 0.87947 0.0
C683 C 0.81814 0.19554 0.89259 0.0
C684 C 0.80439 0.17182 0.88857 0.0
C685 C 0.78727 0.159 0.90482 0.0
C686 C 0.7927 0.17914 0.91899 0.0
C687 C 0.81032 0.20054 0.9114 0.0
C688 C 0.79319 0.14092 0.91387 0.0
C689 C 0.76231 0.14805 0.89604 0.0
C690 C 0.83807 0.28533 0.93042 0.0
C691 C 0.8337 0.29595 0.94667 0.0
C692 C 0.81915 0.2814 0.96187 0.0
C693 C 0.80889 0.25686 0.96073 0.0
C694 C 0.81317 0.2466 0.94422 0.0
C695 C 0.82797 0.26084 0.92966 0.0
C696 C 0.83175 0.24705 0.91382 0.0
C697 C 0.81595 0.22206 0.92088 0.0
C698 C 0.80487 0.22188 0.93855 0.0
C699 C 0.85786 0.25384 0.91405 0.0
C700 C 0.82326 0.25197 0.89405 0.0
H701 H 0.75275 0.12663 0.93273 0.0
H702 H 0.73215 0.16434 0.98667 0.0
H703 H 0.74172 0.19672 0.95215 0.0
H704 H 0.76561 0.22494 0.95618 0.0
H705 H 0.74898 0.20785 0.97692 0.0
H706 H 0.79154 0.18875 0.98747 0.0
H707 H 0.77618 0.20294 0.99658 0.0
H708 H 0.80314 0.21898 0.9831 0.0
H709 H 0.7943 0.14366 0.86767 0.0
H710 H 0.85188 0.21197 0.85165 0.0
H711 H 0.84764 0.22834 0.88208 0.0
H712 H 0.81221 0.14723 0.91294 0.0
H713 H 0.78383 0.12372 0.90602 0.0
H714 H 0.78922 0.13815 0.92978 0.0
H715 H 0.76115 0.16036 0.88546 0.0
H716 H 0.74884 0.14448 0.90716 0.0
H717 H 0.75745 0.13144 0.88796 0.0
H718 H 0.71829 0.1032 0.95214 0.0
C719 C 0.74912 0.13537 0.94442 0.0
C720 C 0.54835 0.83217 0.05965 0.0
C721 C 0.55271 0.85377 0.06768 0.0
C722 C 0.57018 0.86472 0.08228 0.0
C723 C 0.57766 0.83208 0.08111 0.0
C724 C 0.56097 0.82178 0.06647 0.0
C725 C 0.55738 0.79832 0.05998 0.0
H726 H 0.57008 0.705 0.07875 0.0
C727 C 0.58619 0.81566 0.0858 0.0
C728 C 0.57427 0.79586 0.07354 0.0
H729 H 0.52483 0.71203 0.03638 0.0
H730 H 0.54302 0.75318 0.04343 0.0
H731 H 0.61745 0.7562 0.06849 0.0
H732 H 0.56363 0.73469 0.1124 0.0
H733 H 0.59084 0.75211 0.12393 0.0
H734 H 0.58457 0.72485 0.1124 0.0
H735 H 0.61616 0.73893 0.08941 0.0
H736 H 0.63083 0.77069 0.09068 0.0
C737 C 0.56505 0.80043 0.03815 0.0
C738 C 0.53145 0.77941 0.0638 0.0
C739 C 0.63997 0.83234 0.14432 0.0
C740 C 0.64822 0.81899 0.15402 0.0
C741 C 0.64439 0.79779 0.1453 0.0
C742 C 0.63151 0.78946 0.12773 0.0
C743 C 0.62202 0.80225 0.119 0.0
C744 C 0.62697 0.8237 0.12696 0.0
C745 C 0.6151 0.83473 0.11603 0.0
C746 C 0.60189 0.81621 0.10035 0.0
C747 C 0.60581 0.79709 0.10225 0.0
C748 C 0.63416 0.85807 0.10694 0.0
C749 C 0.5985 0.83753 0.13051 0.0
C750 C 0.56399 0.7154 0.07111 0.0
C751 C 0.54575 0.70503 0.05713 0.0
C752 C 0.53889 0.71941 0.04711 0.0
C753 C 0.54932 0.74338 0.05138 0.0
C754 C 0.56642 0.75315 0.06619 0.0
C755 C 0.574 0.73946 0.07544 0.0
C756 C 0.59211 0.75306 0.09107 0.0
C757 C 0.59331 0.77682 0.09011 0.0
C758 C 0.57805 0.77654 0.07558 0.0
C759 C 0.61539 0.75476 0.08479 0.0
C760 C 0.58254 0.74062 0.11105 0.0
H761 H 0.59568 0.86309 0.10023 0.0
H762 H 0.53487 0.82309 0.04859 0.0
H763 H 0.52298 0.78564 0.07452 0.0
H764 H 0.5296 0.76325 0.07057 0.0
H765 H 0.52094 0.77458 0.05001 0.0
H766 H 0.58101 0.8177 0.03547 0.0
H767 H 0.55117 0.79908 0.02806 0.0
H768 H 0.56982 0.7871 0.03386 0.0
H769 H 0.64226 0.84853 0.15073 0.0
H770 H 0.65087 0.78737 0.15234 0.0
H771 H 0.62875 0.77298 0.12199 0.0
H772 H 0.64886 0.85611 0.10122 0.0
H773 H 0.64141 0.87246 0.1181 0.0
H774 H 0.62778 0.86362 0.09413 0.0
H775 H 0.59134 0.8232 0.14162 0.0
H776 H 0.58292 0.83614 0.12323 0.0
H777 H 0.60777 0.85455 0.13863 0.0
H778 H 0.57424 0.88163 0.08843 0.0
C779 C 0.58274 0.85403 0.08898 0.0
C780 C 0.26674 0.84088 0.03396 0.0
C781 C 0.28078 0.86393 0.04113 0.0
C782 C 0.27271 0.87174 0.0571 0.0
C783 C 0.23827 0.8331 0.0596 0.0
C784 C 0.24575 0.8258 0.04343 0.0
C785 C 0.22991 0.80019 0.03869 0.0
H786 H 0.14226 0.69403 0.06683 0.0
C787 C 0.21704 0.81246 0.06726 0.0
C788 C 0.21217 0.7931 0.05512 0.0
H789 H 0.18319 0.71069 0.01372 0.0
H790 H 0.20348 0.75212 0.0226 0.0
H791 H 0.18293 0.72958 0.09657 0.0
H792 H 0.13145 0.73511 0.06187 0.0
H793 H 0.1346 0.751 0.08362 0.0
H794 H 0.12432 0.71982 0.08491 0.0
H795 H 0.15231 0.71386 0.10206 0.0
H796 H 0.17127 0.74315 0.11144 0.0
C797 C 0.2444 0.78757 0.04018 0.0
C798 C 0.21871 0.79829 0.01818 0.0
C799 C 0.1786 0.81937 0.12992 0.0
C800 C 0.16017 0.80259 0.14145 0.0
C801 C 0.14829 0.77887 0.13535 0.0
C802 C 0.15471 0.77189 0.11806 0.0
C803 C 0.17341 0.78874 0.10685 0.0
C804 C 0.18499 0.81206 0.11277 0.0
C805 C 0.20503 0.82728 0.09938 0.0
C806 C 0.20311 0.80932 0.08415 0.0
C807 C 0.18464 0.78682 0.08872 0.0
C808 C 0.22798 0.83749 0.11156 0.0
C809 C 0.20036 0.8461 0.0902 0.0
C810 C 0.15593 0.70664 0.05736 0.0
C811 C 0.16179 0.6993 0.03993 0.0
C812 C 0.17885 0.71613 0.02743 0.0
C813 C 0.19048 0.74007 0.03258 0.0
C814 C 0.18475 0.74717 0.05032 0.0
C815 C 0.16735 0.73059 0.06211 0.0
C816 C 0.16226 0.74144 0.07956 0.0
C817 C 0.18 0.76724 0.07665 0.0
C818 C 0.19337 0.77044 0.05971 0.0
C819 C 0.16725 0.73149 0.09849 0.0
C820 C 0.13683 0.73655 0.0776 0.0
H821 H 0.24649 0.86332 0.07858 0.0
H822 H 0.27254 0.83425 0.02188 0.0
H823 H 0.21655 0.81379 0.01528 0.0
H824 H 0.20087 0.78296 0.01695 0.0
H825 H 0.22968 0.79739 0.00621 0.0
H826 H 0.25647 0.7943 0.05308 0.0
H827 H 0.25512 0.79063 0.02676 0.0
H828 H 0.23369 0.76845 0.04249 0.0
H829 H 0.18829 0.83768 0.13447 0.0
H830 H 0.134 0.76572 0.144 0.0
H831 H 0.14503 0.75355 0.11426 0.0
H832 H 0.22658 0.8252 0.12343 0.0
H833 H 0.23221 0.85446 0.11867 0.0
H834 H 0.24304 0.84002 0.10269 0.0
H835 H 0.18168 0.8382 0.08587 0.0
H836 H 0.21033 0.85371 0.07656 0.0
H837 H 0.20444 0.86056 0.10088 0.0
H838 H 0.28305 0.88955 0.0627 0.0
C839 C 0.2515 0.85649 0.0663 0.0
C840 C 0.26953 0.41651 0.03777 0.0
C841 C 0.2818 0.40588 0.04523 0.0
C842 C 0.27275 0.39055 0.0614 0.0
C843 C 0.24045 0.39804 0.06338 0.0
C844 C 0.24884 0.41216 0.04691 0.0
C845 C 0.23346 0.42179 0.04066 0.0
H846 H 0.1392 0.43333 0.05805 0.0
C847 C 0.21932 0.39827 0.07 0.0
C848 C 0.21505 0.41201 0.05661 0.0
H849 H 0.18512 0.45865 0.0078 0.0
H850 H 0.20852 0.44316 0.02172 0.0
H851 H 0.13367 0.38439 0.05924 0.0
H852 H 0.18045 0.44752 0.09105 0.0
H853 H 0.17066 0.42428 0.10788 0.0
H854 H 0.14982 0.43056 0.09625 0.0
H855 H 0.12428 0.39461 0.07993 0.0
H856 H 0.13622 0.37535 0.08297 0.0
C857 C 0.22311 0.41145 0.02006 0.0
C858 C 0.24807 0.44902 0.04144 0.0
C859 C 0.1815 0.36122 0.13539 0.0
C860 C 0.16311 0.36088 0.14613 0.0
C861 C 0.15011 0.37021 0.13742 0.0
C862 C 0.15584 0.38045 0.11873 0.0
C863 C 0.17487 0.38158 0.10859 0.0
C864 C 0.18712 0.37172 0.11676 0.0
C865 C 0.207 0.37487 0.10387 0.0
C866 C 0.20492 0.38872 0.08685 0.0
C867 C 0.1861 0.39259 0.08978 0.0
C868 C 0.20224 0.35022 0.09721 0.0
C869 C 0.23004 0.38937 0.11561 0.0
C870 C 0.15438 0.43563 0.05008 0.0
C871 C 0.16031 0.44698 0.03177 0.0
C872 C 0.18033 0.44998 0.02197 0.0
C873 C 0.1937 0.44078 0.03 0.0
C874 C 0.18694 0.42861 0.04802 0.0
C875 C 0.1677 0.42646 0.0578 0.0
C876 C 0.16263 0.41264 0.0765 0.0
C877 C 0.1816 0.40615 0.07611 0.0
C878 C 0.19595 0.41575 0.05958 0.0
C879 C 0.13789 0.39065 0.07478 0.0
C880 C 0.16584 0.4294 0.09392 0.0
H881 H 0.24627 0.37509 0.08303 0.0
H882 H 0.27597 0.42801 0.02511 0.0
H883 H 0.25957 0.45503 0.05471 0.0
H884 H 0.23729 0.45748 0.04262 0.0
H885 H 0.25939 0.45604 0.02826 0.0
H886 H 0.22084 0.39356 0.01809 0.0
H887 H 0.2347 0.42271 0.0081 0.0
H888 H 0.20543 0.40892 0.01785 0.0
H889 H 0.19162 0.35389 0.14151 0.0
H890 H 0.13604 0.37043 0.14537 0.0
H891 H 0.1455 0.38758 0.11312 0.0
H892 H 0.18318 0.33768 0.0957 0.0
H893 H 0.20932 0.3427 0.10805 0.0
H894 H 0.20946 0.35042 0.08249 0.0
H895 H 0.2299 0.40409 0.12373 0.0
H896 H 0.24562 0.39778 0.10619 0.0
H897 H 0.23242 0.37822 0.1266 0.0
H898 H 0.28201 0.38216 0.06728 0.0
C899 C 0.25213 0.38661 0.07056 0.0
C900 C 0.5033 0.89178 0.31051 0.0
C901 C 0.52309 0.89154 0.30346 0.0
C902 C 0.53236 0.90179 0.28502 0.0
C903 C 0.50081 0.91004 0.28028 0.0
C904 C 0.49253 0.90104 0.29876 0.0
C905 C 0.47031 0.90074 0.30361 0.0
H906 H 0.37746 0.90822 0.27406 0.0
C907 C 0.48409 0.91598 0.27117 0.0
C908 C 0.46628 0.91063 0.28481 0.0
H909 H 0.38991 0.88356 0.32951 0.0
H910 H 0.42874 0.89559 0.31977 0.0
H911 H 0.43083 0.95561 0.27052 0.0
H912 H 0.40104 0.88497 0.24688 0.0
H913 H 0.41584 0.90575 0.2282 0.0
H914 H 0.39094 0.90473 0.23968 0.0
H915 H 0.40959 0.94523 0.25096 0.0
H916 H 0.44027 0.95704 0.24607 0.0
C917 C 0.47526 0.91758 0.32138 0.0
C918 C 0.45105 0.87472 0.30715 0.0
C919 C 0.49413 0.94106 0.1997 0.0
C920 C 0.48104 0.94653 0.18668 0.0
C921 C 0.4612 0.94691 0.19383 0.0
C922 C 0.45408 0.94106 0.2135 0.0
C923 C 0.46694 0.93478 0.22616 0.0
C924 C 0.48692 0.93543 0.21926 0.0
C925 C 0.49888 0.92892 0.23476 0.0
C926 C 0.48267 0.92391 0.25208 0.0
C927 C 0.46375 0.92706 0.24698 0.0
C928 C 0.52335 0.95052 0.23872 0.0
C929 C 0.49916 0.90657 0.22758 0.0
C930 C 0.38851 0.90527 0.28406 0.0
C931 C 0.38025 0.89474 0.30266 0.0
C932 C 0.3956 0.89192 0.3153 0.0
C933 C 0.41826 0.89866 0.30948 0.0
C934 C 0.42573 0.90777 0.29055 0.0
C935 C 0.41124 0.91145 0.27826 0.0
C936 C 0.42241 0.92098 0.25849 0.0
C937 C 0.4456 0.92149 0.26086 0.0
C938 C 0.44717 0.91363 0.27971 0.0
C939 C 0.42589 0.94598 0.25619 0.0
C940 C 0.4068 0.90335 0.24233 0.0
H941 H 0.52895 0.91825 0.25937 0.0
H942 H 0.49553 0.88383 0.32448 0.0
H943 H 0.45518 0.8621 0.29969 0.0
H944 H 0.43391 0.87043 0.3009 0.0
H945 H 0.449 0.87043 0.3231 0.0
H946 H 0.49313 0.93317 0.32053 0.0
H947 H 0.474 0.9086 0.33555 0.0
H948 H 0.46352 0.92505 0.32181 0.0
H949 H 0.50973 0.94112 0.19476 0.0
H950 H 0.45088 0.95119 0.18406 0.0
H951 H 0.43869 0.94134 0.21805 0.0
H952 H 0.52295 0.96722 0.23734 0.0
H953 H 0.53636 0.95117 0.22804 0.0
H954 H 0.52971 0.9509 0.25387 0.0
H955 H 0.4828 0.89453 0.21944 0.0
H956 H 0.49992 0.89584 0.23972 0.0
H957 H 0.51401 0.91121 0.21748 0.0
H958 H 0.54794 0.90232 0.27944 0.0
C959 C 0.52136 0.91112 0.27342 0.0
C960 C 0.0916 0.48749 0.3014 0.0
C961 C 0.08522 0.46495 0.29436 0.0
C962 C 0.07123 0.45639 0.27723 0.0
C963 C 0.07005 0.49278 0.27486 0.0
C964 C 0.08386 0.50091 0.29158 0.0
C965 C 0.08952 0.5252 0.29749 0.0
H966 H 0.08263 0.62244 0.28075 0.0
C967 C 0.06549 0.51163 0.26826 0.0
C968 C 0.07696 0.53057 0.28151 0.0
H969 H 0.11996 0.60963 0.32711 0.0
H970 H 0.10603 0.57053 0.31481 0.0
H971 H 0.09801 0.60183 0.24729 0.0
H972 H 0.03524 0.56964 0.28163 0.0
H973 H 0.02743 0.56216 0.25669 0.0
H974 H 0.04228 0.59267 0.26411 0.0
H975 H 0.07378 0.60583 0.2414 0.0
H976 H 0.07619 0.58155 0.23143 0.0
C977 C 0.11643 0.54151 0.29647 0.0
C978 C 0.07872 0.52374 0.31809 0.0
C979 C 0.01927 0.50239 0.20556 0.0
C980 C 0.0151 0.51828 0.19473 0.0
C981 C 0.02208 0.54064 0.20301 0.0
C982 C 0.03348 0.54727 0.22127 0.0
C983 C 0.03848 0.53164 0.23133 0.0
C984 C 0.0313 0.50956 0.22355 0.0
C985 C 0.03958 0.49593 0.23571 0.0
C986 C 0.05289 0.51353 0.25205 0.0
C987 C 0.05202 0.53434 0.24941 0.0
C988 C 0.05582 0.49078 0.22279 0.0
C989 C 0.01796 0.47366 0.24362 0.0
C990 C 0.08792 0.61124 0.28815 0.0
C991 C 0.10238 0.61915 0.30499 0.0
C992 C 0.10859 0.60389 0.31431 0.0
C993 C 0.10058 0.58118 0.30703 0.0
C994 C 0.08634 0.57358 0.29013 0.0
C995 C 0.08018 0.58846 0.28098 0.0
C996 C 0.06538 0.57743 0.26289 0.0
C997 C 0.06368 0.55344 0.26283 0.0
C998 C 0.07596 0.55142 0.2788 0.0
C999 C 0.07881 0.59238 0.24475 0.0
C1000 C 0.04131 0.57542 0.26631 0.0
H1001 H 0.05272 0.46276 0.25461 0.0
H1002 H 0.10271 0.49477 0.31428 0.0
H1003 H 0.06187 0.50698 0.3197 0.0
H1004 H 0.07428 0.53769 0.32066 0.0
H1005 H 0.09056 0.52443 0.33005 0.0
H1006 H 0.12431 0.5351 0.28531 0.0
H1007 H 0.12484 0.54238 0.31088 0.0
H1008 H 0.12166 0.55957 0.29168 0.0
H1009 H 0.01391 0.48493 0.19998 0.0
H1010 H 0.01966 0.55355 0.19507 0.0
H1011 H 0.03862 0.56463 0.22655 0.0
H1012 H 0.06654 0.50584 0.21288 0.0
H1013 H 0.04556 0.47493 0.2134 0.0
H1014 H 0.06861 0.48842 0.23149 0.0
H1015 H 0.0045 0.47791 0.24872 0.0
H1016 H 0.02199 0.4661 0.25652 0.0
H1017 H 0.00993 0.45992 0.23195 0.0
H1018 H 0.06602 0.43897 0.2716 0.0
C1019 C 0.06349 0.47018 0.26748 0.0
C1020 C 0.38146 0.48462 0.28829 0.0
C1021 C 0.36383 0.4658 0.27771 0.0
C1022 C 0.36917 0.45871 0.25976 0.0
C1023 C 0.40946 0.49015 0.26287 0.0
C1024 C 0.40385 0.49673 0.28051 0.0
C1025 C 0.42327 0.51923 0.28871 0.0
H1026 H 0.5282 0.61507 0.27633 0.0
C1027 C 0.43407 0.50761 0.2585 0.0
C1028 C 0.44204 0.52462 0.27365 0.0
H1029 H 0.47662 0.60313 0.32046 0.0
H1030 H 0.45277 0.56286 0.30905 0.0
H1031 H 0.52753 0.56807 0.27956 0.0
H1032 H 0.49124 0.59049 0.24078 0.0
H1033 H 0.50413 0.57749 0.22663 0.0
H1034 H 0.52232 0.6025 0.24167 0.0
H1035 H 0.53997 0.58165 0.25648 0.0
H1036 H 0.52142 0.5501 0.25852 0.0
C1037 C 0.4301 0.51418 0.30921 0.0
C1038 C 0.41515 0.53782 0.28884 0.0
C1039 C 0.47249 0.50668 0.19361 0.0
C1040 C 0.49481 0.52233 0.18615 0.0
C1041 C 0.5121 0.53895 0.19878 0.0
C1042 C 0.50681 0.54137 0.21821 0.0
C1043 C 0.48384 0.52753 0.22487 0.0
C1044 C 0.46739 0.50956 0.21318 0.0
C1045 C 0.44415 0.49616 0.22349 0.0
C1046 C 0.44924 0.51004 0.2427 0.0
C1047 C 0.47239 0.52874 0.24301 0.0
C1048 C 0.43905 0.47076 0.22701 0.0
C1049 C 0.42544 0.49771 0.21087 0.0
C1050 C 0.51167 0.60365 0.28343 0.0
C1051 C 0.50386 0.61196 0.299 0.0
C1052 C 0.48253 0.59692 0.30815 0.0
C1053 C 0.4688 0.57369 0.30146 0.0
C1054 C 0.47626 0.5659 0.28511 0.0
C1055 C 0.49755 0.58072 0.27659 0.0
C1056 C 0.50237 0.57001 0.25893 0.0
C1057 C 0.47997 0.54639 0.25781 0.0
C1058 C 0.46487 0.5442 0.27311 0.0
C1059 C 0.52398 0.56739 0.26345 0.0
C1060 C 0.50528 0.58585 0.24099 0.0
H1061 H 0.39525 0.46467 0.23859 0.0
H1062 H 0.37756 0.49074 0.30185 0.0
H1063 H 0.39968 0.53259 0.27917 0.0
H1064 H 0.42853 0.55503 0.28294 0.0
H1065 H 0.41025 0.54043 0.30391 0.0
H1066 H 0.43075 0.49755 0.30887 0.0
H1067 H 0.41718 0.51228 0.32054 0.0
H1068 H 0.44764 0.52799 0.31409 0.0
H1069 H 0.45901 0.49361 0.18411 0.0
H1070 H 0.52947 0.55081 0.1933 0.0
H1071 H 0.52051 0.55483 0.22696 0.0
H1072 H 0.45511 0.47079 0.23201 0.0
H1073 H 0.43288 0.46013 0.21324 0.0
H1074 H 0.42608 0.46171 0.23871 0.0
H1075 H 0.43265 0.51559 0.20446 0.0
H1076 H 0.41014 0.49489 0.21946 0.0
H1077 H 0.41942 0.48481 0.1985 0.0
H1078 H 0.35561 0.44414 0.25142 0.0
C1079 C 0.39209 0.47063 0.25239 0.0
O1080 O 0.50397 0.98112 0.94866 0.0
Mg1081 Mg 0.52299 0.97917 0.97193 0.0
O1082 O 0.4962 0.00401 0.96718 0.0
Mg1083 Mg 0.50032 -0.00336 0.0011 0.0
O1084 O 0.50442 0.96369 0.99658 0.0
O1085 O 0.51895 0.94694 0.97666 0.0
O1086 O 0.50487 0.98683 0.03479 0.0
O1087 O 0.46061 0.97081 0.00127 0.0
Mg1088 Mg 0.4889 0.01131 0.02841 0.0
O1089 O 0.49483 0.03062 0.00352 0.0
O1090 O 0.51574 0.02043 0.04898 0.0
O1091 O 0.45641 0.97939 0.03163 0.0
O1092 O 0.48096 0.03659 0.0319 0.0
C1093 C 0.55787 0.02461 0.99146 0.0
C1094 C 0.49686 -0.00433 0.95023 0.0
C1095 C 0.50767 0.94615 0.99242 0.0
C1096 C 0.5133 0.00021 0.04989 0.0
C1097 C 0.44787 0.96665 0.01641 0.0
C1098 C 0.48749 0.04237 0.01397 0.0
O1099 O 0.55518 0.00932 0.97864 0.0
O1100 O 0.54062 0.02302 0.00116 0.0
O1101 O 0.98179 0.51629 0.96976 0.0
Mg1102 Mg 0.99069 0.52536 -0.00019 0.0
O1103 O 0.99092 0.48841 0.97224 0.0
Mg1104 Mg 0.99006 0.48796 0.00649 0.0
O1105 O 0.02119 0.52831 0.00921 0.0
O1106 O 0.0167 0.5586 -0.0006 0.0
O1107 O 0.98859 0.48835 0.04074 0.0
O1108 O 0.02171 0.4812 0.00627 0.0
Mg1109 Mg 0.9755 0.43667 0.02608 0.0
O1110 O 0.96336 0.4494 0.00479 0.0
O1111 O 0.97525 0.45253 0.05316 0.0
O1112 O 0.00867 0.44448 0.01639 0.0
O1113 O 0.94527 0.41147 0.01187 0.0
C1114 C 0.94985 0.50306 0.01578 0.0
C1115 C 0.98572 0.50117 0.96169 0.0
C1116 C 0.02975 0.55075 0.00607 0.0
C1117 C 0.98231 0.4743 0.05535 0.0
C1118 C 0.0249 0.46383 0.00972 0.0
C1119 C 0.94648 0.42839 0.00139 0.0
O1120 O 0.9663 0.52292 0.0209 0.0
O1121 O 0.95499 0.48926 0.00671 0.0
O1122 O 0.51473 0.48291 0.04336 0.0
Mg1123 Mg 0.48913 0.46847 0.02138 0.0
O1124 O 0.50576 0.50869 0.03277 0.0
Mg1125 Mg 0.49851 0.5011 0.99827 0.0
O1126 O 0.49541 0.46328 0.99275 0.0
O1127 O 0.48372 0.43622 0.01688 0.0
O1128 O 0.49097 0.49697 0.96363 0.0
O1129 O 0.53918 0.51533 0.99571 0.0
Mg1130 Mg 0.52293 0.54346 0.98101 0.0
O1131 O 0.4993 0.53753 0.00284 0.0
O1132 O 0.5119 0.5331 0.95263 0.0
O1133 O 0.55677 0.55279 0.98834 0.0
O1134 O 0.51866 0.5709 0.98531 0.0
C1135 C 0.44605 0.47003 0.01529 0.0
C1136 C 0.51381 0.50135 0.04639 0.0
C1137 C 0.48915 0.44209 -0.00123 0.0
C1138 C 0.49765 0.51169 0.94948 0.0
C1139 C 0.55796 0.53487 0.99304 0.0
C1140 C 0.50436 0.55907 -0.00082 0.0
O1141 O 0.45534 0.46254 0.02741 0.0
O1142 O 0.45831 0.48424 0.00179 0.0
O1143 O 0.18956 0.32848 0.28788 0.0
Mg1144 Mg 0.20414 0.32481 0.3143 0.0
O1145 O 0.15793 0.32655 0.30099 0.0
Mg1146 Mg 0.16259 0.32571 0.33513 0.0
O1147 O 0.17949 0.3025 0.33299 0.0
O1148 O 0.20589 0.29511 0.31935 0.0
O1149 O 0.1673 0.32492 0.36896 0.0
O1150 O 0.12892 0.2871 0.3355 0.0
Mg1151 Mg 0.12524 0.31931 0.34678 0.0
O1152 O 0.14733 0.35235 0.33745 0.0
O1153 O 0.12957 0.30606 0.37427 0.0
O1154 O 0.10432 0.29666 0.324 0.0
O1155 O 0.11384 0.34131 0.35393 0.0
C1156 C 0.21911 0.36926 0.33409 0.0
C1157 C 0.17042 0.32837 0.28602 0.0
C1158 C 0.18911 0.2895 0.33169 0.0
C1159 C 0.15015 0.31362 0.38048 0.0
C1160 C 0.10902 0.28076 0.32785 0.0
C1161 C 0.13191 0.35709 0.34477 0.0
O1162 O 0.22643 0.35518 0.33029 0.0
O1163 O 0.19729 0.36219 0.33403 0.0
O1164 O 0.65494 0.85331 0.30392 0.0
Mg1165 Mg 0.66205 0.86195 0.33443 0.0
O1166 O 0.66783 0.82841 0.30699 0.0
Mg1167 Mg 0.66468 0.82678 0.34087 0.0
O1168 O 0.69295 0.86764 0.34494 0.0
O1169 O 0.68585 0.89614 0.33475 0.0
O1170 O 0.66027 0.82792 0.37568 0.0
O1171 O 0.70064 0.82752 0.3404 0.0
Mg1172 Mg 0.66107 0.78984 0.35922 0.0
O1173 O 0.63961 0.78577 0.3356 0.0
O1174 O 0.64935 0.79247 0.38655 0.0
O1175 O 0.69448 0.79566 0.35581 0.0
O1176 O 0.64148 0.75658 0.35131 0.0
C1177 C 0.62129 0.83616 0.34997 0.0
C1178 C 0.66141 0.83994 0.29614 0.0
C1179 C 0.69983 0.88974 0.34198 0.0
C1180 C 0.65255 0.8128 0.38952 0.0
C1181 C 0.7079 0.81398 0.34646 0.0
C1182 C 0.63224 0.76346 0.33811 0.0
O1183 O 0.6371 0.85574 0.35623 0.0
O1184 O 0.62734 0.82405 0.33943 0.0
O1185 O 0.13407 0.82357 0.36525 0.0
Mg1186 Mg 0.12729 0.80799 0.33631 0.0
O1187 O 0.17135 0.84155 0.35823 0.0
Mg1188 Mg 0.16441 0.83852 0.32484 0.0
O1189 O 0.14855 0.79645 0.32603 0.0
O1190 O 0.114 0.77379 0.34112 0.0
O1191 O 0.15737 0.8356 0.29072 0.0
O1192 O 0.19956 0.83874 0.32092 0.0
Mg1193 Mg 0.20437 0.88768 0.30051 0.0
O1194 O 0.18251 0.87704 0.32336 0.0
O1195 O 0.18073 0.87062 0.27694 0.0
O1196 O 0.22557 0.87288 0.30713 0.0
O1197 O 0.20298 0.9146 0.31701 0.0
C1198 C 0.11139 0.8325 0.32298 0.0
C1199 C 0.15517 0.83515 0.37087 0.0
C1200 C 0.13251 0.77618 0.33276 0.0
C1201 C 0.16404 0.84945 0.27588 0.0
C1202 C 0.22007 0.85302 0.31459 0.0
C1203 C 0.18705 0.89794 0.32733 0.0
O1204 O 0.10596 0.81273 0.31569 0.0
O1205 O 0.13202 0.84474 0.32975 0.0
O1206 O 0.85625 0.68042 0.62669 0.0
Mg1207 Mg 0.86077 0.66493 0.6525 0.0
O1208 O 0.82126 0.66964 0.63741 0.0
Mg1209 Mg 0.83043 0.66807 0.67044 0.0
O1210 O 0.83649 0.63499 0.66595 0.0
O1211 O 0.86165 0.63658 0.64285 0.0
O1212 O 0.83874 0.66607 0.70394 0.0
O1213 O 0.79178 0.63962 0.67506 0.0
Mg1214 Mg 0.80706 0.68934 0.70213 0.0
O1215 O 0.82156 0.69617 0.67538 0.0
O1216 O 0.8327 0.69109 0.72163 0.0
O1217 O 0.77812 0.65464 0.69767 0.0
O1218 O 0.80886 0.71869 0.68763 0.0
C1219 C 0.88874 0.70323 0.67098 0.0
C1220 C 0.83612 0.67742 0.62357 0.0
C1221 C 0.84601 0.625 0.65591 0.0
C1222 C 0.8402 0.6767 0.72022 0.0
C1223 C 0.77545 0.638 0.68619 0.0
C1224 C 0.81776 0.71335 0.67302 0.0
O1225 O 0.89002 0.68476 0.67025 0.0
O1226 O 0.86892 0.70151 0.66785 0.0
O1227 O 0.34215 0.18851 0.61575 0.0
Mg1228 Mg 0.33436 0.19904 0.64204 0.0
O1229 O 0.3247 0.15451 0.63076 0.0
Mg1230 Mg 0.32373 0.15987 0.66519 0.0
O1231 O 0.3526 0.19987 0.66709 0.0
O1232 O 0.35968 0.23141 0.6489 0.0
O1233 O 0.32173 0.16152 0.69971 0.0
O1234 O 0.35821 0.15719 0.66552 0.0
Mg1235 Mg 0.32106 0.12182 0.67673 0.0
O1236 O 0.29307 0.12008 0.6626 0.0
O1237 O 0.32769 0.13216 0.70633 0.0
O1238 O 0.34597 0.12025 0.65917 0.0
O1239 O 0.29316 0.08969 0.67781 0.0
C1240 C 0.28676 0.17992 0.65618 0.0
C1241 C 0.33328 0.1665 0.61514 0.0
C1242 C 0.36504 0.2223 0.6634 0.0
C1243 C 0.32452 0.14863 0.71219 0.0
C1244 C 0.36253 0.14112 0.66016 0.0
C1245 C 0.28269 0.09792 0.66725 0.0
O1246 O 0.30139 0.19537 0.64478 0.0
O1247 O 0.2916 0.16591 0.66524 0.0
O1248 O 0.79186 0.12126 0.70935 0.0
Mg1249 Mg 0.79143 0.11377 0.67906 0.0
O1250 O 0.8262 0.15251 0.70473 0.0
Mg1251 Mg 0.82573 0.15366 0.67051 0.0
O1252 O 0.81952 0.11464 0.66602 0.0
O1253 O 0.78892 0.08227 0.67873 0.0
O1254 O 0.82626 0.15522 0.63612 0.0
O1255 O 0.86366 0.15764 0.67106 0.0
Mg1256 Mg 0.86072 0.19167 0.66553 0.0
O1257 O 0.83241 0.19303 0.67516 0.0
O1258 O 0.86345 0.18167 0.63647 0.0
O1259 O 0.88381 0.19095 0.68653 0.0
O1260 O 0.86527 0.22401 0.66353 0.0
C1261 C 0.76826 0.13232 0.66242 0.0
C1262 C 0.81024 0.13846 0.71628 0.0
C1263 C 0.8085 0.0921 0.66951 0.0
C1264 C 0.84554 0.16682 0.62708 0.0
C1265 C 0.88255 0.17245 0.67968 0.0
C1266 C 0.84498 0.21547 0.67148 0.0
O1267 O 0.76622 0.11241 0.65986 0.0
O1268 O 0.78733 0.14883 0.66958 0.0
H1269 H 0.32103 0.89128 0.06185 0.0
H1270 H 0.29433 0.86996 0.00232 0.0
H1271 H 0.33457 0.89244 0.98941 0.0
H1272 H 0.36568 0.95036 0.0502 0.0
H1273 H 0.38611 0.95043 0.06788 0.0
H1274 H 0.35522 0.93264 0.07209 0.0
H1275 H 0.35979 0.89576 0.07545 0.0
H1276 H 0.39066 0.91339 0.07096 0.0
H1277 H 0.37291 0.888 0.05569 0.0
H1278 H 0.37807 0.91694 0.98322 0.0
H1279 H 0.42084 0.9438 0.98405 0.0
H1280 H 0.41828 0.94914 0.04769 0.0
C1281 C 0.32356 0.89165 0.04606 0.0
C1282 C 0.30454 0.87894 0.03307 0.0
C1283 C 0.30869 0.87946 0.01254 0.0
C1284 C 0.33145 0.89216 0.00509 0.0
C1285 C 0.34984 0.90419 0.01837 0.0
C1286 C 0.34609 0.90416 0.0384 0.0
C1287 C 0.36874 0.91854 0.04959 0.0
C1288 C 0.36894 0.93922 0.06058 0.0
C1289 C 0.37328 0.90299 0.06376 0.0
C1290 C 0.38583 0.92698 0.0327 0.0
C1291 C 0.37468 0.91834 0.01482 0.0
C1292 C 0.38698 0.92384 0.99715 0.0
C1293 C 0.41126 0.939 0.99777 0.0
C1294 C 0.42286 0.94859 0.01592 0.0
C1295 C 0.40992 0.94215 0.03357 0.0
H1296 H 0.11374 0.41949 0.0279 0.0
H1297 H 0.17064 0.48958 0.01543 0.0
H1298 H 0.142 0.50128 0.00433 0.0
H1299 H 0.074 0.41471 0.9881 0.0
H1300 H 0.04885 0.39942 0.00374 0.0
H1301 H 0.0741 0.39629 0.00772 0.0
H1302 H 0.07634 0.40979 0.04408 0.0
H1303 H 0.05121 0.41304 0.0402 0.0
H1304 H 0.07803 0.43759 0.04925 0.0
H1305 H 0.10586 0.50608 -0.00099 0.0
H1306 H 0.06687 0.50304 -0.00076 0.0
H1307 H 0.03551 0.42937 0.0152 0.0
C1308 C 0.12022 0.43721 0.02251 0.0
C1309 C 0.14426 0.45371 0.02257 0.0
C1310 C 0.15218 0.47669 0.01536 0.0
C1311 C 0.13607 0.48345 0.00909 0.0
C1312 C 0.11228 0.46687 0.00996 0.0
C1313 C 0.10453 0.44414 0.01634 0.0
C1314 C 0.07834 0.43003 0.01769 0.0
C1315 C 0.06824 0.40887 0.00345 0.0
C1316 C 0.07054 0.42217 0.03906 0.0
C1317 C 0.07236 0.44834 0.01125 0.0
C1318 C 0.09197 0.46953 0.0068 0.0
C1319 C 0.09038 0.48942 0.00213 0.0
C1320 C 0.06821 0.48756 0.0023 0.0
C1321 C 0.04809 0.46597 0.00717 0.0
C1322 C 0.05039 0.44614 0.01124 0.0
H1323 H 0.52976 0.68297 0.02159 0.0
H1324 H 0.53428 0.66895 0.08342 0.0
H1325 H 0.51452 0.62632 0.07604 0.0
H1326 H 0.47159 0.62941 0.01181 0.0
H1327 H 0.48052 0.62614 0.98747 0.0
H1328 H 0.49193 0.65507 0.99819 0.0
H1329 H 0.53431 0.66353 0.99293 0.0
H1330 H 0.523 0.63502 0.98183 0.0
H1331 H 0.54267 0.64321 0.00258 0.0
H1332 H 0.50004 0.58618 0.0609 0.0
H1333 H 0.49616 0.55409 0.03901 0.0
H1334 H 0.49724 0.59415 0.98811 0.0
C1335 C 0.52592 0.67097 0.03376 0.0
C1336 C 0.53347 0.67935 0.05309 0.0
C1337 C 0.5289 0.66299 0.06841 0.0
C1338 C 0.51731 0.63871 0.06443 0.0
C1339 C 0.50999 0.63108 0.04516 0.0
C1340 C 0.51409 0.64683 0.03011 0.0
C1341 C 0.50703 0.63471 0.01031 0.0
C1342 C 0.48654 0.63643 0.00143 0.0
C1343 C 0.52799 0.64469 0.99611 0.0
C1344 C 0.49952 0.6098 0.01636 0.0
C1345 C 0.50086 0.60782 0.03656 0.0
C1346 C 0.49831 0.58732 0.04513 0.0
C1347 C 0.49597 0.56909 0.03264 0.0
C1348 C 0.49658 0.57189 0.01198 0.0
C1349 C 0.49652 0.5916 0.00391 0.0
H1350 H 0.87784 0.32809 0.93481 0.0
H1351 H 0.81683 0.32291 0.96331 0.0
H1352 H 0.83944 0.36495 0.97203 0.0
H1353 H 0.91617 0.35781 0.96697 0.0
H1354 H 0.94012 0.3771 0.95131 0.0
H1355 H 0.91763 0.34959 0.94182 0.0
H1356 H 0.91018 0.37133 0.91339 0.0
H1357 H 0.93273 0.3992 0.92306 0.0
H1358 H 0.90373 0.39439 0.91892 0.0
H1359 H 0.87018 0.40178 0.98627 0.0
H1360 H 0.90576 0.42821 0.00512 0.0
H1361 H 0.94695 0.41251 0.96528 0.0
C1362 C 0.8688 0.33601 0.94192 0.0
C1363 C 0.84558 0.32205 0.94847 0.0
C1364 C 0.83473 0.33307 0.95841 0.0
C1365 C 0.84734 0.35711 0.96311 0.0
C1366 C 0.87062 0.37014 0.9573 0.0
C1367 C 0.8811 0.36005 0.94647 0.0
C1368 C 0.90718 0.37651 0.94491 0.0
C1369 C 0.92104 0.36454 0.9517 0.0
C1370 C 0.91384 0.38591 0.92382 0.0
C1371 C 0.91015 0.39589 0.95888 0.0
C1372 C 0.88873 0.39255 0.96508 0.0
C1373 C 0.88701 0.40531 0.98089 0.0
C1374 C 0.90733 0.42048 0.99147 0.0
C1375 C 0.92895 0.42282 0.98605 0.0
C1376 C 0.9306 0.41164 0.96893 0.0
H1377 H 0.69317 0.59558 0.96911 0.0
H1378 H 0.68968 0.52962 0.98382 0.0
H1379 H 0.64837 0.51285 0.99346 0.0
H1380 H 0.65631 0.59449 0.00944 0.0
H1381 H 0.64272 0.60735 0.99491 0.0
H1382 H 0.67218 0.6143 0.98966 0.0
H1383 H 0.66045 0.60053 0.95343 0.0
H1384 H 0.63106 0.59376 0.95854 0.0
H1385 H 0.63638 0.57138 0.9485 0.0
H1386 H 0.60681 0.5027 -0.00019 0.0
H1387 H 0.56823 0.50015 0.00224 0.0
H1388 H 0.5999 0.57335 0.98464 0.0
C1389 C 0.68364 0.57763 0.97436 0.0
C1390 C 0.69444 0.56385 0.97578 0.0
C1391 C 0.68161 0.54046 0.98281 0.0
C1392 C 0.65821 0.53081 0.98831 0.0
C1393 C 0.64804 0.5449 0.98689 0.0
C1394 C 0.66037 0.56783 0.98017 0.0
C1395 C 0.64532 0.57915 0.97985 0.0
C1396 C 0.65469 0.60006 0.99433 0.0
C1397 C 0.64317 0.58663 0.95883 0.0
C1398 C 0.62246 0.55881 0.98686 0.0
C1399 C 0.62434 0.53922 0.99098 0.0
C1400 C 0.60514 0.518 0.99682 0.0
C1401 C 0.58333 0.5167 0.99817 0.0
C1402 C 0.58105 0.53653 0.99368 0.0
C1403 C 0.60103 0.55789 0.98832 0.0
H1404 H 0.43423 0.09876 0.94098 0.0
H1405 H 0.4369 0.14077 0.99176 0.0
H1406 H 0.45853 0.12589 0.01037 0.0
H1407 H 0.42326 0.04797 0.97013 0.0
H1408 H 0.44007 0.03984 0.95439 0.0
H1409 H 0.42617 0.05512 0.94428 0.0
H1410 H 0.46616 0.08702 0.93092 0.0
H1411 H 0.48041 0.07239 0.94171 0.0
H1412 H 0.4903 0.10272 0.94776 0.0
H1413 H 0.47997 0.10783 0.02361 0.0
H1414 H 0.49336 0.08061 0.0337 0.0
H1415 H 0.47473 0.04692 0.97612 0.0
C1416 C 0.43924 0.10471 0.95604 0.0
C1417 C 0.43456 0.12167 0.9646 0.0
C1418 C 0.44113 0.12864 0.9845 0.0
C1419 C 0.4534 0.12024 0.99527 0.0
C1420 C 0.45858 0.1044 0.98618 0.0
C1421 C 0.45121 0.09608 0.96727 0.0
C1422 C 0.4575 0.0774 0.96189 0.0
C1423 C 0.43543 0.05368 0.95742 0.0
C1424 C 0.47461 0.08537 0.94453 0.0
C1425 C 0.46928 0.07647 0.98087 0.0
C1426 C 0.47011 0.09269 0.99441 0.0
C1427 C 0.47942 0.09501 0.0132 0.0
C1428 C 0.48705 0.07952 0.01876 0.0
C1429 C 0.4851 0.06176 0.00567 0.0
C1430 C 0.47684 0.06067 0.98623 0.0
H1431 H 0.68233 0.11196 0.9504 0.0
H1432 H 0.70985 0.1229 0.00988 0.0
H1433 H 0.66938 0.09966 0.02284 0.0
H1434 H 0.63002 0.11546 0.96271 0.0
H1435 H 0.61254 0.09352 0.94449 0.0
H1436 H 0.64339 0.11251 0.94057 0.0
H1437 H 0.64851 0.07602 0.93599 0.0
H1438 H 0.61774 0.05701 0.9397 0.0
H1439 H 0.63842 0.05396 0.95498 0.0
H1440 H 0.62512 0.07227 0.02845 0.0
H1441 H 0.58276 0.04273 0.02589 0.0
H1442 H 0.58613 0.05116 0.96253 0.0
C1443 C 0.6798 0.10949 0.96617 0.0
C1444 C 0.69898 0.11882 0.97919 0.0
C1445 C 0.69518 0.11569 -0.00026 0.0
C1446 C 0.67233 0.10265 0.00717 0.0
C1447 C 0.65367 0.09344 0.9938 0.0
C1448 C 0.65732 0.09693 0.97373 0.0
C1449 C 0.63478 0.08465 0.9622 0.0
C1450 C 0.6299 0.10261 0.95189 0.0
C1451 C 0.63488 0.06685 0.94736 0.0
C1452 C 0.61783 0.07256 0.97874 0.0
C1453 C 0.62878 0.07815 0.99697 0.0
C1454 C 0.61639 0.06806 0.01426 0.0
C1455 C 0.5924 0.05143 0.01273 0.0
C1456 C 0.58143 0.04494 0.99402 0.0
C1457 C 0.59421 0.05602 0.97699 0.0
H1458 H 0.87524 0.56134 0.00129 0.0
H1459 H 0.83934 0.50809 0.95634 0.0
H1460 H 0.85324 0.48315 0.97161 0.0
H1461 H 0.92471 0.56038 -0.00044 0.0
H1462 H 0.93204 0.56502 0.02544 0.0
H1463 H 0.91354 0.57491 0.01503 0.0
H1464 H 0.88176 0.55047 0.04083 0.0
H1465 H 0.90024 0.54024 0.05118 0.0
H1466 H 0.87112 0.51934 0.04296 0.0
H1467 H 0.87705 0.46848 0.98646 0.0
H1468 H 0.91229 0.4677 0.99659 0.0
H1469 H 0.93399 0.53039 0.03218 0.0
C1470 C 0.86972 0.54402 0.99523 0.0
C1471 C 0.8562 0.53632 0.9779 0.0
C1472 C 0.84969 0.51402 0.96975 0.0
C1473 C 0.85723 0.49969 0.97846 0.0
C1474 C 0.87123 0.50798 0.99531 0.0
C1475 C 0.87747 0.52969 0.00362 0.0
C1476 C 0.89629 0.53659 0.01913 0.0
C1477 C 0.91791 0.56061 0.01448 0.0
C1478 C 0.88677 0.53665 0.03975 0.0
C1479 C 0.90121 0.5165 0.01687 0.0
C1480 C 0.88578 0.49961 0.00378 0.0
C1481 C 0.88884 0.48119 0.99715 0.0
C1482 C 0.90895 0.48084 0.00303 0.0
C1483 C 0.92586 0.49902 0.01513 0.0
C1484 C 0.92118 0.51615 0.02308 0.0
H1485 H 0.42131 0.30889 0.96656 0.0
H1486 H 0.4808 0.3222 0.93089 0.0
H1487 H 0.49871 0.36512 0.93744 0.0
H1488 H 0.41945 0.36254 0.95445 0.0
H1489 H 0.41209 0.36604 0.97932 0.0
H1490 H 0.40288 0.33704 0.96966 0.0
H1491 H 0.42324 0.32904 -0.00109 0.0
H1492 H 0.43237 0.3579 0.00869 0.0
H1493 H 0.45374 0.34916 0.00373 0.0
H1494 H 0.51084 0.40655 0.9497 0.0
H1495 H 0.51761 0.44173 0.9692 0.0
H1496 H 0.45075 0.39977 0.99761 0.0
C1497 C 0.4379 0.32099 0.95988 0.0
C1498 C 0.44971 0.31268 0.94809 0.0
C1499 C 0.4716 0.32862 0.93987 0.0
C1500 C 0.48176 0.35289 0.94342 0.0
C1501 C 0.46975 0.36069 0.95529 0.0
C1502 C 0.44836 0.34512 0.9635 0.0
C1503 C 0.44003 0.35744 0.97729 0.0
C1504 C 0.41726 0.35566 0.96972 0.0
C1505 C 0.4372 0.34782 -0.0016 0.0
C1506 C 0.46024 0.38229 0.97588 0.0
C1507 C 0.47707 0.38407 0.96286 0.0
C1508 C 0.49771 0.4054 0.95985 0.0
C1509 C 0.50142 0.42524 0.97086 0.0
C1510 C 0.48473 0.42318 0.98484 0.0
C1511 C 0.46379 0.40164 0.98699 0.0
H1512 H 0.13403 0.68052 0.0079 0.0
H1513 H 0.15881 0.66215 0.06024 0.0
H1514 H 0.13163 0.61984 0.05352 0.0
H1515 H 0.07688 0.64244 0.01627 0.0
H1516 H 0.06816 0.63493 0.99087 0.0
H1517 H 0.09321 0.66281 0.99694 0.0
H1518 H 0.11881 0.65357 0.97383 0.0
H1519 H 0.0937 0.62557 0.9676 0.0
H1520 H 0.11975 0.62678 0.97713 0.0
H1521 H 0.09786 0.5803 0.04382 0.0
H1522 H 0.05898 0.54779 0.03341 0.0
H1523 H 0.05562 0.59281 0.98844 0.0
C1524 C 0.13436 0.66745 0.01741 0.0
C1525 C 0.14871 0.67427 0.03428 0.0
C1526 C 0.14809 0.65699 0.04704 0.0
C1527 C 0.13281 0.633 0.04329 0.0
C1528 C 0.11826 0.62674 0.02679 0.0
C1529 C 0.11893 0.64353 0.01405 0.0
C1530 C 0.09912 0.63277 -0.00072 0.0
C1531 C 0.08343 0.64389 0.00096 0.0
C1532 C 0.10841 0.63479 0.97821 0.0
C1533 C 0.08669 0.60753 0.00616 0.0
C1534 C 0.09823 0.60416 0.0217 0.0
C1535 C 0.08887 0.58261 0.03144 0.0
C1536 C 0.06683 0.56426 0.02546 0.0
C1537 C 0.05439 0.56793 0.01023 0.0
C1538 C 0.06482 0.58956 0.00014 0.0
H1539 H 0.32002 0.44933 0.04093 0.0
H1540 H 0.29461 0.37504 0.03106 0.0
H1541 H 0.33341 0.38447 0.01842 0.0
H1542 H 0.3602 0.4723 -0.00138 0.0
H1543 H 0.38207 0.49707 0.01251 0.0
H1544 H 0.35162 0.48476 0.01842 0.0
H1545 H 0.36024 0.47879 0.05457 0.0
H1546 H 0.39066 0.49107 0.04879 0.0
H1547 H 0.37467 0.46216 0.05948 0.0
H1548 H 0.37508 0.40134 0.00982 0.0
H1549 H 0.418 0.42439 0.00707 0.0
H1550 H 0.41711 0.48806 0.0228 0.0
C1551 C 0.32258 0.43516 0.03567 0.0
C1552 C 0.30445 0.4115 0.03668 0.0
C1553 C 0.3084 0.39326 0.03027 0.0
C1554 C 0.33027 0.39848 0.023 0.0
C1555 C 0.34791 0.422 0.02238 0.0
C1556 C 0.34439 0.44006 0.02862 0.0
C1557 C 0.36688 0.46357 0.02821 0.0
C1558 C 0.36508 0.48042 0.01356 0.0
C1559 C 0.37349 0.47453 0.049 0.0
C1560 C 0.38371 0.45588 0.02102 0.0
C1561 C 0.37227 0.43183 0.01756 0.0
C1562 C 0.38418 0.42019 0.01218 0.0
C1563 C 0.40847 0.43338 0.01067 0.0
C1564 C 0.42053 0.45789 0.01446 0.0
C1565 C 0.40806 0.46942 0.01937 0.0
H1566 H 0.54025 0.85561 0.02975 0.0
H1567 H 0.53527 0.87728 0.08919 0.0
H1568 H 0.51419 0.8968 0.07635 0.0
H1569 H 0.55336 0.90612 0.00714 0.0
H1570 H 0.53689 0.89288 0.9849 0.0
H1571 H 0.54744 0.8773 -0.00063 0.0
H1572 H 0.50522 0.84198 0.00191 0.0
H1573 H 0.49449 0.85773 0.98759 0.0
H1574 H 0.4824 0.84654 0.01154 0.0
H1575 H 0.49808 0.91792 0.05639 0.0
H1576 H 0.49421 0.94303 0.03123 0.0
H1577 H 0.50903 0.90619 0.98545 0.0
C1578 C 0.53404 0.86374 0.0402 0.0
C1579 C 0.53923 0.86476 0.06048 0.0
C1580 C 0.53159 0.8764 0.07355 0.0
C1581 C 0.51928 0.8872 0.06644 0.0
C1582 C 0.51449 0.88587 0.04629 0.0
C1583 C 0.52169 0.87439 0.03339 0.0
C1584 C 0.51727 0.87796 0.0122 0.0
C1585 C 0.54009 0.88925 0.00023 0.0
C1586 C 0.49874 0.85466 0.00276 0.0
C1587 C 0.50797 0.89462 0.01506 0.0
C1588 C 0.50567 0.89837 0.0348 0.0
C1589 C 0.49966 0.915 0.04091 0.0
C1590 C 0.49755 0.92923 0.02655 0.0
C1591 C 0.50202 0.92699 0.00653 0.0
C1592 C 0.5057 0.90843 0.0007 0.0
H1593 H 0.97617 0.21255 0.34189 0.0
H1594 H 0.99105 0.19018 0.39735 0.0
H1595 H 0.03061 0.20126 0.38561 0.0
H1596 H 0.01278 0.19734 0.30942 0.0
H1597 H 0.02246 0.22355 0.29492 0.0
H1598 H -0.00615 0.20946 0.30589 0.0
H1599 H 0.00337 0.24849 0.32356 0.0
H1600 H 0.03154 0.26265 0.31216 0.0
H1601 H 0.02934 0.2634 0.33861 0.0
H1602 H 0.06934 0.21871 0.36978 0.0
H1603 H 0.10607 0.24849 0.35471 0.0
H1604 H 0.06683 0.26068 0.30959 0.0
C1605 C 0.98775 0.2097 0.35133 0.0
C1606 C 0.98086 0.20056 0.37042 0.0
C1607 C -0.00369 0.19733 0.38268 0.0
C1608 C 0.01858 0.20318 0.37601 0.0
C1609 C 0.02502 0.21222 0.35706 0.0
C1610 C 0.01018 0.21582 0.345 0.0
C1611 C 0.02255 0.22932 0.3267 0.0
C1612 C 0.0123 0.21399 0.30813 0.0
C1613 C 0.02166 0.25232 0.32519 0.0
C1614 C 0.047 0.23396 0.3309 0.0
C1615 C 0.04784 0.22308 0.34806 0.0
C1616 C 0.0689 0.22698 0.35615 0.0
C1617 C 0.08974 0.24382 0.34736 0.0
C1618 C 0.08919 0.2569 0.33103 0.0
C1619 C 0.06763 0.25065 0.32192 0.0
H1620 H 0.78711 0.75933 0.34003 0.0
H1621 H 0.84264 0.82462 0.36417 0.0
H1622 H 0.8203 0.8446 0.35596 0.0
H1623 H 0.76815 0.7877 0.2999 0.0
H1624 H 0.73801 0.76553 0.30326 0.0
H1625 H 0.7607 0.75818 0.30657 0.0
H1626 H 0.74544 0.74295 0.34173 0.0
H1627 H 0.72281 0.7501 0.33848 0.0
H1628 H 0.7426 0.76222 0.35914 0.0
H1629 H 0.78874 0.8548 0.35164 0.0
H1630 H 0.75061 0.8536 0.35244 0.0
H1631 H 0.71649 0.78204 0.33025 0.0
C1632 C 0.79479 0.77804 0.34283 0.0
C1633 C 0.81644 0.79067 0.35245 0.0
C1634 C 0.82606 0.81493 0.3565 0.0
C1635 C 0.81359 0.82638 0.3518 0.0
C1636 C 0.79182 0.81331 0.34272 0.0
C1637 C 0.78267 0.78971 0.33802 0.0
C1638 C 0.7578 0.77876 0.33077 0.0
C1639 C 0.75607 0.77216 0.30882 0.0
C1640 C 0.74121 0.75728 0.34329 0.0
C1641 C 0.75368 0.79921 0.33383 0.0
C1642 C 0.77365 0.81929 0.34008 0.0
C1643 C 0.77316 0.83945 0.34618 0.0
C1644 C 0.75153 0.83869 0.34658 0.0
C1645 C 0.73096 0.81777 0.34128 0.0
C1646 C 0.73222 0.7983 0.33408 0.0
H1647 H 0.19783 0.98965 0.39949 0.0
H1648 H 0.16155 0.00351 0.35242 0.0
H1649 H 0.14295 0.96239 0.3424 0.0
H1650 H 0.21811 0.96497 0.36968 0.0
H1651 H 0.21743 0.94341 0.38652 0.0
H1652 H 0.21931 0.9698 0.39596 0.0
H1653 H 0.18222 0.94456 0.41678 0.0
H1654 H 0.18004 0.91795 0.40684 0.0
H1655 H 0.15566 0.92292 0.40483 0.0
H1656 H 0.13547 0.92404 0.33188 0.0
H1657 H 0.14838 0.89842 0.31663 0.0
H1658 H 0.19509 0.91113 0.36565 0.0
C1659 C 0.18587 0.98424 0.38715 0.0
C1660 C 0.18133 0.00037 0.37698 0.0
C1661 C 0.16504 0.99185 0.36114 0.0
C1662 C 0.15419 0.96822 0.35527 0.0
C1663 C 0.16005 0.95318 0.36497 0.0
C1664 C 0.17592 0.96104 0.38039 0.0
C1665 C 0.18449 0.94395 0.38463 0.0
C1666 C 0.2114 0.95627 0.38412 0.0
C1667 C 0.17503 0.93161 0.40445 0.0
C1668 C 0.17318 0.92683 0.36764 0.0
C1669 C 0.15757 0.93134 0.35756 0.0
C1670 C 0.14722 0.92 0.33986 0.0
C1671 C 0.15458 0.90542 0.3313 0.0
C1672 C 0.17246 0.90291 0.34024 0.0
C1673 C 0.18085 0.91243 0.35907 0.0
H1674 H 0.54694 0.63053 0.31416 0.0
H1675 H 0.49413 0.64787 0.29738 0.0
H1676 H 0.52246 0.69037 0.30309 0.0
H1677 H 0.57374 0.67474 0.35274 0.0
H1678 H 0.60246 0.67961 0.34719 0.0
H1679 H 0.57722 0.65119 0.34266 0.0
H1680 H 0.59018 0.65339 0.30626 0.0
H1681 H 0.61503 0.68216 0.31052 0.0
H1682 H 0.59441 0.67783 0.29125 0.0
H1683 H 0.55799 0.73135 0.31003 0.0
H1684 H 0.59538 0.76578 0.32126 0.0
H1685 H 0.62368 0.71958 0.3313 0.0
C1686 C 0.5413 0.64331 0.31204 0.0
C1687 C 0.51861 0.63633 0.30553 0.0
C1688 C 0.51156 0.65322 0.30269 0.0
C1689 C 0.52753 0.67726 0.30567 0.0
C1690 C 0.55023 0.68372 0.31148 0.0
C1691 C 0.55687 0.66709 0.3149 0.0
C1692 C 0.58199 0.67812 0.32116 0.0
C1693 C 0.58396 0.67047 0.34218 0.0
C1694 C 0.59623 0.67254 0.30641 0.0
C1695 C 0.58869 0.70366 0.32051 0.0
C1696 C 0.57031 0.70678 0.31494 0.0
C1697 C 0.57252 0.7291 0.31435 0.0
C1698 C 0.59381 0.74854 0.32052 0.0
C1699 C 0.61223 0.74517 0.32714 0.0
C1700 C 0.60983 0.72263 0.32631 0.0
H1701 H 0.34105 0.87552 0.27888 0.0
H1702 H 0.36309 0.89313 0.34001 0.0
H1703 H 0.32207 0.87497 0.35009 0.0
H1704 H 0.29897 0.89284 0.2817 0.0
H1705 H 0.279 0.87056 0.26475 0.0
H1706 H 0.30976 0.88111 0.26301 0.0
H1707 H 0.30138 0.83812 0.26606 0.0
H1708 H 0.27056 0.82759 0.2684 0.0
H1709 H 0.28569 0.82086 0.28713 0.0
H1710 H 0.27902 0.85752 0.35355 0.0
H1711 H 0.23879 0.85034 0.3493 0.0
H1712 H 0.24533 0.84771 0.28602 0.0
C1713 C 0.3374 0.87566 0.29441 0.0
C1714 C 0.35551 0.88538 0.30863 0.0
C1715 C 0.34966 0.88511 0.32879 0.0
C1716 C 0.32633 0.87478 0.33472 0.0
C1717 C 0.30896 0.86502 0.32034 0.0
C1718 C 0.31426 0.86589 0.30055 0.0
C1719 C 0.29269 0.85728 0.28781 0.0
C1720 C 0.29526 0.8766 0.27349 0.0
C1721 C 0.28726 0.83461 0.2767 0.0
C1722 C 0.27461 0.85239 0.30348 0.0
C1723 C 0.28415 0.85605 0.32221 0.0
C1724 C 0.27123 0.85424 0.339 0.0
C1725 C 0.24836 0.84993 0.3365 0.0
C1726 C 0.23908 0.84804 0.31738 0.0
C1727 C 0.25198 0.8484 0.30077 0.0
H1728 H 0.10395 0.43886 0.27937 0.0
H1729 H 0.08458 0.45914 0.33405 0.0
H1730 H 0.10112 0.43893 0.35295 0.0
H1731 H 0.08892 0.3812 0.29472 0.0
H1732 H 0.11268 0.38092 0.28198 0.0
H1733 H 0.10098 0.39866 0.27288 0.0
H1734 H 0.14246 0.43536 0.2744 0.0
H1735 H 0.15413 0.41773 0.28399 0.0
H1736 H 0.15839 0.44339 0.29739 0.0
H1737 H 0.11708 0.41503 0.36593 0.0
H1738 H 0.12714 0.38413 0.37221 0.0
H1739 H 0.13686 0.37898 0.30963 0.0
C1740 C 0.10316 0.43894 0.29531 0.0
C1741 C 0.09329 0.45083 0.30528 0.0
C1742 C 0.09248 0.45052 0.32615 0.0
C1743 C 0.10191 0.43919 0.33701 0.0
C1744 C 0.1121 0.42821 0.32681 0.0
C1745 C 0.11253 0.42766 0.30645 0.0
C1746 C 0.12298 0.41302 0.29925 0.0
C1747 C 0.10534 0.39221 0.28646 0.0
C1748 C 0.14585 0.4283 0.2881 0.0
C1749 C 0.12757 0.4048 0.31876 0.0
C1750 C 0.12158 0.41424 0.33444 0.0
C1751 C 0.12224 0.40782 0.35385 0.0
C1752 C 0.12809 0.3904 0.35729 0.0
C1753 C 0.13325 0.37976 0.34143 0.0
C1754 C 0.13385 0.3876 0.322 0.0
H1755 H 0.34819 0.44497 0.31315 0.0
H1756 H 0.32604 0.46336 0.25924 0.0
H1757 H 0.28691 0.44963 0.2736 0.0
H1758 H 0.29729 0.39199 0.32019 0.0
H1759 H 0.29816 0.39427 0.34671 0.0
H1760 H 0.32473 0.40911 0.33295 0.0
H1761 H 0.33365 0.44828 0.35008 0.0
H1762 H 0.30637 0.43345 0.36319 0.0
H1763 H 0.31299 0.45851 0.34803 0.0
H1764 H 0.24986 0.43116 0.29255 0.0
H1765 H 0.21578 0.40009 0.30989 0.0
H1766 H 0.26165 0.39278 0.3512 0.0
C1767 C 0.33505 0.44619 0.30449 0.0
C1768 C 0.33985 0.45511 0.28518 0.0
C1769 C 0.3224 0.45631 0.27403 0.0
C1770 C 0.30039 0.44904 0.28222 0.0
C1771 C 0.29628 0.44072 0.30154 0.0
C1772 C 0.313 0.43879 0.31235 0.0
C1773 C 0.30326 0.42602 0.33152 0.0
C1774 C 0.30599 0.40405 0.3329 0.0
C1775 C 0.31476 0.44256 0.34925 0.0
C1776 C 0.278 0.41968 0.32926 0.0
C1777 C 0.27458 0.42935 0.31234 0.0
C1778 C 0.25233 0.42382 0.30599 0.0
C1779 C 0.23302 0.40637 0.31611 0.0
C1780 C 0.23629 0.39427 0.33187 0.0
C1781 C 0.25889 0.40229 0.33946 0.0
H1782 H 0.53977 0.86364 0.28922 0.0
H1783 H 0.52912 0.8922 0.34353 0.0
H1784 H 0.54485 0.87124 0.36252 0.0
H1785 H 0.5288 0.80618 0.3092 0.0
H1786 H 0.55185 0.80674 0.29466 0.0
H1787 H 0.53583 0.82036 0.2855 0.0
H1788 H 0.57443 0.86001 0.28121 0.0
H1789 H 0.59042 0.84629 0.2898 0.0
H1790 H 0.5941 0.87246 0.30191 0.0
H1791 H 0.56682 0.85277 0.37506 0.0
H1792 H 0.59773 0.84259 0.37966 0.0
H1793 H 0.59389 0.8252 0.31764 0.0
C1794 C 0.54061 0.86538 0.30512 0.0
C1795 C 0.53305 0.87942 0.31489 0.0
C1796 C 0.53441 0.8812 0.33573 0.0
C1797 C 0.5432 0.86925 0.34666 0.0
C1798 C 0.55042 0.85547 0.33656 0.0
C1799 C 0.5494 0.85364 0.31624 0.0
C1800 C 0.56113 0.84037 0.30878 0.0
C1801 C 0.54333 0.81702 0.29896 0.0
C1802 C 0.58121 0.8557 0.29461 0.0
C1803 C 0.57006 0.83615 0.32802 0.0
C1804 C 0.5631 0.84442 0.34393 0.0
C1805 C 0.57186 0.84561 0.36286 0.0
C1806 C 0.58928 0.83966 0.36539 0.0
C1807 C 0.59765 0.83265 0.34906 0.0
C1808 C 0.587 0.82955 0.33044 0.0
H1809 H 0.1176 0.66016 0.28432 0.0
H1810 H 0.1058 0.63213 0.34371 0.0
H1811 H 0.11919 0.67177 0.35718 0.0
H1812 H 0.16879 0.71864 0.29581 0.0
H1813 H 0.1594 0.73362 0.2791 0.0
H1814 H 0.15227 0.70373 0.274 0.0
H1815 H 0.10831 0.69086 0.27199 0.0
H1816 H 0.11536 0.72068 0.27686 0.0
H1817 H 0.09488 0.69723 0.2924 0.0
H1818 H 0.12881 0.71233 0.36416 0.0
H1819 H 0.13215 0.7515 0.36421 0.0
H1820 H 0.13781 0.75411 0.30056 0.0
C1821 C 0.11802 0.66241 0.30017 0.0
C1822 C 0.11091 0.64311 0.31298 0.0
C1823 C 0.11167 0.64675 0.33363 0.0
C1824 C 0.11925 0.66919 0.34142 0.0
C1825 C 0.12608 0.68781 0.32839 0.0
C1826 C 0.12547 0.68471 0.30821 0.0
C1827 C 0.13151 0.70724 0.29746 0.0
C1828 C 0.15436 0.71635 0.28591 0.0
C1829 C 0.11131 0.70379 0.28389 0.0
C1830 C 0.13461 0.7232 0.31477 0.0
C1831 C 0.13183 0.71168 0.33248 0.0
C1832 C 0.13157 0.72177 0.35048 0.0
C1833 C 0.13347 0.74394 0.35037 0.0
C1834 C 0.13568 0.75571 0.33242 0.0
C1835 C 0.13692 0.74562 0.31445 0.0
H1836 H 0.79597 0.02184 0.34161 0.0
H1837 H 0.81563 0.01067 0.39981 0.0
H1838 H 0.79251 0.96759 0.39457 0.0
H1839 H 0.73937 0.98027 0.34469 0.0
H1840 H 0.7355 0.97068 0.31932 0.0
H1841 H 0.75776 0.0 0.32576 0.0
H1842 H 0.78898 0.99265 0.30939 0.0
H1843 H 0.76668 0.96312 0.30292 0.0
H1844 H 0.79186 0.96791 0.31699 0.0
H1845 H 0.76292 0.92637 0.38504 0.0
H1846 H 0.72664 0.8912 0.37338 0.0
H1847 H 0.7258 0.92984 0.32203 0.0
C1848 C 0.796 0.01026 0.35293 0.0
C1849 C 0.80758 0.01934 0.371 0.0
C1850 C 0.80675 0.00385 0.38585 0.0
C1851 C 0.79393 0.97943 0.38291 0.0
C1852 C 0.78218 0.97093 0.36504 0.0
C1853 C 0.78311 0.98592 0.3503 0.0
C1854 C 0.76618 0.97264 0.3338 0.0
C1855 C 0.74867 0.98141 0.33074 0.0
C1856 C 0.77921 0.97417 0.31464 0.0
C1857 C 0.75455 0.94807 0.34211 0.0
C1858 C 0.76453 0.9472 0.35979 0.0
C1859 C 0.75524 0.9267 0.37103 0.0
C1860 C 0.73471 0.90685 0.36434 0.0
C1861 C 0.72364 0.90809 0.34693 0.0
C1862 C 0.73413 0.92859 0.33539 0.0
H1863 H 0.98093 0.76932 0.35365 0.0
H1864 H 0.00406 0.80575 0.40979 0.0
H1865 H 0.04357 0.8311 0.39601 0.0
H1866 H 0.03241 0.76793 0.34303 0.0
H1867 H 0.03076 0.77182 0.3169 0.0
H1868 H 0.00454 0.75816 0.33128 0.0
H1869 H -0.00562 0.78924 0.31848 0.0
H1870 H 0.02108 0.80344 0.30457 0.0
H1871 H 0.01482 0.82011 0.32225 0.0
H1872 H 0.08067 0.8516 0.37615 0.0
H1873 H 0.11381 0.85977 0.35464 0.0
H1874 H 0.06585 0.81005 0.31143 0.0
C1875 C -0.00567 0.78269 0.36303 0.0
C1876 C 0.98956 0.78568 0.38274 0.0
C1877 C 0.00752 0.80308 0.39469 0.0
C1878 C 0.02983 0.81778 0.38689 0.0
C1879 C 0.03375 0.81483 0.36714 0.0
C1880 C 0.01657 0.79742 0.35551 0.0
C1881 C 0.02561 0.79645 0.3353 0.0
C1882 C 0.02321 0.77216 0.33141 0.0
C1883 C 0.01323 0.80269 0.3192 0.0
C1884 C 0.05085 0.81554 0.33753 0.0
C1885 C 0.0551 0.8264 0.35581 0.0
C1886 C 0.07751 0.84336 0.36175 0.0
C1887 C 0.09625 0.84808 0.3493 0.0
C1888 C 0.09239 0.83541 0.33138 0.0
C1889 C 0.06929 0.82014 0.32494 0.0
H1890 H 0.21248 0.19025 0.36596 0.0
H1891 H 0.20735 0.2095 0.42618 0.0
H1892 H 0.19135 0.23427 0.41403 0.0
H1893 H 0.23264 0.24545 0.34618 0.0
H1894 H 0.21731 0.23487 0.32306 0.0
H1895 H 0.22529 0.21671 0.33697 0.0
H1896 H 0.18196 0.18331 0.33684 0.0
H1897 H 0.17382 0.20166 0.32318 0.0
H1898 H 0.15983 0.18908 0.34629 0.0
H1899 H 0.1796 0.25977 0.39484 0.0
H1900 H 0.17776 0.28687 0.37046 0.0
H1901 H 0.18983 0.24966 0.32333 0.0
C1902 C 0.20748 0.19925 0.37663 0.0
C1903 C 0.21083 0.19781 0.39699 0.0
C1904 C 0.20487 0.21044 0.4105 0.0
C1905 C 0.19554 0.22427 0.40374 0.0
C1906 C 0.19227 0.22514 0.3835 0.0
C1907 C 0.19825 0.21304 0.37017 0.0
C1908 C 0.19559 0.21875 0.34914 0.0
C1909 C 0.2191 0.2296 0.33821 0.0
C1910 C 0.17667 0.1969 0.33823 0.0
C1911 C 0.18788 0.23658 0.35263 0.0
C1912 C 0.18555 0.23973 0.3725 0.0
C1913 C 0.18082 0.25706 0.37924 0.0
C1914 C 0.17951 0.27218 0.36535 0.0
C1915 C 0.18318 0.26991 0.34515 0.0
C1916 C 0.18648 0.25136 0.33871 0.0
H1917 H 0.65041 0.55576 0.72972 0.0
H1918 H 0.62559 0.53198 0.67016 0.0
H1919 H 0.6663 0.55403 0.65803 0.0
H1920 H 0.69305 0.61348 0.71805 0.0
H1921 H 0.71357 0.61516 0.73644 0.0
H1922 H 0.6828 0.59603 0.7401 0.0
H1923 H 0.68979 0.56073 0.74463 0.0
H1924 H 0.72061 0.57977 0.74066 0.0
H1925 H 0.7044 0.55384 0.72555 0.0
H1926 H 0.71004 0.58048 0.65252 0.0
H1927 H 0.75186 0.61144 0.65384 0.0
H1928 H 0.74667 0.61761 0.71701 0.0
C1929 C 0.65349 0.55531 0.71409 0.0
C1930 C 0.6349 0.54237 0.70084 0.0
C1931 C 0.63967 0.54179 0.68055 0.0
C1932 C 0.6627 0.55416 0.67357 0.0
C1933 C 0.68066 0.56672 0.68712 0.0
C1934 C 0.67622 0.56738 0.70695 0.0
C1935 C 0.69826 0.58295 0.71845 0.0
C1936 C 0.69683 0.6031 0.72886 0.0
C1937 C 0.70357 0.56845 0.73319 0.0
C1938 C 0.71574 0.59186 0.7019 0.0
C1939 C 0.70548 0.58192 0.68397 0.0
C1940 C 0.71827 0.58822 0.66651 0.0
C1941 C 0.74197 0.60567 0.66738 0.0
C1942 C 0.75227 0.61677 0.68553 0.0
C1943 C 0.73912 0.60932 0.70297 0.0
H1944 H 0.4472 0.09113 0.6618 0.0
H1945 H 0.49074 0.14954 0.70052 0.0
H1946 H 0.46945 0.16993 0.6904 0.0
H1947 H 0.4363 0.1263 0.62264 0.0
H1948 H 0.40642 0.10312 0.61968 0.0
H1949 H 0.42874 0.09603 0.62585 0.0
H1950 H 0.40514 0.07314 0.65653 0.0
H1951 H 0.38283 0.08001 0.65039 0.0
H1952 H 0.39659 0.08787 0.67434 0.0
H1953 H 0.43983 0.18056 0.68077 0.0
H1954 H 0.40207 0.17874 0.67524 0.0
H1955 H 0.37686 0.11285 0.6434 0.0
C1956 C 0.45265 0.10859 0.66749 0.0
C1957 C 0.47063 0.11912 0.6816 0.0
C1958 C 0.47707 0.14153 0.68947 0.0
C1959 C 0.46524 0.15325 0.68368 0.0
C1960 C 0.44709 0.14223 0.67003 0.0
C1961 C 0.44079 0.12035 0.66204 0.0
C1962 C 0.41833 0.11055 0.65035 0.0
C1963 C 0.42272 0.10892 0.62832 0.0
C1964 C 0.39963 0.08649 0.6584 0.0
C1965 C 0.41215 0.12952 0.65417 0.0
C1966 C 0.42937 0.14807 0.66491 0.0
C1967 C 0.42644 0.16643 0.67199 0.0
C1968 C 0.40494 0.16527 0.66877 0.0
C1969 C 0.38662 0.14561 0.65895 0.0
C1970 C 0.39069 0.12815 0.65083 0.0
H1971 H 0.87589 0.34606 0.68013 0.0
H1972 H 0.8518 0.33101 0.74049 0.0
H1973 H 0.8333 0.28829 0.73351 0.0
H1974 H 0.82526 0.29366 0.65666 0.0
H1975 H 0.84399 0.29 0.63949 0.0
H1976 H 0.85169 0.319 0.64829 0.0
H1977 H 0.89183 0.32567 0.66035 0.0
H1978 H 0.88437 0.29697 0.65134 0.0
H1979 H 0.89277 0.30462 0.67679 0.0
H1980 H 0.82139 0.24771 0.72097 0.0
H1981 H 0.82184 0.21373 0.70535 0.0
H1982 H 0.85406 0.25571 0.65347 0.0
C1983 C 0.86617 0.33372 0.69171 0.0
C1984 C 0.86504 0.34168 0.71077 0.0
C1985 C 0.85284 0.32514 0.72578 0.0
C1986 C 0.84205 0.3009 0.72188 0.0
C1987 C 0.84359 0.29358 0.7029 0.0
C1988 C 0.8555 0.30956 0.6881 0.0
C1989 C 0.85736 0.29749 0.66976 0.0
C1990 C 0.84376 0.3002 0.65253 0.0
C1991 C 0.8831 0.30672 0.66426 0.0
C1992 C 0.84564 0.27233 0.67684 0.0
C1993 C 0.83714 0.27024 0.69577 0.0
C1994 C 0.82755 0.24901 0.70601 0.0
C1995 C 0.82771 0.22976 0.69701 0.0
C1996 C 0.83786 0.23223 0.67823 0.0
C1997 C 0.84593 0.25339 0.66776 0.0
H1998 H 0.194 0.96677 0.65869 0.0
H1999 H 0.19341 0.97713 0.5956 0.0
H2000 H 0.21241 0.02004 0.60102 0.0
H2001 H 0.18408 0.0165 0.67352 0.0
H2002 H 0.20303 0.02332 0.69464 0.0
H2003 H 0.18608 0.99334 0.68597 0.0
H2004 H 0.22378 0.9906 0.68277 0.0
H2005 H 0.24059 0.02022 0.69178 0.0
H2006 H 0.24772 0.0123 0.66839 0.0
H2007 H 0.23646 0.0616 0.61292 0.0
H2008 H 0.26687 0.09731 0.62993 0.0
H2009 H 0.24912 0.05959 0.68515 0.0
C2010 C 0.1972 0.97796 0.64603 0.0
C2011 C 0.19221 0.96859 0.62676 0.0
C2012 C 0.19739 0.98394 0.61053 0.0
C2013 C 0.20777 0.00831 0.61348 0.0
C2014 C 0.21241 0.01696 0.63273 0.0
C2015 C 0.20723 0.00217 0.64873 0.0
C2016 C 0.21636 0.01581 0.66773 0.0
C2017 C 0.19618 0.01201 0.68126 0.0
C2018 C 0.23311 0.00936 0.67825 0.0
C2019 C 0.22897 0.04058 0.6598 0.0
C2020 C 0.22592 0.04103 0.63965 0.0
C2021 C 0.23848 0.06161 0.62875 0.0
C2022 C 0.25559 0.08187 0.63852 0.0
C2023 C 0.26001 0.08098 0.65878 0.0
C2024 C 0.24564 0.06062 0.66968 0.0
H2025 H 0.01912 0.24104 0.6675 0.0
H2026 H 0.00826 0.19717 0.61609 0.0
H2027 H 0.96675 0.17199 0.62513 0.0
H2028 H 0.97903 0.19447 0.70071 0.0
H2029 H 0.96878 0.21266 0.71178 0.0
H2030 H -0.0019 0.22589 0.70237 0.0
H2031 H 0.99042 0.25334 0.68 0.0
H2032 H 0.96134 0.24054 0.68967 0.0
H2033 H 0.9657 0.24063 0.66344 0.0
H2034 H 0.92638 0.15253 0.63913 0.0
H2035 H 0.88888 0.14434 0.65346 0.0
H2036 H 0.92588 0.20165 0.69529 0.0
C2037 C 0.00799 0.226 0.65828 0.0
C2038 C 0.01676 0.22089 0.64117 0.0
C2039 C 0.00171 0.20137 0.6292 0.0
C2040 C 0.97825 0.18684 0.63436 0.0
C2041 C 0.97017 0.19216 0.65148 0.0
C2042 C 0.98449 0.2115 0.66308 0.0
C2043 C 0.971 0.21472 0.67961 0.0
C2044 C 0.97975 0.21175 0.69981 0.0
C2045 C 0.97218 0.23872 0.67807 0.0
C2046 C 0.94672 0.19452 0.67521 0.0
C2047 C 0.94672 0.18135 0.65924 0.0
C2048 C 0.92616 0.16259 0.65174 0.0
C2049 C 0.90493 0.15796 0.6601 0.0
C2050 C 0.90444 0.17237 0.67552 0.0
C2051 C 0.9257 0.19018 0.68367 0.0
H2052 H 0.74836 0.74623 0.60353 0.0
H2053 H 0.81016 0.81537 0.60146 0.0
H2054 H 0.8342 0.79864 0.61268 0.0
H2055 H 0.75872 0.72941 0.64572 0.0
H2056 H 0.74859 0.69894 0.63989 0.0
H2057 H 0.73757 0.71469 0.62631 0.0
H2058 H 0.75077 0.70423 0.59366 0.0
H2059 H 0.76205 0.68848 0.60734 0.0
H2060 H 0.78078 0.71164 0.59077 0.0
H2061 H 0.84923 0.77763 0.63214 0.0
H2062 H 0.8534 0.75382 0.6583 0.0
H2063 H 0.78324 0.69737 0.64649 0.0
C2064 C 0.7671 0.75756 0.60457 0.0
C2065 C 0.7774 0.78205 0.60175 0.0
C2066 C 0.80189 0.79656 0.60377 0.0
C2067 C 0.81575 0.78716 0.60989 0.0
C2068 C 0.80498 0.7631 0.61354 0.0
C2069 C 0.78123 0.74836 0.61063 0.0
C2070 C 0.7734 0.72396 0.61851 0.0
C2071 C 0.75343 0.71635 0.6335 0.0
C2072 C 0.76633 0.70602 0.60156 0.0
C2073 C 0.79582 0.72808 0.62821 0.0
C2074 C 0.8141 0.75051 0.62451 0.0
C2075 C 0.83541 0.75971 0.63451 0.0
C2076 C 0.83772 0.74612 0.6493 0.0
C2077 C 0.81886 0.72367 0.65376 0.0
C2078 C 0.79814 0.71415 0.64256 0.0
H2079 H 0.02066 0.76631 0.64679 0.0
H2080 H 0.00844 0.81324 0.6105 0.0
H2081 H 0.97023 0.79944 0.62669 0.0
H2082 H 0.96513 0.7189 0.64352 0.0
H2083 H 0.96405 0.70883 0.66839 0.0
H2084 H 0.99167 0.72555 0.65636 0.0
H2085 H 0.00605 0.75562 0.68533 0.0
H2086 H 0.9781 0.73911 0.6972 0.0
H2087 H 0.98972 0.76988 0.69194 0.0
H2088 H 0.93184 0.77709 0.64352 0.0
H2089 H 0.89468 0.74456 0.65594 0.0
H2090 H 0.93201 0.7124 0.68171 0.0
C2091 C 0.00992 0.77376 0.64252 0.0
C2092 C 0.01702 0.79055 0.62745 0.0
C2093 C 0.00287 0.80012 0.62198 0.0
C2094 C 0.98141 0.79265 0.63127 0.0
C2095 C 0.97467 0.77587 0.64611 0.0
C2096 C 0.98848 0.76645 0.65163 0.0
C2097 C 0.97605 0.74659 0.6661 0.0
C2098 C 0.9741 0.72362 0.6581 0.0
C2099 C 0.98821 0.75321 0.68635 0.0
C2100 C 0.95256 0.74526 0.66687 0.0
C2101 C 0.95234 0.76282 0.6558 0.0
C2102 C 0.93187 0.76354 0.65255 0.0
C2103 C 0.91083 0.74505 0.65975 0.0
C2104 C 0.91056 0.72599 0.6697 0.0
C2105 C 0.93182 0.7269 0.67428 0.0
H2106 H 0.20488 0.22305 0.61795 0.0
H2107 H 0.20055 0.24337 0.67797 0.0
H2108 H 0.21744 0.21933 0.69006 0.0
H2109 H 0.19334 0.16258 0.62886 0.0
H2110 H 0.21385 0.16468 0.61041 0.0
H2111 H 0.19784 0.18004 0.60712 0.0
H2112 H 0.23667 0.21954 0.60302 0.0
H2113 H 0.25262 0.20423 0.6059 0.0
H2114 H 0.25886 0.22875 0.62187 0.0
H2115 H 0.24 0.19762 0.69472 0.0
H2116 H 0.26865 0.18391 0.69117 0.0
H2117 H 0.25753 0.17827 0.62806 0.0
C2118 C 0.20733 0.22232 0.63367 0.0
C2119 C 0.20174 0.23522 0.64705 0.0
C2120 C 0.2048 0.23356 0.66752 0.0
C2121 C 0.2142 0.21984 0.67448 0.0
C2122 C 0.21992 0.2076 0.66077 0.0
C2123 C 0.2165 0.20873 0.64078 0.0
C2124 C 0.22626 0.19627 0.62876 0.0
C2125 C 0.20664 0.1746 0.61816 0.0
C2126 C 0.2447 0.21321 0.61405 0.0
C2127 C 0.23704 0.18909 0.64497 0.0
C2128 C 0.23267 0.19509 0.66343 0.0
C2129 C 0.24304 0.19233 0.68041 0.0
C2130 C 0.25912 0.18437 0.67832 0.0
C2131 C 0.26479 0.17974 0.65937 0.0
C2132 C 0.2529 0.18116 0.64271 0.0
H2133 H 0.78518 0.96468 0.66033 0.0
H2134 H 0.80378 0.98007 0.59888 0.0
H2135 H 0.82266 0.02273 0.60609 0.0
H2136 H 0.76666 0.0037 0.66576 0.0
H2137 H 0.77649 0.0122 0.69083 0.0
H2138 H 0.77016 0.98385 0.68186 0.0
H2139 H 0.81189 0.99325 0.69172 0.0
H2140 H 0.8184 0.02188 0.70058 0.0
H2141 H 0.83685 0.01936 0.68236 0.0
H2142 H 0.83319 0.06263 0.61862 0.0
H2143 H 0.83036 0.0952 0.63449 0.0
H2144 H 0.80412 0.05367 0.6875 0.0
C2145 C 0.79407 0.97716 0.64863 0.0
C2146 C 0.79345 0.96938 0.62918 0.0
C2147 C 0.80435 0.98594 0.61393 0.0
C2148 C 0.81527 0.01013 0.61793 0.0
C2149 C 0.8151 0.01738 0.63724 0.0
C2150 C 0.8047 0.00133 0.65235 0.0
C2151 C 0.80316 0.01318 0.67096 0.0
C2152 C 0.77761 0.00262 0.67772 0.0
C2153 C 0.8185 0.01184 0.68737 0.0
C2154 C 0.81306 0.03811 0.66366 0.0
C2155 C 0.8206 0.04044 0.64439 0.0
C2156 C 0.82789 0.06122 0.63386 0.0
C2157 C 0.82633 0.07966 0.64296 0.0
C2158 C 0.81709 0.07677 0.66215 0.0
C2159 C 0.81149 0.05628 0.67287 0.0
H2160 H 0.47641 0.34449 0.68039 0.0
H2161 H 0.47145 0.32839 0.7427 0.0
H2162 H 0.44238 0.28688 0.73532 0.0
H2163 H 0.41946 0.31387 0.6705 0.0
H2164 H 0.4215 0.30348 0.64636 0.0
H2165 H 0.44546 0.33018 0.65598 0.0
H2166 H 0.47332 0.31347 0.65102 0.0
H2167 H 0.4494 0.28666 0.64112 0.0
H2168 H 0.46614 0.28552 0.66167 0.0
H2169 H 0.4091 0.24893 0.72149 0.0
H2170 H 0.37495 0.21884 0.7024 0.0
H2171 H 0.4028 0.26076 0.64969 0.0
C2172 C 0.47004 0.33204 0.6924 0.0
C2173 C 0.47624 0.33957 0.71206 0.0
C2174 C 0.46683 0.32292 0.72749 0.0
C2175 C 0.45047 0.29929 0.72343 0.0
C2176 C 0.44399 0.29261 0.70387 0.0
C2177 C 0.45376 0.30851 0.6886 0.0
C2178 C 0.44187 0.29799 0.6692 0.0
C2179 C 0.43145 0.31222 0.66 0.0
C2180 C 0.45868 0.29577 0.65491 0.0
C2181 C 0.42307 0.27416 0.67608 0.0
C2182 C 0.42477 0.271 0.69601 0.0
C2183 C 0.40788 0.25099 0.70579 0.0
C2184 C 0.38857 0.23406 0.69491 0.0
C2185 C 0.3863 0.23771 0.6747 0.0
C2186 C 0.4041 0.25762 0.66518 0.0
H2187 H 0.65887 0.11438 0.72066 0.0
H2188 H 0.6185 0.07605 0.66912 0.0
H2189 H 0.65473 0.09079 0.65003 0.0
H2190 H 0.70481 0.16547 0.69436 0.0
H2191 H 0.72773 0.16799 0.7104 0.0
H2192 H 0.69854 0.15649 0.71973 0.0
H2193 H 0.69782 0.11839 0.73106 0.0
H2194 H 0.72716 0.13011 0.72225 0.0
H2195 H 0.70443 0.10184 0.71351 0.0
H2196 H 0.69466 0.10632 0.63736 0.0
H2197 H 0.73602 0.11761 0.63324 0.0
H2198 H 0.75124 0.14673 0.69237 0.0
C2199 C 0.65769 0.10906 0.70538 0.0
C2200 C 0.63584 0.09426 0.69632 0.0
C2201 C 0.63502 0.08771 0.67627 0.0
C2202 C 0.65549 0.09608 0.66527 0.0
C2203 C 0.67669 0.11106 0.67449 0.0
C2204 C 0.67801 0.11729 0.69414 0.0
C2205 C 0.70317 0.13195 0.70088 0.0
C2206 C 0.70889 0.15696 0.70668 0.0
C2207 C 0.70845 0.11984 0.71792 0.0
C2208 C 0.71574 0.13214 0.68216 0.0
C2209 C 0.70008 0.1204 0.667 0.0
C2210 C 0.70717 0.11601 0.64892 0.0
C2211 C 0.73068 0.12262 0.64664 0.0
C2212 C 0.74674 0.13356 0.66229 0.0
C2213 C 0.73941 0.13931 0.67993 0.0
H2214 H 0.87929 0.55071 0.72489 0.0
H2215 H 0.88915 0.52122 0.6707 0.0
H2216 H 0.8693 0.53819 0.65208 0.0
H2217 H 0.82306 0.54588 0.71231 0.0
H2218 H 0.83074 0.57408 0.72299 0.0
H2219 H 0.84306 0.55716 0.73289 0.0
H2220 H 0.88491 0.59228 0.72768 0.0
H2221 H 0.87258 0.60934 0.71834 0.0
H2222 H 0.89313 0.6055 0.70364 0.0
H2223 H 0.85103 0.55987 0.63881 0.0
H2224 H 0.8421 0.59114 0.6308 0.0
H2225 H 0.84511 0.60847 0.69285 0.0
C2226 C 0.87731 0.54783 0.70912 0.0
C2227 C 0.8853 0.53404 0.6994 0.0
C2228 C 0.88249 0.53095 0.67866 0.0
C2229 C 0.8712 0.54052 0.66791 0.0
C2230 C 0.86297 0.5534 0.678 0.0
C2231 C 0.86632 0.55756 0.69805 0.0
C2232 C 0.85814 0.57431 0.70482 0.0
C2233 C 0.83752 0.56212 0.7191 0.0
C2234 C 0.8784 0.59669 0.71415 0.0
C2235 C 0.85041 0.57948 0.6853 0.0
C2236 C 0.85278 0.56666 0.67014 0.0
C2237 C 0.84873 0.56975 0.65054 0.0
C2238 C 0.8435 0.58742 0.64613 0.0
C2239 C 0.8425 0.60179 0.66125 0.0
C2240 C 0.84492 0.59708 0.68114 0.0
H2241 H 0.48481 0.98289 0.16415 0.0
H2242 H 0.49301 0.92131 0.16189 0.0
H2243 H 0.50494 0.92957 0.12696 0.0
H2244 H 0.46109 0.97697 0.11587 0.0
H2245 H 0.47616 0.0082 0.11129 0.0
H2246 H 0.46887 -0.00251 0.13612 0.0
H2247 H 0.51238 0.02303 0.14629 0.0
H2248 H 0.51983 0.03362 0.12141 0.0
H2249 H 0.53428 0.01974 0.13318 0.0
H2250 H 0.51431 0.94386 0.09148 0.0
H2251 H 0.52002 0.96303 0.05888 0.0
H2252 H 0.50657 0.0154 0.08523 0.0
C2253 C 0.48906 0.97113 0.15627 0.0
C2254 C 0.488 0.95147 0.16568 0.0
C2255 C 0.49392 0.9366 0.15496 0.0
C2256 C 0.50068 0.94113 0.13513 0.0
C2257 C 0.50168 0.96075 0.1263 0.0
C2258 C 0.4961 0.97554 0.13657 0.0
C2259 C 0.49831 -0.0047 0.12369 0.0
C2260 C 0.4747 0.99442 0.12162 0.0
C2261 C 0.51734 0.01934 0.13162 0.0
C2262 C 0.50562 0.98912 0.10448 0.0
C2263 C 0.50752 0.96916 0.1062 0.0
C2264 C 0.51298 0.95958 0.09002 0.0
C2265 C 0.51606 0.97044 0.07155 0.0
C2266 C 0.51369 0.99059 0.06949 0.0
C2267 C 0.50892 0.00024 0.08633 0.0
H2268 H 0.02087 0.49061 0.16726 0.0
H2269 H 0.98763 0.53291 0.1754 0.0
H2270 H 0.97596 0.5269 0.14037 0.0
H2271 H 0.04221 0.50848 0.11994 0.0
H2272 H 0.03578 0.47976 0.11145 0.0
H2273 H 0.04142 0.48726 0.1372 0.0
H2274 H 0.0016 0.45105 0.14628 0.0
H2275 H -0.00403 0.44319 0.12057 0.0
H2276 H 0.97526 0.44721 0.13486 0.0
H2277 H 0.97119 0.51904 0.10332 0.0
H2278 H 0.9688 0.50511 0.06879 0.0
H2279 H 0.00078 0.46435 0.08685 0.0
C2280 C 0.01058 0.49816 0.16203 0.0
C2281 C 0.00547 0.51248 0.17428 0.0
C2282 C 0.99238 0.52236 0.16633 0.0
C2283 C 0.9855 0.51891 0.14644 0.0
C2284 C 0.99132 0.5051 0.13479 0.0
C2285 C 0.00308 0.49443 0.14245 0.0
C2286 C 0.00693 0.48005 0.12703 0.0
C2287 C 0.03314 0.48946 0.12372 0.0
C2288 C -0.00583 0.45382 0.13251 0.0
C2289 C -0.00422 0.48453 0.10939 0.0
C2290 C 0.98715 0.4993 0.114 0.0
C2291 C 0.97748 0.50711 0.09963 0.0
C2292 C 0.97631 0.49928 0.08012 0.0
C2293 C 0.98432 0.48349 0.07544 0.0
C2294 C -0.00585 0.47609 0.09023 0.0
H2295 H 0.49569 0.4889 0.16226 0.0
H2296 H 0.50494 0.55915 0.16252 0.0
H2297 H 0.51425 0.56298 0.12698 0.0
H2298 H 0.54322 0.50211 0.12793 0.0
H2299 H 0.52788 0.47376 0.1159 0.0
H2300 H 0.52237 0.47667 0.14147 0.0
H2301 H 0.47819 0.45841 0.13393 0.0
H2302 H 0.48354 0.45519 0.10842 0.0
H2303 H 0.46889 0.47119 0.11499 0.0
H2304 H 0.5203 0.55832 0.09125 0.0
H2305 H 0.5222 0.54506 0.05746 0.0
H2306 H 0.51104 0.47872 0.08077 0.0
C2307 C 0.49966 0.505 0.15472 0.0
C2308 C 0.49959 0.52373 0.16488 0.0
C2309 C 0.505 0.54468 0.1548 0.0
C2310 C 0.51036 0.54704 0.13471 0.0
C2311 C 0.51057 0.52838 0.12505 0.0
C2312 C 0.50545 0.50779 0.13469 0.0
C2313 C 0.50662 0.49034 0.12076 0.0
C2314 C 0.52619 0.48544 0.12689 0.0
C2315 C 0.4829 0.46744 0.11945 0.0
C2316 C 0.51249 0.50406 0.10171 0.0
C2317 C 0.51483 0.52602 0.10452 0.0
C2318 C 0.5188 0.54128 0.08888 0.0
C2319 C 0.51982 0.53363 0.06976 0.0
C2320 C 0.51692 0.51099 0.06654 0.0
C2321 C 0.51382 0.49633 0.08281 0.0
H2322 H 0.95318 0.45069 0.85204 0.0
H2323 H -0.00523 0.52301 0.83232 0.0
H2324 H 0.00661 0.53587 0.86666 0.0
H2325 H 0.93222 0.46194 0.89513 0.0
H2326 H 0.93416 0.44036 0.91013 0.0
H2327 H 0.93021 0.43601 0.88389 0.0
H2328 H 0.96715 0.43215 0.88143 0.0
H2329 H 0.97116 0.43611 0.90775 0.0
H2330 H -0.00557 0.4551 0.89142 0.0
H2331 H 0.0103 0.54155 0.90278 0.0
H2332 H 0.00814 0.53955 0.93903 0.0
H2333 H 0.96681 0.46337 0.93589 0.0
C2334 C 0.96528 0.46915 0.85484 0.0
C2335 C 0.97293 0.48586 0.83942 0.0
C2336 C 0.98834 0.50992 0.84386 0.0
C2337 C -0.00467 0.51739 0.86331 0.0
C2338 C 0.98707 0.50054 0.87813 0.0
C2339 C 0.97267 0.47689 0.87417 0.0
C2340 C 0.96564 0.46258 0.89301 0.0
C2341 C 0.93898 0.44946 0.89569 0.0
C2342 C 0.97517 0.44547 0.89342 0.0
C2343 C 0.97779 0.48204 0.90821 0.0
C2344 C 0.99004 0.50377 0.89921 0.0
C2345 C 0.00119 0.52464 0.91 0.0
C2346 C -0.00025 0.52333 0.93054 0.0
C2347 C 0.98752 0.50132 0.9401 0.0
C2348 C 0.97665 0.48035 0.92884 0.0
H2349 H 0.48963 0.45368 0.84523 0.0
H2350 H 0.48847 0.514 0.82059 0.0
H2351 H 0.48315 0.52577 0.85403 0.0
H2352 H 0.44753 0.4415 0.88575 0.0
H2353 H 0.46379 0.4341 0.9028 0.0
H2354 H 0.46427 0.42857 0.87679 0.0
H2355 H 0.50947 0.45327 0.87706 0.0
H2356 H 0.50909 0.45869 0.90302 0.0
H2357 H 0.52361 0.48308 0.88633 0.0
H2358 H 0.48078 0.5324 0.88945 0.0
H2359 H 0.48643 0.53683 0.92534 0.0
H2360 H 0.49046 0.47285 0.92779 0.0
C2361 C 0.48772 0.46906 0.8469 0.0
C2362 C 0.48906 0.48281 0.83044 0.0
C2363 C 0.48732 0.50325 0.83309 0.0
C2364 C 0.48409 0.50989 0.85195 0.0
C2365 C 0.48276 0.49591 0.8679 0.0
C2366 C 0.48477 0.47607 0.86563 0.0
C2367 C 0.48537 0.46565 0.8854 0.0
C2368 C 0.46396 0.44099 0.88782 0.0
C2369 C 0.50825 0.46516 0.88811 0.0
C2370 C 0.48418 0.48323 0.8992 0.0
C2371 C 0.48208 0.50015 0.88869 0.0
C2372 C 0.48214 0.51914 0.89786 0.0
C2373 C 0.48535 0.52147 0.91824 0.0
C2374 C 0.48871 0.50507 0.92924 0.0
C2375 C 0.48735 0.48526 0.91974 0.0
H2376 H 0.50806 0.01628 0.83479 0.0
H2377 H 0.4879 0.06937 0.84274 0.0
H2378 H 0.48184 0.06018 0.8783 0.0
H2379 H 0.46704 0.97423 0.86915 0.0
H2380 H 0.48717 0.96525 0.87783 0.0
H2381 H 0.48938 0.97578 0.85301 0.0
H2382 H 0.5326 0.00751 0.85932 0.0
H2383 H 0.53056 -0.00306 0.88408 0.0
H2384 H 0.53981 0.02749 0.8799 0.0
H2385 H 0.47982 0.04607 0.91374 0.0
H2386 H 0.48238 0.02846 0.94535 0.0
H2387 H 0.5024 0.98407 0.91294 0.0
C2388 C 0.50247 0.02604 0.84402 0.0
C2389 C 0.49845 0.04352 0.83602 0.0
C2390 C 0.49087 0.05573 0.84856 0.0
C2391 C 0.48742 0.05067 0.86877 0.0
C2392 C 0.49146 0.03324 0.87619 0.0
C2393 C 0.49877 0.0211 0.86414 0.0
C2394 C 0.50224 0.00344 0.87566 0.0
C2395 C 0.48545 0.97818 0.86848 0.0
C2396 C 0.52782 0.0092 0.87468 0.0
C2397 C 0.49595 0.00766 0.8961 0.0
C2398 C 0.48979 0.02489 0.89624 0.0
C2399 C 0.48443 0.0324 0.91379 0.0
C2400 C 0.48584 0.02227 0.93165 0.0
C2401 C 0.49242 0.00476 0.93171 0.0
C2402 C 0.49706 -0.00279 0.91356 0.0
H2403 H 0.15203 0.33008 0.49662 0.0
H2404 H 0.14366 0.26041 0.50157 0.0
H2405 H 0.14817 0.25903 0.46548 0.0
H2406 H 0.1211 0.3214 0.45272 0.0
H2407 H 0.14047 0.34994 0.44243 0.0
H2408 H 0.13836 0.3462 0.46874 0.0
H2409 H 0.18306 0.36301 0.47103 0.0
H2410 H 0.1853 0.36681 0.44466 0.0
H2411 H 0.19637 0.34981 0.45654 0.0
H2412 H 0.14807 0.26294 0.42897 0.0
H2413 H 0.14649 0.2733 0.39422 0.0
H2414 H 0.15896 0.34196 0.41255 0.0
C2415 C 0.15149 0.31474 0.49002 0.0
C2416 C 0.14752 0.29532 0.50167 0.0
C2417 C 0.14684 0.27546 0.49275 0.0
C2418 C 0.14939 0.27454 0.47233 0.0
C2419 C 0.15311 0.29387 0.46115 0.0
C2420 C 0.15456 0.31377 0.46967 0.0
C2421 C 0.15819 0.33187 0.45417 0.0
C2422 C 0.13834 0.33768 0.45454 0.0
C2423 C 0.18216 0.3542 0.45676 0.0
C2424 C 0.15739 0.31856 0.43558 0.0
C2425 C 0.15457 0.29671 0.43998 0.0
C2426 C 0.1511 0.2803 0.42532 0.0
C2427 C 0.15041 0.28635 0.40564 0.0
C2428 C 0.15373 0.30874 0.40085 0.0
C2429 C 0.15735 0.32508 0.41595 0.0
H2430 H 0.68571 0.87027 0.49458 0.0
H2431 H 0.62701 0.80538 0.51539 0.0
H2432 H 0.61189 0.79503 0.48126 0.0
H2433 H 0.65503 0.88016 0.45074 0.0
H2434 H 0.68082 0.89044 0.43584 0.0
H2435 H 0.68353 0.89589 0.46207 0.0
H2436 H 0.70874 0.8759 0.46487 0.0
H2437 H 0.706 0.8703 0.43881 0.0
H2438 H 0.69723 0.84624 0.45575 0.0
H2439 H 0.60752 0.78807 0.44569 0.0
H2440 H 0.61482 0.78375 0.4108 0.0
H2441 H 0.67691 0.85277 0.41204 0.0
C2442 C 0.66911 0.85444 0.49194 0.0
C2443 C 0.65711 0.83879 0.50745 0.0
C2444 C 0.63609 0.81766 0.5036 0.0
C2445 C 0.62738 0.81177 0.48433 0.0
C2446 C 0.64001 0.8272 0.46917 0.0
C2447 C 0.66042 0.84816 0.47273 0.0
C2448 C 0.67275 0.85959 0.45367 0.0
C2449 C 0.67304 0.8829 0.45039 0.0
C2450 C 0.69763 0.86319 0.45326 0.0
C2451 C 0.65687 0.84106 0.43891 0.0
C2452 C 0.63773 0.82289 0.44817 0.0
C2453 C 0.62206 0.80242 0.43819 0.0
C2454 C 0.62642 0.80008 0.41843 0.0
C2455 C 0.64631 0.81804 0.40887 0.0
C2456 C 0.66127 0.83914 0.41898 0.0
H2457 H 0.12742 0.83616 0.48506 0.0
H2458 H 0.19198 0.83643 0.49744 0.0
H2459 H 0.1993 0.83683 0.46172 0.0
H2460 H 0.11078 0.79817 0.44153 0.0
H2461 H 0.09905 0.81414 0.42888 0.0
H2462 H 0.09865 0.81302 0.4554 0.0
H2463 H 0.12081 0.85864 0.45678 0.0
H2464 H 0.12165 0.85988 0.43026 0.0
H2465 H 0.14838 0.87495 0.44431 0.0
H2466 H 0.20101 0.84007 0.4249 0.0
H2467 H 0.19432 0.84038 0.38908 0.0
H2468 H 0.12792 0.83643 0.40062 0.0
C2469 C 0.14281 0.83574 0.48024 0.0
C2470 C 0.15917 0.8363 0.49399 0.0
C2471 C 0.17934 0.83621 0.48712 0.0
C2472 C 0.18366 0.83646 0.4669 0.0
C2473 C 0.1676 0.83673 0.45374 0.0
C2474 C 0.14739 0.83599 0.46009 0.0
C2475 C 0.13308 0.83658 0.44287 0.0
C2476 C 0.10897 0.81413 0.44213 0.0
C2477 C 0.13086 0.85883 0.44361 0.0
C2478 C 0.14828 0.8375 0.42585 0.0
C2479 C 0.16829 0.83797 0.43246 0.0
C2480 C 0.18532 0.83951 0.41952 0.0
C2481 C 0.18147 0.83989 0.39923 0.0
C2482 C 0.1606 0.83836 0.39213 0.0
C2483 C 0.14399 0.83749 0.40566 0.0
H2484 H 0.63917 0.79073 0.18625 0.0
H2485 H 0.6793 0.86341 0.16729 0.0
H2486 H 0.68954 0.87616 0.20189 0.0
H2487 H 0.61476 0.80022 0.22691 0.0
H2488 H 0.61635 0.77907 0.24277 0.0
H2489 H 0.61488 0.77494 0.21648 0.0
H2490 H 0.65306 0.77303 0.21713 0.0
H2491 H 0.65445 0.77669 0.24354 0.0
H2492 H 0.67885 0.79657 0.2286 0.0
H2493 H 0.68943 0.88154 0.23802 0.0
H2494 H 0.68357 0.87899 0.27405 0.0
H2495 H 0.64623 0.80278 0.27017 0.0
C2496 C 0.65089 0.80922 0.1893 0.0
C2497 C 0.6584 0.8261 0.17407 0.0
C2498 C 0.67318 0.85021 0.17874 0.0
C2499 C 0.67916 0.85761 0.19833 0.0
C2500 C 0.67059 0.84063 0.21305 0.0
C2501 C 0.65723 0.81689 0.20879 0.0
C2502 C 0.649 0.80244 0.22749 0.0
C2503 C 0.62216 0.78835 0.22846 0.0
C2504 C 0.65947 0.78623 0.22929 0.0
C2505 C 0.65911 0.82186 0.24289 0.0
C2506 C 0.67145 0.84375 0.23417 0.0
C2507 C 0.68038 0.86452 0.24507 0.0
C2508 C 0.6768 0.86291 0.26545 0.0
C2509 C 0.6647 0.84072 0.27471 0.0
C2510 C 0.65595 0.81992 0.26336 0.0
H2511 H 0.15496 0.78226 0.17749 0.0
H2512 H 0.15243 0.8393 0.14767 0.0
H2513 H 0.14526 0.85297 0.17952 0.0
H2514 H 0.11113 0.77227 0.21704 0.0
H2515 H 0.12775 0.76699 0.23536 0.0
H2516 H 0.1283 0.75906 0.20996 0.0
H2517 H 0.17346 0.78439 0.20999 0.0
H2518 H 0.173 0.79222 0.23533 0.0
H2519 H 0.18715 0.81497 0.21715 0.0
H2520 H 0.14416 0.86368 0.21422 0.0
H2521 H 0.15192 0.87246 0.24971 0.0
H2522 H 0.15483 0.80845 0.25765 0.0
C2523 C 0.15213 0.79717 0.17765 0.0
C2524 C 0.15395 0.80962 0.16019 0.0
C2525 C 0.15102 0.82955 0.16094 0.0
C2526 C 0.14672 0.83727 0.17891 0.0
C2527 C 0.14537 0.82482 0.19594 0.0
C2528 C 0.14802 0.80521 0.1955 0.0
C2529 C 0.14886 0.79687 0.21614 0.0
C2530 C 0.12775 0.77234 0.21984 0.0
C2531 C 0.17199 0.79715 0.21986 0.0
C2532 C 0.14733 0.8155 0.22827 0.0
C2533 C 0.14479 0.83112 0.21629 0.0
C2534 C 0.14557 0.85129 0.2238 0.0
C2535 C 0.14998 0.85614 0.24395 0.0
C2536 C 0.15352 0.84088 0.25632 0.0
C2537 C 0.15135 0.8199 0.24855 0.0
H2538 H 0.19545 0.36845 0.17459 0.0
H2539 H 0.1207 0.33507 0.16469 0.0
H2540 H 0.1139 0.32398 0.19989 0.0
H2541 H 0.19364 0.3253 0.2081 0.0
H2542 H 0.21738 0.34692 0.22298 0.0
H2543 H 0.21589 0.35218 0.19714 0.0
H2544 H 0.21766 0.39164 0.20572 0.0
H2545 H 0.21888 0.38635 0.2316 0.0
H2546 H 0.19638 0.39165 0.22226 0.0
H2547 H 0.11574 0.3175 0.23696 0.0
H2548 H 0.12617 0.31378 0.27147 0.0
H2549 H 0.1994 0.35021 0.25551 0.0
C2550 C 0.1776 0.35844 0.17966 0.0
C2551 C 0.15862 0.35259 0.16684 0.0
C2552 C 0.13555 0.33996 0.17429 0.0
C2553 C 0.13151 0.33353 0.19424 0.0
C2554 C 0.15071 0.33984 0.20651 0.0
C2555 C 0.17328 0.35186 0.1994 0.0
C2556 C 0.19098 0.35651 0.21541 0.0
C2557 C 0.2053 0.3445 0.21062 0.0
C2558 C 0.2069 0.38311 0.21895 0.0
C2559 C 0.17488 0.34499 0.23262 0.0
C2560 C 0.15171 0.3357 0.22739 0.0
C2561 C 0.13383 0.32459 0.24117 0.0
C2562 C 0.13988 0.32262 0.2607 0.0
C2563 C 0.16353 0.33144 0.26604 0.0
C2564 C 0.18112 0.34295 0.2518 0.0
H2565 H 0.82882 0.66228 0.83501 0.0
H2566 H 0.82957 0.59692 0.82787 0.0
H2567 H 0.8413 0.60681 0.79305 0.0
H2568 H 0.80378 0.66106 0.78981 0.0
H2569 H 0.82068 0.69235 0.78575 0.0
H2570 H 0.81516 0.68116 0.81045 0.0
H2571 H 0.85972 0.70323 0.81749 0.0
H2572 H 0.86536 0.71424 0.79263 0.0
H2573 H 0.8787 0.69799 0.80187 0.0
H2574 H 0.84817 0.62173 0.75792 0.0
H2575 H 0.84803 0.63954 0.7259 0.0
H2576 H 0.84466 0.69591 0.75677 0.0
C2577 C 0.83168 0.65018 0.82615 0.0
C2578 C 0.82831 0.62887 0.83408 0.0
C2579 C 0.83229 0.61348 0.82208 0.0
C2580 C 0.839 0.61897 0.80233 0.0
C2581 C 0.84204 0.6401 0.7949 0.0
C2582 C 0.83864 0.65552 0.80652 0.0
C2583 C 0.84144 0.67628 0.79476 0.0
C2584 C 0.81893 0.67778 0.79521 0.0
C2585 C 0.86257 0.69929 0.80213 0.0
C2586 C 0.84585 0.66961 0.77451 0.0
C2587 C 0.8465 0.64889 0.77485 0.0
C2588 C 0.84814 0.63821 0.75753 0.0
C2589 C 0.84815 0.64851 0.73939 0.0
C2590 C 0.84637 0.66917 0.73877 0.0
C2591 C 0.84625 0.68026 0.75666 0.0
H2592 H 0.35171 0.19648 0.82227 0.0
H2593 H 0.30393 0.1248 0.84042 0.0
H2594 H 0.29209 0.11361 0.80563 0.0
H2595 H 0.31574 0.19871 0.78093 0.0
H2596 H 0.34102 0.21579 0.7658 0.0
H2597 H 0.34339 0.21885 0.79226 0.0
H2598 H 0.37682 0.20908 0.79194 0.0
H2599 H 0.37452 0.20591 0.76556 0.0
H2600 H 0.37193 0.18209 0.78054 0.0
H2601 H 0.28875 0.10931 0.76938 0.0
H2602 H 0.29446 0.11155 0.73344 0.0
H2603 H 0.34415 0.18626 0.73824 0.0
C2604 C 0.33822 0.17859 0.81897 0.0
C2605 C 0.32845 0.16152 0.834 0.0
C2606 C 0.31152 0.1381 0.82909 0.0
C2607 C 0.30461 0.13167 0.80943 0.0
C2608 C 0.31481 0.14888 0.79495 0.0
C2609 C 0.33123 0.17188 0.79945 0.0
C2610 C 0.34111 0.18644 0.78096 0.0
C2611 C 0.33494 0.20611 0.77993 0.0
C2612 C 0.36766 0.19646 0.77968 0.0
C2613 C 0.32818 0.16784 0.76528 0.0
C2614 C 0.3129 0.1464 0.77377 0.0
C2615 C 0.30032 0.12605 0.76256 0.0
C2616 C 0.30375 0.1275 0.74221 0.0
C2617 C 0.31958 0.14912 0.73322 0.0
C2618 C 0.33159 0.16969 0.7448 0.0
H2619 H 0.83243 0.19988 0.82143 0.0
H2620 H 0.81473 0.13227 0.84689 0.0
H2621 H 0.81135 0.11587 0.81352 0.0
H2622 H 0.79504 0.17924 0.78118 0.0
H2623 H 0.81488 0.20074 0.76395 0.0
H2624 H 0.81737 0.20778 0.78982 0.0
H2625 H 0.8606 0.21791 0.78971 0.0
H2626 H 0.85831 0.21114 0.76374 0.0
H2627 H 0.8679 0.19651 0.78065 0.0
H2628 H 0.80531 0.10567 0.7778 0.0
H2629 H 0.80097 0.10323 0.74155 0.0
H2630 H 0.82653 0.17828 0.7391 0.0
C2631 C 0.82853 0.18182 0.82013 0.0
C2632 C 0.8237 0.16736 0.83692 0.0
C2633 C 0.81806 0.14362 0.83433 0.0
C2634 C 0.81629 0.13418 0.81543 0.0
C2635 C 0.82068 0.14881 0.79927 0.0
C2636 C 0.82711 0.17222 0.8014 0.0
C2637 C 0.83033 0.18399 0.78156 0.0
C2638 C 0.8134 0.19349 0.77899 0.0
C2639 C 0.8558 0.20354 0.77875 0.0
C2640 C 0.82407 0.16332 0.76793 0.0
C2641 C 0.81845 0.14318 0.77849 0.0
C2642 C 0.81017 0.12139 0.76933 0.0
C2643 C 0.80763 0.12015 0.74881 0.0
C2644 C 0.8137 0.14062 0.73772 0.0
C2645 C 0.82227 0.16252 0.74733 0.0
H2646 H 0.33657 0.16343 0.49903 0.0
H2647 H 0.29478 0.08732 0.5026 0.0
H2648 H 0.30197 0.08953 0.53837 0.0
H2649 H 0.37857 0.17243 0.54005 0.0
H2650 H 0.37877 0.19871 0.54828 0.0
H2651 H 0.37469 0.19079 0.5225 0.0
H2652 H 0.33622 0.19223 0.52242 0.0
H2653 H 0.34002 0.1999 0.54815 0.0
H2654 H 0.31356 0.17443 0.53967 0.0
H2655 H 0.30775 0.10035 0.57432 0.0
H2656 H 0.31295 0.11906 0.60712 0.0
H2657 H 0.35005 0.18792 0.57987 0.0
C2658 C 0.32944 0.14718 0.50724 0.0
C2659 C 0.31526 0.12522 0.49793 0.0
C2660 C 0.30615 0.10436 0.50926 0.0
C2661 C 0.31002 0.10542 0.52965 0.0
C2662 C 0.32318 0.12746 0.5385 0.0
C2663 C 0.33299 0.14796 0.5276 0.0
C2664 C 0.34405 0.1695 0.54078 0.0
C2665 C 0.3706 0.18369 0.53772 0.0
C2666 C 0.33278 0.1849 0.53756 0.0
C2667 C 0.33809 0.15794 0.56078 0.0
C2668 C 0.32635 0.13369 0.55923 0.0
C2669 C 0.31738 0.11933 0.57575 0.0
C2670 C 0.32033 0.13009 0.5943 0.0
C2671 C 0.33197 0.15493 0.59607 0.0
C2672 C 0.34127 0.16889 0.57907 0.0
H2673 H 0.81503 0.14439 0.51148 0.0
H2674 H 0.88736 0.16247 0.50398 0.0
H2675 H 0.89325 0.16664 0.53978 0.0
H2676 H 0.82535 0.18455 0.55176 0.0
H2677 H 0.79911 0.1648 0.56486 0.0
H2678 H 0.80004 0.16278 0.53842 0.0
H2679 H 0.78792 0.11876 0.54124 0.0
H2680 H 0.78709 0.12068 0.56771 0.0
H2681 H 0.80503 0.11041 0.55637 0.0
H2682 H 0.89221 0.1694 0.57538 0.0
H2683 H 0.88479 0.17245 0.61033 0.0
H2684 H 0.81289 0.15216 0.59661 0.0
C2685 C 0.83206 0.14923 0.51744 0.0
C2686 C 0.85085 0.15351 0.50489 0.0
C2687 C 0.87288 0.15974 0.51322 0.0
C2688 C 0.87636 0.16188 0.53357 0.0
C2689 C 0.85762 0.15763 0.54549 0.0
C2690 C 0.83591 0.15153 0.5379 0.0
C2691 C 0.81906 0.14851 0.55434 0.0
C2692 C 0.81039 0.16622 0.55222 0.0
C2693 C 0.79856 0.12307 0.55494 0.0
C2694 C 0.83488 0.15411 0.57224 0.0
C2695 C 0.85696 0.15914 0.5666 0.0
C2696 C 0.87501 0.16549 0.58005 0.0
C2697 C 0.8706 0.16723 0.59987 0.0
C2698 C 0.8483 0.16265 0.60615 0.0
C2699 C 0.83003 0.15556 0.5922 0.0
H2700 H 0.86541 0.72017 0.51292 0.0
H2701 H 0.79209 0.67404 0.49874 0.0
H2702 H 0.78372 0.66494 0.53405 0.0
H2703 H 0.86838 0.68234 0.54911 0.0
H2704 H 0.88881 0.70637 0.56449 0.0
H2705 H 0.88838 0.71035 0.5383 0.0
H2706 H 0.88242 0.74607 0.54445 0.0
H2707 H 0.88247 0.74195 0.57068 0.0
H2708 H 0.8581 0.74234 0.5591 0.0
H2709 H 0.78353 0.66098 0.5715 0.0
H2710 H 0.79248 0.65852 0.60665 0.0
H2711 H 0.86611 0.70498 0.59513 0.0
C2712 C 0.84759 0.7079 0.51706 0.0
C2713 C 0.82943 0.69802 0.50287 0.0
C2714 C 0.80632 0.68233 0.50925 0.0
C2715 C 0.80137 0.67697 0.52931 0.0
C2716 C 0.81971 0.68725 0.54286 0.0
C2717 C 0.8424 0.70211 0.5369 0.0
C2718 C 0.85925 0.70985 0.55411 0.0
C2719 C 0.87725 0.70173 0.55133 0.0
C2720 C 0.87126 0.73664 0.55727 0.0
C2721 C 0.84256 0.69678 0.57068 0.0
C2722 C 0.81975 0.68418 0.56404 0.0
C2723 C 0.80135 0.6707 0.57682 0.0
C2724 C 0.80656 0.66949 0.59676 0.0
C2725 C 0.82999 0.68137 0.60353 0.0
C2726 C 0.84804 0.69556 0.59035 0.0
loop_
_geom_bond_atom_site_label_1
_geom_bond_atom_site_label_2
_geom_bond_distance
_geom_bond_site_symmetry_2
_ccdc_geom_bond_type
C0 C1 1.391 . S
C0 C4 1.391 . S
C0 H42 0.948 . S
C1 C0 1.391 . S
C1 C2 1.391 . S
C2 C1 1.391 . S
C2 H58 0.947 . S
C2 C59 1.392 . S
C3 C4 1.391 . S
C3 C7 1.397 . S
C3 C59 1.419 . S
C4 C0 1.391 . S
C4 C3 1.391 . S
C4 C5 1.399 . S
C5 C4 1.399 . S
C5 C8 1.396 . S
C5 C17 1.453 . S
C5 C18 1.684 . S
H6 C30 0.948 . S
C7 C3 1.397 . S
C7 C8 1.394 . S
C7 C26 1.723 . S
C8 C5 1.396 . S
C8 C7 1.394 . S
C8 C38 1.723 . S
H9 C32 0.947 . S
H10 C33 0.948 . S
H11 C39 0.982 . S
H12 C40 0.979 . S
H13 C40 0.980 . S
H14 C40 0.983 . S
H15 C39 0.979 . S
H16 C39 0.977 . S
C17 C5 1.453 . S
C17 H46 0.982 . S
C17 H47 0.979 . S
C17 H48 0.977 . S
C18 C5 1.684 . S
C18 H43 0.979 . S
C18 H44 0.980 . S
C18 H45 0.983 . S
C19 C20 1.391 . S
C19 C24 1.391 . S
C19 H49 0.948 . S
C20 C19 1.391 . S
C20 C21 1.391 . S
C21 C20 1.391 . S
C21 C22 1.392 . S
C21 H50 0.947 . S
C22 C21 1.392 . S
C22 C23 1.419 . S
C22 H51 0.948 . S
C23 C22 1.419 . S
C23 C24 1.391 . S
C23 C27 1.397 . S
C24 C19 1.391 . S
C24 C23 1.391 . S
C24 C25 1.399 . S
C25 C24 1.399 . S
C25 C26 1.396 . S
C25 C28 1.453 . S
C25 C29 1.684 . S
C26 C7 1.723 . S
C26 C25 1.396 . S
C26 C27 1.394 . S
C27 C23 1.397 . S
C27 C26 1.394 . S
C27 C37 1.723 . S
C28 C25 1.453 . S
C28 H52 0.982 . S
C28 H53 0.979 . S
C28 H54 0.977 . S
C29 C25 1.684 . S
C29 H55 0.979 . S
C29 H56 0.980 . S
C29 H57 0.983 . S
C30 H6 0.948 . S
C30 C31 1.391 . S
C30 C35 1.391 . S
C31 C30 1.391 . S
C31 C32 1.391 . S
C32 H9 0.947 . S
C32 C31 1.391 . S
C32 C33 1.392 . S
C33 H10 0.948 . S
C33 C32 1.392 . S
C33 C34 1.419 . S
C34 C33 1.419 . S
C34 C35 1.391 . S
C34 C38 1.397 . S
C35 C30 1.391 . S
C35 C34 1.391 . S
C35 C36 1.399 . S
C36 C35 1.399 . S
C36 C37 1.396 . S
C36 C39 1.453 . S
C36 C40 1.684 . S
C37 C27 1.723 . S
C37 C36 1.396 . S
C37 C38 1.394 . S
C38 C8 1.723 . S
C38 C34 1.397 . S
C38 C37 1.394 . S
C39 H11 0.982 . S
C39 H15 0.979 . S
C39 H16 0.977 . S
C39 C36 1.453 . S
C40 H12 0.979 . S
C40 H13 0.980 . S
C40 H14 0.983 . S
C40 C36 1.684 . S
H41 C59 0.948 . S
H42 C0 0.948 . S
H43 C18 0.979 . S
H44 C18 0.980 . S
H45 C18 0.983 . S
H46 C17 0.982 . S
H47 C17 0.979 . S
H48 C17 0.977 . S
H49 C19 0.948 . S
H50 C21 0.947 . S
H51 C22 0.948 . S
H52 C28 0.982 . S
H53 C28 0.979 . S
H54 C28 0.977 . S
H55 C29 0.979 . S
H56 C29 0.980 . S
H57 C29 0.983 . S
H58 C2 0.947 . S
C59 C2 1.392 . S
C59 C3 1.419 . S
C59 H41 0.948 . S
C60 C61 1.391 . S
C60 C64 1.391 . S
C60 H102 0.948 . S
C61 C60 1.391 . S
C61 C62 1.391 . S
C62 C61 1.391 . S
C62 H118 0.947 . S
C62 C119 1.392 . S
C63 C64 1.391 . S
C63 C67 1.397 . S
C63 C119 1.419 . S
C64 C60 1.391 . S
C64 C63 1.391 . S
C64 C65 1.399 . S
C65 C64 1.399 . S
C65 C68 1.396 . S
C65 C77 1.453 . S
C65 C78 1.684 . S
H66 C90 0.948 . S
C67 C63 1.397 . S
C67 C68 1.394 . S
C67 C86 1.723 . S
C68 C65 1.396 . S
C68 C67 1.394 . S
C68 C98 1.723 . S
H69 C92 0.947 . S
H70 C93 0.948 . S
H71 C99 0.982 . S
H72 C100 0.979 . S
H73 C100 0.980 . S
H74 C100 0.983 . S
H75 C99 0.979 . S
H76 C99 0.977 . S
C77 C65 1.453 . S
C77 H106 0.982 . S
C77 H107 0.979 . S
C77 H108 0.977 . S
C78 C65 1.684 . S
C78 H103 0.979 . S
C78 H104 0.980 . S
C78 H105 0.983 . S
C79 C80 1.391 . S
C79 C84 1.391 . S
C79 H109 0.948 . S
C80 C79 1.391 . S
C80 C81 1.391 . S
C81 C80 1.391 . S
C81 C82 1.392 . S
C81 H110 0.947 . S
C82 C81 1.392 . S
C82 C83 1.419 . S
C82 H111 0.948 . S
C83 C82 1.419 . S
C83 C84 1.391 . S
C83 C87 1.397 . S
C84 C79 1.391 . S
C84 C83 1.391 . S
C84 C85 1.399 . S
C85 C84 1.399 . S
C85 C86 1.396 . S
C85 C88 1.453 . S
C85 C89 1.684 . S
C86 C67 1.723 . S
C86 C85 1.396 . S
C86 C87 1.394 . S
C87 C83 1.397 . S
C87 C86 1.394 . S
C87 C97 1.723 . S
C88 C85 1.453 . S
C88 H112 0.982 . S
C88 H113 0.979 . S
C88 H114 0.977 . S
C89 C85 1.684 . S
C89 H115 0.979 . S
C89 H116 0.980 . S
C89 H117 0.983 . S
C90 H66 0.948 . S
C90 C91 1.391 . S
C90 C95 1.391 . S
C91 C90 1.391 . S
C91 C92 1.391 . S
C92 H69 0.947 . S
C92 C91 1.391 . S
C92 C93 1.392 . S
C93 H70 0.948 . S
C93 C92 1.392 . S
C93 C94 1.419 . S
C94 C93 1.419 . S
C94 C95 1.391 . S
C94 C98 1.397 . S
C95 C90 1.391 . S
C95 C94 1.391 . S
C95 C96 1.399 . S
C96 C95 1.399 . S
C96 C97 1.396 . S
C96 C99 1.453 . S
C96 C100 1.684 . S
C97 C87 1.723 . S
C97 C96 1.396 . S
C97 C98 1.394 . S
C98 C68 1.723 . S
C98 C94 1.397 . S
C98 C97 1.394 . S
C99 H71 0.982 . S
C99 H75 0.979 . S
C99 H76 0.977 . S
C99 C96 1.453 . S
C100 H72 0.979 . S
C100 H73 0.980 . S
C100 H74 0.983 . S
C100 C96 1.684 . S
H101 C119 0.948 . S
H102 C60 0.948 . S
H103 C78 0.979 . S
H104 C78 0.980 . S
H105 C78 0.983 . S
H106 C77 0.982 . S
H107 C77 0.979 . S
H108 C77 0.977 . S
H109 C79 0.948 . S
H110 C81 0.947 . S
H111 C82 0.948 . S
H112 C88 0.982 . S
H113 C88 0.979 . S
H114 C88 0.977 . S
H115 C89 0.979 . S
H116 C89 0.980 . S
H117 C89 0.983 . S
H118 C62 0.947 . S
C119 C62 1.392 . S
C119 C63 1.419 . S
C119 H101 0.948 . S
C120 C121 1.391 . S
C120 C124 1.391 . S
C120 H162 0.948 . S
C121 C120 1.391 . S
C121 C122 1.391 . S
C122 C121 1.391 . S
C122 H178 0.947 . S
C122 C179 1.392 . S
C123 C124 1.391 . S
C123 C127 1.397 . S
C123 C179 1.419 . S
C124 C120 1.391 . S
C124 C123 1.391 . S
C124 C125 1.399 . S
C125 C124 1.399 . S
C125 C128 1.396 . S
C125 C137 1.453 . S
C125 C138 1.684 . S
H126 C150 0.948 . S
C127 C123 1.397 . S
C127 C128 1.394 . S
C127 C146 1.723 . S
C128 C125 1.396 . S
C128 C127 1.394 . S
C128 C158 1.723 . S
H129 C152 0.947 . S
H130 C153 0.948 . S
H131 C159 0.982 . S
H132 C160 0.979 . S
H133 C160 0.980 . S
H134 C160 0.983 . S
H135 C159 0.979 . S
H136 C159 0.977 . S
C137 C125 1.453 . S
C137 H166 0.982 . S
C137 H167 0.979 . S
C137 H168 0.977 . S
C138 C125 1.684 . S
C138 H163 0.979 . S
C138 H164 0.980 . S
C138 H165 0.983 . S
C139 C140 1.391 . S
C139 C144 1.391 . S
C139 H169 0.948 . S
C140 C139 1.391 . S
C140 C141 1.391 . S
C141 C140 1.391 . S
C141 C142 1.392 . S
C141 H170 0.947 . S
C142 C141 1.392 . S
C142 C143 1.419 . S
C142 H171 0.948 . S
C143 C142 1.419 . S
C143 C144 1.391 . S
C143 C147 1.397 . S
C144 C139 1.391 . S
C144 C143 1.391 . S
C144 C145 1.399 . S
C145 C144 1.399 . S
C145 C146 1.396 . S
C145 C148 1.453 . S
C145 C149 1.684 . S
C146 C127 1.723 . S
C146 C145 1.396 . S
C146 C147 1.394 . S
C147 C143 1.397 . S
C147 C146 1.394 . S
C147 C157 1.723 . S
C148 C145 1.453 . S
C148 H172 0.982 . S
C148 H173 0.979 . S
C148 H174 0.977 . S
C149 C145 1.684 . S
C149 H175 0.979 . S
C149 H176 0.980 . S
C149 H177 0.983 . S
C150 H126 0.948 . S
C150 C151 1.391 . S
C150 C155 1.391 . S
C151 C150 1.391 . S
C151 C152 1.391 . S
C152 H129 0.947 . S
C152 C151 1.391 . S
C152 C153 1.392 . S
C153 H130 0.948 . S
C153 C152 1.392 . S
C153 C154 1.419 . S
C154 C153 1.419 . S
C154 C155 1.391 . S
C154 C158 1.397 . S
C155 C150 1.391 . S
C155 C154 1.391 . S
C155 C156 1.399 . S
C156 C155 1.399 . S
C156 C157 1.396 . S
C156 C159 1.453 . S
C156 C160 1.684 . S
C157 C147 1.723 . S
C157 C156 1.396 . S
C157 C158 1.394 . S
C158 C128 1.723 . S
C158 C154 1.397 . S
C158 C157 1.394 . S
C159 H131 0.982 . S
C159 H135 0.979 . S
C159 H136 0.977 . S
C159 C156 1.453 . S
C160 H132 0.979 . S
C160 H133 0.980 . S
C160 H134 0.983 . S
C160 C156 1.684 . S
H161 C179 0.948 . S
H162 C120 0.948 . S
H163 C138 0.979 . S
H164 C138 0.980 . S
H165 C138 0.983 . S
H166 C137 0.982 . S
H167 C137 0.979 . S
H168 C137 0.977 . S
H169 C139 0.948 . S
H170 C141 0.947 . S
H171 C142 0.948 . S
H172 C148 0.982 . S
H173 C148 0.979 . S
H174 C148 0.977 . S
H175 C149 0.979 . S
H176 C149 0.980 . S
H177 C149 0.983 . S
H178 C122 0.947 . S
C179 C122 1.392 . S
C179 C123 1.419 . S
C179 H161 0.948 . S
C180 C181 1.391 . S
C180 C184 1.391 . S
C180 H222 0.948 . S
C181 C180 1.391 . S
C181 C182 1.391 . S
C182 C181 1.391 . S
C182 H238 0.947 . S
C182 C239 1.392 . S
C183 C184 1.391 . S
C183 C187 1.397 . S
C183 C239 1.419 . S
C184 C180 1.391 . S
C184 C183 1.391 . S
C184 C185 1.399 . S
C185 C184 1.399 . S
C185 C188 1.396 . S
C185 C197 1.453 . S
C185 C198 1.684 . S
H186 C210 0.948 . S
C187 C183 1.397 . S
C187 C188 1.394 . S
C187 C206 1.723 . S
C188 C185 1.396 . S
C188 C187 1.394 . S
C188 C218 1.723 . S
H189 C212 0.947 . S
H190 C213 0.948 . S
H191 C219 0.982 . S
H192 C220 0.979 . S
H193 C220 0.980 . S
H194 C220 0.983 . S
H195 C219 0.979 . S
H196 C219 0.977 . S
C197 C185 1.453 . S
C197 H226 0.982 . S
C197 H227 0.979 . S
C197 H228 0.977 . S
C198 C185 1.684 . S
C198 H223 0.979 . S
C198 H224 0.980 . S
C198 H225 0.983 . S
C199 C200 1.391 . S
C199 C204 1.391 . S
C199 H229 0.948 . S
C200 C199 1.391 . S
C200 C201 1.391 . S
C201 C200 1.391 . S
C201 C202 1.392 . S
C201 H230 0.947 . S
C202 C201 1.392 . S
C202 C203 1.419 . S
C202 H231 0.948 . S
C203 C202 1.419 . S
C203 C204 1.391 . S
C203 C207 1.397 . S
C204 C199 1.391 . S
C204 C203 1.391 . S
C204 C205 1.399 . S
C205 C204 1.399 . S
C205 C206 1.396 . S
C205 C208 1.453 . S
C205 C209 1.684 . S
C206 C187 1.723 . S
C206 C205 1.396 . S
C206 C207 1.394 . S
C207 C203 1.397 . S
C207 C206 1.394 . S
C207 C217 1.723 . S
C208 C205 1.453 . S
C208 H232 0.982 . S
C208 H233 0.979 . S
C208 H234 0.977 . S
C209 C205 1.684 . S
C209 H235 0.979 . S
C209 H236 0.980 . S
C209 H237 0.983 . S
C210 H186 0.948 . S
C210 C211 1.391 . S
C210 C215 1.391 . S
C211 C210 1.391 . S
C211 C212 1.391 . S
C212 H189 0.947 . S
C212 C211 1.391 . S
C212 C213 1.392 . S
C213 H190 0.948 . S
C213 C212 1.392 . S
C213 C214 1.419 . S
C214 C213 1.419 . S
C214 C215 1.391 . S
C214 C218 1.397 . S
C215 C210 1.391 . S
C215 C214 1.391 . S
C215 C216 1.399 . S
C216 C215 1.399 . S
C216 C217 1.396 . S
C216 C219 1.453 . S
C216 C220 1.684 . S
C217 C207 1.723 . S
C217 C216 1.396 . S
C217 C218 1.394 . S
C218 C188 1.723 . S
C218 C214 1.397 . S
C218 C217 1.394 . S
C219 H191 0.982 . S
C219 H195 0.979 . S
C219 H196 0.977 . S
C219 C216 1.453 . S
C220 H192 0.979 . S
C220 H193 0.980 . S
C220 H194 0.983 . S
C220 C216 1.684 . S
H221 C239 0.948 . S
H222 C180 0.948 . S
H223 C198 0.979 . S
H224 C198 0.980 . S
H225 C198 0.983 . S
H226 C197 0.982 . S
H227 C197 0.979 . S
H228 C197 0.977 . S
H229 C199 0.948 . S
H230 C201 0.947 . S
H231 C202 0.948 . S
H232 C208 0.982 . S
H233 C208 0.979 . S
H234 C208 0.977 . S
H235 C209 0.979 . S
H236 C209 0.980 . S
H237 C209 0.983 . S
H238 C182 0.947 . S
C239 C182 1.392 . S
C239 C183 1.419 . S
C239 H221 0.948 . S
C240 C241 1.391 . S
C240 C244 1.391 . S
C240 H282 0.948 . S
C241 C240 1.391 . S
C241 C242 1.391 . S
C242 C241 1.391 . S
C242 H298 0.947 . S
C242 C299 1.392 . S
C243 C244 1.391 . S
C243 C247 1.397 . S
C243 C299 1.419 . S
C244 C240 1.391 . S
C244 C243 1.391 . S
C244 C245 1.399 . S
C245 C244 1.399 . S
C245 C248 1.396 . S
C245 C257 1.453 . S
C245 C258 1.684 . S
H246 C270 0.948 . S
C247 C243 1.397 . S
C247 C248 1.394 . S
C247 C266 1.723 . S
C248 C245 1.396 . S
C248 C247 1.394 . S
C248 C278 1.723 . S
H249 C272 0.947 . S
H250 C273 0.948 . S
H251 C279 0.982 . S
H252 C280 0.979 . S
H253 C280 0.980 . S
H254 C280 0.983 . S
H255 C279 0.979 . S
H256 C279 0.977 . S
C257 C245 1.453 . S
C257 H286 0.982 . S
C257 H287 0.979 . S
C257 H288 0.977 . S
C258 C245 1.684 . S
C258 H283 0.979 . S
C258 H284 0.980 . S
C258 H285 0.983 . S
C259 C260 1.391 . S
C259 C264 1.391 . S
C259 H289 0.948 . S
C260 C259 1.391 . S
C260 C261 1.391 . S
C261 C260 1.391 . S
C261 C262 1.392 . S
C261 H290 0.947 . S
C262 C261 1.392 . S
C262 C263 1.419 . S
C262 H291 0.948 . S
C263 C262 1.419 . S
C263 C264 1.391 . S
C263 C267 1.397 . S
C264 C259 1.391 . S
C264 C263 1.391 . S
C264 C265 1.399 . S
C265 C264 1.399 . S
C265 C266 1.396 . S
C265 C268 1.453 . S
C265 C269 1.684 . S
C266 C247 1.723 . S
C266 C265 1.396 . S
C266 C267 1.394 . S
C267 C263 1.397 . S
C267 C266 1.394 . S
C267 C277 1.723 . S
C268 C265 1.453 . S
C268 H292 0.982 . S
C268 H293 0.979 . S
C268 H294 0.977 . S
C269 C265 1.684 . S
C269 H295 0.979 . S
C269 H296 0.980 . S
C269 H297 0.983 . S
C270 H246 0.948 . S
C270 C271 1.391 . S
C270 C275 1.391 . S
C271 C270 1.391 . S
C271 C272 1.391 . S
C272 H249 0.947 . S
C272 C271 1.391 . S
C272 C273 1.392 . S
C273 H250 0.948 . S
C273 C272 1.392 . S
C273 C274 1.419 . S
C274 C273 1.419 . S
C274 C275 1.391 . S
C274 C278 1.397 . S
C275 C270 1.391 . S
C275 C274 1.391 . S
C275 C276 1.399 . S
C276 C275 1.399 . S
C276 C277 1.396 . S
C276 C279 1.453 . S
C276 C280 1.684 . S
C277 C267 1.723 . S
C277 C276 1.396 . S
C277 C278 1.394 . S
C278 C248 1.723 . S
C278 C274 1.397 . S
C278 C277 1.394 . S
C279 H251 0.982 . S
C279 H255 0.979 . S
C279 H256 0.977 . S
C279 C276 1.453 . S
C280 H252 0.979 . S
C280 H253 0.980 . S
C280 H254 0.983 . S
C280 C276 1.684 . S
H281 C299 0.948 . S
H282 C240 0.948 . S
H283 C258 0.979 . S
H284 C258 0.980 . S
H285 C258 0.983 . S
H286 C257 0.982 . S
H287 C257 0.979 . S
H288 C257 0.977 . S
H289 C259 0.948 . S
H290 C261 0.947 . S
H291 C262 0.948 . S
H292 C268 0.982 . S
H293 C268 0.979 . S
H294 C268 0.977 . S
H295 C269 0.979 . S
H296 C269 0.980 . S
H297 C269 0.983 . S
H298 C242 0.947 . S
C299 C242 1.392 . S
C299 C243 1.419 . S
C299 H281 0.948 . S
C300 C301 1.391 . S
C300 C304 1.391 . S
C300 H342 0.948 . S
C301 C300 1.391 . S
C301 C302 1.391 . S
C302 C301 1.391 . S
C302 H358 0.947 . S
C302 C359 1.392 . S
C303 C304 1.391 . S
C303 C307 1.397 . S
C303 C359 1.419 . S
C304 C300 1.391 . S
C304 C303 1.391 . S
C304 C305 1.399 . S
C305 C304 1.399 . S
C305 C308 1.396 . S
C305 C317 1.453 . S
C305 C318 1.684 . S
H306 C330 0.948 . S
C307 C303 1.397 . S
C307 C308 1.394 . S
C307 C326 1.723 . S
C308 C305 1.396 . S
C308 C307 1.394 . S
C308 C338 1.723 . S
H309 C332 0.947 . S
H310 C333 0.948 . S
H311 C339 0.982 . S
H312 C340 0.979 . S
H313 C340 0.980 . S
H314 C340 0.983 . S
H315 C339 0.979 . S
H316 C339 0.977 . S
C317 C305 1.453 . S
C317 H346 0.982 . S
C317 H347 0.979 . S
C317 H348 0.977 . S
C318 C305 1.684 . S
C318 H343 0.979 . S
C318 H344 0.980 . S
C318 H345 0.983 . S
C319 C320 1.391 . S
C319 C324 1.391 . S
C319 H349 0.948 . S
C320 C319 1.391 . S
C320 C321 1.391 . S
C321 C320 1.391 . S
C321 C322 1.392 . S
C321 H350 0.947 . S
C322 C321 1.392 . S
C322 C323 1.419 . S
C322 H351 0.948 . S
C323 C322 1.419 . S
C323 C324 1.391 . S
C323 C327 1.397 . S
C324 C319 1.391 . S
C324 C323 1.391 . S
C324 C325 1.399 . S
C325 C324 1.399 . S
C325 C326 1.396 . S
C325 C328 1.453 . S
C325 C329 1.684 . S
C326 C307 1.723 . S
C326 C325 1.396 . S
C326 C327 1.394 . S
C327 C323 1.397 . S
C327 C326 1.394 . S
C327 C337 1.723 . S
C328 C325 1.453 . S
C328 H352 0.982 . S
C328 H353 0.979 . S
C328 H354 0.977 . S
C329 C325 1.684 . S
C329 H355 0.979 . S
C329 H356 0.980 . S
C329 H357 0.983 . S
C330 H306 0.948 . S
C330 C331 1.391 . S
C330 C335 1.391 . S
C331 C330 1.391 . S
C331 C332 1.391 . S
C332 H309 0.947 . S
C332 C331 1.391 . S
C332 C333 1.392 . S
C333 H310 0.948 . S
C333 C332 1.392 . S
C333 C334 1.419 . S
C334 C333 1.419 . S
C334 C335 1.391 . S
C334 C338 1.397 . S
C335 C330 1.391 . S
C335 C334 1.391 . S
C335 C336 1.399 . S
C336 C335 1.399 . S
C336 C337 1.396 . S
C336 C339 1.453 . S
C336 C340 1.684 . S
C337 C327 1.723 . S
C337 C336 1.396 . S
C337 C338 1.394 . S
C338 C308 1.723 . S
C338 C334 1.397 . S
C338 C337 1.394 . S
C339 H311 0.982 . S
C339 H315 0.979 . S
C339 H316 0.977 . S
C339 C336 1.453 . S
C340 H312 0.979 . S
C340 H313 0.980 . S
C340 H314 0.983 . S
C340 C336 1.684 . S
H341 C359 0.948 . S
H342 C300 0.948 . S
H343 C318 0.979 . S
H344 C318 0.980 . S
H345 C318 0.983 . S
H346 C317 0.982 . S
H347 C317 0.979 . S
H348 C317 0.977 . S
H349 C319 0.948 . S
H350 C321 0.947 . S
H351 C322 0.948 . S
H352 C328 0.982 . S
H353 C328 0.979 . S
H354 C328 0.977 . S
H355 C329 0.979 . S
H356 C329 0.980 . S
H357 C329 0.983 . S
H358 C302 0.947 . S
C359 C302 1.392 . S
C359 C303 1.419 . S
C359 H341 0.948 . S
C360 C361 1.391 . S
C360 C364 1.391 . S
C360 H402 0.948 . S
C361 C360 1.391 . S
C361 C362 1.391 . S
C362 C361 1.391 . S
C362 H418 0.947 . S
C362 C419 1.392 . S
C363 C364 1.391 . S
C363 C367 1.397 . S
C363 C419 1.419 . S
C364 C360 1.391 . S
C364 C363 1.391 . S
C364 C365 1.399 . S
C365 C364 1.399 . S
C365 C368 1.396 . S
C365 C377 1.453 . S
C365 C378 1.684 . S
H366 C390 0.948 . S
C367 C363 1.397 . S
C367 C368 1.394 . S
C367 C386 1.723 . S
C368 C365 1.396 . S
C368 C367 1.394 . S
C368 C398 1.723 . S
H369 C392 0.947 . S
H370 C393 0.948 . S
H371 C399 0.982 . S
H372 C400 0.979 . S
H373 C400 0.980 . S
H374 C400 0.983 . S
H375 C399 0.979 . S
H376 C399 0.977 . S
C377 C365 1.453 . S
C377 H406 0.982 . S
C377 H407 0.979 . S
C377 H408 0.977 . S
C378 C365 1.684 . S
C378 H403 0.979 . S
C378 H404 0.980 . S
C378 H405 0.983 . S
C379 C380 1.391 . S
C379 C384 1.391 . S
C379 H409 0.948 . S
C380 C379 1.391 . S
C380 C381 1.391 . S
C381 C380 1.391 . S
C381 C382 1.392 . S
C381 H410 0.947 . S
C382 C381 1.392 . S
C382 C383 1.419 . S
C382 H411 0.948 . S
C383 C382 1.419 . S
C383 C384 1.391 . S
C383 C387 1.397 . S
C384 C379 1.391 . S
C384 C383 1.391 . S
C384 C385 1.399 . S
C385 C384 1.399 . S
C385 C386 1.396 . S
C385 C388 1.453 . S
C385 C389 1.684 . S
C386 C367 1.723 . S
C386 C385 1.396 . S
C386 C387 1.394 . S
C387 C383 1.397 . S
C387 C386 1.394 . S
C387 C397 1.723 . S
C388 C385 1.453 . S
C388 H412 0.982 . S
C388 H413 0.979 . S
C388 H414 0.977 . S
C389 C385 1.684 . S
C389 H415 0.979 . S
C389 H416 0.980 . S
C389 H417 0.983 . S
C390 H366 0.948 . S
C390 C391 1.391 . S
C390 C395 1.391 . S
C391 C390 1.391 . S
C391 C392 1.391 . S
C392 H369 0.947 . S
C392 C391 1.391 . S
C392 C393 1.392 . S
C393 H370 0.948 . S
C393 C392 1.392 . S
C393 C394 1.419 . S
C394 C393 1.419 . S
C394 C395 1.391 . S
C394 C398 1.397 . S
C395 C390 1.391 . S
C395 C394 1.391 . S
C395 C396 1.399 . S
C396 C395 1.399 . S
C396 C397 1.396 . S
C396 C399 1.453 . S
C396 C400 1.684 . S
C397 C387 1.723 . S
C397 C396 1.396 . S
C397 C398 1.394 . S
C398 C368 1.723 . S
C398 C394 1.397 . S
C398 C397 1.394 . S
C399 H371 0.982 . S
C399 H375 0.979 . S
C399 H376 0.977 . S
C399 C396 1.453 . S
C400 H372 0.979 . S
C400 H373 0.980 . S
C400 H374 0.983 . S
C400 C396 1.684 . S
H401 C419 0.948 . S
H402 C360 0.948 . S
H403 C378 0.979 . S
H404 C378 0.980 . S
H405 C378 0.983 . S
H406 C377 0.982 . S
H407 C377 0.979 . S
H408 C377 0.977 . S
H409 C379 0.948 . S
H410 C381 0.947 . S
H411 C382 0.948 . S
H412 C388 0.982 . S
H413 C388 0.979 . S
H414 C388 0.977 . S
H415 C389 0.979 . S
H416 C389 0.980 . S
H417 C389 0.983 . S
H418 C362 0.947 . S
C419 C362 1.392 . S
C419 C363 1.419 . S
C419 H401 0.948 . S
C420 C421 1.391 . S
C420 C424 1.391 . S
C420 H462 0.948 . S
C421 C420 1.391 . S
C421 C422 1.391 . S
C422 C421 1.391 . S
C422 H478 0.947 . S
C422 C479 1.392 . S
C423 C424 1.391 . S
C423 C427 1.397 . S
C423 C479 1.419 . S
C424 C420 1.391 . S
C424 C423 1.391 . S
C424 C425 1.399 . S
C425 C424 1.399 . S
C425 C428 1.396 . S
C425 C437 1.453 . S
C425 C438 1.684 . S
H426 C450 0.948 . S
C427 C423 1.397 . S
C427 C428 1.394 . S
C427 C446 1.723 . S
C428 C425 1.396 . S
C428 C427 1.394 . S
C428 C458 1.723 . S
H429 C452 0.947 . S
H430 C453 0.948 . S
H431 C459 0.982 . S
H432 C460 0.979 . S
H433 C460 0.980 . S
H434 C460 0.983 . S
H435 C459 0.979 . S
H436 C459 0.977 . S
C437 C425 1.453 . S
C437 H466 0.982 . S
C437 H467 0.979 . S
C437 H468 0.977 . S
C438 C425 1.684 . S
C438 H463 0.979 . S
C438 H464 0.980 . S
C438 H465 0.983 . S
C439 C440 1.391 . S
C439 C444 1.391 . S
C439 H469 0.948 . S
C440 C439 1.391 . S
C440 C441 1.391 . S
C441 C440 1.391 . S
C441 C442 1.392 . S
C441 H470 0.947 . S
C442 C441 1.392 . S
C442 C443 1.419 . S
C442 H471 0.948 . S
C443 C442 1.419 . S
C443 C444 1.391 . S
C443 C447 1.397 . S
C444 C439 1.391 . S
C444 C443 1.391 . S
C444 C445 1.399 . S
C445 C444 1.399 . S
C445 C446 1.396 . S
C445 C448 1.453 . S
C445 C449 1.684 . S
C446 C427 1.723 . S
C446 C445 1.396 . S
C446 C447 1.394 . S
C447 C443 1.397 . S
C447 C446 1.394 . S
C447 C457 1.723 . S
C448 C445 1.453 . S
C448 H472 0.982 . S
C448 H473 0.979 . S
C448 H474 0.977 . S
C449 C445 1.684 . S
C449 H475 0.979 . S
C449 H476 0.980 . S
C449 H477 0.983 . S
C450 H426 0.948 . S
C450 C451 1.391 . S
C450 C455 1.391 . S
C451 C450 1.391 . S
C451 C452 1.391 . S
C452 H429 0.947 . S
C452 C451 1.391 . S
C452 C453 1.392 . S
C453 H430 0.948 . S
C453 C452 1.392 . S
C453 C454 1.419 . S
C454 C453 1.419 . S
C454 C455 1.391 . S
C454 C458 1.397 . S
C455 C450 1.391 . S
C455 C454 1.391 . S
C455 C456 1.399 . S
C456 C455 1.399 . S
C456 C457 1.396 . S
C456 C459 1.453 . S
C456 C460 1.684 . S
C457 C447 1.723 . S
C457 C456 1.396 . S
C457 C458 1.394 . S
C458 C428 1.723 . S
C458 C454 1.397 . S
C458 C457 1.394 . S
C459 H431 0.982 . S
C459 H435 0.979 . S
C459 H436 0.977 . S
C459 C456 1.453 . S
C460 H432 0.979 . S
C460 H433 0.980 . S
C460 H434 0.983 . S
C460 C456 1.684 . S
H461 C479 0.948 . S
H462 C420 0.948 . S
H463 C438 0.979 . S
H464 C438 0.980 . S
H465 C438 0.983 . S
H466 C437 0.982 . S
H467 C437 0.979 . S
H468 C437 0.977 . S
H469 C439 0.948 . S
H470 C441 0.947 . S
H471 C442 0.948 . S
H472 C448 0.982 . S
H473 C448 0.979 . S
H474 C448 0.977 . S
H475 C449 0.979 . S
H476 C449 0.980 . S
H477 C449 0.983 . S
H478 C422 0.947 . S
C479 C422 1.392 . S
C479 C423 1.419 . S
C479 H461 0.948 . S
C480 C481 1.391 . S
C480 C484 1.391 . S
C480 H522 0.948 . S
C481 C480 1.391 . S
C481 C482 1.391 . S
C482 C481 1.391 . S
C482 H538 0.947 . S
C482 C539 1.392 . S
C483 C484 1.391 . S
C483 C487 1.397 . S
C483 C539 1.419 . S
C484 C480 1.391 . S
C484 C483 1.391 . S
C484 C485 1.399 . S
C485 C484 1.399 . S
C485 C488 1.396 . S
C485 C497 1.453 . S
C485 C498 1.684 . S
H486 C510 0.948 . S
C487 C483 1.397 . S
C487 C488 1.394 . S
C487 C506 1.723 . S
C488 C485 1.396 . S
C488 C487 1.394 . S
C488 C518 1.723 . S
H489 C512 0.947 . S
H490 C513 0.948 . S
H491 C519 0.982 . S
H492 C520 0.979 . S
H493 C520 0.980 . S
H494 C520 0.983 . S
H495 C519 0.979 . S
H496 C519 0.977 . S
C497 C485 1.453 . S
C497 H526 0.982 . S
C497 H527 0.979 . S
C497 H528 0.977 . S
C498 C485 1.684 . S
C498 H523 0.979 . S
C498 H524 0.980 . S
C498 H525 0.983 . S
C499 C500 1.391 . S
C499 C504 1.391 . S
C499 H529 0.948 . S
C500 C499 1.391 . S
C500 C501 1.391 . S
C501 C500 1.391 . S
C501 C502 1.392 . S
C501 H530 0.947 . S
C502 C501 1.392 . S
C502 C503 1.419 . S
C502 H531 0.948 . S
C503 C502 1.419 . S
C503 C504 1.391 . S
C503 C507 1.397 . S
C504 C499 1.391 . S
C504 C503 1.391 . S
C504 C505 1.399 . S
C505 C504 1.399 . S
C505 C506 1.396 . S
C505 C508 1.453 . S
C505 C509 1.684 . S
C506 C487 1.723 . S
C506 C505 1.396 . S
C506 C507 1.394 . S
C507 C503 1.397 . S
C507 C506 1.394 . S
C507 C517 1.723 . S
C508 C505 1.453 . S
C508 H532 0.982 . S
C508 H533 0.979 . S
C508 H534 0.977 . S
C509 C505 1.684 . S
C509 H535 0.979 . S
C509 H536 0.980 . S
C509 H537 0.983 . S
C510 H486 0.948 . S
C510 C511 1.391 . S
C510 C515 1.391 . S
C511 C510 1.391 . S
C511 C512 1.391 . S
C512 H489 0.947 . S
C512 C511 1.391 . S
C512 C513 1.392 . S
C513 H490 0.948 . S
C513 C512 1.392 . S
C513 C514 1.419 . S
C514 C513 1.419 . S
C514 C515 1.391 . S
C514 C518 1.397 . S
C515 C510 1.391 . S
C515 C514 1.391 . S
C515 C516 1.399 . S
C516 C515 1.399 . S
C516 C517 1.396 . S
C516 C519 1.453 . S
C516 C520 1.684 . S
C517 C507 1.723 . S
C517 C516 1.396 . S
C517 C518 1.394 . S
C518 C488 1.723 . S
C518 C514 1.397 . S
C518 C517 1.394 . S
C519 H491 0.982 . S
C519 H495 0.979 . S
C519 H496 0.977 . S
C519 C516 1.453 . S
C520 H492 0.979 . S
C520 H493 0.980 . S
C520 H494 0.983 . S
C520 C516 1.684 . S
H521 C539 0.948 . S
H522 C480 0.948 . S
H523 C498 0.979 . S
H524 C498 0.980 . S
H525 C498 0.983 . S
H526 C497 0.982 . S
H527 C497 0.979 . S
H528 C497 0.977 . S
H529 C499 0.948 . S
H530 C501 0.947 . S
H531 C502 0.948 . S
H532 C508 0.982 . S
H533 C508 0.979 . S
H534 C508 0.977 . S
H535 C509 0.979 . S
H536 C509 0.980 . S
H537 C509 0.983 . S
H538 C482 0.947 . S
C539 C482 1.392 . S
C539 C483 1.419 . S
C539 H521 0.948 . S
C540 C541 1.391 . S
C540 C544 1.391 . S
C540 H582 0.948 . S
C541 C540 1.391 . S
C541 C542 1.391 . S
C542 C541 1.391 . S
C542 H598 0.947 . S
C542 C599 1.392 . S
C543 C544 1.391 . S
C543 C547 1.397 . S
C543 C599 1.419 . S
C544 C540 1.391 . S
C544 C543 1.391 . S
C544 C545 1.399 . S
C545 C544 1.399 . S
C545 C548 1.396 . S
C545 C557 1.453 . S
C545 C558 1.684 . S
H546 C570 0.948 . S
C547 C543 1.397 . S
C547 C548 1.394 . S
C547 C566 1.723 . S
C548 C545 1.396 . S
C548 C547 1.394 . S
C548 C578 1.723 . S
H549 C572 0.947 . S
H550 C573 0.948 . S
H551 C579 0.982 . S
H552 C580 0.979 . S
H553 C580 0.980 . S
H554 C580 0.983 . S
H555 C579 0.979 . S
H556 C579 0.977 . S
C557 C545 1.453 . S
C557 H586 0.982 . S
C557 H587 0.979 . S
C557 H588 0.977 . S
C558 C545 1.684 . S
C558 H583 0.979 . S
C558 H584 0.980 . S
C558 H585 0.983 . S
C559 C560 1.391 . S
C559 C564 1.391 . S
C559 H589 0.948 . S
C560 C559 1.391 . S
C560 C561 1.391 . S
C561 C560 1.391 . S
C561 C562 1.392 . S
C561 H590 0.947 . S
C562 C561 1.392 . S
C562 C563 1.419 . S
C562 H591 0.948 . S
C563 C562 1.419 . S
C563 C564 1.391 . S
C563 C567 1.397 . S
C564 C559 1.391 . S
C564 C563 1.391 . S
C564 C565 1.399 . S
C565 C564 1.399 . S
C565 C566 1.396 . S
C565 C568 1.453 . S
C565 C569 1.684 . S
C566 C547 1.723 . S
C566 C565 1.396 . S
C566 C567 1.394 . S
C567 C563 1.397 . S
C567 C566 1.394 . S
C567 C577 1.723 . S
C568 C565 1.453 . S
C568 H592 0.982 . S
C568 H593 0.979 . S
C568 H594 0.977 . S
C569 C565 1.684 . S
C569 H595 0.979 . S
C569 H596 0.980 . S
C569 H597 0.983 . S
C570 H546 0.948 . S
C570 C571 1.391 . S
C570 C575 1.391 . S
C571 C570 1.391 . S
C571 C572 1.391 . S
C572 H549 0.947 . S
C572 C571 1.391 . S
C572 C573 1.392 . S
C573 H550 0.948 . S
C573 C572 1.392 . S
C573 C574 1.419 . S
C574 C573 1.419 . S
C574 C575 1.391 . S
C574 C578 1.397 . S
C575 C570 1.391 . S
C575 C574 1.391 . S
C575 C576 1.399 . S
C576 C575 1.399 . S
C576 C577 1.396 . S
C576 C579 1.453 . S
C576 C580 1.684 . S
C577 C567 1.723 . S
C577 C576 1.396 . S
C577 C578 1.394 . S
C578 C548 1.723 . S
C578 C574 1.397 . S
C578 C577 1.394 . S
C579 H551 0.982 . S
C579 H555 0.979 . S
C579 H556 0.977 . S
C579 C576 1.453 . S
C580 H552 0.979 . S
C580 H553 0.980 . S
C580 H554 0.983 . S
C580 C576 1.684 . S
H581 C599 0.948 . S
H582 C540 0.948 . S
H583 C558 0.979 . S
H584 C558 0.980 . S
H585 C558 0.983 . S
H586 C557 0.982 . S
H587 C557 0.979 . S
H588 C557 0.977 . S
H589 C559 0.948 . S
H590 C561 0.947 . S
H591 C562 0.948 . S
H592 C568 0.982 . S
H593 C568 0.979 . S
H594 C568 0.977 . S
H595 C569 0.979 . S
H596 C569 0.980 . S
H597 C569 0.983 . S
H598 C542 0.947 . S
C599 C542 1.392 . S
C599 C543 1.419 . S
C599 H581 0.948 . S
C600 C601 1.391 . S
C600 C604 1.391 . S
C600 H642 0.948 . S
C601 C600 1.391 . S
C601 C602 1.391 . S
C602 C601 1.391 . S
C602 H658 0.947 . S
C602 C659 1.392 . S
C603 C604 1.391 . S
C603 C607 1.397 . S
C603 C659 1.419 . S
C604 C600 1.391 . S
C604 C603 1.391 . S
C604 C605 1.399 . S
C605 C604 1.399 . S
C605 C608 1.396 . S
C605 C617 1.453 . S
C605 C618 1.684 . S
H606 C630 0.948 . S
C607 C603 1.397 . S
C607 C608 1.394 . S
C607 C626 1.723 . S
C608 C605 1.396 . S
C608 C607 1.394 . S
C608 C638 1.723 . S
H609 C632 0.947 1_554 S
H610 C633 0.948 . S
H611 C639 0.982 . S
H612 C640 0.979 . S
H613 C640 0.980 . S
H614 C640 0.983 . S
H615 C639 0.979 . S
H616 C639 0.977 . S
C617 C605 1.453 . S
C617 H646 0.982 . S
C617 H647 0.979 . S
C617 H648 0.977 . S
C618 C605 1.684 . S
C618 H643 0.979 . S
C618 H644 0.980 . S
C618 H645 0.983 1_556 S
C619 C620 1.391 . S
C619 C624 1.391 . S
C619 H649 0.948 . S
C620 C619 1.391 . S
C620 C621 1.391 . S
C621 C620 1.391 . S
C621 C622 1.392 . S
C621 H650 0.947 . S
C622 C621 1.392 . S
C622 C623 1.419 . S
C622 H651 0.948 . S
C623 C622 1.419 . S
C623 C624 1.391 . S
C623 C627 1.397 . S
C624 C619 1.391 . S
C624 C623 1.391 . S
C624 C625 1.399 . S
C625 C624 1.399 . S
C625 C626 1.396 . S
C625 C628 1.453 . S
C625 C629 1.684 . S
C626 C607 1.723 . S
C626 C625 1.396 . S
C626 C627 1.394 . S
C627 C623 1.397 . S
C627 C626 1.394 . S
C627 C637 1.723 . S
C628 C625 1.453 . S
C628 H652 0.982 . S
C628 H653 0.979 . S
C628 H654 0.977 . S
C629 C625 1.684 . S
C629 H655 0.979 . S
C629 H656 0.980 . S
C629 H657 0.983 . S
C630 H606 0.948 . S
C630 C631 1.391 . S
C630 C635 1.391 . S
C631 C630 1.391 . S
C631 C632 1.391 . S
C632 H609 0.947 1_556 S
C632 C631 1.391 . S
C632 C633 1.392 . S
C633 H610 0.948 . S
C633 C632 1.392 . S
C633 C634 1.419 . S
C634 C633 1.419 . S
C634 C635 1.391 . S
C634 C638 1.397 . S
C635 C630 1.391 . S
C635 C634 1.391 . S
C635 C636 1.399 . S
C636 C635 1.399 . S
C636 C637 1.396 . S
C636 C639 1.453 . S
C636 C640 1.684 . S
C637 C627 1.723 . S
C637 C636 1.396 . S
C637 C638 1.394 . S
C638 C608 1.723 . S
C638 C634 1.397 . S
C638 C637 1.394 . S
C639 H611 0.982 . S
C639 H615 0.979 . S
C639 H616 0.977 . S
C639 C636 1.453 . S
C640 H612 0.979 . S
C640 H613 0.980 . S
C640 H614 0.983 . S
C640 C636 1.684 . S
H641 C659 0.948 . S
H642 C600 0.948 . S
H643 C618 0.979 . S
H644 C618 0.980 . S
H645 C618 0.983 1_554 S
H646 C617 0.982 . S
H647 C617 0.979 . S
H648 C617 0.977 . S
H649 C619 0.948 . S
H650 C621 0.947 . S
H651 C622 0.948 . S
H652 C628 0.982 . S
H653 C628 0.979 . S
H654 C628 0.977 . S
H655 C629 0.979 . S
H656 C629 0.980 . S
H657 C629 0.983 . S
H658 C602 0.947 . S
C659 C602 1.392 . S
C659 C603 1.419 . S
C659 H641 0.948 . S
C660 C661 1.391 . S
C660 C664 1.391 . S
C660 H702 0.948 . S
C661 C660 1.391 . S
C661 C662 1.391 . S
C662 C661 1.391 . S
C662 H718 0.947 . S
C662 C719 1.392 . S
C663 C664 1.391 . S
C663 C667 1.397 . S
C663 C719 1.419 . S
C664 C660 1.391 . S
C664 C663 1.391 . S
C664 C665 1.399 . S
C665 C664 1.399 . S
C665 C668 1.396 . S
C665 C677 1.453 . S
C665 C678 1.684 . S
H666 C690 0.948 . S
C667 C663 1.397 . S
C667 C668 1.394 . S
C667 C686 1.723 . S
C668 C665 1.396 . S
C668 C667 1.394 . S
C668 C698 1.723 . S
H669 C692 0.947 . S
H670 C693 0.948 . S
H671 C699 0.982 . S
H672 C700 0.979 . S
H673 C700 0.980 . S
H674 C700 0.983 . S
H675 C699 0.979 . S
H676 C699 0.977 . S
C677 C665 1.453 . S
C677 H706 0.982 . S
C677 H707 0.979 . S
C677 H708 0.977 . S
C678 C665 1.684 . S
C678 H703 0.979 . S
C678 H704 0.980 . S
C678 H705 0.983 . S
C679 C680 1.391 . S
C679 C684 1.391 . S
C679 H709 0.948 . S
C680 C679 1.391 . S
C680 C681 1.391 . S
C681 C680 1.391 . S
C681 C682 1.392 . S
C681 H710 0.947 . S
C682 C681 1.392 . S
C682 C683 1.419 . S
C682 H711 0.948 . S
C683 C682 1.419 . S
C683 C684 1.391 . S
C683 C687 1.397 . S
C684 C679 1.391 . S
C684 C683 1.391 . S
C684 C685 1.399 . S
C685 C684 1.399 . S
C685 C686 1.396 . S
C685 C688 1.453 . S
C685 C689 1.684 . S
C686 C667 1.723 . S
C686 C685 1.396 . S
C686 C687 1.394 . S
C687 C683 1.397 . S
C687 C686 1.394 . S
C687 C697 1.723 . S
C688 C685 1.453 . S
C688 H712 0.982 . S
C688 H713 0.979 . S
C688 H714 0.977 . S
C689 C685 1.684 . S
C689 H715 0.979 . S
C689 H716 0.980 . S
C689 H717 0.983 . S
C690 H666 0.948 . S
C690 C691 1.391 . S
C690 C695 1.391 . S
C691 C690 1.391 . S
C691 C692 1.391 . S
C692 H669 0.947 . S
C692 C691 1.391 . S
C692 C693 1.392 . S
C693 H670 0.948 . S
C693 C692 1.392 . S
C693 C694 1.419 . S
C694 C693 1.419 . S
C694 C695 1.391 . S
C694 C698 1.397 . S
C695 C690 1.391 . S
C695 C694 1.391 . S
C695 C696 1.399 . S
C696 C695 1.399 . S
C696 C697 1.396 . S
C696 C699 1.453 . S
C696 C700 1.684 . S
C697 C687 1.723 . S
C697 C696 1.396 . S
C697 C698 1.394 . S
C698 C668 1.723 . S
C698 C694 1.397 . S
C698 C697 1.394 . S
C699 H671 0.982 . S
C699 H675 0.979 . S
C699 H676 0.977 . S
C699 C696 1.453 . S
C700 H672 0.979 . S
C700 H673 0.980 . S
C700 H674 0.983 . S
C700 C696 1.684 . S
H701 C719 0.948 . S
H702 C660 0.948 . S
H703 C678 0.979 . S
H704 C678 0.980 . S
H705 C678 0.983 . S
H706 C677 0.982 . S
H707 C677 0.979 . S
H708 C677 0.977 . S
H709 C679 0.948 . S
H710 C681 0.947 . S
H711 C682 0.948 . S
H712 C688 0.982 . S
H713 C688 0.979 . S
H714 C688 0.977 . S
H715 C689 0.979 . S
H716 C689 0.980 . S
H717 C689 0.983 . S
H718 C662 0.947 . S
C719 C662 1.392 . S
C719 C663 1.419 . S
C719 H701 0.948 . S
C720 C721 1.391 . S
C720 C724 1.391 . S
C720 H762 0.948 . S
C721 C720 1.391 . S
C721 C722 1.391 . S
C722 C721 1.391 . S
C722 H778 0.947 . S
C722 C779 1.392 . S
C723 C724 1.391 . S
C723 C727 1.397 . S
C723 C779 1.419 . S
C724 C720 1.391 . S
C724 C723 1.391 . S
C724 C725 1.399 . S
C725 C724 1.399 . S
C725 C728 1.396 . S
C725 C737 1.453 . S
C725 C738 1.684 . S
H726 C750 0.948 . S
C727 C723 1.397 . S
C727 C728 1.394 . S
C727 C746 1.723 . S
C728 C725 1.396 . S
C728 C727 1.394 . S
C728 C758 1.723 . S
H729 C752 0.947 . S
H730 C753 0.948 . S
H731 C759 0.982 . S
H732 C760 0.979 . S
H733 C760 0.980 . S
H734 C760 0.983 . S
H735 C759 0.979 . S
H736 C759 0.977 . S
C737 C725 1.453 . S
C737 H766 0.982 . S
C737 H767 0.979 . S
C737 H768 0.977 . S
C738 C725 1.684 . S
C738 H763 0.979 . S
C738 H764 0.980 . S
C738 H765 0.983 . S
C739 C740 1.391 . S
C739 C744 1.391 . S
C739 H769 0.948 . S
C740 C739 1.391 . S
C740 C741 1.391 . S
C741 C740 1.391 . S
C741 C742 1.392 . S
C741 H770 0.947 . S
C742 C741 1.392 . S
C742 C743 1.419 . S
C742 H771 0.948 . S
C743 C742 1.419 . S
C743 C744 1.391 . S
C743 C747 1.397 . S
C744 C739 1.391 . S
C744 C743 1.391 . S
C744 C745 1.399 . S
C745 C744 1.399 . S
C745 C746 1.396 . S
C745 C748 1.453 . S
C745 C749 1.684 . S
C746 C727 1.723 . S
C746 C745 1.396 . S
C746 C747 1.394 . S
C747 C743 1.397 . S
C747 C746 1.394 . S
C747 C757 1.723 . S
C748 C745 1.453 . S
C748 H772 0.982 . S
C748 H773 0.979 . S
C748 H774 0.977 . S
C749 C745 1.684 . S
C749 H775 0.979 . S
C749 H776 0.980 . S
C749 H777 0.983 . S
C750 H726 0.948 . S
C750 C751 1.391 . S
C750 C755 1.391 . S
C751 C750 1.391 . S
C751 C752 1.391 . S
C752 H729 0.947 . S
C752 C751 1.391 . S
C752 C753 1.392 . S
C753 H730 0.948 . S
C753 C752 1.392 . S
C753 C754 1.419 . S
C754 C753 1.419 . S
C754 C755 1.391 . S
C754 C758 1.397 . S
C755 C750 1.391 . S
C755 C754 1.391 . S
C755 C756 1.399 . S
C756 C755 1.399 . S
C756 C757 1.396 . S
C756 C759 1.453 . S
C756 C760 1.684 . S
C757 C747 1.723 . S
C757 C756 1.396 . S
C757 C758 1.394 . S
C758 C728 1.723 . S
C758 C754 1.397 . S
C758 C757 1.394 . S
C759 H731 0.982 . S
C759 H735 0.979 . S
C759 H736 0.977 . S
C759 C756 1.453 . S
C760 H732 0.979 . S
C760 H733 0.980 . S
C760 H734 0.983 . S
C760 C756 1.684 . S
H761 C779 0.948 . S
H762 C720 0.948 . S
H763 C738 0.979 . S
H764 C738 0.980 . S
H765 C738 0.983 . S
H766 C737 0.982 . S
H767 C737 0.979 . S
H768 C737 0.977 . S
H769 C739 0.948 . S
H770 C741 0.947 . S
H771 C742 0.948 . S
H772 C748 0.982 . S
H773 C748 0.979 . S
H774 C748 0.977 . S
H775 C749 0.979 . S
H776 C749 0.980 . S
H777 C749 0.983 . S
H778 C722 0.947 . S
C779 C722 1.392 . S
C779 C723 1.419 . S
C779 H761 0.948 . S
C780 C781 1.391 . S
C780 C784 1.391 . S
C780 H822 0.948 . S
C781 C780 1.391 . S
C781 C782 1.391 . S
C782 C781 1.391 . S
C782 H838 0.947 . S
C782 C839 1.392 . S
C783 C784 1.391 . S
C783 C787 1.397 . S
C783 C839 1.419 . S
C784 C780 1.391 . S
C784 C783 1.391 . S
C784 C785 1.399 . S
C785 C784 1.399 . S
C785 C788 1.396 . S
C785 C797 1.453 . S
C785 C798 1.684 . S
H786 C810 0.948 . S
C787 C783 1.397 . S
C787 C788 1.394 . S
C787 C806 1.723 . S
C788 C785 1.396 . S
C788 C787 1.394 . S
C788 C818 1.723 . S
H789 C812 0.947 . S
H790 C813 0.948 . S
H791 C819 0.982 . S
H792 C820 0.979 . S
H793 C820 0.980 . S
H794 C820 0.983 . S
H795 C819 0.979 . S
H796 C819 0.977 . S
C797 C785 1.453 . S
C797 H826 0.982 . S
C797 H827 0.979 . S
C797 H828 0.977 . S
C798 C785 1.684 . S
C798 H823 0.979 . S
C798 H824 0.980 . S
C798 H825 0.983 . S
C799 C800 1.391 . S
C799 C804 1.391 . S
C799 H829 0.948 . S
C800 C799 1.391 . S
C800 C801 1.391 . S
C801 C800 1.391 . S
C801 C802 1.392 . S
C801 H830 0.947 . S
C802 C801 1.392 . S
C802 C803 1.419 . S
C802 H831 0.948 . S
C803 C802 1.419 . S
C803 C804 1.391 . S
C803 C807 1.397 . S
C804 C799 1.391 . S
C804 C803 1.391 . S
C804 C805 1.399 . S
C805 C804 1.399 . S
C805 C806 1.396 . S
C805 C808 1.453 . S
C805 C809 1.684 . S
C806 C787 1.723 . S
C806 C805 1.396 . S
C806 C807 1.394 . S
C807 C803 1.397 . S
C807 C806 1.394 . S
C807 C817 1.723 . S
C808 C805 1.453 . S
C808 H832 0.982 . S
C808 H833 0.979 . S
C808 H834 0.977 . S
C809 C805 1.684 . S
C809 H835 0.979 . S
C809 H836 0.980 . S
C809 H837 0.983 . S
C810 H786 0.948 . S
C810 C811 1.391 . S
C810 C815 1.391 . S
C811 C810 1.391 . S
C811 C812 1.391 . S
C812 H789 0.947 . S
C812 C811 1.391 . S
C812 C813 1.392 . S
C813 H790 0.948 . S
C813 C812 1.392 . S
C813 C814 1.419 . S
C814 C813 1.419 . S
C814 C815 1.391 . S
C814 C818 1.397 . S
C815 C810 1.391 . S
C815 C814 1.391 . S
C815 C816 1.399 . S
C816 C815 1.399 . S
C816 C817 1.396 . S
C816 C819 1.453 . S
C816 C820 1.684 . S
C817 C807 1.723 . S
C817 C816 1.396 . S
C817 C818 1.394 . S
C818 C788 1.723 . S
C818 C814 1.397 . S
C818 C817 1.394 . S
C819 H791 0.982 . S
C819 H795 0.979 . S
C819 H796 0.977 . S
C819 C816 1.453 . S
C820 H792 0.979 . S
C820 H793 0.980 . S
C820 H794 0.983 . S
C820 C816 1.684 . S
H821 C839 0.948 . S
H822 C780 0.948 . S
H823 C798 0.979 . S
H824 C798 0.980 . S
H825 C798 0.983 . S
H826 C797 0.982 . S
H827 C797 0.979 . S
H828 C797 0.977 . S
H829 C799 0.948 . S
H830 C801 0.947 . S
H831 C802 0.948 . S
H832 C808 0.982 . S
H833 C808 0.979 . S
H834 C808 0.977 . S
H835 C809 0.979 . S
H836 C809 0.980 . S
H837 C809 0.983 . S
H838 C782 0.947 . S
C839 C782 1.392 . S
C839 C783 1.419 . S
C839 H821 0.948 . S
C840 C841 1.391 . S
C840 C844 1.391 . S
C840 H882 0.948 . S
C841 C840 1.391 . S
C841 C842 1.391 . S
C842 C841 1.391 . S
C842 H898 0.947 . S
C842 C899 1.392 . S
C843 C844 1.391 . S
C843 C847 1.397 . S
C843 C899 1.419 . S
C844 C840 1.391 . S
C844 C843 1.391 . S
C844 C845 1.399 . S
C845 C844 1.399 . S
C845 C848 1.396 . S
C845 C857 1.453 . S
C845 C858 1.684 . S
H846 C870 0.948 . S
C847 C843 1.397 . S
C847 C848 1.394 . S
C847 C866 1.723 . S
C848 C845 1.396 . S
C848 C847 1.394 . S
C848 C878 1.723 . S
H849 C872 0.947 . S
H850 C873 0.948 . S
H851 C879 0.982 . S
H852 C880 0.979 . S
H853 C880 0.980 . S
H854 C880 0.983 . S
H855 C879 0.979 . S
H856 C879 0.977 . S
C857 C845 1.453 . S
C857 H886 0.982 . S
C857 H887 0.979 . S
C857 H888 0.977 . S
C858 C845 1.684 . S
C858 H883 0.979 . S
C858 H884 0.980 . S
C858 H885 0.983 . S
C859 C860 1.391 . S
C859 C864 1.391 . S
C859 H889 0.948 . S
C860 C859 1.391 . S
C860 C861 1.391 . S
C861 C860 1.391 . S
C861 C862 1.392 . S
C861 H890 0.947 . S
C862 C861 1.392 . S
C862 C863 1.419 . S
C862 H891 0.948 . S
C863 C862 1.419 . S
C863 C864 1.391 . S
C863 C867 1.397 . S
C864 C859 1.391 . S
C864 C863 1.391 . S
C864 C865 1.399 . S
C865 C864 1.399 . S
C865 C866 1.396 . S
C865 C868 1.453 . S
C865 C869 1.684 . S
C866 C847 1.723 . S
C866 C865 1.396 . S
C866 C867 1.394 . S
C867 C863 1.397 . S
C867 C866 1.394 . S
C867 C877 1.723 . S
C868 C865 1.453 . S
C868 H892 0.982 . S
C868 H893 0.979 . S
C868 H894 0.977 . S
C869 C865 1.684 . S
C869 H895 0.979 . S
C869 H896 0.980 . S
C869 H897 0.983 . S
C870 H846 0.948 . S
C870 C871 1.391 . S
C870 C875 1.391 . S
C871 C870 1.391 . S
C871 C872 1.391 . S
C872 H849 0.947 . S
C872 C871 1.391 . S
C872 C873 1.392 . S
C873 H850 0.948 . S
C873 C872 1.392 . S
C873 C874 1.419 . S
C874 C873 1.419 . S
C874 C875 1.391 . S
C874 C878 1.397 . S
C875 C870 1.391 . S
C875 C874 1.391 . S
C875 C876 1.399 . S
C876 C875 1.399 . S
C876 C877 1.396 . S
C876 C879 1.453 . S
C876 C880 1.684 . S
C877 C867 1.723 . S
C877 C876 1.396 . S
C877 C878 1.394 . S
C878 C848 1.723 . S
C878 C874 1.397 . S
C878 C877 1.394 . S
C879 H851 0.982 . S
C879 H855 0.979 . S
C879 H856 0.977 . S
C879 C876 1.453 . S
C880 H852 0.979 . S
C880 H853 0.980 . S
C880 H854 0.983 . S
C880 C876 1.684 . S
H881 C899 0.948 . S
H882 C840 0.948 . S
H883 C858 0.979 . S
H884 C858 0.980 . S
H885 C858 0.983 . S
H886 C857 0.982 . S
H887 C857 0.979 . S
H888 C857 0.977 . S
H889 C859 0.948 . S
H890 C861 0.947 . S
H891 C862 0.948 . S
H892 C868 0.982 . S
H893 C868 0.979 . S
H894 C868 0.977 . S
H895 C869 0.979 . S
H896 C869 0.980 . S
H897 C869 0.983 . S
H898 C842 0.947 . S
C899 C842 1.392 . S
C899 C843 1.419 . S
C899 H881 0.948 . S
C900 C901 1.391 . S
C900 C904 1.391 . S
C900 H942 0.948 . S
C901 C900 1.391 . S
C901 C902 1.391 . S
C902 C901 1.391 . S
C902 H958 0.947 . S
C902 C959 1.392 . S
C903 C904 1.391 . S
C903 C907 1.397 . S
C903 C959 1.419 . S
C904 C900 1.391 . S
C904 C903 1.391 . S
C904 C905 1.399 . S
C905 C904 1.399 . S
C905 C908 1.396 . S
C905 C917 1.453 . S
C905 C918 1.684 . S
H906 C930 0.948 . S
C907 C903 1.397 . S
C907 C908 1.394 . S
C907 C926 1.723 . S
C908 C905 1.396 . S
C908 C907 1.394 . S
C908 C938 1.723 . S
H909 C932 0.947 . S
H910 C933 0.948 . S
H911 C939 0.982 . S
H912 C940 0.979 . S
H913 C940 0.980 . S
H914 C940 0.983 . S
H915 C939 0.979 . S
H916 C939 0.977 . S
C917 C905 1.453 . S
C917 H946 0.982 . S
C917 H947 0.979 . S
C917 H948 0.977 . S
C918 C905 1.684 . S
C918 H943 0.979 . S
C918 H944 0.980 . S
C918 H945 0.983 . S
C919 C920 1.391 . S
C919 C924 1.391 . S
C919 H949 0.948 . S
C920 C919 1.391 . S
C920 C921 1.391 . S
C921 C920 1.391 . S
C921 C922 1.392 . S
C921 H950 0.947 . S
C922 C921 1.392 . S
C922 C923 1.419 . S
C922 H951 0.948 . S
C923 C922 1.419 . S
C923 C924 1.391 . S
C923 C927 1.397 . S
C924 C919 1.391 . S
C924 C923 1.391 . S
C924 C925 1.399 . S
C925 C924 1.399 . S
C925 C926 1.396 . S
C925 C928 1.453 . S
C925 C929 1.684 . S
C926 C907 1.723 . S
C926 C925 1.396 . S
C926 C927 1.394 . S
C927 C923 1.397 . S
C927 C926 1.394 . S
C927 C937 1.723 . S
C928 C925 1.453 . S
C928 H952 0.982 . S
C928 H953 0.979 . S
C928 H954 0.977 . S
C929 C925 1.684 . S
C929 H955 0.979 . S
C929 H956 0.980 . S
C929 H957 0.983 . S
C930 H906 0.948 . S
C930 C931 1.391 . S
C930 C935 1.391 . S
C931 C930 1.391 . S
C931 C932 1.391 . S
C932 H909 0.947 . S
C932 C931 1.391 . S
C932 C933 1.392 . S
C933 H910 0.948 . S
C933 C932 1.392 . S
C933 C934 1.419 . S
C934 C933 1.419 . S
C934 C935 1.391 . S
C934 C938 1.397 . S
C935 C930 1.391 . S
C935 C934 1.391 . S
C935 C936 1.399 . S
C936 C935 1.399 . S
C936 C937 1.396 . S
C936 C939 1.453 . S
C936 C940 1.684 . S
C937 C927 1.723 . S
C937 C936 1.396 . S
C937 C938 1.394 . S
C938 C908 1.723 . S
C938 C934 1.397 . S
C938 C937 1.394 . S
C939 H911 0.982 . S
C939 H915 0.979 . S
C939 H916 0.977 . S
C939 C936 1.453 . S
C940 H912 0.979 . S
C940 H913 0.980 . S
C940 H914 0.983 . S
C940 C936 1.684 . S
H941 C959 0.948 . S
H942 C900 0.948 . S
H943 C918 0.979 . S
H944 C918 0.980 . S
H945 C918 0.983 . S
H946 C917 0.982 . S
H947 C917 0.979 . S
H948 C917 0.977 . S
H949 C919 0.948 . S
H950 C921 0.947 . S
H951 C922 0.948 . S
H952 C928 0.982 . S
H953 C928 0.979 . S
H954 C928 0.977 . S
H955 C929 0.979 . S
H956 C929 0.980 . S
H957 C929 0.983 . S
H958 C902 0.947 . S
C959 C902 1.392 . S
C959 C903 1.419 . S
C959 H941 0.948 . S
C960 C961 1.391 . S
C960 C964 1.391 . S
C960 H1002 0.948 . S
C961 C960 1.391 . S
C961 C962 1.391 . S
C962 C961 1.391 . S
C962 H1018 0.947 . S
C962 C1019 1.392 . S
C963 C964 1.391 . S
C963 C967 1.397 . S
C963 C1019 1.419 . S
C964 C960 1.391 . S
C964 C963 1.391 . S
C964 C965 1.399 . S
C965 C964 1.399 . S
C965 C968 1.396 . S
C965 C977 1.453 . S
C965 C978 1.684 . S
H966 C990 0.948 . S
C967 C963 1.397 . S
C967 C968 1.394 . S
C967 C986 1.723 . S
C968 C965 1.396 . S
C968 C967 1.394 . S
C968 C998 1.723 . S
H969 C992 0.947 . S
H970 C993 0.948 . S
H971 C999 0.982 . S
H972 C1000 0.979 . S
H973 C1000 0.980 . S
H974 C1000 0.983 . S
H975 C999 0.979 . S
H976 C999 0.977 . S
C977 C965 1.453 . S
C977 H1006 0.982 . S
C977 H1007 0.979 . S
C977 H1008 0.977 . S
C978 C965 1.684 . S
C978 H1003 0.979 . S
C978 H1004 0.980 . S
C978 H1005 0.983 . S
C979 C980 1.391 . S
C979 C984 1.391 . S
C979 H1009 0.948 . S
C980 C979 1.391 . S
C980 C981 1.391 . S
C981 C980 1.391 . S
C981 C982 1.392 . S
C981 H1010 0.947 . S
C982 C981 1.392 . S
C982 C983 1.419 . S
C982 H1011 0.948 . S
C983 C982 1.419 . S
C983 C984 1.391 . S
C983 C987 1.397 . S
C984 C979 1.391 . S
C984 C983 1.391 . S
C984 C985 1.399 . S
C985 C984 1.399 . S
C985 C986 1.396 . S
C985 C988 1.453 . S
C985 C989 1.684 . S
C986 C967 1.723 . S
C986 C985 1.396 . S
C986 C987 1.394 . S
C987 C983 1.397 . S
C987 C986 1.394 . S
C987 C997 1.723 . S
C988 C985 1.453 . S
C988 H1012 0.982 . S
C988 H1013 0.979 . S
C988 H1014 0.977 . S
C989 C985 1.684 . S
C989 H1015 0.979 . S
C989 H1016 0.980 . S
C989 H1017 0.983 . S
C990 H966 0.948 . S
C990 C991 1.391 . S
C990 C995 1.391 . S
C991 C990 1.391 . S
C991 C992 1.391 . S
C992 H969 0.947 . S
C992 C991 1.391 . S
C992 C993 1.392 . S
C993 H970 0.948 . S
C993 C992 1.392 . S
C993 C994 1.419 . S
C994 C993 1.419 . S
C994 C995 1.391 . S
C994 C998 1.397 . S
C995 C990 1.391 . S
C995 C994 1.391 . S
C995 C996 1.399 . S
C996 C995 1.399 . S
C996 C997 1.396 . S
C996 C999 1.453 . S
C996 C1000 1.684 . S
C997 C987 1.723 . S
C997 C996 1.396 . S
C997 C998 1.394 . S
C998 C968 1.723 . S
C998 C994 1.397 . S
C998 C997 1.394 . S
C999 H971 0.982 . S
C999 H975 0.979 . S
C999 H976 0.977 . S
C999 C996 1.453 . S
C1000 H972 0.979 . S
C1000 H973 0.980 . S
C1000 H974 0.983 . S
C1000 C996 1.684 . S
H1001 C1019 0.948 . S
H1002 C960 0.948 . S
H1003 C978 0.979 . S
H1004 C978 0.980 . S
H1005 C978 0.983 . S
H1006 C977 0.982 . S
H1007 C977 0.979 . S
H1008 C977 0.977 . S
H1009 C979 0.948 . S
H1010 C981 0.947 . S
H1011 C982 0.948 . S
H1012 C988 0.982 . S
H1013 C988 0.979 . S
H1014 C988 0.977 . S
H1015 C989 0.979 . S
H1016 C989 0.980 . S
H1017 C989 0.983 . S
H1018 C962 0.947 . S
C1019 C962 1.392 . S
C1019 C963 1.419 . S
C1019 H1001 0.948 . S
C1020 C1021 1.391 . S
C1020 C1024 1.391 . S
C1020 H1062 0.948 . S
C1021 C1020 1.391 . S
C1021 C1022 1.391 . S
C1022 C1021 1.391 . S
C1022 H1078 0.947 . S
C1022 C1079 1.392 . S
C1023 C1024 1.391 . S
C1023 C1027 1.397 . S
C1023 C1079 1.419 . S
C1024 C1020 1.391 . S
C1024 C1023 1.391 . S
C1024 C1025 1.399 . S
C1025 C1024 1.399 . S
C1025 C1028 1.396 . S
C1025 C1037 1.453 . S
C1025 C1038 1.684 . S
H1026 C1050 0.948 . S
C1027 C1023 1.397 . S
C1027 C1028 1.394 . S
C1027 C1046 1.723 . S
C1028 C1025 1.396 . S
C1028 C1027 1.394 . S
C1028 C1058 1.723 . S
H1029 C1052 0.947 . S
H1030 C1053 0.948 . S
H1031 C1059 0.982 . S
H1032 C1060 0.979 . S
H1033 C1060 0.980 . S
H1034 C1060 0.983 . S
H1035 C1059 0.979 . S
H1036 C1059 0.977 . S
C1037 C1025 1.453 . S
C1037 H1066 0.982 . S
C1037 H1067 0.979 . S
C1037 H1068 0.977 . S
C1038 C1025 1.684 . S
C1038 H1063 0.979 . S
C1038 H1064 0.980 . S
C1038 H1065 0.983 . S
C1039 C1040 1.391 . S
C1039 C1044 1.391 . S
C1039 H1069 0.948 . S
C1040 C1039 1.391 . S
C1040 C1041 1.391 . S
C1041 C1040 1.391 . S
C1041 C1042 1.392 . S
C1041 H1070 0.947 . S
C1042 C1041 1.392 . S
C1042 C1043 1.419 . S
C1042 H1071 0.948 . S
C1043 C1042 1.419 . S
C1043 C1044 1.391 . S
C1043 C1047 1.397 . S
C1044 C1039 1.391 . S
C1044 C1043 1.391 . S
C1044 C1045 1.399 . S
C1045 C1044 1.399 . S
C1045 C1046 1.396 . S
C1045 C1048 1.453 . S
C1045 C1049 1.684 . S
C1046 C1027 1.723 . S
C1046 C1045 1.396 . S
C1046 C1047 1.394 . S
C1047 C1043 1.397 . S
C1047 C1046 1.394 . S
C1047 C1057 1.723 . S
C1048 C1045 1.453 . S
C1048 H1072 0.982 . S
C1048 H1073 0.979 . S
C1048 H1074 0.977 . S
C1049 C1045 1.684 . S
C1049 H1075 0.979 . S
C1049 H1076 0.980 . S
C1049 H1077 0.983 . S
C1050 H1026 0.948 . S
C1050 C1051 1.391 . S
C1050 C1055 1.391 . S
C1051 C1050 1.391 . S
C1051 C1052 1.391 . S
C1052 H1029 0.947 . S
C1052 C1051 1.391 . S
C1052 C1053 1.392 . S
C1053 H1030 0.948 . S
C1053 C1052 1.392 . S
C1053 C1054 1.419 . S
C1054 C1053 1.419 . S
C1054 C1055 1.391 . S
C1054 C1058 1.397 . S
C1055 C1050 1.391 . S
C1055 C1054 1.391 . S
C1055 C1056 1.399 . S
C1056 C1055 1.399 . S
C1056 C1057 1.396 . S
C1056 C1059 1.453 . S
C1056 C1060 1.684 . S
C1057 C1047 1.723 . S
C1057 C1056 1.396 . S
C1057 C1058 1.394 . S
C1058 C1028 1.723 . S
C1058 C1054 1.397 . S
C1058 C1057 1.394 . S
C1059 H1031 0.982 . S
C1059 H1035 0.979 . S
C1059 H1036 0.977 . S
C1059 C1056 1.453 . S
C1060 H1032 0.979 . S
C1060 H1033 0.980 . S
C1060 H1034 0.983 . S
C1060 C1056 1.684 . S
H1061 C1079 0.948 . S
H1062 C1020 0.948 . S
H1063 C1038 0.979 . S
H1064 C1038 0.980 . S
H1065 C1038 0.983 . S
H1066 C1037 0.982 . S
H1067 C1037 0.979 . S
H1068 C1037 0.977 . S
H1069 C1039 0.948 . S
H1070 C1041 0.947 . S
H1071 C1042 0.948 . S
H1072 C1048 0.982 . S
H1073 C1048 0.979 . S
H1074 C1048 0.977 . S
H1075 C1049 0.979 . S
H1076 C1049 0.980 . S
H1077 C1049 0.983 . S
H1078 C1022 0.947 . S
C1079 C1022 1.392 . S
C1079 C1023 1.419 . S
C1079 H1061 0.948 . S
O1080 Mg1081 1.990 . S
O1080 C1094 1.235 1_565 S
Mg1081 O1080 1.990 . S
Mg1081 O1084 2.180 1_556 S
Mg1081 O1085 2.117 . S
Mg1081 O1099 2.030 1_565 S
O1082 Mg1083 2.072 1_556 S
O1082 C1094 1.269 . S
Mg1083 O1082 2.072 1_554 S
Mg1083 O1084 2.099 1_545 S
Mg1083 O1086 2.079 . S
Mg1083 O1087 2.072 1_545 S
Mg1083 O1089 2.099 . S
Mg1083 O1100 2.079 . S
O1084 Mg1081 2.180 1_554 S
O1084 Mg1083 2.099 1_565 S
O1084 C1095 1.279 . S
O1085 Mg1081 2.117 . S
O1085 C1095 1.250 1_556 S
O1086 Mg1083 2.079 . S
O1086 C1096 1.264 . S
O1087 Mg1083 2.072 1_565 S
O1087 C1097 1.260 . S
Mg1088 O1089 2.180 . S
Mg1088 O1090 2.061 . S
Mg1088 O1091 1.990 1_545 S
Mg1088 O1092 2.117 . S
O1089 Mg1083 2.099 . S
O1089 Mg1088 2.180 . S
O1089 C1098 1.279 . S
O1090 Mg1088 2.061 . S
O1090 C1096 1.226 . S
O1091 Mg1088 1.990 1_565 S
O1091 C1097 1.253 . S
O1092 Mg1088 2.117 . S
O1092 C1098 1.250 . S
C1093 O1099 1.248 . S
C1093 O1100 1.264 1_556 S
C1094 O1080 1.235 1_545 S
C1094 O1082 1.269 . S
C1095 O1084 1.279 . S
C1095 O1085 1.250 1_554 S
C1096 O1086 1.264 . S
C1096 O1090 1.226 . S
C1097 O1087 1.260 . S
C1097 O1091 1.253 . S
C1098 O1089 1.279 . S
C1098 O1092 1.250 . S
O1099 Mg1081 2.030 1_545 S
O1099 C1093 1.248 . S
O1100 Mg1083 2.079 . S
O1100 C1093 1.264 1_554 S
O1101 Mg1102 1.990 . S
O1101 C1115 1.253 . S
Mg1102 O1101 1.990 . S
Mg1102 O1105 2.180 1_556 S
Mg1102 O1106 2.117 . S
Mg1102 O1120 2.030 1_455 S
O1103 Mg1104 2.071 1_556 S
O1103 C1115 1.260 1_655 S
Mg1104 O1103 2.071 1_554 S
Mg1104 O1105 2.097 1_655 S
Mg1104 O1107 2.081 . S
Mg1104 O1108 2.048 1_655 S
Mg1104 O1110 2.102 . S
Mg1104 O1121 2.103 . S
O1105 Mg1102 2.180 1_554 S
O1105 Mg1104 2.097 1_455 S
O1105 C1116 1.279 . S
O1106 Mg1102 2.117 . S
O1106 C1116 1.250 1_556 S
O1107 Mg1104 2.081 . S
O1107 C1117 1.264 1_655 S
O1108 Mg1104 2.048 1_455 S
O1108 C1118 1.260 . S
Mg1109 O1110 2.180 . S
Mg1109 O1111 2.030 1_655 S
Mg1109 O1112 1.990 1_655 S
Mg1109 O1113 2.117 . S
O1110 Mg1104 2.102 . S
O1110 Mg1109 2.180 . S
O1110 C1119 1.302 . S
O1111 Mg1109 2.030 1_455 S
O1111 C1117 1.248 . S
O1112 Mg1109 1.990 1_455 S
O1112 C1118 1.253 . S
O1113 Mg1109 2.117 . S
O1113 C1119 1.265 . S
C1114 O1120 1.248 . S
C1114 O1121 1.264 1_556 S
C1115 O1101 1.253 . S
C1115 O1103 1.260 1_455 S
C1116 O1105 1.279 . S
C1116 O1106 1.250 1_554 S
C1117 O1107 1.264 1_455 S
C1117 O1111 1.248 . S
C1118 O1108 1.260 . S
C1118 O1112 1.253 . S
C1119 O1110 1.302 . S
C1119 O1113 1.265 . S
O1120 Mg1102 2.030 1_655 S
O1120 C1114 1.248 . S
O1121 Mg1104 2.103 . S
O1121 C1114 1.264 1_554 S
O1122 Mg1123 1.990 . S
O1122 C1136 1.253 . S
Mg1123 O1122 1.990 . S
Mg1123 O1126 2.180 . S
Mg1123 O1127 2.117 . S
Mg1123 O1141 2.030 . S
O1124 Mg1125 2.067 1_554 S
O1124 C1136 1.260 . S
Mg1125 O1124 2.067 1_556 S
Mg1125 O1126 2.098 1_556 S
Mg1125 O1128 2.084 . S
Mg1125 O1129 2.073 . S
Mg1125 O1131 2.099 . S
Mg1125 O1142 2.078 1_556 S
O1126 Mg1123 2.180 . S
O1126 Mg1125 2.098 1_554 S
O1126 C1137 1.279 . S
O1127 Mg1123 2.117 . S
O1127 C1137 1.250 . S
O1128 Mg1125 2.084 . S
O1128 C1138 1.264 . S
O1129 Mg1125 2.073 . S
O1129 C1139 1.260 . S
Mg1130 O1131 2.180 . S
Mg1130 O1132 2.030 . S
Mg1130 O1133 1.990 . S
Mg1130 O1134 2.120 . S
O1131 Mg1125 2.099 . S
O1131 Mg1130 2.180 . S
O1131 C1140 1.279 1_556 S
O1132 Mg1130 2.030 . S
O1132 C1138 1.248 . S
O1133 Mg1130 1.990 . S
O1133 C1139 1.253 . S
O1134 Mg1130 2.120 . S
O1134 C1140 1.249 1_556 S
C1135 O1141 1.248 . S
C1135 O1142 1.264 . S
C1136 O1122 1.253 . S
C1136 O1124 1.260 . S
C1137 O1126 1.279 . S
C1137 O1127 1.250 . S
C1138 O1128 1.264 . S
C1138 O1132 1.248 . S
C1139 O1129 1.260 . S
C1139 O1133 1.253 . S
C1140 O1131 1.279 1_554 S
C1140 O1134 1.249 1_554 S
O1141 Mg1123 2.030 . S
O1141 C1135 1.248 . S
O1142 Mg1125 2.078 1_554 S
O1142 C1135 1.264 . S
O1143 Mg1144 1.990 . S
O1143 C1157 1.253 . S
Mg1144 O1143 1.990 . S
Mg1144 O1147 2.180 . S
Mg1144 O1148 2.117 . S
Mg1144 O1162 2.030 . S
O1145 Mg1146 2.072 . S
O1145 C1157 1.260 . S
Mg1146 O1145 2.072 . S
Mg1146 O1147 2.099 . S
Mg1146 O1149 2.079 . S
Mg1146 O1150 2.072 . S
Mg1146 O1152 2.099 . S
Mg1146 O1163 2.079 . S
O1147 Mg1144 2.180 . S
O1147 Mg1146 2.099 . S
O1147 C1158 1.279 . S
O1148 Mg1144 2.117 . S
O1148 C1158 1.250 . S
O1149 Mg1146 2.079 . S
O1149 C1159 1.264 . S
O1150 Mg1146 2.072 . S
O1150 C1160 1.260 . S
Mg1151 O1152 2.180 . S
Mg1151 O1153 2.030 . S
Mg1151 O1154 1.990 . S
Mg1151 O1155 2.117 . S
O1152 Mg1146 2.099 . S
O1152 Mg1151 2.180 . S
O1152 C1161 1.279 . S
O1153 Mg1151 2.030 . S
O1153 C1159 1.248 . S
O1154 Mg1151 1.990 . S
O1154 C1160 1.253 . S
O1155 Mg1151 2.117 . S
O1155 C1161 1.250 . S
C1156 O1162 1.248 . S
C1156 O1163 1.264 . S
C1157 O1143 1.253 . S
C1157 O1145 1.260 . S
C1158 O1147 1.279 . S
C1158 O1148 1.250 . S
C1159 O1149 1.264 . S
C1159 O1153 1.248 . S
C1160 O1150 1.260 . S
C1160 O1154 1.253 . S
C1161 O1152 1.279 . S
C1161 O1155 1.250 . S
O1162 Mg1144 2.030 . S
O1162 C1156 1.248 . S
O1163 Mg1146 2.079 . S
O1163 C1156 1.264 . S
O1164 Mg1165 1.990 . S
O1164 C1178 1.253 . S
Mg1165 O1164 1.990 . S
Mg1165 O1168 2.180 . S
Mg1165 O1169 2.117 . S
Mg1165 O1183 2.030 . S
O1166 Mg1167 2.072 . S
O1166 C1178 1.260 . S
Mg1167 O1166 2.072 . S
Mg1167 O1168 2.099 . S
Mg1167 O1170 2.079 . S
Mg1167 O1171 2.072 . S
Mg1167 O1173 2.099 . S
Mg1167 O1184 2.079 . S
O1168 Mg1165 2.180 . S
O1168 Mg1167 2.099 . S
O1168 C1179 1.279 . S
O1169 Mg1165 2.117 . S
O1169 C1179 1.250 . S
O1170 Mg1167 2.079 . S
O1170 C1180 1.264 . S
O1171 Mg1167 2.072 . S
O1171 C1181 1.260 . S
Mg1172 O1173 2.180 . S
Mg1172 O1174 2.030 . S
Mg1172 O1175 1.990 . S
Mg1172 O1176 2.117 . S
O1173 Mg1167 2.099 . S
O1173 Mg1172 2.180 . S
O1173 C1182 1.279 . S
O1174 Mg1172 2.030 . S
O1174 C1180 1.248 . S
O1175 Mg1172 1.990 . S
O1175 C1181 1.253 . S
O1176 Mg1172 2.117 . S
O1176 C1182 1.250 . S
C1177 O1183 1.248 . S
C1177 O1184 1.264 . S
C1178 O1164 1.253 . S
C1178 O1166 1.260 . S
C1179 O1168 1.279 . S
C1179 O1169 1.250 . S
C1180 O1170 1.264 . S
C1180 O1174 1.248 . S
C1181 O1171 1.260 . S
C1181 O1175 1.253 . S
C1182 O1173 1.279 . S
C1182 O1176 1.250 . S
O1183 Mg1165 2.030 . S
O1183 C1177 1.248 . S
O1184 Mg1167 2.079 . S
O1184 C1177 1.264 . S
O1185 Mg1186 1.990 . S
O1185 C1199 1.253 . S
Mg1186 O1185 1.990 . S
Mg1186 O1189 2.180 . S
Mg1186 O1190 2.117 . S
Mg1186 O1204 2.030 . S
O1187 Mg1188 2.072 . S
O1187 C1199 1.260 . S
Mg1188 O1187 2.072 . S
Mg1188 O1189 2.099 . S
Mg1188 O1191 2.079 . S
Mg1188 O1192 2.072 . S
Mg1188 O1194 2.099 . S
Mg1188 O1205 2.079 . S
O1189 Mg1186 2.180 . S
O1189 Mg1188 2.099 . S
O1189 C1200 1.279 . S
O1190 Mg1186 2.117 . S
O1190 C1200 1.250 . S
O1191 Mg1188 2.079 . S
O1191 C1201 1.264 . S
O1192 Mg1188 2.072 . S
O1192 C1202 1.260 . S
Mg1193 O1194 2.180 . S
Mg1193 O1195 2.030 . S
Mg1193 O1196 1.990 . S
Mg1193 O1197 2.117 . S
O1194 Mg1188 2.099 . S
O1194 Mg1193 2.180 . S
O1194 C1203 1.279 . S
O1195 Mg1193 2.030 . S
O1195 C1201 1.248 . S
O1196 Mg1193 1.990 . S
O1196 C1202 1.253 . S
O1197 Mg1193 2.117 . S
O1197 C1203 1.250 . S
C1198 O1204 1.248 . S
C1198 O1205 1.264 . S
C1199 O1185 1.253 . S
C1199 O1187 1.260 . S
C1200 O1189 1.279 . S
C1200 O1190 1.250 . S
C1201 O1191 1.264 . S
C1201 O1195 1.248 . S
C1202 O1192 1.260 . S
C1202 O1196 1.253 . S
C1203 O1194 1.279 . S
C1203 O1197 1.250 . S
O1204 Mg1186 2.030 . S
O1204 C1198 1.248 . S
O1205 Mg1188 2.079 . S
O1205 C1198 1.264 . S
O1206 Mg1207 1.990 . S
O1206 C1220 1.253 . S
Mg1207 O1206 1.990 . S
Mg1207 O1210 2.180 . S
Mg1207 O1211 2.117 . S
Mg1207 O1225 2.030 . S
O1208 Mg1209 2.072 . S
O1208 C1220 1.260 . S
Mg1209 O1208 2.072 . S
Mg1209 O1210 2.099 . S
Mg1209 O1212 2.079 . S
Mg1209 O1213 2.072 . S
Mg1209 O1215 2.099 . S
Mg1209 O1226 2.079 . S
O1210 Mg1207 2.180 . S
O1210 Mg1209 2.099 . S
O1210 C1221 1.279 . S
O1211 Mg1207 2.117 . S
O1211 C1221 1.250 . S
O1212 Mg1209 2.079 . S
O1212 C1222 1.264 . S
O1213 Mg1209 2.072 . S
O1213 C1223 1.260 . S
Mg1214 O1215 2.180 . S
Mg1214 O1216 2.030 . S
Mg1214 O1217 1.990 . S
Mg1214 O1218 2.117 . S
O1215 Mg1209 2.099 . S
O1215 Mg1214 2.180 . S
O1215 C1224 1.279 . S
O1216 Mg1214 2.030 . S
O1216 C1222 1.248 . S
O1217 Mg1214 1.990 . S
O1217 C1223 1.253 . S
O1218 Mg1214 2.117 . S
O1218 C1224 1.250 . S
C1219 O1225 1.248 . S
C1219 O1226 1.264 . S
C1220 O1206 1.253 . S
C1220 O1208 1.260 . S
C1221 O1210 1.279 . S
C1221 O1211 1.250 . S
C1222 O1212 1.264 . S
C1222 O1216 1.248 . S
C1223 O1213 1.260 . S
C1223 O1217 1.253 . S
C1224 O1215 1.279 . S
C1224 O1218 1.250 . S
O1225 Mg1207 2.030 . S
O1225 C1219 1.248 . S
O1226 Mg1209 2.079 . S
O1226 C1219 1.264 . S
O1227 Mg1228 1.990 . S
O1227 C1241 1.253 . S
Mg1228 O1227 1.990 . S
Mg1228 O1231 2.180 . S
Mg1228 O1232 2.117 . S
Mg1228 O1246 2.030 . S
O1229 Mg1230 2.072 . S
O1229 C1241 1.260 . S
Mg1230 O1229 2.072 . S
Mg1230 O1231 2.099 . S
Mg1230 O1233 2.079 . S
Mg1230 O1234 2.072 . S
Mg1230 O1236 2.099 . S
Mg1230 O1247 2.079 . S
O1231 Mg1228 2.180 . S
O1231 Mg1230 2.099 . S
O1231 C1242 1.279 . S
O1232 Mg1228 2.117 . S
O1232 C1242 1.250 . S
O1233 Mg1230 2.079 . S
O1233 C1243 1.264 . S
O1234 Mg1230 2.072 . S
O1234 C1244 1.260 . S
Mg1235 O1236 2.180 . S
Mg1235 O1237 2.030 . S
Mg1235 O1238 1.990 . S
Mg1235 O1239 2.117 . S
O1236 Mg1230 2.099 . S
O1236 Mg1235 2.180 . S
O1236 C1245 1.279 . S
O1237 Mg1235 2.030 . S
O1237 C1243 1.248 . S
O1238 Mg1235 1.990 . S
O1238 C1244 1.253 . S
O1239 Mg1235 2.117 . S
O1239 C1245 1.250 . S
C1240 O1246 1.248 . S
C1240 O1247 1.264 . S
C1241 O1227 1.253 . S
C1241 O1229 1.260 . S
C1242 O1231 1.279 . S
C1242 O1232 1.250 . S
C1243 O1233 1.264 . S
C1243 O1237 1.248 . S
C1244 O1234 1.260 . S
C1244 O1238 1.253 . S
C1245 O1236 1.279 . S
C1245 O1239 1.250 . S
O1246 Mg1228 2.030 . S
O1246 C1240 1.248 . S
O1247 Mg1230 2.079 . S
O1247 C1240 1.264 . S
O1248 Mg1249 1.990 . S
O1248 C1262 1.253 . S
Mg1249 O1248 1.990 . S
Mg1249 O1252 2.180 . S
Mg1249 O1253 2.117 . S
Mg1249 O1267 2.030 . S
O1250 Mg1251 2.072 . S
O1250 C1262 1.260 . S
Mg1251 O1250 2.072 . S
Mg1251 O1252 2.099 . S
Mg1251 O1254 2.079 . S
Mg1251 O1255 2.072 . S
Mg1251 O1257 2.099 . S
Mg1251 O1268 2.079 . S
O1252 Mg1249 2.180 . S
O1252 Mg1251 2.099 . S
O1252 C1263 1.279 . S
O1253 Mg1249 2.117 . S
O1253 C1263 1.250 . S
O1254 Mg1251 2.079 . S
O1254 C1264 1.264 . S
O1255 Mg1251 2.072 . S
O1255 C1265 1.260 . S
Mg1256 O1257 2.180 . S
Mg1256 O1258 2.030 . S
Mg1256 O1259 1.990 . S
Mg1256 O1260 2.117 . S
O1257 Mg1251 2.099 . S
O1257 Mg1256 2.180 . S
O1257 C1266 1.279 . S
O1258 Mg1256 2.030 . S
O1258 C1264 1.248 . S
O1259 Mg1256 1.990 . S
O1259 C1265 1.253 . S
O1260 Mg1256 2.117 . S
O1260 C1266 1.250 . S
C1261 O1267 1.248 . S
C1261 O1268 1.264 . S
C1262 O1248 1.253 . S
C1262 O1250 1.260 . S
C1263 O1252 1.279 . S
C1263 O1253 1.250 . S
C1264 O1254 1.264 . S
C1264 O1258 1.248 . S
C1265 O1255 1.260 . S
C1265 O1259 1.253 . S
C1266 O1257 1.279 . S
C1266 O1260 1.250 . S
O1267 Mg1249 2.030 . S
O1267 C1261 1.248 . S
O1268 Mg1251 2.079 . S
O1268 C1261 1.264 . S
H1269 C1281 0.930 . S
H1270 C1283 0.930 1_556 S
H1271 C1284 0.947 . S
H1272 C1288 0.959 . S
H1273 C1288 0.959 . S
H1274 C1288 0.961 . S
H1275 C1289 0.960 . S
H1276 C1289 0.961 . S
H1277 C1289 0.959 . S
H1278 C1292 0.929 . S
H1279 C1293 0.931 . S
H1280 C1295 0.930 . S
C1281 H1269 0.930 . S
C1281 C1282 1.399 . S
C1281 C1286 1.399 . S
C1282 C1281 1.399 . S
C1282 C1283 1.376 . S
C1283 H1270 0.930 1_554 S
C1283 C1282 1.376 . S
C1283 C1284 1.382 1_554 S
C1284 H1271 0.947 . S
C1284 C1283 1.382 1_556 S
C1284 C1285 1.379 1_556 S
C1285 C1284 1.379 1_554 S
C1285 C1286 1.394 . S
C1285 C1291 1.465 . S
C1286 C1281 1.399 . S
C1286 C1285 1.394 . S
C1286 C1287 1.516 . S
C1287 C1286 1.516 . S
C1287 C1288 1.502 . S
C1287 C1289 1.561 . S
C1287 C1290 1.526 . S
C1288 H1272 0.959 . S
C1288 H1273 0.959 . S
C1288 H1274 0.961 . S
C1288 C1287 1.502 . S
C1289 H1275 0.960 . S
C1289 H1276 0.961 . S
C1289 H1277 0.959 . S
C1289 C1287 1.561 . S
C1290 C1287 1.526 . S
C1290 C1291 1.396 . S
C1290 C1295 1.390 . S
C1291 C1285 1.465 . S
C1291 C1290 1.396 . S
C1291 C1292 1.399 1_554 S
C1292 H1278 0.929 . S
C1292 C1291 1.399 1_556 S
C1292 C1293 1.385 . S
C1293 H1279 0.931 . S
C1293 C1292 1.385 . S
C1293 C1294 1.389 1_556 S
C1294 C1293 1.389 1_554 S
C1294 C1295 1.387 . S
C1295 H1280 0.930 . S
C1295 C1290 1.390 . S
C1295 C1294 1.387 . S
H1296 C1308 0.930 . S
H1297 C1310 0.930 . S
H1298 C1311 0.930 . S
H1299 C1315 0.959 . S
H1300 C1315 0.959 . S
H1301 C1315 0.961 . S
H1302 C1316 0.960 . S
H1303 C1316 0.961 . S
H1304 C1316 0.959 . S
H1305 C1319 0.903 1_556 S
H1306 C1320 0.931 1_556 S
H1307 C1322 0.930 . S
C1308 H1296 0.930 . S
C1308 C1309 1.399 . S
C1308 C1313 1.399 . S
C1309 C1308 1.399 . S
C1309 C1310 1.376 . S
C1310 H1297 0.930 . S
C1310 C1309 1.376 . S
C1310 C1311 1.388 . S
C1311 H1298 0.930 . S
C1311 C1310 1.388 . S
C1311 C1312 1.390 . S
C1312 C1311 1.390 . S
C1312 C1313 1.394 . S
C1312 C1318 1.465 . S
C1313 C1308 1.399 . S
C1313 C1312 1.394 . S
C1313 C1314 1.516 . S
C1314 C1313 1.516 . S
C1314 C1315 1.502 . S
C1314 C1316 1.561 . S
C1314 C1317 1.526 . S
C1315 H1299 0.959 . S
C1315 H1300 0.959 . S
C1315 H1301 0.961 . S
C1315 C1314 1.502 . S
C1316 H1302 0.960 . S
C1316 H1303 0.961 . S
C1316 H1304 0.959 . S
C1316 C1314 1.561 . S
C1317 C1314 1.526 . S
C1317 C1318 1.396 . S
C1317 C1322 1.390 . S
C1318 C1312 1.465 . S
C1318 C1317 1.396 . S
C1318 C1319 1.399 . S
C1319 H1305 0.903 1_554 S
C1319 C1318 1.399 . S
C1319 C1320 1.385 . S
C1320 H1306 0.931 1_554 S
C1320 C1319 1.385 . S
C1320 C1321 1.389 . S
C1321 C1320 1.389 . S
C1321 C1322 1.387 . S
C1322 H1307 0.930 . S
C1322 C1317 1.390 . S
C1322 C1321 1.387 . S
H1323 C1335 0.930 . S
H1324 C1337 0.930 . S
H1325 C1338 0.930 . S
H1326 C1342 0.959 1_554 S
H1327 C1342 0.959 . S
H1328 C1342 0.961 . S
H1329 C1343 0.960 . S
H1330 C1343 0.961 . S
H1331 C1343 0.959 . S
H1332 C1346 0.929 . S
H1333 C1347 0.931 . S
H1334 C1349 0.930 1_556 S
C1335 H1323 0.930 . S
C1335 C1336 1.399 . S
C1335 C1340 1.399 . S
C1336 C1335 1.399 . S
C1336 C1337 1.376 . S
C1337 H1324 0.930 . S
C1337 C1336 1.376 . S
C1337 C1338 1.388 . S
C1338 H1325 0.930 . S
C1338 C1337 1.388 . S
C1338 C1339 1.390 . S
C1339 C1338 1.390 . S
C1339 C1340 1.394 . S
C1339 C1345 1.465 . S
C1340 C1335 1.399 . S
C1340 C1339 1.394 . S
C1340 C1341 1.486 1_554 S
C1341 C1340 1.486 1_556 S
C1341 C1342 1.515 . S
C1341 C1343 1.599 . S
C1341 C1344 1.504 1_556 S
C1342 H1326 0.959 1_556 S
C1342 H1327 0.959 . S
C1342 H1328 0.961 . S
C1342 C1341 1.515 . S
C1343 H1329 0.960 . S
C1343 H1330 0.961 . S
C1343 H1331 0.959 . S
C1343 C1341 1.599 . S
C1344 C1341 1.504 1_554 S
C1344 C1345 1.396 . S
C1344 C1349 1.390 . S
C1345 C1339 1.465 . S
C1345 C1344 1.396 . S
C1345 C1346 1.399 . S
C1346 H1332 0.929 . S
C1346 C1345 1.399 . S
C1346 C1347 1.385 . S
C1347 H1333 0.931 . S
C1347 C1346 1.385 . S
C1347 C1348 1.389 . S
C1348 C1347 1.389 . S
C1348 C1349 1.387 . S
C1349 H1334 0.930 1_554 S
C1349 C1344 1.390 . S
C1349 C1348 1.387 . S
H1350 C1362 0.930 . S
H1351 C1364 0.930 1_554 S
H1352 C1365 0.930 . S
H1353 C1369 0.959 . S
H1354 C1369 0.959 . S
H1355 C1369 0.961 . S
H1356 C1370 0.960 . S
H1357 C1370 0.961 . S
H1358 C1370 0.959 . S
H1359 C1373 0.929 . S
H1360 C1374 0.931 . S
H1361 C1376 0.930 . S
C1362 H1350 0.930 . S
C1362 C1363 1.399 . S
C1362 C1367 1.399 . S
C1363 C1362 1.399 . S
C1363 C1364 1.376 . S
C1364 H1351 0.930 1_556 S
C1364 C1363 1.376 . S
C1364 C1365 1.388 1_556 S
C1365 H1352 0.930 . S
C1365 C1364 1.388 1_554 S
C1365 C1366 1.390 1_554 S
C1366 C1365 1.390 1_556 S
C1366 C1367 1.394 . S
C1366 C1372 1.465 . S
C1367 C1362 1.399 . S
C1367 C1366 1.394 . S
C1367 C1368 1.516 . S
C1368 C1367 1.516 . S
C1368 C1369 1.502 . S
C1368 C1370 1.561 . S
C1368 C1371 1.526 . S
C1369 H1353 0.959 . S
C1369 H1354 0.959 . S
C1369 H1355 0.961 . S
C1369 C1368 1.502 . S
C1370 H1356 0.960 . S
C1370 H1357 0.961 . S
C1370 H1358 0.959 . S
C1370 C1368 1.561 . S
C1371 C1368 1.526 . S
C1371 C1372 1.396 . S
C1371 C1376 1.390 . S
C1372 C1366 1.465 . S
C1372 C1371 1.396 . S
C1372 C1373 1.399 1_556 S
C1373 H1359 0.929 . S
C1373 C1372 1.399 1_554 S
C1373 C1374 1.385 . S
C1374 H1360 0.931 . S
C1374 C1373 1.385 . S
C1374 C1375 1.389 1_554 S
C1375 C1374 1.389 1_556 S
C1375 C1376 1.387 . S
C1376 H1361 0.930 . S
C1376 C1371 1.390 . S
C1376 C1375 1.387 . S
H1377 C1389 0.930 . S
H1378 C1391 0.930 . S
H1379 C1392 0.930 . S
H1380 C1396 0.959 . S
H1381 C1396 0.959 . S
H1382 C1396 0.961 . S
H1383 C1397 0.960 . S
H1384 C1397 0.961 . S
H1385 C1397 0.959 . S
H1386 C1400 0.929 . S
H1387 C1401 0.924 1_554 S
H1388 C1403 0.930 . S
C1389 H1377 0.930 . S
C1389 C1390 1.399 . S
C1389 C1394 1.399 . S
C1390 C1389 1.399 . S
C1390 C1391 1.376 . S
C1391 H1378 0.930 . S
C1391 C1390 1.376 . S
C1391 C1392 1.388 . S
C1392 H1379 0.930 . S
C1392 C1391 1.388 . S
C1392 C1393 1.390 . S
C1393 C1392 1.390 . S
C1393 C1394 1.394 . S
C1393 C1399 1.465 . S
C1394 C1389 1.399 . S
C1394 C1393 1.394 . S
C1394 C1395 1.516 . S
C1395 C1394 1.516 . S
C1395 C1396 1.502 . S
C1395 C1397 1.561 . S
C1395 C1398 1.526 . S
C1396 H1380 0.959 . S
C1396 H1381 0.959 . S
C1396 H1382 0.961 . S
C1396 C1395 1.502 . S
C1397 H1383 0.960 . S
C1397 H1384 0.961 . S
C1397 H1385 0.959 . S
C1397 C1395 1.561 . S
C1398 C1395 1.526 . S
C1398 C1399 1.396 . S
C1398 C1403 1.390 . S
C1399 C1393 1.465 . S
C1399 C1398 1.396 . S
C1399 C1400 1.399 . S
C1400 H1386 0.929 . S
C1400 C1399 1.399 . S
C1400 C1401 1.385 . S
C1401 H1387 0.924 1_556 S
C1401 C1400 1.385 . S
C1401 C1402 1.389 . S
C1402 C1401 1.389 . S
C1402 C1403 1.387 . S
C1403 H1388 0.930 . S
C1403 C1398 1.390 . S
C1403 C1402 1.387 . S
H1404 C1416 0.930 . S
H1405 C1418 0.909 1_554 S
H1406 C1419 0.930 . S
H1407 C1423 0.959 . S
H1408 C1423 0.959 . S
H1409 C1423 0.961 . S
H1410 C1424 0.960 . S
H1411 C1424 0.961 . S
H1412 C1424 0.959 . S
H1413 C1427 0.929 . S
H1414 C1428 0.931 . S
H1415 C1430 0.930 . S
C1416 H1404 0.930 . S
C1416 C1417 1.399 . S
C1416 C1421 1.399 . S
C1417 C1416 1.399 . S
C1417 C1418 1.410 . S
C1418 H1405 0.909 1_556 S
C1418 C1417 1.410 . S
C1418 C1419 1.377 1_556 S
C1419 H1406 0.930 . S
C1419 C1418 1.377 1_554 S
C1419 C1420 1.390 1_554 S
C1420 C1419 1.390 1_556 S
C1420 C1421 1.394 . S
C1420 C1426 1.465 . S
C1421 C1416 1.399 . S
C1421 C1420 1.394 . S
C1421 C1422 1.516 . S
C1422 C1421 1.516 . S
C1422 C1423 1.502 . S
C1422 C1424 1.561 . S
C1422 C1425 1.526 . S
C1423 H1407 0.959 . S
C1423 H1408 0.959 . S
C1423 H1409 0.961 . S
C1423 C1422 1.502 . S
C1424 H1410 0.960 . S
C1424 H1411 0.961 . S
C1424 H1412 0.959 . S
C1424 C1422 1.561 . S
C1425 C1422 1.526 . S
C1425 C1426 1.396 . S
C1425 C1430 1.390 . S
C1426 C1420 1.465 . S
C1426 C1425 1.396 . S
C1426 C1427 1.399 1_556 S
C1427 H1413 0.929 . S
C1427 C1426 1.399 1_554 S
C1427 C1428 1.385 . S
C1428 H1414 0.931 . S
C1428 C1427 1.385 . S
C1428 C1429 1.389 1_554 S
C1429 C1428 1.389 1_556 S
C1429 C1430 1.387 . S
C1430 H1415 0.930 . S
C1430 C1425 1.390 . S
C1430 C1429 1.387 . S
H1431 C1443 0.930 . S
H1432 C1445 0.930 1_554 S
H1433 C1446 0.930 . S
H1434 C1450 0.959 . S
H1435 C1450 0.959 . S
H1436 C1450 0.961 . S
H1437 C1451 0.960 . S
H1438 C1451 0.961 . S
H1439 C1451 0.959 . S
H1440 C1454 0.929 . S
H1441 C1455 0.931 . S
H1442 C1457 0.930 . S
C1443 H1431 0.930 . S
C1443 C1444 1.399 . S
C1443 C1448 1.399 . S
C1444 C1443 1.399 . S
C1444 C1445 1.376 . S
C1445 H1432 0.930 1_556 S
C1445 C1444 1.376 . S
C1445 C1446 1.388 1_556 S
C1446 H1433 0.930 . S
C1446 C1445 1.388 1_554 S
C1446 C1447 1.390 1_554 S
C1447 C1446 1.390 1_556 S
C1447 C1448 1.394 . S
C1447 C1453 1.465 . S
C1448 C1443 1.399 . S
C1448 C1447 1.394 . S
C1448 C1449 1.516 . S
C1449 C1448 1.516 . S
C1449 C1450 1.502 . S
C1449 C1451 1.561 . S
C1449 C1452 1.526 . S
C1450 H1434 0.959 . S
C1450 H1435 0.959 . S
C1450 H1436 0.961 . S
C1450 C1449 1.502 . S
C1451 H1437 0.960 . S
C1451 H1438 0.961 . S
C1451 H1439 0.959 . S
C1451 C1449 1.561 . S
C1452 C1449 1.526 . S
C1452 C1453 1.396 . S
C1452 C1457 1.390 . S
C1453 C1447 1.465 . S
C1453 C1452 1.396 . S
C1453 C1454 1.399 1_556 S
C1454 H1440 0.929 . S
C1454 C1453 1.399 1_554 S
C1454 C1455 1.385 . S
C1455 H1441 0.931 . S
C1455 C1454 1.385 . S
C1455 C1456 1.389 1_554 S
C1456 C1455 1.389 1_556 S
C1456 C1457 1.387 . S
C1457 H1442 0.930 . S
C1457 C1452 1.390 . S
C1457 C1456 1.387 . S
H1458 C1470 0.963 . S
H1459 C1472 0.930 . S
H1460 C1473 0.930 . S
H1461 C1477 0.959 1_556 S
H1462 C1477 0.959 . S
H1463 C1477 0.961 . S
H1464 C1478 0.960 . S
H1465 C1478 0.961 . S
H1466 C1478 0.959 . S
H1467 C1481 0.929 . S
H1468 C1482 0.931 . S
H1469 C1484 0.930 . S
C1470 H1458 0.963 . S
C1470 C1471 1.399 . S
C1470 C1475 1.399 . S
C1471 C1470 1.399 . S
C1471 C1472 1.376 . S
C1472 H1459 0.930 . S
C1472 C1471 1.376 . S
C1472 C1473 1.388 . S
C1473 H1460 0.930 . S
C1473 C1472 1.388 . S
C1473 C1474 1.390 . S
C1474 C1473 1.390 . S
C1474 C1475 1.394 . S
C1474 C1480 1.465 . S
C1475 C1470 1.399 . S
C1475 C1474 1.394 . S
C1475 C1476 1.516 1_556 S
C1476 C1475 1.516 1_554 S
C1476 C1477 1.502 . S
C1476 C1478 1.561 . S
C1476 C1479 1.526 1_554 S
C1477 H1461 0.959 1_554 S
C1477 H1462 0.959 . S
C1477 H1463 0.961 . S
C1477 C1476 1.502 . S
C1478 H1464 0.960 . S
C1478 H1465 0.961 . S
C1478 H1466 0.959 . S
C1478 C1476 1.561 . S
C1479 C1476 1.526 1_556 S
C1479 C1480 1.396 . S
C1479 C1484 1.390 1_556 S
C1480 C1474 1.465 . S
C1480 C1479 1.396 . S
C1480 C1481 1.399 . S
C1481 H1467 0.929 . S
C1481 C1480 1.399 . S
C1481 C1482 1.385 . S
C1482 H1468 0.931 . S
C1482 C1481 1.385 . S
C1482 C1483 1.389 . S
C1483 C1482 1.389 . S
C1483 C1484 1.387 1_556 S
C1484 H1469 0.930 . S
C1484 C1479 1.390 1_554 S
C1484 C1483 1.387 1_554 S
H1485 C1497 0.930 1_554 S
H1486 C1499 0.930 . S
H1487 C1500 0.930 . S
H1488 C1504 0.959 1_556 S
H1489 C1504 0.959 . S
H1490 C1504 0.961 . S
H1491 C1505 0.960 . S
H1492 C1505 0.961 . S
H1493 C1505 0.959 . S
H1494 C1508 0.929 . S
H1495 C1509 0.931 . S
H1496 C1511 0.930 . S
C1497 H1485 0.930 1_556 S
C1497 C1498 1.399 . S
C1497 C1502 1.399 . S
C1498 C1497 1.399 . S
C1498 C1499 1.376 . S
C1499 H1486 0.930 . S
C1499 C1498 1.376 . S
C1499 C1500 1.388 . S
C1500 H1487 0.930 . S
C1500 C1499 1.388 . S
C1500 C1501 1.390 . S
C1501 C1500 1.390 . S
C1501 C1502 1.394 . S
C1501 C1507 1.465 . S
C1502 C1497 1.399 . S
C1502 C1501 1.394 . S
C1502 C1503 1.516 1_556 S
C1503 C1502 1.516 1_554 S
C1503 C1504 1.502 . S
C1503 C1505 1.561 . S
C1503 C1506 1.526 1_554 S
C1504 H1488 0.959 1_554 S
C1504 H1489 0.959 . S
C1504 H1490 0.961 . S
C1504 C1503 1.502 . S
C1505 H1491 0.960 . S
C1505 H1492 0.961 . S
C1505 H1493 0.959 . S
C1505 C1503 1.561 . S
C1506 C1503 1.526 1_556 S
C1506 C1507 1.396 . S
C1506 C1511 1.390 1_556 S
C1507 C1501 1.465 . S
C1507 C1506 1.396 . S
C1507 C1508 1.399 . S
C1508 H1494 0.929 . S
C1508 C1507 1.399 . S
C1508 C1509 1.385 . S
C1509 H1495 0.931 . S
C1509 C1508 1.385 . S
C1509 C1510 1.389 . S
C1510 C1509 1.389 . S
C1510 C1511 1.387 1_556 S
C1511 H1496 0.930 . S
C1511 C1506 1.390 1_554 S
C1511 C1510 1.387 1_554 S
H1512 C1524 0.930 . S
H1513 C1526 0.930 . S
H1514 C1527 0.930 . S
H1515 C1531 0.959 . S
H1516 C1531 0.959 1_556 S
H1517 C1531 0.961 . S
H1518 C1532 0.960 . S
H1519 C1532 0.961 . S
H1520 C1532 0.959 . S
H1521 C1535 0.929 . S
H1522 C1536 0.931 . S
H1523 C1538 0.930 1_556 S
C1524 H1512 0.930 . S
C1524 C1525 1.399 . S
C1524 C1529 1.399 . S
C1525 C1524 1.399 . S
C1525 C1526 1.376 . S
C1526 H1513 0.930 . S
C1526 C1525 1.376 . S
C1526 C1527 1.388 . S
C1527 H1514 0.930 . S
C1527 C1526 1.388 . S
C1527 C1528 1.390 . S
C1528 C1527 1.390 . S
C1528 C1529 1.394 . S
C1528 C1534 1.465 . S
C1529 C1524 1.399 . S
C1529 C1528 1.394 . S
C1529 C1530 1.516 . S
C1530 C1529 1.516 . S
C1530 C1531 1.502 . S
C1530 C1532 1.561 1_554 S
C1530 C1533 1.526 . S
C1531 H1515 0.959 . S
C1531 H1516 0.959 1_554 S
C1531 H1517 0.961 . S
C1531 C1530 1.502 . S
C1532 H1518 0.960 . S
C1532 H1519 0.961 . S
C1532 H1520 0.959 . S
C1532 C1530 1.561 1_556 S
C1533 C1530 1.526 . S
C1533 C1534 1.396 . S
C1533 C1538 1.390 . S
C1534 C1528 1.465 . S
C1534 C1533 1.396 . S
C1534 C1535 1.399 . S
C1535 H1521 0.929 . S
C1535 C1534 1.399 . S
C1535 C1536 1.385 . S
C1536 H1522 0.931 . S
C1536 C1535 1.385 . S
C1536 C1537 1.389 . S
C1537 C1536 1.389 . S
C1537 C1538 1.387 . S
C1538 H1523 0.930 1_554 S
C1538 C1533 1.390 . S
C1538 C1537 1.387 . S
H1539 C1551 0.930 . S
H1540 C1553 0.930 . S
H1541 C1554 0.930 . S
H1542 C1558 0.959 . S
H1543 C1558 0.959 . S
H1544 C1558 0.961 . S
H1545 C1559 0.960 . S
H1546 C1559 0.961 . S
H1547 C1559 0.959 . S
H1548 C1562 0.929 . S
H1549 C1563 0.931 . S
H1550 C1565 0.930 . S
C1551 H1539 0.930 . S
C1551 C1552 1.399 . S
C1551 C1556 1.399 . S
C1552 C1551 1.399 . S
C1552 C1553 1.376 . S
C1553 H1540 0.930 . S
C1553 C1552 1.376 . S
C1553 C1554 1.388 . S
C1554 H1541 0.930 . S
C1554 C1553 1.388 . S
C1554 C1555 1.390 . S
C1555 C1554 1.390 . S
C1555 C1556 1.394 . S
C1555 C1561 1.465 . S
C1556 C1551 1.399 . S
C1556 C1555 1.394 . S
C1556 C1557 1.516 . S
C1557 C1556 1.516 . S
C1557 C1558 1.502 . S
C1557 C1559 1.561 . S
C1557 C1560 1.526 . S
C1558 H1542 0.959 . S
C1558 H1543 0.959 . S
C1558 H1544 0.961 . S
C1558 C1557 1.502 . S
C1559 H1545 0.960 . S
C1559 H1546 0.961 . S
C1559 H1547 0.959 . S
C1559 C1557 1.561 . S
C1560 C1557 1.526 . S
C1560 C1561 1.396 . S
C1560 C1565 1.390 . S
C1561 C1555 1.465 . S
C1561 C1560 1.396 . S
C1561 C1562 1.399 . S
C1562 H1548 0.929 . S
C1562 C1561 1.399 . S
C1562 C1563 1.385 . S
C1563 H1549 0.931 . S
C1563 C1562 1.385 . S
C1563 C1564 1.389 . S
C1564 C1563 1.389 . S
C1564 C1565 1.387 . S
C1565 H1550 0.930 . S
C1565 C1560 1.390 . S
C1565 C1564 1.387 . S
H1566 C1578 0.977 . S
H1567 C1580 0.930 . S
H1568 C1581 0.930 . S
H1569 C1585 0.959 . S
H1570 C1585 0.959 . S
H1571 C1585 0.961 . S
H1572 C1586 0.960 . S
H1573 C1586 0.961 . S
H1574 C1586 0.959 . S
H1575 C1589 0.929 . S
H1576 C1590 0.931 . S
H1577 C1592 0.929 1_556 S
C1578 H1566 0.977 . S
C1578 C1579 1.399 . S
C1578 C1583 1.399 . S
C1579 C1578 1.399 . S
C1579 C1580 1.376 . S
C1580 H1567 0.930 . S
C1580 C1579 1.376 . S
C1580 C1581 1.388 . S
C1581 H1568 0.930 . S
C1581 C1580 1.388 . S
C1581 C1582 1.390 . S
C1582 C1581 1.390 . S
C1582 C1583 1.394 . S
C1582 C1588 1.465 . S
C1583 C1578 1.399 . S
C1583 C1582 1.394 . S
C1583 C1584 1.516 1_554 S
C1584 C1583 1.516 1_556 S
C1584 C1585 1.502 . S
C1584 C1586 1.561 . S
C1584 C1587 1.526 1_556 S
C1585 H1569 0.959 . S
C1585 H1570 0.959 . S
C1585 H1571 0.961 . S
C1585 C1584 1.502 . S
C1586 H1572 0.960 . S
C1586 H1573 0.961 . S
C1586 H1574 0.959 . S
C1586 C1584 1.561 . S
C1587 C1584 1.526 1_554 S
C1587 C1588 1.396 . S
C1587 C1592 1.390 . S
C1588 C1582 1.465 . S
C1588 C1587 1.396 . S
C1588 C1589 1.399 . S
C1589 H1575 0.929 . S
C1589 C1588 1.399 . S
C1589 C1590 1.385 . S
C1590 H1576 0.931 . S
C1590 C1589 1.385 . S
C1590 C1591 1.389 . S
C1591 C1590 1.389 . S
C1591 C1592 1.387 . S
C1592 H1577 0.929 1_554 S
C1592 C1587 1.390 . S
C1592 C1591 1.387 . S
H1593 C1605 0.930 . S
H1594 C1607 0.930 . S
H1595 C1608 0.930 . S
H1596 C1612 0.959 . S
H1597 C1612 0.959 . S
H1598 C1612 0.961 . S
H1599 C1613 0.960 . S
H1600 C1613 0.961 . S
H1601 C1613 0.959 . S
H1602 C1616 0.929 . S
H1603 C1617 0.931 . S
H1604 C1619 0.930 . S
C1605 H1593 0.930 . S
C1605 C1606 1.399 . S
C1605 C1610 1.399 1_655 S
C1606 C1605 1.399 . S
C1606 C1607 1.376 . S
C1607 H1594 0.930 . S
C1607 C1606 1.376 . S
C1607 C1608 1.388 1_655 S
C1608 H1595 0.930 . S
C1608 C1607 1.388 1_455 S
C1608 C1609 1.390 . S
C1609 C1608 1.390 . S
C1609 C1610 1.394 . S
C1609 C1615 1.465 . S
C1610 C1605 1.399 1_455 S
C1610 C1609 1.394 . S
C1610 C1611 1.516 . S
C1611 C1610 1.516 . S
C1611 C1612 1.502 . S
C1611 C1613 1.561 . S
C1611 C1614 1.526 . S
C1612 H1596 0.959 . S
C1612 H1597 0.959 . S
C1612 H1598 0.961 . S
C1612 C1611 1.502 . S
C1613 H1599 0.960 . S
C1613 H1600 0.961 . S
C1613 H1601 0.959 . S
C1613 C1611 1.561 . S
C1614 C1611 1.526 . S
C1614 C1615 1.396 . S
C1614 C1619 1.390 . S
C1615 C1609 1.465 . S
C1615 C1614 1.396 . S
C1615 C1616 1.399 . S
C1616 H1602 0.929 . S
C1616 C1615 1.399 . S
C1616 C1617 1.385 . S
C1617 H1603 0.931 . S
C1617 C1616 1.385 . S
C1617 C1618 1.389 . S
C1618 C1617 1.389 . S
C1618 C1619 1.387 . S
C1619 H1604 0.930 . S
C1619 C1614 1.390 . S
C1619 C1618 1.387 . S
H1620 C1632 0.930 . S
H1621 C1634 0.930 . S
H1622 C1635 0.930 . S
H1623 C1639 0.959 . S
H1624 C1639 0.959 . S
H1625 C1639 0.961 . S
H1626 C1640 0.960 . S
H1627 C1640 0.961 . S
H1628 C1640 0.959 . S
H1629 C1643 0.929 . S
H1630 C1644 0.931 . S
H1631 C1646 0.930 . S
C1632 H1620 0.930 . S
C1632 C1633 1.399 . S
C1632 C1637 1.399 . S
C1633 C1632 1.399 . S
C1633 C1634 1.376 . S
C1634 H1621 0.930 . S
C1634 C1633 1.376 . S
C1634 C1635 1.388 . S
C1635 H1622 0.930 . S
C1635 C1634 1.388 . S
C1635 C1636 1.390 . S
C1636 C1635 1.390 . S
C1636 C1637 1.394 . S
C1636 C1642 1.465 . S
C1637 C1632 1.399 . S
C1637 C1636 1.394 . S
C1637 C1638 1.516 . S
C1638 C1637 1.516 . S
C1638 C1639 1.502 . S
C1638 C1640 1.561 . S
C1638 C1641 1.526 . S
C1639 H1623 0.959 . S
C1639 H1624 0.959 . S
C1639 H1625 0.961 . S
C1639 C1638 1.502 . S
C1640 H1626 0.960 . S
C1640 H1627 0.961 . S
C1640 H1628 0.959 . S
C1640 C1638 1.561 . S
C1641 C1638 1.526 . S
C1641 C1642 1.396 . S
C1641 C1646 1.390 . S
C1642 C1636 1.465 . S
C1642 C1641 1.396 . S
C1642 C1643 1.399 . S
C1643 H1629 0.929 . S
C1643 C1642 1.399 . S
C1643 C1644 1.385 . S
C1644 H1630 0.931 . S
C1644 C1643 1.385 . S
C1644 C1645 1.389 . S
C1645 C1644 1.389 . S
C1645 C1646 1.387 . S
C1646 H1631 0.930 . S
C1646 C1641 1.390 . S
C1646 C1645 1.387 . S
H1647 C1659 0.930 . S
H1648 C1661 0.930 . S
H1649 C1662 0.930 . S
H1650 C1666 0.959 . S
H1651 C1666 0.959 . S
H1652 C1666 0.961 . S
H1653 C1667 0.960 . S
H1654 C1667 0.961 . S
H1655 C1667 0.959 . S
H1656 C1670 0.929 . S
H1657 C1671 0.931 . S
H1658 C1673 0.930 . S
C1659 H1647 0.930 . S
C1659 C1660 1.399 . S
C1659 C1664 1.399 1_545 S
C1660 C1659 1.399 . S
C1660 C1661 1.376 . S
C1661 H1648 0.930 . S
C1661 C1660 1.376 . S
C1661 C1662 1.388 1_545 S
C1662 H1649 0.930 . S
C1662 C1661 1.388 1_565 S
C1662 C1663 1.390 . S
C1663 C1662 1.390 . S
C1663 C1664 1.394 . S
C1663 C1669 1.465 . S
C1664 C1659 1.399 1_565 S
C1664 C1663 1.394 . S
C1664 C1665 1.516 . S
C1665 C1664 1.516 . S
C1665 C1666 1.502 . S
C1665 C1667 1.561 . S
C1665 C1668 1.526 . S
C1666 H1650 0.959 . S
C1666 H1651 0.959 . S
C1666 H1652 0.961 . S
C1666 C1665 1.502 . S
C1667 H1653 0.960 . S
C1667 H1654 0.961 . S
C1667 H1655 0.959 . S
C1667 C1665 1.561 . S
C1668 C1665 1.526 . S
C1668 C1669 1.396 . S
C1668 C1673 1.390 . S
C1669 C1663 1.465 . S
C1669 C1668 1.396 . S
C1669 C1670 1.399 . S
C1670 H1656 0.929 . S
C1670 C1669 1.399 . S
C1670 C1671 1.385 . S
C1671 H1657 0.931 . S
C1671 C1670 1.385 . S
C1671 C1672 1.389 . S
C1672 C1671 1.389 . S
C1672 C1673 1.387 . S
C1673 H1658 0.930 . S
C1673 C1668 1.390 . S
C1673 C1672 1.387 . S
H1674 C1686 0.930 . S
H1675 C1688 0.930 . S
H1676 C1689 0.930 . S
H1677 C1693 0.959 . S
H1678 C1693 0.959 . S
H1679 C1693 0.961 . S
H1680 C1694 0.960 . S
H1681 C1694 0.961 . S
H1682 C1694 0.959 . S
H1683 C1697 0.929 . S
H1684 C1698 0.931 . S
H1685 C1700 0.930 . S
C1686 H1674 0.930 . S
C1686 C1687 1.399 . S
C1686 C1691 1.399 . S
C1687 C1686 1.399 . S
C1687 C1688 1.376 . S
C1688 H1675 0.930 . S
C1688 C1687 1.376 . S
C1688 C1689 1.388 . S
C1689 H1676 0.930 . S
C1689 C1688 1.388 . S
C1689 C1690 1.390 . S
C1690 C1689 1.390 . S
C1690 C1691 1.394 . S
C1690 C1696 1.465 . S
C1691 C1686 1.399 . S
C1691 C1690 1.394 . S
C1691 C1692 1.516 . S
C1692 C1691 1.516 . S
C1692 C1693 1.502 . S
C1692 C1694 1.561 . S
C1692 C1695 1.526 . S
C1693 H1677 0.959 . S
C1693 H1678 0.959 . S
C1693 H1679 0.961 . S
C1693 C1692 1.502 . S
C1694 H1680 0.960 . S
C1694 H1681 0.961 . S
C1694 H1682 0.959 . S
C1694 C1692 1.561 . S
C1695 C1692 1.526 . S
C1695 C1696 1.396 . S
C1695 C1700 1.390 . S
C1696 C1690 1.465 . S
C1696 C1695 1.396 . S
C1696 C1697 1.399 . S
C1697 H1683 0.929 . S
C1697 C1696 1.399 . S
C1697 C1698 1.385 . S
C1698 H1684 0.931 . S
C1698 C1697 1.385 . S
C1698 C1699 1.389 . S
C1699 C1698 1.389 . S
C1699 C1700 1.387 . S
C1700 H1685 0.930 . S
C1700 C1695 1.390 . S
C1700 C1699 1.387 . S
H1701 C1713 0.930 . S
H1702 C1715 0.930 . S
H1703 C1716 0.930 . S
H1704 C1720 0.959 . S
H1705 C1720 0.959 . S
H1706 C1720 0.961 . S
H1707 C1721 0.960 . S
H1708 C1721 0.961 . S
H1709 C1721 0.959 . S
H1710 C1724 0.929 . S
H1711 C1725 0.931 . S
H1712 C1727 0.930 . S
C1713 H1701 0.930 . S
C1713 C1714 1.399 . S
C1713 C1718 1.399 . S
C1714 C1713 1.399 . S
C1714 C1715 1.376 . S
C1715 H1702 0.930 . S
C1715 C1714 1.376 . S
C1715 C1716 1.388 . S
C1716 H1703 0.930 . S
C1716 C1715 1.388 . S
C1716 C1717 1.390 . S
C1717 C1716 1.390 . S
C1717 C1718 1.394 . S
C1717 C1723 1.465 . S
C1718 C1713 1.399 . S
C1718 C1717 1.394 . S
C1718 C1719 1.516 . S
C1719 C1718 1.516 . S
C1719 C1720 1.502 . S
C1719 C1721 1.561 . S
C1719 C1722 1.526 . S
C1720 H1704 0.959 . S
C1720 H1705 0.959 . S
C1720 H1706 0.961 . S
C1720 C1719 1.502 . S
C1721 H1707 0.960 . S
C1721 H1708 0.961 . S
C1721 H1709 0.959 . S
C1721 C1719 1.561 . S
C1722 C1719 1.526 . S
C1722 C1723 1.396 . S
C1722 C1727 1.390 . S
C1723 C1717 1.465 . S
C1723 C1722 1.396 . S
C1723 C1724 1.399 . S
C1724 H1710 0.929 . S
C1724 C1723 1.399 . S
C1724 C1725 1.385 . S
C1725 H1711 0.931 . S
C1725 C1724 1.385 . S
C1725 C1726 1.389 . S
C1726 C1725 1.389 . S
C1726 C1727 1.387 . S
C1727 H1712 0.930 . S
C1727 C1722 1.390 . S
C1727 C1726 1.387 . S
H1728 C1740 0.930 . S
H1729 C1742 0.930 . S
H1730 C1743 0.930 . S
H1731 C1747 0.959 . S
H1732 C1747 0.959 . S
H1733 C1747 0.961 . S
H1734 C1748 0.960 . S
H1735 C1748 0.961 . S
H1736 C1748 0.959 . S
H1737 C1751 0.929 . S
H1738 C1752 0.931 . S
H1739 C1754 0.930 . S
C1740 H1728 0.930 . S
C1740 C1741 1.399 . S
C1740 C1745 1.399 . S
C1741 C1740 1.399 . S
C1741 C1742 1.376 . S
C1742 H1729 0.930 . S
C1742 C1741 1.376 . S
C1742 C1743 1.388 . S
C1743 H1730 0.930 . S
C1743 C1742 1.388 . S
C1743 C1744 1.390 . S
C1744 C1743 1.390 . S
C1744 C1745 1.394 . S
C1744 C1750 1.465 . S
C1745 C1740 1.399 . S
C1745 C1744 1.394 . S
C1745 C1746 1.516 . S
C1746 C1745 1.516 . S
C1746 C1747 1.502 . S
C1746 C1748 1.561 . S
C1746 C1749 1.526 . S
C1747 H1731 0.959 . S
C1747 H1732 0.959 . S
C1747 H1733 0.961 . S
C1747 C1746 1.502 . S
C1748 H1734 0.960 . S
C1748 H1735 0.961 . S
C1748 H1736 0.959 . S
C1748 C1746 1.561 . S
C1749 C1746 1.526 . S
C1749 C1750 1.396 . S
C1749 C1754 1.390 . S
C1750 C1744 1.465 . S
C1750 C1749 1.396 . S
C1750 C1751 1.399 . S
C1751 H1737 0.929 . S
C1751 C1750 1.399 . S
C1751 C1752 1.385 . S
C1752 H1738 0.931 . S
C1752 C1751 1.385 . S
C1752 C1753 1.389 . S
C1753 C1752 1.389 . S
C1753 C1754 1.387 . S
C1754 H1739 0.930 . S
C1754 C1749 1.390 . S
C1754 C1753 1.387 . S
H1755 C1767 0.930 . S
H1756 C1769 0.930 . S
H1757 C1770 0.930 . S
H1758 C1774 0.959 . S
H1759 C1774 0.959 . S
H1760 C1774 0.961 . S
H1761 C1775 0.960 . S
H1762 C1775 0.961 . S
H1763 C1775 0.959 . S
H1764 C1778 0.929 . S
H1765 C1779 0.931 . S
H1766 C1781 0.930 . S
C1767 H1755 0.930 . S
C1767 C1768 1.399 . S
C1767 C1772 1.399 . S
C1768 C1767 1.399 . S
C1768 C1769 1.376 . S
C1769 H1756 0.930 . S
C1769 C1768 1.376 . S
C1769 C1770 1.388 . S
C1770 H1757 0.930 . S
C1770 C1769 1.388 . S
C1770 C1771 1.390 . S
C1771 C1770 1.390 . S
C1771 C1772 1.394 . S
C1771 C1777 1.465 . S
C1772 C1767 1.399 . S
C1772 C1771 1.394 . S
C1772 C1773 1.516 . S
C1773 C1772 1.516 . S
C1773 C1774 1.502 . S
C1773 C1775 1.561 . S
C1773 C1776 1.526 . S
C1774 H1758 0.959 . S
C1774 H1759 0.959 . S
C1774 H1760 0.961 . S
C1774 C1773 1.502 . S
C1775 H1761 0.960 . S
C1775 H1762 0.961 . S
C1775 H1763 0.959 . S
C1775 C1773 1.561 . S
C1776 C1773 1.526 . S
C1776 C1777 1.396 . S
C1776 C1781 1.390 . S
C1777 C1771 1.465 . S
C1777 C1776 1.396 . S
C1777 C1778 1.399 . S
C1778 H1764 0.929 . S
C1778 C1777 1.399 . S
C1778 C1779 1.385 . S
C1779 H1765 0.931 . S
C1779 C1778 1.385 . S
C1779 C1780 1.389 . S
C1780 C1779 1.389 . S
C1780 C1781 1.387 . S
C1781 H1766 0.930 . S
C1781 C1776 1.390 . S
C1781 C1780 1.387 . S
H1782 C1794 0.930 . S
H1783 C1796 0.930 . S
H1784 C1797 0.930 . S
H1785 C1801 0.959 . S
H1786 C1801 0.959 . S
H1787 C1801 0.961 . S
H1788 C1802 0.960 . S
H1789 C1802 0.961 . S
H1790 C1802 0.959 . S
H1791 C1805 0.929 . S
H1792 C1806 0.931 . S
H1793 C1808 0.930 . S
C1794 H1782 0.930 . S
C1794 C1795 1.399 . S
C1794 C1799 1.399 . S
C1795 C1794 1.399 . S
C1795 C1796 1.376 . S
C1796 H1783 0.930 . S
C1796 C1795 1.376 . S
C1796 C1797 1.388 . S
C1797 H1784 0.930 . S
C1797 C1796 1.388 . S
C1797 C1798 1.390 . S
C1798 C1797 1.390 . S
C1798 C1799 1.394 . S
C1798 C1804 1.465 . S
C1799 C1794 1.399 . S
C1799 C1798 1.394 . S
C1799 C1800 1.516 . S
C1800 C1799 1.516 . S
C1800 C1801 1.502 . S
C1800 C1802 1.561 . S
C1800 C1803 1.526 . S
C1801 H1785 0.959 . S
C1801 H1786 0.959 . S
C1801 H1787 0.961 . S
C1801 C1800 1.502 . S
C1802 H1788 0.960 . S
C1802 H1789 0.961 . S
C1802 H1790 0.959 . S
C1802 C1800 1.561 . S
C1803 C1800 1.526 . S
C1803 C1804 1.396 . S
C1803 C1808 1.390 . S
C1804 C1798 1.465 . S
C1804 C1803 1.396 . S
C1804 C1805 1.399 . S
C1805 H1791 0.929 . S
C1805 C1804 1.399 . S
C1805 C1806 1.385 . S
C1806 H1792 0.931 . S
C1806 C1805 1.385 . S
C1806 C1807 1.389 . S
C1807 C1806 1.389 . S
C1807 C1808 1.387 . S
C1808 H1793 0.930 . S
C1808 C1803 1.390 . S
C1808 C1807 1.387 . S
H1809 C1821 0.930 . S
H1810 C1823 0.930 . S
H1811 C1824 0.930 . S
H1812 C1828 0.959 . S
H1813 C1828 0.959 . S
H1814 C1828 0.961 . S
H1815 C1829 0.960 . S
H1816 C1829 0.961 . S
H1817 C1829 0.959 . S
H1818 C1832 0.929 . S
H1819 C1833 0.931 . S
H1820 C1835 0.930 . S
C1821 H1809 0.930 . S
C1821 C1822 1.399 . S
C1821 C1826 1.399 . S
C1822 C1821 1.399 . S
C1822 C1823 1.376 . S
C1823 H1810 0.930 . S
C1823 C1822 1.376 . S
C1823 C1824 1.388 . S
C1824 H1811 0.930 . S
C1824 C1823 1.388 . S
C1824 C1825 1.390 . S
C1825 C1824 1.390 . S
C1825 C1826 1.394 . S
C1825 C1831 1.465 . S
C1826 C1821 1.399 . S
C1826 C1825 1.394 . S
C1826 C1827 1.516 . S
C1827 C1826 1.516 . S
C1827 C1828 1.502 . S
C1827 C1829 1.561 . S
C1827 C1830 1.526 . S
C1828 H1812 0.959 . S
C1828 H1813 0.959 . S
C1828 H1814 0.961 . S
C1828 C1827 1.502 . S
C1829 H1815 0.960 . S
C1829 H1816 0.961 . S
C1829 H1817 0.959 . S
C1829 C1827 1.561 . S
C1830 C1827 1.526 . S
C1830 C1831 1.396 . S
C1830 C1835 1.390 . S
C1831 C1825 1.465 . S
C1831 C1830 1.396 . S
C1831 C1832 1.399 . S
C1832 H1818 0.929 . S
C1832 C1831 1.399 . S
C1832 C1833 1.385 . S
C1833 H1819 0.931 . S
C1833 C1832 1.385 . S
C1833 C1834 1.389 . S
C1834 C1833 1.389 . S
C1834 C1835 1.387 . S
C1835 H1820 0.930 . S
C1835 C1830 1.390 . S
C1835 C1834 1.387 . S
H1836 C1848 0.930 . S
H1837 C1850 0.930 . S
H1838 C1851 0.930 . S
H1839 C1855 0.959 . S
H1840 C1855 0.959 . S
H1841 C1855 0.961 . S
H1842 C1856 0.960 . S
H1843 C1856 0.961 . S
H1844 C1856 0.959 . S
H1845 C1859 0.929 . S
H1846 C1860 0.931 . S
H1847 C1862 0.930 . S
C1848 H1836 0.930 . S
C1848 C1849 1.399 . S
C1848 C1853 1.399 1_545 S
C1849 C1848 1.399 . S
C1849 C1850 1.376 . S
C1850 H1837 0.930 . S
C1850 C1849 1.376 . S
C1850 C1851 1.388 1_545 S
C1851 H1838 0.930 . S
C1851 C1850 1.388 1_565 S
C1851 C1852 1.390 . S
C1852 C1851 1.390 . S
C1852 C1853 1.394 . S
C1852 C1858 1.465 . S
C1853 C1848 1.399 1_565 S
C1853 C1852 1.394 . S
C1853 C1854 1.516 . S
C1854 C1853 1.516 . S
C1854 C1855 1.502 . S
C1854 C1856 1.561 . S
C1854 C1857 1.526 . S
C1855 H1839 0.959 . S
C1855 H1840 0.959 . S
C1855 H1841 0.961 . S
C1855 C1854 1.502 . S
C1856 H1842 0.960 . S
C1856 H1843 0.961 . S
C1856 H1844 0.959 . S
C1856 C1854 1.561 . S
C1857 C1854 1.526 . S
C1857 C1858 1.396 . S
C1857 C1862 1.390 . S
C1858 C1852 1.465 . S
C1858 C1857 1.396 . S
C1858 C1859 1.399 . S
C1859 H1845 0.929 . S
C1859 C1858 1.399 . S
C1859 C1860 1.385 . S
C1860 H1846 0.931 . S
C1860 C1859 1.385 . S
C1860 C1861 1.389 . S
C1861 C1860 1.389 . S
C1861 C1862 1.387 . S
C1862 H1847 0.930 . S
C1862 C1857 1.390 . S
C1862 C1861 1.387 . S
H1863 C1875 0.930 . S
H1864 C1877 0.930 . S
H1865 C1878 0.930 . S
H1866 C1882 0.959 . S
H1867 C1882 0.959 . S
H1868 C1882 0.961 . S
H1869 C1883 0.960 . S
H1870 C1883 0.961 . S
H1871 C1883 0.959 . S
H1872 C1886 0.929 . S
H1873 C1887 0.931 . S
H1874 C1889 0.930 . S
C1875 H1863 0.930 . S
C1875 C1876 1.399 . S
C1875 C1880 1.399 1_655 S
C1876 C1875 1.399 . S
C1876 C1877 1.376 . S
C1877 H1864 0.930 . S
C1877 C1876 1.376 . S
C1877 C1878 1.388 1_655 S
C1878 H1865 0.930 . S
C1878 C1877 1.388 1_455 S
C1878 C1879 1.390 . S
C1879 C1878 1.390 . S
C1879 C1880 1.394 . S
C1879 C1885 1.465 . S
C1880 C1875 1.399 1_455 S
C1880 C1879 1.394 . S
C1880 C1881 1.516 . S
C1881 C1880 1.516 . S
C1881 C1882 1.502 . S
C1881 C1883 1.561 . S
C1881 C1884 1.526 . S
C1882 H1866 0.959 . S
C1882 H1867 0.959 . S
C1882 H1868 0.961 . S
C1882 C1881 1.502 . S
C1883 H1869 0.960 . S
C1883 H1870 0.961 . S
C1883 H1871 0.959 . S
C1883 C1881 1.561 . S
C1884 C1881 1.526 . S
C1884 C1885 1.396 . S
C1884 C1889 1.390 . S
C1885 C1879 1.465 . S
C1885 C1884 1.396 . S
C1885 C1886 1.399 . S
C1886 H1872 0.929 . S
C1886 C1885 1.399 . S
C1886 C1887 1.385 . S
C1887 H1873 0.931 . S
C1887 C1886 1.385 . S
C1887 C1888 1.389 . S
C1888 C1887 1.389 . S
C1888 C1889 1.387 . S
C1889 H1874 0.930 . S
C1889 C1884 1.390 . S
C1889 C1888 1.387 . S
H1890 C1902 0.930 . S
H1891 C1904 0.930 . S
H1892 C1905 0.930 . S
H1893 C1909 0.959 . S
H1894 C1909 0.959 . S
H1895 C1909 0.961 . S
H1896 C1910 0.960 . S
H1897 C1910 0.961 . S
H1898 C1910 0.959 . S
H1899 C1913 0.929 . S
H1900 C1914 0.931 . S
H1901 C1916 0.930 . S
C1902 H1890 0.930 . S
C1902 C1903 1.399 . S
C1902 C1907 1.399 . S
C1903 C1902 1.399 . S
C1903 C1904 1.376 . S
C1904 H1891 0.930 . S
C1904 C1903 1.376 . S
C1904 C1905 1.388 . S
C1905 H1892 0.930 . S
C1905 C1904 1.388 . S
C1905 C1906 1.390 . S
C1906 C1905 1.390 . S
C1906 C1907 1.394 . S
C1906 C1912 1.465 . S
C1907 C1902 1.399 . S
C1907 C1906 1.394 . S
C1907 C1908 1.516 . S
C1908 C1907 1.516 . S
C1908 C1909 1.502 . S
C1908 C1910 1.561 . S
C1908 C1911 1.526 . S
C1909 H1893 0.959 . S
C1909 H1894 0.959 . S
C1909 H1895 0.961 . S
C1909 C1908 1.502 . S
C1910 H1896 0.960 . S
C1910 H1897 0.961 . S
C1910 H1898 0.959 . S
C1910 C1908 1.561 . S
C1911 C1908 1.526 . S
C1911 C1912 1.396 . S
C1911 C1916 1.390 . S
C1912 C1906 1.465 . S
C1912 C1911 1.396 . S
C1912 C1913 1.399 . S
C1913 H1899 0.929 . S
C1913 C1912 1.399 . S
C1913 C1914 1.385 . S
C1914 H1900 0.931 . S
C1914 C1913 1.385 . S
C1914 C1915 1.389 . S
C1915 C1914 1.389 . S
C1915 C1916 1.387 . S
C1916 H1901 0.930 . S
C1916 C1911 1.390 . S
C1916 C1915 1.387 . S
H1917 C1929 0.930 . S
H1918 C1931 0.930 . S
H1919 C1932 0.930 . S
H1920 C1936 0.959 . S
H1921 C1936 0.959 . S
H1922 C1936 0.961 . S
H1923 C1937 0.960 . S
H1924 C1937 0.961 . S
H1925 C1937 0.959 . S
H1926 C1940 0.929 . S
H1927 C1941 0.931 . S
H1928 C1943 0.930 . S
C1929 H1917 0.930 . S
C1929 C1930 1.399 . S
C1929 C1934 1.399 . S
C1930 C1929 1.399 . S
C1930 C1931 1.376 . S
C1931 H1918 0.930 . S
C1931 C1930 1.376 . S
C1931 C1932 1.388 . S
C1932 H1919 0.930 . S
C1932 C1931 1.388 . S
C1932 C1933 1.390 . S
C1933 C1932 1.390 . S
C1933 C1934 1.394 . S
C1933 C1939 1.465 . S
C1934 C1929 1.399 . S
C1934 C1933 1.394 . S
C1934 C1935 1.516 . S
C1935 C1934 1.516 . S
C1935 C1936 1.502 . S
C1935 C1937 1.561 . S
C1935 C1938 1.526 . S
C1936 H1920 0.959 . S
C1936 H1921 0.959 . S
C1936 H1922 0.961 . S
C1936 C1935 1.502 . S
C1937 H1923 0.960 . S
C1937 H1924 0.961 . S
C1937 H1925 0.959 . S
C1937 C1935 1.561 . S
C1938 C1935 1.526 . S
C1938 C1939 1.396 . S
C1938 C1943 1.390 . S
C1939 C1933 1.465 . S
C1939 C1938 1.396 . S
C1939 C1940 1.399 . S
C1940 H1926 0.929 . S
C1940 C1939 1.399 . S
C1940 C1941 1.385 . S
C1941 H1927 0.931 . S
C1941 C1940 1.385 . S
C1941 C1942 1.389 . S
C1942 C1941 1.389 . S
C1942 C1943 1.387 . S
C1943 H1928 0.930 . S
C1943 C1938 1.390 . S
C1943 C1942 1.387 . S
H1944 C1956 0.930 . S
H1945 C1958 0.930 . S
H1946 C1959 0.930 . S
H1947 C1963 0.959 . S
H1948 C1963 0.959 . S
H1949 C1963 0.961 . S
H1950 C1964 0.960 . S
H1951 C1964 0.961 . S
H1952 C1964 0.959 . S
H1953 C1967 0.929 . S
H1954 C1968 0.931 . S
H1955 C1970 0.930 . S
C1956 H1944 0.930 . S
C1956 C1957 1.399 . S
C1956 C1961 1.399 . S
C1957 C1956 1.399 . S
C1957 C1958 1.376 . S
C1958 H1945 0.930 . S
C1958 C1957 1.376 . S
C1958 C1959 1.388 . S
C1959 H1946 0.930 . S
C1959 C1958 1.388 . S
C1959 C1960 1.390 . S
C1960 C1959 1.390 . S
C1960 C1961 1.394 . S
C1960 C1966 1.465 . S
C1961 C1956 1.399 . S
C1961 C1960 1.394 . S
C1961 C1962 1.516 . S
C1962 C1961 1.516 . S
C1962 C1963 1.502 . S
C1962 C1964 1.561 . S
C1962 C1965 1.526 . S
C1963 H1947 0.959 . S
C1963 H1948 0.959 . S
C1963 H1949 0.961 . S
C1963 C1962 1.502 . S
C1964 H1950 0.960 . S
C1964 H1951 0.961 . S
C1964 H1952 0.959 . S
C1964 C1962 1.561 . S
C1965 C1962 1.526 . S
C1965 C1966 1.396 . S
C1965 C1970 1.390 . S
C1966 C1960 1.465 . S
C1966 C1965 1.396 . S
C1966 C1967 1.399 . S
C1967 H1953 0.929 . S
C1967 C1966 1.399 . S
C1967 C1968 1.385 . S
C1968 H1954 0.931 . S
C1968 C1967 1.385 . S
C1968 C1969 1.389 . S
C1969 C1968 1.389 . S
C1969 C1970 1.387 . S
C1970 H1955 0.930 . S
C1970 C1965 1.390 . S
C1970 C1969 1.387 . S
H1971 C1983 0.930 . S
H1972 C1985 0.930 . S
H1973 C1986 0.930 . S
H1974 C1990 0.959 . S
H1975 C1990 0.959 . S
H1976 C1990 0.961 . S
H1977 C1991 0.960 . S
H1978 C1991 0.961 . S
H1979 C1991 0.959 . S
H1980 C1994 0.929 . S
H1981 C1995 0.931 . S
H1982 C1997 0.930 . S
C1983 H1971 0.930 . S
C1983 C1984 1.399 . S
C1983 C1988 1.399 . S
C1984 C1983 1.399 . S
C1984 C1985 1.376 . S
C1985 H1972 0.930 . S
C1985 C1984 1.376 . S
C1985 C1986 1.388 . S
C1986 H1973 0.930 . S
C1986 C1985 1.388 . S
C1986 C1987 1.390 . S
C1987 C1986 1.390 . S
C1987 C1988 1.394 . S
C1987 C1993 1.465 . S
C1988 C1983 1.399 . S
C1988 C1987 1.394 . S
C1988 C1989 1.516 . S
C1989 C1988 1.516 . S
C1989 C1990 1.502 . S
C1989 C1991 1.561 . S
C1989 C1992 1.526 . S
C1990 H1974 0.959 . S
C1990 H1975 0.959 . S
C1990 H1976 0.961 . S
C1990 C1989 1.502 . S
C1991 H1977 0.960 . S
C1991 H1978 0.961 . S
C1991 H1979 0.959 . S
C1991 C1989 1.561 . S
C1992 C1989 1.526 . S
C1992 C1993 1.396 . S
C1992 C1997 1.390 . S
C1993 C1987 1.465 . S
C1993 C1992 1.396 . S
C1993 C1994 1.399 . S
C1994 H1980 0.929 . S
C1994 C1993 1.399 . S
C1994 C1995 1.385 . S
C1995 H1981 0.931 . S
C1995 C1994 1.385 . S
C1995 C1996 1.389 . S
C1996 C1995 1.389 . S
C1996 C1997 1.387 . S
C1997 H1982 0.930 . S
C1997 C1992 1.390 . S
C1997 C1996 1.387 . S
H1998 C2010 0.930 . S
H1999 C2012 0.930 . S
H2000 C2013 0.930 . S
H2001 C2017 0.959 . S
H2002 C2017 0.959 . S
H2003 C2017 0.961 . S
H2004 C2018 0.960 . S
H2005 C2018 0.961 . S
H2006 C2018 0.959 . S
H2007 C2021 0.929 . S
H2008 C2022 0.931 . S
H2009 C2024 0.930 . S
C2010 H1998 0.930 . S
C2010 C2011 1.399 . S
C2010 C2015 1.399 1_565 S
C2011 C2010 1.399 . S
C2011 C2012 1.376 . S
C2012 H1999 0.930 . S
C2012 C2011 1.376 . S
C2012 C2013 1.388 1_565 S
C2013 H2000 0.930 . S
C2013 C2012 1.388 1_545 S
C2013 C2014 1.390 . S
C2014 C2013 1.390 . S
C2014 C2015 1.394 . S
C2014 C2020 1.465 . S
C2015 C2010 1.399 1_545 S
C2015 C2014 1.394 . S
C2015 C2016 1.516 . S
C2016 C2015 1.516 . S
C2016 C2017 1.502 . S
C2016 C2018 1.561 . S
C2016 C2019 1.526 . S
C2017 H2001 0.959 . S
C2017 H2002 0.959 . S
C2017 H2003 0.961 . S
C2017 C2016 1.502 . S
C2018 H2004 0.960 . S
C2018 H2005 0.961 . S
C2018 H2006 0.959 . S
C2018 C2016 1.561 . S
C2019 C2016 1.526 . S
C2019 C2020 1.396 . S
C2019 C2024 1.390 . S
C2020 C2014 1.465 . S
C2020 C2019 1.396 . S
C2020 C2021 1.399 . S
C2021 H2007 0.929 . S
C2021 C2020 1.399 . S
C2021 C2022 1.385 . S
C2022 H2008 0.931 . S
C2022 C2021 1.385 . S
C2022 C2023 1.389 . S
C2023 C2022 1.389 . S
C2023 C2024 1.387 . S
C2024 H2009 0.930 . S
C2024 C2019 1.390 . S
C2024 C2023 1.387 . S
H2025 C2037 0.930 . S
H2026 C2039 0.930 . S
H2027 C2040 0.930 . S
H2028 C2044 0.959 . S
H2029 C2044 0.959 . S
H2030 C2044 0.961 . S
H2031 C2045 0.960 . S
H2032 C2045 0.961 . S
H2033 C2045 0.959 . S
H2034 C2048 0.929 . S
H2035 C2049 0.931 . S
H2036 C2051 0.930 . S
C2037 H2025 0.930 . S
C2037 C2038 1.399 . S
C2037 C2042 1.399 1_455 S
C2038 C2037 1.399 . S
C2038 C2039 1.376 . S
C2039 H2026 0.930 . S
C2039 C2038 1.376 . S
C2039 C2040 1.388 1_455 S
C2040 H2027 0.930 . S
C2040 C2039 1.388 1_655 S
C2040 C2041 1.390 . S
C2041 C2040 1.390 . S
C2041 C2042 1.394 . S
C2041 C2047 1.465 . S
C2042 C2037 1.399 1_655 S
C2042 C2041 1.394 . S
C2042 C2043 1.516 . S
C2043 C2042 1.516 . S
C2043 C2044 1.502 . S
C2043 C2045 1.561 . S
C2043 C2046 1.526 . S
C2044 H2028 0.959 . S
C2044 H2029 0.959 . S
C2044 H2030 0.961 . S
C2044 C2043 1.502 . S
C2045 H2031 0.960 . S
C2045 H2032 0.961 . S
C2045 H2033 0.959 . S
C2045 C2043 1.561 . S
C2046 C2043 1.526 . S
C2046 C2047 1.396 . S
C2046 C2051 1.390 . S
C2047 C2041 1.465 . S
C2047 C2046 1.396 . S
C2047 C2048 1.399 . S
C2048 H2034 0.929 . S
C2048 C2047 1.399 . S
C2048 C2049 1.385 . S
C2049 H2035 0.931 . S
C2049 C2048 1.385 . S
C2049 C2050 1.389 . S
C2050 C2049 1.389 . S
C2050 C2051 1.387 . S
C2051 H2036 0.930 . S
C2051 C2046 1.390 . S
C2051 C2050 1.387 . S
H2052 C2064 0.930 . S
H2053 C2066 0.930 . S
H2054 C2067 0.930 . S
H2055 C2071 0.959 . S
H2056 C2071 0.959 . S
H2057 C2071 0.961 . S
H2058 C2072 0.960 . S
H2059 C2072 0.961 . S
H2060 C2072 0.959 . S
H2061 C2075 0.929 . S
H2062 C2076 0.931 . S
H2063 C2078 0.930 . S
C2064 H2052 0.930 . S
C2064 C2065 1.399 . S
C2064 C2069 1.399 . S
C2065 C2064 1.399 . S
C2065 C2066 1.376 . S
C2066 H2053 0.930 . S
C2066 C2065 1.376 . S
C2066 C2067 1.388 . S
C2067 H2054 0.930 . S
C2067 C2066 1.388 . S
C2067 C2068 1.390 . S
C2068 C2067 1.390 . S
C2068 C2069 1.394 . S
C2068 C2074 1.465 . S
C2069 C2064 1.399 . S
C2069 C2068 1.394 . S
C2069 C2070 1.516 . S
C2070 C2069 1.516 . S
C2070 C2071 1.502 . S
C2070 C2072 1.561 . S
C2070 C2073 1.526 . S
C2071 H2055 0.959 . S
C2071 H2056 0.959 . S
C2071 H2057 0.961 . S
C2071 C2070 1.502 . S
C2072 H2058 0.960 . S
C2072 H2059 0.961 . S
C2072 H2060 0.959 . S
C2072 C2070 1.561 . S
C2073 C2070 1.526 . S
C2073 C2074 1.396 . S
C2073 C2078 1.390 . S
C2074 C2068 1.465 . S
C2074 C2073 1.396 . S
C2074 C2075 1.399 . S
C2075 H2061 0.929 . S
C2075 C2074 1.399 . S
C2075 C2076 1.385 . S
C2076 H2062 0.931 . S
C2076 C2075 1.385 . S
C2076 C2077 1.389 . S
C2077 C2076 1.389 . S
C2077 C2078 1.387 . S
C2078 H2063 0.930 . S
C2078 C2073 1.390 . S
C2078 C2077 1.387 . S
H2079 C2091 0.930 . S
H2080 C2093 0.930 . S
H2081 C2094 0.930 . S
H2082 C2098 0.959 . S
H2083 C2098 0.959 . S
H2084 C2098 0.961 . S
H2085 C2099 0.960 . S
H2086 C2099 0.961 . S
H2087 C2099 0.959 . S
H2088 C2102 0.929 . S
H2089 C2103 0.931 . S
H2090 C2105 0.930 . S
C2091 H2079 0.930 . S
C2091 C2092 1.399 . S
C2091 C2096 1.399 1_455 S
C2092 C2091 1.399 . S
C2092 C2093 1.376 . S
C2093 H2080 0.930 . S
C2093 C2092 1.376 . S
C2093 C2094 1.388 1_455 S
C2094 H2081 0.930 . S
C2094 C2093 1.388 1_655 S
C2094 C2095 1.390 . S
C2095 C2094 1.390 . S
C2095 C2096 1.394 . S
C2095 C2101 1.465 . S
C2096 C2091 1.399 1_655 S
C2096 C2095 1.394 . S
C2096 C2097 1.516 . S
C2097 C2096 1.516 . S
C2097 C2098 1.502 . S
C2097 C2099 1.561 . S
C2097 C2100 1.526 . S
C2098 H2082 0.959 . S
C2098 H2083 0.959 . S
C2098 H2084 0.961 . S
C2098 C2097 1.502 . S
C2099 H2085 0.960 . S
C2099 H2086 0.961 . S
C2099 H2087 0.959 . S
C2099 C2097 1.561 . S
C2100 C2097 1.526 . S
C2100 C2101 1.396 . S
C2100 C2105 1.390 . S
C2101 C2095 1.465 . S
C2101 C2100 1.396 . S
C2101 C2102 1.399 . S
C2102 H2088 0.929 . S
C2102 C2101 1.399 . S
C2102 C2103 1.385 . S
C2103 H2089 0.931 . S
C2103 C2102 1.385 . S
C2103 C2104 1.389 . S
C2104 C2103 1.389 . S
C2104 C2105 1.387 . S
C2105 H2090 0.930 . S
C2105 C2100 1.390 . S
C2105 C2104 1.387 . S
H2106 C2118 0.930 . S
H2107 C2120 0.930 . S
H2108 C2121 0.930 . S
H2109 C2125 0.959 . S
H2110 C2125 0.959 . S
H2111 C2125 0.961 . S
H2112 C2126 0.960 . S
H2113 C2126 0.961 . S
H2114 C2126 0.959 . S
H2115 C2129 0.929 . S
H2116 C2130 0.931 . S
H2117 C2132 0.930 . S
C2118 H2106 0.930 . S
C2118 C2119 1.399 . S
C2118 C2123 1.399 . S
C2119 C2118 1.399 . S
C2119 C2120 1.376 . S
C2120 H2107 0.930 . S
C2120 C2119 1.376 . S
C2120 C2121 1.388 . S
C2121 H2108 0.930 . S
C2121 C2120 1.388 . S
C2121 C2122 1.390 . S
C2122 C2121 1.390 . S
C2122 C2123 1.394 . S
C2122 C2128 1.465 . S
C2123 C2118 1.399 . S
C2123 C2122 1.394 . S
C2123 C2124 1.516 . S
C2124 C2123 1.516 . S
C2124 C2125 1.502 . S
C2124 C2126 1.561 . S
C2124 C2127 1.526 . S
C2125 H2109 0.959 . S
C2125 H2110 0.959 . S
C2125 H2111 0.961 . S
C2125 C2124 1.502 . S
C2126 H2112 0.960 . S
C2126 H2113 0.961 . S
C2126 H2114 0.959 . S
C2126 C2124 1.561 . S
C2127 C2124 1.526 . S
C2127 C2128 1.396 . S
C2127 C2132 1.390 . S
C2128 C2122 1.465 . S
C2128 C2127 1.396 . S
C2128 C2129 1.399 . S
C2129 H2115 0.929 . S
C2129 C2128 1.399 . S
C2129 C2130 1.385 . S
C2130 H2116 0.931 . S
C2130 C2129 1.385 . S
C2130 C2131 1.389 . S
C2131 C2130 1.389 . S
C2131 C2132 1.387 . S
C2132 H2117 0.930 . S
C2132 C2127 1.390 . S
C2132 C2131 1.387 . S
H2133 C2145 0.930 . S
H2134 C2147 0.930 . S
H2135 C2148 0.930 . S
H2136 C2152 0.959 . S
H2137 C2152 0.959 . S
H2138 C2152 0.961 . S
H2139 C2153 0.960 . S
H2140 C2153 0.961 . S
H2141 C2153 0.959 . S
H2142 C2156 0.929 . S
H2143 C2157 0.931 . S
H2144 C2159 0.930 . S
C2145 H2133 0.930 . S
C2145 C2146 1.399 . S
C2145 C2150 1.399 1_565 S
C2146 C2145 1.399 . S
C2146 C2147 1.376 . S
C2147 H2134 0.930 . S
C2147 C2146 1.376 . S
C2147 C2148 1.388 1_565 S
C2148 H2135 0.930 . S
C2148 C2147 1.388 1_545 S
C2148 C2149 1.390 . S
C2149 C2148 1.390 . S
C2149 C2150 1.394 . S
C2149 C2155 1.465 . S
C2150 C2145 1.399 1_545 S
C2150 C2149 1.394 . S
C2150 C2151 1.516 . S
C2151 C2150 1.516 . S
C2151 C2152 1.502 . S
C2151 C2153 1.561 . S
C2151 C2154 1.526 . S
C2152 H2136 0.959 . S
C2152 H2137 0.959 . S
C2152 H2138 0.961 . S
C2152 C2151 1.502 . S
C2153 H2139 0.960 . S
C2153 H2140 0.961 . S
C2153 H2141 0.959 . S
C2153 C2151 1.561 . S
C2154 C2151 1.526 . S
C2154 C2155 1.396 . S
C2154 C2159 1.390 . S
C2155 C2149 1.465 . S
C2155 C2154 1.396 . S
C2155 C2156 1.399 . S
C2156 H2142 0.929 . S
C2156 C2155 1.399 . S
C2156 C2157 1.385 . S
C2157 H2143 0.931 . S
C2157 C2156 1.385 . S
C2157 C2158 1.389 . S
C2158 C2157 1.389 . S
C2158 C2159 1.387 . S
C2159 H2144 0.930 . S
C2159 C2154 1.390 . S
C2159 C2158 1.387 . S
H2160 C2172 0.930 . S
H2161 C2174 0.930 . S
H2162 C2175 0.930 . S
H2163 C2179 0.959 . S
H2164 C2179 0.959 . S
H2165 C2179 0.961 . S
H2166 C2180 0.960 . S
H2167 C2180 0.961 . S
H2168 C2180 0.959 . S
H2169 C2183 0.929 . S
H2170 C2184 0.931 . S
H2171 C2186 0.930 . S
C2172 H2160 0.930 . S
C2172 C2173 1.399 . S
C2172 C2177 1.399 . S
C2173 C2172 1.399 . S
C2173 C2174 1.376 . S
C2174 H2161 0.930 . S
C2174 C2173 1.376 . S
C2174 C2175 1.388 . S
C2175 H2162 0.930 . S
C2175 C2174 1.388 . S
C2175 C2176 1.390 . S
C2176 C2175 1.390 . S
C2176 C2177 1.394 . S
C2176 C2182 1.465 . S
C2177 C2172 1.399 . S
C2177 C2176 1.394 . S
C2177 C2178 1.516 . S
C2178 C2177 1.516 . S
C2178 C2179 1.502 . S
C2178 C2180 1.561 . S
C2178 C2181 1.526 . S
C2179 H2163 0.959 . S
C2179 H2164 0.959 . S
C2179 H2165 0.961 . S
C2179 C2178 1.502 . S
C2180 H2166 0.960 . S
C2180 H2167 0.961 . S
C2180 H2168 0.959 . S
C2180 C2178 1.561 . S
C2181 C2178 1.526 . S
C2181 C2182 1.396 . S
C2181 C2186 1.390 . S
C2182 C2176 1.465 . S
C2182 C2181 1.396 . S
C2182 C2183 1.399 . S
C2183 H2169 0.929 . S
C2183 C2182 1.399 . S
C2183 C2184 1.385 . S
C2184 H2170 0.931 . S
C2184 C2183 1.385 . S
C2184 C2185 1.389 . S
C2185 C2184 1.389 . S
C2185 C2186 1.387 . S
C2186 H2171 0.930 . S
C2186 C2181 1.390 . S
C2186 C2185 1.387 . S
H2187 C2199 0.930 . S
H2188 C2201 0.930 . S
H2189 C2202 0.930 . S
H2190 C2206 0.959 . S
H2191 C2206 0.959 . S
H2192 C2206 0.961 . S
H2193 C2207 0.960 . S
H2194 C2207 0.961 . S
H2195 C2207 0.959 . S
H2196 C2210 0.929 . S
H2197 C2211 0.931 . S
H2198 C2213 0.930 . S
C2199 H2187 0.930 . S
C2199 C2200 1.399 . S
C2199 C2204 1.399 . S
C2200 C2199 1.399 . S
C2200 C2201 1.376 . S
C2201 H2188 0.930 . S
C2201 C2200 1.376 . S
C2201 C2202 1.388 . S
C2202 H2189 0.930 . S
C2202 C2201 1.388 . S
C2202 C2203 1.390 . S
C2203 C2202 1.390 . S
C2203 C2204 1.394 . S
C2203 C2209 1.465 . S
C2204 C2199 1.399 . S
C2204 C2203 1.394 . S
C2204 C2205 1.516 . S
C2205 C2204 1.516 . S
C2205 C2206 1.502 . S
C2205 C2207 1.561 . S
C2205 C2208 1.526 . S
C2206 H2190 0.959 . S
C2206 H2191 0.959 . S
C2206 H2192 0.961 . S
C2206 C2205 1.502 . S
C2207 H2193 0.960 . S
C2207 H2194 0.961 . S
C2207 H2195 0.959 . S
C2207 C2205 1.561 . S
C2208 C2205 1.526 . S
C2208 C2209 1.396 . S
C2208 C2213 1.390 . S
C2209 C2203 1.465 . S
C2209 C2208 1.396 . S
C2209 C2210 1.399 . S
C2210 H2196 0.929 . S
C2210 C2209 1.399 . S
C2210 C2211 1.385 . S
C2211 H2197 0.931 . S
C2211 C2210 1.385 . S
C2211 C2212 1.389 . S
C2212 C2211 1.389 . S
C2212 C2213 1.387 . S
C2213 H2198 0.930 . S
C2213 C2208 1.390 . S
C2213 C2212 1.387 . S
H2214 C2226 0.930 . S
H2215 C2228 0.930 . S
H2216 C2229 0.930 . S
H2217 C2233 0.959 . S
H2218 C2233 0.959 . S
H2219 C2233 0.961 . S
H2220 C2234 0.960 . S
H2221 C2234 0.961 . S
H2222 C2234 0.959 . S
H2223 C2237 0.929 . S
H2224 C2238 0.931 . S
H2225 C2240 0.930 . S
C2226 H2214 0.930 . S
C2226 C2227 1.399 . S
C2226 C2231 1.399 . S
C2227 C2226 1.399 . S
C2227 C2228 1.376 . S
C2228 H2215 0.930 . S
C2228 C2227 1.376 . S
C2228 C2229 1.388 . S
C2229 H2216 0.930 . S
C2229 C2228 1.388 . S
C2229 C2230 1.390 . S
C2230 C2229 1.390 . S
C2230 C2231 1.394 . S
C2230 C2236 1.465 . S
C2231 C2226 1.399 . S
C2231 C2230 1.394 . S
C2231 C2232 1.516 . S
C2232 C2231 1.516 . S
C2232 C2233 1.502 . S
C2232 C2234 1.561 . S
C2232 C2235 1.526 . S
C2233 H2217 0.959 . S
C2233 H2218 0.959 . S
C2233 H2219 0.961 . S
C2233 C2232 1.502 . S
C2234 H2220 0.960 . S
C2234 H2221 0.961 . S
C2234 H2222 0.959 . S
C2234 C2232 1.561 . S
C2235 C2232 1.526 . S
C2235 C2236 1.396 . S
C2235 C2240 1.390 . S
C2236 C2230 1.465 . S
C2236 C2235 1.396 . S
C2236 C2237 1.399 . S
C2237 H2223 0.929 . S
C2237 C2236 1.399 . S
C2237 C2238 1.385 . S
C2238 H2224 0.931 . S
C2238 C2237 1.385 . S
C2238 C2239 1.389 . S
C2239 C2238 1.389 . S
C2239 C2240 1.387 . S
C2240 H2225 0.930 . S
C2240 C2235 1.390 . S
C2240 C2239 1.387 . S
H2241 C2253 0.930 1_545 S
H2242 C2255 0.930 . S
H2243 C2256 0.930 . S
H2244 C2260 0.959 . S
H2245 C2260 0.959 . S
H2246 C2260 0.961 . S
H2247 C2261 0.960 . S
H2248 C2261 0.961 . S
H2249 C2261 0.959 . S
H2250 C2264 0.929 . S
H2251 C2265 0.931 . S
H2252 C2267 0.930 . S
C2253 H2241 0.930 1_565 S
C2253 C2254 1.399 . S
C2253 C2258 1.399 . S
C2254 C2253 1.399 . S
C2254 C2255 1.376 . S
C2255 H2242 0.930 . S
C2255 C2254 1.376 . S
C2255 C2256 1.388 . S
C2256 H2243 0.930 . S
C2256 C2255 1.388 . S
C2256 C2257 1.390 . S
C2257 C2256 1.390 . S
C2257 C2258 1.394 . S
C2257 C2263 1.465 . S
C2258 C2253 1.399 . S
C2258 C2257 1.394 . S
C2258 C2259 1.516 1_565 S
C2259 C2258 1.516 1_545 S
C2259 C2260 1.502 . S
C2259 C2261 1.561 . S
C2259 C2262 1.526 . S
C2260 H2244 0.959 . S
C2260 H2245 0.959 . S
C2260 H2246 0.961 . S
C2260 C2259 1.502 . S
C2261 H2247 0.960 . S
C2261 H2248 0.961 . S
C2261 H2249 0.959 . S
C2261 C2259 1.561 . S
C2262 C2259 1.526 . S
C2262 C2263 1.396 1_545 S
C2262 C2267 1.390 . S
C2263 C2257 1.465 . S
C2263 C2262 1.396 1_565 S
C2263 C2264 1.399 . S
C2264 H2250 0.929 . S
C2264 C2263 1.399 . S
C2264 C2265 1.385 . S
C2265 H2251 0.931 . S
C2265 C2264 1.385 . S
C2265 C2266 1.389 . S
C2266 C2265 1.389 . S
C2266 C2267 1.387 1_565 S
C2267 H2252 0.930 . S
C2267 C2262 1.390 . S
C2267 C2266 1.387 1_545 S
H2268 C2280 0.930 . S
H2269 C2282 0.930 . S
H2270 C2283 0.930 . S
H2271 C2287 0.959 . S
H2272 C2287 0.959 . S
H2273 C2287 0.961 . S
H2274 C2288 0.960 . S
H2275 C2288 0.961 . S
H2276 C2288 0.959 . S
H2277 C2291 0.929 . S
H2278 C2292 0.931 . S
H2279 C2294 0.930 . S
C2280 H2268 0.930 . S
C2280 C2281 1.399 . S
C2280 C2285 1.399 . S
C2281 C2280 1.399 . S
C2281 C2282 1.376 . S
C2282 H2269 0.930 . S
C2282 C2281 1.376 . S
C2282 C2283 1.388 . S
C2283 H2270 0.930 . S
C2283 C2282 1.388 . S
C2283 C2284 1.390 . S
C2284 C2283 1.390 . S
C2284 C2285 1.394 . S
C2284 C2290 1.465 . S
C2285 C2280 1.399 . S
C2285 C2284 1.394 . S
C2285 C2286 1.516 . S
C2286 C2285 1.516 . S
C2286 C2287 1.502 . S
C2286 C2288 1.561 1_455 S
C2286 C2289 1.526 . S
C2287 H2271 0.959 . S
C2287 H2272 0.959 . S
C2287 H2273 0.961 . S
C2287 C2286 1.502 . S
C2288 H2274 0.960 . S
C2288 H2275 0.961 . S
C2288 H2276 0.959 . S
C2288 C2286 1.561 1_655 S
C2289 C2286 1.526 . S
C2289 C2290 1.396 . S
C2289 C2294 1.390 . S
C2290 C2284 1.465 . S
C2290 C2289 1.396 . S
C2290 C2291 1.399 . S
C2291 H2277 0.929 . S
C2291 C2290 1.399 . S
C2291 C2292 1.385 . S
C2292 H2278 0.931 . S
C2292 C2291 1.385 . S
C2292 C2293 1.389 . S
C2293 C2292 1.389 . S
C2293 C2294 1.387 . S
C2294 H2279 0.930 . S
C2294 C2289 1.390 . S
C2294 C2293 1.387 . S
H2295 C2307 0.930 . S
H2296 C2309 0.930 . S
H2297 C2310 0.930 . S
H2298 C2314 0.959 . S
H2299 C2314 0.959 . S
H2300 C2314 0.961 . S
H2301 C2315 0.960 . S
H2302 C2315 0.961 . S
H2303 C2315 0.959 . S
H2304 C2318 0.929 . S
H2305 C2319 0.931 . S
H2306 C2321 0.930 . S
C2307 H2295 0.930 . S
C2307 C2308 1.399 . S
C2307 C2312 1.399 . S
C2308 C2307 1.399 . S
C2308 C2309 1.376 . S
C2309 H2296 0.930 . S
C2309 C2308 1.376 . S
C2309 C2310 1.388 . S
C2310 H2297 0.930 . S
C2310 C2309 1.388 . S
C2310 C2311 1.390 . S
C2311 C2310 1.390 . S
C2311 C2312 1.394 . S
C2311 C2317 1.465 . S
C2312 C2307 1.399 . S
C2312 C2311 1.394 . S
C2312 C2313 1.516 . S
C2313 C2312 1.516 . S
C2313 C2314 1.502 . S
C2313 C2315 1.561 . S
C2313 C2316 1.526 . S
C2314 H2298 0.959 . S
C2314 H2299 0.959 . S
C2314 H2300 0.961 . S
C2314 C2313 1.502 . S
C2315 H2301 0.960 . S
C2315 H2302 0.961 . S
C2315 H2303 0.959 . S
C2315 C2313 1.561 . S
C2316 C2313 1.526 . S
C2316 C2317 1.396 . S
C2316 C2321 1.390 . S
C2317 C2311 1.465 . S
C2317 C2316 1.396 . S
C2317 C2318 1.399 . S
C2318 H2304 0.929 . S
C2318 C2317 1.399 . S
C2318 C2319 1.385 . S
C2319 H2305 0.931 . S
C2319 C2318 1.385 . S
C2319 C2320 1.389 . S
C2320 C2319 1.389 . S
C2320 C2321 1.387 . S
C2321 H2306 0.930 . S
C2321 C2316 1.390 . S
C2321 C2320 1.387 . S
H2322 C2334 0.930 . S
H2323 C2336 0.931 . S
H2324 C2337 0.930 . S
H2325 C2341 0.959 . S
H2326 C2341 0.959 . S
H2327 C2341 0.961 . S
H2328 C2342 0.960 . S
H2329 C2342 0.961 . S
H2330 C2342 0.959 1_455 S
H2331 C2345 0.929 . S
H2332 C2346 0.931 . S
H2333 C2348 0.930 . S
C2334 H2322 0.930 . S
C2334 C2335 1.399 . S
C2334 C2339 1.399 . S
C2335 C2334 1.399 . S
C2335 C2336 1.376 . S
C2336 H2323 0.931 . S
C2336 C2335 1.376 . S
C2336 C2337 1.388 1_655 S
C2337 H2324 0.930 . S
C2337 C2336 1.388 1_455 S
C2337 C2338 1.390 1_455 S
C2338 C2337 1.390 1_655 S
C2338 C2339 1.394 . S
C2338 C2344 1.465 . S
C2339 C2334 1.399 . S
C2339 C2338 1.394 . S
C2339 C2340 1.516 . S
C2340 C2339 1.516 . S
C2340 C2341 1.502 . S
C2340 C2342 1.561 . S
C2340 C2343 1.526 . S
C2341 H2325 0.959 . S
C2341 H2326 0.959 . S
C2341 H2327 0.961 . S
C2341 C2340 1.502 . S
C2342 H2328 0.960 . S
C2342 H2329 0.961 . S
C2342 H2330 0.959 1_655 S
C2342 C2340 1.561 . S
C2343 C2340 1.526 . S
C2343 C2344 1.396 . S
C2343 C2348 1.390 . S
C2344 C2338 1.465 . S
C2344 C2343 1.396 . S
C2344 C2345 1.399 1_655 S
C2345 H2331 0.929 . S
C2345 C2344 1.399 1_455 S
C2345 C2346 1.385 . S
C2346 H2332 0.931 . S
C2346 C2345 1.385 . S
C2346 C2347 1.389 1_455 S
C2347 C2346 1.389 1_655 S
C2347 C2348 1.387 . S
C2348 H2333 0.930 . S
C2348 C2343 1.390 . S
C2348 C2347 1.387 . S
H2349 C2361 0.930 . S
H2350 C2363 0.930 . S
H2351 C2364 0.930 . S
H2352 C2368 0.959 . S
H2353 C2368 0.959 . S
H2354 C2368 0.961 . S
H2355 C2369 0.960 . S
H2356 C2369 0.961 . S
H2357 C2369 0.959 . S
H2358 C2372 0.929 . S
H2359 C2373 0.931 . S
H2360 C2375 0.930 . S
C2361 H2349 0.930 . S
C2361 C2362 1.399 . S
C2361 C2366 1.399 . S
C2362 C2361 1.399 . S
C2362 C2363 1.376 . S
C2363 H2350 0.930 . S
C2363 C2362 1.376 . S
C2363 C2364 1.388 . S
C2364 H2351 0.930 . S
C2364 C2363 1.388 . S
C2364 C2365 1.390 . S
C2365 C2364 1.390 . S
C2365 C2366 1.394 . S
C2365 C2371 1.465 . S
C2366 C2361 1.399 . S
C2366 C2365 1.394 . S
C2366 C2367 1.516 . S
C2367 C2366 1.516 . S
C2367 C2368 1.502 . S
C2367 C2369 1.561 . S
C2367 C2370 1.526 . S
C2368 H2352 0.959 . S
C2368 H2353 0.959 . S
C2368 H2354 0.961 . S
C2368 C2367 1.502 . S
C2369 H2355 0.960 . S
C2369 H2356 0.961 . S
C2369 H2357 0.959 . S
C2369 C2367 1.561 . S
C2370 C2367 1.526 . S
C2370 C2371 1.396 . S
C2370 C2375 1.390 . S
C2371 C2365 1.465 . S
C2371 C2370 1.396 . S
C2371 C2372 1.399 . S
C2372 H2358 0.929 . S
C2372 C2371 1.399 . S
C2372 C2373 1.385 . S
C2373 H2359 0.931 . S
C2373 C2372 1.385 . S
C2373 C2374 1.389 . S
C2374 C2373 1.389 . S
C2374 C2375 1.387 . S
C2375 H2360 0.930 . S
C2375 C2370 1.390 . S
C2375 C2374 1.387 . S
H2376 C2388 0.930 1_565 S
H2377 C2390 0.930 . S
H2378 C2391 0.930 . S
H2379 C2395 0.959 . S
H2380 C2395 0.959 . S
H2381 C2395 0.961 . S
H2382 C2396 0.960 . S
H2383 C2396 0.961 . S
H2384 C2396 0.959 1_545 S
H2385 C2399 0.929 . S
H2386 C2400 0.931 . S
H2387 C2402 0.930 . S
C2388 H2376 0.930 1_545 S
C2388 C2389 1.399 . S
C2388 C2393 1.399 . S
C2389 C2388 1.399 . S
C2389 C2390 1.376 . S
C2390 H2377 0.930 . S
C2390 C2389 1.376 . S
C2390 C2391 1.388 . S
C2391 H2378 0.930 . S
C2391 C2390 1.388 . S
C2391 C2392 1.390 . S
C2392 C2391 1.390 . S
C2392 C2393 1.394 . S
C2392 C2398 1.465 . S
C2393 C2388 1.399 . S
C2393 C2392 1.394 . S
C2393 C2394 1.516 1_545 S
C2394 C2393 1.516 1_565 S
C2394 C2395 1.502 . S
C2394 C2396 1.561 . S
C2394 C2397 1.526 1_565 S
C2395 H2379 0.959 . S
C2395 H2380 0.959 . S
C2395 H2381 0.961 . S
C2395 C2394 1.502 . S
C2396 H2382 0.960 . S
C2396 H2383 0.961 . S
C2396 H2384 0.959 1_565 S
C2396 C2394 1.561 . S
C2397 C2394 1.526 1_545 S
C2397 C2398 1.396 . S
C2397 C2402 1.390 1_545 S
C2398 C2392 1.465 . S
C2398 C2397 1.396 . S
C2398 C2399 1.399 . S
C2399 H2385 0.929 . S
C2399 C2398 1.399 . S
C2399 C2400 1.385 . S
C2400 H2386 0.931 . S
C2400 C2399 1.385 . S
C2400 C2401 1.389 . S
C2401 C2400 1.389 . S
C2401 C2402 1.387 1_545 S
C2402 H2387 0.930 . S
C2402 C2397 1.390 1_565 S
C2402 C2401 1.387 1_565 S
H2403 C2415 0.930 . S
H2404 C2417 0.930 . S
H2405 C2418 0.930 . S
H2406 C2422 0.959 . S
H2407 C2422 0.959 . S
H2408 C2422 0.961 . S
H2409 C2423 0.960 . S
H2410 C2423 0.961 . S
H2411 C2423 0.959 . S
H2412 C2426 0.929 . S
H2413 C2427 0.931 . S
H2414 C2429 0.930 . S
C2415 H2403 0.930 . S
C2415 C2416 1.399 . S
C2415 C2420 1.399 . S
C2416 C2415 1.399 . S
C2416 C2417 1.376 . S
C2417 H2404 0.930 . S
C2417 C2416 1.376 . S
C2417 C2418 1.388 . S
C2418 H2405 0.930 . S
C2418 C2417 1.388 . S
C2418 C2419 1.390 . S
C2419 C2418 1.390 . S
C2419 C2420 1.394 . S
C2419 C2425 1.465 . S
C2420 C2415 1.399 . S
C2420 C2419 1.394 . S
C2420 C2421 1.516 . S
C2421 C2420 1.516 . S
C2421 C2422 1.502 . S
C2421 C2423 1.561 . S
C2421 C2424 1.526 . S
C2422 H2406 0.959 . S
C2422 H2407 0.959 . S
C2422 H2408 0.961 . S
C2422 C2421 1.502 . S
C2423 H2409 0.960 . S
C2423 H2410 0.961 . S
C2423 H2411 0.959 . S
C2423 C2421 1.561 . S
C2424 C2421 1.526 . S
C2424 C2425 1.396 . S
C2424 C2429 1.390 . S
C2425 C2419 1.465 . S
C2425 C2424 1.396 . S
C2425 C2426 1.399 . S
C2426 H2412 0.929 . S
C2426 C2425 1.399 . S
C2426 C2427 1.385 . S
C2427 H2413 0.931 . S
C2427 C2426 1.385 . S
C2427 C2428 1.389 . S
C2428 C2427 1.389 . S
C2428 C2429 1.387 . S
C2429 H2414 0.930 . S
C2429 C2424 1.390 . S
C2429 C2428 1.387 . S
H2430 C2442 0.930 . S
H2431 C2444 0.930 . S
H2432 C2445 0.930 . S
H2433 C2449 0.959 . S
H2434 C2449 0.959 . S
H2435 C2449 0.961 . S
H2436 C2450 0.960 . S
H2437 C2450 0.961 . S
H2438 C2450 0.959 . S
H2439 C2453 0.929 . S
H2440 C2454 0.931 . S
H2441 C2456 0.930 . S
C2442 H2430 0.930 . S
C2442 C2443 1.399 . S
C2442 C2447 1.399 . S
C2443 C2442 1.399 . S
C2443 C2444 1.376 . S
C2444 H2431 0.930 . S
C2444 C2443 1.376 . S
C2444 C2445 1.388 . S
C2445 H2432 0.930 . S
C2445 C2444 1.388 . S
C2445 C2446 1.390 . S
C2446 C2445 1.390 . S
C2446 C2447 1.394 . S
C2446 C2452 1.465 . S
C2447 C2442 1.399 . S
C2447 C2446 1.394 . S
C2447 C2448 1.516 . S
C2448 C2447 1.516 . S
C2448 C2449 1.502 . S
C2448 C2450 1.561 . S
C2448 C2451 1.526 . S
C2449 H2433 0.959 . S
C2449 H2434 0.959 . S
C2449 H2435 0.961 . S
C2449 C2448 1.502 . S
C2450 H2436 0.960 . S
C2450 H2437 0.961 . S
C2450 H2438 0.959 . S
C2450 C2448 1.561 . S
C2451 C2448 1.526 . S
C2451 C2452 1.396 . S
C2451 C2456 1.390 . S
C2452 C2446 1.465 . S
C2452 C2451 1.396 . S
C2452 C2453 1.399 . S
C2453 H2439 0.929 . S
C2453 C2452 1.399 . S
C2453 C2454 1.385 . S
C2454 H2440 0.931 . S
C2454 C2453 1.385 . S
C2454 C2455 1.389 . S
C2455 C2454 1.389 . S
C2455 C2456 1.387 . S
C2456 H2441 0.930 . S
C2456 C2451 1.390 . S
C2456 C2455 1.387 . S
H2457 C2469 0.930 . S
H2458 C2471 0.930 . S
H2459 C2472 0.930 . S
H2460 C2476 0.959 . S
H2461 C2476 0.959 . S
H2462 C2476 0.961 . S
H2463 C2477 0.960 . S
H2464 C2477 0.961 . S
H2465 C2477 0.959 . S
H2466 C2480 0.929 . S
H2467 C2481 0.931 . S
H2468 C2483 0.930 . S
C2469 H2457 0.930 . S
C2469 C2470 1.399 . S
C2469 C2474 1.399 . S
C2470 C2469 1.399 . S
C2470 C2471 1.376 . S
C2471 H2458 0.930 . S
C2471 C2470 1.376 . S
C2471 C2472 1.388 . S
C2472 H2459 0.930 . S
C2472 C2471 1.388 . S
C2472 C2473 1.390 . S
C2473 C2472 1.390 . S
C2473 C2474 1.394 . S
C2473 C2479 1.465 . S
C2474 C2469 1.399 . S
C2474 C2473 1.394 . S
C2474 C2475 1.516 . S
C2475 C2474 1.516 . S
C2475 C2476 1.502 . S
C2475 C2477 1.561 . S
C2475 C2478 1.526 . S
C2476 H2460 0.959 . S
C2476 H2461 0.959 . S
C2476 H2462 0.961 . S
C2476 C2475 1.502 . S
C2477 H2463 0.960 . S
C2477 H2464 0.961 . S
C2477 H2465 0.959 . S
C2477 C2475 1.561 . S
C2478 C2475 1.526 . S
C2478 C2479 1.396 . S
C2478 C2483 1.390 . S
C2479 C2473 1.465 . S
C2479 C2478 1.396 . S
C2479 C2480 1.399 . S
C2480 H2466 0.929 . S
C2480 C2479 1.399 . S
C2480 C2481 1.385 . S
C2481 H2467 0.931 . S
C2481 C2480 1.385 . S
C2481 C2482 1.389 . S
C2482 C2481 1.389 . S
C2482 C2483 1.387 . S
C2483 H2468 0.930 . S
C2483 C2478 1.390 . S
C2483 C2482 1.387 . S
H2484 C2496 0.930 . S
H2485 C2498 0.930 . S
H2486 C2499 0.930 . S
H2487 C2503 0.959 . S
H2488 C2503 0.959 . S
H2489 C2503 0.961 . S
H2490 C2504 0.960 . S
H2491 C2504 0.961 . S
H2492 C2504 0.959 . S
H2493 C2507 0.929 . S
H2494 C2508 0.931 . S
H2495 C2510 0.930 . S
C2496 H2484 0.930 . S
C2496 C2497 1.399 . S
C2496 C2501 1.399 . S
C2497 C2496 1.399 . S
C2497 C2498 1.376 . S
C2498 H2485 0.930 . S
C2498 C2497 1.376 . S
C2498 C2499 1.388 . S
C2499 H2486 0.930 . S
C2499 C2498 1.388 . S
C2499 C2500 1.390 . S
C2500 C2499 1.390 . S
C2500 C2501 1.394 . S
C2500 C2506 1.465 . S
C2501 C2496 1.399 . S
C2501 C2500 1.394 . S
C2501 C2502 1.516 . S
C2502 C2501 1.516 . S
C2502 C2503 1.502 . S
C2502 C2504 1.561 . S
C2502 C2505 1.526 . S
C2503 H2487 0.959 . S
C2503 H2488 0.959 . S
C2503 H2489 0.961 . S
C2503 C2502 1.502 . S
C2504 H2490 0.960 . S
C2504 H2491 0.961 . S
C2504 H2492 0.959 . S
C2504 C2502 1.561 . S
C2505 C2502 1.526 . S
C2505 C2506 1.396 . S
C2505 C2510 1.390 . S
C2506 C2500 1.465 . S
C2506 C2505 1.396 . S
C2506 C2507 1.399 . S
C2507 H2493 0.929 . S
C2507 C2506 1.399 . S
C2507 C2508 1.385 . S
C2508 H2494 0.931 . S
C2508 C2507 1.385 . S
C2508 C2509 1.389 . S
C2509 C2508 1.389 . S
C2509 C2510 1.387 . S
C2510 H2495 0.930 . S
C2510 C2505 1.390 . S
C2510 C2509 1.387 . S
H2511 C2523 0.930 . S
H2512 C2525 0.930 . S
H2513 C2526 0.930 . S
H2514 C2530 0.959 . S
H2515 C2530 0.959 . S
H2516 C2530 0.961 . S
H2517 C2531 0.960 . S
H2518 C2531 0.961 . S
H2519 C2531 0.959 . S
H2520 C2534 0.929 . S
H2521 C2535 0.931 . S
H2522 C2537 0.930 . S
C2523 H2511 0.930 . S
C2523 C2524 1.399 . S
C2523 C2528 1.399 . S
C2524 C2523 1.399 . S
C2524 C2525 1.376 . S
C2525 H2512 0.930 . S
C2525 C2524 1.376 . S
C2525 C2526 1.388 . S
C2526 H2513 0.930 . S
C2526 C2525 1.388 . S
C2526 C2527 1.390 . S
C2527 C2526 1.390 . S
C2527 C2528 1.394 . S
C2527 C2533 1.465 . S
C2528 C2523 1.399 . S
C2528 C2527 1.394 . S
C2528 C2529 1.516 . S
C2529 C2528 1.516 . S
C2529 C2530 1.502 . S
C2529 C2531 1.561 . S
C2529 C2532 1.526 . S
C2530 H2514 0.959 . S
C2530 H2515 0.959 . S
C2530 H2516 0.961 . S
C2530 C2529 1.502 . S
C2531 H2517 0.960 . S
C2531 H2518 0.961 . S
C2531 H2519 0.959 . S
C2531 C2529 1.561 . S
C2532 C2529 1.526 . S
C2532 C2533 1.396 . S
C2532 C2537 1.390 . S
C2533 C2527 1.465 . S
C2533 C2532 1.396 . S
C2533 C2534 1.399 . S
C2534 H2520 0.929 . S
C2534 C2533 1.399 . S
C2534 C2535 1.385 . S
C2535 H2521 0.931 . S
C2535 C2534 1.385 . S
C2535 C2536 1.389 . S
C2536 C2535 1.389 . S
C2536 C2537 1.387 . S
C2537 H2522 0.930 . S
C2537 C2532 1.390 . S
C2537 C2536 1.387 . S
H2538 C2550 0.930 . S
H2539 C2552 0.930 . S
H2540 C2553 0.930 . S
H2541 C2557 0.959 . S
H2542 C2557 0.959 . S
H2543 C2557 0.961 . S
H2544 C2558 0.960 . S
H2545 C2558 0.961 . S
H2546 C2558 0.959 . S
H2547 C2561 0.929 . S
H2548 C2562 0.931 . S
H2549 C2564 0.930 . S
C2550 H2538 0.930 . S
C2550 C2551 1.399 . S
C2550 C2555 1.399 . S
C2551 C2550 1.399 . S
C2551 C2552 1.376 . S
C2552 H2539 0.930 . S
C2552 C2551 1.376 . S
C2552 C2553 1.388 . S
C2553 H2540 0.930 . S
C2553 C2552 1.388 . S
C2553 C2554 1.390 . S
C2554 C2553 1.390 . S
C2554 C2555 1.394 . S
C2554 C2560 1.465 . S
C2555 C2550 1.399 . S
C2555 C2554 1.394 . S
C2555 C2556 1.516 . S
C2556 C2555 1.516 . S
C2556 C2557 1.502 . S
C2556 C2558 1.561 . S
C2556 C2559 1.526 . S
C2557 H2541 0.959 . S
C2557 H2542 0.959 . S
C2557 H2543 0.961 . S
C2557 C2556 1.502 . S
C2558 H2544 0.960 . S
C2558 H2545 0.961 . S
C2558 H2546 0.959 . S
C2558 C2556 1.561 . S
C2559 C2556 1.526 . S
C2559 C2560 1.396 . S
C2559 C2564 1.390 . S
C2560 C2554 1.465 . S
C2560 C2559 1.396 . S
C2560 C2561 1.399 . S
C2561 H2547 0.929 . S
C2561 C2560 1.399 . S
C2561 C2562 1.385 . S
C2562 H2548 0.931 . S
C2562 C2561 1.385 . S
C2562 C2563 1.389 . S
C2563 C2562 1.389 . S
C2563 C2564 1.387 . S
C2564 H2549 0.930 . S
C2564 C2559 1.390 . S
C2564 C2563 1.387 . S
H2565 C2577 0.930 . S
H2566 C2579 0.930 . S
H2567 C2580 0.930 . S
H2568 C2584 0.959 . S
H2569 C2584 0.959 . S
H2570 C2584 0.961 . S
H2571 C2585 0.960 . S
H2572 C2585 0.961 . S
H2573 C2585 0.959 . S
H2574 C2588 0.929 . S
H2575 C2589 0.931 . S
H2576 C2591 0.930 . S
C2577 H2565 0.930 . S
C2577 C2578 1.399 . S
C2577 C2582 1.399 . S
C2578 C2577 1.399 . S
C2578 C2579 1.376 . S
C2579 H2566 0.930 . S
C2579 C2578 1.376 . S
C2579 C2580 1.388 . S
C2580 H2567 0.930 . S
C2580 C2579 1.388 . S
C2580 C2581 1.390 . S
C2581 C2580 1.390 . S
C2581 C2582 1.394 . S
C2581 C2587 1.465 . S
C2582 C2577 1.399 . S
C2582 C2581 1.394 . S
C2582 C2583 1.516 . S
C2583 C2582 1.516 . S
C2583 C2584 1.502 . S
C2583 C2585 1.561 . S
C2583 C2586 1.526 . S
C2584 H2568 0.959 . S
C2584 H2569 0.959 . S
C2584 H2570 0.961 . S
C2584 C2583 1.502 . S
C2585 H2571 0.960 . S
C2585 H2572 0.961 . S
C2585 H2573 0.959 . S
C2585 C2583 1.561 . S
C2586 C2583 1.526 . S
C2586 C2587 1.396 . S
C2586 C2591 1.390 . S
C2587 C2581 1.465 . S
C2587 C2586 1.396 . S
C2587 C2588 1.399 . S
C2588 H2574 0.929 . S
C2588 C2587 1.399 . S
C2588 C2589 1.385 . S
C2589 H2575 0.931 . S
C2589 C2588 1.385 . S
C2589 C2590 1.389 . S
C2590 C2589 1.389 . S
C2590 C2591 1.387 . S
C2591 H2576 0.930 . S
C2591 C2586 1.390 . S
C2591 C2590 1.387 . S
H2592 C2604 0.930 . S
H2593 C2606 0.930 . S
H2594 C2607 0.930 . S
H2595 C2611 0.959 . S
H2596 C2611 0.959 . S
H2597 C2611 0.961 . S
H2598 C2612 0.960 . S
H2599 C2612 0.961 . S
H2600 C2612 0.959 . S
H2601 C2615 0.929 . S
H2602 C2616 0.931 . S
H2603 C2618 0.930 . S
C2604 H2592 0.930 . S
C2604 C2605 1.399 . S
C2604 C2609 1.399 . S
C2605 C2604 1.399 . S
C2605 C2606 1.376 . S
C2606 H2593 0.930 . S
C2606 C2605 1.376 . S
C2606 C2607 1.388 . S
C2607 H2594 0.930 . S
C2607 C2606 1.388 . S
C2607 C2608 1.390 . S
C2608 C2607 1.390 . S
C2608 C2609 1.394 . S
C2608 C2614 1.465 . S
C2609 C2604 1.399 . S
C2609 C2608 1.394 . S
C2609 C2610 1.516 . S
C2610 C2609 1.516 . S
C2610 C2611 1.502 . S
C2610 C2612 1.561 . S
C2610 C2613 1.526 . S
C2611 H2595 0.959 . S
C2611 H2596 0.959 . S
C2611 H2597 0.961 . S
C2611 C2610 1.502 . S
C2612 H2598 0.960 . S
C2612 H2599 0.961 . S
C2612 H2600 0.959 . S
C2612 C2610 1.561 . S
C2613 C2610 1.526 . S
C2613 C2614 1.396 . S
C2613 C2618 1.390 . S
C2614 C2608 1.465 . S
C2614 C2613 1.396 . S
C2614 C2615 1.399 . S
C2615 H2601 0.929 . S
C2615 C2614 1.399 . S
C2615 C2616 1.385 . S
C2616 H2602 0.931 . S
C2616 C2615 1.385 . S
C2616 C2617 1.389 . S
C2617 C2616 1.389 . S
C2617 C2618 1.387 . S
C2618 H2603 0.930 . S
C2618 C2613 1.390 . S
C2618 C2617 1.387 . S
H2619 C2631 0.930 . S
H2620 C2633 0.930 . S
H2621 C2634 0.930 . S
H2622 C2638 0.959 . S
H2623 C2638 0.959 . S
H2624 C2638 0.961 . S
H2625 C2639 0.960 . S
H2626 C2639 0.961 . S
H2627 C2639 0.959 . S
H2628 C2642 0.929 . S
H2629 C2643 0.931 . S
H2630 C2645 0.930 . S
C2631 H2619 0.930 . S
C2631 C2632 1.399 . S
C2631 C2636 1.399 . S
C2632 C2631 1.399 . S
C2632 C2633 1.376 . S
C2633 H2620 0.930 . S
C2633 C2632 1.376 . S
C2633 C2634 1.388 . S
C2634 H2621 0.930 . S
C2634 C2633 1.388 . S
C2634 C2635 1.390 . S
C2635 C2634 1.390 . S
C2635 C2636 1.394 . S
C2635 C2641 1.465 . S
C2636 C2631 1.399 . S
C2636 C2635 1.394 . S
C2636 C2637 1.516 . S
C2637 C2636 1.516 . S
C2637 C2638 1.502 . S
C2637 C2639 1.561 . S
C2637 C2640 1.526 . S
C2638 H2622 0.959 . S
C2638 H2623 0.959 . S
C2638 H2624 0.961 . S
C2638 C2637 1.502 . S
C2639 H2625 0.960 . S
C2639 H2626 0.961 . S
C2639 H2627 0.959 . S
C2639 C2637 1.561 . S
C2640 C2637 1.526 . S
C2640 C2641 1.396 . S
C2640 C2645 1.390 . S
C2641 C2635 1.465 . S
C2641 C2640 1.396 . S
C2641 C2642 1.399 . S
C2642 H2628 0.929 . S
C2642 C2641 1.399 . S
C2642 C2643 1.385 . S
C2643 H2629 0.931 . S
C2643 C2642 1.385 . S
C2643 C2644 1.389 . S
C2644 C2643 1.389 . S
C2644 C2645 1.387 . S
C2645 H2630 0.930 . S
C2645 C2640 1.390 . S
C2645 C2644 1.387 . S
H2646 C2658 0.930 . S
H2647 C2660 0.930 . S
H2648 C2661 0.930 . S
H2649 C2665 0.959 . S
H2650 C2665 0.959 . S
H2651 C2665 0.961 . S
H2652 C2666 0.960 . S
H2653 C2666 0.961 . S
H2654 C2666 0.959 . S
H2655 C2669 0.929 . S
H2656 C2670 0.931 . S
H2657 C2672 0.930 . S
C2658 H2646 0.930 . S
C2658 C2659 1.399 . S
C2658 C2663 1.399 . S
C2659 C2658 1.399 . S
C2659 C2660 1.376 . S
C2660 H2647 0.930 . S
C2660 C2659 1.376 . S
C2660 C2661 1.388 . S
C2661 H2648 0.930 . S
C2661 C2660 1.388 . S
C2661 C2662 1.390 . S
C2662 C2661 1.390 . S
C2662 C2663 1.394 . S
C2662 C2668 1.465 . S
C2663 C2658 1.399 . S
C2663 C2662 1.394 . S
C2663 C2664 1.516 . S
C2664 C2663 1.516 . S
C2664 C2665 1.502 . S
C2664 C2666 1.561 . S
C2664 C2667 1.526 . S
C2665 H2649 0.959 . S
C2665 H2650 0.959 . S
C2665 H2651 0.961 . S
C2665 C2664 1.502 . S
C2666 H2652 0.960 . S
C2666 H2653 0.961 . S
C2666 H2654 0.959 . S
C2666 C2664 1.561 . S
C2667 C2664 1.526 . S
C2667 C2668 1.396 . S
C2667 C2672 1.390 . S
C2668 C2662 1.465 . S
C2668 C2667 1.396 . S
C2668 C2669 1.399 . S
C2669 H2655 0.929 . S
C2669 C2668 1.399 . S
C2669 C2670 1.385 . S
C2670 H2656 0.931 . S
C2670 C2669 1.385 . S
C2670 C2671 1.389 . S
C2671 C2670 1.389 . S
C2671 C2672 1.387 . S
C2672 H2657 0.930 . S
C2672 C2667 1.390 . S
C2672 C2671 1.387 . S
H2673 C2685 0.930 . S
H2674 C2687 0.930 . S
H2675 C2688 0.930 . S
H2676 C2692 0.959 . S
H2677 C2692 0.959 . S
H2678 C2692 0.961 . S
H2679 C2693 0.960 . S
H2680 C2693 0.961 . S
H2681 C2693 0.959 . S
H2682 C2696 0.929 . S
H2683 C2697 0.931 . S
H2684 C2699 0.930 . S
C2685 H2673 0.930 . S
C2685 C2686 1.399 . S
C2685 C2690 1.399 . S
C2686 C2685 1.399 . S
C2686 C2687 1.376 . S
C2687 H2674 0.930 . S
C2687 C2686 1.376 . S
C2687 C2688 1.388 . S
C2688 H2675 0.930 . S
C2688 C2687 1.388 . S
C2688 C2689 1.390 . S
C2689 C2688 1.390 . S
C2689 C2690 1.394 . S
C2689 C2695 1.465 . S
C2690 C2685 1.399 . S
C2690 C2689 1.394 . S
C2690 C2691 1.516 . S
C2691 C2690 1.516 . S
C2691 C2692 1.502 . S
C2691 C2693 1.561 . S
C2691 C2694 1.526 . S
C2692 H2676 0.959 . S
C2692 H2677 0.959 . S
C2692 H2678 0.961 . S
C2692 C2691 1.502 . S
C2693 H2679 0.960 . S
C2693 H2680 0.961 . S
C2693 H2681 0.959 . S
C2693 C2691 1.561 . S
C2694 C2691 1.526 . S
C2694 C2695 1.396 . S
C2694 C2699 1.390 . S
C2695 C2689 1.465 . S
C2695 C2694 1.396 . S
C2695 C2696 1.399 . S
C2696 H2682 0.929 . S
C2696 C2695 1.399 . S
C2696 C2697 1.385 . S
C2697 H2683 0.931 . S
C2697 C2696 1.385 . S
C2697 C2698 1.389 . S
C2698 C2697 1.389 . S
C2698 C2699 1.387 . S
C2699 H2684 0.930 . S
C2699 C2694 1.390 . S
C2699 C2698 1.387 . S
H2700 C2712 0.930 . S
H2701 C2714 0.930 . S
H2702 C2715 0.930 . S
H2703 C2719 0.959 . S
H2704 C2719 0.959 . S
H2705 C2719 0.961 . S
H2706 C2720 0.960 . S
H2707 C2720 0.961 . S
H2708 C2720 0.959 . S
H2709 C2723 0.929 . S
H2710 C2724 0.931 . S
H2711 C2726 0.930 . S
C2712 H2700 0.930 . S
C2712 C2713 1.399 . S
C2712 C2717 1.399 . S
C2713 C2712 1.399 . S
C2713 C2714 1.376 . S
C2714 H2701 0.930 . S
C2714 C2713 1.376 . S
C2714 C2715 1.388 . S
C2715 H2702 0.930 . S
C2715 C2714 1.388 . S
C2715 C2716 1.390 . S
C2716 C2715 1.390 . S
C2716 C2717 1.394 . S
C2716 C2722 1.465 . S
C2717 C2712 1.399 . S
C2717 C2716 1.394 . S
C2717 C2718 1.516 . S
C2718 C2717 1.516 . S
C2718 C2719 1.502 . S
C2718 C2720 1.561 . S
C2718 C2721 1.526 . S
C2719 H2703 0.959 . S
C2719 H2704 0.959 . S
C2719 H2705 0.961 . S
C2719 C2718 1.502 . S
C2720 H2706 0.960 . S
C2720 H2707 0.961 . S
C2720 H2708 0.959 . S
C2720 C2718 1.561 . S
C2721 C2718 1.526 . S
C2721 C2722 1.396 . S
C2721 C2726 1.390 . S
C2722 C2716 1.465 . S
C2722 C2721 1.396 . S
C2722 C2723 1.399 . S
C2723 H2709 0.929 . S
C2723 C2722 1.399 . S
C2723 C2724 1.385 . S
C2724 H2710 0.931 . S
C2724 C2723 1.385 . S
C2724 C2725 1.389 . S
C2725 C2724 1.389 . S
C2725 C2726 1.387 . S
C2726 H2711 0.930 . S
C2726 C2721 1.390 . S
C2726 C2725 1.387 . S
C1282 C781 1.446 . S
C1294 C1097 1.362 . S
C1309 C871 1.374 . S
C1321 C1118 1.402 . S
C1336 C751 1.384 . S
C1348 C1140 1.182 . S
C1363 C691 1.367 . S
C1375 C1119 1.092 1_556 S
C1402 C1139 1.416 . S
C1390 C571 1.378 . S
C1417 C601 1.405 . S
C1429 C1098 1.147 1_556 S
C1456 C1093 1.330 . S
C1444 C661 1.391 . S
C1483 C1114 1.339 . S
C1471 C541 1.280 . S
C1498 C631 1.452 . S
C1510 C1137 1.289 1_556 S
C1525 C811 1.397 . S
C1537 C1116 1.253 . S
C1552 C841 1.300 . S
C1564 C1135 1.230 . S
C1591 C1095 1.252 . S
C1579 C721 1.299 . S
C1618 C1160 1.332 . S
C1606 C61 1.370 . S
C1633 C151 1.393 . S
C1645 C1181 1.375 . S
C1660 C31 1.352 . S
C1672 C1203 1.119 . S
C1687 C1051 1.342 . S
C1699 C1182 1.254 . S
C1714 C931 1.407 . S
C1726 C1202 1.377 . S
C1741 C961 1.411 . S
C1753 C1161 1.091 . S
C1768 C1021 1.286 . S
C1780 C1156 1.289 . S
C1795 C901 1.361 . S
C1807 C1177 1.302 . S
C1834 C1200 1.123 . S
C1822 C991 1.478 . S
C1849 C91 1.400 . S
C1861 C1179 1.257 . S
C1888 C1198 1.241 . S
C1876 C121 1.237 . S
C1903 C1 1.301 . S
C1915 C1158 1.237 . S
C1942 C1223 1.364 . S
C1930 C421 1.446 . S
C1957 C511 1.424 . S
C1969 C1244 1.332 . S
C1996 C1266 1.198 . S
C1984 C391 1.377 . S
C2023 C1245 1.187 . S
C2011 C331 1.396 . S
C2050 C1265 1.321 . S
C2038 C211 1.446 . S
C2065 C241 1.378 . S
C2077 C1224 1.211 . S
C2092 C301 1.319 . S
C2104 C1219 1.363 . S
C2119 C181 1.370 . S
C2131 C1240 1.337 . S
C2158 C1263 1.286 . S
C2146 C271 1.455 . S
C2173 C451 1.400 . S
C2185 C1242 1.257 . S
C2200 C481 1.308 . S
C2212 C1261 1.236 . S
C2227 C361 1.398 . S
C2239 C1221 1.108 . S
C2254 C920 1.358 . S
C2266 C1096 1.372 1_565 S
C2293 C1117 1.446 . S
C2281 C980 1.415 . S
C2308 C1040 1.430 . S
C2320 C1136 1.471 . S
C2335 C380 1.538 . S
C2347 C1115 1.481 1_655 S
C2362 C440 1.463 . S
C2374 C1138 1.372 . S
C2401 C1094 1.495 . S
C2389 C500 1.419 . S
C2416 C200 1.336 . S
C2428 C1159 1.348 . S
C2443 C260 1.458 . S
C2455 C1180 1.373 . S
C2470 C320 1.479 . S
C2482 C1199 1.442 . S
C2497 C740 1.535 . S
C2509 C1178 1.488 . S
C2536 C1201 1.383 . S
C2524 C800 1.462 . S
C2551 C860 1.454 . S
C2563 C1157 1.470 . S
C2578 C560 1.363 . S
C2590 C1222 1.376 . S
C2605 C620 1.458 . S
C2617 C1243 1.372 . S
C2644 C1262 1.434 . S
C2632 C680 1.486 . S
C2659 C20 1.469 . S
C2671 C1241 1.536 . S
C2686 C80 1.455 . S
C2698 C1264 1.373 . S
C2713 C140 1.459 . S
C2725 C1220 1.466 . S
