# Generated by pormake.
# Topology nom, (4,4)-cn, num edge types: 1
# Building blocks:
#     Node 0, Type 0, BuildingBlock: KUFVIS_clean_linker_0, # of connection points: 4
#     Node 1, Type 0, BuildingBlock: KUFVIS_clean_linker_0, # of connection points: 4
#     Node 2, Type 0, BuildingBlock: KUFVIS_clean_linker_0, # of connection points: 4
#     Node 3, Type 0, BuildingBlock: KUFVIS_clean_linker_0, # of connection points: 4
#     Node 4, Type 0, BuildingBlock: KUFVIS_clean_linker_0, # of connection points: 4
#     Node 5, Type 0, BuildingBlock: KUFVIS_clean_linker_0, # of connection points: 4
#     Node 6, Type 1, BuildingBlock: GALJAG_clean_sbu_0, # of connection points: 4
#     Node 7, Type 1, BuildingBlock: GALJAG_clean_sbu_0, # of connection points: 4
#     Node 8, Type 1, BuildingBlock: GALJAG_clean_sbu_0, # of connection points: 4
#     Node 9, Type 1, BuildingBlock: GALJAG_clean_sbu_0, # of connection points: 4
#     Node 10, Type 1, BuildingBlock: GALJAG_clean_sbu_0, # of connection points: 4
#     Node 11, Type 1, BuildingBlock: GALJAG_clean_sbu_0, # of connection points: 4
#     Edge 12, Type (0, 1), BuildingBlock: CIFDUS_clean_linker_0, # of connection points: 2
#     Edge 13, Type (0, 1), BuildingBlock: CIFDUS_clean_linker_0, # of connection points: 2
#     Edge 14, Type (0, 1), BuildingBlock: CIFDUS_clean_linker_0, # of connection points: 2
#     Edge 15, Type (0, 1), BuildingBlock: CIFDUS_clean_linker_0, # of connection points: 2
#     Edge 16, Type (0, 1), BuildingBlock: CIFDUS_clean_linker_0, # of connection points: 2
#     Edge 17, Type (0, 1), BuildingBlock: CIFDUS_clean_linker_0, # of connection points: 2
#     Edge 18, Type (0, 1), BuildingBlock: CIFDUS_clean_linker_0, # of connection points: 2
#     Edge 19, Type (0, 1), BuildingBlock: CIFDUS_clean_linker_0, # of connection points: 2
#     Edge 20, Type (0, 1), BuildingBlock: CIFDUS_clean_linker_0, # of connection points: 2
#     Edge 21, Type (0, 1), BuildingBlock: CIFDUS_clean_linker_0, # of connection points: 2
#     Edge 22, Type (0, 1), BuildingBlock: CIFDUS_clean_linker_0, # of connection points: 2
#     Edge 23, Type (0, 1), BuildingBlock: CIFDUS_clean_linker_0, # of connection points: 2
#     Edge 24, Type (0, 1), BuildingBlock: CIFDUS_clean_linker_0, # of connection points: 2
#     Edge 25, Type (0, 1), BuildingBlock: CIFDUS_clean_linker_0, # of connection points: 2
#     Edge 26, Type (0, 1), BuildingBlock: CIFDUS_clean_linker_0, # of connection points: 2
#     Edge 27, Type (0, 1), BuildingBlock: CIFDUS_clean_linker_0, # of connection points: 2
#     Edge 28, Type (0, 1), BuildingBlock: CIFDUS_clean_linker_0, # of connection points: 2
#     Edge 29, Type (0, 1), BuildingBlock: CIFDUS_clean_linker_0, # of connection points: 2
#     Edge 30, Type (0, 1), BuildingBlock: CIFDUS_clean_linker_0, # of connection points: 2
#     Edge 31, Type (0, 1), BuildingBlock: CIFDUS_clean_linker_0, # of connection points: 2
#     Edge 32, Type (0, 1), BuildingBlock: CIFDUS_clean_linker_0, # of connection points: 2
#     Edge 33, Type (0, 1), BuildingBlock: CIFDUS_clean_linker_0, # of connection points: 2
#     Edge 34, Type (0, 1), BuildingBlock: CIFDUS_clean_linker_0, # of connection points: 2
#     Edge 35, Type (0, 1), BuildingBlock: CIFDUS_clean_linker_0, # of connection points: 2
# Relax obj value: 0.012
# Max RMSD: 0.070
# Mean RMSD: 0.062
data_MOF--net-nom--node1-GALJAG_clean_sbu_0--node2-KUFVIS_clean_linker_0--edge1-CIFDUS_clean_linker_0
_symmetry_space_group_name_H-M    P1
_symmetry_Int_Tables_number       1
_symmetry_cell_setting            triclinic
loop_
_symmetry_equiv_pos_as_xyz
'x, y, z'
_cell_length_a     39.433455
_cell_length_b     39.342393
_cell_length_c     42.880597
_cell_angle_alpha  89.852095
_cell_angle_beta   90.1701
_cell_angle_gamma 120.51871
loop_
_atom_site_label
_atom_site_type_symbol
_atom_site_fract_x
_atom_site_fract_y
_atom_site_fract_z
_atom_type_partial_charge
H0 H 0.17359 0.61409 0.33704 0.0
H1 H 0.0852 0.59536 0.27005 0.0
H2 H 0.05182 0.53751 0.36001 0.0
H3 H 1.00096 0.54898 0.35218 0.0
H4 H 0.90994 0.50117 0.28296 0.0
H5 H 1.02816 0.53627 0.25662 0.0
C6 C 0.14275 0.59895 0.33047 0.0
C7 C 0.11388 0.57505 0.35217 0.0
C8 C 0.13256 0.60578 0.30087 0.0
C9 C 0.09272 0.58864 0.29265 0.0
C10 C 0.0629 0.56359 0.31382 0.0
C11 C 0.07404 0.55688 0.34351 0.0
C12 C 1.02032 0.54543 0.30541 0.0
C13 C 0.99216 0.54006 0.32825 0.0
C14 C 0.95244 0.5241 0.32013 0.0
C15 C 0.94075 0.51383 0.28915 0.0
C16 C 0.96786 0.51821 0.26624 0.0
C17 C 1.00749 0.53354 0.27443 0.0
H18 H 0.59697 0.1683 0.50892 0.0
H19 H 0.52618 0.07929 0.44211 0.0
H20 H 0.54595 0.04647 0.53407 0.0
H21 H 0.48345 0.99355 0.52424 0.0
H22 H 0.44748 0.90357 0.45477 0.0
H23 H 0.52925 0.02366 0.43016 0.0
C24 C 0.57938 0.13732 0.50272 0.0
C25 C 0.57324 0.10851 0.52471 0.0
C26 C 0.56261 0.12693 0.47306 0.0
C27 C 0.53953 0.08692 0.46505 0.0
C28 C 0.53302 0.05709 0.48689 0.0
C29 C 0.54995 0.06847 0.51692 0.0
C30 C 0.5092 1.01438 0.47824 0.0
C31 C 0.48546 0.9853 0.50054 0.0
C32 C 0.46319 0.94537 0.49196 0.0
C33 C 0.46492 0.93442 0.46132 0.0
C34 C 0.48854 0.96239 0.43903 0.0
C35 C 0.51047 1.00231 0.44746 0.0
H36 H 0.58737 0.45423 0.61655 0.0
H37 H 0.52179 0.47749 0.68421 0.0
H38 H 0.55197 0.53825 0.5954 0.0
H39 H 0.4865 0.52605 0.60428 0.0
H40 H 0.46232 0.59088 0.67203 0.0
H41 H 0.53543 0.54348 0.69741 0.0
C42 C 0.57289 0.47022 0.62346 0.0
C43 C 0.57199 0.4972 0.60269 0.0
C44 C 0.55479 0.46265 0.65271 0.0
C45 C 0.53606 0.48344 0.66167 0.0
C46 C 0.5344 0.51062 0.64092 0.0
C47 C 0.55247 0.51715 0.61142 0.0
C48 C 0.51383 0.53221 0.6497 0.0
C49 C 0.49069 0.53827 0.62754 0.0
C50 C 0.47186 0.55912 0.63575 0.0
C51 C 0.47686 0.57471 0.66572 0.0
C52 C 0.49962 0.56919 0.6879 0.0
C53 C 0.51768 0.54749 0.68009 0.0
H54 H 0.16787 0.57332 0.7801 0.0
H55 H 0.08264 0.50908 0.8507 0.0
H56 H 0.04529 0.51838 0.75734 0.0
H57 H 0.99119 0.46087 0.77045 0.0
H58 H 0.90594 0.43818 0.84133 0.0
H59 H 1.02826 0.51009 0.8632 0.0
C60 C 0.13721 0.55588 0.78697 0.0
C61 C 0.10751 0.54668 0.76503 0.0
C62 C 0.1283 0.54308 0.81779 0.0
C63 C 0.08887 0.51936 0.82682 0.0
C64 C 0.05797 0.50998 0.80525 0.0
C65 C 0.06797 0.52386 0.77422 0.0
C66 C 1.0157 0.48821 0.81546 0.0
C67 C 0.98482 0.46517 0.79416 0.0
C68 C 0.94525 0.44816 0.80328 0.0
C69 C 0.93649 0.45242 0.83405 0.0
C70 C 0.96627 0.47396 0.85573 0.0
C71 C 1.00571 0.49203 0.8464 0.0
H72 H 0.50011 0.89781 0.01282 0.0
H73 H 0.56496 0.98086 0.94054 0.0
H74 H 0.5554 0.02128 0.03227 0.0
H75 H 0.61482 0.0732 0.0194 0.0
H76 H 0.64048 0.15874 0.94761 0.0
H77 H 0.56471 0.03644 0.92679 0.0
C78 C 0.51708 0.92816 0.00489 0.0
C79 C 0.52639 0.95869 0.026 0.0
C80 C 0.52988 0.93583 0.97394 0.0
C81 C 0.55423 0.97516 0.96429 0.0
C82 C 0.56399 1.0068 0.98512 0.0
C83 C 0.54963 0.99791 0.01603 0.0
C84 C 0.58718 0.0489 0.9744 0.0
C85 C 0.61108 0.07969 -0.00448 0.0
C86 C 0.62937 0.11933 0.98606 0.0
C87 C 0.62556 0.12815 0.95515 0.0
C88 C 0.60271 0.0985 0.9338 0.0
C89 C 0.58357 0.05894 0.94334 0.0
H90 H 0.50898 0.63203 0.12343 0.0
H91 H 0.56293 0.59487 0.19202 0.0
H92 H 0.53249 0.54039 0.10059 0.0
H93 H 0.58979 0.54117 0.10792 0.0
H94 H 0.61124 0.47211 0.17325 0.0
H95 H 0.55594 0.53556 0.20469 0.0
C96 C 0.52091 0.61355 0.13015 0.0
C97 C 0.52017 0.58662 0.10872 0.0
C98 C 0.53543 0.61602 0.16036 0.0
C99 C 0.5506 0.59177 0.16891 0.0
C100 C 0.55082 0.56474 0.14724 0.0
C101 C 0.53422 0.56172 0.11739 0.0
C102 C 0.56873 0.54009 0.15505 0.0
C103 C 0.58688 0.52977 0.13138 0.0
C104 C 0.60159 0.50473 0.13783 0.0
C105 C 0.5996 0.49129 0.16828 0.0
C106 C 0.58528 0.50387 0.1928 0.0
C107 C 0.56852 0.52719 0.18595 0.0
In108 In 0.66774 0.41981 0.40245 0.0
O109 O 0.72367 0.47558 0.38784 0.0
O110 O 0.72995 0.42857 0.40552 0.0
C111 C 0.6606 0.45517 0.45369 0.0
C112 C 0.64257 0.43093 0.34688 0.0
C113 C 0.62632 0.34048 0.41312 0.0
O114 O 0.68347 0.44152 0.45268 0.0
O115 O 0.64158 0.451 0.42893 0.0
O116 O 0.61441 0.36345 0.42092 0.0
O117 O 0.65919 0.3573 0.39957 0.0
C118 C 0.74659 0.46289 0.39392 0.0
O119 O 0.66607 0.41827 0.34956 0.0
O120 O 0.62986 0.436 0.37231 0.0
In121 In 0.27663 0.65142 0.56099 0.0
O122 O 0.28341 0.60354 0.58493 0.0
O123 O 0.33142 0.64482 0.55749 0.0
C124 C 0.23662 0.61782 0.50788 0.0
C125 C 0.23173 0.63911 0.61196 0.0
C126 C 0.31441 0.7304 0.55003 0.0
O127 O 0.27161 0.62585 0.51213 0.0
O128 O 0.22209 0.62677 0.53029 0.0
O129 O 0.28076 0.70634 0.5394 0.0
O130 O 0.32947 0.71477 0.56646 0.0
C131 C 0.31745 0.61473 0.57484 0.0
O132 O 0.2657 0.66905 0.60906 0.0
O133 O 0.22056 0.61564 0.58921 0.0
In134 In 0.65018 0.271 0.73201 0.0
O135 O 0.71666 0.29247 0.72941 0.0
O136 O 0.69992 0.33254 0.74547 0.0
C137 C 0.62529 0.2157 0.68708 0.0
C138 C 0.6272 0.22684 0.78465 0.0
C139 C 0.6136 0.30977 0.71229 0.0
O140 O 0.65962 0.24564 0.68732 0.0
O141 O 0.60357 0.21396 0.70936 0.0
O142 O 0.61993 0.30714 0.74083 0.0
O143 O 0.62609 0.29348 0.69404 0.0
C144 C 0.7277 0.32658 0.73949 0.0
O145 O 0.61528 0.25016 0.77763 0.0
O146 O 0.65126 0.22653 0.76562 0.0
In147 In 0.41513 0.64283 0.8984 0.0
O148 O 0.35172 0.59161 0.90489 0.0
O149 O 0.36114 0.6393 0.87562 0.0
C150 C 0.44984 0.63267 0.94899 0.0
C151 C 0.44053 0.61775 0.84994 0.0
C152 C 0.4339 0.7178 0.91004 0.0
O153 O 0.41321 0.61211 0.94439 0.0
O154 O 0.46858 0.65819 0.92834 0.0
O155 O 0.45239 0.70966 0.89023 0.0
O156 O 0.40614 0.68827 0.92364 0.0
C157 C 0.33674 0.60653 0.88759 0.0
O158 O 0.4456 0.65207 0.85106 0.0
O159 O 0.4223 0.59622 0.87286 0.0
In160 In 0.7963 0.41603 0.0592 0.0
O161 O 0.83444 0.41592 0.09995 0.0
O162 O 0.82925 0.46655 0.09316 0.0
C163 C 0.74979 0.33854 0.04585 0.0
C164 C 0.73765 0.42962 0.07301 0.0
C165 C 0.84372 0.44562 0.00882 0.0
O166 O 0.77536 0.35002 0.06728 0.0
O167 O 0.7491 0.36587 0.03102 0.0
O168 O 0.81512 0.45073 0.01368 0.0
O169 O 0.84855 0.42555 0.02941 0.0
C170 C 0.84379 0.4501 0.10907 0.0
O171 O 0.76503 0.45139 0.05441 0.0
O172 O 0.74056 0.40189 0.08511 0.0
In173 In 0.42549 0.79402 0.23209 0.0
O174 O 0.47598 0.79325 0.20694 0.0
O175 O 0.4443 0.74815 0.24021 0.0
C176 C 0.45001 0.83505 0.28611 0.0
C177 C 0.43623 0.83877 0.18115 0.0
C178 C 0.34751 0.73995 0.23675 0.0
O179 O 0.45085 0.80391 0.2814 0.0
O180 O 0.43625 0.84521 0.26381 0.0
O181 O 0.36177 0.77543 0.2449 0.0
O182 O 0.37239 0.73196 0.22608 0.0
C183 C 0.47179 0.76288 0.22049 0.0
O184 O 0.40678 0.80447 0.18426 0.0
O185 O 0.46004 0.85041 0.20374 0.0
H186 H 0.1845 0.59174 0.27173 0.0
H187 H 0.15416 0.6813 0.28604 0.0
H188 H 0.21809 0.73157 0.265 0.0
H189 H 0.28586 0.75084 0.24926 0.0
H190 H 0.31542 0.66042 0.2349 0.0
H191 H 0.24864 0.60965 0.249 0.0
C192 C 0.19151 0.62209 0.26917 0.0
C193 C 0.16483 0.63299 0.28005 0.0
C194 C 0.22848 0.65072 0.25767 0.0
C195 C 0.17417 0.67234 0.27725 0.0
C196 C 0.21087 0.70108 0.26563 0.0
C197 C 0.27746 0.71997 0.24884 0.0
C198 C 0.30571 0.70945 0.24153 0.0
C199 C 0.23882 0.6908 0.25686 0.0
C200 C 0.29432 0.66933 0.24065 0.0
C201 C 0.25613 0.64024 0.24874 0.0
H202 H 0.5307 0.17308 0.47573 0.0
H203 H 0.6132 0.15442 0.42403 0.0
H204 H 0.63888 0.21875 0.3984 0.0
H205 H 0.64338 0.28381 0.39629 0.0
H206 H 0.56073 0.30187 0.44895 0.0
H207 H 0.5294 0.23435 0.46844 0.0
C208 C 0.55337 0.18267 0.45804 0.0
C209 C 0.56985 0.15917 0.4514 0.0
C210 C 0.56846 0.21991 0.44408 0.0
C211 C 0.59972 0.17191 0.42898 0.0
C212 C 0.61469 0.20885 0.41468 0.0
C213 C 0.61818 0.27274 0.41168 0.0
C214 C 0.6048 0.29804 0.42151 0.0
C215 C 0.60022 0.23371 0.42291 0.0
C216 C 0.57186 0.28316 0.44122 0.0
C217 C 0.55389 0.24452 0.45242 0.0
H218 H 0.39377 0.52683 0.64085 0.0
H219 H 0.49264 0.60615 0.58413 0.0
H220 H 0.45228 0.62895 0.55788 0.0
H221 H 0.39101 0.63208 0.5563 0.0
H222 H 0.29314 0.55296 0.61457 0.0
H223 H 0.33075 0.52424 0.6349 0.0
C224 C 0.40599 0.54822 0.62204 0.0
C225 C 0.44581 0.56469 0.61416 0.0
C226 C 0.38298 0.56177 0.60782 0.0
C227 C 0.46179 0.59275 0.59014 0.0
C228 C 0.43886 0.60609 0.57548 0.0
C229 C 0.37783 0.60824 0.57316 0.0
C230 C 0.33952 0.59511 0.58423 0.0
C231 C 0.39978 0.5918 0.58494 0.0
C232 C 0.32268 0.56393 0.60586 0.0
C233 C 0.34414 0.54741 0.61752 0.0
H234 H 0.88908 0.46496 0.78899 0.0
H235 H 0.92577 0.38093 0.77046 0.0
H236 H 0.86187 0.33644 0.74582 0.0
H237 H 0.79248 0.31816 0.73621 0.0
H238 H 0.75644 0.40242 0.7574 0.0
H239 H 0.82302 0.45006 0.77429 0.0
C240 C 0.88333 0.43728 0.77883 0.0
C241 C 0.91182 0.42604 0.78152 0.0
C242 C 0.84636 0.41162 0.76572 0.0
C243 C 0.90429 0.39023 0.76838 0.0
C244 C 0.86762 0.36466 0.75466 0.0
C245 C 0.79941 0.34717 0.7441 0.0
C246 C 0.76937 0.35652 0.74593 0.0
C247 C 0.8379 0.37446 0.75423 0.0
C248 C 0.77884 0.39428 0.75607 0.0
C249 C 0.81695 0.42161 0.76572 0.0
H250 H 0.45603 0.87468 0.9667 0.0
H251 H 0.57457 0.9199 0.93394 0.0
H252 H 0.55413 0.85687 0.90778 0.0
H253 H 0.50405 0.786 0.90033 0.0
H254 H 0.38739 0.7409 0.93776 0.0
H255 H 0.4056 0.80655 0.95626 0.0
C256 C 0.47734 0.87088 0.95352 0.0
C257 C 0.51685 0.90163 0.95261 0.0
C258 C 0.46576 0.8343 0.93983 0.0
C259 C 0.54397 0.89666 0.93496 0.0
C260 C 0.53235 0.86048 0.92031 0.0
C261 C 0.48255 0.79079 0.91214 0.0
C262 C 0.44451 0.75861 0.91793 0.0
C263 C 0.49359 0.82863 0.92351 0.0
C264 C 0.41693 0.7651 0.93333 0.0
C265 C 0.4273 0.80264 0.94386 0.0
H266 H 0.59119 0.43271 0.12583 0.0
H267 H 0.66051 0.55468 0.09822 0.0
H268 H 0.70733 0.54095 0.07185 0.0
H269 H 0.73396 0.49644 0.06449 0.0
H270 H 0.66733 0.37652 0.098 0.0
H271 H 0.61452 0.38732 0.11475 0.0
C272 C 0.61619 0.45612 0.1135 0.0
C273 C 0.62272 0.49472 0.11432 0.0
C274 C 0.64405 0.44853 0.10022 0.0
C275 C 0.65477 0.52468 0.09783 0.0
C276 C 0.68186 0.51694 0.08319 0.0
C277 C 0.70763 0.47262 0.07511 0.0
C278 C 0.70472 0.4359 0.08043 0.0
C279 C 0.67773 0.47937 0.0855 0.0
C280 C 0.67048 0.40521 0.09412 0.0
C281 C 0.64019 0.41129 0.10357 0.0
H282 H 0.38468 0.89812 0.48895 0.0
H283 H 0.48618 0.91987 0.54258 0.0
H284 H 0.44764 0.85528 0.56804 0.0
H285 H 0.38755 0.78884 0.56888 0.0
H286 H 0.28719 0.76766 0.51331 0.0
H287 H 0.32261 0.83559 0.49482 0.0
C288 C 0.39787 0.88915 0.50702 0.0
C289 C 0.43799 0.91354 0.51408 0.0
C290 C 0.37595 0.85165 0.52062 0.0
C291 C 0.45514 0.90168 0.53717 0.0
C292 C 0.43324 0.86454 0.55134 0.0
C293 C 0.37331 0.79931 0.55307 0.0
C294 C 0.33498 0.77298 0.54211 0.0
C295 C 0.39404 0.83861 0.54228 0.0
C296 C 0.31679 0.78709 0.52185 0.0
C297 C 0.337 0.82601 0.51126 0.0
H298 H 0.53643 0.38933 0.63599 0.0
H299 H 0.5779 0.46914 0.71408 0.0
H300 H 0.59597 0.42575 0.74167 0.0
H301 H 0.60871 0.3699 0.73987 0.0
H302 H 0.57331 0.29551 0.65831 0.0
H303 H 0.5447 0.33213 0.63557 0.0
C304 C 0.54891 0.39693 0.65928 0.0
C305 C 0.55633 0.4326 0.67283 0.0
C306 C 0.5611 0.37314 0.67405 0.0
C307 C 0.57183 0.44179 0.7032 0.0
C308 C 0.58263 0.41724 0.71876 0.0
C309 C 0.59423 0.36151 0.71733 0.0
C310 C 0.5934 0.33029 0.70062 0.0
C311 C 0.57882 0.38362 0.70387 0.0
C312 C 0.57472 0.31971 0.67141 0.0
C313 C 0.55824 0.34055 0.65844 0.0
H314 H 0.16001 0.50246 0.84441 0.0
H315 H 0.17211 0.61743 0.83858 0.0
H316 H 0.23769 0.64748 0.8618 0.0
H317 H 0.29478 0.64211 0.87688 0.0
H318 H 0.28345 0.52758 0.88429 0.0
H319 H 0.21448 0.49611 0.86747 0.0
C320 C 0.17658 0.53383 0.84936 0.0
C321 C 0.16145 0.55781 0.84004 0.0
C322 C 0.21469 0.55102 0.86225 0.0
C323 C 0.18325 0.59853 0.84593 0.0
C324 C 0.22086 0.61574 0.85884 0.0
C325 C 0.277 0.61023 0.87514 0.0
C326 C 0.29413 0.58716 0.8812 0.0
C327 C 0.23744 0.59248 0.86593 0.0
C328 C 0.27078 0.54587 0.8795 0.0
C329 C 0.23143 0.52792 0.86986 0.0
H330 H 0.61315 0.17627 -0.00274 0.0
H331 H 0.69458 0.13828 0.02208 0.0
H332 H 0.7384 0.20271 0.0465 0.0
H333 H 0.75729 0.27321 0.05392 0.0
H334 H 0.67674 0.31042 0.02341 0.0
H335 H 0.62902 0.2433 0.00794 0.0
C336 C 0.64015 0.18188 0.00864 0.0
C337 C 0.65087 0.1529 0.0078 0.0
C338 C 0.66572 0.21924 0.02101 0.0
C339 C 0.68571 0.1602 0.02266 0.0
C340 C 0.71092 0.19718 0.03622 0.0
C341 C 0.72907 0.26631 0.04424 0.0
C342 C 0.7207 0.29675 0.03941 0.0
C343 C 0.70192 0.22749 0.03446 0.0
C344 C 0.68409 0.28761 0.02686 0.0
C345 C 0.65669 0.2492 0.01813 0.0
H346 H 0.56457 0.69406 0.15301 0.0
H347 H 0.49697 0.59762 0.21611 0.0
H348 H 0.47424 0.63709 0.24344 0.0
H349 H 0.46509 0.69483 0.2433 0.0
H350 H 0.53085 0.78961 0.17801 0.0
H351 H 0.5628 0.75514 0.15763 0.0
C352 C 0.54581 0.68223 0.17337 0.0
C353 C 0.53221 0.64306 0.18251 0.0
C354 C 0.53181 0.70449 0.18807 0.0
C355 C 0.50799 0.62785 0.20886 0.0
C356 C 0.49458 0.65022 0.22416 0.0
C357 C 0.48691 0.7082 0.22499 0.0
C358 C 0.49507 0.74441 0.21182 0.0
C359 C 0.50488 0.6879 0.21304 0.0
C360 C 0.52367 0.76156 0.1883 0.0
C361 C 0.54199 0.74187 0.17662 0.0
H362 H 0.90733 0.55736 0.32307 0.0
H363 H 0.92806 0.47168 0.36817 0.0
H364 H 0.86695 0.44685 0.39805 0.0
H365 H 0.80331 0.44399 0.40561 0.0
H366 H 0.7837 0.53059 0.36017 0.0
H367 H 0.84871 0.56087 0.33648 0.0
C368 C 0.8989 0.53401 0.34014 0.0
C369 C 0.92187 0.51627 0.34355 0.0
C370 C 0.86364 0.5197 0.3568 0.0
C371 C 0.91084 0.48592 0.36549 0.0
C372 C 0.87575 0.47151 0.38228 0.0
C373 C 0.81361 0.46992 0.39099 0.0
C374 C 0.78844 0.48462 0.38432 0.0
C375 C 0.8512 0.48727 0.37728 0.0
C376 C 0.80232 0.51846 0.36554 0.0
C377 C 0.8395 0.53579 0.35188 0.0
H378 H 0.17559 0.56703 0.37065 0.0
H379 H 0.08001 0.57893 0.40657 0.0
H380 H 0.10771 0.58896 0.45901 0.0
H381 H 0.16351 0.60318 0.49313 0.0
H382 H 0.26156 0.59623 0.45634 0.0
H383 H 0.2288 0.57606 0.40565 0.0
C384 C 0.16065 0.57151 0.39001 0.0
C385 C 0.12606 0.57277 0.38458 0.0
C386 C 0.17758 0.57887 0.41983 0.0
C387 C 0.10653 0.5776 0.41004 0.0
C388 C 0.12262 0.58383 0.44 0.0
C389 C 0.17751 0.59681 0.47411 0.0
C390 C 0.2151 0.60163 0.47833 0.0
C391 C 0.15883 0.58592 0.44493 0.0
C392 C 0.23277 0.59304 0.45357 0.0
C393 C 0.21405 0.58151 0.42461 0.0
H394 H 0.53397 0.09511 0.57909 0.0
H395 H 0.65045 0.15335 0.53961 0.0
H396 H 0.6779 0.18945 0.58827 0.0
H397 H 0.6673 0.21093 0.63909 0.0
H398 H 0.55033 0.15481 0.67797 0.0
H399 H 0.52449 0.1113 0.63271 0.0
C400 C 0.56547 0.11476 0.58165 0.0
C401 C 0.59029 0.12164 0.55609 0.0
C402 C 0.58079 0.13639 0.60931 0.0
C403 C 0.63099 0.14763 0.55922 0.0
C404 C 0.64658 0.16847 0.58688 0.0
C405 C 0.63625 0.18884 0.63782 0.0
C406 C 0.61068 0.18647 0.66157 0.0
C407 C 0.62155 0.16421 0.61162 0.0
C408 C 0.57058 0.15744 0.65981 0.0
C409 C 0.55576 0.13255 0.63394 0.0
H410 H 0.46994 0.52829 0.7413 0.0
H411 H 0.53288 0.6461 0.70372 0.0
H412 H 0.52234 0.67243 0.75201 0.0
H413 H 0.4882 0.6607 0.80215 0.0
H414 H 0.42327 0.54244 0.83919 0.0
H415 H 0.44143 0.51743 0.79402 0.0
C416 C 0.48237 0.55981 0.74424 0.0
C417 C 0.50235 0.58538 0.71936 0.0
C418 C 0.47501 0.57449 0.77164 0.0
C419 C 0.51772 0.6261 0.72289 0.0
C420 C 0.51133 0.64104 0.7503 0.0
C421 C 0.47831 0.62952 0.80042 0.0
C422 C 0.454 0.60339 0.82369 0.0
C423 C 0.48881 0.61534 0.77437 0.0
C424 C 0.44177 0.56312 0.8214 0.0
C425 C 0.45218 0.54878 0.79561 0.0
H426 H 0.91525 0.49628 0.87451 0.0
H427 H 0.99132 0.45582 0.90925 0.0
H428 H 0.962 0.4463 0.96123 0.0
H429 H 0.90911 0.44199 -0.00526 0.0
H430 H 0.83243 0.48144 0.95891 0.0
H431 H 0.8675 0.49876 0.90936 0.0
C432 C 0.9258 0.48601 0.89367 0.0
C433 C 0.95501 0.47636 0.88818 0.0
C434 C 0.90827 0.47986 0.92308 0.0
C435 C 0.96891 0.46354 0.91308 0.0
C436 C 0.95188 0.45773 0.94265 0.0
C437 C 0.90041 0.45479 0.97618 0.0
C438 C 0.86789 0.45991 0.9803 0.0
C439 C 0.92064 0.46456 0.94762 0.0
C440 C 0.85717 0.47691 0.95622 0.0
C441 C 0.87718 0.48682 0.92787 0.0
H442 H 0.45303 0.9045 0.04513 0.0
H443 H 0.5683 0.98929 0.07986 0.0
H444 H 0.54862 0.9622 0.13254 0.0
H445 H 0.50173 0.9085 0.16678 0.0
H446 H 0.38819 0.82103 0.13061 0.0
H447 H 0.40418 0.85484 0.08031 0.0
C448 C 0.47369 0.91732 0.06434 0.0
C449 C 0.51224 0.94839 0.05859 0.0
C450 C 0.46266 0.90067 0.09414 0.0
C451 C 0.53846 0.96537 0.08373 0.0
C452 C 0.52734 0.94961 0.11375 0.0
C453 C 0.48029 0.89718 0.14801 0.0
C454 C 0.44402 0.86205 0.15225 0.0
C455 C 0.49001 0.91633 0.11895 0.0
C456 C 0.41644 0.84781 0.12782 0.0
C457 C 0.42556 0.86712 0.09906 0.0
H458 H 0.64894 0.50397 0.21587 0.0
H459 H 0.53407 0.48159 0.24299 0.0
H460 H 0.54199 0.45802 0.29412 0.0
H461 H 0.58059 0.43987 0.32968 0.0
H462 H 0.6907 0.45426 0.29719 0.0
H463 H 0.68463 0.48299 0.24874 0.0
C464 C 0.6251 0.49325 0.23262 0.0
C465 C 0.59052 0.49365 0.22523 0.0
C466 C 0.62875 0.47754 0.26076 0.0
C467 C 0.56098 0.48154 0.24798 0.0
C468 C 0.56533 0.46764 0.27705 0.0
C469 C 0.60295 0.44904 0.31179 0.0
C470 C 0.63592 0.44477 0.31683 0.0
C471 C 0.5988 0.46474 0.28344 0.0
C472 C 0.66482 0.45675 0.29364 0.0
C473 C 0.66157 0.47352 0.26606 0.0
H474 H 0.49879 0.90218 0.42208 0.0
H475 H 0.47826 0.9918 0.38425 0.0
H476 H 0.46668 0.96137 0.33254 0.0
H477 H 0.4558 0.90531 0.29964 0.0
H478 H 0.4746 0.81487 0.33857 0.0
H479 H 0.493 0.84934 0.38849 0.0
C480 C 0.49217 0.91524 0.40239 0.0
C481 C 0.48892 0.94885 0.40691 0.0
C482 C 0.48462 0.89708 0.37314 0.0
C483 C 0.48103 0.96599 0.38124 0.0
C484 C 0.47402 0.94837 0.3518 0.0
C485 C 0.46415 0.89332 0.31902 0.0
C486 C 0.46338 0.85736 0.31558 0.0
C487 C 0.47462 0.91326 0.34772 0.0
C488 C 0.47468 0.84234 0.34073 0.0
C489 C 0.48525 0.86204 0.36926 0.0
H490 H 0.64254 0.50492 0.58864 0.0
H491 H 0.54012 0.49849 0.54621 0.0
H492 H 0.56173 0.48987 0.49492 0.0
H493 H 0.60422 0.474 0.46379 0.0
H494 H 0.70296 0.47412 0.50763 0.0
H495 H 0.688 0.49476 0.55686 0.0
C496 C 0.62517 0.50207 0.56809 0.0
C497 C 0.58945 0.50164 0.57126 0.0
C498 C 0.63672 0.49518 0.53907 0.0
C499 C 0.56775 0.49896 0.54439 0.0
C500 C 0.57985 0.49353 0.51513 0.0
C501 C 0.62278 0.4791 0.48402 0.0
C502 C 0.65436 0.47211 0.48224 0.0
C503 C 0.61341 0.48998 0.51243 0.0
C504 C 0.67825 0.47893 0.50855 0.0
C505 C 0.66974 0.49076 0.53667 0.0
H506 H 0.16248 0.6203 0.7467 0.0
H507 H 0.07881 0.50523 0.71074 0.0
H508 H 0.10762 0.5255 0.65864 0.0
H509 H 0.16214 0.57297 0.62536 0.0
H510 H 0.2484 0.68629 0.66287 0.0
H511 H 0.2133 0.66953 0.7125 0.0
C512 C 0.15031 0.59978 0.72735 0.0
C513 C 0.11901 0.56113 0.73259 0.0
C514 C 0.16793 0.61114 0.69794 0.0
C515 C 0.10288 0.53514 0.70726 0.0
C516 C 0.11962 0.5466 0.67758 0.0
C517 C 0.17296 0.59418 0.64428 0.0
C518 C 0.20806 0.63065 0.64061 0.0
C519 C 0.15303 0.58404 0.67294 0.0
C520 C 0.22164 0.65791 0.66523 0.0
C521 C 0.20159 0.64836 0.69359 0.0
H522 H 0.5775 0.14795 0.91706 0.0
H523 H 0.62217 0.07693 0.8794 0.0
H524 H 0.63182 0.10933 0.82854 0.0
H525 H 0.63476 0.16337 0.7971 0.0
H526 H 0.59041 0.23458 0.8354 0.0
H527 H 0.57358 0.19678 0.88394 0.0
C528 C 0.58852 0.13904 0.89744 0.0
C529 C 0.59935 0.11039 0.90176 0.0
C530 C 0.59476 0.15837 0.86873 0.0
C531 C 0.61344 0.09878 0.87638 0.0
C532 C 0.61937 0.11762 0.8475 0.0
C533 C 0.62118 0.1704 0.81603 0.0
C534 C 0.6144 0.20209 0.81296 0.0
C535 C 0.61139 0.14839 0.84377 0.0
C536 C 0.59618 0.21051 0.83737 0.0
C537 C 0.58653 0.18891 0.86508 0.0
H538 H 0.55117 0.64495 0.06652 0.0
H539 H 0.45467 0.52673 0.08125 0.0
H540 H 0.42402 0.53002 0.03224 0.0
H541 H 0.42286 0.56888 0.98724 0.0
H542 H 0.52108 0.68651 0.97234 0.0
H543 H 0.55303 0.68129 0.01943 0.0
C544 C 0.52375 0.61976 0.0586 0.0
C545 C 0.50499 0.5857 0.07713 0.0
C546 C 0.5065 0.62201 0.03069 0.0
C547 C 0.46956 0.55308 0.067 0.0
C548 C 0.45198 0.55512 0.03921 0.0
C549 C 0.4513 0.59323 -0.00567 0.0
C550 C 0.46943 0.62819 0.97667 0.0
C551 C 0.46981 0.5898 0.02121 0.0
C552 C 0.50653 0.65937 0.9857 0.0
C553 C 0.52481 0.65643 0.01259 0.0
H554 H 0.9296 0.54434 0.23057 0.0
H555 H 0.97303 0.46362 0.23051 0.0
H556 H 0.93899 0.43539 0.18094 0.0
H557 H 0.89239 0.43057 0.13981 0.0
H558 H 0.85073 0.51301 0.14029 0.0
H559 H 0.88835 0.54358 0.18754 0.0
C560 C 0.93203 0.52096 0.21937 0.0
C561 C 0.95352 0.50588 0.234 0.0
C562 C 0.91226 0.50488 0.19123 0.0
C563 C 0.95679 0.47577 0.21941 0.0
C564 C 0.93706 0.45945 0.19129 0.0
C565 C 0.89176 0.45532 0.15025 0.0
C566 C 0.86849 0.46924 0.1368 0.0
C567 C 0.91394 0.47318 0.17735 0.0
C568 C 0.8683 0.50166 0.15026 0.0
C569 C 0.8898 0.51919 0.17729 0.0
loop_
_geom_bond_atom_site_label_1
_geom_bond_atom_site_label_2
_geom_bond_distance
_geom_bond_site_symmetry_2
_ccdc_geom_bond_type
H0 C6 0.930 . S
H1 C9 0.931 . S
H2 C11 0.931 . S
H3 C13 0.930 . S
H4 C15 0.930 . S
H5 C17 0.931 1_455 S
C6 H0 0.930 . S
C6 C7 1.380 . S
C6 C8 1.394 . S
C7 C6 1.380 . S
C7 C11 1.382 . S
C8 C6 1.394 . S
C8 C9 1.400 . S
C9 H1 0.931 . S
C9 C8 1.400 . S
C9 C10 1.375 . S
C10 C9 1.375 . S
C10 C11 1.415 . S
C10 C12 1.501 1_455 S
C11 H2 0.931 . S
C11 C7 1.382 . S
C11 C10 1.415 . S
C12 C10 1.501 1_655 S
C12 C13 1.384 . S
C12 C17 1.408 . S
C13 H3 0.930 . S
C13 C12 1.384 . S
C13 C14 1.389 . S
C14 C13 1.389 . S
C14 C15 1.405 . S
C15 H4 0.930 . S
C15 C14 1.405 . S
C15 C16 1.364 . S
C16 C15 1.364 . S
C16 C17 1.400 . S
C17 H5 0.931 1_655 S
C17 C12 1.408 . S
C17 C16 1.400 . S
H18 C24 0.930 . S
H19 C27 0.931 . S
H20 C29 0.931 . S
H21 C31 0.930 . S
H22 C33 0.930 . S
H23 C35 0.931 1_545 S
C24 H18 0.930 . S
C24 C25 1.380 . S
C24 C26 1.394 . S
C25 C24 1.380 . S
C25 C29 1.382 . S
C26 C24 1.394 . S
C26 C27 1.400 . S
C27 H19 0.931 . S
C27 C26 1.400 . S
C27 C28 1.375 . S
C28 C27 1.375 . S
C28 C29 1.415 . S
C28 C30 1.501 1_545 S
C29 H20 0.931 . S
C29 C25 1.382 . S
C29 C28 1.415 . S
C30 C28 1.501 1_565 S
C30 C31 1.384 . S
C30 C35 1.408 . S
C31 H21 0.930 . S
C31 C30 1.384 . S
C31 C32 1.389 . S
C32 C31 1.389 . S
C32 C33 1.405 . S
C33 H22 0.930 . S
C33 C32 1.405 . S
C33 C34 1.364 . S
C34 C33 1.364 . S
C34 C35 1.400 . S
C35 H23 0.931 1_565 S
C35 C30 1.408 . S
C35 C34 1.400 . S
H36 C42 0.930 . S
H37 C45 0.931 . S
H38 C47 0.931 . S
H39 C49 0.930 . S
H40 C51 0.930 . S
H41 C53 0.931 . S
C42 H36 0.930 . S
C42 C43 1.380 . S
C42 C44 1.394 . S
C43 C42 1.380 . S
C43 C47 1.382 . S
C44 C42 1.394 . S
C44 C45 1.400 . S
C45 H37 0.931 . S
C45 C44 1.400 . S
C45 C46 1.375 . S
C46 C45 1.375 . S
C46 C47 1.415 . S
C46 C48 1.501 . S
C47 H38 0.931 . S
C47 C43 1.382 . S
C47 C46 1.415 . S
C48 C46 1.501 . S
C48 C49 1.384 . S
C48 C53 1.408 . S
C49 H39 0.930 . S
C49 C48 1.384 . S
C49 C50 1.389 . S
C50 C49 1.389 . S
C50 C51 1.405 . S
C51 H40 0.930 . S
C51 C50 1.405 . S
C51 C52 1.364 . S
C52 C51 1.364 . S
C52 C53 1.400 . S
C53 H41 0.931 . S
C53 C48 1.408 . S
C53 C52 1.400 . S
H54 C60 0.930 . S
H55 C63 0.931 . S
H56 C65 0.931 . S
H57 C67 0.930 . S
H58 C69 0.930 . S
H59 C71 0.931 1_455 S
C60 H54 0.930 . S
C60 C61 1.380 . S
C60 C62 1.394 . S
C61 C60 1.380 . S
C61 C65 1.382 . S
C62 C60 1.394 . S
C62 C63 1.400 . S
C63 H55 0.931 . S
C63 C62 1.400 . S
C63 C64 1.375 . S
C64 C63 1.375 . S
C64 C65 1.415 . S
C64 C66 1.501 1_455 S
C65 H56 0.931 . S
C65 C61 1.382 . S
C65 C64 1.415 . S
C66 C64 1.501 1_655 S
C66 C67 1.384 . S
C66 C71 1.408 . S
C67 H57 0.930 . S
C67 C66 1.384 . S
C67 C68 1.389 . S
C68 C67 1.389 . S
C68 C69 1.405 . S
C69 H58 0.930 . S
C69 C68 1.405 . S
C69 C70 1.364 . S
C70 C69 1.364 . S
C70 C71 1.400 . S
C71 H59 0.931 1_655 S
C71 C66 1.408 . S
C71 C70 1.400 . S
H72 C78 0.930 . S
H73 C81 0.931 . S
H74 C83 0.931 1_545 S
H75 C85 0.930 . S
H76 C87 0.930 . S
H77 C89 0.931 . S
C78 H72 0.930 . S
C78 C79 1.380 . S
C78 C80 1.394 1_554 S
C79 C78 1.380 . S
C79 C83 1.382 . S
C80 C78 1.394 1_556 S
C80 C81 1.400 . S
C81 H73 0.931 . S
C81 C80 1.400 . S
C81 C82 1.375 . S
C82 C81 1.375 . S
C82 C83 1.415 1_556 S
C82 C84 1.501 1_565 S
C83 H74 0.931 1_565 S
C83 C79 1.382 . S
C83 C82 1.415 1_554 S
C84 C82 1.501 1_545 S
C84 C85 1.384 1_556 S
C84 C89 1.408 . S
C85 H75 0.930 . S
C85 C84 1.384 1_554 S
C85 C86 1.389 1_554 S
C86 C85 1.389 1_556 S
C86 C87 1.405 . S
C87 H76 0.930 . S
C87 C86 1.405 . S
C87 C88 1.364 . S
C88 C87 1.364 . S
C88 C89 1.400 . S
C89 H77 0.931 . S
C89 C84 1.408 . S
C89 C88 1.400 . S
H90 C96 0.930 . S
H91 C99 0.931 . S
H92 C101 0.931 . S
H93 C103 0.930 . S
H94 C105 0.930 . S
H95 C107 0.931 . S
C96 H90 0.930 . S
C96 C97 1.380 . S
C96 C98 1.394 . S
C97 C96 1.380 . S
C97 C101 1.382 . S
C98 C96 1.394 . S
C98 C99 1.400 . S
C99 H91 0.931 . S
C99 C98 1.400 . S
C99 C100 1.375 . S
C100 C99 1.375 . S
C100 C101 1.415 . S
C100 C102 1.501 . S
C101 H92 0.931 . S
C101 C97 1.382 . S
C101 C100 1.415 . S
C102 C100 1.501 . S
C102 C103 1.384 . S
C102 C107 1.408 . S
C103 H93 0.930 . S
C103 C102 1.384 . S
C103 C104 1.389 . S
C104 C103 1.389 . S
C104 C105 1.405 . S
C105 H94 0.930 . S
C105 C104 1.405 . S
C105 C106 1.364 . S
C106 C105 1.364 . S
C106 C107 1.400 . S
C107 H95 0.931 . S
C107 C102 1.408 . S
C107 C106 1.400 . S
In108 O109 2.294 . S
In108 O110 2.326 . S
In108 O114 2.266 . S
In108 O115 2.326 . S
In108 O116 2.266 . S
In108 O117 2.326 . S
In108 O119 2.294 . S
In108 O120 2.326 . S
O109 In108 2.294 . S
O109 C118 1.240 . S
O110 In108 2.326 . S
O110 C118 1.252 . S
C111 O114 1.252 . S
C111 O115 1.260 . S
C112 O119 1.240 . S
C112 O120 1.252 . S
C113 O116 1.252 . S
C113 O117 1.260 . S
O114 In108 2.266 . S
O114 C111 1.252 . S
O115 In108 2.326 . S
O115 C111 1.260 . S
O116 In108 2.266 . S
O116 C113 1.252 . S
O117 In108 2.326 . S
O117 C113 1.260 . S
C118 O109 1.240 . S
C118 O110 1.252 . S
O119 In108 2.294 . S
O119 C112 1.240 . S
O120 In108 2.326 . S
O120 C112 1.252 . S
In121 O122 2.294 . S
In121 O123 2.326 . S
In121 O127 2.266 . S
In121 O128 2.326 . S
In121 O129 2.266 . S
In121 O130 2.326 . S
In121 O132 2.294 . S
In121 O133 2.326 . S
O122 In121 2.294 . S
O122 C131 1.240 . S
O123 In121 2.326 . S
O123 C131 1.252 . S
C124 O127 1.252 . S
C124 O128 1.260 . S
C125 O132 1.240 . S
C125 O133 1.252 . S
C126 O129 1.252 . S
C126 O130 1.260 . S
O127 In121 2.266 . S
O127 C124 1.252 . S
O128 In121 2.326 . S
O128 C124 1.260 . S
O129 In121 2.266 . S
O129 C126 1.252 . S
O130 In121 2.326 . S
O130 C126 1.260 . S
C131 O122 1.240 . S
C131 O123 1.252 . S
O132 In121 2.294 . S
O132 C125 1.240 . S
O133 In121 2.326 . S
O133 C125 1.252 . S
In134 O135 2.294 . S
In134 O136 2.326 . S
In134 O140 2.266 . S
In134 O141 2.326 . S
In134 O142 2.266 . S
In134 O143 2.326 . S
In134 O145 2.294 . S
In134 O146 2.326 . S
O135 In134 2.294 . S
O135 C144 1.240 . S
O136 In134 2.326 . S
O136 C144 1.252 . S
C137 O140 1.252 . S
C137 O141 1.260 . S
C138 O145 1.240 . S
C138 O146 1.252 . S
C139 O142 1.252 . S
C139 O143 1.260 . S
O140 In134 2.266 . S
O140 C137 1.252 . S
O141 In134 2.326 . S
O141 C137 1.260 . S
O142 In134 2.266 . S
O142 C139 1.252 . S
O143 In134 2.326 . S
O143 C139 1.260 . S
C144 O135 1.240 . S
C144 O136 1.252 . S
O145 In134 2.294 . S
O145 C138 1.240 . S
O146 In134 2.326 . S
O146 C138 1.252 . S
In147 O148 2.294 . S
In147 O149 2.326 . S
In147 O153 2.266 . S
In147 O154 2.326 . S
In147 O155 2.266 . S
In147 O156 2.326 . S
In147 O158 2.294 . S
In147 O159 2.326 . S
O148 In147 2.294 . S
O148 C157 1.240 . S
O149 In147 2.326 . S
O149 C157 1.252 . S
C150 O153 1.252 . S
C150 O154 1.260 . S
C151 O158 1.240 . S
C151 O159 1.252 . S
C152 O155 1.252 . S
C152 O156 1.260 . S
O153 In147 2.266 . S
O153 C150 1.252 . S
O154 In147 2.326 . S
O154 C150 1.260 . S
O155 In147 2.266 . S
O155 C152 1.252 . S
O156 In147 2.326 . S
O156 C152 1.260 . S
C157 O148 1.240 . S
C157 O149 1.252 . S
O158 In147 2.294 . S
O158 C151 1.240 . S
O159 In147 2.326 . S
O159 C151 1.252 . S
In160 O161 2.294 . S
In160 O162 2.326 . S
In160 O166 2.266 . S
In160 O167 2.326 . S
In160 O168 2.266 . S
In160 O169 2.326 . S
In160 O171 2.294 . S
In160 O172 2.326 . S
O161 In160 2.294 . S
O161 C170 1.240 . S
O162 In160 2.326 . S
O162 C170 1.252 . S
C163 O166 1.252 . S
C163 O167 1.260 . S
C164 O171 1.240 . S
C164 O172 1.252 . S
C165 O168 1.252 . S
C165 O169 1.260 . S
O166 In160 2.266 . S
O166 C163 1.252 . S
O167 In160 2.326 . S
O167 C163 1.260 . S
O168 In160 2.266 . S
O168 C165 1.252 . S
O169 In160 2.326 . S
O169 C165 1.260 . S
C170 O161 1.240 . S
C170 O162 1.252 . S
O171 In160 2.294 . S
O171 C164 1.240 . S
O172 In160 2.326 . S
O172 C164 1.252 . S
In173 O174 2.294 . S
In173 O175 2.326 . S
In173 O179 2.266 . S
In173 O180 2.326 . S
In173 O181 2.266 . S
In173 O182 2.326 . S
In173 O184 2.294 . S
In173 O185 2.326 . S
O174 In173 2.294 . S
O174 C183 1.240 . S
O175 In173 2.326 . S
O175 C183 1.252 . S
C176 O179 1.252 . S
C176 O180 1.260 . S
C177 O184 1.240 . S
C177 O185 1.252 . S
C178 O181 1.252 . S
C178 O182 1.260 . S
O179 In173 2.266 . S
O179 C176 1.252 . S
O180 In173 2.326 . S
O180 C176 1.260 . S
O181 In173 2.266 . S
O181 C178 1.252 . S
O182 In173 2.326 . S
O182 C178 1.260 . S
C183 O174 1.240 . S
C183 O175 1.252 . S
O184 In173 2.294 . S
O184 C177 1.240 . S
O185 In173 2.326 . S
O185 C177 1.252 . S
H186 C192 0.930 . S
H187 C195 0.930 . S
H188 C196 0.930 . S
H189 C197 0.930 . S
H190 C200 0.930 . S
H191 C201 0.930 . S
C192 H186 0.930 . S
C192 C193 1.355 . S
C192 C194 1.415 . S
C193 C192 1.355 . S
C193 C195 1.419 . S
C194 C192 1.415 . S
C194 C199 1.425 . S
C194 C201 1.409 . S
C195 H187 0.930 . S
C195 C193 1.419 . S
C195 C196 1.362 . S
C196 H188 0.930 . S
C196 C195 1.362 . S
C196 C199 1.409 . S
C197 H189 0.930 . S
C197 C198 1.355 . S
C197 C199 1.415 . S
C198 C197 1.355 . S
C198 C200 1.419 . S
C199 C194 1.425 . S
C199 C196 1.409 . S
C199 C197 1.415 . S
C200 H190 0.930 . S
C200 C198 1.419 . S
C200 C201 1.362 . S
C201 H191 0.930 . S
C201 C194 1.409 . S
C201 C200 1.362 . S
H202 C208 0.930 . S
H203 C211 0.930 . S
H204 C212 0.930 . S
H205 C213 0.930 . S
H206 C216 0.930 . S
H207 C217 0.930 . S
C208 H202 0.930 . S
C208 C209 1.355 . S
C208 C210 1.415 . S
C209 C208 1.355 . S
C209 C211 1.419 . S
C210 C208 1.415 . S
C210 C215 1.425 . S
C210 C217 1.409 . S
C211 H203 0.930 . S
C211 C209 1.419 . S
C211 C212 1.362 . S
C212 H204 0.930 . S
C212 C211 1.362 . S
C212 C215 1.409 . S
C213 H205 0.930 . S
C213 C214 1.355 . S
C213 C215 1.415 . S
C214 C213 1.355 . S
C214 C216 1.419 . S
C215 C210 1.425 . S
C215 C212 1.409 . S
C215 C213 1.415 . S
C216 H206 0.930 . S
C216 C214 1.419 . S
C216 C217 1.362 . S
C217 H207 0.930 . S
C217 C210 1.409 . S
C217 C216 1.362 . S
H218 C224 0.930 . S
H219 C227 0.930 . S
H220 C228 0.930 . S
H221 C229 0.930 . S
H222 C232 0.930 . S
H223 C233 0.930 . S
C224 H218 0.930 . S
C224 C225 1.355 . S
C224 C226 1.415 . S
C225 C224 1.355 . S
C225 C227 1.419 . S
C226 C224 1.415 . S
C226 C231 1.425 . S
C226 C233 1.409 . S
C227 H219 0.930 . S
C227 C225 1.419 . S
C227 C228 1.362 . S
C228 H220 0.930 . S
C228 C227 1.362 . S
C228 C231 1.409 . S
C229 H221 0.930 . S
C229 C230 1.355 . S
C229 C231 1.415 . S
C230 C229 1.355 . S
C230 C232 1.419 . S
C231 C226 1.425 . S
C231 C228 1.409 . S
C231 C229 1.415 . S
C232 H222 0.930 . S
C232 C230 1.419 . S
C232 C233 1.362 . S
C233 H223 0.930 . S
C233 C226 1.409 . S
C233 C232 1.362 . S
H234 C240 0.930 . S
H235 C243 0.930 . S
H236 C244 0.930 . S
H237 C245 0.930 . S
H238 C248 0.930 . S
H239 C249 0.930 . S
C240 H234 0.930 . S
C240 C241 1.355 . S
C240 C242 1.415 . S
C241 C240 1.355 . S
C241 C243 1.419 . S
C242 C240 1.415 . S
C242 C247 1.425 . S
C242 C249 1.409 . S
C243 H235 0.930 . S
C243 C241 1.419 . S
C243 C244 1.362 . S
C244 H236 0.930 . S
C244 C243 1.362 . S
C244 C247 1.409 . S
C245 H237 0.930 . S
C245 C246 1.355 . S
C245 C247 1.415 . S
C246 C245 1.355 . S
C246 C248 1.419 . S
C247 C242 1.425 . S
C247 C244 1.409 . S
C247 C245 1.415 . S
C248 H238 0.930 . S
C248 C246 1.419 . S
C248 C249 1.362 . S
C249 H239 0.930 . S
C249 C242 1.409 . S
C249 C248 1.362 . S
H250 C256 0.930 . S
H251 C259 0.930 . S
H252 C260 0.930 . S
H253 C261 0.930 . S
H254 C264 0.930 . S
H255 C265 0.930 . S
C256 H250 0.930 . S
C256 C257 1.355 . S
C256 C258 1.415 . S
C257 C256 1.355 . S
C257 C259 1.419 . S
C258 C256 1.415 . S
C258 C263 1.425 . S
C258 C265 1.409 . S
C259 H251 0.930 . S
C259 C257 1.419 . S
C259 C260 1.362 . S
C260 H252 0.930 . S
C260 C259 1.362 . S
C260 C263 1.409 . S
C261 H253 0.930 . S
C261 C262 1.355 . S
C261 C263 1.415 . S
C262 C261 1.355 . S
C262 C264 1.419 . S
C263 C258 1.425 . S
C263 C260 1.409 . S
C263 C261 1.415 . S
C264 H254 0.930 . S
C264 C262 1.419 . S
C264 C265 1.362 . S
C265 H255 0.930 . S
C265 C258 1.409 . S
C265 C264 1.362 . S
H266 C272 0.930 . S
H267 C275 0.930 . S
H268 C276 0.930 . S
H269 C277 0.930 . S
H270 C280 0.930 . S
H271 C281 0.930 . S
C272 H266 0.930 . S
C272 C273 1.355 . S
C272 C274 1.415 . S
C273 C272 1.355 . S
C273 C275 1.419 . S
C274 C272 1.415 . S
C274 C279 1.425 . S
C274 C281 1.409 . S
C275 H267 0.930 . S
C275 C273 1.419 . S
C275 C276 1.362 . S
C276 H268 0.930 . S
C276 C275 1.362 . S
C276 C279 1.409 . S
C277 H269 0.930 . S
C277 C278 1.355 . S
C277 C279 1.415 . S
C278 C277 1.355 . S
C278 C280 1.419 . S
C279 C274 1.425 . S
C279 C276 1.409 . S
C279 C277 1.415 . S
C280 H270 0.930 . S
C280 C278 1.419 . S
C280 C281 1.362 . S
C281 H271 0.930 . S
C281 C274 1.409 . S
C281 C280 1.362 . S
H282 C288 0.930 . S
H283 C291 0.930 . S
H284 C292 0.930 . S
H285 C293 0.930 . S
H286 C296 0.930 . S
H287 C297 0.930 . S
C288 H282 0.930 . S
C288 C289 1.355 . S
C288 C290 1.415 . S
C289 C288 1.355 . S
C289 C291 1.419 . S
C290 C288 1.415 . S
C290 C295 1.425 . S
C290 C297 1.409 . S
C291 H283 0.930 . S
C291 C289 1.419 . S
C291 C292 1.362 . S
C292 H284 0.930 . S
C292 C291 1.362 . S
C292 C295 1.409 . S
C293 H285 0.930 . S
C293 C294 1.355 . S
C293 C295 1.415 . S
C294 C293 1.355 . S
C294 C296 1.419 . S
C295 C290 1.425 . S
C295 C292 1.409 . S
C295 C293 1.415 . S
C296 H286 0.930 . S
C296 C294 1.419 . S
C296 C297 1.362 . S
C297 H287 0.930 . S
C297 C290 1.409 . S
C297 C296 1.362 . S
H298 C304 0.930 . S
H299 C307 0.930 . S
H300 C308 0.930 . S
H301 C309 0.930 . S
H302 C312 0.930 . S
H303 C313 0.930 . S
C304 H298 0.930 . S
C304 C305 1.355 . S
C304 C306 1.415 . S
C305 C304 1.355 . S
C305 C307 1.419 . S
C306 C304 1.415 . S
C306 C311 1.425 . S
C306 C313 1.409 . S
C307 H299 0.930 . S
C307 C305 1.419 . S
C307 C308 1.362 . S
C308 H300 0.930 . S
C308 C307 1.362 . S
C308 C311 1.409 . S
C309 H301 0.930 . S
C309 C310 1.355 . S
C309 C311 1.415 . S
C310 C309 1.355 . S
C310 C312 1.419 . S
C311 C306 1.425 . S
C311 C308 1.409 . S
C311 C309 1.415 . S
C312 H302 0.930 . S
C312 C310 1.419 . S
C312 C313 1.362 . S
C313 H303 0.930 . S
C313 C306 1.409 . S
C313 C312 1.362 . S
H314 C320 0.930 . S
H315 C323 0.930 . S
H316 C324 0.930 . S
H317 C325 0.930 . S
H318 C328 0.930 . S
H319 C329 0.930 . S
C320 H314 0.930 . S
C320 C321 1.355 . S
C320 C322 1.415 . S
C321 C320 1.355 . S
C321 C323 1.419 . S
C322 C320 1.415 . S
C322 C327 1.425 . S
C322 C329 1.409 . S
C323 H315 0.930 . S
C323 C321 1.419 . S
C323 C324 1.362 . S
C324 H316 0.930 . S
C324 C323 1.362 . S
C324 C327 1.409 . S
C325 H317 0.930 . S
C325 C326 1.355 . S
C325 C327 1.415 . S
C326 C325 1.355 . S
C326 C328 1.419 . S
C327 C322 1.425 . S
C327 C324 1.409 . S
C327 C325 1.415 . S
C328 H318 0.930 . S
C328 C326 1.419 . S
C328 C329 1.362 . S
C329 H319 0.930 . S
C329 C322 1.409 . S
C329 C328 1.362 . S
H330 C336 0.930 . S
H331 C339 0.930 . S
H332 C340 0.930 . S
H333 C341 0.930 . S
H334 C344 0.930 . S
H335 C345 0.930 . S
C336 H330 0.930 . S
C336 C337 1.355 . S
C336 C338 1.415 . S
C337 C336 1.355 . S
C337 C339 1.419 1_554 S
C338 C336 1.415 . S
C338 C343 1.425 . S
C338 C345 1.409 . S
C339 H331 0.930 . S
C339 C337 1.419 1_556 S
C339 C340 1.362 . S
C340 H332 0.930 . S
C340 C339 1.362 . S
C340 C343 1.409 1_556 S
C341 H333 0.930 . S
C341 C342 1.355 . S
C341 C343 1.415 . S
C342 C341 1.355 . S
C342 C344 1.419 . S
C343 C338 1.425 . S
C343 C340 1.409 1_554 S
C343 C341 1.415 . S
C344 H334 0.930 . S
C344 C342 1.419 . S
C344 C345 1.362 . S
C345 H335 0.930 . S
C345 C338 1.409 . S
C345 C344 1.362 . S
H346 C352 0.930 . S
H347 C355 0.930 . S
H348 C356 0.930 . S
H349 C357 0.930 . S
H350 C360 0.930 . S
H351 C361 0.930 . S
C352 H346 0.930 . S
C352 C353 1.355 . S
C352 C354 1.415 . S
C353 C352 1.355 . S
C353 C355 1.419 . S
C354 C352 1.415 . S
C354 C359 1.425 . S
C354 C361 1.409 . S
C355 H347 0.930 . S
C355 C353 1.419 . S
C355 C356 1.362 . S
C356 H348 0.930 . S
C356 C355 1.362 . S
C356 C359 1.409 . S
C357 H349 0.930 . S
C357 C358 1.355 . S
C357 C359 1.415 . S
C358 C357 1.355 . S
C358 C360 1.419 . S
C359 C354 1.425 . S
C359 C356 1.409 . S
C359 C357 1.415 . S
C360 H350 0.930 . S
C360 C358 1.419 . S
C360 C361 1.362 . S
C361 H351 0.930 . S
C361 C354 1.409 . S
C361 C360 1.362 . S
H362 C368 0.930 . S
H363 C371 0.930 . S
H364 C372 0.930 . S
H365 C373 0.930 . S
H366 C376 0.930 . S
H367 C377 0.930 . S
C368 H362 0.930 . S
C368 C369 1.355 . S
C368 C370 1.415 . S
C369 C368 1.355 . S
C369 C371 1.419 . S
C370 C368 1.415 . S
C370 C375 1.425 . S
C370 C377 1.409 . S
C371 H363 0.930 . S
C371 C369 1.419 . S
C371 C372 1.362 . S
C372 H364 0.930 . S
C372 C371 1.362 . S
C372 C375 1.409 . S
C373 H365 0.930 . S
C373 C374 1.355 . S
C373 C375 1.415 . S
C374 C373 1.355 . S
C374 C376 1.419 . S
C375 C370 1.425 . S
C375 C372 1.409 . S
C375 C373 1.415 . S
C376 H366 0.930 . S
C376 C374 1.419 . S
C376 C377 1.362 . S
C377 H367 0.930 . S
C377 C370 1.409 . S
C377 C376 1.362 . S
H378 C384 0.930 . S
H379 C387 0.930 . S
H380 C388 0.930 . S
H381 C389 0.930 . S
H382 C392 0.930 . S
H383 C393 0.930 . S
C384 H378 0.930 . S
C384 C385 1.355 . S
C384 C386 1.415 . S
C385 C384 1.355 . S
C385 C387 1.419 . S
C386 C384 1.415 . S
C386 C391 1.425 . S
C386 C393 1.409 . S
C387 H379 0.930 . S
C387 C385 1.419 . S
C387 C388 1.362 . S
C388 H380 0.930 . S
C388 C387 1.362 . S
C388 C391 1.409 . S
C389 H381 0.930 . S
C389 C390 1.355 . S
C389 C391 1.415 . S
C390 C389 1.355 . S
C390 C392 1.419 . S
C391 C386 1.425 . S
C391 C388 1.409 . S
C391 C389 1.415 . S
C392 H382 0.930 . S
C392 C390 1.419 . S
C392 C393 1.362 . S
C393 H383 0.930 . S
C393 C386 1.409 . S
C393 C392 1.362 . S
H394 C400 0.930 . S
H395 C403 0.930 . S
H396 C404 0.930 . S
H397 C405 0.930 . S
H398 C408 0.930 . S
H399 C409 0.930 . S
C400 H394 0.930 . S
C400 C401 1.355 . S
C400 C402 1.415 . S
C401 C400 1.355 . S
C401 C403 1.419 . S
C402 C400 1.415 . S
C402 C407 1.425 . S
C402 C409 1.409 . S
C403 H395 0.930 . S
C403 C401 1.419 . S
C403 C404 1.362 . S
C404 H396 0.930 . S
C404 C403 1.362 . S
C404 C407 1.409 . S
C405 H397 0.930 . S
C405 C406 1.355 . S
C405 C407 1.415 . S
C406 C405 1.355 . S
C406 C408 1.419 . S
C407 C402 1.425 . S
C407 C404 1.409 . S
C407 C405 1.415 . S
C408 H398 0.930 . S
C408 C406 1.419 . S
C408 C409 1.362 . S
C409 H399 0.930 . S
C409 C402 1.409 . S
C409 C408 1.362 . S
H410 C416 0.930 . S
H411 C419 0.930 . S
H412 C420 0.930 . S
H413 C421 0.930 . S
H414 C424 0.930 . S
H415 C425 0.930 . S
C416 H410 0.930 . S
C416 C417 1.355 . S
C416 C418 1.415 . S
C417 C416 1.355 . S
C417 C419 1.419 . S
C418 C416 1.415 . S
C418 C423 1.425 . S
C418 C425 1.409 . S
C419 H411 0.930 . S
C419 C417 1.419 . S
C419 C420 1.362 . S
C420 H412 0.930 . S
C420 C419 1.362 . S
C420 C423 1.409 . S
C421 H413 0.930 . S
C421 C422 1.355 . S
C421 C423 1.415 . S
C422 C421 1.355 . S
C422 C424 1.419 . S
C423 C418 1.425 . S
C423 C420 1.409 . S
C423 C421 1.415 . S
C424 H414 0.930 . S
C424 C422 1.419 . S
C424 C425 1.362 . S
C425 H415 0.930 . S
C425 C418 1.409 . S
C425 C424 1.362 . S
H426 C432 0.930 . S
H427 C435 0.930 . S
H428 C436 0.930 . S
H429 C437 0.930 1_554 S
H430 C440 0.930 . S
H431 C441 0.930 . S
C432 H426 0.930 . S
C432 C433 1.355 . S
C432 C434 1.415 . S
C433 C432 1.355 . S
C433 C435 1.419 . S
C434 C432 1.415 . S
C434 C439 1.425 . S
C434 C441 1.409 . S
C435 H427 0.930 . S
C435 C433 1.419 . S
C435 C436 1.362 . S
C436 H428 0.930 . S
C436 C435 1.362 . S
C436 C439 1.409 . S
C437 H429 0.930 1_556 S
C437 C438 1.355 . S
C437 C439 1.415 . S
C438 C437 1.355 . S
C438 C440 1.419 . S
C439 C434 1.425 . S
C439 C436 1.409 . S
C439 C437 1.415 . S
C440 H430 0.930 . S
C440 C438 1.419 . S
C440 C441 1.362 . S
C441 H431 0.930 . S
C441 C434 1.409 . S
C441 C440 1.362 . S
H442 C448 0.930 . S
H443 C451 0.930 . S
H444 C452 0.930 . S
H445 C453 0.930 . S
H446 C456 0.930 . S
H447 C457 0.930 . S
C448 H442 0.930 . S
C448 C449 1.355 . S
C448 C450 1.415 . S
C449 C448 1.355 . S
C449 C451 1.419 . S
C450 C448 1.415 . S
C450 C455 1.425 . S
C450 C457 1.409 . S
C451 H443 0.930 . S
C451 C449 1.419 . S
C451 C452 1.362 . S
C452 H444 0.930 . S
C452 C451 1.362 . S
C452 C455 1.409 . S
C453 H445 0.930 . S
C453 C454 1.355 . S
C453 C455 1.415 . S
C454 C453 1.355 . S
C454 C456 1.419 . S
C455 C450 1.425 . S
C455 C452 1.409 . S
C455 C453 1.415 . S
C456 H446 0.930 . S
C456 C454 1.419 . S
C456 C457 1.362 . S
C457 H447 0.930 . S
C457 C450 1.409 . S
C457 C456 1.362 . S
H458 C464 0.930 . S
H459 C467 0.930 . S
H460 C468 0.930 . S
H461 C469 0.930 . S
H462 C472 0.930 . S
H463 C473 0.930 . S
C464 H458 0.930 . S
C464 C465 1.355 . S
C464 C466 1.415 . S
C465 C464 1.355 . S
C465 C467 1.419 . S
C466 C464 1.415 . S
C466 C471 1.425 . S
C466 C473 1.409 . S
C467 H459 0.930 . S
C467 C465 1.419 . S
C467 C468 1.362 . S
C468 H460 0.930 . S
C468 C467 1.362 . S
C468 C471 1.409 . S
C469 H461 0.930 . S
C469 C470 1.355 . S
C469 C471 1.415 . S
C470 C469 1.355 . S
C470 C472 1.419 . S
C471 C466 1.425 . S
C471 C468 1.409 . S
C471 C469 1.415 . S
C472 H462 0.930 . S
C472 C470 1.419 . S
C472 C473 1.362 . S
C473 H463 0.930 . S
C473 C466 1.409 . S
C473 C472 1.362 . S
H474 C480 0.930 . S
H475 C483 0.930 . S
H476 C484 0.930 . S
H477 C485 0.930 . S
H478 C488 0.930 . S
H479 C489 0.930 . S
C480 H474 0.930 . S
C480 C481 1.355 . S
C480 C482 1.415 . S
C481 C480 1.355 . S
C481 C483 1.419 . S
C482 C480 1.415 . S
C482 C487 1.425 . S
C482 C489 1.409 . S
C483 H475 0.930 . S
C483 C481 1.419 . S
C483 C484 1.362 . S
C484 H476 0.930 . S
C484 C483 1.362 . S
C484 C487 1.409 . S
C485 H477 0.930 . S
C485 C486 1.355 . S
C485 C487 1.415 . S
C486 C485 1.355 . S
C486 C488 1.419 . S
C487 C482 1.425 . S
C487 C484 1.409 . S
C487 C485 1.415 . S
C488 H478 0.930 . S
C488 C486 1.419 . S
C488 C489 1.362 . S
C489 H479 0.930 . S
C489 C482 1.409 . S
C489 C488 1.362 . S
H490 C496 0.930 . S
H491 C499 0.930 . S
H492 C500 0.930 . S
H493 C501 0.930 . S
H494 C504 0.930 . S
H495 C505 0.930 . S
C496 H490 0.930 . S
C496 C497 1.355 . S
C496 C498 1.415 . S
C497 C496 1.355 . S
C497 C499 1.419 . S
C498 C496 1.415 . S
C498 C503 1.425 . S
C498 C505 1.409 . S
C499 H491 0.930 . S
C499 C497 1.419 . S
C499 C500 1.362 . S
C500 H492 0.930 . S
C500 C499 1.362 . S
C500 C503 1.409 . S
C501 H493 0.930 . S
C501 C502 1.355 . S
C501 C503 1.415 . S
C502 C501 1.355 . S
C502 C504 1.419 . S
C503 C498 1.425 . S
C503 C500 1.409 . S
C503 C501 1.415 . S
C504 H494 0.930 . S
C504 C502 1.419 . S
C504 C505 1.362 . S
C505 H495 0.930 . S
C505 C498 1.409 . S
C505 C504 1.362 . S
H506 C512 0.930 . S
H507 C515 0.930 . S
H508 C516 0.930 . S
H509 C517 0.930 . S
H510 C520 0.930 . S
H511 C521 0.930 . S
C512 H506 0.930 . S
C512 C513 1.355 . S
C512 C514 1.415 . S
C513 C512 1.355 . S
C513 C515 1.419 . S
C514 C512 1.415 . S
C514 C519 1.425 . S
C514 C521 1.409 . S
C515 H507 0.930 . S
C515 C513 1.419 . S
C515 C516 1.362 . S
C516 H508 0.930 . S
C516 C515 1.362 . S
C516 C519 1.409 . S
C517 H509 0.930 . S
C517 C518 1.355 . S
C517 C519 1.415 . S
C518 C517 1.355 . S
C518 C520 1.419 . S
C519 C514 1.425 . S
C519 C516 1.409 . S
C519 C517 1.415 . S
C520 H510 0.930 . S
C520 C518 1.419 . S
C520 C521 1.362 . S
C521 H511 0.930 . S
C521 C514 1.409 . S
C521 C520 1.362 . S
H522 C528 0.930 . S
H523 C531 0.930 . S
H524 C532 0.930 . S
H525 C533 0.930 . S
H526 C536 0.930 . S
H527 C537 0.930 . S
C528 H522 0.930 . S
C528 C529 1.355 . S
C528 C530 1.415 . S
C529 C528 1.355 . S
C529 C531 1.419 . S
C530 C528 1.415 . S
C530 C535 1.425 . S
C530 C537 1.409 . S
C531 H523 0.930 . S
C531 C529 1.419 . S
C531 C532 1.362 . S
C532 H524 0.930 . S
C532 C531 1.362 . S
C532 C535 1.409 . S
C533 H525 0.930 . S
C533 C534 1.355 . S
C533 C535 1.415 . S
C534 C533 1.355 . S
C534 C536 1.419 . S
C535 C530 1.425 . S
C535 C532 1.409 . S
C535 C533 1.415 . S
C536 H526 0.930 . S
C536 C534 1.419 . S
C536 C537 1.362 . S
C537 H527 0.930 . S
C537 C530 1.409 . S
C537 C536 1.362 . S
H538 C544 0.930 . S
H539 C547 0.930 . S
H540 C548 0.930 . S
H541 C549 0.930 . S
H542 C552 0.930 . S
H543 C553 0.930 . S
C544 H538 0.930 . S
C544 C545 1.355 . S
C544 C546 1.415 . S
C545 C544 1.355 . S
C545 C547 1.419 . S
C546 C544 1.415 . S
C546 C551 1.425 . S
C546 C553 1.409 1_554 S
C547 H539 0.930 . S
C547 C545 1.419 . S
C547 C548 1.362 . S
C548 H540 0.930 . S
C548 C547 1.362 . S
C548 C551 1.409 . S
C549 H541 0.930 . S
C549 C550 1.355 1_554 S
C549 C551 1.415 . S
C550 C549 1.355 1_556 S
C550 C552 1.419 . S
C551 C546 1.425 . S
C551 C548 1.409 . S
C551 C549 1.415 . S
C552 H542 0.930 . S
C552 C550 1.419 . S
C552 C553 1.362 . S
C553 H543 0.930 . S
C553 C546 1.409 1_556 S
C553 C552 1.362 . S
H554 C560 0.930 . S
H555 C563 0.930 . S
H556 C564 0.930 . S
H557 C565 0.930 . S
H558 C568 0.930 . S
H559 C569 0.930 . S
C560 H554 0.930 . S
C560 C561 1.355 . S
C560 C562 1.415 . S
C561 C560 1.355 . S
C561 C563 1.419 . S
C562 C560 1.415 . S
C562 C567 1.425 . S
C562 C569 1.409 . S
C563 H555 0.930 . S
C563 C561 1.419 . S
C563 C564 1.362 . S
C564 H556 0.930 . S
C564 C563 1.362 . S
C564 C567 1.409 . S
C565 H557 0.930 . S
C565 C566 1.355 . S
C565 C567 1.415 . S
C566 C565 1.355 . S
C566 C568 1.419 . S
C567 C562 1.425 . S
C567 C564 1.409 . S
C567 C565 1.415 . S
C568 H558 0.930 . S
C568 C566 1.419 . S
C568 C569 1.362 . S
C569 H559 0.930 . S
C569 C562 1.409 . S
C569 C568 1.362 . S
C198 C178 1.587 . S
C193 C8 1.569 . S
C209 C26 1.548 . S
C214 C113 1.582 . S
C225 C50 1.539 . S
C230 C131 1.582 . S
C241 C68 1.511 . S
C246 C144 1.584 . S
C262 C152 1.594 . S
C257 C80 1.550 . S
C273 C104 1.551 . S
C278 C164 1.594 . S
C289 C32 1.528 . S
C294 C126 1.593 . S
C305 C44 1.570 . S
C310 C139 1.582 . S
C321 C62 1.550 . S
C326 C157 1.571 . S
C342 C163 1.595 . S
C337 C86 1.520 1_554 S
C358 C183 1.566 . S
C353 C98 1.532 . S
C374 C118 1.577 . S
C369 C14 1.561 . S
C385 C7 1.556 . S
C390 C124 1.575 . S
C401 C25 1.515 . S
C406 C137 1.571 . S
C422 C151 1.568 . S
C417 C52 1.497 . S
C433 C70 1.555 . S
C438 C165 1.579 1_556 S
C454 C177 1.565 . S
C449 C79 1.545 . S
C470 C112 1.567 . S
C465 C106 1.545 . S
C486 C176 1.572 . S
C481 C34 1.548 . S
C497 C43 1.544 . S
C502 C111 1.573 . S
C518 C125 1.571 . S
C513 C61 1.511 . S
C529 C88 1.550 . S
C534 C138 1.564 . S
C545 C97 1.495 . S
C550 C150 1.570 . S
C561 C16 1.543 . S
C566 C170 1.571 . S
