# Generated by pormake.
# Topology zzz, (3,6)-cn, num edge types: 1
# Building blocks:
#     Node 0, Type 0, BuildingBlock: BELTOD_clean_linker_0, # of connection points: 3
#     Node 1, Type 0, BuildingBlock: BELTOD_clean_linker_0, # of connection points: 3
#     Node 2, Type 0, BuildingBlock: BELTOD_clean_linker_0, # of connection points: 3
#     Node 3, Type 0, BuildingBlock: BELTOD_clean_linker_0, # of connection points: 3
#     Node 4, Type 0, BuildingBlock: BELTOD_clean_linker_0, # of connection points: 3
#     Node 5, Type 0, BuildingBlock: BELTOD_clean_linker_0, # of connection points: 3
#     Node 6, Type 0, BuildingBlock: BELTOD_clean_linker_0, # of connection points: 3
#     Node 7, Type 0, BuildingBlock: BELTOD_clean_linker_0, # of connection points: 3
#     Node 8, Type 1, BuildingBlock: BETFEN_clean_sbu_0, # of connection points: 6
#     Node 9, Type 1, BuildingBlock: BETFEN_clean_sbu_0, # of connection points: 6
#     Node 10, Type 1, BuildingBlock: BETFEN_clean_sbu_0, # of connection points: 6
#     Node 11, Type 1, BuildingBlock: BETFEN_clean_sbu_0, # of connection points: 6
#     Edge 12, Type (0, 1), BuildingBlock: UVAHIK_clean_linker_0, # of connection points: 2
#     Edge 13, Type (0, 1), BuildingBlock: UVAHIK_clean_linker_0, # of connection points: 2
#     Edge 14, Type (0, 1), BuildingBlock: UVAHIK_clean_linker_0, # of connection points: 2
#     Edge 15, Type (0, 1), BuildingBlock: UVAHIK_clean_linker_0, # of connection points: 2
#     Edge 16, Type (0, 1), BuildingBlock: UVAHIK_clean_linker_0, # of connection points: 2
#     Edge 17, Type (0, 1), BuildingBlock: UVAHIK_clean_linker_0, # of connection points: 2
#     Edge 18, Type (0, 1), BuildingBlock: UVAHIK_clean_linker_0, # of connection points: 2
#     Edge 19, Type (0, 1), BuildingBlock: UVAHIK_clean_linker_0, # of connection points: 2
#     Edge 20, Type (0, 1), BuildingBlock: UVAHIK_clean_linker_0, # of connection points: 2
#     Edge 21, Type (0, 1), BuildingBlock: UVAHIK_clean_linker_0, # of connection points: 2
#     Edge 22, Type (0, 1), BuildingBlock: UVAHIK_clean_linker_0, # of connection points: 2
#     Edge 23, Type (0, 1), BuildingBlock: UVAHIK_clean_linker_0, # of connection points: 2
#     Edge 24, Type (0, 1), BuildingBlock: UVAHIK_clean_linker_0, # of connection points: 2
#     Edge 25, Type (0, 1), BuildingBlock: UVAHIK_clean_linker_0, # of connection points: 2
#     Edge 26, Type (0, 1), BuildingBlock: UVAHIK_clean_linker_0, # of connection points: 2
#     Edge 27, Type (0, 1), BuildingBlock: UVAHIK_clean_linker_0, # of connection points: 2
#     Edge 28, Type (0, 1), BuildingBlock: UVAHIK_clean_linker_0, # of connection points: 2
#     Edge 29, Type (0, 1), BuildingBlock: UVAHIK_clean_linker_0, # of connection points: 2
#     Edge 30, Type (0, 1), BuildingBlock: UVAHIK_clean_linker_0, # of connection points: 2
#     Edge 31, Type (0, 1), BuildingBlock: UVAHIK_clean_linker_0, # of connection points: 2
#     Edge 32, Type (0, 1), BuildingBlock: UVAHIK_clean_linker_0, # of connection points: 2
#     Edge 33, Type (0, 1), BuildingBlock: UVAHIK_clean_linker_0, # of connection points: 2
#     Edge 34, Type (0, 1), BuildingBlock: UVAHIK_clean_linker_0, # of connection points: 2
#     Edge 35, Type (0, 1), BuildingBlock: UVAHIK_clean_linker_0, # of connection points: 2
# Relax obj value: 0.402
# Max RMSD: 0.260
# Mean RMSD: 0.243
data_MOF--net-zzz--node1-BETFEN_clean_sbu_0--node2-BELTOD_clean_linker_0--edge1-UVAHIK_clean_linker_0
_symmetry_space_group_name_H-M    P1
_symmetry_Int_Tables_number       1
_symmetry_cell_setting            triclinic
loop_
_symmetry_equiv_pos_as_xyz
'x, y, z'
_cell_length_a     70.770855
_cell_length_b     70.77585
_cell_length_c     21.373815
_cell_angle_alpha  90.022259
_cell_angle_beta   89.914268
_cell_angle_gamma 89.998631
loop_
_atom_site_label
_atom_site_type_symbol
_atom_site_fract_x
_atom_site_fract_y
_atom_site_fract_z
_atom_type_partial_charge
P0 P 0.72577 0.47713 0.31986 0.0
H1 H 0.74974 0.46081 0.41429 0.0
H2 H 0.77803 0.47188 0.46653 0.0
H3 H 0.76931 0.5276 0.38915 0.0
H4 H 0.74074 0.51623 0.33632 0.0
H5 H 0.68476 0.47342 0.32762 0.0
H6 H 0.65964 0.48596 0.26289 0.0
H7 H 0.69926 0.52441 0.17617 0.0
H8 H 0.7246 0.51111 0.23956 0.0
H9 H 0.75497 0.49467 0.24343 0.0
H10 H 0.72536 0.44141 0.24914 0.0
O11 O 0.71649 0.45852 0.35682 0.0
H12 H 0.77347 0.48374 0.15506 0.0
H13 H 0.74398 0.43028 0.15931 0.0
C14 C 0.74288 0.4877 0.37192 0.0
C15 C 0.75346 0.4756 0.41018 0.0
C16 C 0.76976 0.48198 0.44012 0.0
C17 C 0.77607 0.50066 0.43207 0.0
C18 C 0.76497 0.51307 0.3959 0.0
C19 C 0.74849 0.50664 0.36611 0.0
C20 C 0.70669 0.49128 0.28886 0.0
C21 C 0.68804 0.48492 0.29607 0.0
C22 C 0.67356 0.49219 0.25879 0.0
C23 C 0.67736 0.50608 0.21335 0.0
C24 C 0.69583 0.51345 0.20963 0.0
C25 C 0.71035 0.50604 0.24676 0.0
C26 C 0.73898 0.46876 0.25355 0.0
C27 C 0.75237 0.48062 0.22553 0.0
C28 C 0.76283 0.4744 0.17439 0.0
C29 C 0.76008 0.45618 0.14989 0.0
C30 C 0.74644 0.44436 0.17742 0.0
C31 C 0.73584 0.45069 0.2287 0.0
P32 P 0.0369 0.72124 0.33948 0.0
H33 H 0.03039 0.73322 0.46892 0.0
H34 H 0.0186 0.76274 0.51153 0.0
H35 H 0.9982 0.77853 0.32819 0.0
H36 H 0.0115 0.74964 0.28521 0.0
H37 H 0.04699 0.68187 0.32157 0.0
H38 H 0.03667 0.65792 0.24742 0.0
H39 H 0.99281 0.69544 0.18197 0.0
H40 H 0.00328 0.71944 0.25654 0.0
H41 H 0.06082 0.75358 0.36395 0.0
H42 H 0.04725 0.71847 0.20517 0.0
O43 O 0.0499 0.7115 0.39604 0.0
H44 H 0.07674 0.77587 0.29529 0.0
H45 H 0.0639 0.74026 0.13639 0.0
C46 C 0.0216 0.73892 0.37384 0.0
C47 C 0.02287 0.74273 0.4381 0.0
C48 C 0.01605 0.75977 0.4626 0.0
C49 C 0.00763 0.77336 0.42337 0.0
C50 C 0.00498 0.76872 0.35983 0.0
C51 C 0.01214 0.75183 0.33524 0.0
C52 C 0.02579 0.70244 0.29551 0.0
C53 C 0.03478 0.68479 0.29271 0.0
C54 C 0.02885 0.67106 0.25007 0.0
C55 C 0.01393 0.67474 0.20851 0.0
C56 C 0.00447 0.6922 0.21293 0.0
C57 C 0.01036 0.70593 0.25603 0.0
C58 C 0.05255 0.73454 0.28976 0.0
C59 C 0.06175 0.75039 0.31447 0.0
C60 C 0.071 0.76308 0.27501 0.0
C61 C 0.07144 0.76003 0.20996 0.0
C62 C 0.06347 0.74329 0.18603 0.0
C63 C 0.054 0.73071 0.22555 0.0
P64 P 0.78715 0.02838 0.38271 0.0
H65 H 0.77244 0.02641 0.51021 0.0
H66 H 0.74209 0.01574 0.54904 0.0
H67 H 0.73196 0.98688 0.37395 0.0
H68 H 0.76198 0.99866 0.33412 0.0
H69 H 0.82303 0.0442 0.34694 0.0
H70 H 0.84808 0.03402 0.27677 0.0
H71 H 0.81919 0.98095 0.24804 0.0
H72 H 0.79399 0.99132 0.31927 0.0
H73 H 0.76321 0.06125 0.40269 0.0
H74 H 0.77811 0.02431 0.24989 0.0
O75 O 0.79615 0.04282 0.43679 0.0
H76 H 0.73639 0.07314 0.34267 0.0
H77 H 0.7512 0.03567 0.19058 0.0
C78 C 0.76982 0.01316 0.41936 0.0
C79 C 0.76409 0.01717 0.48082 0.0
C80 C 0.74653 0.01104 0.50312 0.0
C81 C 0.73423 1.00065 0.46447 0.0
C82 C 0.74077 0.99521 0.40477 0.0
C83 C 0.75828 1.00155 0.3823 0.0
C84 C 0.80672 0.01846 0.33927 0.0
C85 C 0.82225 0.03016 0.32689 0.0
C86 C 0.83663 0.0243 0.28659 0.0
C87 C 0.83574 0.00661 0.25685 0.0
C88 C 0.82026 0.99471 0.26996 0.0
C89 C 0.80587 1.00058 0.311 0.0
C90 C 0.77279 0.04206 0.33052 0.0
C91 C 0.76119 0.05627 0.35524 0.0
C92 C 0.74572 0.06289 0.32118 0.0
C93 C 0.7415 0.05516 0.2622 0.0
C94 C 0.75413 0.0421 0.2355 0.0
C95 C 0.76961 0.03556 0.26953 0.0
P96 P 0.47002 0.78803 0.36434 0.0
H97 H 0.4776 0.77359 0.4894 0.0
H98 H 0.49176 0.74418 0.52318 0.0
H99 H 0.51407 0.73542 0.33697 0.0
H100 H 0.49894 0.76463 0.30279 0.0
H101 H 0.44915 0.81912 0.31355 0.0
H102 H 0.45643 0.84386 0.23842 0.0
H103 H 0.51377 0.82329 0.22446 0.0
H104 H 0.5064 0.7986 0.30183 0.0
H105 H 0.4375 0.76554 0.40343 0.0
H106 H 0.46881 0.77607 0.23385 0.0
O107 O 0.45844 0.7977 0.42444 0.0
H108 H 0.42109 0.73932 0.35254 0.0
H109 H 0.45303 0.74967 0.18337 0.0
C110 C 0.48739 0.77159 0.39365 0.0
C111 C 0.48616 0.76579 0.45625 0.0
C112 C 0.49431 0.74879 0.47563 0.0
C113 C 0.50391 0.73712 0.43274 0.0
C114 C 0.50647 0.74378 0.37115 0.0
C115 C 0.49815 0.76076 0.35171 0.0
C116 C 0.47719 0.807 0.31322 0.0
C117 C 0.46337 0.82002 0.29493 0.0
C118 C 0.46752 0.83407 0.25143 0.0
C119 C 0.48561 0.8354 0.22459 0.0
C120 C 0.4997 0.82265 0.24431 0.0
C121 C 0.49548 0.80847 0.28827 0.0
C122 C 0.45412 0.77294 0.32208 0.0
C123 C 0.44038 0.76261 0.3546 0.0
C124 C 0.43117 0.74749 0.32564 0.0
C125 C 0.43582 0.74228 0.26397 0.0
C126 C 0.44882 0.75343 0.23048 0.0
C127 C 0.45792 0.76858 0.2594 0.0
P128 P 0.29349 0.46539 0.00172 0.0
H129 H 0.28415 0.47065 0.86946 0.0
H130 H 0.25528 0.48213 0.82035 0.0
H131 H 0.23648 0.50433 0.99797 0.0
H132 H 0.26542 0.4928 0.047 0.0
H133 H 0.33027 0.45113 0.03615 0.0
H134 H 0.35437 0.46179 0.10901 0.0
H135 H 0.32211 0.5125 0.14476 0.0
H136 H 0.29785 0.50161 0.07105 0.0
H137 H 0.26773 0.43445 0.97584 0.0
H138 H 0.28467 0.46743 0.13593 0.0
O139 O 0.30319 0.45085 0.9492 0.0
H140 H 0.24075 0.42223 0.03481 0.0
H141 H 0.25771 0.45564 0.19444 0.0
C142 C 0.27711 0.48091 0.96205 0.0
C143 C 0.27423 0.47864 0.89755 0.0
C144 C 0.25756 0.48503 0.86953 0.0
C145 C 0.24341 0.49383 0.90546 0.0
C146 C 0.24711 0.49768 0.96886 0.0
C147 C 0.26379 0.49121 0.99693 0.0
C148 C 0.31238 0.4757 0.04716 0.0
C149 C 0.32855 0.46478 0.05833 0.0
C150 C 0.34238 0.47091 0.10018 0.0
C151 C 0.34026 0.48805 0.13269 0.0
C152 C 0.32414 0.49918 0.1207 0.0
C153 C 0.31032 0.49305 0.07817 0.0
C154 C 0.27834 0.45168 0.05163 0.0
C155 C 0.26608 0.43849 0.02443 0.0
C156 C 0.25055 0.43168 0.05795 0.0
C157 C 0.24698 0.4381 0.11908 0.0
C158 C 0.26015 0.4502 0.14775 0.0
C159 C 0.27565 0.45701 0.11416 0.0
P160 P 0.06762 0.28655 0.00354 0.0
H161 H 0.07024 0.27086 0.87789 0.0
H162 H 0.05607 0.2428 0.83422 0.0
H163 H 0.01493 0.24238 0.98413 0.0
H164 H 0.03032 0.26984 0.03021 0.0
H165 H 0.0894 0.31653 0.05809 0.0
H166 H 0.08167 0.34276 0.12704 0.0
H167 H 0.02232 0.32966 0.10926 0.0
H168 H 0.03022 0.30338 0.03855 0.0
H169 H 0.09201 0.25358 0.99871 0.0
H170 H 0.05652 0.28143 0.13467 0.0
O171 O 0.08657 0.29167 0.96013 0.0
H172 H 0.0934 0.22561 0.06575 0.0
H173 H 0.05779 0.2537 0.20126 0.0
C174 C 0.05126 0.27283 0.95706 0.0
C175 C 0.05771 0.26526 0.90026 0.0
C176 C 0.0495 0.24896 0.87515 0.0
C177 C 0.03443 0.23983 0.90589 0.0
C178 C 0.02682 0.24857 0.9597 0.0
C179 C 0.03528 0.26473 0.98537 0.0
C180 C 0.06042 0.30804 0.04262 0.0
C181 C 0.07466 0.31952 0.06765 0.0
C182 C 0.07024 0.33441 0.1078 0.0
C183 C 0.0514 0.33815 0.12447 0.0
C184 C 0.03698 0.32716 0.09721 0.0
C185 C 0.04147 0.31211 0.05681 0.0
C186 C 0.07439 0.26969 0.062 0.0
C187 C 0.08521 0.254 0.04412 0.0
C188 C 0.08583 0.23797 0.08212 0.0
C189 C 0.07559 0.23744 0.13848 0.0
C190 C 0.06603 0.25376 0.15851 0.0
C191 C 0.06531 0.2697 0.12032 0.0
P192 P 0.21195 0.04765 0.0124 0.0
H193 H 0.22269 0.05062 0.88036 0.0
H194 H 0.25134 0.04058 0.82654 0.0
H195 H 0.26593 0.00541 0.98426 0.0
H196 H 0.23701 0.01524 0.03745 0.0
H197 H 0.17567 0.06315 0.04768 0.0
H198 H 0.15013 0.05171 0.11349 0.0
H199 H 0.17759 0.99736 0.12674 0.0
H200 H 0.20331 0.009 0.05962 0.0
H201 H 0.23855 0.07903 0.01873 0.0
H202 H 0.22051 0.03325 0.13769 0.0
O203 O 0.20466 0.06639 0.9716 0.0
H204 H 0.2658 0.08434 0.0864 0.0
H205 H 0.24791 0.03766 0.20298 0.0
C206 C 0.22757 0.03377 0.96328 0.0
C207 C 0.2316 0.04017 0.90256 0.0
C208 C 0.2482 0.0346 0.87204 0.0
C209 C 0.26124 0.02255 0.90165 0.0
C210 C 0.25626 0.0147 0.95992 0.0
C211 C 0.23958 0.02025 0.99038 0.0
C212 C 0.19134 0.03688 0.04777 0.0
C213 C 0.17599 0.04856 0.0629 0.0
C214 C 0.16132 0.04199 0.10083 0.0
C215 C 0.16175 0.02361 0.12558 0.0
C216 C 0.17687 0.01164 0.10872 0.0
C217 C 0.1915 0.01821 0.06986 0.0
C218 C 0.22738 0.05584 0.0733 0.0
C219 C 0.24007 0.07055 0.06058 0.0
C220 C 0.25581 0.07338 0.09886 0.0
C221 C 0.25932 0.06122 0.14965 0.0
C222 C 0.24568 0.0475 0.16494 0.0
C223 C 0.22987 0.04488 0.12719 0.0
P224 P 0.45186 0.22133 0.0106 0.0
H225 H 0.4574 0.23381 0.88125 0.0
H226 H 0.47028 0.26315 0.84025 0.0
H227 H 0.4945 0.27549 0.02116 0.0
H228 H 0.48094 0.24639 0.06244 0.0
H229 H 0.43474 0.18604 0.04766 0.0
H230 H 0.44399 0.16114 0.11986 0.0
H231 H 0.49786 0.18858 0.14749 0.0
H232 H 0.48842 0.2136 0.07463 0.0
H233 H 0.42297 0.24944 0.98556 0.0
H234 H 0.45294 0.22801 0.14612 0.0
O235 O 0.43738 0.21285 0.95579 0.0
H236 H 0.41294 0.27694 0.04636 0.0
H237 H 0.44324 0.25539 0.20654 0.0
C238 C 0.46833 0.23764 0.97492 0.0
C239 C 0.46612 0.24239 0.91162 0.0
C240 C 0.47348 0.25933 0.88812 0.0
C241 C 0.48319 0.27195 0.92759 0.0
C242 C 0.48679 0.26633 0.98964 0.0
C243 C 0.47938 0.2494 0.01308 0.0
C244 C 0.46095 0.20159 0.05494 0.0
C245 C 0.44874 0.1865 0.06798 0.0
C246 C 0.45406 0.17221 0.1094 0.0
C247 C 0.4717 0.17279 0.13953 0.0
C248 C 0.48412 0.18777 0.12543 0.0
C249 C 0.47879 0.20205 0.08341 0.0
C250 C 0.43854 0.23658 0.06138 0.0
C251 C 0.42669 0.25021 0.03464 0.0
C252 C 0.42114 0.26602 0.06922 0.0
C253 C 0.42748 0.26845 0.13101 0.0
C254 C 0.43793 0.25388 0.1593 0.0
C255 C 0.44351 0.23813 0.12462 0.0
Pr256 Pr 0.01239 0.9977 0.75711 0.0
Pr257 Pr 0.98735 0.01028 0.63846 0.0
C258 C 0.02319 0.98379 0.86815 0.0
C259 C 0.03448 0.96735 0.88646 0.0
C260 C 0.03913 0.96435 0.9493 0.0
C261 C 0.04894 0.94804 0.96691 0.0
C262 C 0.05412 0.93449 0.92181 0.0
C263 C 0.04983 0.93787 0.85859 0.0
C264 C 0.04011 0.95418 0.84107 0.0
C265 C 0.03555 1.00096 0.65024 0.0
C266 C 0.99733 0.96518 0.65443 0.0
C267 C 0.97451 0.02675 0.53381 0.0
C268 C 0.98192 0.04314 0.49999 0.0
C269 C 0.97191 0.05125 0.4503 0.0
C270 C 0.97916 0.0672 0.41978 0.0
C271 C 0.99637 0.07522 0.4392 0.0
C272 C 0.00636 0.06686 0.48867 0.0
C273 C 0.99921 0.05096 0.51866 0.0
C274 C 0.96725 0.99935 0.74493 0.0
C275 C 0.00673 0.04333 0.73197 0.0
O276 O 0.00684 0.97984 0.84244 0.0
O277 O 0.0324 0.99734 0.83946 0.0
O278 O 0.01811 0.00387 0.6545 0.0
O279 O 0.042 0.9959 0.7046 0.0
O280 O 0.99299 0.97868 0.61425 0.0
O281 O 1.00241 0.96883 0.71287 0.0
O282 O 0.9855 0.01187 0.53316 0.0
O283 O 0.96754 0.03045 0.58926 0.0
O284 O 0.98219 0.00911 0.74444 0.0
O285 O 0.96153 0.99577 0.68826 0.0
O286 O 0.01114 0.03033 0.77395 0.0
O287 O 0.99969 0.03899 0.67643 0.0
H288 H 0.03486 0.97441 0.98483 0.0
H289 H 0.05187 0.94572 0.01603 0.0
H290 H 0.05381 0.92779 0.82276 0.0
H291 H 0.03667 0.95637 0.7922 0.0
H292 H 0.95853 0.04535 0.43545 0.0
H293 H 0.97118 0.07344 0.38183 0.0
H294 H 0.01981 0.07254 0.50387 0.0
H295 H 0.00721 0.04475 0.55658 0.0
Pr296 Pr 0.50271 0.01491 0.74624 0.0
Pr297 Pr 0.49149 0.99286 0.61867 0.0
C298 C 0.51163 0.02331 0.8652 0.0
C299 C 0.52822 0.02177 0.90556 0.0
C300 C 0.52889 0.03229 0.96094 0.0
C301 C 0.54574 0.03368 0.99447 0.0
C302 C 0.56219 0.0246 0.97286 0.0
C303 C 0.56117 0.01331 0.91874 0.0
C304 C 0.54429 0.01195 0.88523 0.0
C305 C 0.49427 0.0408 0.64975 0.0
C306 C 0.53742 1.00113 0.65091 0.0
C307 C 0.48343 0.98176 0.50164 0.0
C308 C 0.46562 0.98333 0.46721 0.0
C309 C 0.46539 0.98349 0.40171 0.0
C310 C 0.44866 0.98776 0.36982 0.0
C311 C 0.43203 0.99214 0.40319 0.0
C312 C 0.43234 0.99132 0.46892 0.0
C313 C 0.44893 0.9869 0.50048 0.0
C314 C 0.49367 0.97105 0.72668 0.0
C315 C 0.45725 0.00804 0.71061 0.0
O316 O 0.50312 0.00755 0.84943 0.0
O317 O 0.51353 0.03519 0.81879 0.0
O318 O 0.49366 0.02311 0.64836 0.0
O319 O 0.49963 0.04607 0.70511 0.0
O320 O 0.52459 0.99512 0.6103 0.0
O321 O 0.5329 0.00817 0.70643 0.0
O322 O 0.49149 0.99795 0.51427 0.0
O323 O 0.48327 0.97016 0.54935 0.0
O324 O 0.50504 0.98412 0.71222 0.0
O325 O 0.48127 0.9682 0.68283 0.0
O326 O 0.46997 0.00987 0.7557 0.0
O327 O 0.46214 0.00464 0.65181 0.0
H328 H 0.51663 0.04013 0.97672 0.0
H329 H 0.54611 0.04266 0.03551 0.0
H330 H 0.57353 0.00595 0.90141 0.0
H331 H 0.54399 0.00386 0.84216 0.0
H332 H 0.47822 0.98088 0.3754 0.0
H333 H 0.44885 0.98803 0.31917 0.0
H334 H 0.42 0.99496 0.49641 0.0
H335 H 0.44889 0.98699 0.55111 0.0
Pr336 Pr 0.49696 0.51182 0.74528 0.0
Pr337 Pr 0.51751 0.49725 0.61732 0.0
C338 C 0.48995 0.52513 0.86046 0.0
C339 C 0.47922 0.54055 0.89028 0.0
C340 C 0.46695 0.53643 0.93998 0.0
C341 C 0.45709 0.55091 0.97021 0.0
C342 C 0.45943 0.56983 0.95156 0.0
C343 C 0.4715 0.57384 0.90087 0.0
C344 C 0.48123 0.55935 0.87036 0.0
C345 C 0.47082 0.50917 0.64608 0.0
C346 C 0.51143 0.54308 0.63738 0.0
C347 C 0.52499 0.47966 0.50894 0.0
C348 C 0.51441 0.46461 0.47748 0.0
C349 C 0.52177 0.4554 0.42483 0.0
C350 C 0.51162 0.44069 0.39675 0.0
C351 C 0.49402 0.43501 0.42123 0.0
C352 C 0.48666 0.44453 0.47357 0.0
C353 C 0.49679 0.45914 0.50148 0.0
C354 C 0.54131 0.50695 0.71624 0.0
C355 C 0.50016 0.46589 0.71998 0.0
O356 O 0.50494 0.52991 0.8278 0.0
O357 O 0.48 0.5115 0.83509 0.0
O358 O 0.48812 0.50547 0.64599 0.0
O359 O 0.46599 0.51477 0.70179 0.0
O360 O 0.51345 0.52933 0.59587 0.0
O361 O 0.50781 0.5398 0.69734 0.0
O362 O 0.51631 0.49598 0.51182 0.0
O363 O 0.53294 0.47479 0.56186 0.0
O364 O 0.52566 0.49854 0.72088 0.0
O365 O 0.54602 0.50929 0.65778 0.0
O366 O 0.4989 0.47928 0.763 0.0
O367 O 0.50415 0.46972 0.66077 0.0
H368 H 0.46511 0.522 0.95578 0.0
H369 H 0.4477 0.54727 0.0084 0.0
H370 H 0.47389 0.58825 0.88578 0.0
H371 H 0.49053 0.56292 0.83182 0.0
H372 H 0.53539 0.45945 0.40593 0.0
H373 H 0.51772 0.4335 0.35682 0.0
H374 H 0.47304 0.44071 0.49296 0.0
H375 H 0.49088 0.46612 0.54213 0.0
Pr376 Pr 0.00528 0.49514 0.7185 0.0
Pr377 Pr 0.01656 0.51831 0.59484 0.0
C378 C 0.98922 0.48094 0.8226 0.0
C379 C 0.96981 0.47614 0.84072 0.0
C380 C 0.96648 0.46223 0.88592 0.0
C381 C 0.94801 0.45645 0.89921 0.0
C382 C 0.93259 0.46433 0.86674 0.0
C383 C 0.93611 0.47844 0.8218 0.0
C384 C 0.95452 0.48438 0.80941 0.0
C385 C 0.01795 0.47387 0.6168 0.0
C386 C 0.97119 0.51096 0.61899 0.0
C387 C 0.03078 0.52329 0.47964 0.0
C388 C 0.04469 0.51152 0.44693 0.0
C389 C 0.0525 0.51705 0.38961 0.0
C390 C 0.06683 0.50619 0.36206 0.0
C391 C 0.07343 0.48964 0.39157 0.0
C392 C 0.065 0.48392 0.44802 0.0
C393 C 0.05097 0.49489 0.4757 0.0
C394 C 0.01024 0.54376 0.69309 0.0
C395 C 0.04933 0.50587 0.70051 0.0
O396 O 0.99295 0.49894 0.81542 0.0
O397 O 0.99643 0.47038 0.77845 0.0
O398 O 0.00704 0.48791 0.6143 0.0
O399 O 0.02257 0.46998 0.67426 0.0
O400 O 0.9839 0.51873 0.58153 0.0
O401 O 0.97585 0.50175 0.67086 0.0
O402 O 0.01439 0.51525 0.48973 0.0
O403 O 0.03734 0.53214 0.52882 0.0
O404 O 0.00908 0.52604 0.69483 0.0
O405 O 0.01409 0.54926 0.63633 0.0
O406 O 0.03602 0.50374 0.74325 0.0
O407 O 0.04522 0.50789 0.64036 0.0
H408 H 0.97817 0.45569 0.91043 0.0
H409 H 0.94584 0.44584 0.935 0.0
H410 H 0.9247 0.48467 0.79518 0.0
H411 H 0.95686 0.49521 0.77462 0.0
H412 H 0.0479 0.52996 0.36709 0.0
H413 H 0.07318 0.51111 0.31892 0.0
H414 H 0.06948 0.47113 0.47153 0.0
H415 H 0.0453 0.49063 0.52052 0.0
C416 C 0.12816 0.02289 0.16494 0.0
C417 C 0.14723 0.01775 0.17249 0.0
C418 C 0.11493 0.01948 0.21242 0.0
C419 C 0.10721 0.99264 0.3607 0.0
H420 H 0.07127 0.03263 0.39593 0.0
C421 C 0.06617 0.99673 0.59386 0.0
C422 C 0.04709 1.00218 0.59247 0.0
C423 C 0.07733 0.99769 0.5399 0.0
C424 C 0.08102 0.02121 0.38627 0.0
H425 H 0.16718 0.00457 0.23571 0.0
H426 H 0.14422 0.99869 0.31853 0.0
H427 H 0.09256 0.0355 0.30667 0.0
H428 H 0.02473 0.01294 0.53344 0.0
H429 H 0.04426 0.01473 0.43877 0.0
H430 H 0.09589 0.97854 0.44112 0.0
C431 C 0.13936 0.00513 0.27551 0.0
C432 C 0.09325 0.02282 0.33491 0.0
C433 C 0.15258 0.00848 0.22788 0.0
C434 C 0.03939 0.00867 0.53588 0.0
C435 C 0.05062 0.00975 0.48178 0.0
C436 C 0.09503 0.99106 0.41216 0.0
C437 C 0.12041 0.01089 0.26894 0.0
C438 C 0.10666 0.00864 0.32171 0.0
C439 C 0.06974 0.0042 0.48309 0.0
C440 C 0.08191 0.00541 0.42605 0.0
H441 H 0.12349 0.02982 0.12251 0.0
H442 H 0.10042 0.02374 0.20497 0.0
H443 H 0.11706 0.98126 0.35149 0.0
H444 H 0.07253 0.99171 0.63681 0.0
H445 H 0.09205 0.99358 0.54301 0.0
C446 C 0.48468 0.16388 0.24512 0.0
C447 C 0.4764 0.15841 0.18815 0.0
C448 C 0.48729 0.15074 0.29332 0.0
C449 C 0.48916 0.09932 0.32847 0.0
H450 H 0.47592 0.11568 0.49599 0.0
C451 C 0.48452 0.04725 0.53856 0.0
C452 C 0.49166 0.05371 0.59597 0.0
C453 C 0.48263 0.05966 0.48776 0.0
C454 C 0.4799 0.1109 0.44968 0.0
H455 H 0.4652 0.13457 0.13635 0.0
H456 H 0.46959 0.11172 0.22052 0.0
H457 H 0.47371 0.13787 0.40937 0.0
H458 H 0.50227 0.07822 0.64548 0.0
H459 H 0.4992 0.09974 0.55732 0.0
H460 H 0.49538 0.07233 0.369 0.0
C461 C 0.4741 0.12616 0.22797 0.0
C462 C 0.47865 0.12367 0.39991 0.0
C463 C 0.47143 0.13932 0.17986 0.0
C464 C 0.49666 0.07283 0.60185 0.0
C465 C 0.49481 0.0852 0.55128 0.0
C466 C 0.49045 0.08654 0.37837 0.0
C467 C 0.48176 0.13177 0.28575 0.0
C468 C 0.48333 0.11809 0.33866 0.0
C469 C 0.48778 0.07882 0.49347 0.0
C470 C 0.48591 0.09219 0.43973 0.0
H471 H 0.48854 0.17848 0.25339 0.0
H472 H 0.4935 0.1555 0.33684 0.0
H473 H 0.49304 0.09458 0.28201 0.0
H474 H 0.48027 0.03267 0.53305 0.0
H475 H 0.4769 0.0543 0.44429 0.0
C476 C 0.37376 0.4904 0.17142 0.0
C477 C 0.35435 0.4935 0.18134 0.0
C478 C 0.38684 0.49354 0.21936 0.0
C479 C 0.39325 0.51681 0.37403 0.0
H480 H 0.43233 0.47896 0.39547 0.0
C481 C 0.43875 0.51235 0.59827 0.0
C482 C 0.458 0.50799 0.59155 0.0
C483 C 0.42653 0.51135 0.54693 0.0
C484 C 0.42168 0.4898 0.38976 0.0
H485 H 0.33358 0.5028 0.24935 0.0
H486 H 0.35637 0.50828 0.33296 0.0
H487 H 0.41042 0.47643 0.3081 0.0
H488 H 0.47959 0.49938 0.52581 0.0
H489 H 0.45835 0.49757 0.43598 0.0
H490 H 0.40444 0.53008 0.45609 0.0
C491 C 0.36153 0.5036 0.28783 0.0
C492 C 0.40909 0.48837 0.33952 0.0
C493 C 0.34843 0.50048 0.23979 0.0
C494 C 0.46481 0.50264 0.53244 0.0
C495 C 0.45259 0.50157 0.48104 0.0
C496 C 0.40584 0.51824 0.42431 0.0
C497 C 0.38087 0.49984 0.2786 0.0
C498 C 0.39465 0.5018 0.33109 0.0
C499 C 0.43328 0.50593 0.48759 0.0
C500 C 0.42017 0.5047 0.43305 0.0
H501 H 0.37886 0.48533 0.12665 0.0
H502 H 0.40165 0.49089 0.21006 0.0
H503 H 0.3825 0.52756 0.36855 0.0
H504 H 0.43308 0.5165 0.64334 0.0
H505 H 0.41172 0.51454 0.55402 0.0
C506 C 0.0325 0.3659 0.16505 0.0
C507 C 0.04723 0.35279 0.17274 0.0
C508 C 0.02937 0.38007 0.20991 0.0
C509 C 0.05328 0.40475 0.34261 0.0
H510 H 1.00241 0.4197 0.38814 0.0
C511 C 0.03571 0.44711 0.56726 0.0
C512 C 0.02221 0.46156 0.56254 0.0
C513 C 0.03925 0.4351 0.51647 0.0
C514 C 0.01672 0.41584 0.37542 0.0
H515 H 0.06961 0.34374 0.2351 0.0
H516 H 0.06401 0.36803 0.31323 0.0
H517 H 0.00719 0.39617 0.3061 0.0
H518 H 1.00207 0.47504 0.50064 0.0
H519 H 0.00809 0.45394 0.41221 0.0
H520 H 0.06275 0.42413 0.41304 0.0
C521 C 0.05523 0.36789 0.27179 0.0
C522 C 0.01947 0.40236 0.32824 0.0
C523 C 0.05841 0.35387 0.22697 0.0
C524 C 0.0125 0.46395 0.50576 0.0
C525 C 0.01589 0.45183 0.45521 0.0
C526 C 0.05052 0.41811 0.39004 0.0
C527 C 0.04081 0.38134 0.2637 0.0
C528 C 0.0378 0.39645 0.31163 0.0
C529 C 0.0292 0.43716 0.46011 0.0
C530 C 0.0322 0.42368 0.40744 0.0
H531 H 0.0237 0.36549 0.12366 0.0
H532 H 0.01821 0.39024 0.20177 0.0
H533 H 0.06763 0.40093 0.33021 0.0
H534 H 0.04346 0.445 0.61036 0.0
H535 H 0.04951 0.42386 0.5219 0.0
C536 C 0.84545 0.99326 0.15221 0.0
C537 C 0.85048 1.00135 0.20996 0.0
C538 C 0.85904 0.99055 0.10524 0.0
C539 C 0.9051 0.0096 0.05379 0.0
H540 H 0.90532 0.96672 0.94093 0.0
C541 C 0.96167 1.00249 0.86037 0.0
C542 C 0.9554 0.99646 0.80133 0.0
C543 C 0.94983 1.00116 0.91275 0.0
C544 C 0.90537 0.97888 0.97171 0.0
H545 H 0.87401 0.01178 0.26489 0.0
H546 H 0.89764 0.00701 0.18336 0.0
H547 H 0.88283 0.96765 0.02771 0.0
H548 H 0.93204 0.98377 0.75119 0.0
H549 H 0.91127 0.98171 0.84211 0.0
H550 H 0.9273 0.02105 0.99746 0.0
C551 C 0.88313 0.00315 0.17372 0.0
C552 C 0.89247 0.97939 0.02154 0.0
C553 C 0.86957 0.00585 0.22056 0.0
C554 C 0.93727 0.98853 0.7961 0.0
C555 C 0.9254 0.98726 0.8484 0.0
C556 C 0.91793 0.00912 0.00399 0.0
C557 C 0.87799 0.99587 0.11493 0.0
C558 C 0.89212 0.99481 0.0631 0.0
C559 C 0.9314 0.99382 0.90731 0.0
C560 C 0.91821 0.9938 0.96203 0.0
H561 H 0.83086 0.9898 0.1422 0.0
H562 H 0.85453 0.98504 0.06041 0.0
H563 H 0.90502 0.02188 0.08406 0.0
H564 H 0.97563 0.00855 0.86594 0.0
H565 H 0.95509 0.00602 0.95749 0.0
C566 C 0.50579 0.86075 0.17429 0.0
C567 C 0.48921 0.84976 0.17497 0.0
C568 C 0.50813 0.87523 0.12999 0.0
C569 C 0.47954 0.90624 0.02803 0.0
H570 H 0.52572 0.91429 0.93391 0.0
C571 C 0.47993 0.9467 0.79704 0.0
C572 C 0.49464 0.95941 0.78406 0.0
C573 C 0.48061 0.9351 0.84968 0.0
C574 C 0.51283 0.91242 0.96058 0.0
H575 H 0.46274 0.84455 0.12694 0.0
H576 H 0.46676 0.8696 0.05051 0.0
H577 H 0.52479 0.89011 0.01609 0.0
H578 H 0.52166 0.97002 0.81621 0.0
H579 H 0.52294 0.94946 0.90893 0.0
H580 H 0.46743 0.92814 0.97214 0.0
C581 C 0.47775 0.86746 0.08505 0.0
C582 C 0.51229 0.89856 0.00755 0.0
C583 C 0.47545 0.85307 0.12891 0.0
C584 C 0.5101 0.96035 0.82519 0.0
C585 C 0.51088 0.94854 0.87797 0.0
C586 C 0.48008 0.92 0.98134 0.0
C587 C 0.49391 0.87899 0.08569 0.0
C588 C 0.49546 0.89497 0.0406 0.0
C589 C 0.49608 0.9358 0.89078 0.0
C590 C 0.49655 0.92293 0.94586 0.0
H591 H 0.51665 0.85857 0.20919 0.0
H592 H 0.52076 0.88385 0.13164 0.0
H593 H 0.4665 0.9042 0.05371 0.0
H594 H 0.46783 0.94562 0.76623 0.0
H595 H 0.46912 0.92527 0.85754 0.0
C596 C 0.66762 0.51413 0.10311 0.0
C597 C 0.66264 0.51127 0.16625 0.0
C598 C 0.65371 0.51662 0.05736 0.0
C599 C 0.6048 0.50358 0.02432 0.0
H600 H 0.60888 0.53959 0.88838 0.0
C601 C 0.54794 0.50721 0.8313 0.0
C602 C 0.55412 0.51038 0.76974 0.0
C603 C 0.56032 0.50948 0.88174 0.0
C604 C 0.6076 0.52929 0.92557 0.0
H605 H 0.63893 0.50994 0.23069 0.0
H606 H 0.61472 0.51385 0.15053 0.0
H607 H 0.63215 0.53999 0.97258 0.0
H608 H 0.57804 0.51862 0.71266 0.0
H609 H 0.59985 0.52197 0.80011 0.0
H610 H 0.5808 0.49232 0.97667 0.0
C611 C 0.62944 0.51399 0.13662 0.0
C612 C 0.62091 0.5296 0.97401 0.0
C613 C 0.64335 0.51171 0.18253 0.0
C614 C 0.57286 0.51614 0.75966 0.0
C615 C 0.58533 0.51819 0.81 0.0
C616 C 0.59164 0.50311 0.9756 0.0
C617 C 0.63446 0.51613 0.07337 0.0
C618 C 0.61972 0.51668 0.02375 0.0
C619 C 0.5793 0.51473 0.87181 0.0
C620 C 0.59289 0.51588 0.92523 0.0
H621 H 0.68224 0.51356 0.08829 0.0
H622 H 0.65804 0.51806 0.00896 0.0
H623 H 0.60367 0.49323 0.06146 0.0
H624 H 0.53355 0.50278 0.84053 0.0
H625 H 0.555 0.50704 0.92854 0.0
C626 C 0.00964 0.64145 0.16884 0.0
C627 C 0.00946 0.66104 0.15761 0.0
C628 C 0.00753 0.62858 0.11951 0.0
C629 C 0.01521 0.62525 0.94957 0.0
H630 H 0.98628 0.57888 0.9618 0.0
C631 C 0.00666 0.57624 0.73684 0.0
C632 C 0.00764 0.55667 0.74687 0.0
C633 C 0.00532 0.58873 0.7873 0.0
C634 C 0.99459 0.59167 0.95783 0.0
H635 H 0.00644 0.6824 0.0856 0.0
H636 H 1.00251 0.66002 0.99991 0.0
H637 H 0.98639 0.60114 0.04934 0.0
H638 H 0.00782 0.53477 0.81753 0.0
H639 H 0.00579 0.55659 0.90613 0.0
H640 H 0.02377 0.61577 0.85897 0.0
C641 C 0.00446 0.65459 0.04683 0.0
C642 C 0.99461 0.60445 0.00799 0.0
C643 C 0.00647 0.66744 0.09613 0.0
C644 C 0.00693 0.54979 0.80845 0.0
C645 C 0.00571 0.56232 0.85916 0.0
C646 C 0.01528 0.61247 0.89971 0.0
C647 C 0.00531 0.63501 0.05769 0.0
C648 C 0.00489 0.62143 0.00435 0.0
C649 C 0.00512 0.58199 0.84925 0.0
C650 C 0.00492 0.59553 0.90294 0.0
H651 H 0.01174 0.63604 0.21571 0.0
H652 H 0.00833 0.61361 0.12953 0.0
H653 H 0.02362 0.63799 0.94566 0.0
H654 H 0.00707 0.58195 0.68984 0.0
H655 H 0.00448 0.60373 0.77763 0.0
C656 C 0.07203 0.21852 0.23698 0.0
C657 C 0.07234 0.21932 0.17134 0.0
C658 C 0.0657 0.20226 0.26752 0.0
C659 C 0.05369 0.15168 0.24391 0.0
H660 H 0.01829 0.16091 0.37923 0.0
C661 C 0.00504 0.09344 0.34286 0.0
C662 C 0.00414 0.09223 0.40836 0.0
C663 C 0.01375 0.10891 0.31423 0.0
C664 C 0.02827 0.1581 0.3419 0.0
H665 H 0.06685 0.20353 0.08624 0.0
H666 H 0.05583 0.17525 0.13936 0.0
H667 H 0.03451 0.18743 0.33036 0.0
H668 H 0.01092 0.1065 0.49527 0.0
H669 H 0.02617 0.13345 0.44536 0.0
H670 H 0.04716 0.12233 0.25501 0.0
C671 C 0.06073 0.18702 0.16739 0.0
C672 C 0.03765 0.17327 0.31412 0.0
C673 C 0.06711 0.20323 0.13691 0.0
C674 C 0.0116 0.107 0.44465 0.0
C675 C 0.02019 0.12249 0.4161 0.0
C676 C 0.04424 0.13651 0.27158 0.0
C677 C 0.05948 0.18654 0.23298 0.0
C678 C 0.05043 0.17025 0.26471 0.0
C679 C 0.02156 0.12349 0.35065 0.0
C680 C 0.03141 0.13958 0.32074 0.0
H681 H 0.07613 0.23067 0.26463 0.0
H682 H 0.06524 0.20217 0.31818 0.0
H683 H 0.0636 0.14887 0.20637 0.0
H684 H 0.99948 0.08219 0.31385 0.0
H685 H 0.01442 0.10945 0.26363 0.0
C686 C 0.29467 0.06313 0.14436 0.0
C687 C 0.27818 0.06068 0.1803 0.0
C688 C 0.31236 0.05876 0.16916 0.0
C689 C 0.33727 0.04463 0.31615 0.0
H690 H 0.36968 0.01768 0.19979 0.0
C691 C 0.39675 0.99462 0.39438 0.0
C692 C 0.41479 0.99898 0.3707 0.0
C693 C 0.38067 0.00318 0.36957 0.0
C694 C 0.36081 0.0253 0.23256 0.0
H695 H 0.26766 0.05341 0.27262 0.0
H696 H 0.29828 0.04478 0.31465 0.0
H697 H 0.3408 0.03246 0.16196 0.0
H698 H 0.4299 0.01518 0.30025 0.0
H699 H 0.40161 0.02944 0.25518 0.0
H700 H 0.357 0.03648 0.38717 0.0
C701 C 0.29766 0.05033 0.26752 0.0
C702 C 0.34434 0.03394 0.21097 0.0
C703 C 0.28 0.05506 0.24309 0.0
C704 C 0.41625 0.01129 0.3192 0.0
C705 C 0.4001 0.01959 0.29367 0.0
C706 C 0.35357 0.03568 0.33785 0.0
C707 C 0.314 0.05149 0.2301 0.0
C708 C 0.33227 0.04363 0.25255 0.0
C709 C 0.38227 0.01596 0.31975 0.0
C710 C 0.36536 0.02584 0.29628 0.0
H711 H 0.29394 0.0673 0.0957 0.0
H712 H 0.32468 0.06037 0.13953 0.0
H713 H 0.32855 0.05223 0.34936 0.0
H714 H 0.39504 0.98486 0.43299 0.0
H715 H 0.36698 0.99993 0.3896 0.0
C716 C 0.43083 0.30355 0.12845 0.0
C717 C 0.42616 0.28713 0.16212 0.0
C718 C 0.43355 0.32068 0.15941 0.0
C719 C 0.449 0.33742 0.31263 0.0
H720 H 0.43963 0.38688 0.2411 0.0
C721 C 0.47469 0.40556 0.43245 0.0
C722 C 0.48348 0.41895 0.39352 0.0
C723 C 0.46485 0.39034 0.40682 0.0
C724 C 0.4424 0.37315 0.26147 0.0
H725 H 0.41918 0.27614 0.25389 0.0
H726 H 0.42374 0.30621 0.30812 0.0
H727 H 0.42577 0.3589 0.19239 0.0
H728 H 0.48857 0.42703 0.29714 0.0
H729 H 0.47167 0.40017 0.25222 0.0
H730 H 0.46598 0.35154 0.38073 0.0
C731 C 0.42567 0.3057 0.25787 0.0
C732 C 0.43443 0.35714 0.23373 0.0
C733 C 0.42299 0.28852 0.22686 0.0
C734 C 0.4821 0.41685 0.32832 0.0
C735 C 0.47222 0.40161 0.30264 0.0
C736 C 0.45692 0.3534 0.34039 0.0
C737 C 0.43164 0.32181 0.22475 0.0
C738 C 0.43791 0.33906 0.25839 0.0
C739 C 0.46358 0.38813 0.34166 0.0
C740 C 0.45397 0.3714 0.31454 0.0
H741 H 0.43371 0.30292 0.0787 0.0
H742 H 0.43836 0.33273 0.13251 0.0
H743 H 0.45229 0.32369 0.33216 0.0
H744 H 0.47566 0.40667 0.48289 0.0
H745 H 0.45824 0.38027 0.43811 0.0
C746 C 0.21173 0.43701 0.1142 0.0
C747 C 0.22838 0.43477 0.14922 0.0
C748 C 0.19417 0.43768 0.14388 0.0
C749 C 0.17465 0.45219 0.29432 0.0
H750 H 0.12719 0.43594 0.22153 0.0
C751 C 0.10381 0.47211 0.40694 0.0
C752 C 0.08985 0.47905 0.36618 0.0
C753 C 0.11983 0.46306 0.38356 0.0
C754 C 0.14034 0.44061 0.24227 0.0
H755 H 0.23954 0.4299 0.2422 0.0
H756 H 0.20878 0.43095 0.29419 0.0
H757 H 0.15701 0.42521 0.17582 0.0
H758 H 0.08153 0.48134 0.26889 0.0
H759 H 0.10984 0.46594 0.22782 0.0
H760 H 0.15814 0.46805 0.35945 0.0
C761 C 0.20938 0.43255 0.24383 0.0
C762 C 0.15739 0.43443 0.21624 0.0
C763 C 0.22697 0.4319 0.21411 0.0
C764 C 0.09212 0.47634 0.30146 0.0
C765 C 0.10822 0.4673 0.27801 0.0
C766 C 0.15765 0.45835 0.32028 0.0
C767 C 0.19286 0.43612 0.20926 0.0
C768 C 0.17475 0.44043 0.24136 0.0
C769 C 0.12238 0.46082 0.31882 0.0
C770 C 0.1403 0.45289 0.29396 0.0
H771 H 0.21231 0.43956 0.06427 0.0
H772 H 0.18178 0.44067 0.1159 0.0
H773 H 0.18774 0.45741 0.31409 0.0
H774 H 0.10267 0.47415 0.45702 0.0
H775 H 0.13038 0.45805 0.41627 0.0
C776 C 0.09295 0.78737 0.18454 0.0
C777 C 0.07804 0.77529 0.16729 0.0
C778 C 0.09672 0.80374 0.1501 0.0
C779 C 0.08626 0.8289 0.00198 0.0
H780 H 0.08365 0.87337 0.10763 0.0
C781 C 0.05619 0.89926 0.91596 0.0
C782 C 0.06284 0.91635 0.94108 0.0
C783 C 0.06316 0.88202 0.93745 0.0
C784 C 0.08488 0.8612 0.0772 0.0
H785 H 0.05616 0.77052 0.09783 0.0
H786 H 0.06303 0.79868 0.03747 0.0
H787 H 0.08766 0.84243 0.15503 0.0
H788 H 0.08269 0.92881 0.00626 0.0
H789 H 0.09508 0.89861 0.04352 0.0
H790 H 0.08291 0.84762 0.9242 0.0
C791 C 0.07184 0.79549 0.0775 0.0
C792 C 0.08718 0.84343 0.10448 0.0
C793 C 0.06793 0.77926 0.1122 0.0
C794 C 0.07712 0.91584 0.98667 0.0
C795 C 0.0842 0.89855 0.00796 0.0
C796 C 0.08411 0.8467 0.97462 0.0
C797 C 0.08582 0.80822 0.09728 0.0
C798 C 0.08724 0.82705 0.06732 0.0
C799 C 0.07705 0.88142 0.9844 0.0
C800 C 0.08271 0.86299 0.01208 0.0
H801 H 0.10128 0.78454 0.22595 0.0
H802 H 0.10774 0.81321 0.16593 0.0
H803 H 0.0865 0.81652 0.97219 0.0
H804 H 0.04499 0.89918 0.88146 0.0
H805 H 0.05702 0.86915 0.9191 0.0
C806 C 0.7206 0.05907 0.16805 0.0
C807 C 0.72266 0.05812 0.23338 0.0
C808 C 0.70268 0.05808 0.14086 0.0
C809 C 0.6562 0.03793 0.17544 0.0
H810 H 0.64034 0.06479 0.02649 0.0
C811 C 0.5818 0.02912 0.06951 0.0
C812 C 0.58057 0.02812 0.00398 0.0
C813 C 0.59886 0.03378 0.0984 0.0
C814 C 0.64466 0.05706 0.06778 0.0
H815 H 0.7074 0.0564 0.32144 0.0
H816 H 0.67625 0.05524 0.2741 0.0
H817 H 0.67046 0.07274 0.07565 0.0
H818 H 0.59633 0.03122 0.9174 0.0
H819 H 0.6262 0.03883 0.96789 0.0
H820 H 0.63063 0.02205 0.16723 0.0
C821 C 0.68849 0.05643 0.24386 0.0
C822 C 0.66187 0.06166 0.09598 0.0
C823 C 0.70636 0.05739 0.271 0.0
C824 C 0.59685 0.03161 0.96803 0.0
C825 C 0.6139 0.03627 0.9969 0.0
C826 C 0.63905 0.03332 0.14726 0.0
C827 C 0.68649 0.0561 0.17852 0.0
C828 C 0.66783 0.05209 0.15001 0.0
C829 C 0.61506 0.03755 0.06237 0.0
C830 C 0.63313 0.04276 0.09295 0.0
H831 H 0.73288 0.05981 0.13787 0.0
H832 H 0.7016 0.05783 0.09032 0.0
H833 H 0.66058 0.03001 0.21629 0.0
H834 H 0.56953 0.02638 0.0985 0.0
H835 H 0.59926 0.03477 0.14895 0.0
C836 C 0.42931 0.70767 0.27536 0.0
C837 C 0.4294 0.72393 0.23757 0.0
C838 C 0.42696 0.68981 0.24882 0.0
C839 C 0.41488 0.66385 0.1029 0.0
H840 H 0.45431 0.62993 0.15972 0.0
C841 C 0.44361 0.60166 0.95568 0.0
C842 C 0.45022 0.58545 0.98682 0.0
C843 C 0.43692 0.61719 0.98952 0.0
C844 C 0.44292 0.63898 0.14402 0.0
H845 H 0.4254 0.73426 0.14299 0.0
H846 H 0.4218 0.70301 0.09638 0.0
H847 H 0.44925 0.65959 0.21373 0.0
H848 H 0.45411 0.57261 0.07813 0.0
H849 H 0.44187 0.59936 0.1368 0.0
H850 H 0.40898 0.64329 0.03187 0.0
C851 C 0.42343 0.70409 0.14663 0.0
C852 C 0.44002 0.65605 0.1751 0.0
C853 C 0.4257 0.72199 0.17325 0.0
C854 C 0.44904 0.58478 0.05245 0.0
C855 C 0.44224 0.60023 0.08622 0.0
C856 C 0.41776 0.64668 0.07177 0.0
C857 C 0.42477 0.68777 0.18385 0.0
C858 C 0.42616 0.66881 0.15443 0.0
C859 C 0.43659 0.61682 0.05527 0.0
C860 C 0.43203 0.63418 0.09145 0.0
H861 H 0.43226 0.70856 0.32498 0.0
H862 H 0.42772 0.67752 0.2789 0.0
H863 H 0.40399 0.67333 0.08619 0.0
H864 H 0.44398 0.60253 0.90511 0.0
H865 H 0.43279 0.62976 0.96413 0.0
C866 C 0.7813 0.43179 0.10171 0.0
C867 C 0.77238 0.4495 0.09828 0.0
C868 C 0.7959 0.42723 0.06017 0.0
C869 C 0.8225 0.4451 0.92008 0.0
H870 H 0.86602 0.42768 0.01382 0.0
C871 C 0.8979 0.47101 0.8782 0.0
C872 C 0.91292 0.458 0.8798 0.0
C873 C 0.87949 0.46524 0.8915 0.0
C874 C 0.85395 0.43218 0.98649 0.0
H875 H 0.77024 0.47539 0.0447 0.0
H876 H 0.79595 0.46784 0.97404 0.0
H877 H 0.83469 0.42511 0.05963 0.0
H878 H 0.92011 0.42851 0.89492 0.0
H879 H 0.88794 0.41868 0.92096 0.0
H880 H 0.84218 0.45353 0.84906 0.0
C881 C 0.79175 0.45731 0.00807 0.0
C882 C 0.83592 0.43063 0.01257 0.0
C883 C 0.77714 0.46179 0.0492 0.0
C884 C 0.90898 0.43901 0.89445 0.0
C885 C 0.89056 0.4333 0.90874 0.0
C886 C 0.84057 0.44688 0.8944 0.0
C887 C 0.80187 0.44032 0.01469 0.0
C888 C 0.82006 0.43779 0.98077 0.0
C889 C 0.87568 0.4464 0.90758 0.0
C890 C 0.85649 0.44107 0.92843 0.0
H891 H 0.77789 0.422 0.13896 0.0
H892 H 0.80314 0.41386 0.06576 0.0
H893 H 0.81055 0.45034 0.89367 0.0
H894 H 0.90038 0.48581 0.86838 0.0
H895 H 0.86832 0.47571 0.89157 0.0
C896 C 0.02225 0.20699 0.93017 0.0
C897 C 0.02824 0.22044 0.88576 0.0
C898 C 0.01848 0.18829 0.91269 0.0
C899 C 0.01277 0.15648 0.77217 0.0
H900 H 0.023 0.11766 0.89516 0.0
C901 C 0.99824 0.07751 0.71837 0.0
C902 C 0.00919 0.06361 0.7481 0.0
C903 C 0.99998 0.09659 0.73495 0.0
C904 C 0.02035 0.12819 0.85958 0.0
H905 H 0.03395 0.22446 0.78677 0.0
H906 H 0.02877 0.19187 0.75737 0.0
H907 H 0.02718 0.15047 0.92288 0.0
H908 H 0.031 0.05893 0.81732 0.0
H909 H 0.03489 0.09214 0.84377 0.0
H910 H 0.00727 0.13414 0.70753 0.0
C911 C 0.02646 0.19578 0.80571 0.0
C912 C 0.02235 0.14724 0.87608 0.0
C913 C 0.02979 0.2146 0.82293 0.0
C914 C 0.02221 0.06927 0.79395 0.0
C915 C 0.02429 0.08841 0.80951 0.0
C916 C 0.0112 0.1374 0.75522 0.0
C917 C 0.02099 0.1822 0.85045 0.0
C918 C 0.01854 0.16177 0.83278 0.0
C919 C 0.01306 0.10241 0.78077 0.0
C920 C 0.01491 0.12289 0.79868 0.0
H921 H 0.02106 0.21063 0.97919 0.0
H922 H 0.0138 0.17858 0.9486 0.0
H923 H 0.00936 0.16704 0.73739 0.0
H924 H 0.98795 0.07362 0.68319 0.0
H925 H 0.99073 0.10666 0.71241 0.0
C926 C 0.29009 1.00251 0.87828 0.0
C927 C 0.28068 0.02001 0.87538 0.0
C928 C 0.30884 1.00074 0.85735 0.0
C929 C 0.35189 0.0293 0.83171 0.0
H930 H 0.3694 0.98643 0.73466 0.0
C931 C 0.43131 0.0151 0.78775 0.0
C932 C 0.43684 0.00949 0.72725 0.0
C933 C 0.41218 0.01617 0.80418 0.0
C934 C 0.36471 0.99855 0.76145 0.0
H935 H 0.28384 0.04939 0.84831 0.0
H936 H 0.31623 0.04627 0.81154 0.0
H937 H 0.3361 0.98848 0.76536 0.0
H938 H 0.42633 1.00055 0.63663 0.0
H939 H 0.39293 1.00237 0.66548 0.0
H940 H 0.38039 0.03942 0.82785 0.0
C941 C 0.30917 0.03389 0.83004 0.0
C942 C 0.34566 0.99963 0.77956 0.0
C943 C 0.29046 0.03561 0.85042 0.0
C944 C 0.42265 0.00495 0.68362 0.0
C945 C 0.40348 0.00587 0.70028 0.0
C946 C 0.37092 0.02814 0.81414 0.0
C947 C 0.3187 0.0165 0.83376 0.0
C948 C 0.33899 0.01507 0.81475 0.0
C949 C 0.39799 0.01154 0.76077 0.0
C950 C 0.37761 0.01276 0.77874 0.0
H951 H 0.283 0.99019 0.89704 0.0
H952 H 0.31578 0.98716 0.86123 0.0
H953 H 0.34732 0.0413 0.85934 0.0
H954 H 0.44177 0.01868 0.82273 0.0
H955 H 0.40851 0.02039 0.85137 0.0
C956 C 0.49323 0.29526 0.84414 0.0
C957 C 0.4876 0.29158 0.90615 0.0
C958 C 0.49557 0.31387 0.82294 0.0
C959 C 0.50208 0.36327 0.87794 0.0
H960 H 0.48147 0.37661 0.71591 0.0
C961 C 0.49385 0.44113 0.80181 0.0
C962 C 0.49796 0.4458 0.73929 0.0
C963 C 0.49284 0.42223 0.82085 0.0
C964 C 0.48753 0.37312 0.76094 0.0
H965 H 0.48 0.30486 0.99428 0.0
H966 H 0.48433 0.33707 0.95769 0.0
H967 H 0.48021 0.34387 0.75136 0.0
H968 H 0.50393 0.43405 0.64753 0.0
H969 H 0.50238 0.40116 0.68089 0.0
H970 H 0.50942 0.39245 0.88766 0.0
C971 C 0.48719 0.32558 0.92556 0.0
C972 C 0.48681 0.3543 0.78127 0.0
C973 C 0.48478 0.30703 0.94666 0.0
C974 C 0.5007 0.43103 0.69607 0.0
C975 C 0.49972 0.41212 0.71517 0.0
C976 C 0.50285 0.38205 0.85757 0.0
C977 C 0.4924 0.32928 0.86324 0.0
C978 C 0.49396 0.34915 0.84025 0.0
C979 C 0.49595 0.40744 0.77798 0.0
C980 C 0.49545 0.38729 0.79898 0.0
H981 H 0.49573 0.28376 0.81175 0.0
H982 H 0.49987 0.31618 0.7749 0.0
H983 H 0.508 0.35978 0.92319 0.0
H984 H 0.49156 0.45207 0.83642 0.0
H985 H 0.48953 0.41922 0.86931 0.0
C986 C 0.21379 0.51334 0.89112 0.0
C987 C 0.22414 0.49676 0.87907 0.0
C988 C 0.19515 0.51522 0.86964 0.0
C989 C 0.15382 0.48655 0.82797 0.0
H990 H 0.13536 0.53153 0.74441 0.0
C991 C 0.07439 0.49946 0.78092 0.0
C992 C 0.06946 0.50546 0.72036 0.0
C993 C 0.09332 0.49891 0.79969 0.0
C994 C 0.14034 0.51886 0.76755 0.0
H995 H 0.2229 0.46912 0.83536 0.0
H996 H 0.19052 0.47238 0.79833 0.0
H997 H 0.16847 0.52984 0.7777 0.0
H998 H 0.08069 0.51584 0.63233 0.0
H999 H 0.11375 0.5151 0.66557 0.0
H1000 H 0.12576 0.47559 0.81829 0.0
C1001 C 0.19682 0.48397 0.82402 0.0
C1002 C 0.15924 0.51796 0.78701 0.0
C1003 C 0.21547 0.4822 0.84468 0.0
C1004 C 0.08396 0.5111 0.67926 0.0
C1005 C 0.1029 0.51079 0.69839 0.0
C1006 C 0.1349 0.48756 0.80937 0.0
C1007 C 0.18637 0.50041 0.83667 0.0
C1008 C 0.16622 0.50173 0.81707 0.0
C1009 C 0.1078 0.50458 0.75871 0.0
C1010 C 0.12794 0.50368 0.77871 0.0
H1011 H 0.22007 0.5248 0.91747 0.0
H1012 H 0.18742 0.52803 0.88036 0.0
H1013 H 0.15872 0.47392 0.8515 0.0
H1014 H 0.06363 0.49501 0.81386 0.0
H1015 H 0.09662 0.4942 0.84664 0.0
C1016 C 0.99825 0.79611 0.50972 0.0
C1017 C 0.00356 0.79288 0.44706 0.0
C1018 C 0.9965 0.81454 0.53313 0.0
C1019 C 0.01148 0.86397 0.49674 0.0
H1020 H 0.97559 0.87718 0.62682 0.0
C1021 C 0.99646 0.94115 0.56818 0.0
C1022 C 0.99688 0.94525 0.63257 0.0
C1023 C 0.99671 0.92246 0.54703 0.0
C1024 C 0.98576 0.87364 0.59076 0.0
H1025 H 0.01071 0.80698 0.35984 0.0
H1026 H 0.0065 0.83871 0.39925 0.0
H1027 H 0.97631 0.84493 0.58591 0.0
H1028 H 0.99758 0.93278 0.72526 0.0
H1029 H 0.99766 0.90003 0.68804 0.0
H1030 H 0.02054 0.89283 0.50061 0.0
C1031 C 0.0043 0.82704 0.43116 0.0
C1032 C 0.98625 0.85512 0.56736 0.0
C1033 C 0.00632 0.80868 0.40804 0.0
C1034 C 0.99726 0.93014 0.67535 0.0
C1035 C 0.99722 0.91139 0.65411 0.0
C1036 C 0.01079 0.88248 0.51944 0.0
C1037 C 0.99978 0.8303 0.49439 0.0
C1038 C 0.9991 0.85002 0.51981 0.0
C1039 C 0.99714 0.90736 0.58969 0.0
C1040 C 0.99791 0.88755 0.56659 0.0
H1041 H 0.99569 0.78441 0.54118 0.0
H1042 H 0.9931 0.81637 0.58216 0.0
H1043 H 0.02195 0.8606 0.46151 0.0
H1044 H 0.99623 0.95241 0.53386 0.0
H1045 H 0.9965 0.91979 0.49712 0.0
C1046 C 0.70913 0.99481 0.54702 0.0
C1047 C 0.7141 0.9974 0.48375 0.0
C1048 C 0.69013 0.99404 0.56556 0.0
C1049 C 0.64196 0.00733 0.509 0.0
H1050 H 0.62527 0.97776 0.6514 0.0
C1051 C 0.56296 0.99711 0.57022 0.0
C1052 C 0.55772 0.99984 0.63311 0.0
C1053 C 0.58202 0.99628 0.55287 0.0
C1054 C 0.62976 0.98619 0.61178 0.0
H1055 H 0.7025 1.0007 0.39032 0.0
H1056 H 0.66973 0.99826 0.42194 0.0
H1057 H 0.65831 0.97639 0.61853 0.0
H1058 H 0.56856 0.00353 0.72722 0.0
H1059 H 0.60189 1.00178 0.69684 0.0
H1060 H 0.61327 0.01676 0.50161 0.0
C1061 C 0.68048 0.99741 0.45778 0.0
C1062 C 0.64874 0.98547 0.59294 0.0
C1063 C 0.69944 0.99843 0.43937 0.0
C1064 C 0.57207 1.00147 0.67834 0.0
C1065 C 0.59117 1.00036 0.66103 0.0
C1066 C 0.62297 0.00784 0.52732 0.0
C1067 C 0.67549 0.99563 0.52131 0.0
C1068 C 0.65516 0.99605 0.54123 0.0
C1069 C 0.59636 0.9979 0.598 0.0
C1070 C 0.61663 0.9973 0.57895 0.0
H1071 H 0.71993 0.99367 0.58265 0.0
H1072 H 0.68699 0.99278 0.61495 0.0
H1073 H 0.6463 0.01609 0.47003 0.0
H1074 H 0.55233 0.99583 0.53406 0.0
H1075 H 0.58555 0.99421 0.50401 0.0
C1076 C 0.50682 0.70244 0.4074 0.0
C1077 C 0.50911 0.71733 0.45046 0.0
C1078 C 0.50925 0.68364 0.42584 0.0
C1079 C 0.52733 0.65292 0.5554 0.0
H1080 H 0.49196 0.61692 0.48491 0.0
C1081 C 0.51417 0.57798 0.65856 0.0
C1082 C 0.51294 0.56297 0.61555 0.0
C1083 C 0.51513 0.59673 0.6377 0.0
C1084 C 0.50207 0.62675 0.50461 0.0
H1085 H 0.51683 0.72384 0.5463 0.0
H1086 H 0.52028 0.69113 0.57901 0.0
H1087 H 0.49143 0.64958 0.44969 0.0
H1088 H 0.51184 0.55601 0.5167 0.0
H1089 H 0.5133 0.58866 0.48061 0.0
H1090 H 0.53749 0.62999 0.6118 0.0
C1091 C 0.51685 0.69397 0.53059 0.0
C1092 C 0.50185 0.64552 0.48419 0.0
C1093 C 0.51463 0.71282 0.51194 0.0
C1094 C 0.5128 0.56718 0.55122 0.0
C1095 C 0.51353 0.58591 0.53046 0.0
C1096 C 0.52739 0.63415 0.57635 0.0
C1097 C 0.51381 0.67907 0.48811 0.0
C1098 C 0.51449 0.65891 0.50915 0.0
C1099 C 0.51464 0.60091 0.57341 0.0
C1100 C 0.51477 0.62085 0.55112 0.0
H1101 H 0.50236 0.70519 0.35984 0.0
H1102 H 0.50721 0.67264 0.39127 0.0
H1103 H 0.53747 0.66268 0.57519 0.0
H1104 H 0.51434 0.57528 0.70844 0.0
H1105 H 0.51582 0.60798 0.67198 0.0
C1106 C 0.80132 0.49959 0.51507 0.0
C1107 C 0.79495 0.50637 0.45692 0.0
C1108 C 0.81994 0.50264 0.5345 0.0
C1109 C 0.86742 0.51271 0.46914 0.0
H1110 H 0.88104 0.51862 0.64367 0.0
C1111 C 0.94506 0.5228 0.5492 0.0
C1112 C 0.95084 0.51231 0.60175 0.0
C1113 C 0.92595 0.52377 0.53247 0.0
C1114 C 0.87748 0.51686 0.59475 0.0
H1115 H 0.80315 0.52243 0.37486 0.0
H1116 H 0.83542 0.52828 0.40958 0.0
H1117 H 0.84779 0.51819 0.61376 0.0
H1118 H 0.94081 0.49444 0.67726 0.0
H1119 H 0.90763 0.49627 0.64852 0.0
H1120 H 0.89713 0.5113 0.45026 0.0
C1121 C 0.8261 0.52021 0.43965 0.0
C1122 C 0.85839 0.51659 0.57755 0.0
C1123 C 0.80747 0.5171 0.42011 0.0
C1124 C 0.93696 0.50289 0.63716 0.0
C1125 C 0.91785 0.50396 0.62068 0.0
C1126 C 0.88651 0.51307 0.48632 0.0
C1127 C 0.83273 0.51266 0.49647 0.0
C1128 C 0.85308 0.5143 0.51455 0.0
C1129 C 0.9121 0.51435 0.56797 0.0
C1130 C 0.89178 0.51494 0.54942 0.0
H1131 H 0.79202 0.49147 0.54506 0.0
H1132 H 0.82448 0.49648 0.57832 0.0
H1133 H 0.86395 0.51058 0.42033 0.0
H1134 H 0.9553 0.53027 0.52075 0.0
H1135 H 0.922 0.53203 0.49191 0.0
loop_
_geom_bond_atom_site_label_1
_geom_bond_atom_site_label_2
_geom_bond_distance
_geom_bond_site_symmetry_2
_ccdc_geom_bond_type
P0 O11 1.490 . S
P0 C14 1.812 . S
P0 C20 1.803 . S
P0 C26 1.819 . S
H1 C15 0.941 . S
H2 C16 0.939 . S
H3 C18 0.940 . S
H4 C19 0.940 . S
H5 C21 0.939 . S
H6 C22 0.942 . S
H7 C24 0.940 . S
H8 C25 0.939 . S
H9 C27 0.941 . S
H10 C31 0.939 . S
O11 P0 1.490 . S
H12 C28 0.939 . S
H13 C30 0.940 . S
C14 P0 1.812 . S
C14 C15 1.389 . S
C14 C19 1.391 . S
C15 H1 0.941 . S
C15 C14 1.389 . S
C15 C16 1.397 . S
C16 H2 0.939 . S
C16 C15 1.397 . S
C16 C17 1.378 . S
C17 C16 1.378 . S
C17 C18 1.378 . S
C18 H3 0.940 . S
C18 C17 1.378 . S
C18 C19 1.396 . S
C19 H4 0.940 . S
C19 C14 1.391 . S
C19 C18 1.396 . S
C20 P0 1.803 . S
C20 C21 1.378 . S
C20 C25 1.400 . S
C21 H5 0.939 . S
C21 C20 1.378 . S
C21 C22 1.361 . S
C22 H6 0.942 . S
C22 C21 1.361 . S
C22 C23 1.369 . S
C23 C22 1.369 . S
C23 C24 1.404 . S
C24 H7 0.940 . S
C24 C23 1.404 . S
C24 C25 1.389 . S
C25 H8 0.939 . S
C25 C20 1.400 . S
C25 C24 1.389 . S
C26 P0 1.819 . S
C26 C27 1.391 . S
C26 C31 1.391 . S
C27 H9 0.941 . S
C27 C26 1.391 . S
C27 C28 1.396 . S
C28 H12 0.939 . S
C28 C27 1.396 . S
C28 C29 1.397 . S
C29 C28 1.397 . S
C29 C30 1.385 . S
C30 H13 0.940 . S
C30 C29 1.385 . S
C30 C31 1.388 . S
C31 H10 0.939 . S
C31 C26 1.391 . S
C31 C30 1.388 . S
P32 O43 1.490 . S
P32 C46 1.812 . S
P32 C52 1.803 . S
P32 C58 1.819 . S
H33 C47 0.941 . S
H34 C48 0.939 . S
H35 C50 0.940 . S
H36 C51 0.950 . S
H37 C53 0.939 . S
H38 C54 0.942 . S
H39 C56 0.940 . S
H40 C57 0.959 . S
H41 C59 0.941 . S
H42 C63 0.929 1_655 S
O43 P32 1.490 . S
H44 C60 0.939 . S
H45 C62 0.940 . S
C46 P32 1.812 . S
C46 C47 1.389 . S
C46 C51 1.375 1_455 S
C47 H33 0.941 . S
C47 C46 1.389 . S
C47 C48 1.397 . S
C48 H34 0.939 . S
C48 C47 1.397 . S
C48 C49 1.378 . S
C49 C48 1.378 . S
C49 C50 1.378 1_455 S
C50 H35 0.940 . S
C50 C49 1.378 1_655 S
C50 C51 1.403 . S
C51 H36 0.950 . S
C51 C46 1.375 1_655 S
C51 C50 1.403 . S
C52 P32 1.803 . S
C52 C53 1.378 . S
C52 C57 1.368 1_455 S
C53 H37 0.939 . S
C53 C52 1.378 . S
C53 C54 1.361 . S
C54 H38 0.942 . S
C54 C53 1.361 . S
C54 C55 1.369 . S
C55 C54 1.369 . S
C55 C56 1.404 1_455 S
C56 H39 0.940 . S
C56 C55 1.404 1_655 S
C56 C57 1.402 . S
C57 H40 0.959 . S
C57 C52 1.368 1_655 S
C57 C56 1.402 . S
C58 P32 1.819 . S
C58 C59 1.391 . S
C58 C63 1.391 . S
C59 H41 0.941 . S
C59 C58 1.391 . S
C59 C60 1.396 . S
C60 H44 0.939 . S
C60 C59 1.396 . S
C60 C61 1.397 . S
C61 C60 1.397 . S
C61 C62 1.385 1_455 S
C62 H45 0.940 . S
C62 C61 1.385 1_655 S
C62 C63 1.388 1_655 S
C63 H42 0.929 1_455 S
C63 C58 1.391 . S
C63 C62 1.388 1_455 S
P64 O75 1.490 . S
P64 C78 1.812 . S
P64 C84 1.803 . S
P64 C90 1.819 . S
H65 C79 0.941 . S
H66 C80 0.939 . S
H67 C82 0.940 . S
H68 C83 0.950 . S
H69 C85 0.939 . S
H70 C86 0.942 . S
H71 C88 0.940 . S
H72 C89 0.959 . S
H73 C91 0.941 . S
H74 C95 0.929 1_565 S
O75 P64 1.490 . S
H76 C92 0.939 . S
H77 C94 0.940 . S
C78 P64 1.812 . S
C78 C79 1.389 . S
C78 C83 1.375 1_545 S
C79 H65 0.941 . S
C79 C78 1.389 . S
C79 C80 1.397 . S
C80 H66 0.939 . S
C80 C79 1.397 . S
C80 C81 1.378 . S
C81 C80 1.378 . S
C81 C82 1.378 1_545 S
C82 H67 0.940 . S
C82 C81 1.378 1_565 S
C82 C83 1.403 . S
C83 H68 0.950 . S
C83 C78 1.375 1_565 S
C83 C82 1.403 . S
C84 P64 1.803 . S
C84 C85 1.378 . S
C84 C89 1.368 1_545 S
C85 H69 0.939 . S
C85 C84 1.378 . S
C85 C86 1.361 . S
C86 H70 0.942 . S
C86 C85 1.361 . S
C86 C87 1.369 . S
C87 C86 1.369 . S
C87 C88 1.404 1_545 S
C88 H71 0.940 . S
C88 C87 1.404 1_565 S
C88 C89 1.402 . S
C89 H72 0.959 . S
C89 C84 1.368 1_565 S
C89 C88 1.402 . S
C90 P64 1.819 . S
C90 C91 1.391 . S
C90 C95 1.391 . S
C91 H73 0.941 . S
C91 C90 1.391 . S
C91 C92 1.396 . S
C92 H76 0.939 . S
C92 C91 1.396 . S
C92 C93 1.397 . S
C93 C92 1.397 . S
C93 C94 1.385 1_545 S
C94 H77 0.940 . S
C94 C93 1.385 1_565 S
C94 C95 1.388 1_565 S
C95 H74 0.929 1_545 S
C95 C90 1.391 . S
C95 C94 1.388 1_545 S
P96 O107 1.490 . S
P96 C110 1.812 . S
P96 C116 1.803 . S
P96 C122 1.819 . S
H97 C111 0.941 . S
H98 C112 0.939 . S
H99 C114 0.940 . S
H100 C115 0.940 . S
H101 C117 0.939 . S
H102 C118 0.942 . S
H103 C120 0.940 . S
H104 C121 0.939 . S
H105 C123 0.941 . S
H106 C127 0.939 . S
O107 P96 1.490 . S
H108 C124 0.939 . S
H109 C126 0.940 . S
C110 P96 1.812 . S
C110 C111 1.389 . S
C110 C115 1.391 . S
C111 H97 0.941 . S
C111 C110 1.389 . S
C111 C112 1.397 . S
C112 H98 0.939 . S
C112 C111 1.397 . S
C112 C113 1.378 . S
C113 C112 1.378 . S
C113 C114 1.378 . S
C114 H99 0.940 . S
C114 C113 1.378 . S
C114 C115 1.396 . S
C115 H100 0.940 . S
C115 C110 1.391 . S
C115 C114 1.396 . S
C116 P96 1.803 . S
C116 C117 1.378 . S
C116 C121 1.400 . S
C117 H101 0.939 . S
C117 C116 1.378 . S
C117 C118 1.361 . S
C118 H102 0.942 . S
C118 C117 1.361 . S
C118 C119 1.369 . S
C119 C118 1.369 . S
C119 C120 1.404 . S
C120 H103 0.940 . S
C120 C119 1.404 . S
C120 C121 1.389 . S
C121 H104 0.939 . S
C121 C116 1.400 . S
C121 C120 1.389 . S
C122 P96 1.819 . S
C122 C123 1.391 . S
C122 C127 1.391 . S
C123 H105 0.941 . S
C123 C122 1.391 . S
C123 C124 1.396 . S
C124 H108 0.939 . S
C124 C123 1.396 . S
C124 C125 1.397 . S
C125 C124 1.397 . S
C125 C126 1.385 . S
C126 H109 0.940 . S
C126 C125 1.385 . S
C126 C127 1.388 . S
C127 H106 0.939 . S
C127 C122 1.391 . S
C127 C126 1.388 . S
P128 O139 1.490 . S
P128 C142 1.812 1_554 S
P128 C148 1.803 . S
P128 C154 1.819 . S
H129 C143 0.941 . S
H130 C144 0.939 . S
H131 C146 0.940 . S
H132 C147 0.946 . S
H133 C149 0.939 . S
H134 C150 0.942 . S
H135 C152 0.940 . S
H136 C153 0.939 . S
H137 C155 0.941 . S
H138 C159 0.939 . S
O139 P128 1.490 . S
H140 C156 0.939 . S
H141 C158 0.940 . S
C142 P128 1.812 1_556 S
C142 C143 1.389 . S
C142 C147 1.391 . S
C143 H129 0.941 . S
C143 C142 1.389 . S
C143 C144 1.397 . S
C144 H130 0.939 . S
C144 C143 1.397 . S
C144 C145 1.378 . S
C145 C144 1.378 . S
C145 C146 1.378 . S
C146 H131 0.940 . S
C146 C145 1.378 . S
C146 C147 1.396 . S
C147 H132 0.946 . S
C147 C142 1.391 . S
C147 C146 1.396 . S
C148 P128 1.803 . S
C148 C149 1.378 . S
C148 C153 1.400 . S
C149 H133 0.939 . S
C149 C148 1.378 . S
C149 C150 1.361 . S
C150 H134 0.942 . S
C150 C149 1.361 . S
C150 C151 1.369 . S
C151 C150 1.369 . S
C151 C152 1.404 . S
C152 H135 0.940 . S
C152 C151 1.404 . S
C152 C153 1.389 . S
C153 H136 0.939 . S
C153 C148 1.400 . S
C153 C152 1.389 . S
C154 P128 1.819 . S
C154 C155 1.391 . S
C154 C159 1.391 . S
C155 H137 0.941 . S
C155 C154 1.391 . S
C155 C156 1.396 . S
C156 H140 0.939 . S
C156 C155 1.396 . S
C156 C157 1.397 . S
C157 C156 1.397 . S
C157 C158 1.385 . S
C158 H141 0.940 . S
C158 C157 1.385 . S
C158 C159 1.388 . S
C159 H138 0.939 . S
C159 C154 1.391 . S
C159 C158 1.388 . S
P160 O171 1.490 . S
P160 C174 1.812 1_554 S
P160 C180 1.803 . S
P160 C186 1.819 . S
H161 C175 0.941 . S
H162 C176 0.939 . S
H163 C178 0.940 . S
H164 C179 0.942 1_655 S
H165 C181 0.939 . S
H166 C182 0.942 . S
H167 C184 0.940 . S
H168 C185 0.936 . S
H169 C187 0.941 . S
H170 C191 0.938 . S
O171 P160 1.490 . S
H172 C188 0.939 . S
H173 C190 0.940 . S
C174 P160 1.812 1_556 S
C174 C175 1.389 . S
C174 C179 1.399 . S
C175 H161 0.941 . S
C175 C174 1.389 . S
C175 C176 1.397 . S
C176 H162 0.939 . S
C176 C175 1.397 . S
C176 C177 1.378 . S
C177 C176 1.378 . S
C177 C178 1.378 1_455 S
C178 H163 0.940 . S
C178 C177 1.378 1_655 S
C178 C179 1.394 1_655 S
C179 H164 0.942 1_455 S
C179 C174 1.399 . S
C179 C178 1.394 1_455 S
C180 P160 1.803 . S
C180 C181 1.378 . S
C180 C185 1.406 1_455 S
C181 H165 0.939 . S
C181 C180 1.378 . S
C181 C182 1.361 . S
C182 H166 0.942 . S
C182 C181 1.361 . S
C182 C183 1.369 . S
C183 C182 1.369 . S
C183 C184 1.404 1_455 S
C184 H167 0.940 . S
C184 C183 1.404 1_655 S
C184 C185 1.387 . S
C185 H168 0.936 . S
C185 C180 1.406 1_655 S
C185 C184 1.387 . S
C186 P160 1.819 . S
C186 C187 1.391 . S
C186 C191 1.391 . S
C187 H169 0.941 . S
C187 C186 1.391 . S
C187 C188 1.396 . S
C188 H172 0.939 . S
C188 C187 1.396 . S
C188 C189 1.397 . S
C189 C188 1.397 . S
C189 C190 1.385 1_455 S
C190 H173 0.940 . S
C190 C189 1.385 1_655 S
C190 C191 1.388 1_655 S
C191 H170 0.938 . S
C191 C186 1.391 . S
C191 C190 1.388 1_455 S
P192 O203 1.490 . S
P192 C206 1.812 1_554 S
P192 C212 1.803 . S
P192 C218 1.819 . S
H193 C207 0.941 . S
H194 C208 0.939 . S
H195 C210 0.940 . S
H196 C211 0.930 1_565 S
H197 C213 0.939 . S
H198 C214 0.942 . S
H199 C216 0.940 . S
H200 C217 0.933 1_565 S
H201 C219 0.941 . S
H202 C223 0.944 . S
O203 P192 1.490 . S
H204 C220 0.939 . S
H205 C222 0.940 . S
C206 P192 1.812 1_556 S
C206 C207 1.389 . S
C206 C211 1.415 . S
C207 H193 0.941 . S
C207 C206 1.389 . S
C207 C208 1.397 . S
C208 H194 0.939 . S
C208 C207 1.397 . S
C208 C209 1.378 . S
C209 C208 1.378 . S
C209 C210 1.378 1_545 S
C210 H195 0.940 . S
C210 C209 1.378 1_565 S
C210 C211 1.388 1_565 S
C211 H196 0.930 1_545 S
C211 C206 1.415 . S
C211 C210 1.388 1_545 S
C212 P192 1.803 . S
C212 C213 1.378 . S
C212 C217 1.409 . S
C213 H197 0.939 . S
C213 C212 1.378 . S
C213 C214 1.361 . S
C214 H198 0.942 . S
C214 C213 1.361 . S
C214 C215 1.369 . S
C215 C214 1.369 . S
C215 C216 1.404 1_545 S
C216 H199 0.940 . S
C216 C215 1.404 1_565 S
C216 C217 1.385 1_565 S
C217 H200 0.933 1_545 S
C217 C212 1.409 . S
C217 C216 1.385 1_545 S
C218 P192 1.819 . S
C218 C219 1.391 . S
C218 C223 1.391 . S
C219 H201 0.941 . S
C219 C218 1.391 . S
C219 C220 1.396 . S
C220 H204 0.939 . S
C220 C219 1.396 . S
C220 C221 1.397 . S
C221 C220 1.397 . S
C221 C222 1.385 1_545 S
C222 H205 0.940 . S
C222 C221 1.385 1_565 S
C222 C223 1.388 1_565 S
C223 H202 0.944 . S
C223 C218 1.391 . S
C223 C222 1.388 1_545 S
P224 O235 1.490 . S
P224 C238 1.812 1_554 S
P224 C244 1.803 . S
P224 C250 1.819 . S
H225 C239 0.941 . S
H226 C240 0.939 . S
H227 C242 0.940 . S
H228 C243 0.945 . S
H229 C245 0.939 . S
H230 C246 0.942 . S
H231 C248 0.940 . S
H232 C249 0.939 . S
H233 C251 0.941 . S
H234 C255 0.939 . S
O235 P224 1.490 . S
H236 C252 0.939 . S
H237 C254 0.940 . S
C238 P224 1.812 1_556 S
C238 C239 1.389 . S
C238 C243 1.391 . S
C239 H225 0.941 . S
C239 C238 1.389 . S
C239 C240 1.397 . S
C240 H226 0.939 . S
C240 C239 1.397 . S
C240 C241 1.378 . S
C241 C240 1.378 . S
C241 C242 1.378 . S
C242 H227 0.940 . S
C242 C241 1.378 . S
C242 C243 1.396 . S
C243 H228 0.945 . S
C243 C238 1.391 . S
C243 C242 1.396 . S
C244 P224 1.803 . S
C244 C245 1.378 . S
C244 C249 1.400 . S
C245 H229 0.939 . S
C245 C244 1.378 . S
C245 C246 1.361 . S
C246 H230 0.942 . S
C246 C245 1.361 . S
C246 C247 1.369 . S
C247 C246 1.369 . S
C247 C248 1.404 . S
C248 H231 0.940 . S
C248 C247 1.404 . S
C248 C249 1.389 . S
C249 H232 0.939 . S
C249 C244 1.400 . S
C249 C248 1.389 . S
C250 P224 1.819 . S
C250 C251 1.391 . S
C250 C255 1.391 . S
C251 H233 0.941 . S
C251 C250 1.391 . S
C251 C252 1.396 . S
C252 H236 0.939 . S
C252 C251 1.396 . S
C252 C253 1.397 . S
C253 C252 1.397 . S
C253 C254 1.385 . S
C254 H237 0.940 . S
C254 C253 1.385 . S
C254 C255 1.388 . S
C255 H234 0.939 . S
C255 C250 1.391 . S
C255 C254 1.388 . S
Pr256 C258 2.880 . S
Pr256 O276 2.562 . S
Pr256 O277 2.490 . S
Pr256 O278 2.695 1_565 S
Pr256 O279 2.512 . S
Pr256 O281 2.437 . S
Pr256 O284 2.436 1_455 S
Pr256 O286 2.438 1_565 S
Pr257 C267 2.880 . S
Pr257 O278 2.436 1_655 S
Pr257 O280 2.438 1_545 S
Pr257 O282 2.562 . S
Pr257 O283 2.490 . S
Pr257 O284 2.695 1_545 S
Pr257 O285 2.512 . S
Pr257 O287 2.437 . S
C258 Pr256 2.880 . S
C258 C259 1.491 . S
C258 O276 1.254 . S
C258 O277 1.225 . S
C259 C258 1.491 . S
C259 C260 1.392 . S
C259 C264 1.356 . S
C260 C259 1.392 . S
C260 C261 1.368 . S
C260 H288 0.929 . S
C261 C260 1.368 . S
C261 C262 1.386 . S
C261 H289 0.929 . S
C262 C261 1.386 . S
C262 C263 1.373 . S
C263 C262 1.373 . S
C263 C264 1.409 . S
C263 H290 0.931 1_455 S
C264 C259 1.356 . S
C264 C263 1.409 . S
C264 H291 0.930 1_455 S
C265 O278 1.260 1_565 S
C265 O279 1.266 . S
C266 O280 1.267 . S
C266 O281 1.278 1_655 S
C267 Pr257 2.880 . S
C267 C268 1.491 . S
C267 O282 1.254 . S
C267 O283 1.225 . S
C268 C267 1.491 . S
C268 C269 1.392 . S
C268 C273 1.356 . S
C269 C268 1.392 . S
C269 C270 1.368 . S
C269 H292 0.929 . S
C270 C269 1.368 . S
C270 C271 1.386 . S
C270 H293 0.929 . S
C271 C270 1.386 . S
C271 C272 1.373 . S
C272 C271 1.373 . S
C272 C273 1.409 . S
C272 H294 0.931 1_655 S
C273 C268 1.356 . S
C273 C272 1.409 . S
C273 H295 0.930 1_655 S
C274 O284 1.270 1_545 S
C274 O285 1.248 . S
C275 O286 1.267 . S
C275 O287 1.278 1_455 S
O276 Pr256 2.562 . S
O276 C258 1.254 . S
O277 Pr256 2.490 . S
O277 C258 1.225 . S
O278 Pr256 2.695 1_545 S
O278 Pr257 2.436 1_455 S
O278 C265 1.260 1_545 S
O279 Pr256 2.512 . S
O279 C265 1.266 . S
O280 Pr257 2.438 1_565 S
O280 C266 1.267 . S
O281 Pr256 2.437 . S
O281 C266 1.278 1_455 S
O282 Pr257 2.562 . S
O282 C267 1.254 . S
O283 Pr257 2.490 . S
O283 C267 1.225 . S
O284 Pr256 2.436 1_655 S
O284 Pr257 2.695 1_565 S
O284 C274 1.270 1_565 S
O285 Pr257 2.512 . S
O285 C274 1.248 . S
O286 Pr256 2.438 1_545 S
O286 C275 1.267 . S
O287 Pr257 2.437 . S
O287 C275 1.278 1_655 S
H288 C260 0.929 . S
H289 C261 0.929 . S
H290 C263 0.931 1_655 S
H291 C264 0.930 1_655 S
H292 C269 0.929 . S
H293 C270 0.929 . S
H294 C272 0.931 1_455 S
H295 C273 0.930 1_455 S
Pr296 C298 2.880 . S
Pr296 O316 2.562 . S
Pr296 O317 2.490 . S
Pr296 O318 2.695 . S
Pr296 O319 2.512 . S
Pr296 O321 2.437 . S
Pr296 O324 2.436 1_545 S
Pr296 O326 2.438 . S
Pr297 C307 2.880 . S
Pr297 O318 2.436 1_565 S
Pr297 O320 2.438 . S
Pr297 O322 2.562 . S
Pr297 O323 2.490 . S
Pr297 O324 2.695 . S
Pr297 O325 2.512 . S
Pr297 O327 2.437 . S
C298 Pr296 2.880 . S
C298 C299 1.491 . S
C298 O316 1.254 . S
C298 O317 1.225 . S
C299 C298 1.491 . S
C299 C300 1.392 . S
C299 C304 1.356 . S
C300 C299 1.392 . S
C300 C301 1.368 . S
C300 H328 0.929 . S
C301 C300 1.368 . S
C301 C302 1.386 . S
C301 H329 0.929 . S
C302 C301 1.386 . S
C302 C303 1.373 . S
C303 C302 1.373 . S
C303 C304 1.409 . S
C303 H330 0.931 1_545 S
C304 C299 1.356 . S
C304 C303 1.409 . S
C304 H331 0.930 1_545 S
C305 O318 1.270 . S
C305 O319 1.248 . S
C306 O320 1.267 . S
C306 O321 1.278 1_565 S
C307 Pr297 2.880 . S
C307 C308 1.491 . S
C307 O322 1.254 . S
C307 O323 1.225 . S
C308 C307 1.491 . S
C308 C309 1.392 . S
C308 C313 1.356 . S
C309 C308 1.392 . S
C309 C310 1.368 . S
C309 H332 0.929 . S
C310 C309 1.368 . S
C310 C311 1.386 . S
C310 H333 0.929 . S
C311 C310 1.386 . S
C311 C312 1.373 . S
C312 C311 1.373 . S
C312 C313 1.409 . S
C312 H334 0.931 1_565 S
C313 C308 1.356 . S
C313 C312 1.409 . S
C313 H335 0.930 1_565 S
C314 O324 1.270 . S
C314 O325 1.248 . S
C315 O326 1.267 . S
C315 O327 1.278 1_545 S
O316 Pr296 2.562 . S
O316 C298 1.254 . S
O317 Pr296 2.490 . S
O317 C298 1.225 . S
O318 Pr296 2.695 . S
O318 Pr297 2.436 1_545 S
O318 C305 1.270 . S
O319 Pr296 2.512 . S
O319 C305 1.248 . S
O320 Pr297 2.438 . S
O320 C306 1.267 . S
O321 Pr296 2.437 . S
O321 C306 1.278 1_545 S
O322 Pr297 2.562 . S
O322 C307 1.254 . S
O323 Pr297 2.490 . S
O323 C307 1.225 . S
O324 Pr296 2.436 1_565 S
O324 Pr297 2.695 . S
O324 C314 1.270 . S
O325 Pr297 2.512 . S
O325 C314 1.248 . S
O326 Pr296 2.438 . S
O326 C315 1.267 . S
O327 Pr297 2.437 . S
O327 C315 1.278 1_565 S
H328 C300 0.929 . S
H329 C301 0.929 . S
H330 C303 0.931 1_565 S
H331 C304 0.930 1_565 S
H332 C309 0.929 . S
H333 C310 0.929 . S
H334 C312 0.931 1_545 S
H335 C313 0.930 1_545 S
Pr336 C338 2.880 . S
Pr336 O356 2.562 . S
Pr336 O357 2.490 . S
Pr336 O358 2.695 . S
Pr336 O359 2.512 . S
Pr336 O361 2.437 . S
Pr336 O364 2.436 . S
Pr336 O366 2.438 . S
Pr337 C347 2.880 . S
Pr337 O358 2.436 . S
Pr337 O360 2.438 . S
Pr337 O362 2.562 . S
Pr337 O363 2.490 . S
Pr337 O364 2.695 . S
Pr337 O365 2.512 . S
Pr337 O367 2.437 . S
C338 Pr336 2.880 . S
C338 C339 1.491 . S
C338 O356 1.254 . S
C338 O357 1.225 . S
C339 C338 1.491 . S
C339 C340 1.392 . S
C339 C344 1.356 . S
C340 C339 1.392 . S
C340 C341 1.368 . S
C340 H368 0.929 . S
C341 C340 1.368 . S
C341 C342 1.386 . S
C341 H369 0.929 . S
C342 C341 1.386 . S
C342 C343 1.373 . S
C343 C342 1.373 . S
C343 C344 1.409 . S
C343 H370 0.931 . S
C344 C339 1.356 . S
C344 C343 1.409 . S
C344 H371 0.930 . S
C345 O358 1.270 . S
C345 O359 1.248 . S
C346 O360 1.267 . S
C346 O361 1.278 . S
C347 Pr337 2.880 . S
C347 C348 1.491 . S
C347 O362 1.254 . S
C347 O363 1.225 . S
C348 C347 1.491 . S
C348 C349 1.392 . S
C348 C353 1.356 . S
C349 C348 1.392 . S
C349 C350 1.368 . S
C349 H372 0.929 . S
C350 C349 1.368 . S
C350 C351 1.386 . S
C350 H373 0.929 . S
C351 C350 1.386 . S
C351 C352 1.373 . S
C352 C351 1.373 . S
C352 C353 1.409 . S
C352 H374 0.931 . S
C353 C348 1.356 . S
C353 C352 1.409 . S
C353 H375 0.930 . S
C354 O364 1.270 . S
C354 O365 1.248 . S
C355 O366 1.267 . S
C355 O367 1.278 . S
O356 Pr336 2.562 . S
O356 C338 1.254 . S
O357 Pr336 2.490 . S
O357 C338 1.225 . S
O358 Pr336 2.695 . S
O358 Pr337 2.436 . S
O358 C345 1.270 . S
O359 Pr336 2.512 . S
O359 C345 1.248 . S
O360 Pr337 2.438 . S
O360 C346 1.267 . S
O361 Pr336 2.437 . S
O361 C346 1.278 . S
O362 Pr337 2.562 . S
O362 C347 1.254 . S
O363 Pr337 2.490 . S
O363 C347 1.225 . S
O364 Pr336 2.436 . S
O364 Pr337 2.695 . S
O364 C354 1.270 . S
O365 Pr337 2.512 . S
O365 C354 1.248 . S
O366 Pr336 2.438 . S
O366 C355 1.267 . S
O367 Pr337 2.437 . S
O367 C355 1.278 . S
H368 C340 0.929 . S
H369 C341 0.929 . S
H370 C343 0.931 . S
H371 C344 0.930 . S
H372 C349 0.929 . S
H373 C350 0.929 . S
H374 C352 0.931 . S
H375 C353 0.930 . S
Pr376 C378 2.880 . S
Pr376 O396 2.562 . S
Pr376 O397 2.490 . S
Pr376 O398 2.695 1_655 S
Pr376 O399 2.512 . S
Pr376 O401 2.437 . S
Pr376 O404 2.436 . S
Pr376 O406 2.438 1_655 S
Pr377 C387 2.880 . S
Pr377 O398 2.436 . S
Pr377 O400 2.438 1_455 S
Pr377 O402 2.562 . S
Pr377 O403 2.490 . S
Pr377 O404 2.695 1_455 S
Pr377 O405 2.512 . S
Pr377 O407 2.437 . S
C378 Pr376 2.880 . S
C378 C379 1.491 . S
C378 O396 1.254 . S
C378 O397 1.225 . S
C379 C378 1.491 . S
C379 C380 1.392 . S
C379 C384 1.356 . S
C380 C379 1.392 . S
C380 C381 1.368 . S
C380 H408 0.929 . S
C381 C380 1.368 . S
C381 C382 1.386 . S
C381 H409 0.929 . S
C382 C381 1.386 . S
C382 C383 1.373 . S
C383 C382 1.373 . S
C383 C384 1.409 . S
C383 H410 0.931 . S
C384 C379 1.356 . S
C384 C383 1.409 . S
C384 H411 0.930 . S
C385 O398 1.257 1_655 S
C385 O399 1.271 . S
C386 O400 1.267 . S
C386 O401 1.278 . S
C387 Pr377 2.880 . S
C387 C388 1.491 . S
C387 O402 1.254 . S
C387 O403 1.225 . S
C388 C387 1.491 . S
C388 C389 1.392 . S
C388 C393 1.356 . S
C389 C388 1.392 . S
C389 C390 1.368 . S
C389 H412 0.929 . S
C390 C389 1.368 . S
C390 C391 1.386 . S
C390 H413 0.929 . S
C391 C390 1.386 . S
C391 C392 1.373 . S
C392 C391 1.373 . S
C392 C393 1.409 . S
C392 H414 0.931 . S
C393 C388 1.356 . S
C393 C392 1.409 . S
C393 H415 0.930 . S
C394 O404 1.270 1_455 S
C394 O405 1.248 . S
C395 O406 1.267 . S
C395 O407 1.278 . S
O396 Pr376 2.562 . S
O396 C378 1.254 . S
O397 Pr376 2.490 . S
O397 C378 1.225 . S
O398 Pr376 2.695 1_455 S
O398 Pr377 2.436 . S
O398 C385 1.257 1_455 S
O399 Pr376 2.512 . S
O399 C385 1.271 . S
O400 Pr377 2.438 1_655 S
O400 C386 1.267 . S
O401 Pr376 2.437 . S
O401 C386 1.278 . S
O402 Pr377 2.562 . S
O402 C387 1.254 . S
O403 Pr377 2.490 . S
O403 C387 1.225 . S
O404 Pr376 2.436 . S
O404 Pr377 2.695 1_655 S
O404 C394 1.270 1_655 S
O405 Pr377 2.512 . S
O405 C394 1.248 . S
O406 Pr376 2.438 1_455 S
O406 C395 1.267 . S
O407 Pr377 2.437 . S
O407 C395 1.278 . S
H408 C380 0.929 . S
H409 C381 0.929 . S
H410 C383 0.931 . S
H411 C384 0.930 . S
H412 C389 0.929 . S
H413 C390 0.929 . S
H414 C392 0.931 . S
H415 C393 0.930 . S
C416 C417 1.385 . S
C416 C418 1.327 . S
C416 H441 0.950 . S
C417 C416 1.385 . S
C417 C433 1.314 1_545 S
C418 C416 1.327 . S
C418 C437 1.472 . S
C418 H442 0.950 . S
C419 C436 1.574 . S
C419 C438 1.368 1_565 S
C419 H443 0.949 . S
H420 C424 0.949 . S
C421 C422 1.349 1_565 S
C421 C423 1.327 . S
C421 H444 0.950 . S
C422 C421 1.349 1_545 S
C422 C434 1.349 . S
C423 C421 1.327 . S
C423 C439 1.429 1_565 S
C423 H445 0.950 . S
C424 H420 0.949 . S
C424 C432 1.574 . S
C424 C440 1.368 . S
H425 C433 0.950 . S
H426 C431 0.950 . S
H427 C432 0.949 . S
H428 C434 0.950 . S
H429 C435 0.950 . S
H430 C436 0.949 . S
C431 H426 0.950 . S
C431 C433 1.327 . S
C431 C437 1.386 1_565 S
C432 C424 1.574 . S
C432 H427 0.949 . S
C432 C438 1.368 . S
C433 C417 1.314 1_565 S
C433 H425 0.950 . S
C433 C431 1.327 . S
C434 C422 1.349 . S
C434 H428 0.950 . S
C434 C435 1.327 . S
C435 H429 0.950 . S
C435 C434 1.327 . S
C435 C439 1.429 . S
C436 C419 1.574 . S
C436 H430 0.949 . S
C436 C440 1.368 1_565 S
C437 C418 1.472 . S
C437 C431 1.386 1_545 S
C437 C438 1.524 . S
C438 C419 1.368 1_545 S
C438 C432 1.368 . S
C438 C437 1.524 . S
C439 C423 1.429 1_545 S
C439 C435 1.429 . S
C439 C440 1.523 . S
C440 C424 1.368 . S
C440 C436 1.368 1_545 S
C440 C439 1.523 . S
H441 C416 0.950 . S
H442 C418 0.950 . S
H443 C419 0.949 . S
H444 C421 0.950 . S
H445 C423 0.950 . S
C446 C447 1.349 . S
C446 C448 1.327 . S
C446 H471 0.950 . S
C447 C446 1.349 . S
C447 C463 1.349 . S
C448 C446 1.327 . S
C448 C467 1.429 . S
C448 H472 0.950 . S
C449 C466 1.574 . S
C449 C468 1.368 . S
C449 H473 0.949 . S
H450 C454 0.949 . S
C451 C452 1.349 . S
C451 C453 1.327 . S
C451 H474 0.950 . S
C452 C451 1.349 . S
C452 C464 1.349 . S
C453 C451 1.327 . S
C453 C469 1.429 . S
C453 H475 0.950 . S
C454 H450 0.949 . S
C454 C462 1.574 . S
C454 C470 1.368 . S
H455 C463 0.950 . S
H456 C461 0.950 . S
H457 C462 0.949 . S
H458 C464 0.950 . S
H459 C465 0.950 . S
H460 C466 0.949 . S
C461 H456 0.950 . S
C461 C463 1.327 . S
C461 C467 1.429 . S
C462 C454 1.574 . S
C462 H457 0.949 . S
C462 C468 1.368 . S
C463 C447 1.349 . S
C463 H455 0.950 . S
C463 C461 1.327 . S
C464 C452 1.349 . S
C464 H458 0.950 . S
C464 C465 1.327 . S
C465 H459 0.950 . S
C465 C464 1.327 . S
C465 C469 1.429 . S
C466 C449 1.574 . S
C466 H460 0.949 . S
C466 C470 1.368 . S
C467 C448 1.429 . S
C467 C461 1.429 . S
C467 C468 1.523 . S
C468 C449 1.368 . S
C468 C462 1.368 . S
C468 C467 1.523 . S
C469 C453 1.429 . S
C469 C465 1.429 . S
C469 C470 1.523 . S
C470 C454 1.368 . S
C470 C466 1.368 . S
C470 C469 1.523 . S
H471 C446 0.950 . S
H472 C448 0.950 . S
H473 C449 0.949 . S
H474 C451 0.950 . S
H475 C453 0.950 . S
C476 C477 1.349 . S
C476 C478 1.327 . S
C476 H501 0.950 . S
C477 C476 1.349 . S
C477 C493 1.349 . S
C478 C476 1.327 . S
C478 C497 1.429 . S
C478 H502 0.950 . S
C479 C496 1.574 . S
C479 C498 1.368 . S
C479 H503 0.949 . S
H480 C484 0.949 . S
C481 C482 1.349 . S
C481 C483 1.327 . S
C481 H504 0.950 . S
C482 C481 1.349 . S
C482 C494 1.349 . S
C483 C481 1.327 . S
C483 C499 1.429 . S
C483 H505 0.950 . S
C484 H480 0.949 . S
C484 C492 1.574 . S
C484 C500 1.368 . S
H485 C493 0.950 . S
H486 C491 0.950 . S
H487 C492 0.949 . S
H488 C494 0.950 . S
H489 C495 0.950 . S
H490 C496 0.949 . S
C491 H486 0.950 . S
C491 C493 1.327 . S
C491 C497 1.429 . S
C492 C484 1.574 . S
C492 H487 0.949 . S
C492 C498 1.368 . S
C493 C477 1.349 . S
C493 H485 0.950 . S
C493 C491 1.327 . S
C494 C482 1.349 . S
C494 H488 0.950 . S
C494 C495 1.327 . S
C495 H489 0.950 . S
C495 C494 1.327 . S
C495 C499 1.429 . S
C496 C479 1.574 . S
C496 H490 0.949 . S
C496 C500 1.368 . S
C497 C478 1.429 . S
C497 C491 1.429 . S
C497 C498 1.523 . S
C498 C479 1.368 . S
C498 C492 1.368 . S
C498 C497 1.523 . S
C499 C483 1.429 . S
C499 C495 1.429 . S
C499 C500 1.523 . S
C500 C484 1.368 . S
C500 C496 1.368 . S
C500 C499 1.523 . S
H501 C476 0.950 . S
H502 C478 0.950 . S
H503 C479 0.949 . S
H504 C481 0.950 . S
H505 C483 0.950 . S
C506 C507 1.328 1_655 S
C506 C508 1.327 . S
C506 H531 0.950 . S
C507 C506 1.328 1_455 S
C507 C523 1.371 . S
C508 C506 1.327 . S
C508 C527 1.399 1_655 S
C508 H532 0.950 . S
C509 C526 1.574 . S
C509 C528 1.408 . S
C509 H533 0.949 . S
H510 C514 0.949 . S
C511 C512 1.349 . S
C511 C513 1.327 . S
C511 H534 0.950 . S
C512 C511 1.349 . S
C512 C524 1.349 1_455 S
C513 C511 1.327 . S
C513 C529 1.429 . S
C513 H535 0.950 . S
C514 H510 0.949 . S
C514 C522 1.574 . S
C514 C530 1.368 1_655 S
H515 C523 0.950 . S
H516 C521 0.950 . S
H517 C522 0.949 . S
H518 C524 0.950 . S
H519 C525 0.950 . S
H520 C526 0.949 . S
C521 H516 0.950 . S
C521 C523 1.327 . S
C521 C527 1.459 . S
C522 C514 1.574 . S
C522 H517 0.949 . S
C522 C528 1.330 1_655 S
C523 C507 1.371 . S
C523 H515 0.950 . S
C523 C521 1.327 . S
C524 C512 1.349 1_655 S
C524 H518 0.950 . S
C524 C525 1.327 . S
C525 H519 0.950 . S
C525 C524 1.327 . S
C525 C529 1.429 1_655 S
C526 C509 1.574 . S
C526 H520 0.949 . S
C526 C530 1.368 . S
C527 C508 1.399 1_455 S
C527 C521 1.459 . S
C527 C528 1.523 . S
C528 C509 1.408 . S
C528 C522 1.330 1_455 S
C528 C527 1.523 . S
C529 C513 1.429 . S
C529 C525 1.429 1_455 S
C529 C530 1.523 . S
C530 C514 1.368 1_455 S
C530 C526 1.368 . S
C530 C529 1.523 . S
H531 C506 0.950 . S
H532 C508 0.950 . S
H533 C509 0.949 . S
H534 C511 0.950 . S
H535 C513 0.950 . S
C536 C537 1.348 . S
C536 C538 1.327 . S
C536 H561 0.950 . S
C537 C536 1.348 . S
C537 C553 1.350 1_565 S
C538 C536 1.327 . S
C538 C557 1.436 . S
C538 H562 0.950 . S
C539 C556 1.574 1_554 S
C539 C558 1.354 1_545 S
C539 H563 0.949 . S
H540 C544 0.949 . S
C541 C542 1.313 1_545 S
C541 C543 1.327 . S
C541 H564 0.950 . S
C542 C541 1.313 1_565 S
C542 C554 1.385 . S
C543 C541 1.327 . S
C543 C559 1.403 1_545 S
C543 H565 0.950 . S
C544 H540 0.949 . S
C544 C552 1.574 1_556 S
C544 C560 1.392 . S
H545 C553 0.950 . S
H546 C551 0.950 . S
H547 C552 0.949 . S
H548 C554 0.950 . S
H549 C555 0.950 . S
H550 C556 0.949 . S
C551 H546 0.950 . S
C551 C553 1.327 . S
C551 C557 1.421 1_545 S
C552 C544 1.574 1_554 S
C552 H547 0.949 . S
C552 C558 1.382 . S
C553 C537 1.350 1_545 S
C553 H545 0.950 . S
C553 C551 1.327 . S
C554 C542 1.385 . S
C554 H548 0.950 . S
C554 C555 1.327 . S
C555 H549 0.950 . S
C555 C554 1.327 . S
C555 C559 1.455 . S
C556 C539 1.574 1_556 S
C556 H550 0.949 . S
C556 C560 1.345 1_545 S
C557 C538 1.436 . S
C557 C551 1.421 1_565 S
C557 C558 1.523 . S
C558 C539 1.354 1_565 S
C558 C552 1.382 . S
C558 C557 1.523 . S
C559 C543 1.403 1_565 S
C559 C555 1.455 . S
C559 C560 1.523 . S
C560 C544 1.392 . S
C560 C556 1.345 1_565 S
C560 C559 1.523 . S
H561 C536 0.950 . S
H562 C538 0.950 . S
H563 C539 0.949 . S
H564 C541 0.950 . S
H565 C543 0.950 . S
C566 C567 1.349 . S
C566 C568 1.327 . S
C566 H591 0.950 . S
C567 C566 1.349 . S
C567 C583 1.349 . S
C568 C566 1.327 . S
C568 C587 1.429 . S
C568 H592 0.950 . S
C569 C586 1.574 1_554 S
C569 C588 1.368 . S
C569 H593 0.949 . S
H570 C574 0.949 . S
C571 C572 1.349 . S
C571 C573 1.327 . S
C571 H594 0.950 . S
C572 C571 1.349 . S
C572 C584 1.349 . S
C573 C571 1.327 . S
C573 C589 1.429 . S
C573 H595 0.950 . S
C574 H570 0.949 . S
C574 C582 1.574 1_556 S
C574 C590 1.368 . S
H575 C583 0.950 . S
H576 C581 0.950 . S
H577 C582 0.949 . S
H578 C584 0.950 . S
H579 C585 0.950 . S
H580 C586 0.949 . S
C581 H576 0.950 . S
C581 C583 1.327 . S
C581 C587 1.429 . S
C582 C574 1.574 1_554 S
C582 H577 0.949 . S
C582 C588 1.368 . S
C583 C567 1.349 . S
C583 H575 0.950 . S
C583 C581 1.327 . S
C584 C572 1.349 . S
C584 H578 0.950 . S
C584 C585 1.327 . S
C585 H579 0.950 . S
C585 C584 1.327 . S
C585 C589 1.429 . S
C586 C569 1.574 1_556 S
C586 H580 0.949 . S
C586 C590 1.368 . S
C587 C568 1.429 . S
C587 C581 1.429 . S
C587 C588 1.523 . S
C588 C569 1.368 . S
C588 C582 1.368 . S
C588 C587 1.523 . S
C589 C573 1.429 . S
C589 C585 1.429 . S
C589 C590 1.523 . S
C590 C574 1.368 . S
C590 C586 1.368 . S
C590 C589 1.523 . S
H591 C566 0.950 . S
H592 C568 0.950 . S
H593 C569 0.949 . S
H594 C571 0.950 . S
H595 C573 0.950 . S
C596 C597 1.349 . S
C596 C598 1.327 . S
C596 H621 0.950 . S
C597 C596 1.349 . S
C597 C613 1.349 . S
C598 C596 1.327 . S
C598 C617 1.429 . S
C598 H622 0.950 . S
C599 C616 1.574 1_554 S
C599 C618 1.368 . S
C599 H623 0.949 . S
H600 C604 0.949 . S
C601 C602 1.349 . S
C601 C603 1.327 . S
C601 H624 0.950 . S
C602 C601 1.349 . S
C602 C614 1.349 . S
C603 C601 1.327 . S
C603 C619 1.429 . S
C603 H625 0.950 . S
C604 H600 0.949 . S
C604 C612 1.574 1_556 S
C604 C620 1.368 . S
H605 C613 0.950 . S
H606 C611 0.950 . S
H607 C612 0.949 . S
H608 C614 0.950 . S
H609 C615 0.950 . S
H610 C616 0.949 . S
C611 H606 0.950 . S
C611 C613 1.327 . S
C611 C617 1.429 . S
C612 C604 1.574 1_554 S
C612 H607 0.949 . S
C612 C618 1.368 . S
C613 C597 1.349 . S
C613 H605 0.950 . S
C613 C611 1.327 . S
C614 C602 1.349 . S
C614 H608 0.950 . S
C614 C615 1.327 . S
C615 H609 0.950 . S
C615 C614 1.327 . S
C615 C619 1.429 . S
C616 C599 1.574 1_556 S
C616 H610 0.949 . S
C616 C620 1.368 . S
C617 C598 1.429 . S
C617 C611 1.429 . S
C617 C618 1.523 . S
C618 C599 1.368 . S
C618 C612 1.368 . S
C618 C617 1.523 . S
C619 C603 1.429 . S
C619 C615 1.429 . S
C619 C620 1.523 . S
C620 C604 1.368 . S
C620 C616 1.368 . S
C620 C619 1.523 . S
H621 C596 0.950 . S
H622 C598 0.950 . S
H623 C599 0.949 . S
H624 C601 0.950 . S
H625 C603 0.950 . S
C626 C627 1.350 . S
C626 C628 1.327 . S
C626 H651 0.950 . S
C627 C626 1.350 . S
C627 C643 1.348 1_655 S
C628 C626 1.327 . S
C628 C647 1.431 . S
C628 H652 0.950 . S
C629 C646 1.574 . S
C629 C648 1.365 1_456 S
C629 H653 0.949 . S
H630 C634 0.949 . S
C631 C632 1.343 1_455 S
C631 C633 1.327 . S
C631 H654 0.950 . S
C632 C631 1.343 1_655 S
C632 C644 1.357 . S
C633 C631 1.327 . S
C633 C649 1.424 1_455 S
C633 H655 0.950 . S
C634 H630 0.949 . S
C634 C642 1.574 . S
C634 C650 1.374 1_554 S
H635 C643 0.950 . S
H636 C641 0.950 . S
H637 C642 0.949 . S
H638 C644 0.950 . S
H639 C645 0.950 . S
H640 C646 0.949 . S
C641 H636 0.950 . S
C641 C643 1.327 . S
C641 C647 1.426 1_455 S
C642 C634 1.574 . S
C642 H637 0.949 . S
C642 C648 1.372 . S
C643 C627 1.348 1_455 S
C643 H635 0.950 . S
C643 C641 1.327 . S
C644 C632 1.357 . S
C644 H638 0.950 . S
C644 C645 1.327 . S
C645 H639 0.950 . S
C645 C644 1.327 . S
C645 C649 1.435 . S
C646 C629 1.574 . S
C646 H640 0.949 . S
C646 C650 1.364 1_455 S
C647 C628 1.431 . S
C647 C641 1.426 1_655 S
C647 C648 1.523 . S
C648 C629 1.365 1_654 S
C648 C642 1.372 . S
C648 C647 1.523 . S
C649 C633 1.424 1_655 S
C649 C645 1.435 . S
C649 C650 1.523 . S
C650 C634 1.374 1_556 S
C650 C646 1.364 1_655 S
C650 C649 1.523 . S
H651 C626 0.950 . S
H652 C628 0.950 . S
H653 C629 0.949 . S
H654 C631 0.950 . S
H655 C633 0.950 . S
C656 C657 1.349 . S
C656 C658 1.334 . S
C656 H681 0.950 . S
C657 C656 1.349 . S
C657 C673 1.349 1_455 S
C658 C656 1.334 . S
C658 C677 1.419 1_455 S
C658 H682 0.954 . S
C659 C676 1.574 . S
C659 C678 1.368 . S
C659 H683 0.949 . S
H660 C664 0.949 . S
C661 C662 1.349 . S
C661 C663 1.327 . S
C661 H684 0.950 . S
C662 C661 1.349 . S
C662 C674 1.349 . S
C663 C661 1.327 . S
C663 C679 1.429 . S
C663 H685 0.950 . S
C664 H660 0.949 . S
C664 C672 1.574 . S
C664 C680 1.368 . S
H665 C673 0.950 . S
H666 C671 0.950 . S
H667 C672 0.949 . S
H668 C674 0.950 . S
H669 C675 0.950 . S
H670 C676 0.949 . S
C671 H666 0.950 . S
C671 C673 1.327 . S
C671 C677 1.429 . S
C672 C664 1.574 . S
C672 H667 0.949 . S
C672 C678 1.368 . S
C673 C657 1.349 1_655 S
C673 H665 0.950 . S
C673 C671 1.327 . S
C674 C662 1.349 . S
C674 H668 0.950 . S
C674 C675 1.327 . S
C675 H669 0.950 . S
C675 C674 1.327 . S
C675 C679 1.429 . S
C676 C659 1.574 . S
C676 H670 0.949 . S
C676 C680 1.368 . S
C677 C658 1.419 1_655 S
C677 C671 1.429 . S
C677 C678 1.523 . S
C678 C659 1.368 . S
C678 C672 1.368 . S
C678 C677 1.523 . S
C679 C663 1.429 . S
C679 C675 1.429 . S
C679 C680 1.523 . S
C680 C664 1.368 . S
C680 C676 1.368 . S
C680 C679 1.523 . S
H681 C656 0.950 . S
H682 C658 0.954 . S
H683 C659 0.949 . S
H684 C661 0.950 . S
H685 C663 0.950 . S
C686 C687 1.349 1_565 S
C686 C688 1.327 . S
C686 H711 0.950 . S
C687 C686 1.349 1_545 S
C687 C703 1.349 . S
C688 C686 1.327 . S
C688 C707 1.429 . S
C688 H712 0.950 . S
C689 C706 1.569 1_545 S
C689 C708 1.357 1_545 S
C689 H713 0.964 . S
H690 C694 0.949 . S
C691 C692 1.349 . S
C691 C693 1.327 . S
C691 H714 0.950 . S
C692 C691 1.349 . S
C692 C704 1.349 . S
C693 C691 1.327 . S
C693 C709 1.429 . S
C693 H715 0.950 . S
C694 H690 0.949 . S
C694 C702 1.574 . S
C694 C710 1.368 . S
H695 C703 0.950 . S
H696 C701 0.950 . S
H697 C702 0.949 . S
H698 C704 0.950 . S
H699 C705 0.950 . S
H700 C706 0.949 1_545 S
C701 H696 0.950 . S
C701 C703 1.327 . S
C701 C707 1.429 1_545 S
C702 C694 1.574 . S
C702 H697 0.949 . S
C702 C708 1.368 . S
C703 C687 1.349 . S
C703 H695 0.950 . S
C703 C701 1.327 . S
C704 C692 1.349 . S
C704 H698 0.950 . S
C704 C705 1.327 . S
C705 H699 0.950 . S
C705 C704 1.327 . S
C705 C709 1.429 . S
C706 C689 1.569 1_565 S
C706 H700 0.949 1_565 S
C706 C710 1.368 . S
C707 C688 1.429 . S
C707 C701 1.429 1_565 S
C707 C708 1.523 . S
C708 C689 1.357 1_565 S
C708 C702 1.368 . S
C708 C707 1.523 . S
C709 C693 1.429 . S
C709 C705 1.429 . S
C709 C710 1.523 . S
C710 C694 1.368 . S
C710 C706 1.368 . S
C710 C709 1.523 . S
H711 C686 0.950 . S
H712 C688 0.950 . S
H713 C689 0.964 . S
H714 C691 0.950 . S
H715 C693 0.950 . S
C716 C717 1.349 . S
C716 C718 1.327 . S
C716 H741 0.950 . S
C717 C716 1.349 . S
C717 C733 1.349 . S
C718 C716 1.327 . S
C718 C737 1.429 . S
C718 H742 0.950 . S
C719 C736 1.574 . S
C719 C738 1.368 . S
C719 H743 0.949 . S
H720 C724 0.949 . S
C721 C722 1.349 . S
C721 C723 1.327 . S
C721 H744 0.950 . S
C722 C721 1.349 . S
C722 C734 1.349 . S
C723 C721 1.327 . S
C723 C739 1.429 . S
C723 H745 0.950 . S
C724 H720 0.949 . S
C724 C732 1.574 . S
C724 C740 1.368 . S
H725 C733 0.950 . S
H726 C731 0.950 . S
H727 C732 0.949 . S
H728 C734 0.950 . S
H729 C735 0.950 . S
H730 C736 0.949 . S
C731 H726 0.950 . S
C731 C733 1.327 . S
C731 C737 1.429 . S
C732 C724 1.574 . S
C732 H727 0.949 . S
C732 C738 1.368 . S
C733 C717 1.349 . S
C733 H725 0.950 . S
C733 C731 1.327 . S
C734 C722 1.349 . S
C734 H728 0.950 . S
C734 C735 1.327 . S
C735 H729 0.950 . S
C735 C734 1.327 . S
C735 C739 1.429 . S
C736 C719 1.574 . S
C736 H730 0.949 . S
C736 C740 1.368 . S
C737 C718 1.429 . S
C737 C731 1.429 . S
C737 C738 1.523 . S
C738 C719 1.368 . S
C738 C732 1.368 . S
C738 C737 1.523 . S
C739 C723 1.429 . S
C739 C735 1.429 . S
C739 C740 1.523 . S
C740 C724 1.368 . S
C740 C736 1.368 . S
C740 C739 1.523 . S
H741 C716 0.950 . S
H742 C718 0.950 . S
H743 C719 0.949 . S
H744 C721 0.950 . S
H745 C723 0.950 . S
C746 C747 1.349 . S
C746 C748 1.327 . S
C746 H771 0.950 . S
C747 C746 1.349 . S
C747 C763 1.349 . S
C748 C746 1.327 . S
C748 C767 1.429 . S
C748 H772 0.950 . S
C749 C766 1.574 . S
C749 C768 1.368 . S
C749 H773 0.949 . S
H750 C754 0.949 . S
C751 C752 1.349 . S
C751 C753 1.327 . S
C751 H774 0.950 . S
C752 C751 1.349 . S
C752 C764 1.349 . S
C753 C751 1.327 . S
C753 C769 1.429 . S
C753 H775 0.950 . S
C754 H750 0.949 . S
C754 C762 1.574 . S
C754 C770 1.368 . S
H755 C763 0.950 . S
H756 C761 0.950 . S
H757 C762 0.949 . S
H758 C764 0.950 . S
H759 C765 0.950 . S
H760 C766 0.949 . S
C761 H756 0.950 . S
C761 C763 1.327 . S
C761 C767 1.429 . S
C762 C754 1.574 . S
C762 H757 0.949 . S
C762 C768 1.368 . S
C763 C747 1.349 . S
C763 H755 0.950 . S
C763 C761 1.327 . S
C764 C752 1.349 . S
C764 H758 0.950 . S
C764 C765 1.327 . S
C765 H759 0.950 . S
C765 C764 1.327 . S
C765 C769 1.429 . S
C766 C749 1.574 . S
C766 H760 0.949 . S
C766 C770 1.368 . S
C767 C748 1.429 . S
C767 C761 1.429 . S
C767 C768 1.523 . S
C768 C749 1.368 . S
C768 C762 1.368 . S
C768 C767 1.523 . S
C769 C753 1.429 . S
C769 C765 1.429 . S
C769 C770 1.523 . S
C770 C754 1.368 . S
C770 C766 1.368 . S
C770 C769 1.523 . S
H771 C746 0.950 . S
H772 C748 0.950 . S
H773 C749 0.949 . S
H774 C751 0.950 . S
H775 C753 0.950 . S
C776 C777 1.349 1_455 S
C776 C778 1.327 . S
C776 H801 0.950 . S
C777 C776 1.349 1_655 S
C777 C793 1.349 . S
C778 C776 1.327 . S
C778 C797 1.429 . S
C778 H802 0.950 . S
C779 C796 1.573 . S
C779 C798 1.368 1_655 S
C779 H803 0.949 . S
H780 C784 0.949 . S
C781 C782 1.349 . S
C781 C783 1.327 . S
C781 H804 0.950 . S
C782 C781 1.349 . S
C782 C794 1.349 . S
C783 C781 1.327 . S
C783 C799 1.429 . S
C783 H805 0.950 1_455 S
C784 H780 0.949 . S
C784 C792 1.574 1_556 S
C784 C800 1.368 . S
H785 C793 0.950 . S
H786 C791 0.950 . S
H787 C792 0.949 . S
H788 C794 0.950 . S
H789 C795 0.950 . S
H790 C796 0.946 . S
C791 H786 0.950 . S
C791 C793 1.327 . S
C791 C797 1.429 1_655 S
C792 C784 1.574 1_554 S
C792 H787 0.949 . S
C792 C798 1.368 . S
C793 C777 1.349 . S
C793 H785 0.950 . S
C793 C791 1.327 . S
C794 C782 1.349 . S
C794 H788 0.950 . S
C794 C795 1.327 . S
C795 H789 0.950 . S
C795 C794 1.327 . S
C795 C799 1.429 . S
C796 C779 1.573 . S
C796 H790 0.946 . S
C796 C800 1.373 1_654 S
C797 C778 1.429 . S
C797 C791 1.429 1_455 S
C797 C798 1.523 . S
C798 C779 1.368 1_455 S
C798 C792 1.368 . S
C798 C797 1.523 . S
C799 C783 1.429 . S
C799 C795 1.429 . S
C799 C800 1.523 . S
C800 C784 1.368 . S
C800 C796 1.373 1_456 S
C800 C799 1.523 . S
H801 C776 0.950 . S
H802 C778 0.950 . S
H803 C779 0.949 . S
H804 C781 0.950 . S
H805 C783 0.950 1_655 S
C806 C807 1.349 1_545 S
C806 C808 1.327 . S
C806 H831 0.950 . S
C807 C806 1.349 1_565 S
C807 C823 1.349 . S
C808 C806 1.327 . S
C808 C827 1.429 . S
C808 H832 0.950 . S
C809 C826 1.574 1_565 S
C809 C828 1.368 1_565 S
C809 H833 0.949 . S
H810 C814 0.949 . S
C811 C812 1.349 . S
C811 C813 1.327 . S
C811 H834 0.950 . S
C812 C811 1.349 . S
C812 C824 1.349 . S
C813 C811 1.327 . S
C813 C829 1.429 . S
C813 H835 0.929 1_545 S
C814 H810 0.949 . S
C814 C822 1.574 1_556 S
C814 C830 1.368 . S
H815 C823 0.950 . S
H816 C821 0.950 . S
H817 C822 0.949 . S
H818 C824 0.950 . S
H819 C825 0.950 . S
H820 C826 0.949 1_565 S
C821 H816 0.950 . S
C821 C823 1.327 . S
C821 C827 1.429 1_565 S
C822 C814 1.574 1_554 S
C822 H817 0.949 . S
C822 C828 1.368 . S
C823 C807 1.349 . S
C823 H815 0.950 . S
C823 C821 1.327 . S
C824 C812 1.349 . S
C824 H818 0.950 . S
C824 C825 1.327 . S
C825 H819 0.950 . S
C825 C824 1.327 . S
C825 C829 1.429 . S
C826 C809 1.574 1_545 S
C826 H820 0.949 1_545 S
C826 C830 1.368 1_554 S
C827 C808 1.429 . S
C827 C821 1.429 1_545 S
C827 C828 1.523 . S
C828 C809 1.368 1_545 S
C828 C822 1.368 . S
C828 C827 1.523 . S
C829 C813 1.429 . S
C829 C825 1.429 . S
C829 C830 1.523 . S
C830 C814 1.368 . S
C830 C826 1.368 1_556 S
C830 C829 1.523 . S
H831 C806 0.950 . S
H832 C808 0.950 . S
H833 C809 0.949 . S
H834 C811 0.950 . S
H835 C813 0.929 1_565 S
C836 C837 1.349 . S
C836 C838 1.327 . S
C836 H861 0.950 . S
C837 C836 1.349 . S
C837 C853 1.349 . S
C838 C836 1.327 . S
C838 C857 1.429 . S
C838 H862 0.950 . S
C839 C856 1.574 1_554 S
C839 C858 1.368 . S
C839 H863 0.949 . S
H840 C844 0.949 . S
C841 C842 1.349 . S
C841 C843 1.327 . S
C841 H864 0.950 . S
C842 C841 1.349 . S
C842 C854 1.349 . S
C843 C841 1.327 . S
C843 C859 1.429 . S
C843 H865 0.950 . S
C844 H840 0.949 . S
C844 C852 1.574 . S
C844 C860 1.368 1_554 S
H845 C853 0.950 . S
H846 C851 0.950 . S
H847 C852 0.949 . S
H848 C854 0.950 . S
H849 C855 0.950 . S
H850 C856 0.949 . S
C851 H846 0.950 . S
C851 C853 1.327 . S
C851 C857 1.429 . S
C852 C844 1.574 . S
C852 H847 0.949 . S
C852 C858 1.368 . S
C853 C837 1.349 . S
C853 H845 0.950 . S
C853 C851 1.327 . S
C854 C842 1.349 . S
C854 H848 0.950 . S
C854 C855 1.327 . S
C855 H849 0.950 . S
C855 C854 1.327 . S
C855 C859 1.429 . S
C856 C839 1.574 1_556 S
C856 H850 0.949 . S
C856 C860 1.368 . S
C857 C838 1.429 . S
C857 C851 1.429 . S
C857 C858 1.523 . S
C858 C839 1.368 . S
C858 C852 1.368 . S
C858 C857 1.523 . S
C859 C843 1.429 . S
C859 C855 1.429 . S
C859 C860 1.523 . S
C860 C844 1.368 1_556 S
C860 C856 1.368 . S
C860 C859 1.523 . S
H861 C836 0.950 . S
H862 C838 0.950 . S
H863 C839 0.949 . S
H864 C841 0.950 . S
H865 C843 0.950 . S
C866 C867 1.349 . S
C866 C868 1.327 . S
C866 H891 0.950 . S
C867 C866 1.349 . S
C867 C883 1.349 . S
C868 C866 1.327 . S
C868 C887 1.429 . S
C868 H892 0.950 . S
C869 C886 1.574 . S
C869 C888 1.368 . S
C869 H893 0.949 . S
H870 C874 0.949 . S
C871 C872 1.349 . S
C871 C873 1.327 . S
C871 H894 0.950 . S
C872 C871 1.349 . S
C872 C884 1.349 . S
C873 C871 1.327 . S
C873 C889 1.429 . S
C873 H895 0.950 . S
C874 H870 0.949 . S
C874 C882 1.574 1_556 S
C874 C890 1.368 . S
H875 C883 0.950 . S
H876 C881 0.950 . S
H877 C882 0.949 . S
H878 C884 0.950 . S
H879 C885 0.950 . S
H880 C886 0.949 . S
C881 H876 0.950 . S
C881 C883 1.327 . S
C881 C887 1.429 . S
C882 C874 1.574 1_554 S
C882 H877 0.949 . S
C882 C888 1.368 . S
C883 C867 1.349 . S
C883 H875 0.950 . S
C883 C881 1.327 . S
C884 C872 1.349 . S
C884 H878 0.950 . S
C884 C885 1.327 . S
C885 H879 0.950 . S
C885 C884 1.327 . S
C885 C889 1.429 . S
C886 C869 1.574 . S
C886 H880 0.949 . S
C886 C890 1.368 1_554 S
C887 C868 1.429 . S
C887 C881 1.429 . S
C887 C888 1.523 . S
C888 C869 1.368 . S
C888 C882 1.368 . S
C888 C887 1.523 . S
C889 C873 1.429 . S
C889 C885 1.429 . S
C889 C890 1.523 . S
C890 C874 1.368 . S
C890 C886 1.368 1_556 S
C890 C889 1.523 . S
H891 C866 0.950 . S
H892 C868 0.950 . S
H893 C869 0.949 . S
H894 C871 0.950 . S
H895 C873 0.950 . S
C896 C897 1.349 1_655 S
C896 C898 1.327 . S
C896 H921 0.950 . S
C897 C896 1.349 1_455 S
C897 C913 1.349 . S
C898 C896 1.327 . S
C898 C917 1.429 1_655 S
C898 H922 0.950 . S
C899 C916 1.574 . S
C899 C918 1.368 . S
C899 H923 0.949 . S
H900 C904 0.949 . S
C901 C902 1.349 . S
C901 C903 1.327 . S
C901 H924 0.950 . S
C902 C901 1.349 . S
C902 C914 1.356 . S
C903 C901 1.327 . S
C903 C919 1.429 . S
C903 H925 0.950 . S
C904 H900 0.949 . S
C904 C912 1.574 . S
C904 C920 1.368 1_655 S
H905 C913 0.950 . S
H906 C911 0.950 . S
H907 C912 0.949 . S
H908 C914 0.943 1_655 S
H909 C915 0.974 . S
H910 C916 0.949 . S
C911 H906 0.950 . S
C911 C913 1.327 . S
C911 C917 1.429 . S
C912 C904 1.574 . S
C912 H907 0.949 . S
C912 C918 1.368 1_655 S
C913 C897 1.349 . S
C913 H905 0.950 . S
C913 C911 1.327 . S
C914 C902 1.356 . S
C914 H908 0.943 1_455 S
C914 C915 1.325 1_455 S
C915 H909 0.974 . S
C915 C914 1.325 1_655 S
C915 C919 1.410 1_655 S
C916 C899 1.574 . S
C916 H910 0.949 . S
C916 C920 1.368 . S
C917 C898 1.429 1_455 S
C917 C911 1.429 . S
C917 C918 1.523 . S
C918 C899 1.368 . S
C918 C912 1.368 1_455 S
C918 C917 1.523 . S
C919 C903 1.429 . S
C919 C915 1.410 1_455 S
C919 C920 1.523 . S
C920 C904 1.368 1_455 S
C920 C916 1.368 . S
C920 C919 1.523 . S
H921 C896 0.950 . S
H922 C898 0.950 . S
H923 C899 0.949 . S
H924 C901 0.950 . S
H925 C903 0.950 . S
C926 C927 1.349 1_565 S
C926 C928 1.327 . S
C926 H951 0.950 . S
C927 C926 1.349 1_545 S
C927 C943 1.349 . S
C928 C926 1.327 . S
C928 C947 1.429 1_565 S
C928 H952 0.950 . S
C929 C946 1.574 . S
C929 C948 1.368 . S
C929 H953 0.949 . S
H930 C934 0.949 . S
C931 C932 1.349 . S
C931 C933 1.327 . S
C931 H954 0.950 . S
C932 C931 1.349 . S
C932 C944 1.349 1_545 S
C933 C931 1.327 . S
C933 C949 1.429 . S
C933 H955 0.950 . S
C934 H930 0.949 . S
C934 C942 1.574 . S
C934 C950 1.368 1_565 S
H935 C943 0.950 . S
H936 C941 0.950 . S
H937 C942 0.949 . S
H938 C944 0.950 . S
H939 C945 0.950 . S
H940 C946 0.949 . S
C941 H936 0.950 . S
C941 C943 1.327 . S
C941 C947 1.429 . S
C942 C934 1.574 . S
C942 H937 0.949 . S
C942 C948 1.368 1_565 S
C943 C927 1.349 . S
C943 H935 0.950 . S
C943 C941 1.327 . S
C944 C932 1.349 1_565 S
C944 H938 0.950 . S
C944 C945 1.327 . S
C945 H939 0.950 . S
C945 C944 1.327 . S
C945 C949 1.429 1_565 S
C946 C929 1.574 . S
C946 H940 0.949 . S
C946 C950 1.368 . S
C947 C928 1.429 1_545 S
C947 C941 1.429 . S
C947 C948 1.523 . S
C948 C929 1.368 . S
C948 C942 1.368 1_545 S
C948 C947 1.523 . S
C949 C933 1.429 . S
C949 C945 1.429 1_545 S
C949 C950 1.523 . S
C950 C934 1.368 1_545 S
C950 C946 1.368 . S
C950 C949 1.523 . S
H951 C926 0.950 . S
H952 C928 0.950 . S
H953 C929 0.949 . S
H954 C931 0.950 . S
H955 C933 0.950 . S
C956 C957 1.349 . S
C956 C958 1.327 . S
C956 H981 0.950 . S
C957 C956 1.349 . S
C957 C973 1.349 . S
C958 C956 1.327 . S
C958 C977 1.429 . S
C958 H982 0.950 . S
C959 C976 1.574 . S
C959 C978 1.368 . S
C959 H983 0.949 . S
H960 C964 0.949 . S
C961 C962 1.349 . S
C961 C963 1.327 . S
C961 H984 0.950 . S
C962 C961 1.349 . S
C962 C974 1.349 . S
C963 C961 1.327 . S
C963 C979 1.429 . S
C963 H985 0.950 . S
C964 H960 0.949 . S
C964 C972 1.574 . S
C964 C980 1.368 . S
H965 C973 0.950 . S
H966 C971 0.950 . S
H967 C972 0.949 . S
H968 C974 0.950 . S
H969 C975 0.950 . S
H970 C976 0.949 . S
C971 H966 0.950 . S
C971 C973 1.327 . S
C971 C977 1.429 . S
C972 C964 1.574 . S
C972 H967 0.949 . S
C972 C978 1.368 . S
C973 C957 1.349 . S
C973 H965 0.950 . S
C973 C971 1.327 . S
C974 C962 1.349 . S
C974 H968 0.950 . S
C974 C975 1.327 . S
C975 H969 0.950 . S
C975 C974 1.327 . S
C975 C979 1.429 . S
C976 C959 1.574 . S
C976 H970 0.949 . S
C976 C980 1.368 . S
C977 C958 1.429 . S
C977 C971 1.429 . S
C977 C978 1.523 . S
C978 C959 1.368 . S
C978 C972 1.368 . S
C978 C977 1.523 . S
C979 C963 1.429 . S
C979 C975 1.429 . S
C979 C980 1.523 . S
C980 C964 1.368 . S
C980 C976 1.368 . S
C980 C979 1.523 . S
H981 C956 0.950 . S
H982 C958 0.950 . S
H983 C959 0.949 . S
H984 C961 0.950 . S
H985 C963 0.950 . S
C986 C987 1.349 . S
C986 C988 1.327 . S
C986 H1011 0.950 . S
C987 C986 1.349 . S
C987 C1003 1.349 . S
C988 C986 1.327 . S
C988 C1007 1.429 . S
C988 H1012 0.950 . S
C989 C1006 1.574 . S
C989 C1008 1.368 . S
C989 H1013 0.949 . S
H990 C994 0.949 . S
C991 C992 1.349 . S
C991 C993 1.327 . S
C991 H1014 0.950 . S
C992 C991 1.349 . S
C992 C1004 1.349 . S
C993 C991 1.327 . S
C993 C1009 1.429 . S
C993 H1015 0.950 . S
C994 H990 0.949 . S
C994 C1002 1.574 . S
C994 C1010 1.368 . S
H995 C1003 0.950 . S
H996 C1001 0.950 . S
H997 C1002 0.949 . S
H998 C1004 0.950 . S
H999 C1005 0.950 . S
H1000 C1006 0.949 . S
C1001 H996 0.950 . S
C1001 C1003 1.327 . S
C1001 C1007 1.429 . S
C1002 C994 1.574 . S
C1002 H997 0.949 . S
C1002 C1008 1.368 . S
C1003 C987 1.349 . S
C1003 H995 0.950 . S
C1003 C1001 1.327 . S
C1004 C992 1.349 . S
C1004 H998 0.950 . S
C1004 C1005 1.327 . S
C1005 H999 0.950 . S
C1005 C1004 1.327 . S
C1005 C1009 1.429 . S
C1006 C989 1.574 . S
C1006 H1000 0.949 . S
C1006 C1010 1.368 . S
C1007 C988 1.429 . S
C1007 C1001 1.429 . S
C1007 C1008 1.523 . S
C1008 C989 1.368 . S
C1008 C1002 1.368 . S
C1008 C1007 1.523 . S
C1009 C993 1.429 . S
C1009 C1005 1.429 . S
C1009 C1010 1.523 . S
C1010 C994 1.368 . S
C1010 C1006 1.368 . S
C1010 C1009 1.523 . S
H1011 C986 0.950 . S
H1012 C988 0.950 . S
H1013 C989 0.949 . S
H1014 C991 0.950 . S
H1015 C993 0.950 . S
C1016 C1017 1.349 1_455 S
C1016 C1018 1.327 . S
C1016 H1041 0.950 . S
C1017 C1016 1.349 1_655 S
C1017 C1033 1.349 . S
C1018 C1016 1.327 . S
C1018 C1037 1.429 1_455 S
C1018 H1042 0.950 . S
C1019 C1036 1.574 . S
C1019 C1038 1.368 . S
C1019 H1043 0.949 . S
H1020 C1024 0.949 . S
C1021 C1022 1.349 . S
C1021 C1023 1.327 . S
C1021 H1044 0.950 . S
C1022 C1021 1.349 . S
C1022 C1034 1.349 1_655 S
C1023 C1021 1.327 . S
C1023 C1039 1.429 . S
C1023 H1045 0.950 . S
C1024 H1020 0.949 . S
C1024 C1032 1.574 . S
C1024 C1040 1.368 1_455 S
H1025 C1033 0.950 . S
H1026 C1031 0.950 . S
H1027 C1032 0.949 . S
H1028 C1034 0.950 . S
H1029 C1035 0.950 . S
H1030 C1036 0.949 . S
C1031 H1026 0.950 . S
C1031 C1033 1.327 . S
C1031 C1037 1.429 . S
C1032 C1024 1.574 . S
C1032 H1027 0.949 . S
C1032 C1038 1.368 1_455 S
C1033 C1017 1.349 . S
C1033 H1025 0.950 . S
C1033 C1031 1.327 . S
C1034 C1022 1.349 1_455 S
C1034 H1028 0.950 . S
C1034 C1035 1.327 . S
C1035 H1029 0.950 . S
C1035 C1034 1.327 . S
C1035 C1039 1.429 1_455 S
C1036 C1019 1.574 . S
C1036 H1030 0.949 . S
C1036 C1040 1.368 . S
C1037 C1018 1.429 1_655 S
C1037 C1031 1.429 . S
C1037 C1038 1.523 . S
C1038 C1019 1.368 . S
C1038 C1032 1.368 1_655 S
C1038 C1037 1.523 . S
C1039 C1023 1.429 . S
C1039 C1035 1.429 1_655 S
C1039 C1040 1.523 . S
C1040 C1024 1.368 1_655 S
C1040 C1036 1.368 . S
C1040 C1039 1.523 . S
H1041 C1016 0.950 . S
H1042 C1018 0.950 . S
H1043 C1019 0.949 . S
H1044 C1021 0.950 . S
H1045 C1023 0.950 . S
C1046 C1047 1.349 1_545 S
C1046 C1048 1.327 . S
C1046 H1071 0.950 . S
C1047 C1046 1.349 1_565 S
C1047 C1063 1.349 . S
C1048 C1046 1.327 . S
C1048 C1067 1.429 1_545 S
C1048 H1072 0.950 . S
C1049 C1066 1.574 . S
C1049 C1068 1.368 . S
C1049 H1073 0.949 . S
H1050 C1054 0.949 . S
C1051 C1052 1.349 . S
C1051 C1053 1.327 . S
C1051 H1074 0.950 . S
C1052 C1051 1.349 . S
C1052 C1064 1.351 . S
C1053 C1051 1.327 . S
C1053 C1069 1.429 . S
C1053 H1075 0.950 . S
C1054 H1050 0.949 . S
C1054 C1062 1.574 . S
C1054 C1070 1.368 1_545 S
H1055 C1063 0.950 . S
H1056 C1061 0.950 . S
H1057 C1062 0.949 . S
H1058 C1064 0.948 1_545 S
H1059 C1065 0.977 . S
H1060 C1066 0.949 . S
C1061 H1056 0.950 . S
C1061 C1063 1.327 . S
C1061 C1067 1.429 . S
C1062 C1054 1.574 . S
C1062 H1057 0.949 . S
C1062 C1068 1.368 1_545 S
C1063 C1047 1.349 . S
C1063 H1055 0.950 . S
C1063 C1061 1.327 . S
C1064 C1052 1.351 . S
C1064 H1058 0.948 1_565 S
C1064 C1065 1.325 1_565 S
C1065 H1059 0.977 . S
C1065 C1064 1.325 1_545 S
C1065 C1069 1.408 1_545 S
C1066 C1049 1.574 . S
C1066 H1060 0.949 . S
C1066 C1070 1.368 . S
C1067 C1048 1.429 1_565 S
C1067 C1061 1.429 . S
C1067 C1068 1.523 . S
C1068 C1049 1.368 . S
C1068 C1062 1.368 1_565 S
C1068 C1067 1.523 . S
C1069 C1053 1.429 . S
C1069 C1065 1.408 1_565 S
C1069 C1070 1.523 . S
C1070 C1054 1.368 1_565 S
C1070 C1066 1.368 . S
C1070 C1069 1.523 . S
H1071 C1046 0.950 . S
H1072 C1048 0.950 . S
H1073 C1049 0.949 . S
H1074 C1051 0.950 . S
H1075 C1053 0.950 . S
C1076 C1077 1.349 . S
C1076 C1078 1.327 . S
C1076 H1101 0.950 . S
C1077 C1076 1.349 . S
C1077 C1093 1.349 . S
C1078 C1076 1.327 . S
C1078 C1097 1.429 . S
C1078 H1102 0.950 . S
C1079 C1096 1.574 . S
C1079 C1098 1.368 . S
C1079 H1103 0.949 . S
H1080 C1084 0.949 . S
C1081 C1082 1.349 . S
C1081 C1083 1.327 . S
C1081 H1104 0.950 . S
C1082 C1081 1.349 . S
C1082 C1094 1.349 . S
C1083 C1081 1.327 . S
C1083 C1099 1.429 . S
C1083 H1105 0.950 . S
C1084 H1080 0.949 . S
C1084 C1092 1.574 . S
C1084 C1100 1.368 . S
H1085 C1093 0.950 . S
H1086 C1091 0.950 . S
H1087 C1092 0.949 . S
H1088 C1094 0.950 . S
H1089 C1095 0.950 . S
H1090 C1096 0.949 . S
C1091 H1086 0.950 . S
C1091 C1093 1.327 . S
C1091 C1097 1.429 . S
C1092 C1084 1.574 . S
C1092 H1087 0.949 . S
C1092 C1098 1.368 . S
C1093 C1077 1.349 . S
C1093 H1085 0.950 . S
C1093 C1091 1.327 . S
C1094 C1082 1.349 . S
C1094 H1088 0.950 . S
C1094 C1095 1.327 . S
C1095 H1089 0.950 . S
C1095 C1094 1.327 . S
C1095 C1099 1.429 . S
C1096 C1079 1.574 . S
C1096 H1090 0.949 . S
C1096 C1100 1.368 . S
C1097 C1078 1.429 . S
C1097 C1091 1.429 . S
C1097 C1098 1.523 . S
C1098 C1079 1.368 . S
C1098 C1092 1.368 . S
C1098 C1097 1.523 . S
C1099 C1083 1.429 . S
C1099 C1095 1.429 . S
C1099 C1100 1.523 . S
C1100 C1084 1.368 . S
C1100 C1096 1.368 . S
C1100 C1099 1.523 . S
H1101 C1076 0.950 . S
H1102 C1078 0.950 . S
H1103 C1079 0.949 . S
H1104 C1081 0.950 . S
H1105 C1083 0.950 . S
C1106 C1107 1.349 . S
C1106 C1108 1.327 . S
C1106 H1131 0.950 . S
C1107 C1106 1.349 . S
C1107 C1123 1.349 . S
C1108 C1106 1.327 . S
C1108 C1127 1.429 . S
C1108 H1132 0.950 . S
C1109 C1126 1.574 . S
C1109 C1128 1.368 . S
C1109 H1133 0.949 . S
H1110 C1114 0.949 . S
C1111 C1112 1.349 . S
C1111 C1113 1.327 . S
C1111 H1134 0.950 . S
C1112 C1111 1.349 . S
C1112 C1124 1.349 . S
C1113 C1111 1.327 . S
C1113 C1129 1.429 . S
C1113 H1135 0.950 . S
C1114 H1110 0.949 . S
C1114 C1122 1.574 . S
C1114 C1130 1.368 . S
H1115 C1123 0.950 . S
H1116 C1121 0.950 . S
H1117 C1122 0.949 . S
H1118 C1124 0.950 . S
H1119 C1125 0.950 . S
H1120 C1126 0.949 . S
C1121 H1116 0.950 . S
C1121 C1123 1.327 . S
C1121 C1127 1.429 . S
C1122 C1114 1.574 . S
C1122 H1117 0.949 . S
C1122 C1128 1.368 . S
C1123 C1107 1.349 . S
C1123 H1115 0.950 . S
C1123 C1121 1.327 . S
C1124 C1112 1.349 . S
C1124 H1118 0.950 . S
C1124 C1125 1.327 . S
C1125 H1119 0.950 . S
C1125 C1124 1.327 . S
C1125 C1129 1.429 . S
C1126 C1109 1.574 . S
C1126 H1120 0.949 . S
C1126 C1130 1.368 . S
C1127 C1108 1.429 . S
C1127 C1121 1.429 . S
C1127 C1128 1.523 . S
C1128 C1109 1.368 . S
C1128 C1122 1.368 . S
C1128 C1127 1.523 . S
C1129 C1113 1.429 . S
C1129 C1125 1.429 . S
C1129 C1130 1.523 . S
C1130 C1114 1.368 . S
C1130 C1126 1.368 . S
C1130 C1129 1.523 . S
H1131 C1106 0.950 . S
H1132 C1108 0.950 . S
H1133 C1109 0.949 . S
H1134 C1111 0.950 . S
H1135 C1113 0.950 . S
C417 C215 1.805 . S
C422 C265 1.902 1_545 S
C452 C305 1.905 . S
C447 C247 1.798 . S
C482 C345 1.905 . S
C477 C151 1.798 . S
C512 C385 1.902 1_455 S
C507 C183 1.803 . S
C542 C274 1.901 1_565 S
C537 C87 1.798 1_565 S
C567 C119 1.800 . S
C572 C314 1.905 . S
C597 C23 1.799 . S
C602 C354 1.905 . S
C627 C55 1.798 1_655 S
C632 C394 1.901 1_655 S
C662 C271 0.283 . S
C657 C189 0.236 . S
C692 C311 0.283 . S
C687 C221 0.236 . S
C722 C351 0.283 . S
C717 C253 0.236 . S
C747 C157 0.236 . S
C752 C391 0.283 . S
C777 C61 0.443 1_655 S
C782 C262 0.277 . S
C812 C302 0.283 . S
C807 C93 0.436 1_565 S
C842 C342 0.283 . S
C837 C125 0.442 . S
C867 C29 0.443 . S
C872 C382 0.283 . S
C897 C177 2.233 . S
C902 C275 2.475 . S
C927 C209 2.233 . S
C932 C315 2.475 . S
C962 C355 2.475 . S
C957 C241 2.233 . S
C992 C395 2.475 . S
C987 C145 2.233 . S
C1017 C49 2.252 1_655 S
C1022 C266 2.475 . S
C1052 C306 2.475 . S
C1047 C81 2.251 1_565 S
C1082 C346 2.475 . S
C1077 C113 2.252 . S
C1107 C17 2.252 . S
C1112 C386 2.474 . S
