# Generated by pormake.
# Topology pyr, (3,6)-cn, num edge types: 1
# Building blocks:
#     Node 0, Type 0, BuildingBlock: MIDCAF_clean_linker_0, # of connection points: 3
#     Node 1, Type 0, BuildingBlock: MIDCAF_clean_linker_0, # of connection points: 3
#     Node 2, Type 0, BuildingBlock: MIDCAF_clean_linker_0, # of connection points: 3
#     Node 3, Type 0, BuildingBlock: MIDCAF_clean_linker_0, # of connection points: 3
#     Node 4, Type 0, BuildingBlock: MIDCAF_clean_linker_0, # of connection points: 3
#     Node 5, Type 0, BuildingBlock: MIDCAF_clean_linker_0, # of connection points: 3
#     Node 6, Type 0, BuildingBlock: MIDCAF_clean_linker_0, # of connection points: 3
#     Node 7, Type 0, BuildingBlock: MIDCAF_clean_linker_0, # of connection points: 3
#     Node 8, Type 1, BuildingBlock: FUNLAD_clean_sbu_0, # of connection points: 6
#     Node 9, Type 1, BuildingBlock: FUNLAD_clean_sbu_0, # of connection points: 6
#     Node 10, Type 1, BuildingBlock: FUNLAD_clean_sbu_0, # of connection points: 6
#     Node 11, Type 1, BuildingBlock: FUNLAD_clean_sbu_0, # of connection points: 6
#     Edge 12, Type (0, 1), BuildingBlock: MIFKUJ_clean_linker_0, # of connection points: 2
#     Edge 13, Type (0, 1), BuildingBlock: MIFKUJ_clean_linker_0, # of connection points: 2
#     Edge 14, Type (0, 1), BuildingBlock: MIFKUJ_clean_linker_0, # of connection points: 2
#     Edge 15, Type (0, 1), BuildingBlock: MIFKUJ_clean_linker_0, # of connection points: 2
#     Edge 16, Type (0, 1), BuildingBlock: MIFKUJ_clean_linker_0, # of connection points: 2
#     Edge 17, Type (0, 1), BuildingBlock: MIFKUJ_clean_linker_0, # of connection points: 2
#     Edge 18, Type (0, 1), BuildingBlock: MIFKUJ_clean_linker_0, # of connection points: 2
#     Edge 19, Type (0, 1), BuildingBlock: MIFKUJ_clean_linker_0, # of connection points: 2
#     Edge 20, Type (0, 1), BuildingBlock: MIFKUJ_clean_linker_0, # of connection points: 2
#     Edge 21, Type (0, 1), BuildingBlock: MIFKUJ_clean_linker_0, # of connection points: 2
#     Edge 22, Type (0, 1), BuildingBlock: MIFKUJ_clean_linker_0, # of connection points: 2
#     Edge 23, Type (0, 1), BuildingBlock: MIFKUJ_clean_linker_0, # of connection points: 2
#     Edge 24, Type (0, 1), BuildingBlock: MIFKUJ_clean_linker_0, # of connection points: 2
#     Edge 25, Type (0, 1), BuildingBlock: MIFKUJ_clean_linker_0, # of connection points: 2
#     Edge 26, Type (0, 1), BuildingBlock: MIFKUJ_clean_linker_0, # of connection points: 2
#     Edge 27, Type (0, 1), BuildingBlock: MIFKUJ_clean_linker_0, # of connection points: 2
#     Edge 28, Type (0, 1), BuildingBlock: MIFKUJ_clean_linker_0, # of connection points: 2
#     Edge 29, Type (0, 1), BuildingBlock: MIFKUJ_clean_linker_0, # of connection points: 2
#     Edge 30, Type (0, 1), BuildingBlock: MIFKUJ_clean_linker_0, # of connection points: 2
#     Edge 31, Type (0, 1), BuildingBlock: MIFKUJ_clean_linker_0, # of connection points: 2
#     Edge 32, Type (0, 1), BuildingBlock: MIFKUJ_clean_linker_0, # of connection points: 2
#     Edge 33, Type (0, 1), BuildingBlock: MIFKUJ_clean_linker_0, # of connection points: 2
#     Edge 34, Type (0, 1), BuildingBlock: MIFKUJ_clean_linker_0, # of connection points: 2
#     Edge 35, Type (0, 1), BuildingBlock: MIFKUJ_clean_linker_0, # of connection points: 2
# Relax obj value: 0.039
# Max RMSD: 0.057
# Mean RMSD: 0.023
data_MOF--net-pry--node1-FUNLAD_clean_sbu_0--node2-MIDCAF_clean_linker_0--edge1-MIFKUJ_clean_linker_0
_symmetry_space_group_name_H-M    P1
_symmetry_Int_Tables_number       1
_symmetry_cell_setting            triclinic
loop_
_symmetry_equiv_pos_as_xyz
'x, y, z'
_cell_length_a     55.053087
_cell_length_b     57.692769
_cell_length_c     58.039661
_cell_angle_alpha  90.211681
_cell_angle_beta   90.246234
_cell_angle_gamma 87.517236
loop_
_atom_site_label
_atom_site_type_symbol
_atom_site_fract_x
_atom_site_fract_y
_atom_site_fract_z
_atom_type_partial_charge
C0 C 0.1091 0.14829 0.24871 0.0
C1 C 0.11775 0.12625 0.25633 0.0
C2 C 0.13617 0.1147 0.24334 0.0
C3 C 0.14573 0.12486 0.22356 0.0
H4 H 0.19676 0.11259 0.16997 0.0
H5 H 0.23229 0.09468 0.151 0.0
H6 H 0.24607 0.16011 0.11852 0.0
H7 H 0.20993 0.17751 0.13654 0.0
H8 H 0.16449 0.21304 0.13077 0.0
H9 H 0.14677 0.24801 0.11332 0.0
H10 H 0.08718 0.24763 0.16143 0.0
H11 H 0.10533 0.21268 0.17938 0.0
H12 H 0.11133 0.17536 0.22359 0.0
H13 H 0.09477 0.15768 0.25802 0.0
H14 H 0.14359 0.09787 0.24869 0.0
H15 H 0.15999 0.11534 0.21426 0.0
N16 N 0.16781 0.14771 0.18463 0.0
N17 N 0.16776 0.17755 0.15729 0.0
N18 N 0.13766 0.17789 0.18589 0.0
C19 C 0.17804 0.15749 0.16588 0.0
C20 C 0.14753 0.18788 0.16698 0.0
C21 C 0.14771 0.15778 0.1949 0.0
C22 C 0.20026 0.14653 0.15479 0.0
C23 C 0.20737 0.12315 0.15876 0.0
C24 C 0.22797 0.11289 0.14791 0.0
C25 C 0.2424 0.12576 0.13299 0.0
C26 C 0.23537 0.14927 0.12934 0.0
C27 C 0.21459 0.1594 0.1399 0.0
C28 C 0.13643 0.20974 0.1566 0.0
C29 C 0.14761 0.2203 0.13776 0.0
C30 C 0.13728 0.24044 0.12755 0.0
C31 C 0.11532 0.25082 0.13571 0.0
C32 C 0.1042 0.24041 0.1547 0.0
C33 C 0.11459 0.2202 0.16498 0.0
C34 C 0.1371 0.1469 0.21591 0.0
C35 C 0.11853 0.1584 0.22878 0.0
C36 C 0.27598 0.89686 0.65097 0.0
C37 C 0.26638 0.88758 0.63054 0.0
C38 C 0.27835 0.86778 0.62092 0.0
C39 C 0.29915 0.85756 0.63139 0.0
H40 H 0.34462 0.80057 0.62727 0.0
H41 H 0.36226 0.7655 0.60975 0.0
H42 H 0.42249 0.7664 0.65753 0.0
H43 H 0.40489 0.80189 0.67514 0.0
H44 H 0.40187 0.84092 0.71729 0.0
H45 H 0.41786 0.85791 0.75255 0.0
H46 H 0.35897 0.90981 0.752 0.0
H47 H 0.34279 0.89271 0.71712 0.0
H48 H 0.30352 0.89428 0.67719 0.0
H49 H 0.26718 0.91189 0.65911 0.0
H50 H 0.27184 0.86029 0.60504 0.0
H51 H 0.30774 0.84239 0.62331 0.0
N52 N 0.34176 0.83624 0.65369 0.0
N53 N 0.37141 0.83536 0.68294 0.0
N54 N 0.34057 0.86489 0.68243 0.0
C55 C 0.36196 0.82587 0.66344 0.0
C56 C 0.36079 0.85491 0.69261 0.0
C57 C 0.33092 0.85574 0.66295 0.0
C58 C 0.3732 0.80426 0.65278 0.0
C59 C 0.36164 0.79343 0.63416 0.0
C60 C 0.37172 0.77311 0.62411 0.0
C61 C 0.39379 0.7629 0.63222 0.0
C62 C 0.40557 0.77381 0.65068 0.0
C63 C 0.39537 0.79414 0.66088 0.0
C64 C 0.37093 0.86531 0.71416 0.0
C65 C 0.39228 0.85594 0.72466 0.0
C66 C 0.40157 0.86581 0.74489 0.0
C67 C 0.38975 0.88529 0.75533 0.0
C68 C 0.36844 0.89464 0.74479 0.0
C69 C 0.35921 0.88485 0.72457 0.0
C70 C 0.30873 0.86679 0.65184 0.0
C71 C 0.29683 0.88663 0.66146 0.0
C72 C 0.59203 0.34644 0.96658 0.0
C73 C 0.57058 0.33929 0.95601 0.0
C74 C 0.55758 0.35479 0.94143 0.0
C75 C 0.5666 0.37644 0.93643 0.0
H76 H 0.55548 0.43511 0.89369 0.0
H77 H 0.54156 0.44678 0.85541 0.0
H78 H 0.61411 0.46726 0.839 0.0
H79 H 0.62763 0.45665 0.87753 0.0
H80 H 0.65736 0.46879 0.93231 0.0
H81 H 0.6993 0.47627 0.94308 0.0
H82 H 0.70834 0.40699 0.97048 0.0
H83 H 0.66636 0.39949 0.96007 0.0
H84 H 0.6181 0.37269 0.96941 0.0
H85 H 0.60223 0.33499 0.97819 0.0
H86 H 0.54107 0.34973 0.93292 0.0
H87 H 0.55657 0.38754 0.92438 0.0
N88 N 0.59041 0.41632 0.91967 0.0
N89 N 0.62387 0.44006 0.91896 0.0
N90 N 0.62217 0.41027 0.94623 0.0
C91 C 0.60205 0.43421 0.9102 0.0
C92 C 0.63393 0.42829 0.93712 0.0
C93 C 0.60028 0.40429 0.93772 0.0
C94 C 0.59271 0.44475 0.88856 0.0
C95 C 0.56832 0.44253 0.88202 0.0
C96 C 0.5604 0.44905 0.86 0.0
C97 C 0.57678 0.45758 0.84389 0.0
C98 C 0.60087 0.46098 0.85093 0.0
C99 C 0.60869 0.4548 0.87307 0.0
C100 C 0.65857 0.43354 0.94529 0.0
C101 C 0.66821 0.45523 0.94083 0.0
C102 C 0.69213 0.45956 0.94706 0.0
C103 C 0.70696 0.44215 0.95749 0.0
C104 C 0.69725 0.42062 0.96232 0.0
C105 C 0.6732 0.41642 0.95648 0.0
C106 C 0.58883 0.38307 0.9459 0.0
C107 C 0.60104 0.36812 0.96162 0.0
C108 C 0.80631 0.5898 0.45843 0.0
C109 C 0.797 0.56815 0.45317 0.0
C110 C 0.81224 0.55093 0.44296 0.0
C111 C 0.83623 0.55557 0.43739 0.0
H112 H 0.88237 0.54677 0.37985 0.0
H113 H 0.89632 0.53587 0.34136 0.0
H114 H 0.96162 0.57337 0.35225 0.0
H115 H 0.9477 0.58453 0.39057 0.0
H116 H 0.94755 0.62458 0.42638 0.0
H117 H 0.96202 0.66289 0.43498 0.0
H118 H 0.89732 0.67884 0.47481 0.0
H119 H 0.88252 0.64061 0.46598 0.0
H120 H 0.83688 0.61133 0.45723 0.0
H121 H 0.7949 0.60329 0.46646 0.0
H122 H 0.80539 0.53412 0.43869 0.0
H123 H 0.84744 0.54215 0.42905 0.0
N124 N 0.88131 0.57114 0.41745 0.0
N125 N 0.91391 0.59587 0.41922 0.0
N126 N 0.88117 0.60149 0.44449 0.0
C127 C 0.90322 0.57747 0.40945 0.0
C128 C 0.90312 0.60792 0.43678 0.0
C129 C 0.87027 0.58299 0.43509 0.0
C130 C 0.91367 0.56692 0.38818 0.0
C131 C 0.89994 0.5523 0.37427 0.0
C132 C 0.90796 0.54598 0.35221 0.0
C133 C 0.92986 0.55411 0.34367 0.0
C134 C 0.94441 0.56726 0.35821 0.0
C135 C 0.93643 0.57357 0.38022 0.0
C136 C 0.91367 0.6296 0.44518 0.0
C137 C 0.93651 0.63608 0.43725 0.0
C138 C 0.94491 0.65801 0.4423 0.0
C139 C 0.93066 0.67395 0.45534 0.0
C140 C 0.9085 0.66702 0.46439 0.0
C141 C 0.90011 0.64504 0.45943 0.0
C142 C 0.84549 0.57738 0.44234 0.0
C143 C 0.83038 0.59431 0.45326 0.0
C144 C 0.78029 0.89859 0.86485 0.0
C145 C 0.76668 0.88614 0.88081 0.0
C146 C 0.77455 0.86305 0.88556 0.0
C147 C 0.79531 0.8529 0.87498 0.0
H148 H 0.85776 0.80898 0.89074 0.0
H149 H 0.87568 0.77425 0.90837 0.0
H150 H 0.90788 0.75402 0.84311 0.0
H151 H 0.89089 0.78974 0.82582 0.0
H152 H 0.89578 0.83559 0.78824 0.0
H153 H 0.91146 0.85303 0.75337 0.0
H154 H 0.86368 0.91343 0.76412 0.0
H155 H 0.84754 0.89573 0.79839 0.0
H156 H 0.81082 0.89853 0.84192 0.0
H157 H 0.77532 0.91649 0.86088 0.0
H158 H 0.7645 0.85253 0.89726 0.0
H159 H 0.80058 0.8351 0.87917 0.0
N160 N 0.84149 0.83447 0.85641 0.0
N161 N 0.87041 0.83335 0.82668 0.0
N162 N 0.84037 0.86363 0.82833 0.0
C163 C 0.86128 0.82387 0.84622 0.0
C164 C 0.86011 0.85335 0.81764 0.0
C165 C 0.83081 0.85426 0.84763 0.0
C166 C 0.87273 0.80231 0.85675 0.0
C167 C 0.86869 0.79717 0.88008 0.0
C168 C 0.8789 0.77695 0.89022 0.0
C169 C 0.89322 0.76075 0.87732 0.0
C170 C 0.89734 0.76597 0.85392 0.0
C171 C 0.88743 0.7865 0.84386 0.0
C172 C 0.87023 0.86409 0.79632 0.0
C173 C 0.88858 0.85259 0.78319 0.0
C174 C 0.89773 0.86274 0.76314 0.0
C175 C 0.88894 0.88479 0.75557 0.0
C176 C 0.87072 0.8963 0.76887 0.0
C177 C 0.86149 0.88612 0.7888 0.0
C178 C 0.80879 0.86532 0.85899 0.0
C179 C 0.80089 0.8883 0.85401 0.0
C180 C 0.64234 0.12311 0.26211 0.0
C181 C 0.61849 0.1288 0.2546 0.0
C182 C 0.60423 0.14464 0.2679 0.0
C183 C 0.61365 0.15465 0.288 0.0
H184 H 0.60033 0.20798 0.33959 0.0
H185 H 0.5826 0.24343 0.35731 0.0
H186 H 0.64908 0.25208 0.3954 0.0
H187 H 0.66671 0.21679 0.37799 0.0
H188 H 0.69419 0.16404 0.39094 0.0
H189 H 0.73013 0.14579 0.40922 0.0
H190 H 0.74726 0.10892 0.34616 0.0
H191 H 0.71112 0.12699 0.32781 0.0
H192 H 0.67004 0.12785 0.28751 0.0
H193 H 0.65378 0.11082 0.25248 0.0
H194 H 0.58585 0.14957 0.26258 0.0
H195 H 0.60214 0.16682 0.2977 0.0
N196 N 0.6367 0.17832 0.32717 0.0
N197 N 0.66651 0.17748 0.35629 0.0
N198 N 0.66804 0.14926 0.32709 0.0
C199 C 0.64619 0.18776 0.34667 0.0
C200 C 0.67753 0.15821 0.34674 0.0
C201 C 0.64759 0.15907 0.31719 0.0
C202 C 0.63501 0.20937 0.35729 0.0
C203 C 0.61118 0.21742 0.35174 0.0
C204 C 0.60095 0.23771 0.362 0.0
C205 C 0.61442 0.2507 0.37776 0.0
C206 C 0.63824 0.24269 0.38319 0.0
C207 C 0.64831 0.22229 0.37326 0.0
C208 C 0.69963 0.14705 0.35783 0.0
C209 C 0.70557 0.15206 0.3809 0.0
C210 C 0.72613 0.14148 0.39147 0.0
C211 C 0.7416 0.12586 0.37919 0.0
C212 C 0.73583 0.12097 0.35607 0.0
C213 C 0.71501 0.13127 0.34559 0.0
C214 C 0.63747 0.14881 0.2956 0.0
C215 C 0.65162 0.13282 0.28235 0.0
C216 C 0.3149 0.54963 0.06694 0.0
C217 C 0.30022 0.5664 0.05537 0.0
C218 C 0.31009 0.58751 0.04925 0.0
C219 C 0.33405 0.59204 0.05503 0.0
H220 H 0.38499 0.63958 0.04614 0.0
H221 H 0.39945 0.67797 0.03792 0.0
H222 H 0.46333 0.66306 0.07961 0.0
H223 H 0.44914 0.62456 0.08773 0.0
H224 H 0.44522 0.58862 0.12685 0.0
H225 H 0.4574 0.57571 0.16497 0.0
H226 H 0.40096 0.52593 0.16421 0.0
H227 H 0.38811 0.53942 0.12614 0.0
H228 H 0.3495 0.54125 0.08248 0.0
H229 H 0.30764 0.53324 0.07192 0.0
H230 H 0.29917 0.60063 0.04013 0.0
H231 H 0.34091 0.6087 0.05042 0.0
N232 N 0.38385 0.60035 0.06693 0.0
N233 N 0.41588 0.59505 0.09328 0.0
N234 N 0.38383 0.56962 0.09328 0.0
C235 C 0.40538 0.60712 0.07558 0.0
C236 C 0.40531 0.57627 0.10223 0.0
C237 C 0.37306 0.58152 0.07553 0.0
C238 C 0.41574 0.62904 0.06786 0.0
C239 C 0.40232 0.64428 0.05329 0.0
C240 C 0.41051 0.66634 0.04866 0.0
C241 C 0.43235 0.67358 0.05836 0.0
C242 C 0.44647 0.65791 0.07183 0.0
C243 C 0.43823 0.63589 0.07657 0.0
C244 C 0.41537 0.56537 0.12351 0.0
C245 C 0.43556 0.57467 0.13457 0.0
C246 C 0.44271 0.56712 0.15646 0.0
C247 C 0.42999 0.54995 0.16781 0.0
C248 C 0.41082 0.53954 0.15614 0.0
C249 C 0.40356 0.54719 0.13424 0.0
C250 C 0.34855 0.57565 0.06739 0.0
C251 C 0.3388 0.55428 0.07304 0.0
C252 C 0.09747 0.3469 0.5449 0.0
C253 C 0.07533 0.3395 0.55357 0.0
C254 C 0.06057 0.35505 0.56655 0.0
C255 C 0.06852 0.37707 0.57202 0.0
H256 H 0.06254 0.42013 0.62653 0.0
H257 H 0.05019 0.43144 0.66515 0.0
H258 H 0.10601 0.48182 0.66721 0.0
H259 H 0.11895 0.47004 0.62868 0.0
H260 H 0.16596 0.45786 0.59876 0.0
H261 H 0.20795 0.4646 0.58861 0.0
H262 H 0.19993 0.42501 0.526 0.0
H263 H 0.15783 0.41813 0.53603 0.0
H264 H 0.12297 0.37375 0.54401 0.0
H265 H 0.10904 0.33533 0.53458 0.0
H266 H 0.04345 0.34978 0.57352 0.0
H267 H 0.05716 0.38826 0.58291 0.0
N268 N 0.09126 0.4163 0.5922 0.0
N269 N 0.12343 0.44147 0.59439 0.0
N270 N 0.12303 0.41292 0.56554 0.0
C271 C 0.10196 0.43432 0.60265 0.0
C272 C 0.13399 0.43098 0.57573 0.0
C273 C 0.10158 0.40555 0.57361 0.0
C274 C 0.09202 0.4439 0.62456 0.0
C275 C 0.07203 0.43386 0.63501 0.0
C276 C 0.06481 0.44046 0.65718 0.0
C277 C 0.07728 0.45737 0.6694 0.0
C278 C 0.09634 0.4684 0.65844 0.0
C279 C 0.10366 0.46172 0.63627 0.0
C280 C 0.15853 0.43729 0.56829 0.0
C281 C 0.17297 0.4508 0.58267 0.0
C282 C 0.19708 0.45456 0.57697 0.0
C283 C 0.20719 0.44514 0.55665 0.0
C284 C 0.19253 0.43252 0.54174 0.0
C285 C 0.16846 0.42852 0.54756 0.0
C286 C 0.09135 0.38401 0.56452 0.0
C287 C 0.10536 0.36898 0.55021 0.0
C288 C 0.02465 0.02246 0.46549 0.0
N289 N 0.01211 0.05417 0.5299 0.0
C290 C 0.03428 0.06311 0.52668 0.0
C291 C 0.03857 0.08569 0.53366 0.0
C292 C 0.01985 0.09928 0.54405 0.0
C293 C 0.99741 0.0893 0.548 0.0
C294 C 0.99391 0.06656 0.54074 0.0
Zn295 Zn 0.006 0.02292 0.51511 0.0
C296 C 0.9583 0.02402 0.48948 0.0
N297 N 0.99435 0.95853 0.48218 0.0
C298 C 0.01253 0.94669 0.47078 0.0
C299 C 0.97248 0.94908 0.4857 0.0
C300 C 0.96856 0.92649 0.47849 0.0
C301 C 0.98729 0.91346 0.46747 0.0
C302 C 0.00936 0.92401 0.4632 0.0
Zn303 Zn 1.00031 0.98975 0.49705 0.0
O304 O 0.02257 0.03473 0.48372 0.0
C305 C 0.04804 0.98867 0.52265 0.0
O306 O 0.01706 1.00191 0.46584 0.0
H307 H 0.95833 0.95877 0.49491 0.0
H308 H 0.04842 0.05304 0.51784 0.0
H309 H 0.02978 0.95458 0.4682 0.0
O310 O 0.04058 0.00928 0.52756 0.0
O311 O 0.03489 0.97642 0.50975 0.0
H312 H 0.97642 0.05907 0.54307 0.0
O313 O 0.98379 0.97793 0.5284 0.0
O314 O 0.98919 0.01074 0.54636 0.0
O315 O 0.96567 0.00337 0.48462 0.0
O316 O 0.97149 0.03625 0.50235 0.0
C317 C 0.98165 0.99015 0.54664 0.0
H318 H 0.05602 0.09276 0.52992 0.0
H319 H 0.98257 0.09912 0.55615 0.0
H320 H 0.95138 0.919 0.48248 0.0
H321 H 0.02419 0.91469 0.45451 0.0
C322 C 0.5489 0.98859 0.98906 0.0
N323 N 0.51203 0.05366 0.98197 0.0
C324 C 0.53355 0.06369 0.98592 0.0
C325 C 0.53687 0.08641 0.97894 0.0
C326 C 0.51795 0.09892 0.96754 0.0
C327 C 0.49631 0.08771 0.96274 0.0
C328 C 0.49368 0.06499 0.97026 0.0
Zn329 Zn 0.50662 0.02237 0.99666 0.0
C330 C 0.48223 0.98962 0.96532 0.0
N331 N 0.49554 0.95818 0.02961 0.0
C332 C 0.51379 0.94621 0.04087 0.0
C333 C 0.47356 0.94889 0.02609 0.0
C334 C 0.46948 0.92641 0.03327 0.0
C335 C 0.4882 0.91327 0.04425 0.0
C336 C 0.51048 0.92358 0.04839 0.0
Zn337 Zn 0.50118 0.98947 0.015 0.0
O338 O 0.54084 0.00882 0.98351 0.0
C339 C 0.52561 0.0221 0.04627 0.0
O340 O 0.53635 0.97663 1.00264 0.0
H341 H 0.45938 0.95865 0.01693 0.0
H342 H 0.54787 0.05437 0.9953 0.0
H343 H 0.53113 0.95397 0.04344 0.0
O344 O 0.52418 0.03403 0.02788 0.0
O345 O 0.5172 1.0019 0.04628 0.0
H346 H 0.47671 0.05666 0.96736 0.0
O347 O 0.46648 1.00273 0.02733 0.0
O348 O 0.47201 0.03565 0.00988 0.0
O349 O 0.48486 0.97732 0.98341 0.0
O350 O 0.48936 0.01031 0.96578 0.0
C351 C 0.45896 0.02336 0.02266 0.0
H352 H 0.55372 0.09436 0.98339 0.0
H353 H 0.48138 0.09652 0.95369 0.0
H354 H 0.45216 0.91907 0.02933 0.0
H355 H 0.52532 0.91414 0.05699 0.0
C356 C 0.51893 0.46276 0.48742 0.0
N357 N 0.51835 0.48897 0.55552 0.0
C358 C 0.51423 0.46755 0.564 0.0
C359 C 0.52063 0.462 0.58674 0.0
C360 C 0.53114 0.47875 0.60089 0.0
C361 C 0.53539 0.50058 0.59144 0.0
C362 C 0.52902 0.50526 0.56866 0.0
Zn363 Zn 0.50769 0.49862 0.52315 0.0
C364 C 0.54771 0.52212 0.49902 0.0
N365 N 0.48622 0.52198 0.45638 0.0
C366 C 0.47309 0.50689 0.44389 0.0
C367 C 0.49336 0.54221 0.4471 0.0
C368 C 0.48779 0.5476 0.42416 0.0
C369 C 0.47447 0.53216 0.41089 0.0
C370 C 0.46684 0.51174 0.42109 0.0
Zn371 Zn 0.49665 0.51226 0.48881 0.0
O372 O 0.52038 0.46571 0.50914 0.0
C373 C 0.45693 0.488 0.51282 0.0
O374 O 0.50984 0.47923 0.47515 0.0
H375 H 0.5038 0.55394 0.45734 0.0
H376 H 0.50574 0.45486 0.55322 0.0
H377 H 0.46792 0.49073 0.45143 0.0
O378 O 0.47298 0.48536 0.5285 0.0
O379 O 0.46202 0.49875 0.49453 0.0
H380 H 0.53222 0.52216 0.56159 0.0
O381 O 0.48362 0.54517 0.50278 0.0
O382 O 0.49465 0.5319 0.5367 0.0
O383 O 0.5315 0.52551 0.48361 0.0
O384 O 0.54244 0.51152 0.51735 0.0
C385 C 0.48535 0.54828 0.52445 0.0
H386 H 0.5173 0.44483 0.59314 0.0
H387 H 0.54295 0.51426 0.60168 0.0
H388 H 0.49391 0.56356 0.41683 0.0
H389 H 0.45687 0.49924 0.41129 0.0
C390 C 0.98847 0.54864 0.98792 0.0
N391 N 0.98785 0.52259 0.05594 0.0
C392 C 0.99512 0.54283 0.0653 0.0
C393 C 0.98926 0.54856 0.0881 0.0
C394 C 0.9756 0.53339 0.10118 0.0
C395 C 0.96799 0.51289 0.09091 0.0
C396 C 0.97444 0.50775 0.06824 0.0
Zn397 Zn 0.998 0.51236 0.02362 0.0
C398 C 0.95696 0.49055 0.99893 0.0
N399 N 0.01869 0.48781 0.95707 0.0
C400 C 0.03274 0.50211 0.94479 0.0
C401 C 0.01047 0.46797 0.94766 0.0
C402 C 0.01585 0.46219 0.92478 0.0
C403 C 0.03005 0.47685 0.91168 0.0
C404 C 0.0388 0.49686 0.92204 0.0
Zn405 Zn 0.00859 0.49818 0.98936 0.0
O406 O 0.98618 0.54548 0.0095 0.0
C407 C 0.04966 0.51988 0.01406 0.0
O408 O 0.99768 0.53212 0.97569 0.0
H409 H 0.99933 0.45686 0.95774 0.0
H410 H 0.00579 0.55434 0.0552 0.0
H411 H 0.03881 0.51796 0.95247 0.0
O412 O 0.03348 0.52437 0.02917 0.0
O413 O 0.04405 0.50913 0.99581 0.0
H414 H 0.96912 0.49161 0.06062 0.0
O415 O 0.01943 0.4647 1.00336 0.0
O416 O 0.00991 0.47884 0.03737 0.0
O417 O 0.97293 0.48698 0.98345 0.0
O418 O 0.96273 0.50057 0.01754 0.0
C419 C 0.01816 0.46194 0.02509 0.0
H420 H 0.99538 0.56458 0.09545 0.0
H421 H 0.95779 0.50056 0.10053 0.0
H422 H 0.00889 0.44654 0.91736 0.0
H423 H 0.04951 0.50877 0.9124 0.0
H424 H 0.10766 0.08045 0.26378 0.0
H425 H 0.09232 0.06271 0.29876 0.0
H426 H 0.08959 0.12941 0.33253 0.0
H427 H 0.10536 0.14723 0.29771 0.0
H428 H 0.10875 0.09634 0.36105 0.0
H429 H 0.03768 0.10445 0.31306 0.0
H430 H 0.01327 0.09954 0.2778 0.0
H431 H 0.02157 0.02549 0.28418 0.0
H432 H 0.04632 0.02997 0.31934 0.0
H433 H 0.03844 0.067 0.45822 0.0
H434 H 0.05404 0.08388 0.42303 0.0
H435 H 0.05039 0.01775 0.38862 0.0
H436 H 0.03407 1.00087 0.42374 0.0
H437 H 0.03497 0.04999 0.36014 0.0
H438 H 0.10581 0.04122 0.40776 0.0
H439 H 0.13066 0.04548 0.44284 0.0
H440 H 0.1238 0.11964 0.43691 0.0
H441 H 0.09861 0.11583 0.40194 0.0
C442 C 0.10394 0.0914 0.27866 0.0
C443 C 0.10781 0.11539 0.27772 0.0
C444 C 0.09493 0.08121 0.29868 0.0
C445 C 0.0895 0.09465 0.31843 0.0
C446 C 0.09351 0.11856 0.31762 0.0
C447 C 0.10238 0.1288 0.29754 0.0
C448 C 0.07989 0.0838 0.33993 0.0
C449 C 0.09243 0.08647 0.36087 0.0
C450 C 0.05895 0.07029 0.33981 0.0
C451 C 0.04406 0.06755 0.3187 0.0
C452 C 0.03447 0.08712 0.30684 0.0
C453 C 0.02054 0.08442 0.28689 0.0
C454 C 0.01593 0.06222 0.27872 0.0
C455 C 0.02519 0.04268 0.29052 0.0
C456 C 0.03915 0.04529 0.31046 0.0
C457 C 0.04104 0.05594 0.44323 0.0
C458 C 0.03505 0.03245 0.44402 0.0
C459 C 0.05013 0.06565 0.42302 0.0
C460 C 0.0539 0.05213 0.403 0.0
C461 C 0.04779 0.02867 0.4037 0.0
C462 C 0.03852 0.01897 0.42391 0.0
C463 C 0.0638 0.06255 0.38136 0.0
C464 C 0.05133 0.0598 0.36037 0.0
C465 C 0.08491 0.07587 0.38139 0.0
C466 C 0.10013 0.07823 0.40235 0.0
C467 C 0.10945 0.05844 0.41403 0.0
C468 C 0.12362 0.06077 0.43388 0.0
C469 C 0.12875 0.08282 0.44213 0.0
C470 C 0.11978 0.10258 0.43051 0.0
C471 C 0.10558 0.10034 0.41066 0.0
H472 H 0.13973 0.08459 0.45751 0.0
H473 H 0.00514 0.06016 0.26327 0.0
H474 H 0.36422 0.90302 0.79263 0.0
H475 H 0.37998 0.92094 0.82752 0.0
H476 H 0.45318 0.90957 0.80253 0.0
H477 H 0.43752 0.89158 0.76755 0.0
H478 H 0.45252 0.89977 0.84648 0.0
H479 H 0.42285 0.96422 0.80142 0.0
H480 H 0.39284 0.98749 0.77864 0.0
H481 H 0.34569 0.9933 0.8373 0.0
H482 H 0.37528 0.96979 0.86036 0.0
H483 H 0.47762 0.00953 0.92241 0.0
H484 H 0.46264 0.9921 0.88683 0.0
H485 H 0.448 0.92955 0.92379 0.0
H486 H 0.46345 0.94666 0.95924 0.0
H487 H 0.42118 0.97736 0.87252 0.0
H488 H 0.45466 0.88235 0.88915 0.0
H489 H 0.48797 0.86065 0.90927 0.0
H490 H 0.53323 0.91909 0.90333 0.0
H491 H 0.5003 0.94104 0.88298 0.0
C492 C 0.38368 0.90448 0.79439 0.0
C493 C 0.39952 0.89589 0.77702 0.0
C494 C 0.39271 0.91477 0.81446 0.0
C495 C 0.41784 0.91701 0.81771 0.0
C496 C 0.43373 0.90812 0.80059 0.0
C497 C 0.42471 0.89773 0.78053 0.0
C498 C 0.42754 0.92851 0.83893 0.0
C499 C 0.44558 0.91672 0.85215 0.0
C500 C 0.41898 0.95086 0.84633 0.0
C501 C 0.40118 0.96506 0.83255 0.0
C502 C 0.406 0.97032 0.80941 0.0
C503 C 0.38908 0.98357 0.79646 0.0
C504 C 0.36735 0.99182 0.8065 0.0
C505 C 0.36252 0.98687 0.82954 0.0
C506 C 0.37937 0.9736 0.84256 0.0
C507 C 0.47118 0.99207 0.92301 0.0
C508 C 0.47191 0.97952 0.94379 0.0
C509 C 0.46254 0.98209 0.90258 0.0
C510 C 0.45443 0.95928 0.90233 0.0
C511 C 0.45459 0.94695 0.92322 0.0
C512 C 0.46333 0.95686 0.94361 0.0
C513 C 0.44587 0.94845 0.88031 0.0
C514 C 0.42805 0.96037 0.86692 0.0
C515 C 0.45499 0.92642 0.8725 0.0
C516 C 0.47492 0.9134 0.88474 0.0
C517 C 0.47174 0.89054 0.8921 0.0
C518 C 0.49055 0.87821 0.90356 0.0
C519 C 0.51267 0.8885 0.90765 0.0
C520 C 0.51606 0.91116 0.90026 0.0
C521 C 0.49731 0.92357 0.88879 0.0
H522 H 0.5272 0.87887 0.91647 0.0
H523 H 0.35427 1.00208 0.79644 0.0
H524 H 0.59101 0.49123 0.81395 0.0
H525 H 0.58239 0.49406 0.77281 0.0
H526 H 0.53635 0.43559 0.7773 0.0
H527 H 0.54629 0.43155 0.81803 0.0
H528 H 0.56362 0.43005 0.74193 0.0
H529 H 0.51339 0.49318 0.7703 0.0
H530 H 0.50313 0.52903 0.79207 0.0
H531 H 0.55413 0.56588 0.75194 0.0
H532 H 0.56495 0.53016 0.73013 0.0
H533 H 0.50563 0.45308 0.63157 0.0
H534 H 0.51334 0.44824 0.67283 0.0
H535 H 0.57609 0.49002 0.66779 0.0
H536 H 0.56947 0.49395 0.62637 0.0
H537 H 0.53881 0.50377 0.70297 0.0
H538 H 0.58864 0.43847 0.67523 0.0
H539 H 0.59625 0.40223 0.65329 0.0
H540 H 0.54167 0.36917 0.69251 0.0
H541 H 0.53347 0.40535 0.71447 0.0
C542 C 0.57912 0.47889 0.80621 0.0
C543 C 0.5694 0.46114 0.81941 0.0
C544 C 0.57394 0.48073 0.78269 0.0
C545 C 0.55848 0.46519 0.77196 0.0
C546 C 0.5483 0.4478 0.78518 0.0
C547 C 0.55376 0.44573 0.80861 0.0
C548 C 0.55383 0.46637 0.74677 0.0
C549 C 0.55781 0.44613 0.73352 0.0
C550 C 0.5466 0.48739 0.73565 0.0
C551 C 0.54015 0.50892 0.74873 0.0
C552 C 0.52256 0.50888 0.76624 0.0
C553 C 0.51662 0.52919 0.77856 0.0
C554 C 0.52802 0.54971 0.77343 0.0
C555 C 0.54534 0.54997 0.75592 0.0
C556 C 0.55137 0.5297 0.74355 0.0
C557 C 0.52143 0.46078 0.63905 0.0
C558 C 0.53681 0.47408 0.62557 0.0
C559 C 0.52566 0.45814 0.66267 0.0
C560 C 0.54514 0.46894 0.67324 0.0
C561 C 0.56082 0.48177 0.65988 0.0
C562 C 0.55689 0.48408 0.63623 0.0
C563 C 0.54871 0.46757 0.69842 0.0
C564 C 0.5445 0.48776 0.71156 0.0
C565 C 0.55531 0.44646 0.70947 0.0
C566 C 0.56024 0.4247 0.6963 0.0
C567 C 0.57808 0.42355 0.67901 0.0
C568 C 0.58255 0.403 0.66661 0.0
C569 C 0.5694 0.38343 0.67145 0.0
C570 C 0.55181 0.38435 0.68875 0.0
C571 C 0.54725 0.40487 0.70119 0.0
H572 H 0.57289 0.36753 0.66183 0.0
H573 H 0.52339 0.56542 0.78299 0.0
H574 H 0.94618 0.58661 0.31435 0.0
H575 H 0.95402 0.58259 0.27314 0.0
H576 H 0.93517 0.51086 0.27578 0.0
H577 H 0.92758 0.51466 0.31731 0.0
H578 H 0.97634 0.51802 0.24904 0.0
H579 H 0.89434 0.54846 0.25653 0.0
H580 H 0.86177 0.57546 0.27071 0.0
H581 H 0.89557 0.63228 0.2379 0.0
H582 H 0.92856 0.60565 0.22382 0.0
H583 H 0.93228 0.52949 0.12316 0.0
H584 H 0.92443 0.53304 0.16452 0.0
H585 H 0.99867 0.55136 0.17599 0.0
H586 H 0.00672 0.54758 0.13462 0.0
H587 H 0.92795 0.56885 0.19553 0.0
H588 H 0.01805 0.52334 0.2257 0.0
H589 H 0.04883 0.49456 0.21124 0.0
H590 H 0.99503 0.46429 0.16811 0.0
H591 H 0.96388 0.49265 0.18256 0.0
C592 C 0.94412 0.56984 0.30628 0.0
C593 C 0.93632 0.55091 0.31907 0.0
C594 C 0.94841 0.56765 0.2827 0.0
C595 C 0.94493 0.54651 0.27144 0.0
C596 C 0.93788 0.52734 0.28422 0.0
C597 C 0.93344 0.52956 0.30785 0.0
C598 C 0.94796 0.54476 0.24619 0.0
C599 C 0.96579 0.52913 0.23732 0.0
C600 C 0.93392 0.55904 0.23096 0.0
C601 C 0.91404 0.57508 0.2393 0.0
C602 C 0.89494 0.56674 0.2525 0.0
C603 C 0.87638 0.58197 0.26049 0.0
C604 C 0.87663 0.60558 0.25525 0.0
C605 C 0.89541 0.61399 0.24197 0.0
C606 C 0.91404 0.59883 0.23396 0.0
C607 C 0.94687 0.53441 0.1345 0.0
C608 C 0.97014 0.53813 0.12574 0.0
C609 C 0.94234 0.53654 0.15807 0.0
C610 C 0.96105 0.54218 0.17328 0.0
C611 C 0.98407 0.54675 0.1645 0.0
C612 C 0.98858 0.54478 0.14089 0.0
C613 C 0.95667 0.54246 0.1984 0.0
C614 C 0.93856 0.5578 0.20725 0.0
C615 C 0.97022 0.52767 0.21357 0.0
C616 C 0.98871 0.51028 0.20504 0.0
C617 C 0.01278 0.51048 0.2132 0.0
C618 C 0.03029 0.49425 0.205 0.0
C619 C 0.02391 0.47766 0.18871 0.0
C620 C 0.99998 0.4772 0.18066 0.0
C621 C 0.9824 0.49337 0.18883 0.0
H622 H 0.03749 0.46513 0.18236 0.0
H623 H 0.86225 0.61734 0.26145 0.0
H624 H 0.26148 0.13585 0.09028 0.0
H625 H 0.29773 0.11901 0.07187 0.0
H626 H 0.30939 0.07265 0.12934 0.0
H627 H 0.2742 0.0907 0.14879 0.0
H628 H 0.35086 0.08565 0.1173 0.0
H629 H 0.28523 0.05587 0.07373 0.0
H630 H 0.24743 0.05734 0.05073 0.0
H631 H 0.28164 0.09801 0.99931 0.0
H632 H 0.31957 0.09703 0.02216 0.0
H633 H 0.43264 0.00609 0.05827 0.0
H634 H 0.39598 0.0233 0.07638 0.0
H635 H 0.39598 0.0802 0.02849 0.0
H636 H 0.43296 0.06328 0.01048 0.0
H637 H 0.34899 0.06138 0.03526 0.0
H638 H 0.41534 0.08959 0.08023 0.0
H639 H 0.453 0.08524 0.10326 0.0
H640 H 0.41644 0.04381 0.15247 0.0
H641 H 0.37864 0.04761 0.12953 0.0
C642 C 0.27184 0.12233 0.09932 0.0
C643 C 0.26452 0.11481 0.12124 0.0
C644 C 0.29252 0.11235 0.08847 0.0
C645 C 0.30631 0.09408 0.09884 0.0
C646 C 0.29917 0.08659 0.12075 0.0
C647 C 0.27869 0.09681 0.13179 0.0
C648 C 0.32825 0.08304 0.08705 0.0
C649 C 0.35021 0.08007 0.09946 0.0
C650 C 0.32792 0.07596 0.06357 0.0
C651 C 0.30516 0.07657 0.04977 0.0
C652 C 0.28464 0.06527 0.0576 0.0
C653 C 0.2632 0.06599 0.04458 0.0
C654 C 0.26211 0.07782 0.0236 0.0
C655 C 0.28249 0.08889 0.01558 0.0
C656 C 0.30397 0.08824 0.02855 0.0
C657 C 0.42482 0.02221 0.05147 0.0
C658 C 0.43586 0.03327 0.03288 0.0
C659 C 0.40385 0.03209 0.06193 0.0
C660 C 0.3932 0.05315 0.05393 0.0
C661 C 0.40381 0.06396 0.03501 0.0
C662 C 0.42502 0.05427 0.02475 0.0
C663 C 0.37129 0.06406 0.06556 0.0
C664 C 0.34945 0.06698 0.05311 0.0
C665 C 0.37161 0.07075 0.08907 0.0
C666 C 0.39423 0.0687 0.10304 0.0
C667 C 0.41538 0.0794 0.09587 0.0
C668 C 0.43674 0.07706 0.10892 0.0
C669 C 0.43713 0.0642 0.12928 0.0
C670 C 0.41612 0.05373 0.13668 0.0
C671 C 0.39472 0.05599 0.12367 0.0
H672 H 0.45369 0.0624 0.13936 0.0
H673 H 0.2455 0.07835 0.01355 0.0
H674 H 0.25301 0.934 0.62632 0.0
H675 H 0.21664 0.95144 0.6079 0.0
H676 H 0.1927 0.88338 0.59052 0.0
H677 H 0.22887 0.86578 0.60909 0.0
H678 H 0.18666 0.91203 0.55446 0.0
H679 H 0.1669 0.91568 0.63515 0.0
H680 H 0.17333 0.92598 0.67593 0.0
H681 H 0.17321 0.99815 0.65811 0.0
H682 H 0.16709 0.98825 0.61716 0.0
H683 H 0.06484 0.94322 0.52278 0.0
H684 H 0.10188 0.92668 0.54067 0.0
H685 H 0.12129 0.99499 0.56261 0.0
H686 H 0.08374 0.01152 0.54546 0.0
H687 H 0.13031 0.96676 0.5961 0.0
H688 H 0.1499 0.96388 0.51578 0.0
H689 H 0.14399 0.9542 0.47477 0.0
H690 H 0.14537 0.88167 0.49128 0.0
H691 H 0.15096 0.89093 0.53244 0.0
C692 C 0.23991 0.92267 0.61883 0.0
C693 C 0.24403 0.89839 0.61932 0.0
C694 C 0.21907 0.93272 0.60821 0.0
C695 C 0.20167 0.91878 0.59793 0.0
C696 C 0.2058 0.89457 0.59823 0.0
C697 C 0.22662 0.88451 0.60884 0.0
C698 C 0.17926 0.92935 0.58674 0.0
C699 C 0.17419 0.92377 0.56367 0.0
C700 C 0.16322 0.94522 0.59844 0.0
C701 C 0.16678 0.9512 0.62306 0.0
C702 C 0.16842 0.93373 0.6399 0.0
C703 C 0.17198 0.9395 0.66305 0.0
C704 C 0.17374 0.9627 0.6696 0.0
C705 C 0.17188 0.98019 0.65301 0.0
C706 C 0.16834 0.97451 0.62983 0.0
C707 C 0.07705 0.95477 0.53128 0.0
C708 C 0.07128 0.97875 0.53256 0.0
C709 C 0.09838 0.94527 0.54145 0.0
C710 C 0.11481 0.95954 0.55278 0.0
C711 C 0.10906 0.98352 0.55402 0.0
C712 C 0.08757 0.99299 0.5441 0.0
C713 C 0.13762 0.94944 0.56375 0.0
C714 C 0.14278 0.95508 0.5868 0.0
C715 C 0.15385 0.93375 0.55198 0.0
C716 C 0.15063 0.92812 0.52722 0.0
C717 C 0.14878 0.94588 0.51068 0.0
C718 C 0.14551 0.94046 0.4874 0.0
C719 C 0.14425 0.91734 0.48043 0.0
C720 C 0.14632 0.89957 0.49671 0.0
C721 C 0.14957 0.90489 0.52001 0.0
H722 H 0.14171 0.91318 0.4624 0.0
H723 H 0.1765 0.96713 0.68753 0.0
H724 H 0.72558 0.47808 0.9814 0.0
H725 H 0.76847 0.4851 0.9887 0.0
H726 H 0.78927 0.42271 0.95104 0.0
H727 H 0.74634 0.41519 0.94464 0.0
H728 H 0.81689 0.4251 0.9864 0.0
H729 H 0.79269 0.47883 0.92756 0.0
H730 H 0.76764 0.50986 0.9088 0.0
H731 H 0.78427 0.55689 0.96359 0.0
H732 H 0.80916 0.52603 0.98285 0.0
H733 H 0.94002 0.45985 0.96726 0.0
H734 H 0.89757 0.4502 0.96048 0.0
H735 H 0.87443 0.49749 0.01457 0.0
H736 H 0.91668 0.50685 0.02181 0.0
H737 H 0.84909 0.50221 0.96953 0.0
H738 H 0.87367 0.44568 0.02776 0.0
H739 H 0.90011 0.41393 0.04351 0.0
H740 H 0.88428 0.37131 0.98499 0.0
H741 H 0.85802 0.40297 0.96871 0.0
C742 C 0.73938 0.46589 0.97477 0.0
C743 C 0.73278 0.44615 0.96244 0.0
C744 C 0.76385 0.46995 0.97881 0.0
C745 C 0.78217 0.45468 0.97002 0.0
C746 C 0.77551 0.43475 0.95798 0.0
C747 C 0.75103 0.43046 0.95432 0.0
C748 C 0.80824 0.45948 0.97337 0.0
C749 C 0.82394 0.44188 0.98239 0.0
C750 C 0.81753 0.48141 0.9683 0.0
C751 C 0.8026 0.50004 0.95675 0.0
C752 C 0.79086 0.49574 0.93569 0.0
C753 C 0.77671 0.5133 0.92496 0.0
C754 C 0.77432 0.53532 0.93502 0.0
C755 C 0.78612 0.53982 0.95582 0.0
C756 C 0.80027 0.5223 0.96665 0.0
C757 C 0.92588 0.46808 0.97776 0.0
C758 C 0.93163 0.48406 0.99508 0.0
C759 C 0.90172 0.46254 0.9739 0.0
C760 C 0.88302 0.47317 0.98705 0.0
C761 C 0.88869 0.48915 1.00427 0.0
C762 C 0.91282 0.49438 0.00843 0.0
C763 C 0.8574 0.46796 0.98267 0.0
C764 C 0.84189 0.48546 0.97342 0.0
C765 C 0.84843 0.44585 0.98705 0.0
C766 C 0.8641 0.42678 0.9969 0.0
C767 C 0.87601 0.42962 0.01814 0.0
C768 C 0.89092 0.41163 0.02719 0.0
C769 C 0.89393 0.39064 0.01523 0.0
C770 C 0.88197 0.38759 0.99422 0.0
C771 C 0.86706 0.40555 0.98508 0.0
H772 H 0.90548 0.37673 0.02226 0.0
H773 H 0.76336 0.5489 0.92668 0.0
H774 H 0.77864 0.53216 0.47679 0.0
H775 H 0.73585 0.5254 0.48456 0.0
H776 H 0.71458 0.58733 0.44664 0.0
H777 H 0.75741 0.5946 0.43979 0.0
H778 H 0.68839 0.58617 0.48262 0.0
H779 H 0.70938 0.53053 0.4243 0.0
H780 H 0.73299 0.49852 0.40549 0.0
H781 H 0.71729 0.45327 0.46157 0.0
H782 H 0.69386 0.48511 0.48088 0.0
H783 H 0.56388 0.55286 0.46731 0.0
H784 H 0.6062 0.56213 0.4597 0.0
H785 H 0.63056 0.5154 0.51366 0.0
H786 H 0.58847 0.50642 0.52173 0.0
H787 H 0.65404 0.50932 0.46828 0.0
H788 H 0.63283 0.56764 0.52597 0.0
H789 H 0.60771 0.60025 0.54191 0.0
H790 H 0.62217 0.64118 0.48227 0.0
H791 H 0.6471 0.60866 0.46581 0.0
C792 C 0.76476 0.54425 0.47012 0.0
C793 C 0.7712 0.56385 0.4577 0.0
C794 C 0.74033 0.54035 0.47444 0.0
C795 C 0.7219 0.55564 0.46584 0.0
C796 C 0.72842 0.57529 0.45347 0.0
C797 C 0.75285 0.57942 0.44954 0.0
C798 C 0.69587 0.55136 0.47001 0.0
C799 C 0.68086 0.56944 0.47914 0.0
C800 C 0.68597 0.52949 0.4657 0.0
C801 C 0.70007 0.51028 0.45415 0.0
C802 C 0.71112 0.51381 0.43271 0.0
C803 C 0.72445 0.49568 0.42195 0.0
C804 C 0.72669 0.47389 0.43236 0.0
C805 C 0.71557 0.47017 0.45354 0.0
C806 C 0.70225 0.48824 0.4644 0.0
C807 C 0.57825 0.54474 0.47768 0.0
C808 C 0.57288 0.52895 0.49513 0.0
C809 C 0.60235 0.55005 0.47332 0.0
C810 C 0.62136 0.53939 0.48613 0.0
C811 C 0.61606 0.52375 0.50362 0.0
C812 C 0.59201 0.51875 0.50825 0.0
C813 C 0.64692 0.54402 0.48095 0.0
C814 C 0.66173 0.52602 0.47162 0.0
C815 C 0.65649 0.56605 0.48461 0.0
C816 C 0.6416 0.58562 0.49455 0.0
C817 C 0.63046 0.58351 0.51615 0.0
C818 C 0.6163 0.60199 0.5253 0.0
C819 C 0.61328 0.62275 0.51308 0.0
C820 C 0.62449 0.62508 0.4917 0.0
C821 C 0.63865 0.60663 0.48246 0.0
H822 H 0.60232 0.63704 0.5202 0.0
H823 H 0.73701 0.45988 0.42399 0.0
H824 H 0.09088 0.28854 0.15588 0.0
H825 H 0.07364 0.32355 0.13728 0.0
H826 H 0.09743 0.29724 0.07116 0.0
H827 H 0.11448 0.26214 0.08954 0.0
H828 H 0.10735 0.34166 0.07454 0.0
H829 H 0.03669 0.298 0.08811 0.0
H830 H 0.00794 0.27619 0.11116 0.0
H831 H 0.99305 0.33624 0.15356 0.0
H832 H 0.02197 0.35832 0.13094 0.0
H833 H 0.03979 0.42314 0.00466 0.0
H834 H 0.05528 0.38737 0.02322 0.0
H835 H 0.03218 0.41438 0.08931 0.0
H836 H 0.01644 0.45006 0.07085 0.0
H837 H 0.02181 0.36969 0.08602 0.0
H838 H 0.09244 0.41331 0.07261 0.0
H839 H 0.12104 0.43526 0.04952 0.0
H840 H 0.13598 0.37535 0.00694 0.0
H841 H 0.10718 0.35313 0.02958 0.0
C842 C 0.09222 0.28999 0.13734 0.0
C843 C 0.10421 0.27227 0.12435 0.0
C844 C 0.08234 0.31016 0.12667 0.0
C845 C 0.08396 0.31318 0.10267 0.0
C846 C 0.09594 0.29555 0.08968 0.0
C847 C 0.10581 0.27541 0.10031 0.0
C848 C 0.07351 0.33471 0.09109 0.0
C849 C 0.08853 0.34755 0.07684 0.0
C850 C 0.04909 0.34296 0.09436 0.0
C851 C 0.03169 0.32973 0.10798 0.0
C852 C 0.02743 0.30649 0.10246 0.0
C853 C 0.01108 0.2941 0.11543 0.0
C854 C 0.99873 0.3048 0.13385 0.0
C855 C 0.00266 0.32796 0.13931 0.0
C856 C 0.01902 0.34043 0.12641 0.0
C857 C 0.0379 0.42148 0.02314 0.0
C858 C 0.02688 0.43966 0.03619 0.0
C859 C 0.04692 0.40099 0.0338 0.0
C860 C 0.04527 0.3981 0.05782 0.0
C861 C 0.03379 0.41603 0.0708 0.0
C862 C 0.02483 0.43654 0.06018 0.0
C863 C 0.05563 0.37657 0.06944 0.0
C864 C 0.04061 0.36376 0.08372 0.0
C865 C 0.08005 0.36836 0.06622 0.0
C866 C 0.09747 0.38163 0.05264 0.0
C867 C 0.10168 0.40487 0.05821 0.0
C868 C 0.11795 0.41735 0.04522 0.0
C869 C 0.13027 0.40673 0.02674 0.0
C870 C 0.12639 0.38357 0.02124 0.0
C871 C 0.11011 0.37102 0.03415 0.0
H872 H 0.14285 0.41642 0.0167 0.0
H873 H 0.98607 0.29518 0.14387 0.0
H874 H 0.59944 0.29977 0.95455 0.0
H875 H 0.58685 0.25975 0.95514 0.0
H876 H 0.51201 0.28383 0.9625 0.0
H877 H 0.52455 0.32412 0.96242 0.0
H878 H 0.52453 0.24636 0.99074 0.0
H879 H 0.53092 0.26674 0.91122 0.0
H880 H 0.55079 0.28218 0.87688 0.0
H881 H 0.60838 0.22993 0.883 0.0
H882 H 0.58904 0.21437 0.91759 0.0
H883 H 0.4828 0.13404 0.97016 0.0
H884 H 0.48789 0.17551 0.96533 0.0
H885 H 0.56381 0.16215 0.94984 0.0
H886 H 0.55851 0.12057 0.95301 0.0
H887 H 0.5464 0.19575 0.92399 0.0
H888 H 0.54171 0.17713 0.00511 0.0
H889 H 0.5221 0.16179 0.03967 0.0
H890 H 0.46207 0.21102 0.03122 0.0
H891 H 0.48098 0.22631 0.99628 0.0
C892 C 0.58034 0.29659 0.95674 0.0
C893 C 0.56297 0.3151 0.95845 0.0
C894 C 0.57316 0.27371 0.95681 0.0
C895 C 0.54848 0.2689 0.9585 0.0
C896 C 0.53113 0.28725 0.96104 0.0
C897 C 0.5383 0.3102 0.96088 0.0
C898 C 0.54092 0.24464 0.95715 0.0
C899 C 0.52893 0.23535 0.97601 0.0
C900 C 0.54701 0.2303 0.93803 0.0
C901 C 0.55861 0.2395 0.91712 0.0
C902 C 0.54791 0.25864 0.90535 0.0
C903 C 0.55907 0.2674 0.88582 0.0
C904 C 0.58086 0.25707 0.87779 0.0
C905 C 0.59151 0.23792 0.88925 0.0
C906 C 0.58044 0.22911 0.9088 0.0
C907 C 0.50045 0.13982 0.96511 0.0
C908 C 0.52033 0.12391 0.96224 0.0
C909 C 0.50339 0.1636 0.96268 0.0
C910 C 0.52637 0.17198 0.95782 0.0
C911 C 0.54595 0.15611 0.95382 0.0
C912 C 0.54294 0.13232 0.9559 0.0
C913 C 0.53044 0.19722 0.95783 0.0
C914 C 0.54178 0.20675 0.93867 0.0
C915 C 0.52384 0.21175 0.97675 0.0
C916 C 0.51264 0.2027 0.99793 0.0
C917 C 0.52424 0.18458 0.01053 0.0
C918 C 0.51327 0.1759 0.03019 0.0
C919 C 0.49088 0.18541 0.03763 0.0
C920 C 0.4794 0.20364 0.02543 0.0
C921 C 0.49022 0.21231 0.00567 0.0
H922 H 0.48244 0.17867 0.05287 0.0
H923 H 0.58946 0.26388 0.86267 0.0
H924 H 0.97587 0.6896 0.46523 0.0
H925 H 0.98814 0.72994 0.46581 0.0
H926 H 0.91421 0.75338 0.45122 0.0
H927 H 0.90194 0.71321 0.45017 0.0
H928 H 0.94712 0.77373 0.42326 0.0
H929 H 0.9369 0.75894 0.50436 0.0
H930 H 0.94427 0.73777 0.54073 0.0
H931 H 0.02034 0.75086 0.53688 0.0
H932 H 0.01345 0.77185 0.5003 0.0
H933 H 0.9468 0.89311 0.45062 0.0
H934 H 0.94026 0.85173 0.44679 0.0
H935 H 0.01445 0.83604 0.46773 0.0
H936 H 0.02078 0.87739 0.47273 0.0
H937 H 0.98486 0.81067 0.49108 0.0
H938 H 0.99506 0.8278 0.41146 0.0
H939 H 0.98803 0.84893 0.37502 0.0
H940 H 0.91306 0.83129 0.37544 0.0
H941 H 0.91955 0.81032 0.41207 0.0
C942 C 0.96225 0.70338 0.46223 0.0
C943 C 0.93793 0.69827 0.45775 0.0
C944 C 0.96925 0.72638 0.46266 0.0
C945 C 0.95204 0.74459 0.45861 0.0
C946 C 0.92774 0.73954 0.45438 0.0
C947 C 0.92072 0.71661 0.45404 0.0
C948 C 0.95935 0.76896 0.45828 0.0
C949 C 0.95517 0.78192 0.43813 0.0
C950 C 0.97055 0.77932 0.47746 0.0
C951 C 0.9747 0.76673 0.49946 0.0
C952 C 0.95523 0.75713 0.51116 0.0
C953 C 0.95931 0.7452 0.53184 0.0
C954 C 0.98277 0.74291 0.54107 0.0
C955 C 0.00218 0.75261 0.52969 0.0
C956 C 0.9982 0.76454 0.50899 0.0
C957 C 0.96176 0.88087 0.45435 0.0
C958 C 0.98428 0.88857 0.46209 0.0
C959 C 0.95808 0.85721 0.4519 0.0
C960 C 0.97694 0.84078 0.45679 0.0
C961 C 0.99967 0.84843 0.46381 0.0
C962 C 0.00332 0.8721 0.46642 0.0
C963 C 0.97237 0.81565 0.4561 0.0
C964 C 0.97705 0.80249 0.47607 0.0
C965 C 0.96173 0.80509 0.4367 0.0
C966 C 0.95776 0.81763 0.41462 0.0
C967 C 0.97703 0.82857 0.40388 0.0
C968 C 0.97315 0.84049 0.38317 0.0
C969 C 0.95011 0.84149 0.37295 0.0
C970 C 0.9309 0.83052 0.38339 0.0
C971 C 0.93468 0.81858 0.40411 0.0
H972 H 0.94714 0.85073 0.35692 0.0
H973 H 0.9859 0.73368 0.55709 0.0
H974 H 0.44162 0.75103 0.62175 0.0
H975 H 0.45802 0.7152 0.60363 0.0
H976 H 0.38585 0.68922 0.60003 0.0
H977 H 0.36947 0.72466 0.61843 0.0
H978 H 0.4173 0.65603 0.61461 0.0
H979 H 0.41379 0.71065 0.55222 0.0
H980 H 0.4227 0.74704 0.53241 0.0
H981 H 0.4992 0.72951 0.53637 0.0
H982 H 0.49075 0.69314 0.5565 0.0
H983 H 0.46044 0.58556 0.50453 0.0
H984 H 0.44543 0.62159 0.52306 0.0
H985 H 0.47596 0.59798 0.58783 0.0
H986 H 0.49034 0.56175 0.56958 0.0
H987 H 0.46537 0.65637 0.54256 0.0
H988 H 0.44755 0.6197 0.63205 0.0
H989 H 0.43357 0.58452 0.65113 0.0
H990 H 0.39287 0.56749 0.5906 0.0
H991 H 0.40712 0.60219 0.57098 0.0
C992 C 0.42925 0.73762 0.61726 0.0
C993 C 0.40415 0.7409 0.62152 0.0
C994 C 0.43865 0.71718 0.60668 0.0
C995 C 0.4232 0.69946 0.60018 0.0
C996 C 0.39821 0.70257 0.60476 0.0
C997 C 0.38881 0.72299 0.61517 0.0
C998 C 0.43288 0.67755 0.58886 0.0
C999 C 0.42791 0.65618 0.59891 0.0
C1000 C 0.44653 0.67749 0.5682 0.0
C1001 C 0.45164 0.6993 0.55607 0.0
C1002 C 0.43252 0.71465 0.54903 0.0
C1003 C 0.43749 0.73525 0.53771 0.0
C1004 C 0.46151 0.74061 0.53319 0.0
C1005 C 0.48061 0.72535 0.53992 0.0
C1006 C 0.47574 0.70473 0.55127 0.0
C1007 C 0.46389 0.58799 0.52274 0.0
C1008 C 0.47652 0.57057 0.53552 0.0
C1009 C 0.45533 0.6087 0.53336 0.0
C1010 C 0.45913 0.61261 0.55705 0.0
C1011 C 0.47213 0.59537 0.56972 0.0
C1012 C 0.48054 0.57461 0.55916 0.0
C1013 C 0.4498 0.63476 0.56835 0.0
C1014 C 0.4549 0.6562 0.55835 0.0
C1015 C 0.43601 0.63494 0.58895 0.0
C1016 C 0.42858 0.61334 0.60002 0.0
C1017 C 0.43581 0.60827 0.62276 0.0
C1018 C 0.42792 0.58839 0.63363 0.0
C1019 C 0.41252 0.57364 0.622 0.0
C1020 C 0.40512 0.57867 0.59944 0.0
C1021 C 0.4132 0.59838 0.58839 0.0
H1022 H 0.40619 0.55841 0.63056 0.0
H1023 H 0.46532 0.75657 0.52442 0.0
H1024 H 0.86429 0.91292 0.72392 0.0
H1025 H 0.87996 0.93116 0.68954 0.0
H1026 H 0.95085 0.89917 0.70265 0.0
H1027 H 0.93564 0.88184 0.73784 0.0
H1028 H 0.95706 0.94084 0.68836 0.0
H1029 H 0.9103 0.87899 0.65987 0.0
H1030 H 0.87415 0.85555 0.65536 0.0
H1031 H 0.83371 0.9146 0.628 0.0
H1032 H 0.86954 0.93848 0.63263 0.0
H1033 H 0.9668 0.94587 0.55323 0.0
H1034 H 0.95165 0.92851 0.58838 0.0
H1035 H 0.95725 0.99382 0.62396 0.0
H1036 H 0.97306 0.01117 0.58887 0.0
H1037 H 0.91377 0.93427 0.61367 0.0
H1038 H 0.96826 0.98515 0.68122 0.0
H1039 H 0.00744 0.00414 0.68452 0.0
H1040 H 0.03767 0.95942 0.63169 0.0
H1041 H 0.99879 0.93997 0.6283 0.0
C1042 C 0.88332 0.90991 0.71979 0.0
C1043 C 0.89856 0.89571 0.73398 0.0
C1044 C 0.89224 0.92019 0.69978 0.0
C1045 C 0.91662 0.9164 0.69302 0.0
C1046 C 0.93196 0.90243 0.70723 0.0
C1047 C 0.92309 0.89224 0.72735 0.0
C1048 C 0.92608 0.92693 0.67123 0.0
C1049 C 0.94748 0.93941 0.67208 0.0
C1050 C 0.91409 0.92488 0.64965 0.0
C1051 C 0.89253 0.91057 0.64681 0.0
C1052 C 0.89364 0.88702 0.65305 0.0
C1053 C 0.87322 0.87365 0.65045 0.0
C1054 C 0.85163 0.8836 0.64146 0.0
C1055 C 0.85044 0.90693 0.63499 0.0
C1056 C 0.8708 0.92038 0.63758 0.0
C1057 C 0.96483 0.95663 0.5685 0.0
C1058 C 0.97132 0.97999 0.56808 0.0
C1059 C 0.95604 0.94663 0.58869 0.0
C1060 C 0.95345 0.95962 0.60917 0.0
C1061 C 0.95945 0.98313 0.60867 0.0
C1062 C 0.96838 0.99313 0.58847 0.0
C1063 C 0.94455 0.94847 0.63086 0.0
C1064 C 0.92325 0.93584 0.62999 0.0
C1065 C 0.95699 0.94988 0.65227 0.0
C1066 C 0.98053 0.9613 0.65434 0.0
C1067 C 0.9833 0.97933 0.67037 0.0
C1068 C 0.00545 0.99018 0.67224 0.0
C1069 C 0.025 0.98305 0.65826 0.0
C1070 C 0.02248 0.96499 0.64244 0.0
C1071 C 1.00038 0.95407 0.64052 0.0
H1072 H 0.04213 0.99148 0.65973 0.0
H1073 H 0.83584 0.87322 0.63945 0.0
H1074 H 0.57363 0.11064 0.24748 0.0
H1075 H 0.55806 0.09253 0.21238 0.0
H1076 H 0.62534 0.1048 0.1777 0.0
H1077 H 0.64102 0.12286 0.21273 0.0
H1078 H 0.58421 0.11647 0.15068 0.0
H1079 H 0.61518 0.05181 0.1961 0.0
H1080 H 0.61851 0.02756 0.23097 0.0
H1081 H 0.54234 0.01481 0.22675 0.0
H1082 H 0.5385 0.03927 0.19203 0.0
H1083 H 0.56494 0.0492 0.05035 0.0
H1084 H 0.58147 0.06636 0.08535 0.0
H1085 H 0.52459 0.03672 0.12527 0.0
H1086 H 0.50955 0.01783 0.09049 0.0
H1087 H 0.56047 0.03455 0.15032 0.0
H1088 H 0.52802 0.09936 0.10592 0.0
H1089 H 0.52343 0.12441 0.07165 0.0
H1090 H 0.59933 0.13847 0.07472 0.0
H1091 H 0.60444 0.11332 0.10882 0.0
C1092 C 0.58507 0.10962 0.23235 0.0
C1093 C 0.60865 0.11819 0.23303 0.0
C1094 C 0.57619 0.09911 0.2123 0.0
C1095 C 0.59055 0.09711 0.19233 0.0
C1096 C 0.61389 0.10605 0.19283 0.0
C1097 C 0.6229 0.11626 0.21295 0.0
C1098 C 0.58134 0.08564 0.17098 0.0
C1099 C 0.57921 0.09849 0.15052 0.0
C1100 C 0.57418 0.06235 0.1708 0.0
C1101 C 0.5765 0.04756 0.19161 0.0
C1102 C 0.5991 0.044 0.20272 0.0
C1103 C 0.60109 0.03018 0.22244 0.0
C1104 C 0.58064 0.0197 0.2311 0.0
C1105 C 0.55816 0.02297 0.22004 0.0
C1106 C 0.55607 0.03679 0.20033 0.0
C1107 C 0.55611 0.04625 0.06666 0.0
C1108 C 0.53595 0.03216 0.06765 0.0
C1109 C 0.56538 0.05635 0.08673 0.0
C1110 C 0.55397 0.05364 0.10822 0.0
C1111 C 0.53389 0.03931 0.10913 0.0
C1112 C 0.52521 0.02849 0.08918 0.0
C1113 C 0.56301 0.0654 0.12971 0.0
C1114 C 0.5652 0.0526 0.15031 0.0
C1115 C 0.56983 0.08891 0.1301 0.0
C1116 C 0.56665 0.1043 0.10979 0.0
C1117 C 0.54374 0.10773 0.09922 0.0
C1118 C 0.54105 0.12194 0.07983 0.0
C1119 C 0.5611 0.13295 0.07097 0.0
C1120 C 0.58384 0.12989 0.08157 0.0
C1121 C 0.58663 0.11569 0.10094 0.0
H1122 H 0.55907 0.14386 0.05592 0.0
H1123 H 0.58221 0.00901 0.24637 0.0
H1124 H 0.39741 0.54225 0.20209 0.0
H1125 H 0.40558 0.53826 0.24321 0.0
H1126 H 0.48238 0.54329 0.23079 0.0
H1127 H 0.47449 0.54608 0.18939 0.0
H1128 H 0.47507 0.51246 0.26356 0.0
H1129 H 0.44729 0.59063 0.24817 0.0
H1130 H 0.41964 0.62168 0.23288 0.0
H1131 H 0.36235 0.59909 0.27627 0.0
H1132 H 0.38957 0.56767 0.29159 0.0
H1133 H 0.50663 0.54448 0.37801 0.0
H1134 H 0.49937 0.54761 0.33641 0.0
H1135 H 0.42417 0.53228 0.3465 0.0
H1136 H 0.43133 0.5291 0.3881 0.0
H1137 H 0.43152 0.56901 0.3151 0.0
H1138 H 0.46049 0.49033 0.33 0.0
H1139 H 0.48929 0.46033 0.3455 0.0
H1140 H 0.54597 0.48563 0.30301 0.0
H1141 H 0.51757 0.51603 0.28751 0.0
C1142 C 0.41612 0.5419 0.20797 0.0
C1143 C 0.43529 0.54466 0.19241 0.0
C1144 C 0.42072 0.53994 0.23156 0.0
C1145 C 0.44452 0.54106 0.24011 0.0
C1146 C 0.46383 0.54262 0.22457 0.0
C1147 C 0.45927 0.54439 0.20093 0.0
C1148 C 0.44914 0.54148 0.26528 0.0
C1149 C 0.46578 0.52502 0.27477 0.0
C1150 C 0.43681 0.55772 0.27997 0.0
C1151 C 0.42041 0.57665 0.27086 0.0
C1152 C 0.42874 0.59217 0.25432 0.0
C1153 C 0.41315 0.60986 0.24567 0.0
C1154 C 0.38923 0.61232 0.25355 0.0
C1155 C 0.38087 0.59714 0.27016 0.0
C1156 C 0.39638 0.5794 0.27884 0.0
C1157 C 0.48848 0.54217 0.37136 0.0
C1158 C 0.46954 0.53649 0.38618 0.0
C1159 C 0.4844 0.5438 0.34764 0.0
C1160 C 0.4613 0.53994 0.33845 0.0
C1161 C 0.44213 0.53524 0.35331 0.0
C1162 C 0.44625 0.53335 0.37699 0.0
C1163 C 0.45729 0.53995 0.31326 0.0
C1164 C 0.44081 0.55651 0.30381 0.0
C1165 C 0.46993 0.52397 0.29861 0.0
C1166 C 0.48698 0.50561 0.30779 0.0
C1167 C 0.47915 0.48962 0.32411 0.0
C1168 C 0.49539 0.47253 0.33287 0.0
C1169 C 0.51947 0.47112 0.32529 0.0
C1170 C 0.52733 0.48677 0.30889 0.0
C1171 C 0.51117 0.50393 0.3001 0.0
H1172 H 0.53201 0.45787 0.33209 0.0
H1173 H 0.37719 0.62603 0.24684 0.0
H1174 H 0.03252 0.46063 0.69013 0.0
H1175 H 0.02397 0.46375 0.73131 0.0
H1176 H 0.10062 0.46819 0.74556 0.0
H1177 H 0.10941 0.46397 0.70458 0.0
H1178 H 0.08153 0.43793 0.77318 0.0
H1179 H 0.06076 0.51586 0.74994 0.0
H1180 H 0.04006 0.54672 0.72694 0.0
H1181 H 0.97067 0.52438 0.74941 0.0
H1182 H 0.99095 0.49316 0.77231 0.0
H1183 H 0.07331 0.47838 0.88915 0.0
H1184 H 0.08041 0.47416 0.8477 0.0
H1185 H 0.00463 0.46099 0.83708 0.0
H1186 H 0.9974 0.46529 0.87857 0.0
H1187 H 0.02219 0.49497 0.80779 0.0
H1188 H 0.0442 0.41744 0.83211 0.0
H1189 H 0.06588 0.3876 0.85564 0.0
H1190 H 0.13437 0.41068 0.83154 0.0
H1191 H 0.1131 0.44089 0.80811 0.0
C1192 C 0.04756 0.4623 0.70202 0.0
C1193 C 0.07166 0.46202 0.69403 0.0
C1194 C 0.04262 0.4643 0.72555 0.0
C1195 C 0.06165 0.46634 0.74151 0.0
C1196 C 0.08565 0.46664 0.73354 0.0
C1197 C 0.09062 0.46451 0.71006 0.0
C1198 C 0.05669 0.4671 0.76659 0.0
C1199 C 0.0688 0.45062 0.78078 0.0
C1200 C 0.03963 0.48327 0.77642 0.0
C1201 C 0.02737 0.50201 0.76265 0.0
C1202 C 0.04108 0.5174 0.74982 0.0
C1203 C 0.02942 0.53498 0.73684 0.0
C1204 C 0.00406 0.53747 0.73666 0.0
C1205 C 0.99031 0.52241 0.74953 0.0
C1206 C 1.00187 0.50478 0.76253 0.0
C1207 C 0.05823 0.47442 0.87797 0.0
C1208 C 0.03482 0.47214 0.88701 0.0
C1209 C 0.06231 0.47192 0.85436 0.0
C1210 C 0.04304 0.46721 0.83941 0.0
C1211 C 0.01972 0.4646 0.8484 0.0
C1212 C 0.01566 0.46687 0.87207 0.0
C1213 C 0.04714 0.46592 0.81427 0.0
C1214 C 0.03487 0.48228 0.80012 0.0
C1215 C 0.0642 0.44978 0.80449 0.0
C1216 C 0.07705 0.43158 0.81852 0.0
C1217 C 0.06389 0.41629 0.83198 0.0
C1218 C 0.07611 0.39928 0.84527 0.0
C1219 C 0.10149 0.39728 0.84513 0.0
C1220 C 0.11471 0.41226 0.83165 0.0
C1221 C 0.10258 0.42932 0.81835 0.0
H1222 H 0.11091 0.3841 0.85543 0.0
H1223 H 0.99507 0.5511 0.7266 0.0
H1224 H 0.73331 0.91912 0.86363 0.0
H1225 H 0.69759 0.93684 0.88265 0.0
H1226 H 0.71267 0.89524 0.94291 0.0
H1227 H 0.74905 0.87815 0.92457 0.0
H1228 H 0.6633 0.89559 0.92906 0.0
H1229 H 0.7249 0.95052 0.94454 0.0
H1230 H 0.75707 0.97692 0.93404 0.0
H1231 H 0.70625 0.0169 0.8923 0.0
H1232 H 0.67384 0.99052 0.9023 0.0
H1233 H 0.57703 0.95098 1.00393 0.0
H1234 H 0.61437 0.93429 0.98674 0.0
H1235 H 0.61004 0.98635 0.93352 0.0
H1236 H 0.57344 0.00375 0.95136 0.0
H1237 H 0.65449 0.98029 0.94369 0.0
H1238 H 0.59294 0.92685 0.92679 0.0
H1239 H 0.5599 0.90087 0.93558 0.0
H1240 H 0.60888 0.85787 0.97631 0.0
H1241 H 0.64214 0.88397 0.96829 0.0
C1242 C 0.72941 0.91391 0.88107 0.0
C1243 C 0.74446 0.89705 0.89239 0.0
C1244 C 0.70875 0.92401 0.8919 0.0
C1245 C 0.70235 0.91747 0.9143 0.0
C1246 C 0.71707 0.90054 0.92559 0.0
C1247 C 0.73791 0.89063 0.91491 0.0
C1248 C 0.68036 0.92826 0.92595 0.0
C1249 C 0.6615 0.91408 0.93253 0.0
C1250 C 0.67757 0.95247 0.92992 0.0
C1251 C 0.697 0.9684 0.92398 0.0
C1252 C 0.72063 0.96482 0.93297 0.0
C1253 C 0.7389 0.97981 0.92714 0.0
C1254 C 0.73373 0.99854 0.91246 0.0
C1255 C 0.71025 1.00236 0.90364 0.0
C1256 C 0.69191 0.98741 0.9094 0.0
C1257 C 0.58409 0.95894 0.98862 0.0
C1258 C 0.5721 0.9787 0.97903 0.0
C1259 C 0.60543 0.94925 0.97864 0.0
C1260 C 0.61502 0.95862 0.95838 0.0
C1261 C 0.60322 0.97862 0.94905 0.0
C1262 C 0.58217 0.98858 0.95928 0.0
C1263 C 0.63716 0.94765 0.94686 0.0
C1264 C 0.65614 0.96179 0.94026 0.0
C1265 C 0.63986 0.92341 0.94251 0.0
C1266 C 0.61998 0.90751 0.94712 0.0
C1267 C 0.59665 0.91194 0.93775 0.0
C1268 C 0.57787 0.89718 0.94258 0.0
C1269 C 0.58227 0.87771 0.95647 0.0
C1270 C 0.60549 0.87296 0.96556 0.0
C1271 C 0.62431 0.88775 0.96091 0.0
H1272 H 0.56769 0.8663 0.96016 0.0
H1273 H 0.7479 0.01012 0.90797 0.0
H1274 H 0.74521 0.10555 0.42179 0.0
H1275 H 0.78135 0.0879 0.44045 0.0
H1276 H 0.82433 0.10419 0.38113 0.0
H1277 H 0.78797 0.12107 0.36211 0.0
H1278 H 0.83919 0.06446 0.39472 0.0
H1279 H 0.82467 0.13623 0.43443 0.0
H1280 H 0.80115 0.16624 0.45624 0.0
H1281 H 0.79087 0.11788 0.51104 0.0
H1282 H 0.81407 0.08747 0.4894 0.0
H1283 H 0.94217 0.06965 0.4888 0.0
H1284 H 0.90577 0.08657 0.47007 0.0
H1285 H 0.8852 0.01829 0.44917 0.0
H1286 H 0.92213 1.00137 0.46709 0.0
H1287 H 0.86015 0.08532 0.47513 0.0
H1288 H 0.85333 0.01975 0.39951 0.0
H1289 H 0.88044 0.99441 0.37569 0.0
H1290 H 0.9397 0.03861 0.38913 0.0
H1291 H 0.91288 0.06436 0.41277 0.0
C1292 C 0.76238 0.10541 0.41275 0.0
C1293 C 0.76368 0.11484 0.39048 0.0
C1294 C 0.78314 0.09538 0.42349 0.0
C1295 C 0.80591 0.095 0.4125 0.0
C1296 C 0.80712 0.10416 0.39011 0.0
C1297 C 0.78628 0.11385 0.3792 0.0
C1298 C 0.82837 0.08508 0.42426 0.0
C1299 C 0.84369 0.06905 0.41232 0.0
C1300 C 0.83483 0.09128 0.44711 0.0
C1301 C 0.8209 0.10952 0.46019 0.0
C1302 C 0.81725 0.13195 0.45106 0.0
C1303 C 0.80399 0.14904 0.4634 0.0
C1304 C 0.79447 0.14395 0.48499 0.0
C1305 C 0.79823 0.12178 0.4943 0.0
C1306 C 0.81145 0.10462 0.48201 0.0
C1307 C 0.92989 0.05819 0.48025 0.0
C1308 C 0.93523 0.03412 0.47936 0.0
C1309 C 0.90897 0.06792 0.46954 0.0
C1310 C 0.89271 0.05386 0.45777 0.0
C1311 C 0.89762 0.0297 0.45755 0.0
C1312 C 0.91873 0.01999 0.46798 0.0
C1313 C 0.87081 0.06453 0.44567 0.0
C1314 C 0.8556 0.08067 0.45756 0.0
C1315 C 0.86493 0.05906 0.4225 0.0
C1316 C 0.88114 0.04383 0.40811 0.0
C1317 C 0.87212 0.02409 0.39731 0.0
C1318 C 0.88744 0.00966 0.38386 0.0
C1319 C 0.9118 0.01486 0.38097 0.0
C1320 C 0.92086 0.03456 0.39145 0.0
C1321 C 0.90561 0.04906 0.4049 0.0
H1322 H 0.92363 0.00365 0.37056 0.0
H1323 H 0.78421 0.15721 0.49452 0.0
H1324 H 0.26105 0.59506 0.06511 0.0
H1325 H 0.21808 0.58813 0.05782 0.0
H1326 H 0.23814 0.52176 0.0274 0.0
H1327 H 0.28122 0.5285 0.03487 0.0
H1328 H 0.20314 0.55131 1.00137 0.0
H1329 H 0.21755 0.52027 0.07788 0.0
H1330 H 0.2312 0.52239 0.11833 0.0
H1331 H 0.17956 0.57892 0.13082 0.0
H1332 H 0.16585 0.57735 0.09033 0.0
H1333 H 0.09015 0.49984 0.99465 0.0
H1334 H 0.13232 0.509 1.00163 0.0
H1335 H 0.10882 0.5637 0.04851 0.0
H1336 H 0.06644 0.55366 0.04247 0.0
H1337 H 0.14577 0.54213 0.06609 0.0
H1338 H 0.12996 0.57402 0.99161 0.0
H1339 H 0.11609 0.57455 0.95115 0.0
H1340 H 0.16959 0.52088 0.9343 0.0
H1341 H 0.18358 0.51979 0.97473 0.0
C1342 C 0.25627 0.57906 0.05675 0.0
C1343 C 0.27436 0.5623 0.05051 0.0
C1344 C 0.23178 0.57509 0.0527 0.0
C1345 C 0.22505 0.55442 0.04215 0.0
C1346 C 0.24307 0.53781 0.03557 0.0
C1347 C 0.26757 0.54161 0.03993 0.0
C1348 C 0.19912 0.55009 0.03818 0.0
C1349 C 0.19058 0.54902 0.01545 0.0
C1350 C 0.18272 0.548 0.05664 0.0
C1351 C 0.19086 0.54885 0.08102 0.0
C1352 C 0.20926 0.53329 0.0892 0.0
C1353 C 0.21697 0.53436 0.11214 0.0
C1354 C 0.2063 0.55083 0.12712 0.0
C1355 C 0.18784 0.5662 0.11919 0.0
C1356 C 0.18008 0.56521 0.09625 0.0
C1357 C 0.09396 0.51391 0.00636 0.0
C1358 C 0.07504 0.52616 0.0179 0.0
C1359 C 0.11809 0.51923 0.01024 0.0
C1360 C 0.1238 0.53742 0.0252 0.0
C1361 C 0.10489 0.54966 0.03682 0.0
C1362 C 0.0807 0.54397 0.03332 0.0
C1363 C 0.14955 0.54314 0.02913 0.0
C1364 C 0.15815 0.54452 0.05189 0.0
C1365 C 0.16592 0.54597 0.01065 0.0
C1366 C 0.15769 0.5467 0.98625 0.0
C1367 C 0.13867 0.56222 0.97931 0.0
C1368 C 0.1308 0.56264 0.95637 0.0
C1369 C 0.14191 0.54772 0.94018 0.0
C1370 C 0.16098 0.53241 0.94687 0.0
C1371 C 0.16892 0.5319 0.96979 0.0
H1372 H 0.13578 0.54806 0.92243 0.0
H1373 H 0.2123 0.55163 0.14487 0.0
H1374 H 0.22763 0.45821 0.51613 0.0
H1375 H 0.27088 0.46215 0.50805 0.0
H1376 H 0.28869 0.44072 0.57751 0.0
H1377 H 0.2455 0.43741 0.58578 0.0
H1378 H 0.3138 0.47583 0.56712 0.0
H1379 H 0.29789 0.40415 0.52967 0.0
H1380 H 0.27666 0.37782 0.50362 0.0
H1381 H 0.29508 0.41943 0.44558 0.0
H1382 H 0.31614 0.44621 0.47133 0.0
H1383 H 0.44016 0.46326 0.54916 0.0
H1384 H 0.39861 0.45137 0.55547 0.0
H1385 H 0.37658 0.4811 0.49017 0.0
H1386 H 0.41811 0.4927 0.4835 0.0
H1387 H 0.3545 0.43971 0.49894 0.0
H1388 H 0.3699 0.51168 0.5383 0.0
H1389 H 0.39425 0.53485 0.56469 0.0
H1390 H 0.37732 0.49001 0.62077 0.0
H1391 H 0.3536 0.46598 0.59442 0.0
C1392 C 0.24084 0.45428 0.5296 0.0
C1393 C 0.23328 0.44758 0.55158 0.0
C1394 C 0.26552 0.45642 0.52496 0.0
C1395 C 0.28309 0.45141 0.54209 0.0
C1396 C 0.2755 0.44471 0.56404 0.0
C1397 C 0.25083 0.44287 0.56877 0.0
C1398 C 0.30934 0.45384 0.5374 0.0
C1399 C 0.32272 0.46761 0.55239 0.0
C1400 C 0.321 0.4434 0.51801 0.0
C1401 C 0.3084 0.4273 0.50246 0.0
C1402 C 0.29726 0.40779 0.51137 0.0
C1403 C 0.28528 0.39277 0.49666 0.0
C1404 C 0.28447 0.39698 0.47297 0.0
C1405 C 0.29569 0.4162 0.46394 0.0
C1406 C 0.30768 0.43129 0.47858 0.0
C1407 C 0.42654 0.46706 0.53603 0.0
C1408 C 0.43234 0.47923 0.51598 0.0
C1409 C 0.40284 0.46021 0.53964 0.0
C1410 C 0.38449 0.46564 0.52341 0.0
C1411 C 0.39048 0.47676 0.5029 0.0
C1412 C 0.41419 0.48353 0.49921 0.0
C1413 C 0.35872 0.46162 0.52865 0.0
C1414 C 0.34547 0.44771 0.51372 0.0
C1415 C 0.3472 0.47169 0.54823 0.0
C1416 C 0.36019 0.48691 0.56434 0.0
C1417 C 0.37143 0.50672 0.55624 0.0
C1418 C 0.38516 0.51998 0.5712 0.0
C1419 C 0.38732 0.51392 0.59443 0.0
C1420 C 0.37565 0.49465 0.60277 0.0
C1421 C 0.36211 0.48116 0.58781 0.0
H1422 H 0.39809 0.52411 0.60597 0.0
H1423 H 0.27519 0.38533 0.46161 0.0
H1424 H 0.93595 0.7354 0.86702 0.0
H1425 H 0.9523 0.69975 0.88501 0.0
H1426 H 0.89148 0.70042 0.9314 0.0
H1427 H 0.87418 0.73521 0.91284 0.0
H1428 H 0.93806 0.69265 0.95358 0.0
H1429 H 0.89203 0.66337 0.88945 0.0
H1430 H 0.88084 0.66017 0.84841 0.0
H1431 H 0.95388 0.63674 0.83213 0.0
H1432 H 0.96558 0.64012 0.87305 0.0
H1433 H 0.95522 0.5814 0.00443 0.0
H1434 H 0.93967 0.61687 0.98561 0.0
H1435 H 0.98727 0.60255 0.92793 0.0
H1436 H 1.00175 0.56632 0.94617 0.0
H1437 H 0.94842 0.61827 0.91095 0.0
H1438 H 0.99607 0.647 0.97275 0.0
H1439 H 0.01015 0.65152 0.01285 0.0
H1440 H 0.93905 0.67775 0.0326 0.0
H1441 H 0.92445 0.67311 0.99267 0.0
C1442 C 0.92569 0.7279 0.88077 0.0
C1443 C 0.90357 0.73866 0.8883 0.0
C1444 C 0.93527 0.70748 0.8912 0.0
C1445 C 0.92321 0.69731 0.90967 0.0
C1446 C 0.90129 0.70796 0.91734 0.0
C1447 C 0.89149 0.72812 0.9067 0.0
C1448 C 0.93333 0.67559 0.92099 0.0
C1449 C 0.94009 0.67631 0.94434 0.0
C1450 C 0.93679 0.65437 0.90884 0.0
C1451 C 0.92974 0.65224 0.88427 0.0
C1452 C 0.90575 0.65773 0.87709 0.0
C1453 C 0.89931 0.65585 0.85386 0.0
C1454 C 0.91665 0.64832 0.83766 0.0
C1455 C 0.94047 0.6426 0.84468 0.0
C1456 C 0.94701 0.64448 0.8679 0.0
C1457 C 0.96249 0.58586 0.98778 0.0
C1458 C 0.97988 0.57098 0.97692 0.0
C1459 C 0.95367 0.60635 0.97702 0.0
C1460 C 0.96252 0.61302 0.95537 0.0
C1461 C 0.97997 0.5981 0.94456 0.0
C1462 C 0.98838 0.57733 0.95509 0.0
C1463 C 0.95327 0.63512 0.94379 0.0
C1464 C 0.9466 0.63454 0.92033 0.0
C1465 C 0.9504 0.65663 0.95574 0.0
C1466 C 0.95911 0.65949 0.97976 0.0
C1467 C 0.98339 0.65359 0.98568 0.0
C1468 C 0.99147 0.65619 0.00837 0.0
C1469 C 0.97549 0.66486 0.02527 0.0
C1470 C 0.9514 0.67101 0.0195 0.0
C1471 C 0.94322 0.66841 0.99683 0.0
H1472 H 0.98178 0.66686 0.04283 0.0
H1473 H 0.91163 0.64687 0.81968 0.0
H1474 H 0.40336 0.71262 0.06328 0.0
H1475 H 0.41503 0.75285 0.06134 0.0
H1476 H 0.48898 0.72995 0.04646 0.0
H1477 H 0.4774 0.68944 0.04871 0.0
H1478 H 0.48809 0.76371 0.07777 0.0
H1479 H 0.45146 0.7528 1.00409 0.0
H1480 H 0.41992 0.74125 0.97656 0.0
H1481 H 0.36899 0.79101 0.00654 0.0
H1482 H 0.40013 0.80264 0.03447 0.0
H1483 H 0.52091 0.87657 0.03874 0.0
H1484 H 0.51347 0.83534 0.04307 0.0
H1485 H 0.44027 0.85261 0.06539 0.0
H1486 H 0.4477 0.89388 0.06167 0.0
H1487 H 0.44275 0.82135 0.02893 0.0
H1488 H 0.48026 0.83149 0.10316 0.0
H1489 H 0.51263 0.843 0.12981 0.0
H1490 H 0.56316 0.79468 0.09715 0.0
H1491 H 0.53116 0.78311 0.07007 0.0
C1492 C 0.42203 0.71614 0.05925 0.0
C1493 C 0.43943 0.69791 0.05591 0.0
C1494 C 0.42869 0.73914 0.05819 0.0
C1495 C 0.45281 0.74441 0.05342 0.0
C1496 C 0.47027 0.72625 0.05012 0.0
C1497 C 0.46364 0.70317 0.05137 0.0
C1498 C 0.45972 0.76892 0.05237 0.0
C1499 C 0.47845 0.77624 0.06681 0.0
C1500 C 0.44686 0.78534 0.03834 0.0
C1501 C 0.42809 0.77845 0.0215 0.0
C1502 C 0.43348 0.76116 0.00492 0.0
C1503 C 0.41568 0.75462 0.98923 0.0
C1504 C 0.39245 0.76535 0.98984 0.0
C1505 C 0.38699 0.7827 0.0061 0.0
C1506 C 0.40472 0.78929 0.02185 0.0
C1507 C 0.50344 0.87164 0.04517 0.0
C1508 C 0.48483 0.88851 0.04973 0.0
C1509 C 0.49919 0.84807 0.04752 0.0
C1510 C 0.4763 0.841 0.05447 0.0
C1511 C 0.45801 0.85777 0.05986 0.0
C1512 C 0.46227 0.88132 0.05765 0.0
C1513 C 0.47083 0.81614 0.05456 0.0
C1514 C 0.45242 0.80876 0.03983 0.0
C1515 C 0.48413 0.7997 0.06815 0.0
C1516 C 0.50338 0.80662 0.08443 0.0
C1517 C 0.49833 0.82347 0.10152 0.0
C1518 C 0.5166 0.82997 0.11673 0.0
C1519 C 0.53995 0.81962 0.11513 0.0
C1520 C 0.54507 0.80271 0.09835 0.0
C1521 C 0.52687 0.79616 0.08307 0.0
H1522 H 0.55407 0.82468 0.12693 0.0
H1523 H 0.37869 0.76026 0.97767 0.0
H1524 H 0.10453 0.30094 0.56042 0.0
H1525 H 0.09334 0.26053 0.55902 0.0
H1526 H 0.02 0.28219 0.53989 0.0
H1527 H 0.03108 0.32288 0.54171 0.0
H1528 H 0.01944 0.25013 0.57219 0.0
H1529 H 0.06033 0.25733 0.50029 0.0
H1530 H 0.09351 0.26748 0.47428 0.0
H1531 H 0.14243 0.21937 0.5093 0.0
H1532 H 0.10963 0.20916 0.53574 0.0
H1533 H 0.98769 0.13595 0.53647 0.0
H1534 H 0.99542 0.17723 0.53968 0.0
H1535 H 0.06782 0.16031 0.5649 0.0
H1536 H 0.06011 0.11898 0.5621 0.0
H1537 H 0.06735 0.19017 0.52832 0.0
H1538 H 0.02568 0.18357 0.60054 0.0
H1539 H 0.99186 0.17339 0.62576 0.0
H1540 H 0.94341 0.22027 0.58865 0.0
H1541 H 0.97689 0.2305 0.56299 0.0
C1542 C 0.08612 0.29708 0.55552 0.0
C1543 C 0.06872 0.31502 0.55094 0.0
C1544 C 0.07973 0.27398 0.55477 0.0
C1545 C 0.05591 0.2683 0.54903 0.0
C1546 C 0.03849 0.28618 0.54432 0.0
C1547 C 0.04483 0.30937 0.54532 0.0
C1548 C 0.04916 0.2437 0.54863 0.0
C1549 C 0.02966 0.23707 0.56229 0.0
C1550 C 0.06279 0.2266 0.53606 0.0
C1551 C 0.08256 0.23263 0.52012 0.0
C1552 C 0.07821 0.24904 0.50255 0.0
C1553 C 0.09695 0.25478 0.48772 0.0
C1554 C 0.12008 0.24412 0.49017 0.0
C1555 C 0.12451 0.22763 0.50744 0.0
C1556 C 0.10584 0.22184 0.52233 0.0
C1557 C 0.00503 0.14099 0.54328 0.0
C1558 C 0.02334 0.12418 0.54893 0.0
C1559 C 0.00945 0.1646 0.54501 0.0
C1560 C 0.0322 0.17178 0.55249 0.0
C1561 C 0.05018 0.15508 0.55896 0.0
C1562 C 0.04577 0.1315 0.5573 0.0
C1563 C 0.03785 0.19661 0.55206 0.0
C1564 C 0.05711 0.20327 0.53816 0.0
C1565 C 0.02388 0.21371 0.56424 0.0
C1566 C 0.00374 0.20762 0.57969 0.0
C1567 C 0.00777 0.19156 0.59763 0.0
C1568 C 0.98867 0.18581 0.61203 0.0
C1569 C 0.96548 0.19613 0.60877 0.0
C1570 C 0.96137 0.21227 0.59114 0.0
C1571 C 0.9804 0.21806 0.57667 0.0
H1572 H 0.95072 0.19166 0.61994 0.0
H1573 H 0.13456 0.24859 0.47867 0.0
H1574 H 0.56917 0.2585 0.39693 0.0
H1575 H 0.55267 0.29386 0.41564 0.0
H1576 H 0.61912 0.32794 0.40118 0.0
H1577 H 0.63591 0.29238 0.38322 0.0
H1578 H 0.60657 0.34 0.44139 0.0
H1579 H 0.56271 0.33827 0.3701 0.0
H1580 H 0.53697 0.32168 0.33988 0.0
H1581 H 0.47904 0.31566 0.38851 0.0
H1582 H 0.50455 0.33195 0.4191 0.0
H1583 H 0.52046 0.45205 0.44135 0.0
H1584 H 0.53631 0.4164 0.42296 0.0
H1585 H 0.55339 0.38722 0.48969 0.0
H1586 H 0.53804 0.42312 0.50821 0.0
H1587 H 0.52444 0.37349 0.42255 0.0
H1588 H 0.60299 0.3502 0.48645 0.0
H1589 H 0.63101 0.37004 0.51247 0.0
H1590 H 0.62351 0.43167 0.47134 0.0
H1591 H 0.59573 0.41211 0.44492 0.0
C1592 C 0.58019 0.27359 0.3976 0.0
C1593 C 0.60388 0.27254 0.3885 0.0
C1594 C 0.5707 0.2939 0.40829 0.0
C1595 C 0.58441 0.31394 0.40968 0.0
C1596 C 0.60807 0.31286 0.40053 0.0
C1597 C 0.61769 0.29246 0.39018 0.0
C1598 C 0.57435 0.3359 0.4208 0.0
C1599 C 0.58857 0.34721 0.43724 0.0
C1600 C 0.55103 0.34586 0.41529 0.0
C1601 C 0.53563 0.33611 0.39693 0.0
C1602 C 0.54454 0.33326 0.37438 0.0
C1603 C 0.52998 0.32393 0.35718 0.0
C1604 C 0.50641 0.31756 0.36228 0.0
C1605 C 0.49732 0.32057 0.38459 0.0
C1606 C 0.51181 0.32986 0.40186 0.0
C1607 C 0.52759 0.43808 0.45218 0.0
C1608 C 0.52804 0.44063 0.47633 0.0
C1609 C 0.53661 0.41758 0.44159 0.0
C1610 C 0.54637 0.39901 0.4548 0.0
C1611 C 0.54642 0.40134 0.47897 0.0
C1612 C 0.5375 0.42191 0.48959 0.0
C1613 C 0.55657 0.37739 0.44325 0.0
C1614 C 0.54238 0.36616 0.42676 0.0
C1615 C 0.58021 0.3679 0.44819 0.0
C1616 C 0.59706 0.37975 0.46388 0.0
C1617 C 0.60738 0.36796 0.48293 0.0
C1618 C 0.62322 0.37916 0.49775 0.0
C1619 C 0.62897 0.40213 0.49361 0.0
C1620 C 0.61897 0.41392 0.47458 0.0
C1621 C 0.60315 0.40278 0.4597 0.0
H1622 H 0.64121 0.41077 0.5051 0.0
H1623 H 0.49517 0.31035 0.34895 0.0
loop_
_geom_bond_atom_site_label_1
_geom_bond_atom_site_label_2
_geom_bond_distance
_geom_bond_site_symmetry_2
_ccdc_geom_bond_type
C0 C1 1.384 . S
C0 H13 0.947 . S
C0 C35 1.382 . S
C1 C0 1.384 . S
C1 C2 1.378 . S
C2 C1 1.378 . S
C2 C3 1.378 . S
C2 H14 0.952 . S
C3 C2 1.378 . S
C3 H15 0.950 . S
C3 C34 1.383 . S
H4 C23 0.947 . S
H5 C24 0.946 . S
H6 C26 0.953 . S
H7 C27 0.945 . S
H8 C29 0.952 . S
H9 C30 0.949 . S
H10 C32 0.950 . S
H11 C33 0.948 . S
H12 C35 0.951 . S
H13 C0 0.947 . S
H14 C2 0.952 . S
H15 C3 0.950 . S
N16 C19 1.382 . S
N16 C21 1.363 . S
N17 C19 1.371 . S
N17 C20 1.372 . S
N18 C20 1.361 . S
N18 C21 1.377 . S
C19 N16 1.382 . S
C19 N17 1.371 . S
C19 C22 1.480 . S
C20 N17 1.372 . S
C20 N18 1.361 . S
C20 C28 1.457 . S
C21 N16 1.363 . S
C21 N18 1.377 . S
C21 C34 1.479 . S
C22 C19 1.480 . S
C22 C23 1.383 . S
C22 C27 1.385 . S
C23 H4 0.947 . S
C23 C22 1.383 . S
C23 C24 1.388 . S
C24 H5 0.946 . S
C24 C23 1.388 . S
C24 C25 1.384 . S
C25 C24 1.384 . S
C25 C26 1.377 . S
C26 H6 0.953 . S
C26 C25 1.377 . S
C26 C27 1.369 . S
C27 H7 0.945 . S
C27 C22 1.385 . S
C27 C26 1.369 . S
C28 C20 1.457 . S
C28 C29 1.372 . S
C28 C33 1.364 . S
C29 H8 0.952 . S
C29 C28 1.372 . S
C29 C30 1.389 . S
C30 H9 0.949 . S
C30 C29 1.389 . S
C30 C31 1.387 . S
C31 C30 1.387 . S
C31 C32 1.372 . S
C32 H10 0.950 . S
C32 C31 1.372 . S
C32 C33 1.379 . S
C33 H11 0.948 . S
C33 C28 1.364 . S
C33 C32 1.379 . S
C34 C3 1.383 . S
C34 C21 1.479 . S
C34 C35 1.398 . S
C35 C0 1.382 . S
C35 H12 0.951 . S
C35 C34 1.398 . S
C36 C37 1.384 . S
C36 H49 0.947 . S
C36 C71 1.382 . S
C37 C36 1.384 . S
C37 C38 1.378 . S
C38 C37 1.378 . S
C38 C39 1.378 . S
C38 H50 0.952 . S
C39 C38 1.378 . S
C39 H51 0.950 . S
C39 C70 1.383 . S
H40 C59 0.947 . S
H41 C60 0.946 . S
H42 C62 0.953 . S
H43 C63 0.945 . S
H44 C65 0.952 . S
H45 C66 0.949 . S
H46 C68 0.950 . S
H47 C69 0.948 . S
H48 C71 0.951 . S
H49 C36 0.947 . S
H50 C38 0.952 . S
H51 C39 0.950 . S
N52 C55 1.382 . S
N52 C57 1.363 . S
N53 C55 1.371 . S
N53 C56 1.372 . S
N54 C56 1.361 . S
N54 C57 1.377 . S
C55 N52 1.382 . S
C55 N53 1.371 . S
C55 C58 1.480 . S
C56 N53 1.372 . S
C56 N54 1.361 . S
C56 C64 1.457 . S
C57 N52 1.363 . S
C57 N54 1.377 . S
C57 C70 1.479 . S
C58 C55 1.480 . S
C58 C59 1.383 . S
C58 C63 1.385 . S
C59 H40 0.947 . S
C59 C58 1.383 . S
C59 C60 1.388 . S
C60 H41 0.946 . S
C60 C59 1.388 . S
C60 C61 1.384 . S
C61 C60 1.384 . S
C61 C62 1.377 . S
C62 H42 0.953 . S
C62 C61 1.377 . S
C62 C63 1.369 . S
C63 H43 0.945 . S
C63 C58 1.385 . S
C63 C62 1.369 . S
C64 C56 1.457 . S
C64 C65 1.372 . S
C64 C69 1.364 . S
C65 H44 0.952 . S
C65 C64 1.372 . S
C65 C66 1.389 . S
C66 H45 0.949 . S
C66 C65 1.389 . S
C66 C67 1.387 . S
C67 C66 1.387 . S
C67 C68 1.372 . S
C68 H46 0.950 . S
C68 C67 1.372 . S
C68 C69 1.379 . S
C69 H47 0.948 . S
C69 C64 1.364 . S
C69 C68 1.379 . S
C70 C39 1.383 . S
C70 C57 1.479 . S
C70 C71 1.398 . S
C71 C36 1.382 . S
C71 H48 0.951 . S
C71 C70 1.398 . S
C72 C73 1.384 . S
C72 H85 0.947 . S
C72 C107 1.382 . S
C73 C72 1.384 . S
C73 C74 1.378 . S
C74 C73 1.378 . S
C74 C75 1.378 . S
C74 H86 0.952 . S
C75 C74 1.378 . S
C75 H87 0.950 . S
C75 C106 1.383 . S
H76 C95 0.947 . S
H77 C96 0.946 . S
H78 C98 0.953 . S
H79 C99 0.945 . S
H80 C101 0.952 . S
H81 C102 0.949 . S
H82 C104 0.950 . S
H83 C105 0.948 . S
H84 C107 0.951 . S
H85 C72 0.947 . S
H86 C74 0.952 . S
H87 C75 0.950 . S
N88 C91 1.382 . S
N88 C93 1.363 . S
N89 C91 1.371 . S
N89 C92 1.372 . S
N90 C92 1.361 . S
N90 C93 1.377 . S
C91 N88 1.382 . S
C91 N89 1.371 . S
C91 C94 1.480 . S
C92 N89 1.372 . S
C92 N90 1.361 . S
C92 C100 1.457 . S
C93 N88 1.363 . S
C93 N90 1.377 . S
C93 C106 1.479 . S
C94 C91 1.480 . S
C94 C95 1.383 . S
C94 C99 1.385 . S
C95 H76 0.947 . S
C95 C94 1.383 . S
C95 C96 1.388 . S
C96 H77 0.946 . S
C96 C95 1.388 . S
C96 C97 1.384 . S
C97 C96 1.384 . S
C97 C98 1.377 . S
C98 H78 0.953 . S
C98 C97 1.377 . S
C98 C99 1.369 . S
C99 H79 0.945 . S
C99 C94 1.385 . S
C99 C98 1.369 . S
C100 C92 1.457 . S
C100 C101 1.372 . S
C100 C105 1.364 . S
C101 H80 0.952 . S
C101 C100 1.372 . S
C101 C102 1.389 . S
C102 H81 0.949 . S
C102 C101 1.389 . S
C102 C103 1.387 . S
C103 C102 1.387 . S
C103 C104 1.372 . S
C104 H82 0.950 . S
C104 C103 1.372 . S
C104 C105 1.379 . S
C105 H83 0.948 . S
C105 C100 1.364 . S
C105 C104 1.379 . S
C106 C75 1.383 . S
C106 C93 1.479 . S
C106 C107 1.398 . S
C107 C72 1.382 . S
C107 H84 0.951 . S
C107 C106 1.398 . S
C108 C109 1.384 . S
C108 H121 0.947 . S
C108 C143 1.382 . S
C109 C108 1.384 . S
C109 C110 1.378 . S
C110 C109 1.378 . S
C110 C111 1.378 . S
C110 H122 0.952 . S
C111 C110 1.378 . S
C111 H123 0.950 . S
C111 C142 1.383 . S
H112 C131 0.947 . S
H113 C132 0.946 . S
H114 C134 0.953 . S
H115 C135 0.945 . S
H116 C137 0.952 . S
H117 C138 0.949 . S
H118 C140 0.950 . S
H119 C141 0.948 . S
H120 C143 0.951 . S
H121 C108 0.947 . S
H122 C110 0.952 . S
H123 C111 0.950 . S
N124 C127 1.382 . S
N124 C129 1.363 . S
N125 C127 1.371 . S
N125 C128 1.372 . S
N126 C128 1.361 . S
N126 C129 1.377 . S
C127 N124 1.382 . S
C127 N125 1.371 . S
C127 C130 1.480 . S
C128 N125 1.372 . S
C128 N126 1.361 . S
C128 C136 1.457 . S
C129 N124 1.363 . S
C129 N126 1.377 . S
C129 C142 1.479 . S
C130 C127 1.480 . S
C130 C131 1.383 . S
C130 C135 1.385 . S
C131 H112 0.947 . S
C131 C130 1.383 . S
C131 C132 1.388 . S
C132 H113 0.946 . S
C132 C131 1.388 . S
C132 C133 1.384 . S
C133 C132 1.384 . S
C133 C134 1.377 . S
C134 H114 0.953 . S
C134 C133 1.377 . S
C134 C135 1.369 . S
C135 H115 0.945 . S
C135 C130 1.385 . S
C135 C134 1.369 . S
C136 C128 1.457 . S
C136 C137 1.372 . S
C136 C141 1.364 . S
C137 H116 0.952 . S
C137 C136 1.372 . S
C137 C138 1.389 . S
C138 H117 0.949 . S
C138 C137 1.389 . S
C138 C139 1.387 . S
C139 C138 1.387 . S
C139 C140 1.372 . S
C140 H118 0.950 . S
C140 C139 1.372 . S
C140 C141 1.379 . S
C141 H119 0.948 . S
C141 C136 1.364 . S
C141 C140 1.379 . S
C142 C111 1.383 . S
C142 C129 1.479 . S
C142 C143 1.398 . S
C143 C108 1.382 . S
C143 H120 0.951 . S
C143 C142 1.398 . S
C144 C145 1.384 . S
C144 H157 0.947 . S
C144 C179 1.382 . S
C145 C144 1.384 . S
C145 C146 1.378 . S
C146 C145 1.378 . S
C146 C147 1.378 . S
C146 H158 0.952 . S
C147 C146 1.378 . S
C147 H159 0.950 . S
C147 C178 1.383 . S
H148 C167 0.947 . S
H149 C168 0.946 . S
H150 C170 0.953 . S
H151 C171 0.945 . S
H152 C173 0.952 . S
H153 C174 0.949 . S
H154 C176 0.950 . S
H155 C177 0.948 . S
H156 C179 0.951 . S
H157 C144 0.947 . S
H158 C146 0.952 . S
H159 C147 0.950 . S
N160 C163 1.382 . S
N160 C165 1.363 . S
N161 C163 1.371 . S
N161 C164 1.372 . S
N162 C164 1.361 . S
N162 C165 1.377 . S
C163 N160 1.382 . S
C163 N161 1.371 . S
C163 C166 1.480 . S
C164 N161 1.372 . S
C164 N162 1.361 . S
C164 C172 1.457 . S
C165 N160 1.363 . S
C165 N162 1.377 . S
C165 C178 1.479 . S
C166 C163 1.480 . S
C166 C167 1.383 . S
C166 C171 1.385 . S
C167 H148 0.947 . S
C167 C166 1.383 . S
C167 C168 1.388 . S
C168 H149 0.946 . S
C168 C167 1.388 . S
C168 C169 1.384 . S
C169 C168 1.384 . S
C169 C170 1.377 . S
C170 H150 0.953 . S
C170 C169 1.377 . S
C170 C171 1.369 . S
C171 H151 0.945 . S
C171 C166 1.385 . S
C171 C170 1.369 . S
C172 C164 1.457 . S
C172 C173 1.372 . S
C172 C177 1.364 . S
C173 H152 0.952 . S
C173 C172 1.372 . S
C173 C174 1.389 . S
C174 H153 0.949 . S
C174 C173 1.389 . S
C174 C175 1.387 . S
C175 C174 1.387 . S
C175 C176 1.372 . S
C176 H154 0.950 . S
C176 C175 1.372 . S
C176 C177 1.379 . S
C177 H155 0.948 . S
C177 C172 1.364 . S
C177 C176 1.379 . S
C178 C147 1.383 . S
C178 C165 1.479 . S
C178 C179 1.398 . S
C179 C144 1.382 . S
C179 H156 0.951 . S
C179 C178 1.398 . S
C180 C181 1.384 . S
C180 H193 0.947 . S
C180 C215 1.382 . S
C181 C180 1.384 . S
C181 C182 1.378 . S
C182 C181 1.378 . S
C182 C183 1.378 . S
C182 H194 0.952 . S
C183 C182 1.378 . S
C183 H195 0.950 . S
C183 C214 1.383 . S
H184 C203 0.947 . S
H185 C204 0.946 . S
H186 C206 0.953 . S
H187 C207 0.945 . S
H188 C209 0.952 . S
H189 C210 0.949 . S
H190 C212 0.950 . S
H191 C213 0.948 . S
H192 C215 0.951 . S
H193 C180 0.947 . S
H194 C182 0.952 . S
H195 C183 0.950 . S
N196 C199 1.382 . S
N196 C201 1.363 . S
N197 C199 1.371 . S
N197 C200 1.372 . S
N198 C200 1.361 . S
N198 C201 1.377 . S
C199 N196 1.382 . S
C199 N197 1.371 . S
C199 C202 1.480 . S
C200 N197 1.372 . S
C200 N198 1.361 . S
C200 C208 1.457 . S
C201 N196 1.363 . S
C201 N198 1.377 . S
C201 C214 1.479 . S
C202 C199 1.480 . S
C202 C203 1.383 . S
C202 C207 1.385 . S
C203 H184 0.947 . S
C203 C202 1.383 . S
C203 C204 1.388 . S
C204 H185 0.946 . S
C204 C203 1.388 . S
C204 C205 1.384 . S
C205 C204 1.384 . S
C205 C206 1.377 . S
C206 H186 0.953 . S
C206 C205 1.377 . S
C206 C207 1.369 . S
C207 H187 0.945 . S
C207 C202 1.385 . S
C207 C206 1.369 . S
C208 C200 1.457 . S
C208 C209 1.372 . S
C208 C213 1.364 . S
C209 H188 0.952 . S
C209 C208 1.372 . S
C209 C210 1.389 . S
C210 H189 0.949 . S
C210 C209 1.389 . S
C210 C211 1.387 . S
C211 C210 1.387 . S
C211 C212 1.372 . S
C212 H190 0.950 . S
C212 C211 1.372 . S
C212 C213 1.379 . S
C213 H191 0.948 . S
C213 C208 1.364 . S
C213 C212 1.379 . S
C214 C183 1.383 . S
C214 C201 1.479 . S
C214 C215 1.398 . S
C215 C180 1.382 . S
C215 H192 0.951 . S
C215 C214 1.398 . S
C216 C217 1.384 . S
C216 H229 0.947 . S
C216 C251 1.382 . S
C217 C216 1.384 . S
C217 C218 1.378 . S
C218 C217 1.378 . S
C218 C219 1.378 . S
C218 H230 0.952 . S
C219 C218 1.378 . S
C219 H231 0.950 . S
C219 C250 1.383 . S
H220 C239 0.947 . S
H221 C240 0.946 . S
H222 C242 0.953 . S
H223 C243 0.945 . S
H224 C245 0.952 . S
H225 C246 0.949 . S
H226 C248 0.950 . S
H227 C249 0.948 . S
H228 C251 0.951 . S
H229 C216 0.947 . S
H230 C218 0.952 . S
H231 C219 0.950 . S
N232 C235 1.382 . S
N232 C237 1.363 . S
N233 C235 1.371 . S
N233 C236 1.372 . S
N234 C236 1.361 . S
N234 C237 1.377 . S
C235 N232 1.382 . S
C235 N233 1.371 . S
C235 C238 1.480 . S
C236 N233 1.372 . S
C236 N234 1.361 . S
C236 C244 1.457 . S
C237 N232 1.363 . S
C237 N234 1.377 . S
C237 C250 1.479 . S
C238 C235 1.480 . S
C238 C239 1.383 . S
C238 C243 1.385 . S
C239 H220 0.947 . S
C239 C238 1.383 . S
C239 C240 1.388 . S
C240 H221 0.946 . S
C240 C239 1.388 . S
C240 C241 1.384 . S
C241 C240 1.384 . S
C241 C242 1.377 . S
C242 H222 0.953 . S
C242 C241 1.377 . S
C242 C243 1.369 . S
C243 H223 0.945 . S
C243 C238 1.385 . S
C243 C242 1.369 . S
C244 C236 1.457 . S
C244 C245 1.372 . S
C244 C249 1.364 . S
C245 H224 0.952 . S
C245 C244 1.372 . S
C245 C246 1.389 . S
C246 H225 0.949 . S
C246 C245 1.389 . S
C246 C247 1.387 . S
C247 C246 1.387 . S
C247 C248 1.372 . S
C248 H226 0.950 . S
C248 C247 1.372 . S
C248 C249 1.379 . S
C249 H227 0.948 . S
C249 C244 1.364 . S
C249 C248 1.379 . S
C250 C219 1.383 . S
C250 C237 1.479 . S
C250 C251 1.398 . S
C251 C216 1.382 . S
C251 H228 0.951 . S
C251 C250 1.398 . S
C252 C253 1.384 . S
C252 H265 0.947 . S
C252 C287 1.382 . S
C253 C252 1.384 . S
C253 C254 1.378 . S
C254 C253 1.378 . S
C254 C255 1.378 . S
C254 H266 0.952 . S
C255 C254 1.378 . S
C255 H267 0.950 . S
C255 C286 1.383 . S
H256 C275 0.947 . S
H257 C276 0.946 . S
H258 C278 0.953 . S
H259 C279 0.945 . S
H260 C281 0.952 . S
H261 C282 0.949 . S
H262 C284 0.950 . S
H263 C285 0.948 . S
H264 C287 0.951 . S
H265 C252 0.947 . S
H266 C254 0.952 . S
H267 C255 0.950 . S
N268 C271 1.382 . S
N268 C273 1.363 . S
N269 C271 1.371 . S
N269 C272 1.372 . S
N270 C272 1.361 . S
N270 C273 1.377 . S
C271 N268 1.382 . S
C271 N269 1.371 . S
C271 C274 1.480 . S
C272 N269 1.372 . S
C272 N270 1.361 . S
C272 C280 1.457 . S
C273 N268 1.363 . S
C273 N270 1.377 . S
C273 C286 1.479 . S
C274 C271 1.480 . S
C274 C275 1.383 . S
C274 C279 1.385 . S
C275 H256 0.947 . S
C275 C274 1.383 . S
C275 C276 1.388 . S
C276 H257 0.946 . S
C276 C275 1.388 . S
C276 C277 1.384 . S
C277 C276 1.384 . S
C277 C278 1.377 . S
C278 H258 0.953 . S
C278 C277 1.377 . S
C278 C279 1.369 . S
C279 H259 0.945 . S
C279 C274 1.385 . S
C279 C278 1.369 . S
C280 C272 1.457 . S
C280 C281 1.372 . S
C280 C285 1.364 . S
C281 H260 0.952 . S
C281 C280 1.372 . S
C281 C282 1.389 . S
C282 H261 0.949 . S
C282 C281 1.389 . S
C282 C283 1.387 . S
C283 C282 1.387 . S
C283 C284 1.372 . S
C284 H262 0.950 . S
C284 C283 1.372 . S
C284 C285 1.379 . S
C285 H263 0.948 . S
C285 C280 1.364 . S
C285 C284 1.379 . S
C286 C255 1.383 . S
C286 C273 1.479 . S
C286 C287 1.398 . S
C287 C252 1.382 . S
C287 H264 0.951 . S
C287 C286 1.398 . S
C288 O304 1.251 . S
C288 O306 1.254 1_545 S
N289 C290 1.333 . S
N289 C294 1.307 . S
N289 Zn295 2.020 . S
C290 N289 1.333 . S
C290 C291 1.379 . S
C290 H308 0.952 . S
C291 C290 1.379 . S
C291 C292 1.390 . S
C291 H318 0.949 . S
C292 C291 1.390 . S
C292 C293 1.357 . S
C293 C292 1.357 . S
C293 C294 1.370 . S
C293 H319 0.950 . S
C294 N289 1.307 . S
C294 C293 1.370 . S
C294 H312 0.948 1_455 S
Zn295 N289 2.020 . S
Zn295 O304 2.039 . S
Zn295 O310 2.034 . S
Zn295 O314 2.025 1_455 S
Zn295 O316 2.024 1_455 S
C296 O315 1.246 1_545 S
C296 O316 1.249 . S
N297 C298 1.307 . S
N297 C299 1.333 . S
N297 Zn303 2.020 . S
C298 N297 1.307 . S
C298 C302 1.370 . S
C298 H309 0.948 1_655 S
C299 N297 1.333 . S
C299 C300 1.379 . S
C299 H307 0.952 . S
C300 C299 1.379 . S
C300 C301 1.390 . S
C300 H320 0.949 . S
C301 C300 1.390 . S
C301 C302 1.357 . S
C302 C298 1.370 . S
C302 C301 1.357 . S
C302 H321 0.950 . S
Zn303 N297 2.020 . S
Zn303 O306 2.025 1_655 S
Zn303 O311 2.024 1_655 S
Zn303 O313 2.039 . S
Zn303 O315 2.034 . S
O304 C288 1.251 . S
O304 Zn295 2.039 . S
C305 O310 1.246 1_565 S
C305 O311 1.249 . S
O306 C288 1.254 1_565 S
O306 Zn303 2.025 1_455 S
H307 C299 0.952 . S
H308 C290 0.952 . S
H309 C298 0.948 1_455 S
O310 Zn295 2.034 . S
O310 C305 1.246 1_545 S
O311 Zn303 2.024 1_455 S
O311 C305 1.249 . S
H312 C294 0.948 1_655 S
O313 Zn303 2.039 . S
O313 C317 1.251 . S
O314 Zn295 2.025 1_655 S
O314 C317 1.254 1_545 S
O315 C296 1.246 1_565 S
O315 Zn303 2.034 . S
O316 Zn295 2.024 1_655 S
O316 C296 1.249 . S
C317 O313 1.251 . S
C317 O314 1.254 1_565 S
H318 C291 0.949 . S
H319 C293 0.950 . S
H320 C300 0.949 . S
H321 C302 0.950 . S
C322 O338 1.251 1_565 S
C322 O340 1.254 . S
N323 C324 1.333 . S
N323 C328 1.307 . S
N323 Zn329 2.020 . S
C324 N323 1.333 . S
C324 C325 1.379 . S
C324 H342 0.952 . S
C325 C324 1.379 . S
C325 C326 1.390 . S
C325 H352 0.949 . S
C326 C325 1.390 . S
C326 C327 1.357 . S
C327 C326 1.357 . S
C327 C328 1.370 . S
C327 H353 0.950 . S
C328 N323 1.307 . S
C328 C327 1.370 . S
C328 H346 0.948 . S
Zn329 N323 2.020 . S
Zn329 O338 2.039 . S
Zn329 O344 2.034 1_556 S
Zn329 O348 2.025 1_556 S
Zn329 O350 2.024 . S
C330 O349 1.246 . S
C330 O350 1.249 1_565 S
N331 C332 1.307 . S
N331 C333 1.333 . S
N331 Zn337 2.020 . S
C332 N331 1.307 . S
C332 C336 1.370 . S
C332 H343 0.948 . S
C333 N331 1.333 . S
C333 C334 1.379 . S
C333 H341 0.952 . S
C334 C333 1.379 . S
C334 C335 1.390 . S
C334 H354 0.949 . S
C335 C334 1.390 . S
C335 C336 1.357 . S
C336 C332 1.370 . S
C336 C335 1.357 . S
C336 H355 0.950 . S
Zn337 N331 2.020 . S
Zn337 O340 2.025 1_554 S
Zn337 O345 2.024 . S
Zn337 O347 2.039 . S
Zn337 O349 2.034 1_554 S
O338 C322 1.251 1_545 S
O338 Zn329 2.039 . S
C339 O344 1.246 . S
C339 O345 1.249 1_545 S
O340 C322 1.254 . S
O340 Zn337 2.025 1_556 S
H341 C333 0.952 . S
H342 C324 0.952 . S
H343 C332 0.948 . S
O344 Zn329 2.034 1_554 S
O344 C339 1.246 . S
O345 Zn337 2.024 . S
O345 C339 1.249 1_565 S
H346 C328 0.948 . S
O347 Zn337 2.039 . S
O347 C351 1.251 1_565 S
O348 Zn329 2.025 1_554 S
O348 C351 1.254 . S
O349 C330 1.246 . S
O349 Zn337 2.034 1_556 S
O350 Zn329 2.024 . S
O350 C330 1.249 1_545 S
C351 O347 1.251 1_545 S
C351 O348 1.254 . S
H352 C325 0.949 . S
H353 C327 0.950 . S
H354 C334 0.949 . S
H355 C336 0.950 . S
C356 O372 1.251 . S
C356 O374 1.254 . S
N357 C358 1.333 . S
N357 C362 1.307 . S
N357 Zn363 2.020 . S
C358 N357 1.333 . S
C358 C359 1.379 . S
C358 H376 0.952 . S
C359 C358 1.379 . S
C359 C360 1.390 . S
C359 H386 0.949 . S
C360 C359 1.390 . S
C360 C361 1.357 . S
C361 C360 1.357 . S
C361 C362 1.370 . S
C361 H387 0.950 . S
C362 N357 1.307 . S
C362 C361 1.370 . S
C362 H380 0.948 . S
Zn363 N357 2.020 . S
Zn363 O372 2.039 . S
Zn363 O378 2.034 . S
Zn363 O382 2.025 . S
Zn363 O384 2.024 . S
C364 O383 1.246 . S
C364 O384 1.249 . S
N365 C366 1.307 . S
N365 C367 1.333 . S
N365 Zn371 2.020 . S
C366 N365 1.307 . S
C366 C370 1.370 . S
C366 H377 0.948 . S
C367 N365 1.333 . S
C367 C368 1.379 . S
C367 H375 0.952 . S
C368 C367 1.379 . S
C368 C369 1.390 . S
C368 H388 0.949 . S
C369 C368 1.390 . S
C369 C370 1.357 . S
C370 C366 1.370 . S
C370 C369 1.357 . S
C370 H389 0.950 . S
Zn371 N365 2.020 . S
Zn371 O374 2.025 . S
Zn371 O379 2.024 . S
Zn371 O381 2.039 . S
Zn371 O383 2.034 . S
O372 C356 1.251 . S
O372 Zn363 2.039 . S
C373 O378 1.246 . S
C373 O379 1.249 . S
O374 C356 1.254 . S
O374 Zn371 2.025 . S
H375 C367 0.952 . S
H376 C358 0.952 . S
H377 C366 0.948 . S
O378 Zn363 2.034 . S
O378 C373 1.246 . S
O379 Zn371 2.024 . S
O379 C373 1.249 . S
H380 C362 0.948 . S
O381 Zn371 2.039 . S
O381 C385 1.251 . S
O382 Zn363 2.025 . S
O382 C385 1.254 . S
O383 C364 1.246 . S
O383 Zn371 2.034 . S
O384 Zn363 2.024 . S
O384 C364 1.249 . S
C385 O381 1.251 . S
C385 O382 1.254 . S
H386 C359 0.949 . S
H387 C361 0.950 . S
H388 C368 0.949 . S
H389 C370 0.950 . S
C390 O406 1.251 1_556 S
C390 O408 1.254 . S
N391 C392 1.333 . S
N391 C396 1.307 . S
N391 Zn397 2.020 . S
C392 N391 1.333 . S
C392 C393 1.379 . S
C392 H410 0.952 . S
C393 C392 1.379 . S
C393 C394 1.390 . S
C393 H420 0.949 . S
C394 C393 1.390 . S
C394 C395 1.357 . S
C395 C394 1.357 . S
C395 C396 1.370 . S
C395 H421 0.950 . S
C396 N391 1.307 . S
C396 C395 1.370 . S
C396 H414 0.948 . S
Zn397 N391 2.020 . S
Zn397 O406 2.039 . S
Zn397 O412 2.034 1_655 S
Zn397 O416 2.025 1_655 S
Zn397 O418 2.024 . S
C398 O417 1.246 . S
C398 O418 1.249 1_556 S
N399 C400 1.307 . S
N399 C401 1.333 . S
N399 Zn405 2.020 . S
C400 N399 1.307 . S
C400 C404 1.370 . S
C400 H411 0.948 . S
C401 N399 1.333 . S
C401 C402 1.379 . S
C401 H409 0.952 . S
C402 C401 1.379 . S
C402 C403 1.390 . S
C402 H422 0.949 . S
C403 C402 1.390 . S
C403 C404 1.357 . S
C404 C400 1.370 . S
C404 C403 1.357 . S
C404 H423 0.950 . S
Zn405 N399 2.020 . S
Zn405 O408 2.025 1_455 S
Zn405 O413 2.024 . S
Zn405 O415 2.039 . S
Zn405 O417 2.034 1_455 S
O406 C390 1.251 1_554 S
O406 Zn397 2.039 . S
C407 O412 1.246 . S
C407 O413 1.249 1_554 S
O408 C390 1.254 . S
O408 Zn405 2.025 1_655 S
H409 C401 0.952 . S
H410 C392 0.952 . S
H411 C400 0.948 . S
O412 Zn397 2.034 1_455 S
O412 C407 1.246 . S
O413 Zn405 2.024 . S
O413 C407 1.249 1_556 S
H414 C396 0.948 . S
O415 Zn405 2.039 . S
O415 C419 1.251 1_556 S
O416 Zn397 2.025 1_455 S
O416 C419 1.254 . S
O417 C398 1.246 . S
O417 Zn405 2.034 1_655 S
O418 Zn397 2.024 . S
O418 C398 1.249 1_554 S
C419 O415 1.251 1_554 S
C419 O416 1.254 . S
H420 C393 0.949 . S
H421 C395 0.950 . S
H422 C402 0.949 . S
H423 C404 0.950 . S
H424 C442 0.951 . S
H425 C444 0.951 . S
H426 C446 0.950 . S
H427 C447 0.950 . S
H428 C449 0.950 . S
H429 C452 0.950 . S
H430 C453 0.950 . S
H431 C455 0.950 . S
H432 C456 0.950 1_455 S
H433 C457 0.951 . S
H434 C459 0.951 . S
H435 C461 0.950 . S
H436 C462 0.950 1_565 S
H437 C464 0.950 . S
H438 C467 0.950 . S
H439 C468 0.950 . S
H440 C470 0.950 . S
H441 C471 0.950 . S
C442 H424 0.951 . S
C442 C443 1.366 . S
C442 C444 1.388 . S
C443 C442 1.366 . S
C443 C447 1.385 . S
C444 H425 0.951 . S
C444 C442 1.388 . S
C444 C445 1.366 . S
C445 C444 1.366 . S
C445 C446 1.414 . S
C445 C448 1.499 . S
C446 H426 0.950 . S
C446 C445 1.414 . S
C446 C447 1.374 . S
C447 H427 0.950 . S
C447 C443 1.385 . S
C447 C446 1.374 . S
C448 C445 1.499 . S
C448 C449 1.373 . S
C448 C450 1.389 . S
C449 H428 0.950 . S
C449 C448 1.373 . S
C449 C465 1.377 . S
C450 C448 1.389 . S
C450 C451 1.524 . S
C450 C464 1.377 . S
C451 C450 1.524 . S
C451 C452 1.397 . S
C451 C456 1.363 1_455 S
C452 H429 0.950 . S
C452 C451 1.397 . S
C452 C453 1.334 1_455 S
C453 H430 0.950 . S
C453 C452 1.334 1_655 S
C453 C454 1.287 . S
C454 C453 1.287 . S
C454 C455 1.524 . S
C454 H473 0.913 . S
C455 H431 0.950 . S
C455 C454 1.524 . S
C455 C456 1.415 . S
C456 H432 0.950 1_655 S
C456 C451 1.363 1_655 S
C456 C455 1.415 . S
C457 H433 0.951 . S
C457 C458 1.366 . S
C457 C459 1.388 . S
C458 C457 1.366 . S
C458 C462 1.385 . S
C459 H434 0.951 . S
C459 C457 1.388 . S
C459 C460 1.366 . S
C460 C459 1.366 . S
C460 C461 1.414 . S
C460 C463 1.499 . S
C461 H435 0.950 . S
C461 C460 1.414 . S
C461 C462 1.374 . S
C462 H436 0.950 1_545 S
C462 C458 1.385 . S
C462 C461 1.374 . S
C463 C460 1.499 . S
C463 C464 1.373 . S
C463 C465 1.389 . S
C464 H437 0.950 . S
C464 C450 1.377 . S
C464 C463 1.373 . S
C465 C449 1.377 . S
C465 C463 1.389 . S
C465 C466 1.524 . S
C466 C465 1.524 . S
C466 C467 1.397 . S
C466 C471 1.363 . S
C467 H438 0.950 . S
C467 C466 1.397 . S
C467 C468 1.334 . S
C468 H439 0.950 . S
C468 C467 1.334 . S
C468 C469 1.287 . S
C469 C468 1.287 . S
C469 C470 1.524 . S
C469 H472 0.999 . S
C470 H440 0.950 . S
C470 C469 1.524 . S
C470 C471 1.415 . S
C471 H441 0.950 . S
C471 C466 1.363 . S
C471 C470 1.415 . S
H472 C469 0.999 . S
H473 C454 0.913 . S
H474 C492 0.951 . S
H475 C494 0.951 . S
H476 C496 0.950 . S
H477 C497 0.950 . S
H478 C499 0.950 . S
H479 C502 0.950 . S
H480 C503 0.974 . S
H481 C505 0.950 . S
H482 C506 0.950 . S
H483 C507 0.951 . S
H484 C509 0.951 . S
H485 C511 0.950 . S
H486 C512 0.950 . S
H487 C514 0.950 . S
H488 C517 0.950 . S
H489 C518 0.950 . S
H490 C520 0.950 . S
H491 C521 0.950 . S
C492 H474 0.951 . S
C492 C493 1.366 . S
C492 C494 1.388 . S
C493 C492 1.366 . S
C493 C497 1.385 . S
C494 H475 0.951 . S
C494 C492 1.388 . S
C494 C495 1.366 . S
C495 C494 1.366 . S
C495 C496 1.414 . S
C495 C498 1.499 . S
C496 H476 0.950 . S
C496 C495 1.414 . S
C496 C497 1.374 . S
C497 H477 0.950 . S
C497 C493 1.385 . S
C497 C496 1.374 . S
C498 C495 1.499 . S
C498 C499 1.373 . S
C498 C500 1.389 . S
C499 H478 0.950 . S
C499 C498 1.373 . S
C499 C515 1.377 . S
C500 C498 1.389 . S
C500 C501 1.524 . S
C500 C514 1.377 . S
C501 C500 1.524 . S
C501 C502 1.397 . S
C501 C506 1.363 . S
C502 H479 0.950 . S
C502 C501 1.397 . S
C502 C503 1.311 1_565 S
C503 H480 0.974 . S
C503 C502 1.311 1_545 S
C503 C504 1.287 . S
C504 C503 1.287 . S
C504 C505 1.524 1_545 S
C504 H523 0.913 . S
C505 H481 0.950 . S
C505 C504 1.524 1_565 S
C505 C506 1.415 . S
C506 H482 0.950 . S
C506 C501 1.363 . S
C506 C505 1.415 . S
C507 H483 0.951 . S
C507 C508 1.366 . S
C507 C509 1.388 . S
C508 C507 1.366 . S
C508 C512 1.385 . S
C509 H484 0.951 . S
C509 C507 1.388 . S
C509 C510 1.366 . S
C510 C509 1.366 . S
C510 C511 1.414 . S
C510 C513 1.499 . S
C511 H485 0.950 . S
C511 C510 1.414 . S
C511 C512 1.374 . S
C512 H486 0.950 . S
C512 C508 1.385 . S
C512 C511 1.374 . S
C513 C510 1.499 . S
C513 C514 1.373 . S
C513 C515 1.389 . S
C514 H487 0.950 . S
C514 C500 1.377 . S
C514 C513 1.373 . S
C515 C499 1.377 . S
C515 C513 1.389 . S
C515 C516 1.524 . S
C516 C515 1.524 . S
C516 C517 1.397 . S
C516 C521 1.363 . S
C517 H488 0.950 . S
C517 C516 1.397 . S
C517 C518 1.334 . S
C518 H489 0.950 . S
C518 C517 1.334 . S
C518 C519 1.287 . S
C519 C518 1.287 . S
C519 C520 1.524 . S
C519 H522 0.999 . S
C520 H490 0.950 . S
C520 C519 1.524 . S
C520 C521 1.415 . S
C521 H491 0.950 . S
C521 C516 1.363 . S
C521 C520 1.415 . S
H522 C519 0.999 . S
H523 C504 0.913 . S
H524 C542 0.951 . S
H525 C544 0.951 . S
H526 C546 0.950 . S
H527 C547 0.950 . S
H528 C549 0.950 . S
H529 C552 0.950 . S
H530 C553 0.950 . S
H531 C555 0.950 . S
H532 C556 0.950 . S
H533 C557 0.951 . S
H534 C559 0.951 . S
H535 C561 0.950 . S
H536 C562 0.950 . S
H537 C564 0.950 . S
H538 C567 0.950 . S
H539 C568 0.950 . S
H540 C570 0.950 . S
H541 C571 0.950 . S
C542 H524 0.951 . S
C542 C543 1.366 . S
C542 C544 1.388 . S
C543 C542 1.366 . S
C543 C547 1.385 . S
C544 H525 0.951 . S
C544 C542 1.388 . S
C544 C545 1.366 . S
C545 C544 1.366 . S
C545 C546 1.414 . S
C545 C548 1.499 . S
C546 H526 0.950 . S
C546 C545 1.414 . S
C546 C547 1.374 . S
C547 H527 0.950 . S
C547 C543 1.385 . S
C547 C546 1.374 . S
C548 C545 1.499 . S
C548 C549 1.373 . S
C548 C550 1.389 . S
C549 H528 0.950 . S
C549 C548 1.373 . S
C549 C565 1.377 . S
C550 C548 1.389 . S
C550 C551 1.524 . S
C550 C564 1.377 . S
C551 C550 1.524 . S
C551 C552 1.397 . S
C551 C556 1.363 . S
C552 H529 0.950 . S
C552 C551 1.397 . S
C552 C553 1.334 . S
C553 H530 0.950 . S
C553 C552 1.334 . S
C553 C554 1.287 . S
C554 C553 1.287 . S
C554 C555 1.524 . S
C554 H573 0.913 . S
C555 H531 0.950 . S
C555 C554 1.524 . S
C555 C556 1.415 . S
C556 H532 0.950 . S
C556 C551 1.363 . S
C556 C555 1.415 . S
C557 H533 0.951 . S
C557 C558 1.366 . S
C557 C559 1.388 . S
C558 C557 1.366 . S
C558 C562 1.385 . S
C559 H534 0.951 . S
C559 C557 1.388 . S
C559 C560 1.366 . S
C560 C559 1.366 . S
C560 C561 1.414 . S
C560 C563 1.499 . S
C561 H535 0.950 . S
C561 C560 1.414 . S
C561 C562 1.374 . S
C562 H536 0.950 . S
C562 C558 1.385 . S
C562 C561 1.374 . S
C563 C560 1.499 . S
C563 C564 1.373 . S
C563 C565 1.389 . S
C564 H537 0.950 . S
C564 C550 1.377 . S
C564 C563 1.373 . S
C565 C549 1.377 . S
C565 C563 1.389 . S
C565 C566 1.524 . S
C566 C565 1.524 . S
C566 C567 1.397 . S
C566 C571 1.363 . S
C567 H538 0.950 . S
C567 C566 1.397 . S
C567 C568 1.334 . S
C568 H539 0.950 . S
C568 C567 1.334 . S
C568 C569 1.287 . S
C569 C568 1.287 . S
C569 C570 1.524 . S
C569 H572 0.999 . S
C570 H540 0.950 . S
C570 C569 1.524 . S
C570 C571 1.415 . S
C571 H541 0.950 . S
C571 C566 1.363 . S
C571 C570 1.415 . S
H572 C569 0.999 . S
H573 C554 0.913 . S
H574 C592 0.951 . S
H575 C594 0.951 . S
H576 C596 0.950 . S
H577 C597 0.950 . S
H578 C599 0.950 . S
H579 C602 0.950 . S
H580 C603 0.950 . S
H581 C605 0.950 . S
H582 C606 0.950 . S
H583 C607 0.951 . S
H584 C609 0.951 . S
H585 C611 0.950 . S
H586 C612 0.950 . S
H587 C614 0.950 . S
H588 C617 0.950 . S
H589 C618 0.950 . S
H590 C620 0.950 . S
H591 C621 0.950 . S
C592 H574 0.951 . S
C592 C593 1.366 . S
C592 C594 1.388 . S
C593 C592 1.366 . S
C593 C597 1.385 . S
C594 H575 0.951 . S
C594 C592 1.388 . S
C594 C595 1.366 . S
C595 C594 1.366 . S
C595 C596 1.414 . S
C595 C598 1.499 . S
C596 H576 0.950 . S
C596 C595 1.414 . S
C596 C597 1.374 . S
C597 H577 0.950 . S
C597 C593 1.385 . S
C597 C596 1.374 . S
C598 C595 1.499 . S
C598 C599 1.373 . S
C598 C600 1.389 . S
C599 H578 0.950 . S
C599 C598 1.373 . S
C599 C615 1.377 . S
C600 C598 1.389 . S
C600 C601 1.524 . S
C600 C614 1.377 . S
C601 C600 1.524 . S
C601 C602 1.397 . S
C601 C606 1.363 . S
C602 H579 0.950 . S
C602 C601 1.397 . S
C602 C603 1.334 . S
C603 H580 0.950 . S
C603 C602 1.334 . S
C603 C604 1.287 . S
C604 C603 1.287 . S
C604 C605 1.524 . S
C604 H623 0.913 . S
C605 H581 0.950 . S
C605 C604 1.524 . S
C605 C606 1.415 . S
C606 H582 0.950 . S
C606 C601 1.363 . S
C606 C605 1.415 . S
C607 H583 0.951 . S
C607 C608 1.366 . S
C607 C609 1.388 . S
C608 C607 1.366 . S
C608 C612 1.385 . S
C609 H584 0.951 . S
C609 C607 1.388 . S
C609 C610 1.366 . S
C610 C609 1.366 . S
C610 C611 1.414 . S
C610 C613 1.499 . S
C611 H585 0.950 . S
C611 C610 1.414 . S
C611 C612 1.374 . S
C612 H586 0.950 . S
C612 C608 1.385 . S
C612 C611 1.374 . S
C613 C610 1.499 . S
C613 C614 1.373 . S
C613 C615 1.389 . S
C614 H587 0.950 . S
C614 C600 1.377 . S
C614 C613 1.373 . S
C615 C599 1.377 . S
C615 C613 1.389 . S
C615 C616 1.524 . S
C616 C615 1.524 . S
C616 C617 1.397 . S
C616 C621 1.363 . S
C617 H588 0.950 . S
C617 C616 1.397 . S
C617 C618 1.334 1_655 S
C618 H589 0.950 . S
C618 C617 1.334 1_455 S
C618 C619 1.287 . S
C619 C618 1.287 . S
C619 C620 1.524 1_455 S
C619 H622 0.999 . S
C620 H590 0.950 . S
C620 C619 1.524 1_655 S
C620 C621 1.415 . S
C621 H591 0.950 . S
C621 C616 1.363 . S
C621 C620 1.415 . S
H622 C619 0.999 . S
H623 C604 0.913 . S
H624 C642 0.951 . S
H625 C644 0.951 . S
H626 C646 0.950 . S
H627 C647 0.950 . S
H628 C649 0.950 . S
H629 C652 0.950 . S
H630 C653 0.950 . S
H631 C655 0.950 . S
H632 C656 0.950 . S
H633 C657 0.951 . S
H634 C659 0.951 . S
H635 C661 0.950 . S
H636 C662 0.938 1_556 S
H637 C664 0.950 . S
H638 C667 0.950 . S
H639 C668 0.950 . S
H640 C670 0.950 . S
H641 C671 0.950 . S
C642 H624 0.951 . S
C642 C643 1.366 . S
C642 C644 1.388 . S
C643 C642 1.366 . S
C643 C647 1.385 . S
C644 H625 0.951 . S
C644 C642 1.388 . S
C644 C645 1.366 . S
C645 C644 1.366 . S
C645 C646 1.414 . S
C645 C648 1.499 . S
C646 H626 0.950 . S
C646 C645 1.414 . S
C646 C647 1.374 . S
C647 H627 0.950 . S
C647 C643 1.385 . S
C647 C646 1.374 . S
C648 C645 1.499 . S
C648 C649 1.373 . S
C648 C650 1.389 . S
C649 H628 0.950 . S
C649 C648 1.373 . S
C649 C665 1.377 . S
C650 C648 1.389 . S
C650 C651 1.524 . S
C650 C664 1.377 . S
C651 C650 1.524 . S
C651 C652 1.397 . S
C651 C656 1.363 1_554 S
C652 H629 0.950 . S
C652 C651 1.397 . S
C652 C653 1.334 . S
C653 H630 0.950 . S
C653 C652 1.334 . S
C653 C654 1.287 1_554 S
C654 C653 1.287 1_556 S
C654 C655 1.524 . S
C654 H673 0.913 . S
C655 H631 0.950 . S
C655 C654 1.524 . S
C655 C656 1.415 . S
C656 H632 0.950 . S
C656 C651 1.363 1_556 S
C656 C655 1.415 . S
C657 H633 0.951 . S
C657 C658 1.366 . S
C657 C659 1.388 . S
C658 C657 1.366 . S
C658 C662 1.385 . S
C659 H634 0.951 . S
C659 C657 1.388 . S
C659 C660 1.366 . S
C660 C659 1.366 . S
C660 C661 1.414 . S
C660 C663 1.499 . S
C661 H635 0.950 . S
C661 C660 1.414 . S
C661 C662 1.374 . S
C662 H636 0.938 1_554 S
C662 C658 1.385 . S
C662 C661 1.374 . S
C663 C660 1.499 . S
C663 C664 1.373 . S
C663 C665 1.389 . S
C664 H637 0.950 . S
C664 C650 1.377 . S
C664 C663 1.373 . S
C665 C649 1.377 . S
C665 C663 1.389 . S
C665 C666 1.524 . S
C666 C665 1.524 . S
C666 C667 1.397 . S
C666 C671 1.363 . S
C667 H638 0.950 . S
C667 C666 1.397 . S
C667 C668 1.334 . S
C668 H639 0.950 . S
C668 C667 1.334 . S
C668 C669 1.287 . S
C669 C668 1.287 . S
C669 C670 1.524 . S
C669 H672 0.999 . S
C670 H640 0.950 . S
C670 C669 1.524 . S
C670 C671 1.415 . S
C671 H641 0.950 . S
C671 C666 1.363 . S
C671 C670 1.415 . S
H672 C669 0.999 . S
H673 C654 0.913 . S
H674 C692 0.951 . S
H675 C694 0.951 . S
H676 C696 0.950 . S
H677 C697 0.950 . S
H678 C699 0.950 . S
H679 C702 0.950 . S
H680 C703 0.950 . S
H681 C705 0.950 . S
H682 C706 0.950 . S
H683 C707 0.951 . S
H684 C709 0.951 . S
H685 C711 0.950 . S
H686 C712 0.950 1_545 S
H687 C714 0.950 . S
H688 C717 0.950 . S
H689 C718 0.950 . S
H690 C720 0.950 . S
H691 C721 0.950 . S
C692 H674 0.951 . S
C692 C693 1.366 . S
C692 C694 1.388 . S
C693 C692 1.366 . S
C693 C697 1.385 . S
C694 H675 0.951 . S
C694 C692 1.388 . S
C694 C695 1.366 . S
C695 C694 1.366 . S
C695 C696 1.414 . S
C695 C698 1.499 . S
C696 H676 0.950 . S
C696 C695 1.414 . S
C696 C697 1.374 . S
C697 H677 0.950 . S
C697 C693 1.385 . S
C697 C696 1.374 . S
C698 C695 1.499 . S
C698 C699 1.373 . S
C698 C700 1.389 . S
C699 H678 0.950 . S
C699 C698 1.373 . S
C699 C715 1.377 . S
C700 C698 1.389 . S
C700 C701 1.524 . S
C700 C714 1.377 . S
C701 C700 1.524 . S
C701 C702 1.397 . S
C701 C706 1.363 1_565 S
C702 H679 0.950 . S
C702 C701 1.397 . S
C702 C703 1.334 . S
C703 H680 0.950 . S
C703 C702 1.334 . S
C703 C704 1.287 1_565 S
C704 C703 1.287 1_545 S
C704 C705 1.524 . S
C704 H723 0.913 . S
C705 H681 0.950 . S
C705 C704 1.524 . S
C705 C706 1.415 . S
C706 H682 0.950 . S
C706 C701 1.363 1_545 S
C706 C705 1.415 . S
C707 H683 0.951 . S
C707 C708 1.366 . S
C707 C709 1.388 . S
C708 C707 1.366 . S
C708 C712 1.385 . S
C709 H684 0.951 . S
C709 C707 1.388 . S
C709 C710 1.366 . S
C710 C709 1.366 . S
C710 C711 1.414 . S
C710 C713 1.499 . S
C711 H685 0.950 . S
C711 C710 1.414 . S
C711 C712 1.374 . S
C712 H686 0.950 1_565 S
C712 C708 1.385 . S
C712 C711 1.374 . S
C713 C710 1.499 . S
C713 C714 1.373 . S
C713 C715 1.389 . S
C714 H687 0.950 . S
C714 C700 1.377 . S
C714 C713 1.373 . S
C715 C699 1.377 . S
C715 C713 1.389 . S
C715 C716 1.524 . S
C716 C715 1.524 . S
C716 C717 1.397 . S
C716 C721 1.363 . S
C717 H688 0.950 . S
C717 C716 1.397 . S
C717 C718 1.334 . S
C718 H689 0.950 . S
C718 C717 1.334 . S
C718 C719 1.287 . S
C719 C718 1.287 . S
C719 C720 1.524 . S
C719 H722 0.999 . S
C720 H690 0.950 . S
C720 C719 1.524 . S
C720 C721 1.415 . S
C721 H691 0.950 . S
C721 C716 1.363 . S
C721 C720 1.415 . S
H722 C719 0.999 . S
H723 C704 0.913 . S
H724 C742 0.951 . S
H725 C744 0.951 . S
H726 C746 0.950 . S
H727 C747 0.950 . S
H728 C749 0.950 . S
H729 C752 0.950 . S
H730 C753 0.950 . S
H731 C755 0.950 . S
H732 C756 0.950 . S
H733 C757 0.951 . S
H734 C759 0.951 . S
H735 C761 0.950 . S
H736 C762 0.950 1_554 S
H737 C764 0.950 . S
H738 C767 0.950 . S
H739 C768 0.950 . S
H740 C770 0.950 . S
H741 C771 0.950 . S
C742 H724 0.951 . S
C742 C743 1.366 . S
C742 C744 1.388 . S
C743 C742 1.366 . S
C743 C747 1.385 . S
C744 H725 0.951 . S
C744 C742 1.388 . S
C744 C745 1.366 . S
C745 C744 1.366 . S
C745 C746 1.414 . S
C745 C748 1.499 . S
C746 H726 0.950 . S
C746 C745 1.414 . S
C746 C747 1.374 . S
C747 H727 0.950 . S
C747 C743 1.385 . S
C747 C746 1.374 . S
C748 C745 1.499 . S
C748 C749 1.373 . S
C748 C750 1.389 . S
C749 H728 0.950 . S
C749 C748 1.373 . S
C749 C765 1.377 . S
C750 C748 1.389 . S
C750 C751 1.524 . S
C750 C764 1.377 . S
C751 C750 1.524 . S
C751 C752 1.397 . S
C751 C756 1.363 . S
C752 H729 0.950 . S
C752 C751 1.397 . S
C752 C753 1.334 . S
C753 H730 0.950 . S
C753 C752 1.334 . S
C753 C754 1.287 . S
C754 C753 1.287 . S
C754 C755 1.524 . S
C754 H773 0.913 . S
C755 H731 0.950 . S
C755 C754 1.524 . S
C755 C756 1.415 . S
C756 H732 0.950 . S
C756 C751 1.363 . S
C756 C755 1.415 . S
C757 H733 0.951 . S
C757 C758 1.366 . S
C757 C759 1.388 . S
C758 C757 1.366 . S
C758 C762 1.385 . S
C759 H734 0.951 . S
C759 C757 1.388 . S
C759 C760 1.366 . S
C760 C759 1.366 . S
C760 C761 1.414 . S
C760 C763 1.499 . S
C761 H735 0.950 . S
C761 C760 1.414 . S
C761 C762 1.374 . S
C762 H736 0.950 1_556 S
C762 C758 1.385 . S
C762 C761 1.374 . S
C763 C760 1.499 . S
C763 C764 1.373 . S
C763 C765 1.389 . S
C764 H737 0.950 . S
C764 C750 1.377 . S
C764 C763 1.373 . S
C765 C749 1.377 . S
C765 C763 1.389 . S
C765 C766 1.524 . S
C766 C765 1.524 . S
C766 C767 1.397 1_556 S
C766 C771 1.363 . S
C767 H738 0.950 . S
C767 C766 1.397 1_554 S
C767 C768 1.334 . S
C768 H739 0.950 . S
C768 C767 1.334 . S
C768 C769 1.287 . S
C769 C768 1.287 . S
C769 C770 1.524 1_554 S
C769 H772 0.999 . S
C770 H740 0.950 . S
C770 C769 1.524 1_556 S
C770 C771 1.415 . S
C771 H741 0.950 . S
C771 C766 1.363 . S
C771 C770 1.415 . S
H772 C769 0.999 . S
H773 C754 0.913 . S
H774 C792 0.951 . S
H775 C794 0.951 . S
H776 C796 0.950 . S
H777 C797 0.950 . S
H778 C799 0.950 . S
H779 C802 0.950 . S
H780 C803 0.950 . S
H781 C805 0.950 . S
H782 C806 0.950 . S
H783 C807 0.951 . S
H784 C809 0.951 . S
H785 C811 0.950 . S
H786 C812 0.950 . S
H787 C814 0.950 . S
H788 C817 0.950 . S
H789 C818 0.950 . S
H790 C820 0.950 . S
H791 C821 0.950 . S
C792 H774 0.951 . S
C792 C793 1.366 . S
C792 C794 1.388 . S
C793 C792 1.366 . S
C793 C797 1.385 . S
C794 H775 0.951 . S
C794 C792 1.388 . S
C794 C795 1.366 . S
C795 C794 1.366 . S
C795 C796 1.414 . S
C795 C798 1.499 . S
C796 H776 0.950 . S
C796 C795 1.414 . S
C796 C797 1.374 . S
C797 H777 0.950 . S
C797 C793 1.385 . S
C797 C796 1.374 . S
C798 C795 1.499 . S
C798 C799 1.373 . S
C798 C800 1.389 . S
C799 H778 0.950 . S
C799 C798 1.373 . S
C799 C815 1.377 . S
C800 C798 1.389 . S
C800 C801 1.524 . S
C800 C814 1.377 . S
C801 C800 1.524 . S
C801 C802 1.397 . S
C801 C806 1.363 . S
C802 H779 0.950 . S
C802 C801 1.397 . S
C802 C803 1.334 . S
C803 H780 0.950 . S
C803 C802 1.334 . S
C803 C804 1.287 . S
C804 C803 1.287 . S
C804 C805 1.524 . S
C804 H823 0.913 . S
C805 H781 0.950 . S
C805 C804 1.524 . S
C805 C806 1.415 . S
C806 H782 0.950 . S
C806 C801 1.363 . S
C806 C805 1.415 . S
C807 H783 0.951 . S
C807 C808 1.366 . S
C807 C809 1.388 . S
C808 C807 1.366 . S
C808 C812 1.385 . S
C809 H784 0.951 . S
C809 C807 1.388 . S
C809 C810 1.366 . S
C810 C809 1.366 . S
C810 C811 1.414 . S
C810 C813 1.499 . S
C811 H785 0.950 . S
C811 C810 1.414 . S
C811 C812 1.374 . S
C812 H786 0.950 . S
C812 C808 1.385 . S
C812 C811 1.374 . S
C813 C810 1.499 . S
C813 C814 1.373 . S
C813 C815 1.389 . S
C814 H787 0.950 . S
C814 C800 1.377 . S
C814 C813 1.373 . S
C815 C799 1.377 . S
C815 C813 1.389 . S
C815 C816 1.524 . S
C816 C815 1.524 . S
C816 C817 1.397 . S
C816 C821 1.363 . S
C817 H788 0.950 . S
C817 C816 1.397 . S
C817 C818 1.334 . S
C818 H789 0.950 . S
C818 C817 1.334 . S
C818 C819 1.287 . S
C819 C818 1.287 . S
C819 C820 1.524 . S
C819 H822 0.999 . S
C820 H790 0.950 . S
C820 C819 1.524 . S
C820 C821 1.415 . S
C821 H791 0.950 . S
C821 C816 1.363 . S
C821 C820 1.415 . S
H822 C819 0.999 . S
H823 C804 0.913 . S
H824 C842 0.951 . S
H825 C844 0.951 . S
H826 C846 0.950 . S
H827 C847 0.950 . S
H828 C849 0.950 . S
H829 C852 0.950 . S
H830 C853 0.950 . S
H831 C855 0.950 . S
H832 C856 0.950 . S
H833 C857 0.951 1_556 S
H834 C859 0.951 . S
H835 C861 0.950 . S
H836 C862 0.950 . S
H837 C864 0.950 . S
H838 C867 0.950 . S
H839 C868 0.950 . S
H840 C870 0.950 . S
H841 C871 0.950 . S
C842 H824 0.951 . S
C842 C843 1.366 . S
C842 C844 1.388 . S
C843 C842 1.366 . S
C843 C847 1.385 . S
C844 H825 0.951 . S
C844 C842 1.388 . S
C844 C845 1.366 . S
C845 C844 1.366 . S
C845 C846 1.414 . S
C845 C848 1.499 . S
C846 H826 0.950 . S
C846 C845 1.414 . S
C846 C847 1.374 . S
C847 H827 0.950 . S
C847 C843 1.385 . S
C847 C846 1.374 . S
C848 C845 1.499 . S
C848 C849 1.373 . S
C848 C850 1.389 . S
C849 H828 0.950 . S
C849 C848 1.373 . S
C849 C865 1.377 . S
C850 C848 1.389 . S
C850 C851 1.524 . S
C850 C864 1.377 . S
C851 C850 1.524 . S
C851 C852 1.397 . S
C851 C856 1.363 1_455 S
C852 H829 0.950 . S
C852 C851 1.397 . S
C852 C853 1.334 1_455 S
C853 H830 0.950 . S
C853 C852 1.334 1_655 S
C853 C854 1.287 . S
C854 C853 1.287 . S
C854 C855 1.524 . S
C854 H873 0.913 . S
C855 H831 0.950 . S
C855 C854 1.524 . S
C855 C856 1.415 . S
C856 H832 0.950 . S
C856 C851 1.363 1_655 S
C856 C855 1.415 . S
C857 H833 0.951 1_554 S
C857 C858 1.366 . S
C857 C859 1.388 . S
C858 C857 1.366 . S
C858 C862 1.385 . S
C859 H834 0.951 . S
C859 C857 1.388 . S
C859 C860 1.366 . S
C860 C859 1.366 . S
C860 C861 1.414 . S
C860 C863 1.499 . S
C861 H835 0.950 . S
C861 C860 1.414 . S
C861 C862 1.374 . S
C862 H836 0.950 . S
C862 C858 1.385 . S
C862 C861 1.374 . S
C863 C860 1.499 . S
C863 C864 1.373 . S
C863 C865 1.389 . S
C864 H837 0.950 . S
C864 C850 1.377 . S
C864 C863 1.373 . S
C865 C849 1.377 . S
C865 C863 1.389 . S
C865 C866 1.524 . S
C866 C865 1.524 . S
C866 C867 1.397 . S
C866 C871 1.363 . S
C867 H838 0.950 . S
C867 C866 1.397 . S
C867 C868 1.334 . S
C868 H839 0.950 . S
C868 C867 1.334 . S
C868 C869 1.287 . S
C869 C868 1.287 . S
C869 C870 1.524 . S
C869 H872 0.999 . S
C870 H840 0.950 . S
C870 C869 1.524 . S
C870 C871 1.415 . S
C871 H841 0.950 . S
C871 C866 1.363 . S
C871 C870 1.415 . S
H872 C869 0.999 . S
H873 C854 0.913 . S
H874 C892 0.951 . S
H875 C894 0.951 . S
H876 C896 0.950 . S
H877 C897 0.950 . S
H878 C899 0.950 . S
H879 C902 0.950 . S
H880 C903 0.950 . S
H881 C905 0.950 . S
H882 C906 0.950 . S
H883 C907 0.951 . S
H884 C909 0.951 . S
H885 C911 0.950 . S
H886 C912 0.950 . S
H887 C914 0.950 . S
H888 C917 0.950 . S
H889 C918 0.950 . S
H890 C920 0.950 . S
H891 C921 0.950 . S
C892 H874 0.951 . S
C892 C893 1.366 . S
C892 C894 1.388 . S
C893 C892 1.366 . S
C893 C897 1.385 . S
C894 H875 0.951 . S
C894 C892 1.388 . S
C894 C895 1.366 . S
C895 C894 1.366 . S
C895 C896 1.414 . S
C895 C898 1.499 . S
C896 H876 0.950 . S
C896 C895 1.414 . S
C896 C897 1.374 . S
C897 H877 0.950 . S
C897 C893 1.385 . S
C897 C896 1.374 . S
C898 C895 1.499 . S
C898 C899 1.373 . S
C898 C900 1.389 . S
C899 H878 0.950 . S
C899 C898 1.373 . S
C899 C915 1.377 . S
C900 C898 1.389 . S
C900 C901 1.524 . S
C900 C914 1.377 . S
C901 C900 1.524 . S
C901 C902 1.397 . S
C901 C906 1.363 . S
C902 H879 0.950 . S
C902 C901 1.397 . S
C902 C903 1.334 . S
C903 H880 0.950 . S
C903 C902 1.334 . S
C903 C904 1.287 . S
C904 C903 1.287 . S
C904 C905 1.524 . S
C904 H923 0.913 . S
C905 H881 0.950 . S
C905 C904 1.524 . S
C905 C906 1.415 . S
C906 H882 0.950 . S
C906 C901 1.363 . S
C906 C905 1.415 . S
C907 H883 0.951 . S
C907 C908 1.366 . S
C907 C909 1.388 . S
C908 C907 1.366 . S
C908 C912 1.385 . S
C909 H884 0.951 . S
C909 C907 1.388 . S
C909 C910 1.366 . S
C910 C909 1.366 . S
C910 C911 1.414 . S
C910 C913 1.499 . S
C911 H885 0.950 . S
C911 C910 1.414 . S
C911 C912 1.374 . S
C912 H886 0.950 . S
C912 C908 1.385 . S
C912 C911 1.374 . S
C913 C910 1.499 . S
C913 C914 1.373 . S
C913 C915 1.389 . S
C914 H887 0.950 . S
C914 C900 1.377 . S
C914 C913 1.373 . S
C915 C899 1.377 . S
C915 C913 1.389 . S
C915 C916 1.524 . S
C916 C915 1.524 . S
C916 C917 1.397 1_556 S
C916 C921 1.363 . S
C917 H888 0.950 . S
C917 C916 1.397 1_554 S
C917 C918 1.334 . S
C918 H889 0.950 . S
C918 C917 1.334 . S
C918 C919 1.287 . S
C919 C918 1.287 . S
C919 C920 1.524 . S
C919 H922 0.999 . S
C920 H890 0.950 . S
C920 C919 1.524 . S
C920 C921 1.415 1_554 S
C921 H891 0.950 . S
C921 C916 1.363 . S
C921 C920 1.415 1_556 S
H922 C919 0.999 . S
H923 C904 0.913 . S
H924 C942 0.951 . S
H925 C944 0.951 . S
H926 C946 0.950 . S
H927 C947 0.950 . S
H928 C949 0.950 . S
H929 C952 0.950 . S
H930 C953 0.950 . S
H931 C955 0.950 . S
H932 C956 0.950 . S
H933 C957 0.951 . S
H934 C959 0.951 . S
H935 C961 0.950 . S
H936 C962 0.980 . S
H937 C964 0.950 . S
H938 C967 0.950 . S
H939 C968 0.950 . S
H940 C970 0.950 . S
H941 C971 0.950 . S
C942 H924 0.951 . S
C942 C943 1.366 . S
C942 C944 1.388 . S
C943 C942 1.366 . S
C943 C947 1.385 . S
C944 H925 0.951 . S
C944 C942 1.388 . S
C944 C945 1.366 . S
C945 C944 1.366 . S
C945 C946 1.414 . S
C945 C948 1.499 . S
C946 H926 0.950 . S
C946 C945 1.414 . S
C946 C947 1.374 . S
C947 H927 0.950 . S
C947 C943 1.385 . S
C947 C946 1.374 . S
C948 C945 1.499 . S
C948 C949 1.373 . S
C948 C950 1.389 . S
C949 H928 0.950 . S
C949 C948 1.373 . S
C949 C965 1.377 . S
C950 C948 1.389 . S
C950 C951 1.524 . S
C950 C964 1.377 . S
C951 C950 1.524 . S
C951 C952 1.397 . S
C951 C956 1.363 . S
C952 H929 0.950 . S
C952 C951 1.397 . S
C952 C953 1.334 . S
C953 H930 0.950 . S
C953 C952 1.334 . S
C953 C954 1.287 . S
C954 C953 1.287 . S
C954 C955 1.524 . S
C954 H973 0.913 . S
C955 H931 0.950 . S
C955 C954 1.524 . S
C955 C956 1.415 . S
C956 H932 0.950 . S
C956 C951 1.363 . S
C956 C955 1.415 . S
C957 H933 0.951 . S
C957 C958 1.366 . S
C957 C959 1.388 . S
C958 C957 1.366 . S
C958 C962 1.385 . S
C959 H934 0.951 . S
C959 C957 1.388 . S
C959 C960 1.366 . S
C960 C959 1.366 . S
C960 C961 1.414 . S
C960 C963 1.499 . S
C961 H935 0.950 . S
C961 C960 1.414 . S
C961 C962 1.374 . S
C962 H936 0.980 . S
C962 C958 1.385 . S
C962 C961 1.374 . S
C963 C960 1.499 . S
C963 C964 1.373 . S
C963 C965 1.389 . S
C964 H937 0.950 . S
C964 C950 1.377 . S
C964 C963 1.373 . S
C965 C949 1.377 . S
C965 C963 1.389 . S
C965 C966 1.524 . S
C966 C965 1.524 . S
C966 C967 1.397 . S
C966 C971 1.363 . S
C967 H938 0.950 . S
C967 C966 1.397 . S
C967 C968 1.334 . S
C968 H939 0.950 . S
C968 C967 1.334 . S
C968 C969 1.287 . S
C969 C968 1.287 . S
C969 C970 1.524 . S
C969 H972 0.999 . S
C970 H940 0.950 . S
C970 C969 1.524 . S
C970 C971 1.415 . S
C971 H941 0.950 . S
C971 C966 1.363 . S
C971 C970 1.415 . S
H972 C969 0.999 . S
H973 C954 0.913 . S
H974 C992 0.951 . S
H975 C994 0.951 . S
H976 C996 0.950 . S
H977 C997 0.950 . S
H978 C999 0.950 . S
H979 C1002 0.950 . S
H980 C1003 0.950 . S
H981 C1005 0.950 . S
H982 C1006 0.950 . S
H983 C1007 0.951 . S
H984 C1009 0.951 . S
H985 C1011 0.950 . S
H986 C1012 0.950 . S
H987 C1014 0.950 . S
H988 C1017 0.950 . S
H989 C1018 0.950 . S
H990 C1020 0.950 . S
H991 C1021 0.950 . S
C992 H974 0.951 . S
C992 C993 1.366 . S
C992 C994 1.388 . S
C993 C992 1.366 . S
C993 C997 1.385 . S
C994 H975 0.951 . S
C994 C992 1.388 . S
C994 C995 1.366 . S
C995 C994 1.366 . S
C995 C996 1.414 . S
C995 C998 1.499 . S
C996 H976 0.950 . S
C996 C995 1.414 . S
C996 C997 1.374 . S
C997 H977 0.950 . S
C997 C993 1.385 . S
C997 C996 1.374 . S
C998 C995 1.499 . S
C998 C999 1.373 . S
C998 C1000 1.389 . S
C999 H978 0.950 . S
C999 C998 1.373 . S
C999 C1015 1.377 . S
C1000 C998 1.389 . S
C1000 C1001 1.524 . S
C1000 C1014 1.377 . S
C1001 C1000 1.524 . S
C1001 C1002 1.397 . S
C1001 C1006 1.363 . S
C1002 H979 0.950 . S
C1002 C1001 1.397 . S
C1002 C1003 1.334 . S
C1003 H980 0.950 . S
C1003 C1002 1.334 . S
C1003 C1004 1.287 . S
C1004 C1003 1.287 . S
C1004 C1005 1.524 . S
C1004 H1023 0.913 . S
C1005 H981 0.950 . S
C1005 C1004 1.524 . S
C1005 C1006 1.415 . S
C1006 H982 0.950 . S
C1006 C1001 1.363 . S
C1006 C1005 1.415 . S
C1007 H983 0.951 . S
C1007 C1008 1.366 . S
C1007 C1009 1.388 . S
C1008 C1007 1.366 . S
C1008 C1012 1.385 . S
C1009 H984 0.951 . S
C1009 C1007 1.388 . S
C1009 C1010 1.366 . S
C1010 C1009 1.366 . S
C1010 C1011 1.414 . S
C1010 C1013 1.499 . S
C1011 H985 0.950 . S
C1011 C1010 1.414 . S
C1011 C1012 1.374 . S
C1012 H986 0.950 . S
C1012 C1008 1.385 . S
C1012 C1011 1.374 . S
C1013 C1010 1.499 . S
C1013 C1014 1.373 . S
C1013 C1015 1.389 . S
C1014 H987 0.950 . S
C1014 C1000 1.377 . S
C1014 C1013 1.373 . S
C1015 C999 1.377 . S
C1015 C1013 1.389 . S
C1015 C1016 1.524 . S
C1016 C1015 1.524 . S
C1016 C1017 1.397 . S
C1016 C1021 1.363 . S
C1017 H988 0.950 . S
C1017 C1016 1.397 . S
C1017 C1018 1.334 . S
C1018 H989 0.950 . S
C1018 C1017 1.334 . S
C1018 C1019 1.287 . S
C1019 C1018 1.287 . S
C1019 C1020 1.524 . S
C1019 H1022 0.999 . S
C1020 H990 0.950 . S
C1020 C1019 1.524 . S
C1020 C1021 1.415 . S
C1021 H991 0.950 . S
C1021 C1016 1.363 . S
C1021 C1020 1.415 . S
H1022 C1019 0.999 . S
H1023 C1004 0.913 . S
H1024 C1042 0.951 . S
H1025 C1044 0.951 . S
H1026 C1046 0.950 . S
H1027 C1047 0.950 . S
H1028 C1049 0.950 . S
H1029 C1052 0.950 . S
H1030 C1053 0.950 . S
H1031 C1055 0.950 . S
H1032 C1056 0.950 . S
H1033 C1057 0.951 1_455 S
H1034 C1059 0.985 . S
H1035 C1061 0.950 . S
H1036 C1062 0.950 . S
H1037 C1064 0.950 . S
H1038 C1067 0.950 . S
H1039 C1068 0.950 . S
H1040 C1070 0.950 . S
H1041 C1071 0.950 . S
C1042 H1024 0.951 . S
C1042 C1043 1.366 . S
C1042 C1044 1.388 . S
C1043 C1042 1.366 . S
C1043 C1047 1.385 . S
C1044 H1025 0.951 . S
C1044 C1042 1.388 . S
C1044 C1045 1.366 . S
C1045 C1044 1.366 . S
C1045 C1046 1.414 . S
C1045 C1048 1.499 . S
C1046 H1026 0.950 . S
C1046 C1045 1.414 . S
C1046 C1047 1.374 . S
C1047 H1027 0.950 . S
C1047 C1043 1.385 . S
C1047 C1046 1.374 . S
C1048 C1045 1.499 . S
C1048 C1049 1.373 . S
C1048 C1050 1.389 . S
C1049 H1028 0.950 . S
C1049 C1048 1.373 . S
C1049 C1065 1.377 . S
C1050 C1048 1.389 . S
C1050 C1051 1.524 . S
C1050 C1064 1.377 . S
C1051 C1050 1.524 . S
C1051 C1052 1.397 . S
C1051 C1056 1.363 . S
C1052 H1029 0.950 . S
C1052 C1051 1.397 . S
C1052 C1053 1.334 . S
C1053 H1030 0.950 . S
C1053 C1052 1.334 . S
C1053 C1054 1.287 . S
C1054 C1053 1.287 . S
C1054 C1055 1.524 . S
C1054 H1073 0.913 . S
C1055 H1031 0.950 . S
C1055 C1054 1.524 . S
C1055 C1056 1.415 . S
C1056 H1032 0.950 . S
C1056 C1051 1.363 . S
C1056 C1055 1.415 . S
C1057 H1033 0.951 1_655 S
C1057 C1058 1.366 . S
C1057 C1059 1.388 . S
C1058 C1057 1.366 . S
C1058 C1062 1.385 . S
C1059 H1034 0.985 . S
C1059 C1057 1.388 . S
C1059 C1060 1.366 . S
C1060 C1059 1.366 . S
C1060 C1061 1.414 . S
C1060 C1063 1.499 . S
C1061 H1035 0.950 . S
C1061 C1060 1.414 . S
C1061 C1062 1.374 . S
C1062 H1036 0.950 . S
C1062 C1058 1.385 . S
C1062 C1061 1.374 . S
C1063 C1060 1.499 . S
C1063 C1064 1.373 . S
C1063 C1065 1.389 . S
C1064 H1037 0.950 . S
C1064 C1050 1.377 . S
C1064 C1063 1.373 . S
C1065 C1049 1.377 . S
C1065 C1063 1.389 . S
C1065 C1066 1.524 . S
C1066 C1065 1.524 . S
C1066 C1067 1.397 1_565 S
C1066 C1071 1.363 1_655 S
C1067 H1038 0.950 . S
C1067 C1066 1.397 1_545 S
C1067 C1068 1.334 1_655 S
C1068 H1039 0.950 . S
C1068 C1067 1.334 1_455 S
C1068 C1069 1.287 . S
C1069 C1068 1.287 . S
C1069 C1070 1.524 1_545 S
C1069 H1072 0.999 . S
C1070 H1040 0.950 . S
C1070 C1069 1.524 1_565 S
C1070 C1071 1.415 . S
C1071 H1041 0.950 . S
C1071 C1066 1.363 1_455 S
C1071 C1070 1.415 . S
H1072 C1069 0.999 . S
H1073 C1054 0.913 . S
H1074 C1092 0.951 . S
H1075 C1094 0.951 . S
H1076 C1096 0.950 . S
H1077 C1097 0.950 . S
H1078 C1099 0.950 . S
H1079 C1102 0.950 . S
H1080 C1103 0.950 . S
H1081 C1105 0.950 . S
H1082 C1106 0.950 . S
H1083 C1107 0.951 . S
H1084 C1109 0.951 . S
H1085 C1111 0.950 . S
H1086 C1112 0.950 . S
H1087 C1114 0.950 . S
H1088 C1117 0.950 . S
H1089 C1118 0.950 . S
H1090 C1120 0.950 . S
H1091 C1121 0.950 . S
C1092 H1074 0.951 . S
C1092 C1093 1.366 . S
C1092 C1094 1.388 . S
C1093 C1092 1.366 . S
C1093 C1097 1.385 . S
C1094 H1075 0.951 . S
C1094 C1092 1.388 . S
C1094 C1095 1.366 . S
C1095 C1094 1.366 . S
C1095 C1096 1.414 . S
C1095 C1098 1.499 . S
C1096 H1076 0.950 . S
C1096 C1095 1.414 . S
C1096 C1097 1.374 . S
C1097 H1077 0.950 . S
C1097 C1093 1.385 . S
C1097 C1096 1.374 . S
C1098 C1095 1.499 . S
C1098 C1099 1.373 . S
C1098 C1100 1.389 . S
C1099 H1078 0.950 . S
C1099 C1098 1.373 . S
C1099 C1115 1.377 . S
C1100 C1098 1.389 . S
C1100 C1101 1.524 . S
C1100 C1114 1.377 . S
C1101 C1100 1.524 . S
C1101 C1102 1.397 . S
C1101 C1106 1.363 . S
C1102 H1079 0.950 . S
C1102 C1101 1.397 . S
C1102 C1103 1.334 1_545 S
C1103 H1080 0.950 . S
C1103 C1102 1.334 1_565 S
C1103 C1104 1.287 . S
C1104 C1103 1.287 . S
C1104 C1105 1.524 1_565 S
C1104 H1123 0.913 . S
C1105 H1081 0.950 . S
C1105 C1104 1.524 1_545 S
C1105 C1106 1.415 . S
C1106 H1082 0.950 . S
C1106 C1101 1.363 . S
C1106 C1105 1.415 . S
C1107 H1083 0.951 . S
C1107 C1108 1.366 . S
C1107 C1109 1.388 . S
C1108 C1107 1.366 . S
C1108 C1112 1.385 . S
C1109 H1084 0.951 . S
C1109 C1107 1.388 . S
C1109 C1110 1.366 . S
C1110 C1109 1.366 . S
C1110 C1111 1.414 . S
C1110 C1113 1.499 . S
C1111 H1085 0.950 . S
C1111 C1110 1.414 . S
C1111 C1112 1.374 . S
C1112 H1086 0.950 . S
C1112 C1108 1.385 . S
C1112 C1111 1.374 . S
C1113 C1110 1.499 . S
C1113 C1114 1.373 . S
C1113 C1115 1.389 . S
C1114 H1087 0.950 . S
C1114 C1100 1.377 . S
C1114 C1113 1.373 . S
C1115 C1099 1.377 . S
C1115 C1113 1.389 . S
C1115 C1116 1.524 . S
C1116 C1115 1.524 . S
C1116 C1117 1.397 . S
C1116 C1121 1.363 . S
C1117 H1088 0.950 . S
C1117 C1116 1.397 . S
C1117 C1118 1.334 . S
C1118 H1089 0.950 . S
C1118 C1117 1.334 . S
C1118 C1119 1.287 . S
C1119 C1118 1.287 . S
C1119 C1120 1.524 . S
C1119 H1122 0.999 . S
C1120 H1090 0.950 . S
C1120 C1119 1.524 . S
C1120 C1121 1.415 . S
C1121 H1091 0.950 . S
C1121 C1116 1.363 . S
C1121 C1120 1.415 . S
H1122 C1119 0.999 . S
H1123 C1104 0.913 . S
H1124 C1142 0.951 . S
H1125 C1144 0.951 . S
H1126 C1146 0.950 . S
H1127 C1147 0.950 . S
H1128 C1149 0.950 . S
H1129 C1152 0.950 . S
H1130 C1153 0.950 . S
H1131 C1155 0.950 . S
H1132 C1156 0.950 . S
H1133 C1157 0.951 . S
H1134 C1159 0.951 . S
H1135 C1161 0.950 . S
H1136 C1162 0.950 . S
H1137 C1164 0.950 . S
H1138 C1167 0.950 . S
H1139 C1168 0.950 . S
H1140 C1170 0.950 . S
H1141 C1171 0.950 . S
C1142 H1124 0.951 . S
C1142 C1143 1.366 . S
C1142 C1144 1.388 . S
C1143 C1142 1.366 . S
C1143 C1147 1.385 . S
C1144 H1125 0.951 . S
C1144 C1142 1.388 . S
C1144 C1145 1.366 . S
C1145 C1144 1.366 . S
C1145 C1146 1.414 . S
C1145 C1148 1.499 . S
C1146 H1126 0.950 . S
C1146 C1145 1.414 . S
C1146 C1147 1.374 . S
C1147 H1127 0.950 . S
C1147 C1143 1.385 . S
C1147 C1146 1.374 . S
C1148 C1145 1.499 . S
C1148 C1149 1.373 . S
C1148 C1150 1.389 . S
C1149 H1128 0.950 . S
C1149 C1148 1.373 . S
C1149 C1165 1.377 . S
C1150 C1148 1.389 . S
C1150 C1151 1.524 . S
C1150 C1164 1.377 . S
C1151 C1150 1.524 . S
C1151 C1152 1.397 . S
C1151 C1156 1.363 . S
C1152 H1129 0.950 . S
C1152 C1151 1.397 . S
C1152 C1153 1.334 . S
C1153 H1130 0.950 . S
C1153 C1152 1.334 . S
C1153 C1154 1.287 . S
C1154 C1153 1.287 . S
C1154 C1155 1.524 . S
C1154 H1173 0.913 . S
C1155 H1131 0.950 . S
C1155 C1154 1.524 . S
C1155 C1156 1.415 . S
C1156 H1132 0.950 . S
C1156 C1151 1.363 . S
C1156 C1155 1.415 . S
C1157 H1133 0.951 . S
C1157 C1158 1.366 . S
C1157 C1159 1.388 . S
C1158 C1157 1.366 . S
C1158 C1162 1.385 . S
C1159 H1134 0.951 . S
C1159 C1157 1.388 . S
C1159 C1160 1.366 . S
C1160 C1159 1.366 . S
C1160 C1161 1.414 . S
C1160 C1163 1.499 . S
C1161 H1135 0.950 . S
C1161 C1160 1.414 . S
C1161 C1162 1.374 . S
C1162 H1136 0.950 . S
C1162 C1158 1.385 . S
C1162 C1161 1.374 . S
C1163 C1160 1.499 . S
C1163 C1164 1.373 . S
C1163 C1165 1.389 . S
C1164 H1137 0.950 . S
C1164 C1150 1.377 . S
C1164 C1163 1.373 . S
C1165 C1149 1.377 . S
C1165 C1163 1.389 . S
C1165 C1166 1.524 . S
C1166 C1165 1.524 . S
C1166 C1167 1.397 . S
C1166 C1171 1.363 . S
C1167 H1138 0.950 . S
C1167 C1166 1.397 . S
C1167 C1168 1.334 . S
C1168 H1139 0.950 . S
C1168 C1167 1.334 . S
C1168 C1169 1.287 . S
C1169 C1168 1.287 . S
C1169 C1170 1.524 . S
C1169 H1172 0.999 . S
C1170 H1140 0.950 . S
C1170 C1169 1.524 . S
C1170 C1171 1.415 . S
C1171 H1141 0.950 . S
C1171 C1166 1.363 . S
C1171 C1170 1.415 . S
H1172 C1169 0.999 . S
H1173 C1154 0.913 . S
H1174 C1192 0.951 . S
H1175 C1194 0.951 . S
H1176 C1196 0.950 . S
H1177 C1197 0.950 . S
H1178 C1199 0.950 . S
H1179 C1202 0.950 . S
H1180 C1203 0.950 . S
H1181 C1205 0.950 . S
H1182 C1206 0.950 . S
H1183 C1207 0.951 . S
H1184 C1209 0.951 . S
H1185 C1211 0.950 . S
H1186 C1212 0.950 . S
H1187 C1214 0.950 . S
H1188 C1217 0.950 . S
H1189 C1218 0.950 . S
H1190 C1220 0.950 . S
H1191 C1221 0.950 . S
C1192 H1174 0.951 . S
C1192 C1193 1.366 . S
C1192 C1194 1.388 . S
C1193 C1192 1.366 . S
C1193 C1197 1.385 . S
C1194 H1175 0.951 . S
C1194 C1192 1.388 . S
C1194 C1195 1.366 . S
C1195 C1194 1.366 . S
C1195 C1196 1.414 . S
C1195 C1198 1.499 . S
C1196 H1176 0.950 . S
C1196 C1195 1.414 . S
C1196 C1197 1.374 . S
C1197 H1177 0.950 . S
C1197 C1193 1.385 . S
C1197 C1196 1.374 . S
C1198 C1195 1.499 . S
C1198 C1199 1.373 . S
C1198 C1200 1.389 . S
C1199 H1178 0.950 . S
C1199 C1198 1.373 . S
C1199 C1215 1.377 . S
C1200 C1198 1.389 . S
C1200 C1201 1.524 . S
C1200 C1214 1.377 . S
C1201 C1200 1.524 . S
C1201 C1202 1.397 . S
C1201 C1206 1.363 . S
C1202 H1179 0.950 . S
C1202 C1201 1.397 . S
C1202 C1203 1.334 . S
C1203 H1180 0.950 . S
C1203 C1202 1.334 . S
C1203 C1204 1.287 . S
C1204 C1203 1.287 . S
C1204 C1205 1.524 . S
C1204 H1223 0.913 . S
C1205 H1181 0.950 . S
C1205 C1204 1.524 . S
C1205 C1206 1.415 . S
C1206 H1182 0.950 . S
C1206 C1201 1.363 . S
C1206 C1205 1.415 . S
C1207 H1183 0.951 . S
C1207 C1208 1.366 . S
C1207 C1209 1.388 . S
C1208 C1207 1.366 . S
C1208 C1212 1.385 . S
C1209 H1184 0.951 . S
C1209 C1207 1.388 . S
C1209 C1210 1.366 . S
C1210 C1209 1.366 . S
C1210 C1211 1.414 . S
C1210 C1213 1.499 . S
C1211 H1185 0.950 . S
C1211 C1210 1.414 . S
C1211 C1212 1.374 . S
C1212 H1186 0.950 . S
C1212 C1208 1.385 . S
C1212 C1211 1.374 . S
C1213 C1210 1.499 . S
C1213 C1214 1.373 . S
C1213 C1215 1.389 . S
C1214 H1187 0.950 . S
C1214 C1200 1.377 . S
C1214 C1213 1.373 . S
C1215 C1199 1.377 . S
C1215 C1213 1.389 . S
C1215 C1216 1.524 . S
C1216 C1215 1.524 . S
C1216 C1217 1.397 . S
C1216 C1221 1.363 . S
C1217 H1188 0.950 . S
C1217 C1216 1.397 . S
C1217 C1218 1.334 . S
C1218 H1189 0.950 . S
C1218 C1217 1.334 . S
C1218 C1219 1.287 . S
C1219 C1218 1.287 . S
C1219 C1220 1.524 . S
C1219 H1222 0.999 . S
C1220 H1190 0.950 . S
C1220 C1219 1.524 . S
C1220 C1221 1.415 . S
C1221 H1191 0.950 . S
C1221 C1216 1.363 . S
C1221 C1220 1.415 . S
H1222 C1219 0.999 . S
H1223 C1204 0.913 . S
H1224 C1242 0.951 . S
H1225 C1244 0.951 . S
H1226 C1246 0.950 . S
H1227 C1247 0.950 . S
H1228 C1249 0.950 . S
H1229 C1252 0.950 . S
H1230 C1253 0.950 . S
H1231 C1255 0.950 . S
H1232 C1256 0.950 . S
H1233 C1257 0.951 1_554 S
H1234 C1259 0.951 . S
H1235 C1261 0.950 . S
H1236 C1262 0.950 . S
H1237 C1264 0.950 . S
H1238 C1267 0.950 . S
H1239 C1268 0.950 . S
H1240 C1270 0.950 . S
H1241 C1271 0.950 . S
C1242 H1224 0.951 . S
C1242 C1243 1.366 . S
C1242 C1244 1.388 . S
C1243 C1242 1.366 . S
C1243 C1247 1.385 . S
C1244 H1225 0.951 . S
C1244 C1242 1.388 . S
C1244 C1245 1.366 . S
C1245 C1244 1.366 . S
C1245 C1246 1.414 . S
C1245 C1248 1.499 . S
C1246 H1226 0.950 . S
C1246 C1245 1.414 . S
C1246 C1247 1.374 . S
C1247 H1227 0.950 . S
C1247 C1243 1.385 . S
C1247 C1246 1.374 . S
C1248 C1245 1.499 . S
C1248 C1249 1.373 . S
C1248 C1250 1.389 . S
C1249 H1228 0.950 . S
C1249 C1248 1.373 . S
C1249 C1265 1.377 . S
C1250 C1248 1.389 . S
C1250 C1251 1.524 . S
C1250 C1264 1.377 . S
C1251 C1250 1.524 . S
C1251 C1252 1.397 . S
C1251 C1256 1.363 . S
C1252 H1229 0.950 . S
C1252 C1251 1.397 . S
C1252 C1253 1.334 1_565 S
C1253 H1230 0.950 . S
C1253 C1252 1.334 1_545 S
C1253 C1254 1.287 . S
C1254 C1253 1.287 . S
C1254 C1255 1.524 . S
C1254 H1273 0.913 . S
C1255 H1231 0.950 . S
C1255 C1254 1.524 . S
C1255 C1256 1.415 1_545 S
C1256 H1232 0.950 . S
C1256 C1251 1.363 . S
C1256 C1255 1.415 1_565 S
C1257 H1233 0.951 1_556 S
C1257 C1258 1.366 . S
C1257 C1259 1.388 . S
C1258 C1257 1.366 . S
C1258 C1262 1.385 . S
C1259 H1234 0.951 . S
C1259 C1257 1.388 . S
C1259 C1260 1.366 . S
C1260 C1259 1.366 . S
C1260 C1261 1.414 . S
C1260 C1263 1.499 . S
C1261 H1235 0.950 . S
C1261 C1260 1.414 . S
C1261 C1262 1.374 . S
C1262 H1236 0.950 . S
C1262 C1258 1.385 . S
C1262 C1261 1.374 . S
C1263 C1260 1.499 . S
C1263 C1264 1.373 . S
C1263 C1265 1.389 . S
C1264 H1237 0.950 . S
C1264 C1250 1.377 . S
C1264 C1263 1.373 . S
C1265 C1249 1.377 . S
C1265 C1263 1.389 . S
C1265 C1266 1.524 . S
C1266 C1265 1.524 . S
C1266 C1267 1.397 . S
C1266 C1271 1.363 1_556 S
C1267 H1238 0.950 . S
C1267 C1266 1.397 . S
C1267 C1268 1.334 . S
C1268 H1239 0.950 . S
C1268 C1267 1.334 . S
C1268 C1269 1.287 1_556 S
C1269 C1268 1.287 1_554 S
C1269 C1270 1.524 . S
C1269 H1272 0.999 . S
C1270 H1240 0.950 . S
C1270 C1269 1.524 . S
C1270 C1271 1.415 . S
C1271 H1241 0.950 . S
C1271 C1266 1.363 1_554 S
C1271 C1270 1.415 . S
H1272 C1269 0.999 . S
H1273 C1254 0.913 . S
H1274 C1292 0.951 . S
H1275 C1294 0.951 . S
H1276 C1296 0.950 . S
H1277 C1297 0.950 . S
H1278 C1299 0.950 . S
H1279 C1302 0.950 . S
H1280 C1303 0.950 . S
H1281 C1305 0.950 . S
H1282 C1306 0.950 . S
H1283 C1307 0.951 . S
H1284 C1309 0.951 . S
H1285 C1311 0.950 . S
H1286 C1312 0.950 . S
H1287 C1314 0.950 . S
H1288 C1317 0.962 . S
H1289 C1318 0.950 . S
H1290 C1320 0.950 . S
H1291 C1321 0.950 . S
C1292 H1274 0.951 . S
C1292 C1293 1.366 . S
C1292 C1294 1.388 . S
C1293 C1292 1.366 . S
C1293 C1297 1.385 . S
C1294 H1275 0.951 . S
C1294 C1292 1.388 . S
C1294 C1295 1.366 . S
C1295 C1294 1.366 . S
C1295 C1296 1.414 . S
C1295 C1298 1.499 . S
C1296 H1276 0.950 . S
C1296 C1295 1.414 . S
C1296 C1297 1.374 . S
C1297 H1277 0.950 . S
C1297 C1293 1.385 . S
C1297 C1296 1.374 . S
C1298 C1295 1.499 . S
C1298 C1299 1.373 . S
C1298 C1300 1.389 . S
C1299 H1278 0.950 . S
C1299 C1298 1.373 . S
C1299 C1315 1.377 . S
C1300 C1298 1.389 . S
C1300 C1301 1.524 . S
C1300 C1314 1.377 . S
C1301 C1300 1.524 . S
C1301 C1302 1.397 . S
C1301 C1306 1.363 . S
C1302 H1279 0.950 . S
C1302 C1301 1.397 . S
C1302 C1303 1.334 . S
C1303 H1280 0.950 . S
C1303 C1302 1.334 . S
C1303 C1304 1.287 . S
C1304 C1303 1.287 . S
C1304 C1305 1.524 . S
C1304 H1323 0.913 . S
C1305 H1281 0.950 . S
C1305 C1304 1.524 . S
C1305 C1306 1.415 . S
C1306 H1282 0.950 . S
C1306 C1301 1.363 . S
C1306 C1305 1.415 . S
C1307 H1283 0.951 . S
C1307 C1308 1.366 . S
C1307 C1309 1.388 . S
C1308 C1307 1.366 . S
C1308 C1312 1.385 . S
C1309 H1284 0.951 . S
C1309 C1307 1.388 . S
C1309 C1310 1.366 . S
C1310 C1309 1.366 . S
C1310 C1311 1.414 . S
C1310 C1313 1.499 . S
C1311 H1285 0.950 . S
C1311 C1310 1.414 . S
C1311 C1312 1.374 . S
C1312 H1286 0.950 . S
C1312 C1308 1.385 . S
C1312 C1311 1.374 . S
C1313 C1310 1.499 . S
C1313 C1314 1.373 . S
C1313 C1315 1.389 . S
C1314 H1287 0.950 . S
C1314 C1300 1.377 . S
C1314 C1313 1.373 . S
C1315 C1299 1.377 . S
C1315 C1313 1.389 . S
C1315 C1316 1.524 . S
C1316 C1315 1.524 . S
C1316 C1317 1.397 . S
C1316 C1321 1.363 . S
C1317 H1288 0.962 . S
C1317 C1316 1.397 . S
C1317 C1318 1.334 1_545 S
C1318 H1289 0.950 . S
C1318 C1317 1.334 1_565 S
C1318 C1319 1.287 1_565 S
C1319 C1318 1.287 1_545 S
C1319 C1320 1.524 . S
C1319 H1322 0.999 1_545 S
C1320 H1290 0.950 . S
C1320 C1319 1.524 . S
C1320 C1321 1.415 . S
C1321 H1291 0.950 . S
C1321 C1316 1.363 . S
C1321 C1320 1.415 . S
H1322 C1319 0.999 1_565 S
H1323 C1304 0.913 . S
H1324 C1342 0.951 . S
H1325 C1344 0.951 . S
H1326 C1346 0.950 . S
H1327 C1347 0.950 . S
H1328 C1349 0.950 . S
H1329 C1352 0.950 . S
H1330 C1353 0.950 . S
H1331 C1355 0.950 . S
H1332 C1356 0.950 . S
H1333 C1357 0.951 . S
H1334 C1359 0.951 . S
H1335 C1361 0.950 . S
H1336 C1362 0.950 . S
H1337 C1364 0.950 . S
H1338 C1367 0.950 . S
H1339 C1368 0.950 . S
H1340 C1370 0.950 . S
H1341 C1371 0.950 . S
C1342 H1324 0.951 . S
C1342 C1343 1.366 . S
C1342 C1344 1.388 . S
C1343 C1342 1.366 . S
C1343 C1347 1.385 . S
C1344 H1325 0.951 . S
C1344 C1342 1.388 . S
C1344 C1345 1.366 . S
C1345 C1344 1.366 . S
C1345 C1346 1.414 . S
C1345 C1348 1.499 . S
C1346 H1326 0.950 . S
C1346 C1345 1.414 . S
C1346 C1347 1.374 . S
C1347 H1327 0.950 . S
C1347 C1343 1.385 . S
C1347 C1346 1.374 . S
C1348 C1345 1.499 . S
C1348 C1349 1.373 . S
C1348 C1350 1.389 . S
C1349 H1328 0.950 . S
C1349 C1348 1.373 . S
C1349 C1365 1.377 . S
C1350 C1348 1.389 . S
C1350 C1351 1.524 . S
C1350 C1364 1.377 . S
C1351 C1350 1.524 . S
C1351 C1352 1.397 . S
C1351 C1356 1.363 . S
C1352 H1329 0.950 . S
C1352 C1351 1.397 . S
C1352 C1353 1.334 . S
C1353 H1330 0.950 . S
C1353 C1352 1.334 . S
C1353 C1354 1.287 . S
C1354 C1353 1.287 . S
C1354 C1355 1.524 . S
C1354 H1373 0.913 . S
C1355 H1331 0.950 . S
C1355 C1354 1.524 . S
C1355 C1356 1.415 . S
C1356 H1332 0.950 . S
C1356 C1351 1.363 . S
C1356 C1355 1.415 . S
C1357 H1333 0.951 . S
C1357 C1358 1.366 . S
C1357 C1359 1.388 . S
C1358 C1357 1.366 . S
C1358 C1362 1.385 . S
C1359 H1334 0.951 . S
C1359 C1357 1.388 . S
C1359 C1360 1.366 . S
C1360 C1359 1.366 . S
C1360 C1361 1.414 . S
C1360 C1363 1.499 . S
C1361 H1335 0.950 . S
C1361 C1360 1.414 . S
C1361 C1362 1.374 . S
C1362 H1336 0.950 . S
C1362 C1358 1.385 . S
C1362 C1361 1.374 . S
C1363 C1360 1.499 . S
C1363 C1364 1.373 . S
C1363 C1365 1.389 . S
C1364 H1337 0.950 . S
C1364 C1350 1.377 . S
C1364 C1363 1.373 . S
C1365 C1349 1.377 . S
C1365 C1363 1.389 . S
C1365 C1366 1.524 1_554 S
C1366 C1365 1.524 1_556 S
C1366 C1367 1.397 . S
C1366 C1371 1.363 . S
C1367 H1338 0.950 . S
C1367 C1366 1.397 . S
C1367 C1368 1.334 . S
C1368 H1339 0.950 . S
C1368 C1367 1.334 . S
C1368 C1369 1.287 . S
C1369 C1368 1.287 . S
C1369 C1370 1.524 . S
C1369 H1372 0.999 . S
C1370 H1340 0.950 . S
C1370 C1369 1.524 . S
C1370 C1371 1.415 . S
C1371 H1341 0.950 . S
C1371 C1366 1.363 . S
C1371 C1370 1.415 . S
H1372 C1369 0.999 . S
H1373 C1354 0.913 . S
H1374 C1392 0.951 . S
H1375 C1394 0.951 . S
H1376 C1396 0.950 . S
H1377 C1397 0.950 . S
H1378 C1399 0.950 . S
H1379 C1402 0.950 . S
H1380 C1403 0.950 . S
H1381 C1405 0.950 . S
H1382 C1406 0.950 . S
H1383 C1407 0.951 . S
H1384 C1409 0.951 . S
H1385 C1411 0.950 . S
H1386 C1412 0.950 . S
H1387 C1414 0.950 . S
H1388 C1417 0.950 . S
H1389 C1418 0.950 . S
H1390 C1420 0.950 . S
H1391 C1421 0.950 . S
C1392 H1374 0.951 . S
C1392 C1393 1.366 . S
C1392 C1394 1.388 . S
C1393 C1392 1.366 . S
C1393 C1397 1.385 . S
C1394 H1375 0.951 . S
C1394 C1392 1.388 . S
C1394 C1395 1.366 . S
C1395 C1394 1.366 . S
C1395 C1396 1.414 . S
C1395 C1398 1.499 . S
C1396 H1376 0.950 . S
C1396 C1395 1.414 . S
C1396 C1397 1.374 . S
C1397 H1377 0.950 . S
C1397 C1393 1.385 . S
C1397 C1396 1.374 . S
C1398 C1395 1.499 . S
C1398 C1399 1.373 . S
C1398 C1400 1.389 . S
C1399 H1378 0.950 . S
C1399 C1398 1.373 . S
C1399 C1415 1.377 . S
C1400 C1398 1.389 . S
C1400 C1401 1.524 . S
C1400 C1414 1.377 . S
C1401 C1400 1.524 . S
C1401 C1402 1.397 . S
C1401 C1406 1.363 . S
C1402 H1379 0.950 . S
C1402 C1401 1.397 . S
C1402 C1403 1.334 . S
C1403 H1380 0.950 . S
C1403 C1402 1.334 . S
C1403 C1404 1.287 . S
C1404 C1403 1.287 . S
C1404 C1405 1.524 . S
C1404 H1423 0.913 . S
C1405 H1381 0.950 . S
C1405 C1404 1.524 . S
C1405 C1406 1.415 . S
C1406 H1382 0.950 . S
C1406 C1401 1.363 . S
C1406 C1405 1.415 . S
C1407 H1383 0.951 . S
C1407 C1408 1.366 . S
C1407 C1409 1.388 . S
C1408 C1407 1.366 . S
C1408 C1412 1.385 . S
C1409 H1384 0.951 . S
C1409 C1407 1.388 . S
C1409 C1410 1.366 . S
C1410 C1409 1.366 . S
C1410 C1411 1.414 . S
C1410 C1413 1.499 . S
C1411 H1385 0.950 . S
C1411 C1410 1.414 . S
C1411 C1412 1.374 . S
C1412 H1386 0.950 . S
C1412 C1408 1.385 . S
C1412 C1411 1.374 . S
C1413 C1410 1.499 . S
C1413 C1414 1.373 . S
C1413 C1415 1.389 . S
C1414 H1387 0.950 . S
C1414 C1400 1.377 . S
C1414 C1413 1.373 . S
C1415 C1399 1.377 . S
C1415 C1413 1.389 . S
C1415 C1416 1.524 . S
C1416 C1415 1.524 . S
C1416 C1417 1.397 . S
C1416 C1421 1.363 . S
C1417 H1388 0.950 . S
C1417 C1416 1.397 . S
C1417 C1418 1.334 . S
C1418 H1389 0.950 . S
C1418 C1417 1.334 . S
C1418 C1419 1.287 . S
C1419 C1418 1.287 . S
C1419 C1420 1.524 . S
C1419 H1422 0.999 . S
C1420 H1390 0.950 . S
C1420 C1419 1.524 . S
C1420 C1421 1.415 . S
C1421 H1391 0.950 . S
C1421 C1416 1.363 . S
C1421 C1420 1.415 . S
H1422 C1419 0.999 . S
H1423 C1404 0.913 . S
H1424 C1442 0.951 . S
H1425 C1444 0.951 . S
H1426 C1446 0.950 . S
H1427 C1447 0.950 . S
H1428 C1449 0.950 . S
H1429 C1452 0.950 . S
H1430 C1453 0.950 . S
H1431 C1455 0.950 . S
H1432 C1456 0.950 . S
H1433 C1457 0.951 . S
H1434 C1459 0.951 . S
H1435 C1461 0.950 . S
H1436 C1462 0.950 1_455 S
H1437 C1464 0.950 . S
H1438 C1467 0.950 1_556 S
H1439 C1468 0.950 1_455 S
H1440 C1470 0.950 . S
H1441 C1471 0.950 . S
C1442 H1424 0.951 . S
C1442 C1443 1.366 . S
C1442 C1444 1.388 . S
C1443 C1442 1.366 . S
C1443 C1447 1.385 . S
C1444 H1425 0.951 . S
C1444 C1442 1.388 . S
C1444 C1445 1.366 . S
C1445 C1444 1.366 . S
C1445 C1446 1.414 . S
C1445 C1448 1.499 . S
C1446 H1426 0.950 . S
C1446 C1445 1.414 . S
C1446 C1447 1.374 . S
C1447 H1427 0.950 . S
C1447 C1443 1.385 . S
C1447 C1446 1.374 . S
C1448 C1445 1.499 . S
C1448 C1449 1.373 . S
C1448 C1450 1.389 . S
C1449 H1428 0.950 . S
C1449 C1448 1.373 . S
C1449 C1465 1.377 . S
C1450 C1448 1.389 . S
C1450 C1451 1.524 . S
C1450 C1464 1.377 . S
C1451 C1450 1.524 . S
C1451 C1452 1.397 . S
C1451 C1456 1.363 . S
C1452 H1429 0.950 . S
C1452 C1451 1.397 . S
C1452 C1453 1.334 . S
C1453 H1430 0.950 . S
C1453 C1452 1.334 . S
C1453 C1454 1.287 . S
C1454 C1453 1.287 . S
C1454 C1455 1.524 . S
C1454 H1473 0.913 . S
C1455 H1431 0.950 . S
C1455 C1454 1.524 . S
C1455 C1456 1.415 . S
C1456 H1432 0.950 . S
C1456 C1451 1.363 . S
C1456 C1455 1.415 . S
C1457 H1433 0.951 . S
C1457 C1458 1.366 . S
C1457 C1459 1.388 . S
C1458 C1457 1.366 . S
C1458 C1462 1.385 . S
C1459 H1434 0.951 . S
C1459 C1457 1.388 . S
C1459 C1460 1.366 . S
C1460 C1459 1.366 . S
C1460 C1461 1.414 . S
C1460 C1463 1.499 . S
C1461 H1435 0.950 . S
C1461 C1460 1.414 . S
C1461 C1462 1.374 . S
C1462 H1436 0.950 1_655 S
C1462 C1458 1.385 . S
C1462 C1461 1.374 . S
C1463 C1460 1.499 . S
C1463 C1464 1.373 . S
C1463 C1465 1.389 . S
C1464 H1437 0.950 . S
C1464 C1450 1.377 . S
C1464 C1463 1.373 . S
C1465 C1449 1.377 . S
C1465 C1463 1.389 . S
C1465 C1466 1.524 . S
C1466 C1465 1.524 . S
C1466 C1467 1.397 1_556 S
C1466 C1471 1.363 1_556 S
C1467 H1438 0.950 1_554 S
C1467 C1466 1.397 1_554 S
C1467 C1468 1.334 . S
C1468 H1439 0.950 1_655 S
C1468 C1467 1.334 . S
C1468 C1469 1.287 . S
C1469 C1468 1.287 . S
C1469 C1470 1.524 . S
C1469 H1472 0.999 . S
C1470 H1440 0.950 . S
C1470 C1469 1.524 . S
C1470 C1471 1.415 . S
C1471 H1441 0.950 . S
C1471 C1466 1.363 1_554 S
C1471 C1470 1.415 . S
H1472 C1469 0.999 . S
H1473 C1454 0.913 . S
H1474 C1492 0.951 . S
H1475 C1494 0.951 . S
H1476 C1496 0.950 . S
H1477 C1497 0.950 . S
H1478 C1499 0.950 . S
H1479 C1502 0.950 . S
H1480 C1503 0.950 . S
H1481 C1505 0.950 . S
H1482 C1506 0.950 . S
H1483 C1507 0.951 . S
H1484 C1509 0.951 . S
H1485 C1511 0.950 . S
H1486 C1512 0.950 . S
H1487 C1514 0.950 . S
H1488 C1517 0.950 . S
H1489 C1518 0.950 . S
H1490 C1520 0.950 . S
H1491 C1521 0.950 . S
C1492 H1474 0.951 . S
C1492 C1493 1.366 . S
C1492 C1494 1.388 . S
C1493 C1492 1.366 . S
C1493 C1497 1.385 . S
C1494 H1475 0.951 . S
C1494 C1492 1.388 . S
C1494 C1495 1.366 . S
C1495 C1494 1.366 . S
C1495 C1496 1.414 . S
C1495 C1498 1.499 . S
C1496 H1476 0.950 . S
C1496 C1495 1.414 . S
C1496 C1497 1.374 . S
C1497 H1477 0.950 . S
C1497 C1493 1.385 . S
C1497 C1496 1.374 . S
C1498 C1495 1.499 . S
C1498 C1499 1.373 . S
C1498 C1500 1.389 . S
C1499 H1478 0.950 . S
C1499 C1498 1.373 . S
C1499 C1515 1.377 . S
C1500 C1498 1.389 . S
C1500 C1501 1.524 . S
C1500 C1514 1.377 . S
C1501 C1500 1.524 . S
C1501 C1502 1.397 . S
C1501 C1506 1.363 . S
C1502 H1479 0.950 . S
C1502 C1501 1.397 . S
C1502 C1503 1.334 1_554 S
C1503 H1480 0.950 . S
C1503 C1502 1.334 1_556 S
C1503 C1504 1.287 . S
C1504 C1503 1.287 . S
C1504 C1505 1.524 1_556 S
C1504 H1523 0.913 . S
C1505 H1481 0.950 . S
C1505 C1504 1.524 1_554 S
C1505 C1506 1.415 . S
C1506 H1482 0.950 . S
C1506 C1501 1.363 . S
C1506 C1505 1.415 . S
C1507 H1483 0.951 . S
C1507 C1508 1.366 . S
C1507 C1509 1.388 . S
C1508 C1507 1.366 . S
C1508 C1512 1.385 . S
C1509 H1484 0.951 . S
C1509 C1507 1.388 . S
C1509 C1510 1.366 . S
C1510 C1509 1.366 . S
C1510 C1511 1.414 . S
C1510 C1513 1.499 . S
C1511 H1485 0.950 . S
C1511 C1510 1.414 . S
C1511 C1512 1.374 . S
C1512 H1486 0.950 . S
C1512 C1508 1.385 . S
C1512 C1511 1.374 . S
C1513 C1510 1.499 . S
C1513 C1514 1.373 . S
C1513 C1515 1.389 . S
C1514 H1487 0.950 . S
C1514 C1500 1.377 . S
C1514 C1513 1.373 . S
C1515 C1499 1.377 . S
C1515 C1513 1.389 . S
C1515 C1516 1.524 . S
C1516 C1515 1.524 . S
C1516 C1517 1.397 . S
C1516 C1521 1.363 . S
C1517 H1488 0.950 . S
C1517 C1516 1.397 . S
C1517 C1518 1.334 . S
C1518 H1489 0.950 . S
C1518 C1517 1.334 . S
C1518 C1519 1.287 . S
C1519 C1518 1.287 . S
C1519 C1520 1.524 . S
C1519 H1522 0.999 . S
C1520 H1490 0.950 . S
C1520 C1519 1.524 . S
C1520 C1521 1.415 . S
C1521 H1491 0.950 . S
C1521 C1516 1.363 . S
C1521 C1520 1.415 . S
H1522 C1519 0.999 . S
H1523 C1504 0.913 . S
H1524 C1542 0.951 . S
H1525 C1544 0.951 . S
H1526 C1546 0.950 . S
H1527 C1547 0.950 . S
H1528 C1549 0.950 . S
H1529 C1552 0.950 . S
H1530 C1553 0.950 . S
H1531 C1555 0.950 . S
H1532 C1556 0.950 . S
H1533 C1557 0.951 . S
H1534 C1559 0.951 . S
H1535 C1561 0.950 . S
H1536 C1562 0.950 . S
H1537 C1564 0.950 . S
H1538 C1567 0.950 . S
H1539 C1568 0.950 . S
H1540 C1570 0.950 . S
H1541 C1571 0.957 . S
C1542 H1524 0.951 . S
C1542 C1543 1.366 . S
C1542 C1544 1.388 . S
C1543 C1542 1.366 . S
C1543 C1547 1.385 . S
C1544 H1525 0.951 . S
C1544 C1542 1.388 . S
C1544 C1545 1.366 . S
C1545 C1544 1.366 . S
C1545 C1546 1.414 . S
C1545 C1548 1.499 . S
C1546 H1526 0.950 . S
C1546 C1545 1.414 . S
C1546 C1547 1.374 . S
C1547 H1527 0.950 . S
C1547 C1543 1.385 . S
C1547 C1546 1.374 . S
C1548 C1545 1.499 . S
C1548 C1549 1.373 . S
C1548 C1550 1.389 . S
C1549 H1528 0.950 . S
C1549 C1548 1.373 . S
C1549 C1565 1.377 . S
C1550 C1548 1.389 . S
C1550 C1551 1.524 . S
C1550 C1564 1.377 . S
C1551 C1550 1.524 . S
C1551 C1552 1.397 . S
C1551 C1556 1.363 . S
C1552 H1529 0.950 . S
C1552 C1551 1.397 . S
C1552 C1553 1.334 . S
C1553 H1530 0.950 . S
C1553 C1552 1.334 . S
C1553 C1554 1.287 . S
C1554 C1553 1.287 . S
C1554 C1555 1.524 . S
C1554 H1573 0.913 . S
C1555 H1531 0.950 . S
C1555 C1554 1.524 . S
C1555 C1556 1.415 . S
C1556 H1532 0.950 . S
C1556 C1551 1.363 . S
C1556 C1555 1.415 . S
C1557 H1533 0.951 . S
C1557 C1558 1.366 . S
C1557 C1559 1.388 . S
C1558 C1557 1.366 . S
C1558 C1562 1.385 . S
C1559 H1534 0.951 . S
C1559 C1557 1.388 . S
C1559 C1560 1.366 . S
C1560 C1559 1.366 . S
C1560 C1561 1.414 . S
C1560 C1563 1.499 . S
C1561 H1535 0.950 . S
C1561 C1560 1.414 . S
C1561 C1562 1.374 . S
C1562 H1536 0.950 . S
C1562 C1558 1.385 . S
C1562 C1561 1.374 . S
C1563 C1560 1.499 . S
C1563 C1564 1.373 . S
C1563 C1565 1.389 . S
C1564 H1537 0.950 . S
C1564 C1550 1.377 . S
C1564 C1563 1.373 . S
C1565 C1549 1.377 . S
C1565 C1563 1.389 . S
C1565 C1566 1.524 . S
C1566 C1565 1.524 . S
C1566 C1567 1.397 . S
C1566 C1571 1.363 1_455 S
C1567 H1538 0.950 . S
C1567 C1566 1.397 . S
C1567 C1568 1.334 1_455 S
C1568 H1539 0.950 . S
C1568 C1567 1.334 1_655 S
C1568 C1569 1.287 . S
C1569 C1568 1.287 . S
C1569 C1570 1.524 . S
C1569 H1572 0.999 . S
C1570 H1540 0.950 . S
C1570 C1569 1.524 . S
C1570 C1571 1.415 . S
C1571 H1541 0.957 . S
C1571 C1566 1.363 1_655 S
C1571 C1570 1.415 . S
H1572 C1569 0.999 . S
H1573 C1554 0.913 . S
H1574 C1592 0.951 . S
H1575 C1594 0.951 . S
H1576 C1596 0.950 . S
H1577 C1597 0.950 . S
H1578 C1599 0.950 . S
H1579 C1602 0.950 . S
H1580 C1603 0.950 . S
H1581 C1605 0.950 . S
H1582 C1606 0.950 . S
H1583 C1607 0.951 . S
H1584 C1609 0.951 . S
H1585 C1611 0.950 . S
H1586 C1612 0.950 . S
H1587 C1614 0.950 . S
H1588 C1617 0.950 . S
H1589 C1618 0.950 . S
H1590 C1620 0.950 . S
H1591 C1621 0.950 . S
C1592 H1574 0.951 . S
C1592 C1593 1.366 . S
C1592 C1594 1.388 . S
C1593 C1592 1.366 . S
C1593 C1597 1.385 . S
C1594 H1575 0.951 . S
C1594 C1592 1.388 . S
C1594 C1595 1.366 . S
C1595 C1594 1.366 . S
C1595 C1596 1.414 . S
C1595 C1598 1.499 . S
C1596 H1576 0.950 . S
C1596 C1595 1.414 . S
C1596 C1597 1.374 . S
C1597 H1577 0.950 . S
C1597 C1593 1.385 . S
C1597 C1596 1.374 . S
C1598 C1595 1.499 . S
C1598 C1599 1.373 . S
C1598 C1600 1.389 . S
C1599 H1578 0.950 . S
C1599 C1598 1.373 . S
C1599 C1615 1.377 . S
C1600 C1598 1.389 . S
C1600 C1601 1.524 . S
C1600 C1614 1.377 . S
C1601 C1600 1.524 . S
C1601 C1602 1.397 . S
C1601 C1606 1.363 . S
C1602 H1579 0.950 . S
C1602 C1601 1.397 . S
C1602 C1603 1.334 . S
C1603 H1580 0.950 . S
C1603 C1602 1.334 . S
C1603 C1604 1.287 . S
C1604 C1603 1.287 . S
C1604 C1605 1.524 . S
C1604 H1623 0.913 . S
C1605 H1581 0.950 . S
C1605 C1604 1.524 . S
C1605 C1606 1.415 . S
C1606 H1582 0.950 . S
C1606 C1601 1.363 . S
C1606 C1605 1.415 . S
C1607 H1583 0.951 . S
C1607 C1608 1.366 . S
C1607 C1609 1.388 . S
C1608 C1607 1.366 . S
C1608 C1612 1.385 . S
C1609 H1584 0.951 . S
C1609 C1607 1.388 . S
C1609 C1610 1.366 . S
C1610 C1609 1.366 . S
C1610 C1611 1.414 . S
C1610 C1613 1.499 . S
C1611 H1585 0.950 . S
C1611 C1610 1.414 . S
C1611 C1612 1.374 . S
C1612 H1586 0.950 . S
C1612 C1608 1.385 . S
C1612 C1611 1.374 . S
C1613 C1610 1.499 . S
C1613 C1614 1.373 . S
C1613 C1615 1.389 . S
C1614 H1587 0.950 . S
C1614 C1600 1.377 . S
C1614 C1613 1.373 . S
C1615 C1599 1.377 . S
C1615 C1613 1.389 . S
C1615 C1616 1.524 . S
C1616 C1615 1.524 . S
C1616 C1617 1.397 . S
C1616 C1621 1.363 . S
C1617 H1588 0.950 . S
C1617 C1616 1.397 . S
C1617 C1618 1.334 . S
C1618 H1589 0.950 . S
C1618 C1617 1.334 . S
C1618 C1619 1.287 . S
C1619 C1618 1.287 . S
C1619 C1620 1.524 . S
C1619 H1622 0.999 . S
C1620 H1590 0.950 . S
C1620 C1619 1.524 . S
C1620 C1621 1.415 . S
C1621 H1591 0.950 . S
C1621 C1616 1.363 . S
C1621 C1620 1.415 . S
H1622 C1619 0.999 . S
H1623 C1604 0.913 . S
C443 C1 2.300 . S
C458 C288 2.330 . S
C493 C67 2.264 . S
C508 C330 2.298 . S
C558 C360 0.960 . S
C543 C97 0.948 . S
C593 C133 1.041 . S
C608 C394 1.040 . S
C658 C351 1.880 . S
C643 C25 1.844 . S
C708 C305 1.872 . S
C693 C37 1.845 . S
C758 C398 1.360 . S
C743 C103 1.328 . S
C808 C364 1.412 . S
C793 C109 1.404 . S
C843 C31 2.198 . S
C858 C419 2.230 . S
C908 C326 1.107 . S
C893 C73 1.090 . S
C943 C139 1.127 . S
C958 C301 1.131 . S
C993 C61 2.153 . S
C1008 C385 2.187 . S
C1058 C317 2.343 . S
C1043 C175 2.340 . S
C1093 C181 2.253 . S
C1108 C339 2.282 . S
C1143 C247 0.981 . S
C1158 C369 0.978 . S
C1193 C277 1.040 . S
C1208 C403 1.036 . S
C1243 C145 1.869 . S
C1258 C322 1.875 . S
C1308 C296 1.876 . S
C1293 C211 1.847 . S
C1358 C407 1.340 . S
C1343 C217 1.335 . S
C1408 C373 1.433 . S
C1393 C283 1.429 . S
C1443 C169 2.224 . S
C1458 C390 2.223 . S
C1508 C335 1.105 . S
C1493 C241 1.104 . S
C1558 C292 1.121 . S
C1543 C253 1.111 . S
C1593 C205 2.159 . S
C1608 C356 2.195 . S
