# Generated by pormake.
# Topology anh, (6,3)-cn, num edge types: 1
# Building blocks:
#     Node 0, Type 0, BuildingBlock: BETGAK_clean_sbu_0, # of connection points: 6
#     Node 1, Type 0, BuildingBlock: BETGAK_clean_sbu_0, # of connection points: 6
#     Node 2, Type 0, BuildingBlock: BETGAK_clean_sbu_0, # of connection points: 6
#     Node 3, Type 1, BuildingBlock: BETDIP_clean_linker_0, # of connection points: 3
#     Node 4, Type 1, BuildingBlock: BETDIP_clean_linker_0, # of connection points: 3
#     Node 5, Type 1, BuildingBlock: BETDIP_clean_linker_0, # of connection points: 3
#     Node 6, Type 1, BuildingBlock: BETDIP_clean_linker_0, # of connection points: 3
#     Node 7, Type 1, BuildingBlock: BETDIP_clean_linker_0, # of connection points: 3
#     Node 8, Type 1, BuildingBlock: BETDIP_clean_linker_0, # of connection points: 3
#     Edge 9, Type (0, 1), BuildingBlock: AJUNOK_clean_linker_0, # of connection points: 2
#     Edge 10, Type (0, 1), BuildingBlock: AJUNOK_clean_linker_0, # of connection points: 2
#     Edge 11, Type (0, 1), BuildingBlock: AJUNOK_clean_linker_0, # of connection points: 2
#     Edge 12, Type (0, 1), BuildingBlock: AJUNOK_clean_linker_0, # of connection points: 2
#     Edge 13, Type (0, 1), BuildingBlock: AJUNOK_clean_linker_0, # of connection points: 2
#     Edge 14, Type (0, 1), BuildingBlock: AJUNOK_clean_linker_0, # of connection points: 2
#     Edge 15, Type (0, 1), BuildingBlock: AJUNOK_clean_linker_0, # of connection points: 2
#     Edge 16, Type (0, 1), BuildingBlock: AJUNOK_clean_linker_0, # of connection points: 2
#     Edge 17, Type (0, 1), BuildingBlock: AJUNOK_clean_linker_0, # of connection points: 2
#     Edge 18, Type (0, 1), BuildingBlock: AJUNOK_clean_linker_0, # of connection points: 2
#     Edge 19, Type (0, 1), BuildingBlock: AJUNOK_clean_linker_0, # of connection points: 2
#     Edge 20, Type (0, 1), BuildingBlock: AJUNOK_clean_linker_0, # of connection points: 2
#     Edge 21, Type (0, 1), BuildingBlock: AJUNOK_clean_linker_0, # of connection points: 2
#     Edge 22, Type (0, 1), BuildingBlock: AJUNOK_clean_linker_0, # of connection points: 2
#     Edge 23, Type (0, 1), BuildingBlock: AJUNOK_clean_linker_0, # of connection points: 2
#     Edge 24, Type (0, 1), BuildingBlock: AJUNOK_clean_linker_0, # of connection points: 2
#     Edge 25, Type (0, 1), BuildingBlock: AJUNOK_clean_linker_0, # of connection points: 2
#     Edge 26, Type (0, 1), BuildingBlock: AJUNOK_clean_linker_0, # of connection points: 2
# Relax obj value: 0.224
# Max RMSD: 0.205
# Mean RMSD: 0.136
data_MOF--net-anh--node1-BETGAK_clean_sbu_0--node2-BETDIP_clean_linker_0--edge1-AJUNOK_clean_linker_0
_symmetry_space_group_name_H-M    P1
_symmetry_Int_Tables_number       1
_symmetry_cell_setting            triclinic
loop_
_symmetry_equiv_pos_as_xyz
'x, y, z'
_cell_length_a     24.505072
_cell_length_b     29.717508
_cell_length_c     36.695571
_cell_angle_alpha  95.036064
_cell_angle_beta   88.666999
_cell_angle_gamma 132.6764
loop_
_atom_site_label
_atom_site_type_symbol
_atom_site_fract_x
_atom_site_fract_y
_atom_site_fract_z
_atom_type_partial_charge
La0 La 0.17282 0.58535 0.14038 0.0
La1 La 1.09306 0.62318 0.16019 0.0
C2 C 0.25507 0.5717 0.11092 0.0
C3 C 0.32341 0.58779 0.12332 0.0
C4 C 0.33483 0.58536 0.16022 0.0
C5 C 0.38875 0.58457 0.17018 0.0
C6 C 0.43284 0.58768 0.14352 0.0
C7 C 0.42726 0.5976 0.10757 0.0
C8 C 0.37234 0.59717 0.09746 0.0
C9 C 0.16041 0.59339 0.21163 0.0
C10 C 0.264 0.73162 0.15524 0.0
C11 C 1.0082 0.6347 0.18888 0.0
C12 C 0.92686 0.59472 0.18592 0.0
C13 C 0.89016 0.57902 0.15183 0.0
C14 C 0.81311 0.53246 0.14787 0.0
C15 C 0.77116 0.50027 0.17776 0.0
C16 C 0.8072 0.51941 0.21251 0.0
C17 C 0.88461 0.56631 0.21653 0.0
C18 C 0.10632 0.61199 0.08834 0.0
C19 C 1.00148 0.47769 0.14986 0.0
O20 O 0.19636 0.53022 0.12857 0.0
O21 O 0.25976 0.61698 0.10521 0.0
O22 O 0.16482 0.55642 0.19423 0.0
O23 O 0.17217 0.62943 0.1899 0.0
O24 O 0.26236 0.6883 0.13981 0.0
O25 O 0.20377 0.71498 0.17025 0.0
O26 O 1.04413 0.65981 0.15938 0.0
O27 O 1.0314 0.6124 0.20503 0.0
O28 O 0.10779 0.65299 0.10501 0.0
O29 O 1.0924 0.57683 0.11129 0.0
O30 O 1.00561 0.52253 0.16435 0.0
O31 O 1.05946 0.49235 0.13294 0.0
H32 H 0.29817 0.579 0.18075 0.0
H33 H 0.39183 0.57637 0.19793 0.0
H34 H 0.46003 0.59916 0.08645 0.0
H35 H 0.36454 0.59946 0.06896 0.0
H36 H 0.9209 0.60041 0.12772 0.0
H37 H 0.7865 0.51963 0.12094 0.0
H38 H 0.77639 0.49528 0.23601 0.0
H39 H 0.91175 0.57787 0.24312 0.0
La40 La 0.68774 0.07353 0.46443 0.0
La41 La 0.58696 0.09332 0.46011 0.0
C42 C 0.74893 0.03577 0.48198 0.0
C43 C 0.72404 0.97846 0.49454 0.0
C44 C 0.70776 0.93197 0.46916 0.0
C45 C 0.68634 0.87868 0.48103 0.0
C46 C 0.68077 0.8707 0.51852 0.0
C47 C 0.69733 0.91722 0.54392 0.0
C48 C 0.71876 0.97052 0.53209 0.0
C49 C 0.6663 0.08785 0.39796 0.0
C50 C 0.50994 0.95654 0.45553 0.0
C51 C 0.52821 0.13475 0.44725 0.0
C52 C 0.54668 0.19152 0.46266 0.0
C53 C 0.57248 0.21425 0.4994 0.0
C54 C 0.59041 0.26811 0.51405 0.0
C55 C 0.58377 0.30093 0.49225 0.0
C56 C 0.55981 0.27896 0.45516 0.0
C57 C 0.54118 0.22458 0.44055 0.0
C58 C 0.60768 0.07905 0.52681 0.0
C59 C 0.76597 0.21189 0.46484 0.0
O60 O 0.72949 0.03259 0.4483 0.0
O61 O 0.74268 0.06851 0.5046 0.0
O62 O 0.72839 0.10698 0.41085 0.0
O63 O 0.61718 0.05741 0.42095 0.0
O64 O 0.57543 0.97974 0.46909 0.0
O65 O 0.50455 0.99422 0.44345 0.0
O66 O 0.50257 0.09361 0.47013 0.0
O67 O 0.57799 0.14253 0.42682 0.0
O68 O 0.54611 0.05998 0.51347 0.0
O69 O 0.65712 0.10935 0.50387 0.0
O70 O 0.697 0.18831 0.46017 0.0
O71 O 0.7775 0.1751 0.46979 0.0
H72 H 0.71197 0.93684 0.44007 0.0
H73 H 0.67391 0.84356 0.46086 0.0
H74 H 0.69519 0.91299 0.57305 0.0
H75 H 0.73193 1.00576 0.55243 0.0
H76 H 0.57862 0.19026 0.51691 0.0
H77 H 0.60855 0.28362 0.54269 0.0
H78 H 0.556 0.30401 0.43736 0.0
H79 H 0.52279 0.20849 0.41197 0.0
La80 La 0.67405 0.5991 0.85288 0.0
La81 La 0.56418 0.4658 0.84404 0.0
C82 C 0.74586 0.70861 0.83942 0.0
C83 C 0.72858 0.74432 0.82677 0.0
C84 C 0.69666 0.76118 0.84953 0.0
C85 C 0.68089 0.79467 0.83655 0.0
C86 C 0.69614 0.8116 0.80051 0.0
C87 C 0.72937 0.79578 0.77816 0.0
C88 C 0.74546 0.76276 0.79111 0.0
C89 C 0.6368 0.54738 0.91398 0.0
C90 C 0.49138 0.52836 0.85179 0.0
C91 C 0.49839 0.35512 0.84967 0.0
C92 C 0.5151 0.31704 0.83607 0.0
C93 C 0.52688 0.31193 0.7988 0.0
C94 C 0.54156 0.27542 0.78606 0.0
C95 C 0.54533 0.24326 0.81018 0.0
C96 C 0.53604 0.24984 0.84763 0.0
C97 C 0.52064 0.2861 0.86041 0.0
C98 C 0.59905 0.5154 0.78219 0.0
C99 C 0.74832 0.53841 0.8508 0.0
O100 O 0.72783 0.69029 0.87235 0.0
O101 O 0.73148 0.66595 0.81549 0.0
O102 O 0.70392 0.5979 0.9083 0.0
O103 O 0.59372 0.53073 0.8872 0.0
O104 O 0.56419 0.58008 0.84926 0.0
O105 O 0.47848 0.47625 0.85331 0.0
O106 O 0.47998 0.37251 0.82491 0.0
O107 O 0.54441 0.39987 0.87517 0.0
O108 O 0.53322 0.46549 0.78901 0.0
O109 O 0.64367 0.5333 0.80863 0.0
O110 O 0.67503 0.48577 0.84693 0.0
O111 O 0.76182 0.59102 0.85301 0.0
H112 H 0.68339 0.74822 0.87725 0.0
H113 H 0.65538 0.80627 0.85444 0.0
H114 H 0.74313 0.80911 0.75051 0.0
H115 H 0.77101 0.75138 0.77305 0.0
H116 H 0.52452 0.33598 0.77932 0.0
H117 H 0.55001 0.27229 0.75718 0.0
H118 H 0.53904 0.22586 0.86686 0.0
H119 H 0.51263 0.28973 0.88931 0.0
H120 H 0.58122 0.04098 0.13423 0.0
H121 H 0.71102 0.15407 0.23382 0.0
H122 H 0.51544 0.96348 0.23802 0.0
H123 H 0.70927 0.22053 0.20342 0.0
C124 C 0.73567 0.22022 0.17932 0.0
C125 C 0.59093 0.04613 0.16356 0.0
C126 C 0.541 0.99384 0.18399 0.0
C127 C 0.6522 0.10556 0.18163 0.0
C128 C 0.66299 0.11045 0.21982 0.0
C129 C 0.61383 0.05993 0.24028 0.0
C130 C 0.5538 1.00229 0.22213 0.0
N131 N 0.70268 0.16027 0.16229 0.0
H132 H 0.63996 0.55103 0.52285 0.0
H133 H 0.64908 0.62933 0.62955 0.0
H134 H 0.64324 0.4811 0.61996 0.0
H135 H 0.5783 0.63918 0.59544 0.0
C136 C 0.61389 0.65994 0.57246 0.0
C137 C 0.6427 0.55265 0.55243 0.0
C138 C 0.64165 0.51098 0.56875 0.0
C139 C 0.64462 0.59508 0.57406 0.0
C140 C 0.64729 0.59669 0.61244 0.0
C141 C 0.64806 0.5564 0.62909 0.0
C142 C 0.64587 0.51402 0.60714 0.0
N143 N 0.64389 0.63563 0.55667 0.0
H144 H 1.05112 0.51949 0.82337 0.0
H145 H 0.17166 0.56081 0.9251 0.0
H146 H 0.99994 0.56514 0.92625 0.0
H147 H 0.26846 0.58257 0.89387 0.0
C148 C 0.24359 0.54828 0.87048 0.0
C149 C 1.06122 0.53223 0.85261 0.0
C150 C 1.01413 0.5426 0.87204 0.0
C151 C 0.12252 0.53964 0.87134 0.0
C152 C 0.13048 0.55545 0.90939 0.0
C153 C 1.08623 0.56358 0.92845 0.0
C154 C 1.03168 0.55827 0.90995 0.0
N155 N 0.17229 0.52947 0.85445 0.0
H156 H 0.20651 0.64369 0.4775 0.0
H157 H 1.08273 0.52665 0.37762 0.0
H158 H 0.2724 0.71857 0.37296 0.0
H159 H 0.98536 0.48624 0.41962 0.0
C160 C 1.00768 0.47504 0.43825 0.0
C161 C 0.19814 0.63752 0.448 0.0
C162 C 0.24676 0.68965 0.42729 0.0
C163 C 0.13679 0.57769 0.43024 0.0
C164 C 0.12747 0.57149 0.39182 0.0
C165 C 0.17549 0.622 0.3712 0.0
C166 C 0.2344 0.68006 0.38911 0.0
N167 N 1.08516 0.52391 0.45017 0.0
H168 H 0.62143 0.0665 0.78843 0.0
H169 H 0.65959 1.01637 0.68337 0.0
H170 H 0.60982 0.12984 0.69024 0.0
H171 H 0.60118 0.92822 0.71145 0.0
C172 C 0.63044 0.94632 0.73812 0.0
C173 C 0.62648 0.06931 0.75913 0.0
C174 C 0.6133 0.10206 0.74192 0.0
C175 C 0.64172 0.03697 0.73825 0.0
C176 C 0.64733 0.0403 0.69998 0.0
C177 C 0.6356 0.07364 0.68276 0.0
C178 C 0.61925 0.1045 0.70384 0.0
N179 N 0.64915 1.00022 0.75601 0.0
H180 H 0.46529 0.38681 0.14562 0.0
H181 H 0.50372 0.34453 0.03852 0.0
H182 H 0.57348 0.5204 0.06712 0.0
H183 H 0.42498 0.24584 0.147 0.0
C184 C 0.46376 0.29079 0.13685 0.0
C185 C 0.48971 0.40145 0.11935 0.0
C186 C 0.52269 0.45998 0.11035 0.0
C187 C 0.48328 0.35984 0.09372 0.0
C188 C 0.51029 0.37699 0.0587 0.0
C189 C 0.54607 0.43632 0.04995 0.0
C190 C 0.55189 0.47711 0.07569 0.0
N191 N 0.44736 0.29997 0.10287 0.0
C192 C 0.4198 0.50041 0.1547 0.0
C193 C 0.46726 0.56309 0.14957 0.0
C194 C 0.44178 0.46809 0.14629 0.0
C195 C 0.51242 0.49768 0.13292 0.0
H196 H 0.36241 0.47458 0.1611 0.0
H197 H 0.39995 0.41857 0.14637 0.0
S198 S 0.66468 0.66545 0.12659 0.0
N199 N 0.59225 0.6563 0.13801 0.0
N200 N 0.63599 0.59639 0.12457 0.0
C201 C 0.5642 0.56232 0.13358 0.0
C202 C 0.54094 0.59488 0.14117 0.0
C203 C 0.90577 0.30942 0.46168 0.0
C204 C 0.83039 0.28115 0.46291 0.0
C205 C 0.9646 0.37302 0.45631 0.0
C206 C 0.95089 0.41146 0.4518 0.0
H207 H 0.91934 0.28179 0.46368 0.0
H208 H 1.02046 0.39127 0.45389 0.0
S209 S 0.76621 0.36363 0.45606 0.0
N210 N 0.74839 0.3004 0.46183 0.0
N211 N 0.85661 0.41685 0.45124 0.0
C212 C 0.8766 0.38435 0.45439 0.0
C213 C 0.81729 0.32042 0.46008 0.0
C214 C 0.69991 0.89922 0.80412 0.0
C215 C 0.67623 0.84444 0.78565 0.0
C216 C 0.68479 0.93216 0.78911 0.0
C217 C 0.64493 0.9112 0.75519 0.0
H218 H 0.73184 0.91749 0.82995 0.0
H219 H 0.70522 0.97455 0.80397 0.0
S220 S 0.56507 0.76765 0.69758 0.0
N221 N 0.60696 0.76903 0.73283 0.0
N222 N 0.57895 0.83046 0.70466 0.0
C223 C 0.61941 0.8557 0.73706 0.0
C224 C 0.63489 0.82247 0.75223 0.0
C225 C 0.67157 0.40063 0.14113 0.0
C226 C 0.69192 0.44297 0.17124 0.0
C227 C 0.59714 0.34875 0.13176 0.0
C228 C 0.54051 0.33659 0.15261 0.0
H229 H 0.71348 0.40849 0.12402 0.0
H230 H 0.58357 0.31924 0.10715 0.0
S231 S 0.56326 0.4295 0.23541 0.0
N232 N 0.64895 0.46744 0.22282 0.0
N233 N 0.5084 0.36771 0.2058 0.0
C234 C 0.55964 0.3759 0.18408 0.0
C235 C 0.63566 0.4297 0.19331 0.0
C236 C 0.37218 0.86468 0.44037 0.0
C237 C 0.44179 0.88765 0.4531 0.0
C238 C 0.30845 0.80096 0.43537 0.0
C239 C 0.30982 0.7559 0.44296 0.0
H240 H 0.36692 0.89618 0.43311 0.0
H241 H 0.2579 0.78657 0.42373 0.0
S242 S 0.47608 0.78981 0.47874 0.0
N243 N 0.50638 0.85856 0.47499 0.0
N244 N 0.3872 0.73955 0.4651 0.0
C245 C 0.37808 0.7779 0.45704 0.0
C246 C 0.4435 0.84318 0.46222 0.0
C247 C 0.61619 0.20928 0.80964 0.0
C248 C 0.55733 0.20212 0.79565 0.0
C249 C 0.63247 0.17496 0.79328 0.0
C250 C 0.59 0.13192 0.76257 0.0
H251 H 0.65158 0.24322 0.83249 0.0
H252 H 0.6803 0.18393 0.80379 0.0
S253 S 0.42201 0.08821 0.71982 0.0
N254 N 0.45142 0.1436 0.75216 0.0
N255 N 0.48077 0.07865 0.72203 0.0
C256 C 0.5281 0.12161 0.75002 0.0
C257 C 0.5121 0.15677 0.76637 0.0
C258 C 0.69691 0.79582 0.51815 0.0
C259 C 0.66025 0.81494 0.5312 0.0
C260 C 0.68108 0.7451 0.53107 0.0
C261 C 0.62792 0.71162 0.55749 0.0
H262 H 0.73943 0.82113 0.49842 0.0
H263 H 0.71172 0.73287 0.5207 0.0
S264 S 0.51163 0.73931 0.59785 0.0
N265 N 0.56481 0.79373 0.57004 0.0
N266 N 0.53581 0.69906 0.59473 0.0
C267 C 0.58965 0.72934 0.57006 0.0
C268 C 0.60561 0.78081 0.55685 0.0
C269 C 0.89359 0.59214 0.86186 0.0
C270 C 0.81628 0.53831 0.85278 0.0
C271 C 0.95425 0.59287 0.86521 0.0
C272 C 0.94758 0.54042 0.85882 0.0
H273 H 0.90821 0.63563 0.8676 0.0
H274 H 1.00867 0.63672 0.87406 0.0
S275 S 0.75861 0.38436 0.83499 0.0
N276 N 0.73989 0.4285 0.83805 0.0
N277 N 0.84905 0.4302 0.84374 0.0
C278 C 0.87042 0.48604 0.84961 0.0
C279 C 0.80804 0.48506 0.84662 0.0
C280 C 0.4058 0.82005 0.15267 0.0
C281 C 0.33483 0.79981 0.15763 0.0
C282 C 0.47241 0.88338 0.15824 0.0
C283 C 0.47158 0.93001 0.16813 0.0
H284 H 0.41034 0.78651 0.14597 0.0
H285 H 0.52522 0.89566 0.15639 0.0
S286 S 0.30177 0.90366 0.18254 0.0
N287 N 0.26949 0.83394 0.17161 0.0
N288 N 0.3931 0.95095 0.18161 0.0
C289 C 0.40117 0.91065 0.17178 0.0
C290 C 0.33361 0.84648 0.16657 0.0
C291 C 0.66456 0.40107 0.53235 0.0
C292 C 0.60101 0.35731 0.50871 0.0
C293 C 0.67857 0.45165 0.55087 0.0
C294 C 0.6301 0.46089 0.54613 0.0
H295 H 0.70334 0.39574 0.53699 0.0
H296 H 0.72721 0.48339 0.5694 0.0
S297 S 0.45543 0.3597 0.48809 0.0
N298 N 0.48863 0.32648 0.4822 0.0
N299 N 0.516 0.42221 0.51637 0.0
C300 C 0.56738 0.41846 0.522 0.0
C301 C 0.55265 0.36661 0.50341 0.0
C302 C 0.43878 0.58615 0.85943 0.0
C303 C 0.42477 0.53035 0.85369 0.0
C304 C 0.38166 0.58987 0.86245 0.0
C305 C 0.30177 0.53881 0.85875 0.0
H306 H 0.49627 0.62913 0.86269 0.0
H307 H 0.40164 0.63536 0.86851 0.0
S308 S 0.22685 0.3786 0.84411 0.0
N309 N 0.31748 0.42025 0.84517 0.0
N310 N 0.21517 0.42739 0.84977 0.0
C311 C 0.28639 0.4823 0.85272 0.0
C312 C 0.34495 0.47828 0.85036 0.0
C313 C 0.92352 0.36016 0.14055 0.0
C314 C 0.93081 0.41057 0.15369 0.0
C315 C 0.85954 0.29803 0.14671 0.0
C316 C 0.79977 0.28327 0.1665 0.0
H317 H 0.96842 0.36881 0.12607 0.0
H318 H 0.85835 0.26184 0.13715 0.0
S319 S 0.78729 0.39561 0.20525 0.0
N320 N 0.86833 0.43852 0.18617 0.0
N321 N 0.75144 0.32445 0.19766 0.0
C322 C 0.80564 0.33285 0.1787 0.0
C323 C 0.8698 0.3954 0.17237 0.0
C324 C 0.10837 0.63749 0.02451 0.0
C325 C 0.10483 0.60046 0.04782 0.0
C326 C 0.10374 0.62601 0.98615 0.0
C327 C 0.09584 0.5772 0.96937 0.0
H328 H 0.11378 0.67528 0.03596 0.0
H329 H 0.10605 0.65551 0.96943 0.0
S330 S 1.08507 0.46716 0.01807 0.0
N331 N 1.09448 0.51362 0.05122 0.0
N332 N 1.08502 0.49168 0.97939 0.0
C333 C 1.09354 0.54046 0.99241 0.0
C334 C 0.09814 0.55213 0.03148 0.0
C335 C 0.63316 0.0308 0.33628 0.0
C336 C 0.64979 0.08012 0.35841 0.0
C337 C 0.62102 0.02434 0.2982 0.0
C338 C 0.62531 0.06715 0.28092 0.0
H339 H 0.6304 0.99741 0.34845 0.0
H340 H 0.60955 0.98616 0.2821 0.0
S341 S 0.66457 0.20322 0.3277 0.0
N342 N 0.66912 0.17184 0.36106 0.0
N343 N 0.64442 0.1593 0.2897 0.0
C344 C 0.64094 0.11626 0.30313 0.0
C345 C 0.65361 0.12282 0.34185 0.0
C346 C 0.56732 0.52732 0.72245 0.0
C347 C 0.61922 0.53491 0.7449 0.0
C348 C 0.579 0.53717 0.68535 0.0
C349 C 0.64223 0.55359 0.66921 0.0
H350 H 0.51636 0.51227 0.73348 0.0
H351 H 0.53676 0.52941 0.6688 0.0
S352 S 0.79635 0.58168 0.71638 0.0
N353 N 0.73801 0.56282 0.74888 0.0
N354 N 0.75888 0.57946 0.67858 0.0
C355 C 0.69558 0.5629 0.6915 0.0
C356 C 0.68446 0.55419 0.72958 0.0
C357 C 0.55536 0.03881 0.58679 0.0
C358 C 0.61848 0.07547 0.56573 0.0
C359 C 0.56174 0.03698 0.62432 0.0
C360 C 0.63143 0.07113 0.64232 0.0
H361 H 0.50025 1.01215 0.57437 0.0
H362 H 0.51176 1.00961 0.63962 0.0
S363 S 0.81399 0.17287 0.60007 0.0
N364 N 0.75326 0.14602 0.56582 0.0
N365 N 0.7649 0.14141 0.63655 0.0
C366 C 0.69503 0.10649 0.62164 0.0
C367 C 0.68865 0.1089 0.58326 0.0
C368 C 0.66646 0.53549 0.97505 0.0
C369 C 0.61357 0.51398 0.94693 0.0
C370 C 0.64487 0.50693 0.00759 0.0
C371 C 0.56994 0.4553 0.01276 0.0
H372 H 0.72456 0.57585 0.97244 0.0
H373 H 0.68651 0.52686 0.02951 0.0
S374 S 0.41021 0.37973 0.94738 0.0
N375 N 0.48291 0.43699 0.9263 0.0
N376 N 0.44325 0.38282 0.98716 0.0
C377 C 0.51704 0.43175 0.98437 0.0
C378 C 0.53864 0.46128 0.9515 0.0
C379 C 0.15512 0.55996 0.2725 0.0
C380 C 0.16089 0.60089 0.2521 0.0
C381 C 0.15807 0.56629 0.31086 0.0
C382 C 0.1667 0.61375 0.33046 0.0
H383 H 0.14932 0.52302 0.25876 0.0
H384 H 0.15554 0.53466 0.32527 0.0
S385 S 0.17863 0.73034 0.29004 0.0
N386 N 0.17243 0.689 0.25427 0.0
N387 N 0.17622 0.70019 0.32648 0.0
C388 C 0.17037 0.65402 0.31038 0.0
C389 C 0.16777 0.64772 0.27121 0.0
loop_
_geom_bond_atom_site_label_1
_geom_bond_atom_site_label_2
_geom_bond_distance
_geom_bond_site_symmetry_2
_ccdc_geom_bond_type
La0 C2 2.928 . S
La0 O20 2.521 . S
La0 O21 2.628 . S
La0 O22 2.554 . S
La0 O23 2.757 . S
La0 O24 2.470 . S
La0 O29 2.482 . S
La0 O31 2.503 1_455 S
La1 C11 2.928 1_455 S
La1 O23 2.482 . S
La1 O25 2.503 . S
La1 O26 2.521 1_455 S
La1 O27 2.628 1_455 S
La1 O28 2.554 . S
La1 O29 2.757 . S
La1 O30 2.470 1_455 S
C2 La0 2.928 . S
C2 C3 1.503 . S
C2 O20 1.261 . S
C2 O21 1.243 . S
C3 C2 1.503 . S
C3 C4 1.394 . S
C3 C8 1.373 . S
C4 C3 1.394 . S
C4 C5 1.380 . S
C4 H32 0.930 . S
C5 C4 1.380 . S
C5 C6 1.376 . S
C5 H33 0.930 . S
C6 C5 1.376 . S
C6 C7 1.370 . S
C7 C6 1.370 . S
C7 C8 1.396 . S
C7 H34 0.929 . S
C8 C3 1.373 . S
C8 C7 1.396 . S
C8 H35 0.929 . S
C9 O22 1.240 . S
C9 O23 1.289 . S
C10 O24 1.258 . S
C10 O25 1.256 . S
C11 La1 2.928 1_655 S
C11 C12 1.503 . S
C11 O26 1.261 . S
C11 O27 1.243 . S
C12 C11 1.503 . S
C12 C13 1.394 . S
C12 C17 1.373 . S
C13 C12 1.394 . S
C13 C14 1.380 . S
C13 H36 0.930 . S
C14 C13 1.380 . S
C14 C15 1.376 . S
C14 H37 0.930 . S
C15 C14 1.376 . S
C15 C16 1.370 . S
C16 C15 1.370 . S
C16 C17 1.396 . S
C16 H38 0.929 . S
C17 C12 1.373 . S
C17 C16 1.396 . S
C17 H39 0.929 . S
C18 O28 1.240 . S
C18 O29 1.289 . S
C19 O30 1.258 . S
C19 O31 1.256 . S
O20 La0 2.521 . S
O20 C2 1.261 . S
O21 La0 2.628 . S
O21 C2 1.243 . S
O22 La0 2.554 . S
O22 C9 1.240 . S
O23 La0 2.757 . S
O23 La1 2.482 . S
O23 C9 1.289 . S
O24 La0 2.470 . S
O24 C10 1.258 . S
O25 La1 2.503 . S
O25 C10 1.256 . S
O26 La1 2.521 1_655 S
O26 C11 1.261 . S
O27 La1 2.628 1_655 S
O27 C11 1.243 . S
O28 La1 2.554 . S
O28 C18 1.240 . S
O29 La0 2.482 . S
O29 La1 2.757 . S
O29 C18 1.289 . S
O30 La1 2.470 1_655 S
O30 C19 1.258 . S
O31 La0 2.503 1_655 S
O31 C19 1.256 . S
H32 C4 0.930 . S
H33 C5 0.930 . S
H34 C7 0.929 . S
H35 C8 0.929 . S
H36 C13 0.930 . S
H37 C14 0.930 . S
H38 C16 0.929 . S
H39 C17 0.929 . S
La40 C42 2.928 1_545 S
La40 O60 2.521 1_545 S
La40 O61 2.628 1_545 S
La40 O62 2.548 . S
La40 O63 2.757 . S
La40 O64 2.470 1_545 S
La40 O69 2.482 . S
La40 O71 2.503 . S
La41 C51 2.928 . S
La41 O63 2.482 . S
La41 O65 2.503 1_545 S
La41 O66 2.521 . S
La41 O67 2.628 . S
La41 O68 2.554 . S
La41 O69 2.757 . S
La41 O70 2.470 . S
C42 La40 2.928 1_565 S
C42 C43 1.503 . S
C42 O60 1.261 . S
C42 O61 1.243 . S
C43 C42 1.503 . S
C43 C44 1.394 . S
C43 C48 1.373 . S
C44 C43 1.394 . S
C44 C45 1.380 . S
C44 H72 0.930 . S
C45 C44 1.380 . S
C45 C46 1.376 . S
C45 H73 0.930 . S
C46 C45 1.376 . S
C46 C47 1.370 . S
C47 C46 1.370 . S
C47 C48 1.396 . S
C47 H74 0.929 . S
C48 C43 1.373 . S
C48 C47 1.396 . S
C48 H75 0.929 . S
C49 O62 1.264 . S
C49 O63 1.289 . S
C50 O64 1.258 . S
C50 O65 1.256 . S
C51 La41 2.928 . S
C51 C52 1.503 . S
C51 O66 1.261 . S
C51 O67 1.243 . S
C52 C51 1.503 . S
C52 C53 1.394 . S
C52 C57 1.373 . S
C53 C52 1.394 . S
C53 C54 1.380 . S
C53 H76 0.930 . S
C54 C53 1.380 . S
C54 C55 1.376 . S
C54 H77 0.930 . S
C55 C54 1.376 . S
C55 C56 1.370 . S
C56 C55 1.370 . S
C56 C57 1.396 . S
C56 H78 0.929 . S
C57 C52 1.373 . S
C57 C56 1.396 . S
C57 H79 0.929 . S
C58 O68 1.240 . S
C58 O69 1.289 . S
C59 O70 1.258 . S
C59 O71 1.256 . S
O60 La40 2.521 1_565 S
O60 C42 1.261 . S
O61 La40 2.628 1_565 S
O61 C42 1.243 . S
O62 La40 2.548 . S
O62 C49 1.264 . S
O63 La40 2.757 . S
O63 La41 2.482 . S
O63 C49 1.289 . S
O64 La40 2.470 1_565 S
O64 C50 1.258 . S
O65 La41 2.503 1_565 S
O65 C50 1.256 . S
O66 La41 2.521 . S
O66 C51 1.261 . S
O67 La41 2.628 . S
O67 C51 1.243 . S
O68 La41 2.554 . S
O68 C58 1.240 . S
O69 La40 2.482 . S
O69 La41 2.757 . S
O69 C58 1.289 . S
O70 La41 2.470 . S
O70 C59 1.258 . S
O71 La40 2.503 . S
O71 C59 1.256 . S
H72 C44 0.930 . S
H73 C45 0.930 . S
H74 C47 0.929 . S
H75 C48 0.929 . S
H76 C53 0.930 . S
H77 C54 0.930 . S
H78 C56 0.929 . S
H79 C57 0.929 . S
La80 C82 2.928 . S
La80 O100 2.521 . S
La80 O101 2.628 . S
La80 O102 2.554 . S
La80 O103 2.757 . S
La80 O104 2.470 . S
La80 O109 2.482 . S
La80 O111 2.503 . S
La81 C91 2.928 . S
La81 O103 2.482 . S
La81 O105 2.503 . S
La81 O106 2.521 . S
La81 O107 2.628 . S
La81 O108 2.554 . S
La81 O109 2.757 . S
La81 O110 2.470 . S
C82 La80 2.928 . S
C82 C83 1.503 . S
C82 O100 1.261 . S
C82 O101 1.243 . S
C83 C82 1.503 . S
C83 C84 1.394 . S
C83 C88 1.373 . S
C84 C83 1.394 . S
C84 C85 1.380 . S
C84 H112 0.930 . S
C85 C84 1.380 . S
C85 C86 1.376 . S
C85 H113 0.930 . S
C86 C85 1.376 . S
C86 C87 1.370 . S
C87 C86 1.370 . S
C87 C88 1.396 . S
C87 H114 0.929 . S
C88 C83 1.373 . S
C88 C87 1.396 . S
C88 H115 0.929 . S
C89 O102 1.240 . S
C89 O103 1.289 . S
C90 O104 1.258 . S
C90 O105 1.256 . S
C91 La81 2.928 . S
C91 C92 1.503 . S
C91 O106 1.261 . S
C91 O107 1.243 . S
C92 C91 1.503 . S
C92 C93 1.394 . S
C92 C97 1.373 . S
C93 C92 1.394 . S
C93 C94 1.380 . S
C93 H116 0.930 . S
C94 C93 1.380 . S
C94 C95 1.376 . S
C94 H117 0.930 . S
C95 C94 1.376 . S
C95 C96 1.370 . S
C96 C95 1.370 . S
C96 C97 1.396 . S
C96 H118 0.929 . S
C97 C92 1.373 . S
C97 C96 1.396 . S
C97 H119 0.929 . S
C98 O108 1.240 . S
C98 O109 1.289 . S
C99 O110 1.258 . S
C99 O111 1.256 . S
O100 La80 2.521 . S
O100 C82 1.261 . S
O101 La80 2.628 . S
O101 C82 1.243 . S
O102 La80 2.554 . S
O102 C89 1.240 . S
O103 La80 2.757 . S
O103 La81 2.482 . S
O103 C89 1.289 . S
O104 La80 2.470 . S
O104 C90 1.258 . S
O105 La81 2.503 . S
O105 C90 1.256 . S
O106 La81 2.521 . S
O106 C91 1.261 . S
O107 La81 2.628 . S
O107 C91 1.243 . S
O108 La81 2.554 . S
O108 C98 1.240 . S
O109 La80 2.482 . S
O109 La81 2.757 . S
O109 C98 1.289 . S
O110 La81 2.470 . S
O110 C99 1.258 . S
O111 La80 2.503 . S
O111 C99 1.256 . S
H112 C84 0.930 . S
H113 C85 0.930 . S
H114 C87 0.929 . S
H115 C88 0.929 . S
H116 C93 0.930 . S
H117 C94 0.930 . S
H118 C96 0.929 . S
H119 C97 0.929 . S
H120 C125 0.930 . S
H121 C128 0.930 . S
H122 C130 0.930 . S
H123 C124 1.016 . S
C124 H123 1.016 . S
C124 N131 1.286 . S
C125 H120 0.930 . S
C125 C126 1.397 1_545 S
C125 C127 1.361 . S
C126 C125 1.397 1_565 S
C126 C130 1.390 . S
C127 C125 1.361 . S
C127 C128 1.393 . S
C127 N131 1.413 . S
C128 H121 0.930 . S
C128 C127 1.393 . S
C128 C129 1.399 . S
C129 C128 1.399 . S
C129 C130 1.381 1_545 S
C130 H122 0.930 . S
C130 C126 1.390 . S
C130 C129 1.381 1_565 S
N131 C124 1.286 . S
N131 C127 1.413 . S
H132 C137 0.930 . S
H133 C140 0.930 . S
H134 C142 0.930 . S
H135 C136 1.016 . S
C136 H135 1.016 . S
C136 N143 1.286 . S
C137 H132 0.930 . S
C137 C138 1.397 . S
C137 C139 1.361 . S
C138 C137 1.397 . S
C138 C142 1.390 . S
C139 C137 1.361 . S
C139 C140 1.393 . S
C139 N143 1.413 . S
C140 H133 0.930 . S
C140 C139 1.393 . S
C140 C141 1.399 . S
C141 C140 1.399 . S
C141 C142 1.381 . S
C142 H134 0.930 . S
C142 C138 1.390 . S
C142 C141 1.381 . S
N143 C136 1.286 . S
N143 C139 1.413 . S
H144 C149 0.930 1_655 S
H145 C152 0.930 . S
H146 C154 0.930 . S
H147 C148 1.016 . S
C148 H147 1.016 . S
C148 N155 1.286 . S
C149 H144 0.930 1_455 S
C149 C150 1.397 1_455 S
C149 C151 1.361 . S
C150 C149 1.397 1_655 S
C150 C154 1.390 . S
C151 C149 1.361 . S
C151 C152 1.393 . S
C151 N155 1.413 . S
C152 H145 0.930 . S
C152 C151 1.393 . S
C152 C153 1.399 . S
C153 C152 1.399 . S
C153 C154 1.381 1_455 S
C154 H146 0.930 . S
C154 C150 1.390 . S
C154 C153 1.381 1_655 S
N155 C148 1.286 . S
N155 C151 1.413 . S
H156 C161 0.930 . S
H157 C164 0.930 . S
H158 C166 0.930 . S
H159 C160 1.016 . S
C160 H159 1.016 . S
C160 N167 1.286 . S
C161 H156 0.930 . S
C161 C162 1.397 . S
C161 C163 1.361 1_455 S
C162 C161 1.397 . S
C162 C166 1.390 . S
C163 C161 1.361 1_655 S
C163 C164 1.393 . S
C163 N167 1.413 . S
C164 H157 0.930 . S
C164 C163 1.393 . S
C164 C165 1.399 1_655 S
C165 C164 1.399 1_455 S
C165 C166 1.381 . S
C166 H158 0.930 . S
C166 C162 1.390 . S
C166 C165 1.381 . S
N167 C160 1.286 . S
N167 C163 1.413 . S
H168 C173 0.930 . S
H169 C176 0.930 1_565 S
H170 C178 0.930 . S
H171 C172 1.016 . S
C172 H171 1.016 . S
C172 N179 1.286 . S
C173 H168 0.930 . S
C173 C174 1.397 . S
C173 C175 1.361 . S
C174 C173 1.397 . S
C174 C178 1.390 . S
C175 C173 1.361 . S
C175 C176 1.393 . S
C175 N179 1.413 1_545 S
C176 H169 0.930 1_545 S
C176 C175 1.393 . S
C176 C177 1.399 . S
C177 C176 1.399 . S
C177 C178 1.381 . S
C178 H170 0.930 . S
C178 C174 1.390 . S
C178 C177 1.381 . S
N179 C172 1.286 . S
N179 C175 1.413 1_565 S
H180 C185 0.930 . S
H181 C188 0.930 . S
H182 C190 0.930 . S
H183 C184 1.016 . S
C184 H183 1.016 . S
C184 N191 1.286 . S
C185 H180 0.930 . S
C185 C186 1.397 . S
C185 C187 1.361 . S
C186 C185 1.397 . S
C186 C190 1.390 . S
C187 C185 1.361 . S
C187 C188 1.393 . S
C187 N191 1.413 . S
C188 H181 0.930 . S
C188 C187 1.393 . S
C188 C189 1.399 . S
C189 C188 1.399 . S
C189 C190 1.381 . S
C190 H182 0.930 . S
C190 C186 1.390 . S
C190 C189 1.381 . S
N191 C184 1.286 . S
N191 C187 1.413 . S
C192 C193 1.369 . S
C192 C194 1.419 . S
C192 H196 0.930 . S
C193 C192 1.369 . S
C193 C202 1.429 . S
C194 C192 1.419 . S
C194 C195 1.363 . S
C194 H197 0.929 . S
C195 C194 1.363 . S
C195 C201 1.428 . S
H196 C192 0.930 . S
H197 C194 0.929 . S
S198 N199 1.613 . S
S198 N200 1.610 . S
N199 S198 1.613 . S
N199 C202 1.350 . S
N200 S198 1.610 . S
N200 C201 1.351 . S
C201 C195 1.428 . S
C201 N200 1.351 . S
C201 C202 1.434 . S
C202 C193 1.429 . S
C202 N199 1.350 . S
C202 C201 1.434 . S
C203 C204 1.369 . S
C203 C205 1.419 . S
C203 H207 0.930 . S
C204 C203 1.369 . S
C204 C213 1.429 . S
C205 C203 1.419 . S
C205 C206 1.363 . S
C205 H208 0.929 . S
C206 C205 1.363 . S
C206 C212 1.428 . S
H207 C203 0.930 . S
H208 C205 0.929 . S
S209 N210 1.613 . S
S209 N211 1.610 . S
N210 S209 1.613 . S
N210 C213 1.350 . S
N211 S209 1.610 . S
N211 C212 1.351 . S
C212 C206 1.428 . S
C212 N211 1.351 . S
C212 C213 1.434 . S
C213 C204 1.429 . S
C213 N210 1.350 . S
C213 C212 1.434 . S
C214 C215 1.369 . S
C214 C216 1.419 . S
C214 H218 0.930 . S
C215 C214 1.369 . S
C215 C224 1.429 . S
C216 C214 1.419 . S
C216 C217 1.363 . S
C216 H219 0.929 . S
C217 C216 1.363 . S
C217 C223 1.428 . S
H218 C214 0.930 . S
H219 C216 0.929 . S
S220 N221 1.613 . S
S220 N222 1.610 . S
N221 S220 1.613 . S
N221 C224 1.350 . S
N222 S220 1.610 . S
N222 C223 1.351 . S
C223 C217 1.428 . S
C223 N222 1.351 . S
C223 C224 1.434 . S
C224 C215 1.429 . S
C224 N221 1.350 . S
C224 C223 1.434 . S
C225 C226 1.369 . S
C225 C227 1.419 . S
C225 H229 0.930 . S
C226 C225 1.369 . S
C226 C235 1.429 . S
C227 C225 1.419 . S
C227 C228 1.363 . S
C227 H230 0.929 . S
C228 C227 1.363 . S
C228 C234 1.428 . S
H229 C225 0.930 . S
H230 C227 0.929 . S
S231 N232 1.613 . S
S231 N233 1.610 . S
N232 S231 1.613 . S
N232 C235 1.350 . S
N233 S231 1.610 . S
N233 C234 1.351 . S
C234 C228 1.428 . S
C234 N233 1.351 . S
C234 C235 1.434 . S
C235 C226 1.429 . S
C235 N232 1.350 . S
C235 C234 1.434 . S
C236 C237 1.369 . S
C236 C238 1.419 . S
C236 H240 0.930 . S
C237 C236 1.369 . S
C237 C246 1.429 . S
C238 C236 1.419 . S
C238 C239 1.363 . S
C238 H241 0.929 . S
C239 C238 1.363 . S
C239 C245 1.428 . S
H240 C236 0.930 . S
H241 C238 0.929 . S
S242 N243 1.613 . S
S242 N244 1.610 . S
N243 S242 1.613 . S
N243 C246 1.350 . S
N244 S242 1.610 . S
N244 C245 1.351 . S
C245 C239 1.428 . S
C245 N244 1.351 . S
C245 C246 1.434 . S
C246 C237 1.429 . S
C246 N243 1.350 . S
C246 C245 1.434 . S
C247 C248 1.369 . S
C247 C249 1.419 . S
C247 H251 0.930 . S
C248 C247 1.369 . S
C248 C257 1.429 . S
C249 C247 1.419 . S
C249 C250 1.363 . S
C249 H252 0.929 . S
C250 C249 1.363 . S
C250 C256 1.428 . S
H251 C247 0.930 . S
H252 C249 0.929 . S
S253 N254 1.613 . S
S253 N255 1.610 . S
N254 S253 1.613 . S
N254 C257 1.350 . S
N255 S253 1.610 . S
N255 C256 1.351 . S
C256 C250 1.428 . S
C256 N255 1.351 . S
C256 C257 1.434 . S
C257 C248 1.429 . S
C257 N254 1.350 . S
C257 C256 1.434 . S
C258 C259 1.369 . S
C258 C260 1.419 . S
C258 H262 0.930 . S
C259 C258 1.369 . S
C259 C268 1.429 . S
C260 C258 1.419 . S
C260 C261 1.363 . S
C260 H263 0.929 . S
C261 C260 1.363 . S
C261 C267 1.428 . S
H262 C258 0.930 . S
H263 C260 0.929 . S
S264 N265 1.613 . S
S264 N266 1.610 . S
N265 S264 1.613 . S
N265 C268 1.350 . S
N266 S264 1.610 . S
N266 C267 1.351 . S
C267 C261 1.428 . S
C267 N266 1.351 . S
C267 C268 1.434 . S
C268 C259 1.429 . S
C268 N265 1.350 . S
C268 C267 1.434 . S
C269 C270 1.369 . S
C269 C271 1.419 . S
C269 H273 0.930 . S
C270 C269 1.369 . S
C270 C279 1.429 . S
C271 C269 1.419 . S
C271 C272 1.363 . S
C271 H274 0.929 . S
C272 C271 1.363 . S
C272 C278 1.428 . S
H273 C269 0.930 . S
H274 C271 0.929 . S
S275 N276 1.613 . S
S275 N277 1.610 . S
N276 S275 1.613 . S
N276 C279 1.350 . S
N277 S275 1.610 . S
N277 C278 1.351 . S
C278 C272 1.428 . S
C278 N277 1.351 . S
C278 C279 1.434 . S
C279 C270 1.429 . S
C279 N276 1.350 . S
C279 C278 1.434 . S
C280 C281 1.369 . S
C280 C282 1.419 . S
C280 H284 0.930 . S
C281 C280 1.369 . S
C281 C290 1.429 . S
C282 C280 1.419 . S
C282 C283 1.363 . S
C282 H285 0.929 . S
C283 C282 1.363 . S
C283 C289 1.428 . S
H284 C280 0.930 . S
H285 C282 0.929 . S
S286 N287 1.613 . S
S286 N288 1.610 . S
N287 S286 1.613 . S
N287 C290 1.350 . S
N288 S286 1.610 . S
N288 C289 1.351 . S
C289 C283 1.428 . S
C289 N288 1.351 . S
C289 C290 1.434 . S
C290 C281 1.429 . S
C290 N287 1.350 . S
C290 C289 1.434 . S
C291 C292 1.369 . S
C291 C293 1.419 . S
C291 H295 0.930 . S
C292 C291 1.369 . S
C292 C301 1.429 . S
C293 C291 1.419 . S
C293 C294 1.363 . S
C293 H296 0.929 . S
C294 C293 1.363 . S
C294 C300 1.428 . S
H295 C291 0.930 . S
H296 C293 0.929 . S
S297 N298 1.613 . S
S297 N299 1.610 . S
N298 S297 1.613 . S
N298 C301 1.350 . S
N299 S297 1.610 . S
N299 C300 1.351 . S
C300 C294 1.428 . S
C300 N299 1.351 . S
C300 C301 1.434 . S
C301 C292 1.429 . S
C301 N298 1.350 . S
C301 C300 1.434 . S
C302 C303 1.369 . S
C302 C304 1.419 . S
C302 H306 0.930 . S
C303 C302 1.369 . S
C303 C312 1.429 . S
C304 C302 1.419 . S
C304 C305 1.363 . S
C304 H307 0.929 . S
C305 C304 1.363 . S
C305 C311 1.428 . S
H306 C302 0.930 . S
H307 C304 0.929 . S
S308 N309 1.613 . S
S308 N310 1.610 . S
N309 S308 1.613 . S
N309 C312 1.350 . S
N310 S308 1.610 . S
N310 C311 1.351 . S
C311 C305 1.428 . S
C311 N310 1.351 . S
C311 C312 1.434 . S
C312 C303 1.429 . S
C312 N309 1.350 . S
C312 C311 1.434 . S
C313 C314 1.369 . S
C313 C315 1.419 . S
C313 H317 0.930 . S
C314 C313 1.369 . S
C314 C323 1.429 . S
C315 C313 1.419 . S
C315 C316 1.363 . S
C315 H318 0.929 . S
C316 C315 1.363 . S
C316 C322 1.428 . S
H317 C313 0.930 . S
H318 C315 0.929 . S
S319 N320 1.613 . S
S319 N321 1.610 . S
N320 S319 1.613 . S
N320 C323 1.350 . S
N321 S319 1.610 . S
N321 C322 1.351 . S
C322 C316 1.428 . S
C322 N321 1.351 . S
C322 C323 1.434 . S
C323 C314 1.429 . S
C323 N320 1.350 . S
C323 C322 1.434 . S
C324 C325 1.369 . S
C324 C326 1.419 1_554 S
C324 H328 0.930 . S
C325 C324 1.369 . S
C325 C334 1.429 1_455 S
C326 C324 1.419 1_556 S
C326 C327 1.363 . S
C326 H329 0.929 . S
C327 C326 1.363 . S
C327 C333 1.428 1_456 S
H328 C324 0.930 . S
H329 C326 0.929 . S
S330 N331 1.613 . S
S330 N332 1.610 1_554 S
N331 S330 1.613 . S
N331 C334 1.350 . S
N332 S330 1.610 1_556 S
N332 C333 1.351 1_556 S
C333 C327 1.428 1_654 S
C333 N332 1.351 1_554 S
C333 C334 1.434 . S
C334 C325 1.429 1_655 S
C334 N331 1.350 . S
C334 C333 1.434 . S
C335 C336 1.369 . S
C335 C337 1.419 . S
C335 H339 0.930 1_545 S
C336 C335 1.369 . S
C336 C345 1.429 . S
C337 C335 1.419 . S
C337 C338 1.363 . S
C337 H340 0.929 1_545 S
C338 C337 1.363 . S
C338 C344 1.428 . S
H339 C335 0.930 1_565 S
H340 C337 0.929 1_565 S
S341 N342 1.613 . S
S341 N343 1.610 . S
N342 S341 1.613 . S
N342 C345 1.350 . S
N343 S341 1.610 . S
N343 C344 1.351 . S
C344 C338 1.428 . S
C344 N343 1.351 . S
C344 C345 1.434 . S
C345 C336 1.429 . S
C345 N342 1.350 . S
C345 C344 1.434 . S
C346 C347 1.369 . S
C346 C348 1.419 . S
C346 H350 0.930 . S
C347 C346 1.369 . S
C347 C356 1.429 . S
C348 C346 1.419 . S
C348 C349 1.363 . S
C348 H351 0.929 . S
C349 C348 1.363 . S
C349 C355 1.428 . S
H350 C346 0.930 . S
H351 C348 0.929 . S
S352 N353 1.613 . S
S352 N354 1.610 . S
N353 S352 1.613 . S
N353 C356 1.350 . S
N354 S352 1.610 . S
N354 C355 1.351 . S
C355 C349 1.428 . S
C355 N354 1.351 . S
C355 C356 1.434 . S
C356 C347 1.429 . S
C356 N353 1.350 . S
C356 C355 1.434 . S
C357 C358 1.369 1_565 S
C357 C359 1.419 . S
C357 H361 0.930 . S
C358 C357 1.369 1_545 S
C358 C367 1.429 . S
C359 C357 1.419 . S
C359 C360 1.363 1_565 S
C359 H362 0.929 . S
C360 C359 1.363 1_545 S
C360 C366 1.428 . S
H361 C357 0.930 . S
H362 C359 0.929 . S
S363 N364 1.613 . S
S363 N365 1.610 . S
N364 S363 1.613 . S
N364 C367 1.350 . S
N365 S363 1.610 . S
N365 C366 1.351 . S
C366 C360 1.428 . S
C366 N365 1.351 . S
C366 C367 1.434 . S
C367 C358 1.429 . S
C367 N364 1.350 . S
C367 C366 1.434 . S
C368 C369 1.369 . S
C368 C370 1.419 1_556 S
C368 H372 0.930 . S
C369 C368 1.369 . S
C369 C378 1.429 . S
C370 C368 1.419 1_554 S
C370 C371 1.363 . S
C370 H373 0.929 . S
C371 C370 1.363 . S
C371 C377 1.428 1_554 S
H372 C368 0.930 . S
H373 C370 0.929 . S
S374 N375 1.613 . S
S374 N376 1.610 1_556 S
N375 S374 1.613 . S
N375 C378 1.350 . S
N376 S374 1.610 1_554 S
N376 C377 1.351 1_554 S
C377 C371 1.428 1_556 S
C377 N376 1.351 1_556 S
C377 C378 1.434 . S
C378 C369 1.429 . S
C378 N375 1.350 . S
C378 C377 1.434 . S
C379 C380 1.369 . S
C379 C381 1.419 . S
C379 H383 0.930 . S
C380 C379 1.369 . S
C380 C389 1.429 . S
C381 C379 1.419 . S
C381 C382 1.363 . S
C381 H384 0.929 . S
C382 C381 1.363 . S
C382 C388 1.428 . S
H383 C379 0.930 . S
H384 C381 0.929 . S
S385 N386 1.613 . S
S385 N387 1.610 . S
N386 S385 1.613 . S
N386 C389 1.350 . S
N387 S385 1.610 . S
N387 C388 1.351 . S
C388 C382 1.428 . S
C388 N387 1.351 . S
C388 C389 1.434 . S
C389 C380 1.429 . S
C389 N386 1.350 . S
C389 C388 1.434 . S
C193 C6 1.152 . S
C195 C186 1.255 . S
C204 C59 1.965 . S
C206 C160 1.893 . S
C215 C86 1.380 . S
C217 C172 1.430 . S
C226 C15 0.619 . S
C228 C184 0.474 . S
C239 C162 1.868 . S
C237 C50 1.907 . S
C250 C174 1.287 . S
C248 C95 1.261 . S
C259 C46 1.356 . S
C261 C136 1.384 . S
C270 C99 3.345 . S
C272 C150 3.324 . S
C281 C10 1.930 . S
C283 C126 1.924 . S
C294 C138 1.268 . S
C292 C55 1.237 . S
C305 C148 2.828 . S
C303 C90 2.938 . S
C314 C19 1.974 . S
C316 C124 1.926 . S
C327 C153 1.823 . S
C325 C18 1.713 . S
C336 C49 1.387 . S
C338 C129 1.458 . S
C347 C98 1.506 . S
C349 C141 1.526 . S
C360 C177 1.511 . S
C358 C58 1.500 . S
C371 C189 1.177 . S
C369 C89 1.150 . S
C380 C9 1.386 . S
C382 C165 1.420 . S
