# Generated by pormake.
# Topology dag, (6,3)-cn, num edge types: 1
# Building blocks:
#     Node 0, Type 0, BuildingBlock: OJICUG_clean_sbu_0, # of connection points: 6
#     Node 1, Type 0, BuildingBlock: OJICUG_clean_sbu_0, # of connection points: 6
#     Node 2, Type 0, BuildingBlock: OJICUG_clean_sbu_0, # of connection points: 6
#     Node 3, Type 0, BuildingBlock: OJICUG_clean_sbu_0, # of connection points: 6
#     Node 4, Type 1, BuildingBlock: QEWDON_clean_linker_0, # of connection points: 3
#     Node 5, Type 1, BuildingBlock: QEWDON_clean_linker_0, # of connection points: 3
#     Node 6, Type 1, BuildingBlock: QEWDON_clean_linker_0, # of connection points: 3
#     Node 7, Type 1, BuildingBlock: QEWDON_clean_linker_0, # of connection points: 3
#     Node 8, Type 1, BuildingBlock: QEWDON_clean_linker_0, # of connection points: 3
#     Node 9, Type 1, BuildingBlock: QEWDON_clean_linker_0, # of connection points: 3
#     Node 10, Type 1, BuildingBlock: QEWDON_clean_linker_0, # of connection points: 3
#     Node 11, Type 1, BuildingBlock: QEWDON_clean_linker_0, # of connection points: 3
#     Edge 12, Type (0, 1), BuildingBlock: EZIPEK_clean_linker_0, # of connection points: 2
#     Edge 13, Type (0, 1), BuildingBlock: EZIPEK_clean_linker_0, # of connection points: 2
#     Edge 14, Type (0, 1), BuildingBlock: EZIPEK_clean_linker_0, # of connection points: 2
#     Edge 15, Type (0, 1), BuildingBlock: EZIPEK_clean_linker_0, # of connection points: 2
#     Edge 16, Type (0, 1), BuildingBlock: EZIPEK_clean_linker_0, # of connection points: 2
#     Edge 17, Type (0, 1), BuildingBlock: EZIPEK_clean_linker_0, # of connection points: 2
#     Edge 18, Type (0, 1), BuildingBlock: EZIPEK_clean_linker_0, # of connection points: 2
#     Edge 19, Type (0, 1), BuildingBlock: EZIPEK_clean_linker_0, # of connection points: 2
#     Edge 20, Type (0, 1), BuildingBlock: EZIPEK_clean_linker_0, # of connection points: 2
#     Edge 21, Type (0, 1), BuildingBlock: EZIPEK_clean_linker_0, # of connection points: 2
#     Edge 22, Type (0, 1), BuildingBlock: EZIPEK_clean_linker_0, # of connection points: 2
#     Edge 23, Type (0, 1), BuildingBlock: EZIPEK_clean_linker_0, # of connection points: 2
#     Edge 24, Type (0, 1), BuildingBlock: EZIPEK_clean_linker_0, # of connection points: 2
#     Edge 25, Type (0, 1), BuildingBlock: EZIPEK_clean_linker_0, # of connection points: 2
#     Edge 26, Type (0, 1), BuildingBlock: EZIPEK_clean_linker_0, # of connection points: 2
#     Edge 27, Type (0, 1), BuildingBlock: EZIPEK_clean_linker_0, # of connection points: 2
#     Edge 28, Type (0, 1), BuildingBlock: EZIPEK_clean_linker_0, # of connection points: 2
#     Edge 29, Type (0, 1), BuildingBlock: EZIPEK_clean_linker_0, # of connection points: 2
#     Edge 30, Type (0, 1), BuildingBlock: EZIPEK_clean_linker_0, # of connection points: 2
#     Edge 31, Type (0, 1), BuildingBlock: EZIPEK_clean_linker_0, # of connection points: 2
#     Edge 32, Type (0, 1), BuildingBlock: EZIPEK_clean_linker_0, # of connection points: 2
#     Edge 33, Type (0, 1), BuildingBlock: EZIPEK_clean_linker_0, # of connection points: 2
#     Edge 34, Type (0, 1), BuildingBlock: EZIPEK_clean_linker_0, # of connection points: 2
#     Edge 35, Type (0, 1), BuildingBlock: EZIPEK_clean_linker_0, # of connection points: 2
# Relax obj value: 0.045
# Max RMSD: 0.078
# Mean RMSD: 0.072
data_MOF--net-dag--node1-OJICUG_clean_sbu_0--node2-QEWDON_clean_linker_0--edge1-EZIPEK_clean_linker_0
_symmetry_space_group_name_H-M    P1
_symmetry_Int_Tables_number       1
_symmetry_cell_setting            triclinic
loop_
_symmetry_equiv_pos_as_xyz
'x, y, z'
_cell_length_a     29.660606
_cell_length_b     29.723602
_cell_length_c     31.280319
_cell_angle_alpha  90.158979
_cell_angle_beta   90.060699
_cell_angle_gamma 89.972471
loop_
_atom_site_label
_atom_site_type_symbol
_atom_site_fract_x
_atom_site_fract_y
_atom_site_fract_z
_atom_type_partial_charge
Sc0 Sc 0.10085 0.89098 0.99178 0.0
Sc1 Sc 0.12807 0.77626 0.00581 0.0
Sc2 Sc 0.2131 0.85995 0.01321 0.0
O3 O 0.14736 0.84239 0.00356 0.0
C4 C 0.18572 0.92908 0.94012 0.0
C5 C 0.06809 0.81247 0.92834 0.0
C6 C 0.22258 0.77005 0.95718 0.0
C7 C 0.04541 0.8246 0.05233 0.0
C8 C 0.16181 0.93976 0.06223 0.0
C9 C 0.19828 0.78258 0.0831 0.0
O10 O 0.14366 0.92649 0.94764 0.0
O11 O 0.08782 0.78074 0.94816 0.0
O12 O 0.23757 0.80732 0.97134 0.0
O13 O 0.05278 0.86274 0.03553 0.0
O14 O 0.19682 0.916 0.05534 0.0
O15 O 0.16549 0.76383 0.06388 0.0
O16 O 0.12471 0.9337 0.04269 0.0
O17 O 0.06943 0.78999 0.04494 0.0
O18 O 0.21822 0.8175 0.06913 0.0
O19 O 0.07119 0.85361 0.9395 0.0
O20 O 0.21486 0.90496 0.95913 0.0
O21 O 0.18395 0.75463 0.96686 0.0
Sc22 Sc 0.72411 0.61581 0.49234 0.0
Sc23 Sc 0.63323 0.69287 0.50368 0.0
Sc24 Sc 0.6159 0.57836 0.51504 0.0
O25 O 0.65813 0.62914 0.50275 0.0
C26 C 0.67 0.54137 0.43648 0.0
C27 C 0.70588 0.69546 0.42757 0.0
C28 C 0.5532 0.64506 0.45916 0.0
C29 C 0.72614 0.70249 0.55423 0.0
C30 C 0.70506 0.53965 0.55893 0.0
C31 C 0.57897 0.64505 0.5801 0.0
O32 O 0.70648 0.56172 0.44715 0.0
O33 O 0.67374 0.71282 0.44903 0.0
O34 O 0.55924 0.61012 0.48204 0.0
O35 O 0.74496 0.66909 0.53562 0.0
O36 O 0.66386 0.53745 0.54856 0.0
O37 O 0.58472 0.6788 0.55547 0.0
O38 O 0.73128 0.56968 0.54483 0.0
O39 O 0.68508 0.71374 0.54816 0.0
O40 O 0.60155 0.60937 0.57514 0.0
O41 O 0.7267 0.66034 0.43921 0.0
O42 O 0.63285 0.546 0.45635 0.0
O43 O 0.58072 0.67767 0.45894 0.0
Sc44 Sc 0.86957 0.22039 0.99716 0.0
Sc45 Sc 0.7898 0.13129 0.99106 0.0
Sc46 Sc 0.90218 0.10896 0.01187 0.0
O47 O 0.85371 0.15414 0.00063 0.0
C48 C 0.95835 0.17932 0.95691 0.0
C49 C 0.80512 0.20115 0.91643 0.0
C50 C 0.84832 0.05473 0.94486 0.0
C51 C 0.77208 0.22526 0.03825 0.0
C52 C 0.92523 0.18593 0.07848 0.0
C53 C 0.8183 0.06913 0.06476 0.0
O54 O 0.93038 0.21141 0.96016 0.0
O55 O 0.788 0.16491 0.93067 0.0
O56 O 0.88524 0.07326 0.95494 0.0
O57 O 0.81207 0.23965 0.03436 0.0
O58 O 0.92302 0.14457 0.06792 0.0
O59 O 0.78861 0.09623 0.05094 0.0
O60 O 0.90843 0.21777 0.05621 0.0
O61 O 0.75863 0.18837 0.02209 0.0
O62 O 0.85843 0.06785 0.05056 0.0
O63 O 0.8327 0.22595 0.93728 0.0
O64 O 0.9526 0.14176 0.97493 0.0
O65 O 0.81081 0.06894 0.95933 0.0
Sc66 Sc 0.39891 0.38365 0.48841 0.0
Sc67 Sc 0.28829 0.34635 0.50682 0.0
Sc68 Sc 0.37823 0.26769 0.49817 0.0
O69 O 0.35512 0.33247 0.49773 0.0
C70 C 0.43397 0.30911 0.42169 0.0
C71 C 0.31322 0.4156 0.43392 0.0
C72 C 0.28262 0.25574 0.45248 0.0
C73 C 0.33436 0.4273 0.55825 0.0
C74 C 0.46071 0.31834 0.54311 0.0
C75 C 0.30987 0.27186 0.57713 0.0
O76 O 0.43056 0.34918 0.43578 0.0
O77 O 0.28451 0.39053 0.45229 0.0
O78 O 0.32229 0.24273 0.46127 0.0
O79 O 0.37252 0.42329 0.54031 0.0
O80 O 0.43917 0.28291 0.53317 0.0
O81 O 0.28628 0.30394 0.56222 0.0
O82 O 0.44848 0.35741 0.53168 0.0
O83 O 0.30065 0.40272 0.54915 0.0
O84 O 0.34404 0.25514 0.55812 0.0
O85 O 0.35473 0.41638 0.44397 0.0
O86 O 0.41517 0.27538 0.43915 0.0
O87 O 0.26607 0.29234 0.4663 0.0
H88 H 0.16012 0.0704 0.23351 0.0
C89 C 0.13253 0.0901 0.22062 0.0
C90 C 0.11785 0.08275 0.17828 0.0
C91 C 0.10891 0.11991 0.24741 0.0
H92 H 0.06917 0.10234 0.13033 0.0
C93 C 0.08124 0.1079 0.16267 0.0
C94 C 0.05966 0.13987 0.18851 0.0
C95 C 0.07338 0.14563 0.23088 0.0
C96 C 0.11634 0.11996 0.2939 0.0
H97 H 0.05527 0.16888 0.25142 0.0
C98 C 0.15311 0.14262 0.3122 0.0
C99 C 0.15589 0.14752 0.3569 0.0
C100 C 0.08363 0.10039 0.32038 0.0
H101 H 0.05497 0.08294 0.30663 0.0
C102 C 0.08711 0.10399 0.3647 0.0
H103 H 0.1782 0.15817 0.29184 0.0
C104 C 0.12274 0.12786 0.38292 0.0
H105 H 0.12433 0.13135 0.41738 0.0
H106 H 0.06164 0.08903 0.38493 0.0
H107 H 0.42897 0.65157 0.74661 0.0
C108 C 0.40666 0.63287 0.72563 0.0
C109 C 0.41914 0.62523 0.68282 0.0
C110 C 0.36766 0.61228 0.74233 0.0
H111 H 0.40224 0.59037 0.62447 0.0
C112 C 0.39161 0.59804 0.65689 0.0
C113 C 0.35546 0.57425 0.67419 0.0
C114 C 0.34219 0.58298 0.71638 0.0
C115 C 0.35888 0.61275 0.78878 0.0
H116 H 0.31471 0.56383 0.73014 0.0
C117 C 0.33802 0.64964 0.80901 0.0
C118 C 0.32592 0.64692 0.85255 0.0
C119 C 0.36892 0.57402 0.81256 0.0
H120 H 0.38488 0.5453 0.79742 0.0
C121 C 0.35792 0.57172 0.85579 0.0
H122 H 0.32985 0.67952 0.79079 0.0
C123 C 0.33624 0.60775 0.87565 0.0
H124 H 0.32721 0.60502 0.9091 0.0
H125 H 0.36564 0.54166 0.87383 0.0
H126 H 0.8617 0.78235 0.17459 0.0
C127 C 0.85365 0.81768 0.17075 0.0
C128 C 0.88316 0.84592 0.14808 0.0
C129 C 0.81204 0.83457 0.18529 0.0
H130 H 0.89235 0.91174 0.12074 0.0
C131 C 0.87077 0.89061 0.14019 0.0
C132 C 0.82922 0.90719 0.15422 0.0
C133 C 0.80058 0.87964 0.17796 0.0
C134 C 0.77652 0.80418 0.20057 0.0
H135 H 0.76767 0.89214 0.18738 0.0
C136 C 0.77517 0.78996 0.24328 0.0
C137 C 0.73788 0.76539 0.25812 0.0
C138 C 0.74113 0.79296 0.17268 0.0
H139 H 0.74162 0.8041 0.13972 0.0
C140 C 0.70446 0.76809 0.18728 0.0
H141 H 0.80233 0.79871 0.26498 0.0
C142 C 0.70263 0.75456 0.22986 0.0
H143 H 0.67385 0.73536 0.2408 0.0
H144 H 0.67722 0.75963 0.16565 0.0
H145 H 0.75668 0.34542 0.66756 0.0
C146 C 0.72279 0.34002 0.65564 0.0
C147 C 0.69942 0.37542 0.63585 0.0
C148 C 0.70309 0.29699 0.65758 0.0
H149 H 0.63775 0.39561 0.60487 0.0
C150 C 0.65571 0.36832 0.62037 0.0
C151 C 0.63592 0.32574 0.62232 0.0
C152 C 0.65979 0.29007 0.64057 0.0
C153 C 0.72737 0.25857 0.67647 0.0
H154 H 0.64457 0.25691 0.64147 0.0
C155 C 0.74281 0.26067 0.71885 0.0
C156 C 0.7597 0.22187 0.73879 0.0
C157 C 0.73138 0.21811 0.65341 0.0
H158 H 0.71978 0.2159 0.62061 0.0
C159 C 0.74967 0.18 0.67272 0.0
H160 H 0.73938 0.29159 0.73703 0.0
C161 C 0.76325 0.18163 0.71538 0.0
H162 H 0.77623 0.15142 0.73031 0.0
H163 H 0.75243 0.14888 0.65485 0.0
H164 H 0.66 0.42588 0.24973 0.0
C165 C 0.63678 0.40366 0.26607 0.0
C166 C 0.62863 0.40945 0.31 0.0
C167 C 0.61241 0.3712 0.24285 0.0
H168 H 0.58872 0.38834 0.36383 0.0
C169 C 0.59638 0.38258 0.33034 0.0
C170 C 0.5717 0.35055 0.30723 0.0
C171 C 0.58061 0.34413 0.26371 0.0
C172 C 0.61467 0.36964 0.19593 0.0
H173 H 0.56076 0.32008 0.24557 0.0
C174 C 0.64734 0.34349 0.17507 0.0
C175 C 0.64563 0.33804 0.1304 0.0
C176 C 0.58111 0.39136 0.17199 0.0
H177 H 0.55547 0.41136 0.18779 0.0
C178 C 0.57984 0.38663 0.12762 0.0
H179 H 0.67304 0.32632 0.19353 0.0
C180 C 0.61165 0.35976 0.10688 0.0
H181 H 0.60979 0.3558 0.07248 0.0
H182 H 0.55373 0.40327 0.10933 0.0
H183 H 0.24111 0.11621 0.82498 0.0
C184 C 0.20785 0.12618 0.83575 0.0
C185 C 0.18037 0.09512 0.85742 0.0
C186 C 0.19349 0.17107 0.83125 0.0
H187 H 0.11762 0.08522 0.89083 0.0
C188 C 0.13818 0.10869 0.87287 0.0
C189 C 0.1238 0.1532 0.86823 0.0
C190 C 0.15129 0.18415 0.84728 0.0
C191 C 0.2232 0.20597 0.81323 0.0
H192 H 0.14039 0.21889 0.84478 0.0
C193 C 0.23883 0.20289 0.77097 0.0
C194 C 0.26013 0.24007 0.75192 0.0
C195 C 0.23189 0.24509 0.83723 0.0
H196 H 0.22032 0.24794 0.86997 0.0
C197 C 0.25444 0.28129 0.81888 0.0
H198 H 0.23211 0.17291 0.7522 0.0
C199 C 0.26786 0.27915 0.77628 0.0
H200 H 0.28417 0.30814 0.76215 0.0
H201 H 0.26059 0.31147 0.83743 0.0
H202 H 0.37012 0.70111 0.34185 0.0
C203 C 0.36004 0.66608 0.3425 0.0
C204 C 0.38736 0.63408 0.36341 0.0
C205 C 0.31819 0.65293 0.32508 0.0
H206 H 0.39216 0.56548 0.38504 0.0
C207 C 0.37232 0.58962 0.36707 0.0
C208 C 0.33041 0.57683 0.35063 0.0
C209 C 0.30417 0.60802 0.32846 0.0
C210 C 0.28401 0.68609 0.31178 0.0
H211 H 0.27097 0.59823 0.31719 0.0
C212 C 0.28037 0.70032 0.269 0.0
C213 C 0.24084 0.72229 0.25487 0.0
C214 C 0.2494 0.69628 0.34079 0.0
H215 H 0.25148 0.68507 0.37368 0.0
C216 C 0.21067 0.71845 0.32714 0.0
H217 H 0.307 0.69244 0.2465 0.0
C218 C 0.20589 0.73042 0.28437 0.0
H219 H 0.17491 0.74657 0.27428 0.0
H220 H 0.18371 0.72528 0.34954 0.0
H221 H 0.92404 0.81097 0.75324 0.0
C222 C 0.90917 0.83422 0.77595 0.0
C223 C 0.9249 0.83534 0.81835 0.0
C224 C 0.87718 0.86616 0.7622 0.0
H225 H 0.9155 0.86347 0.88084 0.0
C226 C 0.90481 0.8647 0.84768 0.0
C227 C 0.87605 0.89926 0.83401 0.0
C228 C 0.86244 0.8997 0.79097 0.0
C229 C 0.86183 0.86753 0.71706 0.0
H230 H 0.84078 0.92652 0.77965 0.0
C231 C 0.84294 0.82932 0.6971 0.0
C232 C 0.82451 0.83263 0.65564 0.0
C233 C 0.86374 0.90831 0.69446 0.0
H234 H 0.87853 0.93802 0.70892 0.0
C235 C 0.84642 0.91131 0.65313 0.0
H236 H 0.84109 0.7977 0.71417 0.0
C237 C 0.82659 0.87387 0.63393 0.0
H238 H 0.81272 0.87704 0.60201 0.0
H239 H 0.84794 0.94292 0.63609 0.0
C240 C 0.1618 0.96949 0.13714 0.0
C241 C 0.16384 0.97804 0.09288 0.0
C242 C 0.15212 0.05816 0.10801 0.0
C243 C 0.13849 0.04726 0.15039 0.0
N244 N 0.12296 0.98849 0.20215 0.0
N245 N 0.16188 0.03155 0.03518 0.0
C246 C 0.14186 0.0019 0.16448 0.0
C247 C 0.15949 0.02284 0.07797 0.0
N248 N 0.17921 0.93073 0.15321 0.0
N249 N 0.15896 0.10203 0.09684 0.0
H250 H 0.16976 0.00676 0.01271 0.0
H251 H 0.15393 0.06272 0.02198 0.0
H252 H 0.15592 0.12844 0.1187 0.0
H253 H 0.17218 0.11167 0.06742 0.0
H254 H 0.18178 0.92484 0.18598 0.0
H255 H 0.19667 0.90803 0.13393 0.0
H256 H 0.12171 0.95482 0.21138 0.0
H257 H 0.10393 0.00968 0.22162 0.0
C258 C 0.52007 0.6003 0.61907 0.0
C259 C 0.54028 0.64294 0.6109 0.0
C260 C 0.48155 0.67744 0.65603 0.0
C261 C 0.46577 0.63392 0.66699 0.0
N262 N 0.4837 0.55504 0.67247 0.0
N263 N 0.54571 0.7213 0.63196 0.0
C264 C 0.49067 0.59593 0.65389 0.0
C265 C 0.52279 0.68153 0.63254 0.0
N266 N 0.52428 0.56503 0.5912 0.0
N267 N 0.45685 0.71448 0.66675 0.0
H268 H 0.57722 0.72478 0.61767 0.0
H269 H 0.53575 0.74923 0.64983 0.0
H270 H 0.42719 0.71234 0.68451 0.0
H271 H 0.46452 0.74664 0.65574 0.0
H272 H 0.50753 0.53455 0.59571 0.0
H273 H 0.53771 0.56834 0.56061 0.0
H274 H 0.50293 0.52679 0.66459 0.0
H275 H 0.46227 0.55105 0.69865 0.0
C276 C 0.82282 0.03292 0.13592 0.0
C277 C 0.80513 0.03268 0.09397 0.0
C278 C 0.78793 0.95247 0.09973 0.0
C279 C 0.81355 0.95122 0.13808 0.0
N280 N 0.8527 0.98927 0.19508 0.0
N281 N 0.76773 0.99427 0.03606 0.0
C282 C 0.82951 0.99138 0.15736 0.0
C283 C 0.78555 0.99327 0.07639 0.0
N284 N 0.83325 0.07309 0.15473 0.0
N285 N 0.7669 0.91444 0.08519 0.0
H286 H 0.76305 0.02405 0.01913 0.0
H287 H 0.75891 0.96574 0.01862 0.0
H288 H 0.76973 0.8833 0.10014 0.0
H289 H 0.74395 0.91412 0.06 0.0
H290 H 0.84345 0.07646 0.1864 0.0
H291 H 0.82754 0.10365 0.13925 0.0
H292 H 0.86967 0.01643 0.20864 0.0
H293 H 0.85625 0.95944 0.21229 0.0
C294 C 0.54452 0.32636 0.53795 0.0
C295 C 0.50613 0.31392 0.56241 0.0
C296 C 0.55316 0.30716 0.62636 0.0
C297 C 0.59162 0.31815 0.60159 0.0
N298 N 0.62588 0.3251 0.53202 0.0
N299 N 0.47671 0.27886 0.62593 0.0
C300 C 0.5879 0.32375 0.55676 0.0
C301 C 0.51131 0.29984 0.60539 0.0
N302 N 0.53969 0.34105 0.49681 0.0
N303 N 0.55604 0.30566 0.66994 0.0
H304 H 0.44663 0.27095 0.61058 0.0
H305 H 0.47983 0.26465 0.6562 0.0
H306 H 0.58599 0.31137 0.68658 0.0
H307 H 0.52797 0.3026 0.6897 0.0
H308 H 0.56567 0.356 0.47955 0.0
H309 H 0.50913 0.34048 0.48042 0.0
H310 H 0.62519 0.32452 0.49873 0.0
H311 H 0.65832 0.32209 0.54463 0.0
C312 C 0.69284 0.47084 0.39679 0.0
C313 C 0.6688 0.51218 0.39787 0.0
C314 C 0.62505 0.48946 0.33472 0.0
C315 C 0.6482 0.44773 0.33436 0.0
N316 N 0.71061 0.40234 0.35747 0.0
N317 N 0.6198 0.56528 0.36274 0.0
C318 C 0.68452 0.43982 0.36283 0.0
C319 C 0.63763 0.52294 0.36491 0.0
N320 N 0.72109 0.45984 0.4297 0.0
N321 N 0.58911 0.49599 0.30798 0.0
H322 H 0.62674 0.59009 0.38539 0.0
H323 H 0.60115 0.577 0.33686 0.0
H324 H 0.57977 0.47299 0.28435 0.0
H325 H 0.56688 0.52296 0.31061 0.0
H326 H 0.73545 0.42815 0.43351 0.0
H327 H 0.72812 0.48167 0.45495 0.0
H328 H 0.74008 0.39628 0.37462 0.0
H329 H 0.70479 0.37912 0.33298 0.0
C330 C 0.04238 0.17775 0.95814 0.0
C331 C 0.00201 0.18582 0.93485 0.0
C332 C 0.0428 0.17822 0.8673 0.0
C333 C 0.08268 0.16868 0.89059 0.0
N334 N 0.12391 0.17202 0.95701 0.0
N335 N 0.96708 0.20884 0.86883 0.0
C336 C 0.08358 0.17262 0.93574 0.0
C337 C 0.0033 0.19119 0.88986 0.0
N338 N 0.04098 0.17375 0.00166 0.0
N339 N 0.04209 0.1728 0.82389 0.0
H340 H 0.93847 0.22028 0.88473 0.0
H341 H 0.96734 0.21685 0.83644 0.0
H342 H 0.07053 0.16372 0.80627 0.0
H343 H 0.0127 0.17414 0.8057 0.0
H344 H 0.06775 0.16196 0.02005 0.0
H345 H 0.01202 0.18047 0.0194 0.0
H346 H 0.12725 0.17897 0.9895 0.0
H347 H 0.15483 0.16853 0.94147 0.0
C348 C 0.32255 0.45119 0.36277 0.0
C349 C 0.29856 0.44903 0.40181 0.0
C350 C 0.2831 0.52944 0.39906 0.0
C351 C 0.31166 0.53259 0.36276 0.0
N352 N 0.34788 0.49688 0.30293 0.0
N353 N 0.24022 0.48087 0.44597 0.0
C354 C 0.32748 0.49333 0.34192 0.0
C355 C 0.27311 0.4864 0.41596 0.0
N356 N 0.34212 0.413 0.34717 0.0
N357 N 0.26836 0.56755 0.41928 0.0
H358 H 0.23156 0.44946 0.4581 0.0
H359 H 0.21823 0.50644 0.45519 0.0
H360 H 0.27449 0.59986 0.40784 0.0
H361 H 0.25248 0.56731 0.44895 0.0
H362 H 0.36412 0.41226 0.32132 0.0
H363 H 0.3361 0.38168 0.36109 0.0
H364 H 0.35822 0.46949 0.28463 0.0
H365 H 0.35158 0.5277 0.28741 0.0
C366 C 0.04602 0.82556 0.8526 0.0
C367 C 0.03846 0.802 0.89113 0.0
C368 C 0.96381 0.77955 0.8646 0.0
C369 C 0.96717 0.81271 0.83247 0.0
N370 N 0.01271 0.86591 0.79341 0.0
N371 N 0.99149 0.75191 0.93258 0.0
C372 C 0.00913 0.8343 0.82484 0.0
C373 C 0.99826 0.77642 0.89627 0.0
N374 N 0.08857 0.83981 0.84303 0.0
N375 N 0.92667 0.75247 0.86535 0.0
H376 H 0.01602 0.74766 0.95602 0.0
H377 H 0.96074 0.73735 0.94058 0.0
H378 H 0.90131 0.75514 0.84229 0.0
H379 H 0.923 0.7252 0.88586 0.0
H380 H 0.09733 0.85402 0.8138 0.0
H381 H 0.11597 0.83285 0.86292 0.0
H382 H 0.0404 0.88717 0.79023 0.0
H383 H 0.98708 0.87231 0.77148 0.0
C384 C 0.81748 -0.00023 0.88834 0.0
C385 C 0.85106 0.0127 0.91862 0.0
C386 C 0.90086 0.95524 0.88948 0.0
C387 C 0.8658 0.93778 0.86366 0.0
N388 N 0.78569 0.9369 0.84914 0.0
N389 N 0.91606 0.98653 0.95876 0.0
C390 C 0.82239 0.95798 0.86622 0.0
C391 C 0.8903 0.98564 0.92254 0.0
N392 N 0.78233 0.02763 0.87879 0.0
N393 N 0.94436 0.94345 0.88119 0.0
H394 H 0.90648 0.00401 0.98625 0.0
H395 H 0.94312 0.96462 0.96339 0.0
H396 H 0.97206 0.95727 0.8971 0.0
H397 H 0.97206 0.95727 0.8971 0.0
H398 H 0.75945 0.02054 0.85435 0.0
H399 H 0.77889 0.05984 0.89151 0.0
H400 H 0.75295 0.94894 0.85321 0.0
H401 H 0.78753 0.90489 0.8355 0.0
C402 C 0.45359 0.32317 0.34619 0.0
C403 C 0.46477 0.30231 0.38516 0.0
C404 C 0.54337 0.2964 0.36202 0.0
C405 C 0.53377 0.32713 0.32862 0.0
N406 N 0.47916 0.37101 0.28893 0.0
N407 N 0.51921 0.26425 0.42945 0.0
C408 C 0.48854 0.34002 0.31989 0.0
C409 C 0.50922 0.28642 0.39243 0.0
N410 N 0.40937 0.32698 0.3348 0.0
N411 N 0.58524 0.27742 0.36467 0.0
H412 H 0.49462 0.255 0.45153 0.0
H413 H 0.5519 0.25677 0.43926 0.0
H414 H 0.61061 0.28432 0.34252 0.0
H415 H 0.59361 0.25212 0.3862 0.0
H416 H 0.39897 0.33797 0.30476 0.0
H417 H 0.3836 0.31416 0.35397 0.0
H418 H 0.44734 0.38523 0.28483 0.0
H419 H 0.50367 0.38513 0.26928 0.0
C420 C 0.22516 0.00279 0.92873 0.0
C421 C 0.20071 0.9659 0.91127 0.0
C422 C 0.1815 0.01151 0.84845 0.0
C423 C 0.19717 0.05015 0.87044 0.0
N424 N 0.23435 0.08374 0.93117 0.0
N425 N 0.16153 0.93219 0.85211 0.0
C426 C 0.22024 0.04597 0.90995 0.0
C427 C 0.18131 0.96927 0.86991 0.0
N428 N 0.25232 0.99707 0.96363 0.0
N429 N 0.16614 0.01579 0.80747 0.0
H430 H 0.16412 0.90045 0.8661 0.0
H431 H 0.14236 0.93267 0.82426 0.0
H432 H 0.16632 0.04661 0.79153 0.0
H433 H 0.15644 0.98888 0.78823 0.0
H434 H 0.27422 0.02177 0.97491 0.0
H435 H 0.25676 0.96649 0.97908 0.0
H436 H 0.24497 0.08378 0.9629 0.0
H437 H 0.23297 0.11583 0.91787 0.0
C438 C 0.4686 0.65034 0.4557 0.0
C439 C 0.51071 0.6491 0.434 0.0
C440 C 0.47135 0.64612 0.36476 0.0
C441 C 0.42945 0.64674 0.38649 0.0
N442 N 0.38719 0.65894 0.45109 0.0
N443 N 0.5524 0.65631 0.36801 0.0
C444 C 0.42786 0.65194 0.43157 0.0
C445 C 0.51215 0.65061 0.38854 0.0
N446 N 0.4676 0.64956 0.49943 0.0
N447 N 0.47217 0.63896 0.32157 0.0
H448 H 0.58322 0.65813 0.38389 0.0
H449 H 0.55515 0.66256 0.33539 0.0
H450 H 0.44295 0.63732 0.30303 0.0
H451 H 0.50145 0.63212 0.30442 0.0
H452 H 0.43847 0.64437 0.51725 0.0
H453 H 0.49644 0.65241 0.51831 0.0
H454 H 0.38353 0.66707 0.48327 0.0
H455 H 0.35687 0.66029 0.4342 0.0
C456 C 0.34623 0.45389 0.63303 0.0
C457 C 0.32952 0.46246 0.59151 0.0
C458 C 0.31468 0.54096 0.61146 0.0
C459 C 0.33882 0.53426 0.65007 0.0
N460 N 0.38138 0.48464 0.69636 0.0
N461 N 0.29822 0.51371 0.53986 0.0
C462 C 0.35492 0.4906 0.661 0.0
C463 C 0.31316 0.50578 0.58049 0.0
N464 N 0.35396 0.41054 0.64558 0.0
N465 N 0.29359 0.58116 0.60455 0.0
H466 H 0.29582 0.48838 0.51684 0.0
H467 H 0.29065 0.5456 0.52819 0.0
H468 H 0.29426 0.60723 0.62698 0.0
H469 H 0.27232 0.58725 0.57871 0.0
H470 H 0.36193 0.40161 0.67687 0.0
H471 H 0.34802 0.38305 0.62554 0.0
H472 H 0.39876 0.45494 0.70268 0.0
H473 H 0.38891 0.5102 0.71802 0.0
C474 C 0.00635 0.82088 0.12348 0.0
C475 C 0.00389 0.8199 0.07818 0.0
C476 C 0.92134 0.8196 0.08173 0.0
C477 C 0.92397 0.82826 0.12623 0.0
N478 N 0.96788 0.83722 0.19038 0.0
N479 N 0.95966 0.81981 0.01339 0.0
C480 C 0.96619 0.82817 0.14756 0.0
C481 C 0.96149 0.81908 0.05708 0.0
N482 N 0.04709 0.81535 0.14323 0.0
N483 N 0.88025 0.81214 0.06317 0.0
H484 H 0.98832 0.8182 0.99419 0.0
H485 H 0.93011 0.82478 0.99605 0.0
H486 H 0.8502 0.81256 0.0805 0.0
H487 H 0.87613 0.80152 0.03167 0.0
H488 H 0.05096 0.81195 0.17613 0.0
H489 H 0.07697 0.81063 0.12626 0.0
H490 H 0.99765 0.84292 0.20717 0.0
H491 H 0.93892 0.84104 0.20896 0.0
C492 C 0.74831 0.46871 0.57008 0.0
C493 C 0.7223 0.50415 0.58769 0.0
C494 C 0.70449 0.45748 0.64975 0.0
C495 C 0.72049 0.41959 0.62691 0.0
N496 N 0.7613 0.38818 0.56736 0.0
N497 N 0.68162 0.53601 0.64686 0.0
C498 C 0.74487 0.42512 0.5883 0.0
C499 C 0.70309 0.49992 0.62895 0.0
N500 N 0.77496 0.47648 0.53529 0.0
N501 N 0.68929 0.45197 0.69059 0.0
H502 H 0.68235 0.56786 0.63285 0.0
H503 H 0.66262 0.53447 0.67475 0.0
H504 H 0.69035 0.42073 0.70578 0.0
H505 H 0.67916 0.4783 0.71034 0.0
H506 H 0.79743 0.45294 0.52287 0.0
H507 H 0.77772 0.50804 0.52114 0.0
H508 H 0.77391 0.38892 0.53634 0.0
H509 H 0.76066 0.35604 0.58058 0.0
C510 C 0.99582 0.21464 0.11255 0.0
C511 C 0.95223 0.19579 0.11716 0.0
C512 C 0.97651 0.15268 0.17924 0.0
C513 C 0.02151 0.16604 0.17076 0.0
N514 N 0.07269 0.21943 0.13966 0.0
N515 N 0.89703 0.16455 0.164 0.0
C516 C 0.03063 0.20073 0.14096 0.0
C517 C 0.9413 0.17114 0.15415 0.0
N518 N 0.00429 0.2435 0.07965 0.0
N519 N 0.96781 0.12004 0.20878 0.0
H520 H 0.87131 0.17805 0.14511 0.0
H521 H 0.88624 0.15013 0.19251 0.0
H522 H 0.99277 0.10588 0.22799 0.0
H523 H 0.93624 0.1053 0.21268 0.0
H524 H 0.03631 0.25446 0.07105 0.0
H525 H 0.97876 0.25623 0.06024 0.0
H526 H 0.08134 0.24671 0.12061 0.0
H527 H 0.09844 0.20955 0.1604 0.0
C528 C 0.23054 0.72309 0.13212 0.0
C529 C 0.21063 0.76602 0.12624 0.0
C530 C 0.22065 0.7823 0.20204 0.0
C531 C 0.23472 0.73739 0.20959 0.0
N532 N 0.24316 0.66178 0.18155 0.0
N533 N 0.17236 0.82869 0.15894 0.0
C534 C 0.2373 0.70673 0.17452 0.0
C535 C 0.20163 0.7935 0.1621 0.0
N536 N 0.24311 0.69809 0.09744 0.0
N537 N 0.22616 0.81473 0.23261 0.0
H538 H 0.15646 0.83738 0.13035 0.0
H539 H 0.16032 0.84566 0.18584 0.0
H540 H 0.24253 0.80861 0.26156 0.0
H541 H 0.21894 0.84856 0.22695 0.0
H542 H 0.26176 0.6685 0.09994 0.0
H543 H 0.2381 0.70899 0.06609 0.0
H544 H 0.24101 0.63777 0.15731 0.0
H545 H 0.24544 0.64788 0.21201 0.0
C546 C 0.795 0.75032 0.56753 0.0
C547 C 0.75406 0.7314 0.58279 0.0
C548 C 0.76029 0.77702 0.64813 0.0
C549 C 0.80264 0.79355 0.63395 0.0
N550 N 0.86566 0.78631 0.5859 0.0
N551 N 0.70393 0.71826 0.64218 0.0
C552 C 0.82177 0.77685 0.59555 0.0
C553 C 0.73862 0.7421 0.62458 0.0
N554 N 0.80696 0.74583 0.52552 0.0
N555 N 0.73955 0.7961 0.6827 0.0
H556 H 0.68806 0.6917 0.62632 0.0
H557 H 0.69407 0.72176 0.67397 0.0
H558 H 0.75394 0.82196 0.70067 0.0
H559 H 0.70647 0.78881 0.69141 0.0
H560 H 0.834 0.76301 0.512 0.0
H561 H 0.78734 0.72894 0.50297 0.0
H562 H 0.88265 0.77154 0.56031 0.0
H563 H 0.88638 0.80521 0.60609 0.0
C564 C 0.73409 0.29957 0.05052 0.0
C565 C 0.73943 0.25367 0.06193 0.0
C566 C 0.68011 0.26199 0.11581 0.0
C567 C 0.67889 0.309 0.10791 0.0
N568 N 0.71223 0.37393 0.07418 0.0
N569 N 0.72432 0.19368 0.11191 0.0
C570 C 0.70816 0.32825 0.07716 0.0
C571 C 0.71434 0.23547 0.09642 0.0
N572 N 0.75197 0.31543 0.01321 0.0
N573 N 0.64768 0.24227 0.14047 0.0
H574 H 0.75018 0.17371 0.09963 0.0
H575 H 0.71003 0.1808 0.13972 0.0
H576 H 0.6213 0.26025 0.15442 0.0
H577 H 0.64448 0.20753 0.14358 0.0
H578 H 0.74521 0.34752 0.00149 0.0
H579 H 0.76944 0.2951 0.99162 0.0
H580 H 0.7364 0.38952 0.05515 0.0
H581 H 0.69467 0.39615 0.09396 0.0
C582 C 0.25549 0.23923 0.62976 0.0
C583 C 0.29898 0.25646 0.62077 0.0
C584 C 0.31943 0.24877 0.69599 0.0
C585 C 0.27385 0.23955 0.70621 0.0
N586 N 0.19633 0.23299 0.68248 0.0
N587 N 0.36845 0.28815 0.64758 0.0
C588 C 0.24118 0.23608 0.673 0.0
C589 C 0.33021 0.26368 0.65438 0.0
N590 N 0.22793 0.22603 0.59704 0.0
N591 N 0.35239 0.24357 0.7261 0.0
H592 H 0.37621 0.30249 0.61812 0.0
H593 H 0.38974 0.29833 0.67232 0.0
H594 H 0.34568 0.23161 0.75678 0.0
H595 H 0.3866 0.24657 0.71903 0.0
H596 H 0.19747 0.20938 0.60192 0.0
H597 H 0.23767 0.22781 0.56502 0.0
H598 H 0.17109 0.23514 0.65939 0.0
H599 H 0.18391 0.23259 0.71361 0.0
C600 C 0.7213 0.68472 0.34918 0.0
C601 C 0.71727 0.71425 0.38494 0.0
C602 C 0.72819 0.77882 0.33741 0.0
C603 C 0.73573 0.74881 0.30274 0.0
N604 N 0.75235 0.67359 0.27856 0.0
N605 N 0.72829 0.78866 0.41435 0.0
C606 C 0.73661 0.70187 0.30969 0.0
C607 C 0.72409 0.76118 0.37949 0.0
N608 N 0.70776 0.64086 0.35179 0.0
N609 N 0.7232 0.82383 0.33008 0.0
H610 H 0.72728 0.7767 0.44565 0.0
H611 H 0.73748 0.8224 0.41218 0.0
H612 H 0.72596 0.83804 0.29975 0.0
H613 H 0.71279 0.84648 0.35355 0.0
H614 H 0.70569 0.61962 0.32529 0.0
H615 H 0.69374 0.62689 0.37913 0.0
H616 H 0.75778 0.63936 0.28362 0.0
H617 H 0.7645 0.68514 0.24928 0.0
C618 C 0.75214 0.22909 0.86044 0.0
C619 C 0.79524 0.21241 0.8716 0.0
C620 C 0.81741 0.21211 0.79643 0.0
C621 C 0.77241 0.22242 0.78471 0.0
N622 N 0.69466 0.23354 0.8057 0.0
N623 N 0.86575 0.17891 0.84988 0.0
C624 C 0.73908 0.22943 0.81673 0.0
C625 C 0.82721 0.20164 0.83956 0.0
N626 N 0.72375 0.24447 0.89161 0.0
N627 N 0.85091 0.21295 0.76649 0.0
H628 H 0.87393 0.16983 0.88114 0.0
H629 H 0.88758 0.16566 0.82699 0.0
H630 H 0.84508 0.22151 0.73463 0.0
H631 H 0.88494 0.20968 0.77424 0.0
H632 H 0.69361 0.2611 0.88508 0.0
H633 H 0.73234 0.24417 0.92399 0.0
H634 H 0.66861 0.23396 0.828 0.0
H635 H 0.68323 0.23231 0.77421 0.0
C636 C 0.2477 0.18064 0.43499 0.0
C637 C 0.2539 0.22683 0.42502 0.0
C638 C 0.19584 0.22133 0.36959 0.0
C639 C 0.19242 0.17437 0.37717 0.0
N640 N 0.22422 0.10761 0.40892 0.0
N641 N 0.24315 0.28739 0.37465 0.0
C642 C 0.22143 0.15345 0.40721 0.0
C643 C 0.23087 0.24605 0.38971 0.0
N644 N 0.26429 0.1632 0.47222 0.0
N645 N 0.16438 0.24298 0.34519 0.0
H646 H 0.26989 0.30581 0.38748 0.0
H647 H 0.2301 0.30101 0.34657 0.0
H648 H 0.13706 0.22668 0.33104 0.0
H649 H 0.16298 0.27789 0.34249 0.0
H650 H 0.25661 0.13086 0.48273 0.0
H651 H 0.28162 0.18227 0.49489 0.0
H652 H 0.24791 0.09076 0.4276 0.0
H653 H 0.20614 0.08665 0.3883 0.0
C654 C 0.23311 0.72821 0.88797 0.0
C655 C 0.25119 0.74309 0.92764 0.0
C656 C 0.32247 0.70539 0.91043 0.0
C657 C 0.30166 0.68414 0.87485 0.0
N658 N 0.23438 0.67083 0.833 0.0
N659 N 0.31139 0.73976 0.97977 0.0
C660 C 0.25629 0.69457 0.8642 0.0
C661 C 0.29564 0.73046 0.93962 0.0
N662 N 0.19435 0.747 0.87245 0.0
N663 N 0.368 0.70179 0.91615 0.0
H664 H 0.29236 0.75634 0.00296 0.0
H665 H 0.34171 0.72706 0.99149 0.0
H666 H 0.3887 0.68423 0.89491 0.0
H667 H 0.38563 0.71998 0.93926 0.0
H668 H 0.18201 0.74048 0.84186 0.0
H669 H 0.17717 0.77274 0.8883 0.0
H670 H 0.19987 0.67374 0.82737 0.0
H671 H 0.24965 0.64538 0.81519 0.0
loop_
_geom_bond_atom_site_label_1
_geom_bond_atom_site_label_2
_geom_bond_distance
_geom_bond_site_symmetry_2
_ccdc_geom_bond_type
Sc0 O3 2.025 . S
Sc0 O10 2.105 1_554 S
Sc0 O13 2.105 . S
Sc0 O16 2.105 . S
Sc0 O19 2.105 1_554 S
Sc1 O3 2.025 . S
Sc1 O11 2.105 1_554 S
Sc1 O15 2.105 . S
Sc1 O17 2.105 . S
Sc1 O21 2.105 1_554 S
Sc2 O3 2.025 . S
Sc2 O12 2.105 1_554 S
Sc2 O14 2.105 . S
Sc2 O18 2.105 . S
Sc2 O20 2.105 1_554 S
O3 Sc0 2.025 . S
O3 Sc1 2.025 . S
O3 Sc2 2.025 . S
C4 O10 1.268 . S
C4 O20 1.268 . S
C5 O11 1.268 . S
C5 O19 1.268 . S
C6 O12 1.268 . S
C6 O21 1.268 . S
C7 O13 1.268 . S
C7 O17 1.268 . S
C8 O14 1.268 . S
C8 O16 1.268 . S
C9 O15 1.268 . S
C9 O18 1.268 . S
O10 Sc0 2.105 1_556 S
O10 C4 1.268 . S
O11 Sc1 2.105 1_556 S
O11 C5 1.268 . S
O12 Sc2 2.105 1_556 S
O12 C6 1.268 . S
O13 Sc0 2.105 . S
O13 C7 1.268 . S
O14 Sc2 2.105 . S
O14 C8 1.268 . S
O15 Sc1 2.105 . S
O15 C9 1.268 . S
O16 Sc0 2.105 . S
O16 C8 1.268 . S
O17 Sc1 2.105 . S
O17 C7 1.268 . S
O18 Sc2 2.105 . S
O18 C9 1.268 . S
O19 Sc0 2.105 1_556 S
O19 C5 1.268 . S
O20 Sc2 2.105 1_556 S
O20 C4 1.268 . S
O21 Sc1 2.105 1_556 S
O21 C6 1.268 . S
Sc22 O25 2.025 . S
Sc22 O32 2.105 . S
Sc22 O35 2.105 . S
Sc22 O38 2.105 . S
Sc22 O41 2.105 . S
Sc23 O25 2.025 . S
Sc23 O33 2.105 . S
Sc23 O37 2.105 . S
Sc23 O39 2.105 . S
Sc23 O43 2.105 . S
Sc24 O25 2.025 . S
Sc24 O34 2.105 . S
Sc24 O36 2.105 . S
Sc24 O40 2.105 . S
Sc24 O42 2.105 . S
O25 Sc22 2.025 . S
O25 Sc23 2.025 . S
O25 Sc24 2.025 . S
C26 O32 1.268 . S
C26 O42 1.268 . S
C27 O33 1.268 . S
C27 O41 1.268 . S
C28 O34 1.268 . S
C28 O43 1.268 . S
C29 O35 1.268 . S
C29 O39 1.268 . S
C30 O36 1.268 . S
C30 O38 1.268 . S
C31 O37 1.268 . S
C31 O40 1.268 . S
O32 Sc22 2.105 . S
O32 C26 1.268 . S
O33 Sc23 2.105 . S
O33 C27 1.268 . S
O34 Sc24 2.105 . S
O34 C28 1.268 . S
O35 Sc22 2.105 . S
O35 C29 1.268 . S
O36 Sc24 2.105 . S
O36 C30 1.268 . S
O37 Sc23 2.105 . S
O37 C31 1.268 . S
O38 Sc22 2.105 . S
O38 C30 1.268 . S
O39 Sc23 2.105 . S
O39 C29 1.268 . S
O40 Sc24 2.105 . S
O40 C31 1.268 . S
O41 Sc22 2.105 . S
O41 C27 1.268 . S
O42 Sc24 2.105 . S
O42 C26 1.268 . S
O43 Sc23 2.105 . S
O43 C28 1.268 . S
Sc44 O47 2.025 . S
Sc44 O54 2.105 1_554 S
Sc44 O57 2.105 . S
Sc44 O60 2.105 . S
Sc44 O63 2.105 1_554 S
Sc45 O47 2.025 . S
Sc45 O55 2.105 1_554 S
Sc45 O59 2.105 . S
Sc45 O61 2.105 . S
Sc45 O65 2.105 1_554 S
Sc46 O47 2.025 . S
Sc46 O56 2.105 1_554 S
Sc46 O58 2.105 . S
Sc46 O62 2.105 . S
Sc46 O64 2.105 1_554 S
O47 Sc44 2.025 . S
O47 Sc45 2.025 . S
O47 Sc46 2.025 . S
C48 O54 1.268 . S
C48 O64 1.268 . S
C49 O55 1.268 . S
C49 O63 1.268 . S
C50 O56 1.268 . S
C50 O65 1.268 . S
C51 O57 1.268 . S
C51 O61 1.268 . S
C52 O58 1.268 . S
C52 O60 1.268 . S
C53 O59 1.268 . S
C53 O62 1.268 . S
O54 Sc44 2.105 1_556 S
O54 C48 1.268 . S
O55 Sc45 2.105 1_556 S
O55 C49 1.268 . S
O56 Sc46 2.105 1_556 S
O56 C50 1.268 . S
O57 Sc44 2.105 . S
O57 C51 1.268 . S
O58 Sc46 2.105 . S
O58 C52 1.268 . S
O59 Sc45 2.105 . S
O59 C53 1.268 . S
O60 Sc44 2.105 . S
O60 C52 1.268 . S
O61 Sc45 2.105 . S
O61 C51 1.268 . S
O62 Sc46 2.105 . S
O62 C53 1.268 . S
O63 Sc44 2.105 1_556 S
O63 C49 1.268 . S
O64 Sc46 2.105 1_556 S
O64 C48 1.268 . S
O65 Sc45 2.105 1_556 S
O65 C50 1.268 . S
Sc66 O69 2.025 . S
Sc66 O76 2.105 . S
Sc66 O79 2.105 . S
Sc66 O82 2.105 . S
Sc66 O85 2.105 . S
Sc67 O69 2.025 . S
Sc67 O77 2.105 . S
Sc67 O81 2.105 . S
Sc67 O83 2.105 . S
Sc67 O87 2.105 . S
Sc68 O69 2.025 . S
Sc68 O78 2.105 . S
Sc68 O80 2.105 . S
Sc68 O84 2.105 . S
Sc68 O86 2.105 . S
O69 Sc66 2.025 . S
O69 Sc67 2.025 . S
O69 Sc68 2.025 . S
C70 O76 1.268 . S
C70 O86 1.268 . S
C71 O77 1.268 . S
C71 O85 1.268 . S
C72 O78 1.268 . S
C72 O87 1.268 . S
C73 O79 1.268 . S
C73 O83 1.268 . S
C74 O80 1.268 . S
C74 O82 1.268 . S
C75 O81 1.268 . S
C75 O84 1.268 . S
O76 Sc66 2.105 . S
O76 C70 1.268 . S
O77 Sc67 2.105 . S
O77 C71 1.268 . S
O78 Sc68 2.105 . S
O78 C72 1.268 . S
O79 Sc66 2.105 . S
O79 C73 1.268 . S
O80 Sc68 2.105 . S
O80 C74 1.268 . S
O81 Sc67 2.105 . S
O81 C75 1.268 . S
O82 Sc66 2.105 . S
O82 C74 1.268 . S
O83 Sc67 2.105 . S
O83 C73 1.268 . S
O84 Sc68 2.105 . S
O84 C75 1.268 . S
O85 Sc66 2.105 . S
O85 C71 1.268 . S
O86 Sc68 2.105 . S
O86 C70 1.268 . S
O87 Sc67 2.105 . S
O87 C72 1.268 . S
H88 C89 0.949 . S
C89 H88 0.949 . S
C89 C90 1.395 . S
C89 C91 1.391 . S
C90 C89 1.395 . S
C90 C93 1.390 . S
C91 C89 1.391 . S
C91 C95 1.387 . S
C91 C96 1.491 . S
H92 C93 0.950 . S
C93 C90 1.390 . S
C93 H92 0.950 . S
C93 C94 1.378 . S
C94 C93 1.378 . S
C94 C95 1.409 . S
C95 C91 1.387 . S
C95 C94 1.409 . S
C95 H97 0.951 . S
C96 C91 1.491 . S
C96 C98 1.382 . S
C96 C100 1.404 . S
H97 C95 0.951 . S
C98 C96 1.382 . S
C98 C99 1.390 . S
C98 H103 0.949 . S
C99 C98 1.390 . S
C99 C104 1.399 . S
C100 C96 1.404 . S
C100 H101 0.950 . S
C100 C102 1.375 . S
H101 C100 0.950 . S
C102 C100 1.375 . S
C102 C104 1.382 . S
C102 H106 0.950 . S
H103 C98 0.949 . S
C104 C99 1.399 . S
C104 C102 1.382 . S
C104 H105 0.952 . S
H105 C104 0.952 . S
H106 C102 0.950 . S
H107 C108 0.949 . S
C108 H107 0.949 . S
C108 C109 1.395 . S
C108 C110 1.391 . S
C109 C108 1.395 . S
C109 C112 1.390 . S
C110 C108 1.391 . S
C110 C114 1.387 . S
C110 C115 1.491 . S
H111 C112 0.950 . S
C112 C109 1.390 . S
C112 H111 0.950 . S
C112 C113 1.378 . S
C113 C112 1.378 . S
C113 C114 1.409 . S
C114 C110 1.387 . S
C114 C113 1.409 . S
C114 H116 0.951 . S
C115 C110 1.491 . S
C115 C117 1.382 . S
C115 C119 1.404 . S
H116 C114 0.951 . S
C117 C115 1.382 . S
C117 C118 1.390 . S
C117 H122 0.949 . S
C118 C117 1.390 . S
C118 C123 1.399 . S
C119 C115 1.404 . S
C119 H120 0.950 . S
C119 C121 1.375 . S
H120 C119 0.950 . S
C121 C119 1.375 . S
C121 C123 1.382 . S
C121 H125 0.950 . S
H122 C117 0.949 . S
C123 C118 1.399 . S
C123 C121 1.382 . S
C123 H124 0.952 . S
H124 C123 0.952 . S
H125 C121 0.950 . S
H126 C127 0.949 . S
C127 H126 0.949 . S
C127 C128 1.395 . S
C127 C129 1.391 . S
C128 C127 1.395 . S
C128 C131 1.390 . S
C129 C127 1.391 . S
C129 C133 1.387 . S
C129 C134 1.491 . S
H130 C131 0.950 . S
C131 C128 1.390 . S
C131 H130 0.950 . S
C131 C132 1.378 . S
C132 C131 1.378 . S
C132 C133 1.409 . S
C133 C129 1.387 . S
C133 C132 1.409 . S
C133 H135 0.951 . S
C134 C129 1.491 . S
C134 C136 1.382 . S
C134 C138 1.404 . S
H135 C133 0.951 . S
C136 C134 1.382 . S
C136 C137 1.390 . S
C136 H141 0.949 . S
C137 C136 1.390 . S
C137 C142 1.399 . S
C138 C134 1.404 . S
C138 H139 0.950 . S
C138 C140 1.375 . S
H139 C138 0.950 . S
C140 C138 1.375 . S
C140 C142 1.382 . S
C140 H144 0.950 . S
H141 C136 0.949 . S
C142 C137 1.399 . S
C142 C140 1.382 . S
C142 H143 0.952 . S
H143 C142 0.952 . S
H144 C140 0.950 . S
H145 C146 0.949 . S
C146 H145 0.949 . S
C146 C147 1.395 . S
C146 C148 1.391 . S
C147 C146 1.395 . S
C147 C150 1.390 . S
C148 C146 1.391 . S
C148 C152 1.387 . S
C148 C153 1.491 . S
H149 C150 0.950 . S
C150 C147 1.390 . S
C150 H149 0.950 . S
C150 C151 1.378 . S
C151 C150 1.378 . S
C151 C152 1.409 . S
C152 C148 1.387 . S
C152 C151 1.409 . S
C152 H154 0.951 . S
C153 C148 1.491 . S
C153 C155 1.382 . S
C153 C157 1.404 . S
H154 C152 0.951 . S
C155 C153 1.382 . S
C155 C156 1.390 . S
C155 H160 0.949 . S
C156 C155 1.390 . S
C156 C161 1.399 . S
C157 C153 1.404 . S
C157 H158 0.950 . S
C157 C159 1.375 . S
H158 C157 0.950 . S
C159 C157 1.375 . S
C159 C161 1.382 . S
C159 H163 0.950 . S
H160 C155 0.949 . S
C161 C156 1.399 . S
C161 C159 1.382 . S
C161 H162 0.952 . S
H162 C161 0.952 . S
H163 C159 0.950 . S
H164 C165 0.949 . S
C165 H164 0.949 . S
C165 C166 1.395 . S
C165 C167 1.391 . S
C166 C165 1.395 . S
C166 C169 1.390 . S
C167 C165 1.391 . S
C167 C171 1.387 . S
C167 C172 1.491 . S
H168 C169 0.950 . S
C169 C166 1.390 . S
C169 H168 0.950 . S
C169 C170 1.378 . S
C170 C169 1.378 . S
C170 C171 1.409 . S
C171 C167 1.387 . S
C171 C170 1.409 . S
C171 H173 0.951 . S
C172 C167 1.491 . S
C172 C174 1.382 . S
C172 C176 1.404 . S
H173 C171 0.951 . S
C174 C172 1.382 . S
C174 C175 1.390 . S
C174 H179 0.949 . S
C175 C174 1.390 . S
C175 C180 1.399 . S
C176 C172 1.404 . S
C176 H177 0.950 . S
C176 C178 1.375 . S
H177 C176 0.950 . S
C178 C176 1.375 . S
C178 C180 1.382 . S
C178 H182 0.950 . S
H179 C174 0.949 . S
C180 C175 1.399 . S
C180 C178 1.382 . S
C180 H181 0.952 . S
H181 C180 0.952 . S
H182 C178 0.950 . S
H183 C184 0.949 . S
C184 H183 0.949 . S
C184 C185 1.395 . S
C184 C186 1.391 . S
C185 C184 1.395 . S
C185 C188 1.390 . S
C186 C184 1.391 . S
C186 C190 1.387 . S
C186 C191 1.491 . S
H187 C188 0.950 . S
C188 C185 1.390 . S
C188 H187 0.950 . S
C188 C189 1.378 . S
C189 C188 1.378 . S
C189 C190 1.409 . S
C190 C186 1.387 . S
C190 C189 1.409 . S
C190 H192 0.951 . S
C191 C186 1.491 . S
C191 C193 1.382 . S
C191 C195 1.404 . S
H192 C190 0.951 . S
C193 C191 1.382 . S
C193 C194 1.390 . S
C193 H198 0.949 . S
C194 C193 1.390 . S
C194 C199 1.399 . S
C195 C191 1.404 . S
C195 H196 0.950 . S
C195 C197 1.375 . S
H196 C195 0.950 . S
C197 C195 1.375 . S
C197 C199 1.382 . S
C197 H201 0.950 . S
H198 C193 0.949 . S
C199 C194 1.399 . S
C199 C197 1.382 . S
C199 H200 0.952 . S
H200 C199 0.952 . S
H201 C197 0.950 . S
H202 C203 0.949 . S
C203 H202 0.949 . S
C203 C204 1.395 . S
C203 C205 1.391 . S
C204 C203 1.395 . S
C204 C207 1.390 . S
C205 C203 1.391 . S
C205 C209 1.387 . S
C205 C210 1.491 . S
H206 C207 0.950 . S
C207 C204 1.390 . S
C207 H206 0.950 . S
C207 C208 1.378 . S
C208 C207 1.378 . S
C208 C209 1.409 . S
C209 C205 1.387 . S
C209 C208 1.409 . S
C209 H211 0.951 . S
C210 C205 1.491 . S
C210 C212 1.382 . S
C210 C214 1.404 . S
H211 C209 0.951 . S
C212 C210 1.382 . S
C212 C213 1.390 . S
C212 H217 0.949 . S
C213 C212 1.390 . S
C213 C218 1.399 . S
C214 C210 1.404 . S
C214 H215 0.950 . S
C214 C216 1.375 . S
H215 C214 0.950 . S
C216 C214 1.375 . S
C216 C218 1.382 . S
C216 H220 0.950 . S
H217 C212 0.949 . S
C218 C213 1.399 . S
C218 C216 1.382 . S
C218 H219 0.952 . S
H219 C218 0.952 . S
H220 C216 0.950 . S
H221 C222 0.949 . S
C222 H221 0.949 . S
C222 C223 1.395 . S
C222 C224 1.391 . S
C223 C222 1.395 . S
C223 C226 1.390 . S
C224 C222 1.391 . S
C224 C228 1.387 . S
C224 C229 1.491 . S
H225 C226 0.950 . S
C226 C223 1.390 . S
C226 H225 0.950 . S
C226 C227 1.378 . S
C227 C226 1.378 . S
C227 C228 1.409 . S
C228 C224 1.387 . S
C228 C227 1.409 . S
C228 H230 0.951 . S
C229 C224 1.491 . S
C229 C231 1.382 . S
C229 C233 1.404 . S
H230 C228 0.951 . S
C231 C229 1.382 . S
C231 C232 1.390 . S
C231 H236 0.949 . S
C232 C231 1.390 . S
C232 C237 1.399 . S
C233 C229 1.404 . S
C233 H234 0.950 . S
C233 C235 1.375 . S
H234 C233 0.950 . S
C235 C233 1.375 . S
C235 C237 1.382 . S
C235 H239 0.950 . S
H236 C231 0.949 . S
C237 C232 1.399 . S
C237 C235 1.382 . S
C237 H238 0.952 . S
H238 C237 0.952 . S
H239 C235 0.950 . S
C240 C241 1.363 . S
C240 C246 1.379 1_565 S
C240 N248 1.356 . S
C241 C240 1.363 . S
C241 C247 1.363 1_565 S
C242 C243 1.363 . S
C242 C247 1.379 . S
C242 N249 1.356 . S
C243 C242 1.363 . S
C243 C246 1.363 . S
N244 C246 1.356 . S
N244 H256 1.000 . S
N244 H257 0.985 . S
N245 C247 1.356 . S
N245 H250 0.984 1_545 S
N245 H251 0.985 . S
C246 C240 1.379 1_545 S
C246 C243 1.363 . S
C246 N244 1.356 . S
C247 C241 1.363 1_545 S
C247 C242 1.379 . S
C247 N245 1.356 . S
N248 C240 1.356 . S
N248 H254 0.984 . S
N248 H255 0.984 . S
N249 C242 1.356 . S
N249 H252 0.984 . S
N249 H253 0.985 . S
H250 N245 0.984 1_565 S
H251 N245 0.985 . S
H252 N249 0.984 . S
H253 N249 0.985 . S
H254 N248 0.984 . S
H255 N248 0.984 . S
H256 N244 1.000 . S
H257 N244 0.985 . S
C258 C259 1.363 . S
C258 C264 1.379 . S
C258 N266 1.356 . S
C259 C258 1.363 . S
C259 C265 1.363 . S
C260 C261 1.363 . S
C260 C265 1.379 . S
C260 N267 1.356 . S
C261 C260 1.363 . S
C261 C264 1.363 . S
N262 C264 1.356 . S
N262 H274 0.984 . S
N262 H275 0.985 . S
N263 C265 1.356 . S
N263 H268 0.984 . S
N263 H269 0.985 . S
C264 C258 1.379 . S
C264 C261 1.363 . S
C264 N262 1.356 . S
C265 C259 1.363 . S
C265 C260 1.379 . S
C265 N263 1.356 . S
N266 C258 1.356 . S
N266 H272 0.984 . S
N266 H273 0.984 . S
N267 C260 1.356 . S
N267 H270 0.984 . S
N267 H271 0.985 . S
H268 N263 0.984 . S
H269 N263 0.985 . S
H270 N267 0.984 . S
H271 N267 0.985 . S
H272 N266 0.984 . S
H273 N266 0.984 . S
H274 N262 0.984 . S
H275 N262 0.985 . S
C276 C277 1.363 . S
C276 C282 1.379 1_545 S
C276 N284 1.356 . S
C277 C276 1.363 . S
C277 C283 1.363 1_545 S
C278 C279 1.363 . S
C278 C283 1.379 . S
C278 N285 1.356 . S
C279 C278 1.363 . S
C279 C282 1.363 . S
N280 C282 1.356 . S
N280 H292 0.984 . S
N280 H293 0.985 . S
N281 C283 1.356 . S
N281 H286 0.984 1_565 S
N281 H287 0.985 . S
C282 C276 1.379 1_565 S
C282 C279 1.363 . S
C282 N280 1.356 . S
C283 C277 1.363 1_565 S
C283 C278 1.379 . S
C283 N281 1.356 . S
N284 C276 1.356 . S
N284 H290 0.984 . S
N284 H291 0.984 . S
N285 C278 1.356 . S
N285 H288 0.984 . S
N285 H289 0.985 . S
H286 N281 0.984 1_545 S
H287 N281 0.985 . S
H288 N285 0.984 . S
H289 N285 0.985 . S
H290 N284 0.984 . S
H291 N284 0.984 . S
H292 N280 0.984 . S
H293 N280 0.985 . S
C294 C295 1.363 . S
C294 C300 1.379 . S
C294 N302 1.356 . S
C295 C294 1.363 . S
C295 C301 1.363 . S
C296 C297 1.363 . S
C296 C301 1.379 . S
C296 N303 1.356 . S
C297 C296 1.363 . S
C297 C300 1.363 . S
N298 C300 1.356 . S
N298 H310 0.984 . S
N298 H311 0.985 . S
N299 C301 1.356 . S
N299 H304 0.984 . S
N299 H305 0.985 . S
C300 C294 1.379 . S
C300 C297 1.363 . S
C300 N298 1.356 . S
C301 C295 1.363 . S
C301 C296 1.379 . S
C301 N299 1.356 . S
N302 C294 1.356 . S
N302 H308 0.984 . S
N302 H309 0.984 . S
N303 C296 1.356 . S
N303 H306 0.984 . S
N303 H307 0.985 . S
H304 N299 0.984 . S
H305 N299 0.985 . S
H306 N303 0.984 . S
H307 N303 0.985 . S
H308 N302 0.984 . S
H309 N302 0.984 . S
H310 N298 0.984 . S
H311 N298 0.985 . S
C312 C313 1.363 . S
C312 C318 1.379 . S
C312 N320 1.356 . S
C313 C312 1.363 . S
C313 C319 1.363 . S
C314 C315 1.363 . S
C314 C319 1.379 . S
C314 N321 1.356 . S
C315 C314 1.363 . S
C315 C318 1.363 . S
N316 C318 1.356 . S
N316 H328 0.984 . S
N316 H329 0.985 . S
N317 C319 1.356 . S
N317 H322 0.984 . S
N317 H323 0.985 . S
C318 C312 1.379 . S
C318 C315 1.363 . S
C318 N316 1.356 . S
C319 C313 1.363 . S
C319 C314 1.379 . S
C319 N317 1.356 . S
N320 C312 1.356 . S
N320 H326 0.984 . S
N320 H327 0.984 . S
N321 C314 1.356 . S
N321 H324 0.984 . S
N321 H325 0.985 . S
H322 N317 0.984 . S
H323 N317 0.985 . S
H324 N321 0.984 . S
H325 N321 0.985 . S
H326 N320 0.984 . S
H327 N320 0.984 . S
H328 N316 0.984 . S
H329 N316 0.985 . S
C330 C331 1.363 1_455 S
C330 C336 1.379 . S
C330 N338 1.356 . S
C331 C330 1.363 1_655 S
C331 C337 1.363 . S
C332 C333 1.363 . S
C332 C337 1.379 1_455 S
C332 N339 1.356 . S
C333 C332 1.363 . S
C333 C336 1.363 . S
N334 C336 1.356 . S
N334 H346 0.984 . S
N334 H347 0.985 . S
N335 C337 1.356 . S
N335 H340 0.984 . S
N335 H341 0.985 . S
C336 C330 1.379 . S
C336 C333 1.363 . S
C336 N334 1.356 . S
C337 C331 1.363 . S
C337 C332 1.379 1_655 S
C337 N335 1.356 . S
N338 C330 1.356 . S
N338 H344 0.984 . S
N338 H345 0.984 1_455 S
N339 C332 1.356 . S
N339 H342 0.984 . S
N339 H343 0.985 . S
H340 N335 0.984 . S
H341 N335 0.985 . S
H342 N339 0.984 . S
H343 N339 0.985 . S
H344 N338 0.984 . S
H345 N338 0.984 1_655 S
H346 N334 0.984 . S
H347 N334 0.985 . S
C348 C349 1.363 . S
C348 C354 1.379 . S
C348 N356 1.356 . S
C349 C348 1.363 . S
C349 C355 1.363 . S
C350 C351 1.363 . S
C350 C355 1.379 . S
C350 N357 1.356 . S
C351 C350 1.363 . S
C351 C354 1.363 . S
N352 C354 1.356 . S
N352 H364 0.984 . S
N352 H365 0.985 . S
N353 C355 1.356 . S
N353 H358 0.984 . S
N353 H359 0.985 . S
C354 C348 1.379 . S
C354 C351 1.363 . S
C354 N352 1.356 . S
C355 C349 1.363 . S
C355 C350 1.379 . S
C355 N353 1.356 . S
N356 C348 1.356 . S
N356 H362 0.984 . S
N356 H363 0.984 . S
N357 C350 1.356 . S
N357 H360 0.984 . S
N357 H361 0.985 . S
H358 N353 0.984 . S
H359 N353 0.985 . S
H360 N357 0.984 . S
H361 N357 0.985 . S
H362 N356 0.984 . S
H363 N356 0.984 . S
H364 N352 0.984 . S
H365 N352 0.985 . S
C366 C367 1.363 1_655 S
C366 C372 1.379 . S
C366 N374 1.356 . S
C367 C366 1.363 1_455 S
C367 C373 1.363 . S
C368 C369 1.363 . S
C368 C373 1.379 1_655 S
C368 N375 1.356 . S
C369 C368 1.363 . S
C369 C372 1.363 . S
N370 C372 1.356 . S
N370 H382 0.984 . S
N370 H383 0.985 . S
N371 C373 1.356 . S
N371 H376 0.984 . S
N371 H377 0.985 . S
C372 C366 1.379 . S
C372 C369 1.363 . S
C372 N370 1.356 . S
C373 C367 1.363 . S
C373 C368 1.379 1_455 S
C373 N371 1.356 . S
N374 C366 1.356 . S
N374 H380 0.984 . S
N374 H381 0.984 1_655 S
N375 C368 1.356 . S
N375 H378 0.984 . S
N375 H379 0.985 . S
H376 N371 0.984 . S
H377 N371 0.985 . S
H378 N375 0.984 . S
H379 N375 0.985 . S
H380 N374 0.984 . S
H381 N374 0.984 1_455 S
H382 N370 0.984 . S
H383 N370 0.985 . S
C384 C385 1.363 . S
C384 C390 1.379 1_545 S
C384 N392 1.356 . S
C385 C384 1.363 . S
C385 C391 1.363 1_545 S
C386 C387 1.363 . S
C386 C391 1.379 . S
C386 N393 1.356 . S
C387 C386 1.363 . S
C387 C390 1.363 . S
N388 C390 1.356 . S
N388 H400 0.984 . S
N388 H401 0.985 . S
N389 C391 1.356 . S
N389 H394 0.984 1_565 S
N389 H395 0.985 . S
C390 C384 1.379 1_565 S
C390 C387 1.363 . S
C390 N388 1.356 . S
C391 C385 1.363 1_565 S
C391 C386 1.379 . S
C391 N389 1.356 . S
N392 C384 1.356 . S
N392 H398 0.984 . S
N392 H399 0.984 . S
N393 C386 1.356 . S
N393 H396 0.984 . S
N393 H397 0.985 . S
H394 N389 0.984 1_545 S
H395 N389 0.985 . S
H396 N393 0.984 . S
H397 N393 0.985 . S
H398 N392 0.984 . S
H399 N392 0.984 . S
H400 N388 0.984 . S
H401 N388 0.985 . S
C402 C403 1.363 . S
C402 C408 1.379 . S
C402 N410 1.356 . S
C403 C402 1.363 . S
C403 C409 1.363 . S
C404 C405 1.363 . S
C404 C409 1.379 . S
C404 N411 1.356 . S
C405 C404 1.363 . S
C405 C408 1.363 . S
N406 C408 1.356 . S
N406 H418 0.984 . S
N406 H419 0.985 . S
N407 C409 1.356 . S
N407 H412 0.984 . S
N407 H413 0.985 . S
C408 C402 1.379 . S
C408 C405 1.363 . S
C408 N406 1.356 . S
C409 C403 1.363 . S
C409 C404 1.379 . S
C409 N407 1.356 . S
N410 C402 1.356 . S
N410 H416 0.984 . S
N410 H417 0.984 . S
N411 C404 1.356 . S
N411 H414 0.984 . S
N411 H415 0.985 . S
H412 N407 0.984 . S
H413 N407 0.985 . S
H414 N411 0.984 . S
H415 N411 0.985 . S
H416 N410 0.984 . S
H417 N410 0.984 . S
H418 N406 0.984 . S
H419 N406 0.985 . S
C420 C421 1.363 1_545 S
C420 C426 1.379 . S
C420 N428 1.356 . S
C421 C420 1.363 1_565 S
C421 C427 1.363 . S
C422 C423 1.363 . S
C422 C427 1.379 1_545 S
C422 N429 1.356 . S
C423 C422 1.363 . S
C423 C426 1.363 . S
N424 C426 1.356 . S
N424 H436 0.984 . S
N424 H437 0.985 . S
N425 C427 1.356 . S
N425 H430 0.984 . S
N425 H431 0.985 . S
C426 C420 1.379 . S
C426 C423 1.363 . S
C426 N424 1.356 . S
C427 C421 1.363 . S
C427 C422 1.379 1_565 S
C427 N425 1.356 . S
N428 C420 1.356 . S
N428 H434 0.984 . S
N428 H435 0.984 1_545 S
N429 C422 1.356 . S
N429 H432 0.984 . S
N429 H433 0.985 1_545 S
H430 N425 0.984 . S
H431 N425 0.985 . S
H432 N429 0.984 . S
H433 N429 0.985 1_565 S
H434 N428 0.984 . S
H435 N428 0.984 1_565 S
H436 N424 0.984 . S
H437 N424 0.985 . S
C438 C439 1.363 . S
C438 C444 1.379 . S
C438 N446 1.356 . S
C439 C438 1.363 . S
C439 C445 1.363 . S
C440 C441 1.363 . S
C440 C445 1.379 . S
C440 N447 1.356 . S
C441 C440 1.363 . S
C441 C444 1.363 . S
N442 C444 1.356 . S
N442 H454 0.984 . S
N442 H455 0.985 . S
N443 C445 1.356 . S
N443 H448 0.984 . S
N443 H449 0.985 . S
C444 C438 1.379 . S
C444 C441 1.363 . S
C444 N442 1.356 . S
C445 C439 1.363 . S
C445 C440 1.379 . S
C445 N443 1.356 . S
N446 C438 1.356 . S
N446 H452 0.984 . S
N446 H453 0.984 . S
N447 C440 1.356 . S
N447 H450 0.984 . S
N447 H451 0.985 . S
H448 N443 0.984 . S
H449 N443 0.985 . S
H450 N447 0.984 . S
H451 N447 0.985 . S
H452 N446 0.984 . S
H453 N446 0.984 . S
H454 N442 0.984 . S
H455 N442 0.985 . S
C456 C457 1.363 . S
C456 C462 1.379 . S
C456 N464 1.356 . S
C457 C456 1.363 . S
C457 C463 1.363 . S
C458 C459 1.363 . S
C458 C463 1.379 . S
C458 N465 1.356 . S
C459 C458 1.363 . S
C459 C462 1.363 . S
N460 C462 1.356 . S
N460 H472 0.984 . S
N460 H473 0.985 . S
N461 C463 1.356 . S
N461 H466 0.984 . S
N461 H467 0.985 . S
C462 C456 1.379 . S
C462 C459 1.363 . S
C462 N460 1.356 . S
C463 C457 1.363 . S
C463 C458 1.379 . S
C463 N461 1.356 . S
N464 C456 1.356 . S
N464 H470 0.984 . S
N464 H471 0.984 . S
N465 C458 1.356 . S
N465 H468 0.984 . S
N465 H469 0.985 . S
H466 N461 0.984 . S
H467 N461 0.985 . S
H468 N465 0.984 . S
H469 N465 0.985 . S
H470 N464 0.984 . S
H471 N464 0.984 . S
H472 N460 0.984 . S
H473 N460 0.985 . S
C474 C475 1.363 . S
C474 C480 1.379 1_455 S
C474 N482 1.356 . S
C475 C474 1.363 . S
C475 C481 1.363 1_455 S
C476 C477 1.363 . S
C476 C481 1.379 . S
C476 N483 1.356 . S
C477 C476 1.363 . S
C477 C480 1.363 . S
N478 C480 1.356 . S
N478 H490 0.984 . S
N478 H491 0.985 . S
N479 C481 1.356 . S
N479 H484 0.984 1_655 S
N479 H485 0.985 . S
C480 C474 1.379 1_655 S
C480 C477 1.363 . S
C480 N478 1.356 . S
C481 C475 1.363 1_655 S
C481 C476 1.379 . S
C481 N479 1.356 . S
N482 C474 1.356 . S
N482 H488 0.984 . S
N482 H489 0.984 . S
N483 C476 1.356 . S
N483 H486 0.984 . S
N483 H487 0.985 . S
H484 N479 0.984 1_455 S
H485 N479 0.985 . S
H486 N483 0.984 . S
H487 N483 0.985 . S
H488 N482 0.984 . S
H489 N482 0.984 . S
H490 N478 0.984 . S
H491 N478 0.985 . S
C492 C493 1.363 . S
C492 C498 1.379 . S
C492 N500 1.356 . S
C493 C492 1.363 . S
C493 C499 1.363 . S
C494 C495 1.363 . S
C494 C499 1.379 . S
C494 N501 1.356 . S
C495 C494 1.363 . S
C495 C498 1.363 . S
N496 C498 1.356 . S
N496 H508 0.984 . S
N496 H509 0.985 . S
N497 C499 1.356 . S
N497 H502 0.984 . S
N497 H503 0.985 . S
C498 C492 1.379 . S
C498 C495 1.363 . S
C498 N496 1.356 . S
C499 C493 1.363 . S
C499 C494 1.379 . S
C499 N497 1.356 . S
N500 C492 1.356 . S
N500 H506 0.984 . S
N500 H507 0.984 . S
N501 C494 1.356 . S
N501 H504 0.984 . S
N501 H505 0.985 . S
H502 N497 0.984 . S
H503 N497 0.985 . S
H504 N501 0.984 . S
H505 N501 0.985 . S
H506 N500 0.984 . S
H507 N500 0.984 . S
H508 N496 0.984 . S
H509 N496 0.985 . S
C510 C511 1.363 1_455 S
C510 C516 1.379 . S
C510 N518 1.356 . S
C511 C510 1.363 1_655 S
C511 C517 1.363 . S
C512 C513 1.363 . S
C512 C517 1.379 1_455 S
C512 N519 1.356 . S
C513 C512 1.363 . S
C513 C516 1.363 . S
N514 C516 1.356 . S
N514 H526 0.984 . S
N514 H527 0.985 . S
N515 C517 1.356 . S
N515 H520 0.984 . S
N515 H521 0.985 . S
C516 C510 1.379 . S
C516 C513 1.363 . S
C516 N514 1.356 . S
C517 C511 1.363 . S
C517 C512 1.379 1_655 S
C517 N515 1.356 . S
N518 C510 1.356 . S
N518 H524 0.984 . S
N518 H525 0.984 1_455 S
N519 C512 1.356 . S
N519 H522 0.984 . S
N519 H523 0.985 . S
H520 N515 0.984 . S
H521 N515 0.985 . S
H522 N519 0.984 . S
H523 N519 0.985 . S
H524 N518 0.984 . S
H525 N518 0.984 1_655 S
H526 N514 0.984 . S
H527 N514 0.985 . S
C528 C529 1.363 . S
C528 C534 1.379 . S
C528 N536 1.356 . S
C529 C528 1.363 . S
C529 C535 1.363 . S
C530 C531 1.363 . S
C530 C535 1.379 . S
C530 N537 1.356 . S
C531 C530 1.363 . S
C531 C534 1.363 . S
N532 C534 1.356 . S
N532 H544 0.984 . S
N532 H545 0.985 . S
N533 C535 1.356 . S
N533 H538 0.984 . S
N533 H539 0.985 . S
C534 C528 1.379 . S
C534 C531 1.363 . S
C534 N532 1.356 . S
C535 C529 1.363 . S
C535 C530 1.379 . S
C535 N533 1.356 . S
N536 C528 1.356 . S
N536 H542 0.984 . S
N536 H543 0.984 . S
N537 C530 1.356 . S
N537 H540 0.984 . S
N537 H541 0.985 . S
H538 N533 0.984 . S
H539 N533 0.985 . S
H540 N537 0.984 . S
H541 N537 0.985 . S
H542 N536 0.984 . S
H543 N536 0.984 . S
H544 N532 0.984 . S
H545 N532 0.985 . S
C546 C547 1.363 . S
C546 C552 1.379 . S
C546 N554 1.356 . S
C547 C546 1.363 . S
C547 C553 1.363 . S
C548 C549 1.363 . S
C548 C553 1.379 . S
C548 N555 1.356 . S
C549 C548 1.363 . S
C549 C552 1.363 . S
N550 C552 1.356 . S
N550 H562 0.984 . S
N550 H563 0.985 . S
N551 C553 1.356 . S
N551 H556 0.984 . S
N551 H557 0.985 . S
C552 C546 1.379 . S
C552 C549 1.363 . S
C552 N550 1.356 . S
C553 C547 1.363 . S
C553 C548 1.379 . S
C553 N551 1.356 . S
N554 C546 1.356 . S
N554 H560 0.984 . S
N554 H561 0.984 . S
N555 C548 1.356 . S
N555 H558 0.984 . S
N555 H559 0.985 . S
H556 N551 0.984 . S
H557 N551 0.985 . S
H558 N555 0.984 . S
H559 N555 0.985 . S
H560 N554 0.984 . S
H561 N554 0.984 . S
H562 N550 0.984 . S
H563 N550 0.985 . S
C564 C565 1.363 . S
C564 C570 1.379 . S
C564 N572 1.356 . S
C565 C564 1.363 . S
C565 C571 1.363 . S
C566 C567 1.363 . S
C566 C571 1.379 . S
C566 N573 1.356 . S
C567 C566 1.363 . S
C567 C570 1.363 . S
N568 C570 1.356 . S
N568 H580 0.984 . S
N568 H581 0.985 . S
N569 C571 1.356 . S
N569 H574 0.984 . S
N569 H575 0.985 . S
C570 C564 1.379 . S
C570 C567 1.363 . S
C570 N568 1.356 . S
C571 C565 1.363 . S
C571 C566 1.379 . S
C571 N569 1.356 . S
N572 C564 1.356 . S
N572 H578 0.984 . S
N572 H579 0.984 . S
N573 C566 1.356 . S
N573 H576 0.984 . S
N573 H577 0.985 . S
H574 N569 0.984 . S
H575 N569 0.985 . S
H576 N573 0.984 . S
H577 N573 0.985 . S
H578 N572 0.984 . S
H579 N572 0.984 . S
H580 N568 0.984 . S
H581 N568 0.985 . S
C582 C583 1.363 . S
C582 C588 1.379 . S
C582 N590 1.356 . S
C583 C582 1.363 . S
C583 C589 1.363 . S
C584 C585 1.363 . S
C584 C589 1.379 . S
C584 N591 1.356 . S
C585 C584 1.363 . S
C585 C588 1.363 . S
N586 C588 1.356 . S
N586 H598 0.984 . S
N586 H599 0.985 . S
N587 C589 1.356 . S
N587 H592 0.984 . S
N587 H593 0.985 . S
C588 C582 1.379 . S
C588 C585 1.363 . S
C588 N586 1.356 . S
C589 C583 1.363 . S
C589 C584 1.379 . S
C589 N587 1.356 . S
N590 C582 1.356 . S
N590 H596 0.984 . S
N590 H597 0.984 . S
N591 C584 1.356 . S
N591 H594 0.984 . S
N591 H595 0.985 . S
H592 N587 0.984 . S
H593 N587 0.985 . S
H594 N591 0.984 . S
H595 N591 0.985 . S
H596 N590 0.984 . S
H597 N590 0.984 . S
H598 N586 0.984 . S
H599 N586 0.985 . S
C600 C601 1.363 . S
C600 C606 1.379 . S
C600 N608 1.356 . S
C601 C600 1.363 . S
C601 C607 1.363 . S
C602 C603 1.363 . S
C602 C607 1.379 . S
C602 N609 1.356 . S
C603 C602 1.363 . S
C603 C606 1.363 . S
N604 C606 1.356 . S
N604 H616 0.984 . S
N604 H617 0.985 . S
N605 C607 1.356 . S
N605 H610 0.984 . S
N605 H611 0.985 . S
C606 C600 1.379 . S
C606 C603 1.363 . S
C606 N604 1.356 . S
C607 C601 1.363 . S
C607 C602 1.379 . S
C607 N605 1.356 . S
N608 C600 1.356 . S
N608 H614 0.984 . S
N608 H615 0.984 . S
N609 C602 1.356 . S
N609 H612 0.984 . S
N609 H613 0.985 . S
H610 N605 0.984 . S
H611 N605 0.985 . S
H612 N609 0.984 . S
H613 N609 0.985 . S
H614 N608 0.984 . S
H615 N608 0.984 . S
H616 N604 0.984 . S
H617 N604 0.985 . S
C618 C619 1.363 . S
C618 C624 1.379 . S
C618 N626 1.356 . S
C619 C618 1.363 . S
C619 C625 1.363 . S
C620 C621 1.363 . S
C620 C625 1.379 . S
C620 N627 1.356 . S
C621 C620 1.363 . S
C621 C624 1.363 . S
N622 C624 1.356 . S
N622 H634 0.984 . S
N622 H635 0.985 . S
N623 C625 1.356 . S
N623 H628 0.984 . S
N623 H629 0.985 . S
C624 C618 1.379 . S
C624 C621 1.363 . S
C624 N622 1.356 . S
C625 C619 1.363 . S
C625 C620 1.379 . S
C625 N623 1.356 . S
N626 C618 1.356 . S
N626 H632 0.984 . S
N626 H633 0.984 . S
N627 C620 1.356 . S
N627 H630 0.984 . S
N627 H631 0.985 . S
H628 N623 0.984 . S
H629 N623 0.985 . S
H630 N627 0.984 . S
H631 N627 0.985 . S
H632 N626 0.984 . S
H633 N626 0.984 . S
H634 N622 0.984 . S
H635 N622 0.985 . S
C636 C637 1.363 . S
C636 C642 1.379 . S
C636 N644 1.356 . S
C637 C636 1.363 . S
C637 C643 1.363 . S
C638 C639 1.363 . S
C638 C643 1.379 . S
C638 N645 1.356 . S
C639 C638 1.363 . S
C639 C642 1.363 . S
N640 C642 1.356 . S
N640 H652 0.984 . S
N640 H653 0.985 . S
N641 C643 1.356 . S
N641 H646 0.984 . S
N641 H647 0.985 . S
C642 C636 1.379 . S
C642 C639 1.363 . S
C642 N640 1.356 . S
C643 C637 1.363 . S
C643 C638 1.379 . S
C643 N641 1.356 . S
N644 C636 1.356 . S
N644 H650 0.984 . S
N644 H651 0.984 . S
N645 C638 1.356 . S
N645 H648 0.984 . S
N645 H649 0.985 . S
H646 N641 0.984 . S
H647 N641 0.985 . S
H648 N645 0.984 . S
H649 N645 0.985 . S
H650 N644 0.984 . S
H651 N644 0.984 . S
H652 N640 0.984 . S
H653 N640 0.985 . S
C654 C655 1.363 . S
C654 C660 1.379 . S
C654 N662 1.356 . S
C655 C654 1.363 . S
C655 C661 1.363 . S
C656 C657 1.363 . S
C656 C661 1.379 . S
C656 N663 1.356 . S
C657 C656 1.363 . S
C657 C660 1.363 . S
N658 C660 1.356 . S
N658 H670 0.984 . S
N658 H671 0.985 . S
N659 C661 1.356 . S
N659 H664 0.984 . S
N659 H665 0.985 . S
C660 C654 1.379 . S
C660 C657 1.363 . S
C660 N658 1.356 . S
C661 C655 1.363 . S
C661 C656 1.379 . S
C661 N659 1.356 . S
N662 C654 1.356 . S
N662 H668 0.984 . S
N662 H669 0.984 . S
N663 C656 1.356 . S
N663 H666 0.984 . S
N663 H667 0.985 . S
H664 N659 0.984 . S
H665 N659 0.985 . S
H666 N663 0.984 . S
H667 N663 0.985 . S
H668 N662 0.984 . S
H669 N662 0.984 . S
H670 N658 0.984 . S
H671 N658 0.985 . S
C241 C8 1.471 . S
C243 C90 1.381 . S
C259 C31 1.523 . S
C261 C109 1.430 . S
C277 C53 1.279 . S
C279 C132 1.271 . S
C297 C151 1.223 . S
C295 C74 1.226 . S
C315 C166 1.382 . S
C313 C26 1.471 . S
C331 C48 1.226 . S
C333 C189 1.224 . S
C349 C71 1.279 . S
C351 C208 1.272 . S
C367 C5 1.523 . S
C369 C223 1.431 . S
C385 C50 1.279 . S
C387 C227 1.274 . S
C405 C170 1.224 . S
C403 C70 1.226 . S
C423 C185 1.382 . S
C421 C4 1.473 . S
C439 C28 1.523 . S
C441 C204 1.430 . S
C459 C113 1.273 . S
C457 C73 1.279 . S
C475 C7 1.523 . S
C477 C128 1.429 . S
C495 C147 1.382 . S
C493 C30 1.471 . S
C513 C94 1.224 . S
C511 C52 1.224 . S
C531 C213 1.315 . S
C529 C9 1.435 . S
C549 C232 1.325 . S
C547 C29 1.437 . S
C565 C51 1.365 . S
C567 C175 1.248 . S
C585 C194 1.251 . S
C583 C75 1.366 . S
C603 C137 1.316 . S
C601 C27 1.437 . S
C619 C49 1.365 . S
C621 C156 1.252 . S
C639 C99 1.249 . S
C637 C72 1.366 . S
C657 C118 1.325 . S
C655 C6 1.438 . S
