# Generated by pormake.
# Topology sqc, (4,8)-cn, num edge types: 1
# Building blocks:
#     Node 0, Type 0, BuildingBlock: GIZVER_clean_linker_0, # of connection points: 4
#     Node 1, Type 0, BuildingBlock: GIZVER_clean_linker_0, # of connection points: 4
#     Node 2, Type 0, BuildingBlock: GIZVER_clean_linker_0, # of connection points: 4
#     Node 3, Type 0, BuildingBlock: GIZVER_clean_linker_0, # of connection points: 4
#     Node 4, Type 0, BuildingBlock: GIZVER_clean_linker_0, # of connection points: 4
#     Node 5, Type 0, BuildingBlock: GIZVER_clean_linker_0, # of connection points: 4
#     Node 6, Type 0, BuildingBlock: GIZVER_clean_linker_0, # of connection points: 4
#     Node 7, Type 0, BuildingBlock: GIZVER_clean_linker_0, # of connection points: 4
#     Node 8, Type 1, BuildingBlock: TAGTUT_clean_sbu_3, # of connection points: 8
#     Node 9, Type 1, BuildingBlock: TAGTUT_clean_sbu_3, # of connection points: 8
#     Node 10, Type 1, BuildingBlock: TAGTUT_clean_sbu_3, # of connection points: 8
#     Node 11, Type 1, BuildingBlock: TAGTUT_clean_sbu_3, # of connection points: 8
#     Edge 12, Type (0, 1), BuildingBlock: ZUJKAS_clean_linker_0, # of connection points: 2
#     Edge 13, Type (0, 1), BuildingBlock: ZUJKAS_clean_linker_0, # of connection points: 2
#     Edge 14, Type (0, 1), BuildingBlock: ZUJKAS_clean_linker_0, # of connection points: 2
#     Edge 15, Type (0, 1), BuildingBlock: ZUJKAS_clean_linker_0, # of connection points: 2
#     Edge 16, Type (0, 1), BuildingBlock: ZUJKAS_clean_linker_0, # of connection points: 2
#     Edge 17, Type (0, 1), BuildingBlock: ZUJKAS_clean_linker_0, # of connection points: 2
#     Edge 18, Type (0, 1), BuildingBlock: ZUJKAS_clean_linker_0, # of connection points: 2
#     Edge 19, Type (0, 1), BuildingBlock: ZUJKAS_clean_linker_0, # of connection points: 2
#     Edge 20, Type (0, 1), BuildingBlock: ZUJKAS_clean_linker_0, # of connection points: 2
#     Edge 21, Type (0, 1), BuildingBlock: ZUJKAS_clean_linker_0, # of connection points: 2
#     Edge 22, Type (0, 1), BuildingBlock: ZUJKAS_clean_linker_0, # of connection points: 2
#     Edge 23, Type (0, 1), BuildingBlock: ZUJKAS_clean_linker_0, # of connection points: 2
#     Edge 24, Type (0, 1), BuildingBlock: ZUJKAS_clean_linker_0, # of connection points: 2
#     Edge 25, Type (0, 1), BuildingBlock: ZUJKAS_clean_linker_0, # of connection points: 2
#     Edge 26, Type (0, 1), BuildingBlock: ZUJKAS_clean_linker_0, # of connection points: 2
#     Edge 27, Type (0, 1), BuildingBlock: ZUJKAS_clean_linker_0, # of connection points: 2
#     Edge 28, Type (0, 1), BuildingBlock: ZUJKAS_clean_linker_0, # of connection points: 2
#     Edge 29, Type (0, 1), BuildingBlock: ZUJKAS_clean_linker_0, # of connection points: 2
#     Edge 30, Type (0, 1), BuildingBlock: ZUJKAS_clean_linker_0, # of connection points: 2
#     Edge 31, Type (0, 1), BuildingBlock: ZUJKAS_clean_linker_0, # of connection points: 2
#     Edge 32, Type (0, 1), BuildingBlock: ZUJKAS_clean_linker_0, # of connection points: 2
#     Edge 33, Type (0, 1), BuildingBlock: ZUJKAS_clean_linker_0, # of connection points: 2
#     Edge 34, Type (0, 1), BuildingBlock: ZUJKAS_clean_linker_0, # of connection points: 2
#     Edge 35, Type (0, 1), BuildingBlock: ZUJKAS_clean_linker_0, # of connection points: 2
#     Edge 36, Type (0, 1), BuildingBlock: ZUJKAS_clean_linker_0, # of connection points: 2
#     Edge 37, Type (0, 1), BuildingBlock: ZUJKAS_clean_linker_0, # of connection points: 2
#     Edge 38, Type (0, 1), BuildingBlock: ZUJKAS_clean_linker_0, # of connection points: 2
#     Edge 39, Type (0, 1), BuildingBlock: ZUJKAS_clean_linker_0, # of connection points: 2
#     Edge 40, Type (0, 1), BuildingBlock: ZUJKAS_clean_linker_0, # of connection points: 2
#     Edge 41, Type (0, 1), BuildingBlock: ZUJKAS_clean_linker_0, # of connection points: 2
#     Edge 42, Type (0, 1), BuildingBlock: ZUJKAS_clean_linker_0, # of connection points: 2
#     Edge 43, Type (0, 1), BuildingBlock: ZUJKAS_clean_linker_0, # of connection points: 2
# Relax obj value: 0.182
# Max RMSD: 0.274
# Mean RMSD: 0.225
data_MOF--net-sqc--node1-TAGTUT_clean_sbu_3--node2-GIZVER_clean_linker_0--edge1-ZUJKAS_clean_linker_0
_symmetry_space_group_name_H-M    P1
_symmetry_Int_Tables_number       1
_symmetry_cell_setting            triclinic
loop_
_symmetry_equiv_pos_as_xyz
'x, y, z'
_cell_length_a     31.583563
_cell_length_b     31.56451
_cell_length_c     88.856821
_cell_angle_alpha  90.676568
_cell_angle_beta   89.977519
_cell_angle_gamma 89.876616
loop_
_atom_site_label
_atom_site_type_symbol
_atom_site_fract_x
_atom_site_fract_y
_atom_site_fract_z
_atom_type_partial_charge
H0 H 0.99915 0.02375 0.45699 0.0
H1 H 0.00957 0.07678 0.50181 0.0
H2 H 0.90123 0.00213 0.48946 0.0
H3 H 0.05254 0.07555 0.46215 0.0
H4 H 0.04945 0.10625 0.4791 0.0
H5 H 0.08929 0.00303 0.46269 0.0
H6 H 0.19484 0.99885 0.4931 0.0
H7 H 0.0998 0.09542 0.49857 0.0
C8 C 0.9872 0.02713 0.46838 0.0
C9 C 0.94812 0.00908 0.47215 0.0
C10 C 0.0101 0.05086 0.47914 0.0
C11 C 0.99307 0.05697 0.49368 0.0
C12 C 0.95404 0.0387 0.49753 0.0
C13 C 0.93241 0.0143 0.48678 0.0
C14 C 0.05027 0.0732 0.47461 0.0
C15 C 0.08916 0.05068 0.48038 0.0
C16 C 0.10536 0.01497 0.47264 0.0
C17 C 0.14318 0.99577 0.47739 0.0
C18 C 0.16451 0.01229 0.48996 0.0
C19 C 0.1495 0.04853 0.49752 0.0
C20 C 0.11138 0.06719 0.49284 0.0
H21 H 0.422 0.75922 0.74019 0.0
H22 H 0.34588 0.76553 0.78041 0.0
H23 H 0.32069 0.84934 0.74376 0.0
H24 H 0.4473 0.73145 0.76573 0.0
H25 H 0.40948 0.72407 0.78039 0.0
H26 H 0.44173 0.68879 0.7415 0.0
H27 H 0.38454 0.56658 0.74576 0.0
H28 H 0.36824 0.65991 0.78098 0.0
C29 C 0.39515 0.77195 0.74632 0.0
C30 C 0.37107 0.80459 0.73995 0.0
C31 C 0.38562 0.75684 0.76078 0.0
C32 C 0.35233 0.77568 0.76903 0.0
C33 C 0.32855 0.80889 0.76285 0.0
C34 C 0.33757 0.82232 0.74823 0.0
C35 C 0.41352 0.72375 0.76795 0.0
C36 C 0.40448 0.68001 0.76169 0.0
C37 C 0.42177 0.66737 0.74774 0.0
C38 C 0.41382 0.62683 0.74188 0.0
C39 C 0.38976 0.59829 0.75022 0.0
C40 C 0.37405 0.60936 0.76448 0.0
C41 C 0.38036 0.65086 0.76999 0.0
H42 H 0.65521 0.05542 0.03435 0.0
H43 H 0.6703 0.14114 -0.00258 0.0
H44 H 0.74978 0.03085 0.00058 0.0
H45 H 0.62624 0.12989 0.0353 0.0
H46 H 0.62719 0.16184 0.01878 0.0
H47 H 0.57315 0.07494 0.03839 0.0
H48 H 0.47279 0.06513 0.00594 0.0
H49 H 0.58061 0.14366 -0.00318 0.0
C50 C 0.67067 0.06386 0.02391 0.0
C51 C 0.70311 0.03804 0.01807 0.0
C52 C 0.65847 0.10091 0.01642 0.0
C53 C 0.67928 0.11228 0.0031 0.0
C54 C 0.71207 0.08695 -0.00276 0.0
C55 C 0.72327 0.04959 0.00468 0.0
C56 C 0.62395 0.12875 0.02281 0.0
C57 C 0.58143 0.11155 0.01819 0.0
C58 C 0.55965 0.0836 0.02764 0.0
C59 C 0.5207 0.06644 0.02316 0.0
C60 C 0.50329 0.07784 0.0093 0.0
C61 C 0.52441 0.10594 -0.00018 0.0
C62 C 0.56394 0.12215 0.00416 0.0
H63 H 0.21993 0.24327 0.23464 0.0
H64 H 0.27649 0.25592 0.27869 0.0
H65 H 0.28105 0.13677 0.25532 0.0
H66 H 0.2032 0.30423 0.25041 0.0
H67 H 0.22022 0.30644 0.26955 0.0
H68 H 0.2312 0.35672 0.2347 0.0
H69 H 0.3425 0.42642 0.24747 0.0
H70 H 0.30214 0.32188 0.27413 0.0
C71 C 0.23783 0.22996 0.24386 0.0
C72 C 0.24998 0.18702 0.24329 0.0
C73 C 0.24795 0.25549 0.25651 0.0
C74 C 0.27016 0.23747 0.2686 0.0
C75 C 0.28237 0.19486 0.26804 0.0
C76 C 0.27234 0.17004 0.25543 0.0
C77 C 0.23129 0.30034 0.25783 0.0
C78 C 0.26452 0.3332 0.25417 0.0
C79 C 0.25871 0.36045 0.24187 0.0
C80 C 0.28625 0.39474 0.23961 0.0
C81 C 0.32129 0.39987 0.2491 0.0
C82 C 0.32734 0.37344 0.26145 0.0
C83 C 0.29864 0.34054 0.26408 0.0
H84 H 0.73555 0.25378 0.2548 0.0
H85 H 0.78059 0.23031 0.20964 0.0
H86 H 0.79139 0.35444 0.22928 0.0
H87 H 0.71155 0.1914 0.24057 0.0
H88 H 0.7287 0.18207 0.22167 0.0
H89 H 0.74347 0.15131 0.25989 0.0
H90 H 0.85008 0.07116 0.24956 0.0
H91 H 0.8077 0.16211 0.2174 0.0
C92 C 0.75067 0.26496 0.24465 0.0
C93 C 0.76341 0.30751 0.24368 0.0
C94 C 0.7568 0.23682 0.23242 0.0
C95 C 0.77638 0.25141 0.21924 0.0
C96 C 0.789 0.29374 0.21821 0.0
C97 C 0.78241 0.32146 0.23038 0.0
C98 C 0.73968 0.19232 0.23304 0.0
C99 C 0.77288 0.16137 0.2383 0.0
C100 C 0.76916 0.14213 0.25244 0.0
C101 C 0.79705 0.10954 0.25666 0.0
C102 C 0.82986 0.09776 0.2468 0.0
C103 C 0.83407 0.11665 0.23268 0.0
C104 C 0.80552 0.14852 0.22851 0.0
H105 H 0.70934 0.73096 0.74381 0.0
H106 H 0.78725 0.75748 0.78261 0.0
H107 H 0.78589 0.6327 0.76294 0.0
H108 H 0.69998 0.79669 0.75727 0.0
H109 H 0.7201 0.8008 0.77597 0.0
H110 H 0.73419 0.83367 0.73709 0.0
H111 H 0.8357 0.91929 0.7481 0.0
H112 H 0.79251 0.83088 0.78088 0.0
C113 C 0.73256 0.72087 0.75201 0.0
C114 C 0.74596 0.67838 0.75211 0.0
C115 C 0.7474 0.74976 0.76301 0.0
C116 C 0.77646 0.73585 0.77389 0.0
C117 C 0.79115 0.69391 0.77374 0.0
C118 C 0.77563 0.66551 0.76284 0.0
C119 C 0.72937 0.79405 0.7641 0.0
C120 C 0.76104 0.82707 0.75927 0.0
C121 C 0.75833 0.84477 0.74485 0.0
C122 C 0.78496 0.87838 0.74073 0.0
C123 C 0.81608 0.89233 0.75089 0.0
C124 C 0.81923 0.8751 0.76529 0.0
C125 C 0.79137 0.84279 0.76951 0.0
H126 H 0.49749 0.44592 0.0388 0.0
H127 H 0.50861 0.38985 0.99444 0.0
H128 H 0.40494 0.47343 0.00496 0.0
H129 H 0.54841 0.39036 0.03443 0.0
H130 H 0.54434 0.35891 0.01764 0.0
H131 H 0.58202 0.46779 0.03049 0.0
H132 H 0.69777 0.45698 0.00534 0.0
H133 H 0.60512 0.35802 0.00213 0.0
C134 C 0.48647 0.44276 0.02729 0.0
C135 C 0.44937 0.46377 0.02288 0.0
C136 C 0.50872 0.41681 0.01694 0.0
C137 C 0.49272 0.4112 0.00225 0.0
C138 C 0.45549 0.43207 -0.00217 0.0
C139 C 0.43473 0.45881 0.00812 0.0
C140 C 0.5471 0.39204 0.02194 0.0
C141 C 0.58788 0.41153 0.01643 0.0
C142 C 0.6015 0.45083 0.02237 0.0
C143 C 0.64077 0.46764 0.01811 0.0
C144 C 0.66674 0.44472 0.0082 0.0
C145 C 0.65436 0.40512 0.00256 0.0
C146 C 0.6145 0.38892 0.00639 0.0
H147 H 0.17517 0.55047 0.53709 0.0
H148 H 0.166 0.63799 0.50035 0.0
H149 H 0.27237 0.55358 0.50321 0.0
H150 H 0.12611 0.6139 0.53815 0.0
H151 H 0.11892 0.64577 0.52179 0.0
H152 H 0.09812 0.54071 0.53891 0.0
H153 H 0.9982 0.50948 0.50804 0.0
H154 H 0.07193 0.62222 0.50148 0.0
C155 C 0.18798 0.56356 0.52684 0.0
C156 C 0.22591 0.54728 0.52085 0.0
C157 C 0.1661 0.5962 0.51944 0.0
C158 C 0.18264 0.61284 0.5061 0.0
C159 C 0.22119 0.59782 0.50039 0.0
C160 C 0.24248 0.56502 0.50772 0.0
C161 C 0.12489 0.61287 0.52564 0.0
C162 C 0.08934 0.58434 0.52063 0.0
C163 C 0.08028 0.54771 0.52882 0.0
C164 C 0.04793 0.52034 0.52417 0.0
C165 C 0.02416 0.53 0.51136 0.0
C166 C 0.03202 0.56701 0.50325 0.0
C167 C 0.06549 0.5936 0.50769 0.0
C168 C 0.12321 0.67856 0.13381 0.0
C169 C 0.97226 0.61193 0.13165 0.0
C170 C 0.95817 0.68543 0.09162 0.0
Mg171 Mg 0.15816 0.76803 0.1213 0.0
Mg172 Mg 0.09746 0.84742 0.11058 0.0
O173 O 0.10785 0.78922 0.10988 0.0
Mg174 Mg 0.06562 0.74673 0.11671 0.0
O175 O 0.02715 0.7007 0.12341 0.0
Mg176 Mg 0.04821 0.65431 0.10963 0.0
Mg177 Mg 0.96863 0.70823 0.125 0.0
C178 C 0.01 0.81651 0.09694 0.0
O179 O 0.0366 0.78946 0.13521 0.0
O180 O 0.19759 0.81693 0.10813 0.0
O181 O 0.96869 0.76802 0.13749 0.0
O182 O 0.1501 0.819 0.14079 0.0
O183 O 0.15469 0.86833 0.09966 0.0
O184 O 0.10152 0.86603 0.13347 0.0
O185 O 0.09248 0.70267 0.0985 0.0
O186 O 0.16099 0.71968 0.102 0.0
C187 C 0.13204 0.69776 0.09543 0.0
C188 C 0.19138 0.85115 0.10076 0.0
O189 O 0.01687 0.77786 0.1007 0.0
O190 O 0.00456 0.60917 0.1229 0.0
O191 O 0.03518 0.84705 0.10034 0.0
O192 O 0.99273 0.66403 0.0924 0.0
O193 O 0.95397 0.64738 0.13466 0.0
O194 O 0.94498 0.70818 0.10261 0.0
O195 O 0.11484 0.71837 0.13262 0.0
O196 O 0.10138 0.65014 0.12686 0.0
C197 C 0.12727 0.85212 0.14327 0.0
C198 C 0.99912 0.79355 0.14067 0.0
C199 C 0.63848 0.79976 0.39159 0.0
C200 C 0.71073 0.65601 0.39445 0.0
C201 C 0.65493 0.63346 0.35048 0.0
Mg202 Mg 0.55739 0.83565 0.37426 0.0
Mg203 Mg 0.48315 0.77828 0.35753 0.0
O204 O 0.54071 0.78576 0.36128 0.0
Mg205 Mg 0.57962 0.74228 0.37005 0.0
O206 O 0.62309 0.70419 0.37918 0.0
Mg207 Mg 0.67474 0.72622 0.36884 0.0
Mg208 Mg 0.61924 0.6462 0.38265 0.0
C209 C 0.51882 0.68957 0.34534 0.0
O210 O 0.53016 0.71171 0.38555 0.0
O211 O 0.51589 0.87741 0.35898 0.0
O212 O 0.55509 0.64686 0.39174 0.0
O213 O 0.4989 0.8273 0.39032 0.0
O214 O 0.47016 0.83681 0.34595 0.0
O215 O 0.45343 0.78302 0.37902 0.0
O216 O 0.63097 0.76942 0.35477 0.0
O217 O 0.61387 0.8382 0.35832 0.0
C218 C 0.6378 0.80913 0.35269 0.0
C219 C 0.48643 0.87301 0.34915 0.0
O220 O 0.5546 0.69418 0.35215 0.0
O221 O 0.71521 0.68578 0.38489 0.0
O222 O 0.48845 0.71664 0.34648 0.0
O223 O 0.67316 0.66978 0.35138 0.0
O224 O 0.67527 0.63707 0.3963 0.0
O225 O 0.6314 0.61956 0.36101 0.0
O226 O 0.6003 0.79116 0.38766 0.0
O227 O 0.67039 0.77918 0.38636 0.0
C228 C 0.46411 0.80629 0.39022 0.0
C229 C 0.52614 0.67557 0.39194 0.0
C230 C 0.63621 0.17808 0.63915 0.0
C231 C 0.48381 0.12491 0.63666 0.0
C232 C 0.4774 0.19183 0.59458 0.0
Mg233 Mg 0.6833 0.25819 0.62569 0.0
Mg234 Mg 0.63843 0.34122 0.60976 0.0
O235 O 0.63833 0.28298 0.61246 0.0
Mg236 Mg 0.58945 0.24791 0.61901 0.0
O237 O 0.54513 0.2078 0.62583 0.0
Mg238 Mg 0.56346 0.1567 0.61394 0.0
Mg239 Mg 0.4874 0.21945 0.62774 0.0
C240 C 0.54825 0.31985 0.59568 0.0
O241 O 0.56245 0.29642 0.63607 0.0
O242 O 0.73215 0.29598 0.61201 0.0
O243 O 0.49308 0.28098 0.63904 0.0
O244 O 0.67798 0.31514 0.64323 0.0
O245 O 0.69936 0.34741 0.59919 0.0
O246 O 0.64281 0.36712 0.6317 0.0
O247 O 0.61386 0.19789 0.60207 0.0
O248 O 0.68284 0.20523 0.60807 0.0
C249 C 0.653 0.18686 0.60069 0.0
C250 C 0.73267 0.32623 0.60251 0.0
O251 O 0.54771 0.28225 0.60119 0.0
O252 O 0.51542 0.11858 0.62784 0.0
O253 O 0.57843 0.34623 0.59818 0.0
O254 O 0.51067 0.16859 0.59582 0.0
O255 O 0.4683 0.16199 0.63904 0.0
O256 O 0.46472 0.21613 0.60525 0.0
O257 O 0.63188 0.21793 0.63681 0.0
O258 O 0.61384 0.15018 0.63221 0.0
C259 C 0.66154 0.35249 0.64322 0.0
C260 C 0.52559 0.30447 0.64157 0.0
C261 C 0.15658 0.30599 0.89047 0.0
C262 C 0.22642 0.16223 0.88491 0.0
C263 C 0.15164 0.14875 0.8443 0.0
Mg264 Mg 0.06655 0.34306 0.8803 0.0
Mg265 Mg 0.98657 0.28883 0.86591 0.0
O266 O 0.04488 0.2967 0.86684 0.0
Mg267 Mg 0.08758 0.25239 0.8718 0.0
O268 O 0.1345 0.21288 0.87671 0.0
Mg269 Mg 0.17997 0.23771 0.86375 0.0
Mg270 Mg 0.1304 0.15414 0.87821 0.0
C271 C 0.01566 0.20395 0.84954 0.0
O272 O 0.04765 0.21922 0.88973 0.0
O273 O 0.01807 0.38773 0.86904 0.0
O274 O 0.07137 0.15171 0.89107 0.0
O275 O 0.01592 0.32801 0.89914 0.0
O276 O 0.96776 0.34958 0.85733 0.0
O277 O 0.96719 0.28564 0.88863 0.0
O278 O 0.12998 0.28388 0.85409 0.0
O279 O 0.11451 0.35083 0.86135 0.0
C280 C 0.13562 0.32427 0.85319 0.0
C281 C 0.9848 0.38518 0.86079 0.0
O282 O 0.05385 0.2073 0.85454 0.0
O283 O 0.22704 0.1941 0.87608 0.0
O284 O 0.98632 0.23072 0.85282 0.0
O285 O 0.1707 0.18462 0.84526 0.0
O286 O 0.19206 0.1426 0.88807 0.0
O287 O 0.13196 0.13285 0.85543 0.0
O288 O 0.11694 0.29701 0.88943 0.0
O289 O 0.18464 0.28725 0.88235 0.0
C290 C 0.98202 0.30561 0.9 0.0
C291 C 0.0453 0.18137 0.8948 0.0
H292 H 0.16699 0.00099 0.44818 0.0
H293 H 0.21677 0.95474 0.43485 0.0
H294 H 0.21867 0.8702 0.47269 0.0
H295 H 0.1704 0.91796 0.48635 0.0
H296 H 0.29486 0.88526 0.46512 0.0
H297 H 0.21084 0.84653 0.41255 0.0
H298 H 0.21234 0.9029 0.41486 0.0
H299 H 0.18422 0.87114 0.42835 0.0
C300 C 0.17696 0.9718 0.45343 0.0
C301 C 0.16457 0.96271 0.4682 0.0
C302 C 0.20541 0.94524 0.44579 0.0
C303 C 0.22115 0.90844 0.45262 0.0
C304 C 0.20698 0.89827 0.46713 0.0
H305 H 0.39065 0.763 0.39437 0.0
H306 H 0.33371 0.7789 0.41194 0.0
C307 C 0.17918 0.92532 0.47489 0.0
C308 C 0.25557 0.88339 0.44525 0.0
H309 H 0.28768 0.84422 0.41119 0.0
C310 C 0.29294 0.87556 0.45339 0.0
C311 C 0.25307 0.8696 0.43007 0.0
C312 C 0.21271 0.87257 0.42105 0.0
C313 C 0.32845 0.8566 0.44654 0.0
C314 C 0.32729 0.84683 0.43097 0.0
C315 C 0.28916 0.85245 0.42306 0.0
C316 C 0.36533 0.83241 0.4224 0.0
C317 C 0.36665 0.84709 0.45612 0.0
C318 C 0.40304 0.85607 0.42272 0.0
C319 C 0.43659 0.8459 0.41299 0.0
C320 C 0.43262 0.81252 0.40247 0.0
C321 C 0.39534 0.7882 0.40253 0.0
C322 C 0.36236 0.79768 0.41247 0.0
H323 H 0.35731 0.84113 0.46796 0.0
H324 H 0.38432 0.81904 0.45178 0.0
H325 H 0.38811 0.87487 0.45617 0.0
H326 H 0.40584 0.88378 0.42994 0.0
H327 H 0.46455 0.86571 0.41313 0.0
H328 H 0.45048 0.82797 0.73113 0.0
H329 H 0.46829 0.87595 0.71065 0.0
H330 H 0.33763 0.87725 0.6966 0.0
H331 H 0.31981 0.82824 0.71676 0.0
H332 H 0.39579 0.88003 0.6724 0.0
H333 H 0.43035 0.99999 0.71694 0.0
H334 H 0.46085 0.9521 0.71831 0.0
H335 H 0.40441 0.95046 0.72085 0.0
C336 C 0.42583 0.83726 0.72336 0.0
C337 C 0.38364 0.82481 0.72565 0.0
C338 C 0.43595 0.86506 0.71178 0.0
C339 C 0.40404 0.88094 0.7024 0.0
C340 C 0.36262 0.86567 0.70383 0.0
H341 H 0.41888 0.12371 0.65727 0.0
H342 H 0.39517 0.0634 0.67215 0.0
C343 C 0.35249 0.83779 0.71536 0.0
C344 C 0.41284 0.9164 0.69212 0.0
H345 H 0.44418 0.01977 0.69185 0.0
C346 C 0.40639 0.91061 0.67661 0.0
C347 C 0.42553 0.95655 0.69773 0.0
C348 C 0.43033 0.96546 0.71437 0.0
C349 C 0.41341 0.94372 0.66649 0.0
C350 C 0.42782 0.98334 0.67206 0.0
C351 C 0.43332 0.98932 0.6876 0.0
C352 C 0.43904 0.01869 0.662 0.0
C353 C 0.40482 0.93615 0.64998 0.0
C354 C 0.47139 0.01347 0.65134 0.0
C355 C 0.4849 0.04771 0.64282 0.0
C356 C 0.46664 0.08812 0.64488 0.0
C357 C 0.43361 0.09309 0.65538 0.0
C358 C 0.42003 0.05867 0.66389 0.0
H359 H 0.38215 0.9097 0.64819 0.0
H360 H 0.39191 0.96503 0.64462 0.0
H361 H 0.43488 0.9275 0.64424 0.0
H362 H 0.4872 0.98319 0.64994 0.0
H363 H 0.5105 0.04262 0.63488 0.0
H364 H 0.55672 0.1012 0.97125 0.0
H365 H 0.51826 0.11404 0.94761 0.0
H366 H 0.40754 0.15092 0.97306 0.0
H367 H 0.44557 0.13819 -0.00349 0.0
H368 H 0.44119 0.07054 0.93966 0.0
H369 H 0.41938 0.24464 0.94118 0.0
H370 H 0.45957 0.2181 0.95208 0.0
H371 H 0.40569 0.22007 0.95863 0.0
C372 C 0.52447 0.11292 0.97171 0.0
C373 C 0.50394 0.11867 0.98562 0.0
C374 C 0.50256 0.12005 0.95827 0.0
C375 C 0.46024 0.1338 0.95863 0.0
C376 C 0.44036 0.14097 0.97254 0.0
H377 H 0.23751 0.1047 0.9075 0.0
H378 H 0.30061 0.09509 0.92299 0.0
C379 C 0.46199 0.13345 0.98591 0.0
C380 C 0.43509 0.13722 0.94467 0.0
H381 H 0.36985 0.2049 0.92605 0.0
C382 C 0.42623 0.10005 0.93645 0.0
C383 C 0.41596 0.1758 0.94046 0.0
C384 C 0.42593 0.21701 0.94846 0.0
C385 C 0.39659 0.09999 0.92468 0.0
C386 C 0.37511 0.13798 0.92122 0.0
C387 C 0.38603 0.17566 0.92882 0.0
C388 C 0.33921 0.13913 0.91052 0.0
C389 C 0.38788 0.05914 0.91629 0.0
C390 C 0.34005 0.16684 0.89832 0.0
C391 C 0.30399 0.17258 0.8895 0.0
C392 C 0.26618 0.15097 0.89279 0.0
C393 C 0.26605 0.12175 0.90461 0.0
C394 C 0.30221 0.11604 0.91344 0.0
H395 H 0.41523 0.03704 0.91694 0.0
H396 H 0.36014 0.04334 0.92142 0.0
H397 H 0.38063 0.06504 0.90426 0.0
H398 H 0.36825 0.18505 0.89592 0.0
H399 H 0.30538 0.19522 0.88044 0.0
H400 H 0.17168 0.1786 0.23028 0.0
H401 H 0.14825 0.12128 0.21336 0.0
H402 H 0.27545 0.07131 0.21209 0.0
H403 H 0.29923 0.12923 0.22843 0.0
H404 H 0.23839 0.06549 0.185 0.0
H405 H 0.13021 0.00229 0.22855 0.0
H406 H 0.11886 0.05588 0.22333 0.0
H407 H 0.16801 0.04367 0.23256 0.0
C408 C 0.19479 0.15602 0.22605 0.0
C409 C 0.23718 0.15809 0.23081 0.0
C410 C 0.18126 0.12289 0.2166 0.0
C411 C 0.20984 0.0912 0.21187 0.0
C412 C 0.2527 0.095 0.21577 0.0
H413 H 0.19362 0.84925 0.16334 0.0
H414 H 0.21337 0.90494 0.18154 0.0
C415 C 0.26624 0.12811 0.22511 0.0
C416 C 0.19535 0.05334 0.20324 0.0
H417 H 0.1289 0.968 0.20463 0.0
C418 C 0.2146 0.04411 0.18933 0.0
C419 C 0.16454 0.02518 0.20898 0.0
C420 C 0.14446 0.03192 0.22423 0.0
C421 C 0.20339 0.00797 0.1809 0.0
C422 C 0.17232 0.98022 0.18656 0.0
C423 C 0.15296 0.9893 0.20042 0.0
C424 C 0.15769 0.94327 0.17762 0.0
C425 C 0.2242 0.99999 0.16584 0.0
C426 C 0.1192 0.9458 0.16991 0.0
C427 C 0.10809 0.91448 0.15946 0.0
C428 C 0.13491 0.8795 0.15668 0.0
C429 C 0.17209 0.87551 0.16526 0.0
C430 C 0.18353 0.90738 0.1756 0.0
H431 H 0.24427 0.02698 0.16231 0.0
H432 H 0.2444 0.97125 0.16648 0.0
H433 H 0.19981 0.99408 0.15707 0.0
H434 H 0.09884 0.97324 0.17134 0.0
H435 H 0.07936 0.91889 0.15301 0.0
H436 H 0.19048 0.01206 0.52114 0.0
H437 H 0.24538 0.04417 0.53703 0.0
H438 H 0.22687 0.16378 0.515 0.0
H439 H 0.17214 0.13177 0.49898 0.0
H440 H 0.31356 0.13219 0.51575 0.0
H441 H 0.23593 0.13333 0.57188 0.0
H442 H 0.23301 0.08387 0.56169 0.0
H443 H 0.2064 0.12972 0.5545 0.0
C444 C 0.19759 0.0454 0.5199 0.0
C445 C 0.17696 0.06948 0.50889 0.0
C446 C 0.22884 0.06369 0.52898 0.0
C447 C 0.24 0.10632 0.52718 0.0
C448 C 0.21852 0.13084 0.51655 0.0
H449 H 0.40916 0.24063 0.58735 0.0
H450 H 0.35395 0.22413 0.56913 0.0
C451 C 0.18703 0.11265 0.50754 0.0
C452 C 0.27593 0.1244 0.53575 0.0
H453 H 0.3099 0.14667 0.57137 0.0
C454 C 0.31275 0.13573 0.5279 0.0
C455 C 0.27455 0.12911 0.55156 0.0
C456 C 0.23527 0.11873 0.56044 0.0
C457 C 0.34874 0.15072 0.53555 0.0
C458 C 0.34777 0.15415 0.55141 0.0
C459 C 0.31058 0.14379 0.5592 0.0
C460 C 0.38494 0.16798 0.56031 0.0
C461 C 0.38743 0.16288 0.52666 0.0
C462 C 0.4215 0.14266 0.561 0.0
C463 C 0.4535 0.15211 0.57141 0.0
C464 C 0.44911 0.1868 0.58137 0.0
C465 C 0.41359 0.2135 0.57993 0.0
C466 C 0.38186 0.20414 0.56953 0.0
H467 H 0.37993 0.16766 0.51458 0.0
H468 H 0.40177 0.19235 0.5313 0.0
H469 H 0.41137 0.1372 0.52742 0.0
H470 H 0.42421 0.11428 0.55409 0.0
H471 H 0.48028 0.13078 0.57226 0.0
H472 H 0.34185 0.84209 0.79086 0.0
H473 H 0.30077 0.89826 0.8032 0.0
H474 H 0.208 0.89171 0.76764 0.0
H475 H 0.24919 0.83555 0.75519 0.0
H476 H 0.239 0.9722 0.77215 0.0
H477 H 0.19009 0.90303 0.82642 0.0
H478 H 0.2458 0.89759 0.82294 0.0
H479 H 0.20857 0.87093 0.8108 0.0
C480 C 0.31189 0.85148 0.78598 0.0
C481 C 0.29865 0.83444 0.77209 0.0
C482 C 0.28851 0.88373 0.793 0.0
C483 C 0.25129 0.89911 0.78634 0.0
C484 C 0.23669 0.88035 0.77294 0.0
H485 H 0.10148 0.08381 0.83504 0.0
H486 H 0.12044 0.02624 0.81796 0.0
C487 C 0.26009 0.84819 0.76589 0.0
C488 C 0.22999 0.93728 0.79261 0.0
H489 H 0.18717 0.97855 0.82478 0.0
C490 C 0.22712 0.9735 0.7836 0.0
C491 C 0.21427 0.9388 0.80748 0.0
C492 C 0.21442 0.90038 0.81742 0.0
C493 C 0.21006 0.01163 0.78924 0.0
C494 C 0.19619 0.01368 0.80435 0.0
C495 C 0.198 0.97707 0.8132 0.0
C496 C 0.18052 0.05337 0.81153 0.0
C497 C 0.20698 0.04923 0.77898 0.0
C498 C 0.20687 0.08904 0.81296 0.0
C499 C 0.19539 0.12285 0.8225 0.0
C500 C 0.15785 0.12091 0.83096 0.0
C501 C 0.13026 0.08659 0.82858 0.0
C502 C 0.14132 0.05335 0.81891 0.0
H503 H 0.20656 0.03924 0.76695 0.0
H504 H 0.17809 0.06824 0.7814 0.0
H505 H 0.235 0.06983 0.78076 0.0
H506 H 0.23763 0.08948 0.80758 0.0
H507 H 0.2176 0.14854 0.82423 0.0
H508 H 0.4958 0.08091 0.05211 0.0
H509 H 0.44531 0.03895 0.06662 0.0
H510 H 0.4412 0.94571 0.03072 0.0
H511 H 0.49055 0.98832 0.01604 0.0
H512 H 0.36434 0.97181 0.03801 0.0
H513 H 0.45007 0.93114 0.09024 0.0
H514 H 0.45049 0.98696 0.08668 0.0
H515 H 0.47673 0.95109 0.07381 0.0
C516 C 0.48489 0.05088 0.04754 0.0
C517 C 0.4968 0.03773 0.033 0.0
C518 C 0.45621 0.02686 0.05584 0.0
C519 C 0.43974 0.98899 0.04981 0.0
C520 C 0.4535 0.97481 0.03559 0.0
H521 H 0.27055 0.81787 0.09653 0.0
H522 H 0.33087 0.85066 0.08407 0.0
C523 C 0.48166 0.99906 0.02723 0.0
C524 C 0.40473 0.96669 0.05746 0.0
H525 H 0.37463 0.92285 0.09071 0.0
C526 C 0.36677 0.96075 0.04949 0.0
C527 C 0.40801 0.95199 0.07239 0.0
C528 C 0.44867 0.95521 0.08122 0.0
C529 C 0.33177 0.94113 0.0561 0.0
C530 C 0.33437 0.92823 0.07125 0.0
C531 C 0.37256 0.93334 0.07915 0.0
C532 C 0.29787 0.90892 0.07902 0.0
C533 C 0.29259 0.93389 0.04669 0.0
C534 C 0.25946 0.93105 0.08047 0.0
C535 C 0.22473 0.91227 0.08746 0.0
C536 C 0.22802 0.87122 0.09332 0.0
C537 C 0.26687 0.84951 0.09212 0.0
C538 C 0.30144 0.8682 0.08503 0.0
H539 H 0.29992 0.93415 0.03446 0.0
H540 H 0.27743 0.90321 0.0494 0.0
H541 H 0.26948 0.95966 0.04902 0.0
H542 H 0.25636 0.96292 0.07622 0.0
H543 H 0.19546 0.93005 0.08835 0.0
H544 H 0.25257 0.13217 0.28551 0.0
H545 H 0.29347 0.08809 0.30272 0.0
H546 H 0.40338 0.16617 0.29545 0.0
H547 H 0.3621 0.21073 0.27823 0.0
H548 H 0.41331 0.07755 0.28854 0.0
H549 H 0.34489 0.1036 0.34539 0.0
H550 H 0.306 0.09591 0.33087 0.0
H551 H 0.33969 0.1417 0.33047 0.0
C552 C 0.28507 0.14065 0.28801 0.0
C553 C 0.30434 0.17474 0.2807 0.0
C554 C 0.30834 0.11561 0.29783 0.0
C555 C 0.3513 0.12414 0.30043 0.0
C556 C 0.37013 0.15942 0.29367 0.0
H557 H 0.50381 0.95568 0.35623 0.0
H558 H 0.47502 0.01919 0.34453 0.0
C559 C 0.34662 0.18486 0.28394 0.0
C560 C 0.3773 0.09276 0.30849 0.0
H561 H 0.38379 0.03892 0.34148 0.0
C562 C 0.40746 0.06957 0.3002 0.0
C563 C 0.36953 0.08252 0.32368 0.0
C564 C 0.33853 0.10747 0.33319 0.0
C565 C 0.42863 0.03497 0.30651 0.0
C566 C 0.41913 0.02331 0.32143 0.0
C567 C 0.39058 0.04777 0.32997 0.0
C568 C 0.4374 0.98486 0.32817 0.0
C569 C 0.46037 0.01059 0.29712 0.0
C570 C 0.42552 0.9446 0.32283 0.0
C571 C 0.44168 0.90814 0.32953 0.0
C572 C 0.47012 0.9114 0.34165 0.0
C573 C 0.48214 0.95194 0.34687 0.0
C574 C 0.46569 0.98832 0.34024 0.0
H575 H 0.47088 0.02888 0.28719 0.0
H576 H 0.48855 0.00213 0.30394 0.0
H577 H 0.44565 0.98072 0.29301 0.0
H578 H 0.40329 0.94143 0.3136 0.0
H579 H 0.43172 0.87748 0.32525 0.0
H580 H 0.91768 0.98402 0.51717 0.0
H581 H 0.86386 0.00167 0.5361 0.0
H582 H 0.88373 0.13469 0.52822 0.0
H583 H 0.93779 0.11717 0.50932 0.0
H584 H 0.86891 0.11451 0.5588 0.0
H585 H 0.74807 0.04401 0.52064 0.0
H586 H 0.79063 0.00903 0.52563 0.0
H587 H 0.80145 0.05511 0.51461 0.0
C588 C 0.9114 0.01704 0.51982 0.0
C589 C 0.93169 0.04926 0.51175 0.0
C590 C 0.88039 0.02705 0.5305 0.0
C591 C 0.869 0.06941 0.53322 0.0
C592 C 0.89181 0.10176 0.52616 0.0
H593 H 0.64838 0.19222 0.57032 0.0
H594 H 0.6981 0.15702 0.55296 0.0
C595 C 0.92298 0.09176 0.51548 0.0
C596 C 0.83155 0.07992 0.54261 0.0
H597 H 0.72389 0.06912 0.54435 0.0
C598 C 0.83725 0.10445 0.55569 0.0
C599 C 0.79016 0.06732 0.53835 0.0
C600 C 0.78195 0.04274 0.52398 0.0
C601 C 0.8027 0.11638 0.56474 0.0
C602 C 0.76145 0.1029 0.56069 0.0
C603 C 0.75563 0.07878 0.54752 0.0
C604 C 0.72412 0.11541 0.5698 0.0
C605 C 0.81047 0.14416 0.57841 0.0
C606 C 0.72025 0.10138 0.58465 0.0
C607 C 0.69179 0.12121 0.59448 0.0
C608 C 0.66657 0.15498 0.58955 0.0
C609 C 0.6669 0.16564 0.57427 0.0
C610 C 0.69562 0.1459 0.56441 0.0
H611 H 0.84245 0.15875 0.57824 0.0
H612 H 0.78642 0.16983 0.57919 0.0
H613 H 0.80793 0.12476 0.5887 0.0
H614 H 0.74161 0.07749 0.58894 0.0
H615 H 0.69227 0.11277 0.60625 0.0
H616 H 0.72075 0.08123 0.26696 0.0
H617 H 0.70828 0.02854 0.28631 0.0
H618 H 0.8421 0.02319 0.29564 0.0
H619 H 0.85492 0.07687 0.27649 0.0
H620 H 0.80289 0.9427 0.28921 0.0
H621 H 0.71595 0.03502 0.33281 0.0
H622 H 0.69581 0.04212 0.31411 0.0
H623 H 0.74841 0.05973 0.31867 0.0
C624 C 0.74745 0.07003 0.27345 0.0
C625 C 0.78886 0.08336 0.27016 0.0
C626 C 0.74027 0.03966 0.28445 0.0
C627 C 0.77427 0.02207 0.2924 0.0
C628 C 0.81547 0.03637 0.28959 0.0
H629 H 0.7031 0.85332 0.36424 0.0
H630 H 0.74909 0.90056 0.35003 0.0
C631 C 0.82269 0.067 0.27865 0.0
C632 C 0.76674 0.98665 0.30283 0.0
H633 H 0.70925 0.95966 0.33368 0.0
C634 C 0.783 0.94641 0.29909 0.0
C635 C 0.74125 0.99173 0.31577 0.0
C636 C 0.72464 0.03456 0.32069 0.0
C637 C 0.77253 0.91063 0.30758 0.0
C638 C 0.74483 0.91532 0.31998 0.0
C639 C 0.73041 0.95597 0.32413 0.0
C640 C 0.72734 0.87866 0.32819 0.0
C641 C 0.79066 0.86812 0.30306 0.0
C642 C 0.70167 0.84893 0.32063 0.0
C643 C 0.67584 0.82142 0.32877 0.0
C644 C 0.67522 0.82371 0.34452 0.0
C645 C 0.70364 0.85068 0.35207 0.0
C646 C 0.72965 0.87785 0.34396 0.0
H647 H 0.82097 0.87167 0.29685 0.0
H648 H 0.79618 0.84796 0.31302 0.0
H649 H 0.76798 0.85159 0.29549 0.0
H650 H 0.69868 0.84954 0.30849 0.0
H651 H 0.65336 0.8016 0.32277 0.0
H652 H 0.72558 0.03673 0.04762 0.0
H653 H 0.76676 0.98201 0.06027 0.0
H654 H 0.75966 0.90252 0.02052 0.0
H655 H 0.71934 0.95783 0.00766 0.0
H656 H 0.75854 0.89757 0.06721 0.0
H657 H 0.88588 0.92103 0.02472 0.0
H658 H 0.84037 0.95542 0.02601 0.0
H659 H 0.8358 0.90386 0.01735 0.0
C660 C 0.73188 0.00716 0.04172 0.0
C661 C 0.71975 0.00163 0.02662 0.0
C662 C 0.7555 0.97594 0.04893 0.0
C663 C 0.76714 0.93864 0.04121 0.0
C664 C 0.75196 0.93154 0.02655 0.0
H665 H 0.97081 0.77118 0.07451 0.0
H666 H 0.90714 0.79206 0.06037 0.0
C667 C 0.72878 0.96299 0.01926 0.0
C668 C 0.79843 0.90961 0.04806 0.0
H669 H 0.90108 0.8763 0.04482 0.0
C670 C 0.78947 0.89235 0.0622 0.0
C671 C 0.83886 0.90284 0.04151 0.0
C672 C 0.85111 0.92196 0.02663 0.0
C673 C 0.82043 0.87004 0.07023 0.0
C674 C 0.86126 0.8651 0.06397 0.0
C675 C 0.86954 0.8801 0.0495 0.0
C676 C 0.89736 0.85019 0.07304 0.0
C677 C 0.80988 0.85314 0.08558 0.0
C678 C 0.91295 0.87632 0.08462 0.0
C679 C 0.94945 0.86499 0.09242 0.0
C680 C 0.9707 0.82705 0.0889 0.0
C681 C 0.95468 0.80041 0.07749 0.0
C682 C 0.91849 0.81225 0.06944 0.0
H683 H 0.77515 0.8501 0.08722 0.0
H684 H 0.82499 0.82175 0.08728 0.0
H685 H 0.82225 0.87526 0.09432 0.0
H686 H 0.89744 0.90608 0.08737 0.0
H687 H 0.96112 0.88598 0.10122 0.0
H688 H 0.79817 0.90985 0.79242 0.0
H689 H 0.84137 0.95831 0.80765 0.0
H690 H 0.9479 0.93534 0.77823 0.0
H691 H 0.90415 0.88811 0.76263 0.0
H692 H 0.91483 0.95734 0.82325 0.0
H693 H 0.93032 0.06076 0.7734 0.0
H694 H 0.89584 0.01537 0.77357 0.0
H695 H 0.95187 0.00861 0.77069 0.0
C696 C 0.83112 0.91434 0.78945 0.0
C697 C 0.84786 0.89561 0.77633 0.0
C698 C 0.85574 0.94213 0.79811 0.0
C699 C 0.89752 0.95134 0.79383 0.0
C700 C 0.91538 0.92966 0.78148 0.0
H701 H 0.05058 0.12477 0.84999 0.0
H702 H 0.02662 0.06143 0.8362 0.0
C703 C 0.89057 0.90242 0.77268 0.0
C704 C 0.92076 0.9862 0.80153 0.0
H705 H 0.96443 0.08347 0.79557 0.0
C706 C 0.92595 0.98483 0.81721 0.0
C707 C 0.93462 0.02237 0.79363 0.0
C708 C 0.92758 0.02722 0.77692 0.0
C709 C 0.94397 0.01889 0.82524 0.0
C710 C 0.95821 0.05482 0.81731 0.0
C711 C 0.9538 0.05577 0.80161 0.0
C712 C 0.97474 0.0932 0.8251 0.0
C713 C 0.94582 0.01681 0.84219 0.0
C714 C 0.95452 0.13234 0.82303 0.0
C715 C 0.9687 0.16856 0.83063 0.0
C716 C 0.00363 0.16647 0.84039 0.0
C717 C 0.02438 0.12749 0.84223 0.0
C718 C 0.0102 0.09117 0.83459 0.0
H719 H 0.92413 0.99231 0.84667 0.0
H720 H 0.97849 0.00851 0.84569 0.0
H721 H 0.93742 0.04783 0.84742 0.0
H722 H 0.92711 0.13471 0.81575 0.0
H723 H 0.95194 0.19813 0.82901 0.0
H724 H 0.92396 0.04202 0.44522 0.0
H725 H 0.86368 0.01862 0.42976 0.0
H726 H 0.8474 0.91038 0.45833 0.0
H727 H 0.90745 0.93346 0.47373 0.0
H728 H 0.84264 0.93704 0.41471 0.0
H729 H 0.73439 0.98044 0.46159 0.0
H730 H 0.78819 0.99952 0.46047 0.0
H731 H 0.77768 0.94689 0.467 0.0
C732 C 0.90836 0.0125 0.44787 0.0
C733 C 0.9201 0.98958 0.46068 0.0
C734 C 0.87374 0.99945 0.43915 0.0
C735 C 0.85058 0.96347 0.4432 0.0
C736 C 0.86442 0.93876 0.45525 0.0
H737 H 0.66037 0.79678 0.4207 0.0
H738 H 0.70555 0.84873 0.43339 0.0
C739 C 0.89886 0.95173 0.46394 0.0
C740 C 0.81069 0.95246 0.43543 0.0
H741 H 0.70562 0.93597 0.44212 0.0
C742 C 0.81244 0.93756 0.42053 0.0
C743 C 0.77144 0.95366 0.44309 0.0
C744 C 0.76756 0.97137 0.45888 0.0
C745 C 0.77636 0.9208 0.41344 0.0
C746 C 0.73751 0.91979 0.42143 0.0
C747 C 0.73536 0.93697 0.43603 0.0
C748 C 0.70106 0.89508 0.4157 0.0
C749 C 0.78079 0.90167 0.39786 0.0
C750 C 0.68112 0.90535 0.4021 0.0
C751 C 0.65485 0.87574 0.39492 0.0
C752 C 0.64819 0.83595 0.40137 0.0
C753 C 0.66443 0.82769 0.41571 0.0
C754 C 0.69052 0.8572 0.42289 0.0
H755 H 0.81436 0.89957 0.39418 0.0
H756 H 0.76689 0.86938 0.39744 0.0
H757 H 0.76341 0.92152 0.38968 0.0
H758 H 0.68848 0.9347 0.39649 0.0
H759 H 0.64328 0.88231 0.38371 0.0
H760 H 0.81748 0.09258 0.20378 0.0
H761 H 0.86082 0.04626 0.18783 0.0
H762 H 0.96111 0.05062 0.22075 0.0
H763 H 0.91751 0.09674 0.2369 0.0
H764 H 0.9425 0.04641 0.17501 0.0
H765 H 0.92601 0.9258 0.21993 0.0
H766 H 0.89595 0.97442 0.2201 0.0
H767 H 0.95083 0.97474 0.2254 0.0
C768 C 0.84928 0.08484 0.2074 0.0
C769 C 0.864 0.09783 0.22164 0.0
C770 C 0.87395 0.05822 0.19831 0.0
C771 C 0.91371 0.04428 0.20329 0.0
C772 C 0.93009 0.06033 0.21687 0.0
H773 H 0.04961 0.8276 0.16252 0.0
H774 H 0.03469 0.89043 0.1783 0.0
C775 C 0.9053 0.08674 0.22604 0.0
C776 C 0.93528 0.00944 0.19506 0.0
H777 H 0.95829 0.90393 0.19741 0.0
C778 C 0.94653 0.01541 0.17995 0.0
C779 C 0.94038 0.96897 0.20157 0.0
C780 C 0.92743 0.96027 0.2176 0.0
C781 C 0.96153 0.98159 0.17104 0.0
C782 C 0.96479 0.94091 0.17739 0.0
C783 C 0.95558 0.93531 0.19265 0.0
C784 C 0.97398 0.90307 0.16805 0.0
C785 C 0.97294 0.98926 0.15482 0.0
C786 C 0.94398 0.88882 0.15753 0.0
C787 C 0.95185 0.85255 0.14885 0.0
C788 C 0.99015 0.83042 0.15041 0.0
C789 C 0.02004 0.84449 0.16104 0.0
C790 C 0.01164 0.88023 0.17001 0.0
H791 H 0.97811 0.02344 0.15262 0.0
H792 H 0.00198 0.97135 0.15164 0.0
H793 H 0.94673 0.97801 0.14749 0.0
H794 H 0.91436 0.9057 0.1561 0.0
H795 H 0.92841 0.84232 0.14069 0.0
H796 H 0.7393 0.03981 0.97311 0.0
H797 H 0.79248 0.06007 0.95446 0.0
H798 H 0.79672 0.18604 0.97366 0.0
H799 H 0.74411 0.16593 0.9925 0.0
H800 H 0.79675 0.13724 0.93322 0.0
H801 H 0.91939 0.12826 0.97818 0.0
H802 H 0.8689 0.1019 0.97974 0.0
H803 H 0.87206 0.15828 0.98214 0.0
C804 C 0.75113 0.072 0.97321 0.0
C805 C 0.73788 0.10118 0.98433 0.0
C806 C 0.7813 0.08353 0.96253 0.0
C807 C 0.79872 0.1243 0.96287 0.0
C808 C 0.78373 0.15432 0.97334 0.0
H809 H 0.01722 0.23058 0.91794 0.0
H810 H 0.95736 0.21668 0.93475 0.0
C811 C 0.75346 0.14287 0.984 0.0
C812 C 0.83518 0.13412 0.95316 0.0
H813 H 0.94243 0.1467 0.95395 0.0
C814 C 0.82863 0.13935 0.9377 0.0
C815 C 0.87654 0.1369 0.95915 0.0
C816 C 0.88502 0.13086 0.97569 0.0
C817 C 0.86266 0.14757 0.92801 0.0
C818 C 0.90415 0.14952 0.93396 0.0
C819 C 0.91056 0.1448 0.94945 0.0
C820 C 0.94139 0.15664 0.92427 0.0
C821 C 0.85401 0.1548 0.91154 0.0
C822 C 0.95316 0.12653 0.91328 0.0
C823 C 0.98789 0.13393 0.90393 0.0
C824 C 0.01076 0.17184 0.90531 0.0
C825 C 0.99955 0.20143 0.91654 0.0
C826 C 0.9655 0.19354 0.92612 0.0
H827 H 0.82004 0.16168 0.90941 0.0
H828 H 0.87327 0.18153 0.9073 0.0
H829 H 0.86281 0.12592 0.90501 0.0
H830 H 0.9354 0.09741 0.91193 0.0
H831 H 0.99611 0.11065 0.89535 0.0
H832 H 0.84264 0.91185 0.72105 0.0
H833 H 0.82893 0.96554 0.70194 0.0
H834 H 0.69495 0.95639 0.71056 0.0
H835 H 0.70826 0.90344 0.72979 0.0
H836 H 0.71819 0.96202 0.67936 0.0
H837 H 0.79163 0.08733 0.71536 0.0
H838 H 0.82342 0.04122 0.71132 0.0
H839 H 0.77658 0.03632 0.7226 0.0
C840 C 0.81021 0.9209 0.71873 0.0
C841 C 0.77656 0.9036 0.72703 0.0
C842 C 0.80249 0.95163 0.70786 0.0
C843 C 0.76104 0.96546 0.7051 0.0
C844 C 0.72721 0.94623 0.71261 0.0
H845 H 0.63451 0.17962 0.6696 0.0
H846 H 0.67383 0.13081 0.68579 0.0
C847 C 0.73487 0.91565 0.7235 0.0
C848 C 0.75264 0.00138 0.69498 0.0
H849 H 0.76248 0.10885 0.69226 0.0
C850 C 0.72827 0.99405 0.68205 0.0
C851 C 0.76546 0.04315 0.69871 0.0
C852 C 0.79047 0.05282 0.7128 0.0
C853 C 0.71576 0.02753 0.67281 0.0
C854 C 0.72847 0.06936 0.67654 0.0
C855 C 0.7533 0.07667 0.68937 0.0
C856 C 0.71316 0.10588 0.66778 0.0
C857 C 0.68756 0.01807 0.65947 0.0
C858 C 0.72424 0.1098 0.65258 0.0
C859 C 0.7019 0.1376 0.6434 0.0
C860 C 0.66873 0.16219 0.64937 0.0
C861 C 0.66055 0.16145 0.66487 0.0
C862 C 0.68276 0.13342 0.67406 0.0
H863 H 0.67425 0.98555 0.65982 0.0
H864 H 0.66096 0.04109 0.65897 0.0
H865 H 0.70624 0.02092 0.64895 0.0
H866 H 0.74797 0.08915 0.64759 0.0
H867 H 0.70837 0.13758 0.63144 0.0
H868 H 0.72937 0.37449 0.0122 0.0
H869 H 0.78786 0.34765 -0.00336 0.0
H870 H 0.7088 0.35554 0.95721 0.0
H871 H 0.64995 0.38236 0.97285 0.0
H872 H 0.7966 0.27732 0.97404 0.0
H873 H 0.81132 0.44031 0.95144 0.0
H874 H 0.78183 0.42893 0.96832 0.0
H875 H 0.75961 0.41674 0.9502 0.0
C876 C 0.72421 0.3693 0.00027 0.0
C877 C 0.68538 0.38036 0.99365 0.0
C878 C 0.75756 0.35405 0.99141 0.0
C879 C 0.75272 0.3501 0.97579 0.0
C880 C 0.7131 0.35864 0.96926 0.0
H881 H 0.91286 0.257 0.90571 0.0
H882 H 0.86224 0.26508 0.92607 0.0
C883 C 0.67952 0.37363 0.97817 0.0
C884 C 0.79028 0.34139 0.96627 0.0
H885 H 0.8565 0.38798 0.94106 0.0
C886 C 0.8098 0.30146 0.96683 0.0
C887 C 0.808 0.37331 0.9572 0.0
C888 C 0.78946 0.4174 0.95678 0.0
C889 C 0.8459 0.29221 0.95812 0.0
C890 C 0.86256 0.32364 0.94857 0.0
C891 C 0.84375 0.36394 0.9484 0.0
C892 C 0.89702 0.3146 0.93765 0.0
C893 C 0.86572 0.24885 0.95916 0.0
C894 C 0.9339 0.3395 0.93742 0.0
C895 C 0.96329 0.33497 0.92568 0.0
C896 C 0.95586 0.30589 0.91388 0.0
C897 C 0.91968 0.2799 0.91455 0.0
C898 C 0.8907 0.28418 0.92628 0.0
H899 H 0.85939 0.2344 0.97027 0.0
H900 H 0.85169 0.22801 0.95037 0.0
H901 H 0.90049 0.24997 0.95736 0.0
H902 H 0.93919 0.36339 0.94606 0.0
H903 H 0.99061 0.35563 0.92547 0.0
H904 H 0.75358 0.34906 0.19899 0.0
H905 H 0.7903 0.39049 0.17992 0.0
H906 H 0.90509 0.32016 0.18817 0.0
H907 H 0.86802 0.27838 0.20729 0.0
H908 H 0.91138 0.40829 0.19282 0.0
H909 H 0.83924 0.37236 0.13732 0.0
H910 H 0.80084 0.3812 0.15194 0.0
H911 H 0.83612 0.33653 0.15301 0.0
C912 C 0.78619 0.34145 0.19628 0.0
C913 C 0.80809 0.31055 0.20442 0.0
C914 C 0.80711 0.36497 0.18538 0.0
C915 C 0.85029 0.35808 0.18253 0.0
C916 C 0.87164 0.32556 0.1901 0.0
H917 H 0.99353 0.52994 0.12457 0.0
H918 H 0.9672 0.46524 0.13622 0.0
C919 C 0.85053 0.30169 0.20094 0.0
C920 C 0.87405 0.38932 0.17361 0.0
H921 H 0.87432 0.4399 0.13986 0.0
C922 C 0.90394 0.41465 0.18114 0.0
C923 C 0.86423 0.39754 0.1584 0.0
C924 C 0.83363 0.37021 0.14963 0.0
C925 C 0.92259 0.44945 0.1741 0.0
C926 C 0.91087 0.45914 0.15921 0.0
C927 C 0.88278 0.43253 0.15136 0.0
C928 C 0.926 0.49805 0.15191 0.0
C929 C 0.95385 0.47635 0.18276 0.0
C930 C 0.91103 0.53772 0.15682 0.0
C931 C 0.92575 0.57475 0.15017 0.0
C932 C 0.9559 0.5727 0.13853 0.0
C933 C 0.97051 0.53271 0.13357 0.0
C934 C 0.95546 0.49568 0.14015 0.0
H935 H 0.96599 0.45992 0.19287 0.0
H936 H 0.98105 0.48501 0.1755 0.0
H937 H 0.93807 0.50611 0.1865 0.0
H938 H 0.888 0.53999 0.16584 0.0
H939 H 0.91382 0.60495 0.15426 0.0
H940 H 0.94624 0.56845 0.50424 0.0
H941 H 0.89695 0.58486 0.48394 0.0
H942 H 0.00187 0.60946 0.45426 0.0
H943 H 0.05181 0.59286 0.47468 0.0
H944 H 0.89653 0.66606 0.46575 0.0
H945 H 0.92049 0.51552 0.43335 0.0
H946 H 0.93192 0.51957 0.45324 0.0
H947 H 0.96626 0.54433 0.43993 0.0
C948 C 0.95886 0.5772 0.49337 0.0
C949 C 0.00282 0.57897 0.49096 0.0
C950 C 0.93069 0.58672 0.48183 0.0
C951 C 0.94587 0.59794 0.46763 0.0
C952 C 0.98971 0.60051 0.46517 0.0
H953 H 0.78818 0.69446 0.39529 0.0
H954 H 0.84708 0.68003 0.41224 0.0
C955 C 0.01808 0.59128 0.47681 0.0
C956 C 0.91524 0.60682 0.45551 0.0
H957 H 0.86867 0.56275 0.42439 0.0
C958 C 0.89071 0.64379 0.45659 0.0
C959 C 0.90755 0.5773 0.44375 0.0
C960 C 0.93269 0.53676 0.44241 0.0
C961 C 0.85824 0.65189 0.44624 0.0
C962 C 0.85029 0.62222 0.43455 0.0
C963 C 0.87504 0.58538 0.43338 0.0
C964 C 0.81569 0.62879 0.42363 0.0
C965 C 0.83185 0.69153 0.4481 0.0
C966 C 0.77891 0.60403 0.42425 0.0
C967 C 0.74493 0.61222 0.4146 0.0
C968 C 0.7474 0.64514 0.4041 0.0
C969 C 0.785 0.66894 0.40325 0.0
C970 C 0.81876 0.66085 0.41294 0.0
H971 H 0.83763 0.70772 0.45907 0.0
H972 H 0.83972 0.7139 0.43897 0.0
H973 H 0.79763 0.6839 0.44718 0.0
H974 H 0.77612 0.57907 0.43246 0.0
H975 H 0.71658 0.59319 0.41553 0.0
H976 H 0.741 0.68194 0.72137 0.0
H977 H 0.72086 0.62411 0.70401 0.0
H978 H 0.69269 0.54443 0.74179 0.0
H979 H 0.71237 0.60191 0.75909 0.0
H980 H 0.76275 0.54174 0.70439 0.0
H981 H 0.58894 0.52914 0.71348 0.0
H982 H 0.618 0.57719 0.71757 0.0
H983 H 0.62121 0.53309 0.73009 0.0
C984 C 0.72959 0.65239 0.72591 0.0
C985 C 0.72839 0.64626 0.74153 0.0
C986 C 0.71834 0.61938 0.71603 0.0
C987 C 0.7051 0.58012 0.72164 0.0
C988 C 0.70231 0.5746 0.73723 0.0
H989 H 0.70263 0.33901 0.67028 0.0
H990 H 0.71316 0.39099 0.69082 0.0
C991 C 0.7138 0.60736 0.74708 0.0
C992 C 0.69744 0.54381 0.71129 0.0
H993 H 0.62095 0.47636 0.69831 0.0
C994 C 0.7318 0.52733 0.70308 0.0
C995 C 0.65706 0.52503 0.70971 0.0
C996 C 0.619 0.54207 0.71808 0.0
C997 C 0.72676 0.49271 0.69318 0.0
C998 C 0.68638 0.47404 0.69154 0.0
C999 C 0.65203 0.49036 0.69982 0.0
C1000 C 0.6782 0.44109 0.67994 0.0
C1001 C 0.76429 0.47715 0.68416 0.0
C1002 C 0.65457 0.45195 0.66726 0.0
C1003 C 0.64866 0.42272 0.65561 0.0
C1004 C 0.66599 0.38159 0.65639 0.0
C1005 C 0.68884 0.3703 0.66933 0.0
C1006 C 0.69496 0.39994 0.68103 0.0
H1007 H 0.7922 0.49826 0.68543 0.0
H1008 H 0.77332 0.44501 0.68796 0.0
H1009 H 0.75595 0.47477 0.67204 0.0
H1010 H 0.64134 0.48349 0.66622 0.0
H1011 H 0.63067 0.43275 0.64591 0.0
H1012 H 0.66201 0.47961 0.04734 0.0
H1013 H 0.70999 0.53373 0.05724 0.0
H1014 H 0.70878 0.59624 0.01428 0.0
H1015 H 0.66229 0.54068 0.0042 0.0
H1016 H 0.78574 0.58312 0.02209 0.0
H1017 H 0.70607 0.6526 0.07165 0.0
H1018 H 0.70672 0.59613 0.07326 0.0
H1019 H 0.67799 0.62039 0.05806 0.0
C1020 C 0.67065 0.50591 0.04024 0.0
C1021 C 0.65822 0.50644 0.0251 0.0
C1022 C 0.69808 0.53692 0.04589 0.0
C1023 C 0.71278 0.56951 0.03658 0.0
C1024 C 0.69787 0.57156 0.02171 0.0
H1025 H 0.89078 0.73449 0.08366 0.0
H1026 H 0.83289 0.71489 0.0669 0.0
C1027 C 0.67104 0.54011 0.01599 0.0
C1028 C 0.74786 0.59751 0.04172 0.0
H1029 H 0.78317 0.65376 0.07217 0.0
C1030 C 0.78479 0.59937 0.0329 0.0
C1031 C 0.74667 0.61953 0.05567 0.0
C1032 C 0.70698 0.62243 0.06508 0.0
C1033 C 0.82125 0.62039 0.03805 0.0
C1034 C 0.82134 0.63877 0.05265 0.0
C1035 C 0.78359 0.63915 0.06106 0.0
C1036 C 0.86058 0.65497 0.05996 0.0
C1037 C 0.85923 0.62233 0.02779 0.0
C1038 C 0.89658 0.62889 0.06112 0.0
C1039 C 0.93056 0.6408 0.07032 0.0
C1040 C 0.92862 0.67843 0.0789 0.0
C1041 C 0.8936 0.70553 0.07708 0.0
C1042 C 0.86018 0.69414 0.0676 0.0
H1043 H 0.84933 0.62279 0.01579 0.0
H1044 H 0.8789 0.65075 0.03015 0.0
H1045 H 0.87895 0.59358 0.02937 0.0
H1046 H 0.89736 0.598 0.0557 0.0
H1047 H 0.9567 0.61888 0.07163 0.0
H1048 H 0.69135 0.3165 0.26062 0.0
H1049 H 0.67483 0.37351 0.2787 0.0
H1050 H 0.79902 0.42655 0.27218 0.0
H1051 H 0.81632 0.3692 0.25444 0.0
H1052 H 0.73284 0.40324 0.30643 0.0
H1053 H 0.701 0.52003 0.26121 0.0
H1054 H 0.69476 0.46368 0.25812 0.0
H1055 H 0.74673 0.48598 0.25958 0.0
C1056 C 0.71547 0.33974 0.26329 0.0
C1057 C 0.75502 0.33853 0.25602 0.0
C1058 C 0.70586 0.37241 0.2735 0.0
C1059 C 0.73555 0.40436 0.27652 0.0
C1060 C 0.77559 0.40237 0.26979 0.0
H1061 H 0.71565 0.64086 0.32838 0.0
H1062 H 0.73628 0.5864 0.3098 0.0
C1063 C 0.78532 0.36966 0.25966 0.0
C1064 C 0.72446 0.44032 0.28651 0.0
H1065 H 0.69438 0.54428 0.28629 0.0
C1066 C 0.72442 0.4341 0.30208 0.0
C1067 C 0.71414 0.48052 0.2807 0.0
C1068 C 0.7139 0.48829 0.26399 0.0
C1069 C 0.71409 0.46722 0.31207 0.0
C1070 C 0.70234 0.50719 0.30627 0.0
C1071 C 0.70319 0.51358 0.29068 0.0
C1072 C 0.6876 0.54204 0.31628 0.0
C1073 C 0.71643 0.45918 0.32877 0.0
C1074 C 0.6524 0.53579 0.32557 0.0
C1075 C 0.64099 0.56633 0.33624 0.0
C1076 C 0.66382 0.60442 0.33763 0.0
C1077 C 0.69739 0.61192 0.32761 0.0
C1078 C 0.70925 0.58084 0.31701 0.0
H1079 H 0.73791 0.43228 0.33131 0.0
H1080 H 0.72764 0.48768 0.33502 0.0
H1081 H 0.68443 0.45096 0.33297 0.0
H1082 H 0.63452 0.50657 0.3249 0.0
H1083 H 0.61509 0.55926 0.34377 0.0
H1084 H 0.02842 0.52256 0.55382 0.0
H1085 H 0.99022 0.46874 0.5677 0.0
H1086 H 0.99972 0.38317 0.52956 0.0
H1087 H 0.03659 0.43808 0.51539 0.0
H1088 H 0.92218 0.3932 0.53649 0.0
H1089 H 0.00426 0.36145 0.58963 0.0
H1090 H 1.00001 0.41766 0.58769 0.0
H1091 H 0.03052 0.3872 0.57418 0.0
C1092 C 0.02376 0.4917 0.54862 0.0
C1093 C 0.03509 0.48437 0.53356 0.0
C1094 C 0.00218 0.46073 0.55661 0.0
C1095 C 0.99241 0.42161 0.54976 0.0
C1096 C 0.007 0.41305 0.53509 0.0
H1097 H 0.80562 0.27928 0.60245 0.0
H1098 H 0.87116 0.29366 0.5888 0.0
C1099 C 0.02797 0.44433 0.52701 0.0
C1100 C 0.96014 0.39405 0.55671 0.0
H1101 H 0.92588 0.35979 0.59086 0.0
C1102 C 0.92362 0.38479 0.54828 0.0
C1103 C 0.96197 0.3822 0.572 0.0
C1104 C 0.00161 0.38728 0.58129 0.0
C1105 C 0.88764 0.36765 0.55505 0.0
C1106 C 0.88779 0.36084 0.57073 0.0
C1107 C 0.92546 0.36623 0.5789 0.0
C1108 C 0.84831 0.35176 0.57899 0.0
C1109 C 0.84936 0.35838 0.54541 0.0
C1110 C 0.81415 0.38018 0.57821 0.0
C1111 C 0.77664 0.37205 0.58591 0.0
C1112 C 0.77283 0.33562 0.59472 0.0
C1113 C 0.80752 0.30769 0.59577 0.0
C1114 C 0.84498 0.31574 0.58797 0.0
H1115 H 0.85873 0.35075 0.53363 0.0
H1116 H 0.83072 0.33153 0.54989 0.0
H1117 H 0.82873 0.38687 0.54515 0.0
H1118 H 0.81657 0.40882 0.57167 0.0
H1119 H 0.75071 0.39439 0.58498 0.0
H1120 H 0.78713 0.70792 0.80417 0.0
H1121 H 0.8277 0.6713 0.8236 0.0
H1122 H 0.89932 0.60573 0.7891 0.0
H1123 H 0.86033 0.64342 0.76977 0.0
H1124 H 0.82334 0.58872 0.82706 0.0
H1125 H 0.99118 0.62923 0.81887 0.0
H1126 H 0.94892 0.66013 0.81078 0.0
H1127 H 0.96846 0.61325 0.80124 0.0
C1128 C 0.81262 0.68688 0.80077 0.0
C1129 C 0.82038 0.67821 0.78547 0.0
C1130 C 0.83561 0.66582 0.81188 0.0
C1131 C 0.86682 0.63603 0.80783 0.0
C1132 C 0.87615 0.62924 0.79255 0.0
H1133 H 0.92082 0.39325 0.84026 0.0
H1134 H 0.89213 0.45852 0.82993 0.0
C1135 C 0.85341 0.65037 0.78148 0.0
C1136 C 0.88511 0.60733 0.81919 0.0
H1137 H 0.97744 0.5588 0.82904 0.0
C1138 C 0.85715 0.5829 0.82777 0.0
C1139 C 0.9292 0.6001 0.82034 0.0
C1140 C 0.96109 0.62749 0.81242 0.0
C1141 C 0.87185 0.54941 0.83657 0.0
C1142 C 0.91551 0.53945 0.83647 0.0
C1143 C 0.94382 0.56588 0.82884 0.0
C1144 C 0.932 0.50015 0.84327 0.0
C1145 C 0.84029 0.52445 0.84561 0.0
C1146 C 0.96474 0.50184 0.85391 0.0
C1147 C 0.98163 0.4645 0.85971 0.0
C1148 C 0.96614 0.42475 0.85493 0.0
C1149 C 0.93325 0.42325 0.84429 0.0
C1150 C 0.91658 0.46059 0.83845 0.0
H1151 H 0.81236 0.54417 0.8487 0.0
H1152 H 0.8288 0.49727 0.83872 0.0
H1153 H 0.85473 0.51201 0.85607 0.0
H1154 H 0.9773 0.53205 0.85769 0.0
H1155 H 0.00695 0.46684 0.86789 0.0
H1156 H 0.4144 0.43408 0.04876 0.0
H1157 H 0.35367 0.4652 0.06226 0.0
H1158 H 0.36053 0.57567 0.03427 0.0
H1159 H 0.42071 0.54458 0.02071 0.0
H1160 H 0.33695 0.54465 0.07759 0.0
H1161 H 0.24204 0.52518 0.02554 0.0
H1162 H 0.29263 0.49952 0.02813 0.0
H1163 H 0.29016 0.55423 0.02275 0.0
C1164 C 0.40378 0.46562 0.04588 0.0
C1165 C 0.42203 0.48699 0.0337 0.0
C1166 C 0.3689 0.48315 0.05347 0.0
C1167 C 0.35197 0.52214 0.04895 0.0
C1168 C 0.37255 0.54507 0.03768 0.0
H1169 H 0.17246 0.70753 0.06915 0.0
H1170 H 0.21986 0.65566 0.05732 0.0
C1171 C 0.40715 0.52756 0.03007 0.0
C1172 C 0.31143 0.53803 0.05526 0.0
H1173 H 0.21246 0.57009 0.04478 0.0
C1174 C 0.30942 0.54955 0.07052 0.0
C1175 C 0.27543 0.54385 0.04601 0.0
C1176 C 0.27489 0.52965 0.02973 0.0
C1177 C 0.27323 0.56942 0.07656 0.0
C1178 C 0.2381 0.57732 0.06709 0.0
C1179 C 0.2394 0.5639 0.05201 0.0
C1180 C 0.20249 0.60459 0.07212 0.0
C1181 C 0.27374 0.58405 0.0928 0.0
C1182 C 0.17515 0.59223 0.08374 0.0
C1183 C 0.1474 0.62178 0.09033 0.0
C1184 C 0.14693 0.66382 0.08535 0.0
C1185 C 0.17174 0.67503 0.07294 0.0
C1186 C 0.19905 0.64553 0.06628 0.0
H1187 H 0.30543 0.58028 0.09804 0.0
H1188 H 0.2642 0.61787 0.09369 0.0
H1189 H 0.25063 0.56523 0.09932 0.0
H1190 H 0.17714 0.56062 0.0883 0.0
H1191 H 0.12922 0.61277 0.10012 0.0
H1192 H 0.30143 0.61557 0.78146 0.0
H1193 H 0.26698 0.55895 0.79571 0.0
H1194 H 0.3656 0.4718 0.78218 0.0
H1195 H 0.40069 0.52812 0.76841 0.0
H1196 H 0.23712 0.4799 0.78446 0.0
H1197 H 0.36166 0.45864 0.8279 0.0
H1198 H 0.35934 0.50463 0.81605 0.0
H1199 H 0.38009 0.45543 0.8088 0.0
C1200 C 0.31598 0.58449 0.78171 0.0
C1201 C 0.35361 0.57627 0.77375 0.0
C1202 C 0.29617 0.55213 0.78974 0.0
C1203 C 0.31393 0.51127 0.79006 0.0
C1204 C 0.35163 0.50318 0.78224 0.0
H1205 H 0.16615 0.29549 0.82577 0.0
H1206 H 0.21446 0.33415 0.80895 0.0
C1207 C 0.37139 0.53535 0.77425 0.0
C1208 C 0.29274 0.47686 0.79838 0.0
H1209 H 0.3047 0.41036 0.82812 0.0
C1210 C 0.25192 0.46446 0.79395 0.0
C1211 C 0.31231 0.45674 0.81072 0.0
C1212 C 0.35562 0.46967 0.81627 0.0
C1213 C 0.22964 0.43317 0.80178 0.0
C1214 C 0.24899 0.41345 0.81424 0.0
C1215 C 0.29027 0.42507 0.81841 0.0
C1216 C 0.22446 0.38639 0.82457 0.0
C1217 C 0.18483 0.4229 0.79714 0.0
C1218 C 0.21571 0.40208 0.83903 0.0
C1219 C 0.18849 0.38038 0.84849 0.0
C1220 C 0.16953 0.34221 0.84378 0.0
C1221 C 0.18033 0.32487 0.82965 0.0
C1222 C 0.20756 0.34703 0.82004 0.0
H1223 H 0.17274 0.44481 0.78843 0.0
H1224 H 0.18365 0.39013 0.7925 0.0
H1225 H 0.16339 0.42449 0.80704 0.0
H1226 H 0.22851 0.43224 0.84279 0.0
H1227 H 0.18117 0.39436 0.85938 0.0
H1228 H 0.24528 0.54034 0.55074 0.0
H1229 H 0.29343 0.48891 0.56221 0.0
H1230 H 0.30763 0.42494 0.51935 0.0
H1231 H 0.25977 0.47629 0.50781 0.0
H1232 H 0.29763 0.39676 0.56359 0.0
H1233 H 0.42766 0.46821 0.53008 0.0
H1234 H 0.3765 0.49313 0.53209 0.0
H1235 H 0.38316 0.44862 0.51953 0.0
C1236 C 0.25794 0.51475 0.54385 0.0
C1237 C 0.24938 0.51267 0.52834 0.0
C1238 C 0.28541 0.48543 0.5504 0.0
C1239 C 0.30456 0.45361 0.54155 0.0
C1240 C 0.2937 0.4497 0.5263 0.0
H1241 H 0.48866 0.2728 0.58037 0.0
H1242 H 0.42741 0.29956 0.56621 0.0
C1243 C 0.26647 0.47908 0.51974 0.0
C1244 C 0.33905 0.42751 0.54791 0.0
H1245 H 0.44615 0.41357 0.54648 0.0
C1246 C 0.33008 0.39998 0.55978 0.0
C1247 C 0.38132 0.43209 0.54292 0.0
C1248 C 0.39302 0.4623 0.53054 0.0
C1249 C 0.36259 0.3776 0.56705 0.0
C1250 C 0.40491 0.38294 0.56224 0.0
C1251 C 0.41359 0.40945 0.55007 0.0
C1252 C 0.44125 0.36559 0.57071 0.0
C1253 C 0.35175 0.34992 0.58023 0.0
C1254 C 0.46965 0.39382 0.57759 0.0
C1255 C 0.50445 0.37873 0.58553 0.0
C1256 C 0.51166 0.33495 0.58681 0.0
C1257 C 0.48339 0.30658 0.5798 0.0
C1258 C 0.44847 0.32181 0.57174 0.0
H1259 H 0.31837 0.35411 0.58391 0.0
H1260 H 0.35652 0.31618 0.57699 0.0
H1261 H 0.37294 0.35704 0.5899 0.0
H1262 H 0.46469 0.42773 0.57691 0.0
H1263 H 0.5254 0.40154 0.59084 0.0
H1264 H 0.41253 0.3784 0.25727 0.0
H1265 H 0.46277 0.41681 0.27338 0.0
H1266 H 0.36348 0.43894 0.30597 0.0
H1267 H 0.3142 0.39879 0.29025 0.0
H1268 H 0.45521 0.49605 0.27788 0.0
H1269 H 0.45912 0.4252 0.33411 0.0
H1270 H 0.43781 0.39707 0.31801 0.0
H1271 H 0.4051 0.43331 0.32877 0.0
C1272 C 0.4022 0.38984 0.26822 0.0
C1273 C 0.35979 0.38548 0.27264 0.0
C1274 C 0.43075 0.41196 0.27738 0.0
C1275 C 0.41713 0.4307 0.29098 0.0
C1276 C 0.37531 0.42388 0.2958 0.0
H1277 H 0.45943 0.67753 0.32344 0.0
H1278 H 0.44271 0.612 0.30995 0.0
C1279 C 0.347 0.40104 0.28678 0.0
C1280 C 0.44367 0.46323 0.29866 0.0
H1281 H 0.47021 0.50217 0.3334 0.0
C1282 C 0.45936 0.49671 0.29 0.0
C1283 C 0.44991 0.46415 0.31444 0.0
C1284 C 0.43746 0.42767 0.3243 0.0
C1285 C 0.47827 0.53227 0.29674 0.0
C1286 C 0.48039 0.53512 0.3126 0.0
C1287 C 0.4677 0.50038 0.32123 0.0
C1288 C 0.49226 0.57511 0.32041 0.0
C1289 C 0.49494 0.56686 0.28678 0.0
C1290 C 0.52506 0.57598 0.33105 0.0
C1291 C 0.53451 0.6135 0.33889 0.0
C1292 C 0.51113 0.65064 0.33631 0.0
C1293 C 0.4783 0.64957 0.32563 0.0
C1294 C 0.46891 0.61218 0.31781 0.0
H1295 H 0.5047 0.55399 0.27561 0.0
H1296 H 0.46952 0.59052 0.28488 0.0
H1297 H 0.52243 0.58325 0.292 0.0
H1298 H 0.54295 0.5475 0.33338 0.0
H1299 H 0.5591 0.6131 0.34732 0.0
H1300 H 0.43558 0.35439 0.98619 0.0
H1301 H 0.38347 0.33962 0.96641 0.0
H1302 H 0.37262 0.47339 0.95777 0.0
H1303 H 0.42455 0.48827 0.97756 0.0
H1304 H 0.29546 0.43471 0.96438 0.0
H1305 H 0.38331 0.34406 0.92041 0.0
H1306 H 0.38952 0.32413 0.93913 0.0
H1307 H 0.40975 0.37564 0.93463 0.0
C1308 C 0.42333 0.38045 0.97965 0.0
C1309 C 0.43406 0.42245 0.98337 0.0
C1310 C 0.39338 0.37202 0.96842 0.0
C1311 C 0.3741 0.40546 0.96066 0.0
C1312 C 0.38699 0.44719 0.96367 0.0
H1313 H 0.20784 0.37183 0.88503 0.0
H1314 H 0.25674 0.40363 0.90316 0.0
C1315 C 0.41682 0.45561 0.97489 0.0
C1316 C 0.33775 0.3974 0.9505 0.0
H1317 H 0.30826 0.34477 0.91849 0.0
C1318 C 0.29826 0.41529 0.95428 0.0
C1319 C 0.34155 0.37209 0.93736 0.0
C1320 C 0.38337 0.35313 0.93253 0.0
C1321 C 0.2623 0.40809 0.94531 0.0
C1322 C 0.26601 0.38221 0.93232 0.0
C1323 C 0.30556 0.36467 0.92848 0.0
C1324 C 0.22954 0.37247 0.92242 0.0
C1325 C 0.22077 0.4284 0.94969 0.0
C1326 C 0.19639 0.34648 0.9274 0.0
C1327 C 0.16784 0.32878 0.91703 0.0
C1328 C 0.17263 0.33665 0.90161 0.0
C1329 C 0.20324 0.36582 0.8969 0.0
C1330 C 0.23143 0.38364 0.90722 0.0
H1331 H 0.22509 0.45431 0.95812 0.0
H1332 H 0.20455 0.44136 0.93965 0.0
H1333 H 0.1998 0.40411 0.95466 0.0
H1334 H 0.19474 0.33706 0.93907 0.0
H1335 H 0.1451 0.30562 0.92085 0.0
H1336 H 0.49764 0.62421 0.73481 0.0
H1337 H 0.52999 0.58236 0.71436 0.0
H1338 H 0.40581 0.55207 0.69721 0.0
H1339 H 0.37357 0.59381 0.71752 0.0
H1340 H 0.50901 0.49502 0.71369 0.0
H1341 H 0.47652 0.56845 0.65865 0.0
H1342 H 0.47717 0.59842 0.67613 0.0
H1343 H 0.43117 0.56822 0.67084 0.0
C1344 C 0.47747 0.61 0.72628 0.0
C1345 C 0.43322 0.61195 0.72767 0.0
C1346 C 0.49592 0.586 0.71468 0.0
C1347 C 0.47029 0.56429 0.70426 0.0
C1348 C 0.42618 0.56917 0.70497 0.0
H1349 H 0.45452 0.35284 0.64528 0.0
H1350 H 0.44699 0.41755 0.66053 0.0
C1351 C 0.40777 0.59279 0.7166 0.0
C1352 C 0.48821 0.5305 0.69452 0.0
H1353 H 0.4871 0.49275 0.65843 0.0
C1354 C 0.50519 0.49474 0.70156 0.0
C1355 C 0.48286 0.53034 0.67876 0.0
C1356 C 0.4663 0.5686 0.67062 0.0
C1357 C 0.51412 0.45754 0.69338 0.0
C1358 C 0.50681 0.45661 0.67766 0.0
C1359 C 0.49219 0.49332 0.67051 0.0
C1360 C 0.51175 0.4173 0.66854 0.0
C1361 C 0.52864 0.41893 0.70185 0.0
C1362 C 0.55048 0.39557 0.66806 0.0
C1363 C 0.55476 0.35859 0.65942 0.0
C1364 C 0.52045 0.3428 0.65105 0.0
C1365 C 0.48151 0.3643 0.65165 0.0
C1366 C 0.47728 0.40138 0.66026 0.0
H1367 H 0.52168 0.42173 0.71408 0.0
H1368 H 0.51326 0.38975 0.69742 0.0
H1369 H 0.56341 0.41535 0.70056 0.0
H1370 H 0.5774 0.4072 0.67437 0.0
H1371 H 0.58473 0.34197 0.65944 0.0
H1372 H 0.29679 0.63716 0.49864 0.0
H1373 H 0.33384 0.65889 0.47582 0.0
H1374 H 0.22652 0.62036 0.44897 0.0
H1375 H 0.18893 0.59913 0.47196 0.0
H1376 H 0.30685 0.58049 0.44187 0.0
H1377 H 0.31902 0.7554 0.44437 0.0
H1378 H 0.33135 0.73095 0.46199 0.0
H1379 H 0.27872 0.72649 0.4544 0.0
C1380 C 0.28079 0.6344 0.48788 0.0
C1381 C 0.24026 0.61655 0.48692 0.0
C1382 C 0.30175 0.64704 0.47491 0.0
C1383 C 0.28264 0.64164 0.46078 0.0
C1384 C 0.24144 0.62522 0.45983 0.0
H1385 H 0.4469 0.7016 0.38437 0.0
H1386 H 0.38107 0.69031 0.39849 0.0
C1387 C 0.22012 0.61314 0.47289 0.0
C1388 C 0.30853 0.64729 0.44715 0.0
H1389 H 0.37371 0.71842 0.43034 0.0
C1390 C 0.32067 0.61081 0.43905 0.0
C1391 C 0.32627 0.6869 0.4435 0.0
C1392 C 0.31287 0.72725 0.45143 0.0
C1393 C 0.35256 0.61245 0.42811 0.0
C1394 C 0.37266 0.65146 0.42534 0.0
C1395 C 0.35834 0.68848 0.43262 0.0
C1396 C 0.41099 0.65402 0.41596 0.0
C1397 C 0.36574 0.57227 0.42003 0.0
C1398 C 0.44902 0.63606 0.42099 0.0
C1399 C 0.48643 0.64207 0.41293 0.0
C1400 C 0.48633 0.66676 0.39989 0.0
C1401 C 0.44793 0.68358 0.39465 0.0
C1402 C 0.41045 0.67707 0.40261 0.0
H1403 H 0.34076 0.54761 0.4206 0.0
H1404 H 0.37305 0.57855 0.40803 0.0
H1405 H 0.39479 0.55958 0.42538 0.0
H1406 H 0.44996 0.6184 0.43137 0.0
H1407 H 0.51563 0.62868 0.41718 0.0
H1408 H 0.26407 0.38628 0.20982 0.0
H1409 H 0.24721 0.44356 0.19221 0.0
H1410 H 0.26765 0.53617 0.22749 0.0
H1411 H 0.28439 0.47952 0.24505 0.0
H1412 H 0.18623 0.53976 0.2097 0.0
H1413 H 0.33399 0.5374 0.17559 0.0
H1414 H 0.30963 0.48715 0.17949 0.0
H1415 H 0.33191 0.51787 0.19462 0.0
C1416 C 0.26503 0.41887 0.21376 0.0
C1417 C 0.27598 0.42851 0.22873 0.0
C1418 C 0.25571 0.45148 0.20371 0.0
C1419 C 0.25681 0.49399 0.20856 0.0
C1420 C 0.26714 0.50358 0.22353 0.0
H1421 H 0.15026 0.71292 0.16075 0.0
H1422 H 0.19138 0.67536 0.18 0.0
C1423 C 0.27682 0.47119 0.2335 0.0
C1424 C 0.2452 0.52851 0.19825 0.0
H1425 H 0.27802 0.5809 0.16699 0.0
C1426 C 0.20636 0.54919 0.20043 0.0
C1427 C 0.27183 0.54064 0.1863 0.0
C1428 C 0.31437 0.51992 0.18382 0.0
C1429 C 0.19229 0.58037 0.19046 0.0
C1430 C 0.21852 0.59205 0.17825 0.0
C1431 C 0.25816 0.5723 0.17643 0.0
C1432 C 0.20263 0.61965 0.16607 0.0
C1433 C 0.14843 0.59862 0.19262 0.0
C1434 C 0.19845 0.60232 0.15156 0.0
C1435 C 0.17577 0.62382 0.14061 0.0
C1436 C 0.1567 0.66311 0.14393 0.0
C1437 C 0.1645 0.68259 0.15794 0.0
C1438 C 0.18749 0.66093 0.16898 0.0
H1439 H 0.12948 0.58026 0.20081 0.0
H1440 H 0.15097 0.63162 0.19696 0.0
H1441 H 0.13101 0.59926 0.18178 0.0
H1442 H 0.21021 0.57078 0.14898 0.0
H1443 H 0.17081 0.60836 0.1298 0.0
loop_
_geom_bond_atom_site_label_1
_geom_bond_atom_site_label_2
_geom_bond_distance
_geom_bond_site_symmetry_2
_ccdc_geom_bond_type
H0 C8 0.930 . S
H1 C11 0.930 . S
H2 C13 0.919 1_565 S
H3 C14 0.970 . S
H4 C14 0.970 . S
H5 C16 0.930 1_565 S
H6 C18 0.930 . S
H7 C20 0.930 . S
C8 H0 0.930 . S
C8 C9 1.382 1_545 S
C8 C10 1.426 . S
C9 C8 1.382 1_565 S
C9 C13 1.383 1_565 S
C10 C8 1.426 . S
C10 C11 1.375 . S
C10 C14 1.532 1_655 S
C11 H1 0.930 . S
C11 C10 1.375 . S
C11 C12 1.416 . S
C12 C11 1.416 . S
C12 C13 1.388 . S
C13 H2 0.919 1_545 S
C13 C9 1.383 1_545 S
C13 C12 1.388 . S
C14 H3 0.970 . S
C14 H4 0.970 . S
C14 C10 1.532 1_455 S
C14 C15 1.499 . S
C15 C14 1.499 . S
C15 C16 1.370 . S
C15 C20 1.415 . S
C16 H5 0.930 1_545 S
C16 C15 1.370 . S
C16 C17 1.407 1_545 S
C17 C16 1.407 1_565 S
C17 C18 1.364 . S
C18 H6 0.930 . S
C18 C17 1.364 . S
C18 C19 1.394 1_565 S
C19 C18 1.394 1_545 S
C19 C20 1.387 . S
C20 H7 0.930 . S
C20 C15 1.415 . S
C20 C19 1.387 . S
H21 C29 0.930 . S
H22 C32 0.930 . S
H23 C34 0.930 . S
H24 C35 0.970 . S
H25 C35 0.970 . S
H26 C37 0.930 . S
H27 C39 0.930 . S
H28 C41 0.930 . S
C29 H21 0.930 . S
C29 C30 1.382 . S
C29 C31 1.426 . S
C30 C29 1.382 . S
C30 C34 1.389 . S
C31 C29 1.426 . S
C31 C32 1.375 . S
C31 C35 1.532 . S
C32 H22 0.930 . S
C32 C31 1.375 . S
C32 C33 1.416 . S
C33 C32 1.416 . S
C33 C34 1.371 . S
C34 H23 0.930 . S
C34 C30 1.389 . S
C34 C33 1.371 . S
C35 H24 0.970 . S
C35 H25 0.970 . S
C35 C31 1.532 . S
C35 C36 1.499 . S
C36 C35 1.499 . S
C36 C37 1.370 . S
C36 C41 1.415 . S
C37 H26 0.930 . S
C37 C36 1.370 . S
C37 C38 1.407 . S
C38 C37 1.407 . S
C38 C39 1.365 . S
C39 H27 0.930 . S
C39 C38 1.365 . S
C39 C40 1.393 . S
C40 C39 1.393 . S
C40 C41 1.387 . S
C41 H28 0.930 . S
C41 C36 1.415 . S
C41 C40 1.387 . S
H42 C50 0.930 1_565 S
H43 C53 0.930 . S
H44 C55 0.930 1_556 S
H45 C56 0.970 . S
H46 C56 0.970 . S
H47 C58 0.930 1_565 S
H48 C60 0.912 1_556 S
H49 C62 0.930 . S
C50 H42 0.930 1_545 S
C50 C51 1.382 1_545 S
C50 C52 1.426 . S
C51 C50 1.382 1_565 S
C51 C55 1.389 . S
C52 C50 1.426 . S
C52 C53 1.375 1_554 S
C52 C56 1.532 . S
C53 H43 0.930 . S
C53 C52 1.375 1_556 S
C53 C54 1.416 . S
C54 C53 1.416 . S
C54 C55 1.371 1_546 S
C55 H44 0.930 1_554 S
C55 C51 1.389 . S
C55 C54 1.371 1_564 S
C56 H45 0.970 . S
C56 H46 0.970 . S
C56 C52 1.532 . S
C56 C57 1.499 . S
C57 C56 1.499 . S
C57 C58 1.370 . S
C57 C62 1.415 1_554 S
C58 H47 0.930 1_545 S
C58 C57 1.370 . S
C58 C59 1.407 1_545 S
C59 C58 1.407 1_565 S
C59 C60 1.415 . S
C60 H48 0.912 1_554 S
C60 C59 1.415 . S
C60 C61 1.364 1_564 S
C61 C60 1.364 1_546 S
C61 C62 1.387 . S
C62 H49 0.930 . S
C62 C57 1.415 1_556 S
C62 C61 1.387 . S
H63 C71 0.930 . S
H64 C74 0.930 . S
H65 C76 0.930 . S
H66 C77 0.970 . S
H67 C77 0.970 . S
H68 C79 0.930 . S
H69 C81 0.930 . S
H70 C83 0.930 . S
C71 H63 0.930 . S
C71 C72 1.382 . S
C71 C73 1.426 . S
C72 C71 1.382 . S
C72 C76 1.389 . S
C73 C71 1.426 . S
C73 C74 1.375 . S
C73 C77 1.532 . S
C74 H64 0.930 . S
C74 C73 1.375 . S
C74 C75 1.416 . S
C75 C74 1.416 . S
C75 C76 1.371 . S
C76 H65 0.930 . S
C76 C72 1.389 . S
C76 C75 1.371 . S
C77 H66 0.970 . S
C77 H67 0.970 . S
C77 C73 1.532 . S
C77 C78 1.499 . S
C78 C77 1.499 . S
C78 C79 1.370 . S
C78 C83 1.415 . S
C79 H68 0.930 . S
C79 C78 1.370 . S
C79 C80 1.407 . S
C80 C79 1.407 . S
C80 C81 1.365 . S
C81 H69 0.930 . S
C81 C80 1.365 . S
C81 C82 1.393 . S
C82 C81 1.393 . S
C82 C83 1.387 . S
C83 H70 0.930 . S
C83 C78 1.415 . S
C83 C82 1.387 . S
H84 C92 0.930 . S
H85 C95 0.930 . S
H86 C97 0.930 . S
H87 C98 0.970 . S
H88 C98 0.970 . S
H89 C100 0.930 . S
H90 C102 0.930 . S
H91 C104 0.930 . S
C92 H84 0.930 . S
C92 C93 1.382 . S
C92 C94 1.426 . S
C93 C92 1.382 . S
C93 C97 1.389 . S
C94 C92 1.426 . S
C94 C95 1.375 . S
C94 C98 1.532 . S
C95 H85 0.930 . S
C95 C94 1.375 . S
C95 C96 1.416 . S
C96 C95 1.416 . S
C96 C97 1.371 . S
C97 H86 0.930 . S
C97 C93 1.389 . S
C97 C96 1.371 . S
C98 H87 0.970 . S
C98 H88 0.970 . S
C98 C94 1.532 . S
C98 C99 1.499 . S
C99 C98 1.499 . S
C99 C100 1.370 . S
C99 C104 1.415 . S
C100 H89 0.930 . S
C100 C99 1.370 . S
C100 C101 1.407 . S
C101 C100 1.407 . S
C101 C102 1.365 . S
C102 H90 0.930 . S
C102 C101 1.365 . S
C102 C103 1.393 . S
C103 C102 1.393 . S
C103 C104 1.387 . S
C104 H91 0.930 . S
C104 C99 1.415 . S
C104 C103 1.387 . S
H105 C113 0.930 . S
H106 C116 0.930 . S
H107 C118 0.930 . S
H108 C119 0.970 . S
H109 C119 0.970 . S
H110 C121 0.930 . S
H111 C123 0.930 . S
H112 C125 0.930 . S
C113 H105 0.930 . S
C113 C114 1.382 . S
C113 C115 1.426 . S
C114 C113 1.382 . S
C114 C118 1.389 . S
C115 C113 1.426 . S
C115 C116 1.375 . S
C115 C119 1.532 . S
C116 H106 0.930 . S
C116 C115 1.375 . S
C116 C117 1.416 . S
C117 C116 1.416 . S
C117 C118 1.371 . S
C118 H107 0.930 . S
C118 C114 1.389 . S
C118 C117 1.371 . S
C119 H108 0.970 . S
C119 H109 0.970 . S
C119 C115 1.532 . S
C119 C120 1.499 . S
C120 C119 1.499 . S
C120 C121 1.370 . S
C120 C125 1.415 . S
C121 H110 0.930 . S
C121 C120 1.370 . S
C121 C122 1.407 . S
C122 C121 1.407 . S
C122 C123 1.365 . S
C123 H111 0.930 . S
C123 C122 1.365 . S
C123 C124 1.393 . S
C124 C123 1.393 . S
C124 C125 1.387 . S
C125 H112 0.930 . S
C125 C120 1.415 . S
C125 C124 1.387 . S
H126 C134 0.930 . S
H127 C137 0.930 . S
H128 C139 0.930 1_556 S
H129 C140 0.970 . S
H130 C140 0.970 . S
H131 C142 0.930 . S
H132 C144 0.930 1_556 S
H133 C146 0.930 . S
C134 H126 0.930 . S
C134 C135 1.382 . S
C134 C136 1.426 . S
C135 C134 1.382 . S
C135 C139 1.389 . S
C136 C134 1.426 . S
C136 C137 1.375 1_554 S
C136 C140 1.532 . S
C137 H127 0.930 . S
C137 C136 1.375 1_556 S
C137 C138 1.416 . S
C138 C137 1.416 . S
C138 C139 1.371 1_556 S
C139 H128 0.930 1_554 S
C139 C135 1.389 . S
C139 C138 1.371 1_554 S
C140 H129 0.970 . S
C140 H130 0.970 . S
C140 C136 1.532 . S
C140 C141 1.499 . S
C141 C140 1.499 . S
C141 C142 1.370 . S
C141 C146 1.415 1_554 S
C142 H131 0.930 . S
C142 C141 1.370 . S
C142 C143 1.407 . S
C143 C142 1.407 . S
C143 C144 1.365 . S
C144 H132 0.930 1_554 S
C144 C143 1.365 . S
C144 C145 1.393 1_554 S
C145 C144 1.393 1_556 S
C145 C146 1.387 . S
C146 H133 0.930 . S
C146 C141 1.415 1_556 S
C146 C145 1.387 . S
H147 C155 0.930 . S
H148 C158 0.930 . S
H149 C160 0.930 . S
H150 C161 0.970 . S
H151 C161 0.970 . S
H152 C163 0.930 . S
H153 C165 0.930 . S
H154 C167 0.930 . S
C155 H147 0.930 . S
C155 C156 1.382 . S
C155 C157 1.426 . S
C156 C155 1.382 . S
C156 C160 1.389 . S
C157 C155 1.426 . S
C157 C158 1.375 . S
C157 C161 1.532 . S
C158 H148 0.930 . S
C158 C157 1.375 . S
C158 C159 1.416 . S
C159 C158 1.416 . S
C159 C160 1.371 . S
C160 H149 0.930 . S
C160 C156 1.389 . S
C160 C159 1.371 . S
C161 H150 0.970 . S
C161 H151 0.970 . S
C161 C157 1.532 . S
C161 C162 1.499 . S
C162 C161 1.499 . S
C162 C163 1.370 . S
C162 C167 1.415 . S
C163 H152 0.930 . S
C163 C162 1.370 . S
C163 C164 1.407 . S
C164 C163 1.407 . S
C164 C165 1.365 . S
C165 H153 0.930 . S
C165 C164 1.365 . S
C165 C166 1.393 . S
C166 C165 1.393 . S
C166 C167 1.387 . S
C167 H154 0.930 . S
C167 C162 1.415 . S
C167 C166 1.387 . S
C168 O195 1.312 . S
C168 O196 1.208 . S
C169 O190 1.331 1_655 S
C169 O193 1.244 . S
C170 O192 1.264 1_655 S
C170 O194 1.273 . S
Mg171 O173 1.936 . S
Mg171 O180 2.081 . S
Mg171 O182 2.023 . S
Mg171 O186 2.031 . S
Mg171 O195 2.291 . S
Mg172 O173 1.963 . S
Mg172 O183 1.942 . S
Mg172 O184 1.955 . S
Mg172 O191 1.986 . S
O173 Mg171 1.936 . S
O173 Mg172 1.963 . S
O173 Mg174 1.915 . S
Mg174 O173 1.915 . S
Mg174 O175 1.915 . S
Mg174 O179 2.013 . S
Mg174 O185 2.114 . S
Mg174 O189 2.013 . S
Mg174 O195 2.114 . S
O175 Mg174 1.915 . S
O175 Mg176 1.936 . S
O175 Mg177 1.963 1_455 S
Mg176 O175 1.936 . S
Mg176 O185 2.291 . S
Mg176 O190 2.081 . S
Mg176 O192 2.023 . S
Mg176 O196 2.031 . S
Mg177 O175 1.963 1_655 S
Mg177 O181 1.986 . S
Mg177 O193 1.942 . S
Mg177 O194 1.955 . S
C178 O189 1.191 . S
C178 O191 1.307 . S
O179 Mg174 2.013 . S
O179 C198 1.191 . S
O180 Mg171 2.081 . S
O180 C188 1.331 . S
O181 Mg177 1.986 . S
O181 C198 1.307 1_655 S
O182 Mg171 2.023 . S
O182 C197 1.264 . S
O183 Mg172 1.942 . S
O183 C188 1.244 . S
O184 Mg172 1.955 . S
O184 C197 1.273 . S
O185 Mg174 2.114 . S
O185 Mg176 2.291 . S
O185 C187 1.312 . S
O186 Mg171 2.031 . S
O186 C187 1.208 . S
C187 O185 1.312 . S
C187 O186 1.208 . S
C188 O180 1.331 . S
C188 O183 1.244 . S
O189 Mg174 2.013 . S
O189 C178 1.191 . S
O190 C169 1.331 1_455 S
O190 Mg176 2.081 . S
O191 Mg172 1.986 . S
O191 C178 1.307 . S
O192 C170 1.264 1_455 S
O192 Mg176 2.023 . S
O193 C169 1.244 . S
O193 Mg177 1.942 . S
O194 C170 1.273 . S
O194 Mg177 1.955 . S
O195 C168 1.312 . S
O195 Mg171 2.291 . S
O195 Mg174 2.114 . S
O196 C168 1.208 . S
O196 Mg176 2.031 . S
C197 O182 1.264 . S
C197 O184 1.273 . S
C198 O179 1.191 . S
C198 O181 1.307 1_455 S
C199 O226 1.312 . S
C199 O227 1.208 . S
C200 O221 1.331 . S
C200 O224 1.244 . S
C201 O223 1.264 . S
C201 O225 1.273 . S
Mg202 O204 1.936 . S
Mg202 O211 2.081 . S
Mg202 O213 2.023 . S
Mg202 O217 2.031 . S
Mg202 O226 2.291 . S
Mg203 O204 1.963 . S
Mg203 O214 1.942 . S
Mg203 O215 1.955 . S
Mg203 O222 1.986 . S
O204 Mg202 1.936 . S
O204 Mg203 1.963 . S
O204 Mg205 1.915 . S
Mg205 O204 1.915 . S
Mg205 O206 1.915 . S
Mg205 O210 2.013 . S
Mg205 O216 2.114 . S
Mg205 O220 2.013 . S
Mg205 O226 2.114 . S
O206 Mg205 1.915 . S
O206 Mg207 1.936 . S
O206 Mg208 1.963 . S
Mg207 O206 1.936 . S
Mg207 O216 2.291 . S
Mg207 O221 2.081 . S
Mg207 O223 2.023 . S
Mg207 O227 2.031 . S
Mg208 O206 1.963 . S
Mg208 O212 1.986 . S
Mg208 O224 1.942 . S
Mg208 O225 1.955 . S
C209 O220 1.191 . S
C209 O222 1.307 . S
O210 Mg205 2.013 . S
O210 C229 1.191 . S
O211 Mg202 2.081 . S
O211 C219 1.331 . S
O212 Mg208 1.986 . S
O212 C229 1.307 . S
O213 Mg202 2.023 . S
O213 C228 1.264 . S
O214 Mg203 1.942 . S
O214 C219 1.244 . S
O215 Mg203 1.955 . S
O215 C228 1.273 . S
O216 Mg205 2.114 . S
O216 Mg207 2.291 . S
O216 C218 1.312 . S
O217 Mg202 2.031 . S
O217 C218 1.208 . S
C218 O216 1.312 . S
C218 O217 1.208 . S
C219 O211 1.331 . S
C219 O214 1.244 . S
O220 Mg205 2.013 . S
O220 C209 1.191 . S
O221 C200 1.331 . S
O221 Mg207 2.081 . S
O222 Mg203 1.986 . S
O222 C209 1.307 . S
O223 C201 1.264 . S
O223 Mg207 2.023 . S
O224 C200 1.244 . S
O224 Mg208 1.942 . S
O225 C201 1.273 . S
O225 Mg208 1.955 . S
O226 C199 1.312 . S
O226 Mg202 2.291 . S
O226 Mg205 2.114 . S
O227 C199 1.208 . S
O227 Mg207 2.031 . S
C228 O213 1.264 . S
C228 O215 1.273 . S
C229 O210 1.191 . S
C229 O212 1.307 . S
C230 O257 1.312 . S
C230 O258 1.208 . S
C231 O252 1.331 . S
C231 O255 1.244 . S
C232 O254 1.264 . S
C232 O256 1.273 . S
Mg233 O235 1.936 . S
Mg233 O242 2.081 . S
Mg233 O244 2.023 . S
Mg233 O248 2.031 . S
Mg233 O257 2.291 . S
Mg234 O235 1.963 . S
Mg234 O245 1.942 . S
Mg234 O246 1.955 . S
Mg234 O253 1.986 . S
O235 Mg233 1.936 . S
O235 Mg234 1.963 . S
O235 Mg236 1.915 . S
Mg236 O235 1.915 . S
Mg236 O237 1.915 . S
Mg236 O241 2.013 . S
Mg236 O247 2.114 . S
Mg236 O251 2.013 . S
Mg236 O257 2.114 . S
O237 Mg236 1.915 . S
O237 Mg238 1.936 . S
O237 Mg239 1.963 . S
Mg238 O237 1.936 . S
Mg238 O247 2.291 . S
Mg238 O252 2.081 . S
Mg238 O254 2.023 . S
Mg238 O258 2.031 . S
Mg239 O237 1.963 . S
Mg239 O243 1.986 . S
Mg239 O255 1.942 . S
Mg239 O256 1.955 . S
C240 O251 1.191 . S
C240 O253 1.307 . S
O241 Mg236 2.013 . S
O241 C260 1.191 . S
O242 Mg233 2.081 . S
O242 C250 1.331 . S
O243 Mg239 1.986 . S
O243 C260 1.307 . S
O244 Mg233 2.023 . S
O244 C259 1.264 . S
O245 Mg234 1.942 . S
O245 C250 1.244 . S
O246 Mg234 1.955 . S
O246 C259 1.273 . S
O247 Mg236 2.114 . S
O247 Mg238 2.291 . S
O247 C249 1.312 . S
O248 Mg233 2.031 . S
O248 C249 1.208 . S
C249 O247 1.312 . S
C249 O248 1.208 . S
C250 O242 1.331 . S
C250 O245 1.244 . S
O251 Mg236 2.013 . S
O251 C240 1.191 . S
O252 C231 1.331 . S
O252 Mg238 2.081 . S
O253 Mg234 1.986 . S
O253 C240 1.307 . S
O254 C232 1.264 . S
O254 Mg238 2.023 . S
O255 C231 1.244 . S
O255 Mg239 1.942 . S
O256 C232 1.273 . S
O256 Mg239 1.955 . S
O257 C230 1.312 . S
O257 Mg233 2.291 . S
O257 Mg236 2.114 . S
O258 C230 1.208 . S
O258 Mg238 2.031 . S
C259 O244 1.264 . S
C259 O246 1.273 . S
C260 O241 1.191 . S
C260 O243 1.307 . S
C261 O288 1.312 . S
C261 O289 1.208 . S
C262 O283 1.331 . S
C262 O286 1.244 . S
C263 O285 1.264 . S
C263 O287 1.273 . S
Mg264 O266 1.936 . S
Mg264 O273 2.081 . S
Mg264 O275 2.023 . S
Mg264 O279 2.031 . S
Mg264 O288 2.291 . S
Mg265 O266 1.963 1_655 S
Mg265 O276 1.942 . S
Mg265 O277 1.955 . S
Mg265 O284 1.986 . S
O266 Mg264 1.936 . S
O266 Mg265 1.963 1_455 S
O266 Mg267 1.915 . S
Mg267 O266 1.915 . S
Mg267 O268 1.915 . S
Mg267 O272 2.013 . S
Mg267 O278 2.114 . S
Mg267 O282 2.013 . S
Mg267 O288 2.114 . S
O268 Mg267 1.915 . S
O268 Mg269 1.936 . S
O268 Mg270 1.963 . S
Mg269 O268 1.936 . S
Mg269 O278 2.291 . S
Mg269 O283 2.081 . S
Mg269 O285 2.023 . S
Mg269 O289 2.031 . S
Mg270 O268 1.963 . S
Mg270 O274 1.986 . S
Mg270 O286 1.942 . S
Mg270 O287 1.955 . S
C271 O282 1.191 . S
C271 O284 1.307 1_455 S
O272 Mg267 2.013 . S
O272 C291 1.191 . S
O273 Mg264 2.081 . S
O273 C281 1.331 1_455 S
O274 Mg270 1.986 . S
O274 C291 1.307 . S
O275 Mg264 2.023 . S
O275 C290 1.264 1_455 S
O276 Mg265 1.942 . S
O276 C281 1.244 . S
O277 Mg265 1.955 . S
O277 C290 1.273 . S
O278 Mg267 2.114 . S
O278 Mg269 2.291 . S
O278 C280 1.312 . S
O279 Mg264 2.031 . S
O279 C280 1.208 . S
C280 O278 1.312 . S
C280 O279 1.208 . S
C281 O273 1.331 1_655 S
C281 O276 1.244 . S
O282 Mg267 2.013 . S
O282 C271 1.191 . S
O283 C262 1.331 . S
O283 Mg269 2.081 . S
O284 Mg265 1.986 . S
O284 C271 1.307 1_655 S
O285 C263 1.264 . S
O285 Mg269 2.023 . S
O286 C262 1.244 . S
O286 Mg270 1.942 . S
O287 C263 1.273 . S
O287 Mg270 1.955 . S
O288 C261 1.312 . S
O288 Mg264 2.291 . S
O288 Mg267 2.114 . S
O289 C261 1.208 . S
O289 Mg269 2.031 . S
C290 O275 1.264 1_655 S
C290 O277 1.273 . S
C291 O272 1.191 . S
C291 O274 1.307 . S
H292 C300 0.929 1_545 S
H293 C302 0.930 . S
H294 C304 0.930 . S
H295 C307 0.929 . S
H296 C310 0.930 . S
H297 C312 0.960 . S
H298 C312 0.960 . S
H299 C312 0.960 . S
C300 H292 0.929 1_565 S
C300 C301 1.377 . S
C300 C302 1.384 . S
C301 C300 1.377 . S
C301 C307 1.390 . S
C302 H293 0.930 . S
C302 C300 1.384 . S
C302 C303 1.372 . S
C303 C302 1.372 . S
C303 C304 1.400 . S
C303 C308 1.490 . S
C304 H294 0.930 . S
C304 C303 1.400 . S
C304 C307 1.386 . S
H305 C321 0.930 . S
H306 C322 0.931 . S
C307 H295 0.929 . S
C307 C301 1.390 . S
C307 C304 1.386 . S
C308 C303 1.490 . S
C308 C310 1.395 . S
C308 C311 1.403 . S
H309 C315 0.930 . S
C310 H296 0.930 . S
C310 C308 1.395 . S
C310 C313 1.403 . S
C311 C308 1.403 . S
C311 C312 1.524 . S
C311 C315 1.400 . S
C312 H297 0.960 . S
C312 H298 0.960 . S
C312 H299 0.960 . S
C312 C311 1.524 . S
C313 C310 1.403 . S
C313 C314 1.392 . S
C313 C317 1.495 . S
C314 C313 1.392 . S
C314 C315 1.385 . S
C314 C316 1.478 . S
C315 H309 0.930 . S
C315 C311 1.400 . S
C315 C314 1.385 . S
C316 C314 1.478 . S
C316 C318 1.381 . S
C316 C322 1.383 . S
C317 C313 1.495 . S
C317 H323 0.959 . S
C317 H324 0.961 . S
C317 H325 0.960 . S
C318 C316 1.381 . S
C318 C319 1.394 . S
C318 H326 0.930 . S
C319 C318 1.394 . S
C319 C320 1.383 . S
C319 H327 0.929 . S
C320 C319 1.383 . S
C320 C321 1.377 . S
C321 H305 0.930 . S
C321 C320 1.377 . S
C321 C322 1.379 . S
C322 H306 0.931 . S
C322 C316 1.383 . S
C322 C321 1.379 . S
H323 C317 0.959 . S
H324 C317 0.961 . S
H325 C317 0.960 . S
H326 C318 0.930 . S
H327 C319 0.929 . S
H328 C336 0.929 . S
H329 C338 0.930 . S
H330 C340 0.930 . S
H331 C343 0.929 . S
H332 C346 0.930 . S
H333 C348 0.960 . S
H334 C348 0.960 . S
H335 C348 0.960 . S
C336 H328 0.929 . S
C336 C337 1.377 . S
C336 C338 1.384 . S
C337 C336 1.377 . S
C337 C343 1.390 . S
C338 H329 0.930 . S
C338 C336 1.384 . S
C338 C339 1.372 . S
C339 C338 1.372 . S
C339 C340 1.400 . S
C339 C344 1.490 . S
C340 H330 0.930 . S
C340 C339 1.400 . S
C340 C343 1.386 . S
H341 C357 0.930 . S
H342 C358 0.931 . S
C343 H331 0.929 . S
C343 C337 1.390 . S
C343 C340 1.386 . S
C344 C339 1.490 . S
C344 C346 1.395 . S
C344 C347 1.403 . S
H345 C351 0.930 . S
C346 H332 0.930 . S
C346 C344 1.395 . S
C346 C349 1.403 . S
C347 C344 1.403 . S
C347 C348 1.524 . S
C347 C351 1.400 1_565 S
C348 H333 0.960 . S
C348 H334 0.960 . S
C348 H335 0.960 . S
C348 C347 1.524 . S
C349 C346 1.403 . S
C349 C350 1.392 1_565 S
C349 C353 1.495 . S
C350 C349 1.392 1_545 S
C350 C351 1.385 . S
C350 C352 1.478 . S
C351 H345 0.930 . S
C351 C347 1.400 1_545 S
C351 C350 1.385 . S
C352 C350 1.478 . S
C352 C354 1.381 . S
C352 C358 1.383 . S
C353 C349 1.495 . S
C353 H359 0.959 . S
C353 H360 0.961 . S
C353 H361 0.960 . S
C354 C352 1.381 . S
C354 C355 1.394 . S
C354 H362 0.930 . S
C355 C354 1.394 . S
C355 C356 1.383 . S
C355 H363 0.929 . S
C356 C355 1.383 . S
C356 C357 1.377 . S
C357 H341 0.930 . S
C357 C356 1.377 . S
C357 C358 1.379 . S
C358 H342 0.931 . S
C358 C352 1.383 . S
C358 C357 1.379 . S
H359 C353 0.959 . S
H360 C353 0.961 . S
H361 C353 0.960 . S
H362 C354 0.930 . S
H363 C355 0.929 . S
H364 C372 0.929 . S
H365 C374 0.930 . S
H366 C376 0.930 . S
H367 C379 0.929 . S
H368 C382 0.930 . S
H369 C384 0.960 . S
H370 C384 0.960 . S
H371 C384 0.960 . S
C372 H364 0.929 . S
C372 C373 1.377 . S
C372 C374 1.384 . S
C373 C372 1.377 . S
C373 C379 1.390 . S
C374 H365 0.930 . S
C374 C372 1.384 . S
C374 C375 1.372 . S
C375 C374 1.372 . S
C375 C376 1.400 . S
C375 C380 1.490 . S
C376 H366 0.930 . S
C376 C375 1.400 . S
C376 C379 1.386 . S
H377 C393 0.930 . S
H378 C394 0.931 . S
C379 H367 0.929 . S
C379 C373 1.390 . S
C379 C376 1.386 . S
C380 C375 1.490 . S
C380 C382 1.395 . S
C380 C383 1.403 . S
H381 C387 0.930 . S
C382 H368 0.930 . S
C382 C380 1.395 . S
C382 C385 1.403 . S
C383 C380 1.403 . S
C383 C384 1.524 . S
C383 C387 1.400 . S
C384 H369 0.960 . S
C384 H370 0.960 . S
C384 H371 0.960 . S
C384 C383 1.524 . S
C385 C382 1.403 . S
C385 C386 1.392 . S
C385 C389 1.495 . S
C386 C385 1.392 . S
C386 C387 1.385 . S
C386 C388 1.478 . S
C387 H381 0.930 . S
C387 C383 1.400 . S
C387 C386 1.385 . S
C388 C386 1.478 . S
C388 C390 1.381 . S
C388 C394 1.383 . S
C389 C385 1.495 . S
C389 H395 0.959 . S
C389 H396 0.961 . S
C389 H397 0.960 . S
C390 C388 1.381 . S
C390 C391 1.394 . S
C390 H398 0.930 . S
C391 C390 1.394 . S
C391 C392 1.383 . S
C391 H399 0.929 . S
C392 C391 1.383 . S
C392 C393 1.377 . S
C393 H377 0.930 . S
C393 C392 1.377 . S
C393 C394 1.379 . S
C394 H378 0.931 . S
C394 C388 1.383 . S
C394 C393 1.379 . S
H395 C389 0.959 . S
H396 C389 0.961 . S
H397 C389 0.960 . S
H398 C390 0.930 . S
H399 C391 0.929 . S
H400 C408 0.929 . S
H401 C410 0.930 . S
H402 C412 0.930 . S
H403 C415 0.929 . S
H404 C418 0.930 . S
H405 C420 0.960 . S
H406 C420 0.960 . S
H407 C420 0.960 . S
C408 H400 0.929 . S
C408 C409 1.377 . S
C408 C410 1.384 . S
C409 C408 1.377 . S
C409 C415 1.390 . S
C410 H401 0.930 . S
C410 C408 1.384 . S
C410 C411 1.372 . S
C411 C410 1.372 . S
C411 C412 1.400 . S
C411 C416 1.490 . S
C412 H402 0.930 . S
C412 C411 1.400 . S
C412 C415 1.386 . S
H413 C429 0.930 . S
H414 C430 0.931 . S
C415 H403 0.929 . S
C415 C409 1.390 . S
C415 C412 1.386 . S
C416 C411 1.490 . S
C416 C418 1.395 . S
C416 C419 1.403 . S
H417 C423 0.919 1_565 S
C418 H404 0.930 . S
C418 C416 1.395 . S
C418 C421 1.403 . S
C419 C416 1.403 . S
C419 C420 1.524 . S
C419 C423 1.413 . S
C420 H405 0.960 . S
C420 H406 0.960 . S
C420 H407 0.960 . S
C420 C419 1.524 . S
C421 C418 1.403 . S
C421 C422 1.392 1_545 S
C421 C425 1.495 . S
C422 C421 1.392 1_565 S
C422 C423 1.383 1_565 S
C422 C424 1.478 . S
C423 H417 0.919 1_545 S
C423 C419 1.413 . S
C423 C422 1.383 1_545 S
C424 C422 1.478 . S
C424 C426 1.381 . S
C424 C430 1.383 . S
C425 C421 1.495 . S
C425 H431 0.959 . S
C425 H432 0.961 . S
C425 H433 0.960 1_545 S
C426 C424 1.381 . S
C426 C427 1.394 . S
C426 H434 0.930 . S
C427 C426 1.394 . S
C427 C428 1.383 . S
C427 H435 0.929 . S
C428 C427 1.383 . S
C428 C429 1.377 . S
C429 H413 0.930 . S
C429 C428 1.377 . S
C429 C430 1.379 . S
C430 H414 0.931 . S
C430 C424 1.383 . S
C430 C429 1.379 . S
H431 C425 0.959 . S
H432 C425 0.961 . S
H433 C425 0.960 1_565 S
H434 C426 0.930 . S
H435 C427 0.929 . S
H436 C444 0.929 1_565 S
H437 C446 0.930 . S
H438 C448 0.930 . S
H439 C451 0.929 . S
H440 C454 0.930 . S
H441 C456 0.960 . S
H442 C456 0.960 . S
H443 C456 0.960 . S
C444 H436 0.929 1_545 S
C444 C445 1.377 . S
C444 C446 1.384 . S
C445 C444 1.377 . S
C445 C451 1.390 . S
C446 H437 0.930 . S
C446 C444 1.384 . S
C446 C447 1.372 . S
C447 C446 1.372 . S
C447 C448 1.400 . S
C447 C452 1.490 . S
C448 H438 0.930 . S
C448 C447 1.400 . S
C448 C451 1.386 . S
H449 C465 0.930 . S
H450 C466 0.931 . S
C451 H439 0.929 . S
C451 C445 1.390 . S
C451 C448 1.386 . S
C452 C447 1.490 . S
C452 C454 1.395 . S
C452 C455 1.403 . S
H453 C459 0.930 . S
C454 H440 0.930 . S
C454 C452 1.395 . S
C454 C457 1.403 . S
C455 C452 1.403 . S
C455 C456 1.524 . S
C455 C459 1.400 . S
C456 H441 0.960 . S
C456 H442 0.960 . S
C456 H443 0.960 . S
C456 C455 1.524 . S
C457 C454 1.403 . S
C457 C458 1.392 . S
C457 C461 1.495 . S
C458 C457 1.392 . S
C458 C459 1.385 . S
C458 C460 1.478 . S
C459 H453 0.930 . S
C459 C455 1.400 . S
C459 C458 1.385 . S
C460 C458 1.478 . S
C460 C462 1.381 . S
C460 C466 1.383 . S
C461 C457 1.495 . S
C461 H467 0.959 . S
C461 H468 0.961 . S
C461 H469 0.960 . S
C462 C460 1.381 . S
C462 C463 1.394 . S
C462 H470 0.930 . S
C463 C462 1.394 . S
C463 C464 1.383 . S
C463 H471 0.929 . S
C464 C463 1.383 . S
C464 C465 1.377 . S
C465 H449 0.930 . S
C465 C464 1.377 . S
C465 C466 1.379 . S
C466 H450 0.931 . S
C466 C460 1.383 . S
C466 C465 1.379 . S
H467 C461 0.959 . S
H468 C461 0.961 . S
H469 C461 0.960 . S
H470 C462 0.930 . S
H471 C463 0.929 . S
H472 C480 0.929 . S
H473 C482 0.930 . S
H474 C484 0.930 . S
H475 C487 0.929 . S
H476 C490 0.930 . S
H477 C492 0.960 . S
H478 C492 0.960 . S
H479 C492 0.960 . S
C480 H472 0.929 . S
C480 C481 1.377 . S
C480 C482 1.384 . S
C481 C480 1.377 . S
C481 C487 1.390 . S
C482 H473 0.930 . S
C482 C480 1.384 . S
C482 C483 1.372 . S
C483 C482 1.372 . S
C483 C484 1.400 . S
C483 C488 1.490 . S
C484 H474 0.930 . S
C484 C483 1.400 . S
C484 C487 1.386 . S
H485 C501 0.930 . S
H486 C502 0.931 . S
C487 H475 0.929 . S
C487 C481 1.390 . S
C487 C484 1.386 . S
C488 C483 1.490 . S
C488 C490 1.395 . S
C488 C491 1.403 . S
H489 C495 0.930 . S
C490 H476 0.930 . S
C490 C488 1.395 . S
C490 C493 1.403 1_565 S
C491 C488 1.403 . S
C491 C492 1.524 . S
C491 C495 1.400 . S
C492 H477 0.960 . S
C492 H478 0.960 . S
C492 H479 0.960 . S
C492 C491 1.524 . S
C493 C490 1.403 1_545 S
C493 C494 1.392 . S
C493 C497 1.495 . S
C494 C493 1.392 . S
C494 C495 1.385 1_545 S
C494 C496 1.478 . S
C495 H489 0.930 . S
C495 C491 1.400 . S
C495 C494 1.385 1_565 S
C496 C494 1.478 . S
C496 C498 1.381 . S
C496 C502 1.383 . S
C497 C493 1.495 . S
C497 H503 0.959 . S
C497 H504 0.961 . S
C497 H505 0.960 . S
C498 C496 1.381 . S
C498 C499 1.394 . S
C498 H506 0.930 . S
C499 C498 1.394 . S
C499 C500 1.383 . S
C499 H507 0.929 . S
C500 C499 1.383 . S
C500 C501 1.377 . S
C501 H485 0.930 . S
C501 C500 1.377 . S
C501 C502 1.379 . S
C502 H486 0.931 . S
C502 C496 1.383 . S
C502 C501 1.379 . S
H503 C497 0.959 . S
H504 C497 0.961 . S
H505 C497 0.960 . S
H506 C498 0.930 . S
H507 C499 0.929 . S
H508 C516 0.929 1_545 S
H509 C518 0.930 . S
H510 C520 0.930 . S
H511 C523 0.929 . S
H512 C526 0.930 . S
H513 C528 0.960 . S
H514 C528 0.960 . S
H515 C528 0.960 . S
C516 H508 0.929 1_565 S
C516 C517 1.377 . S
C516 C518 1.384 . S
C517 C516 1.377 . S
C517 C523 1.390 . S
C518 H509 0.930 . S
C518 C516 1.384 . S
C518 C519 1.372 . S
C519 C518 1.372 . S
C519 C520 1.400 . S
C519 C524 1.490 . S
C520 H510 0.930 . S
C520 C519 1.400 . S
C520 C523 1.386 . S
H521 C537 0.930 . S
H522 C538 0.931 . S
C523 H511 0.929 . S
C523 C517 1.390 . S
C523 C520 1.386 . S
C524 C519 1.490 . S
C524 C526 1.395 . S
C524 C527 1.403 . S
H525 C531 0.930 . S
C526 H512 0.930 . S
C526 C524 1.395 . S
C526 C529 1.403 . S
C527 C524 1.403 . S
C527 C528 1.524 . S
C527 C531 1.400 . S
C528 H513 0.960 . S
C528 H514 0.960 . S
C528 H515 0.960 . S
C528 C527 1.524 . S
C529 C526 1.403 . S
C529 C530 1.392 . S
C529 C533 1.495 . S
C530 C529 1.392 . S
C530 C531 1.385 . S
C530 C532 1.478 . S
C531 H525 0.930 . S
C531 C527 1.400 . S
C531 C530 1.385 . S
C532 C530 1.478 . S
C532 C534 1.381 . S
C532 C538 1.383 . S
C533 C529 1.495 . S
C533 H539 0.959 . S
C533 H540 0.961 . S
C533 H541 0.960 . S
C534 C532 1.381 . S
C534 C535 1.394 . S
C534 H542 0.930 . S
C535 C534 1.394 . S
C535 C536 1.383 . S
C535 H543 0.929 . S
C536 C535 1.383 . S
C536 C537 1.377 . S
C537 H521 0.930 . S
C537 C536 1.377 . S
C537 C538 1.379 . S
C538 H522 0.931 . S
C538 C532 1.383 . S
C538 C537 1.379 . S
H539 C533 0.959 . S
H540 C533 0.961 . S
H541 C533 0.960 . S
H542 C534 0.930 . S
H543 C535 0.929 . S
H544 C552 0.929 . S
H545 C554 0.930 . S
H546 C556 0.930 . S
H547 C559 0.929 . S
H548 C562 0.930 . S
H549 C564 0.960 . S
H550 C564 0.960 . S
H551 C564 0.960 . S
C552 H544 0.929 . S
C552 C553 1.377 . S
C552 C554 1.384 . S
C553 C552 1.377 . S
C553 C559 1.390 . S
C554 H545 0.930 . S
C554 C552 1.384 . S
C554 C555 1.372 . S
C555 C554 1.372 . S
C555 C556 1.400 . S
C555 C560 1.490 . S
C556 H546 0.930 . S
C556 C555 1.400 . S
C556 C559 1.386 . S
H557 C573 0.930 . S
H558 C574 0.931 . S
C559 H547 0.929 . S
C559 C553 1.390 . S
C559 C556 1.386 . S
C560 C555 1.490 . S
C560 C562 1.395 . S
C560 C563 1.403 . S
H561 C567 0.930 . S
C562 H548 0.930 . S
C562 C560 1.395 . S
C562 C565 1.403 . S
C563 C560 1.403 . S
C563 C564 1.524 . S
C563 C567 1.400 . S
C564 H549 0.960 . S
C564 H550 0.960 . S
C564 H551 0.960 . S
C564 C563 1.524 . S
C565 C562 1.403 . S
C565 C566 1.392 . S
C565 C569 1.495 1_545 S
C566 C565 1.392 . S
C566 C567 1.385 . S
C566 C568 1.478 1_545 S
C567 H561 0.930 . S
C567 C563 1.400 . S
C567 C566 1.385 . S
C568 C566 1.478 1_565 S
C568 C570 1.381 . S
C568 C574 1.383 . S
C569 C565 1.495 1_565 S
C569 H575 0.959 1_565 S
C569 H576 0.961 . S
C569 H577 0.960 . S
C570 C568 1.381 . S
C570 C571 1.394 . S
C570 H578 0.930 . S
C571 C570 1.394 . S
C571 C572 1.383 . S
C571 H579 0.929 . S
C572 C571 1.383 . S
C572 C573 1.377 . S
C573 H557 0.930 . S
C573 C572 1.377 . S
C573 C574 1.379 . S
C574 H558 0.931 . S
C574 C568 1.383 . S
C574 C573 1.379 . S
H575 C569 0.959 1_545 S
H576 C569 0.961 . S
H577 C569 0.960 . S
H578 C570 0.930 . S
H579 C571 0.929 . S
H580 C588 0.929 1_565 S
H581 C590 0.930 . S
H582 C592 0.930 . S
H583 C595 0.929 . S
H584 C598 0.930 . S
H585 C600 0.960 . S
H586 C600 0.960 . S
H587 C600 0.960 . S
C588 H580 0.929 1_545 S
C588 C589 1.377 . S
C588 C590 1.384 . S
C589 C588 1.377 . S
C589 C595 1.390 . S
C590 H581 0.930 . S
C590 C588 1.384 . S
C590 C591 1.372 . S
C591 C590 1.372 . S
C591 C592 1.400 . S
C591 C596 1.490 . S
C592 H582 0.930 . S
C592 C591 1.400 . S
C592 C595 1.386 . S
H593 C609 0.930 . S
H594 C610 0.931 . S
C595 H583 0.929 . S
C595 C589 1.390 . S
C595 C592 1.386 . S
C596 C591 1.490 . S
C596 C598 1.395 . S
C596 C599 1.403 . S
H597 C603 0.930 . S
C598 H584 0.930 . S
C598 C596 1.395 . S
C598 C601 1.403 . S
C599 C596 1.403 . S
C599 C600 1.524 . S
C599 C603 1.400 . S
C600 H585 0.960 . S
C600 H586 0.960 . S
C600 H587 0.960 . S
C600 C599 1.524 . S
C601 C598 1.403 . S
C601 C602 1.392 . S
C601 C605 1.495 . S
C602 C601 1.392 . S
C602 C603 1.385 . S
C602 C604 1.478 . S
C603 H597 0.930 . S
C603 C599 1.400 . S
C603 C602 1.385 . S
C604 C602 1.478 . S
C604 C606 1.381 . S
C604 C610 1.383 . S
C605 C601 1.495 . S
C605 H611 0.959 . S
C605 H612 0.961 . S
C605 H613 0.960 . S
C606 C604 1.381 . S
C606 C607 1.394 . S
C606 H614 0.930 . S
C607 C606 1.394 . S
C607 C608 1.383 . S
C607 H615 0.929 . S
C608 C607 1.383 . S
C608 C609 1.377 . S
C609 H593 0.930 . S
C609 C608 1.377 . S
C609 C610 1.379 . S
C610 H594 0.931 . S
C610 C604 1.383 . S
C610 C609 1.379 . S
H611 C605 0.959 . S
H612 C605 0.961 . S
H613 C605 0.960 . S
H614 C606 0.930 . S
H615 C607 0.929 . S
H616 C624 0.929 . S
H617 C626 0.930 . S
H618 C628 0.930 . S
H619 C631 0.929 . S
H620 C634 0.930 . S
H621 C636 0.960 . S
H622 C636 0.960 . S
H623 C636 0.960 . S
C624 H616 0.929 . S
C624 C625 1.377 . S
C624 C626 1.384 . S
C625 C624 1.377 . S
C625 C631 1.390 . S
C626 H617 0.930 . S
C626 C624 1.384 . S
C626 C627 1.372 . S
C627 C626 1.372 . S
C627 C628 1.400 . S
C627 C632 1.490 1_545 S
C628 H618 0.930 . S
C628 C627 1.400 . S
C628 C631 1.386 . S
H629 C645 0.930 . S
H630 C646 0.931 . S
C631 H619 0.929 . S
C631 C625 1.390 . S
C631 C628 1.386 . S
C632 C627 1.490 1_565 S
C632 C634 1.395 . S
C632 C635 1.403 . S
H633 C639 0.930 . S
C634 H620 0.930 . S
C634 C632 1.395 . S
C634 C637 1.403 . S
C635 C632 1.403 . S
C635 C636 1.524 1_565 S
C635 C639 1.400 . S
C636 H621 0.960 . S
C636 H622 0.960 . S
C636 H623 0.960 . S
C636 C635 1.524 1_545 S
C637 C634 1.403 . S
C637 C638 1.392 . S
C637 C641 1.495 . S
C638 C637 1.392 . S
C638 C639 1.385 . S
C638 C640 1.478 . S
C639 H633 0.930 . S
C639 C635 1.400 . S
C639 C638 1.385 . S
C640 C638 1.478 . S
C640 C642 1.381 . S
C640 C646 1.383 . S
C641 C637 1.495 . S
C641 H647 0.959 . S
C641 H648 0.961 . S
C641 H649 0.960 . S
C642 C640 1.381 . S
C642 C643 1.394 . S
C642 H650 0.930 . S
C643 C642 1.394 . S
C643 C644 1.383 . S
C643 H651 0.929 . S
C644 C643 1.383 . S
C644 C645 1.377 . S
C645 H629 0.930 . S
C645 C644 1.377 . S
C645 C646 1.379 . S
C646 H630 0.931 . S
C646 C640 1.383 . S
C646 C645 1.379 . S
H647 C641 0.959 . S
H648 C641 0.961 . S
H649 C641 0.960 . S
H650 C642 0.930 . S
H651 C643 0.929 . S
H652 C660 0.929 . S
H653 C662 0.930 . S
H654 C664 0.930 . S
H655 C667 0.929 . S
H656 C670 0.930 . S
H657 C672 0.960 . S
H658 C672 0.960 . S
H659 C672 0.960 . S
C660 H652 0.929 . S
C660 C661 1.377 . S
C660 C662 1.384 . S
C661 C660 1.377 . S
C661 C667 1.390 . S
C662 H653 0.930 . S
C662 C660 1.384 . S
C662 C663 1.372 . S
C663 C662 1.372 . S
C663 C664 1.400 . S
C663 C668 1.490 . S
C664 H654 0.930 . S
C664 C663 1.400 . S
C664 C667 1.386 . S
H665 C681 0.945 . S
H666 C682 0.931 . S
C667 H655 0.929 . S
C667 C661 1.390 . S
C667 C664 1.386 . S
C668 C663 1.490 . S
C668 C670 1.395 . S
C668 C671 1.403 . S
H669 C675 0.930 . S
C670 H656 0.930 . S
C670 C668 1.395 . S
C670 C673 1.403 . S
C671 C668 1.403 . S
C671 C672 1.524 . S
C671 C675 1.400 . S
C672 H657 0.960 . S
C672 H658 0.960 . S
C672 H659 0.960 . S
C672 C671 1.524 . S
C673 C670 1.403 . S
C673 C674 1.392 . S
C673 C677 1.495 . S
C674 C673 1.392 . S
C674 C675 1.385 . S
C674 C676 1.478 . S
C675 H669 0.930 . S
C675 C671 1.400 . S
C675 C674 1.385 . S
C676 C674 1.478 . S
C676 C678 1.381 . S
C676 C682 1.383 . S
C677 C673 1.495 . S
C677 H683 0.959 . S
C677 H684 0.961 . S
C677 H685 0.960 . S
C678 C676 1.381 . S
C678 C679 1.394 . S
C678 H686 0.930 . S
C679 C678 1.394 . S
C679 C680 1.383 1_655 S
C679 H687 0.929 . S
C680 C679 1.383 1_455 S
C680 C681 1.383 . S
C681 H665 0.945 . S
C681 C680 1.383 . S
C681 C682 1.358 1_455 S
C682 H666 0.931 . S
C682 C676 1.383 . S
C682 C681 1.358 1_655 S
H683 C677 0.959 . S
H684 C677 0.961 . S
H685 C677 0.960 . S
H686 C678 0.930 . S
H687 C679 0.929 . S
H688 C696 0.929 . S
H689 C698 0.930 1_545 S
H690 C700 0.930 . S
H691 C703 0.929 . S
H692 C706 0.930 . S
H693 C708 0.960 . S
H694 C708 0.960 . S
H695 C708 0.960 . S
C696 H688 0.929 . S
C696 C697 1.377 . S
C696 C698 1.384 . S
C697 C696 1.377 . S
C697 C703 1.390 . S
C698 H689 0.930 1_565 S
C698 C696 1.384 . S
C698 C699 1.372 . S
C699 C698 1.372 . S
C699 C700 1.400 . S
C699 C704 1.490 1_565 S
C700 H690 0.930 . S
C700 C699 1.400 . S
C700 C703 1.386 . S
H701 C717 0.930 . S
H702 C718 0.931 . S
C703 H691 0.929 . S
C703 C697 1.390 . S
C703 C700 1.386 . S
C704 C699 1.490 1_545 S
C704 C706 1.395 . S
C704 C707 1.403 . S
H705 C711 0.930 . S
C706 H692 0.930 . S
C706 C704 1.395 . S
C706 C709 1.403 . S
C707 C704 1.403 . S
C707 C708 1.524 . S
C707 C711 1.400 . S
C708 H693 0.960 . S
C708 H694 0.960 . S
C708 H695 0.960 . S
C708 C707 1.524 . S
C709 C706 1.403 . S
C709 C710 1.392 . S
C709 C713 1.495 . S
C710 C709 1.392 . S
C710 C711 1.385 . S
C710 C712 1.478 . S
C711 H705 0.930 . S
C711 C707 1.400 . S
C711 C710 1.385 . S
C712 C710 1.478 . S
C712 C714 1.381 . S
C712 C718 1.383 1_655 S
C713 C709 1.495 . S
C713 H719 0.959 . S
C713 H720 0.961 . S
C713 H721 0.960 . S
C714 C712 1.381 . S
C714 C715 1.394 . S
C714 H722 0.930 . S
C715 C714 1.394 . S
C715 C716 1.383 1_655 S
C715 H723 0.929 . S
C716 C715 1.383 1_455 S
C716 C717 1.377 . S
C717 H701 0.930 . S
C717 C716 1.377 . S
C717 C718 1.379 . S
C718 H702 0.931 . S
C718 C712 1.383 1_455 S
C718 C717 1.379 . S
H719 C713 0.959 . S
H720 C713 0.961 . S
H721 C713 0.960 . S
H722 C714 0.930 . S
H723 C715 0.929 . S
H724 C732 0.929 . S
H725 C734 0.930 . S
H726 C736 0.930 . S
H727 C739 0.929 . S
H728 C742 0.930 . S
H729 C744 0.960 . S
H730 C744 0.960 . S
H731 C744 0.960 . S
C732 H724 0.929 . S
C732 C733 1.377 . S
C732 C734 1.384 . S
C733 C732 1.377 . S
C733 C739 1.390 . S
C734 H725 0.930 . S
C734 C732 1.384 . S
C734 C735 1.372 . S
C735 C734 1.372 . S
C735 C736 1.400 . S
C735 C740 1.490 . S
C736 H726 0.930 . S
C736 C735 1.400 . S
C736 C739 1.386 . S
H737 C753 0.930 . S
H738 C754 0.931 . S
C739 H727 0.929 . S
C739 C733 1.390 . S
C739 C736 1.386 . S
C740 C735 1.490 . S
C740 C742 1.395 . S
C740 C743 1.403 . S
H741 C747 0.930 . S
C742 H728 0.930 . S
C742 C740 1.395 . S
C742 C745 1.403 . S
C743 C740 1.403 . S
C743 C744 1.524 . S
C743 C747 1.400 . S
C744 H729 0.960 . S
C744 H730 0.960 . S
C744 H731 0.960 . S
C744 C743 1.524 . S
C745 C742 1.403 . S
C745 C746 1.392 . S
C745 C749 1.495 . S
C746 C745 1.392 . S
C746 C747 1.385 . S
C746 C748 1.478 . S
C747 H741 0.930 . S
C747 C743 1.400 . S
C747 C746 1.385 . S
C748 C746 1.478 . S
C748 C750 1.381 . S
C748 C754 1.383 . S
C749 C745 1.495 . S
C749 H755 0.959 . S
C749 H756 0.961 . S
C749 H757 0.960 . S
C750 C748 1.381 . S
C750 C751 1.394 . S
C750 H758 0.930 . S
C751 C750 1.394 . S
C751 C752 1.383 . S
C751 H759 0.929 . S
C752 C751 1.383 . S
C752 C753 1.377 . S
C753 H737 0.930 . S
C753 C752 1.377 . S
C753 C754 1.379 . S
C754 H738 0.931 . S
C754 C748 1.383 . S
C754 C753 1.379 . S
H755 C749 0.959 . S
H756 C749 0.961 . S
H757 C749 0.960 . S
H758 C750 0.930 . S
H759 C751 0.929 . S
H760 C768 0.929 . S
H761 C770 0.930 . S
H762 C772 0.930 1_565 S
H763 C775 0.929 . S
H764 C778 0.930 1_545 S
H765 C780 0.960 . S
H766 C780 0.960 . S
H767 C780 0.960 . S
C768 H760 0.929 . S
C768 C769 1.377 . S
C768 C770 1.384 . S
C769 C768 1.377 . S
C769 C775 1.390 . S
C770 H761 0.930 . S
C770 C768 1.384 . S
C770 C771 1.372 . S
C771 C770 1.372 . S
C771 C772 1.400 . S
C771 C776 1.490 1_545 S
C772 H762 0.930 1_545 S
C772 C771 1.400 . S
C772 C775 1.386 . S
H773 C789 0.930 . S
H774 C790 0.931 . S
C775 H763 0.929 . S
C775 C769 1.390 . S
C775 C772 1.386 . S
C776 C771 1.490 1_565 S
C776 C778 1.395 . S
C776 C779 1.403 . S
H777 C783 0.930 . S
C778 H764 0.930 1_565 S
C778 C776 1.395 . S
C778 C781 1.403 . S
C779 C776 1.403 . S
C779 C780 1.524 . S
C779 C783 1.400 . S
C780 H765 0.960 . S
C780 H766 0.960 . S
C780 H767 0.960 . S
C780 C779 1.524 . S
C781 C778 1.403 . S
C781 C782 1.392 . S
C781 C785 1.495 1_655 S
C782 C781 1.392 . S
C782 C783 1.385 . S
C782 C784 1.478 . S
C783 H777 0.930 . S
C783 C779 1.400 . S
C783 C782 1.385 . S
C784 C782 1.478 . S
C784 C786 1.381 . S
C784 C790 1.383 . S
C785 C781 1.495 1_455 S
C785 H791 0.959 1_565 S
C785 H792 0.961 . S
C785 H793 0.960 . S
C786 C784 1.381 . S
C786 C787 1.393 1_655 S
C786 H794 0.930 . S
C787 C786 1.393 1_455 S
C787 C788 1.385 . S
C787 H795 0.929 . S
C788 C787 1.385 . S
C788 C789 1.377 . S
C789 H773 0.930 . S
C789 C788 1.377 . S
C789 C790 1.379 1_455 S
C790 H774 0.931 . S
C790 C784 1.383 . S
C790 C789 1.379 1_655 S
H791 C785 0.959 1_545 S
H792 C785 0.961 . S
H793 C785 0.960 . S
H794 C786 0.930 . S
H795 C787 0.929 . S
H796 C804 0.929 1_565 S
H797 C806 0.930 . S
H798 C808 0.930 . S
H799 C811 0.929 . S
H800 C814 0.930 . S
H801 C816 0.960 . S
H802 C816 0.960 . S
H803 C816 0.960 . S
C804 H796 0.929 1_545 S
C804 C805 1.377 . S
C804 C806 1.384 . S
C805 C804 1.377 . S
C805 C811 1.390 . S
C806 H797 0.930 . S
C806 C804 1.384 . S
C806 C807 1.372 . S
C807 C806 1.372 . S
C807 C808 1.400 . S
C807 C812 1.490 . S
C808 H798 0.930 . S
C808 C807 1.400 . S
C808 C811 1.386 . S
H809 C825 0.930 1_455 S
H810 C826 0.931 . S
C811 H799 0.929 . S
C811 C805 1.390 . S
C811 C808 1.386 . S
C812 C807 1.490 . S
C812 C814 1.395 . S
C812 C815 1.403 . S
H813 C819 0.930 . S
C814 H800 0.930 . S
C814 C812 1.395 . S
C814 C817 1.403 . S
C815 C812 1.403 . S
C815 C816 1.524 . S
C815 C819 1.400 . S
C816 H801 0.960 . S
C816 H802 0.960 . S
C816 H803 0.960 . S
C816 C815 1.524 . S
C817 C814 1.403 . S
C817 C818 1.392 . S
C817 C821 1.495 . S
C818 C817 1.392 . S
C818 C819 1.385 . S
C818 C820 1.478 . S
C819 H813 0.930 . S
C819 C815 1.400 . S
C819 C818 1.385 . S
C820 C818 1.478 . S
C820 C822 1.381 . S
C820 C826 1.383 . S
C821 C817 1.495 . S
C821 H827 0.959 . S
C821 H828 0.961 . S
C821 H829 0.960 . S
C822 C820 1.381 . S
C822 C823 1.394 . S
C822 H830 0.930 . S
C823 C822 1.394 . S
C823 C824 1.383 1_655 S
C823 H831 0.929 1_655 S
C824 C823 1.383 1_455 S
C824 C825 1.377 1_455 S
C825 H809 0.930 1_655 S
C825 C824 1.377 1_655 S
C825 C826 1.379 . S
C826 H810 0.931 . S
C826 C820 1.383 . S
C826 C825 1.379 . S
H827 C821 0.959 . S
H828 C821 0.961 . S
H829 C821 0.960 . S
H830 C822 0.930 . S
H831 C823 0.929 1_455 S
H832 C840 0.929 . S
H833 C842 0.930 1_545 S
H834 C844 0.930 . S
H835 C847 0.929 . S
H836 C850 0.930 . S
H837 C852 0.960 . S
H838 C852 0.960 . S
H839 C852 0.960 . S
C840 H832 0.929 . S
C840 C841 1.377 . S
C840 C842 1.384 . S
C841 C840 1.377 . S
C841 C847 1.390 . S
C842 H833 0.930 1_565 S
C842 C840 1.384 . S
C842 C843 1.372 . S
C843 C842 1.372 . S
C843 C844 1.400 . S
C843 C848 1.490 1_565 S
C844 H834 0.930 . S
C844 C843 1.400 . S
C844 C847 1.386 . S
H845 C861 0.930 . S
H846 C862 0.931 . S
C847 H835 0.929 . S
C847 C841 1.390 . S
C847 C844 1.386 . S
C848 C843 1.490 1_545 S
C848 C850 1.395 . S
C848 C851 1.403 . S
H849 C855 0.930 . S
C850 H836 0.930 . S
C850 C848 1.395 . S
C850 C853 1.403 . S
C851 C848 1.403 . S
C851 C852 1.524 . S
C851 C855 1.400 . S
C852 H837 0.960 . S
C852 H838 0.960 . S
C852 H839 0.960 . S
C852 C851 1.524 . S
C853 C850 1.403 . S
C853 C854 1.392 . S
C853 C857 1.495 . S
C854 C853 1.392 . S
C854 C855 1.385 . S
C854 C856 1.478 . S
C855 H849 0.930 . S
C855 C851 1.400 . S
C855 C854 1.385 . S
C856 C854 1.478 . S
C856 C858 1.381 . S
C856 C862 1.383 . S
C857 C853 1.495 . S
C857 H863 0.959 . S
C857 H864 0.961 . S
C857 H865 0.960 . S
C858 C856 1.381 . S
C858 C859 1.394 . S
C858 H866 0.930 . S
C859 C858 1.394 . S
C859 C860 1.383 . S
C859 H867 0.929 . S
C860 C859 1.383 . S
C860 C861 1.377 . S
C861 H845 0.930 . S
C861 C860 1.377 . S
C861 C862 1.379 . S
C862 H846 0.931 . S
C862 C856 1.383 . S
C862 C861 1.379 . S
H863 C857 0.959 . S
H864 C857 0.961 . S
H865 C857 0.960 . S
H866 C858 0.930 . S
H867 C859 0.929 . S
H868 C876 0.929 . S
H869 C878 0.930 . S
H870 C880 0.930 . S
H871 C883 0.929 . S
H872 C886 0.930 . S
H873 C888 0.960 . S
H874 C888 0.960 . S
H875 C888 0.960 . S
C876 H868 0.929 . S
C876 C877 1.377 . S
C876 C878 1.384 . S
C877 C876 1.377 . S
C877 C883 1.390 . S
C878 H869 0.930 . S
C878 C876 1.384 . S
C878 C879 1.372 . S
C879 C878 1.372 . S
C879 C880 1.400 . S
C879 C884 1.490 . S
C880 H870 0.930 . S
C880 C879 1.400 . S
C880 C883 1.386 . S
H881 C897 0.930 . S
H882 C898 0.931 . S
C883 H871 0.929 . S
C883 C877 1.390 . S
C883 C880 1.386 . S
C884 C879 1.490 . S
C884 C886 1.395 . S
C884 C887 1.403 . S
H885 C891 0.930 . S
C886 H872 0.930 . S
C886 C884 1.395 . S
C886 C889 1.403 . S
C887 C884 1.403 . S
C887 C888 1.524 . S
C887 C891 1.400 . S
C888 H873 0.960 . S
C888 H874 0.960 . S
C888 H875 0.960 . S
C888 C887 1.524 . S
C889 C886 1.403 . S
C889 C890 1.392 . S
C889 C893 1.495 . S
C890 C889 1.392 . S
C890 C891 1.385 . S
C890 C892 1.478 . S
C891 H885 0.930 . S
C891 C887 1.400 . S
C891 C890 1.385 . S
C892 C890 1.478 . S
C892 C894 1.381 . S
C892 C898 1.383 . S
C893 C889 1.495 . S
C893 H899 0.959 . S
C893 H900 0.961 . S
C893 H901 0.960 . S
C894 C892 1.381 . S
C894 C895 1.394 . S
C894 H902 0.930 . S
C895 C894 1.394 . S
C895 C896 1.383 . S
C895 H903 0.929 . S
C896 C895 1.383 . S
C896 C897 1.377 . S
C897 H881 0.930 . S
C897 C896 1.377 . S
C897 C898 1.379 . S
C898 H882 0.931 . S
C898 C892 1.383 . S
C898 C897 1.379 . S
H899 C893 0.959 . S
H900 C893 0.961 . S
H901 C893 0.960 . S
H902 C894 0.930 . S
H903 C895 0.929 . S
H904 C912 0.929 . S
H905 C914 0.930 . S
H906 C916 0.930 . S
H907 C919 0.929 . S
H908 C922 0.930 . S
H909 C924 0.960 . S
H910 C924 0.960 . S
H911 C924 0.960 . S
C912 H904 0.929 . S
C912 C913 1.377 . S
C912 C914 1.384 . S
C913 C912 1.377 . S
C913 C919 1.390 . S
C914 H905 0.930 . S
C914 C912 1.384 . S
C914 C915 1.372 . S
C915 C914 1.372 . S
C915 C916 1.400 . S
C915 C920 1.490 . S
C916 H906 0.930 . S
C916 C915 1.400 . S
C916 C919 1.386 . S
H917 C933 0.938 . S
H918 C934 0.931 . S
C919 H907 0.929 . S
C919 C913 1.390 . S
C919 C916 1.386 . S
C920 C915 1.490 . S
C920 C922 1.395 . S
C920 C923 1.403 . S
H921 C927 0.930 . S
C922 H908 0.930 . S
C922 C920 1.395 . S
C922 C925 1.403 . S
C923 C920 1.403 . S
C923 C924 1.524 . S
C923 C927 1.400 . S
C924 H909 0.960 . S
C924 H910 0.960 . S
C924 H911 0.960 . S
C924 C923 1.524 . S
C925 C922 1.403 . S
C925 C926 1.392 . S
C925 C929 1.495 . S
C926 C925 1.392 . S
C926 C927 1.385 . S
C926 C928 1.478 . S
C927 H921 0.930 . S
C927 C923 1.400 . S
C927 C926 1.385 . S
C928 C926 1.478 . S
C928 C930 1.381 . S
C928 C934 1.383 . S
C929 C925 1.495 . S
C929 H935 0.959 . S
C929 H936 0.961 1_655 S
C929 H937 0.960 . S
C930 C928 1.381 . S
C930 C931 1.394 . S
C930 H938 0.930 . S
C931 C930 1.394 . S
C931 C932 1.383 . S
C931 H939 0.929 . S
C932 C931 1.383 . S
C932 C933 1.377 . S
C933 H917 0.938 . S
C933 C932 1.377 . S
C933 C934 1.379 . S
C934 H918 0.931 . S
C934 C928 1.383 . S
C934 C933 1.379 . S
H935 C929 0.959 . S
H936 C929 0.961 1_455 S
H937 C929 0.960 . S
H938 C930 0.930 . S
H939 C931 0.929 . S
H940 C948 0.929 . S
H941 C950 0.930 . S
H942 C952 0.930 . S
H943 C955 0.929 . S
H944 C958 0.930 . S
H945 C960 0.960 . S
H946 C960 0.960 . S
H947 C960 0.960 . S
C948 H940 0.929 . S
C948 C949 1.377 1_655 S
C948 C950 1.384 . S
C949 C948 1.377 1_455 S
C949 C955 1.390 . S
C950 H941 0.930 . S
C950 C948 1.384 . S
C950 C951 1.372 . S
C951 C950 1.372 . S
C951 C952 1.400 . S
C951 C956 1.490 . S
C952 H942 0.930 . S
C952 C951 1.400 . S
C952 C955 1.386 1_655 S
H953 C969 0.930 . S
H954 C970 0.931 . S
C955 H943 0.929 . S
C955 C949 1.390 . S
C955 C952 1.386 1_455 S
C956 C951 1.490 . S
C956 C958 1.395 . S
C956 C959 1.403 . S
H957 C963 0.930 . S
C958 H944 0.930 . S
C958 C956 1.395 . S
C958 C961 1.403 . S
C959 C956 1.403 . S
C959 C960 1.524 . S
C959 C963 1.400 . S
C960 H945 0.960 . S
C960 H946 0.960 . S
C960 H947 0.960 . S
C960 C959 1.524 . S
C961 C958 1.403 . S
C961 C962 1.392 . S
C961 C965 1.495 . S
C962 C961 1.392 . S
C962 C963 1.385 . S
C962 C964 1.478 . S
C963 H957 0.930 . S
C963 C959 1.400 . S
C963 C962 1.385 . S
C964 C962 1.478 . S
C964 C966 1.381 . S
C964 C970 1.383 . S
C965 C961 1.495 . S
C965 H971 0.959 . S
C965 H972 0.961 . S
C965 H973 0.960 . S
C966 C964 1.381 . S
C966 C967 1.394 . S
C966 H974 0.930 . S
C967 C966 1.394 . S
C967 C968 1.383 . S
C967 H975 0.929 . S
C968 C967 1.383 . S
C968 C969 1.377 . S
C969 H953 0.930 . S
C969 C968 1.377 . S
C969 C970 1.379 . S
C970 H954 0.931 . S
C970 C964 1.383 . S
C970 C969 1.379 . S
H971 C965 0.959 . S
H972 C965 0.961 . S
H973 C965 0.960 . S
H974 C966 0.930 . S
H975 C967 0.929 . S
H976 C984 0.929 . S
H977 C986 0.930 . S
H978 C988 0.930 . S
H979 C991 0.929 . S
H980 C994 0.930 . S
H981 C996 0.960 . S
H982 C996 0.960 . S
H983 C996 0.960 . S
C984 H976 0.929 . S
C984 C985 1.377 . S
C984 C986 1.384 . S
C985 C984 1.377 . S
C985 C991 1.390 . S
C986 H977 0.930 . S
C986 C984 1.384 . S
C986 C987 1.372 . S
C987 C986 1.372 . S
C987 C988 1.400 . S
C987 C992 1.490 . S
C988 H978 0.930 . S
C988 C987 1.400 . S
C988 C991 1.386 . S
H989 C1005 0.930 . S
H990 C1006 0.931 . S
C991 H979 0.929 . S
C991 C985 1.390 . S
C991 C988 1.386 . S
C992 C987 1.490 . S
C992 C994 1.395 . S
C992 C995 1.403 . S
H993 C999 0.930 . S
C994 H980 0.930 . S
C994 C992 1.395 . S
C994 C997 1.403 . S
C995 C992 1.403 . S
C995 C996 1.524 . S
C995 C999 1.400 . S
C996 H981 0.960 . S
C996 H982 0.960 . S
C996 H983 0.960 . S
C996 C995 1.524 . S
C997 C994 1.403 . S
C997 C998 1.392 . S
C997 C1001 1.495 . S
C998 C997 1.392 . S
C998 C999 1.385 . S
C998 C1000 1.478 . S
C999 H993 0.930 . S
C999 C995 1.400 . S
C999 C998 1.385 . S
C1000 C998 1.478 . S
C1000 C1002 1.381 . S
C1000 C1006 1.383 . S
C1001 C997 1.495 . S
C1001 H1007 0.959 . S
C1001 H1008 0.961 . S
C1001 H1009 0.960 . S
C1002 C1000 1.381 . S
C1002 C1003 1.394 . S
C1002 H1010 0.930 . S
C1003 C1002 1.394 . S
C1003 C1004 1.383 . S
C1003 H1011 0.929 . S
C1004 C1003 1.383 . S
C1004 C1005 1.377 . S
C1005 H989 0.930 . S
C1005 C1004 1.377 . S
C1005 C1006 1.379 . S
C1006 H990 0.931 . S
C1006 C1000 1.383 . S
C1006 C1005 1.379 . S
H1007 C1001 0.959 . S
H1008 C1001 0.961 . S
H1009 C1001 0.960 . S
H1010 C1002 0.930 . S
H1011 C1003 0.929 . S
H1012 C1020 0.929 . S
H1013 C1022 0.930 . S
H1014 C1024 0.930 . S
H1015 C1027 0.929 . S
H1016 C1030 0.930 . S
H1017 C1032 0.960 . S
H1018 C1032 0.960 . S
H1019 C1032 0.960 . S
C1020 H1012 0.929 . S
C1020 C1021 1.377 . S
C1020 C1022 1.384 . S
C1021 C1020 1.377 . S
C1021 C1027 1.390 . S
C1022 H1013 0.930 . S
C1022 C1020 1.384 . S
C1022 C1023 1.372 . S
C1023 C1022 1.372 . S
C1023 C1024 1.400 . S
C1023 C1028 1.490 . S
C1024 H1014 0.930 . S
C1024 C1023 1.400 . S
C1024 C1027 1.386 . S
H1025 C1041 0.930 . S
H1026 C1042 0.931 . S
C1027 H1015 0.929 . S
C1027 C1021 1.390 . S
C1027 C1024 1.386 . S
C1028 C1023 1.490 . S
C1028 C1030 1.395 . S
C1028 C1031 1.403 . S
H1029 C1035 0.930 . S
C1030 H1016 0.930 . S
C1030 C1028 1.395 . S
C1030 C1033 1.403 . S
C1031 C1028 1.403 . S
C1031 C1032 1.524 . S
C1031 C1035 1.400 . S
C1032 H1017 0.960 . S
C1032 H1018 0.960 . S
C1032 H1019 0.960 . S
C1032 C1031 1.524 . S
C1033 C1030 1.403 . S
C1033 C1034 1.392 . S
C1033 C1037 1.495 . S
C1034 C1033 1.392 . S
C1034 C1035 1.385 . S
C1034 C1036 1.478 . S
C1035 H1029 0.930 . S
C1035 C1031 1.400 . S
C1035 C1034 1.385 . S
C1036 C1034 1.478 . S
C1036 C1038 1.381 . S
C1036 C1042 1.383 . S
C1037 C1033 1.495 . S
C1037 H1043 0.959 . S
C1037 H1044 0.961 . S
C1037 H1045 0.960 . S
C1038 C1036 1.381 . S
C1038 C1039 1.394 . S
C1038 H1046 0.930 . S
C1039 C1038 1.394 . S
C1039 C1040 1.383 . S
C1039 H1047 0.929 . S
C1040 C1039 1.383 . S
C1040 C1041 1.377 . S
C1041 H1025 0.930 . S
C1041 C1040 1.377 . S
C1041 C1042 1.379 . S
C1042 H1026 0.931 . S
C1042 C1036 1.383 . S
C1042 C1041 1.379 . S
H1043 C1037 0.959 . S
H1044 C1037 0.961 . S
H1045 C1037 0.960 . S
H1046 C1038 0.930 . S
H1047 C1039 0.929 . S
H1048 C1056 0.929 . S
H1049 C1058 0.930 . S
H1050 C1060 0.930 . S
H1051 C1063 0.929 . S
H1052 C1066 0.930 . S
H1053 C1068 0.960 . S
H1054 C1068 0.960 . S
H1055 C1068 0.960 . S
C1056 H1048 0.929 . S
C1056 C1057 1.377 . S
C1056 C1058 1.384 . S
C1057 C1056 1.377 . S
C1057 C1063 1.390 . S
C1058 H1049 0.930 . S
C1058 C1056 1.384 . S
C1058 C1059 1.372 . S
C1059 C1058 1.372 . S
C1059 C1060 1.400 . S
C1059 C1064 1.490 . S
C1060 H1050 0.930 . S
C1060 C1059 1.400 . S
C1060 C1063 1.386 . S
H1061 C1077 0.930 . S
H1062 C1078 0.931 . S
C1063 H1051 0.929 . S
C1063 C1057 1.390 . S
C1063 C1060 1.386 . S
C1064 C1059 1.490 . S
C1064 C1066 1.395 . S
C1064 C1067 1.403 . S
H1065 C1071 0.930 . S
C1066 H1052 0.930 . S
C1066 C1064 1.395 . S
C1066 C1069 1.403 . S
C1067 C1064 1.403 . S
C1067 C1068 1.524 . S
C1067 C1071 1.400 . S
C1068 H1053 0.960 . S
C1068 H1054 0.960 . S
C1068 H1055 0.960 . S
C1068 C1067 1.524 . S
C1069 C1066 1.403 . S
C1069 C1070 1.392 . S
C1069 C1073 1.495 . S
C1070 C1069 1.392 . S
C1070 C1071 1.385 . S
C1070 C1072 1.478 . S
C1071 H1065 0.930 . S
C1071 C1067 1.400 . S
C1071 C1070 1.385 . S
C1072 C1070 1.478 . S
C1072 C1074 1.381 . S
C1072 C1078 1.383 . S
C1073 C1069 1.495 . S
C1073 H1079 0.959 . S
C1073 H1080 0.961 . S
C1073 H1081 0.960 . S
C1074 C1072 1.381 . S
C1074 C1075 1.394 . S
C1074 H1082 0.930 . S
C1075 C1074 1.394 . S
C1075 C1076 1.383 . S
C1075 H1083 0.929 . S
C1076 C1075 1.383 . S
C1076 C1077 1.377 . S
C1077 H1061 0.930 . S
C1077 C1076 1.377 . S
C1077 C1078 1.379 . S
C1078 H1062 0.931 . S
C1078 C1072 1.383 . S
C1078 C1077 1.379 . S
H1079 C1073 0.959 . S
H1080 C1073 0.961 . S
H1081 C1073 0.960 . S
H1082 C1074 0.930 . S
H1083 C1075 0.929 . S
H1084 C1092 0.929 . S
H1085 C1094 0.930 . S
H1086 C1096 0.930 . S
H1087 C1099 0.929 . S
H1088 C1102 0.930 . S
H1089 C1104 0.960 . S
H1090 C1104 0.960 . S
H1091 C1104 0.960 . S
C1092 H1084 0.929 . S
C1092 C1093 1.377 1_655 S
C1092 C1094 1.384 . S
C1093 C1092 1.377 1_455 S
C1093 C1099 1.390 . S
C1094 H1085 0.930 . S
C1094 C1092 1.384 . S
C1094 C1095 1.372 . S
C1095 C1094 1.372 . S
C1095 C1096 1.400 . S
C1095 C1100 1.490 . S
C1096 H1086 0.930 . S
C1096 C1095 1.400 . S
C1096 C1099 1.386 1_655 S
H1097 C1113 0.930 . S
H1098 C1114 0.931 . S
C1099 H1087 0.929 . S
C1099 C1093 1.390 . S
C1099 C1096 1.386 1_455 S
C1100 C1095 1.490 . S
C1100 C1102 1.395 . S
C1100 C1103 1.403 . S
H1101 C1107 0.930 . S
C1102 H1088 0.930 . S
C1102 C1100 1.395 . S
C1102 C1105 1.403 . S
C1103 C1100 1.403 . S
C1103 C1104 1.524 . S
C1103 C1107 1.400 . S
C1104 H1089 0.960 . S
C1104 H1090 0.960 . S
C1104 H1091 0.960 . S
C1104 C1103 1.524 . S
C1105 C1102 1.403 . S
C1105 C1106 1.392 . S
C1105 C1109 1.495 . S
C1106 C1105 1.392 . S
C1106 C1107 1.385 . S
C1106 C1108 1.478 . S
C1107 H1101 0.930 . S
C1107 C1103 1.400 . S
C1107 C1106 1.385 . S
C1108 C1106 1.478 . S
C1108 C1110 1.381 . S
C1108 C1114 1.383 . S
C1109 C1105 1.495 . S
C1109 H1115 0.959 . S
C1109 H1116 0.961 . S
C1109 H1117 0.960 . S
C1110 C1108 1.381 . S
C1110 C1111 1.394 . S
C1110 H1118 0.930 . S
C1111 C1110 1.394 . S
C1111 C1112 1.383 . S
C1111 H1119 0.929 . S
C1112 C1111 1.383 . S
C1112 C1113 1.377 . S
C1113 H1097 0.930 . S
C1113 C1112 1.377 . S
C1113 C1114 1.379 . S
C1114 H1098 0.931 . S
C1114 C1108 1.383 . S
C1114 C1113 1.379 . S
H1115 C1109 0.959 . S
H1116 C1109 0.961 . S
H1117 C1109 0.960 . S
H1118 C1110 0.930 . S
H1119 C1111 0.929 . S
H1120 C1128 0.929 . S
H1121 C1130 0.930 . S
H1122 C1132 0.930 . S
H1123 C1135 0.929 . S
H1124 C1138 0.930 . S
H1125 C1140 0.960 1_455 S
H1126 C1140 0.960 . S
H1127 C1140 0.960 . S
C1128 H1120 0.929 . S
C1128 C1129 1.377 . S
C1128 C1130 1.384 . S
C1129 C1128 1.377 . S
C1129 C1135 1.390 . S
C1130 H1121 0.930 . S
C1130 C1128 1.384 . S
C1130 C1131 1.372 . S
C1131 C1130 1.372 . S
C1131 C1132 1.400 . S
C1131 C1136 1.490 . S
C1132 H1122 0.930 . S
C1132 C1131 1.400 . S
C1132 C1135 1.386 . S
H1133 C1149 0.930 . S
H1134 C1150 0.931 . S
C1135 H1123 0.929 . S
C1135 C1129 1.390 . S
C1135 C1132 1.386 . S
C1136 C1131 1.490 . S
C1136 C1138 1.395 . S
C1136 C1139 1.403 . S
H1137 C1143 0.930 . S
C1138 H1124 0.930 . S
C1138 C1136 1.395 . S
C1138 C1141 1.403 . S
C1139 C1136 1.403 . S
C1139 C1140 1.524 . S
C1139 C1143 1.400 . S
C1140 H1125 0.960 1_655 S
C1140 H1126 0.960 . S
C1140 H1127 0.960 . S
C1140 C1139 1.524 . S
C1141 C1138 1.403 . S
C1141 C1142 1.392 . S
C1141 C1145 1.495 . S
C1142 C1141 1.392 . S
C1142 C1143 1.385 . S
C1142 C1144 1.478 . S
C1143 H1137 0.930 . S
C1143 C1139 1.400 . S
C1143 C1142 1.385 . S
C1144 C1142 1.478 . S
C1144 C1146 1.381 . S
C1144 C1150 1.383 . S
C1145 C1141 1.495 . S
C1145 H1151 0.959 . S
C1145 H1152 0.961 . S
C1145 H1153 0.960 . S
C1146 C1144 1.381 . S
C1146 C1147 1.394 . S
C1146 H1154 0.930 . S
C1147 C1146 1.394 . S
C1147 C1148 1.383 . S
C1147 H1155 0.929 . S
C1148 C1147 1.383 . S
C1148 C1149 1.377 . S
C1149 H1133 0.930 . S
C1149 C1148 1.377 . S
C1149 C1150 1.379 . S
C1150 H1134 0.931 . S
C1150 C1144 1.383 . S
C1150 C1149 1.379 . S
H1151 C1145 0.959 . S
H1152 C1145 0.961 . S
H1153 C1145 0.960 . S
H1154 C1146 0.930 . S
H1155 C1147 0.929 . S
H1156 C1164 0.929 . S
H1157 C1166 0.930 . S
H1158 C1168 0.930 . S
H1159 C1171 0.929 . S
H1160 C1174 0.930 . S
H1161 C1176 0.960 . S
H1162 C1176 0.960 . S
H1163 C1176 0.960 . S
C1164 H1156 0.929 . S
C1164 C1165 1.377 . S
C1164 C1166 1.384 . S
C1165 C1164 1.377 . S
C1165 C1171 1.390 . S
C1166 H1157 0.930 . S
C1166 C1164 1.384 . S
C1166 C1167 1.372 . S
C1167 C1166 1.372 . S
C1167 C1168 1.400 . S
C1167 C1172 1.490 . S
C1168 H1158 0.930 . S
C1168 C1167 1.400 . S
C1168 C1171 1.386 . S
H1169 C1185 0.930 . S
H1170 C1186 0.931 . S
C1171 H1159 0.929 . S
C1171 C1165 1.390 . S
C1171 C1168 1.386 . S
C1172 C1167 1.490 . S
C1172 C1174 1.395 . S
C1172 C1175 1.403 . S
H1173 C1179 0.930 . S
C1174 H1160 0.930 . S
C1174 C1172 1.395 . S
C1174 C1177 1.403 . S
C1175 C1172 1.403 . S
C1175 C1176 1.524 . S
C1175 C1179 1.400 . S
C1176 H1161 0.960 . S
C1176 H1162 0.960 . S
C1176 H1163 0.960 . S
C1176 C1175 1.524 . S
C1177 C1174 1.403 . S
C1177 C1178 1.392 . S
C1177 C1181 1.495 . S
C1178 C1177 1.392 . S
C1178 C1179 1.385 . S
C1178 C1180 1.478 . S
C1179 H1173 0.930 . S
C1179 C1175 1.400 . S
C1179 C1178 1.385 . S
C1180 C1178 1.478 . S
C1180 C1182 1.381 . S
C1180 C1186 1.383 . S
C1181 C1177 1.495 . S
C1181 H1187 0.959 . S
C1181 H1188 0.961 . S
C1181 H1189 0.960 . S
C1182 C1180 1.381 . S
C1182 C1183 1.394 . S
C1182 H1190 0.930 . S
C1183 C1182 1.394 . S
C1183 C1184 1.383 . S
C1183 H1191 0.929 . S
C1184 C1183 1.383 . S
C1184 C1185 1.377 . S
C1185 H1169 0.930 . S
C1185 C1184 1.377 . S
C1185 C1186 1.379 . S
C1186 H1170 0.931 . S
C1186 C1180 1.383 . S
C1186 C1185 1.379 . S
H1187 C1181 0.959 . S
H1188 C1181 0.961 . S
H1189 C1181 0.960 . S
H1190 C1182 0.930 . S
H1191 C1183 0.929 . S
H1192 C1200 0.929 . S
H1193 C1202 0.930 . S
H1194 C1204 0.930 . S
H1195 C1207 0.929 . S
H1196 C1210 0.930 . S
H1197 C1212 0.960 . S
H1198 C1212 0.960 . S
H1199 C1212 0.960 . S
C1200 H1192 0.929 . S
C1200 C1201 1.377 . S
C1200 C1202 1.384 . S
C1201 C1200 1.377 . S
C1201 C1207 1.390 . S
C1202 H1193 0.930 . S
C1202 C1200 1.384 . S
C1202 C1203 1.372 . S
C1203 C1202 1.372 . S
C1203 C1204 1.400 . S
C1203 C1208 1.490 . S
C1204 H1194 0.930 . S
C1204 C1203 1.400 . S
C1204 C1207 1.386 . S
H1205 C1221 0.930 . S
H1206 C1222 0.931 . S
C1207 H1195 0.929 . S
C1207 C1201 1.390 . S
C1207 C1204 1.386 . S
C1208 C1203 1.490 . S
C1208 C1210 1.395 . S
C1208 C1211 1.403 . S
H1209 C1215 0.930 . S
C1210 H1196 0.930 . S
C1210 C1208 1.395 . S
C1210 C1213 1.403 . S
C1211 C1208 1.403 . S
C1211 C1212 1.524 . S
C1211 C1215 1.400 . S
C1212 H1197 0.960 . S
C1212 H1198 0.960 . S
C1212 H1199 0.960 . S
C1212 C1211 1.524 . S
C1213 C1210 1.403 . S
C1213 C1214 1.392 . S
C1213 C1217 1.495 . S
C1214 C1213 1.392 . S
C1214 C1215 1.385 . S
C1214 C1216 1.478 . S
C1215 H1209 0.930 . S
C1215 C1211 1.400 . S
C1215 C1214 1.385 . S
C1216 C1214 1.478 . S
C1216 C1218 1.381 . S
C1216 C1222 1.383 . S
C1217 C1213 1.495 . S
C1217 H1223 0.959 . S
C1217 H1224 0.961 . S
C1217 H1225 0.960 . S
C1218 C1216 1.381 . S
C1218 C1219 1.394 . S
C1218 H1226 0.930 . S
C1219 C1218 1.394 . S
C1219 C1220 1.383 . S
C1219 H1227 0.929 . S
C1220 C1219 1.383 . S
C1220 C1221 1.377 . S
C1221 H1205 0.930 . S
C1221 C1220 1.377 . S
C1221 C1222 1.379 . S
C1222 H1206 0.931 . S
C1222 C1216 1.383 . S
C1222 C1221 1.379 . S
H1223 C1217 0.959 . S
H1224 C1217 0.961 . S
H1225 C1217 0.960 . S
H1226 C1218 0.930 . S
H1227 C1219 0.929 . S
H1228 C1236 0.929 . S
H1229 C1238 0.930 . S
H1230 C1240 0.930 . S
H1231 C1243 0.929 . S
H1232 C1246 0.930 . S
H1233 C1248 0.960 . S
H1234 C1248 0.960 . S
H1235 C1248 0.960 . S
C1236 H1228 0.929 . S
C1236 C1237 1.377 . S
C1236 C1238 1.384 . S
C1237 C1236 1.377 . S
C1237 C1243 1.390 . S
C1238 H1229 0.930 . S
C1238 C1236 1.384 . S
C1238 C1239 1.372 . S
C1239 C1238 1.372 . S
C1239 C1240 1.400 . S
C1239 C1244 1.490 . S
C1240 H1230 0.930 . S
C1240 C1239 1.400 . S
C1240 C1243 1.386 . S
H1241 C1257 0.930 . S
H1242 C1258 0.931 . S
C1243 H1231 0.929 . S
C1243 C1237 1.390 . S
C1243 C1240 1.386 . S
C1244 C1239 1.490 . S
C1244 C1246 1.395 . S
C1244 C1247 1.403 . S
H1245 C1251 0.930 . S
C1246 H1232 0.930 . S
C1246 C1244 1.395 . S
C1246 C1249 1.403 . S
C1247 C1244 1.403 . S
C1247 C1248 1.524 . S
C1247 C1251 1.400 . S
C1248 H1233 0.960 . S
C1248 H1234 0.960 . S
C1248 H1235 0.960 . S
C1248 C1247 1.524 . S
C1249 C1246 1.403 . S
C1249 C1250 1.392 . S
C1249 C1253 1.495 . S
C1250 C1249 1.392 . S
C1250 C1251 1.385 . S
C1250 C1252 1.478 . S
C1251 H1245 0.930 . S
C1251 C1247 1.400 . S
C1251 C1250 1.385 . S
C1252 C1250 1.478 . S
C1252 C1254 1.381 . S
C1252 C1258 1.383 . S
C1253 C1249 1.495 . S
C1253 H1259 0.959 . S
C1253 H1260 0.961 . S
C1253 H1261 0.960 . S
C1254 C1252 1.381 . S
C1254 C1255 1.394 . S
C1254 H1262 0.930 . S
C1255 C1254 1.394 . S
C1255 C1256 1.383 . S
C1255 H1263 0.929 . S
C1256 C1255 1.383 . S
C1256 C1257 1.377 . S
C1257 H1241 0.930 . S
C1257 C1256 1.377 . S
C1257 C1258 1.379 . S
C1258 H1242 0.931 . S
C1258 C1252 1.383 . S
C1258 C1257 1.379 . S
H1259 C1253 0.959 . S
H1260 C1253 0.961 . S
H1261 C1253 0.960 . S
H1262 C1254 0.930 . S
H1263 C1255 0.929 . S
H1264 C1272 0.929 . S
H1265 C1274 0.930 . S
H1266 C1276 0.930 . S
H1267 C1279 0.929 . S
H1268 C1282 0.930 . S
H1269 C1284 0.960 . S
H1270 C1284 0.960 . S
H1271 C1284 0.960 . S
C1272 H1264 0.929 . S
C1272 C1273 1.377 . S
C1272 C1274 1.384 . S
C1273 C1272 1.377 . S
C1273 C1279 1.390 . S
C1274 H1265 0.930 . S
C1274 C1272 1.384 . S
C1274 C1275 1.372 . S
C1275 C1274 1.372 . S
C1275 C1276 1.400 . S
C1275 C1280 1.490 . S
C1276 H1266 0.930 . S
C1276 C1275 1.400 . S
C1276 C1279 1.386 . S
H1277 C1293 0.930 . S
H1278 C1294 0.931 . S
C1279 H1267 0.929 . S
C1279 C1273 1.390 . S
C1279 C1276 1.386 . S
C1280 C1275 1.490 . S
C1280 C1282 1.395 . S
C1280 C1283 1.403 . S
H1281 C1287 0.930 . S
C1282 H1268 0.930 . S
C1282 C1280 1.395 . S
C1282 C1285 1.403 . S
C1283 C1280 1.403 . S
C1283 C1284 1.524 . S
C1283 C1287 1.400 . S
C1284 H1269 0.960 . S
C1284 H1270 0.960 . S
C1284 H1271 0.960 . S
C1284 C1283 1.524 . S
C1285 C1282 1.403 . S
C1285 C1286 1.392 . S
C1285 C1289 1.495 . S
C1286 C1285 1.392 . S
C1286 C1287 1.385 . S
C1286 C1288 1.478 . S
C1287 H1281 0.930 . S
C1287 C1283 1.400 . S
C1287 C1286 1.385 . S
C1288 C1286 1.478 . S
C1288 C1290 1.381 . S
C1288 C1294 1.383 . S
C1289 C1285 1.495 . S
C1289 H1295 0.959 . S
C1289 H1296 0.961 . S
C1289 H1297 0.960 . S
C1290 C1288 1.381 . S
C1290 C1291 1.394 . S
C1290 H1298 0.930 . S
C1291 C1290 1.394 . S
C1291 C1292 1.383 . S
C1291 H1299 0.929 . S
C1292 C1291 1.383 . S
C1292 C1293 1.377 . S
C1293 H1277 0.930 . S
C1293 C1292 1.377 . S
C1293 C1294 1.379 . S
C1294 H1278 0.931 . S
C1294 C1288 1.383 . S
C1294 C1293 1.379 . S
H1295 C1289 0.959 . S
H1296 C1289 0.961 . S
H1297 C1289 0.960 . S
H1298 C1290 0.930 . S
H1299 C1291 0.929 . S
H1300 C1308 0.929 . S
H1301 C1310 0.930 . S
H1302 C1312 0.930 . S
H1303 C1315 0.929 . S
H1304 C1318 0.930 . S
H1305 C1320 0.960 . S
H1306 C1320 0.960 . S
H1307 C1320 0.960 . S
C1308 H1300 0.929 . S
C1308 C1309 1.377 . S
C1308 C1310 1.384 . S
C1309 C1308 1.377 . S
C1309 C1315 1.390 . S
C1310 H1301 0.930 . S
C1310 C1308 1.384 . S
C1310 C1311 1.372 . S
C1311 C1310 1.372 . S
C1311 C1312 1.400 . S
C1311 C1316 1.490 . S
C1312 H1302 0.930 . S
C1312 C1311 1.400 . S
C1312 C1315 1.386 . S
H1313 C1329 0.930 . S
H1314 C1330 0.931 . S
C1315 H1303 0.929 . S
C1315 C1309 1.390 . S
C1315 C1312 1.386 . S
C1316 C1311 1.490 . S
C1316 C1318 1.395 . S
C1316 C1319 1.403 . S
H1317 C1323 0.930 . S
C1318 H1304 0.930 . S
C1318 C1316 1.395 . S
C1318 C1321 1.403 . S
C1319 C1316 1.403 . S
C1319 C1320 1.524 . S
C1319 C1323 1.400 . S
C1320 H1305 0.960 . S
C1320 H1306 0.960 . S
C1320 H1307 0.960 . S
C1320 C1319 1.524 . S
C1321 C1318 1.403 . S
C1321 C1322 1.392 . S
C1321 C1325 1.495 . S
C1322 C1321 1.392 . S
C1322 C1323 1.385 . S
C1322 C1324 1.478 . S
C1323 H1317 0.930 . S
C1323 C1319 1.400 . S
C1323 C1322 1.385 . S
C1324 C1322 1.478 . S
C1324 C1326 1.381 . S
C1324 C1330 1.383 . S
C1325 C1321 1.495 . S
C1325 H1331 0.959 . S
C1325 H1332 0.961 . S
C1325 H1333 0.960 . S
C1326 C1324 1.381 . S
C1326 C1327 1.394 . S
C1326 H1334 0.930 . S
C1327 C1326 1.394 . S
C1327 C1328 1.383 . S
C1327 H1335 0.929 . S
C1328 C1327 1.383 . S
C1328 C1329 1.377 . S
C1329 H1313 0.930 . S
C1329 C1328 1.377 . S
C1329 C1330 1.379 . S
C1330 H1314 0.931 . S
C1330 C1324 1.383 . S
C1330 C1329 1.379 . S
H1331 C1325 0.959 . S
H1332 C1325 0.961 . S
H1333 C1325 0.960 . S
H1334 C1326 0.930 . S
H1335 C1327 0.929 . S
H1336 C1344 0.929 . S
H1337 C1346 0.930 . S
H1338 C1348 0.930 . S
H1339 C1351 0.929 . S
H1340 C1354 0.930 . S
H1341 C1356 0.960 . S
H1342 C1356 0.960 . S
H1343 C1356 0.960 . S
C1344 H1336 0.929 . S
C1344 C1345 1.377 . S
C1344 C1346 1.384 . S
C1345 C1344 1.377 . S
C1345 C1351 1.390 . S
C1346 H1337 0.930 . S
C1346 C1344 1.384 . S
C1346 C1347 1.372 . S
C1347 C1346 1.372 . S
C1347 C1348 1.400 . S
C1347 C1352 1.490 . S
C1348 H1338 0.930 . S
C1348 C1347 1.400 . S
C1348 C1351 1.386 . S
H1349 C1365 0.930 . S
H1350 C1366 0.931 . S
C1351 H1339 0.929 . S
C1351 C1345 1.390 . S
C1351 C1348 1.386 . S
C1352 C1347 1.490 . S
C1352 C1354 1.395 . S
C1352 C1355 1.403 . S
H1353 C1359 0.930 . S
C1354 H1340 0.930 . S
C1354 C1352 1.395 . S
C1354 C1357 1.403 . S
C1355 C1352 1.403 . S
C1355 C1356 1.524 . S
C1355 C1359 1.400 . S
C1356 H1341 0.960 . S
C1356 H1342 0.960 . S
C1356 H1343 0.960 . S
C1356 C1355 1.524 . S
C1357 C1354 1.403 . S
C1357 C1358 1.392 . S
C1357 C1361 1.495 . S
C1358 C1357 1.392 . S
C1358 C1359 1.385 . S
C1358 C1360 1.478 . S
C1359 H1353 0.930 . S
C1359 C1355 1.400 . S
C1359 C1358 1.385 . S
C1360 C1358 1.478 . S
C1360 C1362 1.381 . S
C1360 C1366 1.383 . S
C1361 C1357 1.495 . S
C1361 H1367 0.959 . S
C1361 H1368 0.961 . S
C1361 H1369 0.960 . S
C1362 C1360 1.381 . S
C1362 C1363 1.394 . S
C1362 H1370 0.930 . S
C1363 C1362 1.394 . S
C1363 C1364 1.383 . S
C1363 H1371 0.929 . S
C1364 C1363 1.383 . S
C1364 C1365 1.377 . S
C1365 H1349 0.930 . S
C1365 C1364 1.377 . S
C1365 C1366 1.379 . S
C1366 H1350 0.931 . S
C1366 C1360 1.383 . S
C1366 C1365 1.379 . S
H1367 C1361 0.959 . S
H1368 C1361 0.961 . S
H1369 C1361 0.960 . S
H1370 C1362 0.930 . S
H1371 C1363 0.929 . S
H1372 C1380 0.929 . S
H1373 C1382 0.930 . S
H1374 C1384 0.930 . S
H1375 C1387 0.929 . S
H1376 C1390 0.930 . S
H1377 C1392 0.960 . S
H1378 C1392 0.960 . S
H1379 C1392 0.960 . S
C1380 H1372 0.929 . S
C1380 C1381 1.377 . S
C1380 C1382 1.384 . S
C1381 C1380 1.377 . S
C1381 C1387 1.390 . S
C1382 H1373 0.930 . S
C1382 C1380 1.384 . S
C1382 C1383 1.372 . S
C1383 C1382 1.372 . S
C1383 C1384 1.400 . S
C1383 C1388 1.490 . S
C1384 H1374 0.930 . S
C1384 C1383 1.400 . S
C1384 C1387 1.386 . S
H1385 C1401 0.930 . S
H1386 C1402 0.931 . S
C1387 H1375 0.929 . S
C1387 C1381 1.390 . S
C1387 C1384 1.386 . S
C1388 C1383 1.490 . S
C1388 C1390 1.395 . S
C1388 C1391 1.403 . S
H1389 C1395 0.930 . S
C1390 H1376 0.930 . S
C1390 C1388 1.395 . S
C1390 C1393 1.403 . S
C1391 C1388 1.403 . S
C1391 C1392 1.524 . S
C1391 C1395 1.400 . S
C1392 H1377 0.960 . S
C1392 H1378 0.960 . S
C1392 H1379 0.960 . S
C1392 C1391 1.524 . S
C1393 C1390 1.403 . S
C1393 C1394 1.392 . S
C1393 C1397 1.495 . S
C1394 C1393 1.392 . S
C1394 C1395 1.385 . S
C1394 C1396 1.478 . S
C1395 H1389 0.930 . S
C1395 C1391 1.400 . S
C1395 C1394 1.385 . S
C1396 C1394 1.478 . S
C1396 C1398 1.381 . S
C1396 C1402 1.383 . S
C1397 C1393 1.495 . S
C1397 H1403 0.959 . S
C1397 H1404 0.961 . S
C1397 H1405 0.960 . S
C1398 C1396 1.381 . S
C1398 C1399 1.394 . S
C1398 H1406 0.930 . S
C1399 C1398 1.394 . S
C1399 C1400 1.383 . S
C1399 H1407 0.929 . S
C1400 C1399 1.383 . S
C1400 C1401 1.377 . S
C1401 H1385 0.930 . S
C1401 C1400 1.377 . S
C1401 C1402 1.379 . S
C1402 H1386 0.931 . S
C1402 C1396 1.383 . S
C1402 C1401 1.379 . S
H1403 C1397 0.959 . S
H1404 C1397 0.961 . S
H1405 C1397 0.960 . S
H1406 C1398 0.930 . S
H1407 C1399 0.929 . S
H1408 C1416 0.929 . S
H1409 C1418 0.930 . S
H1410 C1420 0.930 . S
H1411 C1423 0.929 . S
H1412 C1426 0.930 . S
H1413 C1428 0.960 . S
H1414 C1428 0.960 . S
H1415 C1428 0.960 . S
C1416 H1408 0.929 . S
C1416 C1417 1.377 . S
C1416 C1418 1.384 . S
C1417 C1416 1.377 . S
C1417 C1423 1.390 . S
C1418 H1409 0.930 . S
C1418 C1416 1.384 . S
C1418 C1419 1.372 . S
C1419 C1418 1.372 . S
C1419 C1420 1.400 . S
C1419 C1424 1.490 . S
C1420 H1410 0.930 . S
C1420 C1419 1.400 . S
C1420 C1423 1.386 . S
H1421 C1437 0.930 . S
H1422 C1438 0.931 . S
C1423 H1411 0.929 . S
C1423 C1417 1.390 . S
C1423 C1420 1.386 . S
C1424 C1419 1.490 . S
C1424 C1426 1.395 . S
C1424 C1427 1.403 . S
H1425 C1431 0.930 . S
C1426 H1412 0.930 . S
C1426 C1424 1.395 . S
C1426 C1429 1.403 . S
C1427 C1424 1.403 . S
C1427 C1428 1.524 . S
C1427 C1431 1.400 . S
C1428 H1413 0.960 . S
C1428 H1414 0.960 . S
C1428 H1415 0.960 . S
C1428 C1427 1.524 . S
C1429 C1426 1.403 . S
C1429 C1430 1.392 . S
C1429 C1433 1.495 . S
C1430 C1429 1.392 . S
C1430 C1431 1.385 . S
C1430 C1432 1.478 . S
C1431 H1425 0.930 . S
C1431 C1427 1.400 . S
C1431 C1430 1.385 . S
C1432 C1430 1.478 . S
C1432 C1434 1.381 . S
C1432 C1438 1.383 . S
C1433 C1429 1.495 . S
C1433 H1439 0.959 . S
C1433 H1440 0.961 . S
C1433 H1441 0.960 . S
C1434 C1432 1.381 . S
C1434 C1435 1.394 . S
C1434 H1442 0.930 . S
C1435 C1434 1.394 . S
C1435 C1436 1.383 . S
C1435 H1443 0.929 . S
C1436 C1435 1.383 . S
C1436 C1437 1.377 . S
C1437 H1421 0.930 . S
C1437 C1436 1.377 . S
C1437 C1438 1.379 . S
C1438 H1422 0.931 . S
C1438 C1432 1.383 . S
C1438 C1437 1.379 . S
H1439 C1433 0.959 . S
H1440 C1433 0.961 . S
H1441 C1433 0.960 . S
H1442 C1434 0.930 . S
H1443 C1435 0.929 . S
C320 C228 1.837 . S
C301 C17 1.782 . S
C337 C30 1.700 . S
C356 C231 1.708 . S
C373 C61 1.684 . S
C392 C262 1.674 . S
C428 C197 1.781 . S
C409 C72 1.785 . S
C464 C232 1.818 . S
C445 C19 1.818 . S
C500 C263 1.831 . S
C481 C33 1.772 . S
C536 C188 1.776 . S
C517 C59 1.710 . S
C572 C219 1.756 . S
C553 C75 1.685 . S
C589 C12 1.254 . S
C608 C249 1.173 . S
C625 C101 1.250 . S
C644 C218 1.228 . S
C661 C51 1.139 . S
C680 C178 1.142 . S
C716 C271 1.137 . S
C697 C124 1.161 . S
C752 C199 1.171 . S
C733 C9 1.274 . S
C769 C103 1.191 . S
C788 C198 1.199 . S
C805 C54 1.189 . S
C824 C291 1.195 . S
C860 C230 1.204 . S
C841 C122 1.274 . S
C877 C145 1.785 . S
C896 C290 1.792 . S
C913 C96 1.680 . S
C932 C169 1.757 . S
C949 C166 1.712 . S
C968 C200 1.732 . S
C985 C114 1.762 . S
C1004 C259 1.742 . S
C1040 C170 1.861 . S
C1021 C143 1.810 . S
C1057 C93 1.782 . S
C1076 C201 1.777 . S
C1093 C164 1.679 . S
C1112 C250 1.749 . S
C1148 C281 1.785 . S
C1129 C117 1.724 . S
C1165 C135 1.245 . S
C1184 C187 1.157 . S
C1201 C40 1.223 . S
C1220 C280 1.147 . S
C1237 C156 1.170 . S
C1256 C240 1.169 . S
C1292 C209 1.220 . S
C1273 C82 1.202 . S
C1328 C261 1.268 . S
C1309 C138 1.293 . S
C1364 C260 1.239 . S
C1345 C38 1.214 . S
C1400 C229 1.150 . S
C1381 C159 1.149 . S
C1436 C168 1.176 . S
C1417 C80 1.256 . S
