# Generated by pormake.
# Topology tsx, (6,3)-cn, num edge types: 1
# Building blocks:
#     Node 0, Type 0, BuildingBlock: LEVNOQ01_clean_sbu_1, # of connection points: 6
#     Node 1, Type 0, BuildingBlock: LEVNOQ01_clean_sbu_1, # of connection points: 6
#     Node 2, Type 1, BuildingBlock: PAMTOO_clean_linker_0, # of connection points: 3
#     Node 3, Type 1, BuildingBlock: PAMTOO_clean_linker_0, # of connection points: 3
#     Node 4, Type 1, BuildingBlock: PAMTOO_clean_linker_0, # of connection points: 3
#     Node 5, Type 1, BuildingBlock: PAMTOO_clean_linker_0, # of connection points: 3
#     Edge 6, Type (0, 1), BuildingBlock: XUDNAN_clean_linker_2, # of connection points: 2
#     Edge 7, Type (0, 1), BuildingBlock: XUDNAN_clean_linker_2, # of connection points: 2
#     Edge 8, Type (0, 1), BuildingBlock: XUDNAN_clean_linker_2, # of connection points: 2
#     Edge 9, Type (0, 1), BuildingBlock: XUDNAN_clean_linker_2, # of connection points: 2
#     Edge 10, Type (0, 1), BuildingBlock: XUDNAN_clean_linker_2, # of connection points: 2
#     Edge 11, Type (0, 1), BuildingBlock: XUDNAN_clean_linker_2, # of connection points: 2
#     Edge 12, Type (0, 1), BuildingBlock: XUDNAN_clean_linker_2, # of connection points: 2
#     Edge 13, Type (0, 1), BuildingBlock: XUDNAN_clean_linker_2, # of connection points: 2
#     Edge 14, Type (0, 1), BuildingBlock: XUDNAN_clean_linker_2, # of connection points: 2
#     Edge 15, Type (0, 1), BuildingBlock: XUDNAN_clean_linker_2, # of connection points: 2
#     Edge 16, Type (0, 1), BuildingBlock: XUDNAN_clean_linker_2, # of connection points: 2
#     Edge 17, Type (0, 1), BuildingBlock: XUDNAN_clean_linker_2, # of connection points: 2
# Relax obj value: 0.128
# Max RMSD: 0.145
# Mean RMSD: 0.138
data_MOF--net-tsx--node1-LEVNOQ01_clean_sbu_1--node2-PAMTOO_clean_linker_0--edge1-XUDNAN_clean_linker_2
_symmetry_space_group_name_H-M    P1
_symmetry_Int_Tables_number       1
_symmetry_cell_setting            triclinic
loop_
_symmetry_equiv_pos_as_xyz
'x, y, z'
_cell_length_a     17.865008
_cell_length_b     23.200853
_cell_length_c     35.138354
_cell_angle_alpha  89.39761
_cell_angle_beta   91.229651
_cell_angle_gamma 90.950633
loop_
_atom_site_label
_atom_site_type_symbol
_atom_site_fract_x
_atom_site_fract_y
_atom_site_fract_z
_atom_type_partial_charge
O0 O 0.17359 0.05451 0.07897 0.0
Mg1 Mg 0.24152 0.04367 0.03189 0.0
O2 O 0.06811 0.02699 0.04913 0.0
Mg3 Mg 0.09089 0.02354 -0.0165 0.0
O4 O 0.19322 0.08479 -0.01309 0.0
O5 O 0.30435 0.11123 0.0118 0.0
O6 O 0.11467 0.01758 0.92006 0.0
O7 O 0.03198 0.11736 -0.0257 0.0
Mg8 Mg 0.96941 0.03274 0.95883 0.0
O9 O 0.98788 0.9519 -0.02123 0.0
O10 O 1.01023 0.05956 0.90377 0.0
O11 O 0.92868 0.09116 -0.00042 0.0
O12 O 0.88474 0.97939 0.94588 0.0
C13 C 0.22492 0.92323 0.00392 0.0
C14 C 0.10447 0.04125 0.07947 0.0
C15 C 0.24979 0.12051 -0.01201 0.0
C16 C 0.07325 0.0405 0.8946 0.0
C17 C 0.96897 0.13175 -0.01271 0.0
C18 C 0.92183 0.94006 0.96375 0.0
O19 O 0.26938 0.95919 0.01962 0.0
O20 O 0.16049 0.93806 -0.00905 0.0
O21 O 0.67647 0.53817 0.57228 0.0
Mg22 Mg 0.7372 0.54039 0.5216 0.0
O23 O 0.5632 0.52732 0.54519 0.0
Mg24 Mg 0.57769 0.5366 0.47961 0.0
O25 O 0.68186 0.59713 0.48694 0.0
O26 O 0.7987 0.61307 0.50837 0.0
O27 O 0.59701 0.54495 0.41511 0.0
O28 O 0.51169 0.62528 0.48276 0.0
Mg29 Mg 0.43506 0.54004 0.4401 0.0
O30 O 0.47405 0.47151 0.47212 0.0
O31 O 0.48656 0.55711 0.38736 0.0
O32 O 0.39241 0.60811 0.47039 0.0
O33 O 0.36499 0.47142 0.4386 0.0
C34 C 0.71092 0.43067 0.4813 0.0
C35 C 0.60604 0.53138 0.57468 0.0
C36 C 0.73955 0.63167 0.4908 0.0
C37 C 0.55695 0.55369 0.38533 0.0
C38 C 0.44377 0.64205 0.4817 0.0
C39 C 0.41128 0.44603 0.46161 0.0
O40 O 0.76189 0.46119 0.49701 0.0
O41 O 0.64536 0.45061 0.4754 0.0
H42 H 0.18065 0.93424 0.3557 0.0
H43 H 1.0031 0.05684 0.35842 0.0
H44 H 0.1101 0.00206 0.46288 0.0
H45 H 0.93243 0.02987 0.46752 0.0
C46 C 0.93303 0.05216 0.4397 0.0
O47 O 1.00584 0.06786 0.43171 0.0
H48 H 0.90975 0.02139 0.41817 0.0
C49 C 0.14453 0.96166 0.37176 0.0
C50 C 0.15295 0.96476 0.4116 0.0
C51 C 0.08982 -0.00577 0.35262 0.0
C52 C 0.04471 0.0308 0.37311 0.0
C53 C 0.05126 0.033 0.41269 0.0
C54 C 0.10479 -0.00039 0.43215 0.0
H55 H 0.18558 0.12796 0.61326 0.0
H56 H 1.01195 -0.00184 0.61339 0.0
H57 H 0.06 0.08935 0.50978 0.0
H58 H 0.88709 0.05689 0.52633 0.0
C59 C 0.90152 0.0173 0.54271 0.0
O60 O 0.97763 0.00785 0.54115 0.0
H61 H 0.88559 0.02357 0.57283 0.0
C62 C 0.14154 0.10466 0.59796 0.0
C63 C 0.12874 0.11471 0.55877 0.0
C64 C 0.09919 0.06327 0.61765 0.0
C65 C 0.04417 0.0308 0.59832 0.0
C66 C 1.02956 0.04078 0.55961 0.0
C67 C 0.07158 0.08261 0.53984 0.0
H68 H 0.65412 0.42967 0.83871 0.0
H69 H 0.52691 0.57849 0.86399 0.0
H70 H 0.62118 0.47693 0.95562 0.0
H71 H 0.45635 0.52238 0.96569 0.0
C72 C 0.46233 0.55808 0.94486 0.0
O73 O 0.53724 0.5667 0.9373 0.0
H74 H 0.43042 0.54504 0.91865 0.0
C75 C 0.63161 0.45791 0.85986 0.0
C76 C 0.64428 0.447 0.89896 0.0
C77 C 0.58853 0.50431 0.84732 0.0
C78 C 0.5612 0.54282 0.87358 0.0
C79 C 0.57239 0.53279 0.91256 0.0
C80 C 0.61438 0.48519 0.9254 0.0
H81 H 0.70076 0.62236 0.10752 0.0
H82 H 0.57116 0.46538 0.11166 0.0
H83 H 0.61021 0.54715 0.00402 0.0
H84 H 0.44358 0.51129 0.0307 0.0
C85 C 0.4615 0.46792 0.04012 0.0
O86 O 0.53854 0.46348 0.03888 0.0
H87 H 0.44389 0.4615 0.07008 0.0
C88 C 0.67076 0.58831 0.09247 0.0
C89 C 0.66253 0.59022 0.05255 0.0
C90 C 0.6392 0.543 0.1136 0.0
C91 C 0.59709 0.49982 0.09525 0.0
C92 C 0.58466 0.50265 0.05591 0.0
C93 C 0.61857 0.54688 0.03453 0.0
H94 H 0.17818 0.21367 0.00974 0.0
H95 H 0.33175 0.15168 0.927 0.0
H96 H 0.38472 0.24965 0.91928 0.0
H97 H 0.1731 0.37705 -0.02571 0.0
H98 H 0.17292 0.39879 0.02338 0.0
H99 H 0.12375 0.33386 0.00887 0.0
H100 H 0.19801 0.27733 0.06049 0.0
H101 H 0.2498 0.34072 0.07415 0.0
H102 H 0.29897 0.27774 0.0595 0.0
H103 H 0.44926 0.33997 0.93706 0.0
H104 H 0.51178 0.41692 -0.02559 0.0
H105 H 0.32277 0.42049 0.04942 0.0
C106 C 0.21846 0.22224 -0.01232 0.0
C107 C 0.24961 0.17611 0.96809 0.0
C108 C 0.30564 0.18714 0.94118 0.0
C109 C 0.33648 0.24272 0.93696 0.0
C110 C 0.31069 0.28644 0.96006 0.0
C111 C 0.25133 0.27721 -0.01567 0.0
C112 C 0.24563 0.32609 0.01242 0.0
C113 C 0.17465 0.36104 0.00423 0.0
C114 C 0.24836 0.30409 0.05404 0.0
C115 C 0.3153 0.36078 0.00286 0.0
C116 C 0.35053 0.33854 0.97171 0.0
C117 C 0.42101 0.3587 0.96078 0.0
C118 C 0.45667 0.40192 -0.01753 0.0
C119 C 0.42256 0.42365 0.01524 0.0
C120 C 0.34999 0.4042 0.02458 0.0
H121 H 0.2229 0.84866 0.94317 0.0
H122 H 0.28642 0.86445 0.06247 0.0
H123 H 0.35097 0.77163 0.06042 0.0
H124 H 0.1969 0.68883 0.94324 0.0
H125 H 0.23697 0.68185 0.89689 0.0
H126 H 0.18811 0.74641 0.90865 0.0
H127 H 0.30523 0.80749 0.89107 0.0
H128 H 0.35495 0.74313 0.87995 0.0
H129 H 0.39378 0.79281 0.91447 0.0
H130 H 0.42242 0.68586 0.04416 0.0
H131 H 0.48314 0.60214 0.01622 0.0
H132 H 0.37181 0.63729 0.90788 0.0
C133 C 0.24827 0.83135 0.96902 0.0
C134 C 0.24932 0.86308 0.0031 0.0
C135 C 0.28494 0.84035 0.0362 0.0
C136 C 0.32187 0.78785 0.0353 0.0
C137 C 0.32277 0.7586 0.00102 0.0
C138 C 0.28613 0.77877 0.96856 0.0
C139 C 0.29982 0.73985 0.93504 0.0
C140 C 0.22605 0.7126 0.92009 0.0
C141 C 0.34088 0.7728 0.90326 0.0
C142 C 0.34994 0.69517 0.95386 0.0
C143 C 0.36284 0.70732 -0.00816 0.0
C144 C 0.41104 0.67477 0.01474 0.0
C145 C 0.44514 0.62721 -0.00127 0.0
C146 C 0.42976 0.612 0.9605 0.0
C147 C 0.38286 0.64722 0.93753 0.0
H148 H 0.94753 0.85483 0.01812 0.0
H149 H 0.81248 0.89607 0.91757 0.0
H150 H 0.73765 0.80755 0.92678 0.0
H151 H 0.9429 0.69527 0.00495 0.0
H152 H 0.93622 0.68119 0.05532 0.0
H153 H 0.98511 0.74483 0.0386 0.0
H154 H 0.90026 0.80809 0.07937 0.0
H155 H 0.85051 0.74482 0.09582 0.0
H156 H 0.8 0.80268 0.07295 0.0
H157 H 0.6668 0.72273 0.95095 0.0
H158 H 0.61017 0.64193 -0.01373 0.0
H159 H 0.79524 0.64932 0.06868 0.0
C160 C 0.90357 0.84429 -0.00246 0.0
C161 C 0.88585 0.88243 0.9672 0.0
C162 C 0.82689 0.86772 0.94121 0.0
C163 C 0.78403 0.81739 0.94608 0.0
C164 C 0.80101 0.78169 -0.02308 0.0
C165 C 0.85987 0.79383 0.00197 0.0
C166 C 0.86295 0.74947 0.03393 0.0
C167 C 0.93615 0.71568 0.03313 0.0
C168 C 0.85282 0.77798 0.07281 0.0
C169 C 0.79585 0.71158 0.02322 0.0
C170 C 0.76097 0.73105 -0.00973 0.0
C171 C 0.69466 0.70601 -0.02372 0.0
C172 C 0.66308 0.65963 -0.00348 0.0
C173 C 0.6981 0.63815 0.03027 0.0
C174 C 0.76609 0.66447 0.04329 0.0
H175 H 0.94374 0.24463 0.01133 0.0
H176 H 0.8965 0.1221 0.92114 0.0
H177 H 0.80631 0.18818 0.89169 0.0
H178 H 0.75756 0.29615 0.01948 0.0
H179 H 0.78256 0.37106 0.02584 0.0
H180 H 0.84717 0.31585 0.04052 0.0
H181 H 0.94961 0.36144 -0.00184 0.0
H182 H 0.88578 0.41749 -0.01596 0.0
H183 H 0.92923 0.37471 0.94839 0.0
H184 H 0.71047 0.25762 0.87682 0.0
H185 H 0.63147 0.34142 0.86618 0.0
H186 H 0.746 0.42986 0.95975 0.0
C187 C 0.91568 0.23282 -0.01514 0.0
C188 C 0.92786 0.17862 0.96803 0.0
C189 C 0.8892 0.16384 0.9339 0.0
C190 C 0.83706 0.20077 0.91722 0.0
C191 C 0.82447 0.25294 0.93475 0.0
C192 C 0.86377 0.27024 0.96708 0.0
C193 C 0.8391 0.33002 -0.02118 0.0
C194 C 0.80456 0.32813 0.01853 0.0
C195 C 0.90485 0.3735 -0.02276 0.0
C196 C 0.7799 0.34273 0.94807 0.0
C197 C 0.77172 0.29659 0.92379 0.0
C198 C 0.718 0.29506 0.89469 0.0
C199 C 0.67364 0.34327 0.88875 0.0
C200 C 0.68467 0.39367 0.91082 0.0
C201 C 0.73704 0.39258 0.94184 0.0
H202 H 0.85057 0.70042 0.46341 0.0
H203 H 0.62459 0.70277 0.50495 0.0
H204 H 0.63441 0.80842 0.51218 0.0
H205 H 0.92771 0.78634 0.52664 0.0
H206 H 0.99189 0.82588 0.49681 0.0
H207 H 0.96059 0.75494 0.48346 0.0
H208 H 0.91175 0.79372 0.41835 0.0
H209 H 0.94458 0.865 0.43119 0.0
H210 H 0.84816 0.85326 0.41674 0.0
H211 H 0.67967 0.90778 0.52974 0.0
H212 H 0.75274 -0.00639 0.55106 0.0
H213 H 0.94997 0.92652 0.49818 0.0
C214 C 0.80182 0.72386 0.47189 0.0
C215 C 0.73585 0.69396 0.48243 0.0
C216 C 0.67414 0.72529 0.49505 0.0
C217 C 0.67976 0.78529 0.49971 0.0
C218 C 0.74729 0.81322 0.49116 0.0
C219 C 0.80672 0.78369 0.47651 0.0
C220 C 0.87629 0.82188 0.47434 0.0
C221 C 0.94294 0.79568 0.49667 0.0
C222 C 0.89636 0.8342 0.43268 0.0
C223 C 0.84871 0.87569 0.49313 0.0
C224 C 0.77372 0.87054 0.50175 0.0
C225 C 0.7379 0.91277 0.5223 0.0
C226 C 0.77987 0.9611 0.53456 0.0
C227 C 0.85711 0.96647 0.52685 0.0
C228 C 0.89116 0.92376 0.5049 0.0
H229 H 0.82252 0.36399 0.51081 0.0
H230 H 0.63999 0.3629 0.4273 0.0
H231 H 0.67528 0.26475 0.40779 0.0
H232 H 0.95581 0.29113 0.45673 0.0
H233 H 0.99331 0.25044 0.49654 0.0
H234 H 0.95263 0.31972 0.50418 0.0
H235 H 0.86158 0.27352 0.55271 0.0
H236 H 0.90219 0.20411 0.54517 0.0
H237 H 0.80278 0.21328 0.53847 0.0
H238 H 0.73534 0.16818 0.39569 0.0
H239 H 0.81086 0.07962 0.39421 0.0
H240 H 0.95025 0.1441 0.48731 0.0
C241 C 0.78981 0.34317 0.48841 0.0
C242 C 0.72877 0.37114 0.47034 0.0
C243 C 0.68684 0.34213 0.44153 0.0
C244 C 0.70661 0.28653 0.43024 0.0
C245 C 0.76763 0.26043 0.44849 0.0
C246 C 0.80804 0.28765 0.47726 0.0
C247 C 0.87068 0.25034 0.49271 0.0
C248 C 0.94764 0.27966 0.48718 0.0
C249 C 0.85855 0.23438 0.53476 0.0
C250 C 0.86045 0.19829 0.46755 0.0
C251 C 0.80072 0.20473 0.44224 0.0
C252 C 0.78174 0.16253 0.41561 0.0
C253 C 0.82483 0.11248 0.41496 0.0
C254 C 0.8859 0.10518 0.44083 0.0
C255 C 0.90358 0.14862 0.46742 0.0
H256 H 0.36664 0.40721 0.5313 0.0
H257 H 0.40557 0.3536 0.41589 0.0
H258 H 0.34312 0.25978 0.42903 0.0
H259 H 0.38408 0.2605 0.57751 0.0
H260 H 0.30984 0.27468 0.60987 0.0
H261 H 0.36899 0.333 0.59327 0.0
H262 H 0.25122 0.38734 0.5693 0.0
H263 H 0.19189 0.32886 0.58512 0.0
H264 H 0.18703 0.35262 0.53614 0.0
H265 H 0.26376 0.17675 0.4524 0.0
H266 H 0.18045 0.10787 0.4856 0.0
H267 H 0.18645 0.21848 0.5847 0.0
C268 C 0.36493 0.3745 0.50952 0.0
C269 C 0.3928 0.38645 0.473 0.0
C270 C 0.38634 0.34416 0.44436 0.0
C271 C 0.35056 0.29103 0.4515 0.0
C272 C 0.32108 0.28109 0.48741 0.0
C273 C 0.32861 0.32133 0.51613 0.0
C274 C 0.28625 0.30197 0.55105 0.0
C275 C 0.34053 0.29193 0.58493 0.0
C276 C 0.2255 0.34528 0.56095 0.0
C277 C 0.25202 0.24563 0.53706 0.0
C278 C 0.27341 0.23401 0.50047 0.0
C279 C 0.24719 0.18515 0.48124 0.0
C280 C 0.19899 0.14658 0.5002 0.0
C281 C 0.17673 0.1573 0.53795 0.0
C282 C 0.20337 0.20803 0.55623 0.0
H283 H 0.31353 0.68494 0.5072 0.0
H284 H 0.52747 0.73604 0.46089 0.0
H285 H 0.48124 0.83434 0.44984 0.0
H286 H 0.20707 0.74591 0.44184 0.0
H287 H 0.13318 0.77102 0.47132 0.0
H288 H 0.18839 0.71096 0.48683 0.0
H289 H 0.22457 0.7633 0.54943 0.0
H290 H 0.16795 0.8234 0.53441 0.0
H291 H 0.26511 0.83491 0.54751 0.0
H292 H 0.40316 0.91587 0.42768 0.0
H293 H 0.30253 0.97799 0.40195 0.0
H294 H 0.13794 0.87662 0.46316 0.0
C295 C 0.3517 0.71781 0.4966 0.0
C296 C 0.4248 0.70337 0.48584 0.0
C297 C 0.47259 0.74672 0.47084 0.0
C298 C 0.4463 0.80262 0.46406 0.0
C299 C 0.37239 0.81462 0.4729 0.0
C300 C 0.32619 0.77379 0.48978 0.0
C301 C 0.24638 0.79489 0.49174 0.0
C302 C 0.19056 0.75323 0.47172 0.0
C303 C 0.22474 0.80472 0.53324 0.0
C304 C 0.25346 0.8516 0.47029 0.0
C305 C 0.32696 0.8628 0.46043 0.0
C306 C 0.34598 0.90865 0.43635 0.0
C307 C 0.28858 0.94344 0.42167 0.0
C308 C 0.21318 0.93231 0.43116 0.0
C309 C 0.19562 0.88672 0.45645 0.0
H310 H 0.13435 0.10694 0.14113 0.0
H311 H 1.00489 0.95801 0.10308 0.0
H312 H 0.98089 0.93109 0.17022 0.0
H313 H 0.22693 0.041 0.21389 0.0
H314 H 0.22705 0.10024 0.24666 0.0
H315 H 0.22227 0.11414 0.19625 0.0
H316 H 0.09962 0.17084 0.20328 0.0
H317 H 0.10519 0.15881 0.254 0.0
H318 H 1.02184 0.13767 0.22753 0.0
H319 H 0.9906 0.91212 0.24162 0.0
H320 H 1.01699 0.91092 0.31138 0.0
H321 H 0.13866 0.07307 0.30133 0.0
C322 C 0.09836 0.06998 0.14694 0.0
C323 C 0.07086 0.03475 0.11715 0.0
C324 C 1.02514 0.98611 0.12561 0.0
C325 C 1.01196 0.97024 0.16364 0.0
C326 C 0.04389 0.00415 0.1925 0.0
C327 C 0.08446 0.05392 0.18448 0.0
C328 C 0.11736 0.08092 0.22019 0.0
C329 C 0.20347 0.08423 0.21915 0.0
C330 C 0.08397 0.14059 0.22663 0.0
C331 C 0.09111 0.0377 0.24958 0.0
C332 C 0.04882 -0.00638 0.23322 0.0
C333 C 1.02244 0.94695 0.25475 0.0
C334 C 0.03822 0.94624 0.29409 0.0
C335 C 0.07988 -0.00818 0.3111 0.0
C336 C 0.10668 0.03786 0.28864 0.0
H337 H 1.02339 0.11125 0.83686 0.0
H338 H 0.17204 0.969 0.86164 0.0
H339 H 0.20009 0.96223 0.79333 0.0
H340 H 0.94517 0.06018 0.75174 0.0
H341 H 0.94313 0.12907 0.72756 0.0
H342 H 0.93881 0.12561 0.77865 0.0
H343 H 0.05455 0.19408 0.78431 0.0
H344 H 0.05895 0.19808 0.73315 0.0
H345 H 0.13966 0.17589 0.76089 0.0
H346 H 0.20183 0.96453 0.72185 0.0
H347 H 0.18438 0.98129 0.65234 0.0
H348 H 0.04016 0.12474 0.67456 0.0
C349 C 0.06258 0.0792 0.82792 0.0
C350 C 0.09546 0.04057 0.85442 0.0
C351 C 0.14664 -0.00072 0.84177 0.0
C352 C 0.16278 -0.005 0.80305 0.0
C353 C 0.12843 0.0331 0.77753 0.0
C354 C 0.08042 0.07507 0.78949 0.0
C355 C 0.05023 0.11022 0.7562 0.0
C356 C 0.96425 0.10596 0.75339 0.0
C357 C 0.07749 0.1733 0.7588 0.0
C358 C 0.0862 0.07986 0.72356 0.0
C359 C 0.13147 0.03566 0.73644 0.0
C360 C 0.16762 -0.00038 0.71143 0.0
C361 C 0.15737 0.00922 0.6722 0.0
C362 C 0.11168 0.05445 0.65871 0.0
C363 C 0.07605 0.09032 0.68458 0.0
H364 H 0.6489 0.59718 0.63424 0.0
H365 H 0.49562 0.45905 0.6011 0.0
H366 H 0.46121 0.44496 0.66864 0.0
H367 H 0.72149 0.53533 0.71367 0.0
H368 H 0.72822 0.5994 0.74221 0.0
H369 H 0.73042 0.60531 0.69124 0.0
H370 H 0.61796 0.67446 0.69114 0.0
H371 H 0.61592 0.6694 0.74235 0.0
H372 H 0.5329 0.65256 0.71432 0.0
H373 H 0.46301 0.4345 0.73983 0.0
H374 H 0.49181 0.43391 0.80912 0.0
H375 H 0.63883 0.58246 0.79524 0.0
C376 C 0.60646 0.56509 0.64118 0.0
C377 C 0.57472 0.52908 0.6129 0.0
C378 C 0.51975 0.48731 0.6226 0.0
C379 C 0.50009 0.47908 0.66078 0.0
C380 C 0.53461 0.5141 0.68832 0.0
C381 C 0.58541 0.55718 0.67882 0.0
C382 C 0.6189 0.58616 0.71373 0.0
C383 C 0.70481 0.58119 0.71528 0.0
C384 C 0.59496 0.6494 0.71548 0.0
C385 C 0.58261 0.55036 0.74456 0.0
C386 C 0.5335 0.50941 0.72939 0.0
C387 C 0.49946 0.46741 0.75209 0.0
C388 C 0.51631 0.46718 0.7912 0.0
C389 C 0.56639 0.50873 0.80697 0.0
C390 C 0.59897 0.5513 0.7836 0.0
H391 H 0.51265 0.61417 0.32207 0.0
H392 H 0.67743 0.49252 0.36402 0.0
H393 H 0.72386 0.48169 0.29875 0.0
H394 H 0.46387 0.5472 0.2385 0.0
H395 H 0.45619 0.61153 0.20954 0.0
H396 H 0.44169 0.61494 0.25994 0.0
H397 H 0.54471 0.69442 0.26634 0.0
H398 H 0.55899 0.69178 0.21575 0.0
H399 H 0.63678 0.68164 0.24852 0.0
H400 H 0.73862 0.4731 0.22823 0.0
H401 H 0.73026 0.47599 0.15763 0.0
H402 H 0.56231 0.608 0.16235 0.0
C403 C 0.55959 0.58629 0.31753 0.0
C404 C 0.59162 0.55414 0.3478 0.0
C405 C 0.65281 0.51792 0.34108 0.0
C406 C 0.67934 0.51139 0.30416 0.0
C407 C 0.64524 0.54257 0.27466 0.0
C408 C 0.5879 0.58037 0.28106 0.0
C409 C 0.55935 0.60745 0.24432 0.0
C410 C 0.47532 0.59445 0.23771 0.0
C411 C 0.57597 0.67269 0.2437 0.0
C412 C 0.60663 0.57653 0.21607 0.0
C413 C 0.65619 0.53952 0.23412 0.0
C414 C 0.70149 0.50295 0.21378 0.0
C415 C 0.69623 0.50459 0.17392 0.0
C416 C 0.64646 0.54268 0.15522 0.0
C417 C 0.60163 0.57931 0.17641 0.0
loop_
_geom_bond_atom_site_label_1
_geom_bond_atom_site_label_2
_geom_bond_distance
_geom_bond_site_symmetry_2
_ccdc_geom_bond_type
O0 Mg1 1.990 . S
O0 C14 1.253 . S
Mg1 O0 1.990 . S
Mg1 O4 2.180 . S
Mg1 O5 2.117 . S
Mg1 O19 2.030 1_545 S
O2 Mg3 2.072 . S
O2 C14 1.260 . S
Mg3 O2 2.072 . S
Mg3 O4 2.099 . S
Mg3 O6 2.079 1_554 S
Mg3 O7 2.072 . S
Mg3 O9 2.099 1_444 S
Mg3 O20 2.079 1_544 S
O4 Mg1 2.180 . S
O4 Mg3 2.099 . S
O4 C15 1.279 . S
O5 Mg1 2.117 . S
O5 C15 1.250 . S
O6 Mg3 2.079 1_556 S
O6 C16 1.264 . S
O7 Mg3 2.072 . S
O7 C17 1.260 1_454 S
Mg8 O9 2.180 1_545 S
Mg8 O10 2.030 . S
Mg8 O11 1.990 . S
Mg8 O12 2.117 1_545 S
O9 Mg3 2.099 1_666 S
O9 Mg8 2.180 1_565 S
O9 C18 1.279 1_556 S
O10 Mg8 2.030 . S
O10 C16 1.248 1_655 S
O11 Mg8 1.990 . S
O11 C17 1.253 . S
O12 Mg8 2.117 1_565 S
O12 C18 1.250 1_556 S
C13 O19 1.248 . S
C13 O20 1.264 1_554 S
C14 O0 1.253 . S
C14 O2 1.260 . S
C15 O4 1.279 . S
C15 O5 1.250 . S
C16 O6 1.264 . S
C16 O10 1.248 1_455 S
C17 O7 1.260 1_656 S
C17 O11 1.253 . S
C18 O9 1.279 1_554 S
C18 O12 1.250 1_554 S
O19 Mg1 2.030 1_565 S
O19 C13 1.248 . S
O20 Mg3 2.079 1_566 S
O20 C13 1.264 1_556 S
O21 Mg22 1.990 . S
O21 C35 1.253 . S
Mg22 O21 1.990 . S
Mg22 O25 2.180 . S
Mg22 O26 2.117 . S
Mg22 O40 2.030 . S
O23 Mg24 2.072 . S
O23 C35 1.260 . S
Mg24 O23 2.072 . S
Mg24 O25 2.099 . S
Mg24 O27 2.079 . S
Mg24 O28 2.072 . S
Mg24 O30 2.099 . S
Mg24 O41 2.079 . S
O25 Mg22 2.180 . S
O25 Mg24 2.099 . S
O25 C36 1.279 . S
O26 Mg22 2.117 . S
O26 C36 1.250 . S
O27 Mg24 2.079 . S
O27 C37 1.264 . S
O28 Mg24 2.072 . S
O28 C38 1.260 . S
Mg29 O30 2.180 . S
Mg29 O31 2.030 . S
Mg29 O32 1.990 . S
Mg29 O33 2.117 . S
O30 Mg24 2.099 . S
O30 Mg29 2.180 . S
O30 C39 1.279 . S
O31 Mg29 2.030 . S
O31 C37 1.248 . S
O32 Mg29 1.990 . S
O32 C38 1.253 . S
O33 Mg29 2.117 . S
O33 C39 1.250 . S
C34 O40 1.248 . S
C34 O41 1.264 . S
C35 O21 1.253 . S
C35 O23 1.260 . S
C36 O25 1.279 . S
C36 O26 1.250 . S
C37 O27 1.264 . S
C37 O31 1.248 . S
C38 O28 1.260 . S
C38 O32 1.253 . S
C39 O30 1.279 . S
C39 O33 1.250 . S
O40 Mg22 2.030 . S
O40 C34 1.248 . S
O41 Mg24 2.079 . S
O41 C34 1.264 . S
H42 C49 0.929 . S
H43 C52 0.930 1_655 S
H44 C54 0.929 . S
H45 C46 0.969 . S
C46 H45 0.969 . S
C46 O47 1.550 1_655 S
C46 H48 0.973 . S
O47 C46 1.550 1_455 S
O47 C53 1.412 . S
H48 C46 0.973 . S
C49 H42 0.929 . S
C49 C50 1.400 . S
C49 C51 1.364 . S
C50 C49 1.400 . S
C50 C54 1.377 . S
C51 C49 1.364 . S
C51 C52 1.374 1_565 S
C52 H43 0.930 1_455 S
C52 C51 1.374 1_545 S
C52 C53 1.383 . S
C53 O47 1.412 . S
C53 C52 1.383 . S
C53 C54 1.394 1_545 S
C54 H44 0.929 . S
C54 C50 1.377 . S
C54 C53 1.394 1_565 S
H55 C62 0.929 . S
H56 C65 0.930 . S
H57 C67 0.929 . S
H58 C59 0.969 . S
C59 H58 0.969 . S
C59 O60 1.550 . S
C59 H61 0.973 1_545 S
O60 C59 1.550 . S
O60 C66 1.412 . S
H61 C59 0.973 1_565 S
C62 H55 0.929 . S
C62 C63 1.400 . S
C62 C64 1.364 . S
C63 C62 1.400 . S
C63 C67 1.377 . S
C64 C62 1.364 . S
C64 C65 1.374 1_455 S
C65 H56 0.930 . S
C65 C64 1.374 1_655 S
C65 C66 1.383 . S
C66 O60 1.412 . S
C66 C65 1.383 . S
C66 C67 1.394 1_655 S
C67 H57 0.929 . S
C67 C63 1.377 . S
C67 C66 1.394 1_455 S
H68 C75 0.929 . S
H69 C78 0.930 . S
H70 C80 0.929 1_554 S
H71 C72 0.969 . S
C72 H71 0.969 . S
C72 O73 1.550 . S
C72 H74 0.973 . S
O73 C72 1.550 . S
O73 C79 1.412 . S
H74 C72 0.973 . S
C75 H68 0.929 . S
C75 C76 1.400 . S
C75 C77 1.364 . S
C76 C75 1.400 . S
C76 C80 1.377 . S
C77 C75 1.364 . S
C77 C78 1.374 . S
C78 H69 0.930 . S
C78 C77 1.374 . S
C78 C79 1.383 . S
C79 O73 1.412 . S
C79 C78 1.383 . S
C79 C80 1.394 . S
C80 H70 0.929 1_556 S
C80 C76 1.377 . S
C80 C79 1.394 . S
H81 C88 0.929 . S
H82 C91 0.930 . S
H83 C93 0.929 . S
H84 C85 0.969 . S
C85 H84 0.969 . S
C85 O86 1.550 . S
C85 H87 0.973 . S
O86 C85 1.550 . S
O86 C92 1.412 . S
H87 C85 0.973 . S
C88 H81 0.929 . S
C88 C89 1.400 . S
C88 C90 1.364 . S
C89 C88 1.400 . S
C89 C93 1.377 . S
C90 C88 1.364 . S
C90 C91 1.374 . S
C91 H82 0.930 . S
C91 C90 1.374 . S
C91 C92 1.383 . S
C92 O86 1.412 . S
C92 C91 1.383 . S
C92 C93 1.394 . S
C93 H83 0.929 . S
C93 C89 1.377 . S
C93 C92 1.394 . S
H94 C106 0.930 . S
H95 C108 0.930 . S
H96 C109 0.930 . S
H97 C113 0.959 . S
H98 C113 0.959 . S
H99 C113 0.961 . S
H100 C114 0.960 . S
H101 C114 0.961 . S
H102 C114 0.959 . S
H103 C117 0.929 . S
H104 C118 0.931 . S
H105 C120 0.930 . S
C106 H94 0.930 . S
C106 C107 1.399 . S
C106 C111 1.399 . S
C107 C106 1.399 . S
C107 C108 1.376 1_554 S
C108 H95 0.930 . S
C108 C107 1.376 1_556 S
C108 C109 1.388 . S
C109 H96 0.930 . S
C109 C108 1.388 . S
C109 C110 1.390 . S
C110 C109 1.390 . S
C110 C111 1.394 1_556 S
C110 C116 1.463 1_556 S
C111 C106 1.399 . S
C111 C110 1.394 1_554 S
C111 C112 1.516 . S
C112 C111 1.516 . S
C112 C113 1.502 . S
C112 C114 1.561 . S
C112 C115 1.526 . S
C113 H97 0.959 . S
C113 H98 0.959 . S
C113 H99 0.961 . S
C113 C112 1.502 . S
C114 H100 0.960 . S
C114 H101 0.961 . S
C114 H102 0.959 . S
C114 C112 1.561 . S
C115 C112 1.526 . S
C115 C116 1.417 . S
C115 C120 1.390 . S
C116 C110 1.463 1_554 S
C116 C115 1.417 . S
C116 C117 1.384 1_554 S
C117 H103 0.929 . S
C117 C116 1.384 1_556 S
C117 C118 1.385 . S
C118 H104 0.931 . S
C118 C117 1.385 . S
C118 C119 1.389 1_556 S
C119 C118 1.389 1_554 S
C119 C120 1.387 . S
C120 H105 0.930 . S
C120 C115 1.390 . S
C120 C119 1.387 . S
H121 C133 0.930 . S
H122 C135 0.930 . S
H123 C136 0.930 . S
H124 C140 0.959 . S
H125 C140 0.959 . S
H126 C140 0.961 . S
H127 C141 0.960 . S
H128 C141 0.961 . S
H129 C141 0.959 . S
H130 C144 0.929 . S
H131 C145 0.931 . S
H132 C147 0.930 . S
C133 H121 0.930 . S
C133 C134 1.399 1_556 S
C133 C138 1.399 . S
C134 C133 1.399 1_554 S
C134 C135 1.376 . S
C135 H122 0.930 . S
C135 C134 1.376 . S
C135 C136 1.388 . S
C136 H123 0.930 . S
C136 C135 1.388 . S
C136 C137 1.390 . S
C137 C136 1.390 . S
C137 C138 1.394 1_554 S
C137 C143 1.465 . S
C138 C133 1.399 . S
C138 C137 1.394 1_556 S
C138 C139 1.516 . S
C139 C138 1.516 . S
C139 C140 1.502 . S
C139 C141 1.561 . S
C139 C142 1.526 . S
C140 H124 0.959 . S
C140 H125 0.959 . S
C140 H126 0.961 . S
C140 C139 1.502 . S
C141 H127 0.960 . S
C141 H128 0.961 . S
C141 H129 0.959 . S
C141 C139 1.561 . S
C142 C139 1.526 . S
C142 C143 1.396 1_556 S
C142 C147 1.390 . S
C143 C137 1.465 . S
C143 C142 1.396 1_554 S
C143 C144 1.399 . S
C144 H130 0.929 . S
C144 C143 1.399 . S
C144 C145 1.385 . S
C145 H131 0.931 . S
C145 C144 1.385 . S
C145 C146 1.389 1_554 S
C146 C145 1.389 1_556 S
C146 C147 1.387 . S
C147 H132 0.930 . S
C147 C142 1.390 . S
C147 C146 1.387 . S
H148 C160 0.930 . S
H149 C162 0.930 . S
H150 C163 0.930 . S
H151 C167 0.959 . S
H152 C167 0.959 . S
H153 C167 0.961 . S
H154 C168 0.960 . S
H155 C168 0.961 . S
H156 C168 0.959 . S
H157 C171 0.929 . S
H158 C172 0.931 1_556 S
H159 C174 0.930 . S
C160 H148 0.930 . S
C160 C161 1.399 . S
C160 C165 1.399 . S
C161 C160 1.399 . S
C161 C162 1.376 1_554 S
C162 H149 0.930 . S
C162 C161 1.376 1_556 S
C162 C163 1.388 . S
C163 H150 0.930 . S
C163 C162 1.388 . S
C163 C164 1.390 1_556 S
C164 C163 1.390 1_554 S
C164 C165 1.394 . S
C164 C170 1.465 . S
C165 C160 1.399 . S
C165 C164 1.394 . S
C165 C166 1.516 . S
C166 C165 1.516 . S
C166 C167 1.502 . S
C166 C168 1.561 . S
C166 C169 1.526 . S
C167 H151 0.959 . S
C167 H152 0.959 . S
C167 H153 0.961 . S
C167 C166 1.502 . S
C168 H154 0.960 . S
C168 H155 0.961 . S
C168 H156 0.959 . S
C168 C166 1.561 . S
C169 C166 1.526 . S
C169 C170 1.396 . S
C169 C174 1.390 . S
C170 C164 1.465 . S
C170 C169 1.396 . S
C170 C171 1.399 1_554 S
C171 H157 0.929 . S
C171 C170 1.399 1_556 S
C171 C172 1.385 1_556 S
C172 H158 0.931 1_554 S
C172 C171 1.385 1_554 S
C172 C173 1.389 . S
C173 C172 1.389 . S
C173 C174 1.387 . S
C174 H159 0.930 . S
C174 C169 1.390 . S
C174 C173 1.387 . S
H175 C187 0.930 . S
H176 C189 0.930 . S
H177 C190 0.930 . S
H178 C194 0.959 . S
H179 C194 0.959 . S
H180 C194 0.961 . S
H181 C195 0.960 . S
H182 C195 0.961 . S
H183 C195 0.959 . S
H184 C198 0.929 . S
H185 C199 0.931 . S
H186 C201 0.930 1_554 S
C187 H175 0.930 . S
C187 C188 1.399 1_554 S
C187 C192 1.399 . S
C188 C187 1.399 1_556 S
C188 C189 1.376 . S
C189 H176 0.930 . S
C189 C188 1.376 . S
C189 C190 1.388 . S
C190 H177 0.930 . S
C190 C189 1.388 . S
C190 C191 1.390 . S
C191 C190 1.390 . S
C191 C192 1.394 1_556 S
C191 C197 1.465 . S
C192 C187 1.399 . S
C192 C191 1.394 1_554 S
C192 C193 1.516 . S
C193 C192 1.516 . S
C193 C194 1.502 . S
C193 C195 1.561 . S
C193 C196 1.526 1_554 S
C194 H178 0.959 . S
C194 H179 0.959 . S
C194 H180 0.961 . S
C194 C193 1.502 . S
C195 H181 0.960 . S
C195 H182 0.961 . S
C195 H183 0.959 . S
C195 C193 1.561 . S
C196 C193 1.526 1_556 S
C196 C197 1.396 . S
C196 C201 1.390 . S
C197 C191 1.465 . S
C197 C196 1.396 . S
C197 C198 1.399 . S
C198 H184 0.929 . S
C198 C197 1.399 . S
C198 C199 1.385 . S
C199 H185 0.931 . S
C199 C198 1.385 . S
C199 C200 1.389 . S
C200 C199 1.389 . S
C200 C201 1.387 . S
C201 H186 0.930 1_556 S
C201 C196 1.390 . S
C201 C200 1.387 . S
H202 C214 0.930 . S
H203 C216 0.930 . S
H204 C217 0.930 . S
H205 C221 0.959 . S
H206 C221 0.959 . S
H207 C221 0.961 . S
H208 C222 0.960 . S
H209 C222 0.961 . S
H210 C222 0.959 . S
H211 C225 0.929 . S
H212 C226 0.931 . S
H213 C228 0.930 . S
C214 H202 0.930 . S
C214 C215 1.399 . S
C214 C219 1.399 . S
C215 C214 1.399 . S
C215 C216 1.376 . S
C216 H203 0.930 . S
C216 C215 1.376 . S
C216 C217 1.388 . S
C217 H204 0.930 . S
C217 C216 1.388 . S
C217 C218 1.390 . S
C218 C217 1.390 . S
C218 C219 1.394 . S
C218 C224 1.465 . S
C219 C214 1.399 . S
C219 C218 1.394 . S
C219 C220 1.516 . S
C220 C219 1.516 . S
C220 C221 1.502 . S
C220 C222 1.561 . S
C220 C223 1.526 . S
C221 H205 0.959 . S
C221 H206 0.959 . S
C221 H207 0.961 . S
C221 C220 1.502 . S
C222 H208 0.960 . S
C222 H209 0.961 . S
C222 H210 0.959 . S
C222 C220 1.561 . S
C223 C220 1.526 . S
C223 C224 1.396 . S
C223 C228 1.390 . S
C224 C218 1.465 . S
C224 C223 1.396 . S
C224 C225 1.399 . S
C225 H211 0.929 . S
C225 C224 1.399 . S
C225 C226 1.385 . S
C226 H212 0.931 . S
C226 C225 1.385 . S
C226 C227 1.389 . S
C227 C226 1.389 . S
C227 C228 1.387 . S
C228 H213 0.930 . S
C228 C223 1.390 . S
C228 C227 1.387 . S
H229 C241 0.930 . S
H230 C243 0.930 . S
H231 C244 0.930 . S
H232 C248 0.959 . S
H233 C248 0.959 . S
H234 C248 0.961 . S
H235 C249 0.960 . S
H236 C249 0.961 . S
H237 C249 0.959 . S
H238 C252 0.929 . S
H239 C253 0.931 . S
H240 C255 0.930 . S
C241 H229 0.930 . S
C241 C242 1.399 . S
C241 C246 1.399 . S
C242 C241 1.399 . S
C242 C243 1.376 . S
C243 H230 0.930 . S
C243 C242 1.376 . S
C243 C244 1.388 . S
C244 H231 0.930 . S
C244 C243 1.388 . S
C244 C245 1.390 . S
C245 C244 1.390 . S
C245 C246 1.394 . S
C245 C251 1.465 . S
C246 C241 1.399 . S
C246 C245 1.394 . S
C246 C247 1.516 . S
C247 C246 1.516 . S
C247 C248 1.502 . S
C247 C249 1.561 . S
C247 C250 1.526 . S
C248 H232 0.959 . S
C248 H233 0.959 . S
C248 H234 0.961 . S
C248 C247 1.502 . S
C249 H235 0.960 . S
C249 H236 0.961 . S
C249 H237 0.959 . S
C249 C247 1.561 . S
C250 C247 1.526 . S
C250 C251 1.396 . S
C250 C255 1.390 . S
C251 C245 1.465 . S
C251 C250 1.396 . S
C251 C252 1.399 . S
C252 H238 0.929 . S
C252 C251 1.399 . S
C252 C253 1.385 . S
C253 H239 0.931 . S
C253 C252 1.385 . S
C253 C254 1.389 . S
C254 C253 1.389 . S
C254 C255 1.387 . S
C255 H240 0.930 . S
C255 C250 1.390 . S
C255 C254 1.387 . S
H256 C268 0.930 . S
H257 C270 0.930 . S
H258 C271 0.930 . S
H259 C275 0.959 . S
H260 C275 0.959 . S
H261 C275 0.961 . S
H262 C276 0.960 . S
H263 C276 0.961 . S
H264 C276 0.959 . S
H265 C279 0.929 . S
H266 C280 0.931 . S
H267 C282 0.930 . S
C268 H256 0.930 . S
C268 C269 1.399 . S
C268 C273 1.399 . S
C269 C268 1.399 . S
C269 C270 1.376 . S
C270 H257 0.930 . S
C270 C269 1.376 . S
C270 C271 1.388 . S
C271 H258 0.930 . S
C271 C270 1.388 . S
C271 C272 1.390 . S
C272 C271 1.390 . S
C272 C273 1.394 . S
C272 C278 1.465 . S
C273 C268 1.399 . S
C273 C272 1.394 . S
C273 C274 1.516 . S
C274 C273 1.516 . S
C274 C275 1.502 . S
C274 C276 1.561 . S
C274 C277 1.526 . S
C275 H259 0.959 . S
C275 H260 0.959 . S
C275 H261 0.961 . S
C275 C274 1.502 . S
C276 H262 0.960 . S
C276 H263 0.961 . S
C276 H264 0.959 . S
C276 C274 1.561 . S
C277 C274 1.526 . S
C277 C278 1.396 . S
C277 C282 1.390 . S
C278 C272 1.465 . S
C278 C277 1.396 . S
C278 C279 1.399 . S
C279 H265 0.929 . S
C279 C278 1.399 . S
C279 C280 1.385 . S
C280 H266 0.931 . S
C280 C279 1.385 . S
C280 C281 1.389 . S
C281 C280 1.389 . S
C281 C282 1.387 . S
C282 H267 0.930 . S
C282 C277 1.390 . S
C282 C281 1.387 . S
H283 C295 0.930 . S
H284 C297 0.930 . S
H285 C298 0.930 . S
H286 C302 0.959 . S
H287 C302 0.959 . S
H288 C302 0.961 . S
H289 C303 0.960 . S
H290 C303 0.961 . S
H291 C303 0.959 . S
H292 C306 0.929 . S
H293 C307 0.931 . S
H294 C309 0.930 . S
C295 H283 0.930 . S
C295 C296 1.399 . S
C295 C300 1.399 . S
C296 C295 1.399 . S
C296 C297 1.376 . S
C297 H284 0.930 . S
C297 C296 1.376 . S
C297 C298 1.388 . S
C298 H285 0.930 . S
C298 C297 1.388 . S
C298 C299 1.390 . S
C299 C298 1.390 . S
C299 C300 1.394 . S
C299 C305 1.465 . S
C300 C295 1.399 . S
C300 C299 1.394 . S
C300 C301 1.516 . S
C301 C300 1.516 . S
C301 C302 1.502 . S
C301 C303 1.561 . S
C301 C304 1.526 . S
C302 H286 0.959 . S
C302 H287 0.959 . S
C302 H288 0.961 . S
C302 C301 1.502 . S
C303 H289 0.960 . S
C303 H290 0.961 . S
C303 H291 0.959 . S
C303 C301 1.561 . S
C304 C301 1.526 . S
C304 C305 1.396 . S
C304 C309 1.390 . S
C305 C299 1.465 . S
C305 C304 1.396 . S
C305 C306 1.399 . S
C306 H292 0.929 . S
C306 C305 1.399 . S
C306 C307 1.385 . S
C307 H293 0.931 . S
C307 C306 1.385 . S
C307 C308 1.389 . S
C308 C307 1.389 . S
C308 C309 1.387 . S
C309 H294 0.930 . S
C309 C304 1.390 . S
C309 C308 1.387 . S
H310 C322 0.930 . S
H311 C324 0.930 . S
H312 C325 0.930 1_655 S
H313 C329 0.959 . S
H314 C329 0.959 . S
H315 C329 0.961 . S
H316 C330 0.960 . S
H317 C330 0.961 . S
H318 C330 0.956 1_655 S
H319 C333 0.929 1_655 S
H320 C334 0.932 . S
H321 C336 0.930 . S
C322 H310 0.930 . S
C322 C323 1.399 . S
C322 C327 1.399 . S
C323 C322 1.399 . S
C323 C324 1.376 1_545 S
C324 H311 0.930 . S
C324 C323 1.376 1_565 S
C324 C325 1.388 . S
C325 H312 0.930 1_455 S
C325 C324 1.388 . S
C325 C326 1.390 . S
C326 C325 1.390 . S
C326 C327 1.394 1_565 S
C326 C332 1.465 . S
C327 C322 1.399 . S
C327 C326 1.394 1_545 S
C327 C328 1.516 . S
C328 C327 1.516 . S
C328 C329 1.502 . S
C328 C330 1.561 . S
C328 C331 1.526 . S
C329 H313 0.959 . S
C329 H314 0.959 . S
C329 H315 0.961 . S
C329 C328 1.502 . S
C330 H316 0.960 . S
C330 H317 0.961 . S
C330 H318 0.956 1_455 S
C330 C328 1.561 . S
C331 C328 1.526 . S
C331 C332 1.396 1_545 S
C331 C336 1.390 . S
C332 C326 1.465 . S
C332 C331 1.396 1_565 S
C332 C333 1.399 . S
C333 H319 0.929 1_455 S
C333 C332 1.399 . S
C333 C334 1.385 . S
C334 H320 0.932 . S
C334 C333 1.385 . S
C334 C335 1.389 . S
C335 C334 1.389 . S
C335 C336 1.387 1_565 S
C336 H321 0.930 . S
C336 C331 1.390 . S
C336 C335 1.387 1_545 S
H337 C349 0.930 . S
H338 C351 0.930 1_565 S
H339 C352 0.930 1_565 S
H340 C356 0.959 . S
H341 C356 0.959 . S
H342 C356 0.961 . S
H343 C357 0.960 . S
H344 C357 0.961 . S
H345 C357 0.959 . S
H346 C360 0.929 1_565 S
H347 C361 0.931 . S
H348 C363 0.930 . S
C349 H337 0.930 . S
C349 C350 1.399 . S
C349 C354 1.399 . S
C350 C349 1.399 . S
C350 C351 1.376 . S
C351 H338 0.930 1_545 S
C351 C350 1.376 . S
C351 C352 1.388 . S
C352 H339 0.930 1_545 S
C352 C351 1.388 . S
C352 C353 1.390 . S
C353 C352 1.390 . S
C353 C354 1.394 . S
C353 C359 1.465 . S
C354 C349 1.399 . S
C354 C353 1.394 . S
C354 C355 1.516 . S
C355 C354 1.516 . S
C355 C356 1.502 1_455 S
C355 C357 1.561 . S
C355 C358 1.526 . S
C356 H340 0.959 . S
C356 H341 0.959 . S
C356 H342 0.961 . S
C356 C355 1.502 1_655 S
C357 H343 0.960 . S
C357 H344 0.961 . S
C357 H345 0.959 . S
C357 C355 1.561 . S
C358 C355 1.526 . S
C358 C359 1.396 . S
C358 C363 1.390 . S
C359 C353 1.465 . S
C359 C358 1.396 . S
C359 C360 1.399 . S
C360 H346 0.929 1_545 S
C360 C359 1.399 . S
C360 C361 1.385 . S
C361 H347 0.931 . S
C361 C360 1.385 . S
C361 C362 1.389 . S
C362 C361 1.389 . S
C362 C363 1.387 . S
C363 H348 0.930 . S
C363 C358 1.390 . S
C363 C362 1.387 . S
H364 C376 0.930 . S
H365 C378 0.930 . S
H366 C379 0.930 . S
H367 C383 0.959 . S
H368 C383 0.959 . S
H369 C383 0.961 . S
H370 C384 0.960 . S
H371 C384 0.961 . S
H372 C384 0.959 . S
H373 C387 0.929 . S
H374 C388 0.931 . S
H375 C390 0.930 . S
C376 H364 0.930 . S
C376 C377 1.399 . S
C376 C381 1.399 . S
C377 C376 1.399 . S
C377 C378 1.376 . S
C378 H365 0.930 . S
C378 C377 1.376 . S
C378 C379 1.388 . S
C379 H366 0.930 . S
C379 C378 1.388 . S
C379 C380 1.390 . S
C380 C379 1.390 . S
C380 C381 1.394 . S
C380 C386 1.465 . S
C381 C376 1.399 . S
C381 C380 1.394 . S
C381 C382 1.516 . S
C382 C381 1.516 . S
C382 C383 1.502 . S
C382 C384 1.561 . S
C382 C385 1.526 . S
C383 H367 0.959 . S
C383 H368 0.959 . S
C383 H369 0.961 . S
C383 C382 1.502 . S
C384 H370 0.960 . S
C384 H371 0.961 . S
C384 H372 0.959 . S
C384 C382 1.561 . S
C385 C382 1.526 . S
C385 C386 1.396 . S
C385 C390 1.390 . S
C386 C380 1.465 . S
C386 C385 1.396 . S
C386 C387 1.399 . S
C387 H373 0.929 . S
C387 C386 1.399 . S
C387 C388 1.385 . S
C388 H374 0.931 . S
C388 C387 1.385 . S
C388 C389 1.389 . S
C389 C388 1.389 . S
C389 C390 1.387 . S
C390 H375 0.930 . S
C390 C385 1.390 . S
C390 C389 1.387 . S
H391 C403 0.930 . S
H392 C405 0.930 . S
H393 C406 0.930 . S
H394 C410 0.959 . S
H395 C410 0.959 . S
H396 C410 0.961 . S
H397 C411 0.960 . S
H398 C411 0.961 . S
H399 C411 0.959 . S
H400 C414 0.929 . S
H401 C415 0.931 . S
H402 C417 0.930 . S
C403 H391 0.930 . S
C403 C404 1.399 . S
C403 C408 1.399 . S
C404 C403 1.399 . S
C404 C405 1.376 . S
C405 H392 0.930 . S
C405 C404 1.376 . S
C405 C406 1.388 . S
C406 H393 0.930 . S
C406 C405 1.388 . S
C406 C407 1.390 . S
C407 C406 1.390 . S
C407 C408 1.394 . S
C407 C413 1.465 . S
C408 C403 1.399 . S
C408 C407 1.394 . S
C408 C409 1.516 . S
C409 C408 1.516 . S
C409 C410 1.502 . S
C409 C411 1.561 . S
C409 C412 1.526 . S
C410 H394 0.959 . S
C410 H395 0.959 . S
C410 H396 0.961 . S
C410 C409 1.502 . S
C411 H397 0.960 . S
C411 H398 0.961 . S
C411 H399 0.959 . S
C411 C409 1.561 . S
C412 C409 1.526 . S
C412 C413 1.396 . S
C412 C417 1.390 . S
C413 C407 1.465 . S
C413 C412 1.396 . S
C413 C414 1.399 . S
C414 H400 0.929 . S
C414 C413 1.399 . S
C414 C415 1.385 . S
C415 H401 0.931 . S
C415 C414 1.385 . S
C415 C416 1.389 . S
C416 C415 1.389 . S
C416 C417 1.387 . S
C417 H402 0.930 . S
C417 C412 1.390 . S
C417 C416 1.387 . S
C119 C85 1.367 . S
C107 C15 1.253 . S
C134 C13 1.431 . S
C146 C72 1.398 . S
C161 C18 1.245 . S
C173 C89 1.555 . S
C188 C17 1.404 . S
C200 C76 1.450 . S
C215 C36 1.242 . S
C227 C59 1.249 1_565 S
C242 C34 1.472 . S
C254 C46 1.281 . S
C281 C63 1.556 . S
C269 C39 1.247 . S
C308 C50 1.449 . S
C296 C38 1.431 . S
C323 C14 1.584 . S
C335 C51 1.610 . S
C350 C16 1.427 . S
C362 C64 1.458 . S
C389 C77 1.610 . S
C377 C35 1.584 . S
C404 C37 1.428 . S
C416 C90 1.457 . S
