# Generated by pormake.
# Topology ctn, (3,4)-cn, num edge types: 1
# Building blocks:
#     Node 0, Type 0, BuildingBlock: CUQRIR_clean_linker_1, # of connection points: 3
#     Node 1, Type 0, BuildingBlock: CUQRIR_clean_linker_1, # of connection points: 3
#     Node 2, Type 0, BuildingBlock: CUQRIR_clean_linker_1, # of connection points: 3
#     Node 3, Type 0, BuildingBlock: CUQRIR_clean_linker_1, # of connection points: 3
#     Node 4, Type 0, BuildingBlock: CUQRIR_clean_linker_1, # of connection points: 3
#     Node 5, Type 0, BuildingBlock: CUQRIR_clean_linker_1, # of connection points: 3
#     Node 6, Type 0, BuildingBlock: CUQRIR_clean_linker_1, # of connection points: 3
#     Node 7, Type 0, BuildingBlock: CUQRIR_clean_linker_1, # of connection points: 3
#     Node 8, Type 0, BuildingBlock: CUQRIR_clean_linker_1, # of connection points: 3
#     Node 9, Type 0, BuildingBlock: CUQRIR_clean_linker_1, # of connection points: 3
#     Node 10, Type 0, BuildingBlock: CUQRIR_clean_linker_1, # of connection points: 3
#     Node 11, Type 0, BuildingBlock: CUQRIR_clean_linker_1, # of connection points: 3
#     Node 12, Type 0, BuildingBlock: CUQRIR_clean_linker_1, # of connection points: 3
#     Node 13, Type 0, BuildingBlock: CUQRIR_clean_linker_1, # of connection points: 3
#     Node 14, Type 0, BuildingBlock: CUQRIR_clean_linker_1, # of connection points: 3
#     Node 15, Type 0, BuildingBlock: CUQRIR_clean_linker_1, # of connection points: 3
#     Node 16, Type 1, BuildingBlock: UXUYUI_clean_sbu_0, # of connection points: 4
#     Node 17, Type 1, BuildingBlock: UXUYUI_clean_sbu_0, # of connection points: 4
#     Node 18, Type 1, BuildingBlock: UXUYUI_clean_sbu_0, # of connection points: 4
#     Node 19, Type 1, BuildingBlock: UXUYUI_clean_sbu_0, # of connection points: 4
#     Node 20, Type 1, BuildingBlock: UXUYUI_clean_sbu_0, # of connection points: 4
#     Node 21, Type 1, BuildingBlock: UXUYUI_clean_sbu_0, # of connection points: 4
#     Node 22, Type 1, BuildingBlock: UXUYUI_clean_sbu_0, # of connection points: 4
#     Node 23, Type 1, BuildingBlock: UXUYUI_clean_sbu_0, # of connection points: 4
#     Node 24, Type 1, BuildingBlock: UXUYUI_clean_sbu_0, # of connection points: 4
#     Node 25, Type 1, BuildingBlock: UXUYUI_clean_sbu_0, # of connection points: 4
#     Node 26, Type 1, BuildingBlock: UXUYUI_clean_sbu_0, # of connection points: 4
#     Node 27, Type 1, BuildingBlock: UXUYUI_clean_sbu_0, # of connection points: 4
#     Edge 28, Type (0, 1), BuildingBlock: UVAHIK_clean_linker_0, # of connection points: 2
#     Edge 29, Type (0, 1), BuildingBlock: UVAHIK_clean_linker_0, # of connection points: 2
#     Edge 30, Type (0, 1), BuildingBlock: UVAHIK_clean_linker_0, # of connection points: 2
#     Edge 31, Type (0, 1), BuildingBlock: UVAHIK_clean_linker_0, # of connection points: 2
#     Edge 32, Type (0, 1), BuildingBlock: UVAHIK_clean_linker_0, # of connection points: 2
#     Edge 33, Type (0, 1), BuildingBlock: UVAHIK_clean_linker_0, # of connection points: 2
#     Edge 34, Type (0, 1), BuildingBlock: UVAHIK_clean_linker_0, # of connection points: 2
#     Edge 35, Type (0, 1), BuildingBlock: UVAHIK_clean_linker_0, # of connection points: 2
#     Edge 36, Type (0, 1), BuildingBlock: UVAHIK_clean_linker_0, # of connection points: 2
#     Edge 37, Type (0, 1), BuildingBlock: UVAHIK_clean_linker_0, # of connection points: 2
#     Edge 38, Type (0, 1), BuildingBlock: UVAHIK_clean_linker_0, # of connection points: 2
#     Edge 39, Type (0, 1), BuildingBlock: UVAHIK_clean_linker_0, # of connection points: 2
#     Edge 40, Type (0, 1), BuildingBlock: UVAHIK_clean_linker_0, # of connection points: 2
#     Edge 41, Type (0, 1), BuildingBlock: UVAHIK_clean_linker_0, # of connection points: 2
#     Edge 42, Type (0, 1), BuildingBlock: UVAHIK_clean_linker_0, # of connection points: 2
#     Edge 43, Type (0, 1), BuildingBlock: UVAHIK_clean_linker_0, # of connection points: 2
#     Edge 44, Type (0, 1), BuildingBlock: UVAHIK_clean_linker_0, # of connection points: 2
#     Edge 45, Type (0, 1), BuildingBlock: UVAHIK_clean_linker_0, # of connection points: 2
#     Edge 46, Type (0, 1), BuildingBlock: UVAHIK_clean_linker_0, # of connection points: 2
#     Edge 47, Type (0, 1), BuildingBlock: UVAHIK_clean_linker_0, # of connection points: 2
#     Edge 48, Type (0, 1), BuildingBlock: UVAHIK_clean_linker_0, # of connection points: 2
#     Edge 49, Type (0, 1), BuildingBlock: UVAHIK_clean_linker_0, # of connection points: 2
#     Edge 50, Type (0, 1), BuildingBlock: UVAHIK_clean_linker_0, # of connection points: 2
#     Edge 51, Type (0, 1), BuildingBlock: UVAHIK_clean_linker_0, # of connection points: 2
#     Edge 52, Type (0, 1), BuildingBlock: UVAHIK_clean_linker_0, # of connection points: 2
#     Edge 53, Type (0, 1), BuildingBlock: UVAHIK_clean_linker_0, # of connection points: 2
#     Edge 54, Type (0, 1), BuildingBlock: UVAHIK_clean_linker_0, # of connection points: 2
#     Edge 55, Type (0, 1), BuildingBlock: UVAHIK_clean_linker_0, # of connection points: 2
#     Edge 56, Type (0, 1), BuildingBlock: UVAHIK_clean_linker_0, # of connection points: 2
#     Edge 57, Type (0, 1), BuildingBlock: UVAHIK_clean_linker_0, # of connection points: 2
#     Edge 58, Type (0, 1), BuildingBlock: UVAHIK_clean_linker_0, # of connection points: 2
#     Edge 59, Type (0, 1), BuildingBlock: UVAHIK_clean_linker_0, # of connection points: 2
#     Edge 60, Type (0, 1), BuildingBlock: UVAHIK_clean_linker_0, # of connection points: 2
#     Edge 61, Type (0, 1), BuildingBlock: UVAHIK_clean_linker_0, # of connection points: 2
#     Edge 62, Type (0, 1), BuildingBlock: UVAHIK_clean_linker_0, # of connection points: 2
#     Edge 63, Type (0, 1), BuildingBlock: UVAHIK_clean_linker_0, # of connection points: 2
#     Edge 64, Type (0, 1), BuildingBlock: UVAHIK_clean_linker_0, # of connection points: 2
#     Edge 65, Type (0, 1), BuildingBlock: UVAHIK_clean_linker_0, # of connection points: 2
#     Edge 66, Type (0, 1), BuildingBlock: UVAHIK_clean_linker_0, # of connection points: 2
#     Edge 67, Type (0, 1), BuildingBlock: UVAHIK_clean_linker_0, # of connection points: 2
#     Edge 68, Type (0, 1), BuildingBlock: UVAHIK_clean_linker_0, # of connection points: 2
#     Edge 69, Type (0, 1), BuildingBlock: UVAHIK_clean_linker_0, # of connection points: 2
#     Edge 70, Type (0, 1), BuildingBlock: UVAHIK_clean_linker_0, # of connection points: 2
#     Edge 71, Type (0, 1), BuildingBlock: UVAHIK_clean_linker_0, # of connection points: 2
#     Edge 72, Type (0, 1), BuildingBlock: UVAHIK_clean_linker_0, # of connection points: 2
#     Edge 73, Type (0, 1), BuildingBlock: UVAHIK_clean_linker_0, # of connection points: 2
#     Edge 74, Type (0, 1), BuildingBlock: UVAHIK_clean_linker_0, # of connection points: 2
#     Edge 75, Type (0, 1), BuildingBlock: UVAHIK_clean_linker_0, # of connection points: 2
# Relax obj value: 0.077
# Max RMSD: 0.211
# Mean RMSD: 0.130
data_MOF--net-ctn--node1-UXUYUI_clean_sbu_0--node2-CUQRIR_clean_linker_1--edge1-UVAHIK_clean_linker_0
_symmetry_space_group_name_H-M    P1
_symmetry_Int_Tables_number       1
_symmetry_cell_setting            triclinic
loop_
_symmetry_equiv_pos_as_xyz
'x, y, z'
_cell_length_a     82.405083
_cell_length_b     77.104302
_cell_length_c     78.903789
_cell_angle_alpha  96.444723
_cell_angle_beta   88.880878
_cell_angle_gamma 92.529953
loop_
_atom_site_label
_atom_site_type_symbol
_atom_site_fract_x
_atom_site_fract_y
_atom_site_fract_z
_atom_type_partial_charge
C0 C 0.03855 0.01578 0.06745 0.0
N1 N 0.04598 0.02144 0.05348 0.0
N2 N 0.02352 0.02216 0.06965 0.0
C3 C 0.0462 0.00456 0.07924 0.0
C4 C 0.02202 0.03176 0.05647 0.0
N5 N 0.03558 0.03113 0.0465 0.0
C6 C 0.00771 0.04258 0.05384 0.0
H7 H 0.03696 0.9976 0.08665 0.0
H8 H 0.05399 0.01301 0.08837 0.0
H9 H 0.05397 0.99487 0.07193 0.0
H10 H 0.01139 0.05662 0.05657 0.0
H11 H 0.99725 0.0395 0.0622 0.0
H12 H 0.00386 0.0403 0.04036 0.0
C13 C 0.28936 0.72761 0.22404 0.0
N14 N 0.29586 0.71996 0.23685 0.0
N15 N 0.30001 0.73958 0.21839 0.0
C16 C 0.27276 0.72309 0.21673 0.0
C17 C 0.3133 0.73887 0.22804 0.0
N18 N 0.31087 0.72677 0.23915 0.0
C19 C 0.32854 0.75013 0.2267 0.0
H20 H 0.26981 0.70889 0.21648 0.0
H21 H 0.27187 0.72689 0.20366 0.0
H22 H 0.26359 0.73024 0.22492 0.0
H23 H 0.32613 0.76222 0.22095 0.0
H24 H 0.33749 0.7427 0.21845 0.0
H25 H 0.33396 0.75363 0.23946 0.0
C26 C 0.97356 0.48723 0.06792 0.0
N27 N 0.98243 0.47282 0.06802 0.0
N28 N 0.96071 0.48385 0.05743 0.0
C29 C 0.97664 0.50413 0.07911 0.0
C30 C 0.96202 0.46687 0.05122 0.0
N31 N 0.97508 0.46008 0.05782 0.0
C32 C 0.95133 0.45737 0.03761 0.0
H33 H 0.96522 0.5111 0.08185 0.0
H34 H 0.98524 0.51263 0.07245 0.0
H35 H 0.98211 0.50177 0.09134 0.0
H36 H 0.94594 0.46664 0.02975 0.0
H37 H 0.94133 0.45015 0.04378 0.0
H38 H 0.9583 0.44782 0.02914 0.0
C39 C 0.70071 0.76662 0.23484 0.0
N40 N 0.71435 0.77429 0.22869 0.0
N41 N 0.69744 0.7736 0.25103 0.0
C42 C 0.69125 0.75148 0.22547 0.0
C43 C 0.70971 0.78571 0.25451 0.0
N44 N 0.72006 0.78597 0.241 0.0
C45 C 0.71082 0.79833 0.2705 0.0
H46 H 0.682 0.75658 0.21751 0.0
H47 H 0.68498 0.74331 0.23451 0.0
H48 H 0.69937 0.74324 0.21692 0.0
H49 H 0.71805 0.79255 0.28 0.0
H50 H 0.69859 0.80096 0.27605 0.0
H51 H 0.71697 0.81087 0.26792 0.0
C52 C 0.04273 0.97324 0.47119 0.0
N53 N 0.05586 0.97645 0.48129 0.0
N54 N 0.04174 0.98573 0.46051 0.0
C55 C 0.03027 0.95857 0.47257 0.0
C56 C 0.0547 0.99674 0.46461 0.0
N57 N 0.06318 0.99119 0.47737 0.0
C58 C 0.05964 0.01229 0.45546 0.0
H59 H 0.03402 0.94694 0.46407 0.0
H60 H 0.01814 0.96219 0.4686 0.0
H61 H 0.02935 0.95498 0.48579 0.0
H62 H 0.05455 0.02415 0.46249 0.0
H63 H 0.05497 0.01073 0.44226 0.0
H64 H 0.07306 0.01421 0.45502 0.0
C65 C 0.20216 0.72796 0.79513 0.0
N66 N 0.21462 0.72074 0.80231 0.0
N67 N 0.20046 0.72118 0.77864 0.0
C68 C 0.19242 0.74254 0.80386 0.0
C69 C 0.21251 0.70971 0.77601 0.0
N70 N 0.22121 0.70957 0.79039 0.0
C71 C 0.21498 0.69772 0.75986 0.0
H72 H 0.18205 0.73685 0.81086 0.0
H73 H 0.18759 0.75062 0.79448 0.0
H74 H 0.19994 0.75106 0.8132 0.0
H75 H 0.22403 0.70399 0.75163 0.0
H76 H 0.20348 0.69518 0.75276 0.0
H77 H 0.21972 0.68512 0.76267 0.0
C78 C 0.95993 0.53925 0.45955 0.0
N79 N 0.97151 0.55235 0.46097 0.0
N80 N 0.95009 0.54022 0.47358 0.0
C81 C 0.95903 0.52476 0.4451 0.0
C82 C 0.95618 0.55434 0.48359 0.0
N83 N 0.9693 0.56156 0.47602 0.0
C84 C 0.94864 0.56189 0.50018 0.0
H85 H 0.95153 0.52884 0.43483 0.0
H86 H 0.95339 0.51264 0.44938 0.0
H87 H 0.97131 0.52199 0.43972 0.0
H88 H 0.93539 0.55866 0.50057 0.0
H89 H 0.95066 0.57629 0.50212 0.0
H90 H 0.9544 0.55633 0.51084 0.0
C91 C 0.79705 0.80881 0.8161 0.0
N92 N 0.8101 0.79866 0.81386 0.0
N93 N 0.79632 0.8192 0.80339 0.0
C94 C 0.78511 0.80871 0.83076 0.0
C95 C 0.80939 0.81493 0.79334 0.0
N96 N 0.81769 0.80238 0.79964 0.0
C97 C 0.81409 0.82304 0.77737 0.0
H98 H 0.78008 0.82181 0.83398 0.0
H99 H 0.79077 0.80467 0.84224 0.0
H100 H 0.77493 0.79924 0.82702 0.0
H101 H 0.82282 0.83421 0.7807 0.0
H102 H 0.80331 0.82788 0.77146 0.0
H103 H 0.82011 0.81354 0.76796 0.0
C104 C 0.29578 0.30946 0.31685 0.0
N105 N 0.3086 0.29895 0.31465 0.0
N106 N 0.29451 0.31874 0.30341 0.0
C107 C 0.28442 0.31062 0.33207 0.0
C108 C 0.30689 0.31343 0.29285 0.0
N109 N 0.31533 0.30119 0.29954 0.0
C110 C 0.31093 0.32043 0.27615 0.0
H111 H 0.27263 0.31591 0.32913 0.0
H112 H 0.29007 0.31948 0.34257 0.0
H113 H 0.28222 0.29758 0.33656 0.0
H114 H 0.32427 0.32258 0.27474 0.0
H115 H 0.3049 0.3328 0.275 0.0
H116 H 0.3068 0.31065 0.26556 0.0
C117 C 0.47177 0.98642 0.57039 0.0
N118 N 0.48138 0.97261 0.57034 0.0
N119 N 0.46145 0.98405 0.55706 0.0
C120 C 0.47307 1.00259 0.58294 0.0
C121 C 0.46514 0.96823 0.54896 0.0
N122 N 0.47729 0.96135 0.55698 0.0
C123 C 0.45654 0.95928 0.53351 0.0
H124 H 0.46506 1.00073 0.59412 0.0
H125 H 0.46921 0.01418 0.57714 0.0
H126 H 0.48571 0.005 0.58751 0.0
H127 H 0.46259 0.9635 0.52188 0.0
H128 H 0.44364 0.96287 0.5336 0.0
H129 H 0.45705 0.94487 0.5328 0.0
C130 C 0.20396 0.26564 0.73692 0.0
N131 N 0.2165 0.27461 0.7301 0.0
N132 N 0.19722 0.27546 0.75031 0.0
C133 C 0.19755 0.2478 0.72973 0.0
C134 C 0.20607 0.29075 0.75136 0.0
N135 N 0.2177 0.29033 0.73894 0.0
C136 C 0.20416 0.30547 0.7654 0.0
H137 H 0.19944 0.24575 0.7157 0.0
H138 H 0.18442 0.24595 0.73272 0.0
H139 H 0.20423 0.23779 0.73549 0.0
H140 H 0.19871 0.30059 0.77703 0.0
H141 H 0.19599 0.31509 0.76106 0.0
H142 H 0.21605 0.3122 0.76864 0.0
C143 C 0.78879 0.22859 0.72662 0.0
N144 N 0.79567 0.22086 0.73912 0.0
N145 N 0.7992 0.24074 0.72082 0.0
C146 C 0.77195 0.22405 0.71995 0.0
C147 C 0.81272 0.24006 0.73018 0.0
N148 N 0.81067 0.22778 0.74119 0.0
C149 C 0.82789 0.25139 0.72852 0.0
H150 H 0.76991 0.20965 0.71786 0.0
H151 H 0.76974 0.22969 0.70794 0.0
H152 H 0.76292 0.22924 0.72961 0.0
H153 H 0.82525 0.26371 0.72333 0.0
H154 H 0.83649 0.24423 0.7196 0.0
H155 H 0.83383 0.25452 0.74105 0.0
C156 C 0.53733 0.51308 0.56299 0.0
N157 N 0.54535 0.51961 0.5498 0.0
N158 N 0.52555 0.52383 0.56925 0.0
C159 C 0.54176 0.49687 0.57053 0.0
C160 C 0.52676 0.53718 0.55946 0.0
N161 N 0.53895 0.53474 0.54778 0.0
C162 C 0.51527 0.55192 0.56049 0.0
H163 H 0.5353 0.4854 0.56353 0.0
H164 H 0.53816 0.49755 0.5842 0.0
H165 H 0.555 0.49492 0.56925 0.0
H166 H 0.52066 0.56332 0.56861 0.0
H167 H 0.5034 0.54813 0.56618 0.0
H168 H 0.51323 0.55592 0.54765 0.0
C169 C 0.54007 0.47656 0.97538 0.0
N170 N 0.55388 0.47842 0.98452 0.0
N171 N 0.54134 0.48598 0.96189 0.0
C172 C 0.52534 0.46551 0.97957 0.0
C173 C 0.55649 0.49357 0.96312 0.0
N174 N 0.56418 0.48884 0.97683 0.0
C175 C 0.56355 0.50597 0.95122 0.0
H176 H 0.52657 0.45211 0.97306 0.0
H177 H 0.51411 0.47085 0.97507 0.0
H178 H 0.52417 0.46464 0.99346 0.0
H179 H 0.56134 0.51955 0.95677 0.0
H180 H 0.55777 0.50364 0.93855 0.0
H181 H 0.57683 0.50474 0.94953 0.0
C182 C 0.70752 0.23248 0.29129 0.0
N183 N 0.71873 0.22424 0.29939 0.0
N184 N 0.70217 0.22228 0.27724 0.0
C185 C 0.70075 0.2498 0.29794 0.0
C186 C 0.71043 0.20745 0.27721 0.0
N187 N 0.7204 0.20859 0.29079 0.0
C188 C 0.7096 0.19244 0.26328 0.0
H189 H 0.68802 0.25063 0.29389 0.0
H190 H 0.70823 0.26039 0.29279 0.0
H191 H 0.70116 0.25196 0.31207 0.0
H192 H 0.70583 0.19682 0.25108 0.0
H193 H 0.70054 0.18242 0.26696 0.0
H194 H 0.72154 0.18634 0.26139 0.0
C195 C 0.46174 0.03889 0.96223 0.0
N196 N 0.47309 0.05222 0.9637 0.0
N197 N 0.45147 0.04003 0.97589 0.0
C198 C 0.4615 0.02399 0.94816 0.0
C199 C 0.45706 0.05447 0.98578 0.0
N200 N 0.47033 0.06175 0.97849 0.0
C201 C 0.44868 0.06237 1.00176 0.0
H202 H 0.45418 0.02748 0.93749 0.0
H203 H 0.45599 0.01191 0.95267 0.0
H204 H 0.47397 0.02138 0.94325 0.0
H205 H 0.454 0.05734 0.01296 0.0
H206 H 0.43548 0.05886 1.00157 0.0
H207 H 0.45039 0.07681 0.00327 0.0
Li208 Li 0.26587 0.89344 0.01842 0.0
Li209 Li 0.25326 0.87335 0.03752 0.0
Li210 Li 0.24957 0.86862 0.00585 0.0
Li211 Li 0.23535 0.89199 0.02295 0.0
C212 C 0.28618 0.86689 0.01789 0.0
N213 N 0.31957 0.86479 0.01567 0.0
C214 C 0.2949 0.86303 0.03192 0.0
C215 C 0.29444 0.86949 0.00267 0.0
C216 C 0.31178 0.86207 0.03056 0.0
C217 C 0.31132 0.86844 1.00182 0.0
C218 C 0.25271 0.90788 0.05574 0.0
C219 C 0.23818 0.91835 0.08144 0.0
N220 N 0.2523 0.92556 0.08821 0.0
C221 C 0.26703 0.91562 0.06286 0.0
C222 C 0.23812 0.90944 0.06502 0.0
C223 C 0.26659 0.92441 0.07933 0.0
C224 C 0.28349 0.91973 0.00286 0.0
N225 N 0.28419 0.90886 0.01521 0.0
C226 C 0.31121 0.9195 0.02211 0.0
C227 C 0.29758 0.90877 0.02498 0.0
C228 C 0.31098 0.93076 0.00927 0.0
C229 C 0.29676 0.93088 0.9997 0.0
H230 H 0.2726 0.91976 0.99544 0.0
H231 H 0.29777 0.90019 0.03489 0.0
C232 C 0.2504 0.84491 0.05692 0.0
N233 N 0.2565 0.86162 0.05726 0.0
C234 C 0.2533 0.83512 0.07033 0.0
C235 C 0.2687 0.85989 0.08426 0.0
C236 C 0.26551 0.8692 0.07057 0.0
C237 C 0.26268 0.84254 0.0842 0.0
H238 H 0.24348 0.83909 0.04608 0.0
H239 H 0.2707 0.88225 0.07033 0.0
C240 C 0.24511 0.89176 0.98448 0.0
N241 N 0.23856 0.88725 0.95002 0.0
C242 C 0.2292 0.89257 0.97891 0.0
C243 C 0.25772 0.88886 0.97253 0.0
C244 C 0.22613 0.89021 0.96143 0.0
C245 C 0.25415 0.88654 0.95517 0.0
C246 C 0.21882 0.86147 0.03206 0.0
C247 C 0.2069 0.85133 0.02269 0.0
C248 C 0.21623 0.86639 0.04946 0.0
C249 C 0.19244 0.84656 0.03083 0.0
C250 C 0.20162 0.86135 0.05714 0.0
N251 N 0.19011 0.85165 0.04774 0.0
C252 C 0.26043 0.84186 0.98104 0.0
C253 C 0.23279 0.8485 0.97893 0.0
C254 C 0.25907 0.82924 0.96693 0.0
N255 N 0.24741 0.85125 0.98666 0.0
C256 C 0.23087 0.83596 0.96482 0.0
C257 C 0.24413 0.82613 0.95863 0.0
H258 H 0.27185 0.84408 0.98755 0.0
H259 H 0.22263 0.85612 0.98366 0.0
C260 C 0.21861 0.92304 0.03036 0.0
N261 N 0.21649 0.90576 0.02481 0.0
C262 C 0.20547 0.93397 0.0313 0.0
C263 C 0.18819 0.9092 0.0206 0.0
C264 C 0.20167 0.89873 0.0199 0.0
C265 C 0.18998 0.92711 0.02633 0.0
H266 H 0.2306 0.92837 0.03387 0.0
H267 H 0.20033 0.88508 0.01512 0.0
O268 O 0.26966 0.86801 0.01904 0.0
O269 O 0.25292 0.89935 0.03955 0.0
O270 O 0.24832 0.89367 1.00155 0.0
O271 O 0.23303 0.86627 0.02425 0.0
H272 H 0.28873 0.86084 0.04375 0.0
H273 H 0.2879 0.87247 0.99169 0.0
H274 H 0.31868 0.85917 0.04134 0.0
H275 H 0.31786 0.87056 0.99017 0.0
H276 H 0.22697 0.91961 0.08877 0.0
H277 H 0.27839 0.91473 0.05582 0.0
H278 H 0.22682 0.90403 0.05956 0.0
H279 H 0.27762 0.93033 0.08505 0.0
H280 H 0.3219 0.91873 0.0297 0.0
H281 H 0.29581 0.93957 0.98993 0.0
H282 H 0.24829 0.82185 0.06981 0.0
H283 H 0.27625 0.86603 0.09451 0.0
H284 H 0.21931 0.89482 0.98797 0.0
H285 H 0.27011 0.88832 0.97662 0.0
H286 H 0.21386 0.8907 0.95694 0.0
H287 H 0.26378 0.88418 0.94578 0.0
H288 H 0.20875 0.84725 0.00926 0.0
H289 H 0.22546 0.87383 0.057 0.0
H290 H 0.18307 0.83881 0.02371 0.0
H291 H 0.19946 0.8651 0.07059 0.0
H292 H 0.26954 0.8218 0.96273 0.0
H293 H 0.21917 0.83414 0.95869 0.0
H294 H 0.20751 0.94774 0.03553 0.0
H295 H 0.17648 0.90329 0.01675 0.0
Li296 Li 0.12873 0.51794 0.28277 0.0
Li297 Li 0.14916 0.49742 0.27085 0.0
Li298 Li 0.15112 0.52947 0.26626 0.0
Li299 Li 0.1305 0.50926 0.25106 0.0
C300 C 0.1527 0.52235 0.30501 0.0
N301 N 0.1527 0.53026 0.34002 0.0
C302 C 0.15457 0.50917 0.31553 0.0
C303 C 0.15102 0.53957 0.31226 0.0
C304 C 0.1545 0.51344 0.33321 0.0
C305 C 0.15099 0.5433 0.33 0.0
C306 C 0.12013 0.4772 0.26759 0.0
C307 C 0.11819 0.44948 0.2501 0.0
N308 N 0.1103 0.44229 0.26309 0.0
C309 C 0.11189 0.46958 0.28072 0.0
C310 C 0.12322 0.46712 0.25212 0.0
C311 C 0.10706 0.45189 0.27821 0.0
C312 C 0.10471 0.5374 0.30151 0.0
N313 N 0.11405 0.52331 0.30156 0.0
C314 C 0.10228 0.517 0.32828 0.0
C315 C 0.11296 0.51306 0.31453 0.0
C316 C 0.09247 0.53149 0.32857 0.0
C317 C 0.09382 0.54176 0.31494 0.0
H318 H 0.10562 0.54521 0.29098 0.0
H319 H 0.12033 0.50177 0.31416 0.0
C320 C 0.17744 0.47861 0.26787 0.0
N321 N 0.16207 0.47823 0.27443 0.0
C322 C 0.18794 0.46541 0.27026 0.0
C323 C 0.16668 0.45166 0.28627 0.0
C324 C 0.15658 0.46518 0.28359 0.0
C325 C 0.18264 0.4517 0.27961 0.0
H326 H 0.18158 0.48927 0.26085 0.0
H327 H 0.14448 0.4654 0.2891 0.0
C328 C 0.12621 0.54935 0.25956 0.0
N329 N 0.12407 0.58291 0.25091 0.0
C330 C 0.12217 0.55207 0.24296 0.0
C331 C 0.12903 0.56369 0.27179 0.0
C332 C 0.12117 0.56915 0.23884 0.0
C333 C 0.12793 0.58055 0.26716 0.0
C334 C 0.1612 0.50335 0.23412 0.0
C335 C 0.16769 0.5158 0.22401 0.0
C336 C 0.16179 0.4856 0.22824 0.0
C337 C 0.17441 0.51028 0.20802 0.0
C338 C 0.16861 0.4806 0.21218 0.0
N339 N 0.17471 0.49294 0.20248 0.0
C340 C 0.17886 0.55009 0.27629 0.0
C341 C 0.16575 0.56002 0.25295 0.0
C342 C 0.19077 0.56356 0.27621 0.0
N343 N 0.1666 0.54863 0.26485 0.0
C344 C 0.17724 0.57387 0.25261 0.0
C345 C 0.18997 0.57573 0.26434 0.0
H346 H 0.17944 0.54075 0.28547 0.0
H347 H 0.15622 0.55833 0.24363 0.0
C348 C 0.10235 0.49734 0.23291 0.0
N349 N 0.11782 0.50369 0.2308 0.0
C350 C 0.09229 0.49308 0.21885 0.0
C351 C 0.11423 0.50206 0.20061 0.0
C352 C 0.12383 0.5062 0.21504 0.0
C353 C 0.09818 0.49542 0.20237 0.0
H354 H 0.09776 0.49567 0.24559 0.0
H355 H 0.136 0.51161 0.21361 0.0
O356 O 0.15248 0.51839 0.28769 0.0
O357 O 0.12503 0.49447 0.26989 0.0
O358 O 0.12722 0.53273 0.26382 0.0
O359 O 0.15464 0.50854 0.24983 0.0
H360 H 0.15591 0.49579 0.3101 0.0
H361 H 0.14969 0.54992 0.30427 0.0
H362 H 0.15583 0.50337 0.34152 0.0
H363 H 0.14961 0.55655 0.3358 0.0
H364 H 0.12052 0.44152 0.23819 0.0
H365 H 0.10932 0.47723 0.29275 0.0
H366 H 0.12932 0.47288 0.24174 0.0
H367 H 0.10074 0.4458 0.28829 0.0
H368 H 0.10146 0.50857 0.33838 0.0
H369 H 0.0866 0.55312 0.31468 0.0
H370 H 0.20007 0.4659 0.26476 0.0
H371 H 0.16217 0.44152 0.29381 0.0
H372 H 0.11987 0.54114 0.23336 0.0
H373 H 0.13212 0.56181 0.28469 0.0
H374 H 0.11811 0.57145 0.22604 0.0
H375 H 0.13017 0.59177 0.27647 0.0
H376 H 0.16743 0.52958 0.2284 0.0
H377 H 0.15718 0.47576 0.23604 0.0
H378 H 0.17937 0.51978 0.20002 0.0
H379 H 0.16911 0.46691 0.20746 0.0
H380 H 0.20038 0.56458 0.28548 0.0
H381 H 0.17636 0.58285 0.24308 0.0
H382 H 0.07993 0.48834 0.22093 0.0
H383 H 0.11939 0.50398 0.1882 0.0
Li384 Li 0.75981 0.62769 0.99903 0.0
Li385 Li 0.77354 0.65146 0.01748 0.0
Li386 Li 0.77967 0.64796 0.98606 0.0
Li387 Li 0.78996 0.62794 0.00523 0.0
C388 C 0.74591 0.65831 0.98935 0.0
N389 N 0.72026 0.66842 0.97122 0.0
C390 C 0.73408 0.66879 0.99759 0.0
C391 C 0.74481 0.65319 0.97184 0.0
C392 C 0.72116 0.6737 0.98822 0.0
C393 C 0.73173 0.65838 0.96291 0.0
C394 C 0.76645 0.62738 0.03778 0.0
C395 C 0.77305 0.63345 0.06756 0.0
N396 N 0.75713 0.6307 0.07177 0.0
C397 C 0.75018 0.62451 0.0424 0.0
C398 C 0.77801 0.63177 0.05045 0.0
C399 C 0.74571 0.62628 0.05966 0.0
C400 C 0.74176 0.59571 0.99199 0.0
N401 N 0.74034 0.61315 0.99634 0.0
C402 C 0.7115 0.60919 0.9994 0.0
C403 C 0.72559 0.62001 1.00001 0.0
C404 C 0.71256 0.59106 0.99511 0.0
C405 C 0.72797 0.58439 0.99122 0.0
H406 H 0.75366 0.59054 0.98943 0.0
H407 H 0.72477 0.63383 0.00386 0.0
C408 C 0.7823 0.67726 0.04514 0.0
N409 N 0.76982 0.66776 0.03712 0.0
C410 C 0.7794 0.68837 0.06006 0.0
C411 C 0.75086 0.67989 0.05799 0.0
C412 C 0.75431 0.66897 0.04316 0.0
C413 C 0.7635 0.68974 0.06672 0.0
H414 H 0.79451 0.67614 0.04003 0.0
H415 H 0.74465 0.66114 0.03661 0.0
C416 C 0.77874 0.61326 0.9671 0.0
N417 N 0.77922 0.59553 0.93464 0.0
C418 C 0.79321 0.60667 0.96005 0.0
C419 C 0.76445 0.61054 0.95773 0.0
C420 C 0.79323 0.59783 0.9436 0.0
C421 C 0.76495 0.60162 0.94132 0.0
C422 C 0.81131 0.65506 0.00673 0.0
C423 C 0.82087 0.65826 0.99249 0.0
C424 C 0.81877 0.65319 0.02215 0.0
C425 C 0.83777 0.65937 0.99388 0.0
C426 C 0.8357 0.65435 0.02301 0.0
N427 N 0.84477 0.65739 0.00898 0.0
C428 C 0.78189 0.67828 0.96957 0.0
C429 C 0.79097 0.65361 0.95193 0.0
C430 C 0.78567 0.68906 0.95681 0.0
N431 N 0.78459 0.66091 0.96697 0.0
C432 C 0.79487 0.6639 0.93878 0.0
C433 C 0.79233 0.68193 0.94116 0.0
H434 H 0.77687 0.68378 0.98166 0.0
H435 H 0.79329 0.63988 0.95017 0.0
C436 C 0.8058 0.60352 0.02251 0.0
N437 N 0.80747 0.61342 0.00933 0.0
C438 C 0.81834 0.59307 0.0264 0.0
C439 C 0.83406 0.60294 0.00289 0.0
C440 C 0.82121 0.61321 0.99947 0.0
C441 C 0.83275 0.5927 0.01656 0.0
H442 H 0.79473 0.60376 0.03008 0.0
H443 H 0.82225 0.62109 0.98899 0.0
O444 O 0.75863 0.65341 0.99837 0.0
O445 O 0.77101 0.62612 0.02093 0.0
O446 O 0.7785 0.62182 0.98327 0.0
O447 O 0.79475 0.65378 0.00558 0.0
H448 H 0.73482 0.67304 0.0111 0.0
H449 H 0.75405 0.64547 0.96517 0.0
H450 H 0.71187 0.68172 0.99446 0.0
H451 H 0.73074 0.65449 0.94935 0.0
H452 H 0.78185 0.63697 0.07749 0.0
H453 H 0.74108 0.62109 0.03278 0.0
H454 H 0.79065 0.63404 0.04709 0.0
H455 H 0.73314 0.62419 0.06342 0.0
H456 H 0.69991 0.61498 1.00234 0.0
H457 H 0.72945 0.57051 0.98809 0.0
H458 H 0.78948 0.69586 0.06626 0.0
H459 H 0.73846 0.6803 0.06278 0.0
H460 H 0.80435 0.60848 0.96714 0.0
H461 H 0.75303 0.61511 0.96309 0.0
H462 H 0.80438 0.59279 0.93795 0.0
H463 H 0.75399 0.59949 0.93392 0.0
H464 H 0.81532 0.65976 0.98047 0.0
H465 H 0.81157 0.65066 0.03328 0.0
H466 H 0.84532 0.66177 0.98295 0.0
H467 H 0.84164 0.6528 0.03482 0.0
H468 H 0.78331 0.70284 0.95915 0.0
H469 H 0.80017 0.65787 0.92703 0.0
H470 H 0.81682 0.58556 0.03716 0.0
H471 H 0.84482 0.6029 0.9948 0.0
Li472 Li 0.86127 0.01982 0.28183 0.0
Li473 Li 0.88207 0.00324 0.29213 0.0
Li474 Li 0.88271 0.00659 0.26271 0.0
Li475 Li 0.86187 0.98634 0.27537 0.0
C476 C 0.88751 0.0415 0.27586 0.0
N477 N 0.89188 0.07359 0.2635 0.0
C478 C 0.89687 0.05491 0.28486 0.0
C479 C 0.88034 0.04447 0.2606 0.0
C480 C 0.89894 0.07103 0.27841 0.0
C481 C 0.8827 0.06075 0.25455 0.0
C482 C 0.85763 1.00085 0.31441 0.0
C483 C 0.85284 0.98535 0.33903 0.0
N484 N 0.85696 1.00019 0.34932 0.0
C485 C 0.86168 0.01598 0.3252 0.0
C486 C 0.85307 0.98543 0.32133 0.0
C487 C 0.86133 0.01536 0.34283 0.0
C488 C 0.83239 0.03767 0.2785 0.0
N489 N 0.84717 0.03885 0.28598 0.0
C490 C 0.84233 0.06778 0.29882 0.0
C491 C 0.8522 0.05342 0.29615 0.0
C492 C 0.8271 0.06714 0.29099 0.0
C493 C 0.82214 0.05174 0.28079 0.0
H494 H 0.82863 0.02585 0.2706 0.0
H495 H 0.86392 0.05394 0.30215 0.0
C496 C 0.90746 0.01504 0.31471 0.0
N497 N 0.89605 1.00193 0.31118 0.0
C498 C 0.91866 0.01425 0.32764 0.0
C499 C 0.90615 0.98646 0.33313 0.0
C500 C 0.89514 0.98785 0.32017 0.0
C501 C 0.91819 0.99973 0.33694 0.0
H502 H 0.90811 0.02594 0.30722 0.0
H503 H 0.88609 0.97748 0.31702 0.0
C504 C 0.85196 1.0025 0.24389 0.0
N505 N 0.83809 0.9977 0.21197 0.0
C506 C 0.85088 0.98587 0.23476 0.0
C507 C 0.84578 0.01665 0.23683 0.0
C508 C 0.84389 0.98372 0.21864 0.0
C509 C 0.83887 0.01397 0.22067 0.0
C510 C 0.89952 0.97774 0.27779 0.0
C511 C 0.91447 0.98675 0.27627 0.0
C512 C 0.89883 0.96186 0.28483 0.0
C513 C 0.9285 0.97978 0.2819 0.0
C514 C 0.91314 0.95531 0.29029 0.0
N515 N 0.92755 0.96434 0.28874 0.0
C516 C 0.90951 0.0199 0.24386 0.0
C517 C 0.89269 0.99846 0.22812 0.0
C518 C 0.91965 0.02129 0.22964 0.0
N519 N 0.89618 0.00878 0.24282 0.0
C520 C 0.90245 0.99946 0.21357 0.0
C521 C 0.91616 0.011 0.21419 0.0
H522 H 0.91248 0.02751 0.25583 0.0
H523 H 0.88248 0.98922 0.22771 0.0
C524 C 0.83243 0.96597 0.27328 0.0
N525 N 0.84881 0.96539 0.27111 0.0
C526 C 0.82257 0.95082 0.26969 0.0
C527 C 0.84666 0.93479 0.26187 0.0
C528 C 0.85601 0.95027 0.26541 0.0
C529 C 0.8297 0.93495 0.26397 0.0
H530 H 0.82704 0.97824 0.2777 0.0
H531 H 0.86901 0.95028 0.26334 0.0
O532 O 0.88512 0.02576 0.28225 0.0
O533 O 0.85807 1.00113 0.29713 0.0
O534 O 0.85845 0.00478 0.25988 0.0
O535 O 0.88562 0.98461 0.27271 0.0
H536 H 0.90238 0.05297 0.29679 0.0
H537 H 0.87318 0.03428 0.25341 0.0
H538 H 0.90614 0.08151 0.28526 0.0
H539 H 0.87725 0.06316 0.24272 0.0
H540 H 0.84942 0.97349 0.34459 0.0
H541 H 0.86526 0.028 0.32 0.0
H542 H 0.84986 0.97362 0.3131 0.0
H543 H 0.86456 0.02693 0.35136 0.0
H544 H 0.84656 0.07923 0.30702 0.0
H545 H 0.81059 0.05067 0.27436 0.0
H546 H 0.92788 0.02465 0.32998 0.0
H547 H 0.90529 0.9751 0.34007 0.0
H548 H 0.85564 0.97477 0.23993 0.0
H549 H 0.84623 0.02959 0.24375 0.0
H550 H 0.84311 0.97094 0.2114 0.0
H551 H 0.83409 0.02482 0.21505 0.0
H552 H 0.9152 0.99915 0.27106 0.0
H553 H 0.88735 0.95484 0.28639 0.0
H554 H 0.94013 0.98669 0.28091 0.0
H555 H 0.91277 0.94311 0.29587 0.0
H556 H 0.9303 0.03005 0.23087 0.0
H557 H 0.89925 0.99128 0.20195 0.0
H558 H 0.80955 0.95146 0.27156 0.0
H559 H 0.85259 0.92288 0.25724 0.0
Li560 Li 0.27413 0.15017 0.51842 0.0
Li561 Li 0.26125 0.12669 0.49883 0.0
Li562 Li 0.2906 0.12731 0.50457 0.0
Li563 Li 0.2793 0.1483 0.48725 0.0
C564 C 0.27663 0.11126 0.52856 0.0
N565 N 0.28736 0.08296 0.5431 0.0
C566 C 0.2715 0.0943 0.52219 0.0
C567 C 0.28719 0.11383 0.54235 0.0
C568 C 0.27705 0.08016 0.52973 0.0
C569 C 0.2925 0.09935 0.54951 0.0
C570 C 0.24225 0.15329 0.4992 0.0
C571 C 0.21746 0.15013 0.48319 0.0
N572 N 0.20878 0.15343 0.49795 0.0
C573 C 0.2331 0.15675 0.5142 0.0
C574 C 0.2344 0.15006 0.48355 0.0
C575 C 0.21618 0.15674 0.5133 0.0
C576 C 0.27044 0.18286 0.53919 0.0
N577 N 0.27027 0.16518 0.53901 0.0
C578 C 0.26352 0.1675 0.56875 0.0
C579 C 0.26678 0.15742 0.55335 0.0
C580 C 0.26384 0.18579 0.56943 0.0
C581 C 0.26744 0.19349 0.5544 0.0
H582 H 0.27289 0.1887 0.52752 0.0
H583 H 0.26635 0.14335 0.55281 0.0
C584 C 0.23804 0.10174 0.48178 0.0
N585 N 0.24176 0.11214 0.49638 0.0
C586 C 0.22374 0.09117 0.48089 0.0
C587 C 0.21747 0.10221 0.51005 0.0
C588 C 0.23191 0.11241 0.51042 0.0
C589 C 0.21319 0.09139 0.49514 0.0
H590 H 0.24618 0.10155 0.47087 0.0
H591 H 0.23532 0.12055 0.52197 0.0
C592 C 0.30197 0.16773 0.5144 0.0
N593 N 0.31456 0.19833 0.5318 0.0
C594 C 0.30303 0.18311 0.50652 0.0
C595 C 0.30735 0.16792 0.53112 0.0
C596 C 0.30944 0.19844 0.51553 0.0
C597 C 0.31366 0.18352 0.53971 0.0
C598 C 0.28301 0.1198 0.46541 0.0
C599 C 0.29858 0.11503 0.4599 0.0
C600 C 0.27139 0.12257 0.45344 0.0
C601 C 0.3023 0.11323 0.44246 0.0
C602 C 0.2756 0.12067 0.43611 0.0
N603 N 0.29083 0.11608 0.43103 0.0
C604 C 0.30848 0.09629 0.50023 0.0
C605 C 0.32068 0.11975 0.51823 0.0
C606 C 0.32099 0.08544 0.50338 0.0
N607 N 0.30853 0.11308 0.50771 0.0
C608 C 0.33325 0.1093 0.52196 0.0
C609 C 0.33346 0.09189 0.51455 0.0
H610 H 0.29857 0.09127 0.49205 0.0
H611 H 0.32047 0.1331 0.52398 0.0
C612 C 0.27277 0.17357 0.4649 0.0
N613 N 0.28367 0.16181 0.46849 0.0
C614 C 0.27604 0.18421 0.4519 0.0
C615 C 0.30155 0.17024 0.44627 0.0
C616 C 0.29795 0.16012 0.45961 0.0
C617 C 0.29058 0.18258 0.44239 0.0
H618 H 0.26164 0.17489 0.47233 0.0
H619 H 0.30666 0.1511 0.46306 0.0
O620 O 0.27178 0.12524 0.52098 0.0
O621 O 0.25879 0.1528 0.49984 0.0
O622 O 0.29566 0.1526 0.5058 0.0
O623 O 0.27919 0.12182 0.48245 0.0
H624 H 0.26349 0.09205 0.51139 0.0
H625 H 0.29149 0.12686 0.54728 0.0
H626 H 0.27324 0.06696 0.52488 0.0
H627 H 0.30078 0.10114 0.5601 0.0
H628 H 0.21122 0.14755 0.47118 0.0
H629 H 0.23897 0.15923 0.52643 0.0
H630 H 0.24131 0.1474 0.47182 0.0
H631 H 0.20893 0.15928 0.52482 0.0
H632 H 0.26088 0.16103 0.58004 0.0
H633 H 0.26759 0.20754 0.55434 0.0
H634 H 0.22088 0.08308 0.46912 0.0
H635 H 0.20987 0.10258 0.52142 0.0
H636 H 0.29893 0.18326 0.49362 0.0
H637 H 0.30631 0.15625 0.53757 0.0
H638 H 0.31031 0.21044 0.5096 0.0
H639 H 0.31773 0.18387 0.5527 0.0
H640 H 0.30775 0.11296 0.469 0.0
H641 H 0.25932 0.12632 0.45749 0.0
H642 H 0.31432 0.10963 0.43801 0.0
H643 H 0.26676 0.12288 0.42671 0.0
H644 H 0.32069 0.07204 0.49752 0.0
H645 H 0.34274 0.11478 0.53052 0.0
H646 H 0.26728 0.1936 0.44929 0.0
H647 H 0.313 0.16879 0.43939 0.0
Li648 Li 0.38316 0.50294 0.79184 0.0
Li649 Li 0.36313 0.52126 0.78033 0.0
Li650 Li 0.36219 0.4884 0.77365 0.0
Li651 Li 0.38314 0.50627 0.76036 0.0
C652 C 0.35761 0.50321 0.81327 0.0
N653 N 0.35512 0.50417 0.84832 0.0
C654 C 0.35435 0.51884 0.82326 0.0
C655 C 0.35942 0.48803 0.82107 0.0
C656 C 0.35317 0.51907 0.84097 0.0
C657 C 0.35819 0.4888 0.83882 0.0
C658 C 0.39411 0.54067 0.77988 0.0
C659 C 0.4007 0.56589 0.76513 0.0
N660 N 0.40801 0.5739 0.7794 0.0
C661 C 0.40182 0.5491 0.79435 0.0
C662 C 0.39365 0.54908 0.76511 0.0
C663 C 0.40872 0.56592 0.79387 0.0
C664 C 0.40814 0.48834 0.80881 0.0
N665 N 0.39724 0.50116 0.81053 0.0
C666 C 0.40763 0.51187 0.83802 0.0
C667 C 0.39684 0.51289 0.82474 0.0
C668 C 0.41908 0.49877 0.83658 0.0
C669 C 0.41919 0.48688 0.82171 0.0
H670 H 0.40849 0.47941 0.79725 0.0
H671 H 0.38829 0.52319 0.8257 0.0
C672 C 0.33416 0.53913 0.78035 0.0
N673 N 0.35012 0.54136 0.78447 0.0
C674 C 0.32399 0.55329 0.78242 0.0
C675 C 0.34684 0.57179 0.79301 0.0
C676 C 0.3565 0.55724 0.79097 0.0
C677 C 0.33038 0.56992 0.78864 0.0
H678 H 0.32937 0.52635 0.77526 0.0
H679 H 0.36908 0.5587 0.79456 0.0
C680 C 0.38734 0.46755 0.76788 0.0
N681 N 0.38931 0.43196 0.7594 0.0
C682 C 0.39236 0.46095 0.75149 0.0
C683 C 0.38351 0.45608 0.78002 0.0
C684 C 0.39324 0.4429 0.74744 0.0
C685 C 0.38452 0.43812 0.77546 0.0
C686 C 0.35369 0.51214 0.7436 0.0
C687 C 0.34634 0.50021 0.73112 0.0
C688 C 0.35506 0.52983 0.7412 0.0
C689 C 0.34079 0.50613 0.71626 0.0
C690 C 0.34934 0.53525 0.72618 0.0
N691 N 0.34241 0.52338 0.71412 0.0
C692 C 0.33691 0.46369 0.7807 0.0
C693 C 0.35005 0.45809 0.75377 0.0
C694 C 0.32675 0.44874 0.77725 0.0
N695 N 0.34829 0.46801 0.76901 0.0
C696 C 0.34038 0.44289 0.74992 0.0
C697 C 0.32852 0.43809 0.76172 0.0
H698 H 0.3357 0.47188 0.79268 0.0
H699 H 0.35897 0.46199 0.74456 0.0
C700 C 0.41186 0.51502 0.74283 0.0
N701 N 0.39657 0.50789 0.74063 0.0
C702 C 0.42227 0.51628 0.72881 0.0
C703 C 0.40114 0.50241 0.71053 0.0
C704 C 0.39114 0.50145 0.72492 0.0
C705 C 0.41694 0.50997 0.71236 0.0
H706 H 0.41602 0.51964 0.75552 0.0
H707 H 0.37912 0.49536 0.72354 0.0
O708 O 0.35892 0.50276 0.79593 0.0
O709 O 0.38726 0.52421 0.78018 0.0
O710 O 0.38619 0.48517 0.77201 0.0
O711 O 0.35914 0.50653 0.75825 0.0
H712 H 0.35287 0.5307 0.81741 0.0
H713 H 0.36182 0.4758 0.8135 0.0
H714 H 0.35074 0.53109 0.84887 0.0
H715 H 0.35966 0.47717 0.84504 0.0
H716 H 0.40041 0.57254 0.75378 0.0
H717 H 0.4024 0.54276 0.80585 0.0
H718 H 0.38808 0.54264 0.75367 0.0
H719 H 0.41465 0.57262 0.80501 0.0
H720 H 0.40698 0.52125 0.84928 0.0
H721 H 0.42799 0.47679 0.81984 0.0
H722 H 0.31137 0.55133 0.77882 0.0
H723 H 0.35217 0.58435 0.79808 0.0
H724 H 0.39544 0.46966 0.74197 0.0
H725 H 0.3797 0.46101 0.79278 0.0
H726 H 0.39701 0.43759 0.73477 0.0
H727 H 0.38149 0.42909 0.7847 0.0
H728 H 0.34501 0.4865 0.73284 0.0
H729 H 0.36031 0.53932 0.75088 0.0
H730 H 0.33518 0.49702 0.70645 0.0
H731 H 0.35036 0.5489 0.72416 0.0
H732 H 0.31775 0.44543 0.78667 0.0
H733 H 0.34195 0.43513 0.73773 0.0
H734 H 0.43445 0.52188 0.73086 0.0
H735 H 0.3965 0.49742 0.6981 0.0
Li736 Li 0.76575 0.39332 0.51976 0.0
Li737 Li 0.75453 0.37201 0.53732 0.0
Li738 Li 0.75134 0.36857 0.50582 0.0
Li739 Li 0.7361 0.39124 0.52293 0.0
C740 C 0.78794 0.36888 0.51808 0.0
N741 N 0.8215 0.37021 0.51594 0.0
C742 C 0.79711 0.36503 0.5318 0.0
C743 C 0.79587 0.37345 0.50328 0.0
C744 C 0.81405 0.36575 0.53046 0.0
C745 C 0.81283 0.37405 0.50245 0.0
C746 C 0.76195 0.40961 0.55118 0.0
C747 C 0.77026 0.43952 0.56039 0.0
N748 N 0.78159 0.43386 0.57056 0.0
C749 C 0.77368 0.40409 0.56173 0.0
C750 C 0.7602 0.42747 0.55052 0.0
C751 C 0.78348 0.41655 0.57143 0.0
C752 C 0.78225 0.42135 0.50549 0.0
N753 N 0.78349 0.41009 0.51746 0.0
C754 C 0.81036 0.42144 0.5242 0.0
C755 C 0.79704 0.4103 0.52708 0.0
C756 C 0.80961 0.43277 0.51155 0.0
C757 C 0.79521 0.43293 0.50236 0.0
H758 H 0.77129 0.42113 0.49816 0.0
H759 H 0.79775 0.40148 0.5367 0.0
C760 C 0.76354 0.34334 0.5534 0.0
N761 N 0.75684 0.35919 0.55644 0.0
C762 C 0.76633 0.33358 0.56684 0.0
C763 C 0.75454 0.35625 0.58626 0.0
C764 C 0.75213 0.36567 0.57243 0.0
C765 C 0.76192 0.34002 0.58362 0.0
H766 H 0.76705 0.33845 0.54052 0.0
H767 H 0.74666 0.37825 0.57447 0.0
C768 C 0.74541 0.39117 0.48524 0.0
N769 N 0.73767 0.38494 0.45114 0.0
C770 C 0.72919 0.38856 0.4804 0.0
C771 C 0.7577 0.3907 0.47276 0.0
C772 C 0.72552 0.38542 0.46309 0.0
C773 C 0.75353 0.3875 0.45558 0.0
C774 C 0.72263 0.35925 0.53413 0.0
C775 C 0.7153 0.34264 0.53022 0.0
C776 C 0.71825 0.36944 0.54917 0.0
C777 C 0.70357 0.33653 0.54139 0.0
C778 C 0.70648 0.36287 0.56001 0.0
N779 N 0.69944 0.34669 0.55592 0.0
C780 C 0.76308 0.34718 0.47679 0.0
C781 C 0.73469 0.34444 0.48177 0.0
C782 C 0.76189 0.33523 0.46218 0.0
N783 N 0.74959 0.35166 0.48616 0.0
C784 C 0.73295 0.33226 0.46732 0.0
C785 C 0.74668 0.32761 0.45727 0.0
H786 H 0.77479 0.35291 0.48058 0.0
H787 H 0.72414 0.34828 0.48941 0.0
C788 C 0.71849 0.42162 0.52321 0.0
N789 N 0.7166 0.40411 0.5239 0.0
C790 C 0.70496 0.43192 0.52319 0.0
C791 C 0.68767 0.40595 0.52428 0.0
C792 C 0.70155 0.39614 0.52415 0.0
C793 C 0.68923 0.42414 0.5238 0.0
H794 H 0.73056 0.42755 0.52231 0.0
H795 H 0.70024 0.38213 0.52402 0.0
O796 O 0.77131 0.36816 0.51915 0.0
O797 O 0.75231 0.39759 0.5415 0.0
O798 O 0.74928 0.39367 0.50214 0.0
O799 O 0.73435 0.36529 0.5235 0.0
H800 H 0.79126 0.36171 0.54344 0.0
H801 H 0.78904 0.37699 0.49273 0.0
H802 H 0.82128 0.36283 0.54099 0.0
H803 H 0.81911 0.37772 0.49113 0.0
H804 H 0.76906 0.45338 0.55996 0.0
H805 H 0.77547 0.39035 0.56216 0.0
H806 H 0.75125 0.43199 0.54241 0.0
H807 H 0.79266 0.41245 0.57957 0.0
H808 H 0.82119 0.42111 0.5317 0.0
H809 H 0.79419 0.4415 0.4925 0.0
H810 H 0.77224 0.32129 0.56412 0.0
H811 H 0.75062 0.36163 0.59886 0.0
H812 H 0.71954 0.38873 0.48991 0.0
H813 H 0.77032 0.39262 0.4763 0.0
H814 H 0.71302 0.38328 0.45915 0.0
H815 H 0.76291 0.387 0.44577 0.0
H816 H 0.71867 0.33454 0.5187 0.0
H817 H 0.72387 0.38231 0.55243 0.0
H818 H 0.69776 0.32371 0.53851 0.0
H819 H 0.70296 0.37062 0.57167 0.0
H820 H 0.7728 0.33183 0.45489 0.0
H821 H 0.72098 0.32679 0.46388 0.0
H822 H 0.70683 0.44579 0.52236 0.0
H823 H 0.67585 0.39932 0.52483 0.0
Li824 Li 0.64979 0.99717 0.77157 0.0
Li825 Li 0.6297 0.01745 0.78482 0.0
Li826 Li 0.63073 0.0086 0.75292 0.0
Li827 Li 0.65175 0.02903 0.76688 0.0
C828 C 0.6231 0.9769 0.7746 0.0
N829 N 0.61846 0.94232 0.78031 0.0
C830 C 0.61686 0.97263 0.79027 0.0
C831 C 0.6268 0.9636 0.76176 0.0
C832 C 0.61464 0.95506 0.79292 0.0
C833 C 0.62443 0.94619 0.76492 0.0
C834 C 0.65734 0.02468 0.80466 0.0
C835 C 0.66199 0.04926 0.82599 0.0
N836 N 0.66515 0.0381 0.83758 0.0
C837 C 0.66085 0.01347 0.81672 0.0
C838 C 0.6581 0.04273 0.80927 0.0
C839 C 0.66468 0.0205 0.83332 0.0
C840 C 0.67526 0.97443 0.76361 0.0
N841 N 0.6628 0.97788 0.77485 0.0
C842 C 0.67024 0.95486 0.79077 0.0
C843 C 0.66016 0.96846 0.78831 0.0
C844 C 0.68331 0.95113 0.77945 0.0
C845 C 0.68572 0.96108 0.76568 0.0
H846 H 0.67723 0.98222 0.75313 0.0
H847 H 0.65039 0.97165 0.79728 0.0
C848 C 0.60277 0.03319 0.80182 0.0
N849 N 0.6155 0.02309 0.80403 0.0
C850 C 0.59193 0.03766 0.81526 0.0
C851 C 0.60716 0.02084 0.83297 0.0
C852 C 0.6178 0.01681 0.8192 0.0
C853 C 0.59396 0.0314 0.83112 0.0
H854 H 0.60093 0.0377 0.78956 0.0
H855 H 0.62769 0.00835 0.82053 0.0
C856 C 0.65732 0.00542 0.73297 0.0
N857 N 0.66193 1.00032 0.69802 0.0
C858 C 0.66201 0.0195 0.724 0.0
C859 C 0.65515 0.98872 0.72421 0.0
C860 C 0.66425 0.01665 0.70632 0.0
C861 C 0.65748 0.98642 0.70652 0.0
C862 C 0.62451 0.04927 0.76513 0.0
C863 C 0.61911 0.05486 0.75004 0.0
C864 C 0.62628 0.06126 0.7797 0.0
C865 C 0.61582 0.07244 0.74971 0.0
C866 C 0.62287 0.07872 0.77885 0.0
N867 N 0.61777 0.08391 0.764 0.0
C868 C 0.60556 0.99022 0.73384 0.0
C869 C 0.61935 0.01172 0.71912 0.0
C870 C 0.59512 0.98578 0.72015 0.0
N871 N 0.6174 0.00298 0.73312 0.0
C872 C 0.60918 0.00768 0.7051 0.0
C873 C 0.59677 0.99462 0.70553 0.0
H874 H 0.60406 0.98359 0.74516 0.0
H875 H 0.62863 0.02203 0.7189 0.0
C876 C 0.6817 0.04683 0.77252 0.0
N877 N 0.66712 0.04819 0.76509 0.0
C878 C 0.69372 0.06016 0.77229 0.0
C879 C 0.67562 0.07603 0.75656 0.0
C880 C 0.66399 0.06232 0.75698 0.0
C881 C 0.69071 0.07508 0.76433 0.0
H882 H 0.68394 0.03539 0.77875 0.0
H883 H 0.65256 0.06295 0.75071 0.0
O884 O 0.6255 0.99402 0.77181 0.0
O885 O 0.65356 0.018 0.78834 0.0
O886 O 0.65496 0.00797 0.75025 0.0
O887 O 0.62786 0.03211 0.76564 0.0
H888 H 0.61382 0.98276 0.80029 0.0
H889 H 0.63151 0.96669 0.74953 0.0
H890 H 0.6099 0.95156 0.80501 0.0
H891 H 0.62733 0.93576 0.75514 0.0
H892 H 0.66256 0.0632 0.82974 0.0
H893 H 0.66048 0.99948 0.81334 0.0
H894 H 0.65585 0.05162 0.80001 0.0
H895 H 0.66729 0.01197 0.84282 0.0
H896 H 0.66808 0.94766 0.80168 0.0
H897 H 0.69558 0.95855 0.75659 0.0
H898 H 0.58206 0.04598 0.8132 0.0
H899 H 0.60904 0.01537 0.84479 0.0
H900 H 0.66379 0.03249 0.73058 0.0
H901 H 0.65168 0.97766 0.73098 0.0
H902 H 0.6678 0.02744 0.6992 0.0
H903 H 0.65576 0.97358 0.69956 0.0
H904 H 0.61753 0.04575 0.73869 0.0
H905 H 0.63009 0.0571 0.79157 0.0
H906 H 0.61171 0.07696 0.7381 0.0
H907 H 0.62423 0.08814 0.79003 0.0
H908 H 0.58585 0.97551 0.72103 0.0
H909 H 0.61076 0.01504 0.69422 0.0
H910 H 0.70514 0.05892 0.77851 0.0
H911 H 0.67292 0.08716 0.75001 0.0
Li912 Li 0.01464 0.23277 0.89383 0.0
Li913 Li 0.99932 0.24696 0.91839 0.0
Li914 Li 1.00272 0.21504 0.91432 0.0
Li915 Li 0.98472 0.229 0.89544 0.0
C916 C 0.02873 0.22882 0.93079 0.0
N917 N 0.04589 0.21683 0.95656 0.0
C918 C 0.02708 0.23655 0.94759 0.0
C919 C 0.03921 0.21507 0.92708 0.0
C920 C 0.03585 0.23029 0.96044 0.0
C921 C 0.04773 0.20916 0.94029 0.0
C922 C 0.99642 0.26795 0.89338 0.0
C923 C 0.98033 0.29347 0.89798 0.0
N924 N 0.99333 0.30347 0.89333 0.0
C925 C 0.00959 0.27844 0.88855 0.0
C926 C 0.98164 0.27548 0.89804 0.0
C927 C 0.00779 0.29638 0.88864 0.0
C928 C 0.02968 0.24008 0.8627 0.0
N929 N 0.03255 0.23602 0.87866 0.0
C930 C 0.06115 0.23633 0.87305 0.0
C931 C 0.04789 0.23422 0.88402 0.0
C932 C 0.0586 0.24047 0.85644 0.0
C933 C 0.04259 0.24237 0.85131 0.0
H934 H 0.01733 0.2415 0.85881 0.0
H935 H 0.04986 0.23123 0.89684 0.0
C936 C 0.98744 0.26736 0.94782 0.0
N937 N 0.99841 0.26723 0.93473 0.0
C938 C 0.98663 0.28195 0.96 0.0
C939 C 0.00842 0.29601 0.94502 0.0
C940 C 0.00901 0.28102 0.93332 0.0
C941 C 0.9971 0.29669 0.95864 0.0
H942 H 0.9794 0.25606 0.94889 0.0
H943 H 0.01792 0.28042 0.92306 0.0
C944 C 0.0077 0.20403 0.87423 0.0
N945 N 0.02227 0.19182 0.84363 0.0
C946 C 1.00005 0.20552 0.85884 0.0
C947 C 0.02271 0.19622 0.87407 0.0
C948 C 0.00762 0.19927 0.8435 0.0
C949 C 0.0299 0.19018 0.85846 0.0
C950 C 0.96692 0.22388 0.92403 0.0
C951 C 0.96215 0.20681 0.92685 0.0
C952 C 0.95531 0.2366 0.92445 0.0
C953 C 0.94574 0.2027 0.92989 0.0
C954 C 0.93902 0.23196 0.92749 0.0
N955 N 0.93461 0.21525 0.93012 0.0
C956 C 0.00448 0.19679 0.94343 0.0
C957 C 0.00963 0.17967 0.91718 0.0
C958 C 0.00825 0.18298 0.9525 0.0
N959 N 0.00559 0.19502 0.92611 0.0
C960 C 0.01334 0.16545 0.92573 0.0
C961 C 0.01295 0.16711 0.94365 0.0
H962 H 1.00107 0.20911 0.9502 0.0
H963 H 0.01029 0.17855 0.90341 0.0
C964 C 0.96396 0.23831 0.87031 0.0
N965 N 0.96542 0.2267 0.88191 0.0
C966 C 0.9507 0.23695 0.85942 0.0
C967 C 0.94048 0.2118 0.87264 0.0
C968 C 0.95412 0.21347 0.88311 0.0
C969 C 0.93873 0.22357 0.86051 0.0
H970 H 0.97328 0.24846 0.86929 0.0
H971 H 0.95578 0.20402 0.89197 0.0
O972 O 0.02001 0.23455 0.91809 0.0
O973 O 0.99799 0.2504 0.89352 0.0
O974 O 1.00068 0.21044 0.88936 0.0
O975 O 0.98291 0.22815 0.92101 0.0
H976 H 0.01903 0.24718 0.95072 0.0
H977 H 0.04049 0.20879 0.91419 0.0
H978 H 0.03464 0.23611 0.97351 0.0
H979 H 0.05574 0.19842 0.93763 0.0
H980 H 0.96899 0.29949 0.90163 0.0
H981 H 0.02112 0.27281 0.88492 0.0
H982 H 0.97132 0.2675 0.90171 0.0
H983 H 0.0179 0.30469 0.88502 0.0
H984 H 0.07329 0.23503 0.87763 0.0
H985 H 0.04006 0.24542 0.83858 0.0
H986 H 0.97798 0.28153 0.97046 0.0
H987 H 0.01664 0.30701 0.94319 0.0
H988 H 0.98846 0.21154 0.85872 0.0
H989 H 0.02888 0.19513 0.88586 0.0
H990 H 1.00187 0.2004 0.83149 0.0
H991 H 0.04157 0.18426 0.85814 0.0
H992 H 0.97099 0.19682 0.92658 0.0
H993 H 0.95883 0.24989 0.92242 0.0
H994 H 0.94185 0.18953 0.93202 0.0
H995 H 0.92988 0.24164 0.92778 0.0
H996 H 0.00755 0.18473 0.96631 0.0
H997 H 0.01695 0.15347 0.91841 0.0
H998 H 0.94979 0.2463 0.85025 0.0
H999 H 0.93165 0.20114 0.8737 0.0
Li1000 Li 0.51356 0.73422 0.39399 0.0
Li1001 Li 0.49822 0.74821 0.41867 0.0
Li1002 Li 0.50213 0.71549 0.41425 0.0
Li1003 Li 0.48326 0.72896 0.39623 0.0
C1004 C 0.53489 0.73879 0.41922 0.0
N1005 N 0.56797 0.7464 0.41958 0.0
C1006 C 0.54093 0.75523 0.42616 0.0
C1007 C 0.54568 0.72616 0.41264 0.0
C1008 C 0.55769 0.75884 0.42619 0.0
C1009 C 0.56236 0.73028 0.41288 0.0
C1010 C 0.48999 0.76638 0.39052 0.0
C1011 C 0.46768 0.78561 0.39069 0.0
N1012 N 0.47742 0.79721 0.38301 0.0
C1013 C 0.49974 0.7784 0.38248 0.0
C1014 C 0.47381 0.76994 0.39455 0.0
C1015 C 0.49318 0.79395 0.37886 0.0
C1016 C 0.53453 0.72564 0.36565 0.0
N1017 N 0.53128 0.73805 0.37877 0.0
C1018 C 0.55423 0.75576 0.37115 0.0
C1019 C 0.54061 0.75306 0.38148 0.0
C1020 C 0.55799 0.74308 0.35763 0.0
C1021 C 0.54786 0.72795 0.35479 0.0
H1022 H 0.52682 0.7139 0.36368 0.0
H1023 H 0.53758 0.76286 0.39182 0.0
C1024 C 0.49206 0.76725 0.45102 0.0
N1025 N 0.49758 0.7686 0.43485 0.0
C1026 C 0.49209 0.78199 0.46312 0.0
C1027 C 0.50351 0.7992 0.4417 0.0
C1028 C 0.50335 0.78414 0.43008 0.0
C1029 C 0.4979 0.79829 0.45854 0.0
H1030 H 0.48779 0.75467 0.45457 0.0
H1031 H 0.50808 0.78483 0.41731 0.0
C1032 C 0.50029 0.69445 0.38492 0.0
N1033 N 0.50003 0.65856 0.37746 0.0
C1034 C 0.48569 0.68502 0.38115 0.0
C1035 C 0.51478 0.68566 0.38474 0.0
C1036 C 0.48581 0.66688 0.37743 0.0
C1037 C 0.51438 0.6675 0.381 0.0
C1038 C 0.4668 0.72788 0.42817 0.0
C1039 C 0.4596 0.71204 0.43211 0.0
C1040 C 0.45826 0.74319 0.43141 0.0
C1041 C 0.44381 0.71173 0.43888 0.0
C1042 C 0.4425 0.74234 0.43819 0.0
N1043 N 0.43565 0.72676 0.44173 0.0
C1044 C 0.51982 0.69646 0.43551 0.0
C1045 C 0.49658 0.68069 0.42385 0.0
C1046 C 0.52419 0.68213 0.44351 0.0
N1047 N 0.50635 0.69545 0.42572 0.0
C1048 C 0.5005 0.66602 0.43163 0.0
C1049 C 0.51457 0.66656 0.44152 0.0
H1050 H 0.52723 0.70841 0.43714 0.0
H1051 H 0.48585 0.6802 0.41614 0.0
C1052 C 0.4656 0.73291 0.36732 0.0
N1053 N 0.46398 0.7265 0.38266 0.0
C1054 C 0.45247 0.73214 0.35631 0.0
C1055 C 0.4362 0.71778 0.37683 0.0
C1056 C 0.44968 0.71886 0.38749 0.0
C1057 C 0.43745 0.72459 0.36102 0.0
H1058 H 0.47716 0.73866 0.36364 0.0
H1059 H 0.44868 0.71354 0.39954 0.0
O1060 O 0.5185 0.7351 0.41885 0.0
O1061 O 0.49626 0.7511 0.39415 0.0
O1062 O 0.5004 0.71219 0.3887 0.0
O1063 O 0.48228 0.72841 0.42161 0.0
H1064 H 0.53276 0.76512 0.4314 0.0
H1065 H 0.54121 0.71336 0.40728 0.0
H1066 H 0.56253 0.77154 0.43144 0.0
H1067 H 0.57084 0.72067 0.40772 0.0
H1068 H 0.45517 0.78853 0.39375 0.0
H1069 H 0.51226 0.77579 0.37915 0.0
H1070 H 0.466 0.76062 0.4004 0.0
H1071 H 0.50061 0.80342 0.37272 0.0
H1072 H 0.56165 0.76769 0.37359 0.0
H1073 H 0.5504 0.71788 0.34449 0.0
H1074 H 0.48788 0.78055 0.47599 0.0
H1075 H 0.50793 0.81145 0.43745 0.0
H1076 H 0.47437 0.69162 0.3812 0.0
H1077 H 0.52619 0.69277 0.38756 0.0
H1078 H 0.47459 0.6594 0.37457 0.0
H1079 H 0.52549 0.66052 0.38092 0.0
H1080 H 0.46609 0.7001 0.42985 0.0
H1081 H 0.46377 0.75563 0.42886 0.0
H1082 H 0.43805 0.69954 0.44187 0.0
H1083 H 0.43573 0.75409 0.4407 0.0
H1084 H 0.53494 0.68332 0.45131 0.0
H1085 H 0.49274 0.65428 0.42968 0.0
H1086 H 0.45414 0.73724 0.34413 0.0
H1087 H 0.42487 0.71189 0.38102 0.0
Li1088 Li 0.01418 0.80102 0.62584 0.0
Li1089 Li 0.99711 0.78618 0.64699 0.0
Li1090 Li 0.02602 0.78064 0.64448 0.0
Li1091 Li 0.00642 0.76944 0.62179 0.0
C1092 C 0.0271 0.81635 0.65696 0.0
N1093 N 0.04972 0.84257 0.66776 0.0
C1094 C 0.02342 0.82879 0.67061 0.0
C1095 C 0.04229 0.81721 0.64884 0.0
C1096 C 0.03502 0.84196 0.67587 0.0
C1097 C 0.05355 0.83057 0.65447 0.0
C1098 C 0.98193 0.78425 0.60976 0.0
C1099 C 0.96109 0.76439 0.59681 0.0
N1100 N 0.96263 0.7723 0.58227 0.0
C1101 C 0.98319 0.79227 0.59474 0.0
C1102 C 0.97068 0.77029 0.61087 0.0
C1103 C 0.97336 0.78601 0.58097 0.0
C1104 C 0.0232 0.81799 0.59723 0.0
N1105 N 0.01918 0.8211 0.61405 0.0
C1106 C 0.0241 0.85184 0.61327 0.0
C1107 C 0.01932 0.83766 0.6221 0.0
C1108 C 0.0285 0.84904 0.59586 0.0
C1109 C 0.02777 0.83177 0.58785 0.0
H1110 H 0.0229 0.80471 0.5911 0.0
H1111 H 0.01597 0.83988 0.63545 0.0
C1112 C 0.98384 0.79123 0.68041 0.0
N1113 N 0.97983 0.7889 0.66365 0.0
C1114 C 0.97174 0.79148 0.69309 0.0
C1115 C 0.95154 0.78761 0.67106 0.0
C1116 C 0.96405 0.78735 0.6588 0.0
C1117 C 0.95529 0.78947 0.68851 0.0
H1118 H 0.9965 0.79238 0.68392 0.0
H1119 H 0.96115 0.78564 0.64541 0.0
C1120 C 0.04116 0.77581 0.60986 0.0
N1121 N 0.06765 0.76469 0.59019 0.0
C1122 C 0.043 0.758 0.60496 0.0
C1123 C 0.0528 0.78797 0.60469 0.0
C1124 C 0.05647 0.75264 0.59504 0.0
C1125 C 0.06611 0.78209 0.59477 0.0
C1126 C 1.00012 0.75577 0.65842 0.0
C1127 C 0.0079 0.75581 0.674 0.0
C1128 C 0.98435 0.74844 0.65647 0.0
C1129 C 0.9997 0.74874 0.68746 0.0
C1130 C 0.97653 0.74154 0.67025 0.0
N1131 N 0.9843 0.74184 0.68533 0.0
C1132 C 0.04764 0.78398 0.67243 0.0
C1133 C 0.05545 0.76385 0.64914 0.0
C1134 C 0.06114 0.78028 0.68163 0.0
N1135 N 0.04509 0.77584 0.65645 0.0
C1136 C 0.06916 0.75985 0.65781 0.0
C1137 C 0.07215 0.76804 0.67435 0.0
H1138 H 0.03899 0.79308 0.67822 0.0
H1139 H 0.05299 0.75715 0.63668 0.0
C1140 C 0.00492 0.7524 0.58784 0.0
N1141 N 1.0023 0.75031 0.60459 0.0
C1142 C 1.00292 0.73814 0.57533 0.0
C1143 C 0.9954 0.71998 0.59752 0.0
C1144 C 0.99764 0.73452 0.60958 0.0
C1145 C 0.99814 0.72164 0.58013 0.0
H1146 H 0.00882 0.76508 0.58426 0.0
H1147 H 0.99598 0.73313 0.62298 0.0
O1148 O 0.01583 0.80342 0.65166 0.0
O1149 O 0.99169 0.78998 0.62327 0.0
O1150 O 0.02787 0.78137 0.6193 0.0
O1151 O 0.00783 0.76303 0.64522 0.0
H1152 H 0.01171 0.82826 0.67705 0.0
H1153 H 0.04536 0.80762 0.63836 0.0
H1154 H 0.03233 0.85169 0.6864 0.0
H1155 H 0.06536 0.83139 0.6483 0.0
H1156 H 0.95246 0.75349 0.59745 0.0
H1157 H 0.99165 0.80323 0.59371 0.0
H1158 H 0.96955 0.7639 0.62236 0.0
H1159 H 0.97427 0.79206 0.56924 0.0
H1160 H 0.02461 0.86481 0.62014 0.0
H1161 H 0.03062 0.82886 0.57441 0.0
H1162 H 0.97528 0.79276 0.70633 0.0
H1163 H 0.93907 0.78635 0.66688 0.0
H1164 H 0.03426 0.74837 0.609 0.0
H1165 H 0.05159 0.80181 0.60826 0.0
H1166 H 0.05806 0.73889 0.59123 0.0
H1167 H 0.0752 0.79135 0.5907 0.0
H1168 H 0.0201 0.76135 0.67576 0.0
H1169 H 0.9781 0.74831 0.64454 0.0
H1170 H 0.00555 0.74878 0.69962 0.0
H1171 H 0.96427 0.73599 0.66896 0.0
H1172 H 0.0627 0.78665 0.69448 0.0
H1173 H 0.07733 0.75042 0.65159 0.0
H1174 H 0.00508 0.74001 0.56206 0.0
H1175 H 0.992 0.70745 0.60183 0.0
Li1176 Li 0.51361 0.30101 0.12701 0.0
Li1177 Li 0.49609 0.28568 0.14946 0.0
Li1178 Li 0.52553 0.28147 0.14517 0.0
Li1179 Li 0.5073 0.26923 0.12382 0.0
C1180 C 0.52563 0.31109 0.16427 0.0
N1181 N 0.54873 0.32432 0.18772 0.0
C1182 C 0.5236 0.30848 0.18144 0.0
C1183 C 0.53937 0.32048 0.15903 0.0
C1184 C 0.53543 0.31525 0.1931 0.0
C1185 C 0.55091 0.32707 0.17108 0.0
C1186 C 0.48041 0.28052 0.11366 0.0
C1187 C 0.45714 0.26098 0.10726 0.0
N1188 N 0.45894 0.26322 0.09046 0.0
C1189 C 0.48201 0.28269 0.09636 0.0
C1190 C 0.46788 0.26961 0.11919 0.0
C1191 C 0.47104 0.2738 0.08482 0.0
C1192 C 0.52002 0.31843 0.09807 0.0
N1193 N 0.51734 0.32115 0.11519 0.0
C1194 C 0.52267 0.35189 0.11499 0.0
C1195 C 0.51839 0.33749 0.12372 0.0
C1196 C 0.52582 0.34948 0.09729 0.0
C1197 C 0.52421 0.33244 0.08883 0.0
H1198 H 0.51927 0.30527 0.09165 0.0
H1199 H 0.51629 0.33929 0.13736 0.0
C1200 C 0.48134 0.28073 0.18102 0.0
N1201 N 0.47879 0.28719 0.16599 0.0
C1202 C 0.469 0.28066 0.19342 0.0
C1203 C 0.45157 0.29385 0.17467 0.0
C1204 C 0.46431 0.2938 0.16266 0.0
C1205 C 0.45381 0.28716 0.1903 0.0
H1206 H 0.49292 0.27536 0.18324 0.0
H1207 H 0.46259 0.29884 0.1506 0.0
C1208 C 0.54368 0.27984 0.115 0.0
N1209 N 0.5755 0.27564 0.10421 0.0
C1210 C 0.54994 0.26318 0.11259 0.0
C1211 C 0.55353 0.29435 0.11171 0.0
C1212 C 0.56608 0.26134 0.1072 0.0
C1213 C 0.5696 0.29196 0.10631 0.0
C1214 C 0.50641 0.24662 0.14875 0.0
C1215 C 0.51946 0.23609 0.14393 0.0
C1216 C 0.49196 0.23912 0.15473 0.0
C1217 C 0.51773 0.21812 0.14489 0.0
C1218 C 0.49072 0.2211 0.15551 0.0
N1219 N 0.50351 0.21106 0.1506 0.0
C1220 C 0.54166 0.26732 0.17099 0.0
C1221 C 0.55956 0.2835 0.15428 0.0
C1222 C 0.55455 0.26294 0.18066 0.0
N1223 N 0.54437 0.27715 0.15787 0.0
C1224 C 0.57285 0.27936 0.16357 0.0
C1225 C 0.57047 0.26877 0.17686 0.0
H1226 H 0.52943 0.26285 0.17396 0.0
H1227 H 0.56144 0.29184 0.14428 0.0
C1228 C 0.51236 0.24975 0.0919 0.0
N1229 N 0.50354 0.24972 0.10666 0.0
C1230 C 0.51114 0.23553 0.07929 0.0
C1231 C 0.49139 0.22169 0.097 0.0
C1232 C 0.49287 0.23625 0.10919 0.0
C1233 C 0.50077 0.2211 0.0819 0.0
H1234 H 0.52053 0.26074 0.09001 0.0
H1235 H 0.48555 0.23672 0.1207 0.0
O1236 O 0.51445 0.30411 0.15258 0.0
O1237 O 0.4913 0.28868 0.12509 0.0
O1238 O 0.52786 0.28191 0.12011 0.0
O1239 O 0.50784 0.26423 0.14792 0.0
H1240 H 0.51307 0.30118 0.18568 0.0
H1241 H 0.54125 0.32239 0.14574 0.0
H1242 H 0.53406 0.31326 0.20641 0.0
H1243 H 0.56166 0.33426 0.16719 0.0
H1244 H 0.44744 0.25241 0.11134 0.0
H1245 H 0.4917 0.29101 0.09187 0.0
H1246 H 0.46662 0.26759 0.13252 0.0
H1247 H 0.47218 0.27528 0.07137 0.0
H1248 H 0.52392 0.3647 0.12213 0.0
H1249 H 0.52621 0.32989 0.0752 0.0
H1250 H 0.47122 0.27517 0.20517 0.0
H1251 H 0.44011 0.29913 0.17179 0.0
H1252 H 0.5424 0.25179 0.11476 0.0
H1253 H 0.5489 0.30735 0.11352 0.0
H1254 H 0.5711 0.24852 0.10534 0.0
H1255 H 0.5774 0.30308 0.10383 0.0
H1256 H 0.5308 0.24174 0.13956 0.0
H1257 H 0.48175 0.24711 0.15853 0.0
H1258 H 0.52771 0.20979 0.14114 0.0
H1259 H 0.47957 0.21509 0.16 0.0
H1260 H 0.55204 0.25515 0.19107 0.0
H1261 H 0.58487 0.28419 0.16015 0.0
H1262 H 0.51859 0.2356 0.06783 0.0
H1263 H 0.48299 0.21099 0.09935 0.0
C1264 C 0.20964 0.72358 0.83322 0.0
C1265 C 0.22029 0.72531 0.8194 0.0
C1266 C 0.21355 0.73155 0.84946 0.0
C1267 C 0.24631 0.75473 0.87606 0.0
H1268 H 0.21038 0.78051 0.89702 0.0
C1269 C 0.25447 0.81109 0.93083 0.0
C1270 C 0.24235 0.81271 0.94364 0.0
C1271 C 0.25254 0.79878 0.9165 0.0
C1272 C 0.22049 0.7732 0.89154 0.0
H1273 H 0.2437 0.73559 0.81161 0.0
H1274 H 0.25069 0.74976 0.84011 0.0
H1275 H 0.20607 0.76107 0.87097 0.0
H1276 H 0.219 0.80221 0.95175 0.0
H1277 H 0.21566 0.78069 0.92685 0.0
H1278 H 0.26077 0.76719 0.89661 0.0
C1279 C 0.23936 0.74212 0.8385 0.0
C1280 C 0.21802 0.762 0.87658 0.0
C1281 C 0.23543 0.73403 0.82222 0.0
C1282 C 0.22842 0.80151 0.94196 0.0
C1283 C 0.22651 0.78917 0.92768 0.0
C1284 C 0.24879 0.76596 0.89111 0.0
C1285 C 0.22816 0.74154 0.85216 0.0
C1286 C 0.23088 0.75265 0.86861 0.0
C1287 C 0.23846 0.78777 0.91467 0.0
C1288 C 0.2359 0.77537 0.89899 0.0
H1289 H 0.19792 0.71681 0.83119 0.0
H1290 H 0.20482 0.7305 0.85978 0.0
H1291 H 0.25644 0.74764 0.8703 0.0
H1292 H 0.26528 0.81964 0.93167 0.0
H1293 H 0.26188 0.79823 0.90663 0.0
C1294 C 0.9806 0.5574 0.43204 0.0
C1295 C 0.98436 0.55516 0.44887 0.0
C1296 C 0.99279 0.55719 0.41949 0.0
C1297 C 0.03763 0.55859 0.41206 0.0
H1298 H 0.02574 0.53177 0.36923 0.0
C1299 C 0.08469 0.53442 0.35978 0.0
C1300 C 0.08058 0.53564 0.34274 0.0
C1301 C 0.07336 0.53809 0.37301 0.0
C1302 C 0.02923 0.53947 0.38102 0.0
H1303 H 0.00365 0.55171 0.46614 0.0
H1304 H 0.02516 0.55109 0.44416 0.0
H1305 H 0.00543 0.53661 0.39179 0.0
H1306 H 0.06127 0.54159 0.32629 0.0
H1307 H 0.04161 0.54813 0.34933 0.0
H1308 H 0.0616 0.5611 0.40124 0.0
C1309 C 0.01284 0.55325 0.44061 0.0
C1310 C 0.01755 0.54231 0.39398 0.0
C1311 C 1.0006 0.55361 0.45321 0.0
C1312 C 0.06491 0.54069 0.33927 0.0
C1313 C 0.05357 0.54427 0.35247 0.0
C1314 C 0.04937 0.55567 0.39908 0.0
C1315 C 0.00901 0.55453 0.42349 0.0
C1316 C 0.02155 0.55196 0.40966 0.0
C1317 C 0.05762 0.54293 0.36949 0.0
C1318 C 0.04528 0.54611 0.38339 0.0
H1319 H 0.96811 0.55872 0.42855 0.0
H1320 H 0.98943 0.55866 0.40654 0.0
H1321 H 0.04112 0.56619 0.42391 0.0
H1322 H 0.09671 0.53072 0.36289 0.0
H1323 H 0.07682 0.53681 0.38597 0.0
C1324 C 0.82132 0.79068 0.84039 0.0
C1325 C 0.81434 0.78562 0.82445 0.0
C1326 C 0.82189 0.77878 0.85248 0.0
C1327 C 0.81636 0.73178 0.85917 0.0
H1328 H 0.801 0.75058 0.90396 0.0
C1329 C 0.79345 0.68763 0.91031 0.0
C1330 C 0.79675 0.69327 0.92752 0.0
C1331 C 0.7973 0.69848 0.89757 0.0
C1332 C 0.80556 0.74512 0.89164 0.0
H1333 H 0.80322 0.76424 0.80815 0.0
H1334 H 0.80427 0.74318 0.82917 0.0
H1335 H 0.80576 0.76993 0.88193 0.0
H1336 H 0.80722 0.71456 0.94471 0.0
H1337 H 0.81402 0.73339 0.92258 0.0
H1338 H 0.81598 0.7069 0.86888 0.0
C1339 C 0.80944 0.75626 0.83239 0.0
C1340 C 0.80832 0.75625 0.87897 0.0
C1341 C 0.80886 0.76823 0.82033 0.0
C1342 C 0.80422 0.70992 0.93164 0.0
C1343 C 0.80813 0.72073 0.91891 0.0
C1344 C 0.81365 0.72062 0.87188 0.0
C1345 C 0.81545 0.76156 0.84883 0.0
C1346 C 0.81366 0.74973 0.86253 0.0
C1347 C 0.8046 0.71524 0.90172 0.0
C1348 C 0.8081 0.72713 0.88827 0.0
H1349 H 0.82545 0.80413 0.84377 0.0
H1350 H 0.82684 0.78322 0.8649 0.0
H1351 H 0.8206 0.72635 0.84669 0.0
H1352 H 0.78755 0.67496 0.9067 0.0
H1353 H 0.79417 0.69388 0.88453 0.0
C1354 C 0.02551 0.97315 0.43581 0.0
C1355 C 0.02946 0.98724 0.44808 0.0
C1356 C 0.01338 0.97451 0.42394 0.0
C1357 C 0.99112 0.00666 0.40327 0.0
H1358 H 0.95956 0.96824 0.39329 0.0
C1359 C 0.93518 0.01275 0.36166 0.0
C1360 C 0.9305 0.99822 0.35016 0.0
C1361 C 0.94704 0.01141 0.37383 0.0
C1362 C 0.96839 0.97901 0.39576 0.0
H1363 H 0.02389 0.0137 0.45773 0.0
H1364 H 1.00275 0.01624 0.43685 0.0
H1365 H 0.98084 0.96589 0.41385 0.0
H1366 H 0.93475 0.97093 0.34229 0.0
H1367 H 0.95555 0.96861 0.36337 0.0
H1368 H 0.97883 0.01972 0.38506 0.0
C1369 C 0.0091 0.00418 0.43629 0.0
C1370 C 0.98058 0.97766 0.40757 0.0
C1371 C 0.02116 1.00276 0.44822 0.0
C1372 C 0.93791 0.9823 0.35115 0.0
C1373 C 0.94983 0.98097 0.36325 0.0
C1374 C 0.97899 0.00797 0.39139 0.0
C1375 C 0.00503 0.99004 0.42404 0.0
C1376 C 0.99208 0.99147 0.41147 0.0
C1377 C 0.95458 0.99553 0.37473 0.0
C1378 C 0.96745 0.99417 0.38748 0.0
H1379 H 0.03191 0.96114 0.43539 0.0
H1380 H 0.01069 0.96346 0.41453 0.0
H1381 H 0.99994 0.01743 0.40582 0.0
H1382 H 0.92955 0.02514 0.36136 0.0
H1383 H 0.95018 0.02281 0.38264 0.0
C1384 C 0.22373 0.27676 0.69999 0.0
C1385 C 0.22557 0.26885 0.71493 0.0
C1386 C 0.23017 0.26921 0.68447 0.0
C1387 C 0.24209 0.22586 0.66434 0.0
H1388 H 0.25623 0.25168 0.62691 0.0
C1389 C 0.24709 0.19176 0.59611 0.0
C1390 C 0.26017 0.19662 0.58572 0.0
C1391 C 0.24392 0.20143 0.61177 0.0
C1392 C 0.25248 0.24425 0.63728 0.0
H1393 H 0.23628 0.24774 0.72591 0.0
H1394 H 0.24816 0.2348 0.69902 0.0
H1395 H 0.25036 0.26741 0.65481 0.0
H1396 H 0.28009 0.21558 0.58353 0.0
H1397 H 0.27472 0.23238 0.61109 0.0
H1398 H 0.24451 0.20272 0.64705 0.0
C1399 C 0.24134 0.24649 0.699 0.0
C1400 C 0.24893 0.25329 0.65325 0.0
C1401 C 0.23474 0.25393 0.71442 0.0
C1402 C 0.26985 0.21159 0.59122 0.0
C1403 C 0.26675 0.22123 0.607 0.0
C1404 C 0.24572 0.21685 0.64847 0.0
C1405 C 0.23867 0.25367 0.6837 0.0
C1406 C 0.24354 0.24421 0.66696 0.0
C1407 C 0.25383 0.21616 0.61756 0.0
C1408 C 0.25074 0.22591 0.63465 0.0
H1409 H 0.21654 0.28821 0.7002 0.0
H1410 H 0.22772 0.27505 0.67298 0.0
H1411 H 0.23773 0.21837 0.67445 0.0
H1412 H 0.23922 0.18049 0.59207 0.0
H1413 H 0.23361 0.19738 0.61931 0.0
C1414 C 0.50479 0.50674 0.58401 0.0
C1415 C 0.51467 0.52196 0.58347 0.0
C1416 C 0.49402 0.5051 0.59772 0.0
C1417 C 0.47237 0.53152 0.63229 0.0
H1418 H 0.46763 0.48797 0.6525 0.0
C1419 C 0.43781 0.5262 0.69587 0.0
C1420 C 0.42784 0.51115 0.69725 0.0
C1421 C 0.44814 0.52731 0.68174 0.0
C1422 C 0.46866 0.50015 0.64687 0.0
H1423 H 0.52142 0.5472 0.59676 0.0
H1424 H 0.50263 0.54446 0.6208 0.0
H1425 H 0.48619 0.4902 0.62829 0.0
H1426 H 0.42102 0.48537 0.6849 0.0
H1427 H 0.43882 0.48743 0.66007 0.0
H1428 H 0.45488 0.5415 0.65084 0.0
C1429 C 0.50296 0.53388 0.61056 0.0
C1430 C 0.47931 0.50143 0.633 0.0
C1431 C 0.51373 0.53546 0.59688 0.0
C1432 C 0.42842 0.49723 0.68414 0.0
C1433 C 0.43876 0.49832 0.67001 0.0
C1434 C 0.46173 0.53024 0.64613 0.0
C1435 C 0.49293 0.5187 0.61112 0.0
C1436 C 0.48135 0.51716 0.62561 0.0
C1437 C 0.44875 0.51338 0.66864 0.0
C1438 C 0.45981 0.51458 0.65366 0.0
H1439 H 0.50528 0.49625 0.5737 0.0
H1440 H 0.48634 0.49333 0.59768 0.0
H1441 H 0.47345 0.54373 0.6267 0.0
H1442 H 0.43755 0.53724 0.70565 0.0
H1443 H 0.4558 0.53902 0.68118 0.0
C1444 C 0.79506 0.24309 0.69039 0.0
C1445 C 0.79671 0.25113 0.70714 0.0
C1446 C 0.7915 0.25293 0.6772 0.0
C1447 C 0.79369 0.29729 0.6644 0.0
H1448 H 0.75861 0.28011 0.63413 0.0
C1449 C 0.77001 0.33872 0.6141 0.0
C1450 C 0.7653 0.33002 0.59821 0.0
C1451 C 0.77364 0.32932 0.62762 0.0
C1452 C 0.76861 0.28501 0.64227 0.0
H1453 H 0.7963 0.27557 0.72339 0.0
H1454 H 0.79043 0.29308 0.70021 0.0
H1455 H 0.766 0.26327 0.65694 0.0
H1456 H 0.76041 0.30443 0.58435 0.0
H1457 H 0.76742 0.28811 0.60755 0.0
H1458 H 0.79662 0.31881 0.64956 0.0
C1459 C 0.79183 0.27916 0.69726 0.0
C1460 C 0.77279 0.27536 0.65539 0.0
C1461 C 0.79518 0.26923 0.71049 0.0
C1462 C 0.76422 0.31164 0.59628 0.0
C1463 C 0.76802 0.30224 0.60973 0.0
C1464 C 0.78964 0.30686 0.65114 0.0
C1465 C 0.78974 0.27106 0.68052 0.0
C1466 C 0.78537 0.28138 0.66659 0.0
C1467 C 0.77281 0.31093 0.62559 0.0
C1468 C 0.77704 0.30085 0.63987 0.0
H1469 H 0.79625 0.22912 0.68763 0.0
H1470 H 0.79014 0.24637 0.6644 0.0
H1471 H 0.80354 0.30217 0.67275 0.0
H1472 H 0.77119 0.35284 0.61607 0.0
H1473 H 0.77705 0.33652 0.6397 0.0
C1474 C 0.48823 0.9694 0.59992 0.0
C1475 C 0.49321 0.97023 0.58295 0.0
C1476 C 0.49969 0.97003 0.61281 0.0
C1477 C 0.54366 0.96676 0.62143 0.0
H1478 H 0.53302 0.99683 0.66252 0.0
C1479 C 0.59071 0.9901 0.67408 0.0
C1480 C 0.58526 0.9906 0.69113 0.0
C1481 C 0.57976 0.98657 0.66063 0.0
C1482 C 0.53613 0.98821 0.65124 0.0
H1483 H 0.51386 0.97198 0.56588 0.0
H1484 H 0.53412 0.97312 0.58841 0.0
H1485 H 0.51351 0.99182 0.63961 0.0
H1486 H 0.56394 0.98788 0.70734 0.0
H1487 H 0.54498 0.98148 0.68399 0.0
H1488 H 0.56642 0.96337 0.63312 0.0
C1489 C 0.52137 0.9717 0.59181 0.0
C1490 C 0.5249 0.9853 0.63808 0.0
C1491 C 0.50984 0.971 0.5789 0.0
C1492 C 0.56862 0.98741 0.69438 0.0
C1493 C 0.55769 0.98394 0.68098 0.0
C1494 C 0.55493 0.96971 0.63463 0.0
C1495 C 0.51642 0.97168 0.609 0.0
C1496 C 0.52846 0.97447 0.62302 0.0
C1497 C 0.56309 0.98356 0.66393 0.0
C1498 C 0.55127 0.98043 0.64973 0.0
H1499 H 0.47542 0.96886 0.60323 0.0
H1500 H 0.49543 0.96962 0.62584 0.0
H1501 H 0.54677 0.95825 0.61008 0.0
H1502 H 0.60346 0.99234 0.6711 0.0
H1503 H 0.58432 0.98652 0.64766 0.0
C1504 C 0.83818 0.21977 0.74838 0.0
C1505 C 0.8222 0.22352 0.75346 0.0
C1506 C 0.84987 0.21754 0.76047 0.0
C1507 C 0.85816 0.22828 0.80672 0.0
H1508 H 0.89466 0.19877 0.79568 0.0
C1509 C 0.90877 0.21936 0.85498 0.0
C1510 C 0.92473 0.22172 0.84875 0.0
C1511 C 0.89559 0.2181 0.84389 0.0
C1512 C 0.88455 0.2071 0.79892 0.0
H1513 H 0.80559 0.22695 0.77499 0.0
H1514 H 0.82578 0.22231 0.7962 0.0
H1515 H 0.87253 0.19832 0.77556 0.0
H1516 H 0.93941 0.22414 0.826 0.0
H1517 H 0.91644 0.2217 0.80661 0.0
H1518 H 0.87023 0.23685 0.83022 0.0
C1519 C 0.82951 0.22166 0.78292 0.0
C1520 C 0.87187 0.20692 0.78736 0.0
C1521 C 0.81787 0.22408 0.77079 0.0
C1522 C 0.92725 0.22247 0.83118 0.0
C1523 C 0.91412 0.22093 0.82007 0.0
C1524 C 0.87075 0.22826 0.81839 0.0
C1525 C 0.84578 0.21873 0.77797 0.0
C1526 C 0.85861 0.21774 0.79094 0.0
C1527 C 0.89814 0.21885 0.82631 0.0
C1528 C 0.88421 0.21789 0.81449 0.0
H1529 H 0.84172 0.21896 0.73504 0.0
H1530 H 0.86223 0.21548 0.75607 0.0
H1531 H 0.84836 0.23702 0.80989 0.0
H1532 H 0.90647 0.21881 0.86848 0.0
H1533 H 0.88342 0.21643 0.84904 0.0
C1534 C 0.47507 0.92944 0.55616 0.0
C1535 C 0.48386 0.94451 0.55235 0.0
C1536 C 0.47917 0.91301 0.54831 0.0
C1537 C 0.49954 0.89385 0.5088 0.0
H1538 H 0.49095 0.85036 0.52835 0.0
C1539 C 0.51099 0.82694 0.47095 0.0
C1540 C 0.4982 0.81424 0.47116 0.0
C1541 C 0.51094 0.84228 0.48222 0.0
C1542 C 0.49336 0.86242 0.52272 0.0
H1543 H 0.50419 0.95449 0.53821 0.0
H1544 H 0.51206 0.92573 0.52505 0.0
H1545 H 0.48887 0.87813 0.54635 0.0
H1546 H 0.47543 0.80775 0.48374 0.0
H1547 H 0.47551 0.83441 0.50358 0.0
H1548 H 0.504 0.87813 0.48519 0.0
C1549 C 0.5017 0.92648 0.53373 0.0
C1550 C 0.49215 0.87835 0.53302 0.0
C1551 C 0.49744 0.94292 0.54144 0.0
C1552 C 0.48559 0.8171 0.48331 0.0
C1553 C 0.48561 0.8324 0.49469 0.0
C1554 C 0.50091 0.87795 0.49858 0.0
C1555 C 0.49224 0.91136 0.53654 0.0
C1556 C 0.49502 0.89431 0.52614 0.0
C1557 C 0.49818 0.84526 0.49412 0.0
C1558 C 0.49764 0.86206 0.50536 0.0
H1559 H 0.46438 0.93057 0.56435 0.0
H1560 H 0.47146 0.90179 0.55069 0.0
H1561 H 0.50148 0.90579 0.50288 0.0
H1562 H 0.52112 0.82505 0.46207 0.0
H1563 H 0.52092 0.85183 0.48163 0.0
C1564 C 0.16993 0.2819 0.7619 0.0
C1565 C 0.18325 0.2711 0.76045 0.0
C1566 C 0.15634 0.27778 0.77177 0.0
C1567 C 0.14338 0.25293 0.80725 0.0
H1568 H 0.10013 0.25853 0.79071 0.0
C1569 C 0.08566 0.23183 0.84375 0.0
C1570 C 0.07259 0.24303 0.84467 0.0
C1571 C 0.09901 0.23451 0.83301 0.0
C1572 C 0.11212 0.25707 0.79561 0.0
H1573 H 0.19303 0.24766 0.76805 0.0
H1574 H 0.16917 0.24026 0.78536 0.0
H1575 H 0.12375 0.2646 0.77289 0.0
H1576 H 0.06335 0.26589 0.83509 0.0
H1577 H 0.08667 0.27066 0.81645 0.0
H1578 H 0.13179 0.24562 0.83005 0.0
C1579 C 0.16924 0.25198 0.77896 0.0
C1580 C 0.12566 0.26053 0.78538 0.0
C1581 C 0.18281 0.25609 0.769 0.0
C1582 C 0.07311 0.25688 0.8345 0.0
C1583 C 0.08649 0.2596 0.8238 0.0
C1584 C 0.12984 0.24953 0.81751 0.0
C1585 C 0.15584 0.26279 0.78045 0.0
C1586 C 0.14145 0.25859 0.79112 0.0
C1587 C 0.09964 0.24849 0.82297 0.0
C1588 C 0.11404 0.25164 0.81185 0.0
H1589 H 0.17005 0.29348 0.7553 0.0
H1590 H 0.14632 0.28648 0.77281 0.0
H1591 H 0.15539 0.25153 0.81214 0.0
H1592 H 0.08551 0.22087 0.85124 0.0
H1593 H 0.10879 0.22552 0.83248 0.0
C1594 C 0.54685 0.56351 0.53899 0.0
C1595 C 0.54303 0.5457 0.5346 0.0
C1596 C 0.54698 0.57513 0.52662 0.0
C1597 C 0.52719 0.57957 0.48624 0.0
H1598 H 0.55426 0.62212 0.48779 0.0
C1599 C 0.50733 0.64085 0.45764 0.0
C1600 C 0.51918 0.65112 0.44984 0.0
C1601 C 0.51177 0.62677 0.46604 0.0
C1602 C 0.5467 0.61021 0.487 0.0
H1603 H 0.53743 0.52572 0.51389 0.0
H1604 H 0.53793 0.54597 0.49196 0.0
H1605 H 0.56096 0.5994 0.50532 0.0
H1606 H 0.54496 0.65419 0.44425 0.0
H1607 H 0.55269 0.62966 0.4589 0.0
H1608 H 0.51287 0.59042 0.468 0.0
C1609 C 0.54059 0.55105 0.50502 0.0
C1610 C 0.55047 0.59725 0.49717 0.0
C1611 C 0.54051 0.53943 0.51745 0.0
C1612 C 0.53555 0.64675 0.45039 0.0
C1613 C 0.53999 0.63267 0.45878 0.0
C1614 C 0.52341 0.59254 0.47607 0.0
C1615 C 0.54326 0.56913 0.50957 0.0
C1616 C 0.54059 0.5819 0.49716 0.0
C1617 C 0.52818 0.62259 0.46683 0.0
C1618 C 0.53295 0.60817 0.47656 0.0
H1619 H 0.54877 0.56854 0.5522 0.0
H1620 H 0.54896 0.58894 0.53065 0.0
H1621 H 0.51919 0.56802 0.48603 0.0
H1622 H 0.49464 0.64397 0.45766 0.0
H1623 H 0.50237 0.61947 0.47233 0.0
C1624 C 0.84743 0.80473 0.79896 0.0
C1625 C 0.83298 0.79601 0.79318 0.0
C1626 C 0.86199 0.8019 0.78985 0.0
C1627 C 0.88188 0.77364 0.7547 0.0
H1628 H 0.90503 0.81688 0.74658 0.0
C1629 C 0.92838 0.77777 0.69917 0.0
C1630 C 0.94217 0.78912 0.70181 0.0
C1631 C 0.91601 0.77752 0.71156 0.0
C1632 C 0.89892 0.80462 0.74889 0.0
H1633 H 0.82225 0.77702 0.77403 0.0
H1634 H 0.8477 0.77181 0.75802 0.0
H1635 H 0.88229 0.81752 0.7667 0.0
H1636 H 0.95366 0.8091 0.71975 0.0
H1637 H 0.93233 0.80836 0.74149 0.0
H1638 H 0.89842 0.76077 0.73669 0.0
C1639 C 0.84795 0.78071 0.76966 0.0
C1640 C 0.88586 0.80499 0.76048 0.0
C1641 C 0.8334 0.78359 0.7788 0.0
C1642 C 0.94331 0.80008 0.71729 0.0
C1643 C 0.93096 0.7998 0.7297 0.0
C1644 C 0.89501 0.77325 0.74313 0.0
C1645 C 0.86231 0.79032 0.77473 0.0
C1646 C 0.87706 0.78954 0.76343 0.0
C1647 C 0.91709 0.78858 0.72698 0.0
C1648 C 0.90361 0.78878 0.73993 0.0
H1649 H 0.84721 0.81452 0.80993 0.0
H1650 H 0.87287 0.80931 0.79426 0.0
H1651 H 0.87547 0.76147 0.75678 0.0
H1652 H 0.92716 0.76895 0.68754 0.0
H1653 H 0.90545 0.76885 0.7089 0.0
C1654 C 0.06506 0.95005 0.49223 0.0
C1655 C 0.05954 0.96706 0.49536 0.0
C1656 C 0.06469 0.93911 0.50524 0.0
C1657 C 0.03975 0.93109 0.54195 0.0
H1658 H 0.07275 0.89939 0.55148 0.0
C1659 C 0.02717 0.88047 0.58982 0.0
C1660 C 0.03379 0.86393 0.58611 0.0
C1661 C 0.03193 0.89426 0.58044 0.0
C1662 C 0.0633 0.90798 0.54885 0.0
H1663 H 0.04984 0.98634 0.51435 0.0
H1664 H 0.04901 0.96718 0.53727 0.0
H1665 H 0.07902 0.92149 0.53218 0.0
H1666 H 0.05113 0.84931 0.56975 0.0
H1667 H 0.0586 0.87286 0.55286 0.0
H1668 H 0.0237 0.91718 0.55771 0.0
C1669 C 0.05378 0.96233 0.52483 0.0
C1670 C 0.06698 0.92074 0.53789 0.0
C1671 C 0.05442 0.97334 0.51186 0.0
C1672 C 0.04545 0.86169 0.57284 0.0
C1673 C 0.05001 0.87539 0.56329 0.0
C1674 C 0.03598 0.91817 0.55267 0.0
C1675 C 0.05846 0.94493 0.52151 0.0
C1676 C 0.0552 0.93236 0.53425 0.0
C1677 C 0.04327 0.89189 0.56689 0.0
C1678 C 0.04764 0.9063 0.55618 0.0
H1679 H 0.06874 0.94496 0.47945 0.0
H1680 H 0.06824 0.92574 0.50226 0.0
H1681 H 0.03033 0.93967 0.53915 0.0
H1682 H 0.01805 0.88277 0.59978 0.0
H1683 H 0.02663 0.9068 0.58386 0.0
C1684 C 0.17172 0.72411 0.77201 0.0
C1685 C 0.18814 0.72484 0.76701 0.0
C1686 C 0.15975 0.72879 0.76131 0.0
C1687 C 0.15073 0.73375 0.71682 0.0
H1688 H 0.11791 0.76459 0.73702 0.0
C1689 C 0.09143 0.74619 0.6828 0.0
C1690 C 0.08639 0.7635 0.68408 0.0
C1691 C 0.10457 0.74184 0.69218 0.0
C1692 C 0.12705 0.75608 0.73117 0.0
H1693 H 0.20501 0.73057 0.74687 0.0
H1694 H 0.18398 0.73851 0.72782 0.0
H1695 H 0.13948 0.75602 0.75473 0.0
H1696 H 0.09158 0.78987 0.69601 0.0
H1697 H 0.1143 0.78216 0.71265 0.0
H1698 H 0.13818 0.73374 0.69326 0.0
C1699 C 0.18038 0.73435 0.74006 0.0
C1700 C 0.13931 0.75104 0.74133 0.0
C1701 C 0.19238 0.72981 0.75088 0.0
C1702 C 0.09492 0.77636 0.69492 0.0
C1703 C 0.10798 0.77196 0.70441 0.0
C1704 C 0.13835 0.73865 0.70667 0.0
C1705 C 0.16396 0.73414 0.74529 0.0
C1706 C 0.15123 0.73976 0.73429 0.0
C1707 C 0.1129 0.75465 0.70319 0.0
C1708 C 0.12636 0.74983 0.71376 0.0
H1709 H 0.16819 0.72004 0.78429 0.0
H1710 H 0.14718 0.7282 0.76556 0.0
H1711 H 0.15972 0.72499 0.71107 0.0
H1712 H 0.085 0.73587 0.67483 0.0
H1713 H 0.10794 0.72833 0.69116 0.0
C1714 C 0.97569 0.59295 0.47581 0.0
C1715 C 0.97818 0.57725 0.48255 0.0
C1716 C 0.98077 0.60891 0.48477 0.0
C1717 C 0.98777 0.62683 0.52936 0.0
H1718 H 1.00069 0.66936 0.50982 0.0
C1719 C 0.98347 0.69378 0.56848 0.0
C1720 C 0.99643 0.70606 0.56725 0.0
C1721 C 0.98239 0.67852 0.55716 0.0
C1722 C 0.99722 0.65757 0.51549 0.0
H1723 H 0.9888 0.56548 0.50301 0.0
H1724 H 0.99836 0.59324 0.51845 0.0
H1725 H 0.99869 0.64161 0.49146 0.0
H1726 H 0.01827 0.71208 0.5529 0.0
H1727 H 0.01642 0.68532 0.53311 0.0
H1728 H 0.98641 0.6426 0.55335 0.0
C1729 C 0.99212 0.59342 0.50653 0.0
C1730 C 0.99595 0.64169 0.50494 0.0
C1731 C 0.98688 0.57754 0.49764 0.0
C1732 C 0.00805 0.70294 0.55409 0.0
C1733 C 0.007 0.68761 0.54275 0.0
C1734 C 0.98904 0.64263 0.53985 0.0
C1735 C 0.98848 0.60935 0.5006 0.0
C1736 C 0.9911 0.62613 0.51175 0.0
C1737 C 0.99429 0.67508 0.54433 0.0
C1738 C 0.99358 0.65824 0.53305 0.0
H1739 H 0.96876 0.59288 0.46427 0.0
H1740 H 0.97768 0.62088 0.47986 0.0
H1741 H 0.98372 0.61522 0.53505 0.0
H1742 H 0.97415 0.69595 0.57827 0.0
H1743 H 0.97222 0.66936 0.55849 0.0
C1744 C 0.73264 0.81164 0.22929 0.0
C1745 C 0.73363 0.79808 0.23958 0.0
C1746 C 0.74448 0.82529 0.23029 0.0
C1747 C 0.77522 0.8466 0.26053 0.0
H1748 H 0.78711 0.87309 0.22288 0.0
C1749 C 0.82398 0.90306 0.26618 0.0
C1750 C 0.81955 0.91864 0.26017 0.0
C1751 C 0.81436 0.88772 0.26278 0.0
C1752 C 0.78383 0.86583 0.23351 0.0
H1753 H 0.74788 0.78732 0.25819 0.0
H1754 H 0.7691 0.81063 0.25945 0.0
H1755 H 0.76953 0.84672 0.21784 0.0
H1756 H 0.80175 0.93029 0.24559 0.0
H1757 H 0.78496 0.90339 0.23952 0.0
H1758 H 0.78968 0.86563 0.27613 0.0
C1759 C 0.75899 0.81121 0.25101 0.0
C1760 C 0.77373 0.85074 0.23065 0.0
C1761 C 0.74702 0.79775 0.25016 0.0
C1762 C 0.80539 0.91851 0.2505 0.0
C1763 C 0.79587 0.9031 0.2469 0.0
C1764 C 0.78546 0.86153 0.26332 0.0
C1765 C 0.75762 0.82548 0.2415 0.0
C1766 C 0.76917 0.84098 0.24416 0.0
C1767 C 0.80021 0.88757 0.2531 0.0
C1768 C 0.78977 0.87138 0.24988 0.0
H1769 H 0.72223 0.81214 0.22123 0.0
H1770 H 0.74286 0.83608 0.22291 0.0
H1771 H 0.77171 0.83975 0.27137 0.0
H1772 H 0.83478 0.9028 0.27375 0.0
H1773 H 0.81804 0.87592 0.26764 0.0
C1774 C 0.72568 0.17849 0.29612 0.0
C1775 C 0.73141 0.19568 0.29476 0.0
C1776 C 0.73654 0.16547 0.29809 0.0
C1777 C 0.77896 0.15469 0.28865 0.0
H1778 H 0.76926 0.11736 0.31682 0.0
C1779 C 0.82338 0.09956 0.29346 0.0
C1780 C 0.81657 0.08248 0.29325 0.0
C1781 C 0.81349 0.11395 0.29521 0.0
C1782 C 0.77208 0.1276 0.30877 0.0
H1783 H 0.75271 0.21305 0.29503 0.0
H1784 H 0.77187 0.19031 0.29866 0.0
H1785 H 0.75115 0.14166 0.31769 0.0
H1786 H 0.79396 0.06725 0.29508 0.0
H1787 H 0.7767 0.09227 0.29768 0.0
H1788 H 0.79968 0.14052 0.27945 0.0
C1789 C 0.759 0.18681 0.298 0.0
C1790 C 0.76172 0.14156 0.30931 0.0
C1791 C 0.7481 0.19985 0.2961 0.0
C1792 C 0.79962 0.08018 0.29498 0.0
C1793 C 0.78972 0.09457 0.29671 0.0
C1794 C 0.78929 0.14073 0.28808 0.0
C1795 C 0.75336 0.1694 0.29871 0.0
C1796 C 0.76496 0.15519 0.29913 0.0
C1797 C 0.79652 0.11164 0.29677 0.0
C1798 C 0.78591 0.12691 0.29801 0.0
H1799 H 0.71281 0.1751 0.29524 0.0
H1800 H 0.73178 0.15219 0.29846 0.0
H1801 H 0.78168 0.16483 0.28044 0.0
H1802 H 0.83637 0.10182 0.29198 0.0
H1803 H 0.81916 0.1269 0.29538 0.0
C1804 C 0.42587 0.02436 0.96649 0.0
C1805 C 0.43764 0.0287 0.97906 0.0
C1806 C 0.41234 0.01354 0.96964 0.0
C1807 C 0.38655 0.9995 0.0041 0.0
H1808 H 0.3741 0.95999 0.97147 0.0
C1809 C 0.33552 0.94957 0.01918 0.0
C1810 C 0.32548 0.94217 0.00581 0.0
C1811 C 0.34927 0.96001 0.01589 0.0
C1812 C 0.37721 0.97112 0.98061 0.0
H1813 H 0.44469 0.02504 0.00463 0.0
H1814 H 0.42075 0.00647 0.0104 0.0
H1815 H 0.39784 0.97851 0.96564 0.0
H1816 H 0.32224 0.94003 0.9784 0.0
H1817 H 0.34563 0.9589 0.9728 0.0
H1818 H 0.36575 0.99254 0.01888 0.0
C1819 C 0.422 0.01144 0.99811 0.0
C1820 C 0.39088 0.98167 0.97728 0.0
C1821 C 0.43564 0.02205 0.99485 0.0
C1822 C 0.3295 0.94566 0.98908 0.0
C1823 C 0.34313 0.95629 0.98582 0.0
C1824 C 0.37275 0.98911 0.00733 0.0
C1825 C 0.41023 0.00707 0.98553 0.0
C1826 C 0.3957 0.99592 0.98902 0.0
C1827 C 0.35326 0.96355 0.99917 0.0
C1828 C 0.36791 0.97473 0.99566 0.0
H1829 H 0.42706 0.02956 0.95432 0.0
H1830 H 0.40337 0.01051 0.95978 0.0
H1831 H 0.3899 0.01055 0.01327 0.0
H1832 H 0.33274 0.94742 0.03226 0.0
H1833 H 0.35686 0.96515 0.02649 0.0
C1834 C 0.26688 0.32695 0.2973 0.0
C1835 C 0.28307 0.3318 0.30122 0.0
C1836 C 0.25572 0.33969 0.29526 0.0
C1837 C 0.24908 0.38697 0.30569 0.0
H1838 H 0.21756 0.37905 0.26949 0.0
C1839 C 0.2102 0.44188 0.28644 0.0
C1840 C 0.1938 0.43772 0.28259 0.0
C1841 C 0.22078 0.42878 0.28906 0.0
C1842 C 0.22616 0.38138 0.27979 0.0
H1843 H 0.30052 0.3534 0.30607 0.0
H1844 H 0.28115 0.37585 0.30227 0.0
H1845 H 0.23666 0.35656 0.27329 0.0
H1846 H 0.17568 0.41648 0.27846 0.0
H1847 H 0.19412 0.39361 0.28325 0.0
H1848 H 0.23866 0.41184 0.31211 0.0
C1849 C 0.27691 0.36228 0.30101 0.0
C1850 C 0.23711 0.36848 0.28198 0.0
C1851 C 0.28802 0.34951 0.30306 0.0
C1852 C 0.18821 0.42014 0.28153 0.0
C1853 C 0.19882 0.40702 0.2841 0.0
C1854 C 0.23816 0.39987 0.30349 0.0
C1855 C 0.26059 0.35753 0.29709 0.0
C1856 C 0.24875 0.37114 0.29492 0.0
C1857 C 0.21523 0.41119 0.28788 0.0
C1858 C 0.2266 0.39727 0.29047 0.0
H1859 H 0.26293 0.31329 0.29588 0.0
H1860 H 0.24323 0.33557 0.29246 0.0
H1861 H 0.25769 0.38934 0.31598 0.0
H1862 H 0.21487 0.4553 0.28756 0.0
H1863 H 0.23338 0.43244 0.29179 0.0
C1864 C 0.0783 0.01634 0.49227 0.0
C1865 C 0.07805 0.99913 0.48437 0.0
C1866 C 0.09305 0.02557 0.49575 0.0
C1867 C 0.13808 0.02137 0.49674 0.0
H1868 H 0.13845 0.0693 0.48612 0.0
C1869 C 0.19744 0.06299 0.4871 0.0
C1870 C 0.19782 0.08044 0.49459 0.0
C1871 C 0.18301 0.05266 0.48692 0.0
C1872 C 0.13854 0.056 0.48933 0.0
H1873 H 0.09273 0.97768 0.47455 0.0
H1874 H 0.11872 0.99378 0.48034 0.0
H1875 H 0.11312 0.05187 0.48489 0.0
H1876 H 0.18325 0.10076 0.50754 0.0
H1877 H 0.15813 0.08279 0.50725 0.0
H1878 H 0.16371 0.02554 0.50075 0.0
C1879 C 0.10758 1.00017 0.48417 0.0
C1880 C 0.12397 0.04599 0.4887 0.0
C1881 C 0.09275 0.9909 0.48086 0.0
C1882 C 0.18342 0.08733 0.5018 0.0
C1883 C 0.16898 0.07707 0.50151 0.0
C1884 C 0.15272 0.03139 0.49726 0.0
C1885 C 0.10791 0.01783 0.49115 0.0
C1886 C 0.1235 0.02854 0.49244 0.0
C1887 C 0.16859 0.05961 0.49408 0.0
C1888 C 0.15311 0.04884 0.49357 0.0
H1889 H 0.06702 0.02286 0.49502 0.0
H1890 H 0.09279 0.03897 0.50154 0.0
H1891 H 0.13819 0.00805 0.49986 0.0
H1892 H 0.20836 0.05724 0.48157 0.0
H1893 H 0.18308 0.03931 0.48097 0.0
C1894 C 0.77363 0.20788 0.75565 0.0
C1895 C 0.78864 0.20634 0.74709 0.0
C1896 C 0.76511 0.19309 0.76042 0.0
C1897 C 0.76138 0.14563 0.74749 0.0
H1898 H 0.73127 0.1467 0.78594 0.0
C1899 C 0.71962 0.08598 0.76056 0.0
C1900 C 0.70324 0.08954 0.76414 0.0
C1901 C 0.73137 0.09961 0.7602 0.0
C1902 C 0.7396 0.14623 0.77512 0.0
H1903 H 0.80717 0.18858 0.73781 0.0
H1904 H 0.79256 0.16257 0.74662 0.0
H1905 H 0.75027 0.1715 0.78338 0.0
H1906 H 0.68641 0.11019 0.77051 0.0
H1907 H 0.7069 0.13399 0.76985 0.0
H1908 H 0.7506 0.12039 0.73919 0.0
C1909 C 0.78711 0.17513 0.74928 0.0
C1910 C 0.75049 0.16044 0.77363 0.0
C1911 C 0.79559 0.18998 0.74444 0.0
C1912 C 0.6989 0.10703 0.76755 0.0
C1913 C 0.71067 0.12064 0.76736 0.0
C1914 C 0.75059 0.13136 0.74905 0.0
C1915 C 0.7715 0.17642 0.75683 0.0
C1916 C 0.76131 0.16048 0.75961 0.0
C1917 C 0.72702 0.1171 0.76359 0.0
C1918 C 0.73936 0.13165 0.76271 0.0
H1919 H 0.76817 0.22046 0.75792 0.0
H1920 H 0.75311 0.19467 0.76607 0.0
H1921 H 0.76931 0.14526 0.73636 0.0
H1922 H 0.72333 0.07264 0.75776 0.0
H1923 H 0.74388 0.09646 0.75734 0.0
C1924 C 0.44793 0.99989 0.53613 0.0
C1925 C 0.44904 0.99538 0.55281 0.0
C1926 C 0.43553 0.01034 0.53184 0.0
C1927 C 0.40778 0.04348 0.5497 0.0
H1928 H 0.38116 0.02791 0.51047 0.0
C1929 C 0.35053 0.07956 0.5358 0.0
C1930 C 0.34651 0.08052 0.51874 0.0
C1931 C 0.36297 0.06905 0.53985 0.0
C1932 C 0.38862 0.03265 0.5213 0.0
H1933 H 0.43818 0.99826 0.57809 0.0
H1934 H 0.41677 0.01711 0.57079 0.0
H1935 H 0.40337 0.01027 0.51759 0.0
H1936 H 0.35237 0.07136 0.49249 0.0
H1937 H 0.37451 0.05348 0.49942 0.0
H1938 H 0.3935 0.06609 0.55322 0.0
C1939 C 0.42546 0.01248 0.56102 0.0
C1940 C 0.4013 0.02246 0.52541 0.0
C1941 C 0.4377 1.00178 0.56521 0.0
C1942 C 0.35515 0.07073 0.50577 0.0
C1943 C 0.36779 0.06041 0.50978 0.0
C1944 C 0.39528 0.05382 0.54545 0.0
C1945 C 0.42417 0.01674 0.54425 0.0
C1946 C 0.41094 0.02773 0.5397 0.0
C1947 C 0.37189 0.05943 0.5269 0.0
C1948 C 0.38543 0.04851 0.53125 0.0
H1949 H 0.45669 0.99533 0.52643 0.0
H1950 H 0.43492 0.0136 0.51887 0.0
H1951 H 0.41516 0.04794 0.56068 0.0
H1952 H 0.34389 0.08681 0.54606 0.0
H1953 H 0.36544 0.06835 0.55317 0.0
C1954 C 0.57487 0.52083 0.54484 0.0
C1955 C 0.55962 0.51264 0.54132 0.0
C1956 C 0.58906 0.51212 0.53997 0.0
C1957 C 0.60243 0.46674 0.53026 0.0
H1958 H 0.64381 0.48966 0.5204 0.0
C1959 C 0.66049 0.42824 0.51506 0.0
C1960 C 0.67458 0.43487 0.52377 0.0
C1961 C 0.64664 0.43814 0.51537 0.0
C1962 C 0.63233 0.4831 0.5232 0.0
H1963 H 0.54695 0.48965 0.52913 0.0
H1964 H 0.57165 0.47462 0.51977 0.0
H1965 H 0.61926 0.50648 0.52299 0.0
H1966 H 0.68501 0.45729 0.53962 0.0
H1967 H 0.66094 0.47461 0.53989 0.0
H1968 H 0.61551 0.44339 0.53046 0.0
C1969 C 0.57282 0.48751 0.52677 0.0
C1970 C 0.61825 0.49274 0.52472 0.0
C1971 C 0.55868 0.49614 0.53186 0.0
C1972 C 0.67451 0.45182 0.53255 0.0
C1973 C 0.66069 0.46177 0.53273 0.0
C1974 C 0.61645 0.4571 0.52859 0.0
C1975 C 0.58821 0.49508 0.53134 0.0
C1976 C 0.60311 0.48472 0.52843 0.0
C1977 C 0.64656 0.45499 0.52426 0.0
C1978 C 0.63159 0.46519 0.52521 0.0
H1979 H 0.57575 0.53347 0.55237 0.0
H1980 H 0.60063 0.51836 0.54387 0.0
H1981 H 0.59113 0.46013 0.53354 0.0
H1982 H 0.66016 0.41543 0.50786 0.0
H1983 H 0.63601 0.43264 0.50853 0.0
C1984 C 0.72169 0.22242 0.33008 0.0
C1985 C 0.72593 0.2305 0.31548 0.0
C1986 C 0.72601 0.23046 0.34624 0.0
C1987 C 0.75239 0.26513 0.36917 0.0
H1988 H 0.71576 0.27108 0.40057 0.0
C1989 C 0.75331 0.31842 0.42652 0.0
C1990 C 0.74521 0.31496 0.44168 0.0
C1991 C 0.75202 0.30654 0.41183 0.0
C1992 C 0.72623 0.2693 0.39215 0.0
H1993 H 0.73864 0.25254 0.30591 0.0
H1994 H 0.74653 0.26658 0.33412 0.0
H1995 H 0.71262 0.2522 0.37387 0.0
H1996 H 0.72964 0.29619 0.45344 0.0
H1997 H 0.72762 0.27524 0.4279 0.0
H1998 H 0.76601 0.28227 0.38737 0.0
C1999 C 0.73988 0.25408 0.3332 0.0
C2000 C 0.72441 0.25846 0.37682 0.0
C2001 C 0.73539 0.24613 0.3171 0.0
C2002 C 0.73586 0.2993 0.44187 0.0
C2003 C 0.73469 0.28732 0.42721 0.0
C2004 C 0.75426 0.27584 0.38459 0.0
C2005 C 0.7348 0.24661 0.34798 0.0
C2006 C 0.73739 0.25649 0.36504 0.0
C2007 C 0.74273 0.2908 0.41197 0.0
C2008 C 0.74112 0.27834 0.39615 0.0
H2009 H 0.71426 0.21042 0.32899 0.0
H2010 H 0.72204 0.22435 0.3574 0.0
H2011 H 0.76264 0.26372 0.3604 0.0
H2012 H 0.76043 0.3305 0.42593 0.0
H2013 H 0.75809 0.30989 0.40027 0.0
C2014 C 0.48221 0.0562 0.93453 0.0
C2015 C 0.48596 0.05517 0.95163 0.0
C2016 C 0.49448 0.05582 0.92207 0.0
C2017 C 0.5387 0.06034 0.9141 0.0
H2018 H 0.52896 0.02687 0.8748 0.0
C2019 C 0.58718 0.03837 0.86244 0.0
C2020 C 0.58208 0.03543 0.84539 0.0
C2021 C 0.5759 0.04181 0.87578 0.0
C2022 C 0.53184 0.03647 0.88552 0.0
H2023 H 0.50536 0.05406 0.96944 0.0
H2024 H 0.52708 0.05354 0.94758 0.0
H2025 H 0.50866 0.03214 0.89729 0.0
H2026 H 0.56098 0.0338 0.82915 0.0
H2027 H 0.54154 0.0404 0.8522 0.0
H2028 H 0.56191 0.06473 0.9022 0.0
C2029 C 0.51464 0.05462 0.9438 0.0
C2030 C 0.52018 0.03948 0.89846 0.0
C2031 C 0.50228 0.05495 0.9563 0.0
C2032 C 0.56544 0.03621 0.84206 0.0
C2033 C 0.55422 0.03975 0.85535 0.0
C2034 C 0.55038 0.05742 0.90105 0.0
C2035 C 0.51078 0.05445 0.92647 0.0
C2036 C 0.52341 0.05151 0.91285 0.0
C2037 C 0.55925 0.04244 0.87241 0.0
C2038 C 0.54705 0.0455 0.88653 0.0
H2039 H 0.46968 0.05656 0.93076 0.0
H2040 H 0.49114 0.05609 0.90889 0.0
H2041 H 0.54152 0.06972 0.92503 0.0
H2042 H 0.59991 0.03808 0.86551 0.0
H2043 H 0.58022 0.04367 0.88876 0.0
C2044 C 0.31594 0.29275 0.34333 0.0
C2045 C 0.31321 0.2868 0.32612 0.0
C2046 C 0.31614 0.28095 0.35551 0.0
C2047 C 0.31957 0.23545 0.36373 0.0
H2048 H 0.28686 0.24669 0.39877 0.0
C2049 C 0.2995 0.18713 0.41249 0.0
C2050 C 0.29451 0.19412 0.42888 0.0
C2051 C 0.30292 0.19808 0.39972 0.0
C2052 C 0.29629 0.24343 0.38936 0.0
H2053 H 0.31001 0.26394 0.30782 0.0
H2054 H 0.31085 0.24303 0.32916 0.0
H2055 H 0.29242 0.2663 0.37716 0.0
H2056 H 0.28982 0.21803 0.44498 0.0
H2057 H 0.29643 0.23719 0.42312 0.0
H2058 H 0.3238 0.21279 0.37616 0.0
C2059 C 0.31262 0.25686 0.33323 0.0
C2060 C 0.2994 0.25469 0.37688 0.0
C2061 C 0.31223 0.26876 0.32103 0.0
C2062 C 0.29337 0.21227 0.43236 0.0
C2063 C 0.29708 0.22324 0.41974 0.0
C2064 C 0.31668 0.22428 0.37645 0.0
C2065 C 0.31387 0.26293 0.35067 0.0
C2066 C 0.31106 0.25085 0.36395 0.0
C2067 C 0.30172 0.21633 0.40313 0.0
C2068 C 0.30498 0.22812 0.38948 0.0
H2069 H 0.3169 0.30662 0.34745 0.0
H2070 H 0.31737 0.28597 0.36883 0.0
H2071 H 0.32863 0.2322 0.3539 0.0
H2072 H 0.3004 0.17315 0.40945 0.0
H2073 H 0.30619 0.19216 0.3871 0.0
C2074 C 0.5225 0.47263 0.93979 0.0
C2075 C 0.52927 0.48759 0.94927 0.0
C2076 C 0.51044 0.47409 0.92788 0.0
C2077 C 0.49329 0.50504 0.90139 0.0
H2078 H 0.45574 0.47279 0.89956 0.0
C2079 C 0.43834 0.51301 0.8589 0.0
C2080 C 0.43112 0.49774 0.85026 0.0
C2081 C 0.45002 0.51202 0.87134 0.0
C2082 C 0.46623 0.48177 0.89975 0.0
H2083 H 0.5289 0.51572 0.95389 0.0
H2084 H 0.50787 0.51842 0.93289 0.0
H2085 H 0.47688 0.47054 0.92029 0.0
H2086 H 0.43033 0.46942 0.84829 0.0
H2087 H 0.45098 0.46768 0.86958 0.0
H2088 H 0.48278 0.51614 0.88071 0.0
C2089 C 0.51193 0.50556 0.93456 0.0
C2090 C 0.47834 0.48049 0.91165 0.0
C2091 C 0.52393 0.50406 0.94655 0.0
C2092 C 0.43577 0.48146 0.85451 0.0
C2093 C 0.44748 0.48046 0.86691 0.0
C2094 C 0.48122 0.50627 0.88941 0.0
C2095 C 0.50498 0.49057 0.92515 0.0
C2096 C 0.49203 0.49208 0.91259 0.0
C2097 C 0.45481 0.49572 0.87545 0.0
C2098 C 0.46754 0.49462 0.88841 0.0
H2099 H 0.5266 0.45983 0.9416 0.0
H2100 H 0.5055 0.46232 0.92067 0.0
H2101 H 0.50379 0.51402 0.90164 0.0
H2102 H 0.43521 0.52578 0.85584 0.0
H2103 H 0.45524 0.52405 0.8778 0.0
C2104 C 0.7122 0.7715 0.1975 0.0
C2105 C 0.72146 0.77035 0.21199 0.0
C2106 C 0.71799 0.76514 0.18135 0.0
C2107 C 0.75451 0.74937 0.15679 0.0
H2108 H 0.7222 0.72218 0.12885 0.0
C2109 C 0.77042 0.70186 0.09682 0.0
C2110 C 0.76004 0.70113 0.08278 0.0
C2111 C 0.76661 0.7118 0.11222 0.0
C2112 C 0.73135 0.72992 0.13635 0.0
H2113 H 0.74424 0.76257 0.22119 0.0
H2114 H 0.75448 0.75117 0.19287 0.0
H2115 H 0.71419 0.73727 0.15619 0.0
H2116 H 0.73792 0.71097 0.07372 0.0
H2117 H 0.73128 0.72824 0.10053 0.0
H2118 H 0.77172 0.74164 0.13691 0.0
C2119 C 0.7428 0.75713 0.19389 0.0
C2120 C 0.72675 0.73862 0.15206 0.0
C2121 C 0.737 0.76362 0.21007 0.0
C2122 C 0.74601 0.71095 0.08438 0.0
C2123 C 0.74221 0.72086 0.09975 0.0
C2124 C 0.75914 0.74059 0.14103 0.0
C2125 C 0.73314 0.75736 0.17938 0.0
C2126 C 0.73824 0.7485 0.16248 0.0
C2127 C 0.75233 0.72122 0.11394 0.0
C2128 C 0.74758 0.73079 0.13061 0.0
H2129 H 0.70024 0.77683 0.19879 0.0
H2130 H 0.7104 0.76594 0.17044 0.0
H2131 H 0.76365 0.75696 0.16443 0.0
H2132 H 0.78123 0.6943 0.09608 0.0
H2133 H 0.77457 0.71164 0.12295 0.0
C2134 C 0.00937 0.03576 0.09513 0.0
C2135 C 0.01254 0.02088 0.08386 0.0
C2136 C 0.99866 0.03461 0.10894 0.0
C2137 C 0.98039 0.00327 0.13648 0.0
H2138 H 0.94907 0.039 0.14784 0.0
C2139 C 0.93051 0.99693 0.1881 0.0
C2140 C 0.92691 0.01208 0.19893 0.0
C2141 C 0.9407 0.99792 0.17385 0.0
C2142 C 0.95787 0.02902 0.14497 0.0
H2143 H 0.00706 0.99328 0.07777 0.0
H2144 H 0.9883 0.99107 0.10206 0.0
H2145 H 0.96735 0.04088 0.12338 0.0
H2146 H 0.93112 0.0402 0.20307 0.0
H2147 H 0.94924 0.04186 0.1785 0.0
H2148 H 0.97107 0.99149 0.15815 0.0
C2149 C 0.99418 0.00361 0.10037 0.0
C2150 C 0.96833 0.03009 0.13094 0.0
C2151 C 0.00483 0.00483 0.0865 0.0
C2152 C 0.93376 0.02824 0.19513 0.0
C2153 C 0.94399 0.02923 0.18089 0.0
C2154 C 0.96998 1.00223 0.15056 0.0
C2155 C 0.99097 0.0185 0.11175 0.0
C2156 C 0.97972 0.01724 0.12654 0.0
C2157 C 0.9476 0.01407 0.17008 0.0
C2158 C 0.9586 0.0151 0.155 0.0
H2159 H 0.01528 0.04824 0.09323 0.0
H2160 H 0.99658 0.04627 0.11758 0.0
H2161 H 0.9892 0.9933 0.13357 0.0
H2162 H 0.92561 0.98423 0.19075 0.0
H2163 H 0.94306 0.98601 0.1657 0.0
C2164 C 0.29405 0.76793 0.20896 0.0
C2165 C 0.2977 0.75036 0.20501 0.0
C2166 C 0.2908 0.77816 0.19596 0.0
C2167 C 0.27722 0.77421 0.15129 0.0
H2168 H 0.29323 0.8224 0.15285 0.0
C2169 C 0.27058 0.81447 0.09457 0.0
C2170 C 0.26662 0.83207 0.09822 0.0
C2171 C 0.27452 0.80466 0.10766 0.0
C2172 C 0.2885 0.80902 0.15232 0.0
H2173 H 0.30115 0.72958 0.18474 0.0
H2174 H 0.29564 0.74741 0.1618 0.0
H2175 H 0.30019 0.80507 0.17551 0.0
H2176 H 0.26352 0.85306 0.11858 0.0
H2177 H 0.27034 0.83592 0.14143 0.0
H2178 H 0.26547 0.77815 0.12816 0.0
C2179 C 0.29506 0.75333 0.1749 0.0
C2180 C 0.29251 0.79908 0.16531 0.0
C2181 C 0.29833 0.74315 0.18792 0.0
C2182 C 0.2667 0.8396 0.1153 0.0
C2183 C 0.27063 0.82978 0.1284 0.0
C2184 C 0.27319 0.78415 0.13833 0.0
C2185 C 0.2911 0.77092 0.17876 0.0
C2186 C 0.28694 0.78154 0.16493 0.0
C2187 C 0.2746 0.81218 0.12474 0.0
C2188 C 0.2788 0.80167 0.13865 0.0
H2189 H 0.29343 0.77359 0.22215 0.0
H2190 H 0.28763 0.79159 0.1994 0.0
H2191 H 0.27247 0.76084 0.15075 0.0
H2192 H 0.27094 0.80833 0.08154 0.0
H2193 H 0.27779 0.79124 0.10434 0.0
C2194 C 0.99612 0.45953 0.09062 0.0
C2195 C 0.99644 0.47132 0.0783 0.0
C2196 C 0.00847 0.46036 0.1027 0.0
C2197 C 0.03769 0.49271 0.12397 0.0
H2198 H 0.05582 0.45301 0.14174 0.0
C2199 C 0.08831 0.50208 0.17387 0.0
C2200 C 0.08754 0.49138 0.1872 0.0
C2201 C 0.07807 0.49861 0.15986 0.0
C2202 C 0.05075 0.46424 0.13704 0.0
H2203 H 0.01025 0.49227 0.068 0.0
H2204 H 0.03194 0.4937 0.08891 0.0
H2205 H 0.03671 0.44821 0.11817 0.0
H2206 H 0.07552 0.46832 0.19592 0.0
H2207 H 0.05732 0.46261 0.17177 0.0
H2208 H 0.05133 0.50876 0.14294 0.0
C2209 C 0.02205 0.48405 0.08956 0.0
C2210 C 0.03983 0.46147 0.1235 0.0
C2211 C 0.00975 0.48319 0.07754 0.0
C2212 C 0.07633 0.47699 0.18603 0.0
C2213 C 0.06602 0.47357 0.17203 0.0
C2214 C 0.0485 0.49547 0.13751 0.0
C2215 C 0.02131 0.47303 0.10263 0.0
C2216 C 0.03321 0.4757 0.11676 0.0
C2217 C 0.06667 0.48441 0.15881 0.0
C2218 C 0.05522 0.48129 0.14424 0.0
H2219 H 0.98587 0.45038 0.09147 0.0
H2220 H 0.00749 0.45172 0.11262 0.0
H2221 H 0.03254 0.50396 0.11937 0.0
H2222 H 0.09663 0.51339 0.17437 0.0
H2223 H 0.07911 0.50712 0.14983 0.0
C2224 C 0.31825 0.7252 0.26909 0.0
C2225 C 0.32218 0.72263 0.25165 0.0
C2226 C 0.33006 0.72353 0.28129 0.0
C2227 C 0.37464 0.72672 0.2856 0.0
H2228 H 0.366 0.7084 0.32883 0.0
C2229 C 0.4204 0.73798 0.34026 0.0
C2230 C 0.4233 0.72382 0.34943 0.0
C2231 C 0.40757 0.7371 0.32883 0.0
C2232 C 0.36864 0.71345 0.31676 0.0
H2233 H 0.34093 0.71516 0.23311 0.0
H2234 H 0.36158 0.712 0.25428 0.0
H2235 H 0.3445 0.70696 0.30769 0.0
H2236 H 0.41475 0.69768 0.35383 0.0
H2237 H 0.39231 0.69615 0.33384 0.0
H2238 H 0.39875 0.73306 0.29448 0.0
C2239 C 0.34956 0.71574 0.25866 0.0
C2240 C 0.35627 0.71277 0.30471 0.0
C2241 C 0.33778 0.71745 0.24654 0.0
C2242 C 0.41278 0.70889 0.34712 0.0
C2243 C 0.39992 0.70801 0.33565 0.0
C2244 C 0.38694 0.72744 0.29762 0.0
C2245 C 0.346 0.71922 0.2762 0.0
C2246 C 0.35913 0.71941 0.28897 0.0
C2247 C 0.39727 0.72203 0.32622 0.0
C2248 C 0.3841 0.72091 0.31339 0.0
H2249 H 0.30627 0.72929 0.27324 0.0
H2250 H 0.3269 0.7264 0.29466 0.0
H2251 H 0.37723 0.73219 0.27374 0.0
H2252 H 0.42802 0.74983 0.34198 0.0
H2253 H 0.40569 0.74829 0.32206 0.0
C2254 C 0.96939 0.4284 0.05521 0.0
C2255 C 0.98038 0.44255 0.05364 0.0
C2256 C 0.97268 0.41177 0.04736 0.0
C2257 C 0.00331 0.38282 0.02719 0.0
H2258 H 0.96845 0.36588 0.99653 0.0
C2259 C 0.00996 0.3234 0.97564 0.0
C2260 C 0.99605 0.3127 0.97117 0.0
C2261 C 0.0088 0.33875 0.98685 0.0
C2262 C 0.9782 0.37012 0.00523 0.0
H2263 H 0.00398 0.45035 0.04398 0.0
H2264 H 0.01005 0.42096 0.03045 0.0
H2265 H 0.96564 0.39281 0.01524 0.0
H2266 H 0.96998 0.30995 0.97538 0.0
H2267 H 0.96815 0.33586 0.99554 0.0
H2268 H 0.01577 0.35992 0.01746 0.0
C2269 C 0.99881 0.4228 0.03765 0.0
C2270 C 0.9766 0.38567 0.01591 0.0
C2271 C 0.99541 0.43954 0.04541 0.0
C2272 C 0.98104 0.31761 0.97859 0.0
C2273 C 0.97993 0.33276 0.98999 0.0
C2274 C 0.00483 0.36703 0.01667 0.0
C2275 C 0.98715 0.40894 0.03795 0.0
C2276 C 0.98909 0.39218 0.02701 0.0
C2277 C 0.99374 0.34372 0.99411 0.0
C2278 C 0.99227 0.36045 0.00553 0.0
H2279 H 0.95779 0.43049 0.06164 0.0
H2280 H 0.96359 0.40127 0.04801 0.0
H2281 H 0.01312 0.38758 0.03564 0.0
H2282 H 0.02182 0.31998 0.97052 0.0
H2283 H 0.01971 0.34685 0.98952 0.0
C2284 C 0.6856 0.76679 0.27864 0.0
C2285 C 0.68358 0.76985 0.26164 0.0
C2286 C 0.6721 0.76363 0.28905 0.0
C2287 C 0.62716 0.76825 0.2916 0.0
H2288 H 0.62974 0.73696 0.32657 0.0
C2289 C 0.57111 0.74349 0.32876 0.0
C2290 C 0.57245 0.74563 0.3466 0.0
C2291 C 0.58471 0.74625 0.31838 0.0
C2292 C 0.6289 0.74579 0.31689 0.0
H2293 H 0.66596 0.77198 0.24211 0.0
H2294 H 0.64241 0.76549 0.25982 0.0
H2295 H 0.65334 0.74177 0.30825 0.0
H2296 H 0.58902 0.75193 0.36759 0.0
H2297 H 0.61293 0.75641 0.34938 0.0
H2298 H 0.60251 0.77176 0.30002 0.0
C2299 C 0.65434 0.76602 0.26542 0.0
C2300 C 0.64244 0.74865 0.30644 0.0
C2301 C 0.66783 0.76946 0.25514 0.0
C2302 C 0.58767 0.75032 0.35387 0.0
C2303 C 0.60133 0.75276 0.34347 0.0
C2304 C 0.61357 0.76514 0.30186 0.0
C2305 C 0.65625 0.7632 0.28258 0.0
C2306 C 0.64179 0.75998 0.29367 0.0
C2307 C 0.59995 0.75088 0.32564 0.0
C2308 C 0.61433 0.75394 0.31464 0.0
H2309 H 0.69765 0.7669 0.28388 0.0
H2310 H 0.67412 0.76179 0.30223 0.0
H2311 H 0.62623 0.77736 0.28222 0.0
H2312 H 0.55949 0.73995 0.32287 0.0
H2313 H 0.58336 0.74463 0.30465 0.0
C2314 C 0.04909 0.05714 0.03645 0.0
C2315 C 0.03918 0.04196 0.03312 0.0
C2316 C 0.04943 0.06999 0.02525 0.0
C2317 C 0.03736 0.07984 0.9823 0.0
H2318 H 0.02966 0.12574 0.00577 0.0
C2319 C 0.01232 0.13524 0.94789 0.0
C2320 C 0.01776 0.15253 0.95305 0.0
C2321 C 0.0168 0.12157 0.95685 0.0
C2322 C 0.03209 0.11312 0.99894 0.0
H2323 H 0.02271 0.02756 0.01525 0.0
H2324 H 0.02334 0.04989 0.99543 0.0
H2325 H 0.03545 0.10193 0.02216 0.0
H2326 H 0.03258 0.16894 0.97133 0.0
H2327 H 0.04059 0.14513 0.98681 0.0
H2328 H 0.03386 0.09102 0.95906 0.0
C2329 C 0.03091 0.05196 0.00661 0.0
C2330 C 0.03543 0.09944 0.00838 0.0
C2331 C 0.03052 0.03918 0.01788 0.0
C2332 C 0.02795 0.1558 0.96722 0.0
C2333 C 0.03253 0.14213 0.9761 0.0
C2334 C 0.03412 0.09358 0.97283 0.0
C2335 C 0.03989 0.06781 0.0105 0.0
C2336 C 0.03793 0.08259 1.0002 0.0
C2337 C 0.02693 0.12483 0.97112 0.0
C2338 C 0.03125 0.11036 0.98104 0.0
H2339 H 0.05571 0.0595 0.04827 0.0
H2340 H 0.05664 0.08195 0.02849 0.0
H2341 H 0.03936 0.06704 0.97562 0.0
H2342 H 0.00433 0.13233 0.93711 0.0
H2343 H 0.01201 0.10849 0.95279 0.0
C2344 C 0.32953 0.28457 0.2758 0.0
C2345 C 0.32987 0.29355 0.29226 0.0
C2346 C 0.34396 0.28098 0.26675 0.0
C2347 C 0.3862 0.29873 0.2647 0.0
H2348 H 0.39071 0.2598 0.22954 0.0
C2349 C 0.4433 0.29119 0.22062 0.0
C2350 C 0.44034 0.28665 0.20314 0.0
C2351 C 0.43066 0.29055 0.23269 0.0
C2352 C 0.3896 0.27079 0.23926 0.0
H2353 H 0.34536 0.30478 0.31273 0.0
H2354 H 0.37081 0.29805 0.29717 0.0
H2355 H 0.36756 0.25996 0.2493 0.0
H2356 H 0.42179 0.27764 0.18472 0.0
H2357 H 0.39974 0.27662 0.20575 0.0
H2358 H 0.4082 0.3096 0.25453 0.0
C2359 C 0.35939 0.2941 0.29104 0.0
C2360 C 0.37632 0.27089 0.25061 0.0
C2361 C 0.34488 0.29772 0.30007 0.0
C2362 C 0.42446 0.28139 0.19805 0.0
C2363 C 0.41185 0.2806 0.21013 0.0
C2364 C 0.39954 0.29856 0.25342 0.0
C2365 C 0.35911 0.28625 0.27401 0.0
C2366 C 0.37426 0.28502 0.26329 0.0
C2367 C 0.41478 0.2852 0.22759 0.0
C2368 C 0.40124 0.28475 0.24036 0.0
H2369 H 0.31803 0.28129 0.26959 0.0
H2370 H 0.34315 0.27506 0.25367 0.0
H2371 H 0.38493 0.30999 0.27407 0.0
H2372 H 0.45537 0.29542 0.22496 0.0
H2373 H 0.43334 0.2941 0.24604 0.0
C2374 C 0.54985 0.47486 0.01483 0.0
C2375 C 0.55713 0.46949 0.99904 0.0
C2376 C 0.5491 0.46378 0.02773 0.0
C2377 C 0.56424 0.42286 0.04139 0.0
H2378 H 0.52042 0.41743 0.05941 0.0
C2379 C 0.54241 0.36242 0.07426 0.0
C2380 C 0.53097 0.36451 0.08773 0.0
C2381 C 0.54699 0.37635 0.06501 0.0
C2382 C 0.53281 0.41894 0.05481 0.0
H2383 H 0.57016 0.44909 0.98443 0.0
H2384 H 0.56914 0.42962 0.00702 0.0
H2385 H 0.52695 0.44028 0.04125 0.0
H2386 H 0.51554 0.38316 0.10209 0.0
H2387 H 0.5239 0.40755 0.08638 0.0
H2388 H 0.57006 0.40138 0.05486 0.0
C2389 C 0.56405 0.44239 0.00959 0.0
C2390 C 0.53656 0.43209 0.04436 0.0
C2391 C 0.56472 0.45348 0.99668 0.0
C2392 C 0.52447 0.38104 0.0919 0.0
C2393 C 0.52913 0.39501 0.08272 0.0
C2394 C 0.56051 0.40975 0.05196 0.0
C2395 C 0.55566 0.44712 0.02501 0.0
C2396 C 0.55227 0.4341 0.03736 0.0
C2397 C 0.54035 0.39283 0.06904 0.0
C2398 C 0.54468 0.40746 0.05865 0.0
H2399 H 0.54379 0.48712 0.01673 0.0
H2400 H 0.54276 0.46792 0.03954 0.0
H2401 H 0.57649 0.42415 0.03631 0.0
H2402 H 0.54793 0.35 0.07083 0.0
H2403 H 0.55551 0.37406 0.05446 0.0
C2404 C 0.67644 0.21435 0.26232 0.0
C2405 C 0.68982 0.22602 0.26568 0.0
C2406 C 0.66396 0.21845 0.25189 0.0
C2407 C 0.65377 0.24817 0.21997 0.0
H2408 H 0.60949 0.23662 0.23358 0.0
C2409 C 0.59762 0.27558 0.19078 0.0
C2410 C 0.58446 0.2637 0.18662 0.0
C2411 C 0.61074 0.27072 0.19992 0.0
C2412 C 0.62179 0.23978 0.22952 0.0
H2413 H 0.70098 0.25083 0.26059 0.0
H2414 H 0.679 0.25835 0.24274 0.0
H2415 H 0.63196 0.22848 0.25022 0.0
H2416 H 0.57504 0.23724 0.18855 0.0
H2417 H 0.59777 0.22893 0.20473 0.0
H2418 H 0.64348 0.25977 0.19942 0.0
C2419 C 0.67818 0.2459 0.24788 0.0
C2420 C 0.6347 0.23507 0.23902 0.0
C2421 C 0.69069 0.24171 0.25821 0.0
C2422 C 0.58479 0.24685 0.19181 0.0
C2423 C 0.59784 0.24205 0.20105 0.0
C2424 C 0.64084 0.25299 0.21053 0.0
C2425 C 0.66457 0.23438 0.24471 0.0
C2426 C 0.65086 0.23918 0.23437 0.0
C2427 C 0.61095 0.25393 0.20522 0.0
C2428 C 0.62472 0.24883 0.2152 0.0
H2429 H 0.6755 0.20224 0.26806 0.0
H2430 H 0.65381 0.20915 0.24952 0.0
H2431 H 0.66606 0.25133 0.21586 0.0
H2432 H 0.59768 0.28874 0.18722 0.0
H2433 H 0.62058 0.28023 0.20314 0.0
C2434 C 0.48537 0.07875 1.00171 0.0
C2435 C 0.47917 0.07745 0.98519 0.0
C2436 C 0.49101 0.09484 0.0098 0.0
C2437 C 0.48459 0.14169 0.00916 0.0
H2438 H 0.5176 0.14645 0.04394 0.0
C2439 C 0.49924 0.20684 0.05165 0.0
C2440 C 0.50008 0.20533 0.06921 0.0
C2441 C 0.49866 0.1919 0.03978 0.0
C2442 C 0.50833 0.14531 0.03428 0.0
H2443 H 0.47486 0.0915 0.96364 0.0
H2444 H 0.48516 0.11983 0.97757 0.0
H2445 H 0.51435 0.11915 0.02523 0.0
H2446 H 0.50131 0.18703 0.08804 0.0
H2447 H 0.50029 0.161 0.06735 0.0
H2448 H 0.4785 0.16784 0.0184 0.0
C2449 C 0.48538 0.10846 0.98446 0.0
C2450 C 0.50645 0.12967 0.02356 0.0
C2451 C 0.47969 0.09228 0.97639 0.0
C2452 C 0.50049 0.18861 0.07462 0.0
C2453 C 0.5001 0.17371 0.06275 0.0
C2454 C 0.48657 0.1574 0.01981 0.0
C2455 C 0.49064 0.11004 1.00148 0.0
C2456 C 0.49428 0.12748 0.01114 0.0
C2457 C 0.49914 0.17518 0.04521 0.0
C2458 C 0.49819 0.15922 0.03275 0.0
H2459 H 0.48504 0.0674 0.00867 0.0
H2460 H 0.49478 0.09549 0.02293 0.0
H2461 H 0.47494 0.14044 0.99994 0.0
H2462 H 0.49882 0.21956 0.04712 0.0
H2463 H 0.49797 0.19344 0.02634 0.0
C2464 C 0.22494 0.32113 0.73575 0.0
C2465 C 0.2297 0.30398 0.73635 0.0
C2466 C 0.23652 0.33491 0.73589 0.0
C2467 C 0.27917 0.34612 0.74864 0.0
H2468 H 0.27114 0.38872 0.72888 0.0
C2469 C 0.32465 0.40619 0.75161 0.0
C2470 C 0.31792 0.42219 0.75768 0.0
C2471 C 0.31462 0.39123 0.74761 0.0
C2472 C 0.27351 0.3769 0.73448 0.0
H2473 H 0.25022 0.28751 0.73645 0.0
H2474 H 0.27068 0.31144 0.73584 0.0
H2475 H 0.25276 0.36321 0.72284 0.0
H2476 H 0.29548 0.43517 0.76413 0.0
H2477 H 0.27791 0.40906 0.75683 0.0
H2478 H 0.30011 0.3599 0.76003 0.0
C2479 C 0.25796 0.31442 0.73588 0.0
C2480 C 0.26295 0.36227 0.73109 0.0
C2481 C 0.2463 0.30065 0.73596 0.0
C2482 C 0.30098 0.42297 0.75958 0.0
C2483 C 0.29094 0.4081 0.75529 0.0
C2484 C 0.28987 0.36067 0.75178 0.0
C2485 C 0.25322 0.33181 0.73634 0.0
C2486 C 0.26543 0.34677 0.7384 0.0
C2487 C 0.29766 0.39208 0.74929 0.0
C2488 C 0.28697 0.37629 0.745 0.0
H2489 H 0.21218 0.32392 0.7358 0.0
H2490 H 0.23229 0.34805 0.73641 0.0
H2491 H 0.28139 0.33458 0.75476 0.0
H2492 H 0.33769 0.40523 0.75011 0.0
H2493 H 0.3201 0.37905 0.74298 0.0
C2494 C 0.23144 0.68521 0.8041 0.0
C2495 C 0.23392 0.69801 0.79295 0.0
C2496 C 0.24287 0.67244 0.80493 0.0
C2497 C 0.27666 0.65167 0.77922 0.0
H2498 H 0.2834 0.62974 0.82026 0.0
C2499 C 0.32551 0.60085 0.78384 0.0
C2500 C 0.32003 0.58531 0.79026 0.0
C2501 C 0.31562 0.61522 0.78493 0.0
C2502 C 0.28157 0.63573 0.8087 0.0
H2503 H 0.25035 0.70829 0.77457 0.0
H2504 H 0.2708 0.68656 0.77646 0.0
H2505 H 0.26567 0.65441 0.82131 0.0
H2506 H 0.30007 0.57274 0.80316 0.0
H2507 H 0.28284 0.59802 0.80528 0.0
H2508 H 0.29285 0.63314 0.76674 0.0
C2509 C 0.25984 0.68584 0.78418 0.0
C2510 C 0.27136 0.64983 0.80925 0.0
C2511 C 0.24828 0.69841 0.78319 0.0
C2512 C 0.30455 0.58453 0.79802 0.0
C2513 C 0.29476 0.59901 0.79935 0.0
C2514 C 0.28705 0.63777 0.77874 0.0
C2515 C 0.25712 0.67238 0.79474 0.0
C2516 C 0.26865 0.65792 0.79448 0.0
C2517 C 0.30015 0.61445 0.79269 0.0
C2518 C 0.28951 0.62957 0.79343 0.0
H2519 H 0.22031 0.68465 0.81158 0.0
H2520 H 0.24016 0.66223 0.81304 0.0
H2521 H 0.27464 0.65722 0.76746 0.0
H2522 H 0.33733 0.60177 0.7777 0.0
H2523 H 0.3201 0.62699 0.77976 0.0
C2524 C 0.93474 0.52201 0.49267 0.0
C2525 C 0.93626 0.529 0.47703 0.0
C2526 C 0.92106 0.51163 0.4963 0.0
C2527 C 0.87866 0.5001 0.48214 0.0
H2528 H 0.88304 0.46224 0.50991 0.0
C2529 C 0.82259 0.46176 0.50627 0.0
C2530 C 0.82399 0.44389 0.50758 0.0
C2531 C 0.83626 0.47217 0.50257 0.0
C2532 C 0.88157 0.4726 0.50195 0.0
H2533 H 0.92485 0.53056 0.45284 0.0
H2534 H 0.90131 0.51168 0.45869 0.0
H2535 H 0.90694 0.47956 0.50273 0.0
H2536 H 0.84061 0.42275 0.50563 0.0
H2537 H 0.86433 0.44066 0.49861 0.0
H2538 H 0.85341 0.49259 0.48069 0.0
C2539 C 0.9104 0.51458 0.46844 0.0
C2540 C 0.89531 0.48277 0.49806 0.0
C2541 C 0.92399 0.52518 0.46494 0.0
C2542 C 0.83926 0.43656 0.50494 0.0
C2543 C 0.85286 0.44689 0.50099 0.0
C2544 C 0.86496 0.48977 0.48584 0.0
C2545 C 0.90869 0.50775 0.48423 0.0
C2546 C 0.89405 0.49672 0.48815 0.0
C2547 C 0.85159 0.46487 0.49985 0.0
C2548 C 0.8662 0.4759 0.49584 0.0
H2549 H 0.94414 0.52467 0.50212 0.0
H2550 H 0.92012 0.50687 0.5087 0.0
H2551 H 0.87712 0.51086 0.47469 0.0
H2552 H 0.81096 0.46773 0.50838 0.0
H2553 H 0.83481 0.48599 0.50211 0.0
C2554 C 0.76802 0.8279 0.80125 0.0
C2555 C 0.78473 0.83225 0.8014 0.0
C2556 C 0.75677 0.84058 0.79932 0.0
C2557 C 0.75277 0.88878 0.80258 0.0
H2558 H 0.71439 0.8764 0.77543 0.0
C2559 C 0.71152 0.94036 0.78061 0.0
C2560 C 0.69464 0.93728 0.78221 0.0
C2561 C 0.72224 0.92744 0.78334 0.0
C2562 C 0.72498 0.88001 0.78318 0.0
H2563 H 0.80286 0.85314 0.79983 0.0
H2564 H 0.78337 0.87525 0.79583 0.0
H2565 H 0.73366 0.8541 0.77934 0.0
H2566 H 0.67579 0.91814 0.78775 0.0
H2567 H 0.69457 0.89549 0.79247 0.0
H2568 H 0.7442 0.91478 0.8061 0.0
C2569 C 0.77882 0.86215 0.79752 0.0
C2570 C 0.73601 0.86722 0.78547 0.0
C2571 C 0.79002 0.84948 0.79959 0.0
C2572 C 0.68873 0.92094 0.78653 0.0
C2573 C 0.69947 0.90794 0.7891 0.0
C2574 C 0.74181 0.90158 0.80016 0.0
C2575 C 0.76203 0.85789 0.79739 0.0
C2576 C 0.75009 0.87144 0.79517 0.0
C2577 C 0.71635 0.91108 0.78759 0.0
C2578 C 0.72781 0.89736 0.7904 0.0
H2579 H 0.7637 0.81464 0.80253 0.0
H2580 H 0.74396 0.83684 0.79951 0.0
H2581 H 0.76328 0.89247 0.81041 0.0
H2582 H 0.71645 0.95287 0.77745 0.0
H2583 H 0.73517 0.93021 0.78194 0.0
C2584 C 0.58141 0.50768 0.99698 0.0
C2585 C 0.57998 0.49514 0.98275 0.0
C2586 C 0.59637 0.51646 1.00076 0.0
C2587 C 0.64078 0.5165 0.98995 0.0
H2588 H 0.63814 0.56664 1.00061 0.0
C2589 C 0.69574 0.56475 0.98262 0.0
C2590 C 0.69775 0.5792 0.99508 0.0
C2591 C 0.6818 0.55368 0.98261 0.0
C2592 C 0.63913 0.55264 0.99787 0.0
H2593 H 0.5929 0.48098 0.96195 0.0
H2594 H 0.61908 0.4963 0.96832 0.0
H2595 H 0.61335 0.54824 0.99879 0.0
H2596 H 0.68674 0.59297 0.01762 0.0
H2597 H 0.66243 0.57379 0.0175 0.0
H2598 H 0.6666 0.52104 0.98866 0.0
C2599 C 0.60882 0.4994 0.97672 0.0
C2600 C 0.62488 0.54204 0.99688 0.0
C2601 C 0.59387 0.49063 0.97301 0.0
C2602 C 0.68549 0.58219 0.00761 0.0
C2603 C 0.67154 0.57116 0.00757 0.0
C2604 C 0.65504 0.52712 0.99089 0.0
C2605 C 0.61016 0.51283 0.99034 0.0
C2606 C 0.62548 0.52384 0.99275 0.0
C2607 C 0.66948 0.55679 0.99505 0.0
C2608 C 0.65439 0.54535 0.99472 0.0
H2609 H 0.57076 0.5113 0.0046 0.0
H2610 H 0.59701 0.52646 0.01155 0.0
H2611 H 0.64174 0.50253 0.98696 0.0
H2612 H 0.70481 0.56215 0.97265 0.0
H2613 H 0.68051 0.54289 0.97262 0.0
C2614 C 0.29547 0.68977 0.24448 0.0
C2615 C 0.28833 0.70602 0.24532 0.0
C2616 C 0.28675 0.67532 0.24987 0.0
C2617 C 0.24809 0.66214 0.27208 0.0
H2618 H 0.25204 0.61918 0.24192 0.0
C2619 C 0.19765 0.60748 0.26375 0.0
C2620 C 0.20237 0.59026 0.26416 0.0
C2621 C 0.20933 0.62119 0.26363 0.0
C2622 C 0.25093 0.63103 0.25057 0.0
H2623 H 0.26715 0.72039 0.25356 0.0
H2624 H 0.25163 0.69527 0.26238 0.0
H2625 H 0.27077 0.64394 0.23861 0.0
H2626 H 0.22298 0.57381 0.26462 0.0
H2627 H 0.24345 0.59779 0.26401 0.0
H2628 H 0.22763 0.64935 0.28337 0.0
C2629 C 0.26398 0.69348 0.25784 0.0
C2630 C 0.26174 0.64523 0.24877 0.0
C2631 C 0.27278 0.70789 0.25264 0.0
C2632 C 0.21901 0.58699 0.26439 0.0
C2633 C 0.23071 0.60067 0.26397 0.0
C2634 C 0.23713 0.64803 0.27368 0.0
C2635 C 0.27065 0.67685 0.25607 0.0
C2636 C 0.26033 0.6611 0.25932 0.0
C2637 C 0.22597 0.61791 0.26363 0.0
C2638 C 0.2383 0.63242 0.26279 0.0
H2639 H 0.30746 0.68808 0.23884 0.0
H2640 H 0.29245 0.66286 0.24867 0.0
H2641 H 0.2468 0.67397 0.2807 0.0
H2642 H 0.1849 0.61037 0.26367 0.0
H2643 H 0.20535 0.63434 0.26322 0.0
C2644 C 0.93179 0.49029 0.05583 0.0
C2645 C 0.94821 0.4954 0.05396 0.0
C2646 C 0.91959 0.5011 0.05179 0.0
C2647 C 0.91146 0.54671 0.04582 0.0
H2648 H 0.87445 0.52546 0.0205 0.0
C2649 C 0.86256 0.58779 0.01935 0.0
C2650 C 0.84628 0.58168 0.02052 0.0
C2651 C 0.87523 0.57746 0.02323 0.0
C2652 C 0.8846 0.5316 0.02774 0.0
H2653 H 0.96488 0.51576 0.04663 0.0
H2654 H 0.94355 0.53488 0.03963 0.0
H2655 H 0.89606 0.50726 0.02793 0.0
H2656 H 0.83064 0.55974 0.0265 0.0
H2657 H 0.85264 0.54197 0.03367 0.0
H2658 H 0.89992 0.57105 0.04576 0.0
C2659 C 0.94007 0.52255 0.04431 0.0
C2660 C 0.897 0.52115 0.03199 0.0
C2661 C 0.95227 0.51167 0.04829 0.0
C2662 C 0.843 0.56497 0.02564 0.0
C2663 C 0.85566 0.55466 0.02954 0.0
C2664 C 0.89901 0.55717 0.04162 0.0
C2665 C 0.92358 0.51731 0.04587 0.0
C2666 C 0.91054 0.52856 0.04115 0.0
C2667 C 0.87194 0.56077 0.02839 0.0
C2668 C 0.88538 0.54973 0.03259 0.0
H2669 H 0.92843 0.47788 0.06041 0.0
H2670 H 0.90703 0.4968 0.05342 0.0
H2671 H 0.92164 0.5528 0.05305 0.0
H2672 H 0.86553 0.60066 0.01563 0.0
H2673 H 0.88762 0.58251 0.02203 0.0
C2674 C 0.06345 0.00709 0.03098 0.0
C2675 C 0.06183 0.01696 0.0469 0.0
C2676 C 0.07822 0.99956 0.02608 0.0
C2677 C 0.12202 0.9993 0.03723 0.0
H2678 H 0.11743 0.95019 0.02022 0.0
C2679 C 0.17375 0.9517 0.04061 0.0
C2680 C 0.17585 0.93859 0.02694 0.0
C2681 C 0.16045 0.96242 0.04124 0.0
C2682 C 0.11899 0.96395 0.0247 0.0
H2683 H 0.0744 0.02795 0.06962 0.0
H2684 H 0.10021 0.01481 0.06126 0.0
H2685 H 0.09347 0.96768 0.02371 0.0
H2686 H 0.16572 0.92682 0.00297 0.0
H2687 H 0.1425 0.94547 0.0041 0.0
H2688 H 0.14753 0.99543 0.03857 0.0
C2689 C 0.09021 0.0128 0.05246 0.0
C2690 C 0.10523 0.97402 0.02666 0.0
C2691 C 0.07545 0.02027 0.05732 0.0
C2692 C 0.16435 0.93657 0.01385 0.0
C2693 C 0.15104 0.94729 0.01447 0.0
C2694 C 0.13579 0.98923 0.03526 0.0
C2695 C 0.09164 1.00187 0.03702 0.0
C2696 C 0.10653 0.99176 0.03319 0.0
C2697 C 0.14889 0.96032 0.0282 0.0
C2698 C 0.13442 0.97136 0.02921 0.0
H2699 H 0.05302 0.00439 0.02281 0.0
H2700 H 0.07898 0.99146 0.01398 0.0
H2701 H 0.1235 0.01298 0.04207 0.0
H2702 H 0.18224 0.95346 0.05104 0.0
H2703 H 0.15903 0.9721 0.05216 0.0
loop_
_geom_bond_atom_site_label_1
_geom_bond_atom_site_label_2
_geom_bond_distance
_geom_bond_site_symmetry_2
_ccdc_geom_bond_type
C0 N1 1.317 1_565 S
C0 N2 1.348 1_565 S
C0 C3 1.485 . S
N1 C0 1.317 1_545 S
N1 N5 1.370 . S
N2 C0 1.348 1_545 S
N2 C4 1.346 . S
C3 C0 1.485 . S
C3 H7 0.960 . S
C3 H8 0.961 . S
C3 H9 0.960 . S
C4 N2 1.346 . S
C4 N5 1.307 . S
C4 C6 1.486 1_455 S
N5 N1 1.370 . S
N5 C4 1.307 . S
C6 C4 1.486 1_655 S
C6 H10 0.960 . S
C6 H11 0.960 . S
C6 H12 0.959 . S
H7 C3 0.960 . S
H8 C3 0.961 . S
H9 C3 0.960 . S
H10 C6 0.960 . S
H11 C6 0.960 . S
H12 C6 0.959 . S
C13 N14 1.317 . S
C13 N15 1.348 . S
C13 C16 1.485 . S
N14 C13 1.317 . S
N14 N18 1.370 . S
N15 C13 1.348 . S
N15 C17 1.346 . S
C16 C13 1.485 . S
C16 H20 0.960 . S
C16 H21 0.961 . S
C16 H22 0.960 . S
C17 N15 1.346 . S
C17 N18 1.307 . S
C17 C19 1.486 . S
N18 N14 1.370 . S
N18 C17 1.307 . S
C19 C17 1.486 . S
C19 H23 0.960 . S
C19 H24 0.960 . S
C19 H25 0.959 . S
H20 C16 0.960 . S
H21 C16 0.961 . S
H22 C16 0.960 . S
H23 C19 0.960 . S
H24 C19 0.960 . S
H25 C19 0.959 . S
C26 N27 1.317 . S
C26 N28 1.348 . S
C26 C29 1.485 . S
N27 C26 1.317 . S
N27 N31 1.370 . S
N28 C26 1.348 . S
N28 C30 1.346 . S
C29 C26 1.485 . S
C29 H33 0.960 . S
C29 H34 0.961 . S
C29 H35 0.960 . S
C30 N28 1.346 . S
C30 N31 1.307 . S
C30 C32 1.486 . S
N31 N27 1.370 . S
N31 C30 1.307 . S
C32 C30 1.486 . S
C32 H36 0.960 . S
C32 H37 0.960 . S
C32 H38 0.959 . S
H33 C29 0.960 . S
H34 C29 0.961 . S
H35 C29 0.960 . S
H36 C32 0.960 . S
H37 C32 0.960 . S
H38 C32 0.959 . S
C39 N40 1.317 . S
C39 N41 1.348 . S
C39 C42 1.485 . S
N40 C39 1.317 . S
N40 N44 1.370 . S
N41 C39 1.348 . S
N41 C43 1.346 . S
C42 C39 1.485 . S
C42 H46 0.960 . S
C42 H47 0.961 . S
C42 H48 0.960 . S
C43 N41 1.346 . S
C43 N44 1.307 . S
C43 C45 1.486 . S
N44 N40 1.370 . S
N44 C43 1.307 . S
C45 C43 1.486 . S
C45 H49 0.960 . S
C45 H50 0.960 . S
C45 H51 0.959 . S
H46 C42 0.960 . S
H47 C42 0.961 . S
H48 C42 0.960 . S
H49 C45 0.960 . S
H50 C45 0.960 . S
H51 C45 0.959 . S
C52 N53 1.317 . S
C52 N54 1.348 . S
C52 C55 1.485 . S
N53 C52 1.317 . S
N53 N57 1.370 . S
N54 C52 1.348 . S
N54 C56 1.346 . S
C55 C52 1.485 . S
C55 H59 0.960 . S
C55 H60 0.961 . S
C55 H61 0.960 . S
C56 N54 1.346 . S
C56 N57 1.307 . S
C56 C58 1.486 1_565 S
N57 N53 1.370 . S
N57 C56 1.307 . S
C58 C56 1.486 1_545 S
C58 H62 0.960 . S
C58 H63 0.960 . S
C58 H64 0.959 . S
H59 C55 0.960 . S
H60 C55 0.961 . S
H61 C55 0.960 . S
H62 C58 0.960 . S
H63 C58 0.960 . S
H64 C58 0.959 . S
C65 N66 1.317 . S
C65 N67 1.348 . S
C65 C68 1.485 . S
N66 C65 1.317 . S
N66 N70 1.370 . S
N67 C65 1.348 . S
N67 C69 1.346 . S
C68 C65 1.485 . S
C68 H72 0.960 . S
C68 H73 0.961 . S
C68 H74 0.960 . S
C69 N67 1.346 . S
C69 N70 1.307 . S
C69 C71 1.486 . S
N70 N66 1.370 . S
N70 C69 1.307 . S
C71 C69 1.486 . S
C71 H75 0.960 . S
C71 H76 0.960 . S
C71 H77 0.959 . S
H72 C68 0.960 . S
H73 C68 0.961 . S
H74 C68 0.960 . S
H75 C71 0.960 . S
H76 C71 0.960 . S
H77 C71 0.959 . S
C78 N79 1.317 . S
C78 N80 1.348 . S
C78 C81 1.485 . S
N79 C78 1.317 . S
N79 N83 1.370 . S
N80 C78 1.348 . S
N80 C82 1.346 . S
C81 C78 1.485 . S
C81 H85 0.960 . S
C81 H86 0.961 . S
C81 H87 0.960 . S
C82 N80 1.346 . S
C82 N83 1.307 . S
C82 C84 1.486 . S
N83 N79 1.370 . S
N83 C82 1.307 . S
C84 C82 1.486 . S
C84 H88 0.960 . S
C84 H89 0.960 . S
C84 H90 0.959 . S
H85 C81 0.960 . S
H86 C81 0.961 . S
H87 C81 0.960 . S
H88 C84 0.960 . S
H89 C84 0.960 . S
H90 C84 0.959 . S
C91 N92 1.317 . S
C91 N93 1.348 . S
C91 C94 1.485 . S
N92 C91 1.317 . S
N92 N96 1.370 . S
N93 C91 1.348 . S
N93 C95 1.346 . S
C94 C91 1.485 . S
C94 H98 0.960 . S
C94 H99 0.961 . S
C94 H100 0.960 . S
C95 N93 1.346 . S
C95 N96 1.307 . S
C95 C97 1.486 . S
N96 N92 1.370 . S
N96 C95 1.307 . S
C97 C95 1.486 . S
C97 H101 0.960 . S
C97 H102 0.960 . S
C97 H103 0.959 . S
H98 C94 0.960 . S
H99 C94 0.961 . S
H100 C94 0.960 . S
H101 C97 0.960 . S
H102 C97 0.960 . S
H103 C97 0.959 . S
C104 N105 1.317 . S
C104 N106 1.348 . S
C104 C107 1.485 . S
N105 C104 1.317 . S
N105 N109 1.370 . S
N106 C104 1.348 . S
N106 C108 1.346 . S
C107 C104 1.485 . S
C107 H111 0.960 . S
C107 H112 0.961 . S
C107 H113 0.960 . S
C108 N106 1.346 . S
C108 N109 1.307 . S
C108 C110 1.486 . S
N109 N105 1.370 . S
N109 C108 1.307 . S
C110 C108 1.486 . S
C110 H114 0.960 . S
C110 H115 0.960 . S
C110 H116 0.959 . S
H111 C107 0.960 . S
H112 C107 0.961 . S
H113 C107 0.960 . S
H114 C110 0.960 . S
H115 C110 0.960 . S
H116 C110 0.959 . S
C117 N118 1.317 . S
C117 N119 1.348 . S
C117 C120 1.485 1_565 S
N118 C117 1.317 . S
N118 N122 1.370 . S
N119 C117 1.348 . S
N119 C121 1.346 . S
C120 C117 1.485 1_545 S
C120 H124 0.960 . S
C120 H125 0.961 . S
C120 H126 0.960 . S
C121 N119 1.346 . S
C121 N122 1.307 . S
C121 C123 1.486 . S
N122 N118 1.370 . S
N122 C121 1.307 . S
C123 C121 1.486 . S
C123 H127 0.960 . S
C123 H128 0.960 . S
C123 H129 0.959 . S
H124 C120 0.960 . S
H125 C120 0.961 . S
H126 C120 0.960 . S
H127 C123 0.960 . S
H128 C123 0.960 . S
H129 C123 0.959 . S
C130 N131 1.317 . S
C130 N132 1.348 . S
C130 C133 1.485 . S
N131 C130 1.317 . S
N131 N135 1.370 . S
N132 C130 1.348 . S
N132 C134 1.346 . S
C133 C130 1.485 . S
C133 H137 0.960 . S
C133 H138 0.961 . S
C133 H139 0.960 . S
C134 N132 1.346 . S
C134 N135 1.307 . S
C134 C136 1.486 . S
N135 N131 1.370 . S
N135 C134 1.307 . S
C136 C134 1.486 . S
C136 H140 0.960 . S
C136 H141 0.960 . S
C136 H142 0.959 . S
H137 C133 0.960 . S
H138 C133 0.961 . S
H139 C133 0.960 . S
H140 C136 0.960 . S
H141 C136 0.960 . S
H142 C136 0.959 . S
C143 N144 1.317 . S
C143 N145 1.348 . S
C143 C146 1.485 . S
N144 C143 1.317 . S
N144 N148 1.370 . S
N145 C143 1.348 . S
N145 C147 1.346 . S
C146 C143 1.485 . S
C146 H150 0.960 . S
C146 H151 0.961 . S
C146 H152 0.960 . S
C147 N145 1.346 . S
C147 N148 1.307 . S
C147 C149 1.486 . S
N148 N144 1.370 . S
N148 C147 1.307 . S
C149 C147 1.486 . S
C149 H153 0.960 . S
C149 H154 0.960 . S
C149 H155 0.959 . S
H150 C146 0.960 . S
H151 C146 0.961 . S
H152 C146 0.960 . S
H153 C149 0.960 . S
H154 C149 0.960 . S
H155 C149 0.959 . S
C156 N157 1.317 . S
C156 N158 1.348 . S
C156 C159 1.485 . S
N157 C156 1.317 . S
N157 N161 1.370 . S
N158 C156 1.348 . S
N158 C160 1.346 . S
C159 C156 1.485 . S
C159 H163 0.960 . S
C159 H164 0.961 . S
C159 H165 0.960 . S
C160 N158 1.346 . S
C160 N161 1.307 . S
C160 C162 1.486 . S
N161 N157 1.370 . S
N161 C160 1.307 . S
C162 C160 1.486 . S
C162 H166 0.960 . S
C162 H167 0.960 . S
C162 H168 0.959 . S
H163 C159 0.960 . S
H164 C159 0.961 . S
H165 C159 0.960 . S
H166 C162 0.960 . S
H167 C162 0.960 . S
H168 C162 0.959 . S
C169 N170 1.317 . S
C169 N171 1.348 . S
C169 C172 1.485 . S
N170 C169 1.317 . S
N170 N174 1.370 . S
N171 C169 1.348 . S
N171 C173 1.346 . S
C172 C169 1.485 . S
C172 H176 0.960 . S
C172 H177 0.961 . S
C172 H178 0.960 . S
C173 N171 1.346 . S
C173 N174 1.307 . S
C173 C175 1.486 . S
N174 N170 1.370 . S
N174 C173 1.307 . S
C175 C173 1.486 . S
C175 H179 0.960 . S
C175 H180 0.960 . S
C175 H181 0.959 . S
H176 C172 0.960 . S
H177 C172 0.961 . S
H178 C172 0.960 . S
H179 C175 0.960 . S
H180 C175 0.960 . S
H181 C175 0.959 . S
C182 N183 1.317 . S
C182 N184 1.348 . S
C182 C185 1.485 . S
N183 C182 1.317 . S
N183 N187 1.370 . S
N184 C182 1.348 . S
N184 C186 1.346 . S
C185 C182 1.485 . S
C185 H189 0.960 . S
C185 H190 0.961 . S
C185 H191 0.960 . S
C186 N184 1.346 . S
C186 N187 1.307 . S
C186 C188 1.486 . S
N187 N183 1.370 . S
N187 C186 1.307 . S
C188 C186 1.486 . S
C188 H192 0.960 . S
C188 H193 0.960 . S
C188 H194 0.959 . S
H189 C185 0.960 . S
H190 C185 0.961 . S
H191 C185 0.960 . S
H192 C188 0.960 . S
H193 C188 0.960 . S
H194 C188 0.959 . S
C195 N196 1.317 . S
C195 N197 1.348 . S
C195 C198 1.485 . S
N196 C195 1.317 . S
N196 N200 1.370 . S
N197 C195 1.348 . S
N197 C199 1.346 . S
C198 C195 1.485 . S
C198 H202 0.960 . S
C198 H203 0.961 . S
C198 H204 0.960 . S
C199 N197 1.346 . S
C199 N200 1.307 . S
C199 C201 1.486 1_556 S
N200 N196 1.370 . S
N200 C199 1.307 . S
C201 C199 1.486 1_554 S
C201 H205 0.960 . S
C201 H206 0.960 . S
C201 H207 0.959 . S
H202 C198 0.960 . S
H203 C198 0.961 . S
H204 C198 0.960 . S
H205 C201 0.960 . S
H206 C201 0.960 . S
H207 C201 0.959 . S
Li208 N225 1.990 . S
Li208 O268 1.956 . S
Li208 O269 1.970 . S
Li208 O270 1.961 1_554 S
Li209 N233 1.990 . S
Li209 O268 1.970 . S
Li209 O269 1.956 . S
Li209 O271 1.961 . S
Li210 N255 1.990 . S
Li210 O268 1.961 1_556 S
Li210 O270 1.956 . S
Li210 O271 1.970 1_556 S
Li211 N261 1.990 . S
Li211 O269 1.961 . S
Li211 O270 1.970 1_554 S
Li211 O271 1.956 . S
C212 C214 1.348 . S
C212 C215 1.356 1_554 S
C212 O268 1.325 . S
N213 C216 1.314 1_556 S
N213 C217 1.279 . S
C214 C212 1.348 . S
C214 C216 1.353 . S
C214 H272 0.929 . S
C215 C212 1.356 1_556 S
C215 C217 1.358 . S
C215 H273 0.930 . S
C216 N213 1.314 1_554 S
C216 C214 1.353 . S
C216 H274 0.930 . S
C217 N213 1.279 . S
C217 C215 1.358 . S
C217 H275 0.930 . S
C218 C221 1.348 . S
C218 C222 1.356 . S
C218 O269 1.325 . S
C219 N220 1.279 . S
C219 C222 1.358 . S
C219 H276 0.930 . S
N220 C219 1.279 . S
N220 C223 1.314 . S
C221 C218 1.348 . S
C221 C223 1.353 . S
C221 H277 0.929 . S
C222 C218 1.356 . S
C222 C219 1.358 . S
C222 H278 0.930 . S
C223 N220 1.314 . S
C223 C221 1.353 . S
C223 H279 0.930 . S
C224 N225 1.314 . S
C224 C229 1.351 1_554 S
C224 H230 0.932 . S
N225 Li208 1.990 . S
N225 C224 1.314 . S
N225 C227 1.279 . S
C226 C227 1.358 . S
C226 C228 1.356 . S
C226 H280 0.930 . S
C227 N225 1.279 . S
C227 C226 1.358 . S
C227 H231 0.930 . S
C228 C226 1.356 . S
C228 C229 1.345 1_554 S
C229 C224 1.351 1_556 S
C229 C228 1.345 1_556 S
C229 H281 0.934 . S
H230 C224 0.932 . S
H231 C227 0.930 . S
C232 N233 1.314 . S
C232 C234 1.353 . S
C232 H238 0.930 . S
N233 Li209 1.990 . S
N233 C232 1.314 . S
N233 C236 1.279 . S
C234 C232 1.353 . S
C234 C237 1.348 . S
C234 H282 0.929 . S
C235 C236 1.358 . S
C235 C237 1.356 . S
C235 H283 0.930 . S
C236 N233 1.279 . S
C236 C235 1.358 . S
C236 H239 0.930 . S
C237 C234 1.348 . S
C237 C235 1.356 . S
H238 C232 0.930 . S
H239 C236 0.930 . S
C240 C242 1.348 . S
C240 C243 1.356 . S
C240 O270 1.325 . S
N241 C244 1.314 . S
N241 C245 1.279 . S
C242 C240 1.348 . S
C242 C244 1.353 . S
C242 H284 0.929 . S
C243 C240 1.356 . S
C243 C245 1.358 . S
C243 H285 0.930 . S
C244 N241 1.314 . S
C244 C242 1.353 . S
C244 H286 0.930 . S
C245 N241 1.279 . S
C245 C243 1.358 . S
C245 H287 0.930 . S
C246 C247 1.300 1_554 S
C246 C248 1.356 . S
C246 O271 1.325 . S
C247 C246 1.300 1_556 S
C247 C249 1.340 1_556 S
C247 H288 0.992 . S
C248 C246 1.356 . S
C248 C250 1.358 . S
C248 H289 0.930 . S
C249 C247 1.340 1_554 S
C249 N251 1.314 . S
C249 H290 0.930 1_554 S
C250 C248 1.358 . S
C250 N251 1.279 . S
C250 H291 0.930 . S
N251 C249 1.314 . S
N251 C250 1.279 . S
C252 C254 1.353 . S
C252 N255 1.314 . S
C252 H258 0.930 . S
C253 N255 1.279 . S
C253 C256 1.358 . S
C253 H259 0.930 . S
C254 C252 1.353 . S
C254 C257 1.348 . S
C254 H292 0.929 . S
N255 Li210 1.990 . S
N255 C252 1.314 . S
N255 C253 1.279 . S
C256 C253 1.358 . S
C256 C257 1.356 . S
C256 H293 0.930 . S
C257 C254 1.348 . S
C257 C256 1.356 . S
H258 C252 0.930 . S
H259 C253 0.930 . S
C260 N261 1.314 . S
C260 C262 1.353 . S
C260 H266 0.930 . S
N261 Li211 1.990 . S
N261 C260 1.314 . S
N261 C264 1.279 . S
C262 C260 1.353 . S
C262 C265 1.348 . S
C262 H294 0.929 . S
C263 C264 1.358 . S
C263 C265 1.356 . S
C263 H295 0.930 . S
C264 N261 1.279 . S
C264 C263 1.358 . S
C264 H267 0.930 . S
C265 C262 1.348 . S
C265 C263 1.356 . S
H266 C260 0.930 . S
H267 C264 0.930 . S
O268 Li208 1.956 . S
O268 Li209 1.970 . S
O268 Li210 1.961 1_554 S
O268 C212 1.325 . S
O269 Li208 1.970 . S
O269 Li209 1.956 . S
O269 Li211 1.961 . S
O269 C218 1.325 . S
O270 Li208 1.961 1_556 S
O270 Li210 1.956 . S
O270 Li211 1.970 1_556 S
O270 C240 1.325 . S
O271 Li209 1.961 . S
O271 Li210 1.970 1_554 S
O271 Li211 1.956 . S
O271 C246 1.325 . S
H272 C214 0.929 . S
H273 C215 0.930 . S
H274 C216 0.930 . S
H275 C217 0.930 . S
H276 C219 0.930 . S
H277 C221 0.929 . S
H278 C222 0.930 . S
H279 C223 0.930 . S
H280 C226 0.930 . S
H281 C229 0.934 . S
H282 C234 0.929 . S
H283 C235 0.930 . S
H284 C242 0.929 . S
H285 C243 0.930 . S
H286 C244 0.930 . S
H287 C245 0.930 . S
H288 C247 0.992 . S
H289 C248 0.930 . S
H290 C249 0.930 1_556 S
H291 C250 0.930 . S
H292 C254 0.929 . S
H293 C256 0.930 . S
H294 C262 0.929 . S
H295 C263 0.930 . S
Li296 N313 1.990 . S
Li296 O356 1.956 . S
Li296 O357 1.970 . S
Li296 O358 1.961 . S
Li297 N321 1.990 . S
Li297 O356 1.970 . S
Li297 O357 1.956 . S
Li297 O359 1.961 . S
Li298 N343 1.990 . S
Li298 O356 1.961 . S
Li298 O358 1.956 . S
Li298 O359 1.970 . S
Li299 N349 1.990 . S
Li299 O357 1.961 . S
Li299 O358 1.970 . S
Li299 O359 1.956 . S
C300 C302 1.348 . S
C300 C303 1.356 . S
C300 O356 1.325 . S
N301 C304 1.314 . S
N301 C305 1.279 . S
C302 C300 1.348 . S
C302 C304 1.353 . S
C302 H360 0.929 . S
C303 C300 1.356 . S
C303 C305 1.358 . S
C303 H361 0.930 . S
C304 N301 1.314 . S
C304 C302 1.353 . S
C304 H362 0.930 . S
C305 N301 1.279 . S
C305 C303 1.358 . S
C305 H363 0.930 . S
C306 C309 1.348 . S
C306 C310 1.356 . S
C306 O357 1.325 . S
C307 N308 1.279 . S
C307 C310 1.358 . S
C307 H364 0.930 . S
N308 C307 1.279 . S
N308 C311 1.314 . S
C309 C306 1.348 . S
C309 C311 1.353 . S
C309 H365 0.929 . S
C310 C306 1.356 . S
C310 C307 1.358 . S
C310 H366 0.930 . S
C311 N308 1.314 . S
C311 C309 1.353 . S
C311 H367 0.930 . S
C312 N313 1.314 . S
C312 C317 1.353 . S
C312 H318 0.930 . S
N313 Li296 1.990 . S
N313 C312 1.314 . S
N313 C315 1.279 . S
C314 C315 1.358 . S
C314 C316 1.356 . S
C314 H368 0.930 . S
C315 N313 1.279 . S
C315 C314 1.358 . S
C315 H319 0.930 . S
C316 C314 1.356 . S
C316 C317 1.348 . S
C317 C312 1.353 . S
C317 C316 1.348 . S
C317 H369 0.929 . S
H318 C312 0.930 . S
H319 C315 0.930 . S
C320 N321 1.314 . S
C320 C322 1.353 . S
C320 H326 0.930 . S
N321 Li297 1.990 . S
N321 C320 1.314 . S
N321 C324 1.279 . S
C322 C320 1.353 . S
C322 C325 1.348 . S
C322 H370 0.929 . S
C323 C324 1.358 . S
C323 C325 1.356 . S
C323 H371 0.930 . S
C324 N321 1.279 . S
C324 C323 1.358 . S
C324 H327 0.930 . S
C325 C322 1.348 . S
C325 C323 1.356 . S
H326 C320 0.930 . S
H327 C324 0.930 . S
C328 C330 1.348 . S
C328 C331 1.356 . S
C328 O358 1.325 . S
N329 C332 1.314 . S
N329 C333 1.279 . S
C330 C328 1.348 . S
C330 C332 1.353 . S
C330 H372 0.929 . S
C331 C328 1.356 . S
C331 C333 1.358 . S
C331 H373 0.930 . S
C332 N329 1.314 . S
C332 C330 1.353 . S
C332 H374 0.930 . S
C333 N329 1.279 . S
C333 C331 1.358 . S
C333 H375 0.930 . S
C334 C335 1.348 . S
C334 C336 1.356 . S
C334 O359 1.325 . S
C335 C334 1.348 . S
C335 C337 1.353 . S
C335 H376 0.929 . S
C336 C334 1.356 . S
C336 C338 1.358 . S
C336 H377 0.930 . S
C337 C335 1.353 . S
C337 N339 1.314 . S
C337 H378 0.930 . S
C338 C336 1.358 . S
C338 N339 1.279 . S
C338 H379 0.930 . S
N339 C337 1.314 . S
N339 C338 1.279 . S
C340 C342 1.353 . S
C340 N343 1.314 . S
C340 H346 0.930 . S
C341 N343 1.279 . S
C341 C344 1.358 . S
C341 H347 0.930 . S
C342 C340 1.353 . S
C342 C345 1.348 . S
C342 H380 0.929 . S
N343 Li298 1.990 . S
N343 C340 1.314 . S
N343 C341 1.279 . S
C344 C341 1.358 . S
C344 C345 1.356 . S
C344 H381 0.930 . S
C345 C342 1.348 . S
C345 C344 1.356 . S
H346 C340 0.930 . S
H347 C341 0.930 . S
C348 N349 1.314 . S
C348 C350 1.353 . S
C348 H354 0.930 . S
N349 Li299 1.990 . S
N349 C348 1.314 . S
N349 C352 1.279 . S
C350 C348 1.353 . S
C350 C353 1.348 . S
C350 H382 0.929 . S
C351 C352 1.358 . S
C351 C353 1.356 . S
C351 H383 0.930 . S
C352 N349 1.279 . S
C352 C351 1.358 . S
C352 H355 0.930 . S
C353 C350 1.348 . S
C353 C351 1.356 . S
H354 C348 0.930 . S
H355 C352 0.930 . S
O356 Li296 1.956 . S
O356 Li297 1.970 . S
O356 Li298 1.961 . S
O356 C300 1.325 . S
O357 Li296 1.970 . S
O357 Li297 1.956 . S
O357 Li299 1.961 . S
O357 C306 1.325 . S
O358 Li296 1.961 . S
O358 Li298 1.956 . S
O358 Li299 1.970 . S
O358 C328 1.325 . S
O359 Li297 1.961 . S
O359 Li298 1.970 . S
O359 Li299 1.956 . S
O359 C334 1.325 . S
H360 C302 0.929 . S
H361 C303 0.930 . S
H362 C304 0.930 . S
H363 C305 0.930 . S
H364 C307 0.930 . S
H365 C309 0.929 . S
H366 C310 0.930 . S
H367 C311 0.930 . S
H368 C314 0.930 . S
H369 C317 0.929 . S
H370 C322 0.929 . S
H371 C323 0.930 . S
H372 C330 0.929 . S
H373 C331 0.930 . S
H374 C332 0.930 . S
H375 C333 0.930 . S
H376 C335 0.929 . S
H377 C336 0.930 . S
H378 C337 0.930 . S
H379 C338 0.930 . S
H380 C342 0.929 . S
H381 C344 0.930 . S
H382 C350 0.929 . S
H383 C351 0.930 . S
Li384 N401 1.990 1_554 S
Li384 O444 1.956 . S
Li384 O445 1.970 . S
Li384 O446 1.961 1_554 S
Li385 N409 1.990 . S
Li385 O444 1.970 . S
Li385 O445 1.956 . S
Li385 O447 1.961 . S
Li386 N431 1.990 . S
Li386 O444 1.961 1_556 S
Li386 O446 1.956 . S
Li386 O447 1.970 1_556 S
Li387 N437 1.990 . S
Li387 O445 1.961 . S
Li387 O446 1.970 1_554 S
Li387 O447 1.956 . S
C388 C390 1.348 . S
C388 C391 1.356 1_554 S
C388 O444 1.325 . S
N389 C392 1.314 . S
N389 C393 1.279 1_554 S
C390 C388 1.348 . S
C390 C392 1.353 . S
C390 H448 0.929 . S
C391 C388 1.356 1_556 S
C391 C393 1.358 . S
C391 H449 0.930 . S
C392 N389 1.314 . S
C392 C390 1.353 . S
C392 H450 0.930 . S
C393 N389 1.279 1_556 S
C393 C391 1.358 . S
C393 H451 0.930 . S
C394 C397 1.348 . S
C394 C398 1.356 . S
C394 O445 1.325 . S
C395 N396 1.279 . S
C395 C398 1.358 . S
C395 H452 0.930 . S
N396 C395 1.279 . S
N396 C399 1.314 . S
C397 C394 1.348 . S
C397 C399 1.353 . S
C397 H453 0.929 . S
C398 C394 1.356 . S
C398 C395 1.358 . S
C398 H454 0.930 . S
C399 N396 1.314 . S
C399 C397 1.353 . S
C399 H455 0.930 . S
C400 N401 1.314 . S
C400 C405 1.353 . S
C400 H406 0.930 . S
N401 Li384 1.990 1_556 S
N401 C400 1.314 . S
N401 C403 1.279 . S
C402 C403 1.358 . S
C402 C404 1.356 . S
C402 H456 0.930 . S
C403 N401 1.279 . S
C403 C402 1.358 . S
C403 H407 0.930 1_556 S
C404 C402 1.356 . S
C404 C405 1.348 . S
C405 C400 1.353 . S
C405 C404 1.348 . S
C405 H457 0.929 . S
H406 C400 0.930 . S
H407 C403 0.930 1_554 S
C408 N409 1.314 . S
C408 C410 1.353 . S
C408 H414 0.930 . S
N409 Li385 1.990 . S
N409 C408 1.314 . S
N409 C412 1.279 . S
C410 C408 1.353 . S
C410 C413 1.348 . S
C410 H458 0.929 . S
C411 C412 1.358 . S
C411 C413 1.356 . S
C411 H459 0.930 . S
C412 N409 1.279 . S
C412 C411 1.358 . S
C412 H415 0.930 . S
C413 C410 1.348 . S
C413 C411 1.356 . S
H414 C408 0.930 . S
H415 C412 0.930 . S
C416 C418 1.348 . S
C416 C419 1.356 . S
C416 O446 1.325 . S
N417 C420 1.314 . S
N417 C421 1.279 . S
C418 C416 1.348 . S
C418 C420 1.353 . S
C418 H460 0.929 . S
C419 C416 1.356 . S
C419 C421 1.358 . S
C419 H461 0.930 . S
C420 N417 1.314 . S
C420 C418 1.353 . S
C420 H462 0.930 . S
C421 N417 1.279 . S
C421 C419 1.358 . S
C421 H463 0.930 . S
C422 C423 1.348 . S
C422 C424 1.356 . S
C422 O447 1.325 . S
C423 C422 1.348 . S
C423 C425 1.353 . S
C423 H464 0.929 1_554 S
C424 C422 1.356 . S
C424 C426 1.358 . S
C424 H465 0.930 . S
C425 C423 1.353 . S
C425 N427 1.314 . S
C425 H466 0.930 . S
C426 C424 1.358 . S
C426 N427 1.279 . S
C426 H467 0.930 . S
N427 C425 1.314 . S
N427 C426 1.279 . S
C428 C430 1.353 . S
C428 N431 1.314 . S
C428 H434 0.930 . S
C429 N431 1.279 . S
C429 C432 1.358 . S
C429 H435 0.930 . S
C430 C428 1.353 . S
C430 C433 1.348 . S
C430 H468 0.929 . S
N431 Li386 1.990 . S
N431 C428 1.314 . S
N431 C429 1.279 . S
C432 C429 1.358 . S
C432 C433 1.356 . S
C432 H469 0.930 . S
C433 C430 1.348 . S
C433 C432 1.356 . S
H434 C428 0.930 . S
H435 C429 0.930 . S
C436 N437 1.314 . S
C436 C438 1.353 . S
C436 H442 0.930 . S
N437 Li387 1.990 . S
N437 C436 1.314 . S
N437 C440 1.279 . S
C438 C436 1.353 . S
C438 C441 1.348 . S
C438 H470 0.929 . S
C439 C440 1.358 . S
C439 C441 1.356 . S
C439 H471 0.930 . S
C440 N437 1.279 . S
C440 C439 1.358 . S
C440 H443 0.930 . S
C441 C438 1.348 . S
C441 C439 1.356 . S
H442 C436 0.930 . S
H443 C440 0.930 . S
O444 Li384 1.956 . S
O444 Li385 1.970 . S
O444 Li386 1.961 1_554 S
O444 C388 1.325 . S
O445 Li384 1.970 . S
O445 Li385 1.956 . S
O445 Li387 1.961 . S
O445 C394 1.325 . S
O446 Li384 1.961 1_556 S
O446 Li386 1.956 . S
O446 Li387 1.970 1_556 S
O446 C416 1.325 . S
O447 Li385 1.961 . S
O447 Li386 1.970 1_554 S
O447 Li387 1.956 . S
O447 C422 1.325 . S
H448 C390 0.929 . S
H449 C391 0.930 . S
H450 C392 0.930 . S
H451 C393 0.930 . S
H452 C395 0.930 . S
H453 C397 0.929 . S
H454 C398 0.930 . S
H455 C399 0.930 . S
H456 C402 0.930 . S
H457 C405 0.929 . S
H458 C410 0.929 . S
H459 C411 0.930 . S
H460 C418 0.929 . S
H461 C419 0.930 . S
H462 C420 0.930 . S
H463 C421 0.930 . S
H464 C423 0.929 1_556 S
H465 C424 0.930 . S
H466 C425 0.930 . S
H467 C426 0.930 . S
H468 C430 0.929 . S
H469 C432 0.930 . S
H470 C438 0.929 . S
H471 C439 0.930 . S
Li472 N489 1.990 . S
Li472 O532 1.956 . S
Li472 O533 1.970 . S
Li472 O534 1.961 . S
Li473 N497 1.990 . S
Li473 O532 1.970 . S
Li473 O533 1.956 . S
Li473 O535 1.961 1_545 S
Li474 N519 1.990 . S
Li474 O532 1.961 . S
Li474 O534 1.956 . S
Li474 O535 1.970 1_545 S
Li475 N525 1.990 . S
Li475 O533 1.961 1_565 S
Li475 O534 1.970 1_565 S
Li475 O535 1.956 . S
C476 C478 1.348 . S
C476 C479 1.356 . S
C476 O532 1.325 . S
N477 C480 1.314 . S
N477 C481 1.279 . S
C478 C476 1.348 . S
C478 C480 1.353 . S
C478 H536 0.929 . S
C479 C476 1.356 . S
C479 C481 1.358 . S
C479 H537 0.930 . S
C480 N477 1.314 . S
C480 C478 1.353 . S
C480 H538 0.930 . S
C481 N477 1.279 . S
C481 C479 1.358 . S
C481 H539 0.930 . S
C482 C485 1.348 . S
C482 C486 1.356 1_545 S
C482 O533 1.325 . S
C483 N484 1.228 1_565 S
C483 C486 1.358 . S
C483 H540 0.930 . S
N484 C483 1.228 1_545 S
N484 C487 1.375 . S
C485 C482 1.348 . S
C485 C487 1.353 . S
C485 H541 0.929 . S
C486 C482 1.356 1_565 S
C486 C483 1.358 . S
C486 H542 0.930 . S
C487 N484 1.375 . S
C487 C485 1.353 . S
C487 H543 0.930 . S
C488 N489 1.314 . S
C488 C493 1.353 . S
C488 H494 0.930 . S
N489 Li472 1.990 . S
N489 C488 1.314 . S
N489 C491 1.279 . S
C490 C491 1.358 . S
C490 C492 1.356 . S
C490 H544 0.930 . S
C491 N489 1.279 . S
C491 C490 1.358 . S
C491 H495 0.930 . S
C492 C490 1.356 . S
C492 C493 1.348 . S
C493 C488 1.353 . S
C493 C492 1.348 . S
C493 H545 0.929 . S
H494 C488 0.930 . S
H495 C491 0.930 . S
C496 N497 1.314 1_565 S
C496 C498 1.353 . S
C496 H502 0.930 . S
N497 Li473 1.990 . S
N497 C496 1.314 1_545 S
N497 C500 1.279 . S
C498 C496 1.353 . S
C498 C501 1.348 1_565 S
C498 H546 0.929 . S
C499 C500 1.358 . S
C499 C501 1.356 . S
C499 H547 0.930 . S
C500 N497 1.279 . S
C500 C499 1.358 . S
C500 H503 0.930 . S
C501 C498 1.348 1_545 S
C501 C499 1.356 . S
H502 C496 0.930 . S
H503 C500 0.930 . S
C504 C506 1.348 1_545 S
C504 C507 1.356 . S
C504 O534 1.325 . S
N505 C508 1.314 1_545 S
N505 C509 1.279 . S
C506 C504 1.348 1_565 S
C506 C508 1.353 . S
C506 H548 0.929 . S
C507 C504 1.356 . S
C507 C509 1.358 . S
C507 H549 0.930 . S
C508 N505 1.314 1_565 S
C508 C506 1.353 . S
C508 H550 0.930 . S
C509 N505 1.279 . S
C509 C507 1.358 . S
C509 H551 0.930 . S
C510 C511 1.348 . S
C510 C512 1.356 . S
C510 O535 1.325 . S
C511 C510 1.348 . S
C511 C513 1.353 . S
C511 H552 0.929 . S
C512 C510 1.356 . S
C512 C514 1.358 . S
C512 H553 0.930 . S
C513 C511 1.353 . S
C513 N515 1.314 . S
C513 H554 0.930 . S
C514 C512 1.358 . S
C514 N515 1.279 . S
C514 H555 0.930 . S
N515 C513 1.314 . S
N515 C514 1.279 . S
C516 C518 1.353 . S
C516 N519 1.314 . S
C516 H522 0.930 . S
C517 N519 1.278 . S
C517 C520 1.359 1_545 S
C517 H523 0.932 1_545 S
C518 C516 1.353 . S
C518 C521 1.348 . S
C518 H556 0.929 . S
N519 Li474 1.990 . S
N519 C516 1.314 . S
N519 C517 1.278 . S
C520 C517 1.359 1_565 S
C520 C521 1.354 1_565 S
C520 H557 0.931 . S
C521 C518 1.348 . S
C521 C520 1.354 1_545 S
H522 C516 0.930 . S
H523 C517 0.932 1_565 S
C524 N525 1.314 . S
C524 C526 1.353 . S
C524 H530 0.930 . S
N525 Li475 1.990 . S
N525 C524 1.314 . S
N525 C528 1.279 . S
C526 C524 1.353 . S
C526 C529 1.348 . S
C526 H558 0.929 . S
C527 C528 1.358 . S
C527 C529 1.356 . S
C527 H559 0.930 . S
C528 N525 1.279 . S
C528 C527 1.358 . S
C528 H531 0.930 . S
C529 C526 1.348 . S
C529 C527 1.356 . S
H530 C524 0.930 . S
H531 C528 0.930 . S
O532 Li472 1.956 . S
O532 Li473 1.970 . S
O532 Li474 1.961 . S
O532 C476 1.325 . S
O533 Li472 1.970 . S
O533 Li473 1.956 . S
O533 Li475 1.961 1_545 S
O533 C482 1.325 . S
O534 Li472 1.961 . S
O534 Li474 1.956 . S
O534 Li475 1.970 1_545 S
O534 C504 1.325 . S
O535 Li473 1.961 1_565 S
O535 Li474 1.970 1_565 S
O535 Li475 1.956 . S
O535 C510 1.325 . S
H536 C478 0.929 . S
H537 C479 0.930 . S
H538 C480 0.930 . S
H539 C481 0.930 . S
H540 C483 0.930 . S
H541 C485 0.929 . S
H542 C486 0.930 . S
H543 C487 0.930 . S
H544 C490 0.930 . S
H545 C493 0.929 . S
H546 C498 0.929 . S
H547 C499 0.930 . S
H548 C506 0.929 . S
H549 C507 0.930 . S
H550 C508 0.930 . S
H551 C509 0.930 . S
H552 C511 0.929 . S
H553 C512 0.930 . S
H554 C513 0.930 . S
H555 C514 0.930 . S
H556 C518 0.929 . S
H557 C520 0.931 . S
H558 C526 0.929 . S
H559 C527 0.930 . S
Li560 N577 1.990 . S
Li560 O620 1.956 . S
Li560 O621 1.970 . S
Li560 O622 1.961 . S
Li561 N585 1.990 . S
Li561 O620 1.970 . S
Li561 O621 1.956 . S
Li561 O623 1.961 . S
Li562 N607 1.990 . S
Li562 O620 1.961 . S
Li562 O622 1.956 . S
Li562 O623 1.970 . S
Li563 N613 1.990 . S
Li563 O621 1.961 . S
Li563 O622 1.970 . S
Li563 O623 1.956 . S
C564 C566 1.348 . S
C564 C567 1.356 . S
C564 O620 1.325 . S
N565 C568 1.314 . S
N565 C569 1.279 . S
C566 C564 1.348 . S
C566 C568 1.353 . S
C566 H624 0.929 . S
C567 C564 1.356 . S
C567 C569 1.358 . S
C567 H625 0.930 . S
C568 N565 1.314 . S
C568 C566 1.353 . S
C568 H626 0.930 . S
C569 N565 1.279 . S
C569 C567 1.358 . S
C569 H627 0.930 . S
C570 C573 1.348 . S
C570 C574 1.356 . S
C570 O621 1.325 . S
C571 N572 1.279 . S
C571 C574 1.358 . S
C571 H628 0.930 . S
N572 C571 1.279 . S
N572 C575 1.314 . S
C573 C570 1.348 . S
C573 C575 1.353 . S
C573 H629 0.929 . S
C574 C570 1.356 . S
C574 C571 1.358 . S
C574 H630 0.930 . S
C575 N572 1.314 . S
C575 C573 1.353 . S
C575 H631 0.930 . S
C576 N577 1.314 . S
C576 C581 1.353 . S
C576 H582 0.930 . S
N577 Li560 1.990 . S
N577 C576 1.314 . S
N577 C579 1.279 . S
C578 C579 1.358 . S
C578 C580 1.356 . S
C578 H632 0.930 . S
C579 N577 1.279 . S
C579 C578 1.358 . S
C579 H583 0.930 . S
C580 C578 1.356 . S
C580 C581 1.348 . S
C581 C576 1.353 . S
C581 C580 1.348 . S
C581 H633 0.929 . S
H582 C576 0.930 . S
H583 C579 0.930 . S
C584 N585 1.314 . S
C584 C586 1.353 . S
C584 H590 0.930 . S
N585 Li561 1.990 . S
N585 C584 1.314 . S
N585 C588 1.279 . S
C586 C584 1.353 . S
C586 C589 1.348 . S
C586 H634 0.929 . S
C587 C588 1.358 . S
C587 C589 1.356 . S
C587 H635 0.930 . S
C588 N585 1.279 . S
C588 C587 1.358 . S
C588 H591 0.930 . S
C589 C586 1.348 . S
C589 C587 1.356 . S
H590 C584 0.930 . S
H591 C588 0.930 . S
C592 C594 1.348 . S
C592 C595 1.356 . S
C592 O622 1.325 . S
N593 C596 1.314 . S
N593 C597 1.279 . S
C594 C592 1.348 . S
C594 C596 1.353 . S
C594 H636 0.929 . S
C595 C592 1.356 . S
C595 C597 1.358 . S
C595 H637 0.930 . S
C596 N593 1.314 . S
C596 C594 1.353 . S
C596 H638 0.930 . S
C597 N593 1.279 . S
C597 C595 1.358 . S
C597 H639 0.930 . S
C598 C599 1.348 . S
C598 C600 1.356 . S
C598 O623 1.325 . S
C599 C598 1.348 . S
C599 C601 1.353 . S
C599 H640 0.929 . S
C600 C598 1.356 . S
C600 C602 1.358 . S
C600 H641 0.930 . S
C601 C599 1.353 . S
C601 N603 1.314 . S
C601 H642 0.930 . S
C602 C600 1.358 . S
C602 N603 1.279 . S
C602 H643 0.930 . S
N603 C601 1.314 . S
N603 C602 1.279 . S
C604 C606 1.353 . S
C604 N607 1.314 . S
C604 H610 0.930 . S
C605 N607 1.279 . S
C605 C608 1.358 . S
C605 H611 0.930 . S
C606 C604 1.353 . S
C606 C609 1.348 . S
C606 H644 0.929 . S
N607 Li562 1.990 . S
N607 C604 1.314 . S
N607 C605 1.279 . S
C608 C605 1.358 . S
C608 C609 1.356 . S
C608 H645 0.930 . S
C609 C606 1.348 . S
C609 C608 1.356 . S
H610 C604 0.930 . S
H611 C605 0.930 . S
C612 N613 1.314 . S
C612 C614 1.353 . S
C612 H618 0.930 . S
N613 Li563 1.990 . S
N613 C612 1.314 . S
N613 C616 1.279 . S
C614 C612 1.353 . S
C614 C617 1.348 . S
C614 H646 0.929 . S
C615 C616 1.358 . S
C615 C617 1.356 . S
C615 H647 0.930 . S
C616 N613 1.279 . S
C616 C615 1.358 . S
C616 H619 0.930 . S
C617 C614 1.348 . S
C617 C615 1.356 . S
H618 C612 0.930 . S
H619 C616 0.930 . S
O620 Li560 1.956 . S
O620 Li561 1.970 . S
O620 Li562 1.961 . S
O620 C564 1.325 . S
O621 Li560 1.970 . S
O621 Li561 1.956 . S
O621 Li563 1.961 . S
O621 C570 1.325 . S
O622 Li560 1.961 . S
O622 Li562 1.956 . S
O622 Li563 1.970 . S
O622 C592 1.325 . S
O623 Li561 1.961 . S
O623 Li562 1.970 . S
O623 Li563 1.956 . S
O623 C598 1.325 . S
H624 C566 0.929 . S
H625 C567 0.930 . S
H626 C568 0.930 . S
H627 C569 0.930 . S
H628 C571 0.930 . S
H629 C573 0.929 . S
H630 C574 0.930 . S
H631 C575 0.930 . S
H632 C578 0.930 . S
H633 C581 0.929 . S
H634 C586 0.929 . S
H635 C587 0.930 . S
H636 C594 0.929 . S
H637 C595 0.930 . S
H638 C596 0.930 . S
H639 C597 0.930 . S
H640 C599 0.929 . S
H641 C600 0.930 . S
H642 C601 0.930 . S
H643 C602 0.930 . S
H644 C606 0.929 . S
H645 C608 0.930 . S
H646 C614 0.929 . S
H647 C615 0.930 . S
Li648 N665 1.990 . S
Li648 O708 1.956 . S
Li648 O709 1.970 . S
Li648 O710 1.961 . S
Li649 N673 1.990 . S
Li649 O708 1.970 . S
Li649 O709 1.956 . S
Li649 O711 1.961 . S
Li650 N695 1.990 . S
Li650 O708 1.961 . S
Li650 O710 1.956 . S
Li650 O711 1.970 . S
Li651 N701 1.990 . S
Li651 O709 1.961 . S
Li651 O710 1.970 . S
Li651 O711 1.956 . S
C652 C654 1.348 . S
C652 C655 1.356 . S
C652 O708 1.325 . S
N653 C656 1.314 . S
N653 C657 1.279 . S
C654 C652 1.348 . S
C654 C656 1.353 . S
C654 H712 0.929 . S
C655 C652 1.356 . S
C655 C657 1.358 . S
C655 H713 0.930 . S
C656 N653 1.314 . S
C656 C654 1.353 . S
C656 H714 0.930 . S
C657 N653 1.279 . S
C657 C655 1.358 . S
C657 H715 0.930 . S
C658 C661 1.348 . S
C658 C662 1.356 . S
C658 O709 1.325 . S
C659 N660 1.279 . S
C659 C662 1.358 . S
C659 H716 0.930 . S
N660 C659 1.279 . S
N660 C663 1.314 . S
C661 C658 1.348 . S
C661 C663 1.353 . S
C661 H717 0.929 . S
C662 C658 1.356 . S
C662 C659 1.358 . S
C662 H718 0.930 . S
C663 N660 1.314 . S
C663 C661 1.353 . S
C663 H719 0.930 . S
C664 N665 1.314 . S
C664 C669 1.353 . S
C664 H670 0.930 . S
N665 Li648 1.990 . S
N665 C664 1.314 . S
N665 C667 1.279 . S
C666 C667 1.358 . S
C666 C668 1.356 . S
C666 H720 0.930 . S
C667 N665 1.279 . S
C667 C666 1.358 . S
C667 H671 0.930 . S
C668 C666 1.356 . S
C668 C669 1.348 . S
C669 C664 1.353 . S
C669 C668 1.348 . S
C669 H721 0.929 . S
H670 C664 0.930 . S
H671 C667 0.930 . S
C672 N673 1.314 . S
C672 C674 1.353 . S
C672 H678 0.930 . S
N673 Li649 1.990 . S
N673 C672 1.314 . S
N673 C676 1.279 . S
C674 C672 1.353 . S
C674 C677 1.348 . S
C674 H722 0.929 . S
C675 C676 1.358 . S
C675 C677 1.356 . S
C675 H723 0.930 . S
C676 N673 1.279 . S
C676 C675 1.358 . S
C676 H679 0.930 . S
C677 C674 1.348 . S
C677 C675 1.356 . S
H678 C672 0.930 . S
H679 C676 0.930 . S
C680 C682 1.348 . S
C680 C683 1.356 . S
C680 O710 1.325 . S
N681 C684 1.314 . S
N681 C685 1.279 . S
C682 C680 1.348 . S
C682 C684 1.353 . S
C682 H724 0.929 . S
C683 C680 1.356 . S
C683 C685 1.358 . S
C683 H725 0.930 . S
C684 N681 1.314 . S
C684 C682 1.353 . S
C684 H726 0.930 . S
C685 N681 1.279 . S
C685 C683 1.358 . S
C685 H727 0.930 . S
C686 C687 1.348 . S
C686 C688 1.356 . S
C686 O711 1.325 . S
C687 C686 1.348 . S
C687 C689 1.353 . S
C687 H728 0.929 . S
C688 C686 1.356 . S
C688 C690 1.358 . S
C688 H729 0.930 . S
C689 C687 1.353 . S
C689 N691 1.314 . S
C689 H730 0.930 . S
C690 C688 1.358 . S
C690 N691 1.279 . S
C690 H731 0.930 . S
N691 C689 1.314 . S
N691 C690 1.279 . S
C692 C694 1.353 . S
C692 N695 1.314 . S
C692 H698 0.930 . S
C693 N695 1.279 . S
C693 C696 1.358 . S
C693 H699 0.930 . S
C694 C692 1.353 . S
C694 C697 1.348 . S
C694 H732 0.929 . S
N695 Li650 1.990 . S
N695 C692 1.314 . S
N695 C693 1.279 . S
C696 C693 1.358 . S
C696 C697 1.356 . S
C696 H733 0.930 . S
C697 C694 1.348 . S
C697 C696 1.356 . S
H698 C692 0.930 . S
H699 C693 0.930 . S
C700 N701 1.314 . S
C700 C702 1.353 . S
C700 H706 0.930 . S
N701 Li651 1.990 . S
N701 C700 1.314 . S
N701 C704 1.279 . S
C702 C700 1.353 . S
C702 C705 1.348 . S
C702 H734 0.929 . S
C703 C704 1.358 . S
C703 C705 1.356 . S
C703 H735 0.930 . S
C704 N701 1.279 . S
C704 C703 1.358 . S
C704 H707 0.930 . S
C705 C702 1.348 . S
C705 C703 1.356 . S
H706 C700 0.930 . S
H707 C704 0.930 . S
O708 Li648 1.956 . S
O708 Li649 1.970 . S
O708 Li650 1.961 . S
O708 C652 1.325 . S
O709 Li648 1.970 . S
O709 Li649 1.956 . S
O709 Li651 1.961 . S
O709 C658 1.325 . S
O710 Li648 1.961 . S
O710 Li650 1.956 . S
O710 Li651 1.970 . S
O710 C680 1.325 . S
O711 Li649 1.961 . S
O711 Li650 1.970 . S
O711 Li651 1.956 . S
O711 C686 1.325 . S
H712 C654 0.929 . S
H713 C655 0.930 . S
H714 C656 0.930 . S
H715 C657 0.930 . S
H716 C659 0.930 . S
H717 C661 0.929 . S
H718 C662 0.930 . S
H719 C663 0.930 . S
H720 C666 0.930 . S
H721 C669 0.929 . S
H722 C674 0.929 . S
H723 C675 0.930 . S
H724 C682 0.929 . S
H725 C683 0.930 . S
H726 C684 0.930 . S
H727 C685 0.930 . S
H728 C687 0.929 . S
H729 C688 0.930 . S
H730 C689 0.930 . S
H731 C690 0.930 . S
H732 C694 0.929 . S
H733 C696 0.930 . S
H734 C702 0.929 . S
H735 C703 0.930 . S
Li736 N753 1.990 . S
Li736 O796 1.956 . S
Li736 O797 1.970 . S
Li736 O798 1.961 . S
Li737 N761 1.990 . S
Li737 O796 1.970 . S
Li737 O797 1.956 . S
Li737 O799 1.961 . S
Li738 N783 1.990 . S
Li738 O796 1.961 . S
Li738 O798 1.956 . S
Li738 O799 1.970 . S
Li739 N789 1.990 . S
Li739 O797 1.961 . S
Li739 O798 1.970 . S
Li739 O799 1.956 . S
C740 C742 1.348 . S
C740 C743 1.356 . S
C740 O796 1.325 . S
N741 C744 1.314 . S
N741 C745 1.279 . S
C742 C740 1.348 . S
C742 C744 1.353 . S
C742 H800 0.929 . S
C743 C740 1.356 . S
C743 C745 1.358 . S
C743 H801 0.930 . S
C744 N741 1.314 . S
C744 C742 1.353 . S
C744 H802 0.930 . S
C745 N741 1.279 . S
C745 C743 1.358 . S
C745 H803 0.930 . S
C746 C749 1.348 . S
C746 C750 1.356 . S
C746 O797 1.325 . S
C747 N748 1.279 . S
C747 C750 1.358 . S
C747 H804 0.930 . S
N748 C747 1.279 . S
N748 C751 1.314 . S
C749 C746 1.348 . S
C749 C751 1.353 . S
C749 H805 0.929 . S
C750 C746 1.356 . S
C750 C747 1.358 . S
C750 H806 0.930 . S
C751 N748 1.314 . S
C751 C749 1.353 . S
C751 H807 0.930 . S
C752 N753 1.314 . S
C752 C757 1.353 . S
C752 H758 0.930 . S
N753 Li736 1.990 . S
N753 C752 1.314 . S
N753 C755 1.279 . S
C754 C755 1.358 . S
C754 C756 1.356 . S
C754 H808 0.930 . S
C755 N753 1.279 . S
C755 C754 1.358 . S
C755 H759 0.930 . S
C756 C754 1.356 . S
C756 C757 1.348 . S
C757 C752 1.353 . S
C757 C756 1.348 . S
C757 H809 0.929 . S
H758 C752 0.930 . S
H759 C755 0.930 . S
C760 N761 1.314 . S
C760 C762 1.353 . S
C760 H766 0.930 . S
N761 Li737 1.990 . S
N761 C760 1.314 . S
N761 C764 1.279 . S
C762 C760 1.353 . S
C762 C765 1.348 . S
C762 H810 0.929 . S
C763 C764 1.358 . S
C763 C765 1.356 . S
C763 H811 0.930 . S
C764 N761 1.279 . S
C764 C763 1.358 . S
C764 H767 0.930 . S
C765 C762 1.348 . S
C765 C763 1.356 . S
H766 C760 0.930 . S
H767 C764 0.930 . S
C768 C770 1.348 . S
C768 C771 1.356 . S
C768 O798 1.325 . S
N769 C772 1.314 . S
N769 C773 1.279 . S
C770 C768 1.348 . S
C770 C772 1.353 . S
C770 H812 0.929 . S
C771 C768 1.356 . S
C771 C773 1.358 . S
C771 H813 0.930 . S
C772 N769 1.314 . S
C772 C770 1.353 . S
C772 H814 0.930 . S
C773 N769 1.279 . S
C773 C771 1.358 . S
C773 H815 0.930 . S
C774 C775 1.348 . S
C774 C776 1.356 . S
C774 O799 1.325 . S
C775 C774 1.348 . S
C775 C777 1.353 . S
C775 H816 0.929 . S
C776 C774 1.356 . S
C776 C778 1.358 . S
C776 H817 0.930 . S
C777 C775 1.353 . S
C777 N779 1.314 . S
C777 H818 0.930 . S
C778 C776 1.358 . S
C778 N779 1.279 . S
C778 H819 0.930 . S
N779 C777 1.314 . S
N779 C778 1.279 . S
C780 C782 1.353 . S
C780 N783 1.314 . S
C780 H786 0.930 . S
C781 N783 1.279 . S
C781 C784 1.358 . S
C781 H787 0.930 . S
C782 C780 1.353 . S
C782 C785 1.348 . S
C782 H820 0.929 . S
N783 Li738 1.990 . S
N783 C780 1.314 . S
N783 C781 1.279 . S
C784 C781 1.358 . S
C784 C785 1.356 . S
C784 H821 0.930 . S
C785 C782 1.348 . S
C785 C784 1.356 . S
H786 C780 0.930 . S
H787 C781 0.930 . S
C788 N789 1.314 . S
C788 C790 1.353 . S
C788 H794 0.930 . S
N789 Li739 1.990 . S
N789 C788 1.314 . S
N789 C792 1.279 . S
C790 C788 1.353 . S
C790 C793 1.348 . S
C790 H822 0.929 . S
C791 C792 1.358 . S
C791 C793 1.356 . S
C791 H823 0.930 . S
C792 N789 1.279 . S
C792 C791 1.358 . S
C792 H795 0.930 . S
C793 C790 1.348 . S
C793 C791 1.356 . S
H794 C788 0.930 . S
H795 C792 0.930 . S
O796 Li736 1.956 . S
O796 Li737 1.970 . S
O796 Li738 1.961 . S
O796 C740 1.325 . S
O797 Li736 1.970 . S
O797 Li737 1.956 . S
O797 Li739 1.961 . S
O797 C746 1.325 . S
O798 Li736 1.961 . S
O798 Li738 1.956 . S
O798 Li739 1.970 . S
O798 C768 1.325 . S
O799 Li737 1.961 . S
O799 Li738 1.970 . S
O799 Li739 1.956 . S
O799 C774 1.325 . S
H800 C742 0.929 . S
H801 C743 0.930 . S
H802 C744 0.930 . S
H803 C745 0.930 . S
H804 C747 0.930 . S
H805 C749 0.929 . S
H806 C750 0.930 . S
H807 C751 0.930 . S
H808 C754 0.930 . S
H809 C757 0.929 . S
H810 C762 0.929 . S
H811 C763 0.930 . S
H812 C770 0.929 . S
H813 C771 0.930 . S
H814 C772 0.930 . S
H815 C773 0.930 . S
H816 C775 0.929 . S
H817 C776 0.930 . S
H818 C777 0.930 . S
H819 C778 0.930 . S
H820 C782 0.929 . S
H821 C784 0.930 . S
H822 C790 0.929 . S
H823 C791 0.930 . S
Li824 N841 1.990 . S
Li824 O884 1.956 . S
Li824 O885 1.970 1_565 S
Li824 O886 1.961 1_565 S
Li825 N849 1.990 . S
Li825 O884 1.970 1_545 S
Li825 O885 1.956 . S
Li825 O887 1.961 . S
Li826 N871 1.990 . S
Li826 O884 1.961 1_545 S
Li826 O886 1.956 . S
Li826 O887 1.970 . S
Li827 N877 1.990 . S
Li827 O885 1.961 . S
Li827 O886 1.970 . S
Li827 O887 1.956 . S
C828 C830 1.348 . S
C828 C831 1.356 . S
C828 O884 1.325 . S
N829 C832 1.314 . S
N829 C833 1.279 . S
C830 C828 1.348 . S
C830 C832 1.353 . S
C830 H888 0.929 . S
C831 C828 1.356 . S
C831 C833 1.358 . S
C831 H889 0.930 . S
C832 N829 1.314 . S
C832 C830 1.353 . S
C832 H890 0.930 . S
C833 N829 1.279 . S
C833 C831 1.358 . S
C833 H891 0.930 . S
C834 C837 1.348 . S
C834 C838 1.356 . S
C834 O885 1.325 . S
C835 N836 1.279 . S
C835 C838 1.358 . S
C835 H892 0.930 . S
N836 C835 1.279 . S
N836 C839 1.314 . S
C837 C834 1.348 . S
C837 C839 1.353 . S
C837 H893 0.895 1_545 S
C838 C834 1.356 . S
C838 C835 1.358 . S
C838 H894 0.930 . S
C839 N836 1.314 . S
C839 C837 1.353 . S
C839 H895 0.930 . S
C840 N841 1.314 . S
C840 C845 1.353 . S
C840 H846 0.930 . S
N841 Li824 1.990 . S
N841 C840 1.314 . S
N841 C843 1.279 . S
C842 C843 1.358 . S
C842 C844 1.356 . S
C842 H896 0.930 . S
C843 N841 1.279 . S
C843 C842 1.358 . S
C843 H847 0.930 . S
C844 C842 1.356 . S
C844 C845 1.348 . S
C845 C840 1.353 . S
C845 C844 1.348 . S
C845 H897 0.929 . S
H846 C840 0.930 . S
H847 C843 0.930 . S
C848 N849 1.314 . S
C848 C850 1.353 . S
C848 H854 0.930 . S
N849 Li825 1.990 . S
N849 C848 1.314 . S
N849 C852 1.279 . S
C850 C848 1.353 . S
C850 C853 1.348 . S
C850 H898 0.929 . S
C851 C852 1.358 . S
C851 C853 1.356 . S
C851 H899 0.930 . S
C852 N849 1.279 . S
C852 C851 1.358 . S
C852 H855 0.930 . S
C853 C850 1.348 . S
C853 C851 1.356 . S
H854 C848 0.930 . S
H855 C852 0.930 . S
C856 C858 1.348 . S
C856 C859 1.356 1_545 S
C856 O886 1.325 . S
N857 C860 1.314 . S
N857 C861 1.279 1_545 S
C858 C856 1.348 . S
C858 C860 1.353 . S
C858 H900 0.929 . S
C859 C856 1.356 1_565 S
C859 C861 1.358 . S
C859 H901 0.930 . S
C860 N857 1.314 . S
C860 C858 1.353 . S
C860 H902 0.930 . S
C861 N857 1.279 1_565 S
C861 C859 1.358 . S
C861 H903 0.930 . S
C862 C863 1.348 . S
C862 C864 1.356 . S
C862 O887 1.325 . S
C863 C862 1.348 . S
C863 C865 1.353 . S
C863 H904 0.929 . S
C864 C862 1.356 . S
C864 C866 1.358 . S
C864 H905 0.930 . S
C865 C863 1.353 . S
C865 N867 1.314 . S
C865 H906 0.930 . S
C866 C864 1.358 . S
C866 N867 1.279 . S
C866 H907 0.930 . S
N867 C865 1.314 . S
N867 C866 1.279 . S
C868 C870 1.353 . S
C868 N871 1.314 1_565 S
C868 H874 0.930 . S
C869 N871 1.279 . S
C869 C872 1.358 . S
C869 H875 0.930 . S
C870 C868 1.353 . S
C870 C873 1.348 . S
C870 H908 0.929 . S
N871 Li826 1.990 . S
N871 C868 1.314 1_545 S
N871 C869 1.279 . S
C872 C869 1.358 . S
C872 C873 1.357 1_545 S
C872 H909 0.928 . S
C873 C870 1.348 . S
C873 C872 1.357 1_565 S
H874 C868 0.930 . S
H875 C869 0.930 . S
C876 N877 1.314 . S
C876 C878 1.353 . S
C876 H882 0.930 . S
N877 Li827 1.990 . S
N877 C876 1.314 . S
N877 C880 1.279 . S
C878 C876 1.353 . S
C878 C881 1.348 . S
C878 H910 0.929 . S
C879 C880 1.358 . S
C879 C881 1.356 . S
C879 H911 0.930 . S
C880 N877 1.279 . S
C880 C879 1.358 . S
C880 H883 0.930 . S
C881 C878 1.348 . S
C881 C879 1.356 . S
H882 C876 0.930 . S
H883 C880 0.930 . S
O884 Li824 1.956 . S
O884 Li825 1.970 1_565 S
O884 Li826 1.961 1_565 S
O884 C828 1.325 . S
O885 Li824 1.970 1_545 S
O885 Li825 1.956 . S
O885 Li827 1.961 . S
O885 C834 1.325 . S
O886 Li824 1.961 1_545 S
O886 Li826 1.956 . S
O886 Li827 1.970 . S
O886 C856 1.325 . S
O887 Li825 1.961 . S
O887 Li826 1.970 . S
O887 Li827 1.956 . S
O887 C862 1.325 . S
H888 C830 0.929 . S
H889 C831 0.930 . S
H890 C832 0.930 . S
H891 C833 0.930 . S
H892 C835 0.930 . S
H893 C837 0.895 1_565 S
H894 C838 0.930 . S
H895 C839 0.930 . S
H896 C842 0.930 . S
H897 C845 0.929 . S
H898 C850 0.929 . S
H899 C851 0.930 . S
H900 C858 0.929 . S
H901 C859 0.930 . S
H902 C860 0.930 . S
H903 C861 0.930 . S
H904 C863 0.929 . S
H905 C864 0.930 . S
H906 C865 0.930 . S
H907 C866 0.930 . S
H908 C870 0.929 . S
H909 C872 0.928 . S
H910 C878 0.929 . S
H911 C879 0.930 . S
Li912 N929 1.990 . S
Li912 O972 1.956 . S
Li912 O973 1.970 . S
Li912 O974 1.961 . S
Li913 N937 1.987 1_455 S
Li913 O972 1.970 . S
Li913 O973 1.956 . S
Li913 O975 1.961 1_455 S
Li914 N959 1.990 . S
Li914 O972 1.961 . S
Li914 O974 1.956 . S
Li914 O975 1.970 1_455 S
Li915 N965 1.990 . S
Li915 O973 1.961 1_655 S
Li915 O974 1.970 1_655 S
Li915 O975 1.956 . S
C916 C918 1.348 . S
C916 C919 1.356 . S
C916 O972 1.325 . S
N917 C920 1.314 . S
N917 C921 1.279 . S
C918 C916 1.348 . S
C918 C920 1.353 . S
C918 H976 0.929 . S
C919 C916 1.356 . S
C919 C921 1.358 . S
C919 H977 0.930 . S
C920 N917 1.314 . S
C920 C918 1.353 . S
C920 H978 0.930 . S
C921 N917 1.279 . S
C921 C919 1.358 . S
C921 H979 0.930 . S
C922 C925 1.348 . S
C922 C926 1.356 1_455 S
C922 O973 1.325 . S
C923 N924 1.279 1_655 S
C923 C926 1.358 . S
C923 H980 0.930 . S
N924 C923 1.279 1_455 S
N924 C927 1.314 . S
C925 C922 1.348 . S
C925 C927 1.353 . S
C925 H981 0.929 . S
C926 C922 1.356 1_655 S
C926 C923 1.358 . S
C926 H982 0.930 . S
C927 N924 1.314 . S
C927 C925 1.353 . S
C927 H983 0.930 . S
C928 N929 1.314 . S
C928 C933 1.353 . S
C928 H934 0.930 . S
N929 Li912 1.990 . S
N929 C928 1.314 . S
N929 C931 1.279 . S
C930 C931 1.358 . S
C930 C932 1.356 . S
C930 H984 0.930 . S
C931 N929 1.279 . S
C931 C930 1.358 . S
C931 H935 0.930 . S
C932 C930 1.356 . S
C932 C933 1.348 . S
C933 C928 1.353 . S
C933 C932 1.348 . S
C933 H985 0.929 . S
H934 C928 0.930 . S
H935 C931 0.930 . S
C936 N937 1.320 . S
C936 C938 1.353 . S
C936 H942 0.930 . S
N937 Li913 1.987 1_655 S
N937 C936 1.320 . S
N937 C940 1.276 1_655 S
C938 C936 1.353 . S
C938 C941 1.348 . S
C938 H986 0.929 . S
C939 C940 1.358 . S
C939 C941 1.356 1_455 S
C939 H987 0.930 . S
C940 N937 1.276 1_455 S
C940 C939 1.358 . S
C940 H943 0.930 . S
C941 C938 1.348 . S
C941 C939 1.356 1_655 S
H942 C936 0.930 . S
H943 C940 0.930 . S
C944 C946 1.348 1_455 S
C944 C947 1.356 . S
C944 O974 1.325 . S
N945 C948 1.314 1_455 S
N945 C949 1.279 . S
C946 C944 1.348 1_655 S
C946 C948 1.353 . S
C946 H988 0.929 . S
C947 C944 1.356 . S
C947 C949 1.358 . S
C947 H989 0.930 . S
C948 N945 1.314 1_655 S
C948 C946 1.353 . S
C948 H990 0.930 . S
C949 N945 1.279 . S
C949 C947 1.358 . S
C949 H991 0.930 . S
C950 C951 1.348 . S
C950 C952 1.356 . S
C950 O975 1.325 . S
C951 C950 1.348 . S
C951 C953 1.353 . S
C951 H992 0.929 . S
C952 C950 1.356 . S
C952 C954 1.358 . S
C952 H993 0.930 . S
C953 C951 1.353 . S
C953 N955 1.314 . S
C953 H994 0.930 . S
C954 C952 1.358 . S
C954 N955 1.279 . S
C954 H995 0.930 . S
N955 C953 1.314 . S
N955 C954 1.279 . S
C956 C958 1.353 . S
C956 N959 1.314 . S
C956 H962 0.930 . S
C957 N959 1.279 . S
C957 C960 1.358 . S
C957 H963 0.930 . S
C958 C956 1.353 . S
C958 C961 1.348 . S
C958 H996 0.929 . S
N959 Li914 1.990 . S
N959 C956 1.314 . S
N959 C957 1.279 . S
C960 C957 1.358 . S
C960 C961 1.356 . S
C960 H997 0.930 . S
C961 C958 1.348 . S
C961 C960 1.356 . S
H962 C956 0.930 . S
H963 C957 0.930 . S
C964 N965 1.314 . S
C964 C966 1.353 . S
C964 H970 0.930 . S
N965 Li915 1.990 . S
N965 C964 1.314 . S
N965 C968 1.279 . S
C966 C964 1.353 . S
C966 C969 1.348 . S
C966 H998 0.929 . S
C967 C968 1.358 . S
C967 C969 1.356 . S
C967 H999 0.930 . S
C968 N965 1.279 . S
C968 C967 1.358 . S
C968 H971 0.930 . S
C969 C966 1.348 . S
C969 C967 1.356 . S
H970 C964 0.930 . S
H971 C968 0.930 . S
O972 Li912 1.956 . S
O972 Li913 1.970 . S
O972 Li914 1.961 . S
O972 C916 1.325 . S
O973 Li912 1.970 . S
O973 Li913 1.956 . S
O973 Li915 1.961 1_455 S
O973 C922 1.325 . S
O974 Li912 1.961 . S
O974 Li914 1.956 . S
O974 Li915 1.970 1_455 S
O974 C944 1.325 . S
O975 Li913 1.961 1_655 S
O975 Li914 1.970 1_655 S
O975 Li915 1.956 . S
O975 C950 1.325 . S
H976 C918 0.929 . S
H977 C919 0.930 . S
H978 C920 0.930 . S
H979 C921 0.930 . S
H980 C923 0.930 . S
H981 C925 0.929 . S
H982 C926 0.930 . S
H983 C927 0.930 . S
H984 C930 0.930 . S
H985 C933 0.929 . S
H986 C938 0.929 . S
H987 C939 0.930 . S
H988 C946 0.929 . S
H989 C947 0.930 . S
H990 C948 0.930 . S
H991 C949 0.930 . S
H992 C951 0.929 . S
H993 C952 0.930 . S
H994 C953 0.930 . S
H995 C954 0.930 . S
H996 C958 0.929 . S
H997 C960 0.930 . S
H998 C966 0.929 . S
H999 C967 0.930 . S
Li1000 N1017 1.990 . S
Li1000 O1060 1.956 . S
Li1000 O1061 1.970 . S
Li1000 O1062 1.961 . S
Li1001 N1025 1.990 . S
Li1001 O1060 1.970 . S
Li1001 O1061 1.956 . S
Li1001 O1063 1.961 . S
Li1002 N1047 1.990 . S
Li1002 O1060 1.961 . S
Li1002 O1062 1.956 . S
Li1002 O1063 1.970 . S
Li1003 N1053 1.990 . S
Li1003 O1061 1.961 . S
Li1003 O1062 1.970 . S
Li1003 O1063 1.956 . S
C1004 C1006 1.348 . S
C1004 C1007 1.356 . S
C1004 O1060 1.325 . S
N1005 C1008 1.314 . S
N1005 C1009 1.279 . S
C1006 C1004 1.348 . S
C1006 C1008 1.353 . S
C1006 H1064 0.929 . S
C1007 C1004 1.356 . S
C1007 C1009 1.358 . S
C1007 H1065 0.930 . S
C1008 N1005 1.314 . S
C1008 C1006 1.353 . S
C1008 H1066 0.930 . S
C1009 N1005 1.279 . S
C1009 C1007 1.358 . S
C1009 H1067 0.930 . S
C1010 C1013 1.348 . S
C1010 C1014 1.356 . S
C1010 O1061 1.325 . S
C1011 N1012 1.279 . S
C1011 C1014 1.358 . S
C1011 H1068 0.930 . S
N1012 C1011 1.279 . S
N1012 C1015 1.314 . S
C1013 C1010 1.348 . S
C1013 C1015 1.353 . S
C1013 H1069 0.929 . S
C1014 C1010 1.356 . S
C1014 C1011 1.358 . S
C1014 H1070 0.930 . S
C1015 N1012 1.314 . S
C1015 C1013 1.353 . S
C1015 H1071 0.930 . S
C1016 N1017 1.314 . S
C1016 C1021 1.353 . S
C1016 H1022 0.930 . S
N1017 Li1000 1.990 . S
N1017 C1016 1.314 . S
N1017 C1019 1.279 . S
C1018 C1019 1.358 . S
C1018 C1020 1.356 . S
C1018 H1072 0.930 . S
C1019 N1017 1.279 . S
C1019 C1018 1.358 . S
C1019 H1023 0.930 . S
C1020 C1018 1.356 . S
C1020 C1021 1.348 . S
C1021 C1016 1.353 . S
C1021 C1020 1.348 . S
C1021 H1073 0.929 . S
H1022 C1016 0.930 . S
H1023 C1019 0.930 . S
C1024 N1025 1.314 . S
C1024 C1026 1.353 . S
C1024 H1030 0.930 . S
N1025 Li1001 1.990 . S
N1025 C1024 1.314 . S
N1025 C1028 1.279 . S
C1026 C1024 1.353 . S
C1026 C1029 1.348 . S
C1026 H1074 0.929 . S
C1027 C1028 1.358 . S
C1027 C1029 1.356 . S
C1027 H1075 0.930 . S
C1028 N1025 1.279 . S
C1028 C1027 1.358 . S
C1028 H1031 0.930 . S
C1029 C1026 1.348 . S
C1029 C1027 1.356 . S
H1030 C1024 0.930 . S
H1031 C1028 0.930 . S
C1032 C1034 1.348 . S
C1032 C1035 1.356 . S
C1032 O1062 1.325 . S
N1033 C1036 1.314 . S
N1033 C1037 1.279 . S
C1034 C1032 1.348 . S
C1034 C1036 1.353 . S
C1034 H1076 0.929 . S
C1035 C1032 1.356 . S
C1035 C1037 1.358 . S
C1035 H1077 0.930 . S
C1036 N1033 1.314 . S
C1036 C1034 1.353 . S
C1036 H1078 0.930 . S
C1037 N1033 1.279 . S
C1037 C1035 1.358 . S
C1037 H1079 0.930 . S
C1038 C1039 1.348 . S
C1038 C1040 1.356 . S
C1038 O1063 1.325 . S
C1039 C1038 1.348 . S
C1039 C1041 1.353 . S
C1039 H1080 0.929 . S
C1040 C1038 1.356 . S
C1040 C1042 1.358 . S
C1040 H1081 0.930 . S
C1041 C1039 1.353 . S
C1041 N1043 1.314 . S
C1041 H1082 0.930 . S
C1042 C1040 1.358 . S
C1042 N1043 1.279 . S
C1042 H1083 0.930 . S
N1043 C1041 1.314 . S
N1043 C1042 1.279 . S
C1044 C1046 1.353 . S
C1044 N1047 1.314 . S
C1044 H1050 0.930 . S
C1045 N1047 1.279 . S
C1045 C1048 1.358 . S
C1045 H1051 0.930 . S
C1046 C1044 1.353 . S
C1046 C1049 1.348 . S
C1046 H1084 0.929 . S
N1047 Li1002 1.990 . S
N1047 C1044 1.314 . S
N1047 C1045 1.279 . S
C1048 C1045 1.358 . S
C1048 C1049 1.356 . S
C1048 H1085 0.930 . S
C1049 C1046 1.348 . S
C1049 C1048 1.356 . S
H1050 C1044 0.930 . S
H1051 C1045 0.930 . S
C1052 N1053 1.314 . S
C1052 C1054 1.353 . S
C1052 H1058 0.930 . S
N1053 Li1003 1.990 . S
N1053 C1052 1.314 . S
N1053 C1056 1.279 . S
C1054 C1052 1.353 . S
C1054 C1057 1.348 . S
C1054 H1086 0.929 . S
C1055 C1056 1.358 . S
C1055 C1057 1.356 . S
C1055 H1087 0.930 . S
C1056 N1053 1.279 . S
C1056 C1055 1.358 . S
C1056 H1059 0.930 . S
C1057 C1054 1.348 . S
C1057 C1055 1.356 . S
H1058 C1052 0.930 . S
H1059 C1056 0.930 . S
O1060 Li1000 1.956 . S
O1060 Li1001 1.970 . S
O1060 Li1002 1.961 . S
O1060 C1004 1.325 . S
O1061 Li1000 1.970 . S
O1061 Li1001 1.956 . S
O1061 Li1003 1.961 . S
O1061 C1010 1.325 . S
O1062 Li1000 1.961 . S
O1062 Li1002 1.956 . S
O1062 Li1003 1.970 . S
O1062 C1032 1.325 . S
O1063 Li1001 1.961 . S
O1063 Li1002 1.970 . S
O1063 Li1003 1.956 . S
O1063 C1038 1.325 . S
H1064 C1006 0.929 . S
H1065 C1007 0.930 . S
H1066 C1008 0.930 . S
H1067 C1009 0.930 . S
H1068 C1011 0.930 . S
H1069 C1013 0.929 . S
H1070 C1014 0.930 . S
H1071 C1015 0.930 . S
H1072 C1018 0.930 . S
H1073 C1021 0.929 . S
H1074 C1026 0.929 . S
H1075 C1027 0.930 . S
H1076 C1034 0.929 . S
H1077 C1035 0.930 . S
H1078 C1036 0.930 . S
H1079 C1037 0.930 . S
H1080 C1039 0.929 . S
H1081 C1040 0.930 . S
H1082 C1041 0.930 . S
H1083 C1042 0.930 . S
H1084 C1046 0.929 . S
H1085 C1048 0.930 . S
H1086 C1054 0.929 . S
H1087 C1055 0.930 . S
Li1088 N1105 1.990 . S
Li1088 O1148 1.956 . S
Li1088 O1149 1.970 . S
Li1088 O1150 1.961 . S
Li1089 N1113 1.990 1_455 S
Li1089 O1148 1.970 . S
Li1089 O1149 1.956 . S
Li1089 O1151 1.961 . S
Li1090 N1135 1.990 . S
Li1090 O1148 1.961 . S
Li1090 O1150 1.956 . S
Li1090 O1151 1.970 . S
Li1091 N1141 1.990 . S
Li1091 O1149 1.961 . S
Li1091 O1150 1.970 . S
Li1091 O1151 1.956 . S
C1092 C1094 1.348 . S
C1092 C1095 1.356 . S
C1092 O1148 1.325 . S
N1093 C1096 1.314 . S
N1093 C1097 1.279 . S
C1094 C1092 1.348 . S
C1094 C1096 1.353 . S
C1094 H1152 0.929 . S
C1095 C1092 1.356 . S
C1095 C1097 1.358 . S
C1095 H1153 0.930 . S
C1096 N1093 1.314 . S
C1096 C1094 1.353 . S
C1096 H1154 0.930 . S
C1097 N1093 1.279 . S
C1097 C1095 1.358 . S
C1097 H1155 0.930 . S
C1098 C1101 1.348 . S
C1098 C1102 1.356 . S
C1098 O1149 1.325 1_655 S
C1099 N1100 1.279 . S
C1099 C1102 1.358 . S
C1099 H1156 0.930 . S
N1100 C1099 1.279 . S
N1100 C1103 1.314 . S
C1101 C1098 1.348 . S
C1101 C1103 1.353 . S
C1101 H1157 0.929 . S
C1102 C1098 1.356 . S
C1102 C1099 1.358 . S
C1102 H1158 0.930 . S
C1103 N1100 1.314 . S
C1103 C1101 1.353 . S
C1103 H1159 0.930 . S
C1104 N1105 1.314 . S
C1104 C1109 1.353 . S
C1104 H1110 0.930 . S
N1105 Li1088 1.990 . S
N1105 C1104 1.314 . S
N1105 C1107 1.279 . S
C1106 C1107 1.358 . S
C1106 C1108 1.356 . S
C1106 H1160 0.930 . S
C1107 N1105 1.279 . S
C1107 C1106 1.358 . S
C1107 H1111 0.930 . S
C1108 C1106 1.356 . S
C1108 C1109 1.348 . S
C1109 C1104 1.353 . S
C1109 C1108 1.348 . S
C1109 H1161 0.929 . S
H1110 C1104 0.930 . S
H1111 C1107 0.930 . S
C1112 N1113 1.314 . S
C1112 C1114 1.353 . S
C1112 H1118 0.930 . S
N1113 Li1089 1.990 1_655 S
N1113 C1112 1.314 . S
N1113 C1116 1.279 . S
C1114 C1112 1.353 . S
C1114 C1117 1.348 . S
C1114 H1162 0.929 . S
C1115 C1116 1.358 . S
C1115 C1117 1.356 . S
C1115 H1163 0.930 . S
C1116 N1113 1.279 . S
C1116 C1115 1.358 . S
C1116 H1119 0.930 . S
C1117 C1114 1.348 . S
C1117 C1115 1.356 . S
H1118 C1112 0.930 . S
H1119 C1116 0.930 . S
C1120 C1122 1.348 . S
C1120 C1123 1.356 . S
C1120 O1150 1.325 . S
N1121 C1124 1.314 . S
N1121 C1125 1.279 . S
C1122 C1120 1.348 . S
C1122 C1124 1.353 . S
C1122 H1164 0.929 . S
C1123 C1120 1.356 . S
C1123 C1125 1.358 . S
C1123 H1165 0.930 . S
C1124 N1121 1.314 . S
C1124 C1122 1.353 . S
C1124 H1166 0.930 . S
C1125 N1121 1.279 . S
C1125 C1123 1.358 . S
C1125 H1167 0.930 . S
C1126 C1127 1.348 . S
C1126 C1128 1.385 . S
C1126 O1151 1.325 . S
C1127 C1126 1.348 . S
C1127 C1129 1.353 . S
C1127 H1168 0.929 . S
C1128 C1126 1.385 . S
C1128 C1130 1.356 1_455 S
C1128 H1169 0.903 1_455 S
C1129 C1127 1.353 . S
C1129 N1131 1.314 . S
C1129 H1170 0.930 . S
C1130 C1128 1.356 1_655 S
C1130 N1131 1.279 1_655 S
C1130 H1171 0.930 . S
N1131 C1129 1.314 . S
N1131 C1130 1.279 1_455 S
C1132 C1134 1.353 . S
C1132 N1135 1.314 . S
C1132 H1138 0.930 . S
C1133 N1135 1.279 . S
C1133 C1136 1.358 . S
C1133 H1139 0.930 . S
C1134 C1132 1.353 . S
C1134 C1137 1.348 . S
C1134 H1172 0.929 . S
N1135 Li1090 1.990 . S
N1135 C1132 1.314 . S
N1135 C1133 1.279 . S
C1136 C1133 1.358 . S
C1136 C1137 1.356 . S
C1136 H1173 0.930 . S
C1137 C1134 1.348 . S
C1137 C1136 1.356 . S
H1138 C1132 0.930 . S
H1139 C1133 0.930 . S
C1140 N1141 1.314 . S
C1140 C1142 1.353 . S
C1140 H1146 0.930 . S
N1141 Li1091 1.990 . S
N1141 C1140 1.314 . S
N1141 C1144 1.279 . S
C1142 C1140 1.353 . S
C1142 C1145 1.348 . S
C1142 H1174 0.949 . S
C1143 C1144 1.358 . S
C1143 C1145 1.356 . S
C1143 H1175 0.930 . S
C1144 N1141 1.279 . S
C1144 C1143 1.358 . S
C1144 H1147 0.930 . S
C1145 C1142 1.348 . S
C1145 C1143 1.356 . S
H1146 C1140 0.930 . S
H1147 C1144 0.930 . S
O1148 Li1088 1.956 . S
O1148 Li1089 1.970 . S
O1148 Li1090 1.961 . S
O1148 C1092 1.325 . S
O1149 Li1088 1.970 . S
O1149 Li1089 1.956 . S
O1149 Li1091 1.961 . S
O1149 C1098 1.325 1_455 S
O1150 Li1088 1.961 . S
O1150 Li1090 1.956 . S
O1150 Li1091 1.970 . S
O1150 C1120 1.325 . S
O1151 Li1089 1.961 . S
O1151 Li1090 1.970 . S
O1151 Li1091 1.956 . S
O1151 C1126 1.325 . S
H1152 C1094 0.929 . S
H1153 C1095 0.930 . S
H1154 C1096 0.930 . S
H1155 C1097 0.930 . S
H1156 C1099 0.930 . S
H1157 C1101 0.929 . S
H1158 C1102 0.930 . S
H1159 C1103 0.930 . S
H1160 C1106 0.930 . S
H1161 C1109 0.929 . S
H1162 C1114 0.929 . S
H1163 C1115 0.930 . S
H1164 C1122 0.929 . S
H1165 C1123 0.930 . S
H1166 C1124 0.930 . S
H1167 C1125 0.930 . S
H1168 C1127 0.929 . S
H1169 C1128 0.903 1_655 S
H1170 C1129 0.930 . S
H1171 C1130 0.930 . S
H1172 C1134 0.929 . S
H1173 C1136 0.930 . S
H1174 C1142 0.949 . S
H1175 C1143 0.930 . S
Li1176 N1193 1.990 . S
Li1176 O1236 1.956 . S
Li1176 O1237 1.970 . S
Li1176 O1238 1.961 . S
Li1177 N1201 1.990 . S
Li1177 O1236 1.970 . S
Li1177 O1237 1.956 . S
Li1177 O1239 1.961 . S
Li1178 N1223 1.990 . S
Li1178 O1236 1.961 . S
Li1178 O1238 1.956 . S
Li1178 O1239 1.970 . S
Li1179 N1229 1.990 . S
Li1179 O1237 1.961 . S
Li1179 O1238 1.970 . S
Li1179 O1239 1.956 . S
C1180 C1182 1.348 . S
C1180 C1183 1.356 . S
C1180 O1236 1.325 . S
N1181 C1184 1.314 . S
N1181 C1185 1.279 . S
C1182 C1180 1.348 . S
C1182 C1184 1.353 . S
C1182 H1240 0.929 . S
C1183 C1180 1.356 . S
C1183 C1185 1.358 . S
C1183 H1241 0.930 . S
C1184 N1181 1.314 . S
C1184 C1182 1.353 . S
C1184 H1242 0.930 . S
C1185 N1181 1.279 . S
C1185 C1183 1.358 . S
C1185 H1243 0.930 . S
C1186 C1189 1.348 . S
C1186 C1190 1.356 . S
C1186 O1237 1.325 . S
C1187 N1188 1.279 . S
C1187 C1190 1.358 . S
C1187 H1244 0.930 . S
N1188 C1187 1.279 . S
N1188 C1191 1.314 . S
C1189 C1186 1.348 . S
C1189 C1191 1.353 . S
C1189 H1245 0.929 . S
C1190 C1186 1.356 . S
C1190 C1187 1.358 . S
C1190 H1246 0.930 . S
C1191 N1188 1.314 . S
C1191 C1189 1.353 . S
C1191 H1247 0.930 . S
C1192 N1193 1.314 . S
C1192 C1197 1.353 . S
C1192 H1198 0.930 . S
N1193 Li1176 1.990 . S
N1193 C1192 1.314 . S
N1193 C1195 1.279 . S
C1194 C1195 1.358 . S
C1194 C1196 1.356 . S
C1194 H1248 0.930 . S
C1195 N1193 1.279 . S
C1195 C1194 1.358 . S
C1195 H1199 0.930 . S
C1196 C1194 1.356 . S
C1196 C1197 1.348 . S
C1197 C1192 1.353 . S
C1197 C1196 1.348 . S
C1197 H1249 0.929 . S
H1198 C1192 0.930 . S
H1199 C1195 0.930 . S
C1200 N1201 1.314 . S
C1200 C1202 1.353 . S
C1200 H1206 0.930 . S
N1201 Li1177 1.990 . S
N1201 C1200 1.314 . S
N1201 C1204 1.279 . S
C1202 C1200 1.353 . S
C1202 C1205 1.348 . S
C1202 H1250 0.929 . S
C1203 C1204 1.358 . S
C1203 C1205 1.356 . S
C1203 H1251 0.930 . S
C1204 N1201 1.279 . S
C1204 C1203 1.358 . S
C1204 H1207 0.930 . S
C1205 C1202 1.348 . S
C1205 C1203 1.356 . S
H1206 C1200 0.930 . S
H1207 C1204 0.930 . S
C1208 C1210 1.348 . S
C1208 C1211 1.356 . S
C1208 O1238 1.325 . S
N1209 C1212 1.314 . S
N1209 C1213 1.279 . S
C1210 C1208 1.348 . S
C1210 C1212 1.353 . S
C1210 H1252 0.929 . S
C1211 C1208 1.356 . S
C1211 C1213 1.358 . S
C1211 H1253 0.930 . S
C1212 N1209 1.314 . S
C1212 C1210 1.353 . S
C1212 H1254 0.930 . S
C1213 N1209 1.279 . S
C1213 C1211 1.358 . S
C1213 H1255 0.930 . S
C1214 C1215 1.348 . S
C1214 C1216 1.356 . S
C1214 O1239 1.325 . S
C1215 C1214 1.348 . S
C1215 C1217 1.353 . S
C1215 H1256 0.929 . S
C1216 C1214 1.356 . S
C1216 C1218 1.358 . S
C1216 H1257 0.930 . S
C1217 C1215 1.353 . S
C1217 N1219 1.314 . S
C1217 H1258 0.930 . S
C1218 C1216 1.358 . S
C1218 N1219 1.279 . S
C1218 H1259 0.930 . S
N1219 C1217 1.314 . S
N1219 C1218 1.279 . S
C1220 C1222 1.353 . S
C1220 N1223 1.314 . S
C1220 H1226 0.930 . S
C1221 N1223 1.279 . S
C1221 C1224 1.358 . S
C1221 H1227 0.930 . S
C1222 C1220 1.353 . S
C1222 C1225 1.348 . S
C1222 H1260 0.929 . S
N1223 Li1178 1.990 . S
N1223 C1220 1.314 . S
N1223 C1221 1.279 . S
C1224 C1221 1.358 . S
C1224 C1225 1.356 . S
C1224 H1261 0.930 . S
C1225 C1222 1.348 . S
C1225 C1224 1.356 . S
H1226 C1220 0.930 . S
H1227 C1221 0.930 . S
C1228 N1229 1.314 . S
C1228 C1230 1.353 . S
C1228 H1234 0.930 . S
N1229 Li1179 1.990 . S
N1229 C1228 1.314 . S
N1229 C1232 1.279 . S
C1230 C1228 1.353 . S
C1230 C1233 1.348 . S
C1230 H1262 0.929 . S
C1231 C1232 1.358 . S
C1231 C1233 1.356 . S
C1231 H1263 0.930 . S
C1232 N1229 1.279 . S
C1232 C1231 1.358 . S
C1232 H1235 0.930 . S
C1233 C1230 1.348 . S
C1233 C1231 1.356 . S
H1234 C1228 0.930 . S
H1235 C1232 0.930 . S
O1236 Li1176 1.956 . S
O1236 Li1177 1.970 . S
O1236 Li1178 1.961 . S
O1236 C1180 1.325 . S
O1237 Li1176 1.970 . S
O1237 Li1177 1.956 . S
O1237 Li1179 1.961 . S
O1237 C1186 1.325 . S
O1238 Li1176 1.961 . S
O1238 Li1178 1.956 . S
O1238 Li1179 1.970 . S
O1238 C1208 1.325 . S
O1239 Li1177 1.961 . S
O1239 Li1178 1.970 . S
O1239 Li1179 1.956 . S
O1239 C1214 1.325 . S
H1240 C1182 0.929 . S
H1241 C1183 0.930 . S
H1242 C1184 0.930 . S
H1243 C1185 0.930 . S
H1244 C1187 0.930 . S
H1245 C1189 0.929 . S
H1246 C1190 0.930 . S
H1247 C1191 0.930 . S
H1248 C1194 0.930 . S
H1249 C1197 0.929 . S
H1250 C1202 0.929 . S
H1251 C1203 0.930 . S
H1252 C1210 0.929 . S
H1253 C1211 0.930 . S
H1254 C1212 0.930 . S
H1255 C1213 0.930 . S
H1256 C1215 0.929 . S
H1257 C1216 0.930 . S
H1258 C1217 0.930 . S
H1259 C1218 0.930 . S
H1260 C1222 0.929 . S
H1261 C1224 0.930 . S
H1262 C1230 0.929 . S
H1263 C1231 0.930 . S
C1264 C1265 1.349 . S
C1264 C1266 1.327 . S
C1264 H1289 0.950 . S
C1265 C1264 1.349 . S
C1265 C1281 1.349 . S
C1266 C1264 1.327 . S
C1266 C1285 1.429 . S
C1266 H1290 0.950 . S
C1267 C1284 1.574 . S
C1267 C1286 1.368 . S
C1267 H1291 0.949 . S
H1268 C1272 0.949 . S
C1269 C1270 1.349 . S
C1269 C1271 1.327 . S
C1269 H1292 0.950 . S
C1270 C1269 1.349 . S
C1270 C1282 1.349 . S
C1271 C1269 1.327 . S
C1271 C1287 1.429 . S
C1271 H1293 0.950 . S
C1272 H1268 0.949 . S
C1272 C1280 1.574 . S
C1272 C1288 1.368 . S
H1273 C1281 0.950 . S
H1274 C1279 0.950 . S
H1275 C1280 0.949 . S
H1276 C1282 0.950 . S
H1277 C1283 0.950 . S
H1278 C1284 0.949 . S
C1279 H1274 0.950 . S
C1279 C1281 1.327 . S
C1279 C1285 1.429 . S
C1280 C1272 1.574 . S
C1280 H1275 0.949 . S
C1280 C1286 1.368 . S
C1281 C1265 1.349 . S
C1281 H1273 0.950 . S
C1281 C1279 1.327 . S
C1282 C1270 1.349 . S
C1282 H1276 0.950 . S
C1282 C1283 1.327 . S
C1283 H1277 0.950 . S
C1283 C1282 1.327 . S
C1283 C1287 1.429 . S
C1284 C1267 1.574 . S
C1284 H1278 0.949 . S
C1284 C1288 1.368 . S
C1285 C1266 1.429 . S
C1285 C1279 1.429 . S
C1285 C1286 1.523 . S
C1286 C1267 1.368 . S
C1286 C1280 1.368 . S
C1286 C1285 1.523 . S
C1287 C1271 1.429 . S
C1287 C1283 1.429 . S
C1287 C1288 1.523 . S
C1288 C1272 1.368 . S
C1288 C1284 1.368 . S
C1288 C1287 1.523 . S
H1289 C1264 0.950 . S
H1290 C1266 0.950 . S
H1291 C1267 0.949 . S
H1292 C1269 0.950 . S
H1293 C1271 0.950 . S
C1294 C1295 1.349 . S
C1294 C1296 1.327 . S
C1294 H1319 0.950 . S
C1295 C1294 1.349 . S
C1295 C1311 1.349 . S
C1296 C1294 1.327 . S
C1296 C1315 1.429 1_655 S
C1296 H1320 0.950 . S
C1297 C1314 1.574 . S
C1297 C1316 1.368 . S
C1297 H1321 0.949 . S
H1298 C1302 0.949 . S
C1299 C1300 1.349 . S
C1299 C1301 1.327 . S
C1299 H1322 0.950 . S
C1300 C1299 1.349 . S
C1300 C1312 1.349 . S
C1301 C1299 1.327 . S
C1301 C1317 1.429 . S
C1301 H1323 0.950 . S
C1302 H1298 0.949 . S
C1302 C1310 1.574 . S
C1302 C1318 1.368 . S
H1303 C1311 0.950 . S
H1304 C1309 0.950 . S
H1305 C1310 0.949 . S
H1306 C1312 0.950 . S
H1307 C1313 0.950 . S
H1308 C1314 0.949 . S
C1309 H1304 0.950 . S
C1309 C1311 1.327 1_455 S
C1309 C1315 1.429 . S
C1310 C1302 1.574 . S
C1310 H1305 0.949 . S
C1310 C1316 1.368 . S
C1311 C1295 1.349 . S
C1311 H1303 0.950 . S
C1311 C1309 1.327 1_655 S
C1312 C1300 1.349 . S
C1312 H1306 0.950 . S
C1312 C1313 1.327 . S
C1313 H1307 0.950 . S
C1313 C1312 1.327 . S
C1313 C1317 1.429 . S
C1314 C1297 1.574 . S
C1314 H1308 0.949 . S
C1314 C1318 1.368 . S
C1315 C1296 1.429 1_455 S
C1315 C1309 1.429 . S
C1315 C1316 1.523 . S
C1316 C1297 1.368 . S
C1316 C1310 1.368 . S
C1316 C1315 1.523 . S
C1317 C1301 1.429 . S
C1317 C1313 1.429 . S
C1317 C1318 1.523 . S
C1318 C1302 1.368 . S
C1318 C1314 1.368 . S
C1318 C1317 1.523 . S
H1319 C1294 0.950 . S
H1320 C1296 0.950 . S
H1321 C1297 0.949 . S
H1322 C1299 0.950 . S
H1323 C1301 0.950 . S
C1324 C1325 1.349 . S
C1324 C1326 1.327 . S
C1324 H1349 0.950 . S
C1325 C1324 1.349 . S
C1325 C1341 1.349 . S
C1326 C1324 1.327 . S
C1326 C1345 1.429 . S
C1326 H1350 0.950 . S
C1327 C1344 1.574 . S
C1327 C1346 1.368 . S
C1327 H1351 0.949 . S
H1328 C1332 0.949 . S
C1329 C1330 1.349 . S
C1329 C1331 1.327 . S
C1329 H1352 0.950 . S
C1330 C1329 1.349 . S
C1330 C1342 1.349 . S
C1331 C1329 1.327 . S
C1331 C1347 1.429 . S
C1331 H1353 0.950 . S
C1332 H1328 0.949 . S
C1332 C1340 1.574 . S
C1332 C1348 1.368 . S
H1333 C1341 0.950 . S
H1334 C1339 0.950 . S
H1335 C1340 0.949 . S
H1336 C1342 0.950 . S
H1337 C1343 0.950 . S
H1338 C1344 0.949 . S
C1339 H1334 0.950 . S
C1339 C1341 1.327 . S
C1339 C1345 1.429 . S
C1340 C1332 1.574 . S
C1340 H1335 0.949 . S
C1340 C1346 1.368 . S
C1341 C1325 1.349 . S
C1341 H1333 0.950 . S
C1341 C1339 1.327 . S
C1342 C1330 1.349 . S
C1342 H1336 0.950 . S
C1342 C1343 1.327 . S
C1343 H1337 0.950 . S
C1343 C1342 1.327 . S
C1343 C1347 1.429 . S
C1344 C1327 1.574 . S
C1344 H1338 0.949 . S
C1344 C1348 1.368 . S
C1345 C1326 1.429 . S
C1345 C1339 1.429 . S
C1345 C1346 1.523 . S
C1346 C1327 1.368 . S
C1346 C1340 1.368 . S
C1346 C1345 1.523 . S
C1347 C1331 1.429 . S
C1347 C1343 1.429 . S
C1347 C1348 1.523 . S
C1348 C1332 1.368 . S
C1348 C1344 1.368 . S
C1348 C1347 1.523 . S
H1349 C1324 0.950 . S
H1350 C1326 0.950 . S
H1351 C1327 0.949 . S
H1352 C1329 0.950 . S
H1353 C1331 0.950 . S
C1354 C1355 1.349 . S
C1354 C1356 1.327 1_455 S
C1354 H1379 0.950 . S
C1355 C1354 1.349 . S
C1355 C1371 1.349 1_565 S
C1356 C1354 1.327 1_655 S
C1356 C1375 1.429 . S
C1356 H1380 0.950 . S
C1357 C1374 1.574 . S
C1357 C1376 1.368 1_545 S
C1357 H1381 0.949 . S
H1358 C1362 0.949 . S
C1359 C1360 1.349 . S
C1359 C1361 1.327 . S
C1359 H1382 0.950 . S
C1360 C1359 1.349 . S
C1360 C1372 1.349 1_545 S
C1361 C1359 1.327 . S
C1361 C1377 1.446 . S
C1361 H1383 0.950 . S
C1362 H1358 0.949 . S
C1362 C1370 1.574 . S
C1362 C1378 1.368 . S
H1363 C1371 0.950 . S
H1364 C1369 0.950 . S
H1365 C1370 0.949 . S
H1366 C1372 0.950 . S
H1367 C1373 0.950 . S
H1368 C1374 0.949 . S
C1369 H1364 0.950 . S
C1369 C1371 1.327 . S
C1369 C1375 1.429 1_445 S
C1370 C1362 1.574 . S
C1370 H1365 0.949 . S
C1370 C1376 1.368 . S
C1371 C1355 1.349 1_545 S
C1371 H1363 0.950 . S
C1371 C1369 1.327 . S
C1372 C1360 1.349 1_565 S
C1372 H1366 0.950 . S
C1372 C1373 1.327 . S
C1373 H1367 0.950 . S
C1373 C1372 1.327 . S
C1373 C1377 1.416 1_565 S
C1374 C1357 1.574 . S
C1374 H1368 0.949 . S
C1374 C1378 1.368 1_545 S
C1375 C1356 1.429 . S
C1375 C1369 1.429 1_665 S
C1375 C1376 1.523 . S
C1376 C1357 1.368 1_565 S
C1376 C1370 1.368 . S
C1376 C1375 1.523 . S
C1377 C1361 1.446 . S
C1377 C1373 1.416 1_545 S
C1377 C1378 1.519 1_545 S
C1378 C1362 1.368 . S
C1378 C1374 1.368 1_565 S
C1378 C1377 1.519 1_565 S
H1379 C1354 0.950 . S
H1380 C1356 0.950 . S
H1381 C1357 0.949 . S
H1382 C1359 0.950 . S
H1383 C1361 0.950 . S
C1384 C1385 1.349 . S
C1384 C1386 1.327 . S
C1384 H1409 0.950 . S
C1385 C1384 1.349 . S
C1385 C1401 1.349 . S
C1386 C1384 1.327 . S
C1386 C1405 1.429 . S
C1386 H1410 0.950 . S
C1387 C1404 1.574 . S
C1387 C1406 1.368 . S
C1387 H1411 0.949 . S
H1388 C1392 0.949 . S
C1389 C1390 1.349 . S
C1389 C1391 1.327 . S
C1389 H1412 0.950 . S
C1390 C1389 1.349 . S
C1390 C1402 1.349 . S
C1391 C1389 1.327 . S
C1391 C1407 1.429 . S
C1391 H1413 0.950 . S
C1392 H1388 0.949 . S
C1392 C1400 1.574 . S
C1392 C1408 1.368 . S
H1393 C1401 0.950 . S
H1394 C1399 0.950 . S
H1395 C1400 0.949 . S
H1396 C1402 0.950 . S
H1397 C1403 0.950 . S
H1398 C1404 0.949 . S
C1399 H1394 0.950 . S
C1399 C1401 1.327 . S
C1399 C1405 1.429 . S
C1400 C1392 1.574 . S
C1400 H1395 0.949 . S
C1400 C1406 1.368 . S
C1401 C1385 1.349 . S
C1401 H1393 0.950 . S
C1401 C1399 1.327 . S
C1402 C1390 1.349 . S
C1402 H1396 0.950 . S
C1402 C1403 1.327 . S
C1403 H1397 0.950 . S
C1403 C1402 1.327 . S
C1403 C1407 1.429 . S
C1404 C1387 1.574 . S
C1404 H1398 0.949 . S
C1404 C1408 1.368 . S
C1405 C1386 1.429 . S
C1405 C1399 1.429 . S
C1405 C1406 1.523 . S
C1406 C1387 1.368 . S
C1406 C1400 1.368 . S
C1406 C1405 1.523 . S
C1407 C1391 1.429 . S
C1407 C1403 1.429 . S
C1407 C1408 1.523 . S
C1408 C1392 1.368 . S
C1408 C1404 1.368 . S
C1408 C1407 1.523 . S
H1409 C1384 0.950 . S
H1410 C1386 0.950 . S
H1411 C1387 0.949 . S
H1412 C1389 0.950 . S
H1413 C1391 0.950 . S
C1414 C1415 1.349 . S
C1414 C1416 1.327 . S
C1414 H1439 0.950 . S
C1415 C1414 1.349 . S
C1415 C1431 1.349 . S
C1416 C1414 1.327 . S
C1416 C1435 1.429 . S
C1416 H1440 0.950 . S
C1417 C1434 1.574 . S
C1417 C1436 1.368 . S
C1417 H1441 0.949 . S
H1418 C1422 0.949 . S
C1419 C1420 1.349 . S
C1419 C1421 1.327 . S
C1419 H1442 0.950 . S
C1420 C1419 1.349 . S
C1420 C1432 1.349 . S
C1421 C1419 1.327 . S
C1421 C1437 1.429 . S
C1421 H1443 0.950 . S
C1422 H1418 0.949 . S
C1422 C1430 1.574 . S
C1422 C1438 1.368 . S
H1423 C1431 0.950 . S
H1424 C1429 0.950 . S
H1425 C1430 0.949 . S
H1426 C1432 0.950 . S
H1427 C1433 0.950 . S
H1428 C1434 0.949 . S
C1429 H1424 0.950 . S
C1429 C1431 1.327 . S
C1429 C1435 1.429 . S
C1430 C1422 1.574 . S
C1430 H1425 0.949 . S
C1430 C1436 1.368 . S
C1431 C1415 1.349 . S
C1431 H1423 0.950 . S
C1431 C1429 1.327 . S
C1432 C1420 1.349 . S
C1432 H1426 0.950 . S
C1432 C1433 1.327 . S
C1433 H1427 0.950 . S
C1433 C1432 1.327 . S
C1433 C1437 1.429 . S
C1434 C1417 1.574 . S
C1434 H1428 0.949 . S
C1434 C1438 1.368 . S
C1435 C1416 1.429 . S
C1435 C1429 1.429 . S
C1435 C1436 1.523 . S
C1436 C1417 1.368 . S
C1436 C1430 1.368 . S
C1436 C1435 1.523 . S
C1437 C1421 1.429 . S
C1437 C1433 1.429 . S
C1437 C1438 1.523 . S
C1438 C1422 1.368 . S
C1438 C1434 1.368 . S
C1438 C1437 1.523 . S
H1439 C1414 0.950 . S
H1440 C1416 0.950 . S
H1441 C1417 0.949 . S
H1442 C1419 0.950 . S
H1443 C1421 0.950 . S
C1444 C1445 1.349 . S
C1444 C1446 1.327 . S
C1444 H1469 0.950 . S
C1445 C1444 1.349 . S
C1445 C1461 1.349 . S
C1446 C1444 1.327 . S
C1446 C1465 1.429 . S
C1446 H1470 0.950 . S
C1447 C1464 1.574 . S
C1447 C1466 1.368 . S
C1447 H1471 0.949 . S
H1448 C1452 0.949 . S
C1449 C1450 1.349 . S
C1449 C1451 1.327 . S
C1449 H1472 0.950 . S
C1450 C1449 1.349 . S
C1450 C1462 1.349 . S
C1451 C1449 1.327 . S
C1451 C1467 1.429 . S
C1451 H1473 0.950 . S
C1452 H1448 0.949 . S
C1452 C1460 1.574 . S
C1452 C1468 1.368 . S
H1453 C1461 0.950 . S
H1454 C1459 0.950 . S
H1455 C1460 0.949 . S
H1456 C1462 0.950 . S
H1457 C1463 0.950 . S
H1458 C1464 0.949 . S
C1459 H1454 0.950 . S
C1459 C1461 1.327 . S
C1459 C1465 1.429 . S
C1460 C1452 1.574 . S
C1460 H1455 0.949 . S
C1460 C1466 1.368 . S
C1461 C1445 1.349 . S
C1461 H1453 0.950 . S
C1461 C1459 1.327 . S
C1462 C1450 1.349 . S
C1462 H1456 0.950 . S
C1462 C1463 1.327 . S
C1463 H1457 0.950 . S
C1463 C1462 1.327 . S
C1463 C1467 1.429 . S
C1464 C1447 1.574 . S
C1464 H1458 0.949 . S
C1464 C1468 1.368 . S
C1465 C1446 1.429 . S
C1465 C1459 1.429 . S
C1465 C1466 1.523 . S
C1466 C1447 1.368 . S
C1466 C1460 1.368 . S
C1466 C1465 1.523 . S
C1467 C1451 1.429 . S
C1467 C1463 1.429 . S
C1467 C1468 1.523 . S
C1468 C1452 1.368 . S
C1468 C1464 1.368 . S
C1468 C1467 1.523 . S
H1469 C1444 0.950 . S
H1470 C1446 0.950 . S
H1471 C1447 0.949 . S
H1472 C1449 0.950 . S
H1473 C1451 0.950 . S
C1474 C1475 1.349 . S
C1474 C1476 1.327 . S
C1474 H1499 0.983 . S
C1475 C1474 1.349 . S
C1475 C1491 1.349 . S
C1476 C1474 1.327 . S
C1476 C1495 1.429 . S
C1476 H1500 0.950 1_565 S
C1477 C1494 1.574 . S
C1477 C1496 1.368 . S
C1477 H1501 0.949 . S
H1478 C1482 0.958 . S
C1479 C1480 1.349 . S
C1479 C1481 1.327 . S
C1479 H1502 0.950 . S
C1480 C1479 1.349 . S
C1480 C1492 1.349 1_565 S
C1481 C1479 1.327 . S
C1481 C1497 1.429 . S
C1481 H1503 0.950 . S
C1482 H1478 0.958 . S
C1482 C1490 1.574 1_545 S
C1482 C1498 1.359 1_545 S
H1483 C1491 0.950 . S
H1484 C1489 0.950 . S
H1485 C1490 0.949 1_545 S
H1486 C1492 0.950 . S
H1487 C1493 0.950 . S
H1488 C1494 0.949 . S
C1489 H1484 0.950 . S
C1489 C1491 1.327 . S
C1489 C1495 1.429 . S
C1490 C1482 1.574 1_565 S
C1490 H1485 0.949 1_565 S
C1490 C1496 1.368 . S
C1491 C1475 1.349 . S
C1491 H1483 0.950 . S
C1491 C1489 1.327 . S
C1492 C1480 1.349 1_545 S
C1492 H1486 0.950 . S
C1492 C1493 1.327 . S
C1493 H1487 0.950 . S
C1493 C1492 1.327 . S
C1493 C1497 1.429 1_545 S
C1494 C1477 1.574 . S
C1494 H1488 0.949 . S
C1494 C1498 1.368 . S
C1495 C1476 1.429 . S
C1495 C1489 1.429 . S
C1495 C1496 1.523 . S
C1496 C1477 1.368 . S
C1496 C1490 1.368 . S
C1496 C1495 1.523 . S
C1497 C1481 1.429 . S
C1497 C1493 1.429 1_565 S
C1497 C1498 1.523 . S
C1498 C1482 1.359 1_565 S
C1498 C1494 1.368 . S
C1498 C1497 1.523 . S
H1499 C1474 0.983 . S
H1500 C1476 0.950 1_545 S
H1501 C1477 0.949 . S
H1502 C1479 0.950 . S
H1503 C1481 0.950 . S
C1504 C1505 1.349 . S
C1504 C1506 1.327 . S
C1504 H1529 0.950 . S
C1505 C1504 1.349 . S
C1505 C1521 1.349 . S
C1506 C1504 1.327 . S
C1506 C1525 1.429 . S
C1506 H1530 0.950 . S
C1507 C1524 1.574 . S
C1507 C1526 1.368 . S
C1507 H1531 0.949 . S
H1508 C1512 0.949 . S
C1509 C1510 1.349 . S
C1509 C1511 1.327 . S
C1509 H1532 0.950 . S
C1510 C1509 1.349 . S
C1510 C1522 1.349 . S
C1511 C1509 1.327 . S
C1511 C1527 1.429 . S
C1511 H1533 0.950 . S
C1512 H1508 0.949 . S
C1512 C1520 1.574 . S
C1512 C1528 1.368 . S
H1513 C1521 0.950 . S
H1514 C1519 0.950 . S
H1515 C1520 0.949 . S
H1516 C1522 0.950 . S
H1517 C1523 0.950 . S
H1518 C1524 0.949 . S
C1519 H1514 0.950 . S
C1519 C1521 1.327 . S
C1519 C1525 1.429 . S
C1520 C1512 1.574 . S
C1520 H1515 0.949 . S
C1520 C1526 1.368 . S
C1521 C1505 1.349 . S
C1521 H1513 0.950 . S
C1521 C1519 1.327 . S
C1522 C1510 1.349 . S
C1522 H1516 0.950 . S
C1522 C1523 1.327 . S
C1523 H1517 0.950 . S
C1523 C1522 1.327 . S
C1523 C1527 1.429 . S
C1524 C1507 1.574 . S
C1524 H1518 0.949 . S
C1524 C1528 1.368 . S
C1525 C1506 1.429 . S
C1525 C1519 1.429 . S
C1525 C1526 1.523 . S
C1526 C1507 1.368 . S
C1526 C1520 1.368 . S
C1526 C1525 1.523 . S
C1527 C1511 1.429 . S
C1527 C1523 1.429 . S
C1527 C1528 1.523 . S
C1528 C1512 1.368 . S
C1528 C1524 1.368 . S
C1528 C1527 1.523 . S
H1529 C1504 0.950 . S
H1530 C1506 0.950 . S
H1531 C1507 0.949 . S
H1532 C1509 0.950 . S
H1533 C1511 0.950 . S
C1534 C1535 1.349 . S
C1534 C1536 1.327 . S
C1534 H1559 0.950 . S
C1535 C1534 1.349 . S
C1535 C1551 1.349 . S
C1536 C1534 1.327 . S
C1536 C1555 1.429 . S
C1536 H1560 0.950 . S
C1537 C1554 1.574 . S
C1537 C1556 1.368 . S
C1537 H1561 0.949 . S
H1538 C1542 0.949 . S
C1539 C1540 1.349 . S
C1539 C1541 1.327 . S
C1539 H1562 0.950 . S
C1540 C1539 1.349 . S
C1540 C1552 1.349 . S
C1541 C1539 1.327 . S
C1541 C1557 1.429 . S
C1541 H1563 0.950 . S
C1542 H1538 0.949 . S
C1542 C1550 1.574 . S
C1542 C1558 1.368 . S
H1543 C1551 0.950 . S
H1544 C1549 0.950 . S
H1545 C1550 0.949 . S
H1546 C1552 0.950 . S
H1547 C1553 0.950 . S
H1548 C1554 0.949 . S
C1549 H1544 0.950 . S
C1549 C1551 1.327 . S
C1549 C1555 1.429 . S
C1550 C1542 1.574 . S
C1550 H1545 0.949 . S
C1550 C1556 1.368 . S
C1551 C1535 1.349 . S
C1551 H1543 0.950 . S
C1551 C1549 1.327 . S
C1552 C1540 1.349 . S
C1552 H1546 0.950 . S
C1552 C1553 1.327 . S
C1553 H1547 0.950 . S
C1553 C1552 1.327 . S
C1553 C1557 1.429 . S
C1554 C1537 1.574 . S
C1554 H1548 0.949 . S
C1554 C1558 1.368 . S
C1555 C1536 1.429 . S
C1555 C1549 1.429 . S
C1555 C1556 1.523 . S
C1556 C1537 1.368 . S
C1556 C1550 1.368 . S
C1556 C1555 1.523 . S
C1557 C1541 1.429 . S
C1557 C1553 1.429 . S
C1557 C1558 1.523 . S
C1558 C1542 1.368 . S
C1558 C1554 1.368 . S
C1558 C1557 1.523 . S
H1559 C1534 0.950 . S
H1560 C1536 0.950 . S
H1561 C1537 0.949 . S
H1562 C1539 0.950 . S
H1563 C1541 0.950 . S
C1564 C1565 1.349 . S
C1564 C1566 1.327 . S
C1564 H1589 0.950 . S
C1565 C1564 1.349 . S
C1565 C1581 1.349 . S
C1566 C1564 1.327 . S
C1566 C1585 1.429 . S
C1566 H1590 0.950 . S
C1567 C1584 1.574 . S
C1567 C1586 1.368 . S
C1567 H1591 0.949 . S
H1568 C1572 0.949 . S
C1569 C1570 1.349 . S
C1569 C1571 1.327 . S
C1569 H1592 0.950 . S
C1570 C1569 1.349 . S
C1570 C1582 1.349 . S
C1571 C1569 1.327 . S
C1571 C1587 1.429 . S
C1571 H1593 0.950 . S
C1572 H1568 0.949 . S
C1572 C1580 1.574 . S
C1572 C1588 1.368 . S
H1573 C1581 0.950 . S
H1574 C1579 0.950 . S
H1575 C1580 0.949 . S
H1576 C1582 0.950 . S
H1577 C1583 0.950 . S
H1578 C1584 0.949 . S
C1579 H1574 0.950 . S
C1579 C1581 1.327 . S
C1579 C1585 1.429 . S
C1580 C1572 1.574 . S
C1580 H1575 0.949 . S
C1580 C1586 1.368 . S
C1581 C1565 1.349 . S
C1581 H1573 0.950 . S
C1581 C1579 1.327 . S
C1582 C1570 1.349 . S
C1582 H1576 0.950 . S
C1582 C1583 1.327 . S
C1583 H1577 0.950 . S
C1583 C1582 1.327 . S
C1583 C1587 1.429 . S
C1584 C1567 1.574 . S
C1584 H1578 0.949 . S
C1584 C1588 1.368 . S
C1585 C1566 1.429 . S
C1585 C1579 1.429 . S
C1585 C1586 1.523 . S
C1586 C1567 1.368 . S
C1586 C1580 1.368 . S
C1586 C1585 1.523 . S
C1587 C1571 1.429 . S
C1587 C1583 1.429 . S
C1587 C1588 1.523 . S
C1588 C1572 1.368 . S
C1588 C1584 1.368 . S
C1588 C1587 1.523 . S
H1589 C1564 0.950 . S
H1590 C1566 0.950 . S
H1591 C1567 0.949 . S
H1592 C1569 0.950 . S
H1593 C1571 0.950 . S
C1594 C1595 1.349 . S
C1594 C1596 1.327 . S
C1594 H1619 0.950 . S
C1595 C1594 1.349 . S
C1595 C1611 1.349 . S
C1596 C1594 1.327 . S
C1596 C1615 1.429 . S
C1596 H1620 0.950 . S
C1597 C1614 1.574 . S
C1597 C1616 1.368 . S
C1597 H1621 0.949 . S
H1598 C1602 0.949 . S
C1599 C1600 1.349 . S
C1599 C1601 1.327 . S
C1599 H1622 0.950 . S
C1600 C1599 1.349 . S
C1600 C1612 1.349 . S
C1601 C1599 1.327 . S
C1601 C1617 1.429 . S
C1601 H1623 0.950 . S
C1602 H1598 0.949 . S
C1602 C1610 1.574 . S
C1602 C1618 1.368 . S
H1603 C1611 0.950 . S
H1604 C1609 0.950 . S
H1605 C1610 0.949 . S
H1606 C1612 0.950 . S
H1607 C1613 0.950 . S
H1608 C1614 0.949 . S
C1609 H1604 0.950 . S
C1609 C1611 1.327 . S
C1609 C1615 1.429 . S
C1610 C1602 1.574 . S
C1610 H1605 0.949 . S
C1610 C1616 1.368 . S
C1611 C1595 1.349 . S
C1611 H1603 0.950 . S
C1611 C1609 1.327 . S
C1612 C1600 1.349 . S
C1612 H1606 0.950 . S
C1612 C1613 1.327 . S
C1613 H1607 0.950 . S
C1613 C1612 1.327 . S
C1613 C1617 1.429 . S
C1614 C1597 1.574 . S
C1614 H1608 0.949 . S
C1614 C1618 1.368 . S
C1615 C1596 1.429 . S
C1615 C1609 1.429 . S
C1615 C1616 1.523 . S
C1616 C1597 1.368 . S
C1616 C1610 1.368 . S
C1616 C1615 1.523 . S
C1617 C1601 1.429 . S
C1617 C1613 1.429 . S
C1617 C1618 1.523 . S
C1618 C1602 1.368 . S
C1618 C1614 1.368 . S
C1618 C1617 1.523 . S
H1619 C1594 0.950 . S
H1620 C1596 0.950 . S
H1621 C1597 0.949 . S
H1622 C1599 0.950 . S
H1623 C1601 0.950 . S
C1624 C1625 1.349 . S
C1624 C1626 1.327 . S
C1624 H1649 0.950 . S
C1625 C1624 1.349 . S
C1625 C1641 1.349 . S
C1626 C1624 1.327 . S
C1626 C1645 1.429 . S
C1626 H1650 0.950 . S
C1627 C1644 1.574 . S
C1627 C1646 1.368 . S
C1627 H1651 0.949 . S
H1628 C1632 0.949 . S
C1629 C1630 1.349 . S
C1629 C1631 1.327 . S
C1629 H1652 0.950 . S
C1630 C1629 1.349 . S
C1630 C1642 1.349 . S
C1631 C1629 1.327 . S
C1631 C1647 1.429 . S
C1631 H1653 0.950 . S
C1632 H1628 0.949 . S
C1632 C1640 1.574 . S
C1632 C1648 1.368 . S
H1633 C1641 0.950 . S
H1634 C1639 0.950 . S
H1635 C1640 0.949 . S
H1636 C1642 0.950 . S
H1637 C1643 0.950 . S
H1638 C1644 0.949 . S
C1639 H1634 0.950 . S
C1639 C1641 1.327 . S
C1639 C1645 1.429 . S
C1640 C1632 1.574 . S
C1640 H1635 0.949 . S
C1640 C1646 1.368 . S
C1641 C1625 1.349 . S
C1641 H1633 0.950 . S
C1641 C1639 1.327 . S
C1642 C1630 1.349 . S
C1642 H1636 0.950 . S
C1642 C1643 1.327 . S
C1643 H1637 0.950 . S
C1643 C1642 1.327 . S
C1643 C1647 1.429 . S
C1644 C1627 1.574 . S
C1644 H1638 0.949 . S
C1644 C1648 1.368 . S
C1645 C1626 1.429 . S
C1645 C1639 1.429 . S
C1645 C1646 1.523 . S
C1646 C1627 1.368 . S
C1646 C1640 1.368 . S
C1646 C1645 1.523 . S
C1647 C1631 1.429 . S
C1647 C1643 1.429 . S
C1647 C1648 1.523 . S
C1648 C1632 1.368 . S
C1648 C1644 1.368 . S
C1648 C1647 1.523 . S
H1649 C1624 0.950 . S
H1650 C1626 0.950 . S
H1651 C1627 0.949 . S
H1652 C1629 0.950 . S
H1653 C1631 0.950 . S
C1654 C1655 1.349 . S
C1654 C1656 1.327 . S
C1654 H1679 0.950 . S
C1655 C1654 1.349 . S
C1655 C1671 1.349 . S
C1656 C1654 1.327 . S
C1656 C1675 1.429 . S
C1656 H1680 0.950 . S
C1657 C1674 1.574 . S
C1657 C1676 1.368 . S
C1657 H1681 0.949 . S
H1658 C1662 0.949 . S
C1659 C1660 1.349 . S
C1659 C1661 1.327 . S
C1659 H1682 0.950 . S
C1660 C1659 1.349 . S
C1660 C1672 1.349 . S
C1661 C1659 1.327 . S
C1661 C1677 1.429 . S
C1661 H1683 0.950 . S
C1662 H1658 0.949 . S
C1662 C1670 1.574 . S
C1662 C1678 1.368 . S
H1663 C1671 0.950 . S
H1664 C1669 0.950 . S
H1665 C1670 0.949 . S
H1666 C1672 0.950 . S
H1667 C1673 0.950 . S
H1668 C1674 0.949 . S
C1669 H1664 0.950 . S
C1669 C1671 1.327 . S
C1669 C1675 1.429 . S
C1670 C1662 1.574 . S
C1670 H1665 0.949 . S
C1670 C1676 1.368 . S
C1671 C1655 1.349 . S
C1671 H1663 0.950 . S
C1671 C1669 1.327 . S
C1672 C1660 1.349 . S
C1672 H1666 0.950 . S
C1672 C1673 1.327 . S
C1673 H1667 0.950 . S
C1673 C1672 1.327 . S
C1673 C1677 1.429 . S
C1674 C1657 1.574 . S
C1674 H1668 0.949 . S
C1674 C1678 1.368 . S
C1675 C1656 1.429 . S
C1675 C1669 1.429 . S
C1675 C1676 1.523 . S
C1676 C1657 1.368 . S
C1676 C1670 1.368 . S
C1676 C1675 1.523 . S
C1677 C1661 1.429 . S
C1677 C1673 1.429 . S
C1677 C1678 1.523 . S
C1678 C1662 1.368 . S
C1678 C1674 1.368 . S
C1678 C1677 1.523 . S
H1679 C1654 0.950 . S
H1680 C1656 0.950 . S
H1681 C1657 0.949 . S
H1682 C1659 0.950 . S
H1683 C1661 0.950 . S
C1684 C1685 1.349 . S
C1684 C1686 1.327 . S
C1684 H1709 0.950 . S
C1685 C1684 1.349 . S
C1685 C1701 1.349 . S
C1686 C1684 1.327 . S
C1686 C1705 1.429 . S
C1686 H1710 0.950 . S
C1687 C1704 1.574 . S
C1687 C1706 1.368 . S
C1687 H1711 0.949 . S
H1688 C1692 0.949 . S
C1689 C1690 1.349 . S
C1689 C1691 1.327 . S
C1689 H1712 0.950 . S
C1690 C1689 1.349 . S
C1690 C1702 1.349 . S
C1691 C1689 1.327 . S
C1691 C1707 1.429 . S
C1691 H1713 0.950 . S
C1692 H1688 0.949 . S
C1692 C1700 1.574 . S
C1692 C1708 1.368 . S
H1693 C1701 0.950 . S
H1694 C1699 0.950 . S
H1695 C1700 0.949 . S
H1696 C1702 0.950 . S
H1697 C1703 0.950 . S
H1698 C1704 0.949 . S
C1699 H1694 0.950 . S
C1699 C1701 1.327 . S
C1699 C1705 1.429 . S
C1700 C1692 1.574 . S
C1700 H1695 0.949 . S
C1700 C1706 1.368 . S
C1701 C1685 1.349 . S
C1701 H1693 0.950 . S
C1701 C1699 1.327 . S
C1702 C1690 1.349 . S
C1702 H1696 0.950 . S
C1702 C1703 1.327 . S
C1703 H1697 0.950 . S
C1703 C1702 1.327 . S
C1703 C1707 1.429 . S
C1704 C1687 1.574 . S
C1704 H1698 0.949 . S
C1704 C1708 1.368 . S
C1705 C1686 1.429 . S
C1705 C1699 1.429 . S
C1705 C1706 1.523 . S
C1706 C1687 1.368 . S
C1706 C1700 1.368 . S
C1706 C1705 1.523 . S
C1707 C1691 1.429 . S
C1707 C1703 1.429 . S
C1707 C1708 1.523 . S
C1708 C1692 1.368 . S
C1708 C1704 1.368 . S
C1708 C1707 1.523 . S
H1709 C1684 0.950 . S
H1710 C1686 0.950 . S
H1711 C1687 0.949 . S
H1712 C1689 0.950 . S
H1713 C1691 0.950 . S
C1714 C1715 1.349 . S
C1714 C1716 1.327 . S
C1714 H1739 0.950 . S
C1715 C1714 1.349 . S
C1715 C1731 1.349 . S
C1716 C1714 1.327 . S
C1716 C1735 1.429 . S
C1716 H1740 0.950 . S
C1717 C1734 1.574 . S
C1717 C1736 1.368 . S
C1717 H1741 0.949 . S
H1718 C1722 0.949 . S
C1719 C1720 1.353 . S
C1719 C1721 1.318 1_455 S
C1719 H1742 0.958 . S
C1720 C1719 1.353 . S
C1720 C1732 1.352 . S
C1721 C1719 1.318 1_655 S
C1721 C1737 1.429 . S
C1721 H1743 0.950 . S
C1722 H1718 0.949 . S
C1722 C1730 1.574 . S
C1722 C1738 1.368 . S
H1723 C1731 0.950 . S
H1724 C1729 0.950 . S
H1725 C1730 0.949 . S
H1726 C1732 0.951 . S
H1727 C1733 0.950 . S
H1728 C1734 0.949 . S
C1729 H1724 0.950 . S
C1729 C1731 1.327 . S
C1729 C1735 1.429 . S
C1730 C1722 1.574 . S
C1730 H1725 0.949 . S
C1730 C1736 1.368 . S
C1731 C1715 1.349 . S
C1731 H1723 0.950 . S
C1731 C1729 1.327 . S
C1732 C1720 1.352 . S
C1732 H1726 0.951 . S
C1732 C1733 1.323 1_455 S
C1733 H1727 0.950 . S
C1733 C1732 1.323 1_655 S
C1733 C1737 1.429 . S
C1734 C1717 1.574 . S
C1734 H1728 0.949 . S
C1734 C1738 1.368 . S
C1735 C1716 1.429 . S
C1735 C1729 1.429 . S
C1735 C1736 1.523 . S
C1736 C1717 1.368 . S
C1736 C1730 1.368 . S
C1736 C1735 1.523 . S
C1737 C1721 1.429 . S
C1737 C1733 1.429 . S
C1737 C1738 1.523 . S
C1738 C1722 1.368 . S
C1738 C1734 1.368 . S
C1738 C1737 1.523 . S
H1739 C1714 0.950 . S
H1740 C1716 0.950 . S
H1741 C1717 0.949 . S
H1742 C1719 0.958 . S
H1743 C1721 0.950 . S
C1744 C1745 1.349 . S
C1744 C1746 1.327 . S
C1744 H1769 0.950 . S
C1745 C1744 1.349 . S
C1745 C1761 1.349 . S
C1746 C1744 1.327 . S
C1746 C1765 1.429 . S
C1746 H1770 0.950 . S
C1747 C1764 1.574 . S
C1747 C1766 1.368 . S
C1747 H1771 0.949 . S
H1748 C1752 0.949 . S
C1749 C1750 1.349 . S
C1749 C1751 1.327 . S
C1749 H1772 0.950 . S
C1750 C1749 1.349 . S
C1750 C1762 1.349 . S
C1751 C1749 1.327 . S
C1751 C1767 1.429 . S
C1751 H1773 0.950 . S
C1752 H1748 0.949 . S
C1752 C1760 1.574 . S
C1752 C1768 1.368 . S
H1753 C1761 0.950 . S
H1754 C1759 0.950 . S
H1755 C1760 0.949 . S
H1756 C1762 0.950 . S
H1757 C1763 0.950 . S
H1758 C1764 0.949 . S
C1759 H1754 0.950 . S
C1759 C1761 1.327 . S
C1759 C1765 1.429 . S
C1760 C1752 1.574 . S
C1760 H1755 0.949 . S
C1760 C1766 1.368 . S
C1761 C1745 1.349 . S
C1761 H1753 0.950 . S
C1761 C1759 1.327 . S
C1762 C1750 1.349 . S
C1762 H1756 0.950 . S
C1762 C1763 1.327 . S
C1763 H1757 0.950 . S
C1763 C1762 1.327 . S
C1763 C1767 1.429 . S
C1764 C1747 1.574 . S
C1764 H1758 0.949 . S
C1764 C1768 1.368 . S
C1765 C1746 1.429 . S
C1765 C1759 1.429 . S
C1765 C1766 1.523 . S
C1766 C1747 1.368 . S
C1766 C1760 1.368 . S
C1766 C1765 1.523 . S
C1767 C1751 1.429 . S
C1767 C1763 1.429 . S
C1767 C1768 1.523 . S
C1768 C1752 1.368 . S
C1768 C1764 1.368 . S
C1768 C1767 1.523 . S
H1769 C1744 0.950 . S
H1770 C1746 0.950 . S
H1771 C1747 0.949 . S
H1772 C1749 0.950 . S
H1773 C1751 0.950 . S
C1774 C1775 1.349 . S
C1774 C1776 1.327 . S
C1774 H1799 0.950 . S
C1775 C1774 1.349 . S
C1775 C1791 1.349 . S
C1776 C1774 1.327 . S
C1776 C1795 1.429 . S
C1776 H1800 0.950 . S
C1777 C1794 1.574 . S
C1777 C1796 1.368 . S
C1777 H1801 0.949 . S
H1778 C1782 0.949 . S
C1779 C1780 1.349 . S
C1779 C1781 1.327 . S
C1779 H1802 0.950 . S
C1780 C1779 1.349 . S
C1780 C1792 1.349 . S
C1781 C1779 1.327 . S
C1781 C1797 1.429 . S
C1781 H1803 0.950 . S
C1782 H1778 0.949 . S
C1782 C1790 1.574 . S
C1782 C1798 1.368 . S
H1783 C1791 0.950 . S
H1784 C1789 0.950 . S
H1785 C1790 0.949 . S
H1786 C1792 0.950 . S
H1787 C1793 0.950 . S
H1788 C1794 0.949 . S
C1789 H1784 0.950 . S
C1789 C1791 1.327 . S
C1789 C1795 1.429 . S
C1790 C1782 1.574 . S
C1790 H1785 0.949 . S
C1790 C1796 1.368 . S
C1791 C1775 1.349 . S
C1791 H1783 0.950 . S
C1791 C1789 1.327 . S
C1792 C1780 1.349 . S
C1792 H1786 0.950 . S
C1792 C1793 1.327 . S
C1793 H1787 0.950 . S
C1793 C1792 1.327 . S
C1793 C1797 1.429 . S
C1794 C1777 1.574 . S
C1794 H1788 0.949 . S
C1794 C1798 1.368 . S
C1795 C1776 1.429 . S
C1795 C1789 1.429 . S
C1795 C1796 1.523 . S
C1796 C1777 1.368 . S
C1796 C1790 1.368 . S
C1796 C1795 1.523 . S
C1797 C1781 1.429 . S
C1797 C1793 1.429 . S
C1797 C1798 1.523 . S
C1798 C1782 1.368 . S
C1798 C1794 1.368 . S
C1798 C1797 1.523 . S
H1799 C1774 0.950 . S
H1800 C1776 0.950 . S
H1801 C1777 0.949 . S
H1802 C1779 0.950 . S
H1803 C1781 0.950 . S
C1804 C1805 1.349 . S
C1804 C1806 1.327 1_545 S
C1804 H1829 0.950 . S
C1805 C1804 1.349 . S
C1805 C1821 1.349 . S
C1806 C1804 1.327 1_565 S
C1806 C1825 1.429 1_565 S
C1806 H1830 0.950 . S
C1807 C1824 1.574 . S
C1807 C1826 1.368 1_554 S
C1807 H1831 0.949 1_565 S
H1808 C1812 0.949 . S
C1809 C1810 1.363 . S
C1809 C1811 1.327 . S
C1809 H1832 0.950 . S
C1810 C1809 1.363 . S
C1810 C1822 1.331 1_554 S
C1811 C1809 1.327 . S
C1811 C1827 1.429 1_554 S
C1811 H1833 0.950 . S
C1812 H1808 0.949 . S
C1812 C1820 1.574 . S
C1812 C1828 1.368 . S
H1813 C1821 0.950 1_554 S
H1814 C1819 0.950 1_554 S
H1815 C1820 0.949 . S
H1816 C1822 0.950 . S
H1817 C1823 0.950 . S
H1818 C1824 0.949 . S
C1819 H1814 0.950 1_556 S
C1819 C1821 1.327 . S
C1819 C1825 1.429 . S
C1820 C1812 1.574 . S
C1820 H1815 0.949 . S
C1820 C1826 1.368 . S
C1821 C1805 1.349 . S
C1821 H1813 0.950 1_556 S
C1821 C1819 1.327 . S
C1822 C1810 1.331 1_556 S
C1822 H1816 0.950 . S
C1822 C1823 1.327 . S
C1823 H1817 0.950 . S
C1823 C1822 1.327 . S
C1823 C1827 1.429 . S
C1824 C1807 1.574 . S
C1824 H1818 0.949 . S
C1824 C1828 1.368 1_554 S
C1825 C1806 1.429 1_545 S
C1825 C1819 1.429 . S
C1825 C1826 1.523 1_545 S
C1826 C1807 1.368 1_556 S
C1826 C1820 1.368 . S
C1826 C1825 1.523 1_565 S
C1827 C1811 1.429 1_556 S
C1827 C1823 1.429 . S
C1827 C1828 1.523 . S
C1828 C1812 1.368 . S
C1828 C1824 1.368 1_556 S
C1828 C1827 1.523 . S
H1829 C1804 0.950 . S
H1830 C1806 0.950 . S
H1831 C1807 0.949 1_545 S
H1832 C1809 0.950 . S
H1833 C1811 0.950 . S
C1834 C1835 1.349 . S
C1834 C1836 1.327 . S
C1834 H1859 0.950 . S
C1835 C1834 1.349 . S
C1835 C1851 1.349 . S
C1836 C1834 1.327 . S
C1836 C1855 1.429 . S
C1836 H1860 0.950 . S
C1837 C1854 1.574 . S
C1837 C1856 1.368 . S
C1837 H1861 0.949 . S
H1838 C1842 0.949 . S
C1839 C1840 1.349 . S
C1839 C1841 1.327 . S
C1839 H1862 0.950 . S
C1840 C1839 1.349 . S
C1840 C1852 1.349 . S
C1841 C1839 1.327 . S
C1841 C1857 1.429 . S
C1841 H1863 0.950 . S
C1842 H1838 0.949 . S
C1842 C1850 1.574 . S
C1842 C1858 1.368 . S
H1843 C1851 0.950 . S
H1844 C1849 0.950 . S
H1845 C1850 0.949 . S
H1846 C1852 0.950 . S
H1847 C1853 0.950 . S
H1848 C1854 0.949 . S
C1849 H1844 0.950 . S
C1849 C1851 1.327 . S
C1849 C1855 1.429 . S
C1850 C1842 1.574 . S
C1850 H1845 0.949 . S
C1850 C1856 1.368 . S
C1851 C1835 1.349 . S
C1851 H1843 0.950 . S
C1851 C1849 1.327 . S
C1852 C1840 1.349 . S
C1852 H1846 0.950 . S
C1852 C1853 1.327 . S
C1853 H1847 0.950 . S
C1853 C1852 1.327 . S
C1853 C1857 1.429 . S
C1854 C1837 1.574 . S
C1854 H1848 0.949 . S
C1854 C1858 1.368 . S
C1855 C1836 1.429 . S
C1855 C1849 1.429 . S
C1855 C1856 1.523 . S
C1856 C1837 1.368 . S
C1856 C1850 1.368 . S
C1856 C1855 1.523 . S
C1857 C1841 1.429 . S
C1857 C1853 1.429 . S
C1857 C1858 1.523 . S
C1858 C1842 1.368 . S
C1858 C1854 1.368 . S
C1858 C1857 1.523 . S
H1859 C1834 0.950 . S
H1860 C1836 0.950 . S
H1861 C1837 0.949 . S
H1862 C1839 0.950 . S
H1863 C1841 0.950 . S
C1864 C1865 1.349 . S
C1864 C1866 1.327 . S
C1864 H1889 0.950 . S
C1865 C1864 1.349 . S
C1865 C1881 1.349 1_545 S
C1866 C1864 1.327 . S
C1866 C1885 1.429 . S
C1866 H1890 0.950 . S
C1867 C1884 1.574 . S
C1867 C1886 1.368 . S
C1867 H1891 0.949 . S
H1868 C1872 0.949 . S
C1869 C1870 1.349 . S
C1869 C1871 1.327 . S
C1869 H1892 0.950 . S
C1870 C1869 1.349 . S
C1870 C1882 1.349 . S
C1871 C1869 1.327 . S
C1871 C1887 1.429 . S
C1871 H1893 0.950 . S
C1872 H1868 0.949 . S
C1872 C1880 1.574 . S
C1872 C1888 1.368 . S
H1873 C1881 0.950 . S
H1874 C1879 0.950 . S
H1875 C1880 0.949 . S
H1876 C1882 0.950 . S
H1877 C1883 0.950 . S
H1878 C1884 0.949 . S
C1879 H1874 0.950 . S
C1879 C1881 1.327 1_545 S
C1879 C1885 1.429 . S
C1880 C1872 1.574 . S
C1880 H1875 0.949 . S
C1880 C1886 1.368 . S
C1881 C1865 1.349 1_565 S
C1881 H1873 0.950 . S
C1881 C1879 1.327 1_565 S
C1882 C1870 1.349 . S
C1882 H1876 0.950 . S
C1882 C1883 1.327 . S
C1883 H1877 0.950 . S
C1883 C1882 1.327 . S
C1883 C1887 1.429 . S
C1884 C1867 1.574 . S
C1884 H1878 0.949 . S
C1884 C1888 1.368 . S
C1885 C1866 1.429 . S
C1885 C1879 1.429 . S
C1885 C1886 1.523 . S
C1886 C1867 1.368 . S
C1886 C1880 1.368 . S
C1886 C1885 1.523 . S
C1887 C1871 1.429 . S
C1887 C1883 1.429 . S
C1887 C1888 1.523 . S
C1888 C1872 1.368 . S
C1888 C1884 1.368 . S
C1888 C1887 1.523 . S
H1889 C1864 0.950 . S
H1890 C1866 0.950 . S
H1891 C1867 0.949 . S
H1892 C1869 0.950 . S
H1893 C1871 0.950 . S
C1894 C1895 1.349 . S
C1894 C1896 1.327 . S
C1894 H1919 0.950 . S
C1895 C1894 1.349 . S
C1895 C1911 1.349 . S
C1896 C1894 1.327 . S
C1896 C1915 1.429 . S
C1896 H1920 0.950 . S
C1897 C1914 1.574 . S
C1897 C1916 1.368 . S
C1897 H1921 0.949 . S
H1898 C1902 0.949 . S
C1899 C1900 1.349 . S
C1899 C1901 1.327 . S
C1899 H1922 0.950 . S
C1900 C1899 1.349 . S
C1900 C1912 1.349 . S
C1901 C1899 1.327 . S
C1901 C1917 1.429 . S
C1901 H1923 0.950 . S
C1902 H1898 0.949 . S
C1902 C1910 1.574 . S
C1902 C1918 1.368 . S
H1903 C1911 0.950 . S
H1904 C1909 0.950 . S
H1905 C1910 0.949 . S
H1906 C1912 0.950 . S
H1907 C1913 0.950 . S
H1908 C1914 0.949 . S
C1909 H1904 0.950 . S
C1909 C1911 1.327 . S
C1909 C1915 1.429 . S
C1910 C1902 1.574 . S
C1910 H1905 0.949 . S
C1910 C1916 1.368 . S
C1911 C1895 1.349 . S
C1911 H1903 0.950 . S
C1911 C1909 1.327 . S
C1912 C1900 1.349 . S
C1912 H1906 0.950 . S
C1912 C1913 1.327 . S
C1913 H1907 0.950 . S
C1913 C1912 1.327 . S
C1913 C1917 1.429 . S
C1914 C1897 1.574 . S
C1914 H1908 0.949 . S
C1914 C1918 1.368 . S
C1915 C1896 1.429 . S
C1915 C1909 1.429 . S
C1915 C1916 1.523 . S
C1916 C1897 1.368 . S
C1916 C1910 1.368 . S
C1916 C1915 1.523 . S
C1917 C1901 1.429 . S
C1917 C1913 1.429 . S
C1917 C1918 1.523 . S
C1918 C1902 1.368 . S
C1918 C1914 1.368 . S
C1918 C1917 1.523 . S
H1919 C1894 0.950 . S
H1920 C1896 0.950 . S
H1921 C1897 0.949 . S
H1922 C1899 0.950 . S
H1923 C1901 0.950 . S
C1924 C1925 1.349 . S
C1924 C1926 1.347 . S
C1924 H1949 0.950 . S
C1925 C1924 1.349 . S
C1925 C1941 1.349 1_565 S
C1926 C1924 1.347 . S
C1926 C1945 1.400 1_565 S
C1926 H1950 0.960 . S
C1927 C1944 1.574 . S
C1927 C1946 1.368 . S
C1927 H1951 0.949 . S
H1928 C1932 0.949 . S
C1929 C1930 1.349 . S
C1929 C1931 1.327 . S
C1929 H1952 0.950 . S
C1930 C1929 1.349 . S
C1930 C1942 1.349 . S
C1931 C1929 1.327 . S
C1931 C1947 1.429 . S
C1931 H1953 0.950 . S
C1932 H1928 0.949 . S
C1932 C1940 1.574 . S
C1932 C1948 1.368 . S
H1933 C1941 0.950 . S
H1934 C1939 0.950 . S
H1935 C1940 0.949 . S
H1936 C1942 0.950 . S
H1937 C1943 0.950 . S
H1938 C1944 0.949 . S
C1939 H1934 0.950 . S
C1939 C1941 1.327 . S
C1939 C1945 1.429 . S
C1940 C1932 1.574 . S
C1940 H1935 0.949 . S
C1940 C1946 1.368 . S
C1941 C1925 1.349 1_545 S
C1941 H1933 0.950 . S
C1941 C1939 1.327 . S
C1942 C1930 1.349 . S
C1942 H1936 0.950 . S
C1942 C1943 1.327 . S
C1943 H1937 0.950 . S
C1943 C1942 1.327 . S
C1943 C1947 1.429 . S
C1944 C1927 1.574 . S
C1944 H1938 0.949 . S
C1944 C1948 1.368 . S
C1945 C1926 1.400 1_545 S
C1945 C1939 1.429 . S
C1945 C1946 1.523 . S
C1946 C1927 1.368 . S
C1946 C1940 1.368 . S
C1946 C1945 1.523 . S
C1947 C1931 1.429 . S
C1947 C1943 1.429 . S
C1947 C1948 1.523 . S
C1948 C1932 1.368 . S
C1948 C1944 1.368 . S
C1948 C1947 1.523 . S
H1949 C1924 0.950 . S
H1950 C1926 0.960 . S
H1951 C1927 0.949 . S
H1952 C1929 0.950 . S
H1953 C1931 0.950 . S
C1954 C1955 1.349 . S
C1954 C1956 1.327 . S
C1954 H1979 0.950 . S
C1955 C1954 1.349 . S
C1955 C1971 1.349 . S
C1956 C1954 1.327 . S
C1956 C1975 1.429 . S
C1956 H1980 0.950 . S
C1957 C1974 1.574 . S
C1957 C1976 1.368 . S
C1957 H1981 0.949 . S
H1958 C1962 0.949 . S
C1959 C1960 1.349 . S
C1959 C1961 1.327 . S
C1959 H1982 0.950 . S
C1960 C1959 1.349 . S
C1960 C1972 1.349 . S
C1961 C1959 1.327 . S
C1961 C1977 1.429 . S
C1961 H1983 0.950 . S
C1962 H1958 0.949 . S
C1962 C1970 1.574 . S
C1962 C1978 1.368 . S
H1963 C1971 0.950 . S
H1964 C1969 0.950 . S
H1965 C1970 0.949 . S
H1966 C1972 0.950 . S
H1967 C1973 0.950 . S
H1968 C1974 0.949 . S
C1969 H1964 0.950 . S
C1969 C1971 1.327 . S
C1969 C1975 1.429 . S
C1970 C1962 1.574 . S
C1970 H1965 0.949 . S
C1970 C1976 1.368 . S
C1971 C1955 1.349 . S
C1971 H1963 0.950 . S
C1971 C1969 1.327 . S
C1972 C1960 1.349 . S
C1972 H1966 0.950 . S
C1972 C1973 1.327 . S
C1973 H1967 0.950 . S
C1973 C1972 1.327 . S
C1973 C1977 1.429 . S
C1974 C1957 1.574 . S
C1974 H1968 0.949 . S
C1974 C1978 1.368 . S
C1975 C1956 1.429 . S
C1975 C1969 1.429 . S
C1975 C1976 1.523 . S
C1976 C1957 1.368 . S
C1976 C1970 1.368 . S
C1976 C1975 1.523 . S
C1977 C1961 1.429 . S
C1977 C1973 1.429 . S
C1977 C1978 1.523 . S
C1978 C1962 1.368 . S
C1978 C1974 1.368 . S
C1978 C1977 1.523 . S
H1979 C1954 0.950 . S
H1980 C1956 0.950 . S
H1981 C1957 0.949 . S
H1982 C1959 0.950 . S
H1983 C1961 0.950 . S
C1984 C1985 1.349 . S
C1984 C1986 1.327 . S
C1984 H2009 0.950 . S
C1985 C1984 1.349 . S
C1985 C2001 1.349 . S
C1986 C1984 1.327 . S
C1986 C2005 1.429 . S
C1986 H2010 0.950 . S
C1987 C2004 1.574 . S
C1987 C2006 1.368 . S
C1987 H2011 0.949 . S
H1988 C1992 0.949 . S
C1989 C1990 1.349 . S
C1989 C1991 1.327 . S
C1989 H2012 0.950 . S
C1990 C1989 1.349 . S
C1990 C2002 1.349 . S
C1991 C1989 1.327 . S
C1991 C2007 1.429 . S
C1991 H2013 0.950 . S
C1992 H1988 0.949 . S
C1992 C2000 1.574 . S
C1992 C2008 1.368 . S
H1993 C2001 0.950 . S
H1994 C1999 0.950 . S
H1995 C2000 0.949 . S
H1996 C2002 0.950 . S
H1997 C2003 0.950 . S
H1998 C2004 0.949 . S
C1999 H1994 0.950 . S
C1999 C2001 1.327 . S
C1999 C2005 1.429 . S
C2000 C1992 1.574 . S
C2000 H1995 0.949 . S
C2000 C2006 1.368 . S
C2001 C1985 1.349 . S
C2001 H1993 0.950 . S
C2001 C1999 1.327 . S
C2002 C1990 1.349 . S
C2002 H1996 0.950 . S
C2002 C2003 1.327 . S
C2003 H1997 0.950 . S
C2003 C2002 1.327 . S
C2003 C2007 1.429 . S
C2004 C1987 1.574 . S
C2004 H1998 0.949 . S
C2004 C2008 1.368 . S
C2005 C1986 1.429 . S
C2005 C1999 1.429 . S
C2005 C2006 1.523 . S
C2006 C1987 1.368 . S
C2006 C2000 1.368 . S
C2006 C2005 1.523 . S
C2007 C1991 1.429 . S
C2007 C2003 1.429 . S
C2007 C2008 1.523 . S
C2008 C1992 1.368 . S
C2008 C2004 1.368 . S
C2008 C2007 1.523 . S
H2009 C1984 0.950 . S
H2010 C1986 0.950 . S
H2011 C1987 0.949 . S
H2012 C1989 0.950 . S
H2013 C1991 0.950 . S
C2014 C2015 1.349 . S
C2014 C2016 1.327 . S
C2014 H2039 0.950 . S
C2015 C2014 1.349 . S
C2015 C2031 1.349 . S
C2016 C2014 1.327 . S
C2016 C2035 1.429 . S
C2016 H2040 0.950 . S
C2017 C2034 1.574 . S
C2017 C2036 1.368 . S
C2017 H2041 0.949 . S
H2018 C2022 0.949 . S
C2019 C2020 1.349 . S
C2019 C2021 1.327 . S
C2019 H2042 0.950 . S
C2020 C2019 1.349 . S
C2020 C2032 1.349 . S
C2021 C2019 1.327 . S
C2021 C2037 1.429 . S
C2021 H2043 0.950 . S
C2022 H2018 0.949 . S
C2022 C2030 1.574 . S
C2022 C2038 1.368 . S
H2023 C2031 0.950 . S
H2024 C2029 0.950 . S
H2025 C2030 0.949 . S
H2026 C2032 0.950 . S
H2027 C2033 0.950 . S
H2028 C2034 0.949 . S
C2029 H2024 0.950 . S
C2029 C2031 1.327 . S
C2029 C2035 1.429 . S
C2030 C2022 1.574 . S
C2030 H2025 0.949 . S
C2030 C2036 1.368 . S
C2031 C2015 1.349 . S
C2031 H2023 0.950 . S
C2031 C2029 1.327 . S
C2032 C2020 1.349 . S
C2032 H2026 0.950 . S
C2032 C2033 1.327 . S
C2033 H2027 0.950 . S
C2033 C2032 1.327 . S
C2033 C2037 1.429 . S
C2034 C2017 1.574 . S
C2034 H2028 0.949 . S
C2034 C2038 1.368 . S
C2035 C2016 1.429 . S
C2035 C2029 1.429 . S
C2035 C2036 1.523 . S
C2036 C2017 1.368 . S
C2036 C2030 1.368 . S
C2036 C2035 1.523 . S
C2037 C2021 1.429 . S
C2037 C2033 1.429 . S
C2037 C2038 1.523 . S
C2038 C2022 1.368 . S
C2038 C2034 1.368 . S
C2038 C2037 1.523 . S
H2039 C2014 0.950 . S
H2040 C2016 0.950 . S
H2041 C2017 0.949 . S
H2042 C2019 0.950 . S
H2043 C2021 0.950 . S
C2044 C2045 1.349 . S
C2044 C2046 1.327 . S
C2044 H2069 0.950 . S
C2045 C2044 1.349 . S
C2045 C2061 1.349 . S
C2046 C2044 1.327 . S
C2046 C2065 1.429 . S
C2046 H2070 0.950 . S
C2047 C2064 1.574 . S
C2047 C2066 1.368 . S
C2047 H2071 0.949 . S
H2048 C2052 0.949 . S
C2049 C2050 1.349 . S
C2049 C2051 1.327 . S
C2049 H2072 0.950 . S
C2050 C2049 1.349 . S
C2050 C2062 1.349 . S
C2051 C2049 1.327 . S
C2051 C2067 1.429 . S
C2051 H2073 0.950 . S
C2052 H2048 0.949 . S
C2052 C2060 1.574 . S
C2052 C2068 1.368 . S
H2053 C2061 0.950 . S
H2054 C2059 0.950 . S
H2055 C2060 0.949 . S
H2056 C2062 0.950 . S
H2057 C2063 0.950 . S
H2058 C2064 0.949 . S
C2059 H2054 0.950 . S
C2059 C2061 1.327 . S
C2059 C2065 1.429 . S
C2060 C2052 1.574 . S
C2060 H2055 0.949 . S
C2060 C2066 1.368 . S
C2061 C2045 1.349 . S
C2061 H2053 0.950 . S
C2061 C2059 1.327 . S
C2062 C2050 1.349 . S
C2062 H2056 0.950 . S
C2062 C2063 1.327 . S
C2063 H2057 0.950 . S
C2063 C2062 1.327 . S
C2063 C2067 1.429 . S
C2064 C2047 1.574 . S
C2064 H2058 0.949 . S
C2064 C2068 1.368 . S
C2065 C2046 1.429 . S
C2065 C2059 1.429 . S
C2065 C2066 1.523 . S
C2066 C2047 1.368 . S
C2066 C2060 1.368 . S
C2066 C2065 1.523 . S
C2067 C2051 1.429 . S
C2067 C2063 1.429 . S
C2067 C2068 1.523 . S
C2068 C2052 1.368 . S
C2068 C2064 1.368 . S
C2068 C2067 1.523 . S
H2069 C2044 0.950 . S
H2070 C2046 0.950 . S
H2071 C2047 0.949 . S
H2072 C2049 0.950 . S
H2073 C2051 0.950 . S
C2074 C2075 1.349 . S
C2074 C2076 1.327 . S
C2074 H2099 0.950 . S
C2075 C2074 1.349 . S
C2075 C2091 1.349 . S
C2076 C2074 1.327 . S
C2076 C2095 1.429 . S
C2076 H2100 0.950 . S
C2077 C2094 1.574 . S
C2077 C2096 1.368 . S
C2077 H2101 0.949 . S
H2078 C2082 0.949 . S
C2079 C2080 1.349 . S
C2079 C2081 1.327 . S
C2079 H2102 0.950 . S
C2080 C2079 1.349 . S
C2080 C2092 1.349 . S
C2081 C2079 1.327 . S
C2081 C2097 1.429 . S
C2081 H2103 0.950 . S
C2082 H2078 0.949 . S
C2082 C2090 1.574 . S
C2082 C2098 1.368 . S
H2083 C2091 0.950 . S
H2084 C2089 0.950 . S
H2085 C2090 0.949 . S
H2086 C2092 0.950 . S
H2087 C2093 0.950 . S
H2088 C2094 0.949 . S
C2089 H2084 0.950 . S
C2089 C2091 1.327 . S
C2089 C2095 1.429 . S
C2090 C2082 1.574 . S
C2090 H2085 0.949 . S
C2090 C2096 1.368 . S
C2091 C2075 1.349 . S
C2091 H2083 0.950 . S
C2091 C2089 1.327 . S
C2092 C2080 1.349 . S
C2092 H2086 0.950 . S
C2092 C2093 1.327 . S
C2093 H2087 0.950 . S
C2093 C2092 1.327 . S
C2093 C2097 1.429 . S
C2094 C2077 1.574 . S
C2094 H2088 0.949 . S
C2094 C2098 1.368 . S
C2095 C2076 1.429 . S
C2095 C2089 1.429 . S
C2095 C2096 1.523 . S
C2096 C2077 1.368 . S
C2096 C2090 1.368 . S
C2096 C2095 1.523 . S
C2097 C2081 1.429 . S
C2097 C2093 1.429 . S
C2097 C2098 1.523 . S
C2098 C2082 1.368 . S
C2098 C2094 1.368 . S
C2098 C2097 1.523 . S
H2099 C2074 0.950 . S
H2100 C2076 0.950 . S
H2101 C2077 0.949 . S
H2102 C2079 0.950 . S
H2103 C2081 0.950 . S
C2104 C2105 1.349 . S
C2104 C2106 1.327 . S
C2104 H2129 0.950 . S
C2105 C2104 1.349 . S
C2105 C2121 1.349 . S
C2106 C2104 1.327 . S
C2106 C2125 1.429 . S
C2106 H2130 0.950 . S
C2107 C2124 1.574 . S
C2107 C2126 1.368 . S
C2107 H2131 0.949 . S
H2108 C2112 0.949 . S
C2109 C2110 1.349 . S
C2109 C2111 1.327 . S
C2109 H2132 0.950 . S
C2110 C2109 1.349 . S
C2110 C2122 1.349 . S
C2111 C2109 1.327 . S
C2111 C2127 1.429 . S
C2111 H2133 0.950 . S
C2112 H2108 0.949 . S
C2112 C2120 1.574 . S
C2112 C2128 1.368 . S
H2113 C2121 0.950 . S
H2114 C2119 0.950 . S
H2115 C2120 0.949 . S
H2116 C2122 0.950 . S
H2117 C2123 0.950 . S
H2118 C2124 0.949 . S
C2119 H2114 0.950 . S
C2119 C2121 1.327 . S
C2119 C2125 1.429 . S
C2120 C2112 1.574 . S
C2120 H2115 0.949 . S
C2120 C2126 1.368 . S
C2121 C2105 1.349 . S
C2121 H2113 0.950 . S
C2121 C2119 1.327 . S
C2122 C2110 1.349 . S
C2122 H2116 0.950 . S
C2122 C2123 1.327 . S
C2123 H2117 0.950 . S
C2123 C2122 1.327 . S
C2123 C2127 1.429 . S
C2124 C2107 1.574 . S
C2124 H2118 0.949 . S
C2124 C2128 1.368 . S
C2125 C2106 1.429 . S
C2125 C2119 1.429 . S
C2125 C2126 1.523 . S
C2126 C2107 1.368 . S
C2126 C2120 1.368 . S
C2126 C2125 1.523 . S
C2127 C2111 1.429 . S
C2127 C2123 1.429 . S
C2127 C2128 1.523 . S
C2128 C2112 1.368 . S
C2128 C2124 1.368 . S
C2128 C2127 1.523 . S
H2129 C2104 0.950 . S
H2130 C2106 0.950 . S
H2131 C2107 0.949 . S
H2132 C2109 0.950 . S
H2133 C2111 0.950 . S
C2134 C2135 1.349 . S
C2134 C2136 1.327 . S
C2134 H2159 0.950 . S
C2135 C2134 1.349 . S
C2135 C2151 1.349 1_545 S
C2136 C2134 1.327 . S
C2136 C2155 1.429 . S
C2136 H2160 0.950 . S
C2137 C2154 1.574 . S
C2137 C2156 1.368 1_565 S
C2137 H2161 0.949 . S
H2138 C2142 0.949 . S
C2139 C2140 1.349 1_565 S
C2139 C2141 1.327 . S
C2139 H2162 0.950 . S
C2140 C2139 1.349 1_545 S
C2140 C2152 1.349 . S
C2141 C2139 1.327 . S
C2141 C2157 1.429 1_565 S
C2141 H2163 0.950 . S
C2142 H2138 0.949 . S
C2142 C2150 1.574 . S
C2142 C2158 1.368 . S
H2143 C2151 0.950 1_455 S
H2144 C2149 0.950 . S
H2145 C2150 0.949 . S
H2146 C2152 0.950 . S
H2147 C2153 0.950 . S
H2148 C2154 0.949 . S
C2149 H2144 0.950 . S
C2149 C2151 1.327 . S
C2149 C2155 1.429 1_565 S
C2150 C2142 1.574 . S
C2150 H2145 0.949 . S
C2150 C2156 1.368 . S
C2151 C2135 1.349 1_565 S
C2151 H2143 0.950 1_655 S
C2151 C2149 1.327 . S
C2152 C2140 1.349 . S
C2152 H2146 0.950 . S
C2152 C2153 1.327 . S
C2153 H2147 0.950 . S
C2153 C2152 1.327 . S
C2153 C2157 1.429 . S
C2154 C2137 1.574 . S
C2154 H2148 0.949 . S
C2154 C2158 1.368 1_565 S
C2155 C2136 1.429 . S
C2155 C2149 1.429 1_545 S
C2155 C2156 1.523 . S
C2156 C2137 1.368 1_545 S
C2156 C2150 1.368 . S
C2156 C2155 1.523 . S
C2157 C2141 1.429 1_545 S
C2157 C2153 1.429 . S
C2157 C2158 1.523 . S
C2158 C2142 1.368 . S
C2158 C2154 1.368 1_545 S
C2158 C2157 1.523 . S
H2159 C2134 0.950 . S
H2160 C2136 0.950 . S
H2161 C2137 0.949 . S
H2162 C2139 0.950 . S
H2163 C2141 0.950 . S
C2164 C2165 1.349 . S
C2164 C2166 1.327 . S
C2164 H2189 0.950 . S
C2165 C2164 1.349 . S
C2165 C2181 1.349 . S
C2166 C2164 1.327 . S
C2166 C2185 1.429 . S
C2166 H2190 0.950 . S
C2167 C2184 1.574 . S
C2167 C2186 1.368 . S
C2167 H2191 0.949 . S
H2168 C2172 0.949 . S
C2169 C2170 1.349 . S
C2169 C2171 1.327 . S
C2169 H2192 0.950 . S
C2170 C2169 1.349 . S
C2170 C2182 1.349 . S
C2171 C2169 1.327 . S
C2171 C2187 1.429 . S
C2171 H2193 0.950 . S
C2172 H2168 0.949 . S
C2172 C2180 1.574 . S
C2172 C2188 1.368 . S
H2173 C2181 0.950 . S
H2174 C2179 0.950 . S
H2175 C2180 0.949 . S
H2176 C2182 0.950 . S
H2177 C2183 0.950 . S
H2178 C2184 0.949 . S
C2179 H2174 0.950 . S
C2179 C2181 1.327 . S
C2179 C2185 1.429 . S
C2180 C2172 1.574 . S
C2180 H2175 0.949 . S
C2180 C2186 1.368 . S
C2181 C2165 1.349 . S
C2181 H2173 0.950 . S
C2181 C2179 1.327 . S
C2182 C2170 1.349 . S
C2182 H2176 0.950 . S
C2182 C2183 1.327 . S
C2183 H2177 0.950 . S
C2183 C2182 1.327 . S
C2183 C2187 1.429 . S
C2184 C2167 1.574 . S
C2184 H2178 0.949 . S
C2184 C2188 1.368 . S
C2185 C2166 1.429 . S
C2185 C2179 1.429 . S
C2185 C2186 1.523 . S
C2186 C2167 1.368 . S
C2186 C2180 1.368 . S
C2186 C2185 1.523 . S
C2187 C2171 1.429 . S
C2187 C2183 1.429 . S
C2187 C2188 1.523 . S
C2188 C2172 1.368 . S
C2188 C2184 1.368 . S
C2188 C2187 1.523 . S
H2189 C2164 0.950 . S
H2190 C2166 0.950 . S
H2191 C2167 0.949 . S
H2192 C2169 0.950 . S
H2193 C2171 0.950 . S
C2194 C2195 1.349 1_455 S
C2194 C2196 1.327 . S
C2194 H2219 0.950 . S
C2195 C2194 1.349 1_655 S
C2195 C2211 1.349 1_655 S
C2196 C2194 1.327 . S
C2196 C2215 1.429 . S
C2196 H2220 0.950 . S
C2197 C2214 1.574 . S
C2197 C2216 1.368 . S
C2197 H2221 0.949 . S
H2198 C2202 0.949 . S
C2199 C2200 1.349 . S
C2199 C2201 1.327 . S
C2199 H2222 0.950 . S
C2200 C2199 1.349 . S
C2200 C2212 1.349 . S
C2201 C2199 1.327 . S
C2201 C2217 1.429 . S
C2201 H2223 0.950 . S
C2202 H2198 0.949 . S
C2202 C2210 1.574 . S
C2202 C2218 1.368 . S
H2203 C2211 0.950 1_655 S
H2204 C2209 0.950 . S
H2205 C2210 0.949 . S
H2206 C2212 0.950 . S
H2207 C2213 0.950 . S
H2208 C2214 0.949 . S
C2209 H2204 0.950 . S
C2209 C2211 1.327 . S
C2209 C2215 1.429 . S
C2210 C2202 1.574 . S
C2210 H2205 0.949 . S
C2210 C2216 1.368 . S
C2211 C2195 1.349 1_455 S
C2211 H2203 0.950 1_455 S
C2211 C2209 1.327 . S
C2212 C2200 1.349 . S
C2212 H2206 0.950 . S
C2212 C2213 1.327 . S
C2213 H2207 0.950 . S
C2213 C2212 1.327 . S
C2213 C2217 1.429 . S
C2214 C2197 1.574 . S
C2214 H2208 0.949 . S
C2214 C2218 1.368 . S
C2215 C2196 1.429 . S
C2215 C2209 1.429 . S
C2215 C2216 1.523 . S
C2216 C2197 1.368 . S
C2216 C2210 1.368 . S
C2216 C2215 1.523 . S
C2217 C2201 1.429 . S
C2217 C2213 1.429 . S
C2217 C2218 1.523 . S
C2218 C2202 1.368 . S
C2218 C2214 1.368 . S
C2218 C2217 1.523 . S
H2219 C2194 0.950 . S
H2220 C2196 0.950 . S
H2221 C2197 0.949 . S
H2222 C2199 0.950 . S
H2223 C2201 0.950 . S
C2224 C2225 1.349 . S
C2224 C2226 1.327 . S
C2224 H2249 0.950 . S
C2225 C2224 1.349 . S
C2225 C2241 1.349 . S
C2226 C2224 1.327 . S
C2226 C2245 1.429 . S
C2226 H2250 0.950 . S
C2227 C2244 1.574 . S
C2227 C2246 1.368 . S
C2227 H2251 0.949 . S
H2228 C2232 0.949 . S
C2229 C2230 1.349 . S
C2229 C2231 1.327 . S
C2229 H2252 0.950 . S
C2230 C2229 1.349 . S
C2230 C2242 1.349 . S
C2231 C2229 1.327 . S
C2231 C2247 1.429 . S
C2231 H2253 0.950 . S
C2232 H2228 0.949 . S
C2232 C2240 1.574 . S
C2232 C2248 1.368 . S
H2233 C2241 0.950 . S
H2234 C2239 0.950 . S
H2235 C2240 0.949 . S
H2236 C2242 0.950 . S
H2237 C2243 0.950 . S
H2238 C2244 0.949 . S
C2239 H2234 0.950 . S
C2239 C2241 1.327 . S
C2239 C2245 1.429 . S
C2240 C2232 1.574 . S
C2240 H2235 0.949 . S
C2240 C2246 1.368 . S
C2241 C2225 1.349 . S
C2241 H2233 0.950 . S
C2241 C2239 1.327 . S
C2242 C2230 1.349 . S
C2242 H2236 0.950 . S
C2242 C2243 1.327 . S
C2243 H2237 0.950 . S
C2243 C2242 1.327 . S
C2243 C2247 1.429 . S
C2244 C2227 1.574 . S
C2244 H2238 0.949 . S
C2244 C2248 1.368 . S
C2245 C2226 1.429 . S
C2245 C2239 1.429 . S
C2245 C2246 1.523 . S
C2246 C2227 1.368 . S
C2246 C2240 1.368 . S
C2246 C2245 1.523 . S
C2247 C2231 1.429 . S
C2247 C2243 1.429 . S
C2247 C2248 1.523 . S
C2248 C2232 1.368 . S
C2248 C2244 1.368 . S
C2248 C2247 1.523 . S
H2249 C2224 0.950 . S
H2250 C2226 0.950 . S
H2251 C2227 0.949 . S
H2252 C2229 0.950 . S
H2253 C2231 0.950 . S
C2254 C2255 1.349 . S
C2254 C2256 1.327 . S
C2254 H2279 0.950 . S
C2255 C2254 1.349 . S
C2255 C2271 1.349 . S
C2256 C2254 1.327 . S
C2256 C2275 1.429 . S
C2256 H2280 0.950 . S
C2257 C2274 1.552 1_554 S
C2257 C2276 1.368 1_455 S
C2257 H2281 0.949 . S
H2258 C2262 0.949 . S
C2259 C2260 1.349 1_455 S
C2259 C2261 1.327 . S
C2259 H2282 0.950 . S
C2260 C2259 1.349 1_655 S
C2260 C2272 1.349 . S
C2261 C2259 1.327 . S
C2261 C2277 1.429 1_455 S
C2261 H2283 0.950 . S
C2262 H2258 0.949 . S
C2262 C2270 1.574 1_556 S
C2262 C2278 1.368 . S
H2263 C2271 0.950 1_455 S
H2264 C2269 0.939 1_455 S
H2265 C2270 0.949 . S
H2266 C2272 0.950 . S
H2267 C2273 0.950 . S
H2268 C2274 0.952 . S
C2269 H2264 0.939 1_655 S
C2269 C2271 1.329 . S
C2269 C2275 1.437 . S
C2270 C2262 1.574 1_554 S
C2270 H2265 0.949 . S
C2270 C2276 1.368 . S
C2271 C2255 1.349 . S
C2271 H2263 0.950 1_655 S
C2271 C2269 1.329 . S
C2272 C2260 1.349 . S
C2272 H2266 0.950 . S
C2272 C2273 1.327 . S
C2273 H2267 0.950 . S
C2273 C2272 1.327 . S
C2273 C2277 1.429 . S
C2274 C2257 1.552 1_556 S
C2274 H2268 0.952 . S
C2274 C2278 1.391 1_455 S
C2275 C2256 1.429 . S
C2275 C2269 1.437 . S
C2275 C2276 1.523 . S
C2276 C2257 1.368 1_655 S
C2276 C2270 1.368 . S
C2276 C2275 1.523 . S
C2277 C2261 1.429 1_655 S
C2277 C2273 1.429 . S
C2277 C2278 1.523 . S
C2278 C2262 1.368 . S
C2278 C2274 1.391 1_655 S
C2278 C2277 1.523 . S
H2279 C2254 0.950 . S
H2280 C2256 0.950 . S
H2281 C2257 0.949 . S
H2282 C2259 0.950 . S
H2283 C2261 0.950 . S
C2284 C2285 1.349 . S
C2284 C2286 1.327 . S
C2284 H2309 0.950 . S
C2285 C2284 1.349 . S
C2285 C2301 1.349 . S
C2286 C2284 1.327 . S
C2286 C2305 1.429 . S
C2286 H2310 0.950 . S
C2287 C2304 1.574 . S
C2287 C2306 1.368 . S
C2287 H2311 0.949 . S
H2288 C2292 0.949 . S
C2289 C2290 1.349 . S
C2289 C2291 1.327 . S
C2289 H2312 0.950 . S
C2290 C2289 1.349 . S
C2290 C2302 1.349 . S
C2291 C2289 1.327 . S
C2291 C2307 1.429 . S
C2291 H2313 0.950 . S
C2292 H2288 0.949 . S
C2292 C2300 1.574 . S
C2292 C2308 1.368 . S
H2293 C2301 0.950 . S
H2294 C2299 0.950 . S
H2295 C2300 0.949 . S
H2296 C2302 0.950 . S
H2297 C2303 0.950 . S
H2298 C2304 0.949 . S
C2299 H2294 0.950 . S
C2299 C2301 1.327 . S
C2299 C2305 1.429 . S
C2300 C2292 1.574 . S
C2300 H2295 0.949 . S
C2300 C2306 1.368 . S
C2301 C2285 1.349 . S
C2301 H2293 0.950 . S
C2301 C2299 1.327 . S
C2302 C2290 1.349 . S
C2302 H2296 0.950 . S
C2302 C2303 1.327 . S
C2303 H2297 0.950 . S
C2303 C2302 1.327 . S
C2303 C2307 1.429 . S
C2304 C2287 1.574 . S
C2304 H2298 0.949 . S
C2304 C2308 1.368 . S
C2305 C2286 1.429 . S
C2305 C2299 1.429 . S
C2305 C2306 1.523 . S
C2306 C2287 1.368 . S
C2306 C2300 1.368 . S
C2306 C2305 1.523 . S
C2307 C2291 1.429 . S
C2307 C2303 1.429 . S
C2307 C2308 1.523 . S
C2308 C2292 1.368 . S
C2308 C2304 1.368 . S
C2308 C2307 1.523 . S
H2309 C2284 0.950 . S
H2310 C2286 0.950 . S
H2311 C2287 0.949 . S
H2312 C2289 0.950 . S
H2313 C2291 0.950 . S
C2314 C2315 1.349 . S
C2314 C2316 1.327 . S
C2314 H2339 0.950 . S
C2315 C2314 1.349 . S
C2315 C2331 1.349 . S
C2316 C2314 1.327 . S
C2316 C2335 1.429 . S
C2316 H2340 0.950 . S
C2317 C2334 1.574 . S
C2317 C2336 1.368 1_556 S
C2317 H2341 0.949 . S
H2318 C2322 0.954 . S
C2319 C2320 1.349 . S
C2319 C2321 1.327 . S
C2319 H2342 0.950 1_455 S
C2320 C2319 1.349 . S
C2320 C2332 1.349 . S
C2321 C2319 1.327 . S
C2321 C2337 1.429 . S
C2321 H2343 0.950 1_455 S
C2322 H2318 0.954 . S
C2322 C2330 1.585 . S
C2322 C2338 1.352 1_554 S
H2323 C2331 0.950 . S
H2324 C2329 0.950 1_556 S
H2325 C2330 0.949 . S
H2326 C2332 0.950 . S
H2327 C2333 0.950 . S
H2328 C2334 0.960 . S
C2329 H2324 0.950 1_554 S
C2329 C2331 1.327 . S
C2329 C2335 1.429 . S
C2330 C2322 1.585 . S
C2330 H2325 0.949 . S
C2330 C2336 1.368 . S
C2331 C2315 1.349 . S
C2331 H2323 0.950 . S
C2331 C2329 1.327 . S
C2332 C2320 1.349 . S
C2332 H2326 0.950 . S
C2332 C2333 1.327 . S
C2333 H2327 0.950 . S
C2333 C2332 1.327 . S
C2333 C2337 1.429 . S
C2334 C2317 1.574 . S
C2334 H2328 0.960 . S
C2334 C2338 1.368 . S
C2335 C2316 1.429 . S
C2335 C2329 1.429 . S
C2335 C2336 1.523 . S
C2336 C2317 1.368 1_554 S
C2336 C2330 1.368 . S
C2336 C2335 1.523 . S
C2337 C2321 1.429 . S
C2337 C2333 1.429 . S
C2337 C2338 1.523 . S
C2338 C2322 1.352 1_556 S
C2338 C2334 1.368 . S
C2338 C2337 1.523 . S
H2339 C2314 0.950 . S
H2340 C2316 0.950 . S
H2341 C2317 0.949 . S
H2342 C2319 0.950 1_655 S
H2343 C2321 0.950 1_655 S
C2344 C2345 1.349 . S
C2344 C2346 1.327 . S
C2344 H2369 0.950 . S
C2345 C2344 1.349 . S
C2345 C2361 1.349 . S
C2346 C2344 1.327 . S
C2346 C2365 1.429 . S
C2346 H2370 0.950 . S
C2347 C2364 1.574 . S
C2347 C2366 1.368 . S
C2347 H2371 0.949 . S
H2348 C2352 0.949 . S
C2349 C2350 1.349 . S
C2349 C2351 1.327 . S
C2349 H2372 0.950 . S
C2350 C2349 1.349 . S
C2350 C2362 1.349 . S
C2351 C2349 1.327 . S
C2351 C2367 1.429 . S
C2351 H2373 0.950 . S
C2352 H2348 0.949 . S
C2352 C2360 1.574 . S
C2352 C2368 1.368 . S
H2353 C2361 0.950 . S
H2354 C2359 0.950 . S
H2355 C2360 0.949 . S
H2356 C2362 0.950 . S
H2357 C2363 0.950 . S
H2358 C2364 0.949 . S
C2359 H2354 0.950 . S
C2359 C2361 1.327 . S
C2359 C2365 1.429 . S
C2360 C2352 1.574 . S
C2360 H2355 0.949 . S
C2360 C2366 1.368 . S
C2361 C2345 1.349 . S
C2361 H2353 0.950 . S
C2361 C2359 1.327 . S
C2362 C2350 1.349 . S
C2362 H2356 0.950 . S
C2362 C2363 1.327 . S
C2363 H2357 0.950 . S
C2363 C2362 1.327 . S
C2363 C2367 1.429 . S
C2364 C2347 1.574 . S
C2364 H2358 0.949 . S
C2364 C2368 1.368 . S
C2365 C2346 1.429 . S
C2365 C2359 1.429 . S
C2365 C2366 1.523 . S
C2366 C2347 1.368 . S
C2366 C2360 1.368 . S
C2366 C2365 1.523 . S
C2367 C2351 1.429 . S
C2367 C2363 1.429 . S
C2367 C2368 1.523 . S
C2368 C2352 1.368 . S
C2368 C2364 1.368 . S
C2368 C2367 1.523 . S
H2369 C2344 0.950 . S
H2370 C2346 0.950 . S
H2371 C2347 0.949 . S
H2372 C2349 0.950 . S
H2373 C2351 0.950 . S
C2374 C2375 1.349 1_554 S
C2374 C2376 1.327 . S
C2374 H2399 0.950 . S
C2375 C2374 1.349 1_556 S
C2375 C2391 1.349 . S
C2376 C2374 1.327 . S
C2376 C2395 1.429 . S
C2376 H2400 0.950 . S
C2377 C2394 1.574 . S
C2377 C2396 1.368 . S
C2377 H2401 0.949 . S
H2378 C2382 0.949 . S
C2379 C2380 1.349 . S
C2379 C2381 1.327 . S
C2379 H2402 0.950 . S
C2380 C2379 1.349 . S
C2380 C2392 1.349 . S
C2381 C2379 1.327 . S
C2381 C2397 1.429 . S
C2381 H2403 0.950 . S
C2382 H2378 0.949 . S
C2382 C2390 1.574 . S
C2382 C2398 1.368 . S
H2383 C2391 0.950 . S
H2384 C2389 0.950 . S
H2385 C2390 0.949 . S
H2386 C2392 0.950 . S
H2387 C2393 0.950 . S
H2388 C2394 0.949 . S
C2389 H2384 0.950 . S
C2389 C2391 1.327 . S
C2389 C2395 1.429 1_556 S
C2390 C2382 1.574 . S
C2390 H2385 0.949 . S
C2390 C2396 1.368 . S
C2391 C2375 1.349 . S
C2391 H2383 0.950 . S
C2391 C2389 1.327 . S
C2392 C2380 1.349 . S
C2392 H2386 0.950 . S
C2392 C2393 1.327 . S
C2393 H2387 0.950 . S
C2393 C2392 1.327 . S
C2393 C2397 1.429 . S
C2394 C2377 1.574 . S
C2394 H2388 0.949 . S
C2394 C2398 1.368 . S
C2395 C2376 1.429 . S
C2395 C2389 1.429 1_554 S
C2395 C2396 1.523 . S
C2396 C2377 1.368 . S
C2396 C2390 1.368 . S
C2396 C2395 1.523 . S
C2397 C2381 1.429 . S
C2397 C2393 1.429 . S
C2397 C2398 1.523 . S
C2398 C2382 1.368 . S
C2398 C2394 1.368 . S
C2398 C2397 1.523 . S
H2399 C2374 0.950 . S
H2400 C2376 0.950 . S
H2401 C2377 0.949 . S
H2402 C2379 0.950 . S
H2403 C2381 0.950 . S
C2404 C2405 1.349 . S
C2404 C2406 1.327 . S
C2404 H2429 0.950 . S
C2405 C2404 1.349 . S
C2405 C2421 1.349 . S
C2406 C2404 1.327 . S
C2406 C2425 1.429 . S
C2406 H2430 0.950 . S
C2407 C2424 1.574 . S
C2407 C2426 1.368 . S
C2407 H2431 0.949 . S
H2408 C2412 0.949 . S
C2409 C2410 1.349 . S
C2409 C2411 1.327 . S
C2409 H2432 0.950 . S
C2410 C2409 1.349 . S
C2410 C2422 1.349 . S
C2411 C2409 1.327 . S
C2411 C2427 1.429 . S
C2411 H2433 0.950 . S
C2412 H2408 0.949 . S
C2412 C2420 1.574 . S
C2412 C2428 1.368 . S
H2413 C2421 0.950 . S
H2414 C2419 0.950 . S
H2415 C2420 0.949 . S
H2416 C2422 0.950 . S
H2417 C2423 0.950 . S
H2418 C2424 0.949 . S
C2419 H2414 0.950 . S
C2419 C2421 1.327 . S
C2419 C2425 1.429 . S
C2420 C2412 1.574 . S
C2420 H2415 0.949 . S
C2420 C2426 1.368 . S
C2421 C2405 1.349 . S
C2421 H2413 0.950 . S
C2421 C2419 1.327 . S
C2422 C2410 1.349 . S
C2422 H2416 0.950 . S
C2422 C2423 1.327 . S
C2423 H2417 0.950 . S
C2423 C2422 1.327 . S
C2423 C2427 1.429 . S
C2424 C2407 1.574 . S
C2424 H2418 0.949 . S
C2424 C2428 1.368 . S
C2425 C2406 1.429 . S
C2425 C2419 1.429 . S
C2425 C2426 1.523 . S
C2426 C2407 1.368 . S
C2426 C2420 1.368 . S
C2426 C2425 1.523 . S
C2427 C2411 1.429 . S
C2427 C2423 1.429 . S
C2427 C2428 1.523 . S
C2428 C2412 1.368 . S
C2428 C2424 1.368 . S
C2428 C2427 1.523 . S
H2429 C2404 0.950 . S
H2430 C2406 0.950 . S
H2431 C2407 0.949 . S
H2432 C2409 0.950 . S
H2433 C2411 0.950 . S
C2434 C2435 1.349 . S
C2434 C2436 1.327 1_556 S
C2434 H2459 0.950 . S
C2435 C2434 1.349 . S
C2435 C2451 1.349 . S
C2436 C2434 1.327 1_554 S
C2436 C2455 1.429 . S
C2436 H2460 0.950 . S
C2437 C2454 1.574 . S
C2437 C2456 1.368 . S
C2437 H2461 0.949 . S
H2438 C2442 0.949 . S
C2439 C2440 1.349 . S
C2439 C2441 1.327 . S
C2439 H2462 0.950 . S
C2440 C2439 1.349 . S
C2440 C2452 1.349 . S
C2441 C2439 1.327 . S
C2441 C2457 1.429 . S
C2441 H2463 0.950 . S
C2442 H2438 0.949 . S
C2442 C2450 1.574 . S
C2442 C2458 1.368 . S
H2443 C2451 0.950 . S
H2444 C2449 0.950 . S
H2445 C2450 0.949 . S
H2446 C2452 0.950 . S
H2447 C2453 0.950 . S
H2448 C2454 0.949 . S
C2449 H2444 0.950 . S
C2449 C2451 1.327 1_554 S
C2449 C2455 1.429 . S
C2450 C2442 1.574 . S
C2450 H2445 0.949 . S
C2450 C2456 1.368 . S
C2451 C2435 1.349 . S
C2451 H2443 0.950 . S
C2451 C2449 1.327 1_556 S
C2452 C2440 1.349 . S
C2452 H2446 0.950 . S
C2452 C2453 1.327 . S
C2453 H2447 0.950 . S
C2453 C2452 1.327 . S
C2453 C2457 1.429 . S
C2454 C2437 1.574 . S
C2454 H2448 0.949 . S
C2454 C2458 1.368 . S
C2455 C2436 1.429 . S
C2455 C2449 1.429 . S
C2455 C2456 1.523 . S
C2456 C2437 1.368 . S
C2456 C2450 1.368 . S
C2456 C2455 1.523 . S
C2457 C2441 1.429 . S
C2457 C2453 1.429 . S
C2457 C2458 1.523 . S
C2458 C2442 1.368 . S
C2458 C2454 1.368 . S
C2458 C2457 1.523 . S
H2459 C2434 0.950 . S
H2460 C2436 0.950 . S
H2461 C2437 0.949 . S
H2462 C2439 0.950 . S
H2463 C2441 0.950 . S
C2464 C2465 1.349 . S
C2464 C2466 1.327 . S
C2464 H2489 0.950 . S
C2465 C2464 1.349 . S
C2465 C2481 1.349 . S
C2466 C2464 1.327 . S
C2466 C2485 1.429 . S
C2466 H2490 0.950 . S
C2467 C2484 1.574 . S
C2467 C2486 1.368 . S
C2467 H2491 0.949 . S
H2468 C2472 0.949 . S
C2469 C2470 1.349 . S
C2469 C2471 1.327 . S
C2469 H2492 0.950 . S
C2470 C2469 1.349 . S
C2470 C2482 1.349 . S
C2471 C2469 1.327 . S
C2471 C2487 1.429 . S
C2471 H2493 0.950 . S
C2472 H2468 0.949 . S
C2472 C2480 1.574 . S
C2472 C2488 1.368 . S
H2473 C2481 0.950 . S
H2474 C2479 0.950 . S
H2475 C2480 0.949 . S
H2476 C2482 0.950 . S
H2477 C2483 0.950 . S
H2478 C2484 0.949 . S
C2479 H2474 0.950 . S
C2479 C2481 1.327 . S
C2479 C2485 1.429 . S
C2480 C2472 1.574 . S
C2480 H2475 0.949 . S
C2480 C2486 1.368 . S
C2481 C2465 1.349 . S
C2481 H2473 0.950 . S
C2481 C2479 1.327 . S
C2482 C2470 1.349 . S
C2482 H2476 0.950 . S
C2482 C2483 1.327 . S
C2483 H2477 0.950 . S
C2483 C2482 1.327 . S
C2483 C2487 1.429 . S
C2484 C2467 1.574 . S
C2484 H2478 0.949 . S
C2484 C2488 1.368 . S
C2485 C2466 1.429 . S
C2485 C2479 1.429 . S
C2485 C2486 1.523 . S
C2486 C2467 1.368 . S
C2486 C2480 1.368 . S
C2486 C2485 1.523 . S
C2487 C2471 1.429 . S
C2487 C2483 1.429 . S
C2487 C2488 1.523 . S
C2488 C2472 1.368 . S
C2488 C2484 1.368 . S
C2488 C2487 1.523 . S
H2489 C2464 0.950 . S
H2490 C2466 0.950 . S
H2491 C2467 0.949 . S
H2492 C2469 0.950 . S
H2493 C2471 0.950 . S
C2494 C2495 1.349 . S
C2494 C2496 1.327 . S
C2494 H2519 0.950 . S
C2495 C2494 1.349 . S
C2495 C2511 1.349 . S
C2496 C2494 1.327 . S
C2496 C2515 1.429 . S
C2496 H2520 0.950 . S
C2497 C2514 1.574 . S
C2497 C2516 1.368 . S
C2497 H2521 0.949 . S
H2498 C2502 0.949 . S
C2499 C2500 1.349 . S
C2499 C2501 1.327 . S
C2499 H2522 0.950 . S
C2500 C2499 1.349 . S
C2500 C2512 1.349 . S
C2501 C2499 1.327 . S
C2501 C2517 1.429 . S
C2501 H2523 0.950 . S
C2502 H2498 0.949 . S
C2502 C2510 1.574 . S
C2502 C2518 1.368 . S
H2503 C2511 0.950 . S
H2504 C2509 0.950 . S
H2505 C2510 0.949 . S
H2506 C2512 0.950 . S
H2507 C2513 0.950 . S
H2508 C2514 0.949 . S
C2509 H2504 0.950 . S
C2509 C2511 1.327 . S
C2509 C2515 1.429 . S
C2510 C2502 1.574 . S
C2510 H2505 0.949 . S
C2510 C2516 1.368 . S
C2511 C2495 1.349 . S
C2511 H2503 0.950 . S
C2511 C2509 1.327 . S
C2512 C2500 1.349 . S
C2512 H2506 0.950 . S
C2512 C2513 1.327 . S
C2513 H2507 0.950 . S
C2513 C2512 1.327 . S
C2513 C2517 1.429 . S
C2514 C2497 1.574 . S
C2514 H2508 0.949 . S
C2514 C2518 1.368 . S
C2515 C2496 1.429 . S
C2515 C2509 1.429 . S
C2515 C2516 1.523 . S
C2516 C2497 1.368 . S
C2516 C2510 1.368 . S
C2516 C2515 1.523 . S
C2517 C2501 1.429 . S
C2517 C2513 1.429 . S
C2517 C2518 1.523 . S
C2518 C2502 1.368 . S
C2518 C2514 1.368 . S
C2518 C2517 1.523 . S
H2519 C2494 0.950 . S
H2520 C2496 0.950 . S
H2521 C2497 0.949 . S
H2522 C2499 0.950 . S
H2523 C2501 0.950 . S
C2524 C2525 1.349 . S
C2524 C2526 1.327 . S
C2524 H2549 0.950 . S
C2525 C2524 1.349 . S
C2525 C2541 1.349 . S
C2526 C2524 1.327 . S
C2526 C2545 1.429 . S
C2526 H2550 0.950 . S
C2527 C2544 1.574 . S
C2527 C2546 1.368 . S
C2527 H2551 0.949 . S
H2528 C2532 0.949 . S
C2529 C2530 1.349 . S
C2529 C2531 1.327 . S
C2529 H2552 0.950 . S
C2530 C2529 1.349 . S
C2530 C2542 1.349 . S
C2531 C2529 1.327 . S
C2531 C2547 1.429 . S
C2531 H2553 0.950 . S
C2532 H2528 0.949 . S
C2532 C2540 1.574 . S
C2532 C2548 1.368 . S
H2533 C2541 0.950 . S
H2534 C2539 0.950 . S
H2535 C2540 0.949 . S
H2536 C2542 0.950 . S
H2537 C2543 0.950 . S
H2538 C2544 0.949 . S
C2539 H2534 0.950 . S
C2539 C2541 1.327 . S
C2539 C2545 1.429 . S
C2540 C2532 1.574 . S
C2540 H2535 0.949 . S
C2540 C2546 1.368 . S
C2541 C2525 1.349 . S
C2541 H2533 0.950 . S
C2541 C2539 1.327 . S
C2542 C2530 1.349 . S
C2542 H2536 0.950 . S
C2542 C2543 1.327 . S
C2543 H2537 0.950 . S
C2543 C2542 1.327 . S
C2543 C2547 1.429 . S
C2544 C2527 1.574 . S
C2544 H2538 0.949 . S
C2544 C2548 1.368 . S
C2545 C2526 1.429 . S
C2545 C2539 1.429 . S
C2545 C2546 1.523 . S
C2546 C2527 1.368 . S
C2546 C2540 1.368 . S
C2546 C2545 1.523 . S
C2547 C2531 1.429 . S
C2547 C2543 1.429 . S
C2547 C2548 1.523 . S
C2548 C2532 1.368 . S
C2548 C2544 1.368 . S
C2548 C2547 1.523 . S
H2549 C2524 0.950 . S
H2550 C2526 0.950 . S
H2551 C2527 0.949 . S
H2552 C2529 0.950 . S
H2553 C2531 0.950 . S
C2554 C2555 1.349 . S
C2554 C2556 1.327 . S
C2554 H2579 0.950 . S
C2555 C2554 1.349 . S
C2555 C2571 1.349 . S
C2556 C2554 1.327 . S
C2556 C2575 1.429 . S
C2556 H2580 0.950 . S
C2557 C2574 1.574 . S
C2557 C2576 1.368 . S
C2557 H2581 0.949 . S
H2558 C2562 0.949 . S
C2559 C2560 1.349 . S
C2559 C2561 1.327 . S
C2559 H2582 0.950 . S
C2560 C2559 1.349 . S
C2560 C2572 1.349 . S
C2561 C2559 1.327 . S
C2561 C2577 1.429 . S
C2561 H2583 0.950 . S
C2562 H2558 0.949 . S
C2562 C2570 1.574 . S
C2562 C2578 1.368 . S
H2563 C2571 0.950 . S
H2564 C2569 0.950 . S
H2565 C2570 0.949 . S
H2566 C2572 0.950 . S
H2567 C2573 0.950 . S
H2568 C2574 0.949 . S
C2569 H2564 0.950 . S
C2569 C2571 1.327 . S
C2569 C2575 1.429 . S
C2570 C2562 1.574 . S
C2570 H2565 0.949 . S
C2570 C2576 1.368 . S
C2571 C2555 1.349 . S
C2571 H2563 0.950 . S
C2571 C2569 1.327 . S
C2572 C2560 1.349 . S
C2572 H2566 0.950 . S
C2572 C2573 1.327 . S
C2573 H2567 0.950 . S
C2573 C2572 1.327 . S
C2573 C2577 1.429 . S
C2574 C2557 1.574 . S
C2574 H2568 0.949 . S
C2574 C2578 1.368 . S
C2575 C2556 1.429 . S
C2575 C2569 1.429 . S
C2575 C2576 1.523 . S
C2576 C2557 1.368 . S
C2576 C2570 1.368 . S
C2576 C2575 1.523 . S
C2577 C2561 1.429 . S
C2577 C2573 1.429 . S
C2577 C2578 1.523 . S
C2578 C2562 1.368 . S
C2578 C2574 1.368 . S
C2578 C2577 1.523 . S
H2579 C2554 0.950 . S
H2580 C2556 0.950 . S
H2581 C2557 0.949 . S
H2582 C2559 0.950 . S
H2583 C2561 0.950 . S
C2584 C2585 1.349 . S
C2584 C2586 1.327 . S
C2584 H2609 0.950 . S
C2585 C2584 1.349 . S
C2585 C2601 1.349 . S
C2586 C2584 1.327 . S
C2586 C2605 1.429 . S
C2586 H2610 0.950 . S
C2587 C2604 1.574 . S
C2587 C2606 1.368 . S
C2587 H2611 0.949 . S
H2588 C2592 0.949 . S
C2589 C2590 1.349 . S
C2589 C2591 1.327 . S
C2589 H2612 0.950 . S
C2590 C2589 1.349 . S
C2590 C2602 1.349 . S
C2591 C2589 1.327 . S
C2591 C2607 1.429 . S
C2591 H2613 0.950 . S
C2592 H2588 0.949 . S
C2592 C2600 1.574 . S
C2592 C2608 1.368 . S
H2593 C2601 0.950 . S
H2594 C2599 0.950 . S
H2595 C2600 0.949 . S
H2596 C2602 0.950 . S
H2597 C2603 0.950 . S
H2598 C2604 0.949 . S
C2599 H2594 0.950 . S
C2599 C2601 1.327 . S
C2599 C2605 1.429 . S
C2600 C2592 1.574 . S
C2600 H2595 0.949 . S
C2600 C2606 1.368 . S
C2601 C2585 1.349 . S
C2601 H2593 0.950 . S
C2601 C2599 1.327 . S
C2602 C2590 1.349 . S
C2602 H2596 0.950 . S
C2602 C2603 1.327 . S
C2603 H2597 0.950 . S
C2603 C2602 1.327 . S
C2603 C2607 1.429 . S
C2604 C2587 1.574 . S
C2604 H2598 0.949 . S
C2604 C2608 1.368 . S
C2605 C2586 1.429 . S
C2605 C2599 1.429 . S
C2605 C2606 1.523 . S
C2606 C2587 1.368 . S
C2606 C2600 1.368 . S
C2606 C2605 1.523 . S
C2607 C2591 1.429 . S
C2607 C2603 1.429 . S
C2607 C2608 1.523 . S
C2608 C2592 1.368 . S
C2608 C2604 1.368 . S
C2608 C2607 1.523 . S
H2609 C2584 0.950 . S
H2610 C2586 0.950 . S
H2611 C2587 0.949 . S
H2612 C2589 0.950 . S
H2613 C2591 0.950 . S
C2614 C2615 1.349 . S
C2614 C2616 1.327 . S
C2614 H2639 0.950 . S
C2615 C2614 1.349 . S
C2615 C2631 1.349 . S
C2616 C2614 1.327 . S
C2616 C2635 1.429 . S
C2616 H2640 0.950 . S
C2617 C2634 1.574 . S
C2617 C2636 1.368 . S
C2617 H2641 0.949 . S
H2618 C2622 0.949 . S
C2619 C2620 1.349 . S
C2619 C2621 1.327 . S
C2619 H2642 0.950 . S
C2620 C2619 1.349 . S
C2620 C2632 1.349 . S
C2621 C2619 1.327 . S
C2621 C2637 1.429 . S
C2621 H2643 0.950 . S
C2622 H2618 0.949 . S
C2622 C2630 1.574 . S
C2622 C2638 1.368 . S
H2623 C2631 0.950 . S
H2624 C2629 0.950 . S
H2625 C2630 0.949 . S
H2626 C2632 0.950 . S
H2627 C2633 0.950 . S
H2628 C2634 0.949 . S
C2629 H2624 0.950 . S
C2629 C2631 1.327 . S
C2629 C2635 1.429 . S
C2630 C2622 1.574 . S
C2630 H2625 0.949 . S
C2630 C2636 1.368 . S
C2631 C2615 1.349 . S
C2631 H2623 0.950 . S
C2631 C2629 1.327 . S
C2632 C2620 1.349 . S
C2632 H2626 0.950 . S
C2632 C2633 1.327 . S
C2633 H2627 0.950 . S
C2633 C2632 1.327 . S
C2633 C2637 1.429 . S
C2634 C2617 1.574 . S
C2634 H2628 0.949 . S
C2634 C2638 1.368 . S
C2635 C2616 1.429 . S
C2635 C2629 1.429 . S
C2635 C2636 1.523 . S
C2636 C2617 1.368 . S
C2636 C2630 1.368 . S
C2636 C2635 1.523 . S
C2637 C2621 1.429 . S
C2637 C2633 1.429 . S
C2637 C2638 1.523 . S
C2638 C2622 1.368 . S
C2638 C2634 1.368 . S
C2638 C2637 1.523 . S
H2639 C2614 0.950 . S
H2640 C2616 0.950 . S
H2641 C2617 0.949 . S
H2642 C2619 0.950 . S
H2643 C2621 0.950 . S
C2644 C2645 1.349 . S
C2644 C2646 1.327 . S
C2644 H2669 0.950 . S
C2645 C2644 1.349 . S
C2645 C2661 1.349 . S
C2646 C2644 1.327 . S
C2646 C2665 1.429 . S
C2646 H2670 0.950 . S
C2647 C2664 1.574 . S
C2647 C2666 1.368 . S
C2647 H2671 0.949 . S
H2648 C2652 0.949 . S
C2649 C2650 1.349 . S
C2649 C2651 1.327 . S
C2649 H2672 0.950 . S
C2650 C2649 1.349 . S
C2650 C2662 1.349 . S
C2651 C2649 1.327 . S
C2651 C2667 1.429 . S
C2651 H2673 0.950 . S
C2652 H2648 0.949 . S
C2652 C2660 1.574 . S
C2652 C2668 1.368 . S
H2653 C2661 0.950 . S
H2654 C2659 0.950 . S
H2655 C2660 0.949 . S
H2656 C2662 0.950 1_556 S
H2657 C2663 0.950 . S
H2658 C2664 0.949 . S
C2659 H2654 0.950 . S
C2659 C2661 1.327 . S
C2659 C2665 1.429 . S
C2660 C2652 1.574 . S
C2660 H2655 0.949 . S
C2660 C2666 1.368 . S
C2661 C2645 1.349 . S
C2661 H2653 0.950 . S
C2661 C2659 1.327 . S
C2662 C2650 1.349 . S
C2662 H2656 0.950 1_554 S
C2662 C2663 1.327 . S
C2663 H2657 0.950 . S
C2663 C2662 1.327 . S
C2663 C2667 1.429 . S
C2664 C2647 1.574 . S
C2664 H2658 0.949 . S
C2664 C2668 1.368 . S
C2665 C2646 1.429 . S
C2665 C2659 1.429 . S
C2665 C2666 1.523 . S
C2666 C2647 1.368 . S
C2666 C2660 1.368 . S
C2666 C2665 1.523 . S
C2667 C2651 1.429 . S
C2667 C2663 1.429 . S
C2667 C2668 1.523 . S
C2668 C2652 1.368 . S
C2668 C2664 1.368 . S
C2668 C2667 1.523 . S
H2669 C2644 0.950 . S
H2670 C2646 0.950 . S
H2671 C2647 0.949 . S
H2672 C2649 0.950 . S
H2673 C2651 0.950 . S
C2674 C2675 1.349 . S
C2674 C2676 1.327 . S
C2674 H2699 0.950 . S
C2675 C2674 1.349 . S
C2675 C2691 1.349 1_565 S
C2676 C2674 1.327 . S
C2676 C2695 1.429 . S
C2676 H2700 0.950 . S
C2677 C2694 1.574 . S
C2677 C2696 1.368 . S
C2677 H2701 0.949 . S
H2678 C2682 0.949 . S
C2679 C2680 1.349 . S
C2679 C2681 1.327 . S
C2679 H2702 0.950 . S
C2680 C2679 1.349 . S
C2680 C2692 1.349 . S
C2681 C2679 1.327 . S
C2681 C2697 1.429 . S
C2681 H2703 0.950 . S
C2682 H2678 0.949 . S
C2682 C2690 1.574 . S
C2682 C2698 1.368 . S
H2683 C2691 0.950 . S
H2684 C2689 0.950 1_545 S
H2685 C2690 0.949 . S
H2686 C2692 0.950 . S
H2687 C2693 0.950 . S
H2688 C2694 0.949 . S
C2689 H2684 0.950 1_565 S
C2689 C2691 1.327 1_565 S
C2689 C2695 1.429 . S
C2690 C2682 1.574 . S
C2690 H2685 0.949 . S
C2690 C2696 1.368 . S
C2691 C2675 1.349 1_545 S
C2691 H2683 0.950 . S
C2691 C2689 1.327 1_545 S
C2692 C2680 1.349 . S
C2692 H2686 0.950 . S
C2692 C2693 1.327 . S
C2693 H2687 0.950 . S
C2693 C2692 1.327 . S
C2693 C2697 1.429 . S
C2694 C2677 1.574 . S
C2694 H2688 0.949 . S
C2694 C2698 1.368 . S
C2695 C2676 1.429 . S
C2695 C2689 1.429 . S
C2695 C2696 1.523 . S
C2696 C2677 1.368 . S
C2696 C2690 1.368 . S
C2696 C2695 1.523 . S
C2697 C2681 1.429 . S
C2697 C2693 1.429 . S
C2697 C2698 1.523 . S
C2698 C2682 1.368 . S
C2698 C2694 1.368 . S
C2698 C2697 1.523 . S
H2699 C2674 0.950 . S
H2700 C2676 0.950 . S
H2701 C2677 0.949 . S
H2702 C2679 0.950 . S
H2703 C2681 0.950 . S
C1270 C257 1.186 . S
C1265 N66 1.169 . S
C1300 C316 1.599 . S
C1295 N79 1.585 . S
C1325 N92 1.908 . S
C1330 C433 1.935 . S
C1360 C501 1.292 . S
C1355 N54 1.295 . S
C1390 C580 1.561 . S
C1385 N131 1.556 . S
C1420 C705 1.062 . S
C1415 N158 1.059 . S
C1445 N145 1.558 . S
C1450 C765 1.560 . S
C1480 C873 1.905 . S
C1475 N118 1.884 . S
C1505 N148 2.137 . S
C1510 C969 2.136 . S
C1540 C1029 1.638 . S
C1535 N122 1.622 . S
C1565 N132 1.154 . S
C1570 C932 1.153 . S
C1600 C1049 1.493 . S
C1595 N161 1.462 . S
C1625 N96 2.019 . S
C1630 C1117 2.056 . S
C1655 N53 1.835 . S
C1660 C1108 1.858 . S
C1685 N67 0.876 . S
C1690 C1137 0.877 . S
C1715 N83 1.266 . S
C1720 C1145 1.279 . S
C1745 N44 1.433 . S
C1750 C529 1.452 . S
C1775 N187 1.529 . S
C1780 C492 1.538 . S
C1810 C228 1.055 . S
C1805 N197 1.054 . S
C1840 C325 1.185 . S
C1835 N106 1.185 . S
C1865 N57 1.946 1_545 S
C1870 C589 1.966 . S
C1900 C881 1.399 . S
C1895 N144 1.381 . S
C1930 C609 1.326 . S
C1925 N119 1.332 . S
C1960 C793 1.932 . S
C1955 N157 1.894 . S
C1990 C785 1.186 . S
C1985 N183 1.170 . S
C2015 N196 1.585 . S
C2020 C853 1.599 . S
C2045 N105 1.907 . S
C2050 C617 1.935 . S
C2080 C668 1.292 . S
C2075 N171 1.295 . S
C2105 N40 1.556 . S
C2110 C413 1.561 . S
C2140 C521 1.062 . S
C2135 N2 1.059 1_655 S
C2170 C237 1.560 . S
C2165 N15 1.558 . S
C2200 C353 1.905 . S
C2195 N27 1.884 . S
C2225 N18 2.137 . S
C2230 C1057 2.136 . S
C2255 N31 1.622 . S
C2260 C941 1.638 . S
C2285 N41 1.154 . S
C2290 C1020 1.153 . S
C2315 N5 1.462 . S
C2320 C961 1.493 . S
C2350 C1205 2.056 . S
C2345 N109 2.019 . S
C2380 C1196 1.858 . S
C2375 N170 1.834 . S
C2410 C1225 0.877 . S
C2405 N184 0.876 . S
C2435 N200 1.267 . S
C2440 C1233 1.279 . S
C2465 N135 1.433 . S
C2470 C697 1.452 . S
C2500 C677 1.538 . S
C2495 N70 1.529 . S
C2530 C756 1.051 . S
C2525 N80 1.054 . S
C2560 C844 1.185 . S
C2555 N93 1.185 . S
C2585 N174 1.946 . S
C2590 C404 1.966 . S
C2620 C345 1.399 . S
C2615 N14 1.381 . S
C2645 N28 1.332 . S
C2650 C441 1.326 . S
C2680 C265 1.932 . S
C2675 N1 1.894 1_565 S
