# Generated by pormake.
# Topology anh, (6,3)-cn, num edge types: 1
# Building blocks:
#     Node 0, Type 0, BuildingBlock: CUWYAW_clean_sbu_0, # of connection points: 6
#     Node 1, Type 0, BuildingBlock: CUWYAW_clean_sbu_0, # of connection points: 6
#     Node 2, Type 0, BuildingBlock: CUWYAW_clean_sbu_0, # of connection points: 6
#     Node 3, Type 1, BuildingBlock: CUQRIR_clean_linker_1, # of connection points: 3
#     Node 4, Type 1, BuildingBlock: CUQRIR_clean_linker_1, # of connection points: 3
#     Node 5, Type 1, BuildingBlock: CUQRIR_clean_linker_1, # of connection points: 3
#     Node 6, Type 1, BuildingBlock: CUQRIR_clean_linker_1, # of connection points: 3
#     Node 7, Type 1, BuildingBlock: CUQRIR_clean_linker_1, # of connection points: 3
#     Node 8, Type 1, BuildingBlock: CUQRIR_clean_linker_1, # of connection points: 3
#     Edge 9, Type (0, 1), BuildingBlock: CIFDUS_clean_linker_0, # of connection points: 2
#     Edge 10, Type (0, 1), BuildingBlock: CIFDUS_clean_linker_0, # of connection points: 2
#     Edge 11, Type (0, 1), BuildingBlock: CIFDUS_clean_linker_0, # of connection points: 2
#     Edge 12, Type (0, 1), BuildingBlock: CIFDUS_clean_linker_0, # of connection points: 2
#     Edge 13, Type (0, 1), BuildingBlock: CIFDUS_clean_linker_0, # of connection points: 2
#     Edge 14, Type (0, 1), BuildingBlock: CIFDUS_clean_linker_0, # of connection points: 2
#     Edge 15, Type (0, 1), BuildingBlock: CIFDUS_clean_linker_0, # of connection points: 2
#     Edge 16, Type (0, 1), BuildingBlock: CIFDUS_clean_linker_0, # of connection points: 2
#     Edge 17, Type (0, 1), BuildingBlock: CIFDUS_clean_linker_0, # of connection points: 2
#     Edge 18, Type (0, 1), BuildingBlock: CIFDUS_clean_linker_0, # of connection points: 2
#     Edge 19, Type (0, 1), BuildingBlock: CIFDUS_clean_linker_0, # of connection points: 2
#     Edge 20, Type (0, 1), BuildingBlock: CIFDUS_clean_linker_0, # of connection points: 2
#     Edge 21, Type (0, 1), BuildingBlock: CIFDUS_clean_linker_0, # of connection points: 2
#     Edge 22, Type (0, 1), BuildingBlock: CIFDUS_clean_linker_0, # of connection points: 2
#     Edge 23, Type (0, 1), BuildingBlock: CIFDUS_clean_linker_0, # of connection points: 2
#     Edge 24, Type (0, 1), BuildingBlock: CIFDUS_clean_linker_0, # of connection points: 2
#     Edge 25, Type (0, 1), BuildingBlock: CIFDUS_clean_linker_0, # of connection points: 2
#     Edge 26, Type (0, 1), BuildingBlock: CIFDUS_clean_linker_0, # of connection points: 2
# Relax obj value: 0.358
# Max RMSD: 0.206
# Mean RMSD: 0.158
data_MOF--net-anh--node1-CUWYAW_clean_sbu_0--node2-CUQRIR_clean_linker_1--edge1-CIFDUS_clean_linker_0
_symmetry_space_group_name_H-M    P1
_symmetry_Int_Tables_number       1
_symmetry_cell_setting            triclinic
loop_
_symmetry_equiv_pos_as_xyz
'x, y, z'
_cell_length_a     25.38481
_cell_length_b     25.25835
_cell_length_c     40.984142
_cell_angle_alpha  85.96549
_cell_angle_beta   90.960206
_cell_angle_gamma 119.8494
loop_
_atom_site_label
_atom_site_type_symbol
_atom_site_fract_x
_atom_site_fract_y
_atom_site_fract_z
_atom_type_partial_charge
C0 C 1.10046 0.41293 0.15648 0.0
Eu1 Eu 0.15422 0.53154 0.15242 0.0
C2 C 1.04541 0.36989 0.17583 0.0
C3 C 1.03905 0.38077 0.20834 0.0
C4 C 0.98189 0.35247 0.22359 0.0
C5 C 0.93013 0.31283 0.20665 0.0
C6 C 0.93722 0.29756 0.17531 0.0
C7 C 0.99452 0.32602 0.15998 0.0
C8 C 0.16446 0.58019 0.21228 0.0
C9 C 1.06297 0.59325 0.13903 0.0
C10 C 0.27968 0.77538 0.15522 0.0
Eu11 Eu 0.21429 0.65993 0.1455 0.0
C12 C 0.2868 0.83683 0.15167 0.0
C13 C 0.2387 0.84779 0.15725 0.0
C14 C 0.25035 0.90783 0.15961 0.0
C15 C 0.3103 0.9575 0.15678 0.0
C16 C 0.35737 0.94565 0.14933 0.0
C17 C 0.34559 0.88622 0.14663 0.0
C18 C 0.1714 0.61046 0.08797 0.0
C19 C 0.30709 0.60028 0.13909 0.0
O20 O 1.09138 0.4445 0.13265 0.0
O21 O 0.14887 0.44692 0.173 0.0
O22 O 1.11463 0.53764 0.20101 0.0
O23 O 0.20497 0.59841 0.19 0.0
O24 O 1.07025 0.54455 0.13593 0.0
O25 O 1.11302 0.64393 0.14767 0.0
O26 O 0.23857 0.73501 0.17621 0.0
O27 O 0.28575 0.75192 0.12905 0.0
O28 O 0.1711 0.65876 0.09654 0.0
O29 O 0.19733 0.59284 0.10891 0.0
O30 O 0.30212 0.65081 0.13888 0.0
O31 O 0.25464 0.54674 0.14361 0.0
H32 H 1.07741 0.41439 0.22127 0.0
H33 H 0.97774 0.36421 0.24797 0.0
H34 H 0.89801 0.26727 0.16165 0.0
H35 H 0.99832 0.31732 0.13485 0.0
H36 H 0.19276 0.80999 0.16114 0.0
H37 H 0.21284 0.915 0.16496 0.0
H38 H 0.40443 0.98162 0.14782 0.0
H39 H 0.38333 0.87859 0.14258 0.0
C40 C 0.63444 0.19172 0.47905 0.0
Eu41 Eu 0.69067 0.12955 0.48679 0.0
C42 C 0.64622 0.24889 0.46086 0.0
C43 C 0.69882 0.30449 0.46595 0.0
C44 C 0.70471 0.3592 0.45214 0.0
C45 C 0.65813 0.35924 0.43295 0.0
C46 C 0.60924 0.3029 0.42464 0.0
C47 C 0.60308 0.24813 0.43877 0.0
C48 C 0.7138 0.08998 0.54707 0.0
C49 C 0.84415 0.23247 0.47361 0.0
C50 C 0.82245 1.02207 0.48329 0.0
Eu51 Eu 0.76516 1.08352 0.47758 0.0
C52 C 0.86986 1.02182 0.50406 0.0
C53 C 0.89593 0.98726 0.49545 0.0
C54 C 0.91817 0.96267 0.51981 0.0
C55 C 0.91111 0.97013 0.55293 0.0
C56 C 0.90002 1.01746 0.5601 0.0
C57 C 0.87787 1.04233 0.53571 0.0
C58 C 0.73594 0.12121 0.42021 0.0
C59 C 0.60999 0.98209 0.47557 0.0
O60 O 0.62489 0.14738 0.46109 0.0
O61 O 0.6682 0.19561 0.50425 0.0
O62 O 0.66095 1.07967 0.53723 0.0
O63 O 0.75298 0.11987 0.52404 0.0
O64 O 0.78639 0.22181 0.47229 0.0
O65 O 0.84884 0.18268 0.48018 0.0
O66 O 0.83839 1.0684 0.46191 0.0
O67 O 0.77111 1.00561 0.49844 0.0
O68 O 0.79087 0.13457 0.42699 0.0
O69 O 0.70061 0.08951 0.44348 0.0
O70 O 0.6673 0.99225 0.47196 0.0
O71 O 0.60619 1.0307 0.4828 0.0
H72 H 0.73376 0.30616 0.4821 0.0
H73 H 0.7431 0.40149 0.45921 0.0
H74 H 0.5733 0.30132 0.40937 0.0
H75 H 0.56298 0.20537 0.43377 0.0
H76 H 0.8917 0.97249 0.47087 0.0
H77 H 0.92907 0.92846 0.51306 0.0
H78 H 0.89662 1.02603 0.5853 0.0
H79 H 0.85946 1.07066 0.54255 0.0
C80 C 0.89755 0.7017 0.78511 0.0
Eu81 Eu 0.78861 0.65432 0.81057 0.0
C82 C 0.93031 0.67574 0.76942 0.0
C83 C 0.98615 0.6872 0.78219 0.0
C84 C 1.00739 0.64685 0.77775 0.0
C85 C 0.9731 0.5945 0.7602 0.0
C86 C 0.92337 0.59023 0.74232 0.0
C87 C 0.90119 0.62976 0.74751 0.0
C88 C 0.77004 0.64268 0.87814 0.0
C89 C 0.72494 0.5003 0.80891 0.0
C90 C 0.5706 0.51658 0.86896 0.0
Eu91 Eu 0.66496 0.58567 0.8318 0.0
C92 C 0.51048 0.49335 0.88428 0.0
C93 C 0.45978 0.44298 0.87196 0.0
C94 C 0.40394 0.41567 0.88851 0.0
C95 C 0.39781 0.438 0.91779 0.0
C96 C 0.44865 0.48803 0.93032 0.0
C97 C 0.50464 0.51532 0.91378 0.0
C98 C 0.6721 0.61822 0.76806 0.0
C99 C 0.72169 0.73859 0.81068 0.0
O100 O 0.85227 0.70156 0.76934 0.0
O101 O 0.88439 0.68395 0.81605 0.0
O102 O 0.80422 0.69461 0.86182 0.0
O103 O 0.74691 0.60251 0.85791 0.0
O104 O 0.77392 0.55574 0.80218 0.0
O105 O 0.67583 0.49972 0.82105 0.0
O106 O 0.61693 0.56727 0.87826 0.0
O107 O 0.57484 0.50588 0.83854 0.0
O108 O 0.63171 0.61626 0.7879 0.0
O109 O 0.70533 0.59977 0.78235 0.0
O110 O 0.67914 0.68896 0.82899 0.0
O111 O 0.76666 0.73275 0.79843 0.0
H112 H 1.00968 0.72303 0.79882 0.0
H113 H 1.04635 0.65302 0.79171 0.0
H114 H 0.89745 0.55233 0.72727 0.0
H115 H 0.85837 0.6206 0.73685 0.0
H116 H 0.46333 0.42415 0.84969 0.0
H117 H 0.36518 0.37797 0.87793 0.0
H118 H 0.445 0.50609 0.95286 0.0
H119 H 0.54342 0.55301 0.92434 0.0
C120 C 0.58088 0.28243 0.23958 0.0
N121 N 0.6159 0.27481 0.26246 0.0
N122 N 0.52165 0.23767 0.24318 0.0
C123 C 0.60577 0.33261 0.21248 0.0
C124 C 0.52193 0.20589 0.27144 0.0
N125 N 0.57909 0.22734 0.28254 0.0
C126 C 0.46611 0.1534 0.28821 0.0
H127 H 0.6337 0.37731 0.22315 0.0
H128 H 0.56877 0.33377 0.1982 0.0
H129 H 0.63626 0.32628 0.19608 0.0
H130 H 0.44718 0.11325 0.27319 0.0
H131 H 0.43126 0.16691 0.29134 0.0
H132 H 0.47576 0.14026 0.313 0.0
C133 C 0.6452 0.63731 0.52819 0.0
N134 N 0.65888 0.64953 0.5597 0.0
N135 N 0.61468 0.57615 0.52532 0.0
C136 C 0.66559 0.68516 0.50009 0.0
C137 C 0.61142 0.55184 0.55636 0.0
N138 N 0.63853 0.59671 0.57714 0.0
C139 C 0.58572 0.4847 0.56574 0.0
H140 H 0.63857 0.66624 0.47801 0.0
H141 H 0.71421 0.70206 0.49438 0.0
H142 H 0.66143 0.72467 0.50695 0.0
H143 H 0.61061 0.46723 0.55206 0.0
H144 H 0.5374 0.45926 0.55876 0.0
H145 H 0.58837 0.47527 0.59235 0.0
C146 C 1.05903 0.3696 0.89733 0.0
N147 N 1.07198 0.37776 0.92936 0.0
N148 N 1.01874 0.38758 0.88784 0.0
C149 C 1.09479 0.35586 0.87365 0.0
C150 C 1.00424 0.40281 0.91606 0.0
N151 N 1.03718 0.39783 0.94122 0.0
C152 C 0.96243 0.42874 0.91785 0.0
H153 H 0.1422 0.39456 0.87143 0.0
H154 H 1.07414 0.34819 0.84912 0.0
H155 H 1.09629 0.31434 0.88293 0.0
H156 H 0.92255 0.4037 0.90226 0.0
H157 H 0.98662 0.47737 0.90819 0.0
H158 H 0.94657 0.42553 0.94335 0.0
C159 C 0.22342 0.60734 0.45857 0.0
N160 N 0.17956 0.56859 0.43703 0.0
N161 N 0.2728 0.65989 0.44327 0.0
C162 C 0.21833 0.59291 0.4948 0.0
C163 C 0.25585 0.65116 0.41147 0.0
N164 N 0.20241 0.59716 0.40736 0.0
C165 C 0.28941 0.69968 0.38418 0.0
H166 H 0.17618 0.59011 0.50415 0.0
H167 H 0.25821 0.62805 0.50736 0.0
H168 H 0.21443 0.54744 0.5003 0.0
H169 H 0.31125 0.7461 0.39332 0.0
H170 H 0.25844 0.69776 0.3643 0.0
H171 H 0.32563 0.69285 0.37398 0.0
C172 C 0.71036 0.11294 0.79238 0.0
N173 N 0.71121 1.07082 0.77199 0.0
N174 N 0.71319 0.16487 0.77577 0.0
C175 C 0.71098 0.1055 0.82897 0.0
C176 C 0.71513 0.15139 0.74417 0.0
N177 N 0.71537 0.09727 0.74168 0.0
C178 C 0.7095 0.18803 0.71496 0.0
H179 H 0.66355 1.08123 0.83867 0.0
H180 H 0.73555 0.15083 0.83938 0.0
H181 H 0.73298 1.07835 0.83689 0.0
H182 H 0.7556 0.22352 0.70604 0.0
H183 H 0.68352 0.21056 0.72137 0.0
H184 H 0.68587 0.15891 0.69458 0.0
C185 C 0.68912 0.60102 0.12348 0.0
N186 N 0.7357 0.6064 0.1029 0.0
N187 N 0.64101 0.60309 0.10704 0.0
C188 C 0.69068 0.59397 0.15999 0.0
C189 C 0.6608 0.60918 0.07545 0.0
N190 N 0.71586 0.6111 0.07276 0.0
C191 C 0.6253 0.61212 0.04617 0.0
H192 H 0.71361 0.56753 0.16752 0.0
H193 H 0.64415 0.57109 0.17087 0.0
H194 H 0.71688 0.64002 0.16947 0.0
H195 H 0.65538 0.65114 0.0288 0.0
H196 H 0.58579 0.6167 0.0528 0.0
H197 H 0.60833 0.56959 0.03328 0.0
H198 H 0.35795 0.51629 0.15028 0.0
H199 H 0.41241 0.70036 0.11259 0.0
H200 H 0.51414 0.71832 0.10083 0.0
H201 H 0.59318 0.68418 0.0994 0.0
H202 H 0.54273 0.50245 0.13887 0.0
H203 H 0.43984 0.4834 0.15125 0.0
C204 C 0.39147 0.5607 0.13946 0.0
C205 C 0.3729 0.60654 0.13254 0.0
C206 C 0.45372 0.57208 0.1329 0.0
C207 C 0.42113 0.66305 0.11868 0.0
C208 C 0.48107 0.67375 0.11174 0.0
C209 C 0.56049 0.6403 0.11117 0.0
C210 C 0.57988 0.5954 0.11827 0.0
C211 C 0.49894 0.62909 0.11858 0.0
C212 C 0.53308 0.53924 0.13323 0.0
C213 C 0.47258 0.52796 0.14019 0.0
H214 H 0.97607 0.27845 0.47318 0.0
H215 H 0.85101 0.34558 0.45637 0.0
H216 H 0.93679 0.44909 0.44414 0.0
H217 H 1.05119 0.52659 0.43777 0.0
H218 H 0.17626 0.45962 0.45453 0.0
H219 H 1.09031 0.35579 0.46682 0.0
C220 C 0.96655 0.31518 0.46694 0.0
C221 C 0.90302 0.29988 0.4663 0.0
C222 C 1.01839 0.37763 0.45956 0.0
C223 C 0.89639 0.35185 0.4577 0.0
C224 C 0.94681 0.41272 0.45046 0.0
C225 C 1.06057 0.48971 0.44371 0.0
C226 C 1.12393 0.50464 0.44437 0.0
C227 C 1.00874 0.42727 0.45113 0.0
C228 C 0.13076 0.453 0.45323 0.0
C229 C 1.08032 0.39216 0.46042 0.0
H230 H 0.65108 0.79651 0.83317 0.0
H231 H 0.79408 0.83143 0.76489 0.0
H232 H 0.80326 0.92938 0.74681 0.0
H233 H 0.7738 1.01195 0.74894 0.0
H234 H 0.63235 0.97992 0.81731 0.0
H235 H 0.6213 0.88025 0.83532 0.0
C236 C 0.68451 0.82485 0.81428 0.0
C237 C 0.72181 0.80202 0.80113 0.0
C238 C 0.6907 0.88498 0.80337 0.0
C239 C 0.76407 0.84368 0.77653 0.0
C240 C 0.76963 0.90151 0.76573 0.0
C241 C 0.74009 0.98372 0.76775 0.0
C242 C 0.70458 1.00776 0.78145 0.0
C243 C 0.73361 0.92379 0.77873 0.0
C244 C 0.66191 0.96678 0.80601 0.0
C245 C 0.65513 0.90801 0.81647 0.0
H246 H 1.00524 0.66512 0.1568 0.0
H247 H 0.97 0.51451 0.09967 0.0
H248 H 0.87317 0.50586 0.08293 0.0
H249 H 0.79269 0.53938 0.08324 0.0
H250 H 0.82379 0.68446 0.14371 0.0
H251 H 0.9224 0.69543 0.15924 0.0
C252 C 0.97699 0.63 0.14065 0.0
C253 C 0.99928 0.59067 0.12996 0.0
C254 C 0.91764 0.62376 0.13119 0.0
C255 C 0.95785 0.54608 0.10911 0.0
C256 C 0.9009 0.54099 0.09919 0.0
C257 C 0.82048 0.57374 0.09985 0.0
C258 C 0.79701 0.61113 0.11179 0.0
C259 C 0.87925 0.5793 0.10983 0.0
C260 C 0.83703 0.65422 0.13365 0.0
C261 C 0.89499 0.66075 0.14269 0.0
H262 H 0.48091 0.92346 0.49631 0.0
H263 H 0.59892 0.88837 0.43847 0.0
H264 H 0.51167 0.7914 0.42428 0.0
H265 H 0.3981 0.71275 0.42606 0.0
H266 H 0.28029 0.74245 0.48711 0.0
H267 H 0.36763 0.84014 0.50154 0.0
C268 C 0.48853 0.89503 0.48065 0.0
C269 C 0.55048 0.91742 0.46875 0.0
C270 C 0.43603 0.83564 0.47285 0.0
C271 C 0.55488 0.87605 0.44865 0.0
C272 C 0.50362 0.81912 0.44027 0.0
C273 C 0.39077 0.73957 0.44301 0.0
C274 C 0.32912 0.7161 0.45548 0.0
C275 C 0.44334 0.7976 0.45195 0.0
C276 C 0.32459 0.75532 0.47711 0.0
C277 C 0.37576 0.81284 0.48529 0.0
H278 H 0.66516 0.37232 0.83811 0.0
H279 H 0.78559 0.48536 0.75819 0.0
H280 H 0.79242 0.39782 0.74153 0.0
H281 H 0.7721 0.28954 0.75028 0.0
H282 H 0.64794 0.17231 0.82799 0.0
H283 H 0.6397 0.25919 0.84514 0.0
C284 C 0.69353 0.37879 0.81708 0.0
C285 C 0.72548 0.43947 0.80003 0.0
C286 C 0.69903 0.32633 0.80751 0.0
C287 C 0.76082 0.4424 0.77277 0.0
C288 C 0.76503 0.3912 0.76304 0.0
C289 C 0.74211 0.28138 0.77078 0.0
C290 C 0.71086 0.22039 0.78727 0.0
C291 C 0.73568 0.33283 0.78036 0.0
C292 C 0.67421 0.21605 0.81439 0.0
C293 C 0.66879 0.26694 0.82422 0.0
H294 H 0.8063 0.92094 0.58774 0.0
H295 H 0.95388 0.88948 0.56628 0.0
H296 H 0.8842 0.77892 0.57208 0.0
H297 H 0.77778 0.6955 0.56679 0.0
H298 H 0.63123 0.73195 0.57876 0.0
H299 H 0.70335 0.83681 0.59227 0.0
C300 C 0.82424 0.89025 0.58576 0.0
C301 C 0.8848 0.9135 0.5751 0.0
C302 C 0.78302 0.82763 0.58573 0.0
C303 C 0.90713 0.87268 0.57371 0.0
C304 C 0.86697 0.80951 0.57626 0.0
C305 C 0.76231 0.72663 0.57299 0.0
C306 C 0.70033 0.70789 0.57129 0.0
C307 C 0.80426 0.78708 0.57942 0.0
C308 C 0.67927 0.74695 0.57953 0.0
C309 C 0.72035 0.80632 0.58737 0.0
H310 H 1.0752 0.58693 0.77577 0.0
H311 H 0.88225 0.47531 0.76467 0.0
H312 H 0.88053 0.39372 0.80012 0.0
H313 H 0.92938 0.36561 0.8455 0.0
H314 H 1.11958 0.48428 0.86192 0.0
H315 H 0.12701 0.55181 0.81453 0.0
C316 C 1.03288 0.54444 0.78068 0.0
C317 C 0.97824 0.53881 0.76872 0.0
C318 C 1.03163 0.49942 0.80322 0.0
C319 C 0.92475 0.48179 0.77384 0.0
C320 C 0.92355 0.4352 0.79474 0.0
C321 C 0.97243 0.40551 0.83801 0.0
C322 C 1.02371 0.42028 0.85688 0.0
C323 C 0.97587 0.4454 0.81142 0.0
C324 C 1.07967 0.47206 0.84734 0.0
C325 C 1.08388 0.51076 0.82039 0.0
H326 H 0.40185 1.06766 0.13183 0.0
H327 H 0.2551 0.98873 0.20351 0.0
H328 H 0.30256 1.08363 0.23105 0.0
H329 H 0.39749 0.17751 0.24279 0.0
H330 H 0.55555 0.23114 0.18163 0.0
H331 H 0.49312 0.16219 0.1419 0.0
C332 C 0.37993 1.07102 0.15346 0.0
C333 C 0.32638 1.01974 0.16628 0.0
C334 C 0.41076 0.12262 0.17146 0.0
C335 C 0.29683 1.02672 0.1931 0.0
C336 C 0.3245 1.08095 0.20927 0.0
C337 C 0.41849 0.17383 0.221 0.0
C338 C 0.48194 0.20946 0.21614 0.0
C339 C 0.3836 0.12726 0.2001 0.0
C340 C 0.50716 0.20623 0.1864 0.0
C341 C 0.47141 0.16528 0.16368 0.0
H342 H 0.55652 0.3669 0.44086 0.0
H343 H 0.74865 0.47855 0.41913 0.0
H344 H 0.74864 0.56585 0.44119 0.0
H345 H 0.70047 0.59748 0.48131 0.0
H346 H 0.50994 0.48413 0.50478 0.0
H347 H 0.50234 0.40988 0.46696 0.0
C348 C 0.59795 0.41095 0.43932 0.0
C349 C 0.65318 0.41548 0.42984 0.0
C350 C 0.59805 0.45993 0.45331 0.0
C351 C 0.70598 0.47339 0.4275 0.0
C352 C 0.70609 0.52317 0.44035 0.0
C353 C 0.65683 0.55796 0.47684 0.0
C354 C 0.60606 0.54487 0.49614 0.0
C355 C 0.65346 0.51521 0.45573 0.0
C356 C 0.54964 0.49375 0.49052 0.0
C357 C 0.54545 0.45154 0.46899 0.0
H358 H 0.34918 0.5036 0.93773 0.0
H359 H 0.3097 0.31807 0.93005 0.0
H360 H 0.20183 0.28036 0.94107 0.0
H361 H 1.11776 0.3031 0.9417 0.0
H362 H 0.15997 0.49067 0.94073 0.0
H363 H 0.26734 0.52466 0.94621 0.0
C364 C 0.31733 0.45475 0.93968 0.0
C365 C 0.33686 0.41369 0.93268 0.0
C366 C 0.25557 0.43389 0.94458 0.0
C367 C 0.29516 0.35052 0.93488 0.0
C368 C 0.23362 0.32902 0.94113 0.0
C369 C 0.15071 0.351 0.94376 0.0
C370 C 0.13138 0.39427 0.94129 0.0
C371 C 0.21299 0.37063 0.9443 0.0
C372 C 0.17384 0.45649 0.9436 0.0
C373 C 0.23536 0.47604 0.94609 0.0
H374 H 0.89348 0.38463 0.23315 0.0
H375 H 0.8292 0.19923 0.2084 0.0
H376 H 0.72565 0.17113 0.22457 0.0
H377 H 0.65304 0.20099 0.24273 0.0
H378 H 0.71596 0.38554 0.26722 0.0
H379 H 0.8213 0.41311 0.25405 0.0
C380 C 0.85699 0.33777 0.23194 0.0
C381 C 0.86882 0.29388 0.21974 0.0
C382 C 0.7977 0.3223 0.24086 0.0
C383 C 0.82099 0.23371 0.2176 0.0
C384 C 0.76195 0.21772 0.2268 0.0
C385 C 0.69026 0.24695 0.2455 0.0
C386 C 0.67786 0.29137 0.25599 0.0
C387 C 0.74978 0.26186 0.23795 0.0
C388 C 0.72534 0.3511 0.25915 0.0
C389 C 0.78511 0.36653 0.25171 0.0
H390 H 0.13743 0.4937 0.07701 0.0
H391 H 0.13928 0.65487 0.0334 0.0
H392 H 1.09179 0.60115 0.98436 0.0
H393 H 1.05736 0.51057 0.95281 0.0
H394 H 1.04479 0.34607 -0.00098 0.0
H395 H 1.08758 0.39835 0.04899 0.0
C396 C 0.12634 0.51662 0.05706 0.0
C397 C 0.14197 0.57805 0.05866 0.0
C398 C 1.0967 0.48469 0.02974 0.0
C399 C 0.12795 0.60759 0.03253 0.0
C400 C 1.1006 0.57685 0.00462 0.0
C401 C 1.06093 0.48517 0.9743 0.0
C402 C 1.04702 0.42411 0.97246 0.0
C403 C 1.08519 0.51548 0.00288 0.0
C404 C 1.05476 0.39287 0.00014 0.0
C405 C 1.07977 0.42292 0.02847 0.0
H406 H 0.64839 1.06547 0.37689 0.0
H407 H 0.78267 0.24318 0.40571 0.0
H408 H 0.7418 0.292 0.36733 0.0
H409 H 0.66572 0.2831 0.32635 0.0
H410 H 0.54339 0.10655 0.29132 0.0
H411 H 0.58054 1.05776 0.33159 0.0
C412 C 0.66919 0.11493 0.37421 0.0
C413 C 0.71837 0.15094 0.3937 0.0
C414 C 0.64667 0.14251 0.3515 0.0
C415 C 0.74516 0.21487 0.39048 0.0
C416 C 0.72152 0.24263 0.36878 0.0
C417 C 0.6473 0.23396 0.3277 0.0
C418 C 0.5998 0.19815 0.30704 0.0
C419 C 0.67189 0.20679 0.34937 0.0
C420 C 0.57741 0.1347 0.30824 0.0
C421 C 0.59948 0.10693 0.33082 0.0
H422 H 0.71601 0.57754 0.72145 0.0
H423 H 0.61217 0.66748 0.73549 0.0
H424 H 0.59003 0.66571 0.67737 0.0
H425 H 0.5975 0.63604 0.62292 0.0
H426 H 0.70252 0.54896 0.60727 0.0
H427 H 0.72591 0.55033 0.66585 0.0
C428 C 0.68909 0.5972 0.7116 0.0
C429 C 0.6654 0.62231 0.73253 0.0
C430 C 0.67579 0.59529 0.67817 0.0
C431 C 0.63047 0.64758 0.71972 0.0
C432 C 0.61761 0.64641 0.68659 0.0
C433 C 0.62514 0.61714 0.63264 0.0
C434 C 0.64745 0.59147 0.61155 0.0
C435 C 0.63928 0.61966 0.66576 0.0
C436 C 0.68386 0.56751 0.62368 0.0
C437 C 0.69767 0.56901 0.6569 0.0
H438 H 0.63611 1.01993 0.59891 0.0
H439 H 0.82252 0.15764 0.57771 0.0
H440 H 0.84212 0.1655 0.63646 0.0
H441 H 0.80344 0.14161 0.69437 0.0
H442 H 0.61838 1.00245 0.7158 0.0
H443 H 0.60162 0.98557 0.6573 0.0
C444 C 0.68137 1.05109 0.60707 0.0
C445 C 0.72759 0.08866 0.58331 0.0
C446 C 0.69268 1.05479 0.64134 0.0
C447 C 0.78586 0.12823 0.59488 0.0
C448 C 0.7971 0.1328 0.62872 0.0
C449 C 0.76023 0.10563 0.68637 0.0
C450 C 0.71257 1.07231 0.71003 0.0
C451 C 0.75066 0.09723 0.65227 0.0
C452 C 0.65633 1.02744 0.69871 0.0
C453 C 0.6465 1.01873 0.66498 0.0
H454 H 0.82367 0.71905 0.9302 0.0
H455 H 0.69539 0.53289 0.90993 0.0
H456 H 0.67418 0.50455 0.96811 0.0
H457 H 0.68561 0.53258 0.02537 0.0
H458 H 0.81143 0.71709 0.04749 0.0
H459 H 0.84126 0.74522 0.98923 0.0
C460 C 0.79129 0.67226 0.9385 0.0
C461 C 0.7607 0.62857 0.91496 0.0
C462 C 0.77938 0.65543 0.97285 0.0
C463 C 0.71936 0.56806 0.92683 0.0
C464 C 0.70724 0.55146 0.96041 0.0
C465 C 0.72124 0.5784 0.01757 0.0
C466 C 0.74725 0.62217 0.04124 0.0
C467 C 0.73643 0.59463 0.98373 0.0
C468 C 0.79192 0.68191 0.03026 0.0
C469 C 0.80808 0.69824 -0.00332 0.0
H470 H 1.08866 0.56032 0.2658 0.0
H471 H 0.27031 0.60166 0.24097 0.0
H472 H 0.29301 0.59828 0.29893 0.0
H473 H 0.26383 0.58763 0.35705 0.0
H474 H 1.08985 0.56457 0.38299 0.0
H475 H 1.06053 0.5534 0.32533 0.0
C476 C 0.1333 0.56886 0.27308 0.0
C477 C 0.17776 0.58155 0.24849 0.0
C478 C 0.14699 0.56867 0.30706 0.0
C479 C 0.23526 0.59244 0.25883 0.0
C480 C 0.24821 0.59002 0.29219 0.0
C481 C 0.21909 0.57941 0.35019 0.0
C482 C 0.17891 0.57599 0.37497 0.0
C483 C 0.20469 0.57847 0.31656 0.0
C484 C 1.12123 0.56545 0.36518 0.0
C485 C 1.10503 0.56053 0.33185 0.0
loop_
_geom_bond_atom_site_label_1
_geom_bond_atom_site_label_2
_geom_bond_distance
_geom_bond_site_symmetry_2
_ccdc_geom_bond_type
C0 Eu1 2.835 . S
C0 C2 1.500 . S
C0 O20 1.257 . S
C0 O21 1.260 . S
Eu1 C0 2.835 . S
Eu1 O20 2.473 . S
Eu1 O21 2.480 . S
Eu1 O22 2.430 . S
Eu1 O23 2.670 1_655 S
Eu1 O24 2.394 . S
Eu1 O29 2.355 1_655 S
Eu1 O31 2.374 1_655 S
C2 C0 1.500 . S
C2 C3 1.377 . S
C2 C7 1.377 . S
C3 C2 1.377 . S
C3 C4 1.395 . S
C3 H32 0.931 . S
C4 C3 1.395 . S
C4 C5 1.383 . S
C4 H33 0.931 . S
C5 C4 1.383 . S
C5 C6 1.394 . S
C6 C5 1.394 . S
C6 C7 1.378 . S
C6 H34 0.931 . S
C7 C2 1.377 . S
C7 C6 1.378 . S
C7 H35 0.931 . S
C8 O22 1.260 1_455 S
C8 O23 1.270 . S
C9 O24 1.251 . S
C9 O25 1.251 . S
C10 Eu11 2.835 . S
C10 C12 1.500 . S
C10 O26 1.257 . S
C10 O27 1.260 . S
Eu11 C10 2.835 . S
Eu11 O23 2.355 . S
Eu11 O25 2.374 1_455 S
Eu11 O26 2.473 . S
Eu11 O27 2.480 . S
Eu11 O28 2.430 . S
Eu11 O29 2.670 . S
Eu11 O30 2.394 . S
C12 C10 1.500 . S
C12 C13 1.377 . S
C12 C17 1.377 . S
C13 C12 1.377 . S
C13 C14 1.395 . S
C13 H36 0.931 . S
C14 C13 1.395 . S
C14 C15 1.383 . S
C14 H37 0.931 . S
C15 C14 1.383 . S
C15 C16 1.394 . S
C16 C15 1.394 . S
C16 C17 1.378 . S
C16 H38 0.931 . S
C17 C12 1.377 . S
C17 C16 1.378 . S
C17 H39 0.931 . S
C18 O28 1.259 . S
C18 O29 1.270 . S
C19 O30 1.251 . S
C19 O31 1.251 . S
O20 C0 1.257 . S
O20 Eu1 2.473 . S
O21 C0 1.260 . S
O21 Eu1 2.480 . S
O22 Eu1 2.430 . S
O22 C8 1.260 1_655 S
O23 Eu1 2.670 1_455 S
O23 C8 1.270 . S
O23 Eu11 2.355 . S
O24 Eu1 2.394 . S
O24 C9 1.251 . S
O25 C9 1.251 . S
O25 Eu11 2.374 1_655 S
O26 C10 1.257 . S
O26 Eu11 2.473 . S
O27 C10 1.260 . S
O27 Eu11 2.480 . S
O28 Eu11 2.430 . S
O28 C18 1.259 . S
O29 Eu1 2.355 1_455 S
O29 Eu11 2.670 . S
O29 C18 1.270 . S
O30 Eu11 2.394 . S
O30 C19 1.251 . S
O31 Eu1 2.374 1_455 S
O31 C19 1.251 . S
H32 C3 0.931 . S
H33 C4 0.931 . S
H34 C6 0.931 . S
H35 C7 0.931 . S
H36 C13 0.931 . S
H37 C14 0.931 . S
H38 C16 0.931 . S
H39 C17 0.931 . S
C40 Eu41 2.835 . S
C40 C42 1.500 . S
C40 O60 1.257 . S
C40 O61 1.260 . S
Eu41 C40 2.835 . S
Eu41 O60 2.473 . S
Eu41 O61 2.480 . S
Eu41 O62 2.430 . S
Eu41 O63 2.670 . S
Eu41 O64 2.394 . S
Eu41 O69 2.355 . S
Eu41 O71 2.374 1_545 S
C42 C40 1.500 . S
C42 C43 1.377 . S
C42 C47 1.377 . S
C43 C42 1.377 . S
C43 C44 1.395 . S
C43 H72 0.931 . S
C44 C43 1.395 . S
C44 C45 1.383 . S
C44 H73 0.931 . S
C45 C44 1.383 . S
C45 C46 1.394 . S
C46 C45 1.394 . S
C46 C47 1.378 . S
C46 H74 0.931 . S
C47 C42 1.377 . S
C47 C46 1.378 . S
C47 H75 0.931 . S
C48 O62 1.259 . S
C48 O63 1.270 . S
C49 O64 1.251 . S
C49 O65 1.251 . S
C50 Eu51 2.835 . S
C50 C52 1.500 . S
C50 O66 1.257 . S
C50 O67 1.260 . S
Eu51 C50 2.835 . S
Eu51 O63 2.355 1_565 S
Eu51 O65 2.374 1_565 S
Eu51 O66 2.473 . S
Eu51 O67 2.480 . S
Eu51 O68 2.430 1_565 S
Eu51 O69 2.670 1_565 S
Eu51 O70 2.394 . S
C52 C50 1.500 . S
C52 C53 1.377 . S
C52 C57 1.377 . S
C53 C52 1.377 . S
C53 C54 1.395 . S
C53 H76 0.931 . S
C54 C53 1.395 . S
C54 C55 1.383 . S
C54 H77 0.931 . S
C55 C54 1.383 . S
C55 C56 1.394 . S
C56 C55 1.394 . S
C56 C57 1.378 . S
C56 H78 0.931 . S
C57 C52 1.377 . S
C57 C56 1.378 . S
C57 H79 0.931 . S
C58 O68 1.259 . S
C58 O69 1.270 . S
C59 O70 1.251 . S
C59 O71 1.251 . S
O60 C40 1.257 . S
O60 Eu41 2.473 . S
O61 C40 1.260 . S
O61 Eu41 2.480 . S
O62 Eu41 2.430 . S
O62 C48 1.259 . S
O63 Eu41 2.670 . S
O63 C48 1.270 . S
O63 Eu51 2.355 1_545 S
O64 Eu41 2.394 . S
O64 C49 1.251 . S
O65 C49 1.251 . S
O65 Eu51 2.374 1_545 S
O66 C50 1.257 . S
O66 Eu51 2.473 . S
O67 C50 1.260 . S
O67 Eu51 2.480 . S
O68 Eu51 2.430 1_545 S
O68 C58 1.259 . S
O69 Eu41 2.355 . S
O69 Eu51 2.670 1_545 S
O69 C58 1.270 . S
O70 Eu51 2.394 . S
O70 C59 1.251 . S
O71 Eu41 2.374 1_565 S
O71 C59 1.251 . S
H72 C43 0.931 . S
H73 C44 0.931 . S
H74 C46 0.931 . S
H75 C47 0.931 . S
H76 C53 0.931 . S
H77 C54 0.931 . S
H78 C56 0.931 . S
H79 C57 0.931 . S
C80 Eu81 2.835 . S
C80 C82 1.500 . S
C80 O100 1.257 . S
C80 O101 1.260 . S
Eu81 C80 2.835 . S
Eu81 O100 2.473 . S
Eu81 O101 2.480 . S
Eu81 O102 2.430 . S
Eu81 O103 2.670 . S
Eu81 O104 2.394 . S
Eu81 O109 2.355 . S
Eu81 O111 2.374 . S
C82 C80 1.500 . S
C82 C83 1.377 . S
C82 C87 1.377 . S
C83 C82 1.377 . S
C83 C84 1.395 . S
C83 H112 0.931 . S
C84 C83 1.395 . S
C84 C85 1.383 . S
C84 H113 0.931 . S
C85 C84 1.383 . S
C85 C86 1.394 . S
C86 C85 1.394 . S
C86 C87 1.378 . S
C86 H114 0.931 . S
C87 C82 1.377 . S
C87 C86 1.378 . S
C87 H115 0.931 . S
C88 O102 1.259 . S
C88 O103 1.270 . S
C89 O104 1.251 . S
C89 O105 1.251 . S
C90 Eu91 2.835 . S
C90 C92 1.500 . S
C90 O106 1.257 . S
C90 O107 1.260 . S
Eu91 C90 2.835 . S
Eu91 O103 2.355 . S
Eu91 O105 2.374 . S
Eu91 O106 2.473 . S
Eu91 O107 2.480 . S
Eu91 O108 2.430 . S
Eu91 O109 2.670 . S
Eu91 O110 2.394 . S
C92 C90 1.500 . S
C92 C93 1.377 . S
C92 C97 1.377 . S
C93 C92 1.377 . S
C93 C94 1.395 . S
C93 H116 0.931 . S
C94 C93 1.395 . S
C94 C95 1.383 . S
C94 H117 0.931 . S
C95 C94 1.383 . S
C95 C96 1.394 . S
C96 C95 1.394 . S
C96 C97 1.378 . S
C96 H118 0.931 . S
C97 C92 1.377 . S
C97 C96 1.378 . S
C97 H119 0.931 . S
C98 O108 1.259 . S
C98 O109 1.270 . S
C99 O110 1.251 . S
C99 O111 1.251 . S
O100 C80 1.257 . S
O100 Eu81 2.473 . S
O101 C80 1.260 . S
O101 Eu81 2.480 . S
O102 Eu81 2.430 . S
O102 C88 1.259 . S
O103 Eu81 2.670 . S
O103 C88 1.270 . S
O103 Eu91 2.355 . S
O104 Eu81 2.394 . S
O104 C89 1.251 . S
O105 C89 1.251 . S
O105 Eu91 2.374 . S
O106 C90 1.257 . S
O106 Eu91 2.473 . S
O107 C90 1.260 . S
O107 Eu91 2.480 . S
O108 Eu91 2.430 . S
O108 C98 1.259 . S
O109 Eu81 2.355 . S
O109 Eu91 2.670 . S
O109 C98 1.270 . S
O110 Eu91 2.394 . S
O110 C99 1.251 . S
O111 Eu81 2.374 . S
O111 C99 1.251 . S
H112 C83 0.931 . S
H113 C84 0.931 . S
H114 C86 0.931 . S
H115 C87 0.931 . S
H116 C93 0.931 . S
H117 C94 0.931 . S
H118 C96 0.931 . S
H119 C97 0.931 . S
C120 N121 1.317 . S
C120 N122 1.348 1_545 S
C120 C123 1.485 . S
N121 C120 1.317 . S
N121 N125 1.370 . S
N122 C120 1.348 1_565 S
N122 C124 1.346 . S
C123 C120 1.485 . S
C123 H127 0.960 . S
C123 H128 0.961 . S
C123 H129 0.960 . S
C124 N122 1.346 . S
C124 N125 1.307 1_565 S
C124 C126 1.486 . S
N125 N121 1.370 . S
N125 C124 1.307 1_545 S
C126 C124 1.486 . S
C126 H130 0.960 . S
C126 H131 0.960 . S
C126 H132 0.959 . S
H127 C123 0.960 . S
H128 C123 0.961 . S
H129 C123 0.960 . S
H130 C126 0.960 . S
H131 C126 0.960 . S
H132 C126 0.959 . S
C133 N134 1.317 . S
C133 N135 1.348 . S
C133 C136 1.485 . S
N134 C133 1.317 . S
N134 N138 1.370 . S
N135 C133 1.348 . S
N135 C137 1.346 . S
C136 C133 1.485 . S
C136 H140 0.960 . S
C136 H141 0.961 . S
C136 H142 0.960 . S
C137 N135 1.346 . S
C137 N138 1.307 . S
C137 C139 1.486 . S
N138 N134 1.370 . S
N138 C137 1.307 . S
C139 C137 1.486 . S
C139 H143 0.960 . S
C139 H144 0.960 . S
C139 H145 0.959 . S
H140 C136 0.960 . S
H141 C136 0.961 . S
H142 C136 0.960 . S
H143 C139 0.960 . S
H144 C139 0.960 . S
H145 C139 0.959 . S
C146 N147 1.317 . S
C146 N148 1.348 1_455 S
C146 C149 1.485 . S
N147 C146 1.317 . S
N147 N151 1.370 . S
N148 C146 1.348 1_655 S
N148 C150 1.346 . S
C149 C146 1.485 . S
C149 H153 0.960 . S
C149 H154 0.961 1_455 S
C149 H155 0.960 . S
C150 N148 1.346 . S
C150 N151 1.307 1_655 S
C150 C152 1.486 . S
N151 N147 1.370 . S
N151 C150 1.307 1_455 S
C152 C150 1.486 . S
C152 H156 0.960 . S
C152 H157 0.960 . S
C152 H158 0.959 . S
H153 C149 0.960 . S
H154 C149 0.961 1_655 S
H155 C149 0.960 . S
H156 C152 0.960 . S
H157 C152 0.960 . S
H158 C152 0.959 . S
C159 N160 1.317 . S
C159 N161 1.348 . S
C159 C162 1.485 . S
N160 C159 1.317 . S
N160 N164 1.370 . S
N161 C159 1.348 . S
N161 C163 1.346 . S
C162 C159 1.485 . S
C162 H166 0.960 . S
C162 H167 0.961 . S
C162 H168 0.960 . S
C163 N161 1.346 . S
C163 N164 1.307 . S
C163 C165 1.486 . S
N164 N160 1.370 . S
N164 C163 1.307 . S
C165 C163 1.486 . S
C165 H169 0.960 . S
C165 H170 0.960 . S
C165 H171 0.959 . S
H166 C162 0.960 . S
H167 C162 0.961 . S
H168 C162 0.960 . S
H169 C165 0.960 . S
H170 C165 0.960 . S
H171 C165 0.959 . S
C172 N173 1.317 . S
C172 N174 1.348 . S
C172 C175 1.485 . S
N173 C172 1.317 . S
N173 N177 1.370 . S
N174 C172 1.348 . S
N174 C176 1.346 . S
C175 C172 1.485 . S
C175 H179 0.960 1_545 S
C175 H180 0.961 . S
C175 H181 0.960 1_545 S
C176 N174 1.346 . S
C176 N177 1.307 . S
C176 C178 1.486 . S
N177 N173 1.370 . S
N177 C176 1.307 . S
C178 C176 1.486 . S
C178 H182 0.960 . S
C178 H183 0.960 . S
C178 H184 0.959 . S
H179 C175 0.960 1_565 S
H180 C175 0.961 . S
H181 C175 0.960 1_565 S
H182 C178 0.960 . S
H183 C178 0.960 . S
H184 C178 0.959 . S
C185 N186 1.317 . S
C185 N187 1.348 . S
C185 C188 1.485 . S
N186 C185 1.317 . S
N186 N190 1.370 . S
N187 C185 1.348 . S
N187 C189 1.346 . S
C188 C185 1.485 . S
C188 H192 0.960 . S
C188 H193 0.961 . S
C188 H194 0.960 . S
C189 N187 1.346 . S
C189 N190 1.307 . S
C189 C191 1.486 . S
N190 N186 1.370 . S
N190 C189 1.307 . S
C191 C189 1.486 . S
C191 H195 0.960 . S
C191 H196 0.960 . S
C191 H197 0.959 . S
H192 C188 0.960 . S
H193 C188 0.961 . S
H194 C188 0.960 . S
H195 C191 0.960 . S
H196 C191 0.960 . S
H197 C191 0.959 . S
H198 C204 0.930 . S
H199 C207 0.930 . S
H200 C208 0.930 . S
H201 C209 0.930 . S
H202 C212 0.930 . S
H203 C213 0.930 . S
C204 H198 0.930 . S
C204 C205 1.355 . S
C204 C206 1.415 . S
C205 C204 1.355 . S
C205 C207 1.419 . S
C206 C204 1.415 . S
C206 C211 1.425 . S
C206 C213 1.409 . S
C207 H199 0.930 . S
C207 C205 1.419 . S
C207 C208 1.362 . S
C208 H200 0.930 . S
C208 C207 1.362 . S
C208 C211 1.409 . S
C209 H201 0.930 . S
C209 C210 1.355 . S
C209 C211 1.415 . S
C210 C209 1.355 . S
C210 C212 1.419 . S
C211 C206 1.425 . S
C211 C208 1.409 . S
C211 C209 1.415 . S
C212 H202 0.930 . S
C212 C210 1.419 . S
C212 C213 1.362 . S
C213 H203 0.930 . S
C213 C206 1.409 . S
C213 C212 1.362 . S
H214 C220 0.930 . S
H215 C223 0.930 . S
H216 C224 0.930 . S
H217 C225 0.930 . S
H218 C228 0.930 1_455 S
H219 C229 0.930 . S
C220 H214 0.930 . S
C220 C221 1.355 . S
C220 C222 1.415 . S
C221 C220 1.355 . S
C221 C223 1.419 . S
C222 C220 1.415 . S
C222 C227 1.425 . S
C222 C229 1.409 . S
C223 H215 0.930 . S
C223 C221 1.419 . S
C223 C224 1.362 . S
C224 H216 0.930 . S
C224 C223 1.362 . S
C224 C227 1.409 . S
C225 H217 0.930 . S
C225 C226 1.355 . S
C225 C227 1.415 . S
C226 C225 1.355 . S
C226 C228 1.419 . S
C227 C222 1.425 . S
C227 C224 1.409 . S
C227 C225 1.415 . S
C228 H218 0.930 1_655 S
C228 C226 1.419 . S
C228 C229 1.362 . S
C229 H219 0.930 . S
C229 C222 1.409 . S
C229 C228 1.362 . S
H230 C236 0.930 . S
H231 C239 0.930 . S
H232 C240 0.930 . S
H233 C241 0.930 . S
H234 C244 0.930 . S
H235 C245 0.930 . S
C236 H230 0.930 . S
C236 C237 1.355 . S
C236 C238 1.415 . S
C237 C236 1.355 . S
C237 C239 1.419 . S
C238 C236 1.415 . S
C238 C243 1.425 . S
C238 C245 1.409 . S
C239 H231 0.930 . S
C239 C237 1.419 . S
C239 C240 1.362 . S
C240 H232 0.930 . S
C240 C239 1.362 . S
C240 C243 1.409 . S
C241 H233 0.930 . S
C241 C242 1.355 . S
C241 C243 1.415 . S
C242 C241 1.355 . S
C242 C244 1.419 . S
C243 C238 1.425 . S
C243 C240 1.409 . S
C243 C241 1.415 . S
C244 H234 0.930 . S
C244 C242 1.419 . S
C244 C245 1.362 . S
C245 H235 0.930 . S
C245 C238 1.409 . S
C245 C244 1.362 . S
H246 C252 0.930 . S
H247 C255 0.930 . S
H248 C256 0.930 . S
H249 C257 0.930 . S
H250 C260 0.930 . S
H251 C261 0.930 . S
C252 H246 0.930 . S
C252 C253 1.355 . S
C252 C254 1.415 . S
C253 C252 1.355 . S
C253 C255 1.419 . S
C254 C252 1.415 . S
C254 C259 1.425 . S
C254 C261 1.409 . S
C255 H247 0.930 . S
C255 C253 1.419 . S
C255 C256 1.362 . S
C256 H248 0.930 . S
C256 C255 1.362 . S
C256 C259 1.409 . S
C257 H249 0.930 . S
C257 C258 1.355 . S
C257 C259 1.415 . S
C258 C257 1.355 . S
C258 C260 1.419 . S
C259 C254 1.425 . S
C259 C256 1.409 . S
C259 C257 1.415 . S
C260 H250 0.930 . S
C260 C258 1.419 . S
C260 C261 1.362 . S
C261 H251 0.930 . S
C261 C254 1.409 . S
C261 C260 1.362 . S
H262 C268 0.930 . S
H263 C271 0.930 . S
H264 C272 0.930 . S
H265 C273 0.930 . S
H266 C276 0.930 . S
H267 C277 0.930 . S
C268 H262 0.930 . S
C268 C269 1.355 . S
C268 C270 1.415 . S
C269 C268 1.355 . S
C269 C271 1.419 . S
C270 C268 1.415 . S
C270 C275 1.425 . S
C270 C277 1.409 . S
C271 H263 0.930 . S
C271 C269 1.419 . S
C271 C272 1.362 . S
C272 H264 0.930 . S
C272 C271 1.362 . S
C272 C275 1.409 . S
C273 H265 0.930 . S
C273 C274 1.355 . S
C273 C275 1.415 . S
C274 C273 1.355 . S
C274 C276 1.419 . S
C275 C270 1.425 . S
C275 C272 1.409 . S
C275 C273 1.415 . S
C276 H266 0.930 . S
C276 C274 1.419 . S
C276 C277 1.362 . S
C277 H267 0.930 . S
C277 C270 1.409 . S
C277 C276 1.362 . S
H278 C284 0.930 . S
H279 C287 0.930 . S
H280 C288 0.930 . S
H281 C289 0.930 . S
H282 C292 0.930 . S
H283 C293 0.930 . S
C284 H278 0.930 . S
C284 C285 1.355 . S
C284 C286 1.415 . S
C285 C284 1.355 . S
C285 C287 1.419 . S
C286 C284 1.415 . S
C286 C291 1.425 . S
C286 C293 1.409 . S
C287 H279 0.930 . S
C287 C285 1.419 . S
C287 C288 1.362 . S
C288 H280 0.930 . S
C288 C287 1.362 . S
C288 C291 1.409 . S
C289 H281 0.930 . S
C289 C290 1.355 . S
C289 C291 1.415 . S
C290 C289 1.355 . S
C290 C292 1.419 . S
C291 C286 1.425 . S
C291 C288 1.409 . S
C291 C289 1.415 . S
C292 H282 0.930 . S
C292 C290 1.419 . S
C292 C293 1.362 . S
C293 H283 0.930 . S
C293 C286 1.409 . S
C293 C292 1.362 . S
H294 C300 0.930 . S
H295 C303 0.930 . S
H296 C304 0.930 . S
H297 C305 0.930 . S
H298 C308 0.930 . S
H299 C309 0.930 . S
C300 H294 0.930 . S
C300 C301 1.355 . S
C300 C302 1.415 . S
C301 C300 1.355 . S
C301 C303 1.419 . S
C302 C300 1.415 . S
C302 C307 1.425 . S
C302 C309 1.409 . S
C303 H295 0.930 . S
C303 C301 1.419 . S
C303 C304 1.362 . S
C304 H296 0.930 . S
C304 C303 1.362 . S
C304 C307 1.409 . S
C305 H297 0.930 . S
C305 C306 1.355 . S
C305 C307 1.415 . S
C306 C305 1.355 . S
C306 C308 1.419 . S
C307 C302 1.425 . S
C307 C304 1.409 . S
C307 C305 1.415 . S
C308 H298 0.930 . S
C308 C306 1.419 . S
C308 C309 1.362 . S
C309 H299 0.930 . S
C309 C302 1.409 . S
C309 C308 1.362 . S
H310 C316 0.930 . S
H311 C319 0.930 . S
H312 C320 0.930 . S
H313 C321 0.930 . S
H314 C324 0.930 1_455 S
H315 C325 0.930 . S
C316 H310 0.930 . S
C316 C317 1.355 . S
C316 C318 1.415 . S
C317 C316 1.355 . S
C317 C319 1.419 . S
C318 C316 1.415 . S
C318 C323 1.425 . S
C318 C325 1.409 . S
C319 H311 0.930 . S
C319 C317 1.419 . S
C319 C320 1.362 . S
C320 H312 0.930 . S
C320 C319 1.362 . S
C320 C323 1.409 . S
C321 H313 0.930 . S
C321 C322 1.355 . S
C321 C323 1.415 . S
C322 C321 1.355 . S
C322 C324 1.419 . S
C323 C318 1.425 . S
C323 C320 1.409 . S
C323 C321 1.415 . S
C324 H314 0.930 1_655 S
C324 C322 1.419 . S
C324 C325 1.362 . S
C325 H315 0.930 . S
C325 C318 1.409 . S
C325 C324 1.362 . S
H326 C332 0.930 . S
H327 C335 0.930 . S
H328 C336 0.930 . S
H329 C337 0.930 . S
H330 C340 0.930 . S
H331 C341 0.930 . S
C332 H326 0.930 . S
C332 C333 1.355 . S
C332 C334 1.415 . S
C333 C332 1.355 . S
C333 C335 1.419 . S
C334 C332 1.415 . S
C334 C339 1.425 . S
C334 C341 1.409 . S
C335 H327 0.930 . S
C335 C333 1.419 . S
C335 C336 1.362 . S
C336 H328 0.930 . S
C336 C335 1.362 . S
C336 C339 1.409 . S
C337 H329 0.930 . S
C337 C338 1.355 . S
C337 C339 1.415 . S
C338 C337 1.355 . S
C338 C340 1.419 . S
C339 C334 1.425 . S
C339 C336 1.409 . S
C339 C337 1.415 . S
C340 H330 0.930 . S
C340 C338 1.419 . S
C340 C341 1.362 . S
C341 H331 0.930 . S
C341 C334 1.409 . S
C341 C340 1.362 . S
H342 C348 0.930 . S
H343 C351 0.930 . S
H344 C352 0.930 . S
H345 C353 0.930 . S
H346 C356 0.930 . S
H347 C357 0.930 . S
C348 H342 0.930 . S
C348 C349 1.355 . S
C348 C350 1.415 . S
C349 C348 1.355 . S
C349 C351 1.419 . S
C350 C348 1.415 . S
C350 C355 1.425 . S
C350 C357 1.409 . S
C351 H343 0.930 . S
C351 C349 1.419 . S
C351 C352 1.362 . S
C352 H344 0.930 . S
C352 C351 1.362 . S
C352 C355 1.409 . S
C353 H345 0.930 . S
C353 C354 1.355 . S
C353 C355 1.415 . S
C354 C353 1.355 . S
C354 C356 1.419 . S
C355 C350 1.425 . S
C355 C352 1.409 . S
C355 C353 1.415 . S
C356 H346 0.930 . S
C356 C354 1.419 . S
C356 C357 1.362 . S
C357 H347 0.930 . S
C357 C350 1.409 . S
C357 C356 1.362 . S
H358 C364 0.930 . S
H359 C367 0.930 . S
H360 C368 0.930 . S
H361 C369 0.930 . S
H362 C372 0.930 . S
H363 C373 0.930 . S
C364 H358 0.930 . S
C364 C365 1.355 . S
C364 C366 1.415 . S
C365 C364 1.355 . S
C365 C367 1.419 . S
C366 C364 1.415 . S
C366 C371 1.425 . S
C366 C373 1.409 . S
C367 H359 0.930 . S
C367 C365 1.419 . S
C367 C368 1.362 . S
C368 H360 0.930 . S
C368 C367 1.362 . S
C368 C371 1.409 . S
C369 H361 0.930 . S
C369 C370 1.355 . S
C369 C371 1.415 . S
C370 C369 1.355 . S
C370 C372 1.419 . S
C371 C366 1.425 . S
C371 C368 1.409 . S
C371 C369 1.415 . S
C372 H362 0.930 . S
C372 C370 1.419 . S
C372 C373 1.362 . S
C373 H363 0.930 . S
C373 C366 1.409 . S
C373 C372 1.362 . S
H374 C380 0.930 . S
H375 C383 0.930 . S
H376 C384 0.930 . S
H377 C385 0.930 . S
H378 C388 0.930 . S
H379 C389 0.930 . S
C380 H374 0.930 . S
C380 C381 1.355 . S
C380 C382 1.415 . S
C381 C380 1.355 . S
C381 C383 1.419 . S
C382 C380 1.415 . S
C382 C387 1.425 . S
C382 C389 1.409 . S
C383 H375 0.930 . S
C383 C381 1.419 . S
C383 C384 1.362 . S
C384 H376 0.930 . S
C384 C383 1.362 . S
C384 C387 1.409 . S
C385 H377 0.930 . S
C385 C386 1.355 . S
C385 C387 1.415 . S
C386 C385 1.355 . S
C386 C388 1.419 . S
C387 C382 1.425 . S
C387 C384 1.409 . S
C387 C385 1.415 . S
C388 H378 0.930 . S
C388 C386 1.419 . S
C388 C389 1.362 . S
C389 H379 0.930 . S
C389 C382 1.409 . S
C389 C388 1.362 . S
H390 C396 0.930 1_655 S
H391 C399 0.930 . S
H392 C400 0.930 . S
H393 C401 0.930 . S
H394 C404 0.930 . S
H395 C405 0.930 . S
C396 H390 0.930 1_455 S
C396 C397 1.355 . S
C396 C398 1.415 . S
C397 C396 1.355 . S
C397 C399 1.419 . S
C398 C396 1.415 . S
C398 C403 1.425 . S
C398 C405 1.409 1_455 S
C399 H391 0.930 . S
C399 C397 1.419 . S
C399 C400 1.362 . S
C400 H392 0.930 . S
C400 C399 1.362 . S
C400 C403 1.409 . S
C401 H393 0.930 . S
C401 C402 1.355 . S
C401 C403 1.415 1_556 S
C402 C401 1.355 . S
C402 C404 1.419 1_455 S
C403 C398 1.425 . S
C403 C400 1.409 . S
C403 C401 1.415 1_554 S
C404 H394 0.930 . S
C404 C402 1.419 1_655 S
C404 C405 1.362 1_556 S
C405 H395 0.930 . S
C405 C398 1.409 1_655 S
C405 C404 1.362 1_554 S
H406 C412 0.930 1_565 S
H407 C415 0.930 . S
H408 C416 0.930 . S
H409 C417 0.930 . S
H410 C420 0.930 . S
H411 C421 0.930 . S
C412 H406 0.930 1_545 S
C412 C413 1.355 . S
C412 C414 1.415 . S
C413 C412 1.355 . S
C413 C415 1.419 . S
C414 C412 1.415 . S
C414 C419 1.425 . S
C414 C421 1.409 1_545 S
C415 H407 0.930 . S
C415 C413 1.419 . S
C415 C416 1.362 . S
C416 H408 0.930 . S
C416 C415 1.362 . S
C416 C419 1.409 . S
C417 H409 0.930 . S
C417 C418 1.355 . S
C417 C419 1.415 . S
C418 C417 1.355 . S
C418 C420 1.419 1_545 S
C419 C414 1.425 . S
C419 C416 1.409 . S
C419 C417 1.415 . S
C420 H410 0.930 . S
C420 C418 1.419 1_565 S
C420 C421 1.362 . S
C421 H411 0.930 . S
C421 C414 1.409 1_565 S
C421 C420 1.362 . S
H422 C428 0.930 . S
H423 C431 0.930 . S
H424 C432 0.930 . S
H425 C433 0.930 . S
H426 C436 0.930 . S
H427 C437 0.930 . S
C428 H422 0.930 . S
C428 C429 1.355 . S
C428 C430 1.415 . S
C429 C428 1.355 . S
C429 C431 1.419 . S
C430 C428 1.415 . S
C430 C435 1.425 . S
C430 C437 1.409 . S
C431 H423 0.930 . S
C431 C429 1.419 . S
C431 C432 1.362 . S
C432 H424 0.930 . S
C432 C431 1.362 . S
C432 C435 1.409 . S
C433 H425 0.930 . S
C433 C434 1.355 . S
C433 C435 1.415 . S
C434 C433 1.355 . S
C434 C436 1.419 . S
C435 C430 1.425 . S
C435 C432 1.409 . S
C435 C433 1.415 . S
C436 H426 0.930 . S
C436 C434 1.419 . S
C436 C437 1.362 . S
C437 H427 0.930 . S
C437 C430 1.409 . S
C437 C436 1.362 . S
H438 C444 0.930 1_565 S
H439 C447 0.930 . S
H440 C448 0.930 . S
H441 C449 0.930 . S
H442 C452 0.930 . S
H443 C453 0.930 . S
C444 H438 0.930 1_545 S
C444 C445 1.355 . S
C444 C446 1.415 . S
C445 C444 1.355 . S
C445 C447 1.419 . S
C446 C444 1.415 . S
C446 C451 1.425 . S
C446 C453 1.409 1_545 S
C447 H439 0.930 . S
C447 C445 1.419 . S
C447 C448 1.362 . S
C448 H440 0.930 . S
C448 C447 1.362 . S
C448 C451 1.409 . S
C449 H441 0.930 . S
C449 C450 1.355 . S
C449 C451 1.415 . S
C450 C449 1.355 . S
C450 C452 1.419 1_545 S
C451 C446 1.425 . S
C451 C448 1.409 . S
C451 C449 1.415 . S
C452 H442 0.930 . S
C452 C450 1.419 1_565 S
C452 C453 1.362 . S
C453 H443 0.930 . S
C453 C446 1.409 1_565 S
C453 C452 1.362 . S
H454 C460 0.930 . S
H455 C463 0.930 . S
H456 C464 0.930 . S
H457 C465 0.930 . S
H458 C468 0.930 . S
H459 C469 0.930 . S
C460 H454 0.930 . S
C460 C461 1.355 . S
C460 C462 1.415 . S
C461 C460 1.355 . S
C461 C463 1.419 . S
C462 C460 1.415 . S
C462 C467 1.427 . S
C462 C469 1.409 1_556 S
C463 H455 0.930 . S
C463 C461 1.419 . S
C463 C464 1.362 . S
C464 H456 0.930 . S
C464 C463 1.362 . S
C464 C467 1.413 . S
C465 H457 0.930 . S
C465 C466 1.355 . S
C465 C467 1.409 1_554 S
C466 C465 1.355 . S
C466 C468 1.419 . S
C467 C462 1.427 . S
C467 C464 1.413 . S
C467 C465 1.409 1_556 S
C468 H458 0.930 . S
C468 C466 1.419 . S
C468 C469 1.362 . S
C469 H459 0.930 . S
C469 C462 1.409 1_554 S
C469 C468 1.362 . S
H470 C476 0.930 . S
H471 C479 0.930 . S
H472 C480 0.930 . S
H473 C481 0.930 . S
H474 C484 0.930 . S
H475 C485 0.930 . S
C476 H470 0.930 . S
C476 C477 1.355 . S
C476 C478 1.415 . S
C477 C476 1.355 . S
C477 C479 1.419 . S
C478 C476 1.415 . S
C478 C483 1.425 . S
C478 C485 1.409 . S
C479 H471 0.930 . S
C479 C477 1.419 . S
C479 C480 1.362 . S
C480 H472 0.930 . S
C480 C479 1.362 . S
C480 C483 1.409 . S
C481 H473 0.930 . S
C481 C482 1.355 . S
C481 C483 1.415 . S
C482 C481 1.355 . S
C482 C484 1.419 . S
C483 C478 1.425 . S
C483 C480 1.409 . S
C483 C481 1.415 . S
C484 H474 0.930 . S
C484 C482 1.419 . S
C484 C485 1.362 . S
C485 H475 0.930 . S
C485 C478 1.409 . S
C485 C484 1.362 . S
C205 C19 2.767 . S
C210 N187 2.748 . S
C221 C49 2.976 . S
C226 N160 2.972 1_655 S
C237 C99 2.902 . S
C242 N173 2.932 1_565 S
C253 C9 3.306 . S
C258 N186 3.307 . S
C274 N161 3.041 . S
C269 C59 3.043 . S
C290 N174 3.095 . S
C285 C89 3.129 . S
C301 C55 0.269 . S
C306 N134 0.300 . S
C317 C85 0.411 . S
C322 N148 0.250 . S
C333 C15 0.572 . S
C338 N122 0.602 . S
C354 N135 0.624 . S
C349 C45 0.745 . S
C370 N147 0.706 . S
C365 C95 0.703 . S
C381 C5 0.528 . S
C386 N121 0.536 . S
C402 N151 1.143 . S
C397 C18 1.101 . S
C413 C58 1.261 . S
C418 N125 1.212 . S
C429 C98 1.059 . S
C434 N138 1.151 . S
C450 N177 1.844 . S
C445 C48 1.725 . S
C466 N190 1.712 . S
C461 C88 1.669 . S
C477 C8 1.673 . S
C482 N164 1.736 . S
