# Generated by pormake.
# Topology pyr, (3,6)-cn, num edge types: 1
# Building blocks:
#     Node 0, Type 0, BuildingBlock: ESEHIV_clean_linker_0, # of connection points: 3
#     Node 1, Type 0, BuildingBlock: ESEHIV_clean_linker_0, # of connection points: 3
#     Node 2, Type 0, BuildingBlock: ESEHIV_clean_linker_0, # of connection points: 3
#     Node 3, Type 0, BuildingBlock: ESEHIV_clean_linker_0, # of connection points: 3
#     Node 4, Type 0, BuildingBlock: ESEHIV_clean_linker_0, # of connection points: 3
#     Node 5, Type 0, BuildingBlock: ESEHIV_clean_linker_0, # of connection points: 3
#     Node 6, Type 0, BuildingBlock: ESEHIV_clean_linker_0, # of connection points: 3
#     Node 7, Type 0, BuildingBlock: ESEHIV_clean_linker_0, # of connection points: 3
#     Node 8, Type 1, BuildingBlock: BETDAH_clean_sbu_0, # of connection points: 6
#     Node 9, Type 1, BuildingBlock: BETDAH_clean_sbu_0, # of connection points: 6
#     Node 10, Type 1, BuildingBlock: BETDAH_clean_sbu_0, # of connection points: 6
#     Node 11, Type 1, BuildingBlock: BETDAH_clean_sbu_0, # of connection points: 6
#     Edge 12, Type (0, 1), BuildingBlock: CIFDUS_clean_linker_0, # of connection points: 2
#     Edge 13, Type (0, 1), BuildingBlock: CIFDUS_clean_linker_0, # of connection points: 2
#     Edge 14, Type (0, 1), BuildingBlock: CIFDUS_clean_linker_0, # of connection points: 2
#     Edge 15, Type (0, 1), BuildingBlock: CIFDUS_clean_linker_0, # of connection points: 2
#     Edge 16, Type (0, 1), BuildingBlock: CIFDUS_clean_linker_0, # of connection points: 2
#     Edge 17, Type (0, 1), BuildingBlock: CIFDUS_clean_linker_0, # of connection points: 2
#     Edge 18, Type (0, 1), BuildingBlock: CIFDUS_clean_linker_0, # of connection points: 2
#     Edge 19, Type (0, 1), BuildingBlock: CIFDUS_clean_linker_0, # of connection points: 2
#     Edge 20, Type (0, 1), BuildingBlock: CIFDUS_clean_linker_0, # of connection points: 2
#     Edge 21, Type (0, 1), BuildingBlock: CIFDUS_clean_linker_0, # of connection points: 2
#     Edge 22, Type (0, 1), BuildingBlock: CIFDUS_clean_linker_0, # of connection points: 2
#     Edge 23, Type (0, 1), BuildingBlock: CIFDUS_clean_linker_0, # of connection points: 2
#     Edge 24, Type (0, 1), BuildingBlock: CIFDUS_clean_linker_0, # of connection points: 2
#     Edge 25, Type (0, 1), BuildingBlock: CIFDUS_clean_linker_0, # of connection points: 2
#     Edge 26, Type (0, 1), BuildingBlock: CIFDUS_clean_linker_0, # of connection points: 2
#     Edge 27, Type (0, 1), BuildingBlock: CIFDUS_clean_linker_0, # of connection points: 2
#     Edge 28, Type (0, 1), BuildingBlock: CIFDUS_clean_linker_0, # of connection points: 2
#     Edge 29, Type (0, 1), BuildingBlock: CIFDUS_clean_linker_0, # of connection points: 2
#     Edge 30, Type (0, 1), BuildingBlock: CIFDUS_clean_linker_0, # of connection points: 2
#     Edge 31, Type (0, 1), BuildingBlock: CIFDUS_clean_linker_0, # of connection points: 2
#     Edge 32, Type (0, 1), BuildingBlock: CIFDUS_clean_linker_0, # of connection points: 2
#     Edge 33, Type (0, 1), BuildingBlock: CIFDUS_clean_linker_0, # of connection points: 2
#     Edge 34, Type (0, 1), BuildingBlock: CIFDUS_clean_linker_0, # of connection points: 2
#     Edge 35, Type (0, 1), BuildingBlock: CIFDUS_clean_linker_0, # of connection points: 2
# Relax obj value: 0.167
# Max RMSD: 0.146
# Mean RMSD: 0.069
data_MOF--net-pyr--node1-BETDAH_clean_sbu_0--node2-ESEHIV_clean_linker_0--edge1-CIFDUS_clean_linker_0
_symmetry_space_group_name_H-M    P1
_symmetry_Int_Tables_number       1
_symmetry_cell_setting            triclinic
loop_
_symmetry_equiv_pos_as_xyz
'x, y, z'
_cell_length_a     31.401848
_cell_length_b     32.767663
_cell_length_c     28.632252
_cell_angle_alpha  91.118148
_cell_angle_beta   88.604726
_cell_angle_gamma 104.63593
loop_
_atom_site_label
_atom_site_type_symbol
_atom_site_fract_x
_atom_site_fract_y
_atom_site_fract_z
_atom_type_partial_charge
H0 H 0.36275 0.38474 0.27876 0.0
H1 H 0.44609 0.29976 0.28321 0.0
H2 H 0.44083 0.3686 0.15818 0.0
C3 C 0.38917 0.37286 0.26335 0.0
C4 C 0.40234 0.38285 0.2168 0.0
C5 C 0.40427 0.34249 0.2874 0.0
C6 C 0.43557 0.3243 0.26542 0.0
C7 C 0.44749 0.33212 0.21824 0.0
C8 C 0.43234 0.36294 0.19481 0.0
H9 H 0.16212 0.85936 0.77861 0.0
H10 H 0.22106 0.75702 0.74577 0.0
H11 H 0.1719 0.81886 0.63611 0.0
C12 C 0.16956 0.83657 0.75383 0.0
C13 C 0.1611 0.84013 0.70636 0.0
C14 C 0.19246 0.80744 0.76825 0.0
C15 C 0.20299 0.77933 0.73509 0.0
C16 C 0.19629 0.78366 0.68739 0.0
C17 C 0.17543 0.81421 0.67307 0.0
H18 H 0.70095 0.36263 0.97067 0.0
H19 H 0.71455 0.46359 0.87233 0.0
H20 H 0.60526 0.35413 0.86363 0.0
C21 C 0.6898 0.37579 0.94024 0.0
C22 C 0.65072 0.35323 0.91876 0.0
C23 C 0.71296 0.41617 0.9245 0.0
C24 C 0.69663 0.43325 0.88569 0.0
C25 C 0.65808 0.41109 0.86295 0.0
C26 C 0.6354 0.37118 0.8801 0.0
H27 H 0.84254 0.7631 0.47169 0.0
H28 H 0.93901 0.76863 0.36148 0.0
H29 H 0.83211 0.65663 0.37937 0.0
C30 C 0.85562 0.7483 0.44241 0.0
C31 C 0.83378 0.70683 0.42936 0.0
C32 C 0.89351 0.77116 0.41843 0.0
C33 C 0.90913 0.75173 0.37924 0.0
C34 C 0.88756 0.71007 0.36426 0.0
C35 C 0.84945 0.68828 0.38977 0.0
H36 H 0.62881 0.81837 0.85896 0.0
H37 H 0.69529 0.7283 0.90618 0.0
H38 H 0.60247 0.76794 0.99732 0.0
C39 C 0.63261 0.79602 0.88491 0.0
C40 C 0.60923 0.79394 0.92779 0.0
C41 C 0.66539 0.7742 0.87802 0.0
C42 C 0.6697 0.74491 0.9114 0.0
C43 C 0.64789 0.74301 0.95497 0.0
C44 C 0.61714 0.76719 0.96276 0.0
H45 H 0.83338 0.34866 0.40911 0.0
H46 H 0.88957 0.24263 0.38789 0.0
H47 H 0.85837 0.2792 0.52659 0.0
C48 C 0.84659 0.3239 0.42275 0.0
C49 C 0.84415 0.31704 0.47108 0.0
C50 C 0.86157 0.29653 0.39186 0.0
C51 C 0.87879 0.26494 0.41074 0.0
C52 C 0.87905 0.25927 0.45917 0.0
C53 C 0.8604 0.28464 0.48929 0.0
H54 H 0.34945 0.7662 0.1999 0.0
H55 H 0.33533 0.66917 0.30307 0.0
H56 H 0.44915 0.77476 0.3027 0.0
C57 C 0.36124 0.75373 0.23041 0.0
C58 C 0.40196 0.77556 0.24921 0.0
C59 C 0.33698 0.71484 0.24892 0.0
C60 C 0.35401 0.69836 0.28768 0.0
C61 C 0.39427 0.71972 0.30781 0.0
C62 C 0.4179 0.75827 0.28805 0.0
H63 H 0.11717 0.37606 0.82494 0.0
H64 H 0.22377 0.38368 0.72543 0.0
H65 H 0.22276 0.48936 0.81578 0.0
C66 C 0.14832 0.39327 0.80991 0.0
C67 C 0.1675 0.43499 0.82609 0.0
C68 C 0.16808 0.37406 0.77341 0.0
C69 C 0.20781 0.39775 0.753 0.0
C70 C 0.22732 0.43959 0.76716 0.0
C71 C 0.20698 0.45773 0.80385 0.0
Ho72 Ho 0.05494 0.08528 0.55109 0.0
Ho73 Ho 1.01188 1.05425 0.646 0.0
C74 C 0.0795 0.1478 0.64155 0.0
C75 C 0.08325 0.12892 0.47737 0.0
C76 C 0.12758 0.15142 0.46154 0.0
C77 C 0.13379 0.18983 0.43846 0.0
C78 C 0.17597 0.21194 0.42404 0.0
C79 C 0.21247 0.19576 0.43234 0.0
C80 C 0.20624 0.15767 0.45631 0.0
C81 C 0.16415 0.13581 0.47115 0.0
C82 C 0.0962 1.03525 0.5948 0.0
C83 C 0.99179 0.99206 0.5567 0.0
C84 C 0.98776 1.02616 0.72843 0.0
C85 C 0.95245 0.99013 0.74509 0.0
C86 C 0.96301 0.95333 0.75992 0.0
C87 C 0.92987 0.91845 0.77406 0.0
C88 C 0.88545 0.91972 0.77404 0.0
C89 C 0.8749 0.95651 0.75907 0.0
C90 C 0.90801 0.99133 0.74473 0.0
C91 C 0.95956 0.08022 0.58537 0.0
O92 O 0.08968 0.13899 0.5979 0.0
O93 O 0.05019 0.12035 0.66704 0.0
O94 O 0.07504 0.08784 0.47825 0.0
O95 O 0.06863 0.14465 0.51475 0.0
O96 O 0.09841 1.04077 0.55018 0.0
O97 O 0.07816 1.06147 0.61484 0.0
O98 O 0.99884 0.99474 0.60227 0.0
O99 O 1.00264 1.02626 0.5303 0.0
O100 O 0.9756 1.0578 0.71048 0.0
O101 O 1.01981 1.01637 0.70446 0.0
O102 O 0.94473 1.05051 0.61526 0.0
O103 O 0.99962 0.09568 0.5922 0.0
H104 H 0.10597 0.20255 0.43134 0.0
H105 H 0.17987 0.241 0.4051 0.0
H106 H 0.23391 0.1447 0.46329 0.0
H107 H 0.16016 0.10662 0.48985 0.0
H108 H 0.99695 0.95144 0.76039 0.0
H109 H 0.93907 0.89047 0.7851 0.0
H110 H 0.8411 0.95884 0.75952 0.0
H111 H 0.89867 1.01917 0.7335 0.0
Ho112 Ho 0.57331 0.06711 0.08741 0.0
Ho113 Ho 0.47928 1.05306 1.06048 0.0
C114 C 0.5143 0.12454 0.13554 0.0
C115 C 0.65498 0.097 0.10779 0.0
C116 C 0.67877 0.13668 0.13008 0.0
C117 C 0.72048 0.15819 0.11309 0.0
C118 C 0.74388 0.19512 0.13546 0.0
C119 C 0.72592 0.21089 0.17535 0.0
C120 C 0.68319 0.19001 0.1908 0.0
C121 C 0.65982 0.15352 0.16827 0.0
C122 C 0.5187 0.99658 0.12497 0.0
C123 C 0.54063 1.00044 1.00827 0.0
C124 C 0.39629 1.02699 1.04331 0.0
C125 C 0.36288 0.98888 1.03031 0.0
C126 C 0.37236 0.94934 1.0273 0.0
C127 C 0.34106 0.91451 1.00965 0.0
C128 C 0.3001 0.91899 0.99454 0.0
C129 C 0.29017 0.95833 1.00039 0.0
C130 C 0.32132 0.99291 1.01813 0.0
C131 C 0.53343 0.12391 1.02301 0.0
O132 O 0.55421 0.12104 0.12465 0.0
O133 O 0.47879 0.09739 0.12025 0.0
O134 O 0.62682 0.07083 0.13447 0.0
O135 O 0.63949 0.1006 1.06662 0.0
O136 O 0.55883 0.99951 0.11075 0.0
O137 O 0.50993 1.03204 0.12077 0.0
O138 O 0.50039 0.99908 1.02413 0.0
O139 O 0.5749 1.02993 1.02218 0.0
O140 O 0.42633 1.04212 1.01137 0.0
O141 O 0.41238 1.028 0.08509 0.0
O142 O 0.49276 0.12004 1.03536 0.0
O143 O 0.54246 0.08864 1.0275 0.0
H144 H 0.73525 0.14601 0.08307 0.0
H145 H 0.77641 0.21068 0.12223 0.0
H146 H 0.66839 0.20048 0.22185 0.0
H147 H 0.6274 0.13782 0.1817 0.0
H148 H 0.40436 0.94577 1.03702 0.0
H149 H 0.34955 0.88455 1.00604 0.0
H150 H 0.25942 0.96327 0.98845 0.0
H151 H 0.31357 1.02331 1.02043 0.0
Ho152 Ho 0.52158 0.52637 0.5611 0.0
Ho153 Ho 0.53067 0.60568 0.61152 0.0
C154 C 0.56842 0.5386 0.66354 0.0
C155 C 0.53738 0.45977 0.52214 0.0
C156 C 0.57105 0.43713 0.5313 0.0
C157 C 0.60918 0.45738 0.55539 0.0
C158 C 0.64205 0.4366 0.56269 0.0
C159 C 0.63774 0.39536 0.5454 0.0
C160 C 0.59883 0.37472 0.52246 0.0
C161 C 0.56568 0.39547 0.51559 0.0
C162 C 0.44702 0.52922 0.61107 0.0
C163 C 0.48286 0.5934 0.50967 0.0
C164 C 0.51581 0.67266 0.65003 0.0
C165 C 0.48203 0.69549 0.641 0.0
C166 C 0.44944 0.69546 0.67531 0.0
C167 C 0.41305 0.71048 0.66526 0.0
C168 C 0.40878 0.72629 0.62087 0.0
C169 C 0.44244 0.72865 0.5872 0.0
C170 C 0.4788 0.71308 0.5971 0.0
C171 C 0.60501 0.60205 0.56264 0.0
O172 O 0.56343 0.51839 0.62276 0.0
O173 O 0.55495 0.57335 0.66977 0.0
O174 O 0.5077 0.45825 0.5552 0.0
O175 O 0.55234 0.49771 0.50566 0.0
O176 O 0.44792 0.51274 0.56956 0.0
O177 O 0.48643 0.54265 0.62405 0.0
O178 O 0.48822 0.61382 0.55037 0.0
O179 O 0.49613 0.55852 0.50341 0.0
O180 O 0.54611 0.6738 0.61763 0.0
O181 O 0.50055 0.63491 0.66695 0.0
O182 O 0.60446 0.61818 0.60432 0.0
O183 O 0.56587 0.58925 0.5488 0.0
H184 H 0.61415 0.48966 0.56757 0.0
H185 H 0.67131 0.45322 0.58094 0.0
H186 H 0.59472 0.34318 0.50809 0.0
H187 H 0.5364 0.37937 0.49703 0.0
H188 H 0.45127 0.68229 0.70941 0.0
H189 H 0.38783 0.70926 0.69209 0.0
H190 H 0.43989 0.74114 0.55291 0.0
H191 H 0.50356 0.71365 0.56996 0.0
Ho192 Ho 0.02941 0.52555 0.11517 0.0
Ho193 Ho 1.01198 0.61172 1.0716 0.0
C194 C 0.10162 0.61763 0.12845 0.0
C195 C 0.06458 0.46425 0.13032 0.0
C196 C 0.11078 0.46283 0.13677 0.0
C197 C 0.14156 0.46893 0.09933 0.0
C198 C 0.18573 0.4702 0.10717 0.0
C199 C 0.19992 0.4659 0.15256 0.0
C200 C 0.16904 0.4594 0.18972 0.0
C201 C 0.12498 0.45761 0.18187 0.0
C202 C 0.98069 0.56427 0.17482 0.0
C203 C 0.94129 0.51853 1.05641 0.0
C204 C 0.97665 0.67386 1.06148 0.0
C205 C 0.93073 0.67636 1.06698 0.0
C206 C 0.89782 0.64067 1.08052 0.0
C207 C 0.8534 0.6406 1.07821 0.0
C208 C 0.84127 0.67657 1.06326 0.0
C209 C 0.87444 0.71315 1.05262 0.0
C210 C 0.91886 0.71292 1.05417 0.0
C211 C 0.06153 0.57428 1.01208 0.0
O212 O 0.09236 0.57569 0.12949 0.0
O213 O 0.07465 0.63863 0.11077 0.0
O214 O 0.04796 0.48384 0.16358 0.0
O215 O 0.05345 0.47303 0.08858 0.0
O216 O 0.98962 0.52844 0.18268 0.0
O217 O 0.99701 0.57511 0.1349 0.0
O218 O 0.94957 0.5605 1.05663 0.0
O219 O 0.96855 0.49791 1.07402 0.0
O220 O 0.98383 0.6497 1.02674 0.0
O221 O 0.99622 0.66802 0.09974 0.0
O222 O 0.05236 0.61014 1.00444 0.0
O223 O 0.04483 0.56262 1.05173 0.0
H224 H 0.13172 0.47312 1.06411 0.0
H225 H 0.20888 0.47498 1.07789 0.0
H226 H 0.17883 0.45498 0.22491 0.0
H227 H 0.102 0.45259 0.21132 0.0
H228 H 0.9064 0.61228 0.09107 0.0
H229 H 0.82851 0.61208 0.0867 0.0
H230 H 0.866 0.74115 1.04043 0.0
H231 H 0.94382 0.74069 1.04349 0.0
H232 H 0.37889 0.2587 0.30531 0.0
H233 H 0.36964 0.37957 0.36141 0.0
H234 H 0.31097 0.34406 0.41538 0.0
H235 H 0.2555 0.27898 0.43798 0.0
H236 H 0.26676 0.15914 0.38118 0.0
H237 H 0.33279 0.19416 0.33704 0.0
C238 C 0.36566 0.27758 0.33053 0.0
C239 C 0.37851 0.32194 0.32875 0.0
C240 C 0.33187 0.25708 0.36098 0.0
C241 C 0.3599 0.34542 0.36142 0.0
C242 C 0.32627 0.32514 0.39221 0.0
C243 C 0.27293 0.26064 0.41643 0.0
C244 C 0.25613 0.2167 0.41225 0.0
C245 C 0.31074 0.28105 0.39081 0.0
C246 C 0.27917 0.19301 0.38494 0.0
C247 C 0.31676 0.21302 0.35951 0.0
H248 H 0.15882 0.82513 0.85342 0.0
H249 H 0.27639 0.80435 0.78613 0.0
H250 H 0.31811 0.82896 0.85555 0.0
H251 H 0.32492 0.86949 0.928 0.0
H252 H 0.20954 0.8945 0.99536 0.0
H253 H 0.16358 0.85541 0.93336 0.0
C254 C 0.19336 0.82527 0.85435 0.0
C255 C 0.21424 0.81313 0.81431 0.0
C256 C 0.21794 0.84105 0.89409 0.0
C257 C 0.25897 0.8129 0.81637 0.0
C258 C 0.28323 0.82754 0.85602 0.0
C259 C 0.28953 0.86513 0.93028 0.0
C260 C 0.27089 0.88568 0.96578 0.0
C261 C 0.26354 0.84348 0.89414 0.0
C262 C 0.2249 0.87981 0.96776 0.0
C263 C 0.19859 0.85751 0.93229 0.0
H264 H 0.65015 0.49208 0.85092 0.0
H265 H 0.62847 0.37131 0.78046 0.0
H266 H 0.60088 0.39994 0.71248 0.0
H267 H 0.58149 0.45915 0.67288 0.0
H268 H 0.60026 0.57909 0.74486 0.0
H269 H 0.63045 0.55118 0.81149 0.0
C270 C 0.63966 0.47206 0.82059 0.0
C271 C 0.64151 0.4294 0.82119 0.0
C272 C 0.62317 0.48868 0.78154 0.0
C273 C 0.62713 0.40402 0.7815 0.0
C274 C 0.61146 0.42048 0.74238 0.0
C275 C 0.5924 0.47932 0.703 0.0
C276 C 0.58853 0.52141 0.7034 0.0
C277 C 0.60911 0.46274 0.74196 0.0
C278 C 0.60262 0.54668 0.74322 0.0
C279 C 0.61997 0.53068 0.78154 0.0
H280 H 0.88508 0.62562 0.35028 0.0
H281 H 0.93102 0.74646 0.28394 0.0
H282 H 0.96239 0.71317 0.21929 0.0
H283 H 0.9796 0.64936 0.18222 0.0
H284 H 0.92995 0.52899 0.24778 0.0
H285 H 0.897 0.56226 0.31088 0.0
C286 C 0.90112 0.64493 0.32147 0.0
C287 C 0.90546 0.68901 0.32306 0.0
C288 C 0.91865 0.62542 0.28361 0.0
C289 C 0.92758 0.71278 0.28504 0.0
C290 C 0.94538 0.69361 0.24749 0.0
C291 C 0.96056 0.63028 0.20944 0.0
C292 C 0.95698 0.58638 0.20934 0.0
C293 C 0.94144 0.64989 0.24638 0.0
C294 C 0.9333 0.56268 0.2464 0.0
C295 C 0.91442 0.58176 0.28283 0.0
H296 H 0.51316 0.295 0.2413 0.0
H297 H 0.41701 0.29499 0.13589 0.0
H298 H 0.4294 0.23056 0.10171 0.0
H299 H 0.46121 0.17029 0.10633 0.0
H300 H 0.55908 0.16927 0.20883 0.0
H301 H 0.55147 0.23742 0.24057 0.0
C302 C 0.49559 0.28125 0.21034 0.0
C303 C 0.46417 0.29993 0.19135 0.0
C304 C 0.50202 0.24332 0.19134 0.0
C305 C 0.44191 0.28193 0.15093 0.0
C306 C 0.44836 0.24454 0.13174 0.0
C307 C 0.48054 0.18484 0.13594 0.0
C308 C 0.50944 0.16442 0.15647 0.0
C309 C 0.47709 0.22428 0.15264 0.0
C310 C 0.53581 0.1842 0.1934 0.0
C311 C 0.53168 0.22318 0.21121 0.0
H312 H 0.19999 0.90313 0.6485 0.0
H313 H 0.08255 0.85543 0.732 0.0
H314 H 0.05287 0.9139 0.70742 0.0
H315 H 0.05917 0.97586 0.65814 0.0
H316 H 0.17746 1.02493 0.57701 0.0
H317 H 0.20828 0.96822 0.60406 0.0
C318 C 0.16785 0.90562 0.66108 0.0
C319 C 0.14301 0.87499 0.69128 0.0
C320 C 0.15155 0.93955 0.6475 0.0
C321 C 0.10186 0.87868 0.70833 0.0
C322 C 0.08505 0.91204 0.69442 0.0
C323 C 0.09243 0.97544 0.64847 0.0
C324 C 0.11676 1.00542 0.61738 0.0
C325 C 0.10959 0.94259 0.66391 0.0
C326 C 0.15863 1.00253 0.60185 0.0
C327 C 0.17608 0.97004 0.61703 0.0
H328 H 0.77942 0.38748 0.96338 0.0
H329 H 0.73798 0.50162 0.9422 0.0
H330 H 0.80375 0.54281 0.98068 0.0
H331 H 0.87379 0.54711 1.02015 0.0
H332 H 0.91443 0.43275 1.04289 0.0
H333 H 0.84832 0.39151 1.005 0.0
C334 C 0.78442 0.4213 0.96749 0.0
C335 C 0.75342 0.4411 0.94919 0.0
C336 C 0.82244 0.44507 0.99022 0.0
C337 C 0.76129 0.48523 0.95476 0.0
C338 C 0.79893 0.50896 0.9772 0.0
C339 C 0.86829 0.51315 1.01699 0.0
C340 C 0.89962 0.49338 1.03457 0.0
C341 C 0.82991 0.48931 0.99493 0.0
C342 C 0.8913 0.44918 1.02998 0.0
C343 C 0.85334 0.42541 1.00812 0.0
H344 H 0.75161 0.65888 0.40294 0.0
H345 H 0.83067 0.70171 0.52399 0.0
H346 H 0.76821 0.67132 0.57532 0.0
H347 H 0.68979 0.63677 0.58668 0.0
H348 H 0.60932 0.59313 0.46707 0.0
H349 H 0.67321 0.61888 0.41483 0.0
C350 C 0.75528 0.66099 0.44053 0.0
C351 C 0.7959 0.68326 0.45937 0.0
C352 C 0.71872 0.64342 0.47033 0.0
C353 C 0.79979 0.68558 0.50832 0.0
C354 C 0.76402 0.66806 0.53785 0.0
C355 C 0.68626 0.63251 0.54919 0.0
C356 C 0.64461 0.61331 0.53093 0.0
C357 C 0.7231 0.64766 0.51936 0.0
C358 C 0.64088 0.60787 0.48219 0.0
C359 C 0.67747 0.62275 0.45223 0.0
H360 H 0.37572 0.45327 0.24201 0.0
H361 H 0.36842 0.36187 0.12995 0.0
H362 H 0.3091 0.38553 0.09514 0.0
H363 H 0.24984 0.42176 0.1052 0.0
H364 H 0.25305 0.50886 0.22068 0.0
H365 H 0.32283 0.49711 0.24567 0.0
C366 C 0.36176 0.43921 0.2094 0.0
C367 C 0.37623 0.4055 0.18909 0.0
C368 C 0.32604 0.45147 0.19077 0.0
C369 C 0.35832 0.38805 0.14638 0.0
C370 C 0.32381 0.40115 0.12671 0.0
C371 C 0.2665 0.43904 0.13503 0.0
C372 C 0.24608 0.46553 0.16156 0.0
C373 C 0.30599 0.43128 0.14987 0.0
C374 C 0.26785 0.48766 0.20027 0.0
C375 C 0.30772 0.48099 0.21452 0.0
H376 H 0.67684 0.28105 0.9388 0.0
H377 H 0.56401 0.33361 0.9437 0.0
H378 H 0.51876 0.26836 0.97678 0.0
H379 H 0.51063 0.19629 1.00442 0.0
H380 H 0.62095 0.14048 0.99496 0.0
H381 H 0.66761 0.20659 0.96404 0.0
C382 C 0.64235 0.27813 0.94718 0.0
C383 C 0.62391 0.31241 0.93864 0.0
C384 C 0.61602 0.23981 0.9655 0.0
C385 C 0.57904 0.30784 0.94945 0.0
C386 C 0.55312 0.27048 0.96854 0.0
C387 C 0.54488 0.19842 0.99549 0.0
C388 C 0.56228 0.16334 1.00259 0.0
C389 C 0.57114 0.23623 0.97664 0.0
C390 C 0.60673 0.16692 0.99053 0.0
C391 C 0.6334 0.20481 0.97262 0.0
H392 H 0.90718 0.79907 0.50892 0.0
H393 H 0.93165 0.8426 0.3673 0.0
H394 H 0.96363 0.91452 0.39645 0.0
H395 H 0.98302 0.96612 0.46319 0.0
H396 H 0.95604 0.91994 0.60394 0.0
H397 H 0.92605 0.84902 0.57401 0.0
C398 C 0.91908 0.8242 0.48414 0.0
C399 C 0.91634 0.81495 0.43572 0.0
C400 C 0.93681 0.86559 0.50114 0.0
C401 C 0.93335 0.84826 0.40468 0.0
C402 C 0.95138 0.88965 0.42142 0.0
C403 C 0.97035 0.9406 0.48729 0.0
C404 C 0.97192 0.94906 0.53604 0.0
C405 C 0.95297 0.89892 0.46971 0.0
C406 C 0.95555 0.91507 0.56641 0.0
C407 C 0.9383 0.87413 0.5493 0.0
H408 H 0.26286 0.82261 0.63076 0.0
H409 H 0.18724 0.69965 0.67303 0.0
H410 H 0.24632 0.66847 0.64511 0.0
H411 H 0.32521 0.67977 0.62784 0.0
H412 H 0.4034 0.80379 0.59277 0.0
H413 H 0.33767 0.83123 0.59783 0.0
C414 C 0.25859 0.78872 0.63164 0.0
C415 C 0.22113 0.76331 0.65398 0.0
C416 C 0.29372 0.77158 0.61805 0.0
C417 C 0.2159 0.71956 0.65576 0.0
C418 C 0.24989 0.70192 0.64042 0.0
C419 C 0.32742 0.71252 0.62001 0.0
C420 C 0.36878 0.74007 0.61093 0.0
C421 C 0.28992 0.72811 0.62451 0.0
C422 C 0.3717 0.78226 0.60013 0.0
C423 C 0.33423 0.79791 0.60333 0.0
H424 H 0.75204 0.7883 0.89576 0.0
H425 H 0.66328 0.80139 0.78743 0.0
H426 H 0.72524 0.84514 0.74288 0.0
H427 H 0.80307 0.88626 0.73994 0.0
H428 H 0.8892 0.87366 0.85115 0.0
H429 H 0.82973 0.82158 0.88849 0.0
C430 C 0.74606 0.7991 0.86156 0.0
C431 C 0.7028 0.79136 0.84504 0.0
C432 C 0.78142 0.8247 0.83682 0.0
C433 C 0.69612 0.80702 0.80116 0.0
C434 C 0.73152 0.83216 0.77578 0.0
C435 C 0.80882 0.87186 0.77218 0.0
C436 C 0.85048 0.88418 0.79291 0.0
C437 C 0.77406 0.84244 0.79417 0.0
C438 C 0.85768 0.86463 0.83419 0.0
C439 C 0.82356 0.83503 0.85581 0.0
H440 H 0.79186 0.31649 0.35066 0.0
H441 H 0.9088 0.27395 0.31731 0.0
H442 H 0.87929 0.24909 0.24106 0.0
H443 H 0.81353 0.22565 0.1932 0.0
H444 H 0.69959 0.27339 0.22435 0.0
H445 H 0.73611 0.31165 0.29203 0.0
C446 C 0.81222 0.30361 0.3264 0.0
C447 C 0.85176 0.29539 0.34103 0.0
C448 C 0.79535 0.28975 0.28245 0.0
C449 C 0.87721 0.27879 0.30813 0.0
C450 C 0.86049 0.26474 0.2643 0.0
C451 C 0.7972 0.24574 0.21347 0.0
C452 C 0.75303 0.24501 0.20492 0.0
C453 C 0.81838 0.26775 0.25239 0.0
C454 C 0.73287 0.27184 0.23141 0.0
C455 C 0.75376 0.29385 0.27008 0.0
H456 H 0.39812 0.63787 0.32301 0.0
H457 H 0.42929 0.76157 0.38748 0.0
H458 H 0.45726 0.73369 0.45576 0.0
H459 H 0.47425 0.67417 0.49728 0.0
H460 H 0.44619 0.55121 0.43108 0.0
H461 H 0.41564 0.57854 0.36426 0.0
C462 C 0.4108 0.65874 0.35208 0.0
C463 C 0.41145 0.70198 0.34968 0.0
C464 C 0.42751 0.64251 0.3913 0.0
C465 C 0.42864 0.72838 0.38778 0.0
C466 C 0.44452 0.71235 0.42711 0.0
C467 C 0.46116 0.65323 0.46846 0.0
C468 C 0.4625 0.61043 0.46977 0.0
C469 C 0.44432 0.66947 0.42931 0.0
C470 C 0.44579 0.58417 0.43143 0.0
C471 C 0.42823 0.59984 0.393 0.0
H472 H 0.16641 0.5186 0.84027 0.0
H473 H 0.12047 0.39633 0.9034 0.0
H474 H 0.08501 0.42744 0.96663 0.0
H475 H 0.0646 0.48978 1.00363 0.0
H476 H 0.11412 0.61171 0.94137 0.0
H477 H 0.15062 0.58053 0.87943 0.0
C478 C 0.14934 0.49854 0.86805 0.0
C479 C 0.14634 0.4547 0.86599 0.0
C480 C 0.12942 0.5168 0.90515 0.0
C481 C 0.12295 0.42986 0.90265 0.0
C482 C 0.1028 0.44778 0.93942 0.0
C483 C 0.08434 0.50966 0.97737 0.0
C484 C 0.0869 0.55338 0.97808 0.0
C485 C 0.10555 0.49128 0.94109 0.0
C486 C 0.11151 0.57812 0.94225 0.0
C487 C 0.13245 0.56025 0.90649 0.0
H488 H 0.63148 0.8765 0.90417 0.0
H489 H 0.53212 0.78451 0.97941 0.0
H490 H 0.49761 0.8403 1.00629 0.0
H491 H 0.50081 0.91659 1.01458 0.0
H492 H 0.60209 1.00673 0.93965 0.0
H493 H 0.62949 0.94973 0.90448 0.0
C494 C 0.60133 0.86801 0.925 0.0
C495 C 0.58431 0.8261 0.93939 0.0
C496 C 0.58191 0.90003 0.94025 0.0
C497 C 0.54613 0.81652 0.96802 0.0
C498 C 0.52631 0.84838 0.98326 0.0
C499 C 0.52799 0.92348 0.98943 0.0
C500 C 0.54952 0.96566 0.97959 0.0
C501 C 0.54455 0.89046 0.97044 0.0
C502 C 0.58517 0.97443 0.94769 0.0
C503 C 0.60098 0.94191 0.92782 0.0
H504 H 0.84261 0.19871 0.52317 0.0
H505 H 0.95743 0.24443 0.43467 0.0
H506 H 0.98916 0.18865 0.46144 0.0
H507 H 0.98606 0.12949 0.51227 0.0
H508 H 0.87443 0.08447 0.60438 0.0
H509 H 0.83855 0.13631 0.57279 0.0
C510 C 0.87466 0.19648 0.5101 0.0
C511 C 0.89784 0.22572 0.47723 0.0
C512 C 0.8928 0.16418 0.52569 0.0
C513 C 0.93899 0.22218 0.45987 0.0
C514 C 0.95711 0.19031 0.47507 0.0
C515 C 0.9538 0.13092 0.52519 0.0
C516 C 0.93312 0.10384 0.56077 0.0
C517 C 0.93447 0.16145 0.50812 0.0
C518 C 0.89083 0.10505 0.5767 0.0
C519 C 0.87066 0.13499 0.55908 0.0
H520 H 0.27119 0.74576 0.21174 0.0
H521 H 0.30679 0.62911 0.23598 0.0
H522 H 0.2382 0.58938 0.20158 0.0
H523 H 0.16773 0.58713 0.1644 0.0
H524 H 0.13249 0.70365 0.13839 0.0
H525 H 0.20122 0.74356 0.17279 0.0
C526 C 0.26427 0.71168 0.2092 0.0
C527 C 0.29456 0.69078 0.22708 0.0
C528 C 0.22458 0.68874 0.18879 0.0
C529 C 0.28418 0.64638 0.22364 0.0
C530 C 0.2449 0.62348 0.20354 0.0
C531 C 0.17492 0.62127 0.1661 0.0
C532 C 0.14442 0.64209 0.14859 0.0
C533 C 0.21475 0.64425 0.18608 0.0
C534 C 0.15494 0.68647 0.15132 0.0
C535 C 0.19441 0.70945 0.17115 0.0
H536 H 0.3003 0.41301 0.73915 0.0
H537 H 0.24707 0.52209 0.7386 0.0
H538 H 0.3108 0.56048 0.69243 0.0
H539 H 0.38048 0.56182 0.64775 0.0
H540 H 0.43216 0.45194 0.64827 0.0
H541 H 0.37054 0.41526 0.69817 0.0
C542 C 0.30247 0.44517 0.72894 0.0
C543 C 0.26839 0.46431 0.74233 0.0
C544 C 0.33913 0.467 0.70194 0.0
C545 C 0.27267 0.50644 0.72932 0.0
C546 C 0.30909 0.5284 0.70251 0.0
C547 C 0.37829 0.53 0.65925 0.0
C548 C 0.41085 0.50955 0.64436 0.0
C549 C 0.34236 0.50888 0.68803 0.0
C550 C 0.40756 0.46829 0.65934 0.0
C551 C 0.37226 0.44728 0.68782 0.0
H552 H 0.66603 0.66633 0.96086 0.0
H553 H 0.67735 0.78377 1.03598 0.0
H554 H 0.73556 0.76986 0.08311 0.0
H555 H 0.79402 0.7325 0.08989 0.0
H556 H 0.78486 0.61664 1.01224 0.0
H557 H 0.71526 0.62149 0.97951 0.0
C558 C 0.68008 0.68797 0.98887 0.0
C559 C 0.66783 0.72624 0.99444 0.0
C560 C 0.71494 0.68064 1.01449 0.0
C561 C 0.68601 0.75399 1.03101 0.0
C562 C 0.71993 0.74641 1.05748 0.0
C563 C 0.77614 0.70786 1.06667 0.0
C564 C 0.7948 0.6747 1.05284 0.0
C565 C 0.73642 0.71117 1.04746 0.0
C566 C 0.77115 0.64254 1.02333 0.0
C567 C 0.73147 0.64543 1.00437 0.0
H568 H 0.37611 0.84585 0.22126 0.0
H569 H 0.48934 0.79416 0.2255 0.0
H570 H 0.5345 0.85677 0.18722 0.0
H571 H 0.54241 0.92633 0.15195 0.0
H572 H 0.4311 0.98077 0.15122 0.0
H573 H 0.38486 0.91738 0.18802 0.0
C574 C 0.41067 0.84831 0.21376 0.0
C575 C 0.42916 0.81504 0.22655 0.0
C576 C 0.4369 0.88504 0.19211 0.0
C577 C 0.47417 0.81918 0.21674 0.0
C578 C 0.50007 0.85502 0.19455 0.0
C579 C 0.50802 0.92443 0.15987 0.0
C580 C 0.49029 0.95842 0.14838 0.0
C581 C 0.48188 0.88817 0.18206 0.0
C582 C 0.44568 0.95523 0.15928 0.0
C583 C 0.4192 0.91888 0.18048 0.0
H584 H 0.16994 0.34063 0.6842 0.0
H585 H 0.11955 0.30555 0.82336 0.0
H586 H 0.08777 0.23355 0.79572 0.0
H587 H 0.07479 0.17937 0.73177 0.0
H588 H 0.13048 0.215 0.59461 0.0
H589 H 0.16061 0.28684 0.62236 0.0
C590 C 0.15281 0.31737 0.70908 0.0
C591 C 0.14767 0.32946 0.75623 0.0
C592 C 0.13563 0.27542 0.69329 0.0
C593 C 0.12382 0.29819 0.78681 0.0
C594 C 0.10586 0.25656 0.77107 0.0
C595 C 0.09376 0.20273 0.70799 0.0
C596 C 0.10016 0.19111 0.66093 0.0
C597 C 0.11162 0.24465 0.72434 0.0
C598 C 0.12494 0.22232 0.63095 0.0
C599 C 0.14216 0.26377 0.64677 0.0
H600 H 0.77054 0.28178 0.52047 0.0
H601 H 0.8568 0.40175 0.48335 0.0
H602 H 0.80115 0.43781 0.51026 0.0
H603 H 0.72407 0.43333 0.53007 0.0
H604 H 0.63586 0.31293 0.56316 0.0
H605 H 0.69614 0.27868 0.55182 0.0
C606 C 0.77763 0.31595 0.52004 0.0
C607 C 0.81748 0.33926 0.50014 0.0
C608 C 0.74475 0.33613 0.53355 0.0
C609 C 0.82628 0.3834 0.49878 0.0
C610 C 0.79434 0.40387 0.51369 0.0
C611 C 0.71821 0.39981 0.53626 0.0
C612 C 0.67536 0.37564 0.54683 0.0
C613 C 0.75277 0.38032 0.529 0.0
C614 C 0.66836 0.33211 0.55406 0.0
C615 C 0.70283 0.31255 0.54778 0.0
loop_
_geom_bond_atom_site_label_1
_geom_bond_atom_site_label_2
_geom_bond_distance
_geom_bond_site_symmetry_2
_ccdc_geom_bond_type
H0 C3 0.931 . S
H1 C6 0.928 . S
H2 C8 0.930 . S
C3 H0 0.931 . S
C3 C4 1.413 . S
C3 C5 1.360 . S
C4 C3 1.413 . S
C4 C8 1.429 . S
C5 C3 1.360 . S
C5 C6 1.372 . S
C6 H1 0.928 . S
C6 C5 1.372 . S
C6 C7 1.404 . S
C7 C6 1.404 . S
C7 C8 1.391 . S
C8 H2 0.930 . S
C8 C4 1.429 . S
C8 C7 1.391 . S
H9 C12 0.931 . S
H10 C15 0.928 . S
H11 C17 0.930 . S
C12 H9 0.931 . S
C12 C13 1.413 . S
C12 C14 1.360 . S
C13 C12 1.413 . S
C13 C17 1.429 . S
C14 C12 1.360 . S
C14 C15 1.372 . S
C15 H10 0.928 . S
C15 C14 1.372 . S
C15 C16 1.404 . S
C16 C15 1.404 . S
C16 C17 1.391 . S
C17 H11 0.930 . S
C17 C13 1.429 . S
C17 C16 1.391 . S
H18 C21 0.931 . S
H19 C24 0.928 . S
H20 C26 0.930 . S
C21 H18 0.931 . S
C21 C22 1.413 . S
C21 C23 1.360 . S
C22 C21 1.413 . S
C22 C26 1.429 . S
C23 C21 1.360 . S
C23 C24 1.372 . S
C24 H19 0.928 . S
C24 C23 1.372 . S
C24 C25 1.404 . S
C25 C24 1.404 . S
C25 C26 1.391 . S
C26 H20 0.930 . S
C26 C22 1.429 . S
C26 C25 1.391 . S
H27 C30 0.931 . S
H28 C33 0.928 . S
H29 C35 0.930 . S
C30 H27 0.931 . S
C30 C31 1.413 . S
C30 C32 1.360 . S
C31 C30 1.413 . S
C31 C35 1.429 . S
C32 C30 1.360 . S
C32 C33 1.372 . S
C33 H28 0.928 . S
C33 C32 1.372 . S
C33 C34 1.404 . S
C34 C33 1.404 . S
C34 C35 1.391 . S
C35 H29 0.930 . S
C35 C31 1.429 . S
C35 C34 1.391 . S
H36 C39 0.931 . S
H37 C42 0.928 . S
H38 C44 0.930 . S
C39 H36 0.931 . S
C39 C40 1.413 . S
C39 C41 1.360 . S
C40 C39 1.413 . S
C40 C44 1.429 . S
C41 C39 1.360 . S
C41 C42 1.372 . S
C42 H37 0.928 . S
C42 C41 1.372 . S
C42 C43 1.404 . S
C43 C42 1.404 . S
C43 C44 1.391 . S
C44 H38 0.930 . S
C44 C40 1.429 . S
C44 C43 1.391 . S
H45 C48 0.931 . S
H46 C51 0.928 . S
H47 C53 0.930 . S
C48 H45 0.931 . S
C48 C49 1.413 . S
C48 C50 1.360 . S
C49 C48 1.413 . S
C49 C53 1.429 . S
C50 C48 1.360 . S
C50 C51 1.372 . S
C51 H46 0.928 . S
C51 C50 1.372 . S
C51 C52 1.404 . S
C52 C51 1.404 . S
C52 C53 1.391 . S
C53 H47 0.930 . S
C53 C49 1.429 . S
C53 C52 1.391 . S
H54 C57 0.931 . S
H55 C60 0.928 . S
H56 C62 0.930 . S
C57 H54 0.931 . S
C57 C58 1.413 . S
C57 C59 1.360 . S
C58 C57 1.413 . S
C58 C62 1.429 . S
C59 C57 1.360 . S
C59 C60 1.372 . S
C60 H55 0.928 . S
C60 C59 1.372 . S
C60 C61 1.404 . S
C61 C60 1.404 . S
C61 C62 1.391 . S
C62 H56 0.930 . S
C62 C58 1.429 . S
C62 C61 1.391 . S
H63 C66 0.931 . S
H64 C69 0.928 . S
H65 C71 0.930 . S
C66 H63 0.931 . S
C66 C67 1.413 . S
C66 C68 1.360 . S
C67 C66 1.413 . S
C67 C71 1.429 . S
C68 C66 1.360 . S
C68 C69 1.372 . S
C69 H64 0.928 . S
C69 C68 1.372 . S
C69 C70 1.404 . S
C70 C69 1.404 . S
C70 C71 1.391 . S
C71 H65 0.930 . S
C71 C67 1.429 . S
C71 C70 1.391 . S
Ho72 C75 2.811 . S
Ho72 O92 2.322 . S
Ho72 O94 2.378 . S
Ho72 O95 2.524 . S
Ho72 O96 2.381 1_545 S
Ho72 O97 2.669 1_545 S
Ho72 O99 2.346 1_445 S
Ho72 O103 2.305 1_455 S
Ho73 C84 2.811 . S
Ho73 O93 2.346 1_665 S
Ho73 O97 2.305 1_655 S
Ho73 O98 2.322 . S
Ho73 O100 2.378 . S
Ho73 O101 2.524 . S
Ho73 O102 2.381 1_565 S
Ho73 O103 2.669 1_565 S
C74 O92 1.259 . S
C74 O93 1.268 . S
C75 Ho72 2.811 . S
C75 C76 1.488 . S
C75 O94 1.215 . S
C75 O95 1.289 . S
C76 C75 1.488 . S
C76 C77 1.348 . S
C76 C81 1.413 . S
C77 C76 1.348 . S
C77 C78 1.442 . S
C77 H104 0.930 . S
C78 C77 1.442 . S
C78 C79 1.381 . S
C78 H105 0.931 . S
C79 C78 1.381 . S
C79 C80 1.321 . S
C80 C79 1.321 . S
C80 C81 1.403 . S
C80 H106 0.934 . S
C81 C76 1.413 . S
C81 C80 1.403 . S
C81 H107 0.930 . S
C82 O96 1.275 . S
C82 O97 1.256 . S
C83 O98 1.259 . S
C83 O99 1.268 . S
C84 Ho73 2.811 . S
C84 C85 1.488 . S
C84 O100 1.215 . S
C84 O101 1.289 . S
C85 C84 1.488 . S
C85 C86 1.348 . S
C85 C90 1.413 . S
C86 C85 1.348 . S
C86 C87 1.442 . S
C86 H108 0.930 . S
C87 C86 1.442 . S
C87 C88 1.381 . S
C87 H109 0.931 . S
C88 C87 1.381 . S
C88 C89 1.321 . S
C89 C88 1.321 . S
C89 C90 1.403 . S
C89 H110 0.934 . S
C90 C85 1.413 . S
C90 C89 1.403 . S
C90 H111 0.930 . S
C91 O102 1.275 . S
C91 O103 1.256 . S
O92 Ho72 2.322 . S
O92 C74 1.259 . S
O93 Ho73 2.346 1_445 S
O93 C74 1.268 . S
O94 Ho72 2.378 . S
O94 C75 1.215 . S
O95 Ho72 2.524 . S
O95 C75 1.289 . S
O96 Ho72 2.381 1_565 S
O96 C82 1.275 . S
O97 Ho72 2.669 1_565 S
O97 Ho73 2.305 1_455 S
O97 C82 1.256 . S
O98 Ho73 2.322 . S
O98 C83 1.259 . S
O99 Ho72 2.346 1_665 S
O99 C83 1.268 . S
O100 Ho73 2.378 . S
O100 C84 1.215 . S
O101 Ho73 2.524 . S
O101 C84 1.289 . S
O102 Ho73 2.381 1_545 S
O102 C91 1.275 . S
O103 Ho72 2.305 1_655 S
O103 Ho73 2.669 1_545 S
O103 C91 1.256 . S
H104 C77 0.930 . S
H105 C78 0.931 . S
H106 C80 0.934 . S
H107 C81 0.930 . S
H108 C86 0.930 . S
H109 C87 0.931 . S
H110 C89 0.934 . S
H111 C90 0.930 . S
Ho112 C115 2.805 1_565 S
Ho112 O132 2.315 1_565 S
Ho112 O134 2.377 1_565 S
Ho112 O135 2.513 1_565 S
Ho112 O136 2.390 . S
Ho112 O137 2.673 . S
Ho112 O139 2.353 1_554 S
Ho112 O143 2.296 1_564 S
Ho113 C124 2.811 1_545 S
Ho113 O133 2.346 1_556 S
Ho113 O137 2.305 1_546 S
Ho113 O138 2.322 1_545 S
Ho113 O140 2.378 1_545 S
Ho113 O141 2.524 1_545 S
Ho113 O142 2.381 . S
Ho113 O143 2.669 . S
C114 O132 1.259 . S
C114 O133 1.268 . S
C115 Ho112 2.805 1_545 S
C115 C116 1.488 . S
C115 O134 1.215 . S
C115 O135 1.289 . S
C116 C115 1.488 . S
C116 C117 1.348 . S
C116 C121 1.413 . S
C117 C116 1.348 . S
C117 C118 1.442 . S
C117 H144 0.930 . S
C118 C117 1.442 . S
C118 C119 1.381 . S
C118 H145 0.931 . S
C119 C118 1.381 . S
C119 C120 1.321 . S
C120 C119 1.321 . S
C120 C121 1.403 . S
C120 H146 0.934 . S
C121 C116 1.413 . S
C121 C120 1.403 . S
C121 H147 0.930 . S
C122 O136 1.275 . S
C122 O137 1.256 . S
C123 O138 1.259 . S
C123 O139 1.268 . S
C124 Ho113 2.811 1_565 S
C124 C125 1.488 . S
C124 O140 1.215 . S
C124 O141 1.289 . S
C125 C124 1.488 . S
C125 C126 1.348 . S
C125 C130 1.413 . S
C126 C125 1.348 . S
C126 C127 1.442 . S
C126 H148 0.930 . S
C127 C126 1.442 . S
C127 C128 1.381 . S
C127 H149 0.931 . S
C128 C127 1.381 . S
C128 C129 1.321 . S
C129 C128 1.321 . S
C129 C130 1.403 . S
C129 H150 0.934 . S
C130 C125 1.413 . S
C130 C129 1.403 . S
C130 H151 0.930 . S
C131 O142 1.275 . S
C131 O143 1.256 . S
O132 Ho112 2.315 1_545 S
O132 C114 1.259 . S
O133 Ho113 2.346 1_554 S
O133 C114 1.268 . S
O134 Ho112 2.377 1_545 S
O134 C115 1.215 . S
O135 Ho112 2.513 1_545 S
O135 C115 1.289 . S
O136 Ho112 2.390 . S
O136 C122 1.275 . S
O137 Ho112 2.673 . S
O137 Ho113 2.305 1_564 S
O137 C122 1.256 . S
O138 Ho113 2.322 1_565 S
O138 C123 1.259 . S
O139 Ho112 2.353 1_556 S
O139 C123 1.268 . S
O140 Ho113 2.378 1_565 S
O140 C124 1.215 . S
O141 Ho113 2.524 1_565 S
O141 C124 1.289 . S
O142 Ho113 2.381 . S
O142 C131 1.275 . S
O143 Ho112 2.296 1_546 S
O143 Ho113 2.669 . S
O143 C131 1.256 . S
H144 C117 0.930 . S
H145 C118 0.931 . S
H146 C120 0.934 . S
H147 C121 0.930 . S
H148 C126 0.930 . S
H149 C127 0.931 . S
H150 C129 0.934 . S
H151 C130 0.930 . S
Ho152 C155 2.811 . S
Ho152 O172 2.322 . S
Ho152 O174 2.378 . S
Ho152 O175 2.524 . S
Ho152 O176 2.381 . S
Ho152 O177 2.669 . S
Ho152 O179 2.346 . S
Ho152 O183 2.305 . S
Ho153 C164 2.811 . S
Ho153 O173 2.346 . S
Ho153 O177 2.305 . S
Ho153 O178 2.322 . S
Ho153 O180 2.378 . S
Ho153 O181 2.524 . S
Ho153 O182 2.381 . S
Ho153 O183 2.669 . S
C154 O172 1.259 . S
C154 O173 1.268 . S
C155 Ho152 2.811 . S
C155 C156 1.488 . S
C155 O174 1.215 . S
C155 O175 1.289 . S
C156 C155 1.488 . S
C156 C157 1.348 . S
C156 C161 1.413 . S
C157 C156 1.348 . S
C157 C158 1.442 . S
C157 H184 0.930 . S
C158 C157 1.442 . S
C158 C159 1.381 . S
C158 H185 0.931 . S
C159 C158 1.381 . S
C159 C160 1.321 . S
C160 C159 1.321 . S
C160 C161 1.403 . S
C160 H186 0.934 . S
C161 C156 1.413 . S
C161 C160 1.403 . S
C161 H187 0.930 . S
C162 O176 1.275 . S
C162 O177 1.256 . S
C163 O178 1.259 . S
C163 O179 1.268 . S
C164 Ho153 2.811 . S
C164 C165 1.488 . S
C164 O180 1.215 . S
C164 O181 1.289 . S
C165 C164 1.488 . S
C165 C166 1.348 . S
C165 C170 1.413 . S
C166 C165 1.348 . S
C166 C167 1.442 . S
C166 H188 0.930 . S
C167 C166 1.442 . S
C167 C168 1.381 . S
C167 H189 0.931 . S
C168 C167 1.381 . S
C168 C169 1.321 . S
C169 C168 1.321 . S
C169 C170 1.403 . S
C169 H190 0.934 . S
C170 C165 1.413 . S
C170 C169 1.403 . S
C170 H191 0.930 . S
C171 O182 1.275 . S
C171 O183 1.256 . S
O172 Ho152 2.322 . S
O172 C154 1.259 . S
O173 Ho153 2.346 . S
O173 C154 1.268 . S
O174 Ho152 2.378 . S
O174 C155 1.215 . S
O175 Ho152 2.524 . S
O175 C155 1.289 . S
O176 Ho152 2.381 . S
O176 C162 1.275 . S
O177 Ho152 2.669 . S
O177 Ho153 2.305 . S
O177 C162 1.256 . S
O178 Ho153 2.322 . S
O178 C163 1.259 . S
O179 Ho152 2.346 . S
O179 C163 1.268 . S
O180 Ho153 2.378 . S
O180 C164 1.215 . S
O181 Ho153 2.524 . S
O181 C164 1.289 . S
O182 Ho153 2.381 . S
O182 C171 1.275 . S
O183 Ho152 2.305 . S
O183 Ho153 2.669 . S
O183 C171 1.256 . S
H184 C157 0.930 . S
H185 C158 0.931 . S
H186 C160 0.934 . S
H187 C161 0.930 . S
H188 C166 0.930 . S
H189 C167 0.931 . S
H190 C169 0.934 . S
H191 C170 0.930 . S
Ho192 C195 2.811 . S
Ho192 O212 2.322 . S
Ho192 O214 2.378 . S
Ho192 O215 2.524 . S
Ho192 O216 2.381 1_455 S
Ho192 O217 2.669 1_455 S
Ho192 O219 2.346 1_455 S
Ho192 O223 2.305 1_554 S
Ho193 C204 2.796 1_455 S
Ho193 O213 2.361 1_556 S
Ho193 O217 2.301 1_456 S
Ho193 O218 2.312 1_455 S
Ho193 O220 2.369 1_455 S
Ho193 O221 2.507 1_455 S
Ho193 O222 2.390 . S
Ho193 O223 2.679 . S
C194 O212 1.259 . S
C194 O213 1.268 . S
C195 Ho192 2.811 . S
C195 C196 1.488 . S
C195 O214 1.215 . S
C195 O215 1.289 . S
C196 C195 1.488 . S
C196 C197 1.348 . S
C196 C201 1.413 . S
C197 C196 1.348 . S
C197 C198 1.442 . S
C197 H224 0.930 . S
C198 C197 1.442 . S
C198 C199 1.381 . S
C198 H225 0.931 . S
C199 C198 1.381 . S
C199 C200 1.321 . S
C200 C199 1.321 . S
C200 C201 1.403 . S
C200 H226 0.934 . S
C201 C196 1.413 . S
C201 C200 1.403 . S
C201 H227 0.930 . S
C202 O216 1.275 . S
C202 O217 1.256 . S
C203 O218 1.259 . S
C203 O219 1.268 1_556 S
C204 Ho193 2.796 1_655 S
C204 C205 1.488 . S
C204 O220 1.215 . S
C204 O221 1.289 . S
C205 C204 1.488 . S
C205 C206 1.348 . S
C205 C210 1.413 . S
C206 C205 1.348 . S
C206 C207 1.442 . S
C206 H228 0.930 . S
C207 C206 1.442 . S
C207 C208 1.381 . S
C207 H229 0.931 . S
C208 C207 1.381 . S
C208 C209 1.321 . S
C209 C208 1.321 . S
C209 C210 1.403 . S
C209 H230 0.934 . S
C210 C205 1.413 . S
C210 C209 1.403 . S
C210 H231 0.930 . S
C211 O222 1.275 . S
C211 O223 1.256 . S
O212 Ho192 2.322 . S
O212 C194 1.259 . S
O213 Ho193 2.361 1_554 S
O213 C194 1.268 . S
O214 Ho192 2.378 . S
O214 C195 1.215 . S
O215 Ho192 2.524 . S
O215 C195 1.289 . S
O216 Ho192 2.381 1_655 S
O216 C202 1.275 . S
O217 Ho192 2.669 1_655 S
O217 Ho193 2.301 1_654 S
O217 C202 1.256 . S
O218 Ho193 2.312 1_655 S
O218 C203 1.259 . S
O219 Ho192 2.346 1_655 S
O219 C203 1.268 1_554 S
O220 Ho193 2.369 1_655 S
O220 C204 1.215 . S
O221 Ho193 2.507 1_655 S
O221 C204 1.289 . S
O222 Ho193 2.390 . S
O222 C211 1.275 . S
O223 Ho192 2.305 1_556 S
O223 Ho193 2.679 . S
O223 C211 1.256 . S
H224 C197 0.930 . S
H225 C198 0.931 . S
H226 C200 0.934 . S
H227 C201 0.930 . S
H228 C206 0.930 . S
H229 C207 0.931 . S
H230 C209 0.934 . S
H231 C210 0.930 . S
H232 C238 0.930 . S
H233 C241 0.930 . S
H234 C242 0.930 . S
H235 C243 0.930 . S
H236 C246 0.930 . S
H237 C247 0.930 . S
C238 H232 0.930 . S
C238 C239 1.355 . S
C238 C240 1.415 . S
C239 C238 1.355 . S
C239 C241 1.419 . S
C240 C238 1.415 . S
C240 C245 1.425 . S
C240 C247 1.409 . S
C241 H233 0.930 . S
C241 C239 1.419 . S
C241 C242 1.362 . S
C242 H234 0.930 . S
C242 C241 1.362 . S
C242 C245 1.409 . S
C243 H235 0.930 . S
C243 C244 1.355 . S
C243 C245 1.415 . S
C244 C243 1.355 . S
C244 C246 1.419 . S
C245 C240 1.425 . S
C245 C242 1.409 . S
C245 C243 1.415 . S
C246 H236 0.930 . S
C246 C244 1.419 . S
C246 C247 1.362 . S
C247 H237 0.930 . S
C247 C240 1.409 . S
C247 C246 1.362 . S
H248 C254 0.930 . S
H249 C257 0.930 . S
H250 C258 0.930 . S
H251 C259 0.930 . S
H252 C262 0.930 . S
H253 C263 0.930 . S
C254 H248 0.930 . S
C254 C255 1.355 . S
C254 C256 1.415 . S
C255 C254 1.355 . S
C255 C257 1.419 . S
C256 C254 1.415 . S
C256 C261 1.425 . S
C256 C263 1.409 . S
C257 H249 0.930 . S
C257 C255 1.419 . S
C257 C258 1.362 . S
C258 H250 0.930 . S
C258 C257 1.362 . S
C258 C261 1.409 . S
C259 H251 0.930 . S
C259 C260 1.355 . S
C259 C261 1.415 . S
C260 C259 1.355 . S
C260 C262 1.419 . S
C261 C256 1.425 . S
C261 C258 1.409 . S
C261 C259 1.415 . S
C262 H252 0.930 . S
C262 C260 1.419 . S
C262 C263 1.362 . S
C263 H253 0.930 . S
C263 C256 1.409 . S
C263 C262 1.362 . S
H264 C270 0.930 . S
H265 C273 0.930 . S
H266 C274 0.930 . S
H267 C275 0.930 . S
H268 C278 0.930 . S
H269 C279 0.930 . S
C270 H264 0.930 . S
C270 C271 1.355 . S
C270 C272 1.415 . S
C271 C270 1.355 . S
C271 C273 1.419 . S
C272 C270 1.415 . S
C272 C277 1.425 . S
C272 C279 1.409 . S
C273 H265 0.930 . S
C273 C271 1.419 . S
C273 C274 1.362 . S
C274 H266 0.930 . S
C274 C273 1.362 . S
C274 C277 1.409 . S
C275 H267 0.930 . S
C275 C276 1.355 . S
C275 C277 1.415 . S
C276 C275 1.355 . S
C276 C278 1.419 . S
C277 C272 1.425 . S
C277 C274 1.409 . S
C277 C275 1.415 . S
C278 H268 0.930 . S
C278 C276 1.419 . S
C278 C279 1.362 . S
C279 H269 0.930 . S
C279 C272 1.409 . S
C279 C278 1.362 . S
H280 C286 0.930 . S
H281 C289 0.930 . S
H282 C290 0.930 . S
H283 C291 0.930 . S
H284 C294 0.930 . S
H285 C295 0.930 . S
C286 H280 0.930 . S
C286 C287 1.355 . S
C286 C288 1.415 . S
C287 C286 1.355 . S
C287 C289 1.419 . S
C288 C286 1.415 . S
C288 C293 1.425 . S
C288 C295 1.409 . S
C289 H281 0.930 . S
C289 C287 1.419 . S
C289 C290 1.362 . S
C290 H282 0.930 . S
C290 C289 1.362 . S
C290 C293 1.409 . S
C291 H283 0.930 . S
C291 C292 1.355 . S
C291 C293 1.415 . S
C292 C291 1.355 . S
C292 C294 1.419 . S
C293 C288 1.425 . S
C293 C290 1.409 . S
C293 C291 1.415 . S
C294 H284 0.930 . S
C294 C292 1.419 . S
C294 C295 1.362 . S
C295 H285 0.930 . S
C295 C288 1.409 . S
C295 C294 1.362 . S
H296 C302 0.930 . S
H297 C305 0.930 . S
H298 C306 0.930 . S
H299 C307 0.930 . S
H300 C310 0.930 . S
H301 C311 0.930 . S
C302 H296 0.930 . S
C302 C303 1.355 . S
C302 C304 1.415 . S
C303 C302 1.355 . S
C303 C305 1.419 . S
C304 C302 1.415 . S
C304 C309 1.425 . S
C304 C311 1.409 . S
C305 H297 0.930 . S
C305 C303 1.419 . S
C305 C306 1.362 . S
C306 H298 0.930 . S
C306 C305 1.362 . S
C306 C309 1.409 . S
C307 H299 0.930 . S
C307 C308 1.355 . S
C307 C309 1.415 . S
C308 C307 1.355 . S
C308 C310 1.419 . S
C309 C304 1.425 . S
C309 C306 1.409 . S
C309 C307 1.415 . S
C310 H300 0.930 . S
C310 C308 1.419 . S
C310 C311 1.362 . S
C311 H301 0.930 . S
C311 C304 1.409 . S
C311 C310 1.362 . S
H312 C318 0.930 . S
H313 C321 0.930 . S
H314 C322 0.930 . S
H315 C323 0.930 . S
H316 C326 0.930 . S
H317 C327 0.930 . S
C318 H312 0.930 . S
C318 C319 1.355 . S
C318 C320 1.415 . S
C319 C318 1.355 . S
C319 C321 1.419 . S
C320 C318 1.415 . S
C320 C325 1.425 . S
C320 C327 1.409 . S
C321 H313 0.930 . S
C321 C319 1.419 . S
C321 C322 1.362 . S
C322 H314 0.930 . S
C322 C321 1.362 . S
C322 C325 1.409 . S
C323 H315 0.930 . S
C323 C324 1.355 . S
C323 C325 1.415 . S
C324 C323 1.355 . S
C324 C326 1.419 . S
C325 C320 1.425 . S
C325 C322 1.409 . S
C325 C323 1.415 . S
C326 H316 0.930 . S
C326 C324 1.419 . S
C326 C327 1.362 . S
C327 H317 0.930 . S
C327 C320 1.409 . S
C327 C326 1.362 . S
H328 C334 0.930 . S
H329 C337 0.930 . S
H330 C338 0.930 . S
H331 C339 0.930 . S
H332 C342 0.930 . S
H333 C343 0.930 . S
C334 H328 0.930 . S
C334 C335 1.355 . S
C334 C336 1.415 . S
C335 C334 1.355 . S
C335 C337 1.419 . S
C336 C334 1.415 . S
C336 C341 1.425 . S
C336 C343 1.409 . S
C337 H329 0.930 . S
C337 C335 1.419 . S
C337 C338 1.362 . S
C338 H330 0.930 . S
C338 C337 1.362 . S
C338 C341 1.409 . S
C339 H331 0.930 . S
C339 C340 1.355 . S
C339 C341 1.415 . S
C340 C339 1.355 . S
C340 C342 1.419 . S
C341 C336 1.425 . S
C341 C338 1.409 . S
C341 C339 1.415 . S
C342 H332 0.930 . S
C342 C340 1.419 . S
C342 C343 1.362 . S
C343 H333 0.930 . S
C343 C336 1.409 . S
C343 C342 1.362 . S
H344 C350 0.930 . S
H345 C353 0.930 . S
H346 C354 0.930 . S
H347 C355 0.930 . S
H348 C358 0.930 . S
H349 C359 0.930 . S
C350 H344 0.930 . S
C350 C351 1.355 . S
C350 C352 1.415 . S
C351 C350 1.355 . S
C351 C353 1.419 . S
C352 C350 1.415 . S
C352 C357 1.425 . S
C352 C359 1.409 . S
C353 H345 0.930 . S
C353 C351 1.419 . S
C353 C354 1.362 . S
C354 H346 0.930 . S
C354 C353 1.362 . S
C354 C357 1.409 . S
C355 H347 0.930 . S
C355 C356 1.355 . S
C355 C357 1.415 . S
C356 C355 1.355 . S
C356 C358 1.419 . S
C357 C352 1.425 . S
C357 C354 1.409 . S
C357 C355 1.415 . S
C358 H348 0.930 . S
C358 C356 1.419 . S
C358 C359 1.362 . S
C359 H349 0.930 . S
C359 C352 1.409 . S
C359 C358 1.362 . S
H360 C366 0.930 . S
H361 C369 0.930 . S
H362 C370 0.930 . S
H363 C371 0.930 . S
H364 C374 0.930 . S
H365 C375 0.930 . S
C366 H360 0.930 . S
C366 C367 1.355 . S
C366 C368 1.415 . S
C367 C366 1.355 . S
C367 C369 1.419 . S
C368 C366 1.415 . S
C368 C373 1.425 . S
C368 C375 1.409 . S
C369 H361 0.930 . S
C369 C367 1.419 . S
C369 C370 1.362 . S
C370 H362 0.930 . S
C370 C369 1.362 . S
C370 C373 1.409 . S
C371 H363 0.930 . S
C371 C372 1.355 . S
C371 C373 1.415 . S
C372 C371 1.355 . S
C372 C374 1.419 . S
C373 C368 1.425 . S
C373 C370 1.409 . S
C373 C371 1.415 . S
C374 H364 0.930 . S
C374 C372 1.419 . S
C374 C375 1.362 . S
C375 H365 0.930 . S
C375 C368 1.409 . S
C375 C374 1.362 . S
H376 C382 0.930 . S
H377 C385 0.930 . S
H378 C386 0.930 . S
H379 C387 0.930 . S
H380 C390 0.930 . S
H381 C391 0.930 . S
C382 H376 0.930 . S
C382 C383 1.355 . S
C382 C384 1.415 . S
C383 C382 1.355 . S
C383 C385 1.419 . S
C384 C382 1.415 . S
C384 C389 1.425 . S
C384 C391 1.409 . S
C385 H377 0.930 . S
C385 C383 1.419 . S
C385 C386 1.362 . S
C386 H378 0.930 . S
C386 C385 1.362 . S
C386 C389 1.409 . S
C387 H379 0.930 . S
C387 C388 1.355 . S
C387 C389 1.415 . S
C388 C387 1.355 . S
C388 C390 1.419 . S
C389 C384 1.425 . S
C389 C386 1.409 . S
C389 C387 1.415 . S
C390 H380 0.930 . S
C390 C388 1.419 . S
C390 C391 1.362 . S
C391 H381 0.930 . S
C391 C384 1.409 . S
C391 C390 1.362 . S
H392 C398 0.930 . S
H393 C401 0.930 . S
H394 C402 0.930 . S
H395 C403 0.930 . S
H396 C406 0.930 . S
H397 C407 0.930 . S
C398 H392 0.930 . S
C398 C399 1.355 . S
C398 C400 1.415 . S
C399 C398 1.355 . S
C399 C401 1.419 . S
C400 C398 1.415 . S
C400 C405 1.425 . S
C400 C407 1.409 . S
C401 H393 0.930 . S
C401 C399 1.419 . S
C401 C402 1.362 . S
C402 H394 0.930 . S
C402 C401 1.362 . S
C402 C405 1.409 . S
C403 H395 0.930 . S
C403 C404 1.355 . S
C403 C405 1.415 . S
C404 C403 1.355 . S
C404 C406 1.419 . S
C405 C400 1.425 . S
C405 C402 1.409 . S
C405 C403 1.415 . S
C406 H396 0.930 . S
C406 C404 1.419 . S
C406 C407 1.362 . S
C407 H397 0.930 . S
C407 C400 1.409 . S
C407 C406 1.362 . S
H408 C414 0.930 . S
H409 C417 0.930 . S
H410 C418 0.930 . S
H411 C419 0.930 . S
H412 C422 0.930 . S
H413 C423 0.930 . S
C414 H408 0.930 . S
C414 C415 1.355 . S
C414 C416 1.415 . S
C415 C414 1.355 . S
C415 C417 1.419 . S
C416 C414 1.415 . S
C416 C421 1.425 . S
C416 C423 1.409 . S
C417 H409 0.930 . S
C417 C415 1.419 . S
C417 C418 1.362 . S
C418 H410 0.930 . S
C418 C417 1.362 . S
C418 C421 1.409 . S
C419 H411 0.930 . S
C419 C420 1.355 . S
C419 C421 1.415 . S
C420 C419 1.355 . S
C420 C422 1.419 . S
C421 C416 1.425 . S
C421 C418 1.409 . S
C421 C419 1.415 . S
C422 H412 0.930 . S
C422 C420 1.419 . S
C422 C423 1.362 . S
C423 H413 0.930 . S
C423 C416 1.409 . S
C423 C422 1.362 . S
H424 C430 0.930 . S
H425 C433 0.930 . S
H426 C434 0.930 . S
H427 C435 0.930 . S
H428 C438 0.930 . S
H429 C439 0.930 . S
C430 H424 0.930 . S
C430 C431 1.355 . S
C430 C432 1.415 . S
C431 C430 1.355 . S
C431 C433 1.419 . S
C432 C430 1.415 . S
C432 C437 1.425 . S
C432 C439 1.409 . S
C433 H425 0.930 . S
C433 C431 1.419 . S
C433 C434 1.362 . S
C434 H426 0.930 . S
C434 C433 1.362 . S
C434 C437 1.409 . S
C435 H427 0.930 . S
C435 C436 1.355 . S
C435 C437 1.415 . S
C436 C435 1.355 . S
C436 C438 1.419 . S
C437 C432 1.425 . S
C437 C434 1.409 . S
C437 C435 1.415 . S
C438 H428 0.930 . S
C438 C436 1.419 . S
C438 C439 1.362 . S
C439 H429 0.930 . S
C439 C432 1.409 . S
C439 C438 1.362 . S
H440 C446 0.930 . S
H441 C449 0.930 . S
H442 C450 0.930 . S
H443 C451 0.930 . S
H444 C454 0.930 . S
H445 C455 0.930 . S
C446 H440 0.930 . S
C446 C447 1.355 . S
C446 C448 1.415 . S
C447 C446 1.355 . S
C447 C449 1.419 . S
C448 C446 1.415 . S
C448 C453 1.425 . S
C448 C455 1.409 . S
C449 H441 0.930 . S
C449 C447 1.419 . S
C449 C450 1.362 . S
C450 H442 0.930 . S
C450 C449 1.362 . S
C450 C453 1.409 . S
C451 H443 0.930 . S
C451 C452 1.355 . S
C451 C453 1.415 . S
C452 C451 1.355 . S
C452 C454 1.419 . S
C453 C448 1.425 . S
C453 C450 1.409 . S
C453 C451 1.415 . S
C454 H444 0.930 . S
C454 C452 1.419 . S
C454 C455 1.362 . S
C455 H445 0.930 . S
C455 C448 1.409 . S
C455 C454 1.362 . S
H456 C462 0.930 . S
H457 C465 0.930 . S
H458 C466 0.930 . S
H459 C467 0.930 . S
H460 C470 0.930 . S
H461 C471 0.930 . S
C462 H456 0.930 . S
C462 C463 1.355 . S
C462 C464 1.415 . S
C463 C462 1.355 . S
C463 C465 1.419 . S
C464 C462 1.415 . S
C464 C469 1.425 . S
C464 C471 1.409 . S
C465 H457 0.930 . S
C465 C463 1.419 . S
C465 C466 1.362 . S
C466 H458 0.930 . S
C466 C465 1.362 . S
C466 C469 1.409 . S
C467 H459 0.930 . S
C467 C468 1.355 . S
C467 C469 1.415 . S
C468 C467 1.355 . S
C468 C470 1.419 . S
C469 C464 1.425 . S
C469 C466 1.409 . S
C469 C467 1.415 . S
C470 H460 0.930 . S
C470 C468 1.419 . S
C470 C471 1.362 . S
C471 H461 0.930 . S
C471 C464 1.409 . S
C471 C470 1.362 . S
H472 C478 0.930 . S
H473 C481 0.930 . S
H474 C482 0.930 . S
H475 C483 0.930 . S
H476 C486 0.930 . S
H477 C487 0.930 . S
C478 H472 0.930 . S
C478 C479 1.355 . S
C478 C480 1.415 . S
C479 C478 1.355 . S
C479 C481 1.419 . S
C480 C478 1.415 . S
C480 C485 1.425 . S
C480 C487 1.409 . S
C481 H473 0.930 . S
C481 C479 1.419 . S
C481 C482 1.362 . S
C482 H474 0.930 . S
C482 C481 1.362 . S
C482 C485 1.409 . S
C483 H475 0.930 . S
C483 C484 1.355 . S
C483 C485 1.415 . S
C484 C483 1.355 . S
C484 C486 1.419 . S
C485 C480 1.425 . S
C485 C482 1.409 . S
C485 C483 1.415 . S
C486 H476 0.930 . S
C486 C484 1.419 . S
C486 C487 1.362 . S
C487 H477 0.930 . S
C487 C480 1.409 . S
C487 C486 1.362 . S
H488 C494 0.930 . S
H489 C497 0.930 . S
H490 C498 0.930 . S
H491 C499 0.930 . S
H492 C502 0.930 . S
H493 C503 0.930 . S
C494 H488 0.930 . S
C494 C495 1.355 . S
C494 C496 1.415 . S
C495 C494 1.355 . S
C495 C497 1.419 . S
C496 C494 1.415 . S
C496 C501 1.425 . S
C496 C503 1.409 . S
C497 H489 0.930 . S
C497 C495 1.419 . S
C497 C498 1.362 . S
C498 H490 0.930 . S
C498 C497 1.362 . S
C498 C501 1.409 . S
C499 H491 0.930 . S
C499 C500 1.355 . S
C499 C501 1.415 . S
C500 C499 1.355 . S
C500 C502 1.419 . S
C501 C496 1.425 . S
C501 C498 1.409 . S
C501 C499 1.415 . S
C502 H492 0.930 . S
C502 C500 1.419 . S
C502 C503 1.362 . S
C503 H493 0.930 . S
C503 C496 1.409 . S
C503 C502 1.362 . S
H504 C510 0.930 . S
H505 C513 0.930 . S
H506 C514 0.930 . S
H507 C515 0.930 . S
H508 C518 0.930 . S
H509 C519 0.930 . S
C510 H504 0.930 . S
C510 C511 1.355 . S
C510 C512 1.415 . S
C511 C510 1.355 . S
C511 C513 1.419 . S
C512 C510 1.415 . S
C512 C517 1.425 . S
C512 C519 1.409 . S
C513 H505 0.930 . S
C513 C511 1.419 . S
C513 C514 1.362 . S
C514 H506 0.930 . S
C514 C513 1.362 . S
C514 C517 1.409 . S
C515 H507 0.930 . S
C515 C516 1.355 . S
C515 C517 1.415 . S
C516 C515 1.355 . S
C516 C518 1.419 . S
C517 C512 1.425 . S
C517 C514 1.409 . S
C517 C515 1.415 . S
C518 H508 0.930 . S
C518 C516 1.419 . S
C518 C519 1.362 . S
C519 H509 0.930 . S
C519 C512 1.409 . S
C519 C518 1.362 . S
H520 C526 0.930 . S
H521 C529 0.930 . S
H522 C530 0.930 . S
H523 C531 0.930 . S
H524 C534 0.930 . S
H525 C535 0.930 . S
C526 H520 0.930 . S
C526 C527 1.355 . S
C526 C528 1.415 . S
C527 C526 1.355 . S
C527 C529 1.419 . S
C528 C526 1.415 . S
C528 C533 1.425 . S
C528 C535 1.409 . S
C529 H521 0.930 . S
C529 C527 1.419 . S
C529 C530 1.362 . S
C530 H522 0.930 . S
C530 C529 1.362 . S
C530 C533 1.409 . S
C531 H523 0.930 . S
C531 C532 1.355 . S
C531 C533 1.415 . S
C532 C531 1.355 . S
C532 C534 1.419 . S
C533 C528 1.425 . S
C533 C530 1.409 . S
C533 C531 1.415 . S
C534 H524 0.930 . S
C534 C532 1.419 . S
C534 C535 1.362 . S
C535 H525 0.930 . S
C535 C528 1.409 . S
C535 C534 1.362 . S
H536 C542 0.930 . S
H537 C545 0.930 . S
H538 C546 0.930 . S
H539 C547 0.930 . S
H540 C550 0.930 . S
H541 C551 0.930 . S
C542 H536 0.930 . S
C542 C543 1.355 . S
C542 C544 1.415 . S
C543 C542 1.355 . S
C543 C545 1.419 . S
C544 C542 1.415 . S
C544 C549 1.425 . S
C544 C551 1.409 . S
C545 H537 0.930 . S
C545 C543 1.419 . S
C545 C546 1.362 . S
C546 H538 0.930 . S
C546 C545 1.362 . S
C546 C549 1.409 . S
C547 H539 0.930 . S
C547 C548 1.355 . S
C547 C549 1.415 . S
C548 C547 1.355 . S
C548 C550 1.419 . S
C549 C544 1.425 . S
C549 C546 1.409 . S
C549 C547 1.415 . S
C550 H540 0.930 . S
C550 C548 1.419 . S
C550 C551 1.362 . S
C551 H541 0.930 . S
C551 C544 1.409 . S
C551 C550 1.362 . S
H552 C558 0.930 . S
H553 C561 0.930 . S
H554 C562 0.930 . S
H555 C563 0.930 . S
H556 C566 0.930 . S
H557 C567 0.930 . S
C558 H552 0.930 . S
C558 C559 1.355 . S
C558 C560 1.415 . S
C559 C558 1.355 . S
C559 C561 1.419 . S
C560 C558 1.415 . S
C560 C565 1.425 . S
C560 C567 1.409 . S
C561 H553 0.930 . S
C561 C559 1.419 . S
C561 C562 1.362 . S
C562 H554 0.930 . S
C562 C561 1.362 . S
C562 C565 1.409 . S
C563 H555 0.930 . S
C563 C564 1.355 . S
C563 C565 1.415 . S
C564 C563 1.355 . S
C564 C566 1.419 . S
C565 C560 1.425 . S
C565 C562 1.409 . S
C565 C563 1.415 . S
C566 H556 0.930 . S
C566 C564 1.419 . S
C566 C567 1.362 . S
C567 H557 0.930 . S
C567 C560 1.409 . S
C567 C566 1.362 . S
H568 C574 0.930 . S
H569 C577 0.930 . S
H570 C578 0.930 . S
H571 C579 0.930 . S
H572 C582 0.930 . S
H573 C583 0.930 . S
C574 H568 0.930 . S
C574 C575 1.355 . S
C574 C576 1.415 . S
C575 C574 1.355 . S
C575 C577 1.419 . S
C576 C574 1.415 . S
C576 C581 1.425 . S
C576 C583 1.409 . S
C577 H569 0.930 . S
C577 C575 1.419 . S
C577 C578 1.362 . S
C578 H570 0.930 . S
C578 C577 1.362 . S
C578 C581 1.409 . S
C579 H571 0.930 . S
C579 C580 1.355 . S
C579 C581 1.415 . S
C580 C579 1.355 . S
C580 C582 1.419 . S
C581 C576 1.425 . S
C581 C578 1.409 . S
C581 C579 1.415 . S
C582 H572 0.930 . S
C582 C580 1.419 . S
C582 C583 1.362 . S
C583 H573 0.930 . S
C583 C576 1.409 . S
C583 C582 1.362 . S
H584 C590 0.930 . S
H585 C593 0.930 . S
H586 C594 0.930 . S
H587 C595 0.930 . S
H588 C598 0.930 . S
H589 C599 0.930 . S
C590 H584 0.930 . S
C590 C591 1.355 . S
C590 C592 1.415 . S
C591 C590 1.355 . S
C591 C593 1.419 . S
C592 C590 1.415 . S
C592 C597 1.425 . S
C592 C599 1.409 . S
C593 H585 0.930 . S
C593 C591 1.419 . S
C593 C594 1.362 . S
C594 H586 0.930 . S
C594 C593 1.362 . S
C594 C597 1.409 . S
C595 H587 0.930 . S
C595 C596 1.355 . S
C595 C597 1.415 . S
C596 C595 1.355 . S
C596 C598 1.419 . S
C597 C592 1.425 . S
C597 C594 1.409 . S
C597 C595 1.415 . S
C598 H588 0.930 . S
C598 C596 1.419 . S
C598 C599 1.362 . S
C599 H589 0.930 . S
C599 C592 1.409 . S
C599 C598 1.362 . S
H600 C606 0.930 . S
H601 C609 0.930 . S
H602 C610 0.930 . S
H603 C611 0.930 . S
H604 C614 0.930 . S
H605 C615 0.930 . S
C606 H600 0.930 . S
C606 C607 1.355 . S
C606 C608 1.415 . S
C607 C606 1.355 . S
C607 C609 1.419 . S
C608 C606 1.415 . S
C608 C613 1.425 . S
C608 C615 1.409 . S
C609 H601 0.930 . S
C609 C607 1.419 . S
C609 C610 1.362 . S
C610 H602 0.930 . S
C610 C609 1.362 . S
C610 C613 1.409 . S
C611 H603 0.930 . S
C611 C612 1.355 . S
C611 C613 1.415 . S
C612 C611 1.355 . S
C612 C614 1.419 . S
C613 C608 1.425 . S
C613 C610 1.409 . S
C613 C611 1.415 . S
C614 H604 0.930 . S
C614 C612 1.419 . S
C614 C615 1.362 . S
C615 H605 0.930 . S
C615 C608 1.409 . S
C615 C614 1.362 . S
C239 C5 0.992 . S
C244 C79 0.993 . S
C255 C14 0.963 . S
C260 C128 0.975 . S
C276 C154 2.472 . S
C271 C25 2.537 . S
C287 C34 2.474 . S
C292 C202 2.429 . S
C308 C114 2.016 . S
C303 C7 1.877 . S
C324 C82 0.669 . S
C319 C13 0.734 . S
C340 C203 1.905 . S
C335 C23 1.968 . S
C356 C171 1.730 . S
C351 C31 1.743 . S
C367 C4 1.367 . S
C372 C199 1.438 . S
C388 C131 2.348 . S
C383 C22 2.413 . S
C399 C32 2.356 . S
C404 C83 2.355 . S
C415 C16 0.979 . S
C420 C168 0.950 . S
C436 C88 1.036 . S
C431 C41 1.047 . S
C447 C50 0.993 . S
C452 C119 0.985 . S
C463 C61 2.528 . S
C468 C163 2.466 . S
C479 C67 2.481 . S
C484 C211 2.423 . S
C495 C40 1.934 . S
C500 C123 2.034 . S
C516 C91 0.639 . S
C511 C52 0.704 . S
C532 C194 1.918 . S
C527 C59 1.983 . S
C548 C162 1.705 . S
C543 C70 1.747 . S
C559 C43 1.349 . S
C564 C208 1.427 . S
C580 C122 2.356 . S
C575 C58 2.425 . S
C596 C74 2.321 . S
C591 C68 2.341 . S
C607 C49 0.914 . S
C612 C159 0.959 . S
