# Generated by pormake.
# Topology hwx, (6,3)-cn, num edge types: 1
# Building blocks:
#     Node 0, Type 0, BuildingBlock: IZENUY_clean_sbu_0, # of connection points: 6
#     Node 1, Type 0, BuildingBlock: IZENUY_clean_sbu_0, # of connection points: 6
#     Node 2, Type 0, BuildingBlock: IZENUY_clean_sbu_0, # of connection points: 6
#     Node 3, Type 0, BuildingBlock: IZENUY_clean_sbu_0, # of connection points: 6
#     Node 4, Type 1, BuildingBlock: VETTIZ_charged_linker_0, # of connection points: 3
#     Node 5, Type 1, BuildingBlock: VETTIZ_charged_linker_0, # of connection points: 3
#     Node 6, Type 1, BuildingBlock: VETTIZ_charged_linker_0, # of connection points: 3
#     Node 7, Type 1, BuildingBlock: VETTIZ_charged_linker_0, # of connection points: 3
#     Node 8, Type 1, BuildingBlock: VETTIZ_charged_linker_0, # of connection points: 3
#     Node 9, Type 1, BuildingBlock: VETTIZ_charged_linker_0, # of connection points: 3
#     Node 10, Type 1, BuildingBlock: VETTIZ_charged_linker_0, # of connection points: 3
#     Node 11, Type 1, BuildingBlock: VETTIZ_charged_linker_0, # of connection points: 3
#     Edge 12, Type (0, 1), BuildingBlock: UVAHIK_clean_linker_0, # of connection points: 2
#     Edge 13, Type (0, 1), BuildingBlock: UVAHIK_clean_linker_0, # of connection points: 2
#     Edge 14, Type (0, 1), BuildingBlock: UVAHIK_clean_linker_0, # of connection points: 2
#     Edge 15, Type (0, 1), BuildingBlock: UVAHIK_clean_linker_0, # of connection points: 2
#     Edge 16, Type (0, 1), BuildingBlock: UVAHIK_clean_linker_0, # of connection points: 2
#     Edge 17, Type (0, 1), BuildingBlock: UVAHIK_clean_linker_0, # of connection points: 2
#     Edge 18, Type (0, 1), BuildingBlock: UVAHIK_clean_linker_0, # of connection points: 2
#     Edge 19, Type (0, 1), BuildingBlock: UVAHIK_clean_linker_0, # of connection points: 2
#     Edge 20, Type (0, 1), BuildingBlock: UVAHIK_clean_linker_0, # of connection points: 2
#     Edge 21, Type (0, 1), BuildingBlock: UVAHIK_clean_linker_0, # of connection points: 2
#     Edge 22, Type (0, 1), BuildingBlock: UVAHIK_clean_linker_0, # of connection points: 2
#     Edge 23, Type (0, 1), BuildingBlock: UVAHIK_clean_linker_0, # of connection points: 2
#     Edge 24, Type (0, 1), BuildingBlock: UVAHIK_clean_linker_0, # of connection points: 2
#     Edge 25, Type (0, 1), BuildingBlock: UVAHIK_clean_linker_0, # of connection points: 2
#     Edge 26, Type (0, 1), BuildingBlock: UVAHIK_clean_linker_0, # of connection points: 2
#     Edge 27, Type (0, 1), BuildingBlock: UVAHIK_clean_linker_0, # of connection points: 2
#     Edge 28, Type (0, 1), BuildingBlock: UVAHIK_clean_linker_0, # of connection points: 2
#     Edge 29, Type (0, 1), BuildingBlock: UVAHIK_clean_linker_0, # of connection points: 2
#     Edge 30, Type (0, 1), BuildingBlock: UVAHIK_clean_linker_0, # of connection points: 2
#     Edge 31, Type (0, 1), BuildingBlock: UVAHIK_clean_linker_0, # of connection points: 2
#     Edge 32, Type (0, 1), BuildingBlock: UVAHIK_clean_linker_0, # of connection points: 2
#     Edge 33, Type (0, 1), BuildingBlock: UVAHIK_clean_linker_0, # of connection points: 2
#     Edge 34, Type (0, 1), BuildingBlock: UVAHIK_clean_linker_0, # of connection points: 2
#     Edge 35, Type (0, 1), BuildingBlock: UVAHIK_clean_linker_0, # of connection points: 2
# Relax obj value: 0.054
# Max RMSD: 0.077
# Mean RMSD: 0.070
data_MOF--net-hwx--node1-IZENUY_clean_sbu_0--node2-VETTIZ_charged_linker_0--edge1-UVAHIK_clean_linker_0
_symmetry_space_group_name_H-M    P1
_symmetry_Int_Tables_number       1
_symmetry_cell_setting            triclinic
loop_
_symmetry_equiv_pos_as_xyz
'x, y, z'
_cell_length_a     70.809111
_cell_length_b     70.803967
_cell_length_c     34.619602
_cell_angle_alpha  89.993059
_cell_angle_beta   90.00821
_cell_angle_gamma 89.996736
loop_
_atom_site_label
_atom_site_type_symbol
_atom_site_fract_x
_atom_site_fract_y
_atom_site_fract_z
_atom_type_partial_charge
Fe0 Fe 0.23701 0.20477 0.04331 0.0
Fe1 Fe 0.23767 0.20539 0.95477 0.0
O2 O 0.23318 0.19328 0.9986 0.0
Fe3 Fe 0.22482 0.16968 0.99796 0.0
O4 O 0.21064 0.17206 0.04211 0.0
O5 O 0.21238 0.20222 0.05667 0.0
O6 O 0.23117 0.22849 0.02556 0.0
C7 C 0.22185 0.23401 0.99645 0.0
C8 C 0.25004 0.16757 0.05739 0.0
O9 O 0.22085 0.22388 0.96658 0.0
C10 C 0.25154 0.17039 0.93697 0.0
O11 O 0.26184 0.20803 0.03265 0.0
O12 O 0.2576 0.21914 0.97395 0.0
O13 O 0.24524 0.16137 0.0247 0.0
O14 O 0.24373 0.18323 0.0695 0.0
C15 C 0.20404 0.18496 0.93912 0.0
O16 O 0.25478 0.18786 0.93955 0.0
O17 O 0.23749 0.16301 0.95381 0.0
C18 C 0.26804 0.21651 0.00322 0.0
O19 O 0.21864 0.19373 0.92792 0.0
O20 O 0.20385 0.17639 0.97108 0.0
C21 C 0.20398 0.18653 0.05877 0.0
Fe22 Fe 0.26529 0.70542 0.54504 0.0
Fe23 Fe 0.27822 0.6695 0.50256 0.0
O24 O 0.26924 0.69287 0.50156 0.0
Fe25 Fe 0.26407 0.70366 0.45668 0.0
O26 O 0.26923 0.72779 0.47277 0.0
O27 O 0.28117 0.72436 0.53074 0.0
O28 O 0.28537 0.69484 0.57076 0.0
C29 C 0.29975 0.68591 0.55884 0.0
C30 C 0.23348 0.71463 0.49885 0.0
O31 O 0.2994 0.67687 0.52749 0.0
C32 C 0.2524 0.66581 0.44483 0.0
O33 O 0.24907 0.68754 0.56253 0.0
O34 O 0.26664 0.66297 0.54804 0.0
O35 O 0.23936 0.70601 0.46929 0.0
O36 O 0.24447 0.71815 0.52686 0.0
C37 C 0.29748 0.68653 0.43976 0.0
O38 O 0.25756 0.66034 0.4778 0.0
O39 O 0.25788 0.68159 0.43182 0.0
C40 C 0.25274 0.67018 0.56569 0.0
O41 O 0.29158 0.67192 0.45721 0.0
O42 O 0.28853 0.70191 0.44175 0.0
C43 C 0.27905 0.73405 0.50048 0.0
Fe44 Fe 0.76456 0.80254 0.95457 0.0
Fe45 Fe 0.76484 0.80293 0.0432 0.0
O46 O 0.76961 0.81421 0.9986 0.0
Fe47 Fe 0.77953 0.83718 0.99824 0.0
O48 O 0.76776 0.8447 0.9536 0.0
O49 O 0.74875 0.82125 0.93928 0.0
O50 O 0.74359 0.79032 0.97313 0.0
C51 C 0.73324 0.7936 0.00223 0.0
C52 C 0.7997 0.82045 0.94023 0.0
O53 O 0.73988 0.80123 0.03225 0.0
C54 C 0.79889 0.81897 0.05934 0.0
O55 O 0.77998 0.78286 0.96662 0.0
O56 O 0.76916 0.77893 0.02544 0.0
O57 O 0.80017 0.82907 0.97211 0.0
O58 O 0.78459 0.81282 0.92832 0.0
C59 C 0.75445 0.84102 0.05732 0.0
O60 O 0.78956 0.80384 0.05686 0.0
O61 O 0.7932 0.83388 0.04283 0.0
C62 C 0.77833 0.77289 0.99661 0.0
O63 O 0.75952 0.82488 0.06931 0.0
O64 O 0.75951 0.8468 0.02445 0.0
C65 C 0.75322 0.83842 0.93664 0.0
Fe66 Fe 0.72148 0.33709 0.50301 0.0
Fe67 Fe 0.73719 0.30322 0.5482 0.0
O68 O 0.73187 0.31434 0.50365 0.0
Fe69 Fe 0.73697 0.30266 0.45965 0.0
O70 O 0.74179 0.32433 0.43241 0.0
O71 O 0.74112 0.34692 0.47578 0.0
O72 O 0.7334 0.34533 0.54693 0.0
C73 C 0.74808 0.33948 0.56407 0.0
C74 C 0.70242 0.31765 0.44299 0.0
O75 O 0.7528 0.32232 0.56243 0.0
C76 C 0.72373 0.27304 0.50759 0.0
O77 O 0.70114 0.32888 0.52993 0.0
O78 O 0.71715 0.31356 0.57434 0.0
O79 O 0.71232 0.30288 0.44545 0.0
O80 O 0.7076 0.33286 0.4591 0.0
C81 C 0.76862 0.29412 0.50101 0.0
O82 O 0.72192 0.28334 0.53708 0.0
O83 O 0.73305 0.27877 0.47867 0.0
C84 C 0.70184 0.32064 0.56216 0.0
O85 O 0.7582 0.29087 0.53001 0.0
O86 O 0.76194 0.30176 0.47105 0.0
C87 C 0.74631 0.34078 0.44327 0.0
C88 C 0.17693 0.54104 0.87747 0.0
C89 C 0.1766 0.56094 0.87723 0.0
C90 C 0.17243 0.57061 0.91178 0.0
C91 C 0.17164 0.54106 0.94679 0.0
C92 C 0.17436 0.53141 0.91256 0.0
C93 C 0.17503 0.51033 0.91877 0.0
H94 H 0.17815 0.43667 0.04383 0.0
C95 C 0.17151 0.52722 0.97864 0.0
C96 C 0.17319 0.50912 0.96251 0.0
H97 H 0.17893 0.43486 0.91886 0.0
H98 H 0.17555 0.46871 0.91641 0.0
H99 H 0.20624 0.46991 0.05047 0.0
H100 H 0.14547 0.46976 0.05337 0.0
H101 H 0.15393 0.48394 0.09156 0.0
H102 H 0.16001 0.45926 0.09007 0.0
H103 H 0.19348 0.46375 0.0934 0.0
H104 H 0.19961 0.48792 0.08244 0.0
C105 C 0.19443 0.50302 0.90455 0.0
C106 C 0.15785 0.50141 0.8979 0.0
C107 C 0.17603 0.5511 0.11618 0.0
C108 C 0.18013 0.5422 0.15151 0.0
C109 C 0.17995 0.52228 0.15309 0.0
C110 C 0.17684 0.51151 0.11958 0.0
C111 C 0.17412 0.52073 0.084 0.0
C112 C 0.17345 0.54021 0.08294 0.0
C113 C 0.17172 0.54777 0.04257 0.0
C114 C 0.1717 0.52961 0.01934 0.0
C115 C 0.173 0.51381 0.04368 0.0
C116 C 0.18944 0.56006 0.03431 0.0
C117 C 0.15266 0.55842 0.03921 0.0
C118 C 0.17766 0.4435 0.01587 0.0
C119 C 0.17881 0.43291 0.98151 0.0
C120 C 0.17781 0.44252 0.94583 0.0
C121 C 0.17599 0.46224 0.94442 0.0
C122 C 0.17532 0.47259 0.97902 0.0
C123 C 0.17602 0.46319 0.01396 0.0
C124 C 0.17568 0.4765 0.04783 0.0
C125 C 0.17409 0.49541 0.02747 0.0
C126 C 0.17404 0.49307 0.98713 0.0
C127 C 0.19461 0.47444 0.07003 0.0
C128 C 0.15792 0.47217 0.07233 0.0
H129 H 0.1672 0.56904 0.97179 0.0
H130 H 0.17993 0.53317 0.85136 0.0
H131 H 0.14556 0.51121 0.89781 0.0
H132 H 0.15262 0.48855 0.9125 0.0
H133 H 0.16126 0.49802 0.86736 0.0
H134 H 0.20591 0.51282 0.9135 0.0
H135 H 0.19475 0.50193 0.87255 0.0
H136 H 0.1983 0.48919 0.91689 0.0
H137 H 0.17566 0.56635 0.11394 0.0
H138 H 0.18308 0.51498 0.17982 0.0
H139 H 0.17732 0.49642 0.12243 0.0
H140 H 0.20222 0.55379 0.04791 0.0
H141 H 0.18771 0.57454 0.04615 0.0
H142 H 0.19301 0.56112 0.00343 0.0
H143 H 0.14183 0.55222 0.05877 0.0
H144 H 0.14638 0.55734 0.01002 0.0
H145 H 0.15424 0.57355 0.04705 0.0
H146 H 0.17152 0.58588 0.91219 0.0
C147 C 0.16988 0.5608 0.94641 0.0
C148 C 0.03926 0.80513 0.51919 0.0
C149 C 0.04975 0.80154 0.48543 0.0
C150 C 0.04176 0.80608 0.44928 0.0
C151 C 0.01294 0.81628 0.48052 0.0
C152 C 0.02098 0.81254 0.51605 0.0
C153 C 0.00774 0.8168 0.5489 0.0
H154 H 0.91951 0.83894 0.60818 0.0
C155 C 0.99348 0.82299 0.48708 0.0
C156 C 0.9904 0.82361 0.52712 0.0
H157 H 0.96777 0.82455 0.67874 0.0
H158 H 0.98761 0.82375 0.62194 0.0
H159 H 0.94083 0.86808 0.55345 0.0
H160 H 0.92798 0.80901 0.54089 0.0
H161 H 0.92208 0.82052 0.49751 0.0
H162 H 0.91038 0.82728 0.54139 0.0
H163 H 0.91789 0.86019 0.53856 0.0
H164 H 0.93658 0.8644 0.50404 0.0
C165 C 0.01656 0.83267 0.57386 0.0
C166 C 0.00397 0.79813 0.57094 0.0
C167 C 0.94926 0.83132 0.37288 0.0
C168 C 0.93024 0.83675 0.37003 0.0
C169 C 0.9206 0.84272 0.40346 0.0
C170 C 0.92954 0.84246 0.43956 0.0
C171 C 0.9483 0.83613 0.44226 0.0
C172 C 0.95803 0.83128 0.40912 0.0
C173 C 0.97812 0.82574 0.41738 0.0
C174 C 0.97862 0.82742 0.46111 0.0
C175 C 0.96103 0.83319 0.47552 0.0
C176 C 0.99138 0.84024 0.39757 0.0
C177 C 0.98089 0.80508 0.40374 0.0
C178 C 0.93436 0.83562 0.61136 0.0
C179 C 0.94205 0.83154 0.64784 0.0
C180 C 0.96153 0.82775 0.65093 0.0
C181 C 0.97298 0.82713 0.61787 0.0
C182 C 0.96485 0.83027 0.58135 0.0
C183 C 0.94594 0.83488 0.57869 0.0
C184 C 0.93966 0.83782 0.53766 0.0
C185 C 0.95785 0.83382 0.51598 0.0
C186 C 0.97251 0.82924 0.54167 0.0
C187 C 0.93326 0.85863 0.53296 0.0
C188 C 0.92413 0.82302 0.52863 0.0
H189 H 0.01815 0.81638 0.41831 0.0
H190 H 0.0449 0.80176 0.54743 0.0
H191 H 0.00252 0.78612 0.55042 0.0
H192 H 0.99067 0.79825 0.58749 0.0
H193 H 0.01579 0.79478 0.59091 0.0
H194 H 0.02483 0.84266 0.55572 0.0
H195 H 0.02628 0.82676 0.59598 0.0
H196 H 0.00583 0.84155 0.58825 0.0
H197 H 0.95708 0.82702 0.34747 0.0
H198 H 0.90592 0.84696 0.40187 0.0
H199 H 0.92135 0.84676 0.46408 0.0
H200 H 0.98431 0.85415 0.39366 0.0
H201 H 0.99589 0.83527 0.36857 0.0
H202 H 0.00405 0.84343 0.41516 0.0
H203 H 0.96858 0.79624 0.41225 0.0
H204 H 0.99328 0.79813 0.41673 0.0
H205 H 0.98224 0.80436 0.37181 0.0
H206 H 0.04967 0.80389 0.42287 0.0
C207 C 0.02347 0.81344 0.44667 0.0
C208 C 0.8205 0.46989 0.1262 0.0
C209 C 0.81966 0.45005 0.12864 0.0
C210 C 0.82402 0.43928 0.09551 0.0
C211 C 0.8273 0.46779 0.05757 0.0
C212 C 0.82444 0.47843 0.0905 0.0
C213 C 0.8254 0.49931 0.08236 0.0
H214 H 0.82547 0.57009 0.95137 0.0
C215 C 0.82923 0.48082 0.02452 0.0
C216 C 0.82849 0.49934 0.03886 0.0
H217 H 0.82628 0.57445 0.07607 0.0
H218 H 0.82877 0.54062 0.08131 0.0
H219 H 0.85884 0.53908 0.9466 0.0
H220 H 0.79822 0.53421 0.94631 0.0
H221 H 0.80715 0.51924 0.91019 0.0
H222 H 0.81129 0.54426 0.9069 0.0
H223 H 0.845 0.54474 0.90476 0.0
H224 H 0.85307 0.52096 0.91402 0.0
C225 C 0.84255 0.50763 0.10443 0.0
C226 C 0.80617 0.50816 0.09357 0.0
C227 C 0.8267 0.45449 0.88822 0.0
C228 C 0.82591 0.46302 0.85155 0.0
C229 C 0.8281 0.48278 0.84883 0.0
C230 C 0.8302 0.4939 0.88209 0.0
C231 C 0.83 0.48522 0.91861 0.0
C232 C 0.82873 0.46579 0.92114 0.0
C233 C 0.82872 0.45897 0.96227 0.0
C234 C 0.82985 0.47755 0.98406 0.0
C235 C 0.8304 0.49289 0.95836 0.0
C236 C 0.84653 0.44661 0.96871 0.0
C237 C 0.80976 0.44859 0.9695 0.0
C238 C 0.82646 0.56384 0.97984 0.0
C239 C 0.82537 0.57507 0.01333 0.0
C240 C 0.82661 0.56618 0.04976 0.0
C241 C 0.82816 0.54651 0.0528 0.0
C242 C 0.82847 0.53548 0.01911 0.0
C243 C 0.8281 0.54419 0.98341 0.0
C244 C 0.82902 0.53019 0.95076 0.0
C245 C 0.82993 0.51166 0.97282 0.0
C246 C 0.82928 0.51485 0.01285 0.0
C247 C 0.84732 0.53391 0.92746 0.0
C248 C 0.81057 0.53203 0.92694 0.0
H249 H 0.83059 0.43902 0.03588 0.0
H250 H 0.81741 0.47864 0.15106 0.0
H251 H 0.79432 0.49928 0.08277 0.0
H252 H 0.8039 0.52228 0.08099 0.0
H253 H 0.80476 0.50929 0.12544 0.0
H254 H 0.8536 0.49674 0.10962 0.0
H255 H 0.83826 0.51334 0.13299 0.0
H256 H 0.84984 0.51882 0.08781 0.0
H257 H 0.82491 0.43939 0.89151 0.0
H258 H 0.82792 0.48971 0.82094 0.0
H259 H 0.83148 0.50887 0.87811 0.0
H260 H 0.85809 0.45054 0.94846 0.0
H261 H 0.84339 0.43141 0.96418 0.0
H262 H 0.85271 0.44857 0.99781 0.0
H263 H 0.79782 0.45659 0.9565 0.0
H264 H 0.80617 0.44713 0.0003 0.0
H265 H 0.80991 0.43429 0.95632 0.0
H266 H 0.82416 0.424 0.09673 0.0
C267 C 0.82784 0.44803 0.06013 0.0
C268 C 0.05269 0.1759 0.37065 0.0
C269 C 0.07107 0.16859 0.36749 0.0
C270 C 0.08022 0.16174 0.40079 0.0
C271 C 0.0535 0.17105 0.44005 0.0
C272 C 0.04412 0.17681 0.40708 0.0
C273 C 0.02463 0.18411 0.41577 0.0
H274 H 0.95999 0.21186 0.54764 0.0
C275 C 0.04129 0.17518 0.47356 0.0
C276 C 0.02423 0.18254 0.45955 0.0
H277 H 0.95451 0.2104 0.42315 0.0
H278 H 0.98553 0.19683 0.41771 0.0
H279 H 0.9786 0.16997 0.55499 0.0
H280 H 0.00304 0.22567 0.5497 0.0
H281 H 0.01526 0.21281 0.58514 0.0
H282 H 0.9904 0.21733 0.59129 0.0
H283 H 0.97697 0.18639 0.59437 0.0
H284 H 0.99707 0.17096 0.58888 0.0
C285 C 0.01004 0.1708 0.39635 0.0
C286 C 0.02357 0.20491 0.40208 0.0
C287 C 0.06844 0.16983 0.6085 0.0
C288 C 0.06165 0.17488 0.64521 0.0
C289 C 0.04276 0.1809 0.64895 0.0
C290 C 0.03112 0.18269 0.61628 0.0
C291 C 0.03848 0.17847 0.57951 0.0
C292 C 0.05675 0.17183 0.57626 0.0
C293 C 0.06243 0.16834 0.53508 0.0
C294 C 0.04464 0.17424 0.51393 0.0
C295 C 0.03066 0.18023 0.54001 0.0
C296 C 0.06659 0.14698 0.53014 0.0
C297 C 0.07936 0.18147 0.52574 0.0
C298 C 0.96537 0.20844 0.51921 0.0
C299 C 0.95478 0.21244 0.48576 0.0
C300 C 0.96247 0.20788 0.44935 0.0
C301 C 0.98047 0.19985 0.44622 0.0
C302 C 0.99099 0.1963 0.47981 0.0
C303 C 0.98332 0.20032 0.51557 0.0
C304 C 0.99649 0.19523 0.54809 0.0
C305 C 0.01323 0.18736 0.52587 0.0
C306 C 0.00999 0.18829 0.48589 0.0
C307 C 0.98686 0.17993 0.57325 0.0
C308 C 0.00156 0.2136 0.57007 0.0
H309 H 0.07939 0.15784 0.46139 0.0
H310 H 0.04522 0.18092 0.34534 0.0
H311 H 0.03658 0.2127 0.4105 0.0
H312 H 0.01179 0.21284 0.41513 0.0
H313 H 0.02223 0.20572 0.37015 0.0
H314 H 0.01589 0.15636 0.39208 0.0
H315 H 0.00571 0.1762 0.36755 0.0
H316 H 0.99731 0.16863 0.41437 0.0
H317 H 0.08277 0.1648 0.60475 0.0
H318 H 0.0372 0.18488 0.67693 0.0
H319 H 0.017 0.18771 0.62082 0.0
H320 H 0.05815 0.13833 0.5507 0.0
H321 H 0.08173 0.14379 0.53545 0.0
H322 H 0.06256 0.14164 0.50125 0.0
H323 H 0.07722 0.19569 0.53871 0.0
H324 H 0.08128 0.18409 0.49463 0.0
H325 H 0.09273 0.17564 0.53758 0.0
H326 H 0.09441 0.15606 0.39896 0.0
C327 C 0.07154 0.16292 0.43702 0.0
C328 C 0.6733 0.96964 0.62876 0.0
C329 C 0.67456 0.94982 0.63121 0.0
C330 C 0.67315 0.93909 0.597 0.0
C331 C 0.67125 0.96771 0.55887 0.0
C332 C 0.67171 0.97824 0.59244 0.0
C333 C 0.67151 0.99915 0.58448 0.0
H334 H 0.67683 0.07061 0.4551 0.0
C335 C 0.6714 0.98092 0.52583 0.0
C336 C 0.6714 0.99938 0.54059 0.0
H337 H 0.67364 0.07424 0.57976 0.0
H338 H 0.67051 0.04048 0.58391 0.0
H339 H 0.70548 0.03731 0.45396 0.0
H340 H 0.64484 0.03692 0.44435 0.0
H341 H 0.65413 0.02161 0.40901 0.0
H342 H 0.66007 0.04636 0.40764 0.0
H343 H 0.69369 0.04393 0.41013 0.0
H344 H 0.69969 0.01968 0.42047 0.0
C345 C 0.68989 0.00776 0.60127 0.0
C346 C 0.65308 0.00748 0.60153 0.0
C347 C 0.67932 0.955 0.39031 0.0
C348 C 0.68301 0.96352 0.35437 0.0
C349 C 0.68209 0.98339 0.35157 0.0
C350 C 0.67843 0.99453 0.38429 0.0
C351 C 0.67585 0.98576 0.42036 0.0
C352 C 0.67607 0.96629 0.42275 0.0
C353 C 0.67408 0.95934 0.46355 0.0
C354 C 0.67274 0.97785 0.4854 0.0
C355 C 0.67373 0.99329 0.46002 0.0
C356 C 0.69221 0.94811 0.47401 0.0
C357 C 0.65553 0.94782 0.46643 0.0
C358 C 0.67551 0.06417 0.48335 0.0
C359 C 0.67553 0.07527 0.51713 0.0
C360 C 0.67343 0.06619 0.55318 0.0
C361 C 0.67179 0.0465 0.5556 0.0
C362 C 0.67246 0.03562 0.52169 0.0
C363 C 0.67406 0.04449 0.48631 0.0
C364 C 0.67497 0.03063 0.4534 0.0
C365 C 0.67349 0.012 0.47487 0.0
C366 C 0.67215 0.01501 0.5149 0.0
C367 C 0.69435 0.03298 0.43306 0.0
C368 C 0.65771 0.03402 0.42687 0.0
H369 H 0.67085 0.93893 0.53605 0.0
H370 H 0.67402 0.97832 0.65446 0.0
H371 H 0.64127 0.99717 0.59945 0.0
H372 H 0.64807 0.02005 0.58562 0.0
H373 H 0.65488 0.01116 0.63251 0.0
H374 H 0.70204 0.99802 0.59691 0.0
H375 H 0.68852 0.01036 0.63278 0.0
H376 H 0.69414 0.02102 0.58698 0.0
H377 H 0.67954 0.93979 0.39355 0.0
H378 H 0.68497 0.99042 0.32443 0.0
H379 H 0.6783 0.00957 0.38043 0.0
H380 H 0.70478 0.95399 0.45893 0.0
H381 H 0.69092 0.93304 0.46551 0.0
H382 H 0.6959 0.9489 0.50494 0.0
H383 H 0.64433 0.95412 0.44793 0.0
H384 H 0.64951 0.94776 0.49587 0.0
H385 H 0.65769 0.93302 0.45675 0.0
H386 H 0.67426 0.92384 0.5978 0.0
C387 C 0.67139 0.9479 0.56098 0.0
C388 C 0.55297 0.33376 0.12749 0.0
C389 C 0.57261 0.33672 0.1294 0.0
C390 C 0.58275 0.33939 0.09475 0.0
C391 C 0.55417 0.33497 0.05746 0.0
C392 C 0.54411 0.33287 0.09136 0.0
C393 C 0.52356 0.32876 0.08409 0.0
H394 H 0.45484 0.30479 0.95805 0.0
C395 C 0.54103 0.33207 0.02487 0.0
C396 C 0.52305 0.32852 0.04021 0.0
H397 H 0.45074 0.31083 0.08215 0.0
H398 H 0.48289 0.32183 0.08476 0.0
H399 H 0.47722 0.34441 0.94504 0.0
H400 H 0.49609 0.28678 0.95565 0.0
H401 H 0.50806 0.29727 0.91662 0.0
H402 H 0.48276 0.29524 0.91503 0.0
H403 H 0.47483 0.32781 0.9062 0.0
H404 H 0.49613 0.34147 0.91279 0.0
C405 C 0.5117 0.34519 0.101 0.0
C406 C 0.51907 0.30912 0.10161 0.0
C407 C 0.5667 0.33059 0.88825 0.0
C408 C 0.55846 0.32684 0.85214 0.0
C409 C 0.53878 0.32409 0.84988 0.0
C410 C 0.5276 0.32433 0.88337 0.0
C411 C 0.53621 0.32735 0.91948 0.0
C412 C 0.55539 0.33078 0.92131 0.0
C413 C 0.56221 0.33376 0.96193 0.0
C414 C 0.54397 0.33142 0.98435 0.0
C415 C 0.52882 0.32751 0.95945 0.0
C416 C 0.57008 0.35412 0.96511 0.0
C417 C 0.57671 0.31797 0.97139 0.0
C418 C 0.46076 0.30872 0.98575 0.0
C419 C 0.45027 0.30662 0.02002 0.0
C420 C 0.45862 0.31185 0.05543 0.0
C421 C 0.4773 0.31831 0.05689 0.0
C422 C 0.48784 0.31949 0.02263 0.0
C423 C 0.47942 0.3152 0.98772 0.0
C424 C 0.49272 0.31771 0.95421 0.0
C425 C 0.51063 0.32375 0.97492 0.0
C426 C 0.50772 0.32455 0.01503 0.0
C427 C 0.48487 0.33356 0.92785 0.0
C428 C 0.49504 0.29834 0.93395 0.0
H429 H 0.58223 0.34049 0.0337 0.0
H430 H 0.54469 0.33191 0.15351 0.0
H431 H 0.5309 0.29909 0.09631 0.0
H432 H 0.50658 0.30231 0.0887 0.0
H433 H 0.51697 0.31009 0.13335 0.0
H434 H 0.51958 0.35878 0.09958 0.0
H435 H 0.50809 0.34258 0.13176 0.0
H436 H 0.49859 0.34781 0.08449 0.0
H437 H 0.58174 0.33309 0.89085 0.0
H438 H 0.53212 0.32115 0.82235 0.0
H439 H 0.51276 0.32177 0.87995 0.0
H440 H 0.56188 0.36403 0.94662 0.0
H441 H 0.58506 0.35478 0.95564 0.0
H442 H 0.56891 0.36 0.99458 0.0
H443 H 0.5729 0.30454 0.95664 0.0
H444 H 0.57716 0.31428 0.00234 0.0
H445 H 0.59112 0.32197 0.96174 0.0
H446 H 0.5979 0.34145 0.09517 0.0
C447 C 0.57364 0.33864 0.05892 0.0
C448 C 0.32655 0.03829 0.36575 0.0
C449 C 0.32929 0.05798 0.36275 0.0
C450 C 0.33542 0.06797 0.39574 0.0
C451 C 0.33259 0.03978 0.43471 0.0
C452 C 0.32848 0.02949 0.4019 0.0
C453 C 0.32611 0.00876 0.41069 0.0
H454 H 0.31505 0.93967 0.54424 0.0
C455 C 0.33121 0.02708 0.46835 0.0
C456 C 0.3278 0.00877 0.45455 0.0
H457 H 0.32048 0.9337 0.4203 0.0
H458 H 0.32446 0.96735 0.41389 0.0
H459 H 0.34984 0.97084 0.55422 0.0
H460 H 0.28945 0.97512 0.54303 0.0
H461 H 0.29648 0.99401 0.5725 0.0
H462 H 0.30037 0.97005 0.58859 0.0
H463 H 0.33336 0.96219 0.58951 0.0
H464 H 0.34107 0.98639 0.58987 0.0
C465 C 0.34251 0.99779 0.39118 0.0
C466 C 0.30623 0.00252 0.39728 0.0
C467 C 0.32772 0.05575 0.60237 0.0
C468 C 0.32168 0.04867 0.63832 0.0
C469 C 0.31853 0.02902 0.64186 0.0
C470 C 0.32068 0.01692 0.61003 0.0
C471 C 0.3257 0.02449 0.57392 0.0
C472 C 0.32912 0.04361 0.57063 0.0
C473 C 0.33244 0.04959 0.52954 0.0
C474 C 0.33058 0.03084 0.50863 0.0
C475 C 0.32685 0.01615 0.53478 0.0
C476 C 0.35268 0.05778 0.52631 0.0
C477 C 0.31651 0.06364 0.51846 0.0
C478 C 0.31737 0.94553 0.51574 0.0
C479 C 0.31735 0.93388 0.48276 0.0
C480 C 0.32009 0.94228 0.44618 0.0
C481 C 0.32259 0.96183 0.44247 0.0
C482 C 0.32241 0.97323 0.47562 0.0
C483 C 0.32003 0.96504 0.51153 0.0
C484 C 0.32044 0.97942 0.54356 0.0
C485 C 0.32425 0.99743 0.521 0.0
C486 C 0.32502 0.99374 0.48115 0.0
C487 C 0.33696 0.97451 0.57104 0.0
C488 C 0.30077 0.97968 0.56328 0.0
H489 H 0.34127 0.06752 0.45569 0.0
H490 H 0.32226 0.03001 0.34099 0.0
H491 H 0.29537 0.01275 0.40736 0.0
H492 H 0.30202 0.98864 0.40891 0.0
H493 H 0.30546 0.00182 0.36526 0.0
H494 H 0.35474 0.00713 0.3847 0.0
H495 H 0.33795 0.99132 0.36348 0.0
H496 H 0.34836 0.98663 0.41018 0.0
H497 H 0.33071 0.07061 0.59837 0.0
H498 H 0.31365 0.02301 0.66881 0.0
H499 H 0.3178 0.00221 0.61449 0.0
H500 H 0.36231 0.05126 0.54793 0.0
H501 H 0.35276 0.07327 0.53131 0.0
H502 H 0.35931 0.05471 0.49805 0.0
H503 H 0.30267 0.05877 0.53002 0.0
H504 H 0.3143 0.06506 0.48714 0.0
H505 H 0.31933 0.07789 0.53058 0.0
H506 H 0.33858 0.08292 0.39414 0.0
C507 C 0.33706 0.05901 0.43156 0.0
C508 C 0.53626 0.70872 0.0192 0.0
C509 C 0.54757 0.71093 0.9862 0.0
C510 C 0.54061 0.70506 0.95004 0.0
C511 C 0.51116 0.69552 0.97983 0.0
C512 C 0.51826 0.70078 0.01543 0.0
C513 C 0.50464 0.69682 0.04773 0.0
H514 H 0.41881 0.66597 0.10572 0.0
C515 C 0.49199 0.68789 0.98585 0.0
C516 C 0.48823 0.68826 0.02564 0.0
H517 H 0.46349 0.68964 0.1756 0.0
H518 H 0.48349 0.69223 0.11935 0.0
H519 H 0.42379 0.69582 0.03669 0.0
H520 H 0.44469 0.63923 0.05246 0.0
H521 H 0.43892 0.64158 0.00333 0.0
H522 H 0.4206 0.64384 0.03937 0.0
H523 H 0.40876 0.6754 0.03642 0.0
H524 H 0.42038 0.68345 0.99329 0.0
C525 C 0.49931 0.7159 0.06678 0.0
C526 C 0.51392 0.68235 0.07547 0.0
C527 C 0.45009 0.67372 0.87046 0.0
C528 C 0.43164 0.66662 0.86727 0.0
C529 C 0.42225 0.66015 0.90056 0.0
C530 C 0.43074 0.66169 0.93698 0.0
C531 C 0.44881 0.66976 0.94006 0.0
C532 C 0.45847 0.67495 0.90702 0.0
C533 C 0.47802 0.68209 0.91574 0.0
C534 C 0.478 0.68147 0.9596 0.0
C535 C 0.46076 0.67448 0.97366 0.0
C536 C 0.47967 0.70254 0.90025 0.0
C537 C 0.49254 0.66811 0.89811 0.0
C538 C 0.43303 0.67141 0.10888 0.0
C539 C 0.43967 0.67755 0.14501 0.0
C540 C 0.45808 0.68493 0.14795 0.0
C541 C 0.46965 0.6864 0.11527 0.0
C542 C 0.46265 0.68067 0.07911 0.0
C543 C 0.44465 0.67325 0.07639 0.0
C544 C 0.43922 0.66879 0.03538 0.0
C545 C 0.45702 0.67459 0.01397 0.0
C546 C 0.47066 0.68152 0.03976 0.0
C547 C 0.42208 0.68136 0.02463 0.0
C548 C 0.4355 0.64728 0.03223 0.0
H549 H 0.51779 0.69346 0.91832 0.0
H550 H 0.54143 0.71286 0.04742 0.0
H551 H 0.52252 0.6719 0.05912 0.0
H552 H 0.5035 0.67377 0.09146 0.0
H553 H 0.52341 0.68948 0.09642 0.0
H554 H 0.49888 0.72745 0.04499 0.0
H555 H 0.50975 0.71996 0.08923 0.0
H556 H 0.48504 0.71584 0.07967 0.0
H557 H 0.45769 0.67844 0.84508 0.0
H558 H 0.40803 0.65458 0.89853 0.0
H559 H 0.42273 0.65694 0.96142 0.0
H560 H 0.46702 0.71093 0.90853 0.0
H561 H 0.4807 0.70264 0.86823 0.0
H562 H 0.49192 0.71024 0.91199 0.0
H563 H 0.48632 0.65384 0.8937 0.0
H564 H 0.50477 0.66568 0.91742 0.0
H565 H 0.4977 0.67312 0.8696 0.0
H566 H 0.54915 0.70669 0.92429 0.0
C567 C 0.52243 0.69743 0.94665 0.0
C568 C 0.18159 0.1662 0.09603 0.0
C569 C 0.18772 0.18434 0.08525 0.0
C570 C 0.16716 0.16396 0.12308 0.0
C571 C 0.1269 0.18713 0.16931 0.0
H572 H 0.13854 0.15428 0.25571 0.0
C573 C 0.08244 0.18602 0.30925 0.0
C574 C 0.08124 0.16909 0.33021 0.0
C575 C 0.09382 0.18718 0.27637 0.0
C576 C 0.13482 0.1632 0.23148 0.0
H577 H 0.18295 0.21436 0.09321 0.0
H578 H 0.15749 0.21037 0.14033 0.0
H579 H 0.16117 0.1577 0.20341 0.0
H580 H 0.09005 0.13984 0.33229 0.0
H581 H 0.10936 0.14156 0.27403 0.0
H582 H 0.10043 0.19247 0.19704 0.0
C583 C 0.16399 0.19794 0.12786 0.0
C584 C 0.14787 0.16523 0.2016 0.0
C585 C 0.17862 0.2002 0.10109 0.0
C586 C 0.09093 0.15311 0.3168 0.0
C587 C 0.10208 0.15417 0.2836 0.0
C588 C 0.11368 0.1849 0.19899 0.0
C589 C 0.15838 0.17979 0.13958 0.0
C590 C 0.14411 0.1773 0.17039 0.0
C591 C 0.10406 0.17135 0.26348 0.0
C592 C 0.11754 0.17301 0.23064 0.0
H593 H 0.18824 0.15367 0.08433 0.0
H594 H 0.16296 0.14981 0.13138 0.0
H595 H 0.12362 0.19641 0.14535 0.0
H596 H 0.07524 0.1986 0.31928 0.0
H597 H 0.09516 0.20071 0.26205 0.0
C598 C 0.2476 0.63989 0.60163 0.0
C599 C 0.24179 0.65842 0.59311 0.0
C600 C 0.23788 0.62907 0.62888 0.0
C601 C 0.20677 0.63442 0.71346 0.0
H602 H 0.20249 0.57998 0.70449 0.0
C603 C 0.1938 0.58755 0.84547 0.0
C604 C 0.18183 0.57181 0.84211 0.0
C605 C 0.19895 0.59797 0.81299 0.0
C606 C 0.20333 0.5952 0.70725 0.0
H607 H 0.22069 0.67981 0.60549 0.0
H608 H 0.20357 0.6608 0.65264 0.0
H609 H 0.21466 0.59833 0.65027 0.0
H610 H 0.16597 0.55456 0.80182 0.0
H611 H 0.17496 0.57292 0.74468 0.0
H612 H 0.19535 0.63134 0.77024 0.0
C613 C 0.2159 0.65478 0.63881 0.0
C614 C 0.21052 0.6057 0.67634 0.0
C615 C 0.22568 0.66567 0.61167 0.0
C616 C 0.17528 0.56659 0.80529 0.0
C617 C 0.18043 0.57709 0.77262 0.0
C618 C 0.19954 0.62394 0.74424 0.0
C619 C 0.22204 0.63644 0.64815 0.0
C620 C 0.21268 0.62541 0.67935 0.0
C621 C 0.19227 0.59297 0.77618 0.0
C622 C 0.19811 0.60417 0.74185 0.0
H623 H 0.25994 0.63384 0.5879 0.0
H624 H 0.2432 0.61512 0.63571 0.0
H625 H 0.20836 0.64953 0.717 0.0
H626 H 0.1995 0.59168 0.87325 0.0
H627 H 0.20849 0.60979 0.81671 0.0
C628 C 0.82416 0.8036 0.09923 0.0
C629 C 0.81514 0.82005 0.08604 0.0
C630 C 0.83902 0.80477 0.12577 0.0
C631 C 0.87242 0.83911 0.17135 0.0
H632 H 0.87397 0.80168 0.25306 0.0
C633 C 0.90878 0.84999 0.31929 0.0
C634 C 0.92008 0.83511 0.33287 0.0
C635 C 0.89816 0.84783 0.28556 0.0
C636 C 0.87383 0.8121 0.23014 0.0
H637 H 0.81471 0.85063 0.09007 0.0
H638 H 0.83996 0.85264 0.13719 0.0
H639 H 0.85121 0.79827 0.20078 0.0
H640 H 0.92932 0.80642 0.32193 0.0
H641 H 0.91044 0.80254 0.26323 0.0
H642 H 0.89449 0.85337 0.20217 0.0
C643 C 0.83606 0.83884 0.12635 0.0
C644 C 0.86086 0.81012 0.20003 0.0
C645 C 0.82144 0.83768 0.09947 0.0
C646 C 0.92083 0.81815 0.31184 0.0
C647 C 0.90997 0.81589 0.27849 0.0
C648 C 0.88519 0.84122 0.20182 0.0
C649 C 0.84499 0.8224 0.14008 0.0
C650 C 0.85982 0.82372 0.17045 0.0
C651 C 0.89842 0.83065 0.26527 0.0
C652 C 0.88587 0.82783 0.23164 0.0
H653 H 0.81973 0.78982 0.0891 0.0
H654 H 0.84576 0.79183 0.13511 0.0
H655 H 0.87235 0.84964 0.14868 0.0
H656 H 0.90804 0.86321 0.33497 0.0
H657 H 0.88925 0.85937 0.27606 0.0
C658 C 0.77321 0.34617 0.61365 0.0
C659 C 0.75858 0.35264 0.58952 0.0
C660 C 0.78223 0.35856 0.63922 0.0
C661 C 0.77382 0.40337 0.69044 0.0
H662 H 0.82767 0.40209 0.71063 0.0
C663 C 0.80845 0.4583 0.78926 0.0
C664 C 0.82132 0.45149 0.81687 0.0
C665 C 0.80241 0.44678 0.75896 0.0
C666 C 0.81259 0.40252 0.70548 0.0
H667 H 0.74257 0.37739 0.57221 0.0
H668 H 0.75837 0.39889 0.61636 0.0
H669 H 0.81407 0.38072 0.66256 0.0
H670 H 0.83869 0.42751 0.83298 0.0
H671 H 0.82781 0.40725 0.78049 0.0
H672 H 0.7722 0.42491 0.73348 0.0
C673 C 0.76262 0.38419 0.61614 0.0
C674 C 0.80481 0.39027 0.67799 0.0
C675 C 0.75361 0.37185 0.59069 0.0
C676 C 0.82857 0.43311 0.81251 0.0
C677 C 0.82249 0.42156 0.78218 0.0
C678 C 0.78157 0.41555 0.71783 0.0
C679 C 0.77681 0.37765 0.64116 0.0
C680 C 0.78532 0.39061 0.67011 0.0
C681 C 0.80902 0.42813 0.75555 0.0
C682 C 0.80105 0.41533 0.72566 0.0
H683 H 0.77743 0.33147 0.61341 0.0
H684 H 0.79304 0.35305 0.65828 0.0
H685 H 0.7587 0.40371 0.6857 0.0
H686 H 0.80242 0.4723 0.79187 0.0
H687 H 0.79225 0.45239 0.73855 0.0
C688 C 0.67254 0.33267 0.42015 0.0
C689 C 0.6859 0.31809 0.41693 0.0
C690 C 0.65781 0.33421 0.39357 0.0
C691 C 0.63288 0.30865 0.31444 0.0
H692 H 0.62163 0.35946 0.2795 0.0
C693 C 0.57776 0.32259 0.19515 0.0
C694 C 0.58274 0.33602 0.16699 0.0
C695 C 0.58829 0.32086 0.2291 0.0
C696 C 0.62465 0.34516 0.28876 0.0
H697 H 0.69396 0.29331 0.38405 0.0
H698 H 0.6686 0.2963 0.33689 0.0
H699 H 0.64399 0.35476 0.33178 0.0
H700 H 0.6022 0.35872 0.15334 0.0
H701 H 0.62095 0.35524 0.21168 0.0
H702 H 0.61433 0.29903 0.26989 0.0
C703 C 0.66923 0.30635 0.36041 0.0
C704 C 0.63729 0.34247 0.31921 0.0
C705 C 0.68385 0.30468 0.38734 0.0
C706 C 0.59814 0.34803 0.17413 0.0
C707 C 0.60875 0.3462 0.20791 0.0
C708 C 0.62036 0.31135 0.28372 0.0
C709 C 0.65622 0.32134 0.3628 0.0
C710 C 0.64174 0.32417 0.33217 0.0
C711 C 0.60412 0.33242 0.23561 0.0
C712 C 0.61628 0.32963 0.27017 0.0
H713 H 0.6736 0.34307 0.44301 0.0
H714 H 0.64779 0.34566 0.39688 0.0
H715 H 0.63576 0.29438 0.32401 0.0
H716 H 0.56609 0.31298 0.19047 0.0
H717 H 0.58415 0.31029 0.25006 0.0
C718 C 0.27076 0.16686 0.87674 0.0
C719 C 0.26266 0.15875 0.90987 0.0
C720 C 0.27937 0.15544 0.8489 0.0
C721 C 0.30273 0.11104 0.82972 0.0
H722 H 0.27771 0.11214 0.73018 0.0
C723 C 0.31932 0.05632 0.70964 0.0
C724 C 0.31733 0.06189 0.6708 0.0
C725 C 0.31404 0.06845 0.73971 0.0
C726 C 0.28523 0.11187 0.75739 0.0
H727 H 0.25812 0.13255 0.94097 0.0
H728 H 0.27378 0.11266 0.8927 0.0
H729 H 0.26729 0.13329 0.78115 0.0
H730 H 0.30821 0.08499 0.63377 0.0
H731 H 0.30066 0.10639 0.68552 0.0
H732 H 0.32111 0.09008 0.80589 0.0
C733 C 0.27318 0.12779 0.88816 0.0
C734 C 0.27911 0.12395 0.78666 0.0
C735 C 0.26417 0.13915 0.91558 0.0
C736 C 0.31041 0.08014 0.66307 0.0
C737 C 0.30559 0.09239 0.69302 0.0
C738 C 0.30919 0.09922 0.8001 0.0
C739 C 0.28045 0.13581 0.85422 0.0
C740 C 0.28773 0.12357 0.82307 0.0
C741 C 0.30695 0.08664 0.7318 0.0
C742 C 0.30046 0.09941 0.76349 0.0
H743 H 0.26973 0.18191 0.87152 0.0
H744 H 0.28491 0.16188 0.82287 0.0
H745 H 0.30957 0.11055 0.8577 0.0
H746 H 0.32485 0.04253 0.71698 0.0
H747 H 0.31516 0.06336 0.76909 0.0
C748 C 0.32294 0.70118 0.39941 0.0
C749 C 0.31367 0.68493 0.413 0.0
C750 C 0.33784 0.69963 0.37312 0.0
C751 C 0.35563 0.66933 0.29672 0.0
H752 H 0.40291 0.69609 0.31073 0.0
C753 C 0.41657 0.66098 0.18801 0.0
C754 C 0.42704 0.67722 0.17902 0.0
C755 C 0.40387 0.66107 0.21889 0.0
C756 C 0.38972 0.6887 0.30609 0.0
H757 H 0.31286 0.65431 0.40996 0.0
H758 H 0.33866 0.6517 0.36349 0.0
H759 H 0.37841 0.69826 0.36013 0.0
H760 H 0.43248 0.70629 0.19501 0.0
H761 H 0.40992 0.70672 0.24807 0.0
H762 H 0.36643 0.66032 0.24219 0.0
C763 C 0.33442 0.66559 0.37336 0.0
C764 C 0.37574 0.6899 0.33449 0.0
C765 C 0.31973 0.6671 0.40007 0.0
C766 C 0.42475 0.69349 0.20169 0.0
C767 C 0.41185 0.69369 0.2322 0.0
C768 C 0.36947 0.66834 0.26808 0.0
C769 C 0.34355 0.68184 0.35952 0.0
C770 C 0.35857 0.68025 0.33001 0.0
C771 C 0.40113 0.67752 0.24105 0.0
C772 C 0.38669 0.67805 0.27231 0.0
H773 H 0.31865 0.7151 0.40899 0.0
H774 H 0.34459 0.71238 0.36268 0.0
H775 H 0.3424 0.66194 0.29238 0.0
H776 H 0.41824 0.6482 0.17114 0.0
H777 H 0.39617 0.64823 0.22529 0.0
C778 C 0.72752 0.84404 0.88783 0.0
C779 C 0.74261 0.85098 0.91015 0.0
C780 C 0.71833 0.85574 0.86122 0.0
C781 C 0.72683 0.89829 0.80298 0.0
H782 H 0.67272 0.89723 0.78584 0.0
C783 C 0.69233 0.9484 0.69383 0.0
C784 C 0.67902 0.94039 0.66852 0.0
C785 C 0.69835 0.93857 0.72656 0.0
C786 C 0.68786 0.89759 0.79014 0.0
H787 H 0.75928 0.87592 0.92312 0.0
H788 H 0.7432 0.89625 0.87702 0.0
H789 H 0.68655 0.87779 0.83695 0.0
H790 H 0.6608 0.91619 0.65915 0.0
H791 H 0.67168 0.89882 0.71574 0.0
H792 H 0.72831 0.91772 0.75593 0.0
C793 C 0.7387 0.88169 0.87957 0.0
C794 C 0.69578 0.88646 0.81939 0.0
C795 C 0.74787 0.87003 0.90613 0.0
C796 C 0.67127 0.92265 0.67771 0.0
C797 C 0.67736 0.91278 0.71042 0.0
C798 C 0.71895 0.90935 0.77379 0.0
C799 C 0.72403 0.87461 0.85638 0.0
C800 C 0.71536 0.88668 0.82608 0.0
C801 C 0.69131 0.92044 0.73472 0.0
C802 C 0.69938 0.90913 0.76694 0.0
H803 H 0.72305 0.82946 0.89031 0.0
H804 H 0.70716 0.84983 0.84359 0.0
H805 H 0.74201 0.89851 0.80685 0.0
H806 H 0.69875 0.96194 0.68755 0.0
H807 H 0.70886 0.94503 0.74504 0.0
C808 C 0.83304 0.83031 0.92534 0.0
C809 C 0.81649 0.82061 0.91472 0.0
C810 C 0.84863 0.83077 0.90049 0.0
C811 C 0.86935 0.80636 0.81587 0.0
H812 H 0.89429 0.85423 0.79672 0.0
C813 C 0.91231 0.82021 0.67885 0.0
C814 C 0.92948 0.83002 0.68195 0.0
C815 C 0.90036 0.81848 0.71063 0.0
C816 C 0.88766 0.8407 0.80222 0.0
H817 H 0.8035 0.80357 0.86986 0.0
H818 H 0.83046 0.80457 0.82663 0.0
H819 H 0.86998 0.85211 0.84667 0.0
H820 H 0.94765 0.84571 0.7208 0.0
H821 H 0.92658 0.84272 0.77673 0.0
H822 H 0.88663 0.79507 0.77076 0.0
C823 C 0.83153 0.81163 0.85429 0.0
C824 C 0.87376 0.83948 0.83082 0.0
C825 C 0.81599 0.81119 0.87901 0.0
C826 C 0.93451 0.83803 0.71766 0.0
C827 C 0.92243 0.83642 0.74952 0.0
C828 C 0.88317 0.8076 0.78728 0.0
C829 C 0.848 0.82147 0.86463 0.0
C830 C 0.86416 0.82238 0.83734 0.0
C831 C 0.90527 0.82655 0.7463 0.0
C832 C 0.89217 0.82487 0.77955 0.0
H833 H 0.83394 0.83766 0.95272 0.0
H834 H 0.86118 0.83834 0.9094 0.0
H835 H 0.86252 0.79288 0.82077 0.0
H836 H 0.90816 0.81368 0.65184 0.0
H837 H 0.88713 0.81101 0.70711 0.0
C838 C 0.75583 0.34863 0.37577 0.0
C839 C 0.75529 0.35369 0.41503 0.0
C840 C 0.76309 0.36102 0.34829 0.0
C841 C 0.79527 0.39964 0.33088 0.0
H842 H 0.76323 0.409 0.24204 0.0
C843 C 0.81797 0.44727 0.20139 0.0
C844 C 0.81303 0.44052 0.1645 0.0
C845 C 0.81099 0.43846 0.23474 0.0
C846 C 0.77244 0.40643 0.26644 0.0
H847 H 0.76262 0.37553 0.45635 0.0
H848 H 0.7758 0.39719 0.40782 0.0
H849 H 0.75134 0.39016 0.29556 0.0
H850 H 0.79665 0.4193 0.13401 0.0
H851 H 0.78524 0.40365 0.19155 0.0
H852 H 0.8167 0.41527 0.30096 0.0
C853 C 0.77034 0.38362 0.39866 0.0
C854 C 0.76557 0.39573 0.29717 0.0
C855 C 0.76276 0.37127 0.4263 0.0
C856 C 0.80106 0.42473 0.16183 0.0
C857 C 0.79421 0.41592 0.19496 0.0
C858 C 0.80227 0.41022 0.29979 0.0
C859 C 0.77023 0.37869 0.35936 0.0
C860 C 0.77703 0.39189 0.32927 0.0
C861 C 0.7989 0.42276 0.23185 0.0
C862 C 0.79107 0.41333 0.26679 0.0
H863 H 0.75024 0.33522 0.36598 0.0
H864 H 0.76307 0.35681 0.3182 0.0
H865 H 0.80437 0.3968 0.35536 0.0
H866 H 0.82727 0.45932 0.20452 0.0
H867 H 0.81483 0.44413 0.26271 0.0
C868 C 0.18928 0.19019 0.87447 0.0
C869 C 0.18783 0.18314 0.91231 0.0
C870 C 0.17452 0.18787 0.8483 0.0
C871 C 0.12374 0.1799 0.83923 0.0
H872 H 0.13749 0.16376 0.73593 0.0
C873 C 0.06921 0.16792 0.71499 0.0
C874 C 0.07473 0.17494 0.6787 0.0
C875 C 0.08205 0.16759 0.74582 0.0
C876 C 0.13342 0.16839 0.76457 0.0
H877 H 0.16941 0.16859 0.95264 0.0
H878 H 0.14342 0.16465 0.90655 0.0
H879 H 0.16163 0.16571 0.78578 0.0
H880 H 0.09765 0.18803 0.6469 0.0
H881 H 0.11986 0.18749 0.70027 0.0
H882 H 0.09552 0.18299 0.81752 0.0
C883 C 0.15611 0.17191 0.89737 0.0
C884 C 0.14724 0.16948 0.79311 0.0
C885 C 0.17101 0.1741 0.92363 0.0
C886 C 0.09311 0.18206 0.67418 0.0
C887 C 0.10586 0.18174 0.7048 0.0
C888 C 0.10984 0.17888 0.81048 0.0
C889 C 0.15787 0.17854 0.85929 0.0
C890 C 0.14265 0.17565 0.83048 0.0
C891 C 0.10059 0.17428 0.74082 0.0
C892 C 0.11466 0.17355 0.7726 0.0
H893 H 0.20195 0.19732 0.86475 0.0
H894 H 0.17614 0.19343 0.81933 0.0
H895 H 0.11984 0.18473 0.86782 0.0
H896 H 0.05513 0.16232 0.71928 0.0
H897 H 0.0776 0.16172 0.77324 0.0
C898 C 0.23484 0.63549 0.43242 0.0
C899 C 0.24263 0.65249 0.41859 0.0
C900 C 0.22696 0.62237 0.40673 0.0
C901 C 0.23196 0.60653 0.30774 0.0
H902 H 0.18133 0.58597 0.31534 0.0
C903 C 0.19794 0.56954 0.17927 0.0
C904 C 0.18631 0.5537 0.18522 0.0
C905 C 0.20431 0.58028 0.21031 0.0
C906 C 0.19562 0.59132 0.31318 0.0
H907 H 0.24771 0.66924 0.36706 0.0
H908 H 0.23431 0.64628 0.32257 0.0
H909 H 0.1931 0.60728 0.36577 0.0
H910 H 0.1723 0.5368 0.22892 0.0
H911 H 0.18398 0.55538 0.2836 0.0
H912 H 0.2348 0.59062 0.25576 0.0
C913 C 0.23431 0.64312 0.3532 0.0
C914 C 0.2023 0.60355 0.34196 0.0
C915 C 0.2419 0.6563 0.37876 0.0
C916 C 0.18131 0.54885 0.2233 0.0
C917 C 0.18785 0.5596 0.25459 0.0
C918 C 0.22543 0.59419 0.27939 0.0
C919 C 0.22703 0.62594 0.36683 0.0
C920 C 0.22036 0.6116 0.33889 0.0
C921 C 0.19956 0.57538 0.24841 0.0
C922 C 0.20699 0.58683 0.2811 0.0
H923 H 0.2351 0.63219 0.46297 0.0
H924 H 0.22141 0.6092 0.41788 0.0
H925 H 0.24609 0.61227 0.30515 0.0
H926 H 0.20245 0.57354 0.15053 0.0
H927 H 0.21299 0.59253 0.20429 0.0
C928 C 0.32055 0.69824 0.61142 0.0
C929 C 0.31629 0.68404 0.58445 0.0
C930 C 0.33545 0.6959 0.63745 0.0
C931 C 0.35785 0.6616 0.69481 0.0
H932 H 0.40169 0.69426 0.70049 0.0
C933 C 0.41341 0.65102 0.81423 0.0
C934 C 0.42161 0.66731 0.82994 0.0
C935 C 0.4027 0.65211 0.78038 0.0
C936 C 0.38943 0.68514 0.69975 0.0
H937 H 0.32434 0.65635 0.56325 0.0
H938 H 0.35 0.65201 0.60993 0.0
H939 H 0.37861 0.69872 0.64885 0.0
H940 H 0.42521 0.69746 0.82308 0.0
H941 H 0.40577 0.69969 0.76536 0.0
H942 H 0.36765 0.64875 0.74677 0.0
C943 C 0.34199 0.66504 0.61024 0.0
C944 C 0.37634 0.68764 0.66994 0.0
C945 C 0.32739 0.66757 0.58359 0.0
C946 C 0.41917 0.68467 0.81112 0.0
C947 C 0.40811 0.68587 0.77784 0.0
C948 C 0.37065 0.65937 0.72514 0.0
C949 C 0.34603 0.67914 0.63745 0.0
C950 C 0.36044 0.67593 0.66743 0.0
C951 C 0.39953 0.66964 0.76214 0.0
C952 C 0.38658 0.67121 0.72827 0.0
H953 H 0.31225 0.71109 0.61258 0.0
H954 H 0.33833 0.70688 0.65842 0.0
H955 H 0.34553 0.65254 0.69349 0.0
H956 H 0.41524 0.63746 0.82827 0.0
H957 H 0.39676 0.63922 0.76881 0.0
C958 C 0.74491 0.85005 0.12426 0.0
C959 C 0.74516 0.8542 0.08454 0.0
C960 C 0.73751 0.86295 0.15064 0.0
C961 C 0.70503 0.90201 0.16403 0.0
H962 H 0.73759 0.91457 0.25036 0.0
C963 C 0.68385 0.95627 0.28287 0.0
C964 C 0.68918 0.95178 0.32096 0.0
C965 C 0.69037 0.94543 0.25173 0.0
C966 C 0.72819 0.91107 0.22675 0.0
H967 H 0.7371 0.87485 0.04126 0.0
H968 H 0.72373 0.89735 0.08777 0.0
H969 H 0.74895 0.89335 0.20026 0.0
H970 H 0.70578 0.9324 0.35582 0.0
H971 H 0.71626 0.91317 0.30228 0.0
H972 H 0.68398 0.91921 0.19126 0.0
C973 C 0.7295 0.88412 0.0982 0.0
C974 C 0.73477 0.89899 0.19795 0.0
C975 C 0.7372 0.8713 0.07169 0.0
C976 C 0.70104 0.93614 0.32707 0.0
C977 C 0.70738 0.92526 0.29615 0.0
C978 C 0.69831 0.91396 0.19322 0.0
C979 C 0.72994 0.88018 0.13795 0.0
C980 C 0.72318 0.89412 0.16665 0.0
C981 C 0.70234 0.92986 0.25802 0.0
C982 C 0.70972 0.91836 0.22531 0.0
H983 H 0.7509 0.83703 0.13521 0.0
H984 H 0.73781 0.8595 0.18113 0.0
H985 H 0.69583 0.8984 0.14015 0.0
H986 H 0.6746 0.96812 0.27709 0.0
H987 H 0.68628 0.94945 0.22274 0.0
C988 C 0.68544 0.31062 0.62276 0.0
C989 C 0.68496 0.32036 0.5874 0.0
C990 C 0.66969 0.31041 0.64693 0.0
C991 C 0.6267 0.3369 0.67041 0.0
H992 H 0.61392 0.29122 0.72644 0.0
C993 C 0.5657 0.3336 0.78233 0.0
C994 C 0.57062 0.32498 0.81749 0.0
C995 C 0.57771 0.33224 0.75031 0.0
C996 C 0.61734 0.3041 0.71106 0.0
H997 H 0.6674 0.33735 0.54951 0.0
H998 H 0.63982 0.33696 0.59196 0.0
H999 H 0.63859 0.29033 0.67739 0.0
H1000 H 0.59156 0.30765 0.84635 0.0
H1001 H 0.61251 0.30544 0.79092 0.0
H1002 H 0.6057 0.35074 0.70482 0.0
C1003 C 0.65249 0.32961 0.60097 0.0
C1004 C 0.63147 0.30359 0.68301 0.0
C1005 C 0.66827 0.32977 0.57664 0.0
C1006 C 0.58751 0.31464 0.81978 0.0
C1007 C 0.59941 0.31319 0.78786 0.0
C1008 C 0.61252 0.3374 0.69853 0.0
C1009 C 0.65305 0.31993 0.63639 0.0
C1010 C 0.63663 0.32008 0.66302 0.0
C1011 C 0.59472 0.32205 0.75284 0.0
C1012 C 0.60802 0.32109 0.71978 0.0
H1013 H 0.69803 0.30319 0.63196 0.0
H1014 H 0.67068 0.30305 0.6743 0.0
H1015 H 0.63044 0.34986 0.65568 0.0
H1016 H 0.55278 0.3417 0.77982 0.0
H1017 H 0.5737 0.33913 0.72361 0.0
C1018 C 0.26825 0.13785 0.0721 0.0
C1019 C 0.26152 0.15567 0.0837 0.0
C1020 C 0.27858 0.12655 0.09774 0.0
C1021 C 0.30537 0.12884 0.19014 0.0
H1022 H 0.29279 0.07569 0.1987 0.0
C1023 C 0.31655 0.08653 0.32871 0.0
C1024 C 0.32464 0.0684 0.32651 0.0
C1025 C 0.31167 0.0964 0.29535 0.0
C1026 C 0.29668 0.09044 0.19619 0.0
H1027 H 0.26062 0.17563 0.13127 0.0
H1028 H 0.2782 0.15594 0.17582 0.0
H1029 H 0.27897 0.09459 0.14673 0.0
H1030 H 0.33383 0.04649 0.28685 0.0
H1031 H 0.32463 0.06366 0.22831 0.0
H1032 H 0.32238 0.12487 0.24062 0.0
C1033 C 0.27584 0.15075 0.14679 0.0
C1034 C 0.2888 0.10127 0.16642 0.0
C1035 C 0.26558 0.16202 0.12125 0.0
C1036 C 0.3275 0.06033 0.28977 0.0
C1037 C 0.32233 0.07017 0.25623 0.0
C1038 C 0.3131 0.11807 0.21998 0.0
C1039 C 0.28243 0.13286 0.13547 0.0
C1040 C 0.29265 0.12073 0.16372 0.0
C1041 C 0.31445 0.08834 0.25879 0.0
C1042 C 0.30845 0.09889 0.2239 0.0
H1043 H 0.26545 0.13257 0.0433 0.0
H1044 H 0.28359 0.11291 0.08799 0.0
H1045 H 0.30904 0.14367 0.18834 0.0
H1046 H 0.31351 0.09304 0.35632 0.0
H1047 H 0.30524 0.11021 0.29824 0.0
C1048 C 0.21905 0.26617 0.0259 0.0
C1049 C 0.21468 0.2537 0.99555 0.0
C1050 C 0.21395 0.28518 0.02385 0.0
C1051 C 0.18209 0.3192 0.97766 0.0
H1052 H 0.22184 0.35504 0.00148 0.0
C1053 C 0.17325 0.40006 0.95556 0.0
C1054 C 0.18175 0.41207 0.9829 0.0
C1055 C 0.17655 0.38056 0.9564 0.0
C1056 C 0.21046 0.34528 0.99529 0.0
H1057 H 0.20071 0.25136 0.93996 0.0
H1058 H 0.19159 0.28469 0.93667 0.0
H1059 H 0.2283 0.32135 0.00491 0.0
H1060 H 0.20046 0.41279 0.03257 0.0
H1061 H 0.20552 0.37894 0.03503 0.0
H1062 H 0.16412 0.34315 0.96875 0.0
C1063 C 0.19909 0.27964 0.96191 0.0
C1064 C 0.21421 0.32595 0.99712 0.0
C1065 C 0.20437 0.26059 0.96376 0.0
C1066 C 0.19344 0.40403 0.01135 0.0
C1067 C 0.1966 0.38457 0.01237 0.0
C1068 C 0.17825 0.3386 0.97619 0.0
C1069 C 0.20418 0.29219 0.9916 0.0
C1070 C 0.20005 0.3127 0.98859 0.0
C1071 C 0.18837 0.37257 0.98471 0.0
C1072 C 0.19238 0.3519 0.98526 0.0
H1073 H 0.22688 0.26139 0.05094 0.0
H1074 H 0.2178 0.29446 0.04744 0.0
H1075 H 0.17089 0.30929 0.97113 0.0
H1076 H 0.16398 0.40569 0.93352 0.0
H1077 H 0.17009 0.37181 0.93442 0.0
C1078 C 0.20139 0.71847 0.46913 0.0
C1079 C 0.21416 0.72262 0.49904 0.0
C1080 C 0.18339 0.72657 0.4688 0.0
C1081 C 0.15712 0.76753 0.50524 0.0
H1082 H 0.11288 0.73769 0.48016 0.0
C1083 C 0.0815 0.79757 0.51695 0.0
C1084 C 0.06868 0.79258 0.48768 0.0
C1085 C 0.09918 0.78885 0.51921 0.0
C1086 C 0.12512 0.74628 0.48678 0.0
H1087 H 0.21791 0.7383 0.55241 0.0
H1088 H 0.18654 0.7524 0.55171 0.0
H1089 H 0.14383 0.72262 0.4823 0.0
H1090 H 0.06432 0.77431 0.43813 0.0
H1091 H 0.0953 0.7596 0.44132 0.0
H1092 H 0.13851 0.79125 0.5092 0.0
C1093 C 0.19052 0.74302 0.52837 0.0
C1094 C 0.14283 0.73762 0.48806 0.0
C1095 C 0.20845 0.73484 0.52885 0.0
C1096 C 0.07395 0.7787 0.46072 0.0
C1097 C 0.09162 0.77005 0.46288 0.0
C1098 C 0.13943 0.77621 0.50376 0.0
C1099 C 0.17785 0.73906 0.49825 0.0
C1100 C 0.15901 0.74817 0.49727 0.0
C1101 C 0.10444 0.77498 0.4922 0.0
C1102 C 0.12322 0.7657 0.49442 0.0
H1103 H 0.20532 0.70908 0.44578 0.0
H1104 H 0.17396 0.72338 0.44506 0.0
H1105 H 0.16939 0.77607 0.51191 0.0
H1106 H 0.07795 0.80832 0.53798 0.0
H1107 H 0.10864 0.79285 0.54239 0.0
C1108 C 0.78023 0.74106 0.02761 0.0
C1109 C 0.78505 0.75305 0.99676 0.0
C1110 C 0.78547 0.72209 0.02728 0.0
C1111 C 0.81883 0.68789 0.987 0.0
H1112 H 0.77985 0.65173 0.01387 0.0
C1113 C 0.83046 0.60661 0.98095 0.0
C1114 C 0.82206 0.5958 0.01044 0.0
C1115 C 0.82656 0.62592 0.97749 0.0
C1116 C 0.79099 0.66162 0.00678 0.0
H1117 H 0.79978 0.75455 0.94188 0.0
H1118 H 0.80913 0.7212 0.94157 0.0
H1119 H 0.77223 0.68519 0.01115 0.0
H1120 H 0.80298 0.597 0.05945 0.0
H1121 H 0.79681 0.6306 0.05435 0.0
H1122 H 0.8377 0.66429 0.98344 0.0
C1123 C 0.80118 0.72663 0.96588 0.0
C1124 C 0.78658 0.6808 0.00507 0.0
C1125 C 0.79576 0.74568 0.96601 0.0
C1126 C 0.80992 0.60486 0.03668 0.0
C1127 C 0.80613 0.62414 0.03337 0.0
C1128 C 0.8233 0.66864 0.98901 0.0
C1129 C 0.79581 0.7146 0.99626 0.0
C1130 C 0.80048 0.69417 0.99566 0.0
C1131 C 0.81421 0.63489 0.00349 0.0
C1132 C 0.80947 0.65529 0.99944 0.0
H1133 H 0.77208 0.74623 0.05189 0.0
H1134 H 0.7814 0.71322 0.05139 0.0
H1135 H 0.82984 0.69792 0.97985 0.0
H1136 H 0.84005 0.60015 0.96048 0.0
H1137 H 0.83296 0.63374 0.95399 0.0
C1138 C 0.80055 0.29112 0.47007 0.0
C1139 C 0.78824 0.28689 0.50075 0.0
C1140 C 0.81884 0.2837 0.46942 0.0
C1141 C 0.84687 0.24413 0.50659 0.0
H1142 H 0.88995 0.27525 0.47967 0.0
C1143 C 0.92322 0.21633 0.5181 0.0
C1144 C 0.93587 0.22145 0.48861 0.0
C1145 C 0.9054 0.22472 0.52044 0.0
C1146 C 0.87805 0.2663 0.48679 0.0
H1147 H 0.78564 0.27177 0.55508 0.0
H1148 H 0.81749 0.25884 0.55375 0.0
H1149 H 0.85848 0.28925 0.48167 0.0
H1150 H 0.93978 0.23972 0.4389 0.0
H1151 H 0.90852 0.25383 0.44219 0.0
H1152 H 0.86628 0.22111 0.51109 0.0
C1153 C 0.81293 0.26777 0.53011 0.0
C1154 C 0.86004 0.27435 0.488 0.0
C1155 C 0.79471 0.27529 0.53094 0.0
C1156 C 0.9303 0.23523 0.46166 0.0
C1157 C 0.91245 0.24353 0.46388 0.0
C1158 C 0.86485 0.23605 0.50512 0.0
C1159 C 0.82514 0.27181 0.49925 0.0
C1160 C 0.84428 0.26334 0.49796 0.0
C1161 C 0.89976 0.23837 0.49325 0.0
C1162 C 0.88066 0.24704 0.49522 0.0
H1163 H 0.79602 0.30006 0.44642 0.0
H1164 H 0.82793 0.28695 0.44513 0.0
H1165 H 0.83493 0.23524 0.51382 0.0
H1166 H 0.92698 0.20564 0.53912 0.0
H1167 H 0.89607 0.22057 0.54374 0.0
C1168 C 0.72249 0.24058 0.47915 0.0
C1169 C 0.71699 0.25322 0.5084 0.0
C1170 C 0.71703 0.22167 0.4805 0.0
C1171 C 0.68215 0.18882 0.52046 0.0
H1172 H 0.72119 0.15143 0.50253 0.0
C1173 C 0.66953 0.10843 0.54073 0.0
C1174 C 0.67869 0.09605 0.51504 0.0
C1175 C 0.67342 0.12781 0.5401 0.0
C1176 C 0.71002 0.16165 0.50702 0.0
H1177 H 0.70089 0.25594 0.56144 0.0
H1178 H 0.69118 0.22276 0.56353 0.0
H1179 H 0.72918 0.18483 0.50103 0.0
H1180 H 0.69903 0.09454 0.46821 0.0
H1181 H 0.70515 0.12824 0.46602 0.0
H1182 H 0.6629 0.16564 0.52576 0.0
C1183 C 0.69981 0.2276 0.53968 0.0
C1184 C 0.71464 0.1808 0.50632 0.0
C1185 C 0.70545 0.24656 0.53855 0.0
C1186 C 0.6915 0.10361 0.48814 0.0
C1187 C 0.69527 0.12296 0.4873 0.0
C1188 C 0.67746 0.16961 0.5208 0.0
C1189 C 0.70578 0.21492 0.51091 0.0
C1190 C 0.70076 0.1946 0.51281 0.0
C1191 C 0.68649 0.1353 0.51362 0.0
C1192 C 0.69134 0.15577 0.51385 0.0
H1193 H 0.73132 0.2452 0.45541 0.0
H1194 H 0.72163 0.21227 0.45765 0.0
H1195 H 0.67114 0.19918 0.52528 0.0
H1196 H 0.65938 0.10317 0.56149 0.0
H1197 H 0.66648 0.13683 0.56098 0.0
C1198 C 0.2992 0.22205 0.03581 0.0
C1199 C 0.287 0.22529 0.00444 0.0
C1200 C 0.31686 0.23082 0.03738 0.0
C1201 C 0.34286 0.27194 0.00032 0.0
H1202 H 0.38722 0.24362 0.03123 0.0
C1203 C 0.41836 0.30251 0.98918 0.0
C1204 C 0.43106 0.29819 0.01912 0.0
C1205 C 0.40064 0.29385 0.98757 0.0
C1206 C 0.37494 0.2518 0.02303 0.0
H1207 H 0.28394 0.24012 0.94988 0.0
H1208 H 0.31475 0.25535 0.9527 0.0
H1209 H 0.35667 0.22783 0.02807 0.0
H1210 H 0.43504 0.28134 0.07087 0.0
H1211 H 0.40398 0.26674 0.06874 0.0
H1212 H 0.36106 0.29595 0.99558 0.0
C1213 C 0.31056 0.24618 0.97622 0.0
C1214 C 0.35745 0.24273 0.02116 0.0
C1215 C 0.29295 0.23734 0.97452 0.0
C1216 C 0.42552 0.2852 0.04767 0.0
C1217 C 0.40781 0.2766 0.04614 0.0
C1218 C 0.36034 0.28104 0.00237 0.0
C1219 C 0.32266 0.24307 0.00773 0.0
C1220 C 0.34123 0.2527 0.00975 0.0
C1221 C 0.39521 0.2807 0.01591 0.0
C1222 C 0.37659 0.27108 0.01375 0.0
H1223 H 0.29507 0.21283 0.05931 0.0
H1224 H 0.32584 0.22828 0.06218 0.0
H1225 H 0.33055 0.28005 0.99194 0.0
H1226 H 0.42211 0.31259 0.96693 0.0
H1227 H 0.39134 0.29721 0.9637 0.0
C1228 C 0.28099 0.76537 0.46731 0.0
C1229 C 0.28551 0.75399 0.49932 0.0
C1230 C 0.28539 0.78457 0.46712 0.0
C1231 C 0.31551 0.82109 0.51028 0.0
H1232 H 0.27532 0.85463 0.47726 0.0
C1233 C 0.32206 0.90283 0.51715 0.0
C1234 C 0.31426 0.91313 0.48626 0.0
C1235 C 0.31898 0.88335 0.52038 0.0
C1236 C 0.2868 0.84549 0.48609 0.0
H1237 H 0.29897 0.75383 0.55563 0.0
H1238 H 0.30682 0.78754 0.55507 0.0
H1239 H 0.26979 0.82075 0.47944 0.0
H1240 H 0.29693 0.91093 0.43474 0.0
H1241 H 0.29214 0.87706 0.43961 0.0
H1242 H 0.33265 0.84586 0.51627 0.0
C1243 C 0.29977 0.78147 0.53023 0.0
C1244 C 0.2836 0.82606 0.48745 0.0
C1245 C 0.29523 0.76219 0.53057 0.0
C1246 C 0.30338 0.90346 0.45865 0.0
C1247 C 0.30039 0.88402 0.46177 0.0
C1248 C 0.31879 0.84059 0.50866 0.0
C1249 C 0.29454 0.79291 0.49879 0.0
C1250 C 0.29795 0.81361 0.49915 0.0
C1251 C 0.30806 0.87371 0.49277 0.0
C1252 C 0.30451 0.85302 0.49614 0.0
H1253 H 0.27364 0.75956 0.44257 0.0
H1254 H 0.28149 0.79295 0.44218 0.0
H1255 H 0.32687 0.81182 0.51923 0.0
H1256 H 0.3307 0.90976 0.53872 0.0
H1257 H 0.32498 0.87592 0.54481 0.0
C1258 C 0.70469 0.7812 0.03653 0.0
C1259 C 0.71363 0.78661 0.00208 0.0
C1260 C 0.68657 0.77335 0.03571 0.0
C1261 C 0.65268 0.75058 0.96781 0.0
H1262 H 0.61753 0.75828 0.05211 0.0
C1263 C 0.58234 0.71003 0.97432 0.0
C1264 C 0.56655 0.7194 0.98941 0.0
C1265 C 0.60028 0.7181 0.97719 0.0
C1266 C 0.62705 0.75615 0.02804 0.0
H1267 H 0.7104 0.78895 0.94004 0.0
H1268 H 0.67854 0.77617 0.93865 0.0
H1269 H 0.64815 0.77368 0.05374 0.0
H1270 H 0.55688 0.74454 0.01893 0.0
H1271 H 0.58802 0.75914 0.0225 0.0
H1272 H 0.63127 0.73392 0.94105 0.0
C1273 C 0.6857 0.77717 0.96622 0.0
C1274 C 0.6448 0.76477 0.02929 0.0
C1275 C 0.70392 0.78464 0.96699 0.0
C1276 C 0.56893 0.737 0.00737 0.0
C1277 C 0.5868 0.74526 0.0096 0.0
C1278 C 0.63484 0.74225 0.96624 0.0
C1279 C 0.67689 0.77108 0.00047 0.0
C1280 C 0.65788 0.76208 0.9992 0.0
C1281 C 0.60274 0.73593 0.99454 0.0
C1282 C 0.62179 0.74485 0.99638 0.0
H1283 H 0.71192 0.78246 0.06398 0.0
H1284 H 0.68042 0.76861 0.06264 0.0
H1285 H 0.66244 0.74783 0.9444 0.0
H1286 H 0.58083 0.69632 0.96073 0.0
H1287 H 0.61221 0.71025 0.96604 0.0
loop_
_geom_bond_atom_site_label_1
_geom_bond_atom_site_label_2
_geom_bond_distance
_geom_bond_site_symmetry_2
_ccdc_geom_bond_type
Fe0 O2 1.918 . S
Fe0 O5 1.997 . S
Fe0 O6 2.002 . S
Fe0 O11 1.976 . S
Fe0 O14 1.996 . S
Fe1 O2 1.918 1_556 S
Fe1 O9 1.997 . S
Fe1 O12 1.996 . S
Fe1 O16 1.976 . S
Fe1 O19 2.002 . S
O2 Fe0 1.918 . S
O2 Fe1 1.918 1_554 S
O2 Fe3 1.918 1_554 S
Fe3 O2 1.918 1_556 S
Fe3 O4 1.998 1_556 S
Fe3 O13 1.972 1_556 S
Fe3 O17 2.000 . S
Fe3 O20 2.001 . S
O4 Fe3 1.998 1_554 S
O4 C21 1.295 . S
O5 Fe0 1.997 . S
O5 C21 1.235 . S
O6 Fe0 2.002 . S
O6 C7 1.295 . S
C7 O6 1.295 . S
C7 O9 1.235 1_554 S
C8 O13 1.287 . S
C8 O14 1.255 . S
O9 Fe1 1.997 . S
O9 C7 1.235 1_556 S
C10 O16 1.287 . S
C10 O17 1.255 . S
O11 Fe0 1.976 . S
O11 C18 1.287 1_554 S
O12 Fe1 1.996 . S
O12 C18 1.255 . S
O13 Fe3 1.972 1_554 S
O13 C8 1.287 . S
O14 Fe0 1.996 . S
O14 C8 1.255 . S
C15 O19 1.295 . S
C15 O20 1.235 . S
O16 Fe1 1.976 . S
O16 C10 1.287 . S
O17 Fe3 2.000 . S
O17 C10 1.255 . S
C18 O11 1.287 1_556 S
C18 O12 1.255 . S
O19 Fe1 2.002 . S
O19 C15 1.295 . S
O20 Fe3 2.001 . S
O20 C15 1.235 . S
C21 O4 1.295 . S
C21 O5 1.235 . S
Fe22 O24 1.918 . S
Fe22 O27 1.997 . S
Fe22 O28 2.002 . S
Fe22 O33 1.976 . S
Fe22 O36 1.996 . S
Fe23 O24 1.918 . S
Fe23 O31 1.997 . S
Fe23 O34 1.996 . S
Fe23 O38 1.976 . S
Fe23 O41 2.002 . S
O24 Fe22 1.918 . S
O24 Fe23 1.918 . S
O24 Fe25 1.918 . S
Fe25 O24 1.918 . S
Fe25 O26 2.002 . S
Fe25 O35 1.976 . S
Fe25 O39 1.996 . S
Fe25 O42 1.997 . S
O26 Fe25 2.002 . S
O26 C43 1.295 . S
O27 Fe22 1.997 . S
O27 C43 1.235 . S
O28 Fe22 2.002 . S
O28 C29 1.295 . S
C29 O28 1.295 . S
C29 O31 1.235 . S
C30 O35 1.287 . S
C30 O36 1.255 . S
O31 Fe23 1.997 . S
O31 C29 1.235 . S
C32 O38 1.287 . S
C32 O39 1.255 . S
O33 Fe22 1.976 . S
O33 C40 1.287 . S
O34 Fe23 1.996 . S
O34 C40 1.255 . S
O35 Fe25 1.976 . S
O35 C30 1.287 . S
O36 Fe22 1.996 . S
O36 C30 1.255 . S
C37 O41 1.295 . S
C37 O42 1.235 . S
O38 Fe23 1.976 . S
O38 C32 1.287 . S
O39 Fe25 1.996 . S
O39 C32 1.255 . S
C40 O33 1.287 . S
C40 O34 1.255 . S
O41 Fe23 2.002 . S
O41 C37 1.295 . S
O42 Fe25 1.997 . S
O42 C37 1.235 . S
C43 O26 1.295 . S
C43 O27 1.235 . S
Fe44 O46 1.918 1_556 S
Fe44 O49 1.997 . S
Fe44 O50 2.002 . S
Fe44 O55 1.976 . S
Fe44 O58 1.996 . S
Fe45 O46 1.918 . S
Fe45 O53 1.997 . S
Fe45 O56 1.996 . S
Fe45 O60 1.976 . S
Fe45 O63 2.002 . S
O46 Fe44 1.918 1_554 S
O46 Fe45 1.918 . S
O46 Fe47 1.918 . S
Fe47 O46 1.918 . S
Fe47 O48 1.994 1_554 S
Fe47 O57 1.967 1_554 S
Fe47 O61 2.005 . S
Fe47 O64 2.006 . S
O48 Fe47 1.994 1_556 S
O48 C65 1.295 . S
O49 Fe44 1.997 . S
O49 C65 1.235 . S
O50 Fe44 2.002 . S
O50 C51 1.320 . S
C51 O50 1.320 . S
C51 O53 1.211 1_556 S
C52 O57 1.287 . S
C52 O58 1.255 . S
O53 Fe45 1.997 . S
O53 C51 1.211 1_554 S
C54 O60 1.287 . S
C54 O61 1.255 . S
O55 Fe44 1.976 . S
O55 C62 1.287 1_556 S
O56 Fe45 1.996 . S
O56 C62 1.255 . S
O57 Fe47 1.967 1_556 S
O57 C52 1.287 . S
O58 Fe44 1.996 . S
O58 C52 1.255 . S
C59 O63 1.295 . S
C59 O64 1.235 . S
O60 Fe45 1.976 . S
O60 C54 1.287 . S
O61 Fe47 2.005 . S
O61 C54 1.255 . S
C62 O55 1.287 1_554 S
C62 O56 1.255 . S
O63 Fe45 2.002 . S
O63 C59 1.295 . S
O64 Fe47 2.006 . S
O64 C59 1.235 . S
C65 O48 1.295 . S
C65 O49 1.235 . S
Fe66 O68 1.918 . S
Fe66 O71 1.997 . S
Fe66 O72 2.002 . S
Fe66 O77 1.976 . S
Fe66 O80 1.996 . S
Fe67 O68 1.918 . S
Fe67 O75 1.997 . S
Fe67 O78 1.996 . S
Fe67 O82 1.976 . S
Fe67 O85 2.002 . S
O68 Fe66 1.918 . S
O68 Fe67 1.918 . S
O68 Fe69 1.918 . S
Fe69 O68 1.918 . S
Fe69 O70 2.002 . S
Fe69 O79 1.976 . S
Fe69 O83 1.996 . S
Fe69 O86 1.997 . S
O70 Fe69 2.002 . S
O70 C87 1.295 . S
O71 Fe66 1.997 . S
O71 C87 1.235 . S
O72 Fe66 2.002 . S
O72 C73 1.295 . S
C73 O72 1.295 . S
C73 O75 1.235 . S
C74 O79 1.287 . S
C74 O80 1.255 . S
O75 Fe67 1.997 . S
O75 C73 1.235 . S
C76 O82 1.287 . S
C76 O83 1.255 . S
O77 Fe66 1.976 . S
O77 C84 1.287 . S
O78 Fe67 1.996 . S
O78 C84 1.255 . S
O79 Fe69 1.976 . S
O79 C74 1.287 . S
O80 Fe66 1.996 . S
O80 C74 1.255 . S
C81 O85 1.295 . S
C81 O86 1.235 . S
O82 Fe67 1.976 . S
O82 C76 1.287 . S
O83 Fe69 1.996 . S
O83 C76 1.255 . S
C84 O77 1.287 . S
C84 O78 1.255 . S
O85 Fe67 2.002 . S
O85 C81 1.295 . S
O86 Fe69 1.997 . S
O86 C81 1.235 . S
C87 O70 1.295 . S
C87 O71 1.235 . S
C88 C89 1.391 . S
C88 C92 1.391 . S
C88 H130 0.948 . S
C89 C88 1.391 . S
C89 C90 1.391 . S
C90 C89 1.391 . S
C90 H146 0.947 . S
C90 C147 1.392 . S
C91 C92 1.391 . S
C91 C95 1.397 . S
C91 C147 1.419 . S
C92 C88 1.391 . S
C92 C91 1.391 . S
C92 C93 1.399 . S
C93 C92 1.399 . S
C93 C96 1.396 . S
C93 C105 1.453 . S
C93 C106 1.684 . S
H94 C118 0.948 . S
C95 C91 1.397 . S
C95 C96 1.394 . S
C95 C114 1.723 1_556 S
C96 C93 1.396 . S
C96 C95 1.394 . S
C96 C126 1.723 . S
H97 C120 0.947 . S
H98 C121 0.948 . S
H99 C127 0.982 . S
H100 C128 0.979 . S
H101 C128 0.980 . S
H102 C128 0.983 . S
H103 C127 0.979 . S
H104 C127 0.977 . S
C105 C93 1.453 . S
C105 H134 0.982 . S
C105 H135 0.979 . S
C105 H136 0.977 . S
C106 C93 1.684 . S
C106 H131 0.979 . S
C106 H132 0.980 . S
C106 H133 0.983 . S
C107 C108 1.391 . S
C107 C112 1.391 . S
C107 H137 0.948 . S
C108 C107 1.391 . S
C108 C109 1.391 . S
C109 C108 1.391 . S
C109 C110 1.392 . S
C109 H138 0.947 . S
C110 C109 1.392 . S
C110 C111 1.419 . S
C110 H139 0.948 . S
C111 C110 1.419 . S
C111 C112 1.391 . S
C111 C115 1.397 . S
C112 C107 1.391 . S
C112 C111 1.391 . S
C112 C113 1.399 . S
C113 C112 1.399 . S
C113 C114 1.396 . S
C113 C116 1.453 . S
C113 C117 1.684 . S
C114 C95 1.723 1_554 S
C114 C113 1.396 . S
C114 C115 1.394 . S
C115 C111 1.397 . S
C115 C114 1.394 . S
C115 C125 1.723 . S
C116 C113 1.453 . S
C116 H140 0.982 . S
C116 H141 0.979 . S
C116 H142 0.977 1_554 S
C117 C113 1.684 . S
C117 H143 0.979 . S
C117 H144 0.980 1_554 S
C117 H145 0.983 . S
C118 H94 0.948 . S
C118 C119 1.391 1_554 S
C118 C123 1.391 . S
C119 C118 1.391 1_556 S
C119 C120 1.391 . S
C120 H97 0.947 . S
C120 C119 1.391 . S
C120 C121 1.392 . S
C121 H98 0.948 . S
C121 C120 1.392 . S
C121 C122 1.419 . S
C122 C121 1.419 . S
C122 C123 1.391 1_556 S
C122 C126 1.397 . S
C123 C118 1.391 . S
C123 C122 1.391 1_554 S
C123 C124 1.399 . S
C124 C123 1.399 . S
C124 C125 1.396 . S
C124 C127 1.453 . S
C124 C128 1.684 . S
C125 C115 1.723 . S
C125 C124 1.396 . S
C125 C126 1.394 1_554 S
C126 C96 1.723 . S
C126 C122 1.397 . S
C126 C125 1.394 1_556 S
C127 H99 0.982 . S
C127 H103 0.979 . S
C127 H104 0.977 . S
C127 C124 1.453 . S
C128 H100 0.979 . S
C128 H101 0.980 . S
C128 H102 0.983 . S
C128 C124 1.684 . S
H129 C147 0.948 . S
H130 C88 0.948 . S
H131 C106 0.979 . S
H132 C106 0.980 . S
H133 C106 0.983 . S
H134 C105 0.982 . S
H135 C105 0.979 . S
H136 C105 0.977 . S
H137 C107 0.948 . S
H138 C109 0.947 . S
H139 C110 0.948 . S
H140 C116 0.982 . S
H141 C116 0.979 . S
H142 C116 0.977 1_556 S
H143 C117 0.979 . S
H144 C117 0.980 1_556 S
H145 C117 0.983 . S
H146 C90 0.947 . S
C147 C90 1.392 . S
C147 C91 1.419 . S
C147 H129 0.948 . S
C148 C149 1.391 . S
C148 C152 1.391 . S
C148 H190 0.948 . S
C149 C148 1.391 . S
C149 C150 1.391 . S
C150 C149 1.391 . S
C150 H206 0.947 . S
C150 C207 1.392 . S
C151 C152 1.391 . S
C151 C155 1.397 . S
C151 C207 1.419 . S
C152 C148 1.391 . S
C152 C151 1.391 . S
C152 C153 1.399 . S
C153 C152 1.399 . S
C153 C156 1.396 1_455 S
C153 C165 1.453 . S
C153 C166 1.684 . S
H154 C178 0.948 . S
C155 C151 1.397 . S
C155 C156 1.394 1_455 S
C155 C174 1.723 1_455 S
C156 C153 1.396 1_655 S
C156 C155 1.394 1_655 S
C156 C186 1.723 . S
H157 C180 0.947 . S
H158 C181 0.948 . S
H159 C187 0.982 . S
H160 C188 0.979 . S
H161 C188 0.980 . S
H162 C188 0.983 . S
H163 C187 0.979 . S
H164 C187 0.977 . S
C165 C153 1.453 . S
C165 H194 0.982 . S
C165 H195 0.979 . S
C165 H196 0.977 . S
C166 C153 1.684 . S
C166 H191 0.979 . S
C166 H192 0.980 . S
C166 H193 0.983 . S
C167 C168 1.391 . S
C167 C172 1.391 . S
C167 H197 0.948 . S
C168 C167 1.391 . S
C168 C169 1.391 . S
C169 C168 1.391 . S
C169 C170 1.392 . S
C169 H198 0.947 . S
C170 C169 1.392 . S
C170 C171 1.419 . S
C170 H199 0.948 . S
C171 C170 1.419 . S
C171 C172 1.391 . S
C171 C175 1.397 . S
C172 C167 1.391 . S
C172 C171 1.391 . S
C172 C173 1.399 . S
C173 C172 1.399 . S
C173 C174 1.396 . S
C173 C176 1.457 1_655 S
C173 C177 1.684 . S
C174 C155 1.723 1_655 S
C174 C173 1.396 . S
C174 C175 1.394 . S
C175 C171 1.397 . S
C175 C174 1.394 . S
C175 C185 1.723 . S
C176 C173 1.457 1_455 S
C176 H200 0.983 1_455 S
C176 H201 0.979 . S
C176 H202 0.972 . S
C177 C173 1.684 . S
C177 H203 0.979 . S
C177 H204 0.980 1_655 S
C177 H205 0.983 . S
C178 H154 0.948 . S
C178 C179 1.391 . S
C178 C183 1.391 . S
C179 C178 1.391 . S
C179 C180 1.391 . S
C180 H157 0.947 . S
C180 C179 1.391 . S
C180 C181 1.392 . S
C181 H158 0.948 . S
C181 C180 1.392 . S
C181 C182 1.419 . S
C182 C181 1.419 . S
C182 C183 1.391 . S
C182 C186 1.397 . S
C183 C178 1.391 . S
C183 C182 1.391 . S
C183 C184 1.399 . S
C184 C183 1.399 . S
C184 C185 1.396 . S
C184 C187 1.453 . S
C184 C188 1.684 . S
C185 C175 1.723 . S
C185 C184 1.396 . S
C185 C186 1.394 . S
C186 C156 1.723 . S
C186 C182 1.397 . S
C186 C185 1.394 . S
C187 H159 0.982 . S
C187 H163 0.979 . S
C187 H164 0.977 . S
C187 C184 1.453 . S
C188 H160 0.979 . S
C188 H161 0.980 . S
C188 H162 0.983 . S
C188 C184 1.684 . S
H189 C207 0.948 . S
H190 C148 0.948 . S
H191 C166 0.979 . S
H192 C166 0.980 . S
H193 C166 0.983 . S
H194 C165 0.982 . S
H195 C165 0.979 . S
H196 C165 0.977 . S
H197 C167 0.948 . S
H198 C169 0.947 . S
H199 C170 0.948 . S
H200 C176 0.983 1_655 S
H201 C176 0.979 . S
H202 C176 0.972 . S
H203 C177 0.979 . S
H204 C177 0.980 1_455 S
H205 C177 0.983 . S
H206 C150 0.947 . S
C207 C150 1.392 . S
C207 C151 1.419 . S
C207 H189 0.948 . S
C208 C209 1.391 . S
C208 C212 1.391 . S
C208 H250 0.948 . S
C209 C208 1.391 . S
C209 C210 1.391 . S
C210 C209 1.391 . S
C210 H266 0.947 . S
C210 C267 1.392 . S
C211 C212 1.391 . S
C211 C215 1.397 . S
C211 C267 1.419 . S
C212 C208 1.391 . S
C212 C211 1.391 . S
C212 C213 1.399 . S
C213 C212 1.399 . S
C213 C216 1.396 . S
C213 C225 1.453 . S
C213 C226 1.684 . S
H214 C238 0.948 . S
C215 C211 1.397 . S
C215 C216 1.394 . S
C215 C234 1.723 1_554 S
C216 C213 1.396 . S
C216 C215 1.394 . S
C216 C246 1.723 . S
H217 C240 0.947 . S
H218 C241 0.948 . S
H219 C247 0.982 . S
H220 C248 0.979 . S
H221 C248 0.980 . S
H222 C248 0.983 . S
H223 C247 0.979 . S
H224 C247 0.977 . S
C225 C213 1.453 . S
C225 H254 0.982 . S
C225 H255 0.979 . S
C225 H256 0.977 . S
C226 C213 1.684 . S
C226 H251 0.979 . S
C226 H252 0.980 . S
C226 H253 0.983 . S
C227 C228 1.391 . S
C227 C232 1.391 . S
C227 H257 0.948 . S
C228 C227 1.391 . S
C228 C229 1.391 . S
C229 C228 1.391 . S
C229 C230 1.392 . S
C229 H258 0.947 . S
C230 C229 1.392 . S
C230 C231 1.419 . S
C230 H259 0.948 . S
C231 C230 1.419 . S
C231 C232 1.391 . S
C231 C235 1.397 . S
C232 C227 1.391 . S
C232 C231 1.391 . S
C232 C233 1.399 . S
C233 C232 1.399 . S
C233 C234 1.396 . S
C233 C236 1.453 . S
C233 C237 1.684 . S
C234 C215 1.723 1_556 S
C234 C233 1.396 . S
C234 C235 1.394 . S
C235 C231 1.397 . S
C235 C234 1.394 . S
C235 C245 1.723 . S
C236 C233 1.453 . S
C236 H260 0.982 . S
C236 H261 0.979 . S
C236 H262 0.977 1_556 S
C237 C233 1.684 . S
C237 H263 0.979 . S
C237 H264 0.980 1_556 S
C237 H265 0.983 . S
C238 H214 0.948 . S
C238 C239 1.391 1_556 S
C238 C243 1.391 . S
C239 C238 1.391 1_554 S
C239 C240 1.391 . S
C240 H217 0.947 . S
C240 C239 1.391 . S
C240 C241 1.392 . S
C241 H218 0.948 . S
C241 C240 1.392 . S
C241 C242 1.419 . S
C242 C241 1.419 . S
C242 C243 1.391 1_554 S
C242 C246 1.397 . S
C243 C238 1.391 . S
C243 C242 1.391 1_556 S
C243 C244 1.399 . S
C244 C243 1.399 . S
C244 C245 1.396 . S
C244 C247 1.453 . S
C244 C248 1.684 . S
C245 C235 1.723 . S
C245 C244 1.396 . S
C245 C246 1.394 1_556 S
C246 C216 1.723 . S
C246 C242 1.397 . S
C246 C245 1.394 1_554 S
C247 H219 0.982 . S
C247 H223 0.979 . S
C247 H224 0.977 . S
C247 C244 1.453 . S
C248 H220 0.979 . S
C248 H221 0.980 . S
C248 H222 0.983 . S
C248 C244 1.684 . S
H249 C267 0.948 . S
H250 C208 0.948 . S
H251 C226 0.979 . S
H252 C226 0.980 . S
H253 C226 0.983 . S
H254 C225 0.982 . S
H255 C225 0.979 . S
H256 C225 0.977 . S
H257 C227 0.948 . S
H258 C229 0.947 . S
H259 C230 0.948 . S
H260 C236 0.982 . S
H261 C236 0.979 . S
H262 C236 0.977 1_554 S
H263 C237 0.979 . S
H264 C237 0.980 1_554 S
H265 C237 0.983 . S
H266 C210 0.947 . S
C267 C210 1.392 . S
C267 C211 1.419 . S
C267 H249 0.948 . S
C268 C269 1.391 . S
C268 C272 1.391 . S
C268 H310 0.948 . S
C269 C268 1.391 . S
C269 C270 1.391 . S
C270 C269 1.391 . S
C270 H326 0.947 . S
C270 C327 1.392 . S
C271 C272 1.391 . S
C271 C275 1.397 . S
C271 C327 1.419 . S
C272 C268 1.391 . S
C272 C271 1.391 . S
C272 C273 1.399 . S
C273 C272 1.399 . S
C273 C276 1.396 . S
C273 C285 1.453 . S
C273 C286 1.684 . S
H274 C298 0.948 . S
C275 C271 1.397 . S
C275 C276 1.394 . S
C275 C294 1.723 . S
C276 C273 1.396 . S
C276 C275 1.394 . S
C276 C306 1.723 . S
H277 C300 0.947 . S
H278 C301 0.948 . S
H279 C307 0.982 . S
H280 C308 0.979 . S
H281 C308 1.000 . S
H282 C308 0.983 . S
H283 C307 0.979 . S
H284 C307 0.977 . S
C285 C273 1.453 . S
C285 H314 0.982 . S
C285 H315 0.979 . S
C285 H316 0.977 1_455 S
C286 C273 1.684 . S
C286 H311 0.979 . S
C286 H312 0.980 1_455 S
C286 H313 0.983 . S
C287 C288 1.391 . S
C287 C292 1.391 . S
C287 H317 0.948 . S
C288 C287 1.391 . S
C288 C289 1.391 . S
C289 C288 1.391 . S
C289 C290 1.392 . S
C289 H318 0.947 . S
C290 C289 1.392 . S
C290 C291 1.419 . S
C290 H319 0.948 . S
C291 C290 1.419 . S
C291 C292 1.391 . S
C291 C295 1.397 . S
C292 C287 1.391 . S
C292 C291 1.391 . S
C292 C293 1.399 . S
C293 C292 1.399 . S
C293 C294 1.396 . S
C293 C296 1.453 . S
C293 C297 1.684 . S
C294 C275 1.723 . S
C294 C293 1.396 . S
C294 C295 1.394 . S
C295 C291 1.397 . S
C295 C294 1.394 . S
C295 C305 1.723 . S
C296 C293 1.453 . S
C296 H320 0.982 . S
C296 H321 0.979 . S
C296 H322 0.977 . S
C297 C293 1.684 . S
C297 H323 0.979 . S
C297 H324 0.980 . S
C297 H325 0.983 . S
C298 H274 0.948 . S
C298 C299 1.391 . S
C298 C303 1.391 . S
C299 C298 1.391 . S
C299 C300 1.391 . S
C300 H277 0.947 . S
C300 C299 1.391 . S
C300 C301 1.392 . S
C301 H278 0.948 . S
C301 C300 1.392 . S
C301 C302 1.419 . S
C302 C301 1.419 . S
C302 C303 1.391 . S
C302 C306 1.397 1_655 S
C303 C298 1.391 . S
C303 C302 1.391 . S
C303 C304 1.399 . S
C304 C303 1.399 . S
C304 C305 1.396 1_655 S
C304 C307 1.453 . S
C304 C308 1.684 . S
C305 C295 1.723 . S
C305 C304 1.396 1_455 S
C305 C306 1.394 . S
C306 C276 1.723 . S
C306 C302 1.397 1_455 S
C306 C305 1.394 . S
C307 H279 0.982 . S
C307 H283 0.979 . S
C307 H284 0.977 . S
C307 C304 1.453 . S
C308 H280 0.979 . S
C308 H281 1.000 . S
C308 H282 0.983 . S
C308 C304 1.684 . S
H309 C327 0.948 . S
H310 C268 0.948 . S
H311 C286 0.979 . S
H312 C286 0.980 1_655 S
H313 C286 0.983 . S
H314 C285 0.982 . S
H315 C285 0.979 . S
H316 C285 0.977 1_655 S
H317 C287 0.948 . S
H318 C289 0.947 . S
H319 C290 0.948 . S
H320 C296 0.982 . S
H321 C296 0.979 . S
H322 C296 0.977 . S
H323 C297 0.979 . S
H324 C297 0.980 . S
H325 C297 0.983 . S
H326 C270 0.947 . S
C327 C270 1.392 . S
C327 C271 1.419 . S
C327 H309 0.948 . S
C328 C329 1.391 . S
C328 C332 1.391 . S
C328 H370 0.948 . S
C329 C328 1.391 . S
C329 C330 1.391 . S
C330 C329 1.391 . S
C330 H386 0.947 . S
C330 C387 1.392 . S
C331 C332 1.391 . S
C331 C335 1.397 . S
C331 C387 1.419 . S
C332 C328 1.391 . S
C332 C331 1.391 . S
C332 C333 1.399 . S
C333 C332 1.399 . S
C333 C336 1.396 . S
C333 C345 1.453 1_565 S
C333 C346 1.684 1_565 S
H334 C358 0.948 . S
C335 C331 1.397 . S
C335 C336 1.394 . S
C335 C354 1.723 . S
C336 C333 1.396 . S
C336 C335 1.394 . S
C336 C366 1.723 1_565 S
H337 C360 0.947 . S
H338 C361 0.948 . S
H339 C367 0.982 . S
H340 C368 0.979 . S
H341 C368 0.980 . S
H342 C368 0.983 . S
H343 C367 0.979 . S
H344 C367 0.977 . S
C345 C333 1.453 1_545 S
C345 H374 0.982 . S
C345 H375 0.979 . S
C345 H376 0.977 . S
C346 C333 1.684 1_545 S
C346 H371 0.979 . S
C346 H372 0.980 . S
C346 H373 0.983 . S
C347 C348 1.391 . S
C347 C352 1.391 . S
C347 H377 0.948 . S
C348 C347 1.391 . S
C348 C349 1.391 . S
C349 C348 1.391 . S
C349 C350 1.392 . S
C349 H378 0.947 . S
C350 C349 1.392 . S
C350 C351 1.419 . S
C350 H379 0.948 . S
C351 C350 1.419 . S
C351 C352 1.391 . S
C351 C355 1.397 . S
C352 C347 1.391 . S
C352 C351 1.391 . S
C352 C353 1.399 . S
C353 C352 1.399 . S
C353 C354 1.396 . S
C353 C356 1.453 . S
C353 C357 1.684 . S
C354 C335 1.723 . S
C354 C353 1.396 . S
C354 C355 1.394 . S
C355 C351 1.397 . S
C355 C354 1.394 . S
C355 C365 1.723 1_565 S
C356 C353 1.453 . S
C356 H380 0.982 . S
C356 H381 0.979 . S
C356 H382 0.977 . S
C357 C353 1.684 . S
C357 H383 0.979 . S
C357 H384 0.980 . S
C357 H385 0.983 . S
C358 H334 0.948 . S
C358 C359 1.391 . S
C358 C363 1.391 . S
C359 C358 1.391 . S
C359 C360 1.391 . S
C360 H337 0.947 . S
C360 C359 1.391 . S
C360 C361 1.392 . S
C361 H338 0.948 . S
C361 C360 1.392 . S
C361 C362 1.419 . S
C362 C361 1.419 . S
C362 C363 1.391 . S
C362 C366 1.397 . S
C363 C358 1.391 . S
C363 C362 1.391 . S
C363 C364 1.399 . S
C364 C363 1.399 . S
C364 C365 1.396 . S
C364 C367 1.453 . S
C364 C368 1.684 . S
C365 C355 1.723 1_545 S
C365 C364 1.396 . S
C365 C366 1.394 . S
C366 C336 1.723 1_545 S
C366 C362 1.397 . S
C366 C365 1.394 . S
C367 H339 0.982 . S
C367 H343 0.979 . S
C367 H344 0.977 . S
C367 C364 1.453 . S
C368 H340 0.979 . S
C368 H341 0.980 . S
C368 H342 0.983 . S
C368 C364 1.684 . S
H369 C387 0.948 . S
H370 C328 0.948 . S
H371 C346 0.979 . S
H372 C346 0.980 . S
H373 C346 0.983 . S
H374 C345 0.982 . S
H375 C345 0.979 . S
H376 C345 0.977 . S
H377 C347 0.948 . S
H378 C349 0.947 . S
H379 C350 0.948 . S
H380 C356 0.982 . S
H381 C356 0.979 . S
H382 C356 0.977 . S
H383 C357 0.979 . S
H384 C357 0.980 . S
H385 C357 0.983 . S
H386 C330 0.947 . S
C387 C330 1.392 . S
C387 C331 1.419 . S
C387 H369 0.948 . S
C388 C389 1.391 . S
C388 C392 1.391 . S
C388 H430 0.948 . S
C389 C388 1.391 . S
C389 C390 1.391 . S
C390 C389 1.391 . S
C390 H446 0.947 . S
C390 C447 1.392 . S
C391 C392 1.391 . S
C391 C395 1.397 . S
C391 C447 1.419 . S
C392 C388 1.391 . S
C392 C391 1.391 . S
C392 C393 1.399 . S
C393 C392 1.399 . S
C393 C396 1.396 . S
C393 C405 1.453 . S
C393 C406 1.684 . S
H394 C418 0.948 . S
C395 C391 1.397 . S
C395 C396 1.394 . S
C395 C414 1.723 1_554 S
C396 C393 1.396 . S
C396 C395 1.394 . S
C396 C426 1.723 . S
H397 C420 0.947 . S
H398 C421 0.948 . S
H399 C427 0.982 . S
H400 C428 0.979 . S
H401 C428 0.980 . S
H402 C428 0.983 . S
H403 C427 0.979 . S
H404 C427 0.977 . S
C405 C393 1.453 . S
C405 H434 0.982 . S
C405 H435 0.979 . S
C405 H436 0.977 . S
C406 C393 1.684 . S
C406 H431 0.979 . S
C406 H432 0.980 . S
C406 H433 0.983 . S
C407 C408 1.391 . S
C407 C412 1.391 . S
C407 H437 0.948 . S
C408 C407 1.391 . S
C408 C409 1.391 . S
C409 C408 1.391 . S
C409 C410 1.392 . S
C409 H438 0.947 . S
C410 C409 1.392 . S
C410 C411 1.419 . S
C410 H439 0.948 . S
C411 C410 1.419 . S
C411 C412 1.391 . S
C411 C415 1.397 . S
C412 C407 1.391 . S
C412 C411 1.391 . S
C412 C413 1.399 . S
C413 C412 1.399 . S
C413 C414 1.396 . S
C413 C416 1.453 . S
C413 C417 1.684 . S
C414 C395 1.723 1_556 S
C414 C413 1.396 . S
C414 C415 1.394 . S
C415 C411 1.397 . S
C415 C414 1.394 . S
C415 C425 1.723 . S
C416 C413 1.453 . S
C416 H440 0.982 . S
C416 H441 0.979 . S
C416 H442 0.977 1_556 S
C417 C413 1.684 . S
C417 H443 0.979 . S
C417 H444 0.980 1_556 S
C417 H445 0.983 . S
C418 H394 0.948 . S
C418 C419 1.391 1_556 S
C418 C423 1.391 . S
C419 C418 1.391 1_554 S
C419 C420 1.391 . S
C420 H397 0.947 . S
C420 C419 1.391 . S
C420 C421 1.392 . S
C421 H398 0.948 . S
C421 C420 1.392 . S
C421 C422 1.419 . S
C422 C421 1.419 . S
C422 C423 1.391 1_554 S
C422 C426 1.397 . S
C423 C418 1.391 . S
C423 C422 1.391 1_556 S
C423 C424 1.399 . S
C424 C423 1.399 . S
C424 C425 1.396 . S
C424 C427 1.453 . S
C424 C428 1.684 . S
C425 C415 1.723 . S
C425 C424 1.396 . S
C425 C426 1.394 1_556 S
C426 C396 1.723 . S
C426 C422 1.397 . S
C426 C425 1.394 1_554 S
C427 H399 0.982 . S
C427 H403 0.979 . S
C427 H404 0.977 . S
C427 C424 1.453 . S
C428 H400 0.979 . S
C428 H401 0.980 . S
C428 H402 0.983 . S
C428 C424 1.684 . S
H429 C447 0.948 . S
H430 C388 0.948 . S
H431 C406 0.979 . S
H432 C406 0.980 . S
H433 C406 0.983 . S
H434 C405 0.982 . S
H435 C405 0.979 . S
H436 C405 0.977 . S
H437 C407 0.948 . S
H438 C409 0.947 . S
H439 C410 0.948 . S
H440 C416 0.982 . S
H441 C416 0.979 . S
H442 C416 0.977 1_554 S
H443 C417 0.979 . S
H444 C417 0.980 1_554 S
H445 C417 0.983 . S
H446 C390 0.947 . S
C447 C390 1.392 . S
C447 C391 1.419 . S
C447 H429 0.948 . S
C448 C449 1.391 . S
C448 C452 1.391 . S
C448 H490 0.948 . S
C449 C448 1.391 . S
C449 C450 1.391 . S
C450 C449 1.391 . S
C450 H506 0.947 . S
C450 C507 1.392 . S
C451 C452 1.391 . S
C451 C455 1.397 . S
C451 C507 1.419 . S
C452 C448 1.391 . S
C452 C451 1.391 . S
C452 C453 1.399 . S
C453 C452 1.399 . S
C453 C456 1.396 . S
C453 C465 1.453 1_545 S
C453 C466 1.684 1_545 S
H454 C478 0.948 . S
C455 C451 1.397 . S
C455 C456 1.394 . S
C455 C474 1.723 . S
C456 C453 1.396 . S
C456 C455 1.394 . S
C456 C486 1.723 1_545 S
H457 C480 0.947 . S
H458 C481 0.948 . S
H459 C487 0.982 . S
H460 C488 0.979 . S
H461 C488 0.980 . S
H462 C488 0.983 . S
H463 C487 0.979 . S
H464 C487 0.977 . S
C465 C453 1.453 1_565 S
C465 H494 0.982 1_565 S
C465 H495 0.979 . S
C465 H496 0.977 . S
C466 C453 1.684 1_565 S
C466 H491 0.979 . S
C466 H492 0.980 . S
C466 H493 0.983 . S
C467 C468 1.391 . S
C467 C472 1.391 . S
C467 H497 0.948 . S
C468 C467 1.391 . S
C468 C469 1.391 . S
C469 C468 1.391 . S
C469 C470 1.392 . S
C469 H498 0.947 . S
C470 C469 1.392 . S
C470 C471 1.419 . S
C470 H499 0.948 . S
C471 C470 1.419 . S
C471 C472 1.391 . S
C471 C475 1.397 . S
C472 C467 1.391 . S
C472 C471 1.391 . S
C472 C473 1.399 . S
C473 C472 1.399 . S
C473 C474 1.396 . S
C473 C476 1.453 . S
C473 C477 1.684 . S
C474 C455 1.723 . S
C474 C473 1.396 . S
C474 C475 1.394 . S
C475 C471 1.397 . S
C475 C474 1.394 . S
C475 C485 1.723 1_545 S
C476 C473 1.453 . S
C476 H500 0.982 . S
C476 H501 0.979 . S
C476 H502 0.977 . S
C477 C473 1.684 . S
C477 H503 0.979 . S
C477 H504 0.980 . S
C477 H505 0.983 . S
C478 H454 0.948 . S
C478 C479 1.391 . S
C478 C483 1.391 . S
C479 C478 1.391 . S
C479 C480 1.391 . S
C480 H457 0.947 . S
C480 C479 1.391 . S
C480 C481 1.392 . S
C481 H458 0.948 . S
C481 C480 1.392 . S
C481 C482 1.419 . S
C482 C481 1.419 . S
C482 C483 1.391 . S
C482 C486 1.397 . S
C483 C478 1.391 . S
C483 C482 1.391 . S
C483 C484 1.399 . S
C484 C483 1.399 . S
C484 C485 1.396 . S
C484 C487 1.453 . S
C484 C488 1.684 . S
C485 C475 1.723 1_565 S
C485 C484 1.396 . S
C485 C486 1.394 . S
C486 C456 1.723 1_565 S
C486 C482 1.397 . S
C486 C485 1.394 . S
C487 H459 0.982 . S
C487 H463 0.979 . S
C487 H464 0.977 . S
C487 C484 1.453 . S
C488 H460 0.979 . S
C488 H461 0.980 . S
C488 H462 0.983 . S
C488 C484 1.684 . S
H489 C507 0.948 . S
H490 C448 0.948 . S
H491 C466 0.979 . S
H492 C466 0.980 . S
H493 C466 0.983 . S
H494 C465 0.982 1_545 S
H495 C465 0.979 . S
H496 C465 0.977 . S
H497 C467 0.948 . S
H498 C469 0.947 . S
H499 C470 0.948 . S
H500 C476 0.982 . S
H501 C476 0.979 . S
H502 C476 0.977 . S
H503 C477 0.979 . S
H504 C477 0.980 . S
H505 C477 0.983 . S
H506 C450 0.947 . S
C507 C450 1.392 . S
C507 C451 1.419 . S
C507 H489 0.948 . S
C508 C509 1.391 1_554 S
C508 C512 1.391 . S
C508 H550 0.948 . S
C509 C508 1.391 1_556 S
C509 C510 1.391 . S
C510 C509 1.391 . S
C510 H566 0.947 . S
C510 C567 1.392 . S
C511 C512 1.391 1_556 S
C511 C515 1.397 . S
C511 C567 1.419 . S
C512 C508 1.391 . S
C512 C511 1.391 1_554 S
C512 C513 1.399 . S
C513 C512 1.399 . S
C513 C516 1.396 . S
C513 C525 1.453 . S
C513 C526 1.684 . S
H514 C538 0.948 . S
C515 C511 1.397 . S
C515 C516 1.394 1_556 S
C515 C534 1.723 . S
C516 C513 1.396 . S
C516 C515 1.394 1_554 S
C516 C546 1.723 . S
H517 C540 0.947 . S
H518 C541 0.948 . S
H519 C547 0.982 . S
H520 C548 0.979 . S
H521 C548 0.980 1_556 S
H522 C548 0.983 . S
H523 C547 0.979 . S
H524 C547 0.977 1_556 S
C525 C513 1.453 . S
C525 H554 0.982 . S
C525 H555 0.979 . S
C525 H556 0.977 . S
C526 C513 1.684 . S
C526 H551 0.979 . S
C526 H552 0.980 . S
C526 H553 0.983 . S
C527 C528 1.391 . S
C527 C532 1.391 . S
C527 H557 0.948 . S
C528 C527 1.391 . S
C528 C529 1.391 . S
C529 C528 1.391 . S
C529 C530 1.392 . S
C529 H558 0.947 . S
C530 C529 1.392 . S
C530 C531 1.419 . S
C530 H559 0.948 . S
C531 C530 1.419 . S
C531 C532 1.391 . S
C531 C535 1.397 . S
C532 C527 1.391 . S
C532 C531 1.391 . S
C532 C533 1.399 . S
C533 C532 1.399 . S
C533 C534 1.396 . S
C533 C536 1.453 . S
C533 C537 1.684 . S
C534 C515 1.723 . S
C534 C533 1.396 . S
C534 C535 1.394 . S
C535 C531 1.397 . S
C535 C534 1.394 . S
C535 C545 1.723 1_556 S
C536 C533 1.453 . S
C536 H560 0.982 . S
C536 H561 0.979 . S
C536 H562 0.977 . S
C537 C533 1.684 . S
C537 H563 0.979 . S
C537 H564 0.980 . S
C537 H565 0.983 . S
C538 H514 0.948 . S
C538 C539 1.391 . S
C538 C543 1.391 . S
C539 C538 1.391 . S
C539 C540 1.391 . S
C540 H517 0.947 . S
C540 C539 1.391 . S
C540 C541 1.392 . S
C541 H518 0.948 . S
C541 C540 1.392 . S
C541 C542 1.419 . S
C542 C541 1.419 . S
C542 C543 1.391 . S
C542 C546 1.397 . S
C543 C538 1.391 . S
C543 C542 1.391 . S
C543 C544 1.399 . S
C544 C543 1.399 . S
C544 C545 1.396 . S
C544 C547 1.453 . S
C544 C548 1.684 . S
C545 C535 1.723 1_554 S
C545 C544 1.396 . S
C545 C546 1.394 . S
C546 C516 1.723 . S
C546 C542 1.397 . S
C546 C545 1.394 . S
C547 H519 0.982 . S
C547 H523 0.979 . S
C547 H524 0.977 1_554 S
C547 C544 1.453 . S
C548 H520 0.979 . S
C548 H521 0.980 1_554 S
C548 H522 0.983 . S
C548 C544 1.684 . S
H549 C567 0.948 . S
H550 C508 0.948 . S
H551 C526 0.979 . S
H552 C526 0.980 . S
H553 C526 0.983 . S
H554 C525 0.982 . S
H555 C525 0.979 . S
H556 C525 0.977 . S
H557 C527 0.948 . S
H558 C529 0.947 . S
H559 C530 0.948 . S
H560 C536 0.982 . S
H561 C536 0.979 . S
H562 C536 0.977 . S
H563 C537 0.979 . S
H564 C537 0.980 . S
H565 C537 0.983 . S
H566 C510 0.947 . S
C567 C510 1.392 . S
C567 C511 1.419 . S
C567 H549 0.948 . S
C568 C569 1.349 . S
C568 C570 1.327 . S
C568 H593 0.950 . S
C569 C568 1.349 . S
C569 C585 1.349 . S
C570 C568 1.327 . S
C570 C589 1.429 . S
C570 H594 0.950 . S
C571 C588 1.574 . S
C571 C590 1.368 . S
C571 H595 0.949 . S
H572 C576 0.949 . S
C573 C574 1.349 . S
C573 C575 1.327 . S
C573 H596 0.950 . S
C574 C573 1.349 . S
C574 C586 1.349 . S
C575 C573 1.327 . S
C575 C591 1.429 . S
C575 H597 0.950 . S
C576 H572 0.949 . S
C576 C584 1.574 . S
C576 C592 1.368 . S
H577 C585 0.950 . S
H578 C583 0.950 . S
H579 C584 0.949 . S
H580 C586 0.950 . S
H581 C587 0.950 . S
H582 C588 0.949 . S
C583 H578 0.950 . S
C583 C585 1.327 . S
C583 C589 1.429 . S
C584 C576 1.574 . S
C584 H579 0.949 . S
C584 C590 1.368 . S
C585 C569 1.349 . S
C585 H577 0.950 . S
C585 C583 1.327 . S
C586 C574 1.349 . S
C586 H580 0.950 . S
C586 C587 1.327 . S
C587 H581 0.950 . S
C587 C586 1.327 . S
C587 C591 1.429 . S
C588 C571 1.574 . S
C588 H582 0.949 . S
C588 C592 1.368 . S
C589 C570 1.429 . S
C589 C583 1.429 . S
C589 C590 1.523 . S
C590 C571 1.368 . S
C590 C584 1.368 . S
C590 C589 1.523 . S
C591 C575 1.429 . S
C591 C587 1.429 . S
C591 C592 1.523 . S
C592 C576 1.368 . S
C592 C588 1.368 . S
C592 C591 1.523 . S
H593 C568 0.950 . S
H594 C570 0.950 . S
H595 C571 0.949 . S
H596 C573 0.950 . S
H597 C575 0.950 . S
C598 C599 1.349 . S
C598 C600 1.327 . S
C598 H623 0.950 . S
C599 C598 1.349 . S
C599 C615 1.349 . S
C600 C598 1.327 . S
C600 C619 1.429 . S
C600 H624 0.950 . S
C601 C618 1.574 . S
C601 C620 1.368 . S
C601 H625 0.949 . S
H602 C606 0.949 . S
C603 C604 1.349 . S
C603 C605 1.327 . S
C603 H626 0.950 . S
C604 C603 1.349 . S
C604 C616 1.349 . S
C605 C603 1.327 . S
C605 C621 1.429 . S
C605 H627 0.950 . S
C606 H602 0.949 . S
C606 C614 1.574 . S
C606 C622 1.368 . S
H607 C615 0.950 . S
H608 C613 0.950 . S
H609 C614 0.949 . S
H610 C616 0.950 . S
H611 C617 0.950 . S
H612 C618 0.949 . S
C613 H608 0.950 . S
C613 C615 1.327 . S
C613 C619 1.429 . S
C614 C606 1.574 . S
C614 H609 0.949 . S
C614 C620 1.368 . S
C615 C599 1.349 . S
C615 H607 0.950 . S
C615 C613 1.327 . S
C616 C604 1.349 . S
C616 H610 0.950 . S
C616 C617 1.327 . S
C617 H611 0.950 . S
C617 C616 1.327 . S
C617 C621 1.429 . S
C618 C601 1.574 . S
C618 H612 0.949 . S
C618 C622 1.368 . S
C619 C600 1.429 . S
C619 C613 1.429 . S
C619 C620 1.523 . S
C620 C601 1.368 . S
C620 C614 1.368 . S
C620 C619 1.523 . S
C621 C605 1.429 . S
C621 C617 1.429 . S
C621 C622 1.523 . S
C622 C606 1.368 . S
C622 C618 1.368 . S
C622 C621 1.523 . S
H623 C598 0.950 . S
H624 C600 0.950 . S
H625 C601 0.949 . S
H626 C603 0.950 . S
H627 C605 0.950 . S
C628 C629 1.349 . S
C628 C630 1.327 . S
C628 H653 0.950 . S
C629 C628 1.349 . S
C629 C645 1.349 . S
C630 C628 1.327 . S
C630 C649 1.429 . S
C630 H654 0.950 . S
C631 C648 1.574 . S
C631 C650 1.368 . S
C631 H655 0.949 . S
H632 C636 0.949 . S
C633 C634 1.349 . S
C633 C635 1.327 . S
C633 H656 0.950 . S
C634 C633 1.349 . S
C634 C646 1.349 . S
C635 C633 1.327 . S
C635 C651 1.429 . S
C635 H657 0.950 . S
C636 H632 0.949 . S
C636 C644 1.574 . S
C636 C652 1.368 . S
H637 C645 0.950 . S
H638 C643 0.950 . S
H639 C644 0.949 . S
H640 C646 0.950 . S
H641 C647 0.950 . S
H642 C648 0.949 . S
C643 H638 0.950 . S
C643 C645 1.327 . S
C643 C649 1.429 . S
C644 C636 1.574 . S
C644 H639 0.949 . S
C644 C650 1.368 . S
C645 C629 1.349 . S
C645 H637 0.950 . S
C645 C643 1.327 . S
C646 C634 1.349 . S
C646 H640 0.950 . S
C646 C647 1.327 . S
C647 H641 0.950 . S
C647 C646 1.327 . S
C647 C651 1.429 . S
C648 C631 1.574 . S
C648 H642 0.949 . S
C648 C652 1.368 . S
C649 C630 1.429 . S
C649 C643 1.429 . S
C649 C650 1.523 . S
C650 C631 1.368 . S
C650 C644 1.368 . S
C650 C649 1.523 . S
C651 C635 1.429 . S
C651 C647 1.429 . S
C651 C652 1.523 . S
C652 C636 1.368 . S
C652 C648 1.368 . S
C652 C651 1.523 . S
H653 C628 0.950 . S
H654 C630 0.950 . S
H655 C631 0.949 . S
H656 C633 0.950 . S
H657 C635 0.950 . S
C658 C659 1.349 . S
C658 C660 1.327 . S
C658 H683 0.950 . S
C659 C658 1.349 . S
C659 C675 1.349 . S
C660 C658 1.327 . S
C660 C679 1.429 . S
C660 H684 0.950 . S
C661 C678 1.574 . S
C661 C680 1.368 . S
C661 H685 0.949 . S
H662 C666 0.949 . S
C663 C664 1.349 . S
C663 C665 1.327 . S
C663 H686 0.950 . S
C664 C663 1.349 . S
C664 C676 1.349 . S
C665 C663 1.327 . S
C665 C681 1.429 . S
C665 H687 0.950 . S
C666 H662 0.949 . S
C666 C674 1.574 . S
C666 C682 1.368 . S
H667 C675 0.950 . S
H668 C673 0.950 . S
H669 C674 0.949 . S
H670 C676 0.950 . S
H671 C677 0.950 . S
H672 C678 0.949 . S
C673 H668 0.950 . S
C673 C675 1.327 . S
C673 C679 1.429 . S
C674 C666 1.574 . S
C674 H669 0.949 . S
C674 C680 1.368 . S
C675 C659 1.349 . S
C675 H667 0.950 . S
C675 C673 1.327 . S
C676 C664 1.349 . S
C676 H670 0.950 . S
C676 C677 1.327 . S
C677 H671 0.950 . S
C677 C676 1.327 . S
C677 C681 1.429 . S
C678 C661 1.574 . S
C678 H672 0.949 . S
C678 C682 1.368 . S
C679 C660 1.429 . S
C679 C673 1.429 . S
C679 C680 1.523 . S
C680 C661 1.368 . S
C680 C674 1.368 . S
C680 C679 1.523 . S
C681 C665 1.429 . S
C681 C677 1.429 . S
C681 C682 1.523 . S
C682 C666 1.368 . S
C682 C678 1.368 . S
C682 C681 1.523 . S
H683 C658 0.950 . S
H684 C660 0.950 . S
H685 C661 0.949 . S
H686 C663 0.950 . S
H687 C665 0.950 . S
C688 C689 1.349 . S
C688 C690 1.327 . S
C688 H713 0.950 . S
C689 C688 1.349 . S
C689 C705 1.349 . S
C690 C688 1.327 . S
C690 C709 1.429 . S
C690 H714 0.950 . S
C691 C708 1.574 . S
C691 C710 1.368 . S
C691 H715 0.949 . S
H692 C696 0.949 . S
C693 C694 1.349 . S
C693 C695 1.327 . S
C693 H716 0.950 . S
C694 C693 1.349 . S
C694 C706 1.349 . S
C695 C693 1.327 . S
C695 C711 1.429 . S
C695 H717 0.950 . S
C696 H692 0.949 . S
C696 C704 1.574 . S
C696 C712 1.368 . S
H697 C705 0.950 . S
H698 C703 0.950 . S
H699 C704 0.949 . S
H700 C706 0.950 . S
H701 C707 0.950 . S
H702 C708 0.949 . S
C703 H698 0.950 . S
C703 C705 1.327 . S
C703 C709 1.429 . S
C704 C696 1.574 . S
C704 H699 0.949 . S
C704 C710 1.368 . S
C705 C689 1.349 . S
C705 H697 0.950 . S
C705 C703 1.327 . S
C706 C694 1.349 . S
C706 H700 0.950 . S
C706 C707 1.327 . S
C707 H701 0.950 . S
C707 C706 1.327 . S
C707 C711 1.429 . S
C708 C691 1.574 . S
C708 H702 0.949 . S
C708 C712 1.368 . S
C709 C690 1.429 . S
C709 C703 1.429 . S
C709 C710 1.523 . S
C710 C691 1.368 . S
C710 C704 1.368 . S
C710 C709 1.523 . S
C711 C695 1.429 . S
C711 C707 1.429 . S
C711 C712 1.523 . S
C712 C696 1.368 . S
C712 C708 1.368 . S
C712 C711 1.523 . S
H713 C688 0.950 . S
H714 C690 0.950 . S
H715 C691 0.949 . S
H716 C693 0.950 . S
H717 C695 0.950 . S
C718 C719 1.349 . S
C718 C720 1.327 . S
C718 H743 0.950 . S
C719 C718 1.349 . S
C719 C735 1.349 . S
C720 C718 1.327 . S
C720 C739 1.429 . S
C720 H744 0.950 . S
C721 C738 1.574 . S
C721 C740 1.368 . S
C721 H745 0.949 . S
H722 C726 0.949 . S
C723 C724 1.349 . S
C723 C725 1.327 . S
C723 H746 0.950 . S
C724 C723 1.349 . S
C724 C736 1.349 . S
C725 C723 1.327 . S
C725 C741 1.429 . S
C725 H747 0.950 . S
C726 H722 0.949 . S
C726 C734 1.574 . S
C726 C742 1.368 . S
H727 C735 0.950 . S
H728 C733 0.950 . S
H729 C734 0.949 . S
H730 C736 0.950 . S
H731 C737 0.950 . S
H732 C738 0.949 . S
C733 H728 0.950 . S
C733 C735 1.327 . S
C733 C739 1.429 . S
C734 C726 1.574 . S
C734 H729 0.949 . S
C734 C740 1.368 . S
C735 C719 1.349 . S
C735 H727 0.950 . S
C735 C733 1.327 . S
C736 C724 1.349 . S
C736 H730 0.950 . S
C736 C737 1.327 . S
C737 H731 0.950 . S
C737 C736 1.327 . S
C737 C741 1.429 . S
C738 C721 1.574 . S
C738 H732 0.949 . S
C738 C742 1.368 . S
C739 C720 1.429 . S
C739 C733 1.429 . S
C739 C740 1.523 . S
C740 C721 1.368 . S
C740 C734 1.368 . S
C740 C739 1.523 . S
C741 C725 1.429 . S
C741 C737 1.429 . S
C741 C742 1.523 . S
C742 C726 1.368 . S
C742 C738 1.368 . S
C742 C741 1.523 . S
H743 C718 0.950 . S
H744 C720 0.950 . S
H745 C721 0.949 . S
H746 C723 0.950 . S
H747 C725 0.950 . S
C748 C749 1.349 . S
C748 C750 1.327 . S
C748 H773 0.950 . S
C749 C748 1.349 . S
C749 C765 1.349 . S
C750 C748 1.327 . S
C750 C769 1.429 . S
C750 H774 0.950 . S
C751 C768 1.574 . S
C751 C770 1.368 . S
C751 H775 0.949 . S
H752 C756 0.949 . S
C753 C754 1.349 . S
C753 C755 1.327 . S
C753 H776 0.950 . S
C754 C753 1.349 . S
C754 C766 1.349 . S
C755 C753 1.327 . S
C755 C771 1.429 . S
C755 H777 0.950 . S
C756 H752 0.949 . S
C756 C764 1.574 . S
C756 C772 1.368 . S
H757 C765 0.950 . S
H758 C763 0.950 . S
H759 C764 0.949 . S
H760 C766 0.950 . S
H761 C767 0.950 . S
H762 C768 0.949 . S
C763 H758 0.950 . S
C763 C765 1.327 . S
C763 C769 1.429 . S
C764 C756 1.574 . S
C764 H759 0.949 . S
C764 C770 1.368 . S
C765 C749 1.349 . S
C765 H757 0.950 . S
C765 C763 1.327 . S
C766 C754 1.349 . S
C766 H760 0.950 . S
C766 C767 1.327 . S
C767 H761 0.950 . S
C767 C766 1.327 . S
C767 C771 1.429 . S
C768 C751 1.574 . S
C768 H762 0.949 . S
C768 C772 1.368 . S
C769 C750 1.429 . S
C769 C763 1.429 . S
C769 C770 1.523 . S
C770 C751 1.368 . S
C770 C764 1.368 . S
C770 C769 1.523 . S
C771 C755 1.429 . S
C771 C767 1.429 . S
C771 C772 1.523 . S
C772 C756 1.368 . S
C772 C768 1.368 . S
C772 C771 1.523 . S
H773 C748 0.950 . S
H774 C750 0.950 . S
H775 C751 0.949 . S
H776 C753 0.950 . S
H777 C755 0.950 . S
C778 C779 1.349 . S
C778 C780 1.327 . S
C778 H803 0.950 . S
C779 C778 1.349 . S
C779 C795 1.349 . S
C780 C778 1.327 . S
C780 C799 1.429 . S
C780 H804 0.950 . S
C781 C798 1.574 . S
C781 C800 1.368 . S
C781 H805 0.949 . S
H782 C786 0.949 . S
C783 C784 1.349 . S
C783 C785 1.327 . S
C783 H806 0.950 . S
C784 C783 1.349 . S
C784 C796 1.349 . S
C785 C783 1.327 . S
C785 C801 1.429 . S
C785 H807 0.950 . S
C786 H782 0.949 . S
C786 C794 1.574 . S
C786 C802 1.368 . S
H787 C795 0.950 . S
H788 C793 0.950 . S
H789 C794 0.949 . S
H790 C796 0.950 . S
H791 C797 0.950 . S
H792 C798 0.949 . S
C793 H788 0.950 . S
C793 C795 1.327 . S
C793 C799 1.429 . S
C794 C786 1.574 . S
C794 H789 0.949 . S
C794 C800 1.368 . S
C795 C779 1.349 . S
C795 H787 0.950 . S
C795 C793 1.327 . S
C796 C784 1.349 . S
C796 H790 0.950 . S
C796 C797 1.327 . S
C797 H791 0.950 . S
C797 C796 1.327 . S
C797 C801 1.429 . S
C798 C781 1.574 . S
C798 H792 0.949 . S
C798 C802 1.368 . S
C799 C780 1.429 . S
C799 C793 1.429 . S
C799 C800 1.523 . S
C800 C781 1.368 . S
C800 C794 1.368 . S
C800 C799 1.523 . S
C801 C785 1.429 . S
C801 C797 1.429 . S
C801 C802 1.523 . S
C802 C786 1.368 . S
C802 C798 1.368 . S
C802 C801 1.523 . S
H803 C778 0.950 . S
H804 C780 0.950 . S
H805 C781 0.949 . S
H806 C783 0.950 . S
H807 C785 0.950 . S
C808 C809 1.349 . S
C808 C810 1.327 . S
C808 H833 0.950 . S
C809 C808 1.349 . S
C809 C825 1.349 . S
C810 C808 1.327 . S
C810 C829 1.429 . S
C810 H834 0.950 . S
C811 C828 1.574 . S
C811 C830 1.368 . S
C811 H835 0.949 . S
H812 C816 0.949 . S
C813 C814 1.349 . S
C813 C815 1.327 . S
C813 H836 0.950 . S
C814 C813 1.349 . S
C814 C826 1.349 . S
C815 C813 1.327 . S
C815 C831 1.429 . S
C815 H837 0.950 . S
C816 H812 0.949 . S
C816 C824 1.574 . S
C816 C832 1.368 . S
H817 C825 0.950 . S
H818 C823 0.950 . S
H819 C824 0.949 . S
H820 C826 0.950 . S
H821 C827 0.950 . S
H822 C828 0.949 . S
C823 H818 0.950 . S
C823 C825 1.327 . S
C823 C829 1.429 . S
C824 C816 1.574 . S
C824 H819 0.949 . S
C824 C830 1.368 . S
C825 C809 1.349 . S
C825 H817 0.950 . S
C825 C823 1.327 . S
C826 C814 1.349 . S
C826 H820 0.950 . S
C826 C827 1.327 . S
C827 H821 0.950 . S
C827 C826 1.327 . S
C827 C831 1.429 . S
C828 C811 1.574 . S
C828 H822 0.949 . S
C828 C832 1.368 . S
C829 C810 1.429 . S
C829 C823 1.429 . S
C829 C830 1.523 . S
C830 C811 1.368 . S
C830 C824 1.368 . S
C830 C829 1.523 . S
C831 C815 1.429 . S
C831 C827 1.429 . S
C831 C832 1.523 . S
C832 C816 1.368 . S
C832 C828 1.368 . S
C832 C831 1.523 . S
H833 C808 0.950 . S
H834 C810 0.950 . S
H835 C811 0.949 . S
H836 C813 0.950 . S
H837 C815 0.950 . S
C838 C839 1.349 . S
C838 C840 1.327 . S
C838 H863 0.950 . S
C839 C838 1.349 . S
C839 C855 1.349 . S
C840 C838 1.327 . S
C840 C859 1.429 . S
C840 H864 0.950 . S
C841 C858 1.574 . S
C841 C860 1.368 . S
C841 H865 0.949 . S
H842 C846 0.949 . S
C843 C844 1.349 . S
C843 C845 1.327 . S
C843 H866 0.950 . S
C844 C843 1.349 . S
C844 C856 1.349 . S
C845 C843 1.327 . S
C845 C861 1.429 . S
C845 H867 0.950 . S
C846 H842 0.949 . S
C846 C854 1.574 . S
C846 C862 1.368 . S
H847 C855 0.950 . S
H848 C853 0.950 . S
H849 C854 0.949 . S
H850 C856 0.950 . S
H851 C857 0.950 . S
H852 C858 0.949 . S
C853 H848 0.950 . S
C853 C855 1.327 . S
C853 C859 1.429 . S
C854 C846 1.574 . S
C854 H849 0.949 . S
C854 C860 1.368 . S
C855 C839 1.349 . S
C855 H847 0.950 . S
C855 C853 1.327 . S
C856 C844 1.349 . S
C856 H850 0.950 . S
C856 C857 1.327 . S
C857 H851 0.950 . S
C857 C856 1.327 . S
C857 C861 1.429 . S
C858 C841 1.574 . S
C858 H852 0.949 . S
C858 C862 1.368 . S
C859 C840 1.429 . S
C859 C853 1.429 . S
C859 C860 1.523 . S
C860 C841 1.368 . S
C860 C854 1.368 . S
C860 C859 1.523 . S
C861 C845 1.429 . S
C861 C857 1.429 . S
C861 C862 1.523 . S
C862 C846 1.368 . S
C862 C858 1.368 . S
C862 C861 1.523 . S
H863 C838 0.950 . S
H864 C840 0.950 . S
H865 C841 0.949 . S
H866 C843 0.950 . S
H867 C845 0.950 . S
C868 C869 1.349 . S
C868 C870 1.327 . S
C868 H893 0.950 . S
C869 C868 1.349 . S
C869 C885 1.349 . S
C870 C868 1.327 . S
C870 C889 1.429 . S
C870 H894 0.950 . S
C871 C888 1.574 . S
C871 C890 1.368 . S
C871 H895 0.949 . S
H872 C876 0.949 . S
C873 C874 1.349 . S
C873 C875 1.327 . S
C873 H896 0.950 . S
C874 C873 1.349 . S
C874 C886 1.349 . S
C875 C873 1.327 . S
C875 C891 1.429 . S
C875 H897 0.950 . S
C876 H872 0.949 . S
C876 C884 1.574 . S
C876 C892 1.368 . S
H877 C885 0.950 . S
H878 C883 0.950 . S
H879 C884 0.949 . S
H880 C886 0.950 . S
H881 C887 0.950 . S
H882 C888 0.949 . S
C883 H878 0.950 . S
C883 C885 1.327 . S
C883 C889 1.429 . S
C884 C876 1.574 . S
C884 H879 0.949 . S
C884 C890 1.368 . S
C885 C869 1.349 . S
C885 H877 0.950 . S
C885 C883 1.327 . S
C886 C874 1.349 . S
C886 H880 0.950 . S
C886 C887 1.327 . S
C887 H881 0.950 . S
C887 C886 1.327 . S
C887 C891 1.429 . S
C888 C871 1.574 . S
C888 H882 0.949 . S
C888 C892 1.368 . S
C889 C870 1.429 . S
C889 C883 1.429 . S
C889 C890 1.523 . S
C890 C871 1.368 . S
C890 C884 1.368 . S
C890 C889 1.523 . S
C891 C875 1.429 . S
C891 C887 1.429 . S
C891 C892 1.523 . S
C892 C876 1.368 . S
C892 C888 1.368 . S
C892 C891 1.523 . S
H893 C868 0.950 . S
H894 C870 0.950 . S
H895 C871 0.949 . S
H896 C873 0.950 . S
H897 C875 0.950 . S
C898 C899 1.349 . S
C898 C900 1.327 . S
C898 H923 0.950 . S
C899 C898 1.349 . S
C899 C915 1.349 . S
C900 C898 1.327 . S
C900 C919 1.429 . S
C900 H924 0.950 . S
C901 C918 1.574 . S
C901 C920 1.368 . S
C901 H925 0.949 . S
H902 C906 0.949 . S
C903 C904 1.349 . S
C903 C905 1.327 . S
C903 H926 0.950 . S
C904 C903 1.349 . S
C904 C916 1.349 . S
C905 C903 1.327 . S
C905 C921 1.429 . S
C905 H927 0.950 . S
C906 H902 0.949 . S
C906 C914 1.574 . S
C906 C922 1.368 . S
H907 C915 0.950 . S
H908 C913 0.950 . S
H909 C914 0.949 . S
H910 C916 0.950 . S
H911 C917 0.950 . S
H912 C918 0.949 . S
C913 H908 0.950 . S
C913 C915 1.327 . S
C913 C919 1.429 . S
C914 C906 1.574 . S
C914 H909 0.949 . S
C914 C920 1.368 . S
C915 C899 1.349 . S
C915 H907 0.950 . S
C915 C913 1.327 . S
C916 C904 1.349 . S
C916 H910 0.950 . S
C916 C917 1.327 . S
C917 H911 0.950 . S
C917 C916 1.327 . S
C917 C921 1.429 . S
C918 C901 1.574 . S
C918 H912 0.949 . S
C918 C922 1.368 . S
C919 C900 1.429 . S
C919 C913 1.429 . S
C919 C920 1.523 . S
C920 C901 1.368 . S
C920 C914 1.368 . S
C920 C919 1.523 . S
C921 C905 1.429 . S
C921 C917 1.429 . S
C921 C922 1.523 . S
C922 C906 1.368 . S
C922 C918 1.368 . S
C922 C921 1.523 . S
H923 C898 0.950 . S
H924 C900 0.950 . S
H925 C901 0.949 . S
H926 C903 0.950 . S
H927 C905 0.950 . S
C928 C929 1.349 . S
C928 C930 1.327 . S
C928 H953 0.950 . S
C929 C928 1.349 . S
C929 C945 1.349 . S
C930 C928 1.327 . S
C930 C949 1.429 . S
C930 H954 0.950 . S
C931 C948 1.574 . S
C931 C950 1.368 . S
C931 H955 0.949 . S
H932 C936 0.949 . S
C933 C934 1.349 . S
C933 C935 1.327 . S
C933 H956 0.950 . S
C934 C933 1.349 . S
C934 C946 1.349 . S
C935 C933 1.327 . S
C935 C951 1.429 . S
C935 H957 0.950 . S
C936 H932 0.949 . S
C936 C944 1.574 . S
C936 C952 1.368 . S
H937 C945 0.950 . S
H938 C943 0.950 . S
H939 C944 0.949 . S
H940 C946 0.950 . S
H941 C947 0.950 . S
H942 C948 0.949 . S
C943 H938 0.950 . S
C943 C945 1.327 . S
C943 C949 1.429 . S
C944 C936 1.574 . S
C944 H939 0.949 . S
C944 C950 1.368 . S
C945 C929 1.349 . S
C945 H937 0.950 . S
C945 C943 1.327 . S
C946 C934 1.349 . S
C946 H940 0.950 . S
C946 C947 1.327 . S
C947 H941 0.950 . S
C947 C946 1.327 . S
C947 C951 1.429 . S
C948 C931 1.574 . S
C948 H942 0.949 . S
C948 C952 1.368 . S
C949 C930 1.429 . S
C949 C943 1.429 . S
C949 C950 1.523 . S
C950 C931 1.368 . S
C950 C944 1.368 . S
C950 C949 1.523 . S
C951 C935 1.429 . S
C951 C947 1.429 . S
C951 C952 1.523 . S
C952 C936 1.368 . S
C952 C948 1.368 . S
C952 C951 1.523 . S
H953 C928 0.950 . S
H954 C930 0.950 . S
H955 C931 0.949 . S
H956 C933 0.950 . S
H957 C935 0.950 . S
C958 C959 1.349 . S
C958 C960 1.327 . S
C958 H983 0.950 . S
C959 C958 1.349 . S
C959 C975 1.349 . S
C960 C958 1.327 . S
C960 C979 1.429 . S
C960 H984 0.950 . S
C961 C978 1.574 . S
C961 C980 1.368 . S
C961 H985 0.949 . S
H962 C966 0.949 . S
C963 C964 1.349 . S
C963 C965 1.327 . S
C963 H986 0.950 . S
C964 C963 1.349 . S
C964 C976 1.349 . S
C965 C963 1.327 . S
C965 C981 1.429 . S
C965 H987 0.950 . S
C966 H962 0.949 . S
C966 C974 1.574 . S
C966 C982 1.368 . S
H967 C975 0.950 . S
H968 C973 0.950 . S
H969 C974 0.949 . S
H970 C976 0.950 . S
H971 C977 0.950 . S
H972 C978 0.949 . S
C973 H968 0.950 . S
C973 C975 1.327 . S
C973 C979 1.429 . S
C974 C966 1.574 . S
C974 H969 0.949 . S
C974 C980 1.368 . S
C975 C959 1.349 . S
C975 H967 0.950 . S
C975 C973 1.327 . S
C976 C964 1.349 . S
C976 H970 0.950 . S
C976 C977 1.327 . S
C977 H971 0.950 . S
C977 C976 1.327 . S
C977 C981 1.429 . S
C978 C961 1.574 . S
C978 H972 0.949 . S
C978 C982 1.368 . S
C979 C960 1.429 . S
C979 C973 1.429 . S
C979 C980 1.523 . S
C980 C961 1.368 . S
C980 C974 1.368 . S
C980 C979 1.523 . S
C981 C965 1.429 . S
C981 C977 1.429 . S
C981 C982 1.523 . S
C982 C966 1.368 . S
C982 C978 1.368 . S
C982 C981 1.523 . S
H983 C958 0.950 . S
H984 C960 0.950 . S
H985 C961 0.949 . S
H986 C963 0.950 . S
H987 C965 0.950 . S
C988 C989 1.349 . S
C988 C990 1.327 . S
C988 H1013 0.950 . S
C989 C988 1.349 . S
C989 C1005 1.349 . S
C990 C988 1.327 . S
C990 C1009 1.429 . S
C990 H1014 0.950 . S
C991 C1008 1.574 . S
C991 C1010 1.368 . S
C991 H1015 0.949 . S
H992 C996 0.949 . S
C993 C994 1.349 . S
C993 C995 1.327 . S
C993 H1016 0.950 . S
C994 C993 1.349 . S
C994 C1006 1.349 . S
C995 C993 1.327 . S
C995 C1011 1.429 . S
C995 H1017 0.950 . S
C996 H992 0.949 . S
C996 C1004 1.574 . S
C996 C1012 1.368 . S
H997 C1005 0.950 . S
H998 C1003 0.950 . S
H999 C1004 0.949 . S
H1000 C1006 0.950 . S
H1001 C1007 0.950 . S
H1002 C1008 0.949 . S
C1003 H998 0.950 . S
C1003 C1005 1.327 . S
C1003 C1009 1.429 . S
C1004 C996 1.574 . S
C1004 H999 0.949 . S
C1004 C1010 1.368 . S
C1005 C989 1.349 . S
C1005 H997 0.950 . S
C1005 C1003 1.327 . S
C1006 C994 1.349 . S
C1006 H1000 0.950 . S
C1006 C1007 1.327 . S
C1007 H1001 0.950 . S
C1007 C1006 1.327 . S
C1007 C1011 1.429 . S
C1008 C991 1.574 . S
C1008 H1002 0.949 . S
C1008 C1012 1.368 . S
C1009 C990 1.429 . S
C1009 C1003 1.429 . S
C1009 C1010 1.523 . S
C1010 C991 1.368 . S
C1010 C1004 1.368 . S
C1010 C1009 1.523 . S
C1011 C995 1.429 . S
C1011 C1007 1.429 . S
C1011 C1012 1.523 . S
C1012 C996 1.368 . S
C1012 C1008 1.368 . S
C1012 C1011 1.523 . S
H1013 C988 0.950 . S
H1014 C990 0.950 . S
H1015 C991 0.949 . S
H1016 C993 0.950 . S
H1017 C995 0.950 . S
C1018 C1019 1.349 . S
C1018 C1020 1.327 . S
C1018 H1043 0.950 . S
C1019 C1018 1.349 . S
C1019 C1035 1.349 . S
C1020 C1018 1.327 . S
C1020 C1039 1.429 . S
C1020 H1044 0.950 . S
C1021 C1038 1.574 . S
C1021 C1040 1.368 . S
C1021 H1045 0.949 . S
H1022 C1026 0.949 . S
C1023 C1024 1.349 . S
C1023 C1025 1.327 . S
C1023 H1046 0.950 . S
C1024 C1023 1.349 . S
C1024 C1036 1.349 . S
C1025 C1023 1.327 . S
C1025 C1041 1.429 . S
C1025 H1047 0.950 . S
C1026 H1022 0.949 . S
C1026 C1034 1.574 . S
C1026 C1042 1.368 . S
H1027 C1035 0.950 . S
H1028 C1033 0.950 . S
H1029 C1034 0.949 . S
H1030 C1036 0.950 . S
H1031 C1037 0.950 . S
H1032 C1038 0.949 . S
C1033 H1028 0.950 . S
C1033 C1035 1.327 . S
C1033 C1039 1.429 . S
C1034 C1026 1.574 . S
C1034 H1029 0.949 . S
C1034 C1040 1.368 . S
C1035 C1019 1.349 . S
C1035 H1027 0.950 . S
C1035 C1033 1.327 . S
C1036 C1024 1.349 . S
C1036 H1030 0.950 . S
C1036 C1037 1.327 . S
C1037 H1031 0.950 . S
C1037 C1036 1.327 . S
C1037 C1041 1.429 . S
C1038 C1021 1.574 . S
C1038 H1032 0.949 . S
C1038 C1042 1.368 . S
C1039 C1020 1.429 . S
C1039 C1033 1.429 . S
C1039 C1040 1.523 . S
C1040 C1021 1.368 . S
C1040 C1034 1.368 . S
C1040 C1039 1.523 . S
C1041 C1025 1.429 . S
C1041 C1037 1.429 . S
C1041 C1042 1.523 . S
C1042 C1026 1.368 . S
C1042 C1038 1.368 . S
C1042 C1041 1.523 . S
H1043 C1018 0.950 . S
H1044 C1020 0.950 . S
H1045 C1021 0.949 . S
H1046 C1023 0.950 . S
H1047 C1025 0.950 . S
C1048 C1049 1.357 . S
C1048 C1050 1.327 . S
C1048 H1073 0.950 . S
C1049 C1048 1.357 . S
C1049 C1065 1.340 1_554 S
C1050 C1048 1.327 . S
C1050 C1069 1.435 . S
C1050 H1074 0.950 . S
C1051 C1068 1.574 . S
C1051 C1070 1.362 1_556 S
C1051 H1075 0.949 . S
H1052 C1056 0.949 . S
C1053 C1054 1.348 1_556 S
C1053 C1055 1.327 . S
C1053 H1076 0.950 . S
C1054 C1053 1.348 1_554 S
C1054 C1066 1.350 . S
C1055 C1053 1.327 . S
C1055 C1071 1.426 1_556 S
C1055 H1077 0.950 . S
C1056 H1052 0.949 . S
C1056 C1064 1.574 . S
C1056 C1072 1.372 . S
H1057 C1065 0.950 . S
H1058 C1063 0.950 . S
H1059 C1064 0.949 . S
H1060 C1066 0.950 . S
H1061 C1067 0.950 . S
H1062 C1068 0.949 . S
C1063 H1058 0.950 . S
C1063 C1065 1.327 . S
C1063 C1069 1.422 1_556 S
C1064 C1056 1.574 . S
C1064 H1059 0.949 . S
C1064 C1070 1.374 . S
C1065 C1049 1.340 1_556 S
C1065 H1057 0.950 . S
C1065 C1063 1.327 . S
C1066 C1054 1.350 . S
C1066 H1060 0.950 . S
C1066 C1067 1.327 . S
C1067 H1061 0.950 . S
C1067 C1066 1.327 . S
C1067 C1071 1.431 . S
C1068 C1051 1.574 . S
C1068 H1062 0.949 . S
C1068 C1072 1.364 1_556 S
C1069 C1050 1.435 . S
C1069 C1063 1.422 1_554 S
C1069 C1070 1.523 . S
C1070 C1051 1.362 1_554 S
C1070 C1064 1.374 . S
C1070 C1069 1.523 . S
C1071 C1055 1.426 1_554 S
C1071 C1067 1.431 . S
C1071 C1072 1.523 . S
C1072 C1056 1.372 . S
C1072 C1068 1.364 1_554 S
C1072 C1071 1.523 . S
H1073 C1048 0.950 . S
H1074 C1050 0.950 . S
H1075 C1051 0.949 . S
H1076 C1053 0.950 . S
H1077 C1055 0.950 . S
C1078 C1079 1.349 . S
C1078 C1080 1.327 . S
C1078 H1103 0.950 . S
C1079 C1078 1.349 . S
C1079 C1095 1.349 . S
C1080 C1078 1.327 . S
C1080 C1099 1.429 . S
C1080 H1104 0.950 . S
C1081 C1098 1.574 . S
C1081 C1100 1.368 . S
C1081 H1105 0.949 . S
H1082 C1086 0.949 . S
C1083 C1084 1.349 . S
C1083 C1085 1.327 . S
C1083 H1106 0.950 . S
C1084 C1083 1.349 . S
C1084 C1096 1.349 . S
C1085 C1083 1.327 . S
C1085 C1101 1.429 . S
C1085 H1107 0.950 . S
C1086 H1082 0.949 . S
C1086 C1094 1.574 . S
C1086 C1102 1.368 . S
H1087 C1095 0.950 . S
H1088 C1093 0.950 . S
H1089 C1094 0.949 . S
H1090 C1096 0.950 . S
H1091 C1097 0.950 . S
H1092 C1098 0.949 . S
C1093 H1088 0.950 . S
C1093 C1095 1.327 . S
C1093 C1099 1.429 . S
C1094 C1086 1.574 . S
C1094 H1089 0.949 . S
C1094 C1100 1.368 . S
C1095 C1079 1.349 . S
C1095 H1087 0.950 . S
C1095 C1093 1.327 . S
C1096 C1084 1.349 . S
C1096 H1090 0.950 . S
C1096 C1097 1.327 . S
C1097 H1091 0.950 . S
C1097 C1096 1.327 . S
C1097 C1101 1.429 . S
C1098 C1081 1.574 . S
C1098 H1092 0.949 . S
C1098 C1102 1.368 . S
C1099 C1080 1.429 . S
C1099 C1093 1.429 . S
C1099 C1100 1.523 . S
C1100 C1081 1.368 . S
C1100 C1094 1.368 . S
C1100 C1099 1.523 . S
C1101 C1085 1.429 . S
C1101 C1097 1.429 . S
C1101 C1102 1.523 . S
C1102 C1086 1.368 . S
C1102 C1098 1.368 . S
C1102 C1101 1.523 . S
H1103 C1078 0.950 . S
H1104 C1080 0.950 . S
H1105 C1081 0.949 . S
H1106 C1083 0.950 . S
H1107 C1085 0.950 . S
C1108 C1109 1.358 . S
C1108 C1110 1.327 . S
C1108 H1133 0.950 . S
C1109 C1108 1.358 . S
C1109 C1125 1.340 1_554 S
C1110 C1108 1.327 . S
C1110 C1129 1.435 . S
C1110 H1134 0.950 . S
C1111 C1128 1.574 . S
C1111 C1130 1.362 1_556 S
C1111 H1135 0.949 . S
H1112 C1116 0.949 . S
C1113 C1114 1.348 1_556 S
C1113 C1115 1.327 . S
C1113 H1136 0.950 . S
C1114 C1113 1.348 1_554 S
C1114 C1126 1.350 . S
C1115 C1113 1.327 . S
C1115 C1131 1.426 1_556 S
C1115 H1137 0.950 . S
C1116 H1112 0.949 . S
C1116 C1124 1.574 . S
C1116 C1132 1.372 . S
H1117 C1125 0.950 . S
H1118 C1123 0.950 . S
H1119 C1124 0.949 . S
H1120 C1126 0.950 . S
H1121 C1127 0.950 . S
H1122 C1128 0.949 . S
C1123 H1118 0.950 . S
C1123 C1125 1.327 . S
C1123 C1129 1.422 1_556 S
C1124 C1116 1.574 . S
C1124 H1119 0.949 . S
C1124 C1130 1.374 . S
C1125 C1109 1.340 1_556 S
C1125 H1117 0.950 . S
C1125 C1123 1.327 . S
C1126 C1114 1.350 . S
C1126 H1120 0.950 . S
C1126 C1127 1.327 . S
C1127 H1121 0.950 . S
C1127 C1126 1.327 . S
C1127 C1131 1.431 . S
C1128 C1111 1.574 . S
C1128 H1122 0.949 . S
C1128 C1132 1.364 1_556 S
C1129 C1110 1.435 . S
C1129 C1123 1.422 1_554 S
C1129 C1130 1.523 . S
C1130 C1111 1.362 1_554 S
C1130 C1124 1.374 . S
C1130 C1129 1.523 . S
C1131 C1115 1.426 1_554 S
C1131 C1127 1.431 . S
C1131 C1132 1.523 . S
C1132 C1116 1.372 . S
C1132 C1128 1.364 1_554 S
C1132 C1131 1.523 . S
H1133 C1108 0.950 . S
H1134 C1110 0.950 . S
H1135 C1111 0.949 . S
H1136 C1113 0.950 . S
H1137 C1115 0.950 . S
C1138 C1139 1.349 . S
C1138 C1140 1.327 . S
C1138 H1163 0.950 . S
C1139 C1138 1.349 . S
C1139 C1155 1.349 . S
C1140 C1138 1.327 . S
C1140 C1159 1.429 . S
C1140 H1164 0.950 . S
C1141 C1158 1.574 . S
C1141 C1160 1.368 . S
C1141 H1165 0.949 . S
H1142 C1146 0.949 . S
C1143 C1144 1.349 . S
C1143 C1145 1.327 . S
C1143 H1166 0.950 . S
C1144 C1143 1.349 . S
C1144 C1156 1.349 . S
C1145 C1143 1.327 . S
C1145 C1161 1.429 . S
C1145 H1167 0.950 . S
C1146 H1142 0.949 . S
C1146 C1154 1.574 . S
C1146 C1162 1.368 . S
H1147 C1155 0.950 . S
H1148 C1153 0.950 . S
H1149 C1154 0.949 . S
H1150 C1156 0.950 . S
H1151 C1157 0.950 . S
H1152 C1158 0.949 . S
C1153 H1148 0.950 . S
C1153 C1155 1.327 . S
C1153 C1159 1.429 . S
C1154 C1146 1.574 . S
C1154 H1149 0.949 . S
C1154 C1160 1.368 . S
C1155 C1139 1.349 . S
C1155 H1147 0.950 . S
C1155 C1153 1.327 . S
C1156 C1144 1.349 . S
C1156 H1150 0.950 . S
C1156 C1157 1.327 . S
C1157 H1151 0.950 . S
C1157 C1156 1.327 . S
C1157 C1161 1.429 . S
C1158 C1141 1.574 . S
C1158 H1152 0.949 . S
C1158 C1162 1.368 . S
C1159 C1140 1.429 . S
C1159 C1153 1.429 . S
C1159 C1160 1.523 . S
C1160 C1141 1.368 . S
C1160 C1154 1.368 . S
C1160 C1159 1.523 . S
C1161 C1145 1.429 . S
C1161 C1157 1.429 . S
C1161 C1162 1.523 . S
C1162 C1146 1.368 . S
C1162 C1158 1.368 . S
C1162 C1161 1.523 . S
H1163 C1138 0.950 . S
H1164 C1140 0.950 . S
H1165 C1141 0.949 . S
H1166 C1143 0.950 . S
H1167 C1145 0.950 . S
C1168 C1169 1.349 . S
C1168 C1170 1.327 . S
C1168 H1193 0.950 . S
C1169 C1168 1.349 . S
C1169 C1185 1.349 . S
C1170 C1168 1.327 . S
C1170 C1189 1.429 . S
C1170 H1194 0.950 . S
C1171 C1188 1.574 . S
C1171 C1190 1.368 . S
C1171 H1195 0.949 . S
H1172 C1176 0.949 . S
C1173 C1174 1.349 . S
C1173 C1175 1.327 . S
C1173 H1196 0.950 . S
C1174 C1173 1.349 . S
C1174 C1186 1.349 . S
C1175 C1173 1.327 . S
C1175 C1191 1.429 . S
C1175 H1197 0.950 . S
C1176 H1172 0.949 . S
C1176 C1184 1.574 . S
C1176 C1192 1.368 . S
H1177 C1185 0.950 . S
H1178 C1183 0.950 . S
H1179 C1184 0.949 . S
H1180 C1186 0.950 . S
H1181 C1187 0.950 . S
H1182 C1188 0.949 . S
C1183 H1178 0.950 . S
C1183 C1185 1.327 . S
C1183 C1189 1.429 . S
C1184 C1176 1.574 . S
C1184 H1179 0.949 . S
C1184 C1190 1.368 . S
C1185 C1169 1.349 . S
C1185 H1177 0.950 . S
C1185 C1183 1.327 . S
C1186 C1174 1.349 . S
C1186 H1180 0.950 . S
C1186 C1187 1.327 . S
C1187 H1181 0.950 . S
C1187 C1186 1.327 . S
C1187 C1191 1.429 . S
C1188 C1171 1.574 . S
C1188 H1182 0.949 . S
C1188 C1192 1.368 . S
C1189 C1170 1.429 . S
C1189 C1183 1.429 . S
C1189 C1190 1.523 . S
C1190 C1171 1.368 . S
C1190 C1184 1.368 . S
C1190 C1189 1.523 . S
C1191 C1175 1.429 . S
C1191 C1187 1.429 . S
C1191 C1192 1.523 . S
C1192 C1176 1.368 . S
C1192 C1188 1.368 . S
C1192 C1191 1.523 . S
H1193 C1168 0.950 . S
H1194 C1170 0.950 . S
H1195 C1171 0.949 . S
H1196 C1173 0.950 . S
H1197 C1175 0.950 . S
C1198 C1199 1.345 1_554 S
C1198 C1200 1.327 . S
C1198 H1223 0.950 . S
C1199 C1198 1.345 1_556 S
C1199 C1215 1.353 . S
C1200 C1198 1.327 . S
C1200 C1219 1.427 1_554 S
C1200 H1224 0.950 . S
C1201 C1218 1.574 . S
C1201 C1220 1.369 . S
C1201 H1225 0.949 . S
H1202 C1206 0.949 . S
C1203 C1204 1.350 1_556 S
C1203 C1205 1.327 . S
C1203 H1226 0.950 . S
C1204 C1203 1.350 1_554 S
C1204 C1216 1.348 . S
C1205 C1203 1.327 . S
C1205 C1221 1.426 . S
C1205 H1227 0.950 . S
C1206 H1202 0.949 . S
C1206 C1214 1.574 . S
C1206 C1222 1.369 1_554 S
H1207 C1215 0.950 . S
H1208 C1213 0.950 . S
H1209 C1214 0.949 . S
H1210 C1216 0.950 . S
H1211 C1217 0.950 . S
H1212 C1218 0.949 . S
C1213 H1208 0.950 . S
C1213 C1215 1.327 . S
C1213 C1219 1.430 . S
C1214 C1206 1.574 . S
C1214 H1209 0.949 . S
C1214 C1220 1.367 1_554 S
C1215 C1199 1.353 . S
C1215 H1207 0.950 . S
C1215 C1213 1.327 . S
C1216 C1204 1.348 . S
C1216 H1210 0.950 . S
C1216 C1217 1.327 . S
C1217 H1211 0.950 . S
C1217 C1216 1.327 . S
C1217 C1221 1.431 1_554 S
C1218 C1201 1.574 . S
C1218 H1212 0.949 . S
C1218 C1222 1.367 . S
C1219 C1200 1.427 1_556 S
C1219 C1213 1.430 . S
C1219 C1220 1.523 . S
C1220 C1201 1.369 . S
C1220 C1214 1.367 1_556 S
C1220 C1219 1.523 . S
C1221 C1205 1.426 . S
C1221 C1217 1.431 1_556 S
C1221 C1222 1.523 . S
C1222 C1206 1.369 1_556 S
C1222 C1218 1.367 . S
C1222 C1221 1.523 . S
H1223 C1198 0.950 . S
H1224 C1200 0.950 . S
H1225 C1201 0.949 . S
H1226 C1203 0.950 . S
H1227 C1205 0.950 . S
C1228 C1229 1.349 . S
C1228 C1230 1.327 . S
C1228 H1253 0.950 . S
C1229 C1228 1.349 . S
C1229 C1245 1.349 . S
C1230 C1228 1.327 . S
C1230 C1249 1.429 . S
C1230 H1254 0.950 . S
C1231 C1248 1.574 . S
C1231 C1250 1.368 . S
C1231 H1255 0.949 . S
H1232 C1236 0.949 . S
C1233 C1234 1.349 . S
C1233 C1235 1.327 . S
C1233 H1256 0.950 . S
C1234 C1233 1.349 . S
C1234 C1246 1.349 . S
C1235 C1233 1.327 . S
C1235 C1251 1.429 . S
C1235 H1257 0.950 . S
C1236 H1232 0.949 . S
C1236 C1244 1.574 . S
C1236 C1252 1.368 . S
H1237 C1245 0.950 . S
H1238 C1243 0.950 . S
H1239 C1244 0.949 . S
H1240 C1246 0.950 . S
H1241 C1247 0.950 . S
H1242 C1248 0.949 . S
C1243 H1238 0.950 . S
C1243 C1245 1.327 . S
C1243 C1249 1.429 . S
C1244 C1236 1.574 . S
C1244 H1239 0.949 . S
C1244 C1250 1.368 . S
C1245 C1229 1.349 . S
C1245 H1237 0.950 . S
C1245 C1243 1.327 . S
C1246 C1234 1.349 . S
C1246 H1240 0.950 . S
C1246 C1247 1.327 . S
C1247 H1241 0.950 . S
C1247 C1246 1.327 . S
C1247 C1251 1.429 . S
C1248 C1231 1.574 . S
C1248 H1242 0.949 . S
C1248 C1252 1.368 . S
C1249 C1230 1.429 . S
C1249 C1243 1.429 . S
C1249 C1250 1.523 . S
C1250 C1231 1.368 . S
C1250 C1244 1.368 . S
C1250 C1249 1.523 . S
C1251 C1235 1.429 . S
C1251 C1247 1.429 . S
C1251 C1252 1.523 . S
C1252 C1236 1.368 . S
C1252 C1248 1.368 . S
C1252 C1251 1.523 . S
H1253 C1228 0.950 . S
H1254 C1230 0.950 . S
H1255 C1231 0.949 . S
H1256 C1233 0.950 . S
H1257 C1235 0.950 . S
C1258 C1259 1.345 1_554 S
C1258 C1260 1.327 . S
C1258 H1283 0.950 . S
C1259 C1258 1.345 1_556 S
C1259 C1275 1.353 . S
C1260 C1258 1.327 . S
C1260 C1279 1.427 1_554 S
C1260 H1284 0.950 . S
C1261 C1278 1.574 . S
C1261 C1280 1.369 . S
C1261 H1285 0.949 . S
H1262 C1266 0.949 . S
C1263 C1264 1.350 1_556 S
C1263 C1265 1.327 . S
C1263 H1286 0.950 . S
C1264 C1263 1.350 1_554 S
C1264 C1276 1.348 . S
C1265 C1263 1.327 . S
C1265 C1281 1.426 . S
C1265 H1287 0.950 . S
C1266 H1262 0.949 . S
C1266 C1274 1.574 . S
C1266 C1282 1.370 1_554 S
H1267 C1275 0.950 . S
H1268 C1273 0.950 . S
H1269 C1274 0.949 . S
H1270 C1276 0.950 . S
H1271 C1277 0.950 . S
H1272 C1278 0.949 . S
C1273 H1268 0.950 . S
C1273 C1275 1.327 . S
C1273 C1279 1.430 . S
C1274 C1266 1.574 . S
C1274 H1269 0.949 . S
C1274 C1280 1.368 1_554 S
C1275 C1259 1.353 . S
C1275 H1267 0.950 . S
C1275 C1273 1.327 . S
C1276 C1264 1.348 . S
C1276 H1270 0.950 . S
C1276 C1277 1.327 . S
C1277 H1271 0.950 . S
C1277 C1276 1.327 . S
C1277 C1281 1.431 1_554 S
C1278 C1261 1.574 . S
C1278 H1272 0.949 . S
C1278 C1282 1.367 . S
C1279 C1260 1.427 1_556 S
C1279 C1273 1.430 . S
C1279 C1280 1.523 . S
C1280 C1261 1.369 . S
C1280 C1274 1.368 1_556 S
C1280 C1279 1.523 . S
C1281 C1265 1.426 . S
C1281 C1277 1.431 1_556 S
C1281 C1282 1.523 . S
C1282 C1266 1.370 1_556 S
C1282 C1278 1.367 . S
C1282 C1281 1.523 . S
H1283 C1258 0.950 . S
H1284 C1260 0.950 . S
H1285 C1261 0.949 . S
H1286 C1263 0.950 . S
H1287 C1265 0.950 . S
C569 C21 1.597 . S
C574 C269 1.514 . S
C599 C40 1.703 . S
C604 C89 1.648 . S
C634 C168 1.464 . S
C629 C54 1.558 . S
C659 C73 1.747 . S
C664 C228 1.670 . S
C694 C389 1.464 . S
C689 C74 1.558 . S
C724 C468 1.619 . S
C719 C10 1.705 . S
C754 C539 1.613 . S
C749 C37 1.595 . S
C784 C329 1.696 . S
C779 C65 1.749 . S
C809 C52 1.562 . S
C814 C179 1.513 . S
C839 C87 1.743 . S
C844 C209 1.621 . S
C869 C15 1.598 . S
C874 C288 1.568 . S
C904 C108 1.685 . S
C899 C32 1.697 . S
C929 C29 1.598 . S
C934 C528 1.569 . S
C964 C348 1.735 . S
C959 C59 1.741 . S
C994 C408 1.510 . S
C989 C84 1.564 . S
C1019 C8 1.699 . S
C1024 C449 1.572 . S
C1054 C119 1.814 1_554 S
C1049 C7 1.845 . S
C1084 C149 1.614 . S
C1079 C30 1.683 . S
C1109 C62 1.866 . S
C1114 C239 1.758 . S
C1139 C81 1.670 . S
C1144 C299 1.620 . S
C1174 C359 1.832 . S
C1169 C76 1.866 . S
C1199 C18 1.683 . S
C1204 C419 1.614 . S
C1229 C43 1.845 . S
C1234 C479 1.742 . S
C1259 C51 1.670 . S
C1264 C509 1.671 1_554 S
