# Generated by pormake.
# Topology pyr, (3,6)-cn, num edge types: 1
# Building blocks:
#     Node 0, Type 0, BuildingBlock: VETTIZ_charged_linker_0, # of connection points: 3
#     Node 1, Type 0, BuildingBlock: VETTIZ_charged_linker_0, # of connection points: 3
#     Node 2, Type 0, BuildingBlock: VETTIZ_charged_linker_0, # of connection points: 3
#     Node 3, Type 0, BuildingBlock: VETTIZ_charged_linker_0, # of connection points: 3
#     Node 4, Type 0, BuildingBlock: VETTIZ_charged_linker_0, # of connection points: 3
#     Node 5, Type 0, BuildingBlock: VETTIZ_charged_linker_0, # of connection points: 3
#     Node 6, Type 0, BuildingBlock: VETTIZ_charged_linker_0, # of connection points: 3
#     Node 7, Type 0, BuildingBlock: VETTIZ_charged_linker_0, # of connection points: 3
#     Node 8, Type 1, BuildingBlock: MIDCAF_clean_sbu_0, # of connection points: 6
#     Node 9, Type 1, BuildingBlock: MIDCAF_clean_sbu_0, # of connection points: 6
#     Node 10, Type 1, BuildingBlock: MIDCAF_clean_sbu_0, # of connection points: 6
#     Node 11, Type 1, BuildingBlock: MIDCAF_clean_sbu_0, # of connection points: 6
#     Edge 12, Type (0, 1), None
#     Edge 13, Type (0, 1), None
#     Edge 14, Type (0, 1), None
#     Edge 15, Type (0, 1), None
#     Edge 16, Type (0, 1), None
#     Edge 17, Type (0, 1), None
#     Edge 18, Type (0, 1), None
#     Edge 19, Type (0, 1), None
#     Edge 20, Type (0, 1), None
#     Edge 21, Type (0, 1), None
#     Edge 22, Type (0, 1), None
#     Edge 23, Type (0, 1), None
#     Edge 24, Type (0, 1), None
#     Edge 25, Type (0, 1), None
#     Edge 26, Type (0, 1), None
#     Edge 27, Type (0, 1), None
#     Edge 28, Type (0, 1), None
#     Edge 29, Type (0, 1), None
#     Edge 30, Type (0, 1), None
#     Edge 31, Type (0, 1), None
#     Edge 32, Type (0, 1), None
#     Edge 33, Type (0, 1), None
#     Edge 34, Type (0, 1), None
#     Edge 35, Type (0, 1), None
# Relax obj value: 0.019
# Max RMSD: 0.064
# Mean RMSD: 0.021
data_MOF--net-pry--node1-MIDCAF_clean_sbu_0--node2-VETTIZ_charged_linker_0--edge1-none
_symmetry_space_group_name_H-M    P1
_symmetry_Int_Tables_number       1
_symmetry_cell_setting            triclinic
loop_
_symmetry_equiv_pos_as_xyz
'x, y, z'
_cell_length_a     23.753328
_cell_length_b     23.824734
_cell_length_c     23.782648
_cell_angle_alpha  89.654873
_cell_angle_beta   89.969919
_cell_angle_gamma 89.981589
loop_
_atom_site_label
_atom_site_type_symbol
_atom_site_fract_x
_atom_site_fract_y
_atom_site_fract_z
_atom_type_partial_charge
C0 C 0.19731 0.09697 0.36952 0.0
C1 C 0.146 0.10225 0.3988 0.0
C2 C 0.11476 0.15217 0.39249 0.0
C3 C 0.18389 0.1891 0.32702 0.0
C4 C 0.21536 0.14075 0.33386 0.0
C5 C 0.26636 0.14036 0.296 0.0
H6 H 0.38075 0.23022 0.05406 0.0
C7 C 0.21068 0.22386 0.28267 0.0
C8 C 0.25939 0.19589 0.26446 0.0
H9 H 0.43787 0.09483 0.16139 0.0
H10 H 0.37571 0.12637 0.23548 0.0
H11 H 0.38055 0.32325 0.15897 0.0
H12 H 0.25105 0.22537 0.07897 0.0
H13 H 0.22931 0.29605 0.08366 0.0
H14 H 0.29086 0.2793 0.04378 0.0
H15 H 0.34958 0.34489 0.09357 0.0
H16 H 0.31859 0.36353 0.16037 0.0
C17 C 0.31993 0.13989 0.3331 0.0
C18 C 0.26111 0.08905 0.25666 0.0
C19 C 0.10186 0.38919 0.20283 0.0
C20 C 0.10896 0.42264 0.15441 0.0
C21 C 0.16114 0.42116 0.12613 0.0
C22 C 0.20322 0.38283 0.14259 0.0
C23 C 0.19276 0.34533 0.18742 0.0
C24 C 0.14386 0.35089 0.21834 0.0
C25 C 0.13886 0.30707 0.26382 0.0
C26 C 0.19247 0.27361 0.25477 0.0
C27 C 0.22354 0.29554 0.20938 0.0
C28 C 0.13932 0.33729 0.32128 0.0
C29 C 0.08503 0.27176 0.25233 0.0
C30 C 0.38045 0.20801 0.09393 0.0
C31 C 0.41293 0.15909 0.10138 0.0
C32 C 0.41281 0.13222 0.15434 0.0
C33 C 0.37608 0.15002 0.19696 0.0
C34 C 0.33915 0.195 0.18643 0.0
C35 C 0.34453 0.22568 0.13725 0.0
C36 C 0.3047 0.27494 0.13539 0.0
C37 C 0.27175 0.26614 0.18961 0.0
C38 C 0.291 0.21804 0.21846 0.0
C39 C 0.33983 0.3297 0.13674 0.0
C40 C 0.26694 0.26912 0.08266 0.0
H41 H 0.10759 0.2323 0.3545 0.0
H42 H 0.22194 0.05884 0.37293 0.0
H43 H 0.21848 0.08766 0.23737 0.0
H44 H 0.29111 0.08953 0.22147 0.0
H45 H 0.26756 0.04927 0.28041 0.0
H46 H 0.31207 0.1601 0.37443 0.0
H47 H 0.33455 0.09634 0.34149 0.0
H48 H 0.35473 0.16442 0.31414 0.0
H49 H 0.0624 0.38947 0.22573 0.0
H50 H 0.16788 0.44653 0.08877 0.0
H51 H 0.24093 0.38155 0.11778 0.0
H52 H 0.16973 0.37282 0.32084 0.0
H53 H 0.09713 0.35468 0.33135 0.0
H54 H 0.15325 0.30981 0.3562 0.0
H55 H 0.0739 0.27193 0.20688 0.0
H56 H 0.09027 0.22681 0.26265 0.0
H57 H 0.04821 0.28842 0.27571 0.0
H58 H 0.07435 0.15686 0.41293 0.0
C59 C 0.13387 0.19584 0.35779 0.0
C60 C 0.15236 0.83249 0.60917 0.0
C61 C 0.123 0.88342 0.61571 0.0
C62 C 0.12584 0.91109 0.66778 0.0
C63 C 0.19226 0.84169 0.70257 0.0
C64 C 0.1868 0.81252 0.65289 0.0
C65 C 0.22573 0.76258 0.65047 0.0
H66 H 0.4724 0.65351 0.73082 0.0
C67 C 0.23785 0.81506 0.73583 0.0
C68 C 0.25713 0.76803 0.70603 0.0
H69 H 0.36361 0.59662 0.59735 0.0
H70 H 0.28807 0.655 0.63279 0.0
H71 H 0.44212 0.78254 0.72828 0.0
H72 H 0.37348 0.64697 0.82717 0.0
H73 H 0.36715 0.70765 0.86839 0.0
H74 H 0.43623 0.68291 0.84831 0.0
H75 H 0.48131 0.74256 0.7793 0.0
H76 H 0.44027 0.80183 0.79978 0.0
C77 C 0.26498 0.77062 0.59898 0.0
C78 C 0.18969 0.70846 0.64851 0.0
C79 C 0.32482 0.92535 0.89515 0.0
C80 C 0.37534 0.91879 0.92527 0.0
C81 C 0.40294 0.86644 0.92414 0.0
C82 C 0.38398 0.82371 0.88832 0.0
C83 C 0.33747 0.83383 0.85301 0.0
C84 C 0.30676 0.8826 0.85931 0.0
C85 C 0.25899 0.88677 0.81801 0.0
C86 C 0.26703 0.83321 0.78463 0.0
C87 C 0.31383 0.80292 0.80452 0.0
C88 C 0.26823 0.94039 0.78157 0.0
C89 C 0.203 0.88585 0.85142 0.0
C90 C 0.432 0.65316 0.70974 0.0
C91 C 0.42439 0.62196 0.6603 0.0
C92 C 0.37075 0.62091 0.63504 0.0
C93 C 0.32725 0.65534 0.65518 0.0
C94 C 0.33771 0.69126 0.70072 0.0
C95 C 0.38795 0.68688 0.72961 0.0
C96 C 0.39005 0.72544 0.77952 0.0
C97 C 0.3342 0.75622 0.77358 0.0
C98 C 0.30462 0.73735 0.72606 0.0
C99 C 0.44111 0.76523 0.77183 0.0
C100 C 0.39222 0.68921 0.83383 0.0
H101 H 0.16122 0.91406 0.74942 0.0
H102 H 0.15078 0.81012 0.5697 0.0
H103 H 0.14791 0.71477 0.66871 0.0
H104 H 0.20915 0.67344 0.67235 0.0
H105 H 0.1821 0.69503 0.60451 0.0
H106 H 0.28334 0.81358 0.59879 0.0
H107 H 0.24139 0.7651 0.55908 0.0
H108 H 0.30085 0.74153 0.59822 0.0
H109 H 0.3023 0.9649 0.8957 0.0
H110 H 0.44169 0.86009 0.94733 0.0
H111 H 0.40839 0.78587 0.88673 0.0
H112 H 0.31389 0.94907 0.77559 0.0
H113 H 0.24922 0.97785 0.80169 0.0
H114 H 0.25178 0.93687 0.73845 0.0
H115 H 0.20631 0.85794 0.88897 0.0
H116 H 0.16757 0.86858 0.82684 0.0
H117 H 0.19172 0.92846 0.86643 0.0
H118 H 0.10475 0.95086 0.67374 0.0
C119 C 0.15946 0.89 0.7115 0.0
C120 C 0.64398 0.13451 0.88092 0.0
C121 C 0.59208 0.11925 0.85716 0.0
C122 C 0.57743 0.14105 0.80388 0.0
C123 C 0.66044 0.20019 0.80374 0.0
C124 C 0.67705 0.17555 0.85391 0.0
C125 C 0.72827 0.20366 0.87805 0.0
H126 H 0.90319 0.42628 0.88226 0.0
C127 C 0.69896 0.2477 0.79134 0.0
C128 C 0.73938 0.24927 0.83446 0.0
H129 H 0.8874 0.29215 0.00417 0.0
H130 H 0.82464 0.2424 0.94229 0.0
H131 H 0.78473 0.44093 0.8621 0.0
H132 H 0.89842 0.34081 0.76423 0.0
H133 H 0.8551 0.3785 0.71721 0.0
H134 H 0.89981 0.41608 0.76548 0.0
H135 H 0.82937 0.47156 0.80943 0.0
H136 H 0.76 0.4457 0.79315 0.0
C137 C 0.71196 0.22833 0.93618 0.0
C138 C 0.77659 0.16017 0.87994 0.0
C139 C 0.64675 0.3924 0.64153 0.0
C140 C 0.66942 0.44541 0.6282 0.0
C141 C 0.72241 0.46015 0.65021 0.0
C142 C 0.75067 0.42446 0.68777 0.0
C143 C 0.72515 0.37395 0.70476 0.0
C144 C 0.67526 0.35739 0.67994 0.0
C145 C 0.65385 0.3029 0.70445 0.0
C146 C 0.69781 0.29095 0.74965 0.0
C147 C 0.73915 0.33321 0.74992 0.0
C148 C 0.59464 0.31384 0.72967 0.0
C149 C 0.655 0.25818 0.6575 0.0
C150 C 0.88763 0.38527 0.89463 0.0
C151 C 0.90025 0.36293 0.948 0.0
C152 C 0.87816 0.31015 0.96325 0.0
C153 C 0.84139 0.28155 0.92738 0.0
C154 C 0.82521 0.30662 0.87621 0.0
C155 C 0.84968 0.35672 0.85967 0.0
C156 C 0.82478 0.37881 0.80567 0.0
C157 C 0.78039 0.33443 0.79335 0.0
C158 C 0.78086 0.29232 0.83492 0.0
C159 C 0.7986 0.43737 0.81756 0.0
C160 C 0.8718 0.37911 0.76055 0.0
H161 H 0.59721 0.19722 0.7372 0.0
H162 H 0.65584 0.11927 0.92226 0.0
H163 H 0.77497 0.13224 0.84263 0.0
H164 H 0.81874 0.17973 0.87824 0.0
H165 H 0.77356 0.13342 0.91822 0.0
H166 H 0.66697 0.24133 0.937 0.0
H167 H 0.71819 0.19702 0.97041 0.0
H168 H 0.73521 0.26695 0.94662 0.0
H169 H 0.60572 0.3803 0.62586 0.0
H170 H 0.74078 0.50067 0.64038 0.0
H171 H 0.7899 0.43901 0.70454 0.0
H172 H 0.59283 0.35587 0.74977 0.0
H173 H 0.56169 0.31267 0.69657 0.0
H174 H 0.58301 0.28417 0.76338 0.0
H175 H 0.69239 0.26394 0.62982 0.0
H176 H 0.6588 0.21497 0.67418 0.0
H177 H 0.61692 0.26117 0.63054 0.0
H178 H 0.53765 0.12981 0.78474 0.0
C179 C 0.61173 0.18072 0.77668 0.0
C180 C 0.93189 0.87135 0.33644 0.0
C181 C 0.92582 0.89888 0.38834 0.0
C182 C 0.87438 0.89425 0.41745 0.0
C183 C 0.83804 0.832 0.34584 0.0
C184 C 0.88755 0.83822 0.31598 0.0
C185 C 0.88838 0.80239 0.26388 0.0
H186 H 0.79918 0.56636 0.1424 0.0
C187 C 0.80333 0.78914 0.31741 0.0
C188 C 0.83208 0.772 0.26884 0.0
H189 H 0.93627 0.67364 0.09 0.0
H190 H 0.90311 0.74652 0.15263 0.0
H191 H 0.80503 0.58558 0.26972 0.0
H192 H 0.704 0.67388 0.14712 0.0
H193 H 0.66359 0.66668 0.20869 0.0
H194 H 0.68594 0.6047 0.17132 0.0
H195 H 0.74836 0.55305 0.23193 0.0
H196 H 0.73573 0.59138 0.29526 0.0
C197 C 0.93906 0.76173 0.26878 0.0
C198 C 0.8905 0.84141 0.21158 0.0
C199 C 0.64 0.70511 0.42544 0.0
C200 C 0.60849 0.65572 0.41863 0.0
C201 C 0.61011 0.62827 0.36628 0.0
C202 C 0.64713 0.64662 0.32368 0.0
C203 C 0.68322 0.69239 0.33391 0.0
C204 C 0.67724 0.72228 0.38315 0.0
C205 C 0.72005 0.76832 0.38851 0.0
C206 C 0.75368 0.76068 0.33484 0.0
C207 C 0.73244 0.71587 0.30309 0.0
C208 C 0.75576 0.75683 0.44228 0.0
C209 C 0.68832 0.82511 0.38838 0.0
C210 C 0.82126 0.60612 0.14354 0.0
C211 C 0.8712 0.61384 0.11252 0.0
C212 C 0.89806 0.6665 0.11388 0.0
C213 C 0.87933 0.7083 0.15094 0.0
C214 C 0.83363 0.69703 0.18697 0.0
C215 C 0.80292 0.64836 0.18004 0.0
C216 C 0.75379 0.64484 0.22006 0.0
C217 C 0.76215 0.69777 0.25444 0.0
C218 C 0.8102 0.72725 0.23597 0.0
C219 C 0.7605 0.59087 0.25616 0.0
C220 C 0.69873 0.64721 0.18534 0.0
H221 H 0.79266 0.85927 0.42084 0.0
H222 H 0.97102 0.87412 0.3132 0.0
H223 H 0.87169 0.88319 0.22058 0.0
H224 H 0.86544 0.82481 0.17615 0.0
H225 H 0.93452 0.84848 0.19742 0.0
H226 H 0.93913 0.74058 0.31061 0.0
H227 H 0.97948 0.78475 0.26413 0.0
H228 H 0.93876 0.72804 0.23743 0.0
H229 H 0.63944 0.72742 0.46501 0.0
H230 H 0.58604 0.59025 0.35976 0.0
H231 H 0.64873 0.62243 0.2858 0.0
H232 H 0.75459 0.7118 0.45491 0.0
H233 H 0.74021 0.78159 0.47853 0.0
H234 H 0.80106 0.76543 0.43623 0.0
H235 H 0.65293 0.82453 0.35773 0.0
H236 H 0.71517 0.86067 0.37504 0.0
H237 H 0.67031 0.83413 0.43048 0.0
H238 H 0.86888 0.91413 0.4579 0.0
C239 C 0.83027 0.86184 0.39606 0.0
C240 C 0.88743 0.6701 0.92986 0.0
C241 C 0.93704 0.64294 0.91296 0.0
C242 C 0.96915 0.66581 0.86838 0.0
C243 C 0.90546 0.74367 0.86072 0.0
C244 C 0.87188 0.72016 0.9022 0.0
C245 C 0.81865 0.75354 0.91047 0.0
H246 H 0.68975 0.00545 0.89585 0.0
C247 C 0.88183 0.79814 0.84449 0.0
C248 C 0.83099 0.80477 0.87341 0.0
H249 H 0.62002 0.84491 0.94649 0.0
H250 H 0.70387 0.79821 0.91624 0.0
H251 H 0.74674 0.94939 0.77076 0.0
H252 H 0.86538 0.00129 0.88508 0.0
H253 H 0.80066 0.04097 0.88517 0.0
H254 H 0.81359 0.98652 0.93587 0.0
H255 H 0.74368 0.01792 0.80195 0.0
H256 H 0.80588 0.99457 0.76717 0.0
C257 C 0.76841 0.71821 0.88827 0.0
C258 C 0.81307 0.76925 0.97317 0.0
C259 C 0.98523 0.92679 0.70835 0.0
C260 C 0.98137 0.9848 0.69818 0.0
C261 C 0.94801 0.01786 0.73464 0.0
C262 C 0.91389 0.99296 0.77554 0.0
C263 C 0.91395 0.93459 0.78111 0.0
C264 C 0.95267 0.90304 0.75158 0.0
C265 C 0.9545 0.8433 0.77218 0.0
C266 C 0.9054 0.84335 0.81348 0.0
C267 C 0.88048 0.89659 0.81659 0.0
C268 C 0.94322 0.80369 0.72213 0.0
C269 C 0.01236 0.83349 0.80134 0.0
C270 C 0.69211 0.96014 0.89904 0.0
C271 C 0.6488 0.92912 0.92503 0.0
C272 C 0.65327 0.87004 0.92785 0.0
C273 C 0.70207 0.84269 0.91085 0.0
C274 C 0.74672 0.87426 0.88965 0.0
C275 C 0.74052 0.93133 0.88063 0.0
C276 C 0.79132 0.95574 0.85135 0.0
C277 C 0.82782 0.90348 0.84413 0.0
C278 C 0.80217 0.85678 0.86946 0.0
C279 C 0.77129 0.98097 0.79475 0.0
C280 C 0.8193 -0.00126 0.89099 0.0
H281 H 0.9797 0.7309 0.80874 0.0
H282 H 0.86124 0.65237 0.96275 0.0
H283 H 0.85156 0.7913 0.98786 0.0
H284 H 0.77684 0.79726 0.98089 0.0
H285 H 0.80717 0.7311 -0.00037 0.0
H286 H 0.78198 0.67801 0.86892 0.0
H287 H 0.73874 0.70688 0.92264 0.0
H288 H 0.74487 0.74084 0.85475 0.0
H289 H 0.01099 0.90022 0.68214 0.0
H290 H 0.94499 0.06292 0.72913 0.0
H291 H 0.88778 0.0199 0.8004 0.0
H292 H 0.90666 0.81886 0.69706 0.0
H293 H 0.98036 0.80173 0.69377 0.0
H294 H 0.93274 0.76054 0.73583 0.0
H295 H 0.03628 0.87314 0.80752 0.0
H296 H 0.00754 0.81539 0.84414 0.0
H297 H 0.03983 0.80547 0.77614 0.0
H298 H 0.00742 0.64554 0.8542 0.0
C299 C 0.95367 0.71586 0.84235 0.0
C300 C 0.80373 0.08696 0.48427 0.0
C301 C 0.84067 0.04586 0.46314 0.0
C302 C 0.83675 0.03086 0.40612 0.0
C303 C 0.76126 0.09801 0.39265 0.0
C304 C 0.76651 0.11408 0.448 0.0
C305 C 0.73599 0.16799 0.46032 0.0
H306 H 0.57253 0.37876 0.36399 0.0
C307 C 0.72215 0.13744 0.36522 0.0
C308 C 0.70846 0.17935 0.40401 0.0
H309 H 0.64983 0.36452 0.52809 0.0
H310 H 0.69156 0.27578 0.50124 0.0
H311 H 0.52723 0.26278 0.3645 0.0
H312 H 0.67649 0.32713 0.28462 0.0
H313 H 0.63564 0.28827 0.2361 0.0
H314 H 0.60564 0.3488 0.26905 0.0
H315 H 0.52488 0.29148 0.29476 0.0
H316 H 0.53988 0.2181 0.30742 0.0
C317 C 0.69192 0.15658 0.50688 0.0
C318 C 0.78004 0.21364 0.47564 0.0
C319 C 0.64743 0.09273 0.17229 0.0
C320 C 0.60273 0.11438 0.14018 0.0
C321 C 0.57458 0.16292 0.15842 0.0
C322 C 0.59112 0.18942 0.20842 0.0
C323 C 0.63506 0.16601 0.24081 0.0
C324 C 0.66183 0.11804 0.2227 0.0
C325 C 0.70376 0.09551 0.26433 0.0
C326 C 0.69695 0.1374 0.31135 0.0
C327 C 0.65808 0.17934 0.29675 0.0
C328 C 0.68494 0.03573 0.28223 0.0
C329 C 0.76328 0.09814 0.23749 0.0
C330 C 0.59952 0.3575 0.39403 0.0
C331 C 0.60824 0.37895 0.4483 0.0
C332 C 0.64285 0.34911 0.48606 0.0
C333 C 0.66674 0.29756 0.47037 0.0
C334 C 0.65575 0.27603 0.41642 0.0
C335 C 0.62264 0.30611 0.37938 0.0
C336 C 0.61144 0.27545 0.32554 0.0
C337 C 0.64703 0.22363 0.33451 0.0
C338 C 0.67235 0.22384 0.38784 0.0
C339 C 0.54765 0.26136 0.32241 0.0
C340 C 0.63318 0.3117 0.2759 0.0
H341 H 0.79578 0.04314 0.3279 0.0
H342 H 0.80754 0.10229 0.5269 0.0
H343 H 0.82253 0.20341 0.45883 0.0
H344 H 0.77004 0.25506 0.45688 0.0
H345 H 0.78414 0.21817 0.52193 0.0
H346 H 0.66792 0.11759 0.49773 0.0
H347 H 0.71265 0.15108 0.54842 0.0
H348 H 0.66036 0.19042 0.51033 0.0
H349 H 0.66919 0.05473 0.16007 0.0
H350 H 0.53983 0.18001 0.13432 0.0
H351 H 0.56861 0.22649 0.22039 0.0
H352 H 0.63912 0.03513 0.29195 0.0
H353 H 0.69273 0.00514 0.24803 0.0
H354 H 0.70621 0.02015 0.32039 0.0
H355 H 0.76535 0.12954 0.20272 0.0
H356 H 0.79581 0.11191 0.2678 0.0
H357 H 0.77569 0.0569 0.2198 0.0
H358 H 0.86678 0.00244 0.38763 0.0
C359 C 0.79634 0.05576 0.37109 0.0
C360 C 0.44361 0.62457 0.35324 0.0
C361 C 0.42109 0.57712 0.38042 0.0
C362 C 0.37246 0.55148 0.35787 0.0
C363 C 0.36894 0.61993 0.28313 0.0
C364 C 0.4165 0.64543 0.30485 0.0
C365 C 0.43264 0.69679 0.2715 0.0
H366 H 0.38507 0.87233 0.05093 0.0
C367 C 0.35009 0.65193 0.23347 0.0
C368 C 0.38699 0.69737 0.22644 0.0
H369 H 0.51277 0.88188 0.18049 0.0
H370 H 0.47688 0.79913 0.2243 0.0
H371 H 0.28705 0.84638 0.13318 0.0
H372 H 0.3896 0.73486 0.03574 0.0
H373 H 0.31921 0.71252 0.02966 0.0
H374 H 0.3384 0.78187 0.00607 0.0
H375 H 0.27206 0.83259 0.0607 0.0
H376 H 0.24324 0.78965 0.11661 0.0
C377 C 0.42872 0.74842 0.31083 0.0
C378 C 0.49192 0.68656 0.24628 0.0
C379 C 0.17747 0.58808 0.12312 0.0
C380 C 0.1498 0.61142 0.07623 0.0
C381 C 0.17083 0.66178 0.05241 0.0
C382 C 0.21861 0.68791 0.07379 0.0
C383 C 0.24611 0.66415 0.12005 0.0
C384 C 0.22542 0.61545 0.14445 0.0
C385 C 0.25982 0.59798 0.19473 0.0
C386 C 0.30438 0.64407 0.19578 0.0
C387 C 0.29618 0.68233 0.15149 0.0
C388 C 0.22114 0.59947 0.24731 0.0
C389 C 0.28574 0.53966 0.18228 0.0
C390 C 0.40522 0.85632 0.08857 0.0
C391 C 0.45188 0.88391 0.11196 0.0
C392 C 0.47649 0.86199 0.16153 0.0
C393 C 0.45579 0.81348 0.18708 0.0
C394 C 0.40945 0.78624 0.16349 0.0
C395 C 0.38444 0.80778 0.11545 0.0
C396 C 0.33382 0.77389 0.09844 0.0
C397 C 0.33357 0.72832 0.14377 0.0
C398 C 0.37839 0.73577 0.18134 0.0
C399 C 0.28116 0.81233 0.1019 0.0
C400 C 0.34528 0.74957 0.03924 0.0
H401 H 0.30995 0.55072 0.29491 0.0
H402 H 0.48062 0.64538 0.36959 0.0
H403 H 0.49594 0.64266 0.23108 0.0
H404 H 0.50093 0.71317 0.20923 0.0
H405 H 0.52526 0.69334 0.27827 0.0
H406 H 0.39756 0.74147 0.34514 0.0
H407 H 0.46992 0.75752 0.33088 0.0
H408 H 0.41351 0.78655 0.28885 0.0
H409 H 0.16236 0.54978 0.14264 0.0
H410 H 0.1508 0.6811 0.01624 0.0
H411 H 0.23233 0.72561 0.05318 0.0
H412 H 0.18689 0.63099 0.24229 0.0
H413 H 0.20097 0.55807 0.25498 0.0
H414 H 0.24366 0.61262 0.28571 0.0
H415 H 0.30026 0.53738 0.13786 0.0
H416 H 0.32342 0.5304 0.20782 0.0
H417 H 0.25432 0.5057 0.18888 0.0
H418 H 0.35424 0.51448 0.37735 0.0
C419 C 0.34657 0.5724 0.30959 0.0
C420 C 0.04926 0.22318 0.58818 0.0
C421 C 0.07089 0.19013 0.5442 0.0
C422 C 0.12772 0.19614 0.5288 0.0
C423 C 0.13962 0.26807 0.59936 0.0
C424 C 0.0847 0.2601 0.61639 0.0
C425 C 0.07192 0.28869 0.67128 0.0
H426 H 0.16833 0.44836 0.88419 0.0
C427 C 0.16607 0.3069 0.63918 0.0
C428 C 0.12739 0.31797 0.68229 0.0
H429 H 0.00336 0.37284 0.87059 0.0
H430 H 0.02991 0.33236 0.78089 0.0
H431 H 0.16393 0.49732 0.77058 0.0
H432 H 0.2485 0.34817 0.82814 0.0
H433 H 0.29536 0.39114 0.78895 0.0
H434 H 0.26311 0.4184 0.85125 0.0
H435 H 0.23456 0.50016 0.79665 0.0
H436 H 0.21975 0.48756 0.72326 0.0
C437 C 0.02349 0.33104 0.66166 0.0
C438 C 0.05887 0.24297 0.71617 0.0
C439 C 0.35577 0.38917 0.5919 0.0
C440 C 0.38746 0.43319 0.61474 0.0
C441 C 0.36917 0.45921 0.66438 0.0
C442 C 0.31975 0.44074 0.69122 0.0
C443 C 0.28802 0.39707 0.66702 0.0
C444 C 0.30601 0.37274 0.61773 0.0
C445 C 0.2654 0.33033 0.59503 0.0
C446 C 0.21901 0.334 0.63839 0.0
C447 C 0.23309 0.37177 0.68105 0.0
C448 C 0.2457 0.35065 0.5362 0.0
C449 C 0.29442 0.27191 0.59521 0.0
C450 C 0.13804 0.42183 0.86309 0.0
C451 C 0.08374 0.41322 0.88499 0.0
C452 C 0.04553 0.37965 0.85489 0.0
C453 C 0.061 0.35655 0.80278 0.0
C454 C 0.11495 0.36781 0.78071 0.0
C455 C 0.15216 0.40025 0.81093 0.0
C456 C 0.20508 0.41376 0.77922 0.0
C457 C 0.19584 0.37999 0.7266 0.0
C458 C 0.1431 0.3533 0.72736 0.0
C459 C 0.20639 0.47792 0.76691 0.0
C460 C 0.256 0.392 0.81357 0.0
H461 H 0.20484 0.23852 0.54181 0.0
H462 H 0.00688 0.21691 0.60389 0.0
H463 H 0.08203 0.2034 0.70726 0.0
H464 H 0.07268 0.25486 0.75879 0.0
H465 H 0.01324 0.23282 0.7172 0.0
H466 H 0.03052 0.35544 0.62224 0.0
H467 H 0.98245 0.30903 0.65782 0.0
H468 H 0.02017 0.36234 0.69553 0.0
H469 H 0.36818 0.36914 0.55302 0.0
H470 H 0.39307 0.49341 0.68235 0.0
H471 H 0.30794 0.46134 0.7294 0.0
H472 H 0.23453 0.396 0.53723 0.0
H473 H 0.27955 0.34511 0.50447 0.0
H474 H 0.20786 0.32883 0.52093 0.0
H475 H 0.33064 0.27028 0.62484 0.0
H476 H 0.26583 0.23811 0.60988 0.0
H477 H 0.31072 0.26115 0.55283 0.0
H478 H 0.14654 0.16879 0.49812 0.0
C479 C 0.16186 0.23588 0.55527 0.0
Zn480 Zn 0.9677 0.07084 0.56076 0.0
Zn481 Zn 0.0884 0.94102 0.44871 0.0
Zn482 Zn 0.02203 0.00865 0.51201 0.0
C483 C 0.12143 0.05386 0.42987 0.0
C484 C 0.97453 0.92681 0.41513 0.0
O485 O 0.01422 0.98045 0.60185 0.0
O486 O 0.99265 0.06203 0.63833 0.0
C487 C 0.03646 0.14297 0.52414 0.0
O488 O 0.08498 0.06184 0.46917 0.0
O489 O 0.13143 0.00471 0.41269 0.0
O490 O 0.02331 0.90722 0.40675 0.0
O491 O 0.96706 0.96676 0.45064 0.0
O492 O 0.98409 0.14574 0.53166 0.0
O493 O 0.05933 0.09484 0.51429 0.0
O494 O 0.93593 0.01297 0.47509 0.0
O495 O 0.89048 0.04637 0.54798 0.0
C496 C 0.8897 0.02989 0.49783 0.0
O497 O 0.05791 0.94821 0.57205 0.0
O498 O 0.11773 0.9018 0.51811 0.0
C499 C 0.00175 0.01046 0.64515 0.0
C500 C 0.09694 0.91121 0.5662 0.0
Zn501 Zn 0.43919 0.08424 0.94301 0.0
Zn502 Zn 0.56641 0.98493 0.05583 0.0
Zn503 Zn 0.5089 0.02808 0.00218 0.0
C504 C 0.60463 0.95554 0.95953 0.0
C505 C 0.47775 0.93412 0.08583 0.0
O506 O 0.47899 0.09608 0.0576 0.0
O507 O 0.41124 0.13318 0.00571 0.0
C508 C 0.54827 0.09254 0.89256 0.0
O509 O 0.58702 0.00647 0.95347 0.0
O510 O 0.58782 0.9278 0.00149 0.0
O511 O 0.51308 0.96117 0.11454 0.0
O512 O 0.47155 0.94728 0.03342 0.0
O513 O 0.49901 0.11267 0.89033 0.0
O514 O 0.56069 0.05535 0.9301 0.0
O515 O 0.44425 0.96549 0.98305 0.0
O516 O 0.39494 0.01571 0.9222 0.0
C517 C 0.40451 0.96927 0.9465 0.0
O518 O 0.53209 0.07905 0.07652 0.0
O519 O 0.61854 0.04754 0.07031 0.0
C520 C 0.43727 0.13028 0.05201 0.0
C521 C 0.58422 0.082 0.09118 0.0
Zn522 Zn 0.58442 0.59654 0.58659 0.0
Zn523 Zn 0.47758 0.46648 0.4865 0.0
Zn524 Zn 0.52653 0.5268 0.53057 0.0
C525 C 0.57415 0.4275 0.46581 0.0
C526 C 0.44657 0.55209 0.43143 0.0
O527 O 0.46888 0.55758 0.5963 0.0
O528 O 0.52017 0.62512 0.63355 0.0
C529 C 0.63425 0.48894 0.60075 0.0
O530 O 0.57602 0.44868 0.51555 0.0
O531 O 0.53581 0.44371 0.43297 0.0
O532 O 0.41819 0.51572 0.45771 0.0
O533 O 0.49792 0.561 0.44694 0.0
O534 O 0.63666 0.53853 0.61932 0.0
O535 O 0.5977 0.47626 0.56289 0.0
O536 O 0.54774 0.58866 0.46545 0.0
O537 O 0.60739 0.63806 0.51631 0.0
C538 C 0.58488 0.62773 0.46923 0.0
O539 O 0.4503 0.50438 0.5789 0.0
O540 O 0.4606 0.41733 0.5512 0.0
C541 C 0.47388 0.59912 0.63032 0.0
C542 C 0.4371 0.45211 0.58335 0.0
Zn543 Zn 0.05102 0.54622 0.96345 0.0
Zn544 Zn 0.94228 0.45113 0.09506 0.0
Zn545 Zn -0.00026 0.50644 0.02468 0.0
C546 C 0.05868 0.44823 0.12757 0.0
C547 C 0.92721 0.39841 0.991 0.0
O548 O 0.95852 0.58438 0.99382 0.0
O549 O 0.98838 0.55975 0.91035 0.0
C550 C 0.10082 0.58435 0.04898 0.0
O551 O 0.06335 0.48542 0.08833 0.0
O552 O 0.01107 0.42671 0.13804 0.0
O553 O 0.90785 0.39728 0.04051 0.0
O554 O 0.96566 0.4342 0.97759 0.0
O555 O 0.07902 0.60937 0.00753 0.0
O556 O 0.08271 0.53467 0.06162 0.0
O557 O 0.01523 0.45152 0.95044 0.0
O558 O 0.10195 0.4818 0.95262 0.0
C559 C 0.06667 0.44729 0.9337 0.0
O560 O 0.9354 0.56795 0.04862 0.0
O561 O 0.89787 0.51892 0.11829 0.0
C562 C 0.95801 0.59136 0.94 0.0
C563 C 0.90111 0.56419 0.09033 0.0
loop_
_geom_bond_atom_site_label_1
_geom_bond_atom_site_label_2
_geom_bond_distance
_geom_bond_site_symmetry_2
_ccdc_geom_bond_type
C0 C1 1.391 . S
C0 C4 1.391 . S
C0 H42 0.948 . S
C1 C0 1.391 . S
C1 C2 1.391 . S
C2 C1 1.391 . S
C2 H58 0.947 . S
C2 C59 1.392 . S
C3 C4 1.391 . S
C3 C7 1.397 . S
C3 C59 1.419 . S
C4 C0 1.391 . S
C4 C3 1.391 . S
C4 C5 1.399 . S
C5 C4 1.399 . S
C5 C8 1.396 . S
C5 C17 1.453 . S
C5 C18 1.684 . S
H6 C30 0.948 . S
C7 C3 1.397 . S
C7 C8 1.394 . S
C7 C26 1.723 . S
C8 C5 1.396 . S
C8 C7 1.394 . S
C8 C38 1.723 . S
H9 C32 0.947 . S
H10 C33 0.948 . S
H11 C39 0.982 . S
H12 C40 0.979 . S
H13 C40 0.980 . S
H14 C40 0.983 . S
H15 C39 0.979 . S
H16 C39 0.977 . S
C17 C5 1.453 . S
C17 H46 0.982 . S
C17 H47 0.979 . S
C17 H48 0.977 . S
C18 C5 1.684 . S
C18 H43 0.979 . S
C18 H44 0.980 . S
C18 H45 0.983 . S
C19 C20 1.391 . S
C19 C24 1.391 . S
C19 H49 0.948 . S
C20 C19 1.391 . S
C20 C21 1.391 . S
C21 C20 1.391 . S
C21 C22 1.392 . S
C21 H50 0.947 . S
C22 C21 1.392 . S
C22 C23 1.419 . S
C22 H51 0.948 . S
C23 C22 1.419 . S
C23 C24 1.391 . S
C23 C27 1.397 . S
C24 C19 1.391 . S
C24 C23 1.391 . S
C24 C25 1.399 . S
C25 C24 1.399 . S
C25 C26 1.396 . S
C25 C28 1.453 . S
C25 C29 1.684 . S
C26 C7 1.723 . S
C26 C25 1.396 . S
C26 C27 1.394 . S
C27 C23 1.397 . S
C27 C26 1.394 . S
C27 C37 1.723 . S
C28 C25 1.453 . S
C28 H52 0.982 . S
C28 H53 0.979 . S
C28 H54 0.977 . S
C29 C25 1.684 . S
C29 H55 0.979 . S
C29 H56 0.980 . S
C29 H57 0.983 1_455 S
C30 H6 0.948 . S
C30 C31 1.391 . S
C30 C35 1.391 . S
C31 C30 1.391 . S
C31 C32 1.391 . S
C32 H9 0.947 . S
C32 C31 1.391 . S
C32 C33 1.392 . S
C33 H10 0.948 . S
C33 C32 1.392 . S
C33 C34 1.419 . S
C34 C33 1.419 . S
C34 C35 1.391 . S
C34 C38 1.397 . S
C35 C30 1.391 . S
C35 C34 1.391 . S
C35 C36 1.399 . S
C36 C35 1.399 . S
C36 C37 1.396 . S
C36 C39 1.453 . S
C36 C40 1.684 . S
C37 C27 1.723 . S
C37 C36 1.396 . S
C37 C38 1.394 . S
C38 C8 1.723 . S
C38 C34 1.397 . S
C38 C37 1.394 . S
C39 H11 0.982 . S
C39 H15 0.979 . S
C39 H16 0.977 . S
C39 C36 1.453 . S
C40 H12 0.979 . S
C40 H13 0.980 . S
C40 H14 0.983 . S
C40 C36 1.684 . S
H41 C59 0.948 . S
H42 C0 0.948 . S
H43 C18 0.979 . S
H44 C18 0.980 . S
H45 C18 0.983 . S
H46 C17 0.982 . S
H47 C17 0.979 . S
H48 C17 0.977 . S
H49 C19 0.948 . S
H50 C21 0.947 . S
H51 C22 0.948 . S
H52 C28 0.982 . S
H53 C28 0.979 . S
H54 C28 0.977 . S
H55 C29 0.979 . S
H56 C29 0.980 . S
H57 C29 0.983 1_655 S
H58 C2 0.947 . S
C59 C2 1.392 . S
C59 C3 1.419 . S
C59 H41 0.948 . S
C60 C61 1.391 . S
C60 C64 1.391 . S
C60 H102 0.948 . S
C61 C60 1.391 . S
C61 C62 1.391 . S
C62 C61 1.391 . S
C62 H118 0.947 1_565 S
C62 C119 1.392 . S
C63 C64 1.391 . S
C63 C67 1.397 . S
C63 C119 1.419 . S
C64 C60 1.391 . S
C64 C63 1.391 . S
C64 C65 1.399 . S
C65 C64 1.399 . S
C65 C68 1.396 . S
C65 C77 1.453 . S
C65 C78 1.684 . S
H66 C90 0.948 . S
C67 C63 1.397 . S
C67 C68 1.394 . S
C67 C86 1.723 . S
C68 C65 1.396 . S
C68 C67 1.394 . S
C68 C98 1.723 . S
H69 C92 0.947 . S
H70 C93 0.948 . S
H71 C99 0.982 . S
H72 C100 0.979 . S
H73 C100 0.980 . S
H74 C100 0.983 . S
H75 C99 0.979 . S
H76 C99 0.977 . S
C77 C65 1.453 . S
C77 H106 0.982 . S
C77 H107 0.979 . S
C77 H108 0.977 . S
C78 C65 1.684 . S
C78 H103 0.979 . S
C78 H104 0.980 . S
C78 H105 0.983 . S
C79 C80 1.391 . S
C79 C84 1.391 . S
C79 H109 0.948 . S
C80 C79 1.391 . S
C80 C81 1.391 . S
C81 C80 1.391 . S
C81 C82 1.392 . S
C81 H110 0.947 . S
C82 C81 1.392 . S
C82 C83 1.419 . S
C82 H111 0.948 . S
C83 C82 1.419 . S
C83 C84 1.391 . S
C83 C87 1.397 . S
C84 C79 1.391 . S
C84 C83 1.391 . S
C84 C85 1.399 . S
C85 C84 1.399 . S
C85 C86 1.396 . S
C85 C88 1.453 . S
C85 C89 1.684 . S
C86 C67 1.723 . S
C86 C85 1.396 . S
C86 C87 1.394 . S
C87 C83 1.397 . S
C87 C86 1.394 . S
C87 C97 1.723 . S
C88 C85 1.453 . S
C88 H112 0.984 . S
C88 H113 0.979 1_565 S
C88 H114 0.977 . S
C89 C85 1.684 . S
C89 H115 0.979 . S
C89 H116 0.980 . S
C89 H117 0.983 . S
C90 H66 0.948 . S
C90 C91 1.391 . S
C90 C95 1.391 . S
C91 C90 1.391 . S
C91 C92 1.391 . S
C92 H69 0.947 . S
C92 C91 1.391 . S
C92 C93 1.392 . S
C93 H70 0.948 . S
C93 C92 1.392 . S
C93 C94 1.419 . S
C94 C93 1.419 . S
C94 C95 1.391 . S
C94 C98 1.397 . S
C95 C90 1.391 . S
C95 C94 1.391 . S
C95 C96 1.399 . S
C96 C95 1.399 . S
C96 C97 1.396 . S
C96 C99 1.453 . S
C96 C100 1.684 . S
C97 C87 1.723 . S
C97 C96 1.396 . S
C97 C98 1.394 . S
C98 C68 1.723 . S
C98 C94 1.397 . S
C98 C97 1.394 . S
C99 H71 0.982 . S
C99 H75 0.979 . S
C99 H76 0.977 . S
C99 C96 1.453 . S
C100 H72 0.979 . S
C100 H73 0.980 . S
C100 H74 0.983 . S
C100 C96 1.684 . S
H101 C119 0.948 . S
H102 C60 0.948 . S
H103 C78 0.979 . S
H104 C78 0.980 . S
H105 C78 0.983 . S
H106 C77 0.982 . S
H107 C77 0.979 . S
H108 C77 0.977 . S
H109 C79 0.948 . S
H110 C81 0.947 . S
H111 C82 0.948 . S
H112 C88 0.984 . S
H113 C88 0.979 1_545 S
H114 C88 0.977 . S
H115 C89 0.979 . S
H116 C89 0.980 . S
H117 C89 0.983 . S
H118 C62 0.947 1_545 S
C119 C62 1.392 . S
C119 C63 1.419 . S
C119 H101 0.948 . S
C120 C121 1.391 . S
C120 C124 1.391 . S
C120 H162 0.948 . S
C121 C120 1.391 . S
C121 C122 1.391 . S
C122 C121 1.391 . S
C122 H178 0.947 . S
C122 C179 1.392 . S
C123 C124 1.391 . S
C123 C127 1.397 . S
C123 C179 1.419 . S
C124 C120 1.391 . S
C124 C123 1.391 . S
C124 C125 1.399 . S
C125 C124 1.399 . S
C125 C128 1.396 . S
C125 C137 1.453 . S
C125 C138 1.684 . S
H126 C150 0.948 . S
C127 C123 1.397 . S
C127 C128 1.394 . S
C127 C146 1.723 . S
C128 C125 1.396 . S
C128 C127 1.394 . S
C128 C158 1.723 . S
H129 C152 0.947 . S
H130 C153 0.948 . S
H131 C159 0.982 . S
H132 C160 0.979 . S
H133 C160 0.980 . S
H134 C160 0.983 . S
H135 C159 0.979 . S
H136 C159 0.977 . S
C137 C125 1.453 . S
C137 H166 0.982 . S
C137 H167 0.979 1_556 S
C137 H168 0.977 . S
C138 C125 1.684 . S
C138 H163 0.979 . S
C138 H164 0.980 . S
C138 H165 0.983 . S
C139 C140 1.391 . S
C139 C144 1.391 . S
C139 H169 0.948 . S
C140 C139 1.391 . S
C140 C141 1.391 . S
C141 C140 1.391 . S
C141 C142 1.392 . S
C141 H170 0.947 . S
C142 C141 1.392 . S
C142 C143 1.419 . S
C142 H171 0.948 . S
C143 C142 1.419 . S
C143 C144 1.391 . S
C143 C147 1.397 . S
C144 C139 1.391 . S
C144 C143 1.391 . S
C144 C145 1.399 . S
C145 C144 1.399 . S
C145 C146 1.396 . S
C145 C148 1.453 . S
C145 C149 1.684 . S
C146 C127 1.723 . S
C146 C145 1.396 . S
C146 C147 1.394 . S
C147 C143 1.397 . S
C147 C146 1.394 . S
C147 C157 1.723 . S
C148 C145 1.453 . S
C148 H172 0.982 . S
C148 H173 0.979 . S
C148 H174 0.977 . S
C149 C145 1.684 . S
C149 H175 0.979 . S
C149 H176 0.980 . S
C149 H177 0.983 . S
C150 H126 0.948 . S
C150 C151 1.391 . S
C150 C155 1.391 . S
C151 C150 1.391 . S
C151 C152 1.391 . S
C152 H129 0.947 . S
C152 C151 1.391 . S
C152 C153 1.392 . S
C153 H130 0.948 . S
C153 C152 1.392 . S
C153 C154 1.419 . S
C154 C153 1.419 . S
C154 C155 1.391 . S
C154 C158 1.397 . S
C155 C150 1.391 . S
C155 C154 1.391 . S
C155 C156 1.399 . S
C156 C155 1.399 . S
C156 C157 1.396 . S
C156 C159 1.453 . S
C156 C160 1.684 . S
C157 C147 1.723 . S
C157 C156 1.396 . S
C157 C158 1.394 . S
C158 C128 1.723 . S
C158 C154 1.397 . S
C158 C157 1.394 . S
C159 H131 0.982 . S
C159 H135 0.979 . S
C159 H136 0.977 . S
C159 C156 1.453 . S
C160 H132 0.979 . S
C160 H133 0.980 . S
C160 H134 0.983 . S
C160 C156 1.684 . S
H161 C179 0.948 . S
H162 C120 0.948 . S
H163 C138 0.979 . S
H164 C138 0.980 . S
H165 C138 0.983 . S
H166 C137 0.982 . S
H167 C137 0.979 1_554 S
H168 C137 0.977 . S
H169 C139 0.948 . S
H170 C141 0.947 . S
H171 C142 0.948 . S
H172 C148 0.982 . S
H173 C148 0.979 . S
H174 C148 0.977 . S
H175 C149 0.979 . S
H176 C149 0.980 . S
H177 C149 0.983 . S
H178 C122 0.947 . S
C179 C122 1.392 . S
C179 C123 1.419 . S
C179 H161 0.948 . S
C180 C181 1.391 . S
C180 C184 1.391 . S
C180 H222 0.948 . S
C181 C180 1.391 . S
C181 C182 1.391 . S
C182 C181 1.391 . S
C182 H238 0.947 . S
C182 C239 1.392 . S
C183 C184 1.391 . S
C183 C187 1.397 . S
C183 C239 1.419 . S
C184 C180 1.391 . S
C184 C183 1.391 . S
C184 C185 1.399 . S
C185 C184 1.399 . S
C185 C188 1.396 . S
C185 C197 1.453 . S
C185 C198 1.684 . S
H186 C210 0.948 . S
C187 C183 1.397 . S
C187 C188 1.394 . S
C187 C206 1.723 . S
C188 C185 1.396 . S
C188 C187 1.394 . S
C188 C218 1.723 . S
H189 C212 0.947 1_455 S
H190 C213 0.948 . S
H191 C219 0.982 . S
H192 C220 0.979 . S
H193 C220 0.980 . S
H194 C220 0.983 . S
H195 C219 0.979 . S
H196 C219 0.977 . S
C197 C185 1.453 . S
C197 H226 0.982 . S
C197 H227 0.979 1_655 S
C197 H228 0.977 . S
C198 C185 1.684 . S
C198 H223 0.979 . S
C198 H224 0.980 . S
C198 H225 0.983 . S
C199 C200 1.391 . S
C199 C204 1.391 . S
C199 H229 0.948 . S
C200 C199 1.391 . S
C200 C201 1.391 . S
C201 C200 1.391 . S
C201 C202 1.392 . S
C201 H230 0.947 . S
C202 C201 1.392 . S
C202 C203 1.419 . S
C202 H231 0.948 . S
C203 C202 1.419 . S
C203 C204 1.391 . S
C203 C207 1.397 . S
C204 C199 1.391 . S
C204 C203 1.391 . S
C204 C205 1.399 . S
C205 C204 1.399 . S
C205 C206 1.396 . S
C205 C208 1.453 . S
C205 C209 1.684 . S
C206 C187 1.723 . S
C206 C205 1.396 . S
C206 C207 1.394 . S
C207 C203 1.397 . S
C207 C206 1.394 . S
C207 C217 1.723 . S
C208 C205 1.453 . S
C208 H232 0.982 . S
C208 H233 0.979 . S
C208 H234 0.977 . S
C209 C205 1.684 . S
C209 H235 0.979 . S
C209 H236 0.980 . S
C209 H237 0.983 . S
C210 H186 0.948 . S
C210 C211 1.391 . S
C210 C215 1.391 . S
C211 C210 1.391 . S
C211 C212 1.391 . S
C212 H189 0.947 1_655 S
C212 C211 1.391 . S
C212 C213 1.392 . S
C213 H190 0.948 . S
C213 C212 1.392 . S
C213 C214 1.419 . S
C214 C213 1.419 . S
C214 C215 1.391 . S
C214 C218 1.397 . S
C215 C210 1.391 . S
C215 C214 1.391 . S
C215 C216 1.399 . S
C216 C215 1.399 . S
C216 C217 1.396 . S
C216 C219 1.453 . S
C216 C220 1.684 . S
C217 C207 1.723 . S
C217 C216 1.396 . S
C217 C218 1.394 . S
C218 C188 1.723 . S
C218 C214 1.397 . S
C218 C217 1.394 . S
C219 H191 0.982 . S
C219 H195 0.979 . S
C219 H196 0.977 . S
C219 C216 1.453 . S
C220 H192 0.979 . S
C220 H193 0.980 . S
C220 H194 0.983 . S
C220 C216 1.684 . S
H221 C239 0.948 . S
H222 C180 0.948 . S
H223 C198 0.979 . S
H224 C198 0.980 . S
H225 C198 0.983 . S
H226 C197 0.982 . S
H227 C197 0.979 1_455 S
H228 C197 0.977 . S
H229 C199 0.948 . S
H230 C201 0.947 . S
H231 C202 0.948 . S
H232 C208 0.982 . S
H233 C208 0.979 . S
H234 C208 0.977 . S
H235 C209 0.979 . S
H236 C209 0.980 . S
H237 C209 0.983 . S
H238 C182 0.947 . S
C239 C182 1.392 . S
C239 C183 1.419 . S
C239 H221 0.948 . S
C240 C241 1.391 1_655 S
C240 C244 1.391 . S
C240 H282 0.948 . S
C241 C240 1.391 1_455 S
C241 C242 1.391 1_554 S
C242 C241 1.391 1_556 S
C242 H298 0.947 . S
C242 C299 1.392 . S
C243 C244 1.391 1_556 S
C243 C247 1.397 . S
C243 C299 1.419 1_655 S
C244 C240 1.391 . S
C244 C243 1.391 1_554 S
C244 C245 1.399 . S
C245 C244 1.399 . S
C245 C248 1.396 1_554 S
C245 C257 1.453 . S
C245 C258 1.684 . S
H246 C270 0.945 1_556 S
C247 C243 1.397 . S
C247 C248 1.394 . S
C247 C266 1.723 . S
C248 C245 1.396 1_556 S
C248 C247 1.394 . S
C248 C278 1.723 . S
H249 C272 0.947 . S
H250 C273 0.948 . S
H251 C279 0.982 1_565 S
H252 C280 0.979 . S
H253 C280 0.980 . S
H254 C280 0.983 . S
H255 C279 0.979 . S
H256 C279 0.977 . S
C257 C245 1.453 . S
C257 H286 0.982 1_554 S
C257 H287 0.979 . S
C257 H288 0.977 . S
C258 C245 1.684 . S
C258 H283 0.979 . S
C258 H284 0.980 . S
C258 H285 0.983 . S
C259 C260 1.380 1_565 S
C259 C264 1.396 . S
C259 H289 0.954 . S
C260 C259 1.380 1_545 S
C260 C261 1.391 1_455 S
C261 C260 1.391 1_655 S
C261 C262 1.392 . S
C261 H290 0.947 . S
C262 C261 1.392 . S
C262 C263 1.404 1_545 S
C262 H291 0.948 . S
C263 C262 1.404 1_565 S
C263 C264 1.398 1_655 S
C263 C267 1.407 . S
C264 C259 1.396 . S
C264 C263 1.398 1_455 S
C264 C265 1.399 . S
C265 C264 1.399 . S
C265 C266 1.396 1_455 S
C265 C268 1.453 . S
C265 C269 1.684 . S
C266 C247 1.723 . S
C266 C265 1.396 1_655 S
C266 C267 1.394 . S
C267 C263 1.407 . S
C267 C266 1.394 . S
C267 C277 1.723 . S
C268 C265 1.453 . S
C268 H292 0.982 1_455 S
C268 H293 0.979 . S
C268 H294 0.977 . S
C269 C265 1.684 . S
C269 H295 0.979 . S
C269 H296 0.980 . S
C269 H297 0.983 . S
C270 H246 0.945 1_554 S
C270 C271 1.397 . S
C270 C275 1.388 1_554 S
C271 C270 1.397 . S
C271 C272 1.391 1_545 S
C272 H249 0.947 . S
C272 C271 1.391 1_565 S
C272 C273 1.392 . S
C273 H250 0.948 . S
C273 C272 1.392 . S
C273 C274 1.424 . S
C274 C273 1.424 . S
C274 C275 1.389 1_564 S
C274 C278 1.393 1_554 S
C275 C270 1.388 1_556 S
C275 C274 1.389 1_546 S
C275 C276 1.399 . S
C276 C275 1.399 . S
C276 C277 1.396 1_545 S
C276 C279 1.453 . S
C276 C280 1.684 . S
C277 C267 1.723 . S
C277 C276 1.396 1_565 S
C277 C278 1.394 . S
C278 C248 1.723 . S
C278 C274 1.393 1_556 S
C278 C277 1.394 . S
C279 H251 0.982 1_545 S
C279 H255 0.979 . S
C279 H256 0.977 . S
C279 C276 1.453 . S
C280 H252 0.979 . S
C280 H253 0.980 . S
C280 H254 0.983 . S
C280 C276 1.684 . S
H281 C299 0.948 . S
H282 C240 0.948 . S
H283 C258 0.979 . S
H284 C258 0.980 . S
H285 C258 0.983 . S
H286 C257 0.982 1_556 S
H287 C257 0.979 . S
H288 C257 0.977 . S
H289 C259 0.954 . S
H290 C261 0.947 . S
H291 C262 0.948 . S
H292 C268 0.982 1_655 S
H293 C268 0.979 . S
H294 C268 0.977 . S
H295 C269 0.979 . S
H296 C269 0.980 . S
H297 C269 0.983 . S
H298 C242 0.947 . S
C299 C242 1.392 . S
C299 C243 1.419 1_455 S
C299 H281 0.948 . S
C300 C301 1.391 . S
C300 C304 1.391 . S
C300 H342 0.948 . S
C301 C300 1.391 . S
C301 C302 1.391 1_545 S
C302 C301 1.391 1_565 S
C302 H358 0.947 . S
C302 C359 1.392 1_565 S
C303 C304 1.391 . S
C303 C307 1.397 . S
C303 C359 1.419 . S
C304 C300 1.391 . S
C304 C303 1.391 . S
C304 C305 1.399 . S
C305 C304 1.399 . S
C305 C308 1.396 . S
C305 C317 1.453 . S
C305 C318 1.684 . S
H306 C330 0.948 . S
C307 C303 1.397 . S
C307 C308 1.394 . S
C307 C326 1.723 . S
C308 C305 1.396 . S
C308 C307 1.394 . S
C308 C338 1.723 . S
H309 C332 0.947 . S
H310 C333 0.948 . S
H311 C339 0.982 . S
H312 C340 0.979 . S
H313 C340 0.980 . S
H314 C340 0.983 . S
H315 C339 0.979 . S
H316 C339 0.977 . S
C317 C305 1.453 . S
C317 H346 0.982 . S
C317 H347 0.979 . S
C317 H348 0.977 . S
C318 C305 1.684 . S
C318 H343 0.979 . S
C318 H344 0.980 . S
C318 H345 0.983 . S
C319 C320 1.391 1_565 S
C319 C324 1.391 1_565 S
C319 H349 0.948 . S
C320 C319 1.391 1_545 S
C320 C321 1.391 . S
C321 C320 1.391 . S
C321 C322 1.392 . S
C321 H350 0.947 . S
C322 C321 1.392 . S
C322 C323 1.419 . S
C322 H351 0.948 . S
C323 C322 1.419 . S
C323 C324 1.391 . S
C323 C327 1.397 . S
C324 C319 1.391 1_545 S
C324 C323 1.391 . S
C324 C325 1.399 . S
C325 C324 1.399 . S
C325 C326 1.396 . S
C325 C328 1.453 1_545 S
C325 C329 1.687 . S
C326 C307 1.723 . S
C326 C325 1.396 . S
C326 C327 1.394 . S
C327 C323 1.397 . S
C327 C326 1.394 . S
C327 C337 1.723 . S
C328 C325 1.453 1_565 S
C328 H352 0.982 . S
C328 H353 0.979 . S
C328 H354 0.977 . S
C329 C325 1.687 . S
C329 H355 0.987 . S
C329 H356 0.978 1_545 S
C329 H357 0.974 1_545 S
C330 H306 0.948 . S
C330 C331 1.391 . S
C330 C335 1.391 . S
C331 C330 1.391 . S
C331 C332 1.391 . S
C332 H309 0.947 . S
C332 C331 1.391 . S
C332 C333 1.392 . S
C333 H310 0.948 . S
C333 C332 1.392 . S
C333 C334 1.419 . S
C334 C333 1.419 . S
C334 C335 1.391 . S
C334 C338 1.397 . S
C335 C330 1.391 . S
C335 C334 1.391 . S
C335 C336 1.399 . S
C336 C335 1.399 . S
C336 C337 1.396 . S
C336 C339 1.453 . S
C336 C340 1.684 . S
C337 C327 1.723 . S
C337 C336 1.396 . S
C337 C338 1.394 . S
C338 C308 1.723 . S
C338 C334 1.397 . S
C338 C337 1.394 . S
C339 H311 0.982 . S
C339 H315 0.979 . S
C339 H316 0.977 . S
C339 C336 1.453 . S
C340 H312 0.979 . S
C340 H313 0.980 . S
C340 H314 0.983 . S
C340 C336 1.684 . S
H341 C359 0.948 1_565 S
H342 C300 0.948 . S
H343 C318 0.979 . S
H344 C318 0.980 . S
H345 C318 0.983 . S
H346 C317 0.982 . S
H347 C317 0.979 . S
H348 C317 0.977 . S
H349 C319 0.948 . S
H350 C321 0.947 . S
H351 C322 0.948 . S
H352 C328 0.982 . S
H353 C328 0.979 . S
H354 C328 0.977 . S
H355 C329 0.987 . S
H356 C329 0.978 1_565 S
H357 C329 0.974 1_565 S
H358 C302 0.947 . S
C359 C302 1.392 1_545 S
C359 C303 1.419 . S
C359 H341 0.948 1_545 S
C360 C361 1.391 . S
C360 C364 1.391 . S
C360 H402 0.948 . S
C361 C360 1.391 . S
C361 C362 1.391 . S
C362 C361 1.391 . S
C362 H418 0.947 . S
C362 C419 1.392 . S
C363 C364 1.391 . S
C363 C367 1.397 . S
C363 C419 1.419 . S
C364 C360 1.391 . S
C364 C363 1.391 . S
C364 C365 1.399 . S
C365 C364 1.399 . S
C365 C368 1.396 . S
C365 C377 1.453 . S
C365 C378 1.684 . S
H366 C390 0.948 . S
C367 C363 1.397 . S
C367 C368 1.394 . S
C367 C386 1.723 . S
C368 C365 1.396 . S
C368 C367 1.394 . S
C368 C398 1.723 . S
H369 C392 0.947 . S
H370 C393 0.948 . S
H371 C399 0.982 . S
H372 C400 0.979 . S
H373 C400 0.980 . S
H374 C400 0.983 . S
H375 C399 0.979 1_556 S
H376 C399 0.977 1_556 S
C377 C365 1.453 . S
C377 H406 0.982 . S
C377 H407 0.979 . S
C377 H408 0.977 . S
C378 C365 1.684 . S
C378 H403 0.979 . S
C378 H404 0.980 . S
C378 H405 0.983 . S
C379 C380 1.391 1_554 S
C379 C384 1.391 . S
C379 H409 0.948 . S
C380 C379 1.391 1_556 S
C380 C381 1.391 . S
C381 C380 1.391 . S
C381 C382 1.392 . S
C381 H410 0.947 . S
C382 C381 1.392 . S
C382 C383 1.419 1_556 S
C382 H411 0.948 . S
C383 C382 1.419 1_554 S
C383 C384 1.391 . S
C383 C387 1.397 . S
C384 C379 1.391 . S
C384 C383 1.391 . S
C384 C385 1.399 . S
C385 C384 1.399 . S
C385 C386 1.396 . S
C385 C388 1.453 . S
C385 C389 1.684 . S
C386 C367 1.723 . S
C386 C385 1.396 . S
C386 C387 1.394 . S
C387 C383 1.397 . S
C387 C386 1.394 . S
C387 C397 1.723 . S
C388 C385 1.453 . S
C388 H412 0.982 . S
C388 H413 0.979 . S
C388 H414 0.977 . S
C389 C385 1.684 . S
C389 H415 0.979 . S
C389 H416 0.980 . S
C389 H417 0.983 . S
C390 H366 0.948 . S
C390 C391 1.391 1_556 S
C390 C395 1.391 1_556 S
C391 C390 1.391 1_554 S
C391 C392 1.391 . S
C392 H369 0.947 . S
C392 C391 1.391 . S
C392 C393 1.392 . S
C393 H370 0.948 . S
C393 C392 1.392 . S
C393 C394 1.419 . S
C394 C393 1.419 . S
C394 C395 1.391 . S
C394 C398 1.397 . S
C395 C390 1.391 1_554 S
C395 C394 1.391 . S
C395 C396 1.399 . S
C396 C395 1.399 . S
C396 C397 1.396 . S
C396 C399 1.453 . S
C396 C400 1.684 1_554 S
C397 C387 1.723 . S
C397 C396 1.396 . S
C397 C398 1.394 . S
C398 C368 1.723 . S
C398 C394 1.397 . S
C398 C397 1.394 . S
C399 H371 0.982 . S
C399 H375 0.979 1_554 S
C399 H376 0.977 1_554 S
C399 C396 1.453 . S
C400 H372 0.979 . S
C400 H373 0.980 . S
C400 H374 0.983 . S
C400 C396 1.684 1_556 S
H401 C419 0.948 . S
H402 C360 0.948 . S
H403 C378 0.979 . S
H404 C378 0.980 . S
H405 C378 0.983 . S
H406 C377 0.982 . S
H407 C377 0.979 . S
H408 C377 0.977 . S
H409 C379 0.948 . S
H410 C381 0.947 . S
H411 C382 0.948 . S
H412 C388 0.982 . S
H413 C388 0.979 . S
H414 C388 0.977 . S
H415 C389 0.979 . S
H416 C389 0.980 . S
H417 C389 0.983 . S
H418 C362 0.947 . S
C419 C362 1.392 . S
C419 C363 1.419 . S
C419 H401 0.948 . S
C420 C421 1.391 1_655 S
C420 C424 1.391 1_655 S
C420 H462 0.948 . S
C421 C420 1.391 1_455 S
C421 C422 1.391 . S
C422 C421 1.391 . S
C422 H478 0.947 . S
C422 C479 1.392 . S
C423 C424 1.391 . S
C423 C427 1.397 . S
C423 C479 1.419 . S
C424 C420 1.391 1_455 S
C424 C423 1.391 . S
C424 C425 1.399 . S
C425 C424 1.399 . S
C425 C428 1.396 . S
C425 C437 1.453 1_455 S
C425 C438 1.684 1_455 S
H426 C450 0.948 . S
C427 C423 1.397 . S
C427 C428 1.394 . S
C427 C446 1.723 . S
C428 C425 1.396 . S
C428 C427 1.394 . S
C428 C458 1.723 . S
H429 C452 0.947 . S
H430 C453 0.956 . S
H431 C459 0.982 . S
H432 C460 0.979 . S
H433 C460 0.980 . S
H434 C460 0.983 . S
H435 C459 0.979 . S
H436 C459 0.977 . S
C437 C425 1.453 1_655 S
C437 H466 0.982 . S
C437 H467 0.979 . S
C437 H468 0.977 . S
C438 C425 1.684 1_655 S
C438 H463 0.979 1_655 S
C438 H464 0.980 . S
C438 H465 0.983 . S
C439 C440 1.391 . S
C439 C444 1.391 . S
C439 H469 0.948 . S
C440 C439 1.391 . S
C440 C441 1.391 . S
C441 C440 1.391 . S
C441 C442 1.392 . S
C441 H470 0.947 . S
C442 C441 1.392 . S
C442 C443 1.419 . S
C442 H471 0.948 . S
C443 C442 1.419 . S
C443 C444 1.391 . S
C443 C447 1.397 . S
C444 C439 1.391 . S
C444 C443 1.391 . S
C444 C445 1.399 . S
C445 C444 1.399 . S
C445 C446 1.396 . S
C445 C448 1.453 . S
C445 C449 1.684 . S
C446 C427 1.723 . S
C446 C445 1.396 . S
C446 C447 1.394 . S
C447 C443 1.397 . S
C447 C446 1.394 . S
C447 C457 1.723 . S
C448 C445 1.453 . S
C448 H472 0.982 . S
C448 H473 0.979 . S
C448 H474 0.977 . S
C449 C445 1.684 . S
C449 H475 0.979 . S
C449 H476 0.980 . S
C449 H477 0.983 . S
C450 H426 0.948 . S
C450 C451 1.391 . S
C450 C455 1.391 . S
C451 C450 1.391 . S
C451 C452 1.391 1_455 S
C452 H429 0.947 . S
C452 C451 1.391 1_655 S
C452 C453 1.398 . S
C453 H430 0.956 . S
C453 C452 1.398 . S
C453 C454 1.405 1_655 S
C454 C453 1.405 1_455 S
C454 C455 1.391 . S
C454 C458 1.397 . S
C455 C450 1.391 . S
C455 C454 1.391 . S
C455 C456 1.399 . S
C456 C455 1.399 . S
C456 C457 1.396 . S
C456 C459 1.453 . S
C456 C460 1.684 . S
C457 C447 1.723 . S
C457 C456 1.396 . S
C457 C458 1.394 . S
C458 C428 1.723 . S
C458 C454 1.397 . S
C458 C457 1.394 . S
C459 H431 0.982 . S
C459 H435 0.979 . S
C459 H436 0.977 . S
C459 C456 1.453 . S
C460 H432 0.979 . S
C460 H433 0.980 . S
C460 H434 0.983 . S
C460 C456 1.684 . S
H461 C479 0.948 . S
H462 C420 0.948 . S
H463 C438 0.979 1_455 S
H464 C438 0.980 . S
H465 C438 0.983 . S
H466 C437 0.982 . S
H467 C437 0.979 . S
H468 C437 0.977 . S
H469 C439 0.948 . S
H470 C441 0.947 . S
H471 C442 0.948 . S
H472 C448 0.982 . S
H473 C448 0.979 . S
H474 C448 0.977 . S
H475 C449 0.979 . S
H476 C449 0.980 . S
H477 C449 0.983 . S
H478 C422 0.947 . S
C479 C422 1.392 . S
C479 C423 1.419 . S
C479 H461 0.948 . S
Zn480 O486 1.920 . S
Zn480 O492 1.898 . S
Zn480 O495 1.905 . S
Zn481 O489 1.905 1_565 S
Zn481 O490 1.898 . S
Zn481 O498 1.920 . S
Zn482 O485 2.080 1_455 S
Zn482 O488 2.114 . S
Zn482 O491 2.120 1_445 S
Zn482 O493 2.120 . S
Zn482 O494 2.114 1_455 S
Zn482 O497 2.080 . S
C483 O488 1.166 . S
C483 O489 1.182 . S
C484 O490 1.167 1_655 S
C484 O491 1.299 . S
O485 Zn482 2.080 1_655 S
O485 C499 1.305 . S
O486 Zn480 1.920 . S
O486 C499 1.234 . S
C487 O492 1.167 1_455 S
C487 O493 1.299 . S
O488 Zn482 2.114 . S
O488 C483 1.166 . S
O489 Zn481 1.905 1_545 S
O489 C483 1.182 . S
O490 Zn481 1.898 . S
O490 C484 1.167 1_455 S
O491 Zn482 2.120 1_665 S
O491 C484 1.299 . S
O492 Zn480 1.898 . S
O492 C487 1.167 1_655 S
O493 Zn482 2.120 . S
O493 C487 1.299 . S
O494 Zn482 2.114 1_655 S
O494 C496 1.166 . S
O495 Zn480 1.905 . S
O495 C496 1.182 . S
C496 O494 1.166 . S
C496 O495 1.182 . S
O497 Zn482 2.080 . S
O497 C500 1.305 1_545 S
O498 Zn481 1.920 . S
O498 C500 1.234 . S
C499 O485 1.305 . S
C499 O486 1.234 . S
C500 O497 1.305 1_565 S
C500 O498 1.234 . S
Zn501 O507 1.920 1_556 S
Zn501 O513 1.898 . S
Zn501 O516 1.905 . S
Zn502 O510 1.905 . S
Zn502 O511 1.898 . S
Zn502 O519 1.920 . S
Zn503 O506 2.080 . S
Zn503 O509 2.114 1_545 S
Zn503 O512 2.120 1_545 S
Zn503 O514 2.120 . S
Zn503 O515 2.114 1_544 S
Zn503 O518 2.080 . S
C504 O509 1.166 . S
C504 O510 1.182 . S
C505 O511 1.167 . S
C505 O512 1.299 . S
O506 Zn503 2.080 . S
O506 C520 1.305 . S
O507 Zn501 1.920 1_554 S
O507 C520 1.234 . S
C508 O513 1.167 . S
C508 O514 1.299 1_556 S
O509 Zn503 2.114 1_565 S
O509 C504 1.166 . S
O510 Zn502 1.905 . S
O510 C504 1.182 . S
O511 Zn502 1.898 . S
O511 C505 1.167 . S
O512 Zn503 2.120 1_565 S
O512 C505 1.299 . S
O513 Zn501 1.898 . S
O513 C508 1.167 . S
O514 Zn503 2.120 . S
O514 C508 1.299 1_554 S
O515 Zn503 2.114 1_566 S
O515 C517 1.166 . S
O516 Zn501 1.905 . S
O516 C517 1.182 1_545 S
C517 O515 1.166 . S
C517 O516 1.182 1_565 S
O518 Zn503 2.080 . S
O518 C521 1.305 . S
O519 Zn502 1.920 . S
O519 C521 1.234 1_565 S
C520 O506 1.305 . S
C520 O507 1.234 . S
C521 O518 1.305 . S
C521 O519 1.234 1_545 S
Zn522 O528 1.920 . S
Zn522 O534 1.898 . S
Zn522 O537 1.905 . S
Zn523 O531 1.905 . S
Zn523 O532 1.898 . S
Zn523 O540 1.920 . S
Zn524 O527 2.080 . S
Zn524 O530 2.114 . S
Zn524 O533 2.120 . S
Zn524 O535 2.120 . S
Zn524 O536 2.114 . S
Zn524 O539 2.080 . S
C525 O530 1.166 . S
C525 O531 1.182 . S
C526 O532 1.167 . S
C526 O533 1.299 . S
O527 Zn524 2.080 . S
O527 C541 1.305 . S
O528 Zn522 1.920 . S
O528 C541 1.234 . S
C529 O534 1.167 . S
C529 O535 1.299 . S
O530 Zn524 2.114 . S
O530 C525 1.166 . S
O531 Zn523 1.905 . S
O531 C525 1.182 . S
O532 Zn523 1.898 . S
O532 C526 1.167 . S
O533 Zn524 2.120 . S
O533 C526 1.299 . S
O534 Zn522 1.898 . S
O534 C529 1.167 . S
O535 Zn524 2.120 . S
O535 C529 1.299 . S
O536 Zn524 2.114 . S
O536 C538 1.166 . S
O537 Zn522 1.905 . S
O537 C538 1.182 . S
C538 O536 1.166 . S
C538 O537 1.182 . S
O539 Zn524 2.080 . S
O539 C542 1.305 . S
O540 Zn523 1.920 . S
O540 C542 1.234 . S
C541 O527 1.305 . S
C541 O528 1.234 . S
C542 O539 1.305 . S
C542 O540 1.234 . S
Zn543 O549 1.920 . S
Zn543 O555 1.898 . S
Zn543 O558 1.905 . S
Zn544 O552 1.905 1_655 S
Zn544 O553 1.898 . S
Zn544 O561 1.920 . S
Zn545 O548 2.080 1_554 S
Zn545 O551 2.114 . S
Zn545 O554 2.120 1_454 S
Zn545 O556 2.120 . S
Zn545 O557 2.114 1_554 S
Zn545 O560 2.080 . S
C546 O551 1.166 . S
C546 O552 1.182 . S
C547 O553 1.167 1_556 S
C547 O554 1.299 . S
O548 Zn545 2.080 1_556 S
O548 C562 1.305 . S
O549 Zn543 1.920 . S
O549 C562 1.234 . S
C550 O555 1.167 1_554 S
C550 O556 1.299 . S
O551 Zn545 2.114 . S
O551 C546 1.166 . S
O552 Zn544 1.905 1_455 S
O552 C546 1.182 . S
O553 Zn544 1.898 . S
O553 C547 1.167 1_554 S
O554 Zn545 2.120 1_656 S
O554 C547 1.299 . S
O555 Zn543 1.898 . S
O555 C550 1.167 1_556 S
O556 Zn545 2.120 . S
O556 C550 1.299 . S
O557 Zn545 2.114 1_556 S
O557 C559 1.166 . S
O558 Zn543 1.905 . S
O558 C559 1.182 . S
C559 O557 1.166 . S
C559 O558 1.182 . S
O560 Zn545 2.080 . S
O560 C563 1.305 1_455 S
O561 Zn544 1.920 . S
O561 C563 1.234 . S
C562 O548 1.305 . S
C562 O549 1.234 . S
C563 O560 1.305 1_655 S
C563 O561 1.234 . S
C1 C483 1.589 . S
C80 C517 1.608 . S
C529 C140 1.420 . S
C211 C563 1.612 . S
C520 C31 1.569 . S
C500 C61 1.602 . S
C547 C151 1.409 . S
C538 C200 1.621 . S
C20 C546 1.557 . S
C508 C121 1.416 . S
C181 C484 1.602 . S
C91 C541 1.586 . S
C499 C260 2.304 1_655 S
C320 C521 2.193 . S
C361 C526 2.371 . S
C451 C559 2.285 . S
C271 C504 2.355 1_545 S
C496 C301 2.232 . S
C550 C380 2.371 1_554 S
C542 C440 2.236 . S
C241 C562 2.311 1_554 S
C505 C391 2.376 . S
C487 C421 2.186 . S
C331 C525 2.245 . S
