# Generated by pormake.
# Topology anh, (6,3)-cn, num edge types: 1
# Building blocks:
#     Node 0, Type 0, BuildingBlock: PAMTUU_clean_sbu_0, # of connection points: 6
#     Node 1, Type 0, BuildingBlock: PAMTUU_clean_sbu_0, # of connection points: 6
#     Node 2, Type 0, BuildingBlock: PAMTUU_clean_sbu_0, # of connection points: 6
#     Node 3, Type 1, BuildingBlock: VETTIZ_charged_linker_0, # of connection points: 3
#     Node 4, Type 1, BuildingBlock: VETTIZ_charged_linker_0, # of connection points: 3
#     Node 5, Type 1, BuildingBlock: VETTIZ_charged_linker_0, # of connection points: 3
#     Node 6, Type 1, BuildingBlock: VETTIZ_charged_linker_0, # of connection points: 3
#     Node 7, Type 1, BuildingBlock: VETTIZ_charged_linker_0, # of connection points: 3
#     Node 8, Type 1, BuildingBlock: VETTIZ_charged_linker_0, # of connection points: 3
#     Edge 9, Type (0, 1), BuildingBlock: ZUJKAS_clean_linker_0, # of connection points: 2
#     Edge 10, Type (0, 1), BuildingBlock: ZUJKAS_clean_linker_0, # of connection points: 2
#     Edge 11, Type (0, 1), BuildingBlock: ZUJKAS_clean_linker_0, # of connection points: 2
#     Edge 12, Type (0, 1), BuildingBlock: ZUJKAS_clean_linker_0, # of connection points: 2
#     Edge 13, Type (0, 1), BuildingBlock: ZUJKAS_clean_linker_0, # of connection points: 2
#     Edge 14, Type (0, 1), BuildingBlock: ZUJKAS_clean_linker_0, # of connection points: 2
#     Edge 15, Type (0, 1), BuildingBlock: ZUJKAS_clean_linker_0, # of connection points: 2
#     Edge 16, Type (0, 1), BuildingBlock: ZUJKAS_clean_linker_0, # of connection points: 2
#     Edge 17, Type (0, 1), BuildingBlock: ZUJKAS_clean_linker_0, # of connection points: 2
#     Edge 18, Type (0, 1), BuildingBlock: ZUJKAS_clean_linker_0, # of connection points: 2
#     Edge 19, Type (0, 1), BuildingBlock: ZUJKAS_clean_linker_0, # of connection points: 2
#     Edge 20, Type (0, 1), BuildingBlock: ZUJKAS_clean_linker_0, # of connection points: 2
#     Edge 21, Type (0, 1), BuildingBlock: ZUJKAS_clean_linker_0, # of connection points: 2
#     Edge 22, Type (0, 1), BuildingBlock: ZUJKAS_clean_linker_0, # of connection points: 2
#     Edge 23, Type (0, 1), BuildingBlock: ZUJKAS_clean_linker_0, # of connection points: 2
#     Edge 24, Type (0, 1), BuildingBlock: ZUJKAS_clean_linker_0, # of connection points: 2
#     Edge 25, Type (0, 1), BuildingBlock: ZUJKAS_clean_linker_0, # of connection points: 2
#     Edge 26, Type (0, 1), BuildingBlock: ZUJKAS_clean_linker_0, # of connection points: 2
# Relax obj value: 0.204
# Max RMSD: 0.185
# Mean RMSD: 0.152
data_MOF--net-anh--node1-PAMTUU_clean_sbu_0--node2-VETTIZ_charged_linker_0--edge1-ZUJKAS_clean_linker_0
_symmetry_space_group_name_H-M    P1
_symmetry_Int_Tables_number       1
_symmetry_cell_setting            triclinic
loop_
_symmetry_equiv_pos_as_xyz
'x, y, z'
_cell_length_a     44.158798
_cell_length_b     44.081055
_cell_length_c     82.733436
_cell_angle_alpha  93.035609
_cell_angle_beta   89.89698
_cell_angle_gamma 119.96808
loop_
_atom_site_label
_atom_site_type_symbol
_atom_site_fract_x
_atom_site_fract_y
_atom_site_fract_z
_atom_type_partial_charge
Tb0 Tb 0.11855 0.64211 0.16307 0.0
Tb1 Tb 0.16116 0.59954 0.16485 0.0
C2 C 0.14347 0.61969 0.13221 0.0
C3 C 1.04282 0.65179 0.16662 0.0
C4 C 0.97097 0.60278 0.16793 0.0
C5 C 0.98334 0.62885 0.15659 0.0
C6 C 1.019 0.65316 0.15596 0.0
C7 C 1.03019 0.62788 0.17889 0.0
C8 C 0.99455 0.60373 0.1796 0.0
C9 C 1.07997 0.66879 0.16258 0.0
O10 O 1.07867 0.58674 0.158 0.0
O11 O 0.10676 0.56027 0.16876 0.0
O12 O 0.1639 0.62178 0.18917 0.0
O13 O 0.11271 0.62243 0.18702 0.0
O14 O 0.19796 0.58782 0.1546 0.0
O15 O 0.16832 0.56125 0.17527 0.0
O16 O 0.20272 0.65445 0.16413 0.0
O17 O 0.17241 0.6843 0.16814 0.0
O18 O 0.1433 0.64623 0.14001 0.0
O19 O 0.14145 0.59376 0.14011 0.0
C20 C 1.07802 0.55889 0.16346 0.0
O21 O 0.10208 0.67496 0.17448 0.0
O22 O 0.08614 0.65439 0.14977 0.0
C23 C 0.13741 0.62264 0.19586 0.0
C24 C 0.22524 0.56857 0.17298 0.0
C25 C 0.28079 0.56119 0.18498 0.0
C26 C 0.25424 0.55829 0.19528 0.0
C27 C 0.22667 0.56193 0.18933 0.0
C28 C 0.25279 0.57348 0.16298 0.0
C29 C 0.28032 0.56996 0.16891 0.0
C30 C 0.19355 0.56602 0.16565 0.0
C31 C 0.20199 0.68389 0.16672 0.0
H32 H 0.96599 0.62871 0.14732 0.0
H33 H 1.02826 0.67107 0.14628 0.0
H34 H 1.04803 0.62601 0.18721 0.0
H35 H 0.98578 0.58439 0.18864 0.0
H36 H 0.25403 0.55177 0.20773 0.0
H37 H 0.20578 0.55799 0.19737 0.0
H38 H 0.25218 0.57825 0.1503 0.0
H39 H 0.29997 0.57176 0.16055 0.0
Tb40 Tb 0.60656 0.06246 0.49108 0.0
Tb41 Tb 0.69043 0.10684 0.49846 0.0
C42 C 0.65965 0.08903 0.46333 0.0
C43 C 0.51412 0.99302 0.4913 0.0
C44 C 0.46074 0.9286 0.50158 0.0
C45 C 0.45827 0.93993 0.48631 0.0
C46 C 0.48474 0.97196 0.48124 0.0
C47 C 0.51706 0.98149 0.50643 0.0
C48 C 0.4904 0.94962 0.51159 0.0
C49 C 0.54148 1.02687 0.48592 0.0
O50 O 0.62261 1.02256 0.48936 0.0
O51 O 0.67873 1.05285 0.5004 0.0
O52 O 0.66335 0.10662 0.52058 0.0
O53 O 0.61493 1.05327 0.51557 0.0
O54 O 0.7408 0.14339 0.49133 0.0
O55 O 0.73261 0.1223 0.5149 0.0
O56 O 0.67619 0.14609 0.49295 0.0
O57 O 0.61781 0.11592 0.49825 0.0
O58 O 0.63134 0.08745 0.46919 0.0
O59 O 0.68314 0.08877 0.47295 0.0
C60 C 0.65094 1.02335 0.49507 0.0
O61 O 0.55642 1.05207 0.4972 0.0
O62 O 0.56415 1.02568 0.47616 0.0
C63 C 0.63643 0.0785 0.5258 0.0
C64 C 0.76775 0.18371 0.51331 0.0
C65 C 0.77958 0.25222 0.52006 0.0
C66 C 0.75569 0.22448 0.5291 0.0
C67 C 0.74971 0.19053 0.52571 0.0
C68 C 0.79401 0.21187 0.50538 0.0
C69 C 0.79984 0.24581 0.50869 0.0
C70 C 0.75354 0.14778 0.50602 0.0
C71 C 0.64678 0.14562 0.49602 0.0
H72 H 0.43546 0.9244 0.47843 0.0
H73 H 0.48215 0.98043 0.46952 0.0
H74 H 0.5398 0.99724 0.5143 0.0
H75 H 0.493 0.94135 0.52335 0.0
H76 H 0.74013 0.2286 0.53814 0.0
H77 H 0.72909 0.16934 0.532 0.0
H78 H 0.8079 0.20721 0.49564 0.0
H79 H 0.81824 0.26641 0.50135 0.0
Tb80 Tb 0.62938 0.5734 0.82779 0.0
Tb81 Tb 0.66951 0.65755 0.83445 0.0
C82 C 0.65453 0.62288 0.79943 0.0
C83 C 0.60489 0.48107 0.83083 0.0
C84 C 0.6167 0.43043 0.84431 0.0
C85 C 0.64488 0.4616 0.83905 0.0
C86 C 0.63905 0.48682 0.83245 0.0
C87 C 0.57687 0.45046 0.83638 0.0
C88 C 0.58269 0.42543 0.84312 0.0
C89 C 0.59817 0.50758 0.82437 0.0
O90 O 0.685 0.58932 0.82584 0.0
O91 O 0.71205 0.64615 0.83711 0.0
O92 O 0.64371 0.63178 0.85632 0.0
O93 O 0.65119 0.58502 0.85209 0.0
O94 O 0.68409 0.70775 0.82695 0.0
O95 O 0.69493 0.70066 0.85143 0.0
O96 O 0.61633 0.64311 0.82716 0.0
O97 O 0.58829 0.58614 0.83398 0.0
O98 O 0.62793 0.59527 0.80519 0.0
O99 O 0.67857 0.64777 0.80922 0.0
C100 C 0.71321 0.61805 0.83167 0.0
O101 O 0.59021 0.52482 0.8352 0.0
O102 O 0.62026 0.52813 0.81399 0.0
C103 C 0.64678 0.6063 0.86204 0.0
C104 C 0.66618 0.73266 0.84751 0.0
C105 C 0.60742 0.74189 0.84763 0.0
C106 C 0.64011 0.76844 0.84248 0.0
C107 C 0.6691 0.76356 0.84216 0.0
C108 C 0.63503 0.70843 0.85464 0.0
C109 C 0.60593 0.71285 0.85462 0.0
C110 C 0.6904 0.7208 0.84188 0.0
C111 C 0.58755 0.61467 0.83068 0.0
H112 H 0.67133 0.46611 0.83962 0.0
H113 H 0.6612 0.51066 0.82853 0.0
H114 H 0.55043 0.44596 0.83553 0.0
H115 H 0.56049 0.40202 0.84733 0.0
H116 H 0.6428 0.79199 0.83765 0.0
H117 H 0.69282 0.78258 0.83659 0.0
H118 H 0.63193 0.68423 0.85883 0.0
H119 H 0.58158 0.69174 0.85874 0.0
C120 C 0.73166 0.20875 0.18851 0.0
C121 C 0.76301 0.23598 0.19617 0.0
C122 C 0.76799 0.23526 0.2129 0.0
C123 C 0.71257 0.18122 0.21424 0.0
C124 C 0.70683 0.1813 0.19781 0.0
C125 C 0.67235 0.14905 0.19213 0.0
H126 H 0.53097 0.99226 0.21305 0.0
C127 C 0.68303 0.14949 0.22066 0.0
C128 C 0.65904 0.12986 0.2078 0.0
H129 H 0.54807 1.03364 0.16575 0.0
H130 H 0.60194 0.08592 0.17597 0.0
H131 H 0.60934 1.0134 0.22182 0.0
H132 H 0.54649 0.06113 0.2312 0.0
H133 H 0.57363 0.07248 0.2485 0.0
H134 H 0.54339 1.0268 0.24301 0.0
H135 H 0.57436 0.99738 0.23583 0.0
H136 H 0.61841 1.0301 0.24205 0.0
C137 C 0.68002 0.12727 0.17933 0.0
C138 C 0.64781 0.16137 0.18569 0.0
C139 C 0.68358 0.13127 0.28106 0.0
C140 C 0.65984 0.1049 0.29083 0.0
C141 C 0.62991 0.0759 0.28345 0.0
C142 C 0.62343 0.07337 0.26673 0.0
C143 C 0.64697 0.10021 0.25714 0.0
C144 C 0.67649 0.12845 0.26432 0.0
C145 C 0.69835 0.15452 0.25221 0.0
C146 C 0.67678 0.13747 0.23661 0.0
C147 C 0.64689 0.10569 0.23961 0.0
C148 C 0.73437 0.15631 0.25173 0.0
C149 C 0.70003 0.18978 0.25716 0.0
C150 C 0.5464 1.01226 0.20476 0.0
C151 C 0.53544 1.00834 0.18852 0.0
C152 C 0.55597 1.03581 0.17833 0.0
C153 C 0.58726 0.06608 0.18427 0.0
C154 C 0.59794 0.06928 0.20065 0.0
C155 C 0.57696 1.04251 0.21051 0.0
C156 C 0.58999 1.05009 0.22772 0.0
C157 C 0.62283 0.08536 0.22677 0.0
C158 C 0.62821 0.09706 0.21089 0.0
C159 C 0.59831 1.02126 0.23226 0.0
C160 C 0.56203 1.05257 0.23827 0.0
H161 H 0.74915 0.20993 0.23454 0.0
H162 H 0.72704 0.20847 0.17564 0.0
H163 H 0.64722 0.18114 0.19442 0.0
H164 H 0.62058 0.13972 0.18403 0.0
H165 H 0.65686 0.17363 0.17394 0.0
H166 H 0.70102 0.12268 0.18385 0.0
H167 H 0.68885 0.14121 0.16796 0.0
H168 H 0.65699 0.10123 0.17639 0.0
H169 H 0.70673 0.154 0.28636 0.0
H170 H 0.61149 1.05495 0.29063 0.0
H171 H 0.60019 1.05054 0.26198 0.0
H172 H 0.73227 0.13124 0.25512 0.0
H173 H 0.75367 0.17747 0.26026 0.0
H174 H 0.74519 0.16009 0.23945 0.0
H175 H 0.67474 0.18518 0.26213 0.0
H176 H 0.70437 0.2063 0.24685 0.0
H177 H 0.72071 0.20504 0.26663 0.0
H178 H 0.79143 0.25583 0.21915 0.0
C179 C 0.74321 0.2084 0.22188 0.0
C180 C 0.65364 0.67599 0.52027 0.0
C181 C 0.65565 0.70671 0.52776 0.0
C182 C 0.65738 0.71084 0.54474 0.0
C183 C 0.65571 0.65536 0.54681 0.0
C184 C 0.65399 0.65063 0.53011 0.0
C185 C 0.65322 0.61657 0.52481 0.0
H186 H 0.66 0.47227 0.54892 0.0
C187 C 0.65607 0.62532 0.55381 0.0
C188 C 0.6548 0.6021 0.54107 0.0
H189 H 0.65195 0.49523 0.49958 0.0
H190 H 0.65082 0.54807 0.5092 0.0
H191 H 0.71519 0.55001 0.56194 0.0
H192 H 0.60313 0.48819 0.5619 0.0
H193 H 0.61538 0.51324 0.58035 0.0
H194 H 0.63025 0.4823 0.57602 0.0
H195 H 0.692 0.51367 0.57446 0.0
H196 H 0.70231 0.55745 0.58114 0.0
C197 C 0.68576 0.62553 0.51475 0.0
C198 C 0.61855 0.59228 0.51539 0.0
C199 C 0.66118 0.62338 0.61523 0.0
C200 C 0.66139 0.59933 0.62569 0.0
C201 C 0.66054 0.56887 0.61892 0.0
C202 C 0.65956 0.56249 0.60209 0.0
C203 C 0.65928 0.58674 0.59177 0.0
C204 C 0.65996 0.61647 0.59842 0.0
C205 C 0.659 0.63904 0.58566 0.0
C206 C 0.65758 0.61794 0.57022 0.0
C207 C 0.65793 0.5875 0.57387 0.0
C208 C 0.69344 0.67498 0.5874 0.0
C209 C 0.62503 0.64094 0.58773 0.0
C210 C 0.65849 0.48877 0.54007 0.0
C211 C 0.65673 0.47962 0.52345 0.0
C212 C 0.65353 0.50158 0.51249 0.0
C213 C 0.65302 0.53235 0.51808 0.0
C214 C 0.65532 0.54123 0.53486 0.0
C215 C 0.6576 0.51903 0.54542 0.0
C216 C 0.6585 0.53078 0.56281 0.0
C217 C 0.65717 0.56412 0.56119 0.0
C218 C 0.65543 0.57084 0.54479 0.0
C219 C 0.69362 0.53821 0.57065 0.0
C220 C 0.62534 0.50223 0.57083 0.0
H221 H 0.65865 0.69079 0.56706 0.0
H222 H 0.65245 0.67218 0.50721 0.0
H223 H 0.59614 0.59092 0.52215 0.0
H224 H 0.6134 0.56512 0.51366 0.0
H225 H 0.61856 0.60222 0.50333 0.0
H226 H 0.70971 0.64676 0.52117 0.0
H227 H 0.68353 0.63469 0.50279 0.0
H228 H 0.68994 0.60299 0.51271 0.0
H229 H 0.6614 0.64685 0.62001 0.0
H230 H 0.66106 0.55008 0.62668 0.0
H231 H 0.65916 0.53891 0.59778 0.0
H232 H 0.71528 0.67222 0.59238 0.0
H233 H 0.69042 0.6939 0.59568 0.0
H234 H 0.70292 0.68674 0.57566 0.0
H235 H 0.60338 0.61588 0.59192 0.0
H236 H 0.61482 0.64465 0.57626 0.0
H237 H 0.629 0.66218 0.5968 0.0
H238 H 0.65881 0.734 0.55076 0.0
C239 C 0.65729 0.68555 0.55422 0.0
C240 C 0.23966 0.62117 0.85387 0.0
C241 C 0.26771 0.61986 0.86155 0.0
C242 C 0.26781 0.6181 0.87845 0.0
C243 C 0.21336 0.61891 0.88006 0.0
C244 C 0.21248 0.62042 0.86343 0.0
C245 C 0.17947 0.62023 0.85783 0.0
H246 H 1.03114 0.62479 0.88098 0.0
C247 C 0.18214 0.61868 0.88678 0.0
C248 C 0.16173 0.61956 0.87389 0.0
H249 H 1.06131 0.61945 0.83178 0.0
H250 H 0.11307 0.6184 0.84162 0.0
H251 H 1.04488 0.56665 0.89248 0.0
H252 H 0.1058 0.67906 0.89559 0.0
H253 H 0.11264 0.66574 0.91418 0.0
H254 H 1.06903 0.65505 0.90809 0.0
H255 H 1.03616 0.59314 0.9068 0.0
H256 H 1.06609 0.578 0.91154 0.0
C257 C 0.15722 0.58663 0.84696 0.0
C258 C 0.19012 0.65407 0.84915 0.0
C259 C 0.16815 0.61689 0.94799 0.0
C260 C 0.14325 0.61834 0.95816 0.0
C261 C 0.11517 0.62008 0.95109 0.0
C262 C 0.11196 0.62046 0.93428 0.0
C263 C 0.1371 0.61917 0.92425 0.0
C264 C 0.16463 0.61751 0.93116 0.0
C265 C 0.1892 0.61706 0.91865 0.0
C266 C 0.17169 0.6184 0.90307 0.0
C267 C 0.1412 0.61949 0.90645 0.0
C268 C 0.18914 0.58194 0.91944 0.0
C269 C 0.22543 0.65053 0.92199 0.0
C270 C 1.04893 0.62372 0.87223 0.0
C271 C 1.04221 0.62276 0.8556 0.0
C272 C 1.06581 0.62034 0.8447 0.0
C273 C 0.09587 0.61979 0.85043 0.0
C274 C 0.10218 0.62104 0.86725 0.0
C275 C 1.07833 0.62256 0.87769 0.0
C276 C 0.08719 0.62218 0.89507 0.0
C277 C 0.12047 0.62051 0.89364 0.0
C278 C 0.13001 0.62018 0.87735 0.0
C279 C 1.05708 0.58849 0.90199 0.0
C280 C 0.09382 0.65709 0.90383 0.0
H281 H 0.24327 0.61637 0.90046 0.0
H282 H 0.23868 0.62215 0.84085 0.0
H283 H 0.20933 0.67741 0.85678 0.0
H284 H 0.16765 0.65776 0.84673 0.0
H285 H 0.2024 0.65381 0.83745 0.0
H286 H 0.15492 0.56337 0.85274 0.0
H287 H 0.16937 0.5884 0.83502 0.0
H288 H 0.1303 0.58133 0.84494 0.0
H289 H 0.19027 0.61595 0.95303 0.0
H290 H 0.09537 0.62078 0.9586 0.0
H291 H 0.08992 0.62178 0.92977 0.0
H292 H 0.16289 0.56036 0.92256 0.0
H293 H 0.20817 0.58396 0.9288 0.0
H294 H 0.19467 0.57278 0.90771 0.0
H295 H 0.22266 0.67251 0.92758 0.0
H296 H 0.23987 0.66097 0.91082 0.0
H297 H 0.24192 0.64566 0.93039 0.0
H298 H 0.28888 0.61705 0.88461 0.0
C299 C 0.24113 0.61772 0.88766 0.0
C300 C 0.92436 0.54787 0.45627 0.0
C301 C 0.89474 0.52837 0.44605 0.0
C302 C 0.89885 0.52772 0.42916 0.0
C303 C 0.96181 0.5639 0.43305 0.0
C304 C 0.95744 0.5649 0.44958 0.0
C305 C 0.99156 0.58286 0.45901 0.0
H306 H 0.16776 0.6683 0.4597 0.0
C307 C 0.99983 0.58215 0.43023 0.0
C308 C 1.01726 0.59313 0.44543 0.0
H309 H 0.10003 0.63794 0.50077 0.0
H310 H 1.0494 0.612 0.48271 0.0
H311 H 0.12145 0.59353 0.43842 0.0
H312 H 0.12818 0.69433 0.43954 0.0
H313 H 0.11968 0.67835 0.41922 0.0
H314 H 0.15955 0.68639 0.42925 0.0
H315 H 0.15883 0.63247 0.43194 0.0
H316 H 0.12245 0.60492 0.4183 0.0
C317 C 0.9932 0.55575 0.4697 0.0
C318 C 0.99436 0.61536 0.46857 0.0
C319 C 1.04517 0.59369 0.37292 0.0
C320 C 1.07911 0.61097 0.36682 0.0
C321 C 0.108 0.62903 0.37768 0.0
C322 C 0.1033 0.62956 0.39439 0.0
C323 C 1.06931 0.612 0.40036 0.0
C324 C 1.04088 0.5949 0.3897 0.0
C325 C 1.00669 0.57908 0.39831 0.0
C326 C 1.0194 0.58926 0.41588 0.0
C327 C 1.0561 0.60806 0.41696 0.0
C328 C 0.9874 0.53883 0.3947 0.0
C329 C 0.98618 0.59697 0.39287 0.0
C330 C 0.14207 0.65542 0.46487 0.0
C331 C 0.13802 0.65502 0.48175 0.0
C332 C 0.10397 0.63886 0.48785 0.0
C333 C 1.07457 0.62369 0.47732 0.0
C334 C 1.07919 0.62448 0.46048 0.0
C335 C 0.11252 0.63993 0.45455 0.0
C336 C 0.11257 0.63815 0.43635 0.0
C337 C 1.07364 0.61884 0.43232 0.0
C338 C 1.05429 0.61114 0.44648 0.0
C339 C 0.12988 0.61636 0.43082 0.0
C340 C 0.13111 0.67615 0.43068 0.0
H341 H 0.93384 0.54374 0.40967 0.0
H342 H 0.92212 0.5478 0.46931 0.0
H343 H 0.98478 0.62913 0.46099 0.0
H344 H 1.02149 0.63523 0.47219 0.0
H345 H 0.97832 0.60761 0.47957 0.0
H346 H 0.97717 0.52853 0.46427 0.0
H347 H 0.98324 0.55648 0.48197 0.0
H348 H 1.01983 0.55956 0.47087 0.0
H349 H 1.0225 0.58002 0.3648 0.0
H350 H 0.13435 0.6424 0.37321 0.0
H351 H 0.12637 0.64358 0.40201 0.0
H352 H 1.00625 0.52903 0.39426 0.0
H353 H 0.97305 0.5314 0.38283 0.0
H354 H 0.96899 0.52425 0.40417 0.0
H355 H 1.00419 0.62543 0.39147 0.0
H356 H 0.96709 0.59583 0.40179 0.0
H357 H 0.97237 0.58513 0.38103 0.0
H358 H 0.87631 0.51242 0.42111 0.0
C359 C 0.93225 0.54567 0.42259 0.0
C360 C 0.46118 0.9111 0.78777 0.0
C361 C 0.45119 0.87954 0.77873 0.0
C362 C 0.45254 0.87963 0.76171 0.0
C363 C 0.47947 0.94319 0.76338 0.0
C364 C 0.47589 0.94245 0.77998 0.0
C365 C 0.49374 0.97835 0.78838 0.0
H366 H 0.60109 0.15241 0.78518 0.0
C367 C 0.50036 0.98049 0.75947 0.0
C368 C 0.50886 1.00099 0.77414 0.0
H369 H 0.55471 0.09364 0.82736 0.0
H370 H 0.52433 1.04026 0.81042 0.0
H371 H 0.61701 0.09495 0.76637 0.0
H372 H 0.53337 0.11786 0.76426 0.0
H373 H 0.53516 0.10173 0.74464 0.0
H374 H 0.57234 0.14167 0.75307 0.0
H375 H 0.62129 0.13451 0.75905 0.0
H376 H 0.60702 0.0958 0.74587 0.0
C377 C 0.52267 0.98115 0.80008 0.0
C378 C 0.46547 0.98423 0.79668 0.0
C379 C 0.53589 1.01409 0.70154 0.0
C380 C 0.5561 1.04676 0.69473 0.0
C381 C 0.56872 0.0777 0.7048 0.0
C382 C 0.56251 0.07626 0.72139 0.0
C383 C 0.54344 1.04354 0.7281 0.0
C384 C 0.52976 1.01313 0.71821 0.0
C385 C 0.50952 0.98082 0.72761 0.0
C386 C 0.51336 0.99702 0.74471 0.0
C387 C 0.53383 1.03375 0.74488 0.0
C388 C 0.52779 0.95865 0.72591 0.0
C389 C 0.47105 0.96145 0.72133 0.0
C390 C 0.58438 0.12804 0.79078 0.0
C391 C 0.58055 0.12724 0.80767 0.0
C392 C 0.55866 0.09491 0.81443 0.0
C393 C 0.54075 0.06397 0.80454 0.0
C394 C 0.54488 0.06525 0.78768 0.0
C395 C 0.56623 0.09696 0.78108 0.0
C396 C 0.56685 0.09352 0.76292 0.0
C397 C 0.5429 1.05427 0.75974 0.0
C398 C 0.53029 1.03794 0.77427 0.0
C399 C 0.60498 0.10544 0.75816 0.0
C400 C 0.5514 0.1149 0.75574 0.0
H401 H 0.46815 0.91011 0.74102 0.0
H402 H 0.46041 0.91177 0.80087 0.0
H403 H 0.44119 0.97257 0.78897 0.0
H404 H 0.47348 1.01226 0.79862 0.0
H405 H 0.45843 0.97177 0.80847 0.0
H406 H 0.53284 0.96372 0.79569 0.0
H407 H 0.51253 0.97348 0.81238 0.0
H408 H 0.54608 1.00757 0.80105 0.0
H409 H 0.52581 0.98979 0.69417 0.0
H410 H 0.58349 0.10322 0.69985 0.0
H411 H 0.57319 0.10076 0.72836 0.0
H412 H 0.5567 0.97585 0.72581 0.0
H413 H 0.51946 0.94192 0.71446 0.0
H414 H 0.52308 0.94193 0.73616 0.0
H415 H 0.46215 0.9805 0.71915 0.0
H416 H 0.45277 0.94369 0.7301 0.0
H417 H 0.46801 0.94619 0.70973 0.0
H418 H 0.44507 0.85556 0.75452 0.0
C419 C 0.46646 0.91138 0.75396 0.0
C420 C 0.617 0.36502 0.10326 0.0
C421 C 0.64894 0.37368 0.09605 0.0
C422 C 0.65383 0.38389 0.07993 0.0
C423 C 0.59931 0.38461 0.08009 0.0
C424 C 0.59323 0.37178 0.09536 0.0
C425 C 0.56285 0.37258 0.10312 0.0
H426 H 0.4551 0.43887 0.10549 0.0
C427 C 0.57322 0.39525 0.07659 0.0
C428 C 0.55197 0.38845 0.0901 0.0
H429 H 0.47473 0.38397 0.1422 0.0
H430 H 0.50843 0.37001 0.12349 0.0
H431 H 0.53301 0.4805 0.09317 0.0
H432 H 0.44363 0.38318 0.07567 0.0
H433 H 0.46789 0.40271 0.0586 0.0
H434 H 0.44934 0.42469 0.0705 0.0
H435 H 0.4942 0.47723 0.08442 0.0
H436 H 0.52899 0.48072 0.072 0.0
C437 C 0.57643 0.39671 0.11896 0.0
C438 C 0.53414 0.3343 0.10563 0.0
C439 C 0.5806 0.45651 0.02513 0.0
C440 C 0.56152 0.47144 0.0191 0.0
C441 C 0.53333 0.46928 0.02803 0.0
C442 C 0.52475 0.45319 0.04282 0.0
C443 C 0.54468 0.43929 0.04886 0.0
C444 C 0.57165 0.44048 0.03991 0.0
C445 C 0.58986 0.42421 0.04821 0.0
C446 C 0.56892 0.41245 0.06348 0.0
C447 C 0.54293 0.42197 0.06392 0.0
C448 C 0.62841 0.45316 0.05192 0.0
C449 C 0.58557 0.39261 0.03729 0.0
C450 C 0.46673 0.42388 0.10949 0.0
C451 C 0.46285 0.41315 0.12546 0.0
C452 C 0.47734 0.39262 0.13001 0.0
C453 C 0.49719 0.38481 0.11916 0.0
C454 C 0.50312 0.3981 0.10369 0.0
C455 C 0.48703 0.41623 0.09887 0.0
C456 C 0.49628 0.42823 0.08194 0.0
C457 C 0.52202 0.41584 0.07776 0.0
C458 C 0.52608 0.39853 0.09062 0.0
C459 C 0.51391 0.46877 0.08278 0.0
C460 C 0.46265 0.40902 0.07105 0.0
H461 H 0.63497 0.39846 0.05992 0.0
H462 H 0.61213 0.35665 0.11554 0.0
H463 H 0.53216 0.31662 0.09507 0.0
H464 H 0.50779 0.33121 0.1066 0.0
H465 H 0.54012 0.32446 0.11657 0.0
H466 H 0.60483 0.41619 0.11854 0.0
H467 H 0.5726 0.38122 0.12971 0.0
H468 H 0.56416 0.41305 0.12104 0.0
H469 H 0.60264 0.45798 0.0187 0.0
H470 H 0.51775 0.47992 0.02354 0.0
H471 H 0.50319 0.45259 0.04908 0.0
H472 H 0.63099 0.47959 0.0535 0.0
H473 H 0.64564 0.45402 0.04194 0.0
H474 H 0.6389 0.45 0.06343 0.0
H475 H 0.55854 0.37729 0.032 0.0
H476 H 0.58952 0.37379 0.04399 0.0
H477 H 0.60393 0.40154 0.02712 0.0
H478 H 0.67813 0.3908 0.07399 0.0
C479 C 0.62898 0.38902 0.07186 0.0
H480 H 0.26735 0.50463 0.20206 0.0
H481 H 0.30328 0.47705 0.20322 0.0
H482 H 0.38557 0.56326 0.17909 0.0
H483 H 0.35047 0.59171 0.17856 0.0
H484 H 0.31602 0.45603 0.17497 0.0
H485 H 0.4427 0.53823 0.20712 0.0
H486 H 0.40582 0.54472 0.21048 0.0
H487 H 0.43438 0.56424 0.19387 0.0
C488 C 0.29378 0.51862 0.19775 0.0
C489 C 0.30588 0.5501 0.18995 0.0
C490 C 0.31425 0.50269 0.19836 0.0
C491 C 0.3471 0.51799 0.19123 0.0
C492 C 0.36059 0.55115 0.18493 0.0
H493 H 0.47045 0.47834 0.12935 0.0
H494 H 0.44232 0.49894 0.14888 0.0
C495 C 0.34026 0.5672 0.18442 0.0
C496 C 0.3635 0.49652 0.18695 0.0
H497 H 0.44308 0.50215 0.18343 0.0
C498 C 0.34357 0.46546 0.17727 0.0
C499 C 0.39941 0.50885 0.18993 0.0
C500 C 0.42164 0.54067 0.20107 0.0
C501 C 0.35921 0.44827 0.16924 0.0
C502 C 0.39566 0.46224 0.17118 0.0
C503 C 0.41514 0.49167 0.18188 0.0
C504 C 0.41452 0.44979 0.16047 0.0
C505 C 0.33709 0.41702 0.1577 0.0
C506 C 0.40837 0.41535 0.16063 0.0
C507 C 0.42395 0.40323 0.14924 0.0
C508 C 0.44602 0.42548 0.13761 0.0
C509 C 0.45287 0.46026 0.13787 0.0
C510 C 0.43725 0.47226 0.14918 0.0
H511 H 0.31028 0.41271 0.15587 0.0
H512 H 0.34949 0.42046 0.14574 0.0
H513 H 0.33484 0.39306 0.16262 0.0
H514 H 0.39112 0.39773 0.16937 0.0
H515 H 0.41821 0.37632 0.14937 0.0
H516 H 0.83597 0.31822 0.51809 0.0
H517 H 0.83448 0.37082 0.5121 0.0
H518 H 0.72273 0.3165 0.51771 0.0
H519 H 0.72376 0.26305 0.52299 0.0
H520 H 0.7377 0.34304 0.48942 0.0
H521 H 0.82428 0.44808 0.53344 0.0
H522 H 0.847 0.4258 0.52675 0.0
H523 H 0.80659 0.40239 0.53734 0.0
C524 C 0.81113 0.31757 0.51837 0.0
C525 C 0.77996 0.28618 0.52069 0.0
C526 C 0.81034 0.34792 0.5152 0.0
C527 C 0.77846 0.34777 0.51457 0.0
C528 C 0.7476 0.31727 0.5182 0.0
H529 H 0.86084 0.54373 0.47003 0.0
H530 H 0.81609 0.5014 0.48726 0.0
C531 C 0.74834 0.28676 0.5213 0.0
C532 C 0.77732 0.37724 0.50731 0.0
H533 H 0.82992 0.46512 0.50474 0.0
C534 C 0.75699 0.36994 0.49306 0.0
C535 C 0.80119 0.41249 0.5123 0.0
C536 C 0.82061 0.42253 0.52843 0.0
C537 C 0.76389 0.39639 0.48249 0.0
C538 C 0.79233 0.43059 0.48613 0.0
C539 C 0.80879 0.43875 0.50155 0.0
C540 C 0.81018 0.45564 0.47335 0.0
C541 C 0.74216 0.38684 0.46706 0.0
C542 C 0.82044 0.44414 0.45929 0.0
C543 C 0.84534 0.46823 0.4493 0.0
C544 C 0.86116 0.5043 0.45338 0.0
C545 C 0.84894 0.51597 0.46665 0.0
C546 C 0.82346 0.4918 0.4765 0.0
H547 H 0.71436 0.36802 0.46933 0.0
H548 H 0.7439 0.41024 0.46173 0.0
H549 H 0.75112 0.37351 0.45814 0.0
H550 H 0.81177 0.41662 0.45678 0.0
H551 H 0.85471 0.45853 0.43932 0.0
H552 H 0.59402 0.7686 0.82128 0.0
H553 H 0.54024 0.76583 0.81327 0.0
H554 H 0.48938 0.70701 0.85472 0.0
H555 H 0.54474 0.71293 0.86393 0.0
H556 H 0.47746 0.71133 0.80465 0.0
H557 H 0.46324 0.78108 0.85987 0.0
H558 H 0.50275 0.77927 0.85694 0.0
H559 H 0.46297 0.74053 0.86174 0.0
C560 C 0.57203 0.75616 0.82914 0.0
C561 C 0.57444 0.74179 0.84352 0.0
C562 C 0.54077 0.75378 0.82427 0.0
C563 C 0.5106 0.73627 0.83338 0.0
C564 C 0.5124 0.72124 0.84762 0.0
H565 H 0.39845 0.81007 0.77475 0.0
H566 H 0.39347 0.76044 0.78943 0.0
C567 C 0.54415 0.72442 0.85278 0.0
C568 C 0.4786 0.73629 0.82789 0.0
H569 H 0.43868 0.78434 0.8357 0.0
C570 C 0.46803 0.72644 0.81153 0.0
C571 C 0.46496 0.75449 0.83709 0.0
C572 C 0.47394 0.76457 0.85488 0.0
C573 C 0.45015 0.74021 0.80341 0.0
C574 C 0.44187 0.76349 0.81208 0.0
C575 C 0.44603 0.76724 0.82904 0.0
C576 C 0.44102 0.7922 0.8039 0.0
C577 C 0.44445 0.73348 0.7853 0.0
C578 C 0.46894 0.82634 0.80729 0.0
C579 C 0.47155 0.85424 0.79918 0.0
C580 C 0.44634 0.8489 0.78737 0.0
C581 C 0.41818 0.81478 0.78385 0.0
C582 C 0.41535 0.78653 0.7922 0.0
H583 H 0.45241 0.7146 0.78045 0.0
H584 H 0.41638 0.72269 0.78214 0.0
H585 H 0.45966 0.75846 0.77924 0.0
H586 H 0.48948 0.83138 0.81601 0.0
H587 H 0.49398 0.88005 0.80191 0.0
H588 H 0.90993 0.60136 0.16 0.0
H589 H 0.8547 0.54981 0.15083 0.0
H590 H 0.89648 0.48275 0.16125 0.0
H591 H 0.95144 0.53406 0.17069 0.0
H592 H 0.85309 0.5086 0.12457 0.0
H593 H 0.79787 0.42741 0.17763 0.0
H594 H 0.83197 0.47285 0.17971 0.0
H595 H 0.84221 0.43956 0.17318 0.0
C596 C 0.9071 0.57559 0.16066 0.0
C597 C 0.93526 0.57184 0.16583 0.0
C598 C 0.87555 0.54616 0.15544 0.0
C599 C 0.87158 0.51248 0.1553 0.0
C600 C 0.89879 0.50841 0.16144 0.0
H601 H 0.70302 0.36165 0.08805 0.0
H602 H 0.75922 0.38602 0.10288 0.0
C603 C 0.93025 0.53784 0.1668 0.0
C604 C 0.84066 0.48258 0.14693 0.0
H605 H 0.76732 0.40404 0.15252 0.0
C606 C 0.83444 0.48557 0.13064 0.0
C607 C 0.81683 0.45235 0.15483 0.0
C608 C 0.8223 0.44779 0.17234 0.0
C609 C 0.80398 0.46025 0.12226 0.0
C610 C 0.77938 0.43062 0.13031 0.0
C611 C 0.78646 0.42662 0.14636 0.0
C612 C 0.74381 0.40761 0.12326 0.0
C613 C 0.79736 0.46669 0.1052 0.0
C614 C 0.71606 0.40974 0.1303 0.0
C615 C 0.68421 0.39607 0.12192 0.0
C616 C 0.67932 0.37971 0.1063 0.0
C617 C 0.70613 0.37461 0.09992 0.0
C618 C 0.73817 0.3884 0.10839 0.0
H619 H 0.81685 0.49336 0.10165 0.0
H620 H 0.79876 0.44729 0.0966 0.0
H621 H 0.77087 0.46351 0.10394 0.0
H622 H 0.7199 0.42456 0.14174 0.0
H623 H 0.66458 0.40109 0.12721 0.0
H624 H 0.42655 0.86506 0.48486 0.0
H625 H 0.37289 0.81301 0.4924 0.0
H626 H 0.37533 0.86542 0.53829 0.0
H627 H 0.42911 0.91784 0.53079 0.0
H628 H 0.35155 0.7701 0.52331 0.0
H629 H 0.28493 0.84601 0.51056 0.0
H630 H 0.32772 0.85881 0.50292 0.0
H631 H 0.3226 0.86504 0.52413 0.0
C632 C 0.41594 0.86527 0.49666 0.0
C633 C 0.43163 0.89555 0.50716 0.0
C634 C 0.38556 0.83548 0.50101 0.0
C635 C 0.37028 0.83558 0.51586 0.0
C636 C 0.38693 0.86496 0.5268 0.0
H637 H 0.14658 0.69482 0.50984 0.0
H638 H 0.20124 0.73335 0.5249 0.0
C639 C 0.41756 0.89478 0.5225 0.0
C640 C 0.33456 0.80691 0.51856 0.0
H641 H 0.2501 0.78548 0.51157 0.0
C642 C 0.32918 0.77343 0.52117 0.0
C643 C 0.30558 0.81158 0.516 0.0
C644 C 0.31017 0.8472 0.5132 0.0
C645 C 0.29542 0.74395 0.52022 0.0
C646 C 0.26672 0.74814 0.51599 0.0
C647 C 0.272 0.78211 0.51475 0.0
C648 C 0.23254 0.71825 0.51007 0.0
C649 C 0.2911 0.70859 0.52326 0.0
C650 C 0.23158 0.69581 0.49714 0.0
C651 C 0.20027 0.67326 0.48871 0.0
C652 C 0.16936 0.67331 0.49276 0.0
C653 C 0.16983 0.69397 0.50642 0.0
C654 C 0.20114 0.71616 0.51502 0.0
H655 H 0.3099 0.71113 0.53287 0.0
H656 H 0.26417 0.68982 0.52692 0.0
H657 H 0.29695 0.6977 0.51206 0.0
H658 H 0.25542 0.69739 0.49276 0.0
H659 H 0.20068 0.65711 0.47848 0.0
H660 H 0.67048 0.43608 0.86353 0.0
H661 H 0.68214 0.38879 0.86956 0.0
H662 H 0.58732 0.31392 0.84332 0.0
H663 H 0.57585 0.36041 0.83708 0.0
H664 H 0.60064 0.29004 0.87305 0.0
H665 H 0.71424 0.34562 0.83215 0.0
H666 H 0.71254 0.37167 0.84928 0.0
H667 H 0.68357 0.36136 0.8321 0.0
C668 C 0.65204 0.40944 0.85917 0.0
C669 C 0.62229 0.40203 0.84975 0.0
C670 C 0.65866 0.38252 0.86271 0.0
C671 C 0.63561 0.34796 0.85686 0.0
C672 C 0.60522 0.3404 0.84812 0.0
H673 H 0.5867 0.18979 0.80107 0.0
H674 H 0.6121 0.24363 0.81824 0.0
C675 C 0.59866 0.36708 0.84457 0.0
C676 C 0.64401 0.3196 0.85781 0.0
H677 H 0.68311 0.28466 0.83388 0.0
C678 C 0.61972 0.28903 0.8651 0.0
C679 C 0.66926 0.31865 0.84759 0.0
C680 C 0.69651 0.35098 0.83979 0.0
C681 C 0.61655 0.25649 0.86045 0.0
C682 C 0.63844 0.25493 0.84837 0.0
C683 C 0.66619 0.28613 0.84303 0.0
C684 C 0.6267 0.22264 0.83793 0.0
C685 C 0.58697 0.22362 0.86687 0.0
C686 C 0.62675 0.19305 0.84331 0.0
C687 C 0.61228 0.162 0.8334 0.0
C688 C 0.59763 0.1603 0.81802 0.0
C689 C 0.59832 0.19033 0.81267 0.0
C690 C 0.61277 0.22113 0.8225 0.0
H691 H 0.57306 0.22949 0.87665 0.0
H692 H 0.56786 0.20784 0.85688 0.0
H693 H 0.59723 0.20738 0.87168 0.0
H694 H 0.63749 0.19384 0.85518 0.0
H695 H 0.61243 0.13935 0.83777 0.0
H696 H 0.70455 1.0137 0.50551 0.0
H697 H 0.70442 0.95866 0.5081 0.0
H698 H 0.59772 0.90067 0.48999 0.0
H699 H 0.59777 0.95572 0.48712 0.0
H700 H 0.66471 0.90478 0.52677 0.0
H701 H 0.64054 0.85391 0.46259 0.0
H702 H 0.65269 0.89862 0.46856 0.0
H703 H 0.60832 0.86384 0.47039 0.0
C704 C 0.68108 0.98934 0.50191 0.0
C705 C 0.65123 0.98951 0.49601 0.0
C706 C 0.68104 0.9577 0.50343 0.0
C707 C 0.65126 0.92517 0.49903 0.0
C708 C 0.6214 0.92521 0.49311 0.0
H709 H 0.60236 0.70737 0.51091 0.0
H710 H 0.60084 0.75967 0.50287 0.0
C711 C 0.62141 0.95689 0.49157 0.0
C712 C 0.65116 0.89146 0.50141 0.0
H713 H 0.63884 0.81519 0.48196 0.0
C714 C 0.6592 0.88535 0.51692 0.0
C715 C 0.6437 0.86563 0.48866 0.0
C716 C 0.63613 0.87085 0.47158 0.0
C717 C 0.65975 0.85447 0.52004 0.0
C718 C 0.65282 0.82887 0.50726 0.0
C719 C 0.64431 0.83467 0.49178 0.0
C720 C 0.6548 0.79636 0.50987 0.0
C721 C 0.66711 0.84926 0.53718 0.0
C722 C 0.68598 0.79904 0.51572 0.0
C723 C 0.68688 0.76922 0.5202 0.0
C724 C 0.65679 0.73574 0.51871 0.0
C725 C 0.62615 0.73265 0.51187 0.0
C726 C 0.62521 0.76264 0.50742 0.0
H727 H 0.66207 0.86582 0.54613 0.0
H728 H 0.65086 0.8214 0.54012 0.0
H729 H 0.69503 0.8568 0.53854 0.0
H730 H 0.70941 0.82448 0.51744 0.0
H731 H 0.71072 0.77255 0.52565 0.0
H732 H 0.77548 0.66839 0.84636 0.0
H733 H 0.83063 0.66809 0.84852 0.0
H734 H 0.78425 0.56831 0.82138 0.0
H735 H 0.72885 0.56826 0.8192 0.0
H736 H 0.84184 0.61599 0.86269 0.0
H737 H 0.87726 0.62878 0.79794 0.0
H738 H 0.84566 0.63966 0.8061 0.0
H739 H 0.83383 0.5946 0.80215 0.0
C740 C 0.77692 0.64641 0.84072 0.0
C741 C 0.74742 0.6184 0.83253 0.0
C742 C 0.80862 0.64628 0.84201 0.0
C743 C 0.81202 0.61841 0.83496 0.0
C744 C 0.7827 0.59046 0.82671 0.0
H745 H 0.99057 0.57963 0.83283 0.0
H746 H 0.93474 0.57764 0.82738 0.0
C747 C 0.75085 0.5904 0.82554 0.0
C748 C 0.84576 0.61813 0.83683 0.0
H749 H 0.91415 0.621 0.81585 0.0
C750 C 0.85764 0.61715 0.85243 0.0
C751 C 0.86638 0.61918 0.82348 0.0
C752 C 0.85543 0.62087 0.80645 0.0
C753 C 0.88917 0.61702 0.85505 0.0
C754 C 0.91045 0.61917 0.84176 0.0
C755 C 0.89825 0.61958 0.8261 0.0
C756 C 0.94559 0.62175 0.844 0.0
C757 C 0.8988 0.61367 0.8721 0.0
C758 C 0.97122 0.64799 0.85462 0.0
C759 C 1.00293 0.649 0.85779 0.0
C760 C 1.01045 0.62421 0.85022 0.0
C761 C 0.98577 0.59919 0.83884 0.0
C762 C 0.9537 0.59796 0.83578 0.0
H763 H 0.87532 0.60078 0.87965 0.0
H764 H 0.91248 0.59832 0.87222 0.0
H765 H 0.91638 0.64022 0.87781 0.0
H766 H 0.96652 0.66754 0.86071 0.0
H767 H 1.02147 0.66897 0.86644 0.0
H768 H 0.26865 0.69459 0.17062 0.0
H769 H 0.324 0.75019 0.17292 0.0
H770 H 0.26852 0.80647 0.16719 0.0
H771 H 0.21299 0.75104 0.16552 0.0
H772 H 0.35851 0.80011 0.15335 0.0
H773 H 0.3265 0.86079 0.20596 0.0
H774 H 0.29898 0.81534 0.1993 0.0
H775 H 0.29609 0.84919 0.1893 0.0
C776 C 0.2681 0.71877 0.16996 0.0
C777 C 0.23602 0.71805 0.16803 0.0
C778 C 0.29996 0.75074 0.17125 0.0
C779 C 0.30087 0.78306 0.1706 0.0
C780 C 0.26889 0.78231 0.16831 0.0
H781 H 0.47766 1.0019 0.17233 0.0
H782 H 0.42086 0.94802 0.16671 0.0
C783 C 0.23696 0.75037 0.16722 0.0
C784 C 0.33523 0.81719 0.17197 0.0
H785 H 0.37872 0.89797 0.19252 0.0
C786 C 0.36278 0.82136 0.16198 0.0
C787 C 0.34139 0.84536 0.18321 0.0
C788 C 0.31431 0.84238 0.19516 0.0
C789 C 0.3957 0.85248 0.16284 0.0
C790 C 0.40165 0.88056 0.17396 0.0
C791 C 0.37416 0.87669 0.18384 0.0
C792 C 0.4368 0.91321 0.17623 0.0
C793 C 0.42402 0.85522 0.15177 0.0
C794 C 0.46491 0.91178 0.18332 0.0
C795 C 0.49718 0.94247 0.18663 0.0
C796 C 0.50248 0.97555 0.18282 0.0
C797 C 0.47468 0.97689 0.17523 0.0
C798 C 0.4421 0.9461 0.17212 0.0
H799 H 0.41348 0.83461 0.1417 0.0
H800 H 0.43772 0.88138 0.14658 0.0
H801 H 0.44359 0.85221 0.15883 0.0
H802 H 0.46158 0.88694 0.18676 0.0
H803 H 0.51792 0.94042 0.19252 0.0
H804 H 0.5949 0.15848 0.50693 0.0
H805 H 0.59621 0.2148 0.50971 0.0
H806 H 0.69996 0.26674 0.49077 0.0
H807 H 0.6991 0.21081 0.48817 0.0
H808 H 0.64076 0.27471 0.52816 0.0
H809 H 0.65178 0.30531 0.46358 0.0
H810 H 0.6395 0.26215 0.46991 0.0
H811 H 0.68464 0.29622 0.4707 0.0
C812 C 0.61795 0.18181 0.50324 0.0
C813 C 0.6468 0.17977 0.49724 0.0
C814 C 0.61869 0.21414 0.50487 0.0
C815 C 0.64803 0.24529 0.50029 0.0
C816 C 0.67672 0.24324 0.49415 0.0
H817 H 0.70054 0.4576 0.53463 0.0
H818 H 0.6987 0.40188 0.52841 0.0
C819 C 0.67622 0.21106 0.49274 0.0
C820 C 0.64916 0.27995 0.50261 0.0
H821 H 0.65985 0.351 0.48282 0.0
C822 C 0.64491 0.2913 0.51821 0.0
C823 C 0.65423 0.30176 0.48966 0.0
C824 C 0.65748 0.29069 0.47249 0.0
C825 C 0.64622 0.32376 0.52127 0.0
C826 C 0.65239 0.34612 0.50843 0.0
C827 C 0.65577 0.33439 0.49274 0.0
C828 C 0.65533 0.38157 0.51111 0.0
C829 C 0.64022 0.33341 0.53827 0.0
C830 C 0.63295 0.39008 0.50283 0.0
C831 C 0.63423 0.42242 0.50624 0.0
C832 C 0.65793 0.44706 0.51806 0.0
C833 C 0.68141 0.43908 0.52571 0.0
C834 C 0.68028 0.40701 0.52222 0.0
H835 H 0.62591 0.30988 0.54543 0.0
H836 H 0.66586 0.35093 0.54451 0.0
H837 H 0.62517 0.34741 0.53821 0.0
H838 H 0.61366 0.37123 0.49407 0.0
H839 H 0.61572 0.42751 0.50011 0.0
H840 H 0.57536 0.66733 0.8222 0.0
H841 H 0.52184 0.67047 0.82505 0.0
H842 H 0.46976 0.56753 0.84369 0.0
H843 H 0.52328 0.56426 0.841 0.0
H844 H 0.45664 0.63505 0.81316 0.0
H845 H 0.45084 0.62051 0.87914 0.0
H846 H 0.48855 0.62794 0.86776 0.0
H847 H 0.45135 0.58436 0.86843 0.0
C848 C 0.55256 0.64527 0.82695 0.0
C849 C 0.55404 0.61565 0.83156 0.0
C850 C 0.52184 0.6472 0.8286 0.0
C851 C 0.49173 0.61981 0.83512 0.0
C852 C 0.49277 0.58965 0.83915 0.0
H853 H 0.28021 0.56561 0.85782 0.0
H854 H 0.33477 0.56786 0.84995 0.0
C855 C 0.52345 0.58764 0.83746 0.0
C856 C 0.45943 0.62269 0.83775 0.0
H857 H 0.39907 0.61293 0.86615 0.0
C858 C 0.44424 0.63046 0.82479 0.0
C859 C 0.44328 0.6175 0.85299 0.0
C860 C 0.45955 0.61253 0.86791 0.0
C861 C 0.4127 0.63125 0.82643 0.0
C862 C 0.39571 0.62422 0.84146 0.0
C863 C 0.41156 0.61771 0.85453 0.0
C864 C 0.36096 0.62218 0.84392 0.0
C865 C 0.39692 0.63808 0.8119 0.0
C866 C 0.35675 0.65169 0.84282 0.0
C867 C 0.32513 0.65024 0.84715 0.0
C868 C 0.29709 0.6193 0.85273 0.0
C869 C 0.30097 0.58956 0.85323 0.0
C870 C 0.33237 0.59096 0.84887 0.0
H871 H 0.41082 0.6386 0.80062 0.0
H872 H 0.36893 0.61765 0.81022 0.0
H873 H 0.39819 0.66377 0.8139 0.0
H874 H 0.37848 0.67639 0.83942 0.0
H875 H 0.32338 0.67388 0.84712 0.0
H876 H 1.01182 0.54285 0.1528 0.0
H877 H 0.95627 0.48797 0.15545 0.0
H878 H 1.01097 0.44345 0.17868 0.0
H879 H 1.06628 0.49757 0.17596 0.0
H880 H 0.92812 0.42014 0.14552 0.0
H881 H 0.94051 0.429 0.21223 0.0
H882 H 0.96927 0.46473 0.20019 0.0
H883 H 0.97736 0.42912 0.20307 0.0
C884 C 1.0121 0.52138 0.15848 0.0
C885 C 1.04385 0.52511 0.16432 0.0
C886 C 0.98014 0.48997 0.16005 0.0
C887 C 0.97887 0.46174 0.16785 0.0
C888 C 1.0107 0.46503 0.17313 0.0
H889 H 0.83131 0.25346 0.19533 0.0
H890 H 0.88108 0.30786 0.18692 0.0
C891 C 1.04259 0.49615 0.17145 0.0
C892 C 0.94457 0.42904 0.17064 0.0
H893 H 0.89746 0.3736 0.20005 0.0
C894 C 0.92132 0.41017 0.15748 0.0
C895 C 0.93497 0.41594 0.18626 0.0
C896 C 0.95665 0.43596 0.20126 0.0
C897 C 0.89002 0.37802 0.15938 0.0
C898 C 0.8814 0.3642 0.17489 0.0
C899 C 0.90407 0.38368 0.18809 0.0
C900 C 0.85004 0.32905 0.17781 0.0
C901 C 0.867 0.3585 0.14469 0.0
C902 C 0.81546 0.32186 0.17513 0.0
C903 C 0.78663 0.29027 0.17987 0.0
C904 C 0.7918 0.26531 0.18748 0.0
C905 C 0.82631 0.27196 0.18942 0.0
C906 C 0.8549 0.30326 0.18469 0.0
H907 H 0.88068 0.36861 0.13324 0.0
H908 H 0.85797 0.33004 0.14473 0.0
H909 H 0.84358 0.36162 0.14491 0.0
H910 H 0.81076 0.34137 0.1701 0.0
H911 H 0.7605 0.28634 0.17849 0.0
H912 H 0.14999 0.57204 0.11197 0.0
H913 H 0.1537 0.57133 0.08242 0.0
H914 H 0.14415 0.66401 0.08234 0.0
H915 H 0.14115 0.66537 0.1118 0.0
H916 H 0.10679 0.5654 0.05933 0.0
H917 H 0.22953 0.69222 0.05535 0.0
H918 H 0.21517 0.67083 0.07412 0.0
H919 H 0.19716 0.69643 0.06681 0.0
C920 C 0.14885 0.59238 0.10567 0.0
C921 C 0.1455 0.6189 0.11429 0.0
C922 C 0.15098 0.59193 0.08878 0.0
C923 C 0.1499 0.61801 0.08017 0.0
C924 C 0.146 0.64416 0.08873 0.0
H925 H 0.13379 0.65944 0.98118 0.0
H926 H 0.13654 0.65786 0.01064 0.0
C927 C 0.14405 0.64475 0.1056 0.0
C928 C 0.15169 0.61733 0.06221 0.0
H929 H 0.19542 0.66737 0.03079 0.0
C930 C 0.12642 0.58752 0.05309 0.0
C931 C 0.17741 0.64616 0.05405 0.0
C932 C 0.20657 0.67806 0.06308 0.0
C933 C 0.12538 0.58632 0.03607 0.0
C934 C 0.15045 0.61556 0.02797 0.0
C935 C 0.17614 0.64506 0.03705 0.0
C936 C 0.14957 0.6166 0.01009 0.0
C937 C 0.0968 0.55427 0.02687 0.0
C938 C 0.1565 0.59426 2e-05 0.0
C939 C 0.15498 0.59512 0.98315 0.0
C940 C 0.14635 0.61825 0.97607 0.0
C941 C 0.13999 0.64096 0.98624 0.0
C942 C 0.14174 0.64023 0.00307 0.0
H943 H 1.076 0.5366 0.03494 0.0
H944 H 0.08473 0.562 0.01734 0.0
H945 H 0.10819 0.53934 0.02083 0.0
H946 H 0.163 0.57611 0.00522 0.0
H947 H 0.15986 0.5772 0.97565 0.0
H948 H 0.61329 0.08402 0.44021 0.0
H949 H 0.62167 0.09053 0.41126 0.0
H950 H 0.72653 0.10857 0.41712 0.0
H951 H 0.71814 0.10148 0.44632 0.0
H952 H 0.67013 0.14828 0.39589 0.0
H953 H 0.68607 1.03285 0.38005 0.0
H954 H 0.66936 1.03847 0.39922 0.0
H955 H 0.71537 0.06338 0.39563 0.0
C956 C 0.63816 0.08921 0.43541 0.0
C957 C 0.66505 0.09217 0.44564 0.0
C958 C 0.64289 0.09296 0.41881 0.0
C959 C 0.67459 0.09974 0.41196 0.0
C960 C 0.7016 0.10273 0.42208 0.0
H961 H 0.7205 0.12334 0.30791 0.0
H962 H 0.72861 0.12558 0.33744 0.0
C963 C 0.69683 0.09882 0.43878 0.0
C964 C 0.67903 0.10442 0.39428 0.0
H965 H 0.68876 0.0674 0.35871 0.0
C966 C 0.6745 0.13075 0.38779 0.0
C967 C 0.68489 0.08166 0.3837 0.0
C968 C 0.68896 1.0523 0.38992 0.0
C969 C 0.67471 0.13434 0.37102 0.0
C970 C 0.67927 0.1108 0.36043 0.0
C971 C 0.68526 0.08539 0.36689 0.0
C972 C 0.67501 0.11039 0.34262 0.0
C973 C 0.66954 0.16299 0.36474 0.0
C974 C 0.6422 0.10096 0.33579 0.0
C975 C 0.63749 0.09955 0.31902 0.0
C976 C 0.66552 0.10757 0.30869 0.0
C977 C 0.6985 0.11731 0.31556 0.0
C978 C 0.70313 0.11842 0.33239 0.0
H979 H 0.6756 0.18417 0.37424 0.0
H980 H 0.68624 0.17464 0.3542 0.0
H981 H 0.64183 0.15171 0.36071 0.0
H982 H 0.62007 0.0943 0.34345 0.0
H983 H 0.61186 0.09228 0.31413 0.0
H984 H 0.70303 0.6771 0.78204 0.0
H985 H 0.70613 0.67962 0.75244 0.0
H986 H 0.61549 0.57609 0.74703 0.0
H987 H 0.61177 0.57357 0.77629 0.0
H988 H 0.71456 0.63674 0.72963 0.0
H989 H 0.58796 0.6301 0.71824 0.0
H990 H 0.60809 0.6394 0.73821 0.0
H991 H 0.5831 0.59484 0.72989 0.0
C992 C 0.68362 0.655 0.77453 0.0
C993 C 0.65698 0.62527 0.78158 0.0
C994 C 0.68545 0.65647 0.75762 0.0
C995 C 0.66059 0.62834 0.7475 0.0
C996 C 0.63437 0.59853 0.75455 0.0
H997 H 0.62298 0.55231 0.64807 0.0
H998 H 0.62486 0.5626 0.67752 0.0
C999 C 0.63244 0.59707 0.77135 0.0
C1000 C 0.66248 0.62918 0.72957 0.0
H1001 H 0.61315 0.616 0.69533 0.0
C1002 C 0.69263 0.63278 0.72212 0.0
C1003 C 0.63386 0.6241 0.71976 0.0
C1004 C 0.60158 0.62226 0.72694 0.0
C1005 C 0.69426 0.62978 0.70517 0.0
C1006 C 0.66508 0.62325 0.69544 0.0
C1007 C 0.63538 0.62073 0.70284 0.0
C1008 C 0.6643 0.61749 0.67758 0.0
C1009 C 0.7266 0.63223 0.69777 0.0
C1010 C 0.68563 0.64506 0.66785 0.0
C1011 C 0.68457 0.63927 0.651 0.0
C1012 C 0.66226 0.60575 0.64358 0.0
C1013 C 0.64079 0.57829 0.6534 0.0
C1014 C 0.64168 0.58416 0.67022 0.0
H1015 H 0.74472 0.63207 0.70702 0.0
H1016 H 0.71935 0.61008 0.68867 0.0
H1017 H 0.7407 0.65696 0.69144 0.0
H1018 H 0.70301 0.67106 0.6733 0.0
H1019 H 0.70158 0.66092 0.64379 0.0
H1020 H 0.67698 0.12305 0.55116 0.0
H1021 H 0.66462 0.11703 0.58008 0.0
H1022 H 0.56709 1.02169 0.56877 0.0
H1023 H 0.57945 1.02701 0.54003 0.0
H1024 H 0.60939 0.11486 0.59648 0.0
H1025 H 0.61089 0.99097 0.60251 0.0
H1026 H 0.62756 1.01683 0.58506 0.0
H1027 H 0.58131 0.98774 0.58679 0.0
C1028 C 0.653 0.10072 0.55485 0.0
C1029 C 0.62933 0.0754 0.5433 0.0
C1030 C 0.64597 0.09732 0.57136 0.0
C1031 C 0.61525 0.06855 0.57658 0.0
C1032 C 0.59138 1.04359 0.56505 0.0
H1033 H 0.51376 1.00707 0.66866 0.0
H1034 H 0.52835 1.01239 0.63995 0.0
C1035 C 0.59842 1.04684 0.54859 0.0
C1036 C 0.60749 0.06505 0.59404 0.0
H1037 H 0.58788 1.00943 0.62458 0.0
C1038 C 0.60496 0.09195 0.60266 0.0
C1039 C 0.60168 1.03509 0.60206 0.0
C1040 C 0.60583 1.00617 0.59368 0.0
C1041 C 0.59604 0.08935 0.61902 0.0
C1042 C 0.58978 0.05919 0.62694 0.0
C1043 C 0.59246 1.03237 0.61838 0.0
C1044 C 0.58118 1.05543 0.64426 0.0
C1045 C 0.59276 0.11854 0.62766 0.0
C1046 C 0.60632 0.07739 0.65611 0.0
C1047 C 0.59824 0.0742 0.67247 0.0
C1048 C 0.56477 1.04901 0.6773 0.0
C1049 C 0.53982 1.02656 0.66537 0.0
C1050 C 0.54802 1.02968 0.64897 0.0
H1051 H 0.59134 0.13636 0.61906 0.0
H1052 H 0.56911 0.10771 0.63515 0.0
H1053 H 0.61591 0.13427 0.63586 0.0
H1054 H 0.63227 0.09696 0.6527 0.0
H1055 H 0.61836 0.09136 0.68134 0.0
H1056 H 0.62952 0.63978 0.88617 0.0
H1057 H 0.61883 0.625 0.91461 0.0
H1058 H 0.64184 0.54152 0.9053 0.0
H1059 H 0.65292 0.5562 0.87715 0.0
H1060 H 0.56868 0.56097 0.92605 0.0
H1061 H 0.70137 0.59258 0.9459 0.0
H1062 H 0.69322 0.60825 0.92759 0.0
H1063 H 0.68649 0.56447 0.92774 0.0
C1064 C 0.63272 0.61857 0.89026 0.0
C1065 C 0.64215 0.59922 0.87941 0.0
C1066 C 0.62657 0.61015 0.90648 0.0
C1067 C 0.63011 0.58255 0.91211 0.0
C1068 C 0.63976 0.56345 0.90131 0.0
H1069 H 0.58193 0.45153 0.99114 0.0
H1070 H 0.59904 0.48199 0.966 0.0
C1071 C 0.64585 0.57175 0.88517 0.0
C1072 C 0.62172 0.57194 0.92897 0.0
H1073 H 0.65404 0.55369 0.96223 0.0
C1074 C 0.58747 0.55995 0.9341 0.0
C1075 C 0.64632 0.57069 0.93943 0.0
C1076 C 0.684 0.58503 0.93495 0.0
C1077 C 0.57666 0.54496 0.9491 0.0
C1078 C 0.60088 0.54229 0.95922 0.0
C1079 C 0.63547 0.55552 0.95436 0.0
C1080 C 0.59046 0.52425 0.97455 0.0
C1081 C 0.53905 0.53063 0.95369 0.0
C1082 C 0.58023 0.53813 0.9877 0.0
C1083 C 0.57064 0.5209 0.00214 0.0
C1084 C 0.57121 0.48953 0.00368 0.0
C1085 C 0.58159 0.47583 0.99044 0.0
C1086 C 0.59122 0.4931 0.97605 0.0
H1087 H 0.52231 0.52919 0.94334 0.0
H1088 H 0.52824 0.50403 0.95826 0.0
H1089 H 0.53767 0.54795 0.96354 0.0
H1090 H 0.58003 0.56246 0.98685 0.0
H1091 H 0.56339 0.53251 0.01219 0.0
H1092 H 0.16816 0.60047 0.21743 0.0
H1093 H 0.15811 0.59458 0.24653 0.0
H1094 H 0.08933 0.63735 0.24338 0.0
H1095 H 0.09811 0.64194 0.2143 0.0
H1096 H 0.17056 0.63997 0.27108 0.0
H1097 H 1.02783 0.54996 0.26569 0.0
H1098 H 1.05556 0.56071 0.24841 0.0
H1099 H 1.04012 0.5896 0.25587 0.0
C1100 C 0.15093 0.60862 0.22297 0.0
C1101 C 0.13365 0.62135 0.21358 0.0
C1102 C 0.14514 0.60518 0.23958 0.0
C1103 C 0.12222 0.61464 0.24707 0.0
C1104 C 0.10612 0.62869 0.23779 0.0
H1105 H 0.11801 0.66669 0.34869 0.0
H1106 H 0.1287 0.66583 0.3197 0.0
C1107 C 0.11143 0.6316 0.22119 0.0
C1108 C 0.11561 0.6106 0.26464 0.0
H1109 H 1.05027 0.57884 0.29191 0.0
C1110 C 0.14427 0.62628 0.27564 0.0
C1111 C 1.08135 0.592 0.27061 0.0
C1112 C 1.04953 0.57179 0.2595 0.0
C1113 C 0.13956 0.62502 0.29242 0.0
C1114 C 0.1052 0.60872 0.29838 0.0
C1115 C 1.0766 0.59189 0.28738 0.0
C1116 C 0.09827 0.60925 0.31593 0.0
C1117 C 0.17153 0.64082 0.30354 0.0
C1118 C 1.07623 0.57791 0.32334 0.0
C1119 C 1.06938 0.57848 0.33983 0.0
C1120 C 0.08473 0.61037 0.3492 0.0
C1121 C 0.10631 0.64173 0.34175 0.0
C1122 C 0.11266 0.64121 0.32523 0.0
H1123 H 0.194 0.64091 0.29742 0.0
H1124 H 0.17931 0.66847 0.30702 0.0
H1125 H 0.1664 0.6263 0.31471 0.0
H1126 H 1.06459 0.55296 0.31639 0.0
H1127 H 1.05274 0.55395 0.34534 0.0
loop_
_geom_bond_atom_site_label_1
_geom_bond_atom_site_label_2
_geom_bond_distance
_geom_bond_site_symmetry_2
_ccdc_geom_bond_type
Tb0 C9 2.764 1_455 S
Tb0 O10 2.325 1_455 S
Tb0 O13 2.303 . S
Tb0 O17 2.322 . S
Tb0 O18 2.349 . S
Tb0 O21 2.415 1_455 S
Tb0 O22 2.399 1_455 S
Tb1 O11 2.322 . S
Tb1 O12 2.349 . S
Tb1 O14 2.415 . S
Tb1 O15 2.399 . S
Tb1 O16 2.325 . S
Tb1 O19 2.303 . S
Tb1 C30 2.764 . S
C2 O18 1.261 . S
C2 O19 1.257 . S
C3 C6 1.358 . S
C3 C7 1.332 . S
C3 C9 1.504 . S
C4 C5 1.373 . S
C4 C8 1.308 . S
C5 C4 1.373 . S
C5 C6 1.429 . S
C5 H32 0.932 . S
C6 C3 1.358 . S
C6 C5 1.429 . S
C6 H33 0.930 . S
C7 C3 1.332 . S
C7 C8 1.394 . S
C7 H34 0.932 . S
C8 C4 1.308 . S
C8 C7 1.394 . S
C8 H35 0.929 . S
C9 Tb0 2.764 1_655 S
C9 C3 1.504 . S
C9 O21 1.239 . S
C9 O22 1.263 . S
O10 Tb0 2.325 1_655 S
O10 C20 1.236 . S
O11 Tb1 2.322 . S
O11 C20 1.257 1_455 S
O12 Tb1 2.349 . S
O12 C23 1.261 . S
O13 Tb0 2.303 . S
O13 C23 1.257 . S
O14 Tb1 2.415 . S
O14 C30 1.239 . S
O15 Tb1 2.399 . S
O15 C30 1.263 . S
O16 Tb1 2.325 . S
O16 C31 1.236 . S
O17 Tb0 2.322 . S
O17 C31 1.257 . S
O18 Tb0 2.349 . S
O18 C2 1.261 . S
O19 Tb1 2.303 . S
O19 C2 1.257 . S
C20 O10 1.236 . S
C20 O11 1.257 1_655 S
O21 Tb0 2.415 1_655 S
O21 C9 1.239 . S
O22 Tb0 2.399 1_655 S
O22 C9 1.263 . S
C23 O12 1.261 . S
C23 O13 1.257 . S
C24 C27 1.358 . S
C24 C28 1.332 . S
C24 C30 1.504 . S
C25 C26 1.373 . S
C25 C29 1.308 . S
C26 C25 1.373 . S
C26 C27 1.429 . S
C26 H36 0.932 . S
C27 C24 1.358 . S
C27 C26 1.429 . S
C27 H37 0.930 . S
C28 C24 1.332 . S
C28 C29 1.394 . S
C28 H38 0.932 . S
C29 C25 1.308 . S
C29 C28 1.394 . S
C29 H39 0.929 . S
C30 Tb1 2.764 . S
C30 O14 1.239 . S
C30 O15 1.263 . S
C30 C24 1.504 . S
C31 O16 1.236 . S
C31 O17 1.257 . S
H32 C5 0.932 . S
H33 C6 0.930 . S
H34 C7 0.932 . S
H35 C8 0.929 . S
H36 C26 0.932 . S
H37 C27 0.930 . S
H38 C28 0.932 . S
H39 C29 0.929 . S
Tb40 C49 2.764 1_545 S
Tb40 O50 2.325 1_545 S
Tb40 O53 2.303 . S
Tb40 O57 2.322 . S
Tb40 O58 2.349 . S
Tb40 O61 2.415 1_545 S
Tb40 O62 2.399 1_545 S
Tb41 O51 2.322 1_545 S
Tb41 O52 2.349 . S
Tb41 O54 2.415 . S
Tb41 O55 2.399 . S
Tb41 O56 2.325 . S
Tb41 O59 2.303 . S
Tb41 C70 2.764 . S
C42 O58 1.261 . S
C42 O59 1.257 . S
C43 C46 1.358 . S
C43 C47 1.332 . S
C43 C49 1.504 . S
C44 C45 1.373 . S
C44 C48 1.308 . S
C45 C44 1.373 . S
C45 C46 1.429 . S
C45 H72 0.932 . S
C46 C43 1.358 . S
C46 C45 1.429 . S
C46 H73 0.930 . S
C47 C43 1.332 . S
C47 C48 1.394 . S
C47 H74 0.932 . S
C48 C44 1.308 . S
C48 C47 1.394 . S
C48 H75 0.929 . S
C49 Tb40 2.764 1_565 S
C49 C43 1.504 . S
C49 O61 1.239 . S
C49 O62 1.263 . S
O50 Tb40 2.325 1_565 S
O50 C60 1.236 . S
O51 Tb41 2.322 1_565 S
O51 C60 1.257 . S
O52 Tb41 2.349 . S
O52 C63 1.261 . S
O53 Tb40 2.303 . S
O53 C63 1.257 . S
O54 Tb41 2.415 . S
O54 C70 1.239 . S
O55 Tb41 2.399 . S
O55 C70 1.263 . S
O56 Tb41 2.325 . S
O56 C71 1.236 . S
O57 Tb40 2.322 . S
O57 C71 1.257 . S
O58 Tb40 2.349 . S
O58 C42 1.261 . S
O59 Tb41 2.303 . S
O59 C42 1.257 . S
C60 O50 1.236 . S
C60 O51 1.257 . S
O61 Tb40 2.415 1_565 S
O61 C49 1.239 . S
O62 Tb40 2.399 1_565 S
O62 C49 1.263 . S
C63 O52 1.261 . S
C63 O53 1.257 . S
C64 C67 1.358 . S
C64 C68 1.332 . S
C64 C70 1.504 . S
C65 C66 1.373 . S
C65 C69 1.308 . S
C66 C65 1.373 . S
C66 C67 1.429 . S
C66 H76 0.932 . S
C67 C64 1.358 . S
C67 C66 1.429 . S
C67 H77 0.930 . S
C68 C64 1.332 . S
C68 C69 1.394 . S
C68 H78 0.932 . S
C69 C65 1.308 . S
C69 C68 1.394 . S
C69 H79 0.929 . S
C70 Tb41 2.764 . S
C70 O54 1.239 . S
C70 O55 1.263 . S
C70 C64 1.504 . S
C71 O56 1.236 . S
C71 O57 1.257 . S
H72 C45 0.932 . S
H73 C46 0.930 . S
H74 C47 0.932 . S
H75 C48 0.929 . S
H76 C66 0.932 . S
H77 C67 0.930 . S
H78 C68 0.932 . S
H79 C69 0.929 . S
Tb80 C89 2.764 . S
Tb80 O90 2.325 . S
Tb80 O93 2.303 . S
Tb80 O97 2.322 . S
Tb80 O98 2.349 . S
Tb80 O101 2.415 . S
Tb80 O102 2.399 . S
Tb81 O91 2.322 . S
Tb81 O92 2.349 . S
Tb81 O94 2.415 . S
Tb81 O95 2.399 . S
Tb81 O96 2.325 . S
Tb81 O99 2.303 . S
Tb81 C110 2.764 . S
C82 O98 1.261 . S
C82 O99 1.257 . S
C83 C86 1.358 . S
C83 C87 1.332 . S
C83 C89 1.504 . S
C84 C85 1.373 . S
C84 C88 1.308 . S
C85 C84 1.373 . S
C85 C86 1.429 . S
C85 H112 0.932 . S
C86 C83 1.358 . S
C86 C85 1.429 . S
C86 H113 0.930 . S
C87 C83 1.332 . S
C87 C88 1.394 . S
C87 H114 0.932 . S
C88 C84 1.308 . S
C88 C87 1.394 . S
C88 H115 0.929 . S
C89 Tb80 2.764 . S
C89 C83 1.504 . S
C89 O101 1.239 . S
C89 O102 1.263 . S
O90 Tb80 2.325 . S
O90 C100 1.236 . S
O91 Tb81 2.322 . S
O91 C100 1.257 . S
O92 Tb81 2.349 . S
O92 C103 1.261 . S
O93 Tb80 2.303 . S
O93 C103 1.257 . S
O94 Tb81 2.415 . S
O94 C110 1.239 . S
O95 Tb81 2.399 . S
O95 C110 1.263 . S
O96 Tb81 2.325 . S
O96 C111 1.236 . S
O97 Tb80 2.322 . S
O97 C111 1.257 . S
O98 Tb80 2.349 . S
O98 C82 1.261 . S
O99 Tb81 2.303 . S
O99 C82 1.257 . S
C100 O90 1.236 . S
C100 O91 1.257 . S
O101 Tb80 2.415 . S
O101 C89 1.239 . S
O102 Tb80 2.399 . S
O102 C89 1.263 . S
C103 O92 1.261 . S
C103 O93 1.257 . S
C104 C107 1.358 . S
C104 C108 1.332 . S
C104 C110 1.504 . S
C105 C106 1.373 . S
C105 C109 1.308 . S
C106 C105 1.373 . S
C106 C107 1.429 . S
C106 H116 0.932 . S
C107 C104 1.358 . S
C107 C106 1.429 . S
C107 H117 0.930 . S
C108 C104 1.332 . S
C108 C109 1.394 . S
C108 H118 0.932 . S
C109 C105 1.308 . S
C109 C108 1.394 . S
C109 H119 0.929 . S
C110 Tb81 2.764 . S
C110 O94 1.239 . S
C110 O95 1.263 . S
C110 C104 1.504 . S
C111 O96 1.236 . S
C111 O97 1.257 . S
H112 C85 0.932 . S
H113 C86 0.930 . S
H114 C87 0.932 . S
H115 C88 0.929 . S
H116 C106 0.932 . S
H117 C107 0.930 . S
H118 C108 0.932 . S
H119 C109 0.929 . S
C120 C121 1.391 . S
C120 C124 1.391 . S
C120 H162 0.948 . S
C121 C120 1.391 . S
C121 C122 1.391 . S
C122 C121 1.391 . S
C122 H178 0.947 . S
C122 C179 1.392 . S
C123 C124 1.391 . S
C123 C127 1.397 . S
C123 C179 1.419 . S
C124 C120 1.391 . S
C124 C123 1.391 . S
C124 C125 1.399 . S
C125 C124 1.399 . S
C125 C128 1.396 . S
C125 C137 1.453 . S
C125 C138 1.684 . S
H126 C150 0.948 . S
C127 C123 1.397 . S
C127 C128 1.394 . S
C127 C146 1.723 . S
C128 C125 1.396 . S
C128 C127 1.394 . S
C128 C158 1.721 1_545 S
H129 C152 0.947 . S
H130 C153 0.948 . S
H131 C159 0.982 . S
H132 C160 0.979 . S
H133 C160 0.980 . S
H134 C160 0.983 . S
H135 C159 0.979 . S
H136 C159 0.977 . S
C137 C125 1.453 . S
C137 H166 0.982 . S
C137 H167 0.979 . S
C137 H168 0.977 . S
C138 C125 1.684 . S
C138 H163 0.979 . S
C138 H164 0.980 . S
C138 H165 0.983 . S
C139 C140 1.391 . S
C139 C144 1.391 . S
C139 H169 0.948 . S
C140 C139 1.391 . S
C140 C141 1.391 . S
C141 C140 1.391 . S
C141 C142 1.392 1_545 S
C141 H170 0.947 1_545 S
C142 C141 1.392 1_565 S
C142 C143 1.420 1_565 S
C142 H171 0.947 . S
C143 C142 1.420 1_545 S
C143 C144 1.391 . S
C143 C147 1.397 . S
C144 C139 1.391 . S
C144 C143 1.391 . S
C144 C145 1.399 . S
C145 C144 1.399 . S
C145 C146 1.396 . S
C145 C148 1.453 . S
C145 C149 1.684 . S
C146 C127 1.723 . S
C146 C145 1.396 . S
C146 C147 1.394 . S
C147 C143 1.397 . S
C147 C146 1.394 . S
C147 C157 1.723 1_545 S
C148 C145 1.453 . S
C148 H172 0.982 . S
C148 H173 0.979 . S
C148 H174 0.977 . S
C149 C145 1.684 . S
C149 H175 0.979 . S
C149 H176 0.980 . S
C149 H177 0.983 . S
C150 H126 0.948 . S
C150 C151 1.391 . S
C150 C155 1.391 . S
C151 C150 1.391 . S
C151 C152 1.391 . S
C152 H129 0.947 . S
C152 C151 1.391 . S
C152 C153 1.392 . S
C153 H130 0.948 . S
C153 C152 1.392 . S
C153 C154 1.419 . S
C154 C153 1.419 . S
C154 C155 1.391 . S
C154 C158 1.398 . S
C155 C150 1.391 . S
C155 C154 1.391 . S
C155 C156 1.399 . S
C156 C155 1.399 . S
C156 C157 1.396 . S
C156 C159 1.453 . S
C156 C160 1.684 . S
C157 C147 1.723 1_565 S
C157 C156 1.396 . S
C157 C158 1.395 . S
C158 C128 1.721 1_565 S
C158 C154 1.398 . S
C158 C157 1.395 . S
C159 H131 0.982 . S
C159 H135 0.979 . S
C159 H136 0.977 . S
C159 C156 1.453 . S
C160 H132 0.979 . S
C160 H133 0.980 . S
C160 H134 0.983 . S
C160 C156 1.684 . S
H161 C179 0.948 . S
H162 C120 0.948 . S
H163 C138 0.979 . S
H164 C138 0.980 . S
H165 C138 0.983 . S
H166 C137 0.982 . S
H167 C137 0.979 . S
H168 C137 0.977 . S
H169 C139 0.948 . S
H170 C141 0.947 1_565 S
H171 C142 0.947 . S
H172 C148 0.982 . S
H173 C148 0.979 . S
H174 C148 0.977 . S
H175 C149 0.979 . S
H176 C149 0.980 . S
H177 C149 0.983 . S
H178 C122 0.947 . S
C179 C122 1.392 . S
C179 C123 1.419 . S
C179 H161 0.948 . S
C180 C181 1.391 . S
C180 C184 1.391 . S
C180 H222 0.948 . S
C181 C180 1.391 . S
C181 C182 1.391 . S
C182 C181 1.391 . S
C182 H238 0.947 . S
C182 C239 1.392 . S
C183 C184 1.391 . S
C183 C187 1.397 . S
C183 C239 1.419 . S
C184 C180 1.391 . S
C184 C183 1.391 . S
C184 C185 1.399 . S
C185 C184 1.399 . S
C185 C188 1.396 . S
C185 C197 1.453 . S
C185 C198 1.684 . S
H186 C210 0.948 . S
C187 C183 1.397 . S
C187 C188 1.394 . S
C187 C206 1.723 . S
C188 C185 1.396 . S
C188 C187 1.394 . S
C188 C218 1.723 . S
H189 C212 0.947 . S
H190 C213 0.948 . S
H191 C219 0.982 . S
H192 C220 0.979 . S
H193 C220 0.980 . S
H194 C220 0.983 . S
H195 C219 0.979 . S
H196 C219 0.977 . S
C197 C185 1.453 . S
C197 H226 0.982 . S
C197 H227 0.979 . S
C197 H228 0.977 . S
C198 C185 1.684 . S
C198 H223 0.979 . S
C198 H224 0.980 . S
C198 H225 0.983 . S
C199 C200 1.391 . S
C199 C204 1.391 . S
C199 H229 0.948 . S
C200 C199 1.391 . S
C200 C201 1.391 . S
C201 C200 1.391 . S
C201 C202 1.392 . S
C201 H230 0.947 . S
C202 C201 1.392 . S
C202 C203 1.419 . S
C202 H231 0.948 . S
C203 C202 1.419 . S
C203 C204 1.391 . S
C203 C207 1.397 . S
C204 C199 1.391 . S
C204 C203 1.391 . S
C204 C205 1.399 . S
C205 C204 1.399 . S
C205 C206 1.396 . S
C205 C208 1.453 . S
C205 C209 1.684 . S
C206 C187 1.723 . S
C206 C205 1.396 . S
C206 C207 1.394 . S
C207 C203 1.397 . S
C207 C206 1.394 . S
C207 C217 1.723 . S
C208 C205 1.453 . S
C208 H232 0.982 . S
C208 H233 0.979 . S
C208 H234 0.977 . S
C209 C205 1.684 . S
C209 H235 0.979 . S
C209 H236 0.980 . S
C209 H237 0.983 . S
C210 H186 0.948 . S
C210 C211 1.391 . S
C210 C215 1.391 . S
C211 C210 1.391 . S
C211 C212 1.391 . S
C212 H189 0.947 . S
C212 C211 1.391 . S
C212 C213 1.392 . S
C213 H190 0.948 . S
C213 C212 1.392 . S
C213 C214 1.419 . S
C214 C213 1.419 . S
C214 C215 1.391 . S
C214 C218 1.397 . S
C215 C210 1.391 . S
C215 C214 1.391 . S
C215 C216 1.399 . S
C216 C215 1.399 . S
C216 C217 1.396 . S
C216 C219 1.453 . S
C216 C220 1.684 . S
C217 C207 1.723 . S
C217 C216 1.396 . S
C217 C218 1.394 . S
C218 C188 1.723 . S
C218 C214 1.397 . S
C218 C217 1.394 . S
C219 H191 0.982 . S
C219 H195 0.979 . S
C219 H196 0.977 . S
C219 C216 1.453 . S
C220 H192 0.979 . S
C220 H193 0.980 . S
C220 H194 0.983 . S
C220 C216 1.684 . S
H221 C239 0.948 . S
H222 C180 0.948 . S
H223 C198 0.979 . S
H224 C198 0.980 . S
H225 C198 0.983 . S
H226 C197 0.982 . S
H227 C197 0.979 . S
H228 C197 0.977 . S
H229 C199 0.948 . S
H230 C201 0.947 . S
H231 C202 0.948 . S
H232 C208 0.982 . S
H233 C208 0.979 . S
H234 C208 0.977 . S
H235 C209 0.979 . S
H236 C209 0.980 . S
H237 C209 0.983 . S
H238 C182 0.947 . S
C239 C182 1.392 . S
C239 C183 1.419 . S
C239 H221 0.948 . S
C240 C241 1.391 . S
C240 C244 1.391 . S
C240 H282 0.948 . S
C241 C240 1.391 . S
C241 C242 1.391 . S
C242 C241 1.391 . S
C242 H298 0.947 . S
C242 C299 1.392 . S
C243 C244 1.391 . S
C243 C247 1.397 . S
C243 C299 1.419 . S
C244 C240 1.391 . S
C244 C243 1.391 . S
C244 C245 1.399 . S
C245 C244 1.399 . S
C245 C248 1.396 . S
C245 C257 1.453 . S
C245 C258 1.684 . S
H246 C270 0.948 . S
C247 C243 1.397 . S
C247 C248 1.394 . S
C247 C266 1.723 . S
C248 C245 1.396 . S
C248 C247 1.394 . S
C248 C278 1.723 . S
H249 C272 0.947 . S
H250 C273 0.948 . S
H251 C279 0.982 . S
H252 C280 0.979 1_455 S
H253 C280 0.982 . S
H254 C280 0.983 . S
H255 C279 0.979 . S
H256 C279 0.977 . S
C257 C245 1.453 . S
C257 H286 0.982 . S
C257 H287 0.979 . S
C257 H288 0.977 . S
C258 C245 1.684 . S
C258 H283 0.979 . S
C258 H284 0.980 . S
C258 H285 0.983 . S
C259 C260 1.391 . S
C259 C264 1.391 . S
C259 H289 0.948 . S
C260 C259 1.391 . S
C260 C261 1.391 . S
C261 C260 1.391 . S
C261 C262 1.392 . S
C261 H290 0.947 . S
C262 C261 1.392 . S
C262 C263 1.419 . S
C262 H291 0.948 . S
C263 C262 1.419 . S
C263 C264 1.391 . S
C263 C267 1.397 . S
C264 C259 1.391 . S
C264 C263 1.391 . S
C264 C265 1.399 . S
C265 C264 1.399 . S
C265 C266 1.396 . S
C265 C268 1.453 . S
C265 C269 1.684 . S
C266 C247 1.723 . S
C266 C265 1.396 . S
C266 C267 1.394 . S
C267 C263 1.397 . S
C267 C266 1.394 . S
C267 C277 1.723 . S
C268 C265 1.453 . S
C268 H292 0.982 . S
C268 H293 0.979 . S
C268 H294 0.977 . S
C269 C265 1.684 . S
C269 H295 0.979 . S
C269 H296 0.980 . S
C269 H297 0.983 . S
C270 H246 0.948 . S
C270 C271 1.391 . S
C270 C275 1.391 . S
C271 C270 1.391 . S
C271 C272 1.391 . S
C272 H249 0.947 . S
C272 C271 1.391 . S
C272 C273 1.392 1_655 S
C273 H250 0.948 . S
C273 C272 1.392 1_455 S
C273 C274 1.419 . S
C274 C273 1.419 . S
C274 C275 1.391 1_455 S
C274 C278 1.397 . S
C275 C270 1.391 . S
C275 C274 1.391 1_655 S
C275 C276 1.389 1_655 S
C276 C275 1.389 1_455 S
C276 C277 1.436 . S
C276 C279 1.439 1_455 S
C276 C280 1.664 1_455 S
C277 C267 1.723 . S
C277 C276 1.436 . S
C277 C278 1.394 . S
C278 C248 1.723 . S
C278 C274 1.397 . S
C278 C277 1.394 . S
C279 H251 0.982 . S
C279 H255 0.979 . S
C279 H256 0.977 . S
C279 C276 1.439 1_655 S
C280 H252 0.979 1_655 S
C280 H253 0.982 . S
C280 H254 0.983 . S
C280 C276 1.664 1_655 S
H281 C299 0.948 . S
H282 C240 0.948 . S
H283 C258 0.979 . S
H284 C258 0.980 . S
H285 C258 0.983 . S
H286 C257 0.982 . S
H287 C257 0.979 . S
H288 C257 0.977 . S
H289 C259 0.948 . S
H290 C261 0.947 . S
H291 C262 0.948 . S
H292 C268 0.982 . S
H293 C268 0.979 . S
H294 C268 0.977 . S
H295 C269 0.979 . S
H296 C269 0.980 . S
H297 C269 0.983 . S
H298 C242 0.947 . S
C299 C242 1.392 . S
C299 C243 1.419 . S
C299 H281 0.948 . S
C300 C301 1.391 . S
C300 C304 1.391 . S
C300 H342 0.948 . S
C301 C300 1.391 . S
C301 C302 1.391 . S
C302 C301 1.391 . S
C302 H358 0.947 . S
C302 C359 1.392 . S
C303 C304 1.391 . S
C303 C307 1.397 . S
C303 C359 1.419 . S
C304 C300 1.391 . S
C304 C303 1.391 . S
C304 C305 1.399 . S
C305 C304 1.399 . S
C305 C308 1.396 . S
C305 C317 1.453 . S
C305 C318 1.684 . S
H306 C330 0.948 . S
C307 C303 1.397 . S
C307 C308 1.394 . S
C307 C326 1.723 . S
C308 C305 1.396 . S
C308 C307 1.394 . S
C308 C338 1.723 1_655 S
H309 C332 0.947 . S
H310 C333 0.948 . S
H311 C339 0.982 . S
H312 C340 0.979 . S
H313 C340 0.980 . S
H314 C340 0.983 . S
H315 C339 0.979 . S
H316 C339 0.977 . S
C317 C305 1.453 . S
C317 H346 0.982 1_655 S
C317 H347 0.979 . S
C317 H348 0.977 1_655 S
C318 C305 1.684 . S
C318 H343 0.979 . S
C318 H344 0.980 . S
C318 H345 0.983 . S
C319 C320 1.391 1_655 S
C319 C324 1.391 . S
C319 H349 0.948 . S
C320 C319 1.391 1_455 S
C320 C321 1.391 . S
C321 C320 1.391 . S
C321 C322 1.392 . S
C321 H350 0.947 . S
C322 C321 1.392 . S
C322 C323 1.419 . S
C322 H351 0.948 . S
C323 C322 1.419 . S
C323 C324 1.391 1_455 S
C323 C327 1.397 . S
C324 C319 1.391 . S
C324 C323 1.391 1_655 S
C324 C325 1.399 . S
C325 C324 1.399 . S
C325 C326 1.396 . S
C325 C328 1.453 . S
C325 C329 1.684 . S
C326 C307 1.723 . S
C326 C325 1.396 . S
C326 C327 1.394 1_655 S
C327 C323 1.397 . S
C327 C326 1.394 1_455 S
C327 C337 1.723 . S
C328 C325 1.453 . S
C328 H352 0.982 . S
C328 H353 0.979 . S
C328 H354 0.977 . S
C329 C325 1.684 . S
C329 H355 0.979 . S
C329 H356 0.980 . S
C329 H357 0.983 . S
C330 H306 0.948 . S
C330 C331 1.391 . S
C330 C335 1.391 . S
C331 C330 1.391 . S
C331 C332 1.391 . S
C332 H309 0.947 . S
C332 C331 1.391 . S
C332 C333 1.392 . S
C333 H310 0.948 . S
C333 C332 1.392 . S
C333 C334 1.419 . S
C334 C333 1.419 . S
C334 C335 1.391 . S
C334 C338 1.397 . S
C335 C330 1.391 . S
C335 C334 1.391 . S
C335 C336 1.399 . S
C336 C335 1.399 . S
C336 C337 1.396 . S
C336 C339 1.453 . S
C336 C340 1.684 . S
C337 C327 1.723 . S
C337 C336 1.396 . S
C337 C338 1.394 . S
C338 C308 1.723 1_455 S
C338 C334 1.397 . S
C338 C337 1.394 . S
C339 H311 0.982 . S
C339 H315 0.979 . S
C339 H316 0.977 . S
C339 C336 1.453 . S
C340 H312 0.979 . S
C340 H313 0.980 . S
C340 H314 0.983 . S
C340 C336 1.684 . S
H341 C359 0.948 . S
H342 C300 0.948 . S
H343 C318 0.979 . S
H344 C318 0.980 . S
H345 C318 0.983 . S
H346 C317 0.982 1_455 S
H347 C317 0.979 . S
H348 C317 0.977 1_455 S
H349 C319 0.948 . S
H350 C321 0.947 . S
H351 C322 0.948 . S
H352 C328 0.982 . S
H353 C328 0.979 . S
H354 C328 0.977 . S
H355 C329 0.979 . S
H356 C329 0.980 . S
H357 C329 0.983 . S
H358 C302 0.947 . S
C359 C302 1.392 . S
C359 C303 1.419 . S
C359 H341 0.948 . S
C360 C361 1.391 . S
C360 C364 1.391 . S
C360 H402 0.948 . S
C361 C360 1.391 . S
C361 C362 1.391 . S
C362 C361 1.391 . S
C362 H418 0.947 . S
C362 C419 1.392 . S
C363 C364 1.391 . S
C363 C367 1.397 . S
C363 C419 1.419 . S
C364 C360 1.391 . S
C364 C363 1.391 . S
C364 C365 1.399 . S
C365 C364 1.399 . S
C365 C368 1.396 . S
C365 C377 1.453 1_565 S
C365 C378 1.684 . S
H366 C390 0.948 . S
C367 C363 1.397 . S
C367 C368 1.394 . S
C367 C386 1.723 . S
C368 C365 1.396 . S
C368 C367 1.394 . S
C368 C398 1.723 1_565 S
H369 C392 0.947 . S
H370 C393 0.948 . S
H371 C399 0.982 . S
H372 C400 0.979 . S
H373 C400 0.980 . S
H374 C400 0.983 . S
H375 C399 0.979 . S
H376 C399 0.977 . S
C377 C365 1.453 1_545 S
C377 H406 0.982 . S
C377 H407 0.979 1_545 S
C377 H408 0.977 . S
C378 C365 1.684 . S
C378 H403 0.979 . S
C378 H404 0.943 1_565 S
C378 H405 0.983 . S
C379 C380 1.391 . S
C379 C384 1.391 . S
C379 H409 0.948 . S
C380 C379 1.391 . S
C380 C381 1.391 1_565 S
C381 C380 1.391 1_545 S
C381 C382 1.392 . S
C381 H410 0.947 . S
C382 C381 1.392 . S
C382 C383 1.419 . S
C382 H411 0.948 . S
C383 C382 1.419 . S
C383 C384 1.391 1_545 S
C383 C387 1.397 . S
C384 C379 1.391 . S
C384 C383 1.391 1_565 S
C384 C385 1.399 . S
C385 C384 1.399 . S
C385 C386 1.396 . S
C385 C388 1.453 . S
C385 C389 1.684 . S
C386 C367 1.723 . S
C386 C385 1.396 . S
C386 C387 1.394 1_565 S
C387 C383 1.397 . S
C387 C386 1.394 1_545 S
C387 C397 1.723 . S
C388 C385 1.453 . S
C388 H412 0.982 . S
C388 H413 0.979 . S
C388 H414 0.977 . S
C389 C385 1.684 . S
C389 H415 0.979 . S
C389 H416 0.980 . S
C389 H417 0.983 . S
C390 H366 0.948 . S
C390 C391 1.391 . S
C390 C395 1.391 . S
C391 C390 1.391 . S
C391 C392 1.391 . S
C392 H369 0.947 . S
C392 C391 1.391 . S
C392 C393 1.392 . S
C393 H370 0.948 . S
C393 C392 1.392 . S
C393 C394 1.419 . S
C394 C393 1.419 . S
C394 C395 1.391 . S
C394 C398 1.397 . S
C395 C390 1.391 . S
C395 C394 1.391 . S
C395 C396 1.399 . S
C396 C395 1.399 . S
C396 C397 1.396 . S
C396 C399 1.453 . S
C396 C400 1.684 . S
C397 C387 1.723 . S
C397 C396 1.396 . S
C397 C398 1.394 . S
C398 C368 1.723 1_545 S
C398 C394 1.397 . S
C398 C397 1.394 . S
C399 H371 0.982 . S
C399 H375 0.979 . S
C399 H376 0.977 . S
C399 C396 1.453 . S
C400 H372 0.979 . S
C400 H373 0.980 . S
C400 H374 0.983 . S
C400 C396 1.684 . S
H401 C419 0.948 . S
H402 C360 0.948 . S
H403 C378 0.979 . S
H404 C378 0.943 1_545 S
H405 C378 0.983 . S
H406 C377 0.982 . S
H407 C377 0.979 1_565 S
H408 C377 0.977 . S
H409 C379 0.948 . S
H410 C381 0.947 . S
H411 C382 0.948 . S
H412 C388 0.982 . S
H413 C388 0.979 . S
H414 C388 0.977 . S
H415 C389 0.979 . S
H416 C389 0.980 . S
H417 C389 0.983 . S
H418 C362 0.947 . S
C419 C362 1.392 . S
C419 C363 1.419 . S
C419 H401 0.948 . S
C420 C421 1.391 . S
C420 C424 1.391 . S
C420 H462 0.948 . S
C421 C420 1.391 . S
C421 C422 1.391 . S
C422 C421 1.391 . S
C422 H478 0.947 . S
C422 C479 1.392 . S
C423 C424 1.391 . S
C423 C427 1.397 . S
C423 C479 1.419 . S
C424 C420 1.391 . S
C424 C423 1.391 . S
C424 C425 1.399 . S
C425 C424 1.399 . S
C425 C428 1.396 . S
C425 C437 1.453 . S
C425 C438 1.684 . S
H426 C450 0.948 . S
C427 C423 1.397 . S
C427 C428 1.394 . S
C427 C446 1.723 . S
C428 C425 1.396 . S
C428 C427 1.394 . S
C428 C458 1.723 . S
H429 C452 0.947 . S
H430 C453 0.948 . S
H431 C459 0.982 . S
H432 C460 0.979 . S
H433 C460 0.980 . S
H434 C460 0.983 . S
H435 C459 0.979 . S
H436 C459 0.977 . S
C437 C425 1.453 . S
C437 H466 0.982 . S
C437 H467 0.979 . S
C437 H468 0.977 . S
C438 C425 1.684 . S
C438 H463 0.979 . S
C438 H464 0.980 . S
C438 H465 0.983 . S
C439 C440 1.391 . S
C439 C444 1.391 . S
C439 H469 0.948 . S
C440 C439 1.391 . S
C440 C441 1.391 . S
C441 C440 1.391 . S
C441 C442 1.392 . S
C441 H470 0.947 . S
C442 C441 1.392 . S
C442 C443 1.419 . S
C442 H471 0.948 . S
C443 C442 1.419 . S
C443 C444 1.391 . S
C443 C447 1.397 . S
C444 C439 1.391 . S
C444 C443 1.391 . S
C444 C445 1.399 . S
C445 C444 1.399 . S
C445 C446 1.396 . S
C445 C448 1.453 . S
C445 C449 1.684 . S
C446 C427 1.723 . S
C446 C445 1.396 . S
C446 C447 1.394 . S
C447 C443 1.397 . S
C447 C446 1.394 . S
C447 C457 1.723 . S
C448 C445 1.453 . S
C448 H472 0.982 . S
C448 H473 0.979 . S
C448 H474 0.977 . S
C449 C445 1.684 . S
C449 H475 0.979 . S
C449 H476 0.980 . S
C449 H477 0.983 . S
C450 H426 0.948 . S
C450 C451 1.391 . S
C450 C455 1.391 . S
C451 C450 1.391 . S
C451 C452 1.391 . S
C452 H429 0.947 . S
C452 C451 1.391 . S
C452 C453 1.392 . S
C453 H430 0.948 . S
C453 C452 1.392 . S
C453 C454 1.419 . S
C454 C453 1.419 . S
C454 C455 1.391 . S
C454 C458 1.397 . S
C455 C450 1.391 . S
C455 C454 1.391 . S
C455 C456 1.399 . S
C456 C455 1.399 . S
C456 C457 1.396 . S
C456 C459 1.453 . S
C456 C460 1.684 . S
C457 C447 1.723 . S
C457 C456 1.396 . S
C457 C458 1.394 . S
C458 C428 1.723 . S
C458 C454 1.397 . S
C458 C457 1.394 . S
C459 H431 0.982 . S
C459 H435 0.979 . S
C459 H436 0.977 . S
C459 C456 1.453 . S
C460 H432 0.979 . S
C460 H433 0.980 . S
C460 H434 0.983 . S
C460 C456 1.684 . S
H461 C479 0.948 . S
H462 C420 0.948 . S
H463 C438 0.979 . S
H464 C438 0.980 . S
H465 C438 0.983 . S
H466 C437 0.982 . S
H467 C437 0.979 . S
H468 C437 0.977 . S
H469 C439 0.948 . S
H470 C441 0.947 . S
H471 C442 0.948 . S
H472 C448 0.982 . S
H473 C448 0.979 . S
H474 C448 0.977 . S
H475 C449 0.979 . S
H476 C449 0.980 . S
H477 C449 0.983 . S
H478 C422 0.947 . S
C479 C422 1.392 . S
C479 C423 1.419 . S
C479 H461 0.948 . S
H480 C488 0.929 . S
H481 C490 0.930 . S
H482 C492 0.930 . S
H483 C495 0.929 . S
H484 C498 0.930 . S
H485 C500 0.960 . S
H486 C500 0.960 . S
H487 C500 0.960 . S
C488 H480 0.929 . S
C488 C489 1.377 . S
C488 C490 1.384 . S
C489 C488 1.377 . S
C489 C495 1.390 . S
C490 H481 0.930 . S
C490 C488 1.384 . S
C490 C491 1.372 . S
C491 C490 1.372 . S
C491 C492 1.400 . S
C491 C496 1.490 . S
C492 H482 0.930 . S
C492 C491 1.400 . S
C492 C495 1.386 . S
H493 C509 0.930 . S
H494 C510 0.931 . S
C495 H483 0.929 . S
C495 C489 1.390 . S
C495 C492 1.386 . S
C496 C491 1.490 . S
C496 C498 1.395 . S
C496 C499 1.403 . S
H497 C503 0.930 . S
C498 H484 0.930 . S
C498 C496 1.395 . S
C498 C501 1.403 . S
C499 C496 1.403 . S
C499 C500 1.524 . S
C499 C503 1.400 . S
C500 H485 0.960 . S
C500 H486 0.960 . S
C500 H487 0.960 . S
C500 C499 1.524 . S
C501 C498 1.403 . S
C501 C502 1.392 . S
C501 C505 1.495 . S
C502 C501 1.392 . S
C502 C503 1.385 . S
C502 C504 1.478 . S
C503 H497 0.930 . S
C503 C499 1.400 . S
C503 C502 1.385 . S
C504 C502 1.478 . S
C504 C506 1.381 . S
C504 C510 1.383 . S
C505 C501 1.495 . S
C505 H511 0.959 . S
C505 H512 0.961 . S
C505 H513 0.960 . S
C506 C504 1.381 . S
C506 C507 1.394 . S
C506 H514 0.930 . S
C507 C506 1.394 . S
C507 C508 1.383 . S
C507 H515 0.929 . S
C508 C507 1.383 . S
C508 C509 1.377 . S
C509 H493 0.930 . S
C509 C508 1.377 . S
C509 C510 1.379 . S
C510 H494 0.931 . S
C510 C504 1.383 . S
C510 C509 1.379 . S
H511 C505 0.959 . S
H512 C505 0.961 . S
H513 C505 0.960 . S
H514 C506 0.930 . S
H515 C507 0.929 . S
H516 C524 0.929 . S
H517 C526 0.930 . S
H518 C528 0.930 . S
H519 C531 0.929 . S
H520 C534 0.930 . S
H521 C536 0.960 . S
H522 C536 0.960 . S
H523 C536 0.960 . S
C524 H516 0.929 . S
C524 C525 1.377 . S
C524 C526 1.384 . S
C525 C524 1.377 . S
C525 C531 1.390 . S
C526 H517 0.930 . S
C526 C524 1.384 . S
C526 C527 1.372 . S
C527 C526 1.372 . S
C527 C528 1.400 . S
C527 C532 1.490 . S
C528 H518 0.930 . S
C528 C527 1.400 . S
C528 C531 1.386 . S
H529 C545 0.930 . S
H530 C546 0.931 . S
C531 H519 0.929 . S
C531 C525 1.390 . S
C531 C528 1.386 . S
C532 C527 1.490 . S
C532 C534 1.395 . S
C532 C535 1.403 . S
H533 C539 0.930 . S
C534 H520 0.930 . S
C534 C532 1.395 . S
C534 C537 1.403 . S
C535 C532 1.403 . S
C535 C536 1.524 . S
C535 C539 1.400 . S
C536 H521 0.960 . S
C536 H522 0.960 . S
C536 H523 0.960 . S
C536 C535 1.524 . S
C537 C534 1.403 . S
C537 C538 1.392 . S
C537 C541 1.495 . S
C538 C537 1.392 . S
C538 C539 1.385 . S
C538 C540 1.478 . S
C539 H533 0.930 . S
C539 C535 1.400 . S
C539 C538 1.385 . S
C540 C538 1.478 . S
C540 C542 1.381 . S
C540 C546 1.383 . S
C541 C537 1.495 . S
C541 H547 0.959 . S
C541 H548 0.961 . S
C541 H549 0.960 . S
C542 C540 1.381 . S
C542 C543 1.394 . S
C542 H550 0.930 . S
C543 C542 1.394 . S
C543 C544 1.383 . S
C543 H551 0.929 . S
C544 C543 1.383 . S
C544 C545 1.377 . S
C545 H529 0.930 . S
C545 C544 1.377 . S
C545 C546 1.379 . S
C546 H530 0.931 . S
C546 C540 1.383 . S
C546 C545 1.379 . S
H547 C541 0.959 . S
H548 C541 0.961 . S
H549 C541 0.960 . S
H550 C542 0.930 . S
H551 C543 0.929 . S
H552 C560 0.929 . S
H553 C562 0.930 . S
H554 C564 0.930 . S
H555 C567 0.929 . S
H556 C570 0.930 . S
H557 C572 0.960 . S
H558 C572 0.960 . S
H559 C572 0.960 . S
C560 H552 0.929 . S
C560 C561 1.377 . S
C560 C562 1.384 . S
C561 C560 1.377 . S
C561 C567 1.390 . S
C562 H553 0.930 . S
C562 C560 1.384 . S
C562 C563 1.372 . S
C563 C562 1.372 . S
C563 C564 1.400 . S
C563 C568 1.490 . S
C564 H554 0.930 . S
C564 C563 1.400 . S
C564 C567 1.386 . S
H565 C581 0.930 . S
H566 C582 0.931 . S
C567 H555 0.929 . S
C567 C561 1.390 . S
C567 C564 1.386 . S
C568 C563 1.490 . S
C568 C570 1.395 . S
C568 C571 1.403 . S
H569 C575 0.930 . S
C570 H556 0.930 . S
C570 C568 1.395 . S
C570 C573 1.403 . S
C571 C568 1.403 . S
C571 C572 1.524 . S
C571 C575 1.400 . S
C572 H557 0.960 . S
C572 H558 0.960 . S
C572 H559 0.960 . S
C572 C571 1.524 . S
C573 C570 1.403 . S
C573 C574 1.392 . S
C573 C577 1.495 . S
C574 C573 1.392 . S
C574 C575 1.385 . S
C574 C576 1.478 . S
C575 H569 0.930 . S
C575 C571 1.400 . S
C575 C574 1.385 . S
C576 C574 1.478 . S
C576 C578 1.381 . S
C576 C582 1.383 . S
C577 C573 1.495 . S
C577 H583 0.959 . S
C577 H584 0.961 . S
C577 H585 0.960 . S
C578 C576 1.381 . S
C578 C579 1.394 . S
C578 H586 0.930 . S
C579 C578 1.394 . S
C579 C580 1.383 . S
C579 H587 0.929 . S
C580 C579 1.383 . S
C580 C581 1.377 . S
C581 H565 0.930 . S
C581 C580 1.377 . S
C581 C582 1.379 . S
C582 H566 0.931 . S
C582 C576 1.383 . S
C582 C581 1.379 . S
H583 C577 0.959 . S
H584 C577 0.961 . S
H585 C577 0.960 . S
H586 C578 0.930 . S
H587 C579 0.929 . S
H588 C596 0.929 . S
H589 C598 0.930 . S
H590 C600 0.930 . S
H591 C603 0.929 . S
H592 C606 0.930 . S
H593 C608 0.960 . S
H594 C608 0.960 . S
H595 C608 0.960 . S
C596 H588 0.929 . S
C596 C597 1.377 . S
C596 C598 1.384 . S
C597 C596 1.377 . S
C597 C603 1.390 . S
C598 H589 0.930 . S
C598 C596 1.384 . S
C598 C599 1.372 . S
C599 C598 1.372 . S
C599 C600 1.400 . S
C599 C604 1.490 . S
C600 H590 0.930 . S
C600 C599 1.400 . S
C600 C603 1.386 . S
H601 C617 0.930 . S
H602 C618 0.931 . S
C603 H591 0.929 . S
C603 C597 1.390 . S
C603 C600 1.386 . S
C604 C599 1.490 . S
C604 C606 1.395 . S
C604 C607 1.403 . S
H605 C611 0.930 . S
C606 H592 0.930 . S
C606 C604 1.395 . S
C606 C609 1.403 . S
C607 C604 1.403 . S
C607 C608 1.524 . S
C607 C611 1.400 . S
C608 H593 0.960 . S
C608 H594 0.960 . S
C608 H595 0.960 . S
C608 C607 1.524 . S
C609 C606 1.403 . S
C609 C610 1.392 . S
C609 C613 1.495 . S
C610 C609 1.392 . S
C610 C611 1.385 . S
C610 C612 1.478 . S
C611 H605 0.930 . S
C611 C607 1.400 . S
C611 C610 1.385 . S
C612 C610 1.478 . S
C612 C614 1.381 . S
C612 C618 1.383 . S
C613 C609 1.495 . S
C613 H619 0.959 . S
C613 H620 0.961 . S
C613 H621 0.960 . S
C614 C612 1.381 . S
C614 C615 1.394 . S
C614 H622 0.930 . S
C615 C614 1.394 . S
C615 C616 1.383 . S
C615 H623 0.929 . S
C616 C615 1.383 . S
C616 C617 1.377 . S
C617 H601 0.930 . S
C617 C616 1.377 . S
C617 C618 1.379 . S
C618 H602 0.931 . S
C618 C612 1.383 . S
C618 C617 1.379 . S
H619 C613 0.959 . S
H620 C613 0.961 . S
H621 C613 0.960 . S
H622 C614 0.930 . S
H623 C615 0.929 . S
H624 C632 0.929 . S
H625 C634 0.930 . S
H626 C636 0.930 . S
H627 C639 0.929 . S
H628 C642 0.930 . S
H629 C644 0.960 . S
H630 C644 0.960 . S
H631 C644 0.960 . S
C632 H624 0.929 . S
C632 C633 1.377 . S
C632 C634 1.384 . S
C633 C632 1.377 . S
C633 C639 1.390 . S
C634 H625 0.930 . S
C634 C632 1.384 . S
C634 C635 1.372 . S
C635 C634 1.372 . S
C635 C636 1.400 . S
C635 C640 1.490 . S
C636 H626 0.930 . S
C636 C635 1.400 . S
C636 C639 1.386 . S
H637 C653 0.930 . S
H638 C654 0.931 . S
C639 H627 0.929 . S
C639 C633 1.390 . S
C639 C636 1.386 . S
C640 C635 1.490 . S
C640 C642 1.395 . S
C640 C643 1.403 . S
H641 C647 0.930 . S
C642 H628 0.930 . S
C642 C640 1.395 . S
C642 C645 1.403 . S
C643 C640 1.403 . S
C643 C644 1.524 . S
C643 C647 1.400 . S
C644 H629 0.960 . S
C644 H630 0.960 . S
C644 H631 0.960 . S
C644 C643 1.524 . S
C645 C642 1.403 . S
C645 C646 1.392 . S
C645 C649 1.495 . S
C646 C645 1.392 . S
C646 C647 1.385 . S
C646 C648 1.478 . S
C647 H641 0.930 . S
C647 C643 1.400 . S
C647 C646 1.385 . S
C648 C646 1.478 . S
C648 C650 1.381 . S
C648 C654 1.383 . S
C649 C645 1.495 . S
C649 H655 0.959 . S
C649 H656 0.961 . S
C649 H657 0.960 . S
C650 C648 1.381 . S
C650 C651 1.394 . S
C650 H658 0.930 . S
C651 C650 1.394 . S
C651 C652 1.383 . S
C651 H659 0.929 . S
C652 C651 1.383 . S
C652 C653 1.377 . S
C653 H637 0.930 . S
C653 C652 1.377 . S
C653 C654 1.379 . S
C654 H638 0.931 . S
C654 C648 1.383 . S
C654 C653 1.379 . S
H655 C649 0.959 . S
H656 C649 0.961 . S
H657 C649 0.960 . S
H658 C650 0.930 . S
H659 C651 0.929 . S
H660 C668 0.929 . S
H661 C670 0.930 . S
H662 C672 0.930 . S
H663 C675 0.929 . S
H664 C678 0.930 . S
H665 C680 0.960 . S
H666 C680 0.960 . S
H667 C680 0.960 . S
C668 H660 0.929 . S
C668 C669 1.377 . S
C668 C670 1.384 . S
C669 C668 1.377 . S
C669 C675 1.390 . S
C670 H661 0.930 . S
C670 C668 1.384 . S
C670 C671 1.372 . S
C671 C670 1.372 . S
C671 C672 1.400 . S
C671 C676 1.490 . S
C672 H662 0.930 . S
C672 C671 1.400 . S
C672 C675 1.386 . S
H673 C689 0.930 . S
H674 C690 0.931 . S
C675 H663 0.929 . S
C675 C669 1.390 . S
C675 C672 1.386 . S
C676 C671 1.490 . S
C676 C678 1.395 . S
C676 C679 1.403 . S
H677 C683 0.930 . S
C678 H664 0.930 . S
C678 C676 1.395 . S
C678 C681 1.403 . S
C679 C676 1.403 . S
C679 C680 1.524 . S
C679 C683 1.400 . S
C680 H665 0.960 . S
C680 H666 0.960 . S
C680 H667 0.960 . S
C680 C679 1.524 . S
C681 C678 1.403 . S
C681 C682 1.392 . S
C681 C685 1.495 . S
C682 C681 1.392 . S
C682 C683 1.385 . S
C682 C684 1.478 . S
C683 H677 0.930 . S
C683 C679 1.400 . S
C683 C682 1.385 . S
C684 C682 1.478 . S
C684 C686 1.381 . S
C684 C690 1.383 . S
C685 C681 1.495 . S
C685 H691 0.959 . S
C685 H692 0.961 . S
C685 H693 0.960 . S
C686 C684 1.381 . S
C686 C687 1.394 . S
C686 H694 0.930 . S
C687 C686 1.394 . S
C687 C688 1.383 . S
C687 H695 0.929 . S
C688 C687 1.383 . S
C688 C689 1.377 . S
C689 H673 0.930 . S
C689 C688 1.377 . S
C689 C690 1.379 . S
C690 H674 0.931 . S
C690 C684 1.383 . S
C690 C689 1.379 . S
H691 C685 0.959 . S
H692 C685 0.961 . S
H693 C685 0.960 . S
H694 C686 0.930 . S
H695 C687 0.929 . S
H696 C704 0.929 . S
H697 C706 0.930 . S
H698 C708 0.930 . S
H699 C711 0.929 . S
H700 C714 0.930 . S
H701 C716 0.960 . S
H702 C716 0.960 . S
H703 C716 0.960 . S
C704 H696 0.929 . S
C704 C705 1.377 . S
C704 C706 1.384 . S
C705 C704 1.377 . S
C705 C711 1.390 . S
C706 H697 0.930 . S
C706 C704 1.384 . S
C706 C707 1.372 . S
C707 C706 1.372 . S
C707 C708 1.400 . S
C707 C712 1.490 . S
C708 H698 0.930 . S
C708 C707 1.400 . S
C708 C711 1.386 . S
H709 C725 0.930 . S
H710 C726 0.931 . S
C711 H699 0.929 . S
C711 C705 1.390 . S
C711 C708 1.386 . S
C712 C707 1.490 . S
C712 C714 1.395 . S
C712 C715 1.403 . S
H713 C719 0.930 . S
C714 H700 0.930 . S
C714 C712 1.395 . S
C714 C717 1.403 . S
C715 C712 1.403 . S
C715 C716 1.524 . S
C715 C719 1.400 . S
C716 H701 0.960 . S
C716 H702 0.960 . S
C716 H703 0.960 . S
C716 C715 1.524 . S
C717 C714 1.403 . S
C717 C718 1.392 . S
C717 C721 1.495 . S
C718 C717 1.392 . S
C718 C719 1.385 . S
C718 C720 1.478 . S
C719 H713 0.930 . S
C719 C715 1.400 . S
C719 C718 1.385 . S
C720 C718 1.478 . S
C720 C722 1.381 . S
C720 C726 1.383 . S
C721 C717 1.495 . S
C721 H727 0.959 . S
C721 H728 0.961 . S
C721 H729 0.960 . S
C722 C720 1.381 . S
C722 C723 1.394 . S
C722 H730 0.930 . S
C723 C722 1.394 . S
C723 C724 1.383 . S
C723 H731 0.929 . S
C724 C723 1.383 . S
C724 C725 1.377 . S
C725 H709 0.930 . S
C725 C724 1.377 . S
C725 C726 1.379 . S
C726 H710 0.931 . S
C726 C720 1.383 . S
C726 C725 1.379 . S
H727 C721 0.959 . S
H728 C721 0.961 . S
H729 C721 0.960 . S
H730 C722 0.930 . S
H731 C723 0.929 . S
H732 C740 0.929 . S
H733 C742 0.930 . S
H734 C744 0.930 . S
H735 C747 0.929 . S
H736 C750 0.930 . S
H737 C752 0.960 . S
H738 C752 0.960 . S
H739 C752 0.960 . S
C740 H732 0.929 . S
C740 C741 1.377 . S
C740 C742 1.384 . S
C741 C740 1.377 . S
C741 C747 1.390 . S
C742 H733 0.930 . S
C742 C740 1.384 . S
C742 C743 1.372 . S
C743 C742 1.372 . S
C743 C744 1.400 . S
C743 C748 1.490 . S
C744 H734 0.930 . S
C744 C743 1.400 . S
C744 C747 1.386 . S
H745 C761 0.930 . S
H746 C762 0.931 . S
C747 H735 0.929 . S
C747 C741 1.390 . S
C747 C744 1.386 . S
C748 C743 1.490 . S
C748 C750 1.395 . S
C748 C751 1.403 . S
H749 C755 0.930 . S
C750 H736 0.930 . S
C750 C748 1.395 . S
C750 C753 1.403 . S
C751 C748 1.403 . S
C751 C752 1.524 . S
C751 C755 1.400 . S
C752 H737 0.960 . S
C752 H738 0.960 . S
C752 H739 0.960 . S
C752 C751 1.524 . S
C753 C750 1.403 . S
C753 C754 1.392 . S
C753 C757 1.495 . S
C754 C753 1.392 . S
C754 C755 1.385 . S
C754 C756 1.478 . S
C755 H749 0.930 . S
C755 C751 1.400 . S
C755 C754 1.385 . S
C756 C754 1.478 . S
C756 C758 1.381 . S
C756 C762 1.383 . S
C757 C753 1.495 . S
C757 H763 0.959 . S
C757 H764 0.961 . S
C757 H765 0.960 . S
C758 C756 1.381 . S
C758 C759 1.394 . S
C758 H766 0.930 . S
C759 C758 1.394 . S
C759 C760 1.383 . S
C759 H767 0.929 . S
C760 C759 1.383 . S
C760 C761 1.377 . S
C761 H745 0.930 . S
C761 C760 1.377 . S
C761 C762 1.379 . S
C762 H746 0.931 . S
C762 C756 1.383 . S
C762 C761 1.379 . S
H763 C757 0.959 . S
H764 C757 0.961 . S
H765 C757 0.960 . S
H766 C758 0.930 . S
H767 C759 0.929 . S
H768 C776 0.929 . S
H769 C778 0.930 . S
H770 C780 0.930 . S
H771 C783 0.929 . S
H772 C786 0.930 . S
H773 C788 0.960 . S
H774 C788 0.960 . S
H775 C788 0.960 . S
C776 H768 0.929 . S
C776 C777 1.377 . S
C776 C778 1.384 . S
C777 C776 1.377 . S
C777 C783 1.390 . S
C778 H769 0.930 . S
C778 C776 1.384 . S
C778 C779 1.372 . S
C779 C778 1.372 . S
C779 C780 1.400 . S
C779 C784 1.490 . S
C780 H770 0.930 . S
C780 C779 1.400 . S
C780 C783 1.386 . S
H781 C797 0.930 . S
H782 C798 0.931 . S
C783 H771 0.929 . S
C783 C777 1.390 . S
C783 C780 1.386 . S
C784 C779 1.490 . S
C784 C786 1.395 . S
C784 C787 1.403 . S
H785 C791 0.930 . S
C786 H772 0.930 . S
C786 C784 1.395 . S
C786 C789 1.403 . S
C787 C784 1.403 . S
C787 C788 1.524 . S
C787 C791 1.400 . S
C788 H773 0.960 . S
C788 H774 0.960 . S
C788 H775 0.960 . S
C788 C787 1.524 . S
C789 C786 1.403 . S
C789 C790 1.392 . S
C789 C793 1.495 . S
C790 C789 1.392 . S
C790 C791 1.385 . S
C790 C792 1.478 . S
C791 H785 0.930 . S
C791 C787 1.400 . S
C791 C790 1.385 . S
C792 C790 1.478 . S
C792 C794 1.381 . S
C792 C798 1.383 . S
C793 C789 1.495 . S
C793 H799 0.959 . S
C793 H800 0.961 . S
C793 H801 0.960 . S
C794 C792 1.381 . S
C794 C795 1.394 . S
C794 H802 0.930 . S
C795 C794 1.394 . S
C795 C796 1.383 . S
C795 H803 0.929 . S
C796 C795 1.383 . S
C796 C797 1.377 . S
C797 H781 0.930 . S
C797 C796 1.377 . S
C797 C798 1.379 . S
C798 H782 0.931 . S
C798 C792 1.383 . S
C798 C797 1.379 . S
H799 C793 0.959 . S
H800 C793 0.961 . S
H801 C793 0.960 . S
H802 C794 0.930 . S
H803 C795 0.929 . S
H804 C812 0.929 . S
H805 C814 0.930 . S
H806 C816 0.930 . S
H807 C819 0.929 . S
H808 C822 0.930 . S
H809 C824 0.960 . S
H810 C824 0.960 . S
H811 C824 0.960 . S
C812 H804 0.929 . S
C812 C813 1.377 . S
C812 C814 1.384 . S
C813 C812 1.377 . S
C813 C819 1.390 . S
C814 H805 0.930 . S
C814 C812 1.384 . S
C814 C815 1.372 . S
C815 C814 1.372 . S
C815 C816 1.400 . S
C815 C820 1.490 . S
C816 H806 0.930 . S
C816 C815 1.400 . S
C816 C819 1.386 . S
H817 C833 0.930 . S
H818 C834 0.931 . S
C819 H807 0.929 . S
C819 C813 1.390 . S
C819 C816 1.386 . S
C820 C815 1.490 . S
C820 C822 1.395 . S
C820 C823 1.403 . S
H821 C827 0.930 . S
C822 H808 0.930 . S
C822 C820 1.395 . S
C822 C825 1.403 . S
C823 C820 1.403 . S
C823 C824 1.524 . S
C823 C827 1.400 . S
C824 H809 0.960 . S
C824 H810 0.960 . S
C824 H811 0.960 . S
C824 C823 1.524 . S
C825 C822 1.403 . S
C825 C826 1.392 . S
C825 C829 1.495 . S
C826 C825 1.392 . S
C826 C827 1.385 . S
C826 C828 1.478 . S
C827 H821 0.930 . S
C827 C823 1.400 . S
C827 C826 1.385 . S
C828 C826 1.478 . S
C828 C830 1.381 . S
C828 C834 1.383 . S
C829 C825 1.495 . S
C829 H835 0.959 . S
C829 H836 0.961 . S
C829 H837 0.960 . S
C830 C828 1.381 . S
C830 C831 1.394 . S
C830 H838 0.930 . S
C831 C830 1.394 . S
C831 C832 1.383 . S
C831 H839 0.929 . S
C832 C831 1.383 . S
C832 C833 1.377 . S
C833 H817 0.930 . S
C833 C832 1.377 . S
C833 C834 1.379 . S
C834 H818 0.931 . S
C834 C828 1.383 . S
C834 C833 1.379 . S
H835 C829 0.959 . S
H836 C829 0.961 . S
H837 C829 0.960 . S
H838 C830 0.930 . S
H839 C831 0.929 . S
H840 C848 0.929 . S
H841 C850 0.930 . S
H842 C852 0.930 . S
H843 C855 0.929 . S
H844 C858 0.930 . S
H845 C860 0.960 . S
H846 C860 0.960 . S
H847 C860 0.960 . S
C848 H840 0.929 . S
C848 C849 1.377 . S
C848 C850 1.384 . S
C849 C848 1.377 . S
C849 C855 1.390 . S
C850 H841 0.930 . S
C850 C848 1.384 . S
C850 C851 1.372 . S
C851 C850 1.372 . S
C851 C852 1.400 . S
C851 C856 1.490 . S
C852 H842 0.930 . S
C852 C851 1.400 . S
C852 C855 1.386 . S
H853 C869 0.930 . S
H854 C870 0.931 . S
C855 H843 0.929 . S
C855 C849 1.390 . S
C855 C852 1.386 . S
C856 C851 1.490 . S
C856 C858 1.395 . S
C856 C859 1.403 . S
H857 C863 0.930 . S
C858 H844 0.930 . S
C858 C856 1.395 . S
C858 C861 1.403 . S
C859 C856 1.403 . S
C859 C860 1.524 . S
C859 C863 1.400 . S
C860 H845 0.960 . S
C860 H846 0.960 . S
C860 H847 0.960 . S
C860 C859 1.524 . S
C861 C858 1.403 . S
C861 C862 1.392 . S
C861 C865 1.495 . S
C862 C861 1.392 . S
C862 C863 1.385 . S
C862 C864 1.478 . S
C863 H857 0.930 . S
C863 C859 1.400 . S
C863 C862 1.385 . S
C864 C862 1.478 . S
C864 C866 1.381 . S
C864 C870 1.383 . S
C865 C861 1.495 . S
C865 H871 0.959 . S
C865 H872 0.961 . S
C865 H873 0.960 . S
C866 C864 1.381 . S
C866 C867 1.394 . S
C866 H874 0.930 . S
C867 C866 1.394 . S
C867 C868 1.383 . S
C867 H875 0.929 . S
C868 C867 1.383 . S
C868 C869 1.377 . S
C869 H853 0.930 . S
C869 C868 1.377 . S
C869 C870 1.379 . S
C870 H854 0.931 . S
C870 C864 1.383 . S
C870 C869 1.379 . S
H871 C865 0.959 . S
H872 C865 0.961 . S
H873 C865 0.960 . S
H874 C866 0.930 . S
H875 C867 0.929 . S
H876 C884 0.929 . S
H877 C886 0.930 . S
H878 C888 0.930 . S
H879 C891 0.929 . S
H880 C894 0.930 . S
H881 C896 0.960 . S
H882 C896 0.960 . S
H883 C896 0.960 . S
C884 H876 0.929 . S
C884 C885 1.377 . S
C884 C886 1.384 . S
C885 C884 1.377 . S
C885 C891 1.390 . S
C886 H877 0.930 . S
C886 C884 1.384 . S
C886 C887 1.372 . S
C887 C886 1.372 . S
C887 C888 1.400 . S
C887 C892 1.490 . S
C888 H878 0.930 . S
C888 C887 1.400 . S
C888 C891 1.386 . S
H889 C905 0.930 . S
H890 C906 0.931 . S
C891 H879 0.929 . S
C891 C885 1.390 . S
C891 C888 1.386 . S
C892 C887 1.490 . S
C892 C894 1.395 . S
C892 C895 1.403 . S
H893 C899 0.930 . S
C894 H880 0.930 . S
C894 C892 1.395 . S
C894 C897 1.403 . S
C895 C892 1.403 . S
C895 C896 1.524 . S
C895 C899 1.400 . S
C896 H881 0.960 . S
C896 H882 0.960 . S
C896 H883 0.960 . S
C896 C895 1.524 . S
C897 C894 1.403 . S
C897 C898 1.392 . S
C897 C901 1.495 . S
C898 C897 1.392 . S
C898 C899 1.385 . S
C898 C900 1.478 . S
C899 H893 0.930 . S
C899 C895 1.400 . S
C899 C898 1.385 . S
C900 C898 1.478 . S
C900 C902 1.381 . S
C900 C906 1.383 . S
C901 C897 1.495 . S
C901 H907 0.959 . S
C901 H908 0.961 . S
C901 H909 0.960 . S
C902 C900 1.381 . S
C902 C903 1.394 . S
C902 H910 0.930 . S
C903 C902 1.394 . S
C903 C904 1.383 . S
C903 H911 0.929 . S
C904 C903 1.383 . S
C904 C905 1.377 . S
C905 H889 0.930 . S
C905 C904 1.377 . S
C905 C906 1.379 . S
C906 H890 0.931 . S
C906 C900 1.383 . S
C906 C905 1.379 . S
H907 C901 0.959 . S
H908 C901 0.961 . S
H909 C901 0.960 . S
H910 C902 0.930 . S
H911 C903 0.929 . S
H912 C920 0.929 . S
H913 C922 0.930 . S
H914 C924 0.930 . S
H915 C927 0.929 . S
H916 C930 0.930 . S
H917 C932 0.960 . S
H918 C932 0.960 . S
H919 C932 0.960 . S
C920 H912 0.929 . S
C920 C921 1.377 . S
C920 C922 1.384 . S
C921 C920 1.377 . S
C921 C927 1.390 . S
C922 H913 0.930 . S
C922 C920 1.384 . S
C922 C923 1.372 . S
C923 C922 1.372 . S
C923 C924 1.400 . S
C923 C928 1.490 . S
C924 H914 0.930 . S
C924 C923 1.400 . S
C924 C927 1.386 . S
H925 C941 0.930 . S
H926 C942 0.931 . S
C927 H915 0.929 . S
C927 C921 1.390 . S
C927 C924 1.386 . S
C928 C923 1.490 . S
C928 C930 1.395 . S
C928 C931 1.403 . S
H929 C935 0.930 . S
C930 H916 0.930 . S
C930 C928 1.395 . S
C930 C933 1.403 . S
C931 C928 1.403 . S
C931 C932 1.524 . S
C931 C935 1.400 . S
C932 H917 0.960 . S
C932 H918 0.960 . S
C932 H919 0.960 . S
C932 C931 1.524 . S
C933 C930 1.403 . S
C933 C934 1.392 . S
C933 C937 1.495 . S
C934 C933 1.392 . S
C934 C935 1.385 . S
C934 C936 1.478 . S
C935 H929 0.930 . S
C935 C931 1.400 . S
C935 C934 1.385 . S
C936 C934 1.478 . S
C936 C938 1.381 . S
C936 C942 1.383 . S
C937 C933 1.495 . S
C937 H943 0.959 . S
C937 H944 0.961 . S
C937 H945 0.960 . S
C938 C936 1.381 . S
C938 C939 1.394 1_554 S
C938 H946 0.930 . S
C939 C938 1.394 1_556 S
C939 C940 1.383 . S
C939 H947 0.929 . S
C940 C939 1.383 . S
C940 C941 1.377 . S
C941 H925 0.930 . S
C941 C940 1.377 . S
C941 C942 1.379 1_556 S
C942 H926 0.931 . S
C942 C936 1.383 . S
C942 C941 1.379 1_554 S
H943 C937 0.959 . S
H944 C937 0.961 . S
H945 C937 0.960 . S
H946 C938 0.930 . S
H947 C939 0.929 . S
H948 C956 0.929 . S
H949 C958 0.930 . S
H950 C960 0.930 . S
H951 C963 0.929 . S
H952 C966 0.930 . S
H953 C968 0.960 . S
H954 C968 0.960 . S
H955 C968 0.960 . S
C956 H948 0.929 . S
C956 C957 1.377 . S
C956 C958 1.384 . S
C957 C956 1.377 . S
C957 C963 1.390 . S
C958 H949 0.930 . S
C958 C956 1.384 . S
C958 C959 1.372 . S
C959 C958 1.372 . S
C959 C960 1.400 . S
C959 C964 1.490 . S
C960 H950 0.930 . S
C960 C959 1.400 . S
C960 C963 1.386 . S
H961 C977 0.930 . S
H962 C978 0.931 . S
C963 H951 0.929 . S
C963 C957 1.390 . S
C963 C960 1.386 . S
C964 C959 1.490 . S
C964 C966 1.395 . S
C964 C967 1.403 . S
H965 C971 0.930 . S
C966 H952 0.930 . S
C966 C964 1.395 . S
C966 C969 1.403 . S
C967 C964 1.403 . S
C967 C968 1.524 1_545 S
C967 C971 1.400 . S
C968 H953 0.960 . S
C968 H954 0.960 . S
C968 H955 0.960 . S
C968 C967 1.524 1_565 S
C969 C966 1.403 . S
C969 C970 1.392 . S
C969 C973 1.495 . S
C970 C969 1.392 . S
C970 C971 1.385 . S
C970 C972 1.478 . S
C971 H965 0.930 . S
C971 C967 1.400 . S
C971 C970 1.385 . S
C972 C970 1.478 . S
C972 C974 1.381 . S
C972 C978 1.383 . S
C973 C969 1.495 . S
C973 H979 0.959 . S
C973 H980 0.961 . S
C973 H981 0.960 . S
C974 C972 1.381 . S
C974 C975 1.394 . S
C974 H982 0.930 . S
C975 C974 1.394 . S
C975 C976 1.383 . S
C975 H983 0.929 . S
C976 C975 1.383 . S
C976 C977 1.377 . S
C977 H961 0.930 . S
C977 C976 1.377 . S
C977 C978 1.379 . S
C978 H962 0.931 . S
C978 C972 1.383 . S
C978 C977 1.379 . S
H979 C973 0.959 . S
H980 C973 0.961 . S
H981 C973 0.960 . S
H982 C974 0.930 . S
H983 C975 0.929 . S
H984 C992 0.929 . S
H985 C994 0.930 . S
H986 C996 0.930 . S
H987 C999 0.929 . S
H988 C1002 0.930 . S
H989 C1004 0.960 . S
H990 C1004 0.960 . S
H991 C1004 0.960 . S
C992 H984 0.929 . S
C992 C993 1.377 . S
C992 C994 1.384 . S
C993 C992 1.377 . S
C993 C999 1.390 . S
C994 H985 0.930 . S
C994 C992 1.384 . S
C994 C995 1.372 . S
C995 C994 1.372 . S
C995 C996 1.400 . S
C995 C1000 1.490 . S
C996 H986 0.930 . S
C996 C995 1.400 . S
C996 C999 1.386 . S
H997 C1013 0.930 . S
H998 C1014 0.931 . S
C999 H987 0.929 . S
C999 C993 1.390 . S
C999 C996 1.386 . S
C1000 C995 1.490 . S
C1000 C1002 1.395 . S
C1000 C1003 1.403 . S
H1001 C1007 0.930 . S
C1002 H988 0.930 . S
C1002 C1000 1.395 . S
C1002 C1005 1.403 . S
C1003 C1000 1.403 . S
C1003 C1004 1.524 . S
C1003 C1007 1.400 . S
C1004 H989 0.960 . S
C1004 H990 0.960 . S
C1004 H991 0.960 . S
C1004 C1003 1.524 . S
C1005 C1002 1.403 . S
C1005 C1006 1.392 . S
C1005 C1009 1.495 . S
C1006 C1005 1.392 . S
C1006 C1007 1.385 . S
C1006 C1008 1.478 . S
C1007 H1001 0.930 . S
C1007 C1003 1.400 . S
C1007 C1006 1.385 . S
C1008 C1006 1.478 . S
C1008 C1010 1.381 . S
C1008 C1014 1.383 . S
C1009 C1005 1.495 . S
C1009 H1015 0.959 . S
C1009 H1016 0.961 . S
C1009 H1017 0.960 . S
C1010 C1008 1.381 . S
C1010 C1011 1.394 . S
C1010 H1018 0.930 . S
C1011 C1010 1.394 . S
C1011 C1012 1.383 . S
C1011 H1019 0.929 . S
C1012 C1011 1.383 . S
C1012 C1013 1.377 . S
C1013 H997 0.930 . S
C1013 C1012 1.377 . S
C1013 C1014 1.379 . S
C1014 H998 0.931 . S
C1014 C1008 1.383 . S
C1014 C1013 1.379 . S
H1015 C1009 0.959 . S
H1016 C1009 0.961 . S
H1017 C1009 0.960 . S
H1018 C1010 0.930 . S
H1019 C1011 0.929 . S
H1020 C1028 0.929 . S
H1021 C1030 0.930 . S
H1022 C1032 0.930 . S
H1023 C1035 0.929 . S
H1024 C1038 0.930 . S
H1025 C1040 0.960 . S
H1026 C1040 0.960 . S
H1027 C1040 0.960 . S
C1028 H1020 0.929 . S
C1028 C1029 1.377 . S
C1028 C1030 1.384 . S
C1029 C1028 1.377 . S
C1029 C1035 1.390 1_545 S
C1030 H1021 0.930 . S
C1030 C1028 1.384 . S
C1030 C1031 1.372 . S
C1031 C1030 1.372 . S
C1031 C1032 1.400 1_545 S
C1031 C1036 1.490 . S
C1032 H1022 0.930 . S
C1032 C1031 1.400 1_565 S
C1032 C1035 1.386 . S
H1033 C1049 0.930 . S
H1034 C1050 0.931 . S
C1035 H1023 0.929 . S
C1035 C1029 1.390 1_565 S
C1035 C1032 1.386 . S
C1036 C1031 1.490 . S
C1036 C1038 1.395 . S
C1036 C1039 1.403 1_545 S
H1037 C1043 0.930 . S
C1038 H1024 0.930 . S
C1038 C1036 1.395 . S
C1038 C1041 1.403 . S
C1039 C1036 1.403 1_565 S
C1039 C1040 1.524 . S
C1039 C1043 1.400 . S
C1040 H1025 0.960 . S
C1040 H1026 0.960 . S
C1040 H1027 0.960 . S
C1040 C1039 1.524 . S
C1041 C1038 1.403 . S
C1041 C1042 1.392 . S
C1041 C1045 1.495 . S
C1042 C1041 1.392 . S
C1042 C1043 1.385 1_545 S
C1042 C1044 1.478 . S
C1043 H1037 0.930 . S
C1043 C1039 1.400 . S
C1043 C1042 1.385 1_565 S
C1044 C1042 1.478 . S
C1044 C1046 1.381 . S
C1044 C1050 1.383 1_545 S
C1045 C1041 1.495 . S
C1045 H1051 0.959 . S
C1045 H1052 0.961 . S
C1045 H1053 0.960 . S
C1046 C1044 1.381 . S
C1046 C1047 1.394 . S
C1046 H1054 0.930 . S
C1047 C1046 1.394 . S
C1047 C1048 1.383 1_545 S
C1047 H1055 0.929 . S
C1048 C1047 1.383 1_565 S
C1048 C1049 1.377 . S
C1049 H1033 0.930 . S
C1049 C1048 1.377 . S
C1049 C1050 1.379 . S
C1050 H1034 0.931 . S
C1050 C1044 1.383 1_565 S
C1050 C1049 1.379 . S
H1051 C1045 0.959 . S
H1052 C1045 0.961 . S
H1053 C1045 0.960 . S
H1054 C1046 0.930 . S
H1055 C1047 0.929 . S
H1056 C1064 0.929 . S
H1057 C1066 0.930 . S
H1058 C1068 0.930 . S
H1059 C1071 0.929 . S
H1060 C1074 0.930 . S
H1061 C1076 0.960 . S
H1062 C1076 0.960 . S
H1063 C1076 0.960 . S
C1064 H1056 0.929 . S
C1064 C1065 1.377 . S
C1064 C1066 1.384 . S
C1065 C1064 1.377 . S
C1065 C1071 1.390 . S
C1066 H1057 0.930 . S
C1066 C1064 1.384 . S
C1066 C1067 1.372 . S
C1067 C1066 1.372 . S
C1067 C1068 1.400 . S
C1067 C1072 1.490 . S
C1068 H1058 0.930 . S
C1068 C1067 1.400 . S
C1068 C1071 1.386 . S
H1069 C1085 0.930 . S
H1070 C1086 0.931 . S
C1071 H1059 0.929 . S
C1071 C1065 1.390 . S
C1071 C1068 1.386 . S
C1072 C1067 1.490 . S
C1072 C1074 1.395 . S
C1072 C1075 1.403 . S
H1073 C1079 0.930 . S
C1074 H1060 0.930 . S
C1074 C1072 1.395 . S
C1074 C1077 1.403 . S
C1075 C1072 1.403 . S
C1075 C1076 1.524 . S
C1075 C1079 1.400 . S
C1076 H1061 0.960 . S
C1076 H1062 0.960 . S
C1076 H1063 0.960 . S
C1076 C1075 1.524 . S
C1077 C1074 1.403 . S
C1077 C1078 1.392 . S
C1077 C1081 1.495 . S
C1078 C1077 1.392 . S
C1078 C1079 1.385 . S
C1078 C1080 1.478 . S
C1079 H1073 0.930 . S
C1079 C1075 1.400 . S
C1079 C1078 1.385 . S
C1080 C1078 1.478 . S
C1080 C1082 1.381 . S
C1080 C1086 1.383 . S
C1081 C1077 1.495 . S
C1081 H1087 0.959 . S
C1081 H1088 0.961 . S
C1081 H1089 0.960 . S
C1082 C1080 1.381 . S
C1082 C1083 1.394 1_556 S
C1082 H1090 0.930 . S
C1083 C1082 1.394 1_554 S
C1083 C1084 1.383 . S
C1083 H1091 0.929 . S
C1084 C1083 1.383 . S
C1084 C1085 1.377 . S
C1085 H1069 0.930 . S
C1085 C1084 1.377 . S
C1085 C1086 1.379 1_554 S
C1086 H1070 0.931 . S
C1086 C1080 1.383 . S
C1086 C1085 1.379 1_556 S
H1087 C1081 0.959 . S
H1088 C1081 0.961 . S
H1089 C1081 0.960 . S
H1090 C1082 0.930 . S
H1091 C1083 0.929 . S
H1092 C1100 0.929 . S
H1093 C1102 0.930 . S
H1094 C1104 0.930 . S
H1095 C1107 0.929 . S
H1096 C1110 0.930 . S
H1097 C1112 0.960 . S
H1098 C1112 0.960 . S
H1099 C1112 0.960 . S
C1100 H1092 0.929 . S
C1100 C1101 1.377 . S
C1100 C1102 1.384 . S
C1101 C1100 1.377 . S
C1101 C1107 1.390 . S
C1102 H1093 0.930 . S
C1102 C1100 1.384 . S
C1102 C1103 1.372 . S
C1103 C1102 1.372 . S
C1103 C1104 1.400 . S
C1103 C1108 1.490 . S
C1104 H1094 0.930 . S
C1104 C1103 1.400 . S
C1104 C1107 1.386 . S
H1105 C1121 0.930 . S
H1106 C1122 0.931 . S
C1107 H1095 0.929 . S
C1107 C1101 1.390 . S
C1107 C1104 1.386 . S
C1108 C1103 1.490 . S
C1108 C1110 1.395 . S
C1108 C1111 1.403 1_455 S
H1109 C1115 0.930 . S
C1110 H1096 0.930 . S
C1110 C1108 1.395 . S
C1110 C1113 1.403 . S
C1111 C1108 1.403 1_655 S
C1111 C1112 1.524 . S
C1111 C1115 1.400 . S
C1112 H1097 0.960 . S
C1112 H1098 0.960 . S
C1112 H1099 0.960 . S
C1112 C1111 1.524 . S
C1113 C1110 1.403 . S
C1113 C1114 1.392 . S
C1113 C1117 1.495 . S
C1114 C1113 1.392 . S
C1114 C1115 1.385 1_455 S
C1114 C1116 1.478 . S
C1115 H1109 0.930 . S
C1115 C1111 1.400 . S
C1115 C1114 1.385 1_655 S
C1116 C1114 1.478 . S
C1116 C1118 1.381 1_455 S
C1116 C1122 1.383 . S
C1117 C1113 1.495 . S
C1117 H1123 0.959 . S
C1117 H1124 0.961 . S
C1117 H1125 0.960 . S
C1118 C1116 1.381 1_655 S
C1118 C1119 1.394 . S
C1118 H1126 0.930 . S
C1119 C1118 1.394 . S
C1119 C1120 1.385 1_655 S
C1119 H1127 0.929 . S
C1120 C1119 1.385 1_455 S
C1120 C1121 1.379 . S
C1121 H1105 0.930 . S
C1121 C1120 1.379 . S
C1121 C1122 1.379 . S
C1122 H1106 0.931 . S
C1122 C1116 1.383 . S
C1122 C1121 1.379 . S
H1123 C1117 0.959 . S
H1124 C1117 0.961 . S
H1125 C1117 0.960 . S
H1126 C1118 0.930 . S
H1127 C1119 0.929 . S
C489 C25 0.307 . S
C508 C451 0.266 . S
C525 C65 0.281 . S
C544 C301 0.350 . S
C561 C105 0.340 . S
C580 C361 0.270 . S
C597 C4 0.316 . S
C616 C421 0.261 . S
C652 C331 0.271 . S
C633 C44 0.271 . S
C688 C391 0.293 . S
C669 C84 0.330 . S
C705 C60 2.823 . S
C724 C181 2.688 . S
C741 C100 3.033 . S
C760 C271 3.014 . S
C777 C31 3.039 . S
C796 C151 3.036 . S
C832 C211 3.013 . S
C813 C71 3.024 . S
C868 C241 2.699 . S
C849 C111 2.813 . S
C885 C20 2.819 . S
C904 C121 2.695 . S
C940 C260 1.770 . S
C921 C2 1.732 . S
C957 C42 1.736 . S
C976 C140 1.742 . S
C993 C82 1.743 . S
C1012 C200 1.754 . S
C1048 C380 1.038 . S
C1029 C63 1.065 . S
C1084 C440 1.087 . S
C1065 C103 1.097 . S
C1101 C23 1.072 . S
C1120 C320 1.063 . S
