# Generated by pormake.
# Topology apo, (3,6)-cn, num edge types: 1
# Building blocks:
#     Node 0, Type 0, BuildingBlock: BETDIP_clean_linker_0, # of connection points: 3
#     Node 1, Type 0, BuildingBlock: BETDIP_clean_linker_0, # of connection points: 3
#     Node 2, Type 0, BuildingBlock: BETDIP_clean_linker_0, # of connection points: 3
#     Node 3, Type 0, BuildingBlock: BETDIP_clean_linker_0, # of connection points: 3
#     Node 4, Type 0, BuildingBlock: BETDIP_clean_linker_0, # of connection points: 3
#     Node 5, Type 0, BuildingBlock: BETDIP_clean_linker_0, # of connection points: 3
#     Node 6, Type 0, BuildingBlock: BETDIP_clean_linker_0, # of connection points: 3
#     Node 7, Type 0, BuildingBlock: BETDIP_clean_linker_0, # of connection points: 3
#     Node 8, Type 1, BuildingBlock: KUMBOL_clean_sbu_1, # of connection points: 6
#     Node 9, Type 1, BuildingBlock: KUMBOL_clean_sbu_1, # of connection points: 6
#     Node 10, Type 1, BuildingBlock: KUMBOL_clean_sbu_1, # of connection points: 6
#     Node 11, Type 1, BuildingBlock: KUMBOL_clean_sbu_1, # of connection points: 6
#     Edge 12, Type (0, 1), BuildingBlock: UVAHIK_clean_linker_0, # of connection points: 2
#     Edge 13, Type (0, 1), BuildingBlock: UVAHIK_clean_linker_0, # of connection points: 2
#     Edge 14, Type (0, 1), BuildingBlock: UVAHIK_clean_linker_0, # of connection points: 2
#     Edge 15, Type (0, 1), BuildingBlock: UVAHIK_clean_linker_0, # of connection points: 2
#     Edge 16, Type (0, 1), BuildingBlock: UVAHIK_clean_linker_0, # of connection points: 2
#     Edge 17, Type (0, 1), BuildingBlock: UVAHIK_clean_linker_0, # of connection points: 2
#     Edge 18, Type (0, 1), BuildingBlock: UVAHIK_clean_linker_0, # of connection points: 2
#     Edge 19, Type (0, 1), BuildingBlock: UVAHIK_clean_linker_0, # of connection points: 2
#     Edge 20, Type (0, 1), BuildingBlock: UVAHIK_clean_linker_0, # of connection points: 2
#     Edge 21, Type (0, 1), BuildingBlock: UVAHIK_clean_linker_0, # of connection points: 2
#     Edge 22, Type (0, 1), BuildingBlock: UVAHIK_clean_linker_0, # of connection points: 2
#     Edge 23, Type (0, 1), BuildingBlock: UVAHIK_clean_linker_0, # of connection points: 2
#     Edge 24, Type (0, 1), BuildingBlock: UVAHIK_clean_linker_0, # of connection points: 2
#     Edge 25, Type (0, 1), BuildingBlock: UVAHIK_clean_linker_0, # of connection points: 2
#     Edge 26, Type (0, 1), BuildingBlock: UVAHIK_clean_linker_0, # of connection points: 2
#     Edge 27, Type (0, 1), BuildingBlock: UVAHIK_clean_linker_0, # of connection points: 2
#     Edge 28, Type (0, 1), BuildingBlock: UVAHIK_clean_linker_0, # of connection points: 2
#     Edge 29, Type (0, 1), BuildingBlock: UVAHIK_clean_linker_0, # of connection points: 2
#     Edge 30, Type (0, 1), BuildingBlock: UVAHIK_clean_linker_0, # of connection points: 2
#     Edge 31, Type (0, 1), BuildingBlock: UVAHIK_clean_linker_0, # of connection points: 2
#     Edge 32, Type (0, 1), BuildingBlock: UVAHIK_clean_linker_0, # of connection points: 2
#     Edge 33, Type (0, 1), BuildingBlock: UVAHIK_clean_linker_0, # of connection points: 2
#     Edge 34, Type (0, 1), BuildingBlock: UVAHIK_clean_linker_0, # of connection points: 2
#     Edge 35, Type (0, 1), BuildingBlock: UVAHIK_clean_linker_0, # of connection points: 2
# Relax obj value: 0.038
# Max RMSD: 0.188
# Mean RMSD: 0.149
data_MOF--net-apo--node1-KUMBOL_clean_sbu_1--node2-BETDIP_clean_linker_0--edge1-UVAHIK_clean_linker_0
_symmetry_space_group_name_H-M    P1
_symmetry_Int_Tables_number       1
_symmetry_cell_setting            triclinic
loop_
_symmetry_equiv_pos_as_xyz
'x, y, z'
_cell_length_a     35.368599
_cell_length_b     54.875029
_cell_length_c     64.812236
_cell_angle_alpha  89.950771
_cell_angle_beta   90.093827
_cell_angle_gamma 90.25287
loop_
_atom_site_label
_atom_site_type_symbol
_atom_site_fract_x
_atom_site_fract_y
_atom_site_fract_z
_atom_type_partial_charge
H0 H 0.29609 0.34814 0.43875 0.0
H1 H 0.31101 0.37749 0.37783 0.0
H2 H 0.34804 0.41854 0.43068 0.0
H3 H 0.31352 0.3366 0.37005 0.0
C4 C 0.28964 0.33004 0.37904 0.0
C5 C 0.30599 0.36268 0.42877 0.0
C6 C 0.32301 0.38356 0.43731 0.0
C7 C 0.30179 0.36028 0.40737 0.0
C8 C 0.31433 0.3792 0.39436 0.0
C9 C 0.33115 0.40036 0.40258 0.0
C10 C 0.33513 0.40237 0.42411 0.0
N11 N 0.28389 0.339 0.39937 0.0
H12 H 0.22712 0.14954 0.93913 0.0
H13 H 0.21425 0.11883 0.87842 0.0
H14 H 0.1673 0.08168 0.93069 0.0
H15 H 0.26982 0.13761 0.87335 0.0
C16 C 0.2669 0.15489 0.88133 0.0
C17 C 0.21644 0.13524 0.92914 0.0
C18 C 0.19631 0.11543 0.93757 0.0
C19 C 0.22416 0.13628 0.90794 0.0
C20 C 0.20985 0.11788 0.89492 0.0
C21 C 0.18975 0.09801 0.90309 0.0
C22 C 0.1834 0.09681 0.92442 0.0
N23 N 0.24624 0.15599 0.90013 0.0
H24 H 0.75592 0.15669 0.57334 0.0
H25 H 0.77497 0.12009 0.63096 0.0
H26 H 0.83141 0.09517 0.57662 0.0
H27 H 0.7227 0.1377 0.64057 0.0
C28 C 0.72105 0.15492 0.6324 0.0
C29 C 0.76996 0.14249 0.58203 0.0
C30 C 0.79496 0.12635 0.57212 0.0
C31 C 0.76206 0.14029 0.60312 0.0
C32 C 0.77949 0.12164 0.61452 0.0
C33 C 0.80397 0.10508 0.60497 0.0
C34 C 0.812 0.10773 0.58386 0.0
N35 N 0.73733 0.1575 0.61244 0.0
H36 H 0.73441 0.34325 0.07554 0.0
H37 H 0.71437 0.38053 0.13265 0.0
H38 H 0.66425 0.40744 0.07706 0.0
H39 H 0.76194 0.36013 0.14425 0.0
C40 C 0.76452 0.34339 0.13551 0.0
C41 C 0.72095 0.35791 0.0839 0.0
C42 C 0.6981 0.37492 0.07341 0.0
C43 C 0.7275 0.35982 0.10516 0.0
C44 C 0.71092 0.37909 0.11614 0.0
C45 C 0.68874 0.39656 0.10602 0.0
C46 C 0.68195 0.39417 0.08474 0.0
N47 N 0.75027 0.34181 0.11499 0.0
H48 H 0.72483 0.64748 0.56965 0.0
H49 H 0.72048 0.61587 0.63029 0.0
H50 H 0.66789 0.57879 0.57936 0.0
H51 H 0.78412 0.63251 0.62867 0.0
C52 C 0.77527 0.65072 0.62421 0.0
C53 C 0.71572 0.63291 0.57981 0.0
C54 C 0.69534 0.61292 0.57183 0.0
C55 C 0.72593 0.6337 0.60071 0.0
C56 C 0.71379 0.61499 0.61399 0.0
C57 C 0.69283 0.59516 0.60638 0.0
C58 C 0.68431 0.59401 0.58524 0.0
N59 N 0.74814 0.65349 0.60816 0.0
H60 H 0.78178 0.8554 0.0719 0.0
H61 H 0.78945 0.88606 0.13288 0.0
H62 H 0.85267 0.91809 0.08341 0.0
H63 H 0.73112 0.86952 0.13563 0.0
C64 C 0.73454 0.85194 0.12819 0.0
C65 C 0.79334 0.86894 0.08234 0.0
C66 C 0.81835 0.88696 0.07493 0.0
C67 C 0.78204 0.86871 0.10309 0.0
C68 C 0.7967 0.88641 0.11667 0.0
C69 C 0.82217 0.9042 0.10962 0.0
C70 C 0.83293 0.90433 0.0888 0.0
N71 N 0.75685 0.85011 0.11001 0.0
H72 H 0.22339 0.84147 0.43944 0.0
H73 H 0.21071 0.87127 0.37868 0.0
H74 H 0.16449 0.90926 0.43091 0.0
H75 H 0.20421 0.82719 0.3727 0.0
C76 C 0.23054 0.823 0.38059 0.0
C77 C 0.2125 0.85564 0.42944 0.0
C78 C 0.19311 0.87561 0.43784 0.0
C79 C 0.21794 0.8537 0.40814 0.0
C80 C 0.20491 0.87228 0.39506 0.0
C81 C 0.18609 0.89267 0.40313 0.0
C82 C 0.18004 0.89404 0.42456 0.0
N83 N 0.23799 0.83338 0.40026 0.0
H84 H 0.26515 0.66051 0.93763 0.0
H85 H 0.28158 0.62384 0.87987 0.0
H86 H 0.3423 0.60012 0.93354 0.0
H87 H 0.22731 0.63963 0.87147 0.0
C88 C 0.22497 0.65687 0.87953 0.0
C89 C 0.27892 0.64642 0.92871 0.0
C90 C 0.30487 0.63061 0.93825 0.0
C91 C 0.26974 0.64393 0.9078 0.0
C92 C 0.28761 0.62573 0.89613 0.0
C93 C 0.31351 0.60967 0.90532 0.0
C94 C 0.32181 0.61214 0.92644 0.0
N95 N 0.24311 0.66033 0.89894 0.0
C96 C 0.90587 0.08154 0.2759 0.0
C97 C 0.92427 0.04371 0.29229 0.0
C98 C 0.93177 0.06828 0.28732 0.0
C99 C 0.8913 0.03244 0.28473 0.0
C100 C 0.8719 0.07068 0.2691 0.0
C101 C 0.86512 0.04591 0.27319 0.0
N102 N 0.91358 0.10532 0.27186 0.0
C103 C 0.88745 0.11983 0.26245 0.0
C104 C 0.84553 0.08519 0.25867 0.0
C105 C 0.85316 0.10995 0.25557 0.0
Gd106 Gd 0.05078 0.12668 0.23842 0.0
Gd107 Gd 0.97179 0.1204 0.28363 0.0
N108 N 0.96304 0.07986 0.29467 0.0
C109 C 0.94943 0.03149 0.30534 0.0
C110 C 0.98557 0.06871 0.30891 0.0
C111 C 0.97983 0.0442 0.31401 0.0
H112 H 0.00771 0.07875 0.31664 0.0
H113 H 0.99848 0.03526 0.32487 0.0
H114 H 0.03366 0.18194 0.21994 0.0
H115 H 0.89344 0.13893 0.25997 0.0
H116 H 0.06304 0.22307 0.22049 0.0
H117 H 0.94475 0.01259 0.30951 0.0
H118 H 0.88526 0.0135 0.28821 0.0
H119 H 0.11918 0.08786 0.2553 0.0
H120 H 0.81904 0.07755 0.25324 0.0
H121 H 0.83272 0.12138 0.24782 0.0
H122 H 0.17738 0.21201 0.25952 0.0
H123 H 0.83939 0.03714 0.26788 0.0
H124 H 0.20963 0.13075 0.27989 0.0
H125 H 0.18013 0.09054 0.27338 0.0
N126 N 0.11144 0.12635 0.25374 0.0
C127 C 0.12858 0.14848 0.25573 0.0
C128 C 0.1305 0.10563 0.25896 0.0
C129 C 0.18225 0.12975 0.27241 0.0
C130 C 0.16563 0.10702 0.26883 0.0
C131 C 0.16422 0.15081 0.26535 0.0
H132 H 0.20836 0.17609 0.27462 0.0
N133 N 0.077 0.16591 0.23806 0.0
C134 C 0.11125 0.16876 0.24724 0.0
C135 C 0.11104 0.21159 0.23854 0.0
C136 C 0.1289 0.19181 0.24809 0.0
C137 C 0.0602 0.18479 0.2279 0.0
C138 C 0.07676 0.20798 0.22818 0.0
O139 O 0.96006 0.10531 0.25157 0.0
O140 O 0.01777 0.09153 0.24077 0.0
O141 O 0.03847 0.12967 0.20569 0.0
O142 O 0.09274 0.11635 0.2156 0.0
O143 O 0.03086 0.10594 0.28969 0.0
O144 O 0.05251 0.0924 0.25814 0.0
O145 O 0.0385 0.1568 0.26138 0.0
O146 O 0.02916 0.13595 0.29122 0.0
O147 O 0.94915 0.1189 0.3148 0.0
O148 O 0.9482 0.15276 0.29775 0.0
O149 O 0.99276 0.14131 0.23074 0.0
O150 O 0.96485 0.15253 0.26187 0.0
C151 C 0.98081 0.08943 0.2416 0.0
C152 C 0.05037 0.09056 0.27839 0.0
C153 C 0.06818 0.1009 0.18447 0.0
C154 C 0.07895 0.08669 0.14926 0.0
C155 C 0.04933 0.06 0.17465 0.0
C156 C 0.05234 0.07825 0.18953 0.0
C157 C 0.06246 0.06415 0.15463 0.0
C158 C 0.08152 0.10508 0.16438 0.0
C159 C 0.07051 0.12034 0.19998 0.0
C160 C 0.16365 0.19437 0.25839 0.0
C161 C 0.18121 0.17392 0.26706 0.0
H162 H 0.12367 0.2296 0.23887 0.0
C163 C 0.04373 0.15449 0.28127 0.0
C164 C 0.96877 0.15442 0.24164 0.0
C165 C 0.90009 0.14638 0.32279 0.0
C166 C 0.85832 0.14912 0.35268 0.0
C167 C 0.83571 0.16079 0.31864 0.0
C168 C 0.87086 0.15513 0.31014 0.0
C169 C 0.82948 0.15798 0.3398 0.0
C170 C 0.89351 0.14318 0.344 0.0
C171 C 0.9381 0.14144 0.31455 0.0
H172 H 0.03673 0.04261 0.17862 0.0
H173 H 0.04235 0.07476 0.20498 0.0
H174 H 0.05933 0.04977 0.14332 0.0
H175 H 0.09431 0.12252 0.16066 0.0
H176 H 0.81332 0.16758 0.30883 0.0
H177 H 0.87526 0.15789 0.29378 0.0
H178 H 0.80208 0.16259 0.34609 0.0
H179 H 0.91616 0.1367 0.35386 0.0
C180 C 0.60818 0.4176 0.76979 0.0
C181 C 0.59653 0.4576 0.78413 0.0
C182 C 0.58556 0.43311 0.78118 0.0
C183 C 0.62946 0.46647 0.77456 0.0
C184 C 0.64199 0.42611 0.7608 0.0
C185 C 0.65216 0.45075 0.76292 0.0
N186 N 0.59704 0.39404 0.76755 0.0
C187 C 0.61965 0.37753 0.75788 0.0
C188 C 0.66463 0.40953 0.75007 0.0
C189 C 0.65363 0.38506 0.74883 0.0
Gd190 Gd 0.45487 0.38258 0.73904 0.0
Gd191 Gd 0.53872 0.38318 0.78209 0.0
N192 N 0.5539 0.42393 0.79024 0.0
C193 C 0.57469 0.47223 0.79712 0.0
C194 C 0.53465 0.43748 0.80437 0.0
C195 C 0.54406 0.46197 0.80762 0.0
H196 H 0.51241 0.42939 0.81347 0.0
H197 H 0.52802 0.47279 0.81844 0.0
H198 H 0.45509 0.32611 0.72067 0.0
H199 H 0.61103 0.35866 0.75684 0.0
H200 H 0.41661 0.28831 0.72356 0.0
H201 H 0.58213 0.49114 0.79979 0.0
H202 H 0.6381 0.4853 0.77645 0.0
H203 H 0.3964 0.42833 0.75345 0.0
H204 H 0.69085 0.41534 0.74294 0.0
H205 H 0.67122 0.37204 0.74084 0.0
H206 H 0.31211 0.31157 0.76655 0.0
H207 H 0.67782 0.45773 0.75593 0.0
H208 H 0.29978 0.39642 0.78265 0.0
H209 H 0.33679 0.43292 0.77264 0.0
N210 N 0.39567 0.38954 0.75472 0.0
C211 C 0.37429 0.36943 0.75861 0.0
C212 C 0.3815 0.41221 0.75855 0.0
C213 C 0.32647 0.39427 0.7747 0.0
C214 C 0.3473 0.41491 0.7691 0.0
C215 C 0.33931 0.37119 0.7689 0.0
H216 H 0.29093 0.35098 0.78042 0.0
N217 N 0.41906 0.34655 0.74023 0.0
C218 C 0.38604 0.34729 0.7508 0.0
C219 C 0.37502 0.30471 0.74343 0.0
C220 C 0.36343 0.32626 0.75306 0.0
C221 C 0.42946 0.32606 0.72975 0.0
C222 C 0.40784 0.30473 0.73141 0.0
O223 O 0.54839 0.39623 0.74922 0.0
O224 O 0.49317 0.41535 0.74122 0.0
O225 O 0.467 0.37871 0.70642 0.0
O226 O 0.41506 0.39564 0.71594 0.0
O227 O 0.48238 0.40009 0.79032 0.0
O228 O 0.46082 0.41601 0.75957 0.0
O229 O 0.46343 0.35098 0.76102 0.0
O230 O 0.48057 0.36974 0.79096 0.0
O231 O 0.56261 0.38533 0.81296 0.0
O232 O 0.56269 0.35104 0.79656 0.0
O233 O 0.50848 0.36229 0.73065 0.0
O234 O 0.53799 0.35006 0.76122 0.0
C235 C 0.5301 0.41411 0.74031 0.0
C236 C 0.46296 0.41637 0.77987 0.0
C237 C 0.44204 0.40867 0.68453 0.0
C238 C 0.43538 0.42133 0.64858 0.0
C239 C 0.46818 0.44736 0.67327 0.0
C240 C 0.4616 0.43034 0.6889 0.0
C241 C 0.4553 0.4429 0.65321 0.0
C242 C 0.42882 0.40428 0.66444 0.0
C243 C 0.43664 0.38998 0.70048 0.0
C244 C 0.32965 0.32761 0.76436 0.0
C245 C 0.31763 0.35004 0.77229 0.0
H246 H 0.35842 0.28814 0.74477 0.0
C247 C 0.46272 0.35227 0.78118 0.0
C248 C 0.53159 0.34799 0.74117 0.0
C249 C 0.6106 0.35741 0.82189 0.0
C250 C 0.6508 0.35407 0.85244 0.0
C251 C 0.6748 0.34245 0.81873 0.0
C252 C 0.64022 0.34853 0.80966 0.0
C253 C 0.68004 0.345 0.84001 0.0
C254 C 0.61622 0.36039 0.84321 0.0
C255 C 0.57301 0.36266 0.81318 0.0
H256 H 0.48343 0.46403 0.6767 0.0
H257 H 0.47194 0.43398 0.70431 0.0
H258 H 0.46057 0.45643 0.64137 0.0
H259 H 0.41419 0.38734 0.66107 0.0
H260 H 0.69752 0.33553 0.80925 0.0
H261 H 0.63654 0.34602 0.79322 0.0
H262 H 0.70699 0.34005 0.84674 0.0
H263 H 0.59323 0.367 0.85272 0.0
C264 C 0.86291 0.87227 0.7562 0.0
C265 C 0.85263 0.8285 0.75708 0.0
C266 C 0.87609 0.84896 0.76039 0.0
C267 C 0.81577 0.8318 0.74951 0.0
C268 C 0.8259 0.87566 0.74865 0.0
C269 C 0.80245 0.85531 0.74531 0.0
N270 N 0.88639 0.8916 0.75932 0.0
C271 C 0.87446 0.91482 0.75572 0.0
C272 C 0.81364 0.89943 0.74459 0.0
C273 C 0.83799 0.91909 0.74822 0.0
Gd274 Gd 0.03927 0.88131 0.73439 0.0
Gd275 Gd 0.94728 0.88246 0.77114 0.0
N276 N 0.91236 0.84627 0.76705 0.0
C277 C 0.86703 0.80531 0.76134 0.0
C278 C 0.92607 0.82381 0.77196 0.0
C279 C 0.9038 0.80298 0.76896 0.0
H280 H 0.95414 0.82179 0.77814 0.0
H281 H 0.915 0.78515 0.77256 0.0
H282 H 0.01961 0.93343 0.70822 0.0
H283 H 0.89289 0.93009 0.75894 0.0
H284 H 0.03907 0.97644 0.70886 0.0
H285 H 0.84994 0.78912 0.75893 0.0
H286 H 0.79737 0.81629 0.74681 0.0
H287 H 0.10331 0.8509 0.76192 0.0
H288 H 0.7854 0.90279 0.73877 0.0
H289 H 0.82864 0.93753 0.74531 0.0
H290 H 0.14468 0.97796 0.75531 0.0
H291 H 0.77395 0.85756 0.73947 0.0
H292 H 0.18592 0.90202 0.784 0.0
H293 H 0.16152 0.85975 0.78189 0.0
N294 N 0.09509 0.88778 0.75312 0.0
C295 C 0.10858 0.91103 0.75354 0.0
C296 C 0.11389 0.86937 0.76281 0.0
C297 C 0.16054 0.89822 0.77516 0.0
C298 C 0.14681 0.87433 0.77405 0.0
C299 C 0.14147 0.91692 0.7648 0.0
H300 H 0.17905 0.94614 0.77428 0.0
N301 N 0.05697 0.92273 0.7323 0.0
C302 C 0.08869 0.92903 0.74305 0.0
C303 C 0.08292 0.97069 0.73142 0.0
C304 C 0.102 0.95331 0.74325 0.0
C305 C 0.04081 0.9391 0.71915 0.0
C306 C 0.05271 0.96343 0.71896 0.0
O307 O 0.94043 0.86376 0.74017 0.0
O308 O 0.99922 0.84949 0.73026 0.0
O309 O 0.04903 0.88445 0.70138 0.0
O310 O 0.08475 0.8612 0.71978 0.0
O311 O 0.99674 0.85868 0.781 0.0
O312 O 0.0307 0.84651 0.75208 0.0
O313 O 0.04226 0.89356 0.76788 0.0
O314 O 0.9873 0.91431 0.77155 0.0
O315 O 0.95255 0.87369 0.80369 0.0
O316 O 0.91007 0.89929 0.79358 0.0
O317 O 0.9852 0.89865 0.72245 0.0
O318 O 0.95914 0.91555 0.75159 0.0
C319 C 0.96204 0.84875 0.72975 0.0
C320 C 0.02065 0.84403 0.77153 0.0
C321 C 0.1125 0.88096 0.69097 0.0
C322 C 0.14497 0.88999 0.65857 0.0
C323 C 0.17309 0.9019 0.69135 0.0
C324 C 0.14237 0.89189 0.7019 0.0
C325 C 0.17444 0.90103 0.66983 0.0
C326 C 0.11399 0.88 0.66933 0.0
C327 C 0.0792 0.871 0.70176 0.0
C328 C 0.13434 0.95935 0.75481 0.0
C329 C 0.15402 0.94121 0.76555 0.0
H330 H 0.09225 0.98953 0.73114 0.0
C331 C 0.02326 0.91181 0.77559 0.0
C332 C 0.96297 0.91465 0.73143 0.0
C333 C 0.9373 0.90555 0.82641 0.0
C334 C 0.93766 0.91465 0.86332 0.0
C335 C 0.96937 0.94175 0.83904 0.0
C336 C 0.95834 0.92682 0.82268 0.0
C337 C 0.95916 0.93576 0.85923 0.0
C338 C 0.92691 0.89956 0.84671 0.0
C339 C 0.92679 0.88924 0.80932 0.0
H340 H 0.19602 0.9103 0.69989 0.0
H341 H 0.1421 0.89266 0.71854 0.0
H342 H 0.19884 0.90864 0.66203 0.0
H343 H 0.09075 0.87175 0.66087 0.0
H344 H 0.98572 0.9581 0.83605 0.0
H345 H 0.96613 0.93189 0.80715 0.0
H346 H 0.96753 0.94791 0.8716 0.0
H347 H 0.91089 0.88301 0.84956 0.0
C348 C 0.62655 0.64537 0.25048 0.0
C349 C 0.63154 0.68851 0.25827 0.0
C350 C 0.6123 0.66605 0.25982 0.0
C351 C 0.6645 0.69011 0.24629 0.0
C352 C 0.66065 0.64663 0.23927 0.0
C353 C 0.67899 0.66922 0.23677 0.0
N354 N 0.60826 0.62381 0.2534 0.0
C355 C 0.6248 0.60251 0.24737 0.0
C356 C 0.67593 0.62504 0.2315 0.0
C357 C 0.65828 0.60283 0.23592 0.0
Gd358 Gd 0.46244 0.62321 0.23047 0.0
Gd359 Gd 0.55011 0.62582 0.27113 0.0
N360 N 0.5798 0.66406 0.27077 0.0
C361 C 0.61721 0.7086 0.269 0.0
C362 C 0.56662 0.68318 0.2821 0.0
C363 C 0.5849 0.70582 0.28121 0.0
H364 H 0.54148 0.68099 0.2914 0.0
H365 H 0.57396 0.72113 0.28982 0.0
H366 H 0.48957 0.58496 0.19253 0.0
H367 H 0.61255 0.58514 0.25151 0.0
H368 H 0.47982 0.54189 0.18288 0.0
H369 H 0.63116 0.72619 0.26821 0.0
H370 H 0.67937 0.70731 0.24461 0.0
H371 H 0.38921 0.63894 0.25965 0.0
H372 H 0.70205 0.62521 0.2228 0.0
H373 H 0.67072 0.58592 0.23075 0.0
H374 H 0.3801 0.51486 0.22773 0.0
H375 H 0.70495 0.67059 0.22798 0.0
H376 H 0.32131 0.57521 0.27043 0.0
H377 H 0.3335 0.6192 0.27597 0.0
N378 N 0.40812 0.60628 0.24555 0.0
C379 C 0.40062 0.58255 0.24125 0.0
C380 C 0.3837 0.61978 0.25712 0.0
C381 C 0.34554 0.5838 0.2632 0.0
C382 C 0.35231 0.60866 0.26635 0.0
C383 C 0.36952 0.57049 0.25027 0.0
H384 H 0.33952 0.53609 0.25273 0.0
N385 N 0.45166 0.5835 0.21793 0.0
C386 C 0.42355 0.57067 0.22726 0.0
C387 C 0.4374 0.53558 0.20615 0.0
C388 C 0.41588 0.54628 0.22179 0.0
C389 C 0.47022 0.57389 0.2014 0.0
C390 C 0.46417 0.54963 0.19562 0.0
O391 O 0.53557 0.65727 0.24988 0.0
O392 O 0.51789 0.63922 0.21967 0.0
O393 O 0.43179 0.62454 0.20094 0.0
O394 O 0.4339 0.65628 0.22135 0.0
O395 O 0.49474 0.64166 0.28237 0.0
O396 O 0.46255 0.65471 0.25301 0.0
O397 O 0.45748 0.60735 0.26277 0.0
O398 O 0.51579 0.59124 0.26907 0.0
O399 O 0.5427 0.62858 0.30426 0.0
O400 O 0.59354 0.61258 0.29214 0.0
O401 O 0.5194 0.60884 0.22002 0.0
O402 O 0.54605 0.59307 0.2497 0.0
C403 C 0.53639 0.65627 0.22969 0.0
C404 C 0.46957 0.65553 0.273 0.0
C405 C 0.39781 0.66119 0.18986 0.0
C406 C 0.37303 0.66936 0.15528 0.0
C407 C 0.35534 0.69519 0.18418 0.0
C408 C 0.37773 0.68133 0.19738 0.0
C409 C 0.35298 0.68932 0.1633 0.0
C410 C 0.39514 0.65512 0.16879 0.0
C411 C 0.42161 0.64696 0.20414 0.0
C412 C 0.38614 0.53371 0.23154 0.0
C413 C 0.36297 0.54581 0.24574 0.0
H414 H 0.43246 0.51687 0.2015 0.0
C415 C 0.47889 0.59023 0.27062 0.0
C416 C 0.54087 0.59281 0.22954 0.0
C417 C 0.571 0.59803 0.32419 0.0
C418 C 0.57852 0.58472 0.35994 0.0
C419 C 0.54879 0.55801 0.33464 0.0
C420 C 0.5538 0.57568 0.31936 0.0
C421 C 0.5609 0.56249 0.35482 0.0
C422 C 0.58356 0.60243 0.34443 0.0
C423 C 0.57403 0.61742 0.30862 0.0
H424 H 0.33977 0.71059 0.19014 0.0
H425 H 0.37915 0.6863 0.21354 0.0
H426 H 0.33514 0.70033 0.15343 0.0
H427 H 0.41099 0.6398 0.16285 0.0
H428 H 0.53532 0.54083 0.33084 0.0
H429 H 0.54402 0.57201 0.30385 0.0
H430 H 0.55685 0.54847 0.3664 0.0
H431 H 0.59638 0.61985 0.3482 0.0
C432 C 0.15833 0.90756 0.36962 0.0
C433 C 0.17347 0.9127 0.38924 0.0
C434 C 0.14734 0.92643 0.35642 0.0
C435 C 0.16033 0.99284 0.34755 0.0
H436 H 0.06893 0.98612 0.31489 0.0
C437 C 0.08502 0.07396 0.30879 0.0
C438 C 0.07027 0.07051 0.28889 0.0
C439 C 0.10062 0.05444 0.31965 0.0
C440 C 0.09481 0.98812 0.3237 0.0
H441 H 0.18903 0.94186 0.41024 0.0
H442 H 0.16867 0.97464 0.38756 0.0
H443 H 0.08927 0.95253 0.33687 0.0
H444 H 0.06123 0.04432 0.26438 0.0
H445 H 0.08846 0.01 0.28344 0.0
H446 H 0.16522 0.02871 0.33472 0.0
C447 C 0.16591 0.95603 0.3822 0.0
C448 C 0.10651 0.96888 0.3363 0.0
C449 C 0.17707 0.93718 0.39535 0.0
C450 C 0.07252 0.04741 0.27971 0.0
C451 C 0.08777 0.02778 0.29067 0.0
C452 C 0.14849 0.01213 0.33506 0.0
C453 C 0.15104 0.95091 0.36252 0.0
C454 C 0.13926 0.97106 0.34853 0.0
C455 C 0.10157 0.03105 0.31085 0.0
C456 C 0.11546 0.01005 0.32311 0.0
H457 H 0.15475 0.88892 0.36448 0.0
H458 H 0.13633 0.92179 0.34132 0.0
H459 H 0.18611 0.995 0.35641 0.0
H460 H 0.08375 0.09167 0.31613 0.0
H461 H 0.11077 0.0575 0.33521 0.0
C462 C 0.33426 0.56632 0.90039 0.0
C463 C 0.33132 0.5902 0.89274 0.0
C464 C 0.34857 0.54768 0.88797 0.0
C465 C 0.40456 0.53621 0.84063 0.0
H466 H 0.3538 0.47345 0.84195 0.0
C467 C 0.43954 0.45924 0.78284 0.0
C468 C 0.44413 0.43598 0.79149 0.0
C469 C 0.42453 0.47822 0.79463 0.0
C470 C 0.36844 0.49082 0.84151 0.0
H471 H 0.34259 0.61343 0.86633 0.0
H472 H 0.36678 0.58089 0.84457 0.0
H473 H 0.33171 0.50626 0.86415 0.0
H474 H 0.43552 0.41402 0.8189 0.0
H475 H 0.40938 0.44706 0.83946 0.0
H476 H 0.44125 0.5207 0.81794 0.0
C477 C 0.35824 0.57653 0.86019 0.0
C478 C 0.35588 0.50961 0.85429 0.0
C479 C 0.34398 0.59515 0.87259 0.0
C480 C 0.43241 0.43183 0.81189 0.0
C481 C 0.41723 0.45071 0.82361 0.0
C482 C 0.41706 0.51743 0.82781 0.0
C483 C 0.36031 0.55251 0.86764 0.0
C484 C 0.37388 0.53251 0.85408 0.0
C485 C 0.41354 0.4742 0.81522 0.0
C486 C 0.39925 0.49449 0.82818 0.0
H487 H 0.32457 0.56188 0.91579 0.0
H488 H 0.35032 0.52945 0.8943 0.0
H489 H 0.41938 0.55352 0.84026 0.0
H490 H 0.44849 0.46292 0.76716 0.0
H491 H 0.42165 0.49607 0.78767 0.0
C492 C 0.68604 0.55129 0.61671 0.0
C493 C 0.67904 0.576 0.62067 0.0
C494 C 0.67306 0.5333 0.63032 0.0
C495 C 0.63401 0.52505 0.68364 0.0
H496 H 0.60117 0.46264 0.66186 0.0
C497 C 0.5376 0.4564 0.72686 0.0
C498 C 0.55079 0.43234 0.72797 0.0
C499 C 0.5563 0.47361 0.71465 0.0
C500 C 0.61059 0.47992 0.66814 0.0
H501 H 0.6524 0.60134 0.64161 0.0
H502 H 0.62824 0.5701 0.66486 0.0
H503 H 0.62695 0.49334 0.6385 0.0
H504 H 0.59376 0.40732 0.71736 0.0
H505 H 0.62604 0.43743 0.69548 0.0
H506 H 0.61565 0.51178 0.71315 0.0
C507 C 0.64496 0.56444 0.65175 0.0
C508 C 0.62557 0.49753 0.6548 0.0
C509 C 0.65856 0.5824 0.63836 0.0
C510 C 0.58317 0.4258 0.7168 0.0
C511 C 0.60147 0.44293 0.70425 0.0
C512 C 0.61833 0.5076 0.69688 0.0
C513 C 0.65213 0.53959 0.64801 0.0
C514 C 0.63734 0.52043 0.66233 0.0
C515 C 0.58809 0.46695 0.70304 0.0
C516 C 0.60639 0.48494 0.68923 0.0
H517 H 0.70207 0.54593 0.60324 0.0
H518 H 0.67984 0.51449 0.62703 0.0
H519 H 0.64353 0.54215 0.69019 0.0
H520 H 0.51277 0.46188 0.73543 0.0
H521 H 0.54538 0.49201 0.71388 0.0
C522 C 0.87684 0.92604 0.12587 0.0
C523 C 0.83766 0.92267 0.12402 0.0
C524 C 0.89151 0.94352 0.1394 0.0
C525 C 0.86462 0.98368 0.1837 0.0
H526 H 0.95789 0.01677 0.169 0.0
C527 C 0.9246 0.07104 0.22363 0.0
C528 C 0.96252 0.06942 0.22995 0.0
C529 C 0.90814 0.05252 0.21175 0.0
C530 C 0.9319 0.00756 0.17332 0.0
H531 H 0.78297 0.93496 0.13457 0.0
H532 H 0.80828 0.96628 0.15751 0.0
H533 H 0.93138 0.98631 0.14577 0.0
H534 H 0.01256 0.04671 0.22935 0.0
H535 H 0.98437 0.01503 0.20774 0.0
H536 H 0.86479 0.00597 0.21093 0.0
C537 C 0.82796 0.95496 0.14913 0.0
C538 C 0.91676 0.98995 0.16009 0.0
C539 C 0.81334 0.93712 0.13588 0.0
C540 C 0.98348 0.04873 0.2244 0.0
C541 C 0.96736 0.03054 0.21213 0.0
C542 C 0.87943 1.00169 0.19673 0.0
C543 C 0.8673 0.95842 0.15111 0.0
C544 C 0.88304 0.97756 0.16514 0.0
C545 C 0.92964 0.03235 0.20558 0.0
C546 C 0.91336 0.01362 0.19171 0.0
H547 H 0.89616 0.9149 0.11703 0.0
H548 H 0.92192 0.94512 0.14079 0.0
H549 H 0.83903 0.97434 0.18839 0.0
H550 H 0.90795 0.08691 0.22735 0.0
H551 H 0.87904 0.05437 0.20677 0.0
C552 C 0.85921 0.07934 0.61591 0.0
C553 C 0.82053 0.08483 0.61717 0.0
C554 C 0.87469 0.06077 0.62806 0.0
C555 C 0.85522 0.0244 0.67527 0.0
H556 H 0.93356 0.98241 0.65368 0.0
C557 C 0.93571 0.95636 0.72705 0.0
C558 C 0.945 0.93363 0.71857 0.0
C559 C 0.92052 0.97472 0.71463 0.0
C560 C 0.91144 0.99382 0.6599 0.0
H561 H 0.7675 0.07463 0.63156 0.0
H562 H 0.7942 0.04205 0.65242 0.0
H563 H 0.90684 0.01408 0.63178 0.0
H564 H 0.94525 0.91213 0.69055 0.0
H565 H 0.91793 0.94395 0.66894 0.0
H566 H 0.85895 0.00371 0.70315 0.0
C567 C 0.81291 0.05245 0.64253 0.0
C568 C 0.89647 0.01222 0.64741 0.0
C569 C 0.79754 0.07108 0.63051 0.0
C570 C 0.93847 0.92953 0.69748 0.0
C571 C 0.92306 0.94783 0.68508 0.0
C572 C 0.87003 0.00594 0.6877 0.0
C573 C 0.85174 0.04719 0.64162 0.0
C574 C 0.8681 0.02773 0.65492 0.0
C575 C 0.9141 0.97073 0.69347 0.0
C576 C 0.89832 0.99039 0.68018 0.0
H577 H 0.87766 0.08978 0.60588 0.0
H578 H 0.90479 0.05742 0.62713 0.0
H579 H 0.8338 0.03621 0.6817 0.0
H580 H 0.94103 0.96019 0.74319 0.0
H581 H 0.91456 0.99223 0.72157 0.0
C582 C 0.69685 0.43018 0.13176 0.0
C583 C 0.67345 0.41751 0.11785 0.0
C584 C 0.6826 0.44932 0.14356 0.0
C585 C 0.60326 0.49306 0.14694 0.0
H586 H 0.63755 0.49922 0.20358 0.0
C587 C 0.56451 0.55015 0.22588 0.0
C588 C 0.55838 0.57325 0.21722 0.0
C589 C 0.57866 0.53117 0.2138 0.0
C590 C 0.62739 0.49767 0.18786 0.0
H591 H 0.61679 0.41511 0.10526 0.0
H592 H 0.59159 0.44843 0.12609 0.0
H593 H 0.66052 0.46584 0.18243 0.0
H594 H 0.56357 0.59497 0.18945 0.0
H595 H 0.58899 0.56203 0.16843 0.0
H596 H 0.56928 0.52453 0.1526 0.0
C597 C 0.62118 0.44378 0.12767 0.0
C598 C 0.64097 0.47868 0.17562 0.0
C599 C 0.63555 0.42467 0.11574 0.0
C600 C 0.56763 0.57723 0.19644 0.0
C601 C 0.58194 0.55831 0.18438 0.0
C602 C 0.58956 0.51202 0.15923 0.0
C603 C 0.64448 0.45622 0.14185 0.0
C604 C 0.62926 0.4762 0.15496 0.0
C605 C 0.58728 0.53495 0.19284 0.0
C606 C 0.60158 0.51463 0.17982 0.0
H607 H 0.72636 0.42536 0.13345 0.0
H608 H 0.70162 0.45882 0.15393 0.0
H609 H 0.59386 0.49186 0.13107 0.0
H610 H 0.55736 0.54656 0.24185 0.0
H611 H 0.58199 0.51338 0.22079 0.0
C612 C 0.37888 0.4327 0.39325 0.0
C613 C 0.34515 0.42013 0.3887 0.0
C614 C 0.39225 0.45109 0.38021 0.0
C615 C 0.36266 0.49226 0.33741 0.0
H616 H 0.47092 0.49958 0.33043 0.0
C617 C 0.42875 0.5744 0.29431 0.0
C618 C 0.46177 0.57042 0.28286 0.0
C619 C 0.41359 0.55584 0.30661 0.0
C620 C 0.44058 0.49764 0.33194 0.0
H621 H 0.29882 0.41747 0.36679 0.0
H622 H 0.32304 0.44865 0.34358 0.0
H623 H 0.44652 0.46745 0.35247 0.0
H624 H 0.50435 0.5439 0.27475 0.0
H625 H 0.47755 0.51129 0.29575 0.0
H626 H 0.35676 0.52186 0.31615 0.0
C627 C 0.3388 0.44468 0.3575 0.0
C628 C 0.42654 0.4794 0.34492 0.0
C629 C 0.32518 0.42647 0.37069 0.0
C630 C 0.47902 0.54748 0.28361 0.0
C631 C 0.46374 0.52886 0.29575 0.0
C632 C 0.3767 0.51034 0.32421 0.0
C633 C 0.37256 0.45724 0.36207 0.0
C634 C 0.38739 0.47653 0.34795 0.0
C635 C 0.43105 0.53286 0.30762 0.0
C636 C 0.41587 0.51333 0.32136 0.0
H637 H 0.39538 0.42815 0.40679 0.0
H638 H 0.418 0.46058 0.38448 0.0
H639 H 0.33236 0.49085 0.3395 0.0
H640 H 0.41525 0.59207 0.29423 0.0
H641 H 0.38876 0.55977 0.31575 0.0
C642 C 0.18185 0.05391 0.89401 0.0
C643 C 0.17522 0.07851 0.88934 0.0
C644 C 0.16795 0.03549 0.88115 0.0
C645 C 0.12792 0.02478 0.82855 0.0
H646 H 0.09141 0.96483 0.85339 0.0
C647 C 0.03198 0.95492 0.78668 0.0
C648 C 0.04288 0.93041 0.78802 0.0
C649 C 0.05056 0.97267 0.79837 0.0
C650 C 0.10186 0.98139 0.84625 0.0
H651 H 0.14856 0.1032 0.86775 0.0
H652 H 0.12315 0.07115 0.84563 0.0
H653 H 0.11855 0.99657 0.87523 0.0
H654 H 0.0815 0.90508 0.80249 0.0
H655 H 0.11358 0.93617 0.82341 0.0
H656 H 0.10972 0.00973 0.79964 0.0
C657 C 0.14004 0.06595 0.85885 0.0
C658 C 0.11757 0.99958 0.85873 0.0
C659 C 0.15441 0.08437 0.87157 0.0
C660 C 0.07263 0.9239 0.80124 0.0
C661 C 0.09083 0.94161 0.81321 0.0
C662 C 0.1117 0.00672 0.81614 0.0
C663 C 0.1466 0.04124 0.86345 0.0
C664 C 0.13072 0.02159 0.85007 0.0
C665 C 0.07994 0.96615 0.81187 0.0
C666 C 0.09843 0.9849 0.82489 0.0
H667 H 0.19821 0.04893 0.90751 0.0
H668 H 0.17428 0.01675 0.88501 0.0
H669 H 0.1384 0.04121 0.82124 0.0
H670 H 0.00927 0.96038 0.77645 0.0
H671 H 0.0415 0.99145 0.79717 0.0
C672 C 0.17458 0.13429 0.97084 0.0
C673 C 0.18841 0.114 0.96005 0.0
C674 C 0.16448 0.13226 0.99166 0.0
C675 C 0.13697 0.08573 0.03033 0.0
H676 H 0.15492 0.13758 0.06981 0.0
C677 C 0.11218 0.07218 0.11733 0.0
C678 C 0.09337 0.09087 0.12796 0.0
C679 C 0.12477 0.07572 0.09713 0.0
C680 C 0.14943 0.12304 0.05891 0.0
H681 H 0.20435 0.07605 0.96287 0.0
H682 H 0.18738 0.07258 0.99915 0.0
H683 H 0.17589 0.14252 0.03412 0.0
H684 H 0.07332 0.12808 0.12558 0.0
H685 H 0.09567 0.13433 0.09033 0.0
H686 H 0.11072 0.0662 0.05508 0.0
C687 C 0.18326 0.0899 0.99146 0.0
C688 C 0.1614 0.12586 0.03846 0.0
C689 C 0.19312 0.09189 0.97068 0.0
C690 C 0.08809 0.11338 0.11797 0.0
C691 C 0.10086 0.11697 0.09775 0.0
C692 C 0.12519 0.08287 0.05075 0.0
C693 C 0.16819 0.10992 1.00215 0.0
C694 C 0.15545 0.10719 0.02393 0.0
C695 C 0.11904 0.09809 0.08705 0.0
C696 C 0.13138 0.10143 0.0653 0.0
H697 H 0.17036 0.15151 0.96301 0.0
H698 H 0.15266 0.148 0.99933 0.0
H699 H 0.13109 0.07119 0.01949 0.0
H700 H 0.11745 0.05478 0.12468 0.0
H701 H 0.13928 0.06096 0.08944 0.0
C702 C 0.32187 0.40738 0.4704 0.0
C703 C 0.32951 0.38553 0.45991 0.0
C704 C 0.33066 0.40985 0.49134 0.0
C705 C 0.39523 0.38604 0.53071 0.0
H706 H 0.32863 0.41871 0.56919 0.0
C707 C 0.38538 0.40723 0.62363 0.0
C708 C 0.42197 0.41643 0.62722 0.0
C709 C 0.37282 0.40263 0.60352 0.0
C710 C 0.34743 0.40941 0.55866 0.0
H711 H 0.35182 0.34902 0.46327 0.0
H712 H 0.36714 0.35331 0.49989 0.0
H713 H 0.30772 0.4116 0.53371 0.0
H714 H 0.47424 0.42769 0.61254 0.0
H715 H 0.45232 0.41967 0.57743 0.0
H716 H 0.43503 0.38398 0.5556 0.0
C717 C 0.35446 0.36855 0.49186 0.0
C718 C 0.33558 0.40551 0.53831 0.0
C719 C 0.34535 0.36601 0.47095 0.0
C720 C 0.44578 0.42081 0.61026 0.0
C721 C 0.43336 0.41599 0.59018 0.0
C722 C 0.40721 0.39013 0.55099 0.0
C723 C 0.34759 0.39059 0.50223 0.0
C724 C 0.35941 0.39387 0.52409 0.0
C725 C 0.39672 0.40688 0.58657 0.0
C726 C 0.38353 0.40197 0.56517 0.0
H727 H 0.30939 0.42267 0.46233 0.0
H728 H 0.32524 0.42711 0.49884 0.0
H729 H 0.41439 0.37723 0.52008 0.0
H730 H 0.36629 0.40384 0.63638 0.0
H731 H 0.34454 0.39546 0.60124 0.0
C732 C 0.68879 0.39373 0.03816 0.0
C733 C 0.69178 0.37278 0.05065 0.0
C734 C 0.6834 0.39169 0.01684 0.0
C735 C 0.70151 0.35177 0.97323 0.0
H736 H 0.62101 0.38684 0.94568 0.0
C737 C 0.66927 0.33666 0.88676 0.0
C738 C 0.65595 0.3564 0.87508 0.0
C739 C 0.67315 0.3386 0.90818 0.0
C740 C 0.64409 0.37723 0.95299 0.0
H741 H 0.69052 0.33319 0.05017 0.0
H742 H 0.68274 0.32979 0.01289 0.0
H743 H 0.6289 0.39068 0.98292 0.0
H744 H 0.63698 0.3938 0.87651 0.0
H745 H 0.64527 0.39768 0.91373 0.0
H746 H 0.71781 0.33897 0.94345 0.0
C747 C 0.68452 0.34776 0.01976 0.0
C748 C 0.64839 0.37934 0.97439 0.0
C749 C 0.68921 0.34976 0.04113 0.0
C750 C 0.647 0.37823 0.8852 0.0
C751 C 0.65153 0.38034 0.90658 0.0
C752 C 0.69768 0.35 0.9518 0.0
C753 C 0.68156 0.36869 0.00741 0.0
C754 C 0.67703 0.36655 0.98472 0.0
C755 C 0.66446 0.3605 0.91844 0.0
C756 C 0.66879 0.36261 0.94134 0.0
H757 H 0.69136 0.41178 0.04475 0.0
H758 H 0.68157 0.40813 0.00763 0.0
H759 H 0.72411 0.34194 0.98081 0.0
H760 H 0.67591 0.31952 0.87935 0.0
H761 H 0.68239 0.32272 0.91669 0.0
C762 C 0.80435 0.1518 0.54005 0.0
C763 C 0.80276 0.12871 0.54955 0.0
C764 C 0.81067 0.15397 0.51883 0.0
C765 C 0.85278 0.12342 0.47458 0.0
H766 H 0.78379 0.16218 0.44175 0.0
C767 C 0.8612 0.12491 0.38549 0.0
C768 C 0.85202 0.14662 0.37521 0.0
C769 C 0.85521 0.12259 0.40674 0.0
C770 C 0.8038 0.15162 0.45066 0.0
H771 H 0.80654 0.08979 0.54378 0.0
H772 H 0.81906 0.09377 0.50695 0.0
H773 H 0.77441 0.15891 0.47888 0.0
H774 H 0.83025 0.18313 0.37907 0.0
H775 H 0.82111 0.17957 0.4162 0.0
H776 H 0.88301 0.11668 0.44665 0.0
C777 C 0.81526 0.11013 0.51605 0.0
C778 C 0.79822 0.14966 0.47195 0.0
C779 C 0.80829 0.1079 0.53721 0.0
C780 C 0.83709 0.16606 0.38659 0.0
C781 C 0.83169 0.16393 0.40789 0.0
C782 C 0.85879 0.1257 0.45333 0.0
C783 C 0.81622 0.13316 0.50664 0.0
C784 C 0.82255 0.13547 0.4841 0.0
C785 C 0.84048 0.14211 0.41829 0.0
C786 C 0.83429 0.13977 0.44102 0.0
H787 H 0.80106 0.16829 0.54901 0.0
H788 H 0.8117 0.17197 0.51197 0.0
H789 H 0.87218 0.11254 0.48364 0.0
H790 H 0.87247 0.10956 0.37702 0.0
H791 H 0.86167 0.10534 0.41402 0.0
C792 C 0.83067 0.91067 0.0425 0.0
C793 C 0.82892 0.88809 0.05272 0.0
C794 C 0.842 0.9121 0.02191 0.0
C795 C 0.85402 0.87591 0.9742 0.0
H796 H 0.92062 0.9293 0.95905 0.0
C797 C 0.88929 0.9006 0.88924 0.0
C798 C 0.92619 0.90871 0.88484 0.0
C799 C 0.87794 0.89643 0.90963 0.0
C800 C 0.90234 0.91413 0.96302 0.0
H801 H 0.83716 0.8492 0.04913 0.0
H802 H 0.85711 0.8517 0.01306 0.0
H803 H 0.89988 0.92509 0.99463 0.0
H804 H 0.98057 0.9177 0.89839 0.0
H805 H 0.9609 0.91033 0.93388 0.0
H806 H 0.85703 0.86479 0.94254 0.0
C807 C 0.84937 0.8683 0.021 0.0
C808 C 0.89002 0.9119 0.9834 0.0
C809 C 0.83796 0.86686 0.04166 0.0
C810 C 0.95174 0.91191 0.90127 0.0
C811 C 0.94043 0.9077 0.92162 0.0
C812 C 0.86635 0.87816 0.95375 0.0
C813 C 0.85193 0.89099 0.01094 0.0
C814 C 0.86553 0.89286 0.98925 0.0
C815 C 0.90324 0.90024 0.9261 0.0
C816 C 0.89061 0.89734 0.9479 0.0
H817 H 0.8231 0.92732 0.05042 0.0
H818 H 0.8428 0.92982 0.01453 0.0
H819 H 0.83497 0.86113 0.97814 0.0
H820 H 0.8688 0.8982 0.87697 0.0
H821 H 0.84897 0.89097 0.91252 0.0
C822 C 0.69099 0.59004 0.53838 0.0
C823 C 0.68546 0.61169 0.54955 0.0
C824 C 0.68091 0.5886 0.51755 0.0
C825 C 0.67655 0.59597 0.47079 0.0
H826 H 0.57728 0.61876 0.45437 0.0
C827 C 0.62724 0.59933 0.38543 0.0
C828 C 0.5912 0.58948 0.38146 0.0
C829 C 0.63945 0.60322 0.40573 0.0
C830 C 0.60507 0.61231 0.45874 0.0
H831 H 0.66501 0.64878 0.54762 0.0
H832 H 0.64704 0.6462 0.51117 0.0
H833 H 0.59792 0.62335 0.49021 0.0
H834 H 0.53938 0.57656 0.39561 0.0
H835 H 0.56059 0.58352 0.43104 0.0
H836 H 0.6836 0.58479 0.43935 0.0
C837 C 0.65927 0.63038 0.51858 0.0
C838 C 0.617 0.61512 0.4792 0.0
C839 C 0.66981 0.63192 0.53938 0.0
C840 C 0.56742 0.58397 0.3982 0.0
C841 C 0.57944 0.58815 0.41847 0.0
C842 C 0.6648 0.59344 0.45027 0.0
C843 C 0.66466 0.60868 0.50745 0.0
C844 C 0.65273 0.60676 0.4855 0.0
C845 C 0.61568 0.59767 0.42247 0.0
C846 C 0.62879 0.60136 0.44406 0.0
H847 H 0.70326 0.57422 0.54577 0.0
H848 H 0.68515 0.57159 0.50943 0.0
H849 H 0.70433 0.58952 0.47515 0.0
H850 H 0.64626 0.60362 0.37285 0.0
H851 H 0.66743 0.61073 0.40833 0.0
C852 C 0.31714 0.61309 0.97355 0.0
C853 C 0.3143 0.6335 0.9605 0.0
C854 C 0.3251 0.61597 0.99458 0.0
C855 C 0.32076 0.66199 0.03623 0.0
H856 H 0.38784 0.61803 0.06538 0.0
C857 C 0.37159 0.68294 0.11836 0.0
C858 C 0.37077 0.66385 0.13283 0.0
C859 C 0.36645 0.67829 0.09738 0.0
C860 C 0.36877 0.63031 0.05748 0.0
H861 H 0.31893 0.67288 0.95921 0.0
H862 H 0.33299 0.67792 0.99575 0.0
H863 H 0.37539 0.61177 0.02862 0.0
H864 H 0.36518 0.62472 0.13646 0.0
H865 H 0.35627 0.61654 0.09963 0.0
H866 H 0.31417 0.68058 0.06496 0.0
C867 C 0.32824 0.65969 0.98988 0.0
C868 C 0.3616 0.62672 0.03643 0.0
C869 C 0.3202 0.65681 0.9689 0.0
C870 C 0.36614 0.63982 0.1257 0.0
C871 C 0.36102 0.63514 0.10461 0.0
C872 C 0.32799 0.6656 0.05719 0.0
C873 C 0.33046 0.63934 1.00303 0.0
C874 C 0.3377 0.64265 0.02551 0.0
C875 C 0.36041 0.65441 0.09027 0.0
C876 C 0.3523 0.64994 0.06805 0.0
H877 H 0.31238 0.5949 0.96759 0.0
H878 H 0.32618 0.59993 1.00429 0.0
H879 H 0.30153 0.67428 0.02846 0.0
H880 H 0.37598 0.7016 0.12328 0.0
H881 H 0.36706 0.69348 0.0867 0.0
C882 C 0.17475 0.85649 0.47162 0.0
C883 C 0.18644 0.87715 0.46045 0.0
C884 C 0.16855 0.85789 0.49288 0.0
C885 C 0.15128 0.90199 0.5352 0.0
H886 H 0.18366 0.84852 0.57007 0.0
C887 C 0.1591 0.90902 0.62415 0.0
C888 C 0.14684 0.88876 0.63568 0.0
C889 C 0.16209 0.90763 0.60267 0.0
C890 C 0.17404 0.86348 0.56052 0.0
H891 H 0.20116 0.91543 0.4629 0.0
H892 H 0.19076 0.91783 0.50003 0.0
H893 H 0.1928 0.84608 0.53288 0.0
H894 H 0.12795 0.8512 0.63367 0.0
H895 H 0.1329 0.84883 0.59613 0.0
H896 H 0.13301 0.9195 0.56296 0.0
C897 C 0.18566 0.90064 0.49231 0.0
C898 C 0.17925 0.86208 0.53918 0.0
C899 C 0.1917 0.89926 0.47103 0.0
C900 C 0.13722 0.86717 0.62521 0.0
C901 C 0.14042 0.86574 0.60374 0.0
C902 C 0.14622 0.90342 0.55656 0.0
C903 C 0.17404 0.87996 0.50352 0.0
C904 C 0.16802 0.88134 0.52624 0.0
C905 C 0.15307 0.88592 0.59223 0.0
C906 C 0.15762 0.8842 0.56948 0.0
H907 H 0.16988 0.83928 0.46386 0.0
H908 H 0.159 0.8417 0.50094 0.0
H909 H 0.1417 0.91698 0.52569 0.0
H910 H 0.16636 0.92599 0.63173 0.0
H911 H 0.1722 0.92344 0.59429 0.0
C912 C 0.27378 0.30107 0.35075 0.0
C913 C 0.26473 0.31108 0.37002 0.0
C914 C 0.2502 0.28364 0.3416 0.0
C915 C 0.17269 0.2398 0.3531 0.0
H916 H 0.15696 0.24265 0.29393 0.0
C917 C 0.06775 0.19685 0.28638 0.0
C918 C 0.06753 0.17229 0.29235 0.0
C919 C 0.09172 0.21355 0.29614 0.0
C920 C 0.16076 0.24171 0.31049 0.0
H921 H 0.22384 0.31076 0.3949 0.0
H922 H 0.18223 0.28067 0.37881 0.0
H923 H 0.19822 0.27238 0.31048 0.0
H924 H 0.09167 0.1458 0.31328 0.0
H925 H 0.13397 0.17489 0.33029 0.0
H926 H 0.13428 0.20954 0.35316 0.0
C927 C 0.20794 0.2859 0.37088 0.0
C928 C 0.18487 0.25857 0.31997 0.0
C929 C 0.23169 0.30326 0.38008 0.0
C930 C 0.09113 0.16474 0.30853 0.0
C931 C 0.1153 0.18141 0.31825 0.0
C932 C 0.14844 0.22297 0.34363 0.0
C933 C 0.21681 0.27594 0.35147 0.0
C934 C 0.19117 0.25786 0.34141 0.0
C935 C 0.11603 0.20601 0.3121 0.0
C936 C 0.1421 0.22375 0.32221 0.0
H937 H 0.29917 0.30676 0.34271 0.0
H938 H 0.25832 0.2761 0.32684 0.0
H939 H 0.17719 0.23849 0.3696 0.0
H940 H 0.04944 0.20313 0.27407 0.0
H941 H 0.09105 0.23241 0.29123 0.0
C942 C 0.28658 0.19911 0.88271 0.0
C943 C 0.28702 0.17634 0.87282 0.0
C944 C 0.30618 0.21898 0.87421 0.0
C945 C 0.38325 0.23347 0.83737 0.0
H946 H 0.33829 0.29777 0.83582 0.0
C947 C 0.44038 0.30935 0.7848 0.0
C948 C 0.44345 0.33291 0.79302 0.0
C949 C 0.42172 0.29097 0.79571 0.0
C950 C 0.35138 0.27997 0.83637 0.0
H951 H 0.30767 0.15648 0.84632 0.0
H952 H 0.34132 0.19102 0.83137 0.0
H953 H 0.3048 0.2643 0.85291 0.0
H954 H 0.42961 0.35585 0.8191 0.0
H955 H 0.39698 0.32354 0.83836 0.0
H956 H 0.42948 0.24897 0.82057 0.0
C957 C 0.32658 0.19358 0.84583 0.0
C958 C 0.33225 0.26081 0.84617 0.0
C959 C 0.3071 0.17381 0.85431 0.0
C960 C 0.42769 0.33777 0.81245 0.0
C961 C 0.40878 0.31937 0.82337 0.0
C962 C 0.40224 0.25255 0.82753 0.0
C963 C 0.32657 0.21639 0.85571 0.0
C964 C 0.34774 0.23724 0.84653 0.0
C965 C 0.40576 0.29574 0.81513 0.0
C966 C 0.38633 0.27593 0.82667 0.0
H967 H 0.27131 0.20159 0.89702 0.0
H968 H 0.30582 0.23624 0.88228 0.0
H969 H 0.39643 0.21569 0.83776 0.0
H970 H 0.45275 0.30502 0.76999 0.0
H971 H 0.41952 0.27304 0.78883 0.0
C972 C 0.69298 0.19702 0.63208 0.0
C973 C 0.70189 0.17546 0.64272 0.0
C974 C 0.67489 0.21617 0.6423 0.0
C975 C 0.66063 0.24234 0.69366 0.0
H976 H 0.57131 0.27207 0.66996 0.0
C977 C 0.5687 0.30917 0.74023 0.0
C978 C 0.55168 0.32865 0.72971 0.0
C979 C 0.5874 0.29084 0.72935 0.0
C980 C 0.59658 0.26429 0.67668 0.0
H981 H 0.69909 0.15698 0.67221 0.0
H982 H 0.66807 0.19057 0.69014 0.0
H983 H 0.60386 0.23991 0.65117 0.0
H984 H 0.54159 0.3444 0.69949 0.0
H985 H 0.57512 0.31295 0.6806 0.0
H986 H 0.65409 0.26691 0.71895 0.0
C987 C 0.67499 0.19267 0.67395 0.0
C988 C 0.61511 0.2458 0.66591 0.0
C989 C 0.69254 0.17343 0.66368 0.0
C990 C 0.55407 0.32951 0.70808 0.0
C991 C 0.57317 0.31136 0.69721 0.0
C992 C 0.64243 0.26104 0.70431 0.0
C993 C 0.66595 0.21422 0.66337 0.0
C994 C 0.64712 0.2345 0.67438 0.0
C995 C 0.58997 0.2917 0.70768 0.0
C996 C 0.60994 0.27216 0.69606 0.0
H997 H 0.6998 0.19907 0.61589 0.0
H998 H 0.66838 0.23265 0.63381 0.0
H999 H 0.68556 0.23414 0.70042 0.0
H1000 H 0.56717 0.30787 0.75689 0.0
H1001 H 0.59934 0.27581 0.73796 0.0
C1002 C 0.79389 0.30166 0.13441 0.0
C1003 C 0.78357 0.32256 0.14555 0.0
C1004 C 0.81237 0.2824 0.14433 0.0
C1005 C 0.82725 0.25455 0.19526 0.0
H1006 H 0.91895 0.22842 0.17142 0.0
C1007 C 0.92601 0.19079 0.24118 0.0
C1008 C 0.94519 0.17237 0.23046 0.0
C1009 C 0.90487 0.20821 0.2305 0.0
C1010 C 0.89304 0.23516 0.17816 0.0
H1011 H 0.78404 0.33967 0.17563 0.0
H1012 H 0.81581 0.30592 0.193 0.0
H1013 H 0.88409 0.25997 0.15308 0.0
H1014 H 0.95626 0.15741 0.20009 0.0
H1015 H 0.91858 0.18723 0.18156 0.0
H1016 H 0.83568 0.22962 0.2202 0.0
C1017 C 0.80966 0.3044 0.17667 0.0
C1018 C 0.87315 0.25331 0.16764 0.0
C1019 C 0.79169 0.32374 0.16672 0.0
C1020 C 0.94216 0.1715 0.20884 0.0
C1021 C 0.92069 0.18873 0.19818 0.0
C1022 C 0.84687 0.2362 0.20567 0.0
C1023 C 0.82033 0.28356 0.16558 0.0
C1024 C 0.84028 0.26337 0.17619 0.0
C1025 C 0.90202 0.20748 0.20883 0.0
C1026 C 0.88026 0.22641 0.19737 0.0
H1027 H 0.78802 0.30026 0.11805 0.0
H1028 H 0.82013 0.26649 0.13544 0.0
H1029 H 0.80172 0.26178 0.20209 0.0
H1030 H 0.92788 0.19207 0.25783 0.0
H1031 H 0.89143 0.22256 0.23924 0.0
C1032 C 0.77964 0.69556 0.63211 0.0
C1033 C 0.79422 0.6719 0.6339 0.0
C1034 C 0.79732 0.71511 0.64221 0.0
C1035 C 0.86676 0.72834 0.68437 0.0
H1036 H 0.86815 0.79283 0.65989 0.0
C1037 C 0.96159 0.80695 0.71426 0.0
C1038 C 0.94321 0.82919 0.71781 0.0
C1039 C 0.94294 0.78801 0.70394 0.0
C1040 C 0.86777 0.77492 0.66693 0.0
H1041 H 0.8389 0.65011 0.64718 0.0
H1042 H 0.87072 0.68413 0.664 0.0
H1043 H 0.837 0.75934 0.64171 0.0
H1044 H 0.89116 0.84921 0.71305 0.0
H1045 H 0.85888 0.81622 0.69467 0.0
H1046 H 0.89862 0.74395 0.70927 0.0
C1047 C 0.84501 0.68771 0.65545 0.0
C1048 C 0.84975 0.75571 0.65659 0.0
C1049 C 0.82701 0.66819 0.64565 0.0
C1050 C 0.90604 0.83226 0.71055 0.0
C1051 C 0.88762 0.81345 0.69996 0.0
C1052 C 0.88527 0.74745 0.69451 0.0
C1053 C 0.83024 0.71144 0.65409 0.0
C1054 C 0.84903 0.73211 0.66515 0.0
C1055 C 0.9058 0.79109 0.69668 0.0
C1056 C 0.88598 0.77091 0.68589 0.0
H1057 H 0.75416 0.69892 0.62328 0.0
H1058 H 0.78469 0.73299 0.641 0.0
H1059 H 0.8661 0.71065 0.69176 0.0
H1060 H 0.99009 0.80399 0.71984 0.0
H1061 H 0.95764 0.77098 0.70153 0.0
C1062 C 0.71698 0.80733 0.1282 0.0
C1063 C 0.71533 0.83051 0.13736 0.0
C1064 C 0.69905 0.78734 0.13753 0.0
C1065 C 0.66297 0.7661 0.18796 0.0
H1066 H 0.60248 0.72105 0.1556 0.0
C1067 C 0.55912 0.69909 0.22598 0.0
C1068 C 0.55675 0.67535 0.21809 0.0
C1069 C 0.57996 0.71698 0.21567 0.0
C1070 C 0.61969 0.73326 0.16482 0.0
H1071 H 0.69362 0.85104 0.16323 0.0
H1072 H 0.66231 0.81631 0.17947 0.0
H1073 H 0.63656 0.75411 0.13837 0.0
H1074 H 0.57349 0.65167 0.19305 0.0
H1075 H 0.61011 0.68301 0.17488 0.0
H1076 H 0.64614 0.74539 0.2144 0.0
C1077 C 0.6777 0.81342 0.16525 0.0
C1078 C 0.6392 0.75221 0.15495 0.0
C1079 C 0.69539 0.83335 0.15589 0.0
C1080 C 0.57481 0.66991 0.19939 0.0
C1081 C 0.59574 0.68784 0.18903 0.0
C1082 C 0.64361 0.74715 0.19781 0.0
C1083 C 0.67941 0.79016 0.15624 0.0
C1084 C 0.6606 0.76906 0.16645 0.0
C1085 C 0.5988 0.71155 0.19715 0.0
C1086 C 0.62125 0.73072 0.18641 0.0
H1087 H 0.7322 0.80458 0.11391 0.0
H1088 H 0.70107 0.76962 0.13028 0.0
H1089 H 0.67984 0.77847 0.19722 0.0
H1090 H 0.54481 0.70384 0.24017 0.0
H1091 H 0.58103 0.73515 0.22216 0.0
C1092 C 0.29433 0.80343 0.37779 0.0
C1093 C 0.25638 0.8049 0.37148 0.0
C1094 C 0.31882 0.78689 0.36836 0.0
C1095 C 0.32252 0.72918 0.34122 0.0
H1096 H 0.41362 0.75386 0.31508 0.0
C1097 C 0.44002 0.66789 0.30644 0.0
C1098 C 0.44754 0.67281 0.28556 0.0
C1099 C 0.41775 0.68381 0.31804 0.0
C1100 C 0.38836 0.74676 0.32242 0.0
H1101 H 0.21406 0.79019 0.35073 0.0
H1102 H 0.25667 0.76065 0.33468 0.0
H1103 H 0.37221 0.78188 0.33386 0.0
H1104 H 0.43851 0.69843 0.26056 0.0
H1105 H 0.40057 0.72662 0.28106 0.0
H1106 H 0.33885 0.69403 0.32991 0.0
C1107 C 0.26745 0.77243 0.34677 0.0
C1108 C 0.36485 0.76271 0.3332 0.0
C1109 C 0.24319 0.78932 0.35587 0.0
C1110 C 0.43306 0.69415 0.27661 0.0
C1111 C 0.41154 0.71031 0.28832 0.0
C1112 C 0.34647 0.71314 0.33082 0.0
C1113 C 0.30554 0.77123 0.3528 0.0
C1114 C 0.3315 0.75409 0.34246 0.0
C1115 C 0.40342 0.70517 0.30907 0.0
C1116 C 0.37933 0.72187 0.32112 0.0
H1117 H 0.30528 0.81537 0.38971 0.0
H1118 H 0.3481 0.78624 0.37327 0.0
H1119 H 0.29697 0.72215 0.34829 0.0
H1120 H 0.45064 0.65148 0.31369 0.0
H1121 H 0.41186 0.67952 0.33403 0.0
C1122 C 0.19256 0.69762 0.88054 0.0
C1123 C 0.20227 0.67633 0.86982 0.0
C1124 C 0.17092 0.71568 0.8709 0.0
C1125 C 0.10797 0.7258 0.82543 0.0
H1126 H 0.12942 0.79399 0.83612 0.0
C1127 C 0.05441 0.80411 0.77362 0.0
C1128 C 0.03841 0.82428 0.78363 0.0
C1129 C 0.0724 0.78586 0.78497 0.0
C1130 C 0.12291 0.77501 0.83315 0.0
H1131 H 0.19752 0.65725 0.84072 0.0
H1132 H 0.16105 0.68893 0.82367 0.0
H1133 H 0.16514 0.76265 0.85432 0.0
H1134 H 0.02876 0.84116 0.81341 0.0
H1135 H 0.06077 0.80937 0.83322 0.0
H1136 H 0.06661 0.73832 0.80372 0.0
C1137 C 0.16899 0.69156 0.83965 0.0
C1138 C 0.14326 0.75702 0.84362 0.0
C1139 C 0.19018 0.67345 0.84935 0.0
C1140 C 0.04064 0.82578 0.80526 0.0
C1141 C 0.05916 0.80769 0.81659 0.0
C1142 C 0.08802 0.74379 0.81478 0.0
C1143 C 0.15889 0.7129 0.8503 0.0
C1144 C 0.13625 0.73215 0.8398 0.0
C1145 C 0.07523 0.78758 0.80655 0.0
C1146 C 0.09543 0.76855 0.81844 0.0
H1147 H 0.20134 0.70027 0.8964 0.0
H1148 H 0.16327 0.73167 0.87971 0.0
H1149 H 0.10109 0.7069 0.8224 0.0
H1150 H 0.05308 0.80242 0.75698 0.0
H1151 H 0.08479 0.77063 0.77684 0.0
loop_
_geom_bond_atom_site_label_1
_geom_bond_atom_site_label_2
_geom_bond_distance
_geom_bond_site_symmetry_2
_ccdc_geom_bond_type
H0 C5 0.930 . S
H1 C8 0.930 . S
H2 C10 0.930 . S
H3 C4 1.016 . S
C4 H3 1.016 . S
C4 N11 1.286 . S
C5 H0 0.930 . S
C5 C6 1.397 . S
C5 C7 1.361 . S
C6 C5 1.397 . S
C6 C10 1.390 . S
C7 C5 1.361 . S
C7 C8 1.393 . S
C7 N11 1.413 . S
C8 H1 0.930 . S
C8 C7 1.393 . S
C8 C9 1.399 . S
C9 C8 1.399 . S
C9 C10 1.381 . S
C10 H2 0.930 . S
C10 C6 1.390 . S
C10 C9 1.381 . S
N11 C4 1.286 . S
N11 C7 1.413 . S
H12 C17 0.930 . S
H13 C20 0.930 . S
H14 C22 0.930 . S
H15 C16 1.016 . S
C16 H15 1.016 . S
C16 N23 1.286 . S
C17 H12 0.930 . S
C17 C18 1.397 . S
C17 C19 1.361 . S
C18 C17 1.397 . S
C18 C22 1.390 . S
C19 C17 1.361 . S
C19 C20 1.393 . S
C19 N23 1.413 . S
C20 H13 0.930 . S
C20 C19 1.393 . S
C20 C21 1.399 . S
C21 C20 1.399 . S
C21 C22 1.381 . S
C22 H14 0.930 . S
C22 C18 1.390 . S
C22 C21 1.381 . S
N23 C16 1.286 . S
N23 C19 1.413 . S
H24 C29 0.930 . S
H25 C32 0.930 . S
H26 C34 0.930 . S
H27 C28 1.016 . S
C28 H27 1.016 . S
C28 N35 1.286 . S
C29 H24 0.930 . S
C29 C30 1.397 . S
C29 C31 1.361 . S
C30 C29 1.397 . S
C30 C34 1.390 . S
C31 C29 1.361 . S
C31 C32 1.393 . S
C31 N35 1.413 . S
C32 H25 0.930 . S
C32 C31 1.393 . S
C32 C33 1.399 . S
C33 C32 1.399 . S
C33 C34 1.381 . S
C34 H26 0.930 . S
C34 C30 1.390 . S
C34 C33 1.381 . S
N35 C28 1.286 . S
N35 C31 1.413 . S
H36 C41 0.930 . S
H37 C44 0.930 . S
H38 C46 0.930 . S
H39 C40 1.016 . S
C40 H39 1.016 . S
C40 N47 1.286 . S
C41 H36 0.930 . S
C41 C42 1.397 . S
C41 C43 1.361 . S
C42 C41 1.397 . S
C42 C46 1.390 . S
C43 C41 1.361 . S
C43 C44 1.393 . S
C43 N47 1.413 . S
C44 H37 0.930 . S
C44 C43 1.393 . S
C44 C45 1.399 . S
C45 C44 1.399 . S
C45 C46 1.381 . S
C46 H38 0.930 . S
C46 C42 1.390 . S
C46 C45 1.381 . S
N47 C40 1.286 . S
N47 C43 1.413 . S
H48 C53 0.930 . S
H49 C56 0.930 . S
H50 C58 0.930 . S
H51 C52 1.016 . S
C52 H51 1.016 . S
C52 N59 1.286 . S
C53 H48 0.930 . S
C53 C54 1.397 . S
C53 C55 1.361 . S
C54 C53 1.397 . S
C54 C58 1.390 . S
C55 C53 1.361 . S
C55 C56 1.393 . S
C55 N59 1.413 . S
C56 H49 0.930 . S
C56 C55 1.393 . S
C56 C57 1.399 . S
C57 C56 1.399 . S
C57 C58 1.381 . S
C58 H50 0.930 . S
C58 C54 1.390 . S
C58 C57 1.381 . S
N59 C52 1.286 . S
N59 C55 1.413 . S
H60 C65 0.930 . S
H61 C68 0.930 . S
H62 C70 0.930 . S
H63 C64 1.016 . S
C64 H63 1.016 . S
C64 N71 1.286 . S
C65 H60 0.930 . S
C65 C66 1.397 . S
C65 C67 1.361 . S
C66 C65 1.397 . S
C66 C70 1.390 . S
C67 C65 1.361 . S
C67 C68 1.393 . S
C67 N71 1.413 . S
C68 H61 0.930 . S
C68 C67 1.393 . S
C68 C69 1.399 . S
C69 C68 1.399 . S
C69 C70 1.381 . S
C70 H62 0.930 . S
C70 C66 1.390 . S
C70 C69 1.381 . S
N71 C64 1.286 . S
N71 C67 1.413 . S
H72 C77 0.930 . S
H73 C80 0.930 . S
H74 C82 0.930 . S
H75 C76 1.016 . S
C76 H75 1.016 . S
C76 N83 1.286 . S
C77 H72 0.930 . S
C77 C78 1.397 . S
C77 C79 1.361 . S
C78 C77 1.397 . S
C78 C82 1.390 . S
C79 C77 1.361 . S
C79 C80 1.393 . S
C79 N83 1.413 . S
C80 H73 0.930 . S
C80 C79 1.393 . S
C80 C81 1.399 . S
C81 C80 1.399 . S
C81 C82 1.381 . S
C82 H74 0.930 . S
C82 C78 1.390 . S
C82 C81 1.381 . S
N83 C76 1.286 . S
N83 C79 1.413 . S
H84 C89 0.930 . S
H85 C92 0.930 . S
H86 C94 0.930 . S
H87 C88 1.016 . S
C88 H87 1.016 . S
C88 N95 1.286 . S
C89 H84 0.930 . S
C89 C90 1.397 . S
C89 C91 1.361 . S
C90 C89 1.397 . S
C90 C94 1.390 . S
C91 C89 1.361 . S
C91 C92 1.393 . S
C91 N95 1.413 . S
C92 H85 0.930 . S
C92 C91 1.393 . S
C92 C93 1.399 . S
C93 C92 1.399 . S
C93 C94 1.381 . S
C94 H86 0.930 . S
C94 C90 1.390 . S
C94 C93 1.381 . S
N95 C88 1.286 . S
N95 C91 1.413 . S
C96 C98 1.422 . S
C96 C100 1.415 . S
C96 N102 1.369 . S
C97 C98 1.421 . S
C97 C99 1.417 . S
C97 C109 1.422 . S
C98 C96 1.422 . S
C98 C97 1.421 . S
C98 N108 1.359 . S
C99 C97 1.417 . S
C99 C101 1.329 . S
C99 H118 0.930 . S
C100 C96 1.415 . S
C100 C101 1.437 . S
C100 C104 1.413 . S
C101 C99 1.329 . S
C101 C100 1.437 . S
C101 H123 0.929 . S
N102 C96 1.369 . S
N102 C103 1.338 . S
N102 Gd107 2.622 . S
C103 N102 1.338 . S
C103 C105 1.378 . S
C103 H115 0.929 . S
C104 C100 1.413 . S
C104 C105 1.348 . S
C104 H120 0.931 . S
C105 C103 1.378 . S
C105 C104 1.348 . S
C105 H121 0.930 . S
Gd106 N126 2.622 . S
Gd106 N133 2.570 . S
Gd106 O140 2.353 . S
Gd106 O141 2.468 . S
Gd106 O142 2.427 . S
Gd106 O144 2.388 . S
Gd106 O145 2.386 . S
Gd106 O149 2.313 . S
Gd106 C159 2.805 . S
Gd107 N102 2.622 . S
Gd107 N108 2.570 . S
Gd107 O139 2.386 . S
Gd107 O143 2.307 1_655 S
Gd107 O146 2.353 1_655 S
Gd107 O147 2.468 . S
Gd107 O148 2.427 . S
Gd107 O150 2.388 . S
Gd107 C171 2.805 . S
N108 C98 1.359 . S
N108 Gd107 2.570 . S
N108 C110 1.343 . S
C109 C97 1.422 . S
C109 C111 1.321 . S
C109 H117 0.931 . S
C110 N108 1.343 . S
C110 C111 1.390 . S
C110 H112 0.931 . S
C111 C109 1.321 . S
C111 C110 1.390 . S
C111 H113 0.930 . S
H112 C110 0.931 . S
H113 C111 0.930 . S
H114 C137 0.931 . S
H115 C103 0.929 . S
H116 C138 0.930 . S
H117 C109 0.931 . S
H118 C99 0.930 . S
H119 C128 0.929 . S
H120 C104 0.931 . S
H121 C105 0.930 . S
H122 C160 0.930 . S
H123 C101 0.929 . S
H124 C129 0.931 . S
H125 C130 0.930 . S
N126 Gd106 2.622 . S
N126 C127 1.369 . S
N126 C128 1.338 . S
C127 N126 1.369 . S
C127 C131 1.415 . S
C127 C134 1.422 . S
C128 H119 0.929 . S
C128 N126 1.338 . S
C128 C130 1.378 . S
C129 H124 0.931 . S
C129 C130 1.348 . S
C129 C131 1.413 . S
C130 H125 0.930 . S
C130 C128 1.378 . S
C130 C129 1.348 . S
C131 C127 1.415 . S
C131 C129 1.413 . S
C131 C161 1.437 . S
H132 C161 0.929 . S
N133 Gd106 2.570 . S
N133 C134 1.359 . S
N133 C137 1.343 . S
C134 C127 1.422 . S
C134 N133 1.359 . S
C134 C136 1.421 . S
C135 C136 1.422 . S
C135 C138 1.321 . S
C135 H162 0.931 . S
C136 C134 1.421 . S
C136 C135 1.422 . S
C136 C160 1.417 . S
C137 H114 0.931 . S
C137 N133 1.343 . S
C137 C138 1.390 . S
C138 H116 0.930 . S
C138 C135 1.321 . S
C138 C137 1.390 . S
O139 Gd107 2.386 . S
O139 C151 1.265 . S
O140 Gd106 2.353 . S
O140 C151 1.242 1_455 S
O141 Gd106 2.468 . S
O141 C159 1.263 . S
O142 Gd106 2.427 . S
O142 C159 1.252 . S
O143 Gd107 2.307 1_455 S
O143 C152 1.261 . S
O144 Gd106 2.388 . S
O144 C152 1.252 . S
O145 Gd106 2.386 . S
O145 C163 1.265 . S
O146 Gd107 2.353 1_455 S
O146 C163 1.242 . S
O147 Gd107 2.468 . S
O147 C171 1.263 . S
O148 Gd107 2.427 . S
O148 C171 1.252 . S
O149 Gd106 2.313 . S
O149 C164 1.254 1_455 S
O150 Gd107 2.388 . S
O150 C164 1.252 . S
C151 O139 1.265 . S
C151 O140 1.242 1_655 S
C152 O143 1.261 . S
C152 O144 1.252 . S
C153 C156 1.394 . S
C153 C158 1.370 . S
C153 C159 1.500 . S
C154 C157 1.383 . S
C154 C158 1.395 . S
C155 C156 1.396 . S
C155 C157 1.365 . S
C155 H172 0.929 . S
C156 C153 1.394 . S
C156 C155 1.396 . S
C156 H173 0.930 . S
C157 C154 1.383 . S
C157 C155 1.365 . S
C157 H174 0.931 . S
C158 C153 1.370 . S
C158 C154 1.395 . S
C158 H175 0.930 . S
C159 Gd106 2.805 . S
C159 O141 1.263 . S
C159 O142 1.252 . S
C159 C153 1.500 . S
C160 H122 0.930 . S
C160 C136 1.417 . S
C160 C161 1.329 . S
C161 C131 1.437 . S
C161 H132 0.929 . S
C161 C160 1.329 . S
H162 C135 0.931 . S
C163 O145 1.265 . S
C163 O146 1.242 . S
C164 O149 1.254 1_655 S
C164 O150 1.252 . S
C165 C168 1.394 . S
C165 C170 1.370 . S
C165 C171 1.500 . S
C166 C169 1.383 . S
C166 C170 1.395 . S
C167 C168 1.396 . S
C167 C169 1.365 . S
C167 H176 0.929 . S
C168 C165 1.394 . S
C168 C167 1.396 . S
C168 H177 0.930 . S
C169 C166 1.383 . S
C169 C167 1.365 . S
C169 H178 0.931 . S
C170 C165 1.370 . S
C170 C166 1.395 . S
C170 H179 0.930 . S
C171 Gd107 2.805 . S
C171 O147 1.263 . S
C171 O148 1.252 . S
C171 C165 1.500 . S
H172 C155 0.929 . S
H173 C156 0.930 . S
H174 C157 0.931 . S
H175 C158 0.930 . S
H176 C167 0.929 . S
H177 C168 0.930 . S
H178 C169 0.931 . S
H179 C170 0.930 . S
C180 C182 1.422 . S
C180 C184 1.415 . S
C180 N186 1.369 . S
C181 C182 1.421 . S
C181 C183 1.417 . S
C181 C193 1.422 . S
C182 C180 1.422 . S
C182 C181 1.421 . S
C182 N192 1.359 . S
C183 C181 1.417 . S
C183 C185 1.329 . S
C183 H202 0.930 . S
C184 C180 1.415 . S
C184 C185 1.437 . S
C184 C188 1.413 . S
C185 C183 1.329 . S
C185 C184 1.437 . S
C185 H207 0.929 . S
N186 C180 1.369 . S
N186 C187 1.338 . S
N186 Gd191 2.622 . S
C187 N186 1.338 . S
C187 C189 1.378 . S
C187 H199 0.929 . S
C188 C184 1.413 . S
C188 C189 1.348 . S
C188 H204 0.931 . S
C189 C187 1.378 . S
C189 C188 1.348 . S
C189 H205 0.930 . S
Gd190 N210 2.622 . S
Gd190 N217 2.570 . S
Gd190 O224 2.353 . S
Gd190 O225 2.468 . S
Gd190 O226 2.427 . S
Gd190 O228 2.388 . S
Gd190 O229 2.386 . S
Gd190 O233 2.307 . S
Gd190 C243 2.805 . S
Gd191 N186 2.622 . S
Gd191 N192 2.570 . S
Gd191 O223 2.386 . S
Gd191 O227 2.307 . S
Gd191 O230 2.353 . S
Gd191 O231 2.468 . S
Gd191 O232 2.427 . S
Gd191 O234 2.388 . S
Gd191 C255 2.805 . S
N192 C182 1.359 . S
N192 Gd191 2.570 . S
N192 C194 1.343 . S
C193 C181 1.422 . S
C193 C195 1.321 . S
C193 H201 0.931 . S
C194 N192 1.343 . S
C194 C195 1.390 . S
C194 H196 0.931 . S
C195 C193 1.321 . S
C195 C194 1.390 . S
C195 H197 0.930 . S
H196 C194 0.931 . S
H197 C195 0.930 . S
H198 C221 0.931 . S
H199 C187 0.929 . S
H200 C222 0.930 . S
H201 C193 0.931 . S
H202 C183 0.930 . S
H203 C212 0.929 . S
H204 C188 0.931 . S
H205 C189 0.930 . S
H206 C244 0.930 . S
H207 C185 0.929 . S
H208 C213 0.931 . S
H209 C214 0.930 . S
N210 Gd190 2.622 . S
N210 C211 1.369 . S
N210 C212 1.338 . S
C211 N210 1.369 . S
C211 C215 1.415 . S
C211 C218 1.422 . S
C212 H203 0.929 . S
C212 N210 1.338 . S
C212 C214 1.378 . S
C213 H208 0.931 . S
C213 C214 1.348 . S
C213 C215 1.413 . S
C214 H209 0.930 . S
C214 C212 1.378 . S
C214 C213 1.348 . S
C215 C211 1.415 . S
C215 C213 1.413 . S
C215 C245 1.437 . S
H216 C245 0.929 . S
N217 Gd190 2.570 . S
N217 C218 1.359 . S
N217 C221 1.343 . S
C218 C211 1.422 . S
C218 N217 1.359 . S
C218 C220 1.421 . S
C219 C220 1.422 . S
C219 C222 1.321 . S
C219 H246 0.931 . S
C220 C218 1.421 . S
C220 C219 1.422 . S
C220 C244 1.417 . S
C221 H198 0.931 . S
C221 N217 1.343 . S
C221 C222 1.390 . S
C222 H200 0.930 . S
C222 C219 1.321 . S
C222 C221 1.390 . S
O223 Gd191 2.386 . S
O223 C235 1.265 . S
O224 Gd190 2.353 . S
O224 C235 1.242 . S
O225 Gd190 2.468 . S
O225 C243 1.263 . S
O226 Gd190 2.427 . S
O226 C243 1.252 . S
O227 Gd191 2.307 . S
O227 C236 1.261 . S
O228 Gd190 2.388 . S
O228 C236 1.252 . S
O229 Gd190 2.386 . S
O229 C247 1.265 . S
O230 Gd191 2.353 . S
O230 C247 1.242 . S
O231 Gd191 2.468 . S
O231 C255 1.263 . S
O232 Gd191 2.427 . S
O232 C255 1.252 . S
O233 Gd190 2.307 . S
O233 C248 1.261 . S
O234 Gd191 2.388 . S
O234 C248 1.252 . S
C235 O223 1.265 . S
C235 O224 1.242 . S
C236 O227 1.261 . S
C236 O228 1.252 . S
C237 C240 1.394 . S
C237 C242 1.370 . S
C237 C243 1.500 . S
C238 C241 1.383 . S
C238 C242 1.395 . S
C239 C240 1.396 . S
C239 C241 1.365 . S
C239 H256 0.929 . S
C240 C237 1.394 . S
C240 C239 1.396 . S
C240 H257 0.930 . S
C241 C238 1.383 . S
C241 C239 1.365 . S
C241 H258 0.931 . S
C242 C237 1.370 . S
C242 C238 1.395 . S
C242 H259 0.930 . S
C243 Gd190 2.805 . S
C243 O225 1.263 . S
C243 O226 1.252 . S
C243 C237 1.500 . S
C244 H206 0.930 . S
C244 C220 1.417 . S
C244 C245 1.329 . S
C245 C215 1.437 . S
C245 H216 0.929 . S
C245 C244 1.329 . S
H246 C219 0.931 . S
C247 O229 1.265 . S
C247 O230 1.242 . S
C248 O233 1.261 . S
C248 O234 1.252 . S
C249 C252 1.394 . S
C249 C254 1.370 . S
C249 C255 1.500 . S
C250 C253 1.383 . S
C250 C254 1.395 . S
C251 C252 1.396 . S
C251 C253 1.365 . S
C251 H260 0.929 . S
C252 C249 1.394 . S
C252 C251 1.396 . S
C252 H261 0.930 . S
C253 C250 1.383 . S
C253 C251 1.365 . S
C253 H262 0.931 . S
C254 C249 1.370 . S
C254 C250 1.395 . S
C254 H263 0.930 . S
C255 Gd191 2.805 . S
C255 O231 1.263 . S
C255 O232 1.252 . S
C255 C249 1.500 . S
H256 C239 0.929 . S
H257 C240 0.930 . S
H258 C241 0.931 . S
H259 C242 0.930 . S
H260 C251 0.929 . S
H261 C252 0.930 . S
H262 C253 0.931 . S
H263 C254 0.930 . S
C264 C266 1.422 . S
C264 C268 1.415 . S
C264 N270 1.369 . S
C265 C266 1.421 . S
C265 C267 1.417 . S
C265 C277 1.422 . S
C266 C264 1.422 . S
C266 C265 1.421 . S
C266 N276 1.359 . S
C267 C265 1.417 . S
C267 C269 1.329 . S
C267 H286 0.930 . S
C268 C264 1.415 . S
C268 C269 1.437 . S
C268 C272 1.413 . S
C269 C267 1.329 . S
C269 C268 1.437 . S
C269 H291 0.929 . S
N270 C264 1.369 . S
N270 C271 1.338 . S
N270 Gd275 2.622 . S
C271 N270 1.338 . S
C271 C273 1.378 . S
C271 H283 0.929 . S
C272 C268 1.413 . S
C272 C273 1.348 . S
C272 H288 0.931 . S
C273 C271 1.378 . S
C273 C272 1.348 . S
C273 H289 0.930 . S
Gd274 N294 2.622 . S
Gd274 N301 2.570 . S
Gd274 O308 2.353 . S
Gd274 O309 2.468 . S
Gd274 O310 2.427 . S
Gd274 O312 2.388 . S
Gd274 O313 2.386 . S
Gd274 O317 2.307 . S
Gd274 C327 2.805 . S
Gd275 N270 2.622 . S
Gd275 N276 2.570 . S
Gd275 O307 2.386 . S
Gd275 O311 2.307 1_655 S
Gd275 O314 2.353 1_655 S
Gd275 O315 2.468 . S
Gd275 O316 2.427 . S
Gd275 O318 2.388 . S
Gd275 C339 2.805 . S
N276 C266 1.359 . S
N276 Gd275 2.570 . S
N276 C278 1.343 . S
C277 C265 1.422 . S
C277 C279 1.321 . S
C277 H285 0.931 . S
C278 N276 1.343 . S
C278 C279 1.390 . S
C278 H280 0.931 . S
C279 C277 1.321 . S
C279 C278 1.390 . S
C279 H281 0.930 . S
H280 C278 0.931 . S
H281 C279 0.930 . S
H282 C305 0.931 . S
H283 C271 0.929 . S
H284 C306 0.930 . S
H285 C277 0.931 . S
H286 C267 0.930 . S
H287 C296 0.929 . S
H288 C272 0.931 . S
H289 C273 0.930 . S
H290 C328 0.930 . S
H291 C269 0.929 . S
H292 C297 0.931 . S
H293 C298 0.930 . S
N294 Gd274 2.622 . S
N294 C295 1.369 . S
N294 C296 1.338 . S
C295 N294 1.369 . S
C295 C299 1.415 . S
C295 C302 1.422 . S
C296 H287 0.929 . S
C296 N294 1.338 . S
C296 C298 1.378 . S
C297 H292 0.931 . S
C297 C298 1.348 . S
C297 C299 1.413 . S
C298 H293 0.930 . S
C298 C296 1.378 . S
C298 C297 1.348 . S
C299 C295 1.415 . S
C299 C297 1.413 . S
C299 C329 1.437 . S
H300 C329 0.929 . S
N301 Gd274 2.570 . S
N301 C302 1.359 . S
N301 C305 1.343 . S
C302 C295 1.422 . S
C302 N301 1.359 . S
C302 C304 1.421 . S
C303 C304 1.422 . S
C303 C306 1.321 . S
C303 H330 0.931 . S
C304 C302 1.421 . S
C304 C303 1.422 . S
C304 C328 1.417 . S
C305 H282 0.931 . S
C305 N301 1.343 . S
C305 C306 1.390 . S
C306 H284 0.930 . S
C306 C303 1.321 . S
C306 C305 1.390 . S
O307 Gd275 2.386 . S
O307 C319 1.265 . S
O308 Gd274 2.353 . S
O308 C319 1.242 1_455 S
O309 Gd274 2.468 . S
O309 C327 1.263 . S
O310 Gd274 2.427 . S
O310 C327 1.252 . S
O311 Gd275 2.307 1_455 S
O311 C320 1.261 . S
O312 Gd274 2.388 . S
O312 C320 1.252 . S
O313 Gd274 2.386 . S
O313 C331 1.265 . S
O314 Gd275 2.353 1_455 S
O314 C331 1.242 . S
O315 Gd275 2.468 . S
O315 C339 1.263 . S
O316 Gd275 2.427 . S
O316 C339 1.252 . S
O317 Gd274 2.307 . S
O317 C332 1.261 1_455 S
O318 Gd275 2.388 . S
O318 C332 1.252 . S
C319 O307 1.265 . S
C319 O308 1.242 1_655 S
C320 O311 1.261 . S
C320 O312 1.252 . S
C321 C324 1.394 . S
C321 C326 1.370 . S
C321 C327 1.500 . S
C322 C325 1.383 . S
C322 C326 1.395 . S
C323 C324 1.396 . S
C323 C325 1.365 . S
C323 H340 0.929 . S
C324 C321 1.394 . S
C324 C323 1.396 . S
C324 H341 0.930 . S
C325 C322 1.383 . S
C325 C323 1.365 . S
C325 H342 0.931 . S
C326 C321 1.370 . S
C326 C322 1.395 . S
C326 H343 0.930 . S
C327 Gd274 2.805 . S
C327 O309 1.263 . S
C327 O310 1.252 . S
C327 C321 1.500 . S
C328 H290 0.930 . S
C328 C304 1.417 . S
C328 C329 1.329 . S
C329 C299 1.437 . S
C329 H300 0.929 . S
C329 C328 1.329 . S
H330 C303 0.931 . S
C331 O313 1.265 . S
C331 O314 1.242 . S
C332 O317 1.261 1_655 S
C332 O318 1.252 . S
C333 C336 1.394 . S
C333 C338 1.370 . S
C333 C339 1.500 . S
C334 C337 1.383 . S
C334 C338 1.395 . S
C335 C336 1.396 . S
C335 C337 1.365 . S
C335 H344 0.929 . S
C336 C333 1.394 . S
C336 C335 1.396 . S
C336 H345 0.930 . S
C337 C334 1.383 . S
C337 C335 1.365 . S
C337 H346 0.931 . S
C338 C333 1.370 . S
C338 C334 1.395 . S
C338 H347 0.930 . S
C339 Gd275 2.805 . S
C339 O315 1.263 . S
C339 O316 1.252 . S
C339 C333 1.500 . S
H340 C323 0.929 . S
H341 C324 0.930 . S
H342 C325 0.931 . S
H343 C326 0.930 . S
H344 C335 0.929 . S
H345 C336 0.930 . S
H346 C337 0.931 . S
H347 C338 0.930 . S
C348 C350 1.422 . S
C348 C352 1.415 . S
C348 N354 1.369 . S
C349 C350 1.421 . S
C349 C351 1.417 . S
C349 C361 1.422 . S
C350 C348 1.422 . S
C350 C349 1.421 . S
C350 N360 1.359 . S
C351 C349 1.417 . S
C351 C353 1.329 . S
C351 H370 0.930 . S
C352 C348 1.415 . S
C352 C353 1.437 . S
C352 C356 1.413 . S
C353 C351 1.329 . S
C353 C352 1.437 . S
C353 H375 0.929 . S
N354 C348 1.369 . S
N354 C355 1.338 . S
N354 Gd359 2.622 . S
C355 N354 1.338 . S
C355 C357 1.378 . S
C355 H367 0.929 . S
C356 C352 1.413 . S
C356 C357 1.348 . S
C356 H372 0.931 . S
C357 C355 1.378 . S
C357 C356 1.348 . S
C357 H373 0.930 . S
Gd358 N378 2.622 . S
Gd358 N385 2.570 . S
Gd358 O392 2.353 . S
Gd358 O393 2.468 . S
Gd358 O394 2.427 . S
Gd358 O396 2.388 . S
Gd358 O397 2.386 . S
Gd358 O401 2.307 . S
Gd358 C411 2.805 . S
Gd359 N354 2.622 . S
Gd359 N360 2.570 . S
Gd359 O391 2.386 . S
Gd359 O395 2.307 . S
Gd359 O398 2.353 . S
Gd359 O399 2.468 . S
Gd359 O400 2.427 . S
Gd359 O402 2.388 . S
Gd359 C423 2.805 . S
N360 C350 1.359 . S
N360 Gd359 2.570 . S
N360 C362 1.343 . S
C361 C349 1.422 . S
C361 C363 1.321 . S
C361 H369 0.931 . S
C362 N360 1.343 . S
C362 C363 1.390 . S
C362 H364 0.931 . S
C363 C361 1.321 . S
C363 C362 1.390 . S
C363 H365 0.930 . S
H364 C362 0.931 . S
H365 C363 0.930 . S
H366 C389 0.931 . S
H367 C355 0.929 . S
H368 C390 0.930 . S
H369 C361 0.931 . S
H370 C351 0.930 . S
H371 C380 0.929 . S
H372 C356 0.931 . S
H373 C357 0.930 . S
H374 C412 0.930 . S
H375 C353 0.929 . S
H376 C381 0.931 . S
H377 C382 0.930 . S
N378 Gd358 2.622 . S
N378 C379 1.369 . S
N378 C380 1.338 . S
C379 N378 1.369 . S
C379 C383 1.415 . S
C379 C386 1.422 . S
C380 H371 0.929 . S
C380 N378 1.338 . S
C380 C382 1.378 . S
C381 H376 0.931 . S
C381 C382 1.348 . S
C381 C383 1.413 . S
C382 H377 0.930 . S
C382 C380 1.378 . S
C382 C381 1.348 . S
C383 C379 1.415 . S
C383 C381 1.413 . S
C383 C413 1.437 . S
H384 C413 0.929 . S
N385 Gd358 2.570 . S
N385 C386 1.359 . S
N385 C389 1.343 . S
C386 C379 1.422 . S
C386 N385 1.359 . S
C386 C388 1.421 . S
C387 C388 1.422 . S
C387 C390 1.321 . S
C387 H414 0.931 . S
C388 C386 1.421 . S
C388 C387 1.422 . S
C388 C412 1.417 . S
C389 H366 0.931 . S
C389 N385 1.343 . S
C389 C390 1.390 . S
C390 H368 0.930 . S
C390 C387 1.321 . S
C390 C389 1.390 . S
O391 Gd359 2.386 . S
O391 C403 1.265 . S
O392 Gd358 2.353 . S
O392 C403 1.242 . S
O393 Gd358 2.468 . S
O393 C411 1.263 . S
O394 Gd358 2.427 . S
O394 C411 1.252 . S
O395 Gd359 2.307 . S
O395 C404 1.261 . S
O396 Gd358 2.388 . S
O396 C404 1.252 . S
O397 Gd358 2.386 . S
O397 C415 1.265 . S
O398 Gd359 2.353 . S
O398 C415 1.242 . S
O399 Gd359 2.468 . S
O399 C423 1.263 . S
O400 Gd359 2.427 . S
O400 C423 1.252 . S
O401 Gd358 2.307 . S
O401 C416 1.261 . S
O402 Gd359 2.388 . S
O402 C416 1.252 . S
C403 O391 1.265 . S
C403 O392 1.242 . S
C404 O395 1.261 . S
C404 O396 1.252 . S
C405 C408 1.394 . S
C405 C410 1.370 . S
C405 C411 1.500 . S
C406 C409 1.383 . S
C406 C410 1.395 . S
C407 C408 1.396 . S
C407 C409 1.365 . S
C407 H424 0.929 . S
C408 C405 1.394 . S
C408 C407 1.396 . S
C408 H425 0.930 . S
C409 C406 1.383 . S
C409 C407 1.365 . S
C409 H426 0.931 . S
C410 C405 1.370 . S
C410 C406 1.395 . S
C410 H427 0.930 . S
C411 Gd358 2.805 . S
C411 O393 1.263 . S
C411 O394 1.252 . S
C411 C405 1.500 . S
C412 H374 0.930 . S
C412 C388 1.417 . S
C412 C413 1.329 . S
C413 C383 1.437 . S
C413 H384 0.929 . S
C413 C412 1.329 . S
H414 C387 0.931 . S
C415 O397 1.265 . S
C415 O398 1.242 . S
C416 O401 1.261 . S
C416 O402 1.252 . S
C417 C420 1.394 . S
C417 C422 1.370 . S
C417 C423 1.500 . S
C418 C421 1.383 . S
C418 C422 1.395 . S
C419 C420 1.396 . S
C419 C421 1.365 . S
C419 H428 0.929 . S
C420 C417 1.394 . S
C420 C419 1.396 . S
C420 H429 0.930 . S
C421 C418 1.383 . S
C421 C419 1.365 . S
C421 H430 0.931 . S
C422 C417 1.370 . S
C422 C418 1.395 . S
C422 H431 0.930 . S
C423 Gd359 2.805 . S
C423 O399 1.263 . S
C423 O400 1.252 . S
C423 C417 1.500 . S
H424 C407 0.929 . S
H425 C408 0.930 . S
H426 C409 0.931 . S
H427 C410 0.930 . S
H428 C419 0.929 . S
H429 C420 0.930 . S
H430 C421 0.931 . S
H431 C422 0.930 . S
C432 C433 1.349 . S
C432 C434 1.327 . S
C432 H457 0.950 . S
C433 C432 1.349 . S
C433 C449 1.349 . S
C434 C432 1.327 . S
C434 C453 1.429 . S
C434 H458 0.950 . S
C435 C452 1.572 . S
C435 C454 1.368 . S
C435 H459 0.949 . S
H436 C440 0.949 . S
C437 C438 1.349 . S
C437 C439 1.327 . S
C437 H460 0.950 . S
C438 C437 1.349 . S
C438 C450 1.349 . S
C439 C437 1.327 . S
C439 C455 1.429 . S
C439 H461 0.950 . S
C440 H436 0.949 . S
C440 C448 1.574 . S
C440 C456 1.368 . S
H441 C449 0.950 . S
H442 C447 0.950 . S
H443 C448 0.949 . S
H444 C450 0.950 . S
H445 C451 0.950 1_565 S
H446 C452 0.951 1_545 S
C447 H442 0.950 . S
C447 C449 1.327 . S
C447 C453 1.429 . S
C448 C440 1.574 . S
C448 H443 0.949 . S
C448 C454 1.368 . S
C449 C433 1.349 . S
C449 H441 0.950 . S
C449 C447 1.327 . S
C450 C438 1.349 . S
C450 H444 0.950 . S
C450 C451 1.327 . S
C451 H445 0.950 1_545 S
C451 C450 1.327 . S
C451 C455 1.429 . S
C452 C435 1.572 . S
C452 H446 0.951 1_565 S
C452 C456 1.368 . S
C453 C434 1.429 . S
C453 C447 1.429 . S
C453 C454 1.523 . S
C454 C435 1.368 . S
C454 C448 1.368 . S
C454 C453 1.523 . S
C455 C439 1.429 . S
C455 C451 1.429 . S
C455 C456 1.523 1_545 S
C456 C440 1.368 . S
C456 C452 1.368 . S
C456 C455 1.523 1_565 S
H457 C432 0.950 . S
H458 C434 0.950 . S
H459 C435 0.949 . S
H460 C437 0.950 . S
H461 C439 0.950 . S
C462 C463 1.349 . S
C462 C464 1.327 . S
C462 H487 0.950 . S
C463 C462 1.349 . S
C463 C479 1.349 . S
C464 C462 1.327 . S
C464 C483 1.429 . S
C464 H488 0.950 . S
C465 C482 1.574 . S
C465 C484 1.368 . S
C465 H489 0.949 . S
H466 C470 0.949 . S
C467 C468 1.349 . S
C467 C469 1.327 . S
C467 H490 0.950 . S
C468 C467 1.349 . S
C468 C480 1.349 . S
C469 C467 1.327 . S
C469 C485 1.429 . S
C469 H491 0.950 . S
C470 H466 0.949 . S
C470 C478 1.574 . S
C470 C486 1.368 . S
H471 C479 0.950 . S
H472 C477 0.950 . S
H473 C478 0.949 . S
H474 C480 0.950 . S
H475 C481 0.950 . S
H476 C482 0.949 . S
C477 H472 0.950 . S
C477 C479 1.327 . S
C477 C483 1.429 . S
C478 C470 1.574 . S
C478 H473 0.949 . S
C478 C484 1.368 . S
C479 C463 1.349 . S
C479 H471 0.950 . S
C479 C477 1.327 . S
C480 C468 1.349 . S
C480 H474 0.950 . S
C480 C481 1.327 . S
C481 H475 0.950 . S
C481 C480 1.327 . S
C481 C485 1.429 . S
C482 C465 1.574 . S
C482 H476 0.949 . S
C482 C486 1.368 . S
C483 C464 1.429 . S
C483 C477 1.429 . S
C483 C484 1.523 . S
C484 C465 1.368 . S
C484 C478 1.368 . S
C484 C483 1.523 . S
C485 C469 1.429 . S
C485 C481 1.429 . S
C485 C486 1.523 . S
C486 C470 1.368 . S
C486 C482 1.368 . S
C486 C485 1.523 . S
H487 C462 0.950 . S
H488 C464 0.950 . S
H489 C465 0.949 . S
H490 C467 0.950 . S
H491 C469 0.950 . S
C492 C493 1.349 . S
C492 C494 1.327 . S
C492 H517 0.950 . S
C493 C492 1.349 . S
C493 C509 1.349 . S
C494 C492 1.327 . S
C494 C513 1.429 . S
C494 H518 0.950 . S
C495 C512 1.574 . S
C495 C514 1.368 . S
C495 H519 0.949 . S
H496 C500 0.949 . S
C497 C498 1.349 . S
C497 C499 1.327 . S
C497 H520 0.950 . S
C498 C497 1.349 . S
C498 C510 1.349 . S
C499 C497 1.327 . S
C499 C515 1.429 . S
C499 H521 0.950 . S
C500 H496 0.949 . S
C500 C508 1.574 . S
C500 C516 1.368 . S
H501 C509 0.950 . S
H502 C507 0.950 . S
H503 C508 0.949 . S
H504 C510 0.950 . S
H505 C511 0.950 . S
H506 C512 0.949 . S
C507 H502 0.950 . S
C507 C509 1.327 . S
C507 C513 1.429 . S
C508 C500 1.574 . S
C508 H503 0.949 . S
C508 C514 1.368 . S
C509 C493 1.349 . S
C509 H501 0.950 . S
C509 C507 1.327 . S
C510 C498 1.349 . S
C510 H504 0.950 . S
C510 C511 1.327 . S
C511 H505 0.950 . S
C511 C510 1.327 . S
C511 C515 1.429 . S
C512 C495 1.574 . S
C512 H506 0.949 . S
C512 C516 1.368 . S
C513 C494 1.429 . S
C513 C507 1.429 . S
C513 C514 1.523 . S
C514 C495 1.368 . S
C514 C508 1.368 . S
C514 C513 1.523 . S
C515 C499 1.429 . S
C515 C511 1.429 . S
C515 C516 1.523 . S
C516 C500 1.368 . S
C516 C512 1.368 . S
C516 C515 1.523 . S
H517 C492 0.950 . S
H518 C494 0.950 . S
H519 C495 0.949 . S
H520 C497 0.950 . S
H521 C499 0.950 . S
C522 C523 1.349 . S
C522 C524 1.327 . S
C522 H547 0.950 . S
C523 C522 1.349 . S
C523 C539 1.349 . S
C524 C522 1.327 . S
C524 C543 1.429 . S
C524 H548 0.950 . S
C525 C542 1.574 . S
C525 C544 1.368 . S
C525 H549 0.949 . S
H526 C530 0.949 . S
C527 C528 1.349 . S
C527 C529 1.327 . S
C527 H550 0.950 . S
C528 C527 1.349 . S
C528 C540 1.349 . S
C529 C527 1.327 . S
C529 C545 1.429 . S
C529 H551 0.950 . S
C530 H526 0.949 . S
C530 C538 1.574 . S
C530 C546 1.368 . S
H531 C539 0.950 . S
H532 C537 0.950 . S
H533 C538 0.949 . S
H534 C540 0.950 . S
H535 C541 0.950 . S
H536 C542 0.949 1_545 S
C537 H532 0.950 . S
C537 C539 1.327 . S
C537 C543 1.429 . S
C538 C530 1.574 . S
C538 H533 0.949 . S
C538 C544 1.368 . S
C539 C523 1.349 . S
C539 H531 0.950 . S
C539 C537 1.327 . S
C540 C528 1.349 . S
C540 H534 0.950 . S
C540 C541 1.327 . S
C541 H535 0.950 . S
C541 C540 1.327 . S
C541 C545 1.429 . S
C542 C525 1.574 . S
C542 H536 0.949 1_565 S
C542 C546 1.368 . S
C543 C524 1.429 . S
C543 C537 1.429 . S
C543 C544 1.523 . S
C544 C525 1.368 . S
C544 C538 1.368 . S
C544 C543 1.523 . S
C545 C529 1.429 . S
C545 C541 1.429 . S
C545 C546 1.523 1_545 S
C546 C530 1.368 . S
C546 C542 1.368 . S
C546 C545 1.523 1_565 S
H547 C522 0.950 . S
H548 C524 0.950 . S
H549 C525 0.949 . S
H550 C527 0.950 . S
H551 C529 0.950 . S
C552 C553 1.349 . S
C552 C554 1.327 . S
C552 H577 0.950 . S
C553 C552 1.349 . S
C553 C569 1.349 . S
C554 C552 1.327 . S
C554 C573 1.429 . S
C554 H578 0.950 . S
C555 C572 1.574 . S
C555 C574 1.368 . S
C555 H579 0.949 . S
H556 C560 0.936 1_565 S
C557 C558 1.349 . S
C557 C559 1.327 . S
C557 H580 0.950 . S
C558 C557 1.349 . S
C558 C570 1.349 . S
C559 C557 1.327 . S
C559 C575 1.429 . S
C559 H581 0.950 . S
C560 H556 0.936 1_545 S
C560 C568 1.574 . S
C560 C576 1.368 . S
H561 C569 0.950 . S
H562 C567 0.950 . S
H563 C568 0.949 . S
H564 C570 0.950 . S
H565 C571 0.950 . S
H566 C572 0.949 . S
C567 H562 0.950 . S
C567 C569 1.327 . S
C567 C573 1.429 . S
C568 C560 1.574 . S
C568 H563 0.949 . S
C568 C574 1.368 . S
C569 C553 1.349 . S
C569 H561 0.950 . S
C569 C567 1.327 . S
C570 C558 1.349 . S
C570 H564 0.950 . S
C570 C571 1.327 . S
C571 H565 0.950 . S
C571 C570 1.327 . S
C571 C575 1.429 . S
C572 C555 1.574 . S
C572 H566 0.949 . S
C572 C576 1.368 . S
C573 C554 1.429 . S
C573 C567 1.429 . S
C573 C574 1.523 . S
C574 C555 1.368 . S
C574 C568 1.368 . S
C574 C573 1.523 . S
C575 C559 1.429 . S
C575 C571 1.429 . S
C575 C576 1.523 1_565 S
C576 C560 1.368 . S
C576 C572 1.368 . S
C576 C575 1.523 1_545 S
H577 C552 0.950 . S
H578 C554 0.950 . S
H579 C555 0.949 . S
H580 C557 0.950 . S
H581 C559 0.950 . S
C582 C583 1.349 . S
C582 C584 1.327 . S
C582 H607 0.950 . S
C583 C582 1.349 . S
C583 C599 1.349 . S
C584 C582 1.327 . S
C584 C603 1.429 . S
C584 H608 0.950 . S
C585 C602 1.574 . S
C585 C604 1.368 . S
C585 H609 0.949 . S
H586 C590 0.949 . S
C587 C588 1.349 . S
C587 C589 1.327 . S
C587 H610 0.950 . S
C588 C587 1.349 . S
C588 C600 1.349 . S
C589 C587 1.327 . S
C589 C605 1.429 . S
C589 H611 0.950 . S
C590 H586 0.949 . S
C590 C598 1.574 . S
C590 C606 1.368 . S
H591 C599 0.950 . S
H592 C597 0.950 . S
H593 C598 0.949 . S
H594 C600 0.950 . S
H595 C601 0.950 . S
H596 C602 0.949 . S
C597 H592 0.950 . S
C597 C599 1.327 . S
C597 C603 1.429 . S
C598 C590 1.574 . S
C598 H593 0.949 . S
C598 C604 1.368 . S
C599 C583 1.349 . S
C599 H591 0.950 . S
C599 C597 1.327 . S
C600 C588 1.349 . S
C600 H594 0.950 . S
C600 C601 1.327 . S
C601 H595 0.950 . S
C601 C600 1.327 . S
C601 C605 1.429 . S
C602 C585 1.574 . S
C602 H596 0.949 . S
C602 C606 1.368 . S
C603 C584 1.429 . S
C603 C597 1.429 . S
C603 C604 1.523 . S
C604 C585 1.368 . S
C604 C598 1.368 . S
C604 C603 1.523 . S
C605 C589 1.429 . S
C605 C601 1.429 . S
C605 C606 1.523 . S
C606 C590 1.368 . S
C606 C602 1.368 . S
C606 C605 1.523 . S
H607 C582 0.950 . S
H608 C584 0.950 . S
H609 C585 0.949 . S
H610 C587 0.950 . S
H611 C589 0.950 . S
C612 C613 1.349 . S
C612 C614 1.327 . S
C612 H637 0.950 . S
C613 C612 1.349 . S
C613 C629 1.349 . S
C614 C612 1.327 . S
C614 C633 1.429 . S
C614 H638 0.950 . S
C615 C632 1.574 . S
C615 C634 1.368 . S
C615 H639 0.949 . S
H616 C620 0.949 . S
C617 C618 1.349 . S
C617 C619 1.327 . S
C617 H640 0.950 . S
C618 C617 1.349 . S
C618 C630 1.349 . S
C619 C617 1.327 . S
C619 C635 1.429 . S
C619 H641 0.950 . S
C620 H616 0.949 . S
C620 C628 1.574 . S
C620 C636 1.368 . S
H621 C629 0.950 . S
H622 C627 0.950 . S
H623 C628 0.949 . S
H624 C630 0.950 . S
H625 C631 0.950 . S
H626 C632 0.949 . S
C627 H622 0.950 . S
C627 C629 1.327 . S
C627 C633 1.429 . S
C628 C620 1.574 . S
C628 H623 0.949 . S
C628 C634 1.368 . S
C629 C613 1.349 . S
C629 H621 0.950 . S
C629 C627 1.327 . S
C630 C618 1.349 . S
C630 H624 0.950 . S
C630 C631 1.327 . S
C631 H625 0.950 . S
C631 C630 1.327 . S
C631 C635 1.429 . S
C632 C615 1.574 . S
C632 H626 0.949 . S
C632 C636 1.368 . S
C633 C614 1.429 . S
C633 C627 1.429 . S
C633 C634 1.523 . S
C634 C615 1.368 . S
C634 C628 1.368 . S
C634 C633 1.523 . S
C635 C619 1.429 . S
C635 C631 1.429 . S
C635 C636 1.523 . S
C636 C620 1.368 . S
C636 C632 1.368 . S
C636 C635 1.523 . S
H637 C612 0.950 . S
H638 C614 0.950 . S
H639 C615 0.949 . S
H640 C617 0.950 . S
H641 C619 0.950 . S
C642 C643 1.349 . S
C642 C644 1.327 . S
C642 H667 0.950 . S
C643 C642 1.349 . S
C643 C659 1.349 . S
C644 C642 1.327 . S
C644 C663 1.429 . S
C644 H668 0.950 . S
C645 C662 1.574 . S
C645 C664 1.368 . S
C645 H669 0.949 . S
H646 C650 0.949 . S
C647 C648 1.349 . S
C647 C649 1.327 . S
C647 H670 0.950 . S
C648 C647 1.349 . S
C648 C660 1.349 . S
C649 C647 1.327 . S
C649 C665 1.429 . S
C649 H671 0.950 1_565 S
C650 H646 0.949 . S
C650 C658 1.574 1_565 S
C650 C666 1.368 1_565 S
H651 C659 0.950 . S
H652 C657 0.950 . S
H653 C658 0.949 . S
H654 C660 0.950 . S
H655 C661 0.950 . S
H656 C662 0.949 . S
C657 H652 0.950 . S
C657 C659 1.327 . S
C657 C663 1.429 . S
C658 C650 1.574 1_545 S
C658 H653 0.949 . S
C658 C664 1.368 . S
C659 C643 1.349 . S
C659 H651 0.950 . S
C659 C657 1.327 . S
C660 C648 1.349 . S
C660 H654 0.950 . S
C660 C661 1.327 . S
C661 H655 0.950 . S
C661 C660 1.327 . S
C661 C665 1.429 . S
C662 C645 1.574 . S
C662 H656 0.949 . S
C662 C666 1.368 . S
C663 C644 1.429 . S
C663 C657 1.429 . S
C663 C664 1.523 . S
C664 C645 1.368 . S
C664 C658 1.368 . S
C664 C663 1.523 . S
C665 C649 1.429 . S
C665 C661 1.429 . S
C665 C666 1.523 1_565 S
C666 C650 1.368 1_545 S
C666 C662 1.368 . S
C666 C665 1.523 1_545 S
H667 C642 0.950 . S
H668 C644 0.950 . S
H669 C645 0.949 . S
H670 C647 0.950 . S
H671 C649 0.950 1_545 S
C672 C673 1.349 . S
C672 C674 1.327 . S
C672 H697 0.950 . S
C673 C672 1.349 . S
C673 C689 1.349 . S
C674 C672 1.327 . S
C674 C693 1.429 . S
C674 H698 0.950 . S
C675 C692 1.574 . S
C675 C694 1.368 . S
C675 H699 0.949 . S
H676 C680 0.949 . S
C677 C678 1.349 . S
C677 C679 1.327 . S
C677 H700 0.950 . S
C678 C677 1.349 . S
C678 C690 1.349 . S
C679 C677 1.327 . S
C679 C695 1.429 . S
C679 H701 0.950 . S
C680 H676 0.949 . S
C680 C688 1.574 . S
C680 C696 1.368 . S
H681 C689 0.950 . S
H682 C687 0.950 . S
H683 C688 0.949 . S
H684 C690 0.950 . S
H685 C691 0.950 . S
H686 C692 0.949 . S
C687 H682 0.950 . S
C687 C689 1.327 . S
C687 C693 1.429 . S
C688 C680 1.574 . S
C688 H683 0.949 . S
C688 C694 1.368 . S
C689 C673 1.349 . S
C689 H681 0.950 . S
C689 C687 1.327 . S
C690 C678 1.349 . S
C690 H684 0.950 . S
C690 C691 1.327 . S
C691 H685 0.950 . S
C691 C690 1.327 . S
C691 C695 1.429 . S
C692 C675 1.574 . S
C692 H686 0.949 . S
C692 C696 1.368 . S
C693 C674 1.429 . S
C693 C687 1.429 . S
C693 C694 1.523 1_556 S
C694 C675 1.368 . S
C694 C688 1.368 . S
C694 C693 1.523 1_554 S
C695 C679 1.429 . S
C695 C691 1.429 . S
C695 C696 1.523 . S
C696 C680 1.368 . S
C696 C692 1.368 . S
C696 C695 1.523 . S
H697 C672 0.950 . S
H698 C674 0.950 . S
H699 C675 0.949 . S
H700 C677 0.950 . S
H701 C679 0.950 . S
C702 C703 1.349 . S
C702 C704 1.327 . S
C702 H727 0.950 . S
C703 C702 1.349 . S
C703 C719 1.349 . S
C704 C702 1.327 . S
C704 C723 1.429 . S
C704 H728 0.950 . S
C705 C722 1.574 . S
C705 C724 1.368 . S
C705 H729 0.949 . S
H706 C710 0.949 . S
C707 C708 1.349 . S
C707 C709 1.327 . S
C707 H730 0.950 . S
C708 C707 1.349 . S
C708 C720 1.349 . S
C709 C707 1.327 . S
C709 C725 1.429 . S
C709 H731 0.950 . S
C710 H706 0.949 . S
C710 C718 1.574 . S
C710 C726 1.368 . S
H711 C719 0.950 . S
H712 C717 0.950 . S
H713 C718 0.949 . S
H714 C720 0.950 . S
H715 C721 0.950 . S
H716 C722 0.949 . S
C717 H712 0.950 . S
C717 C719 1.327 . S
C717 C723 1.429 . S
C718 C710 1.574 . S
C718 H713 0.949 . S
C718 C724 1.368 . S
C719 C703 1.349 . S
C719 H711 0.950 . S
C719 C717 1.327 . S
C720 C708 1.349 . S
C720 H714 0.950 . S
C720 C721 1.327 . S
C721 H715 0.950 . S
C721 C720 1.327 . S
C721 C725 1.429 . S
C722 C705 1.574 . S
C722 H716 0.949 . S
C722 C726 1.368 . S
C723 C704 1.429 . S
C723 C717 1.429 . S
C723 C724 1.523 . S
C724 C705 1.368 . S
C724 C718 1.368 . S
C724 C723 1.523 . S
C725 C709 1.429 . S
C725 C721 1.429 . S
C725 C726 1.523 . S
C726 C710 1.368 . S
C726 C722 1.368 . S
C726 C725 1.523 . S
H727 C702 0.950 . S
H728 C704 0.950 . S
H729 C705 0.949 . S
H730 C707 0.950 . S
H731 C709 0.950 . S
C732 C733 1.349 . S
C732 C734 1.327 . S
C732 H757 0.950 . S
C733 C732 1.349 . S
C733 C749 1.349 . S
C734 C732 1.327 . S
C734 C753 1.429 . S
C734 H758 0.950 . S
C735 C752 1.574 . S
C735 C754 1.368 . S
C735 H759 0.949 . S
H736 C740 0.949 . S
C737 C738 1.349 . S
C737 C739 1.327 . S
C737 H760 0.950 . S
C738 C737 1.349 . S
C738 C750 1.349 . S
C739 C737 1.327 . S
C739 C755 1.429 . S
C739 H761 0.950 . S
C740 H736 0.949 . S
C740 C748 1.574 . S
C740 C756 1.368 . S
H741 C749 0.950 . S
H742 C747 0.950 . S
H743 C748 0.949 . S
H744 C750 0.950 . S
H745 C751 0.950 . S
H746 C752 0.949 . S
C747 H742 0.950 . S
C747 C749 1.327 . S
C747 C753 1.429 . S
C748 C740 1.574 . S
C748 H743 0.949 . S
C748 C754 1.368 . S
C749 C733 1.349 . S
C749 H741 0.950 . S
C749 C747 1.327 . S
C750 C738 1.349 . S
C750 H744 0.950 . S
C750 C751 1.327 . S
C751 H745 0.950 . S
C751 C750 1.327 . S
C751 C755 1.429 . S
C752 C735 1.574 . S
C752 H746 0.949 . S
C752 C756 1.368 . S
C753 C734 1.429 . S
C753 C747 1.429 . S
C753 C754 1.523 1_554 S
C754 C735 1.368 . S
C754 C748 1.368 . S
C754 C753 1.523 1_556 S
C755 C739 1.429 . S
C755 C751 1.429 . S
C755 C756 1.523 . S
C756 C740 1.368 . S
C756 C752 1.368 . S
C756 C755 1.523 . S
H757 C732 0.950 . S
H758 C734 0.950 . S
H759 C735 0.949 . S
H760 C737 0.950 . S
H761 C739 0.950 . S
C762 C763 1.349 . S
C762 C764 1.327 . S
C762 H787 0.950 . S
C763 C762 1.349 . S
C763 C779 1.349 . S
C764 C762 1.327 . S
C764 C783 1.429 . S
C764 H788 0.950 . S
C765 C782 1.574 . S
C765 C784 1.368 . S
C765 H789 0.949 . S
H766 C770 0.949 . S
C767 C768 1.349 . S
C767 C769 1.327 . S
C767 H790 0.950 . S
C768 C767 1.349 . S
C768 C780 1.349 . S
C769 C767 1.327 . S
C769 C785 1.429 . S
C769 H791 0.950 . S
C770 H766 0.949 . S
C770 C778 1.574 . S
C770 C786 1.368 . S
H771 C779 0.950 . S
H772 C777 0.950 . S
H773 C778 0.949 . S
H774 C780 0.950 . S
H775 C781 0.950 . S
H776 C782 0.949 . S
C777 H772 0.950 . S
C777 C779 1.327 . S
C777 C783 1.429 . S
C778 C770 1.574 . S
C778 H773 0.949 . S
C778 C784 1.368 . S
C779 C763 1.349 . S
C779 H771 0.950 . S
C779 C777 1.327 . S
C780 C768 1.349 . S
C780 H774 0.950 . S
C780 C781 1.327 . S
C781 H775 0.950 . S
C781 C780 1.327 . S
C781 C785 1.429 . S
C782 C765 1.574 . S
C782 H776 0.949 . S
C782 C786 1.368 . S
C783 C764 1.429 . S
C783 C777 1.429 . S
C783 C784 1.523 . S
C784 C765 1.368 . S
C784 C778 1.368 . S
C784 C783 1.523 . S
C785 C769 1.429 . S
C785 C781 1.429 . S
C785 C786 1.523 . S
C786 C770 1.368 . S
C786 C782 1.368 . S
C786 C785 1.523 . S
H787 C762 0.950 . S
H788 C764 0.950 . S
H789 C765 0.949 . S
H790 C767 0.950 . S
H791 C769 0.950 . S
C792 C793 1.349 . S
C792 C794 1.327 . S
C792 H817 0.950 . S
C793 C792 1.349 . S
C793 C809 1.349 . S
C794 C792 1.327 . S
C794 C813 1.429 . S
C794 H818 0.950 . S
C795 C812 1.574 . S
C795 C814 1.368 . S
C795 H819 0.949 . S
H796 C800 0.949 . S
C797 C798 1.349 . S
C797 C799 1.327 . S
C797 H820 0.950 . S
C798 C797 1.349 . S
C798 C810 1.349 . S
C799 C797 1.327 . S
C799 C815 1.429 . S
C799 H821 0.950 . S
C800 H796 0.949 . S
C800 C808 1.574 . S
C800 C816 1.368 . S
H801 C809 0.950 . S
H802 C807 0.919 1_556 S
H803 C808 0.949 . S
H804 C810 0.950 . S
H805 C811 0.950 . S
H806 C812 0.949 . S
C807 H802 0.919 1_554 S
C807 C809 1.327 . S
C807 C813 1.429 . S
C808 C800 1.574 . S
C808 H803 0.949 . S
C808 C814 1.368 . S
C809 C793 1.349 . S
C809 H801 0.950 . S
C809 C807 1.327 . S
C810 C798 1.349 . S
C810 H804 0.950 . S
C810 C811 1.327 . S
C811 H805 0.950 . S
C811 C810 1.327 . S
C811 C815 1.429 . S
C812 C795 1.574 . S
C812 H806 0.949 . S
C812 C816 1.368 . S
C813 C794 1.429 . S
C813 C807 1.429 . S
C813 C814 1.523 1_554 S
C814 C795 1.368 . S
C814 C808 1.368 . S
C814 C813 1.523 1_556 S
C815 C799 1.429 . S
C815 C811 1.429 . S
C815 C816 1.523 . S
C816 C800 1.368 . S
C816 C812 1.368 . S
C816 C815 1.523 . S
H817 C792 0.950 . S
H818 C794 0.950 . S
H819 C795 0.949 . S
H820 C797 0.950 . S
H821 C799 0.950 . S
C822 C823 1.349 . S
C822 C824 1.327 . S
C822 H847 0.950 . S
C823 C822 1.349 . S
C823 C839 1.349 . S
C824 C822 1.327 . S
C824 C843 1.429 . S
C824 H848 0.950 . S
C825 C842 1.574 . S
C825 C844 1.368 . S
C825 H849 0.949 . S
H826 C830 0.949 . S
C827 C828 1.349 . S
C827 C829 1.327 . S
C827 H850 0.950 . S
C828 C827 1.349 . S
C828 C840 1.349 . S
C829 C827 1.327 . S
C829 C845 1.429 . S
C829 H851 0.950 . S
C830 H826 0.949 . S
C830 C838 1.574 . S
C830 C846 1.368 . S
H831 C839 0.950 . S
H832 C837 0.950 . S
H833 C838 0.949 . S
H834 C840 0.950 . S
H835 C841 0.950 . S
H836 C842 0.949 . S
C837 H832 0.950 . S
C837 C839 1.327 . S
C837 C843 1.429 . S
C838 C830 1.574 . S
C838 H833 0.949 . S
C838 C844 1.368 . S
C839 C823 1.349 . S
C839 H831 0.950 . S
C839 C837 1.327 . S
C840 C828 1.349 . S
C840 H834 0.950 . S
C840 C841 1.327 . S
C841 H835 0.950 . S
C841 C840 1.327 . S
C841 C845 1.429 . S
C842 C825 1.574 . S
C842 H836 0.949 . S
C842 C846 1.368 . S
C843 C824 1.429 . S
C843 C837 1.429 . S
C843 C844 1.523 . S
C844 C825 1.368 . S
C844 C838 1.368 . S
C844 C843 1.523 . S
C845 C829 1.429 . S
C845 C841 1.429 . S
C845 C846 1.523 . S
C846 C830 1.368 . S
C846 C842 1.368 . S
C846 C845 1.523 . S
H847 C822 0.950 . S
H848 C824 0.950 . S
H849 C825 0.949 . S
H850 C827 0.950 . S
H851 C829 0.950 . S
C852 C853 1.349 . S
C852 C854 1.327 . S
C852 H877 0.950 . S
C853 C852 1.349 . S
C853 C869 1.349 . S
C854 C852 1.327 . S
C854 C873 1.429 . S
C854 H878 0.950 . S
C855 C872 1.574 . S
C855 C874 1.368 . S
C855 H879 0.949 . S
H856 C860 0.949 . S
C857 C858 1.349 . S
C857 C859 1.327 . S
C857 H880 0.950 . S
C858 C857 1.349 . S
C858 C870 1.349 . S
C859 C857 1.327 . S
C859 C875 1.429 . S
C859 H881 0.950 . S
C860 H856 0.949 . S
C860 C868 1.574 . S
C860 C876 1.368 . S
H861 C869 0.950 . S
H862 C867 0.950 . S
H863 C868 0.949 . S
H864 C870 0.950 . S
H865 C871 0.950 . S
H866 C872 0.949 . S
C867 H862 0.950 . S
C867 C869 1.327 . S
C867 C873 1.429 . S
C868 C860 1.574 . S
C868 H863 0.949 . S
C868 C874 1.368 . S
C869 C853 1.349 . S
C869 H861 0.950 . S
C869 C867 1.327 . S
C870 C858 1.349 . S
C870 H864 0.950 . S
C870 C871 1.327 . S
C871 H865 0.950 . S
C871 C870 1.327 . S
C871 C875 1.429 . S
C872 C855 1.574 . S
C872 H866 0.949 . S
C872 C876 1.368 . S
C873 C854 1.429 . S
C873 C867 1.429 . S
C873 C874 1.523 1_556 S
C874 C855 1.368 . S
C874 C868 1.368 . S
C874 C873 1.523 1_554 S
C875 C859 1.429 . S
C875 C871 1.429 . S
C875 C876 1.523 . S
C876 C860 1.368 . S
C876 C872 1.368 . S
C876 C875 1.523 . S
H877 C852 0.950 . S
H878 C854 0.950 . S
H879 C855 0.949 . S
H880 C857 0.950 . S
H881 C859 0.950 . S
C882 C883 1.349 . S
C882 C884 1.327 . S
C882 H907 0.950 . S
C883 C882 1.349 . S
C883 C899 1.349 . S
C884 C882 1.327 . S
C884 C903 1.429 . S
C884 H908 0.950 . S
C885 C902 1.574 . S
C885 C904 1.368 . S
C885 H909 0.949 . S
H886 C890 0.949 . S
C887 C888 1.349 . S
C887 C889 1.327 . S
C887 H910 0.950 . S
C888 C887 1.349 . S
C888 C900 1.349 . S
C889 C887 1.327 . S
C889 C905 1.429 . S
C889 H911 0.950 . S
C890 H886 0.949 . S
C890 C898 1.574 . S
C890 C906 1.368 . S
H891 C899 0.950 . S
H892 C897 0.950 . S
H893 C898 0.949 . S
H894 C900 0.950 . S
H895 C901 0.950 . S
H896 C902 0.949 . S
C897 H892 0.950 . S
C897 C899 1.327 . S
C897 C903 1.429 . S
C898 C890 1.574 . S
C898 H893 0.949 . S
C898 C904 1.368 . S
C899 C883 1.349 . S
C899 H891 0.950 . S
C899 C897 1.327 . S
C900 C888 1.349 . S
C900 H894 0.950 . S
C900 C901 1.327 . S
C901 H895 0.950 . S
C901 C900 1.327 . S
C901 C905 1.429 . S
C902 C885 1.574 . S
C902 H896 0.949 . S
C902 C906 1.368 . S
C903 C884 1.429 . S
C903 C897 1.429 . S
C903 C904 1.523 . S
C904 C885 1.368 . S
C904 C898 1.368 . S
C904 C903 1.523 . S
C905 C889 1.429 . S
C905 C901 1.429 . S
C905 C906 1.523 . S
C906 C890 1.368 . S
C906 C902 1.368 . S
C906 C905 1.523 . S
H907 C882 0.950 . S
H908 C884 0.950 . S
H909 C885 0.949 . S
H910 C887 0.950 . S
H911 C889 0.950 . S
C912 C913 1.349 . S
C912 C914 1.327 . S
C912 H937 0.950 . S
C913 C912 1.349 . S
C913 C929 1.349 . S
C914 C912 1.327 . S
C914 C933 1.429 . S
C914 H938 0.950 . S
C915 C932 1.574 . S
C915 C934 1.368 . S
C915 H939 0.949 . S
H916 C920 0.949 . S
C917 C918 1.349 . S
C917 C919 1.327 . S
C917 H940 0.950 . S
C918 C917 1.349 . S
C918 C930 1.349 . S
C919 C917 1.327 . S
C919 C935 1.429 . S
C919 H941 0.950 . S
C920 H916 0.949 . S
C920 C928 1.574 . S
C920 C936 1.368 . S
H921 C929 0.950 . S
H922 C927 0.950 . S
H923 C928 0.949 . S
H924 C930 0.950 . S
H925 C931 0.950 . S
H926 C932 0.949 . S
C927 H922 0.950 . S
C927 C929 1.327 . S
C927 C933 1.429 . S
C928 C920 1.574 . S
C928 H923 0.949 . S
C928 C934 1.368 . S
C929 C913 1.349 . S
C929 H921 0.950 . S
C929 C927 1.327 . S
C930 C918 1.349 . S
C930 H924 0.950 . S
C930 C931 1.327 . S
C931 H925 0.950 . S
C931 C930 1.327 . S
C931 C935 1.429 . S
C932 C915 1.574 . S
C932 H926 0.949 . S
C932 C936 1.368 . S
C933 C914 1.429 . S
C933 C927 1.429 . S
C933 C934 1.523 . S
C934 C915 1.368 . S
C934 C928 1.368 . S
C934 C933 1.523 . S
C935 C919 1.429 . S
C935 C931 1.429 . S
C935 C936 1.523 . S
C936 C920 1.368 . S
C936 C932 1.368 . S
C936 C935 1.523 . S
H937 C912 0.950 . S
H938 C914 0.950 . S
H939 C915 0.949 . S
H940 C917 0.950 . S
H941 C919 0.950 . S
C942 C943 1.349 . S
C942 C944 1.327 . S
C942 H967 0.950 . S
C943 C942 1.349 . S
C943 C959 1.349 . S
C944 C942 1.327 . S
C944 C963 1.429 . S
C944 H968 0.950 . S
C945 C962 1.574 . S
C945 C964 1.368 . S
C945 H969 0.949 . S
H946 C950 0.949 . S
C947 C948 1.349 . S
C947 C949 1.327 . S
C947 H970 0.950 . S
C948 C947 1.349 . S
C948 C960 1.349 . S
C949 C947 1.327 . S
C949 C965 1.429 . S
C949 H971 0.950 . S
C950 H946 0.949 . S
C950 C958 1.574 . S
C950 C966 1.368 . S
H951 C959 0.950 . S
H952 C957 0.950 . S
H953 C958 0.949 . S
H954 C960 0.950 . S
H955 C961 0.950 . S
H956 C962 0.949 . S
C957 H952 0.950 . S
C957 C959 1.327 . S
C957 C963 1.429 . S
C958 C950 1.574 . S
C958 H953 0.949 . S
C958 C964 1.368 . S
C959 C943 1.349 . S
C959 H951 0.950 . S
C959 C957 1.327 . S
C960 C948 1.349 . S
C960 H954 0.950 . S
C960 C961 1.327 . S
C961 H955 0.950 . S
C961 C960 1.327 . S
C961 C965 1.429 . S
C962 C945 1.574 . S
C962 H956 0.949 . S
C962 C966 1.368 . S
C963 C944 1.429 . S
C963 C957 1.429 . S
C963 C964 1.523 . S
C964 C945 1.368 . S
C964 C958 1.368 . S
C964 C963 1.523 . S
C965 C949 1.429 . S
C965 C961 1.429 . S
C965 C966 1.523 . S
C966 C950 1.368 . S
C966 C962 1.368 . S
C966 C965 1.523 . S
H967 C942 0.950 . S
H968 C944 0.950 . S
H969 C945 0.949 . S
H970 C947 0.950 . S
H971 C949 0.950 . S
C972 C973 1.349 . S
C972 C974 1.327 . S
C972 H997 0.950 . S
C973 C972 1.349 . S
C973 C989 1.349 . S
C974 C972 1.327 . S
C974 C993 1.429 . S
C974 H998 0.950 . S
C975 C992 1.574 . S
C975 C994 1.368 . S
C975 H999 0.949 . S
H976 C980 0.949 . S
C977 C978 1.349 . S
C977 C979 1.327 . S
C977 H1000 0.950 . S
C978 C977 1.349 . S
C978 C990 1.349 . S
C979 C977 1.327 . S
C979 C995 1.429 . S
C979 H1001 0.950 . S
C980 H976 0.949 . S
C980 C988 1.574 . S
C980 C996 1.368 . S
H981 C989 0.950 . S
H982 C987 0.950 . S
H983 C988 0.949 . S
H984 C990 0.950 . S
H985 C991 0.950 . S
H986 C992 0.949 . S
C987 H982 0.950 . S
C987 C989 1.327 . S
C987 C993 1.429 . S
C988 C980 1.574 . S
C988 H983 0.949 . S
C988 C994 1.368 . S
C989 C973 1.349 . S
C989 H981 0.950 . S
C989 C987 1.327 . S
C990 C978 1.349 . S
C990 H984 0.950 . S
C990 C991 1.327 . S
C991 H985 0.950 . S
C991 C990 1.327 . S
C991 C995 1.429 . S
C992 C975 1.574 . S
C992 H986 0.949 . S
C992 C996 1.368 . S
C993 C974 1.429 . S
C993 C987 1.429 . S
C993 C994 1.523 . S
C994 C975 1.368 . S
C994 C988 1.368 . S
C994 C993 1.523 . S
C995 C979 1.429 . S
C995 C991 1.429 . S
C995 C996 1.523 . S
C996 C980 1.368 . S
C996 C992 1.368 . S
C996 C995 1.523 . S
H997 C972 0.950 . S
H998 C974 0.950 . S
H999 C975 0.949 . S
H1000 C977 0.950 . S
H1001 C979 0.950 . S
C1002 C1003 1.349 . S
C1002 C1004 1.327 . S
C1002 H1027 0.950 . S
C1003 C1002 1.349 . S
C1003 C1019 1.349 . S
C1004 C1002 1.327 . S
C1004 C1023 1.429 . S
C1004 H1028 0.950 . S
C1005 C1022 1.574 . S
C1005 C1024 1.368 . S
C1005 H1029 0.949 . S
H1006 C1010 0.949 . S
C1007 C1008 1.349 . S
C1007 C1009 1.327 . S
C1007 H1030 0.950 . S
C1008 C1007 1.349 . S
C1008 C1020 1.349 . S
C1009 C1007 1.327 . S
C1009 C1025 1.429 . S
C1009 H1031 0.950 . S
C1010 H1006 0.949 . S
C1010 C1018 1.574 . S
C1010 C1026 1.368 . S
H1011 C1019 0.950 . S
H1012 C1017 0.950 . S
H1013 C1018 0.949 . S
H1014 C1020 0.950 . S
H1015 C1021 0.950 . S
H1016 C1022 0.949 . S
C1017 H1012 0.950 . S
C1017 C1019 1.327 . S
C1017 C1023 1.429 . S
C1018 C1010 1.574 . S
C1018 H1013 0.949 . S
C1018 C1024 1.368 . S
C1019 C1003 1.349 . S
C1019 H1011 0.950 . S
C1019 C1017 1.327 . S
C1020 C1008 1.349 . S
C1020 H1014 0.950 . S
C1020 C1021 1.327 . S
C1021 H1015 0.950 . S
C1021 C1020 1.327 . S
C1021 C1025 1.429 . S
C1022 C1005 1.574 . S
C1022 H1016 0.949 . S
C1022 C1026 1.368 . S
C1023 C1004 1.429 . S
C1023 C1017 1.429 . S
C1023 C1024 1.523 . S
C1024 C1005 1.368 . S
C1024 C1018 1.368 . S
C1024 C1023 1.523 . S
C1025 C1009 1.429 . S
C1025 C1021 1.429 . S
C1025 C1026 1.523 . S
C1026 C1010 1.368 . S
C1026 C1022 1.368 . S
C1026 C1025 1.523 . S
H1027 C1002 0.950 . S
H1028 C1004 0.950 . S
H1029 C1005 0.949 . S
H1030 C1007 0.950 . S
H1031 C1009 0.950 . S
C1032 C1033 1.349 . S
C1032 C1034 1.327 . S
C1032 H1057 0.950 . S
C1033 C1032 1.349 . S
C1033 C1049 1.349 . S
C1034 C1032 1.327 . S
C1034 C1053 1.429 . S
C1034 H1058 0.950 . S
C1035 C1052 1.574 . S
C1035 C1054 1.368 . S
C1035 H1059 0.949 . S
H1036 C1040 0.949 . S
C1037 C1038 1.349 . S
C1037 C1039 1.327 . S
C1037 H1060 0.950 . S
C1038 C1037 1.349 . S
C1038 C1050 1.349 . S
C1039 C1037 1.327 . S
C1039 C1055 1.429 . S
C1039 H1061 0.950 . S
C1040 H1036 0.949 . S
C1040 C1048 1.574 . S
C1040 C1056 1.368 . S
H1041 C1049 0.950 . S
H1042 C1047 0.950 . S
H1043 C1048 0.949 . S
H1044 C1050 0.950 . S
H1045 C1051 0.950 . S
H1046 C1052 0.949 . S
C1047 H1042 0.950 . S
C1047 C1049 1.327 . S
C1047 C1053 1.429 . S
C1048 C1040 1.574 . S
C1048 H1043 0.949 . S
C1048 C1054 1.368 . S
C1049 C1033 1.349 . S
C1049 H1041 0.950 . S
C1049 C1047 1.327 . S
C1050 C1038 1.349 . S
C1050 H1044 0.950 . S
C1050 C1051 1.327 . S
C1051 H1045 0.950 . S
C1051 C1050 1.327 . S
C1051 C1055 1.429 . S
C1052 C1035 1.574 . S
C1052 H1046 0.949 . S
C1052 C1056 1.368 . S
C1053 C1034 1.429 . S
C1053 C1047 1.429 . S
C1053 C1054 1.523 . S
C1054 C1035 1.368 . S
C1054 C1048 1.368 . S
C1054 C1053 1.523 . S
C1055 C1039 1.429 . S
C1055 C1051 1.429 . S
C1055 C1056 1.523 . S
C1056 C1040 1.368 . S
C1056 C1052 1.368 . S
C1056 C1055 1.523 . S
H1057 C1032 0.950 . S
H1058 C1034 0.950 . S
H1059 C1035 0.949 . S
H1060 C1037 0.950 . S
H1061 C1039 0.950 . S
C1062 C1063 1.349 . S
C1062 C1064 1.327 . S
C1062 H1087 0.950 . S
C1063 C1062 1.349 . S
C1063 C1079 1.349 . S
C1064 C1062 1.327 . S
C1064 C1083 1.429 . S
C1064 H1088 0.950 . S
C1065 C1082 1.574 . S
C1065 C1084 1.368 . S
C1065 H1089 0.949 . S
H1066 C1070 0.949 . S
C1067 C1068 1.349 . S
C1067 C1069 1.327 . S
C1067 H1090 0.950 . S
C1068 C1067 1.349 . S
C1068 C1080 1.349 . S
C1069 C1067 1.327 . S
C1069 C1085 1.429 . S
C1069 H1091 0.950 . S
C1070 H1066 0.949 . S
C1070 C1078 1.574 . S
C1070 C1086 1.368 . S
H1071 C1079 0.950 . S
H1072 C1077 0.950 . S
H1073 C1078 0.949 . S
H1074 C1080 0.950 . S
H1075 C1081 0.950 . S
H1076 C1082 0.949 . S
C1077 H1072 0.950 . S
C1077 C1079 1.327 . S
C1077 C1083 1.429 . S
C1078 C1070 1.574 . S
C1078 H1073 0.949 . S
C1078 C1084 1.368 . S
C1079 C1063 1.349 . S
C1079 H1071 0.950 . S
C1079 C1077 1.327 . S
C1080 C1068 1.349 . S
C1080 H1074 0.950 . S
C1080 C1081 1.327 . S
C1081 H1075 0.950 . S
C1081 C1080 1.327 . S
C1081 C1085 1.429 . S
C1082 C1065 1.574 . S
C1082 H1076 0.949 . S
C1082 C1086 1.368 . S
C1083 C1064 1.429 . S
C1083 C1077 1.429 . S
C1083 C1084 1.523 . S
C1084 C1065 1.368 . S
C1084 C1078 1.368 . S
C1084 C1083 1.523 . S
C1085 C1069 1.429 . S
C1085 C1081 1.429 . S
C1085 C1086 1.523 . S
C1086 C1070 1.368 . S
C1086 C1082 1.368 . S
C1086 C1085 1.523 . S
H1087 C1062 0.950 . S
H1088 C1064 0.950 . S
H1089 C1065 0.949 . S
H1090 C1067 0.950 . S
H1091 C1069 0.950 . S
C1092 C1093 1.349 . S
C1092 C1094 1.327 . S
C1092 H1117 0.950 . S
C1093 C1092 1.349 . S
C1093 C1109 1.349 . S
C1094 C1092 1.327 . S
C1094 C1113 1.429 . S
C1094 H1118 0.950 . S
C1095 C1112 1.574 . S
C1095 C1114 1.368 . S
C1095 H1119 0.949 . S
H1096 C1100 0.949 . S
C1097 C1098 1.349 . S
C1097 C1099 1.327 . S
C1097 H1120 0.950 . S
C1098 C1097 1.349 . S
C1098 C1110 1.349 . S
C1099 C1097 1.327 . S
C1099 C1115 1.429 . S
C1099 H1121 0.950 . S
C1100 H1096 0.949 . S
C1100 C1108 1.574 . S
C1100 C1116 1.368 . S
H1101 C1109 0.950 . S
H1102 C1107 0.950 . S
H1103 C1108 0.949 . S
H1104 C1110 0.950 . S
H1105 C1111 0.950 . S
H1106 C1112 0.949 . S
C1107 H1102 0.950 . S
C1107 C1109 1.327 . S
C1107 C1113 1.429 . S
C1108 C1100 1.574 . S
C1108 H1103 0.949 . S
C1108 C1114 1.368 . S
C1109 C1093 1.349 . S
C1109 H1101 0.950 . S
C1109 C1107 1.327 . S
C1110 C1098 1.349 . S
C1110 H1104 0.950 . S
C1110 C1111 1.327 . S
C1111 H1105 0.950 . S
C1111 C1110 1.327 . S
C1111 C1115 1.429 . S
C1112 C1095 1.574 . S
C1112 H1106 0.949 . S
C1112 C1116 1.368 . S
C1113 C1094 1.429 . S
C1113 C1107 1.429 . S
C1113 C1114 1.523 . S
C1114 C1095 1.368 . S
C1114 C1108 1.368 . S
C1114 C1113 1.523 . S
C1115 C1099 1.429 . S
C1115 C1111 1.429 . S
C1115 C1116 1.523 . S
C1116 C1100 1.368 . S
C1116 C1112 1.368 . S
C1116 C1115 1.523 . S
H1117 C1092 0.950 . S
H1118 C1094 0.950 . S
H1119 C1095 0.949 . S
H1120 C1097 0.950 . S
H1121 C1099 0.950 . S
C1122 C1123 1.349 . S
C1122 C1124 1.327 . S
C1122 H1147 0.950 . S
C1123 C1122 1.349 . S
C1123 C1139 1.349 . S
C1124 C1122 1.327 . S
C1124 C1143 1.429 . S
C1124 H1148 0.950 . S
C1125 C1142 1.574 . S
C1125 C1144 1.368 . S
C1125 H1149 0.949 . S
H1126 C1130 0.949 . S
C1127 C1128 1.349 . S
C1127 C1129 1.327 . S
C1127 H1150 0.950 . S
C1128 C1127 1.349 . S
C1128 C1140 1.349 . S
C1129 C1127 1.327 . S
C1129 C1145 1.429 . S
C1129 H1151 0.950 . S
C1130 H1126 0.949 . S
C1130 C1138 1.574 . S
C1130 C1146 1.368 . S
H1131 C1139 0.950 . S
H1132 C1137 0.950 . S
H1133 C1138 0.949 . S
H1134 C1140 0.950 . S
H1135 C1141 0.950 . S
H1136 C1142 0.949 . S
C1137 H1132 0.950 . S
C1137 C1139 1.327 . S
C1137 C1143 1.429 . S
C1138 C1130 1.574 . S
C1138 H1133 0.949 . S
C1138 C1144 1.368 . S
C1139 C1123 1.349 . S
C1139 H1131 0.950 . S
C1139 C1137 1.327 . S
C1140 C1128 1.349 . S
C1140 H1134 0.950 . S
C1140 C1141 1.327 . S
C1141 H1135 0.950 . S
C1141 C1140 1.327 . S
C1141 C1145 1.429 . S
C1142 C1125 1.574 . S
C1142 H1136 0.949 . S
C1142 C1146 1.368 . S
C1143 C1124 1.429 . S
C1143 C1137 1.429 . S
C1143 C1144 1.523 . S
C1144 C1125 1.368 . S
C1144 C1138 1.368 . S
C1144 C1143 1.523 . S
C1145 C1129 1.429 . S
C1145 C1141 1.429 . S
C1145 C1146 1.523 . S
C1146 C1130 1.368 . S
C1146 C1142 1.368 . S
C1146 C1145 1.523 . S
H1147 C1122 0.950 . S
H1148 C1124 0.950 . S
H1149 C1125 0.949 . S
H1150 C1127 0.950 . S
H1151 C1129 0.950 . S
C433 C81 1.699 . S
C438 C152 1.679 . S
C468 C236 1.679 . S
C463 C93 1.699 . S
C498 C235 1.688 . S
C493 C57 1.690 . S
C523 C69 1.690 . S
C528 C151 1.688 . S
C558 C332 1.679 . S
C553 C33 1.695 . S
C588 C416 1.679 . S
C583 C45 1.695 . S
C613 C9 1.685 . S
C618 C415 1.688 . S
C643 C21 1.685 . S
C648 C331 1.688 . S
C678 C154 1.469 . S
C673 C18 1.627 . S
C708 C238 1.469 . S
C703 C6 1.627 . S
C738 C250 1.430 . S
C733 C42 1.639 . S
C768 C166 1.430 . S
C763 C30 1.639 . S
C798 C334 1.469 . S
C793 C66 1.635 . S
C823 C54 1.634 . S
C828 C418 1.469 . S
C858 C406 1.430 . S
C853 C90 1.646 . S
C883 C78 1.645 . S
C888 C322 1.430 . S
C918 C163 1.560 . S
C913 C4 1.544 . S
C948 C247 1.560 . S
C943 C16 1.544 . S
C973 C28 1.539 . S
C978 C248 1.528 . S
C1008 C164 1.528 . S
C1003 C40 1.539 . S
C1038 C319 1.560 . S
C1033 C52 1.539 . S
C1063 C64 1.539 . S
C1068 C403 1.560 . S
C1093 C76 1.535 . S
C1098 C404 1.529 . S
C1123 C88 1.535 . S
C1128 C320 1.528 . S
