# Generated by pormake.
# Topology rtl, (3,6)-cn, num edge types: 1
# Building blocks:
#     Node 0, Type 0, BuildingBlock: QEWDON_clean_linker_0, # of connection points: 3
#     Node 1, Type 0, BuildingBlock: QEWDON_clean_linker_0, # of connection points: 3
#     Node 2, Type 0, BuildingBlock: QEWDON_clean_linker_0, # of connection points: 3
#     Node 3, Type 0, BuildingBlock: QEWDON_clean_linker_0, # of connection points: 3
#     Node 4, Type 1, BuildingBlock: CIFDUS_clean_sbu_1, # of connection points: 6
#     Node 5, Type 1, BuildingBlock: CIFDUS_clean_sbu_1, # of connection points: 6
#     Edge 6, Type (0, 1), BuildingBlock: CIFDUS_clean_linker_0, # of connection points: 2
#     Edge 7, Type (0, 1), BuildingBlock: CIFDUS_clean_linker_0, # of connection points: 2
#     Edge 8, Type (0, 1), BuildingBlock: CIFDUS_clean_linker_0, # of connection points: 2
#     Edge 9, Type (0, 1), BuildingBlock: CIFDUS_clean_linker_0, # of connection points: 2
#     Edge 10, Type (0, 1), BuildingBlock: CIFDUS_clean_linker_0, # of connection points: 2
#     Edge 11, Type (0, 1), BuildingBlock: CIFDUS_clean_linker_0, # of connection points: 2
#     Edge 12, Type (0, 1), BuildingBlock: CIFDUS_clean_linker_0, # of connection points: 2
#     Edge 13, Type (0, 1), BuildingBlock: CIFDUS_clean_linker_0, # of connection points: 2
#     Edge 14, Type (0, 1), BuildingBlock: CIFDUS_clean_linker_0, # of connection points: 2
#     Edge 15, Type (0, 1), BuildingBlock: CIFDUS_clean_linker_0, # of connection points: 2
#     Edge 16, Type (0, 1), BuildingBlock: CIFDUS_clean_linker_0, # of connection points: 2
#     Edge 17, Type (0, 1), BuildingBlock: CIFDUS_clean_linker_0, # of connection points: 2
# Relax obj value: 0.037
# Max RMSD: 0.169
# Mean RMSD: 0.133
data_MOF--net-rtl--node1-CIFDUS_clean_sbu_1--node2-QEWDON_clean_linker_0--edge1-CIFDUS_clean_linker_0
_symmetry_space_group_name_H-M    P1
_symmetry_Int_Tables_number       1
_symmetry_cell_setting            triclinic
loop_
_symmetry_equiv_pos_as_xyz
'x, y, z'
_cell_length_a     33.60772
_cell_length_b     32.886034
_cell_length_c     19.056376
_cell_angle_alpha  92.619801
_cell_angle_beta   99.914782
_cell_angle_gamma 89.839607
loop_
_atom_site_label
_atom_site_type_symbol
_atom_site_fract_x
_atom_site_fract_y
_atom_site_fract_z
_atom_type_partial_charge
H0 H 0.22798 0.85636 0.19219 0.0
C1 C 0.21094 0.86147 0.13969 0.0
C2 C 0.17165 0.87769 0.13277 0.0
C3 C 0.22864 0.8532 0.07877 0.0
H4 H 0.11916 0.89567 0.06024 0.0
C5 C 0.14977 0.88459 0.0643 0.0
C6 C 0.16698 0.87737 1.00226 0.0
C7 C 0.20661 0.86168 0.01112 0.0
C8 C 0.27213 0.84181 0.08424 0.0
H9 H 0.22164 0.85736 0.96552 0.0
C10 C 0.28876 0.80534 0.11423 0.0
C11 C 0.32985 0.79541 0.11269 0.0
C12 C 0.29693 0.86771 0.05369 0.0
H13 H 0.28511 0.89568 0.03047 0.0
C14 C 0.33685 0.85776 0.05127 0.0
H15 H 0.26993 0.78484 0.13729 0.0
C16 C 0.35306 0.82205 0.07993 0.0
H17 H 0.384 0.8149 0.07514 0.0
H18 H 0.35526 0.87768 0.02625 0.0
H19 H 0.71971 0.7266 0.52006 0.0
C20 C 0.70384 0.71571 0.56052 0.0
C21 C 0.67038 0.68947 0.5404 0.0
C22 C 0.71848 0.72552 0.633 0.0
H23 H 0.62936 0.64929 0.57679 0.0
C24 C 0.65252 0.67212 0.59366 0.0
C25 C 0.66643 0.68162 0.667 0.0
C26 C 0.69836 0.70999 0.685 0.0
C27 C 0.75835 0.7462 0.65622 0.0
H28 H 0.70907 0.71938 0.7401 0.0
C29 C 0.76864 0.78272 0.62727 0.0
C30 C 0.8077 0.80037 0.64833 0.0
C31 C 0.78716 0.72781 0.70722 0.0
H32 H 0.78043 0.6995 0.72977 0.0
C33 C 0.82539 0.74486 0.72831 0.0
H34 H 0.74606 0.79718 0.58909 0.0
C35 C 0.83578 0.78045 0.69886 0.0
H36 H 0.86647 0.79142 0.71453 0.0
H37 H 0.84746 0.7299 0.76673 0.0
H38 H 0.79578 0.22287 0.07928 0.0
C39 C 0.81663 0.21619 0.04286 0.0
C40 C 0.85236 0.19425 0.06634 0.0
C41 C 0.80667 0.22698 0.97091 0.0
H42 H 0.90372 0.16432 0.03495 0.0
C43 C 0.87767 0.18316 0.01748 0.0
C44 C 0.86807 0.19268 0.94547 0.0
C45 C 0.83296 0.21518 0.92307 0.0
C46 C 0.76637 0.24467 0.9414 0.0
H47 H 0.82549 0.22274 0.86758 0.0
C48 C 0.75047 0.28056 0.97048 0.0
C49 C 0.71295 0.29697 0.93692 0.0
C50 C 0.74385 0.22512 0.88023 0.0
H51 H 0.75465 0.19732 0.8573 0.0
C52 C 0.70743 0.24103 0.84722 0.0
H53 H 0.76734 0.29565 0.01803 0.0
C54 C 0.69237 0.27667 0.87452 0.0
H55 H 0.66463 0.28862 0.84542 0.0
H56 H 0.69091 0.22583 0.79948 0.0
H57 H 0.32445 0.32875 0.58405 0.0
C58 C 0.32791 0.34954 0.54302 0.0
C59 C 0.35454 0.38336 0.55967 0.0
C60 C 0.30929 0.3406 0.47143 0.0
H61 H 0.3855 0.43085 0.51482 0.0
C62 C 0.36249 0.40725 0.50406 0.0
C63 C 0.34435 0.39822 0.43351 0.0
C64 C 0.3153 0.36748 0.41889 0.0
C65 C 0.2914 0.29986 0.44563 0.0
H66 H 0.30187 0.36072 0.36361 0.0
C67 C 0.26185 0.28019 0.4768 0.0
C68 C 0.2442 0.24327 0.44498 0.0
C69 C 0.30406 0.28073 0.38531 0.0
H70 H 0.32789 0.29379 0.36163 0.0
C71 C 0.28618 0.24483 0.3539 0.0
H72 H 0.25266 0.29332 0.52465 0.0
C73 C 0.25617 0.22639 0.38307 0.0
H74 H 0.24331 0.19783 0.35887 0.0
H75 H 0.29601 0.23099 0.30719 0.0
O76 O 0.98404 0.07081 0.4449 0.0
Mn77 Mn 0.00959 0.03184 0.52774 0.0
O78 O 0.94682 0.03015 0.36194 0.0
Mn79 Mn 0.96394 0.98364 0.40693 0.0
O80 O 0.03185 0.99213 0.6118 0.0
O81 O 0.0557 0.07542 0.55272 0.0
Mn82 Mn 0.06504 0.06817 0.64598 0.0
O83 O 0.97398 0.06244 0.59553 0.0
O84 O 0.08878 0.01933 0.66811 0.0
O85 O 0.04825 1.00247 0.46272 0.0
O86 O 0.01008 0.95988 0.38578 0.0
O87 O 0.0991 0.10822 0.64064 0.0
O88 O 0.02137 0.08213 0.68789 0.0
C89 C 0.93357 0.96203 0.48302 0.0
C90 C 0.95872 0.06537 0.38598 0.0
C91 C 0.06489 0.98953 0.65687 0.0
C92 C 0.08479 0.10256 0.57319 0.0
C93 C 0.98457 0.0796 0.65827 0.0
C94 C 0.04443 0.97413 0.41295 0.0
O95 O 0.963 0.98907 0.50054 0.0
O96 O 0.92478 0.94943 0.41666 0.0
O97 O 0.53778 0.5788 0.12858 0.0
Mn98 Mn 0.50651 0.53666 0.05073 0.0
O99 O 0.57058 0.54063 0.21389 0.0
Mn100 Mn 0.55683 0.49073 0.16902 0.0
O101 O 0.47434 0.49531 0.97227 0.0
O102 O 0.46158 0.57996 0.03142 0.0
Mn103 Mn 0.45341 0.58288 0.9378 0.0
O104 O 0.53999 0.55784 0.97368 0.0
O105 O 0.43337 0.53373 0.8964 0.0
O106 O 0.47272 0.51502 0.12505 0.0
O107 O 0.51015 0.46824 0.18838 0.0
O108 O 0.41838 0.61946 0.96441 0.0
O109 O 0.49898 0.60162 0.90994 0.0
C110 C 0.58506 0.47477 0.07984 0.0
C111 C 0.56092 0.57501 0.18918 0.0
C112 C 0.44654 0.49929 0.91717 0.0
C113 C 0.43276 0.60729 0.02746 0.0
C114 C 0.53279 0.58412 0.92474 0.0
C115 C 0.47672 0.48633 0.16949 0.0
O116 O 0.54887 0.49076 0.07417 0.0
O117 O 0.60047 0.46533 0.14402 0.0
H118 H 0.16145 0.2412 0.42327 0.0
H119 H 0.26854 0.18583 0.53663 0.0
H120 H 0.22789 0.13153 0.57189 0.0
H121 H 0.16279 0.10053 0.57271 0.0
H122 H 0.05354 0.15789 0.47356 0.0
H123 H 0.09378 0.21001 0.42766 0.0
C124 C 0.17546 0.21779 0.4574 0.0
C125 C 0.21774 0.21792 0.47935 0.0
C126 C 0.15167 0.18648 0.47758 0.0
C127 C 0.23597 0.18689 0.52144 0.0
C128 C 0.21284 0.15552 0.5404 0.0
C129 C 0.14781 0.12384 0.53924 0.0
C130 C 0.10548 0.12489 0.52473 0.0
C131 C 0.17087 0.15489 0.51834 0.0
C132 C 0.08617 0.15567 0.48301 0.0
C133 C 0.10922 0.18595 0.45845 0.0
H134 H 0.30182 0.716 0.0912 0.0
H135 H 0.40387 0.788 0.19539 0.0
H136 H 0.44746 0.72865 0.19718 0.0
H137 H 0.45928 0.66255 0.13668 0.0
H138 H 0.3571 0.58852 0.04199 0.0
H139 H 0.31098 0.64138 0.0716 0.0
C140 C 0.33312 0.71835 0.11727 0.0
C141 C 0.34989 0.75698 0.13992 0.0
C142 C 0.35833 0.68368 0.11887 0.0
C143 C 0.39044 0.75899 0.17494 0.0
C144 C 0.41556 0.725 0.17591 0.0
C145 C 0.42699 0.65681 0.12702 0.0
C146 C 0.41173 0.62201 0.08571 0.0
C147 C 0.40043 0.68789 0.14333 0.0
C148 C 0.36969 0.61517 0.07359 0.0
C149 C 0.34315 0.6459 0.08909 0.0
H150 H 0.86505 0.85885 0.70578 0.0
H151 H 0.78029 0.82634 0.51331 0.0
H152 H 0.8072 0.88015 0.45261 0.0
H153 H 0.8602 0.9287 0.44717 0.0
H154 H 0.95313 0.95454 0.62999 0.0
H155 H 0.91768 0.91087 0.70137 0.0
C156 C 0.85256 0.86298 0.65031 0.0
C157 C 0.82075 0.83738 0.6145 0.0
C158 C 0.86996 0.89265 0.61367 0.0
C159 C 0.80419 0.84517 0.54344 0.0
C160 C 0.81996 0.87586 0.508 0.0
C161 C 0.87278 0.9252 0.50295 0.0
C162 C 0.90973 0.94428 0.53292 0.0
C163 C 0.85363 0.89861 0.54177 0.0
C164 C 0.92485 0.94016 0.60558 0.0
C165 C 0.90474 0.91486 0.646 0.0
H166 H 0.63263 0.31528 0.93269 0.0
H167 H 0.752 0.36652 1.00077 0.0
H168 H 0.722 0.43014 0.03773 0.0
H169 H 0.6618 0.46964 0.05753 0.0
H170 H 0.54303 0.41876 0.98619 0.0
H171 H 0.57289 0.3575 0.93927 0.0
C172 C 0.6524 0.34048 0.95412 0.0
C173 C 0.6949 0.33555 0.96354 0.0
C174 C 0.6349 0.37755 0.97298 0.0
C175 C 0.71942 0.36865 0.99382 0.0
C176 C 0.7022 0.4054 0.01404 0.0
C177 C 0.64241 0.44597 0.0284 0.0
C178 C 0.60008 0.44935 0.02378 0.0
C179 C 0.65999 0.41016 1.00405 0.0
C180 C 0.57544 0.41778 0.9882 0.0
C181 C 0.59266 0.38223 0.96308 0.0
H182 H 0.18174 0.94449 0.22648 0.0
H183 H 0.11611 0.83144 0.17841 0.0
H184 H 0.07468 0.84923 0.26879 0.0
H185 H 0.0519 0.89976 0.35075 0.0
H186 H 0.11462 0.01448 0.39847 0.0
H187 H 0.16295 0.99306 0.32075 0.0
C188 C 0.15892 0.92351 0.23719 0.0
C189 C 0.15197 0.88654 0.19606 0.0
C190 C 0.13456 0.93441 0.28882 0.0
C191 C 0.12205 0.85982 0.20962 0.0
C192 C 0.09828 0.87011 0.26109 0.0
C193 C 0.07654 0.91994 0.34521 0.0
C194 C 0.07926 0.95891 0.37997 0.0
C195 C 0.10349 0.90774 0.29947 0.0
C196 C 0.11175 0.98433 0.37268 0.0
C197 C 0.13917 0.97217 0.32758 0.0
H198 H 0.5927 0.6428 0.65761 0.0
H199 H 0.70194 0.67041 0.8089 0.0
H200 H 0.67249 0.64069 0.90212 0.0
H201 H 0.61298 0.60981 0.9436 0.0
H202 H 0.51059 0.5723 0.78486 0.0
H203 H 0.54161 0.60032 0.6917 0.0
C204 C 0.6112 0.64159 0.70983 0.0
C205 C 0.64948 0.66056 0.72454 0.0
C206 C 0.59543 0.62174 0.76282 0.0
C207 C 0.67158 0.65844 0.79468 0.0
C208 C 0.65507 0.6405 0.84867 0.0
C209 C 0.5983 0.60653 0.88833 0.0
C210 C 0.55931 0.58943 0.87135 0.0
C211 C 0.61665 0.62246 0.83374 0.0
C212 C 0.54054 0.58559 0.79936 0.0
C213 C 0.55805 0.60196 0.74595 0.0
H214 H 0.91565 0.20932 0.1762 0.0
H215 H 0.80982 0.13411 0.11054 0.0
H216 H 0.83254 0.08903 0.20772 0.0
H217 H 0.88562 0.0669 0.30197 0.0
H218 H 0.99182 0.14118 0.37169 0.0
H219 H 0.96529 0.1916 0.2841 0.0
C220 C 0.89695 0.18389 0.18508 0.0
C221 C 0.86067 0.1754 0.13691 0.0
C222 C 0.91047 0.15783 0.24128 0.0
C223 C 0.83715 0.14186 0.14786 0.0
C224 C 0.85046 0.11579 0.20291 0.0
C225 C 0.90296 0.09433 0.29877 0.0
C226 C 0.94116 0.09982 0.34259 0.0
C227 C 0.88756 0.12284 0.2485 0.0
C228 C 0.96258 0.136 0.33849 0.0
C229 C 0.94743 0.16469 0.28806 0.0
H230 H 0.32807 0.399 0.68667 0.0
H231 H 0.4362 0.38758 0.59446 0.0
H232 H 0.47657 0.41607 0.70433 0.0
H233 H 0.47952 0.45446 0.81936 0.0
H234 H 0.3714 0.46877 0.91019 0.0
H235 H 0.33307 0.42824 0.81026 0.0
C236 C 0.3606 0.40163 0.69161 0.0
C237 C 0.37898 0.39161 0.63213 0.0
C238 C 0.38376 0.41877 0.75508 0.0
C239 C 0.42123 0.39548 0.6392 0.0
C240 C 0.44439 0.41185 0.70206 0.0
C241 C 0.44802 0.44704 0.81871 0.0
C242 C 0.42848 0.46376 0.87279 0.0
C243 C 0.42583 0.425 0.75949 0.0
C244 C 0.38725 0.45534 0.86997 0.0
C245 C 0.3652 0.43265 0.81224 0.0
H246 H 0.59819 0.69988 0.45051 0.0
H247 H 0.71491 0.64339 0.46285 0.0
H248 H 0.69279 0.60771 0.34747 0.0
H249 H 0.63802 0.58597 0.25138 0.0
H250 H 0.52077 0.64128 0.23598 0.0
H251 H 0.54555 0.68543 0.34219 0.0
C252 C 0.61892 0.68047 0.42684 0.0
C253 C 0.6582 0.67421 0.465 0.0
C254 C 0.60593 0.66011 0.35981 0.0
C255 C 0.68479 0.64892 0.43417 0.0
C256 C 0.67206 0.6284 0.36835 0.0
C257 C 0.61825 0.60868 0.26992 0.0
C258 C 0.57766 0.61045 0.23582 0.0
C259 C 0.63246 0.63296 0.33168 0.0
C260 C 0.55225 0.63973 0.26061 0.0
C261 C 0.56632 0.66447 0.32208 0.0
H262 H 0.84501 0.15764 0.80957 0.0
H263 H 0.94998 0.19119 0.96633 0.0
H264 H 0.99356 0.15792 0.89237 0.0
H265 H 1.00242 0.1186 0.78728 0.0
H266 H 0.90046 0.08555 0.62393 0.0
H267 H 0.85506 0.11973 0.69658 0.0
C268 C 0.87747 0.15826 0.82685 0.0
C269 C 0.89406 0.17665 0.89421 0.0
C270 C 0.90282 0.13901 0.78334 0.0
C271 C 0.93622 0.17681 0.91572 0.0
C272 C 0.96124 0.15782 0.87331 0.0
C273 C 0.97027 0.11858 0.76656 0.0
C274 C 0.95507 0.09909 0.69977 0.0
C275 C 0.94486 0.1385 0.80772 0.0
C276 C 0.91316 0.09997 0.67508 0.0
C277 C 0.88725 0.11966 0.71663 0.0
H278 H 0.34759 0.47206 0.37134 0.0
H279 H 0.38919 0.34794 0.36692 0.0
H280 H 0.43062 0.36318 0.2785 0.0
H281 H 0.4597 0.41258 0.21089 0.0
H282 H 0.4187 0.53683 0.20998 0.0
H283 H 0.37161 0.52078 0.29031 0.0
C284 C 0.36546 0.44852 0.35011 0.0
C285 C 0.36569 0.40904 0.37545 0.0
C286 C 0.3892 0.45747 0.29845 0.0
C287 C 0.38866 0.3785 0.34774 0.0
C288 C 0.41237 0.38717 0.29738 0.0
C289 C 0.44003 0.43602 0.22752 0.0
C290 C 0.44297 0.47584 0.20569 0.0
C291 C 0.41351 0.42664 0.27353 0.0
C292 C 0.41692 0.50587 0.2264 0.0
C293 C 0.39029 0.49678 0.27276 0.0
H294 H 0.10552 0.93343 0.96654 0.0
H295 H 0.17695 0.84468 0.86906 0.0
H296 H 0.14947 0.86868 0.75235 0.0
H297 H 0.10983 0.91991 0.67758 0.0
H298 H 0.0316 1.00091 0.77368 0.0
H299 H 0.05567 0.97346 0.89021 0.0
C300 C 0.11456 0.91809 0.92041 0.0
C301 C 0.14499 0.88799 0.92903 0.0
C302 C 0.09688 0.93044 0.85205 0.0
C303 C 0.15555 0.86939 0.86642 0.0
C304 C 0.13924 0.88265 0.79866 0.0
C305 C 0.09674 0.93011 0.72348 0.0
C306 C 0.06838 0.96187 0.71669 0.0
C307 C 0.11057 0.91386 0.79079 0.0
C308 C 0.0526 0.97569 0.77716 0.0
C309 C 0.06689 0.96046 0.84414 0.0
loop_
_geom_bond_atom_site_label_1
_geom_bond_atom_site_label_2
_geom_bond_distance
_geom_bond_site_symmetry_2
_ccdc_geom_bond_type
H0 C1 0.949 . S
C1 H0 0.949 . S
C1 C2 1.395 . S
C1 C3 1.391 . S
C2 C1 1.395 . S
C2 C5 1.390 . S
C3 C1 1.391 . S
C3 C7 1.387 . S
C3 C8 1.491 . S
H4 C5 0.950 . S
C5 C2 1.390 . S
C5 H4 0.950 . S
C5 C6 1.378 . S
C6 C5 1.378 . S
C6 C7 1.409 . S
C7 C3 1.387 . S
C7 C6 1.409 . S
C7 H9 0.951 1_554 S
C8 C3 1.491 . S
C8 C10 1.382 . S
C8 C12 1.404 . S
H9 C7 0.951 1_556 S
C10 C8 1.382 . S
C10 C11 1.390 . S
C10 H15 0.949 . S
C11 C10 1.390 . S
C11 C16 1.399 . S
C12 C8 1.404 . S
C12 H13 0.950 1_554 S
C12 C14 1.375 . S
H13 C12 0.950 1_556 S
C14 C12 1.375 . S
C14 C16 1.382 . S
C14 H18 0.950 1_554 S
H15 C10 0.949 . S
C16 C11 1.399 . S
C16 C14 1.382 . S
C16 H17 0.952 . S
H17 C16 0.952 . S
H18 C14 0.950 1_556 S
H19 C20 0.949 . S
C20 H19 0.949 . S
C20 C21 1.395 . S
C20 C22 1.391 . S
C21 C20 1.395 . S
C21 C24 1.390 . S
C22 C20 1.391 . S
C22 C26 1.387 . S
C22 C27 1.491 . S
H23 C24 0.950 . S
C24 C21 1.390 . S
C24 H23 0.950 . S
C24 C25 1.378 . S
C25 C24 1.378 . S
C25 C26 1.409 . S
C26 C22 1.387 . S
C26 C25 1.409 . S
C26 H28 0.951 . S
C27 C22 1.491 . S
C27 C29 1.382 . S
C27 C31 1.404 . S
H28 C26 0.951 . S
C29 C27 1.382 . S
C29 C30 1.390 . S
C29 H34 0.949 . S
C30 C29 1.390 . S
C30 C35 1.399 . S
C31 C27 1.404 . S
C31 H32 0.950 . S
C31 C33 1.375 . S
H32 C31 0.950 . S
C33 C31 1.375 . S
C33 C35 1.382 . S
C33 H37 0.950 . S
H34 C29 0.949 . S
C35 C30 1.399 . S
C35 C33 1.382 . S
C35 H36 0.952 . S
H36 C35 0.952 . S
H37 C33 0.950 . S
H38 C39 0.949 . S
C39 H38 0.949 . S
C39 C40 1.395 . S
C39 C41 1.391 1_554 S
C40 C39 1.395 . S
C40 C43 1.390 . S
C41 C39 1.391 1_556 S
C41 C45 1.387 . S
C41 C46 1.491 . S
H42 C43 0.950 . S
C43 C40 1.390 . S
C43 H42 0.950 . S
C43 C44 1.378 1_554 S
C44 C43 1.378 1_556 S
C44 C45 1.409 . S
C45 C41 1.387 . S
C45 C44 1.409 . S
C45 H47 0.951 . S
C46 C41 1.491 . S
C46 C48 1.392 . S
C46 C50 1.404 . S
H47 C45 0.951 . S
C48 C46 1.392 . S
C48 C49 1.391 . S
C48 H53 0.937 1_556 S
C49 C48 1.391 . S
C49 C54 1.399 . S
C50 C46 1.404 . S
C50 H51 0.950 . S
C50 C52 1.375 . S
H51 C50 0.950 . S
C52 C50 1.375 . S
C52 C54 1.382 . S
C52 H56 0.950 . S
H53 C48 0.937 1_554 S
C54 C49 1.399 . S
C54 C52 1.382 . S
C54 H55 0.952 . S
H55 C54 0.952 . S
H56 C52 0.950 . S
H57 C58 0.949 . S
C58 H57 0.949 . S
C58 C59 1.395 . S
C58 C60 1.391 . S
C59 C58 1.395 . S
C59 C62 1.390 . S
C60 C58 1.391 . S
C60 C64 1.387 . S
C60 C65 1.491 . S
H61 C62 0.950 . S
C62 C59 1.390 . S
C62 H61 0.950 . S
C62 C63 1.378 . S
C63 C62 1.378 . S
C63 C64 1.409 . S
C64 C60 1.387 . S
C64 C63 1.409 . S
C64 H66 0.951 . S
C65 C60 1.491 . S
C65 C67 1.382 . S
C65 C69 1.404 . S
H66 C64 0.951 . S
C67 C65 1.382 . S
C67 C68 1.390 . S
C67 H72 0.949 . S
C68 C67 1.390 . S
C68 C73 1.399 . S
C69 C65 1.404 . S
C69 H70 0.950 . S
C69 C71 1.375 . S
H70 C69 0.950 . S
C71 C69 1.375 . S
C71 C73 1.382 . S
C71 H75 0.950 . S
H72 C67 0.949 . S
C73 C68 1.399 . S
C73 C71 1.382 . S
C73 H74 0.952 . S
H74 C73 0.952 . S
H75 C71 0.950 . S
O76 Mn77 2.163 1_655 S
O76 C90 1.244 . S
Mn77 O76 2.163 1_455 S
Mn77 O80 2.160 1_545 S
Mn77 O81 2.221 . S
Mn77 O83 2.163 1_455 S
Mn77 O85 2.160 1_545 S
Mn77 O95 2.221 1_445 S
O78 Mn79 2.087 1_545 S
O78 C90 1.256 . S
Mn79 O78 2.087 1_565 S
Mn79 O86 2.089 1_655 S
Mn79 O95 2.290 . S
Mn79 O96 2.251 . S
O80 Mn77 2.160 1_565 S
O80 C91 1.239 . S
O81 Mn77 2.221 . S
O81 Mn82 2.290 . S
O81 C92 1.278 . S
Mn82 O81 2.290 . S
Mn82 O84 2.089 . S
Mn82 O87 2.251 . S
Mn82 O88 2.087 . S
O83 Mn77 2.163 1_655 S
O83 C93 1.244 . S
O84 Mn82 2.089 . S
O84 C91 1.256 1_545 S
O85 Mn77 2.160 1_565 S
O85 C94 1.239 . S
O86 Mn79 2.089 1_455 S
O86 C94 1.256 . S
O87 Mn82 2.251 . S
O87 C92 1.241 . S
O88 Mn82 2.087 . S
O88 C93 1.256 1_455 S
C89 O95 1.278 . S
C89 O96 1.241 . S
C90 O76 1.244 . S
C90 O78 1.256 . S
C91 O80 1.239 . S
C91 O84 1.256 1_565 S
C92 O81 1.278 . S
C92 O87 1.241 . S
C93 O83 1.244 . S
C93 O88 1.256 1_655 S
C94 O85 1.239 . S
C94 O86 1.256 . S
O95 Mn77 2.221 1_665 S
O95 Mn79 2.290 . S
O95 C89 1.278 . S
O96 Mn79 2.251 . S
O96 C89 1.241 . S
O97 Mn98 2.163 . S
O97 C111 1.244 . S
Mn98 O97 2.163 . S
Mn98 O101 2.160 1_554 S
Mn98 O102 2.221 . S
Mn98 O104 2.163 1_554 S
Mn98 O106 2.160 . S
Mn98 O116 2.221 . S
O99 Mn100 2.087 . S
O99 C111 1.256 . S
Mn100 O99 2.087 . S
Mn100 O107 2.089 . S
Mn100 O116 2.290 . S
Mn100 O117 2.251 . S
O101 Mn98 2.160 1_556 S
O101 C112 1.239 . S
O102 Mn98 2.221 . S
O102 Mn103 2.290 1_554 S
O102 C113 1.278 . S
Mn103 O102 2.290 1_556 S
Mn103 O105 2.089 . S
Mn103 O108 2.251 . S
Mn103 O109 2.087 . S
O104 Mn98 2.163 1_556 S
O104 C114 1.244 . S
O105 Mn103 2.089 . S
O105 C112 1.256 . S
O106 Mn98 2.160 . S
O106 C115 1.239 . S
O107 Mn100 2.089 . S
O107 C115 1.256 . S
O108 Mn103 2.251 . S
O108 C113 1.241 1_556 S
O109 Mn103 2.087 . S
O109 C114 1.256 . S
C110 O116 1.278 . S
C110 O117 1.241 . S
C111 O97 1.244 . S
C111 O99 1.256 . S
C112 O101 1.239 . S
C112 O105 1.256 . S
C113 O102 1.278 . S
C113 O108 1.241 1_554 S
C114 O104 1.244 . S
C114 O109 1.256 . S
C115 O106 1.239 . S
C115 O107 1.256 . S
O116 Mn98 2.221 . S
O116 Mn100 2.290 . S
O116 C110 1.278 . S
O117 Mn100 2.251 . S
O117 C110 1.241 . S
H118 C124 0.930 . S
H119 C127 0.930 . S
H120 C128 0.930 . S
H121 C129 0.930 . S
H122 C132 0.930 . S
H123 C133 0.930 . S
C124 H118 0.930 . S
C124 C125 1.355 . S
C124 C126 1.415 . S
C125 C124 1.355 . S
C125 C127 1.419 . S
C126 C124 1.415 . S
C126 C131 1.425 . S
C126 C133 1.409 . S
C127 H119 0.930 . S
C127 C125 1.419 . S
C127 C128 1.362 . S
C128 H120 0.930 . S
C128 C127 1.362 . S
C128 C131 1.409 . S
C129 H121 0.930 . S
C129 C130 1.355 . S
C129 C131 1.415 . S
C130 C129 1.355 . S
C130 C132 1.419 . S
C131 C126 1.425 . S
C131 C128 1.409 . S
C131 C129 1.415 . S
C132 H122 0.930 . S
C132 C130 1.419 . S
C132 C133 1.362 . S
C133 H123 0.930 . S
C133 C126 1.409 . S
C133 C132 1.362 . S
H134 C140 0.930 . S
H135 C143 0.930 . S
H136 C144 0.930 . S
H137 C145 0.930 . S
H138 C148 0.930 . S
H139 C149 0.930 . S
C140 H134 0.930 . S
C140 C141 1.355 . S
C140 C142 1.415 . S
C141 C140 1.355 . S
C141 C143 1.419 . S
C142 C140 1.415 . S
C142 C147 1.425 . S
C142 C149 1.409 . S
C143 H135 0.930 . S
C143 C141 1.419 . S
C143 C144 1.362 . S
C144 H136 0.930 . S
C144 C143 1.362 . S
C144 C147 1.409 . S
C145 H137 0.930 . S
C145 C146 1.355 . S
C145 C147 1.415 . S
C146 C145 1.355 . S
C146 C148 1.419 . S
C147 C142 1.425 . S
C147 C144 1.409 . S
C147 C145 1.415 . S
C148 H138 0.930 . S
C148 C146 1.419 . S
C148 C149 1.362 . S
C149 H139 0.930 . S
C149 C142 1.409 . S
C149 C148 1.362 . S
H150 C156 0.930 . S
H151 C159 0.930 . S
H152 C160 0.930 . S
H153 C161 0.930 . S
H154 C164 0.930 . S
H155 C165 0.930 . S
C156 H150 0.930 . S
C156 C157 1.355 . S
C156 C158 1.415 . S
C157 C156 1.355 . S
C157 C159 1.419 . S
C158 C156 1.415 . S
C158 C163 1.425 . S
C158 C165 1.409 . S
C159 H151 0.930 . S
C159 C157 1.419 . S
C159 C160 1.362 . S
C160 H152 0.930 . S
C160 C159 1.362 . S
C160 C163 1.409 . S
C161 H153 0.930 . S
C161 C162 1.355 . S
C161 C163 1.415 . S
C162 C161 1.355 . S
C162 C164 1.419 . S
C163 C158 1.425 . S
C163 C160 1.409 . S
C163 C161 1.415 . S
C164 H154 0.930 . S
C164 C162 1.419 . S
C164 C165 1.362 . S
C165 H155 0.930 . S
C165 C158 1.409 . S
C165 C164 1.362 . S
H166 C172 0.930 . S
H167 C175 0.930 . S
H168 C176 0.930 . S
H169 C177 0.930 1_556 S
H170 C180 0.930 . S
H171 C181 0.930 . S
C172 H166 0.930 . S
C172 C173 1.355 . S
C172 C174 1.415 . S
C173 C172 1.355 . S
C173 C175 1.419 1_554 S
C174 C172 1.415 . S
C174 C179 1.425 . S
C174 C181 1.409 . S
C175 H167 0.930 . S
C175 C173 1.419 1_556 S
C175 C176 1.362 . S
C176 H168 0.930 . S
C176 C175 1.362 . S
C176 C179 1.409 1_556 S
C177 H169 0.930 1_554 S
C177 C178 1.355 . S
C177 C179 1.415 . S
C178 C177 1.355 . S
C178 C180 1.419 . S
C179 C174 1.425 . S
C179 C176 1.409 1_554 S
C179 C177 1.415 . S
C180 H170 0.930 . S
C180 C178 1.419 . S
C180 C181 1.362 . S
C181 H171 0.930 . S
C181 C174 1.409 . S
C181 C180 1.362 . S
H182 C188 0.930 . S
H183 C191 0.930 . S
H184 C192 0.930 . S
H185 C193 0.930 . S
H186 C196 0.930 . S
H187 C197 0.930 . S
C188 H182 0.930 . S
C188 C189 1.355 . S
C188 C190 1.415 . S
C189 C188 1.355 . S
C189 C191 1.419 . S
C190 C188 1.415 . S
C190 C195 1.425 . S
C190 C197 1.409 . S
C191 H183 0.930 . S
C191 C189 1.419 . S
C191 C192 1.362 . S
C192 H184 0.930 . S
C192 C191 1.362 . S
C192 C195 1.409 . S
C193 H185 0.930 . S
C193 C194 1.355 . S
C193 C195 1.415 . S
C194 C193 1.355 . S
C194 C196 1.419 . S
C195 C190 1.425 . S
C195 C192 1.409 . S
C195 C193 1.415 . S
C196 H186 0.930 . S
C196 C194 1.419 . S
C196 C197 1.362 . S
C197 H187 0.930 . S
C197 C190 1.409 . S
C197 C196 1.362 . S
H198 C204 0.930 . S
H199 C207 0.930 . S
H200 C208 0.930 . S
H201 C209 0.930 . S
H202 C212 0.930 . S
H203 C213 0.930 . S
C204 H198 0.930 . S
C204 C205 1.355 . S
C204 C206 1.415 . S
C205 C204 1.355 . S
C205 C207 1.419 . S
C206 C204 1.415 . S
C206 C211 1.425 . S
C206 C213 1.409 . S
C207 H199 0.930 . S
C207 C205 1.419 . S
C207 C208 1.362 . S
C208 H200 0.930 . S
C208 C207 1.362 . S
C208 C211 1.409 . S
C209 H201 0.930 . S
C209 C210 1.355 . S
C209 C211 1.415 . S
C210 C209 1.355 . S
C210 C212 1.419 . S
C211 C206 1.425 . S
C211 C208 1.409 . S
C211 C209 1.415 . S
C212 H202 0.930 . S
C212 C210 1.419 . S
C212 C213 1.362 . S
C213 H203 0.930 . S
C213 C206 1.409 . S
C213 C212 1.362 . S
H214 C220 0.930 . S
H215 C223 0.930 . S
H216 C224 0.930 . S
H217 C225 0.930 . S
H218 C228 0.930 . S
H219 C229 0.930 . S
C220 H214 0.930 . S
C220 C221 1.355 . S
C220 C222 1.415 . S
C221 C220 1.355 . S
C221 C223 1.419 . S
C222 C220 1.415 . S
C222 C227 1.425 . S
C222 C229 1.409 . S
C223 H215 0.930 . S
C223 C221 1.419 . S
C223 C224 1.362 . S
C224 H216 0.930 . S
C224 C223 1.362 . S
C224 C227 1.409 . S
C225 H217 0.930 . S
C225 C226 1.355 . S
C225 C227 1.415 . S
C226 C225 1.355 . S
C226 C228 1.419 . S
C227 C222 1.425 . S
C227 C224 1.409 . S
C227 C225 1.415 . S
C228 H218 0.930 . S
C228 C226 1.419 . S
C228 C229 1.362 . S
C229 H219 0.930 . S
C229 C222 1.409 . S
C229 C228 1.362 . S
H230 C236 0.930 . S
H231 C239 0.930 . S
H232 C240 0.930 . S
H233 C241 0.930 . S
H234 C244 0.930 . S
H235 C245 0.930 . S
C236 H230 0.930 . S
C236 C237 1.355 . S
C236 C238 1.415 . S
C237 C236 1.355 . S
C237 C239 1.419 . S
C238 C236 1.415 . S
C238 C243 1.425 . S
C238 C245 1.409 . S
C239 H231 0.930 . S
C239 C237 1.419 . S
C239 C240 1.362 . S
C240 H232 0.930 . S
C240 C239 1.362 . S
C240 C243 1.409 . S
C241 H233 0.930 . S
C241 C242 1.355 . S
C241 C243 1.415 . S
C242 C241 1.355 . S
C242 C244 1.419 . S
C243 C238 1.425 . S
C243 C240 1.409 . S
C243 C241 1.415 . S
C244 H234 0.930 . S
C244 C242 1.419 . S
C244 C245 1.362 . S
C245 H235 0.930 . S
C245 C238 1.409 . S
C245 C244 1.362 . S
H246 C252 0.930 . S
H247 C255 0.930 . S
H248 C256 0.930 . S
H249 C257 0.930 . S
H250 C260 0.930 . S
H251 C261 0.930 . S
C252 H246 0.930 . S
C252 C253 1.355 . S
C252 C254 1.415 . S
C253 C252 1.355 . S
C253 C255 1.419 . S
C254 C252 1.415 . S
C254 C259 1.425 . S
C254 C261 1.409 . S
C255 H247 0.930 . S
C255 C253 1.419 . S
C255 C256 1.362 . S
C256 H248 0.930 . S
C256 C255 1.362 . S
C256 C259 1.409 . S
C257 H249 0.930 . S
C257 C258 1.355 . S
C257 C259 1.415 . S
C258 C257 1.355 . S
C258 C260 1.419 . S
C259 C254 1.425 . S
C259 C256 1.409 . S
C259 C257 1.415 . S
C260 H250 0.930 . S
C260 C258 1.419 . S
C260 C261 1.362 . S
C261 H251 0.930 . S
C261 C254 1.409 . S
C261 C260 1.362 . S
H262 C268 0.930 . S
H263 C271 0.930 . S
H264 C272 0.930 . S
H265 C273 0.930 . S
H266 C276 0.930 . S
H267 C277 0.930 . S
C268 H262 0.930 . S
C268 C269 1.355 . S
C268 C270 1.415 . S
C269 C268 1.355 . S
C269 C271 1.419 . S
C270 C268 1.415 . S
C270 C275 1.425 . S
C270 C277 1.409 . S
C271 H263 0.930 . S
C271 C269 1.419 . S
C271 C272 1.362 . S
C272 H264 0.930 . S
C272 C271 1.362 . S
C272 C275 1.409 . S
C273 H265 0.930 . S
C273 C274 1.355 . S
C273 C275 1.415 . S
C274 C273 1.355 . S
C274 C276 1.419 . S
C275 C270 1.425 . S
C275 C272 1.409 . S
C275 C273 1.415 . S
C276 H266 0.930 . S
C276 C274 1.419 . S
C276 C277 1.362 . S
C277 H267 0.930 . S
C277 C270 1.409 . S
C277 C276 1.362 . S
H278 C284 0.930 . S
H279 C287 0.930 . S
H280 C288 0.930 . S
H281 C289 0.930 . S
H282 C292 0.930 . S
H283 C293 0.930 . S
C284 H278 0.930 . S
C284 C285 1.355 . S
C284 C286 1.415 . S
C285 C284 1.355 . S
C285 C287 1.419 . S
C286 C284 1.415 . S
C286 C291 1.425 . S
C286 C293 1.409 . S
C287 H279 0.930 . S
C287 C285 1.419 . S
C287 C288 1.362 . S
C288 H280 0.930 . S
C288 C287 1.362 . S
C288 C291 1.409 . S
C289 H281 0.930 . S
C289 C290 1.355 . S
C289 C291 1.415 . S
C290 C289 1.355 . S
C290 C292 1.419 . S
C291 C286 1.425 . S
C291 C288 1.409 . S
C291 C289 1.415 . S
C292 H282 0.930 . S
C292 C290 1.419 . S
C292 C293 1.362 . S
C293 H283 0.930 . S
C293 C286 1.409 . S
C293 C292 1.362 . S
H294 C300 0.930 . S
H295 C303 0.930 . S
H296 C304 0.930 . S
H297 C305 0.930 . S
H298 C308 0.930 . S
H299 C309 0.930 . S
C300 H294 0.930 . S
C300 C301 1.355 . S
C300 C302 1.415 . S
C301 C300 1.355 . S
C301 C303 1.419 . S
C302 C300 1.415 . S
C302 C307 1.425 . S
C302 C309 1.409 . S
C303 H295 0.930 . S
C303 C301 1.419 . S
C303 C304 1.362 . S
C304 H296 0.930 . S
C304 C303 1.362 . S
C304 C307 1.409 . S
C305 H297 0.930 . S
C305 C306 1.355 . S
C305 C307 1.415 . S
C306 C305 1.355 . S
C306 C308 1.419 . S
C307 C302 1.425 . S
C307 C304 1.409 . S
C307 C305 1.415 . S
C308 H298 0.930 . S
C308 C306 1.419 . S
C308 C309 1.362 . S
C309 H299 0.930 . S
C309 C302 1.409 . S
C309 C308 1.362 . S
C130 C92 1.278 . S
C125 C68 1.340 . S
C141 C11 1.347 . S
C146 C113 1.312 . S
C157 C30 1.573 . S
C162 C89 1.473 . S
C173 C49 1.503 1_554 S
C178 C110 1.351 . S
C194 C94 1.578 . S
C189 C2 1.536 . S
C210 C114 1.558 . S
C205 C25 1.650 . S
C221 C40 1.595 . S
C226 C90 1.610 . S
C237 C59 1.519 . S
C242 C112 1.515 . S
C258 C111 1.523 . S
C253 C21 1.507 . S
C274 C93 1.497 . S
C269 C44 1.539 . S
C290 C115 1.460 . S
C285 C63 1.476 . S
C301 C6 1.485 1_556 S
C306 C91 1.401 . S
