# Generated by pormake.
# Topology eea, (3,6)-cn, num edge types: 1
# Building blocks:
#     Node 0, Type 0, BuildingBlock: QEWDON_clean_linker_0, # of connection points: 3
#     Node 1, Type 0, BuildingBlock: QEWDON_clean_linker_0, # of connection points: 3
#     Node 2, Type 0, BuildingBlock: QEWDON_clean_linker_0, # of connection points: 3
#     Node 3, Type 0, BuildingBlock: QEWDON_clean_linker_0, # of connection points: 3
#     Node 4, Type 0, BuildingBlock: QEWDON_clean_linker_0, # of connection points: 3
#     Node 5, Type 0, BuildingBlock: QEWDON_clean_linker_0, # of connection points: 3
#     Node 6, Type 0, BuildingBlock: QEWDON_clean_linker_0, # of connection points: 3
#     Node 7, Type 0, BuildingBlock: QEWDON_clean_linker_0, # of connection points: 3
#     Node 8, Type 0, BuildingBlock: QEWDON_clean_linker_0, # of connection points: 3
#     Node 9, Type 0, BuildingBlock: QEWDON_clean_linker_0, # of connection points: 3
#     Node 10, Type 0, BuildingBlock: QEWDON_clean_linker_0, # of connection points: 3
#     Node 11, Type 0, BuildingBlock: QEWDON_clean_linker_0, # of connection points: 3
#     Node 12, Type 0, BuildingBlock: QEWDON_clean_linker_0, # of connection points: 3
#     Node 13, Type 0, BuildingBlock: QEWDON_clean_linker_0, # of connection points: 3
#     Node 14, Type 0, BuildingBlock: QEWDON_clean_linker_0, # of connection points: 3
#     Node 15, Type 0, BuildingBlock: QEWDON_clean_linker_0, # of connection points: 3
#     Node 16, Type 0, BuildingBlock: QEWDON_clean_linker_0, # of connection points: 3
#     Node 17, Type 0, BuildingBlock: QEWDON_clean_linker_0, # of connection points: 3
#     Node 18, Type 1, BuildingBlock: KUMBOL_clean_sbu_0, # of connection points: 6
#     Node 19, Type 1, BuildingBlock: KUMBOL_clean_sbu_0, # of connection points: 6
#     Node 20, Type 1, BuildingBlock: KUMBOL_clean_sbu_0, # of connection points: 6
#     Node 21, Type 1, BuildingBlock: KUMBOL_clean_sbu_0, # of connection points: 6
#     Node 22, Type 1, BuildingBlock: KUMBOL_clean_sbu_0, # of connection points: 6
#     Node 23, Type 1, BuildingBlock: KUMBOL_clean_sbu_0, # of connection points: 6
#     Node 24, Type 1, BuildingBlock: KUMBOL_clean_sbu_0, # of connection points: 6
#     Node 25, Type 1, BuildingBlock: KUMBOL_clean_sbu_0, # of connection points: 6
#     Node 26, Type 1, BuildingBlock: KUMBOL_clean_sbu_0, # of connection points: 6
#     Edge 27, Type (0, 1), BuildingBlock: OJICUG_clean_linker_0, # of connection points: 2
#     Edge 28, Type (0, 1), BuildingBlock: OJICUG_clean_linker_0, # of connection points: 2
#     Edge 29, Type (0, 1), BuildingBlock: OJICUG_clean_linker_0, # of connection points: 2
#     Edge 30, Type (0, 1), BuildingBlock: OJICUG_clean_linker_0, # of connection points: 2
#     Edge 31, Type (0, 1), BuildingBlock: OJICUG_clean_linker_0, # of connection points: 2
#     Edge 32, Type (0, 1), BuildingBlock: OJICUG_clean_linker_0, # of connection points: 2
#     Edge 33, Type (0, 1), BuildingBlock: OJICUG_clean_linker_0, # of connection points: 2
#     Edge 34, Type (0, 1), BuildingBlock: OJICUG_clean_linker_0, # of connection points: 2
#     Edge 35, Type (0, 1), BuildingBlock: OJICUG_clean_linker_0, # of connection points: 2
#     Edge 36, Type (0, 1), BuildingBlock: OJICUG_clean_linker_0, # of connection points: 2
#     Edge 37, Type (0, 1), BuildingBlock: OJICUG_clean_linker_0, # of connection points: 2
#     Edge 38, Type (0, 1), BuildingBlock: OJICUG_clean_linker_0, # of connection points: 2
#     Edge 39, Type (0, 1), BuildingBlock: OJICUG_clean_linker_0, # of connection points: 2
#     Edge 40, Type (0, 1), BuildingBlock: OJICUG_clean_linker_0, # of connection points: 2
#     Edge 41, Type (0, 1), BuildingBlock: OJICUG_clean_linker_0, # of connection points: 2
#     Edge 42, Type (0, 1), BuildingBlock: OJICUG_clean_linker_0, # of connection points: 2
#     Edge 43, Type (0, 1), BuildingBlock: OJICUG_clean_linker_0, # of connection points: 2
#     Edge 44, Type (0, 1), BuildingBlock: OJICUG_clean_linker_0, # of connection points: 2
#     Edge 45, Type (0, 1), BuildingBlock: OJICUG_clean_linker_0, # of connection points: 2
#     Edge 46, Type (0, 1), BuildingBlock: OJICUG_clean_linker_0, # of connection points: 2
#     Edge 47, Type (0, 1), BuildingBlock: OJICUG_clean_linker_0, # of connection points: 2
#     Edge 48, Type (0, 1), BuildingBlock: OJICUG_clean_linker_0, # of connection points: 2
#     Edge 49, Type (0, 1), BuildingBlock: OJICUG_clean_linker_0, # of connection points: 2
#     Edge 50, Type (0, 1), BuildingBlock: OJICUG_clean_linker_0, # of connection points: 2
#     Edge 51, Type (0, 1), BuildingBlock: OJICUG_clean_linker_0, # of connection points: 2
#     Edge 52, Type (0, 1), BuildingBlock: OJICUG_clean_linker_0, # of connection points: 2
#     Edge 53, Type (0, 1), BuildingBlock: OJICUG_clean_linker_0, # of connection points: 2
#     Edge 54, Type (0, 1), BuildingBlock: OJICUG_clean_linker_0, # of connection points: 2
#     Edge 55, Type (0, 1), BuildingBlock: OJICUG_clean_linker_0, # of connection points: 2
#     Edge 56, Type (0, 1), BuildingBlock: OJICUG_clean_linker_0, # of connection points: 2
#     Edge 57, Type (0, 1), BuildingBlock: OJICUG_clean_linker_0, # of connection points: 2
#     Edge 58, Type (0, 1), BuildingBlock: OJICUG_clean_linker_0, # of connection points: 2
#     Edge 59, Type (0, 1), BuildingBlock: OJICUG_clean_linker_0, # of connection points: 2
#     Edge 60, Type (0, 1), BuildingBlock: OJICUG_clean_linker_0, # of connection points: 2
#     Edge 61, Type (0, 1), BuildingBlock: OJICUG_clean_linker_0, # of connection points: 2
#     Edge 62, Type (0, 1), BuildingBlock: OJICUG_clean_linker_0, # of connection points: 2
#     Edge 63, Type (0, 1), BuildingBlock: OJICUG_clean_linker_0, # of connection points: 2
#     Edge 64, Type (0, 1), BuildingBlock: OJICUG_clean_linker_0, # of connection points: 2
#     Edge 65, Type (0, 1), BuildingBlock: OJICUG_clean_linker_0, # of connection points: 2
#     Edge 66, Type (0, 1), BuildingBlock: OJICUG_clean_linker_0, # of connection points: 2
#     Edge 67, Type (0, 1), BuildingBlock: OJICUG_clean_linker_0, # of connection points: 2
#     Edge 68, Type (0, 1), BuildingBlock: OJICUG_clean_linker_0, # of connection points: 2
#     Edge 69, Type (0, 1), BuildingBlock: OJICUG_clean_linker_0, # of connection points: 2
#     Edge 70, Type (0, 1), BuildingBlock: OJICUG_clean_linker_0, # of connection points: 2
#     Edge 71, Type (0, 1), BuildingBlock: OJICUG_clean_linker_0, # of connection points: 2
#     Edge 72, Type (0, 1), BuildingBlock: OJICUG_clean_linker_0, # of connection points: 2
#     Edge 73, Type (0, 1), BuildingBlock: OJICUG_clean_linker_0, # of connection points: 2
#     Edge 74, Type (0, 1), BuildingBlock: OJICUG_clean_linker_0, # of connection points: 2
#     Edge 75, Type (0, 1), BuildingBlock: OJICUG_clean_linker_0, # of connection points: 2
#     Edge 76, Type (0, 1), BuildingBlock: OJICUG_clean_linker_0, # of connection points: 2
#     Edge 77, Type (0, 1), BuildingBlock: OJICUG_clean_linker_0, # of connection points: 2
#     Edge 78, Type (0, 1), BuildingBlock: OJICUG_clean_linker_0, # of connection points: 2
#     Edge 79, Type (0, 1), BuildingBlock: OJICUG_clean_linker_0, # of connection points: 2
#     Edge 80, Type (0, 1), BuildingBlock: OJICUG_clean_linker_0, # of connection points: 2
# Relax obj value: 0.047
# Max RMSD: 0.224
# Mean RMSD: 0.160
data_MOF--net-eea--node1-KUMBOL_clean_sbu_0--node2-QEWDON_clean_linker_0--edge1-OJICUG_clean_linker_0
_symmetry_space_group_name_H-M    P1
_symmetry_Int_Tables_number       1
_symmetry_cell_setting            triclinic
loop_
_symmetry_equiv_pos_as_xyz
'x, y, z'
_cell_length_a     41.82841
_cell_length_b     43.4448
_cell_length_c     50.096541
_cell_angle_alpha  89.709166
_cell_angle_beta   89.64677
_cell_angle_gamma 119.93065
loop_
_atom_site_label
_atom_site_type_symbol
_atom_site_fract_x
_atom_site_fract_y
_atom_site_fract_z
_atom_type_partial_charge
H0 H 0.24483 0.1385 0.43982 0.0
C1 C 0.2427 0.11496 0.43076 0.0
C2 C 0.2673 0.10321 0.43802 0.0
C3 C 0.21409 0.09554 0.41283 0.0
H4 H 0.28308 0.06362 0.43121 0.0
C5 C 0.26409 0.07265 0.42584 0.0
C6 C 0.23586 0.05296 0.40751 0.0
C7 C 0.21083 0.06464 0.40134 0.0
C8 C 0.18554 0.1056 0.40794 0.0
H9 H 0.18806 0.04925 0.38806 0.0
C10 C 0.19514 0.14056 0.40044 0.0
C11 C 0.16738 0.14905 0.39511 0.0
C12 C 0.14811 0.07976 0.41093 0.0
H13 H 0.14007 0.05289 0.41708 0.0
C14 C 0.12068 0.08836 0.40634 0.0
H15 H 0.22389 0.1606 0.39773 0.0
C16 C 0.13016 0.12267 0.39836 0.0
H17 H 0.10832 0.12861 0.39459 0.0
H18 H 0.09194 0.06829 0.40878 0.0
H19 H 0.89608 0.09963 0.42841 0.0
C20 C 0.91811 0.12268 0.41835 0.0
C21 C 0.92988 0.15658 0.42873 0.0
C22 C 0.93581 0.11798 0.39612 0.0
H23 H 0.96938 0.21227 0.42487 0.0
C24 C 0.95988 0.1862 0.41652 0.0
C25 C 0.97801 0.18241 0.394 0.0
C26 C 0.96561 0.14807 0.38393 0.0
C27 C 0.92474 0.08133 0.38717 0.0
H28 H 0.97908 0.14472 0.36655 0.0
C29 C 0.88724 0.05431 0.38681 0.0
C30 C 0.87744 0.019 0.38109 0.0
C31 C 0.95198 0.07251 0.38078 0.0
H32 H 0.98098 0.09239 0.38123 0.0
C33 C 0.9422 0.03759 0.37474 0.0
H34 H 0.86575 0.06054 0.39138 0.0
C35 C 0.90523 0.01092 0.37511 0.0
H36 H 0.89825 0.98395 0.37046 0.0
H37 H 0.96343 0.03108 0.37006 0.0
H38 H 0.92831 0.792 0.42734 0.0
C39 C 0.90465 0.79213 0.41883 0.0
C40 C 0.8699 0.77232 0.43156 0.0
C41 C 0.90875 0.81198 0.3953 0.0
H42 H 0.81311 0.75981 0.43145 0.0
C43 C 0.83945 0.77354 0.42104 0.0
C44 C 0.84253 0.79283 0.39772 0.0
C45 C 0.87698 0.81131 0.38475 0.0
C46 C 0.94585 0.83442 0.38192 0.0
H47 H 0.87864 0.82484 0.36615 0.0
C48 C 0.97453 0.82578 0.38266 0.0
C49 C 1.00883 0.84754 0.36936 0.0
C50 C 0.95277 0.86554 0.36811 0.0
H51 H 0.93285 0.87452 0.36802 0.0
C52 C 0.98563 0.88605 0.3542 0.0
H53 H 0.97036 0.80249 0.39356 0.0
C54 C 1.01311 0.87699 0.35449 0.0
H55 H 0.03798 0.8935 0.34301 0.0
H56 H 0.98995 0.90937 0.34321 0.0
H57 H 0.14946 0.21702 0.60892 0.0
C58 C 0.12685 0.21908 0.61759 0.0
C59 C 0.11255 0.23757 0.60337 0.0
C60 C 0.11123 0.20216 0.64222 0.0
H61 H 0.07027 0.25216 0.60282 0.0
C62 C 0.08169 0.23841 0.61382 0.0
C63 C 0.06527 0.22163 0.6382 0.0
C64 C 0.08071 0.20429 0.65245 0.0
C65 C 0.12529 0.18081 0.65669 0.0
H66 H 0.06886 0.19271 0.67172 0.0
C67 C 0.16269 0.18887 0.65491 0.0
C68 C 0.17473 0.1677 0.66843 0.0
C69 C 0.10047 0.15109 0.67213 0.0
H70 H 0.07142 0.14271 0.67326 0.0
C71 C 0.11239 0.13105 0.68615 0.0
H72 H 0.18227 0.21125 0.64293 0.0
C73 C 0.149 0.13931 0.68452 0.0
H74 H 0.15697 0.12309 0.69599 0.0
H75 H 0.09296 0.10866 0.69823 0.0
H76 H 0.79368 0.91601 0.59712 0.0
C77 C 0.79429 0.89455 0.60782 0.0
C78 C 0.76816 0.85915 0.60215 0.0
C79 C 0.82309 0.90241 0.62558 0.0
H80 H 0.74926 0.80434 0.61159 0.0
C81 C 0.77008 0.83159 0.61548 0.0
C82 C 0.79892 0.83886 0.63323 0.0
C83 C 0.82529 0.87452 0.63813 0.0
C84 C 0.85283 0.93964 0.62912 0.0
H85 H 0.84836 0.88077 0.65108 0.0
C86 C 0.84466 0.9665 0.63571 0.0
C87 C 0.87336 1.0015 0.63983 0.0
C88 C 0.88982 0.94838 0.62586 0.0
H89 H 0.89673 0.92827 0.62042 0.0
C90 C 0.91823 0.9832 0.62924 0.0
H91 H 0.81623 0.9599 0.63866 0.0
C92 C 0.91015 0.00958 0.63628 0.0
H93 H 0.93273 0.03639 0.63908 0.0
H94 H 0.94664 0.98972 0.62657 0.0
H95 H 0.11009 0.87545 0.60277 0.0
C96 C 0.13235 0.89859 0.61218 0.0
C97 C 0.16856 0.91285 0.60233 0.0
C98 C 0.12424 0.91588 0.63249 0.0
H99 H 0.22505 0.95385 0.60667 0.0
C100 C 0.19707 0.94365 0.61391 0.0
C101 C 0.18978 0.96138 0.63443 0.0
C102 C 0.15307 0.94718 0.64351 0.0
C103 C 0.08519 0.90428 0.63933 0.0
H104 H 0.1465 0.96111 0.6585 0.0
C105 C 0.05951 0.86863 0.64614 0.0
C106 C 0.02182 0.85772 0.65066 0.0
C107 C 0.07308 0.92906 0.63738 0.0
H108 H 0.09211 0.95645 0.63188 0.0
C109 C 0.0361 0.91856 0.64138 0.0
H110 H 0.0692 0.84982 0.64815 0.0
C111 C 1.01065 0.88331 0.64759 0.0
H112 H 0.98202 0.87625 0.64944 0.0
H113 H 0.02694 0.93775 0.63919 0.0
H114 H 0.90751 0.46698 0.76923 0.0
C115 C 0.90713 0.44532 0.7583 0.0
C116 C 0.92728 0.42974 0.76779 0.0
C117 C 0.88451 0.43146 0.73591 0.0
H118 H 0.93975 0.38786 0.76264 0.0
C119 C 0.92509 0.40038 0.75449 0.0
C120 C 0.90386 0.38697 0.73124 0.0
C121 C 0.8839 0.40311 0.72207 0.0
C122 C 0.85856 0.44398 0.72864 0.0
H123 H 0.86743 0.3936 0.70422 0.0
C124 C 0.87037 0.48047 0.72646 0.0
C125 C 0.84471 0.49163 0.72124 0.0
C126 C 0.82102 0.41899 0.72516 0.0
H127 H 0.81116 0.39079 0.72703 0.0
C128 C 0.79562 0.43012 0.72 0.0
H129 H 0.89925 0.50004 0.7289 0.0
C130 C 0.80731 0.46624 0.71818 0.0
H131 H 0.78723 0.47442 0.71403 0.0
H132 H 0.76675 0.41069 0.71754 0.0
H133 H 0.56659 0.44007 0.76339 0.0
C134 C 0.58925 0.46273 0.75341 0.0
C135 C 0.60113 0.49697 0.76315 0.0
C136 C 0.60781 0.45728 0.73208 0.0
H137 H 0.64109 0.55245 0.75879 0.0
C138 C 0.63164 0.5261 0.75099 0.0
C139 C 0.65039 0.52155 0.72927 0.0
C140 C 0.63827 0.48693 0.72 0.0
C141 C 0.59711 0.42041 0.72403 0.0
H142 H 0.65246 0.48305 0.70332 0.0
C143 C 0.55965 0.39355 0.72254 0.0
C144 C 0.55012 0.35819 0.71729 0.0
C145 C 0.62462 0.41137 0.71946 0.0
H146 H 0.65357 0.43116 0.72083 0.0
C147 C 0.61511 0.37637 0.714 0.0
H148 H 0.53799 0.39996 0.72572 0.0
C149 C 0.57813 0.34987 0.71311 0.0
H150 H 0.57132 0.32284 0.70889 0.0
H151 H 0.63653 0.36969 0.71072 0.0
H152 H 0.59831 0.12327 0.76435 0.0
C153 C 0.57549 0.12406 0.75486 0.0
C154 C 0.53998 0.10477 0.76621 0.0
C155 C 0.58227 0.14683 0.73285 0.0
H156 H 0.48352 0.09232 0.76362 0.0
C157 C 0.51076 0.10703 0.75459 0.0
C158 C 0.51632 0.12859 0.73202 0.0
C159 C 0.55238 0.14877 0.72144 0.0
C160 C 0.6211 0.17273 0.7248 0.0
H161 H 0.55734 0.16631 0.70454 0.0
C162 C 0.64822 0.16262 0.72047 0.0
C163 C 0.68568 0.18866 0.7153 0.0
C164 C 0.63173 0.20887 0.72369 0.0
H165 H 0.61184 0.21748 0.7273 0.0
C166 C 0.66837 0.23454 0.71933 0.0
H167 H 0.63992 0.13471 0.72089 0.0
C168 C 0.69506 0.22474 0.71563 0.0
H169 H 0.72333 0.24596 0.71348 0.0
H170 H 0.6763 0.26238 0.71933 0.0
H171 H 0.81014 0.54978 0.94184 0.0
C172 C 0.78723 0.55136 0.95047 0.0
C173 C 0.77368 0.57098 0.93687 0.0
C174 C 0.77049 0.53283 0.97442 0.0
H175 H 0.73178 0.58616 0.93685 0.0
C176 C 0.7426 0.57146 0.94728 0.0
C177 C 0.72524 0.55315 0.97099 0.0
C178 C 0.73982 0.53466 0.98462 0.0
C179 C 0.78363 0.51042 0.9884 0.0
H180 H 0.72717 0.52199 1.00346 0.0
C181 C 0.82096 0.51825 0.98722 0.0
C182 C 0.83228 0.49652 1.00075 0.0
C183 C 0.75807 0.48016 1.00304 0.0
H184 H 0.72901 0.47183 1.00357 0.0
C185 C 0.76928 0.45963 0.01716 0.0
H186 H 0.84104 0.54091 0.97574 0.0
C187 C 0.8059 0.46785 0.01631 0.0
H188 H 0.81335 0.45135 0.02793 0.0
H189 H 0.74931 0.43694 0.02873 0.0
H190 H 0.46249 0.24914 0.93527 0.0
C191 C 0.46265 0.22731 0.94573 0.0
C192 C 0.43771 0.1923 0.93835 0.0
C193 C 0.4896 0.23451 0.96505 0.0
H194 H 0.41893 0.13722 0.94599 0.0
C195 C 0.43902 0.16422 0.95123 0.0
C196 C 0.46623 0.17064 0.97029 0.0
C197 C 0.49135 0.20606 0.97717 0.0
C198 C 0.51781 0.27196 0.97057 0.0
H199 H 0.51296 0.21167 0.99137 0.0
C200 C 0.50758 0.29815 0.97369 0.0
C201 C 0.53461 0.33408 0.97641 0.0
C202 C 0.55542 0.28215 0.97094 0.0
H203 H 0.56416 0.26272 0.96824 0.0
C204 C 0.58228 0.31778 0.97385 0.0
H205 H 0.47868 0.29069 0.97364 0.0
C206 C 0.57202 0.34367 0.97636 0.0
H207 H 0.59329 0.37117 0.97864 0.0
H208 H 0.61118 0.3254 0.97391 0.0
H209 H 0.77016 0.2027 0.93383 0.0
C210 C 0.7917 0.22555 0.94401 0.0
C211 C 0.82804 0.24187 0.93413 0.0
C212 C 0.78252 0.24074 0.96531 0.0
H213 H 0.88367 0.28419 0.93904 0.0
C214 C 0.85561 0.27238 0.94656 0.0
C215 C 0.84728 0.28811 0.96794 0.0
C216 C 0.8105 0.27189 0.97725 0.0
C217 C 0.74311 0.22798 0.97178 0.0
H218 H 0.80314 0.28437 0.99294 0.0
C219 C 0.71782 0.19196 0.97799 0.0
C220 C 0.67995 0.18042 0.98239 0.0
C221 C 0.73033 0.25226 0.97002 0.0
H222 H 0.74904 0.27988 0.96494 0.0
C223 C 0.69313 0.24103 0.97367 0.0
H224 H 0.72785 0.17339 0.97974 0.0
C225 C 0.66814 0.20555 0.97946 0.0
H226 H 0.63932 0.19792 0.98122 0.0
H227 H 0.68349 0.25987 0.97163 0.0
H228 H 0.57496 0.80082 0.10854 0.0
C229 C 0.57367 0.77864 0.09777 0.0
C230 C 0.59838 0.76674 0.10394 0.0
C231 C 0.54524 0.76004 0.07951 0.0
H232 H 0.61575 0.72903 0.09508 0.0
C233 C 0.59584 0.7373 0.0906 0.0
C234 C 0.56758 0.71821 0.0722 0.0
C235 C 0.5423 0.72988 0.06686 0.0
C236 C 0.51618 0.76965 0.0759 0.0
H237 H 0.51949 0.71491 0.05351 0.0
C238 C 0.52507 0.80454 0.06891 0.0
C239 C 0.49682 0.8127 0.06483 0.0
C240 C 0.47903 0.74348 0.07965 0.0
H241 H 0.47161 0.71663 0.08539 0.0
C242 C 0.45113 0.75177 0.07639 0.0
H243 H 0.55362 0.82477 0.06559 0.0
C244 C 0.45987 0.78605 0.06892 0.0
H245 H 0.43765 0.79173 0.06614 0.0
H246 H 0.42259 0.73147 0.07944 0.0
H247 H 0.2236 0.76834 0.0978 0.0
C248 C 0.24603 0.79101 0.08767 0.0
C249 C 0.25866 0.82522 0.09781 0.0
C250 C 0.2637 0.78561 0.06571 0.0
H251 H 0.29904 0.88059 0.09356 0.0
C252 C 0.28894 0.85433 0.0854 0.0
C253 C 0.30673 0.84982 0.06303 0.0
C254 C 0.29378 0.81526 0.05333 0.0
C255 C 0.25279 0.74882 0.05731 0.0
H256 H 0.30717 0.81135 0.03615 0.0
C257 C 0.21532 0.72194 0.05595 0.0
C258 C 0.20581 0.68679 0.04985 0.0
C259 C 0.28027 0.73993 0.05202 0.0
H260 H 0.30923 0.75972 0.0533 0.0
C261 C 0.27076 0.70513 0.04583 0.0
H262 H 0.19367 0.72822 0.05971 0.0
C263 C 0.23379 0.67866 0.04489 0.0
H264 H 0.22696 0.65179 0.04003 0.0
H265 H 0.29217 0.69861 0.04196 0.0
H266 H 0.26412 0.46251 0.09039 0.0
C267 C 0.23978 0.46166 0.08227 0.0
C268 C 0.20653 0.44436 0.09708 0.0
C269 C 0.24187 0.47895 0.05779 0.0
H270 H 0.14966 0.4314 0.09882 0.0
C271 C 0.17516 0.44443 0.08733 0.0
C272 C 0.17616 0.46097 0.06299 0.0
C273 C 0.20931 0.4776 0.04821 0.0
C274 C 0.2779 0.49987 0.04273 0.0
H275 H 0.20929 0.48912 0.029 0.0
C276 C 0.30685 0.49164 0.04397 0.0
C277 C 0.34058 0.5125 0.02981 0.0
C278 C 0.28384 0.52946 0.02719 0.0
H279 H 0.26372 0.53816 0.0265 0.0
C280 C 0.31618 0.54903 0.01247 0.0
H281 H 0.30345 0.46948 0.05604 0.0
C282 C 0.34408 0.54057 0.01356 0.0
H283 H 0.36867 0.55645 1.00165 0.0
H284 H 0.31985 0.57127 1.00032 0.0
H285 H 0.47481 0.87934 0.27661 0.0
C286 C 0.4523 0.88139 0.28549 0.0
C287 C 0.43865 0.90089 0.2719 0.0
C288 C 0.43624 0.86353 0.30974 0.0
H289 H 0.39709 0.9165 0.27223 0.0
C290 C 0.40797 0.90183 0.28263 0.0
C291 C 0.39106 0.88398 0.30659 0.0
C292 C 0.40577 0.86553 0.32019 0.0
C293 C 0.45003 0.84165 0.32369 0.0
H294 H 0.39347 0.8531 0.33917 0.0
C295 C 0.48746 0.84988 0.322 0.0
C296 C 0.49944 0.82841 0.3351 0.0
C297 C 0.42505 0.81143 0.3386 0.0
H298 H 0.39597 0.80299 0.33963 0.0
C299 C 0.43687 0.79103 0.35222 0.0
H300 H 0.50713 0.87266 0.31042 0.0
C301 C 0.47355 0.79946 0.35069 0.0
H302 H 0.48146 0.78299 0.36187 0.0
H303 H 0.41733 0.76824 0.36392 0.0
H304 H 0.12536 0.58171 0.26745 0.0
C305 C 0.12607 0.56003 0.27771 0.0
C306 C 0.10139 0.5249 0.27038 0.0
C307 C 0.15353 0.56758 0.29669 0.0
H308 H 0.08355 0.46996 0.27795 0.0
C309 C 0.10345 0.49706 0.28308 0.0
C310 C 0.1311 0.50386 0.30187 0.0
C311 C 0.15598 0.5394 0.30859 0.0
C312 C 0.1817 0.60511 0.30197 0.0
H313 H 0.17801 0.54535 0.32249 0.0
C314 C 0.17135 0.63107 0.30611 0.0
C315 C 0.19838 0.66702 0.30889 0.0
C316 C 0.21938 0.61554 0.30128 0.0
H317 H 0.22816 0.59628 0.2978 0.0
C318 C 0.24619 0.65118 0.30417 0.0
H319 H 0.14241 0.62342 0.30686 0.0
C320 C 0.23583 0.67684 0.30777 0.0
H321 H 0.25708 0.70435 0.31004 0.0
H322 H 0.27513 0.65898 0.30342 0.0
H323 H 0.43959 0.53663 0.26697 0.0
C324 C 0.46148 0.55977 0.27666 0.0
C325 C 0.4978 0.57496 0.26681 0.0
C326 C 0.45273 0.57619 0.29726 0.0
H327 H 0.55387 0.61688 0.27135 0.0
C328 C 0.5258 0.60585 0.27867 0.0
C329 C 0.51789 0.62268 0.29952 0.0
C330 C 0.4811 0.60751 0.30866 0.0
C331 C 0.41344 0.564 0.3038 0.0
H332 H 0.4741 0.62079 0.32392 0.0
C333 C 0.3878 0.52807 0.30998 0.0
C334 C 0.34998 0.51687 0.31426 0.0
C335 C 0.40109 0.58861 0.30208 0.0
H336 H 0.42005 0.61618 0.29702 0.0
C337 C 0.36398 0.57777 0.30572 0.0
H338 H 0.39754 0.50927 0.31175 0.0
C339 C 0.33863 0.54234 0.3114 0.0
H340 H 0.3099 0.53503 0.31307 0.0
H341 H 0.35466 0.59686 0.3037 0.0
Gd342 Gd 0.51367 0.01799 0.05396 0.0
Gd343 Gd 0.49218 0.98756 0.98385 0.0
C344 C 0.38524 0.88664 0.96366 0.0
C345 C 0.40755 0.84714 0.94962 0.0
C346 C 0.45083 0.90749 0.96316 0.0
C347 C 0.42189 0.91356 0.96823 0.0
C348 C 0.44407 0.87452 0.95317 0.0
C349 C 0.37818 0.85316 0.95492 0.0
C350 C 0.35689 0.89452 0.96723 0.0
C351 C 0.36559 0.92891 0.97414 0.0
N352 N 0.42972 0.94638 0.97625 0.0
C353 C 0.40242 0.95482 0.97819 0.0
H354 H 0.40876 0.98127 0.98359 0.0
C355 C 0.51539 0.93129 0.95906 0.0
N356 N 0.48581 0.93452 0.9668 0.0
C357 C 0.51007 0.89903 0.94917 0.0
C358 C 0.47427 0.87038 0.9465 0.0
H359 H 0.54307 0.95339 0.9612 0.0
H360 H 0.35018 0.83205 0.95152 0.0
H361 H 0.59286 0.01573 0.04752 0.0
H362 H 0.32835 0.87454 0.96403 0.0
H363 H 0.34394 0.93548 0.97642 0.0
H364 H 0.40175 0.82148 0.94224 0.0
H365 H 0.47299 0.05937 0.08127 0.0
H366 H 0.68268 0.11692 0.06926 0.0
H367 H 0.65937 0.05568 0.05323 0.0
H368 H 0.62286 0.18041 0.09911 0.0
H369 H 0.53356 0.89628 0.94361 0.0
H370 H 0.47024 0.84546 0.93877 0.0
H371 H 0.66882 0.16346 0.08611 0.0
H372 H 0.49034 0.1175 0.10141 0.0
N373 N 0.57801 0.05392 0.05966 0.0
C374 C 0.65329 0.09943 0.06683 0.0
C375 C 0.64023 0.06488 0.05782 0.0
C376 C 0.6282 0.11074 0.07315 0.0
C377 C 0.59025 0.08697 0.06947 0.0
C378 C 0.60231 0.04221 0.05467 0.0
N379 N 0.52839 0.07263 0.07332 0.0
C380 C 0.56457 0.09669 0.07642 0.0
C381 C 0.51152 0.11209 0.09433 0.0
C382 C 0.54873 0.13788 0.09638 0.0
C383 C 0.5018 0.07924 0.08298 0.0
C384 C 0.57583 0.13018 0.08773 0.0
H385 H 0.55622 0.16329 0.10521 0.0
O386 O 0.48245 1.00227 0.09136 0.0
O387 O 0.4726 0.97902 0.0261 0.0
O388 O 0.47267 0.02646 0.99371 0.0
O389 O 0.50372 0.05817 0.03182 0.0
O390 O 0.45241 0.99774 0.05558 0.0
O391 O 0.52583 0.98986 0.08457 0.0
O392 O 0.52552 0.0088 0.94786 0.0
O393 O 0.53166 0.02788 0.01156 0.0
O394 O 0.52823 0.97468 0.04466 0.0
O395 O 0.49438 0.94471 1.00719 0.0
O396 O 0.55469 0.01301 0.98185 0.0
O397 O 0.47249 0.00607 0.95074 0.0
C398 C 0.44328 0.976 0.03591 0.0
C399 C 0.61362 0.15441 0.09069 0.0
C400 C 0.63978 0.14473 0.08335 0.0
C401 C 0.50182 0.98928 0.10159 0.0
C402 C 0.51493 1.00005 0.12909 0.0
C403 C 0.54578 0.0334 0.13387 0.0
C404 C 0.49692 0.97672 0.15072 0.0
C405 C 0.5098 0.98666 0.17705 0.0
C406 C 0.55844 0.04357 0.15978 0.0
C407 C 0.54066 0.02049 0.18122 0.0
C408 C 0.48477 0.05433 0.00967 0.0
C409 C 0.56213 0.03487 1.00127 0.0
C410 C 0.50095 0.01355 0.93552 0.0
C411 C 0.49347 1.00105 0.90772 0.0
C412 C 0.47443 0.96462 0.9022 0.0
C413 C 0.50685 0.02569 0.8864 0.0
C414 C 0.50188 0.01393 0.85975 0.0
C415 C 0.46942 0.95283 0.8759 0.0
C416 C 0.48322 0.97725 0.85479 0.0
C417 C 0.51296 0.94649 0.02888 0.0
H418 H 0.5602 0.05153 0.11759 0.0
H419 H 0.47336 0.95074 0.14698 0.0
H420 H 0.58216 0.06948 0.16328 0.0
H421 H 0.55088 0.02937 0.20115 0.0
H422 H 0.46358 0.94527 0.91814 0.0
H423 H 0.52159 0.05391 0.89055 0.0
H424 H 0.45477 0.92463 0.87186 0.0
H425 H 0.47864 0.96744 0.83453 0.0
Gd426 Gd 0.99427 0.48552 0.05446 0.0
Gd427 Gd 0.0331 0.49954 0.98564 0.0
C428 C 0.1415 0.49985 0.973 0.0
C429 C 0.18349 0.56128 0.96023 0.0
C430 C 0.11883 0.54121 0.96934 0.0
C431 C 0.11258 0.50755 0.97522 0.0
C432 C 0.15403 0.56814 0.96083 0.0
C433 C 0.17723 0.52718 0.96636 0.0
C434 C 0.13334 0.46469 0.97657 0.0
C435 C 0.09683 0.43808 0.98101 0.0
N436 N 0.07763 0.48174 0.98125 0.0
C437 C 0.06908 0.44704 0.98289 0.0
H438 H 0.04104 0.42624 0.98655 0.0
C439 C 0.09279 0.57718 0.9591 0.0
N440 N 0.08963 0.54669 0.96972 0.0
C441 C 0.12722 0.60486 0.95069 0.0
C442 C 0.15814 0.60059 0.95206 0.0
H443 H 0.06889 0.58055 0.95822 0.0
H444 H 0.19992 0.5219 0.96496 0.0
H445 H 1.00127 0.56645 0.05159 0.0
H446 H 0.15478 0.45769 0.97514 0.0
H447 H 0.09007 0.41067 0.98317 0.0
H448 H 0.21088 0.58178 0.95413 0.0
H449 H 0.94559 0.40375 0.07976 0.0
H450 H 0.89491 0.55396 0.06694 0.0
H451 H 0.96135 0.59247 0.05683 0.0
H452 H 0.82023 0.43013 0.08766 0.0
H453 H 0.12989 0.62944 0.94319 0.0
H454 H 0.18474 0.62198 0.94538 0.0
H455 H 0.84215 0.49308 0.0776 0.0
H456 H 0.88185 0.36234 0.09537 0.0
N457 N 0.95814 0.51319 0.05854 0.0
C458 C 0.9124 0.54228 0.06478 0.0
C459 C 0.94989 0.5641 0.05916 0.0
C460 C 0.89811 0.50576 0.06825 0.0
C461 C 0.92206 0.49189 0.06521 0.0
C462 C 0.97252 0.5491 0.05623 0.0
N463 N 0.93432 0.44496 0.06971 0.0
C464 C 0.90969 0.45653 0.07078 0.0
C465 C 0.88921 0.38867 0.08833 0.0
C466 C 0.86283 0.39941 0.08792 0.0
C467 C 0.92522 0.41216 0.07957 0.0
C468 C 0.87312 0.43399 0.07967 0.0
H469 H 0.83501 0.38128 0.0949 0.0
O470 O 1.00372 0.46672 0.09233 0.0
O471 O 0.03922 0.48874 0.02849 0.0
O472 O 0.99224 0.44114 0.99402 0.0
O473 O 0.95516 0.4371 0.03062 0.0
O474 O 0.01686 0.44811 0.05653 0.0
O475 O 0.01824 0.5218 0.08747 0.0
O476 O 1.014 0.51007 0.94831 0.0
O477 O 0.98855 0.49533 0.01193 0.0
O478 O 0.0414 0.5427 0.04883 0.0
O479 O 0.07143 0.54881 1.00779 0.0
O480 O 1.00408 0.53197 0.98167 0.0
O481 O 0.01741 0.46226 0.95292 0.0
C482 C 0.04222 0.46349 0.03847 0.0
C483 C 0.84857 0.44715 0.08122 0.0
C484 C 0.86107 0.48301 0.07555 0.0
C485 C 1.01558 0.49726 0.10393 0.0
C486 C 1.00022 0.49663 0.13055 0.0
C487 C 0.96527 0.49328 0.13352 0.0
C488 C 0.02134 0.50055 0.15328 0.0
C489 C 1.00783 0.50139 0.17895 0.0
C490 C 0.95155 0.49378 0.15889 0.0
C491 C 0.97267 0.49791 0.18149 0.0
C492 C 0.96179 0.42382 0.00884 0.0
C493 C 0.98119 0.51736 1.0013 0.0
C494 C 1.01088 0.48196 0.93669 0.0
C495 C 0.02691 0.48744 0.90969 0.0
C496 C 0.06526 0.50561 0.90572 0.0
C497 C 1.00356 0.47517 0.88752 0.0
C498 C 0.01843 0.48175 0.86146 0.0
C499 C 0.08015 0.51223 0.87992 0.0
C500 C 0.05692 0.50061 0.85787 0.0
C501 C 0.06812 0.56103 0.03109 0.0
H502 H 0.94876 0.49063 0.1163 0.0
H503 H 0.04862 0.50375 0.15089 0.0
H504 H 0.92452 0.49114 0.16102 0.0
H505 H 0.96139 0.4981 0.20097 0.0
H506 H 0.08369 0.51476 0.92245 0.0
H507 H 0.97389 0.46106 0.89051 0.0
H508 H 0.10978 0.52641 0.87702 0.0
H509 H 0.069 0.50582 0.83801 0.0
Gd510 Gd 0.51911 0.52809 0.97928 0.0
Gd511 Gd 0.53764 0.5093 0.04814 0.0
C512 C 0.64368 0.50641 0.06296 0.0
C513 C 0.62027 0.44403 0.07346 0.0
C514 C 0.57782 0.46554 0.06407 0.0
C515 C 0.60718 0.49941 0.05983 0.0
C516 C 0.58396 0.43769 0.0718 0.0
C517 C 0.6501 0.47834 0.069 0.0
C518 C 0.67254 0.54157 0.06085 0.0
C519 C 0.66447 0.56881 0.05689 0.0
N520 N 0.59994 0.52594 0.05436 0.0
C521 C 0.62776 0.56052 0.0541 0.0
H522 H 0.62191 0.58179 0.05088 0.0
C523 C 0.51352 0.42923 0.07114 0.0
N524 N 0.54314 0.46047 0.06255 0.0
C525 C 0.51816 0.4007 0.07878 0.0
C526 C 0.55347 0.40474 0.07862 0.0
H527 H 0.48618 0.42604 0.07106 0.0
H528 H 0.67797 0.48311 0.07113 0.0
H529 H 0.44221 0.44734 0.97872 0.0
H530 H 0.70098 0.54806 0.06302 0.0
H531 H 0.68651 0.59617 0.05585 0.0
H532 H 0.62557 0.42287 0.07902 0.0
H533 H 0.55759 0.61167 0.95757 0.0
H534 H 0.35031 0.46095 0.96078 0.0
H535 H 0.37579 0.42178 0.97126 0.0
H536 H 0.40594 0.58583 0.9434 0.0
H537 H 0.49453 0.37562 0.08472 0.0
H538 H 0.55701 0.38264 0.08466 0.0
H539 H 0.36172 0.52239 0.95102 0.0
H540 H 0.53829 0.65409 0.942 0.0
N541 N 0.45488 0.50089 0.97272 0.0
C542 C 0.37967 0.47241 0.96393 0.0
C543 C 0.39397 0.45022 0.96975 0.0
C544 C 0.40356 0.50904 0.96155 0.0
C545 C 0.44155 0.5226 0.96591 0.0
C546 C 0.43185 0.46493 0.97393 0.0
N547 N 0.50273 0.56969 0.96438 0.0
C548 C 0.46629 0.55823 0.96177 0.0
C549 C 0.51773 0.62726 0.94765 0.0
C550 C 0.48024 0.61647 0.94636 0.0
C551 C 0.52855 0.60322 0.95639 0.0
C552 C 0.45396 0.58137 0.95293 0.0
H553 H 0.4719 0.63507 0.93946 0.0
O554 O 0.55146 0.54941 0.94275 0.0
O555 O 0.55885 0.52371 1.00612 0.0
O556 O 0.55827 0.56814 0.04159 0.0
O557 O 0.52712 0.57403 1.005 0.0
O558 O 0.58026 0.56643 0.97994 0.0
O559 O 0.50904 0.49396 0.94522 0.0
O560 O 0.50472 0.49652 0.0845 0.0
O561 O 0.49945 0.51505 0.02107 0.0
O562 O 0.50706 0.47084 0.98299 0.0
O563 O 0.52891 0.46279 0.02393 0.0
O564 O 0.47474 0.47647 0.04978 0.0
O565 O 0.55834 0.54404 0.08252 0.0
C566 C 0.58862 0.54994 0.99759 0.0
C567 C 0.41601 0.56839 0.94986 0.0
C568 C 0.39085 0.53226 0.95414 0.0
C569 C 0.53334 0.51953 0.93003 0.0
C570 C 0.52146 0.52146 0.9028 0.0
C571 C 0.49135 0.52658 0.8985 0.0
C572 C 0.53978 0.517 0.88085 0.0
C573 C 0.52794 0.51732 0.85462 0.0
C574 C 0.47966 0.52726 0.87258 0.0
C575 C 0.49771 0.52258 0.85076 0.0
C576 C 0.54621 0.58608 0.02733 0.0
C577 C 0.46844 0.49231 0.03041 0.0
C578 C 0.52996 0.52348 0.09756 0.0
C579 C 0.53776 0.51576 0.12464 0.0
C580 C 0.55456 0.49511 0.12854 0.0
C581 C 0.52735 0.52837 0.14694 0.0
C582 C 0.53304 0.5198 0.17301 0.0
C583 C 0.56018 0.48647 0.15429 0.0
C584 C 0.54932 0.49853 0.17643 0.0
C585 C 0.51473 0.45202 1.00007 0.0
H586 H 0.47672 0.52974 0.9151 0.0
H587 H 0.56271 0.5125 0.88425 0.0
H588 H 0.45642 0.53128 0.8694 0.0
H589 H 0.4882 0.52338 0.83084 0.0
H590 H 0.56323 0.48555 0.11177 0.0
H591 H 0.51438 0.54437 0.14402 0.0
H592 H 0.57305 0.47041 0.15709 0.0
H593 H 0.55428 0.4918 0.19624 0.0
Gd594 Gd 0.18293 0.35342 0.38466 0.0
Gd595 Gd 0.16216 0.32376 0.31439 0.0
C596 C 0.05651 0.22215 0.29311 0.0
C597 C 0.08011 0.18406 0.27808 0.0
C598 C 0.12235 0.24429 0.29244 0.0
C599 C 0.09291 0.24947 0.29788 0.0
C600 C 0.11637 0.21185 0.28188 0.0
C601 C 0.05023 0.18917 0.28375 0.0
C602 C 0.02761 0.22914 0.29712 0.0
C603 C 0.03553 0.26311 0.30466 0.0
N604 N 0.1 0.28183 0.3065 0.0
C605 C 0.07214 0.28945 0.30888 0.0
H606 H 0.07786 0.31556 0.31474 0.0
C607 C 0.18708 0.26936 0.2884 0.0
N608 N 0.15705 0.27169 0.29636 0.0
C609 C 0.18253 0.23766 0.2779 0.0
C610 C 0.14704 0.20863 0.27491 0.0
H611 H 0.21453 0.29173 0.29077 0.0
H612 H 0.02243 0.16776 0.28019 0.0
H613 H 0.26273 0.35229 0.37862 0.0
H614 H 0.99924 0.20883 0.29378 0.0
H615 H 1.01345 0.26901 0.30729 0.0
H616 H 0.0749 0.15879 0.27025 0.0
H617 H 0.14109 0.39367 0.4121 0.0
H618 H 0.35152 0.45409 0.40037 0.0
H619 H 0.3291 0.39294 0.38446 0.0
H620 H 0.29007 0.51614 0.42996 0.0
H621 H 0.20638 0.23562 0.27213 0.0
H622 H 0.1436 0.18414 0.26672 0.0
H623 H 0.33672 0.50007 0.41706 0.0
H624 H 0.15755 0.45156 0.43228 0.0
N625 N 0.24713 0.39002 0.39052 0.0
C626 C 0.32221 0.4363 0.39786 0.0
C627 C 0.30965 0.40179 0.38892 0.0
C628 C 0.29671 0.44715 0.40405 0.0
C629 C 0.25887 0.42301 0.40028 0.0
C630 C 0.27181 0.37874 0.38569 0.0
N631 N 0.19674 0.40777 0.40411 0.0
C632 C 0.2328 0.43223 0.4072 0.0
C633 C 0.17901 0.44656 0.42517 0.0
C634 C 0.21606 0.47277 0.42721 0.0
C635 C 0.16979 0.41385 0.41381 0.0
C636 C 0.24354 0.46559 0.41854 0.0
H637 H 0.22316 0.49807 0.43606 0.0
O638 O 0.1521 0.33748 0.42223 0.0
O639 O 0.14234 0.31426 0.35665 0.0
O640 O 0.14122 0.3614 0.32475 0.0
O641 O 0.17244 0.3934 0.36265 0.0
O642 O 0.12149 0.33213 0.38627 0.0
O643 O 0.19568 0.32546 0.41503 0.0
O644 O 0.1961 0.34706 0.2789 0.0
O645 O 0.20117 0.36403 0.34236 0.0
O646 O 0.1982 0.31064 0.3751 0.0
O647 O 0.16541 0.28101 0.33714 0.0
O648 O 0.22467 0.34952 0.31272 0.0
O649 O 0.14216 0.34229 0.28147 0.0
C650 C 0.11274 0.31054 0.36653 0.0
C651 C 0.28122 0.49023 0.42153 0.0
C652 C 0.30777 0.48105 0.41424 0.0
C653 C 0.17178 0.32469 0.43225 0.0
C654 C 0.18523 0.33552 0.45968 0.0
C655 C 0.21569 0.36917 0.46435 0.0
C656 C 0.16803 0.31198 0.48135 0.0
C657 C 0.1813 0.32202 0.50759 0.0
C658 C 0.22874 0.37942 0.49017 0.0
C659 C 0.21175 0.35615 0.51163 0.0
C660 C 0.15312 0.38927 0.34065 0.0
C661 C 0.23178 0.37122 0.3322 0.0
C662 C 0.17127 0.35137 0.26655 0.0
C663 C 0.16498 0.34007 0.23843 0.0
C664 C 0.14689 0.30391 0.23208 0.0
C665 C 0.17859 0.36563 0.21768 0.0
C666 C 0.17472 0.35503 0.19075 0.0
C667 C 0.14295 0.29326 0.20552 0.0
C668 C 0.15688 0.31855 0.18498 0.0
C669 C 0.18377 0.28277 0.35897 0.0
H670 H 0.22952 0.38746 0.44805 0.0
H671 H 0.14478 0.28578 0.47769 0.0
H672 H 0.25216 0.40556 0.49357 0.0
H673 H 0.22222 0.36514 0.53149 0.0
H674 H 0.13596 0.2839 0.24759 0.0
H675 H 0.19262 0.39363 0.2225 0.0
H676 H 0.12899 0.26526 0.20082 0.0
H677 H 0.153 0.30954 0.16452 0.0
Gd678 Gd 0.66217 0.81926 0.38748 0.0
Gd679 Gd 0.70287 0.83601 0.31918 0.0
C680 C 0.81216 0.83792 0.30759 0.0
C681 C 0.85437 0.90018 0.29726 0.0
C682 C 0.78923 0.87919 0.30503 0.0
C683 C 0.78295 0.84522 0.30974 0.0
C684 C 0.82475 0.9068 0.29784 0.0
C685 C 0.84808 0.86579 0.30217 0.0
C686 C 0.80416 0.80268 0.31004 0.0
C687 C 0.76759 0.77564 0.31341 0.0
N688 N 0.74786 0.81888 0.3147 0.0
C689 C 0.73955 0.78422 0.31532 0.0
H690 H 0.71144 0.7631 0.31816 0.0
C691 C 0.76342 0.91572 0.29594 0.0
N692 N 0.75992 0.88455 0.30543 0.0
C693 C 0.79818 0.94404 0.2889 0.0
C694 C 0.82911 0.93979 0.29035 0.0
H695 H 0.7395 0.91904 0.295 0.0
H696 H 0.87096 0.86079 0.30083 0.0
H697 H 0.67052 0.90079 0.38487 0.0
H698 H 0.82582 0.79597 0.30861 0.0
H699 H 0.76099 0.74822 0.31473 0.0
H700 H 0.88198 0.92117 0.29215 0.0
H701 H 0.61159 0.73684 0.41113 0.0
H702 H 0.56495 0.88997 0.40047 0.0
H703 H 0.63153 0.92772 0.3905 0.0
H704 H 0.48821 0.76597 0.4197 0.0
H705 H 0.80109 0.96911 0.28237 0.0
H706 H 0.85597 0.96171 0.28473 0.0
H707 H 0.5114 0.82937 0.41056 0.0
H708 H 0.54738 0.69586 0.42595 0.0
N709 N 0.62675 0.84771 0.39148 0.0
C710 C 0.58202 0.87787 0.39812 0.0
C711 C 0.6196 0.89926 0.39259 0.0
C712 C 0.5671 0.84122 0.4012 0.0
C713 C 0.59052 0.82679 0.39793 0.0
C714 C 0.6417 0.88373 0.38945 0.0
N715 N 0.60156 0.77902 0.40173 0.0
C716 C 0.57743 0.79119 0.40298 0.0
C717 C 0.55536 0.72252 0.41936 0.0
C718 C 0.52955 0.73397 0.4192 0.0
C719 C 0.59163 0.74577 0.41102 0.0
C720 C 0.54065 0.76894 0.41157 0.0
H721 H 0.50154 0.71604 0.42591 0.0
O722 O 0.66897 0.79862 0.4254 0.0
O723 O 0.70772 0.82328 0.36179 0.0
O724 O 0.66185 0.77716 0.32568 0.0
O725 O 0.62464 0.771 0.36283 0.0
O726 O 0.6847 0.78179 0.3891 0.0
O727 O 0.68654 0.85453 0.42095 0.0
O728 O 0.68536 0.84874 0.28212 0.0
O729 O 0.65714 0.82995 0.34505 0.0
O730 O 0.71004 0.87645 0.38362 0.0
O731 O 0.74066 0.88377 0.34275 0.0
O732 O 0.67287 0.86763 0.31556 0.0
O733 O 0.69007 0.80138 0.28493 0.0
C734 C 0.71039 0.79762 0.37133 0.0
C735 C 0.51669 0.78273 0.41346 0.0
C736 C 0.52991 0.81884 0.40831 0.0
C737 C 0.68186 0.82911 0.43727 0.0
C738 C 0.666 0.8289 0.46357 0.0
C739 C 0.63147 0.82661 0.46602 0.0
C740 C 0.68649 0.8325 0.48654 0.0
C741 C 0.67283 0.8341 0.51195 0.0
C742 C 0.61758 0.82788 0.49115 0.0
C743 C 0.63815 0.83174 0.51403 0.0
C744 C 0.6317 0.75873 0.34063 0.0
C745 C 0.64942 0.85187 0.33471 0.0
C746 C 0.6838 0.82195 0.26942 0.0
C747 C 0.7011 0.82987 0.24277 0.0
C748 C 0.73937 0.85149 0.23938 0.0
C749 C 0.6787 0.81661 0.22027 0.0
C750 C 0.69421 0.82543 0.19445 0.0
C751 C 0.75491 0.86048 0.21378 0.0
C752 C 0.73245 0.84776 0.19136 0.0
C753 C 0.73711 0.8952 0.36625 0.0
H754 H 0.61548 0.82428 0.44859 0.0
H755 H 0.71351 0.83496 0.48455 0.0
H756 H 0.59091 0.82612 0.49289 0.0
H757 H 0.62686 0.83265 0.53333 0.0
H758 H 0.75721 0.86157 0.25636 0.0
H759 H 0.6491 0.79985 0.22282 0.0
H760 H 0.78444 0.87734 0.21132 0.0
H761 H 0.74497 0.85477 0.17165 0.0
Gd762 Gd 0.18576 0.86151 0.31591 0.0
Gd763 Gd 0.20504 0.84269 0.38449 0.0
C764 C 0.31148 0.8405 0.39912 0.0
C765 C 0.28842 0.77821 0.40972 0.0
C766 C 0.24568 0.79936 0.40031 0.0
C767 C 0.2749 0.8333 0.39605 0.0
C768 C 0.25203 0.77165 0.40804 0.0
C769 C 0.31811 0.81258 0.4052 0.0
C770 C 0.34021 0.8757 0.39685 0.0
C771 C 0.33195 0.90278 0.39276 0.0
N772 N 0.26746 0.85969 0.39051 0.0
C773 C 0.29518 0.89431 0.39005 0.0
H774 H 0.2892 0.91548 0.38672 0.0
C775 C 0.1814 0.76269 0.40724 0.0
N776 N 0.21091 0.79406 0.39875 0.0
C777 C 0.18627 0.7343 0.41492 0.0
C778 C 0.22168 0.73859 0.41484 0.0
H779 H 0.15399 0.75931 0.40711 0.0
H780 H 0.34604 0.8175 0.4073 0.0
H781 H 0.10711 0.78225 0.31493 0.0
H782 H 0.3687 0.88233 0.39896 0.0
H783 H 0.35389 0.93018 0.39158 0.0
H784 H 0.2939 0.75715 0.41528 0.0
H785 H 0.22676 0.94488 0.29337 0.0
H786 H 0.01738 0.80015 0.29921 0.0
H787 H 0.04082 0.75897 0.30831 0.0
H788 H 0.07711 0.92542 0.28227 0.0
H789 H 0.16273 0.70914 0.42082 0.0
H790 H 0.22539 0.71661 0.42089 0.0
H791 H 0.03111 0.86255 0.29027 0.0
H792 H 0.20956 0.98897 0.27819 0.0
N793 N 0.12166 0.83645 0.30983 0.0
C794 C 0.04667 0.8106 0.30198 0.0
C795 C 0.05981 0.78727 0.30702 0.0
C796 C 0.07162 0.84703 0.29976 0.0
C797 C 0.10946 0.85924 0.30358 0.0
C798 C 0.0976 0.80068 0.31074 0.0
N799 N 0.17139 0.90456 0.3011 0.0
C800 C 0.13521 0.89452 0.29918 0.0
C801 C 0.18836 0.96256 0.28419 0.0
C802 C 0.15123 0.95329 0.28368 0.0
C803 C 0.19799 0.93756 0.29269 0.0
C804 C 0.12405 0.91869 0.2907 0.0
H805 H 0.1438 0.97265 0.27701 0.0
O806 O 0.21738 0.8812 0.27891 0.0
O807 O 0.22563 0.8568 0.34237 0.0
O808 O 0.22557 0.90163 0.37817 0.0
O809 O 0.19443 0.90767 0.34162 0.0
O810 O 0.24717 0.89911 0.3159 0.0
O811 O 0.17376 0.82633 0.28227 0.0
O812 O 0.17224 0.82953 0.42091 0.0
O813 O 0.16657 0.84859 0.35782 0.0
O814 O 0.17166 0.80369 0.32009 0.0
O815 O 0.19644 0.7964 0.35989 0.0
O816 O 0.14219 0.80961 0.38626 0.0
O817 O 0.22567 0.87733 0.41893 0.0
C818 C 0.25548 0.88266 0.33361 0.0
C819 C 0.08629 0.90715 0.2884 0.0
C820 C 0.0601 0.87135 0.29291 0.0
C821 C 0.1981 0.85114 0.2666 0.0
C822 C 0.18559 0.85291 0.23955 0.0
C823 C 0.15599 0.85894 0.23572 0.0
C824 C 0.20268 0.84734 0.21731 0.0
C825 C 0.19008 0.84746 0.19129 0.0
C826 C 0.14356 0.85939 0.21002 0.0
C827 C 0.16036 0.85361 0.18793 0.0
C828 C 0.21369 0.91972 0.36389 0.0
C829 C 0.13565 0.82567 0.36718 0.0
C830 C 0.19734 0.8566 0.43396 0.0
C831 C 0.20518 0.84905 0.46108 0.0
C832 C 0.22102 0.82759 0.46516 0.0
C833 C 0.19564 0.86259 0.48326 0.0
C834 C 0.20122 0.85419 0.5094 0.0
C835 C 0.22656 0.81912 0.49099 0.0
C836 C 0.21655 0.83213 0.51302 0.0
C837 C 0.1806 0.78518 0.33653 0.0
H838 H 0.14231 0.863 0.25255 0.0
H839 H 0.22523 0.84218 0.22034 0.0
H840 H 0.12071 0.86412 0.20721 0.0
H841 H 0.15032 0.85431 0.16818 0.0
H842 H 0.22896 0.81724 0.44848 0.0
H843 H 0.18337 0.87918 0.48018 0.0
H844 H 0.23869 0.80244 0.49395 0.0
H845 H 0.22141 0.82549 0.53289 0.0
Gd846 Gd 0.85372 0.69486 0.72074 0.0
Gd847 Gd 0.83604 0.66213 0.65087 0.0
C848 C 0.73077 0.55768 0.63417 0.0
C849 C 0.75484 0.51864 0.62298 0.0
C850 C 0.79672 0.58058 0.63347 0.0
C851 C 0.76712 0.5858 0.6378 0.0
C852 C 0.79101 0.54729 0.62514 0.0
C853 C 0.72476 0.52382 0.62754 0.0
C854 C 0.7017 0.56477 0.63632 0.0
C855 C 0.70941 0.5995 0.64079 0.0
N856 N 0.77399 0.61898 0.64374 0.0
C857 C 0.74597 0.62654 0.64407 0.0
H858 H 0.75149 0.6532 0.64771 0.0
C859 C 0.86116 0.60678 0.62684 0.0
N860 N 0.83125 0.60891 0.63548 0.0
C861 C 0.85694 0.57426 0.61857 0.0
C862 C 0.82177 0.5442 0.61821 0.0
H863 H 0.88839 0.62998 0.62732 0.0
H864 H 0.69701 0.50178 0.625 0.0
H865 H 0.93585 0.69767 0.71716 0.0
H866 H 0.67337 0.54389 0.63376 0.0
H867 H 0.6872 0.60544 0.64185 0.0
H868 H 0.74985 0.49271 0.61695 0.0
H869 H 0.80764 0.73273 0.7449 0.0
H870 H 0.02027 0.80085 0.74044 0.0
H871 H 1.00126 0.74032 0.72468 0.0
H872 H 0.95288 0.8586 0.76646 0.0
H873 H 0.88079 0.57237 0.61255 0.0
H874 H 0.81856 0.51908 0.6117 0.0
H875 H 1.00199 0.84495 0.75579 0.0
H876 H 0.82056 0.79004 0.7643 0.0
N877 N 0.91727 0.73357 0.72805 0.0
C878 C 0.99133 0.78216 0.73722 0.0
C879 C 0.98069 0.74801 0.72837 0.0
C880 C 0.9644 0.79153 0.74234 0.0
C881 C 0.92713 0.76624 0.73766 0.0
C882 C 0.94335 0.72379 0.7242 0.0
N883 N 0.86424 0.74869 0.73925 0.0
C884 C 0.8997 0.7741 0.74334 0.0
C885 C 0.8431 0.786 0.75836 0.0
C886 C 0.87958 0.81311 0.76149 0.0
C887 C 0.83589 0.75361 0.74744 0.0
C888 C 0.90845 0.80719 0.75429 0.0
H889 H 0.88513 0.83816 0.76999 0.0
O890 O 0.82088 0.67847 0.75744 0.0
O891 O 0.81505 0.65356 0.69287 0.0
O892 O 0.81404 0.69968 0.65884 0.0
O893 O 0.84281 0.73301 0.6969 0.0
O894 O 0.79221 0.67231 0.72046 0.0
O895 O 0.86589 0.66798 0.75232 0.0
O896 O 0.87006 0.6832 0.61509 0.0
O897 O 0.87319 0.70414 0.67861 0.0
O898 O 0.87219 0.65425 0.71387 0.0
O899 O 0.84491 0.62333 0.67467 0.0
O900 O 0.89859 0.69005 0.65001 0.0
O901 O 0.8163 0.67871 0.61657 0.0
C902 C 0.78484 0.64966 0.70165 0.0
C903 C 0.94556 0.83288 0.75828 0.0
C904 C 0.9735 0.82509 0.75226 0.0
C905 C 0.84046 0.66622 0.76848 0.0
C906 C 0.85168 0.6765 0.79636 0.0
C907 C 0.88061 0.71059 0.80217 0.0
C908 C 0.83402 0.65179 0.81732 0.0
C909 C 0.84542 0.66104 0.84401 0.0
C910 C 0.89184 0.72003 0.82846 0.0
C911 C 0.87448 0.69555 0.84922 0.0
C912 C 0.82407 0.72761 0.67445 0.0
C913 C 0.90434 0.71199 0.6691 0.0
C914 C 0.84527 0.6866 0.60186 0.0
C915 C 0.83852 0.67284 0.57434 0.0
C916 C 0.82298 0.63633 0.56997 0.0
C917 C 0.84818 0.69619 0.55223 0.0
C918 C 0.84228 0.68296 0.52589 0.0
C919 C 0.8178 0.62317 0.54411 0.0
C920 C 0.82747 0.6462 0.52226 0.0
C921 C 0.86246 0.62737 0.69731 0.0
H922 H 0.89468 0.72982 0.7864 0.0
H923 H 0.81192 0.62529 0.81278 0.0
H924 H 0.91413 0.74647 0.83278 0.0
H925 H 0.88353 0.70384 0.86946 0.0
H926 H 0.81496 0.61792 0.58649 0.0
H927 H 0.85958 0.72437 0.55556 0.0
H928 H 0.80615 0.59495 0.54099 0.0
H929 H 0.82333 0.63512 0.50242 0.0
Gd930 Gd 0.33764 0.15772 0.72111 0.0
Gd931 Gd 0.37721 0.17328 0.65259 0.0
C932 C 0.48563 0.17352 0.64071 0.0
C933 C 0.52825 0.23541 0.62956 0.0
C934 C 0.46338 0.21528 0.63775 0.0
C935 C 0.45677 0.18131 0.64292 0.0
C936 C 0.49891 0.24243 0.63007 0.0
C937 C 0.52162 0.20099 0.6349 0.0
C938 C 0.47717 0.13816 0.64334 0.0
C939 C 0.44048 0.11148 0.64684 0.0
N940 N 0.42159 0.15534 0.6481 0.0
C941 C 0.4128 0.12054 0.6488 0.0
H942 H 0.38461 0.09968 0.65176 0.0
C943 C 0.43795 0.25189 0.62789 0.0
N944 N 0.43428 0.22094 0.63796 0.0
C945 C 0.47272 0.2798 0.62035 0.0
C946 C 0.50348 0.27529 0.62196 0.0
H947 H 0.41417 0.25543 0.62684 0.0
H948 H 0.54424 0.19563 0.63351 0.0
H949 H 0.34239 0.23756 0.71852 0.0
H950 H 0.49854 0.13107 0.64184 0.0
H951 H 0.4335 0.08395 0.64822 0.0
H952 H 0.55587 0.25605 0.62408 0.0
H953 H 0.29085 0.07575 0.74619 0.0
H954 H 0.23506 0.22246 0.73448 0.0
H955 H 0.30123 0.26221 0.72416 0.0
H956 H 0.16315 0.09841 0.7553 0.0
H957 H 0.47577 0.30474 0.61334 0.0
H958 H 0.53034 0.29686 0.61594 0.0
H959 H 0.18346 0.16107 0.74537 0.0
H960 H 0.22768 0.03328 0.76226 0.0
N961 N 0.30015 0.18391 0.72528 0.0
C962 C 0.25306 0.2114 0.73208 0.0
C963 C 0.29041 0.23392 0.72636 0.0
C964 C 0.23963 0.17499 0.73541 0.0
C965 C 0.26422 0.16192 0.73203 0.0
C966 C 0.31374 0.21972 0.72319 0.0
N967 N 0.2781 0.11603 0.73635 0.0
C968 C 0.25277 0.12674 0.73758 0.0
C969 C 0.23427 0.0594 0.75521 0.0
C970 C 0.2072 0.06925 0.75502 0.0
C971 C 0.26996 0.08348 0.74618 0.0
C972 C 0.21649 0.10357 0.74674 0.0
H973 H 0.17964 0.05066 0.76222 0.0
O974 O 0.34746 0.13923 0.759 0.0
O975 O 0.38313 0.16166 0.69528 0.0
O976 O 0.33601 0.11463 0.6599 0.0
O977 O 0.29904 0.10957 0.69688 0.0
O978 O 0.36047 0.1205 0.72288 0.0
O979 O 0.36068 0.19396 0.75423 0.0
O980 O 0.35982 0.18569 0.61528 0.0
O981 O 0.33197 0.16799 0.67866 0.0
O982 O 0.38413 0.21528 0.71613 0.0
O983 O 0.41522 0.22173 0.67559 0.0
O984 O 0.34759 0.20524 0.64888 0.0
O985 O 0.36253 0.13737 0.61902 0.0
C986 C 0.38592 0.13612 0.70492 0.0
C987 C 0.19128 0.11591 0.74862 0.0
C988 C 0.20286 0.1516 0.74302 0.0
C989 C 0.35826 0.16953 0.77071 0.0
C990 C 0.34186 0.16819 0.79706 0.0
C991 C 0.30705 0.16532 0.79939 0.0
C992 C 0.36184 0.17099 0.82019 0.0
C993 C 0.34732 0.1712 0.8456 0.0
C994 C 0.29229 0.1651 0.82449 0.0
C995 C 0.31228 0.16812 0.8475 0.0
C996 C 0.30575 0.09677 0.67485 0.0
C997 C 0.32434 0.18994 0.66821 0.0
C998 C 0.35696 0.15802 0.60311 0.0
C999 C 0.37391 0.16455 0.57637 0.0
C1000 C 0.41232 0.18264 0.57296 0.0
C1001 C 0.35121 0.15326 0.55388 0.0
C1002 C 0.36658 0.16055 0.5279 0.0
C1003 C 0.42787 0.19007 0.54738 0.0
C1004 C 0.40526 0.17934 0.52497 0.0
C1005 C 0.41133 0.23373 0.69878 0.0
H1006 H 0.29147 0.16367 0.78189 0.0
H1007 H 0.38906 0.1739 0.81834 0.0
H1008 H 0.26538 0.16282 0.82611 0.0
H1009 H 0.30027 0.16785 0.86678 0.0
H1010 H 0.43028 0.19112 0.58996 0.0
H1011 H 0.32155 0.13846 0.55677 0.0
H1012 H 0.45757 0.20436 0.5449 0.0
H1013 H 0.41815 0.18608 0.50539 0.0
Gd1014 Gd 0.85513 0.19044 0.64652 0.0
Gd1015 Gd 0.88118 0.18424 0.71601 0.0
C1016 C 0.98863 0.18561 0.73425 0.0
C1017 C 0.96642 0.1255 0.75072 0.0
C1018 C 0.92294 0.14425 0.73733 0.0
C1019 C 0.95186 0.17755 0.73057 0.0
C1020 C 0.92986 0.11813 0.7481 0.0
C1021 C 0.99576 0.15916 0.74374 0.0
C1022 C 0.01708 0.2203 0.72907 0.0
C1023 C 1.00843 0.24625 0.72152 0.0
N1024 N 0.94397 0.20266 0.72191 0.0
C1025 C 0.9715 0.23704 0.71843 0.0
H1026 H 0.96525 0.25735 0.71252 0.0
C1027 C 0.8586 0.10709 0.74386 0.0
N1028 N 0.88793 0.138 0.73454 0.0
C1029 C 0.86407 0.0803 0.75459 0.0
C1030 C 0.89982 0.08567 0.75644 0.0
H1031 H 0.83094 0.10285 0.74238 0.0
H1032 H 0.02384 0.16475 0.74644 0.0
H1033 H 0.7779 0.11086 0.65562 0.0
H1034 H 0.0457 0.22754 0.73152 0.0
H1035 H 0.03019 0.27333 0.718 0.0
H1036 H 0.97232 0.10564 0.75868 0.0
H1037 H 0.8921 0.27155 0.6197 0.0
H1038 H 0.68488 0.12152 0.63527 0.0
H1039 H 0.71091 0.08473 0.65123 0.0
H1040 H 0.73931 0.24217 0.60472 0.0
H1041 H 0.84073 0.05555 0.76142 0.0
H1042 H 0.90397 0.0649 0.76481 0.0
H1043 H 0.69572 0.18043 0.61815 0.0
H1044 H 0.87155 0.3115 0.60079 0.0
N1045 N 0.7904 0.16251 0.64258 0.0
C1046 C 0.71449 0.13322 0.63705 0.0
C1047 C 0.72908 0.11237 0.64604 0.0
C1048 C 0.73832 0.16879 0.6301 0.0
C1049 C 0.77663 0.18277 0.63296 0.0
C1050 C 0.76729 0.12739 0.64843 0.0
N1051 N 0.83766 0.22977 0.62822 0.0
C1052 C 0.80105 0.21757 0.6257 0.0
C1053 C 0.85142 0.28523 0.60787 0.0
C1054 C 0.81377 0.27368 0.60636 0.0
C1055 C 0.86294 0.26259 0.61853 0.0
C1056 C 0.78802 0.2393 0.61498 0.0
H1057 H 0.80488 0.2912 0.59802 0.0
O1058 O 0.88449 0.20569 0.60844 0.0
O1059 O 0.89812 0.19183 0.67309 0.0
O1060 O 0.90143 0.24163 0.70388 0.0
O1061 O 0.86439 0.23959 0.66835 0.0
O1062 O 0.91637 0.22879 0.64253 0.0
O1063 O 0.84126 0.1513 0.61542 0.0
O1064 O 0.85028 0.17605 0.75287 0.0
O1065 O 0.83945 0.18487 0.68933 0.0
O1066 O 0.84284 0.13394 0.65645 0.0
O1067 O 0.8769 0.13754 0.69427 0.0
O1068 O 0.81868 0.14996 0.72066 0.0
O1069 O 0.90347 0.22363 0.74749 0.0
C1070 C 0.92683 0.21637 0.66194 0.0
C1071 C 0.74987 0.2258 0.6127 0.0
C1072 C 0.72506 0.19063 0.62028 0.0
C1073 C 0.86443 0.17434 0.59812 0.0
C1074 C 0.85018 0.17345 0.57114 0.0
C1075 C 0.81746 0.17439 0.5676 0.0
C1076 C 0.86936 0.17146 0.54866 0.0
C1077 C 0.85585 0.17026 0.52272 0.0
C1078 C 0.8042 0.17374 0.54202 0.0
C1079 C 0.82318 0.17171 0.51972 0.0
C1080 C 0.88674 0.25617 0.68848 0.0
C1081 C 0.80966 0.16306 0.70087 0.0
C1082 C 0.87617 0.20465 0.76395 0.0
C1083 C 0.8857 0.19999 0.79138 0.0
C1084 C 0.9098 0.18692 0.79603 0.0
C1085 C 0.86914 0.20703 0.81321 0.0
C1086 C 0.87608 0.20041 0.83951 0.0
C1087 C 0.91655 0.18004 0.822 0.0
C1088 C 0.89965 0.18652 0.84365 0.0
C1089 C 0.85798 0.1208 0.6729 0.0
H1090 H 0.80205 0.17542 0.58454 0.0
H1091 H 0.89432 0.17013 0.55144 0.0
H1092 H 0.77902 0.17468 0.53948 0.0
H1093 H 0.81236 0.17146 0.50009 0.0
H1094 H 0.92335 0.18196 0.77966 0.0
H1095 H 0.85058 0.21727 0.80974 0.0
H1096 H 0.93508 0.1698 0.82536 0.0
H1097 H 0.90573 0.18153 0.86366 0.0
C1098 C 0.37114 0.8788 0.04309 0.0
C1099 C 0.34007 0.88116 0.05114 0.0
H1100 H 0.42829 0.90702 0.03154 0.0
C1101 C 0.34236 0.91459 0.05002 0.0
H1102 H 0.37061 0.85364 0.04381 0.0
C1103 C 0.37554 0.94513 0.04329 0.0
C1104 C 0.40704 0.94299 0.03684 0.0
H1105 H 0.31883 0.91742 0.05534 0.0
H1106 H 0.37699 0.97071 0.04409 0.0
C1107 C 0.4043 0.90943 0.03601 0.0
C1108 C 0.14419 0.49302 0.04506 0.0
C1109 C 0.14248 0.46127 0.05357 0.0
H1110 H 0.11378 0.51894 0.03393 0.0
C1111 C 0.10781 0.43015 0.055 0.0
H1112 H 0.17042 0.51753 0.04401 0.0
C1113 C 0.0756 0.43091 0.04896 0.0
C1114 C 0.07715 0.46274 0.04118 0.0
H1115 H 0.10552 0.40523 0.06129 0.0
H1116 H 0.04926 0.40663 0.05088 0.0
C1117 C 0.1118 0.49384 0.03923 0.0
C1118 C 0.57212 0.66257 0.0747 0.0
C1119 C 0.56319 0.68496 0.06006 0.0
H1120 H 0.57459 0.61474 0.07584 0.0
C1121 C 0.54927 0.67475 0.03412 0.0
H1122 H 0.58184 0.66869 0.09501 0.0
C1123 C 0.54398 0.64288 0.02335 0.0
C1124 C 0.55324 0.62076 0.03795 0.0
H1125 H 0.5424 0.69133 0.02204 0.0
H1126 H 0.53236 0.63557 1.00368 0.0
C1127 C 0.5676 0.63121 0.06372 0.0
C1128 C 0.87758 0.33073 1.00623 0.0
C1129 C 0.87658 0.32272 0.97893 0.0
H1130 H 0.90523 0.3685 0.03715 0.0
C1131 C 0.90396 0.34833 0.96191 0.0
H1132 H 0.85725 0.31167 0.02004 0.0
C1133 C 0.93177 0.38054 0.97186 0.0
C1134 C 0.93282 0.38859 0.99908 0.0
H1135 H 0.9037 0.3439 0.94065 0.0
H1136 H 0.95199 0.3995 0.95794 0.0
C1137 C 0.90526 0.36336 0.01612 0.0
C1138 C 0.68909 0.58393 0.98102 0.0
C1139 C 0.69123 0.55266 0.981 0.0
H1140 H 0.65509 0.60742 0.9869 0.0
C1141 C 0.65985 0.52059 0.98898 0.0
H1142 H 0.71279 0.60911 0.97527 0.0
C1143 C 0.62668 0.51962 0.99558 0.0
C1144 C 0.62444 0.55085 0.99487 0.0
H1145 H 0.66046 0.49595 0.98898 0.0
H1146 H 0.60251 0.4943 1.00029 0.0
C1147 C 0.65612 0.58301 0.98783 0.0
C1148 C 0.48212 0.1408 1.00752 0.0
C1149 C 0.46984 0.14046 0.98132 0.0
H1150 H 0.49679 0.11425 0.03705 0.0
C1151 C 0.46183 0.11114 0.96515 0.0
H1152 H 0.4883 0.1627 0.02071 0.0
C1153 C 0.46555 0.08299 0.97482 0.0
C1154 C 0.47827 0.08344 1.00081 0.0
H1155 H 0.45347 0.11012 0.94462 0.0
H1156 H 0.45935 0.06128 0.96142 0.0
C1157 C 0.4866 0.11276 0.01706 0.0
C1158 C 0.65511 0.11356 0.9803 0.0
C1159 C 0.65214 0.14263 0.98963 0.0
H1160 H 0.62937 0.0567 0.97725 0.0
C1161 C 0.62063 0.13528 1.00483 0.0
H1162 H 0.67861 0.11778 0.96834 0.0
C1163 C 0.59194 0.10056 0.0087 0.0
C1164 C 0.59452 0.07156 0.99928 0.0
H1165 H 0.61743 0.1564 0.01341 0.0
H1166 H 0.56751 0.09677 0.01889 0.0
C1167 C 0.62671 0.07844 0.98523 0.0
C1168 C 0.90205 0.53692 0.99636 0.0
C1169 C 0.87094 0.50263 0.99887 0.0
H1170 H 0.96141 0.56843 0.99495 0.0
C1171 C 0.87701 0.47351 1.00048 0.0
H1172 H 0.89886 0.5601 0.99502 0.0
C1173 C 0.91263 0.47851 1.00142 0.0
C1174 C 0.94353 0.5127 1.00029 0.0
H1175 H 0.85418 0.4465 1.00108 0.0
H1176 H 0.91583 0.45538 1.00281 0.0
C1177 C 0.93796 0.54179 0.99659 0.0
C1178 C 0.50167 0.35984 1.00143 0.0
C1179 C 0.52419 0.36176 0.97986 0.0
H1180 H 0.48046 0.38725 0.02456 0.0
C1181 C 0.53923 0.39174 0.96294 0.0
H1182 H 0.48991 0.33705 0.0148 0.0
C1183 C 0.53324 0.42006 0.96822 0.0
C1184 C 0.51276 0.41907 0.99081 0.0
H1185 H 0.55664 0.39373 0.94615 0.0
H1186 H 0.5467 0.44368 0.95573 0.0
C1187 C 0.49633 0.38847 1.00703 0.0
C1188 C 0.15177 0.63066 0.06701 0.0
C1189 C 0.16693 0.65815 0.04785 0.0
H1190 H 0.10751 0.57837 0.07696 0.0
C1191 C 0.14684 0.6553 0.02478 0.0
H1192 H 0.16709 0.63221 0.08479 0.0
C1193 C 0.11315 0.62444 0.02016 0.0
C1194 C 0.09886 0.59614 0.03864 0.0
H1195 H 0.15823 0.67603 0.00964 0.0
H1196 H 0.0989 0.62216 1.00168 0.0
C1197 C 0.11774 0.60001 0.06257 0.0
C1198 C 0.36853 0.47217 0.03396 0.0
C1199 C 0.37288 0.50643 0.03188 0.0
H1200 H 0.39543 0.44083 0.03517 0.0
C1201 C 0.4091 0.53567 0.03074 0.0
H1202 H 0.34127 0.44895 0.03495 0.0
C1203 C 0.4397 0.53089 0.03008 0.0
C1204 C 0.43537 0.49675 0.03084 0.0
H1205 H 0.41405 0.56262 0.03031 0.0
H1206 H 0.46682 0.55415 0.02924 0.0
C1207 C 0.39952 0.46745 0.03383 0.0
C1208 C 0.52968 0.87975 0.06729 0.0
C1209 C 0.50484 0.84795 0.05455 0.0
H1210 H 0.55186 0.9363 0.06932 0.0
C1211 C 0.48535 0.84943 0.03241 0.0
H1212 H 0.54499 0.87923 0.08448 0.0
C1213 C 0.48926 0.8816 0.02379 0.0
C1214 C 0.51285 0.91346 0.03697 0.0
H1215 H 0.46629 0.82541 0.02204 0.0
H1216 H 0.47243 0.88098 1.00733 0.0
C1217 C 0.53349 0.9123 0.05867 0.0
C1218 C 0.04224 0.21275 0.37357 0.0
C1219 C 1.01088 0.21429 0.38212 0.0
H1220 H 0.09917 0.24203 0.36147 0.0
C1221 C 1.01236 0.24737 0.38133 0.0
H1222 H 0.04234 0.18788 0.374 0.0
C1223 C 0.04505 0.27835 0.37443 0.0
C1224 C 0.07689 0.27704 0.3675 0.0
H1225 H 0.98858 0.2496 0.38701 0.0
H1226 H 0.04588 0.30364 0.37549 0.0
C1227 C 0.07492 0.24382 0.36633 0.0
C1228 C 0.81184 0.82629 0.38001 0.0
C1229 C 0.80957 0.79395 0.38752 0.0
H1230 H 0.78218 0.85309 0.3692 0.0
C1231 C 0.77485 0.76283 0.38724 0.0
H1232 H 0.83808 0.8508 0.38024 0.0
C1233 C 0.74308 0.76415 0.38075 0.0
C1234 C 0.74511 0.79652 0.37411 0.0
H1235 H 0.77212 0.73744 0.39262 0.0
H1236 H 0.71663 0.73983 0.3815 0.0
C1237 C 0.77986 0.82762 0.37363 0.0
C1238 C 0.24008 0.997 0.41081 0.0
C1239 C 0.23143 0.01938 0.39585 0.0
H1240 H 0.24203 0.94883 0.41245 0.0
C1241 C 0.21773 0.0089 0.36988 0.0
H1242 H 0.24973 1.00335 0.43112 0.0
C1243 C 0.21217 0.97679 0.35946 0.0
C1244 C 0.22105 0.95463 0.37435 0.0
H1245 H 0.2112 0.02546 0.35748 0.0
H1246 H 0.20062 0.96935 0.33979 0.0
C1247 C 0.23533 0.96533 0.40012 0.0
C1248 C 0.57578 0.68228 0.29368 0.0
C1249 C 0.54761 0.65712 0.31048 0.0
H1250 H 0.62415 0.73339 0.28994 0.0
C1251 C 0.54794 0.6655 0.33763 0.0
H1252 H 0.57619 0.67742 0.27255 0.0
C1253 C 0.57536 0.69817 0.34755 0.0
C1254 C 0.60343 0.72322 0.33073 0.0
H1255 H 0.52713 0.64674 0.35133 0.0
H1256 H 0.57458 0.70355 0.36844 0.0
C1257 C 0.60338 0.71466 0.30369 0.0
C1258 C 0.3259 0.8522 0.32513 0.0
C1259 C 0.35741 0.88399 0.31688 0.0
H1260 H 0.26866 0.82655 0.33665 0.0
C1261 C 0.35566 0.91548 0.31673 0.0
H1262 H 0.3262 0.82741 0.32525 0.0
C1263 C 0.32293 0.91501 0.3236 0.0
C1264 C 0.29109 0.88311 0.33086 0.0
H1265 H 0.37947 0.94046 0.31078 0.0
H1266 H 0.32221 0.93957 0.32251 0.0
C1267 C 0.29295 0.85169 0.33177 0.0
C1268 C 0.1487 0.47489 0.33876 0.0
C1269 C 0.13547 0.47402 0.31278 0.0
H1270 H 0.16503 0.44925 0.36792 0.0
C1271 C 0.12738 0.4446 0.29671 0.0
H1272 H 0.15494 0.49684 0.3519 0.0
C1273 C 0.13202 0.4169 0.30624 0.0
C1274 C 0.14574 0.41792 0.33197 0.0
H1275 H 0.1183 0.44316 0.27634 0.0
H1276 H 0.12571 0.3951 0.29292 0.0
C1277 C 0.1541 0.44732 0.34813 0.0
C1278 C 0.32499 0.45001 0.31203 0.0
C1279 C 0.32183 0.47906 0.32118 0.0
H1280 H 0.2994 0.39318 0.30894 0.0
C1281 C 0.28994 0.47164 0.33592 0.0
H1282 H 0.34872 0.45423 0.30037 0.0
C1283 C 0.26117 0.43689 0.33957 0.0
C1284 C 0.26405 0.40794 0.33038 0.0
H1285 H 0.28653 0.4927 0.34437 0.0
H1286 H 0.23647 0.43299 0.34943 0.0
C1287 C 0.29653 0.41489 0.31675 0.0
C1288 C 0.54506 0.80643 0.33389 0.0
C1289 C 0.53831 0.83515 0.33274 0.0
H1290 H 0.58466 0.78921 0.33565 0.0
C1291 C 0.56903 0.86972 0.33029 0.0
H1292 H 0.52255 0.77926 0.33445 0.0
C1293 C 0.6052 0.87524 0.33023 0.0
C1294 C 0.61145 0.84652 0.33354 0.0
H1295 H 0.56532 0.89262 0.3293 0.0
H1296 H 0.62831 0.90208 0.32875 0.0
C1297 C 0.58094 0.81205 0.33451 0.0
C1298 C 0.16761 0.69288 0.3364 0.0
C1299 C 0.18805 0.69456 0.31357 0.0
H1300 H 0.14864 0.72056 0.36144 0.0
C1301 C 0.20166 0.72442 0.29661 0.0
H1302 H 0.15701 0.67019 0.34982 0.0
C1303 C 0.19634 0.75286 0.30302 0.0
C1304 C 0.17804 0.75215 0.32677 0.0
H1305 H 0.21752 0.72624 0.27889 0.0
H1306 H 0.20868 0.77635 0.29035 0.0
C1307 C 0.16297 0.72166 0.3431 0.0
C1308 C 0.81447 0.98986 0.36117 0.0
C1309 C 0.83838 0.99022 0.38084 0.0
H1310 H 0.76276 0.95899 0.34134 0.0
C1311 C 0.82613 0.96086 0.3982 0.0
H1312 H 0.82348 0.01205 0.34741 0.0
C1313 C 0.79117 0.9309 0.39511 0.0
C1314 C 0.7683 0.92963 0.37428 0.0
H1315 H 0.84427 0.96052 0.4134 0.0
H1316 H 0.78318 0.90777 0.40769 0.0
C1317 C 0.77983 0.95961 0.35773 0.0
C1318 C 0.07725 0.8699 0.37 0.0
C1319 C 0.04085 0.84091 0.37079 0.0
H1320 H 0.13484 0.88783 0.36793 0.0
C1321 C 0.03609 0.80642 0.37189 0.0
H1322 H 0.08262 0.89698 0.37044 0.0
C1323 C 0.06683 0.80131 0.37113 0.0
C1324 C 0.10281 0.83045 0.36837 0.0
H1325 H 1.00871 0.78335 0.37258 0.0
H1326 H 0.06242 0.77454 0.37174 0.0
C1327 C 0.10758 0.86474 0.36857 0.0
C1328 C 0.19953 0.21598 0.3982 0.0
C1329 C 0.17622 0.18443 0.38457 0.0
H1330 H 0.22037 0.27224 0.40091 0.0
C1331 C 0.15852 0.18623 0.36146 0.0
H1332 H 0.21341 0.2152 0.41615 0.0
C1333 C 0.16249 0.21842 0.35277 0.0
C1334 C 0.18429 0.24996 0.3669 0.0
H1335 H 0.14063 0.16239 0.35044 0.0
H1336 H 0.14696 0.21802 0.33551 0.0
C1337 C 0.20339 0.24853 0.38951 0.0
C1338 C 0.71568 0.5518 0.71083 0.0
C1339 C 0.68353 0.55306 0.71743 0.0
H1340 H 0.77328 0.58157 0.70029 0.0
C1341 C 0.68433 0.58571 0.71489 0.0
H1342 H 0.71619 0.52721 0.71267 0.0
C1343 C 0.71699 0.61669 0.70806 0.0
C1344 C 0.74949 0.61576 0.70295 0.0
H1345 H 0.65995 0.5876 0.71915 0.0
H1346 H 0.71718 0.64172 0.70767 0.0
C1347 C 0.74841 0.58292 0.7037 0.0
C1348 C 0.48711 0.16358 0.71407 0.0
C1349 C 0.48429 0.13076 0.72087 0.0
H1350 H 0.45814 0.19126 0.70364 0.0
C1351 C 0.44943 0.09988 0.71943 0.0
H1352 H 0.5134 0.18794 0.71514 0.0
C1353 C 0.41801 0.10186 0.71304 0.0
C1354 C 0.42051 0.13464 0.70731 0.0
H1355 H 0.44619 0.07409 0.72406 0.0
H1356 H 0.39143 0.07767 0.71315 0.0
C1357 C 0.45547 0.16552 0.70749 0.0
C1358 C 0.93021 0.34769 0.71862 0.0
C1359 C 0.90104 0.35511 0.71756 0.0
H1360 H 0.94843 0.31044 0.71049 0.0
C1361 C 0.86851 0.33087 0.7043 0.0
H1362 H 0.95622 0.366 0.72773 0.0
C1363 C 0.86491 0.29985 0.69323 0.0
C1364 C 0.89315 0.29159 0.69596 0.0
H1365 H 0.84502 0.33488 0.7033 0.0
H1366 H 0.83916 0.28144 0.68383 0.0
C1367 C 0.92604 0.31602 0.70839 0.0
C1368 C 0.24914 0.01978 0.62849 0.0
C1369 C 0.2201 0.99561 0.64521 0.0
H1370 H 0.29874 0.0699 0.62466 0.0
C1371 C 0.22013 0.00482 0.67212 0.0
H1372 H 0.24986 0.01434 0.6075 0.0
C1373 C 0.248 0.03735 0.68184 0.0
C1374 C 0.27698 0.06137 0.66513 0.0
H1375 H 0.19868 0.98686 0.6858 0.0
H1376 H 0.24675 0.04349 0.70248 0.0
C1377 C 0.27727 0.05197 0.63835 0.0
C1378 C 1.00084 0.1899 0.65826 0.0
C1379 C 0.03116 0.22128 0.64805 0.0
H1380 H 0.94393 0.16348 0.67062 0.0
C1381 C 0.02753 0.25164 0.64531 0.0
H1382 H 1.00247 0.1659 0.66045 0.0
C1383 C 0.99405 0.25021 0.65122 0.0
C1384 C 0.96338 0.21855 0.66033 0.0
H1385 H 0.05037 0.27641 0.63795 0.0
H1386 H 0.99182 0.27374 0.64797 0.0
C1387 C 0.96724 0.18848 0.66416 0.0
C1388 C 0.79374 0.77879 0.62985 0.0
C1389 C 0.80311 0.80936 0.64488 0.0
H1390 H 0.79224 0.72914 0.62743 0.0
C1391 C 0.81801 0.81202 0.67047 0.0
H1392 H 0.78308 0.77594 0.60983 0.0
C1393 C 0.82428 0.7853 0.68037 0.0
C1394 C 0.81518 0.75496 0.66516 0.0
H1395 H 0.82515 0.83488 0.68283 0.0
H1396 H 0.8368 0.78881 0.69974 0.0
C1397 C 0.79937 0.75189 0.63992 0.0
C1398 C 0.96141 0.81255 0.67216 0.0
C1399 C 0.99366 0.82 0.65785 0.0
H1400 H 0.90777 0.77368 0.6854 0.0
C1401 C 0.99728 0.79096 0.64934 0.0
H1402 H 0.95758 0.83359 0.68013 0.0
C1403 C 0.96907 0.75588 0.6543 0.0
C1404 C 0.93626 0.74885 0.66743 0.0
H1405 H 0.02119 0.79508 0.63798 0.0
H1406 H 0.97238 0.7342 0.64697 0.0
C1407 C 0.93281 0.77772 0.67599 0.0
C1408 C 0.2444 0.20851 0.66332 0.0
C1409 C 0.2135 0.17411 0.66603 0.0
H1410 H 0.30373 0.24046 0.66169 0.0
C1411 C 0.21995 0.14521 0.66753 0.0
H1412 H 0.2409 0.23152 0.66203 0.0
C1413 C 0.25573 0.15054 0.66825 0.0
C1414 C 0.28644 0.18486 0.66705 0.0
H1415 H 0.19726 0.11813 0.66832 0.0
H1416 H 0.25919 0.12756 0.66964 0.0
C1417 C 0.28047 0.21373 0.66338 0.0
C1418 C 0.84086 0.03719 0.63633 0.0
C1419 C 0.86578 0.0295 0.64939 0.0
H1420 H 0.8187 0.07238 0.63339 0.0
C1421 C 0.88543 0.05012 0.67123 0.0
H1422 H 0.82539 0.02163 0.61937 0.0
C1423 C 0.88158 0.0787 0.67923 0.0
C1424 C 0.85792 0.08764 0.66569 0.0
H1425 H 0.9045 0.04457 0.68188 0.0
H1426 H 0.89849 0.09457 0.69548 0.0
C1427 C 0.83713 0.06623 0.64431 0.0
C1428 C 0.49679 0.30113 0.73394 0.0
C1429 C 0.51116 0.32955 0.71556 0.0
H1430 H 0.45271 0.24856 0.74338 0.0
C1431 C 0.48985 0.32807 0.69357 0.0
H1432 H 0.51297 0.30166 0.75092 0.0
C1433 C 0.45574 0.29761 0.68909 0.0
C1434 C 0.44219 0.26847 0.70676 0.0
H1435 H 0.50056 0.34955 0.67903 0.0
H1436 H 0.44062 0.29623 0.67125 0.0
C1437 C 0.46233 0.27094 0.72973 0.0
C1438 C 0.74726 0.20318 0.69501 0.0
C1439 C 0.71557 0.1795 0.70989 0.0
H1440 H 0.80147 0.21788 0.68221 0.0
C1441 C 0.71433 0.14865 0.72037 0.0
H1442 H 0.74948 0.22651 0.68539 0.0
C1443 C 0.74419 0.14253 0.71661 0.0
C1444 C 0.77623 0.16721 0.70258 0.0
H1445 H 0.6909 0.12971 0.73217 0.0
H1446 H 0.74259 0.1189 0.72526 0.0
C1447 C 0.77732 0.19778 0.6924 0.0
C1448 C 0.84284 0.54549 0.73573 0.0
C1449 C 0.85636 0.52957 0.71809 0.0
H1450 H 0.83544 0.59012 0.74315 0.0
C1451 C 0.8767 0.54849 0.69544 0.0
H1452 H 0.82684 0.53113 0.7532 0.0
C1453 C 0.88119 0.58193 0.68952 0.0
C1454 C 0.86593 0.59701 0.70642 0.0
H1455 H 0.88707 0.53649 0.68149 0.0
H1456 H 0.89533 0.59539 0.67128 0.0
C1457 C 0.84795 0.57919 0.73007 0.0
C1458 C 0.43553 0.9219 0.22532 0.0
C1459 C 0.45666 0.92072 0.24668 0.0
H1460 H 0.43552 0.9435 0.18673 0.0
C1461 C 0.49532 0.93978 0.24417 0.0
H1462 H 0.40568 0.90712 0.22635 0.0
C1463 C 0.51238 0.96027 0.22132 0.0
C1464 C 0.49132 0.96238 0.20032 0.0
H1465 H 0.51253 0.93972 0.26021 0.0
H1466 H 0.54224 0.97479 0.22023 0.0
C1467 C 0.45263 0.94243 0.20242 0.0
C1468 C 0.0723 0.49341 0.22786 0.0
C1469 C 0.07569 0.51749 0.24782 0.0
H1470 H 0.0482 0.46938 0.19059 0.0
C1471 C 0.05589 0.53564 0.24526 0.0
H1472 H 0.08758 0.47937 0.22906 0.0
C1473 C 0.03346 0.53004 0.22312 0.0
C1474 C 0.0306 0.5064 0.20294 0.0
H1475 H 0.05786 0.55427 0.26034 0.0
H1476 H 0.019 0.54483 0.22149 0.0
C1477 C 0.0501 0.488 0.20566 0.0
C1478 C 0.52591 0.58309 0.22122 0.0
C1479 C 0.50616 0.56041 0.24271 0.0
H1480 H 0.54948 0.5879 0.18225 0.0
C1481 C 0.49431 0.52404 0.24082 0.0
H1482 H 0.53498 0.61118 0.22203 0.0
C1483 C 0.50285 0.51077 0.21811 0.0
C1484 C 0.52276 0.53352 0.19668 0.0
H1485 H 0.47901 0.50601 0.25708 0.0
H1486 H 0.49376 0.48268 0.21724 0.0
C1487 C 0.5339 0.56974 0.19838 0.0
C1488 C 0.94484 0.42017 0.81351 0.0
C1489 C 0.9497 0.44332 0.7922 0.0
H1490 H 0.96254 0.41445 0.8524 0.0
C1491 C 0.9765 0.47938 0.79414 0.0
H1492 H 0.92415 0.39229 0.81253 0.0
C1493 C 0.99872 0.49192 0.81673 0.0
C1494 C 0.994 0.46874 0.83799 0.0
H1495 H 0.98077 0.49768 0.77793 0.0
H1496 H 0.01958 0.51975 0.81763 0.0
C1497 C 0.96657 0.43285 0.83632 0.0
C1498 C 0.5437 0.48456 0.78834 0.0
C1499 C 0.5824 0.50216 0.78662 0.0
H1500 H 0.49622 0.47544 0.81113 0.0
C1501 C 0.60309 0.52456 0.80758 0.0
H1502 H 0.52701 0.46725 0.77247 0.0
C1503 C 0.58547 0.52926 0.82972 0.0
C1504 C 0.54676 0.5119 0.83132 0.0
H1505 H 0.63296 0.53817 0.80699 0.0
H1506 H 0.60217 0.54688 0.84544 0.0
C1507 C 0.52609 0.48948 0.81037 0.0
C1508 C 0.54378 0.05753 0.79283 0.0
C1509 C 0.53326 0.08351 0.79107 0.0
H1510 H 0.54195 0.01499 0.816 0.0
C1511 C 0.5147 0.08811 0.81285 0.0
H1512 H 0.55808 0.05345 0.77633 0.0
C1513 C 0.5059 0.0665 0.83563 0.0
C1514 C 0.51498 0.03947 0.83694 0.0
H1515 H 0.50658 0.10819 0.81211 0.0
H1516 H 0.49076 0.07005 0.8518 0.0
C1517 C 0.53442 0.03549 0.81544 0.0
C1518 C 0.10838 0.25669 0.55635 0.0
C1519 C 0.13002 0.25653 0.57775 0.0
H1520 H 0.10737 0.27739 0.51762 0.0
C1521 C 0.16863 0.27612 0.57496 0.0
H1522 H 0.07856 0.24143 0.55755 0.0
C1523 C 0.18513 0.29632 0.55188 0.0
C1524 C 0.16352 0.29764 0.53094 0.0
H1525 H 0.18622 0.27681 0.59099 0.0
H1526 H 0.21496 0.31135 0.55062 0.0
C1527 C 0.12491 0.27698 0.53325 0.0
C1528 C 0.72247 0.86994 0.57741 0.0
C1529 C 0.74134 0.85095 0.58031 0.0
H1530 H 0.68589 0.87943 0.55349 0.0
C1531 C 0.73625 0.82538 0.56117 0.0
H1532 H 0.72578 0.88972 0.5919 0.0
C1533 C 0.7135 0.81949 0.53928 0.0
C1534 C 0.6952 0.83894 0.53607 0.0
H1535 H 0.75079 0.81064 0.56264 0.0
H1536 H 0.71046 0.79988 0.52471 0.0
C1537 C 0.69947 0.86387 0.55555 0.0
C1538 C 0.19643 0.91946 0.55682 0.0
C1539 C 0.17635 0.89741 0.57849 0.0
H1540 H 0.21964 0.92297 0.5179 0.0
C1541 C 0.16362 0.86083 0.57703 0.0
H1542 H 0.20619 0.94771 0.55729 0.0
C1543 C 0.17156 0.84672 0.55454 0.0
C1544 C 0.19176 0.86884 0.53291 0.0
H1545 H 0.14805 0.84327 0.59345 0.0
H1546 H 0.16175 0.81847 0.55399 0.0
C1547 C 0.20383 0.90529 0.53419 0.0
C1548 C 0.64806 0.81902 0.12822 0.0
C1549 C 0.62401 0.78224 0.12652 0.0
H1550 H 0.6898 0.8616 0.15114 0.0
C1551 C 0.62347 0.75989 0.14709 0.0
H1552 H 0.64884 0.83671 0.11259 0.0
C1553 C 0.64627 0.77404 0.16915 0.0
C1554 C 0.67044 0.81075 0.17086 0.0
H1555 H 0.60484 0.73146 0.14636 0.0
H1556 H 0.64516 0.75626 0.18484 0.0
C1557 C 0.67145 0.83316 0.15013 0.0
C1558 C 0.26281 0.85262 0.1427 0.0
C1559 C 0.24108 0.83045 0.12197 0.0
H1560 H 0.2638 0.87533 0.18079 0.0
C1561 C 0.20248 0.81337 0.12449 0.0
H1562 H 0.29263 0.86582 0.14151 0.0
C1563 C 0.18598 0.81876 0.14701 0.0
C1564 C 0.2077 0.84112 0.16765 0.0
H1565 H 0.18501 0.79623 0.10883 0.0
H1566 H 0.15616 0.80523 0.14833 0.0
C1567 C 0.24631 0.85778 0.16532 0.0
C1568 C 0.21485 0.3998 0.12379 0.0
C1569 C 0.20362 0.42531 0.12258 0.0
H1570 H 0.21458 0.35759 0.14637 0.0
C1571 C 0.18619 0.42994 0.14509 0.0
H1572 H 0.22819 0.39553 0.10674 0.0
C1573 C 0.17858 0.4084 0.16782 0.0
C1574 C 0.18781 0.38143 0.16841 0.0
H1575 H 0.17746 0.44959 0.14479 0.0
H1576 H 0.16382 0.41167 0.18439 0.0
C1577 C 0.20681 0.37793 0.14639 0.0
C1578 C 0.83076 0.61183 0.91014 0.0
C1579 C 0.79209 0.59148 0.91195 0.0
H1580 H 0.87782 0.64922 0.8873 0.0
C1581 C 0.77118 0.59235 0.89031 0.0
H1582 H 0.84775 0.61196 0.92642 0.0
C1583 C 0.78844 0.61396 0.8679 0.0
C1584 C 0.82705 0.63538 0.86658 0.0
H1585 H 0.74136 0.57661 0.89082 0.0
H1586 H 0.77142 0.61478 0.85202 0.0
C1587 C 0.84799 0.63351 0.8878 0.0
C1588 C 0.39321 0.20383 0.9127 0.0
C1589 C 0.41256 0.18529 0.91552 0.0
H1590 H 0.35747 0.21394 0.88836 0.0
C1591 C 0.40942 0.16132 0.89556 0.0
H1592 H 0.39503 0.22238 0.9278 0.0
C1593 C 0.38797 0.15649 0.87302 0.0
C1594 C 0.36901 0.17536 0.87001 0.0
H1595 H 0.42438 0.14699 0.89699 0.0
H1596 H 0.38628 0.13801 0.8579 0.0
C1597 C 0.37154 0.19881 0.89022 0.0
C1598 C 0.85319 0.25358 0.88763 0.0
C1599 C 0.83711 0.22969 0.90915 0.0
H1600 H 0.87759 0.26276 0.84858 0.0
C1601 C 0.83154 0.19518 0.90698 0.0
H1602 H 0.85754 0.2803 0.88883 0.0
C1603 C 0.84344 0.18527 0.88406 0.0
C1604 C 0.86035 0.2095 0.86277 0.0
H1605 H 0.81919 0.17636 0.92334 0.0
H1606 H 0.83984 0.15882 0.88307 0.0
C1607 C 0.86442 0.2435 0.86458 0.0
C1608 C 0.28438 0.13347 0.48255 0.0
C1609 C 0.29425 0.12087 0.45993 0.0
H1610 H 0.29959 0.15675 0.52114 0.0
C1611 C 0.32902 0.1232 0.45932 0.0
H1612 H 0.2577 0.13174 0.48401 0.0
C1613 C 0.35261 0.13641 0.48115 0.0
C1614 C 0.34233 0.1482 0.50404 0.0
H1615 H 0.3379 0.11433 0.4421 0.0
H1616 H 0.37849 0.13644 0.4803 0.0
C1617 C 0.3082 0.14721 0.50418 0.0
C1618 C 0.87252 0.14121 0.45514 0.0
C1619 C 0.91118 0.16066 0.45275 0.0
H1620 H 0.82496 0.12856 0.47907 0.0
C1621 C 0.93165 0.18333 0.47366 0.0
H1622 H 0.8559 0.1237 0.43934 0.0
C1623 C 0.91384 0.18634 0.49645 0.0
C1624 C 0.87515 0.16689 0.49877 0.0
H1625 H 0.96149 0.19838 0.47259 0.0
H1626 H 0.93035 0.20421 0.5121 0.0
C1627 C 0.85476 0.14427 0.47783 0.0
C1628 C 0.83265 0.71585 0.45765 0.0
C1629 C 0.86433 0.74965 0.45564 0.0
H1630 H 0.80047 0.66925 0.48127 0.0
C1631 C 0.88914 0.76162 0.47709 0.0
H1632 H 0.8131 0.70552 0.44146 0.0
C1633 C 0.88203 0.74038 0.50011 0.0
C1634 C 0.85012 0.70661 0.50203 0.0
H1635 H 0.91366 0.78763 0.4763 0.0
H1636 H 0.90169 0.7502 0.51624 0.0
C1637 C 0.82557 0.69481 0.48047 0.0
loop_
_geom_bond_atom_site_label_1
_geom_bond_atom_site_label_2
_geom_bond_distance
_geom_bond_site_symmetry_2
_ccdc_geom_bond_type
H0 C1 0.949 . S
C1 H0 0.949 . S
C1 C2 1.395 . S
C1 C3 1.391 . S
C2 C1 1.395 . S
C2 C5 1.390 . S
C3 C1 1.391 . S
C3 C7 1.387 . S
C3 C8 1.491 . S
H4 C5 0.950 . S
C5 C2 1.390 . S
C5 H4 0.950 . S
C5 C6 1.378 . S
C6 C5 1.378 . S
C6 C7 1.409 . S
C7 C3 1.387 . S
C7 C6 1.409 . S
C7 H9 0.951 . S
C8 C3 1.491 . S
C8 C10 1.382 . S
C8 C12 1.404 . S
H9 C7 0.951 . S
C10 C8 1.382 . S
C10 C11 1.390 . S
C10 H15 0.949 . S
C11 C10 1.390 . S
C11 C16 1.399 . S
C12 C8 1.404 . S
C12 H13 0.950 . S
C12 C14 1.375 . S
H13 C12 0.950 . S
C14 C12 1.375 . S
C14 C16 1.382 . S
C14 H18 0.950 . S
H15 C10 0.949 . S
C16 C11 1.399 . S
C16 C14 1.382 . S
C16 H17 0.952 . S
H17 C16 0.952 . S
H18 C14 0.950 . S
H19 C20 0.949 . S
C20 H19 0.949 . S
C20 C21 1.395 . S
C20 C22 1.391 . S
C21 C20 1.395 . S
C21 C24 1.390 . S
C22 C20 1.391 . S
C22 C26 1.387 . S
C22 C27 1.491 . S
H23 C24 0.950 . S
C24 C21 1.390 . S
C24 H23 0.950 . S
C24 C25 1.378 . S
C25 C24 1.378 . S
C25 C26 1.409 . S
C26 C22 1.387 . S
C26 C25 1.409 . S
C26 H28 0.951 . S
C27 C22 1.491 . S
C27 C29 1.382 . S
C27 C31 1.404 . S
H28 C26 0.951 . S
C29 C27 1.382 . S
C29 C30 1.390 1_545 S
C29 H34 0.949 . S
C30 C29 1.390 1_565 S
C30 C35 1.399 . S
C31 C27 1.404 . S
C31 H32 0.950 . S
C31 C33 1.375 . S
H32 C31 0.950 . S
C33 C31 1.375 . S
C33 C35 1.382 1_545 S
C33 H37 0.950 . S
H34 C29 0.949 . S
C35 C30 1.399 . S
C35 C33 1.382 1_565 S
C35 H36 0.952 . S
H36 C35 0.952 . S
H37 C33 0.950 . S
H38 C39 0.949 . S
C39 H38 0.949 . S
C39 C40 1.395 . S
C39 C41 1.391 . S
C40 C39 1.395 . S
C40 C43 1.390 . S
C41 C39 1.391 . S
C41 C45 1.387 . S
C41 C46 1.491 . S
H42 C43 0.950 . S
C43 C40 1.390 . S
C43 H42 0.950 . S
C43 C44 1.378 . S
C44 C43 1.378 . S
C44 C45 1.409 . S
C45 C41 1.387 . S
C45 C44 1.409 . S
C45 H47 0.951 . S
C46 C41 1.491 . S
C46 C48 1.382 . S
C46 C50 1.404 . S
H47 C45 0.951 . S
C48 C46 1.382 . S
C48 C49 1.390 1_655 S
C48 H53 0.949 . S
C49 C48 1.390 1_455 S
C49 C54 1.399 . S
C50 C46 1.404 . S
C50 H51 0.950 . S
C50 C52 1.375 1_655 S
H51 C50 0.950 . S
C52 C50 1.375 1_455 S
C52 C54 1.382 . S
C52 H56 0.950 . S
H53 C48 0.949 . S
C54 C49 1.399 . S
C54 C52 1.382 . S
C54 H55 0.952 . S
H55 C54 0.952 . S
H56 C52 0.950 . S
H57 C58 0.949 . S
C58 H57 0.949 . S
C58 C59 1.395 . S
C58 C60 1.391 . S
C59 C58 1.395 . S
C59 C62 1.390 . S
C60 C58 1.391 . S
C60 C64 1.387 . S
C60 C65 1.491 . S
H61 C62 0.950 . S
C62 C59 1.390 . S
C62 H61 0.950 . S
C62 C63 1.378 . S
C63 C62 1.378 . S
C63 C64 1.409 . S
C64 C60 1.387 . S
C64 C63 1.409 . S
C64 H66 0.951 . S
C65 C60 1.491 . S
C65 C67 1.382 . S
C65 C69 1.404 . S
H66 C64 0.951 . S
C67 C65 1.382 . S
C67 C68 1.390 . S
C67 H72 0.949 . S
C68 C67 1.390 . S
C68 C73 1.399 . S
C69 C65 1.404 . S
C69 H70 0.950 . S
C69 C71 1.375 . S
H70 C69 0.950 . S
C71 C69 1.375 . S
C71 C73 1.382 . S
C71 H75 0.950 . S
H72 C67 0.949 . S
C73 C68 1.399 . S
C73 C71 1.382 . S
C73 H74 0.952 . S
H74 C73 0.952 . S
H75 C71 0.950 . S
H76 C77 0.949 . S
C77 H76 0.949 . S
C77 C78 1.395 . S
C77 C79 1.391 . S
C78 C77 1.395 . S
C78 C81 1.390 . S
C79 C77 1.391 . S
C79 C83 1.387 . S
C79 C84 1.491 . S
H80 C81 0.950 . S
C81 C78 1.390 . S
C81 H80 0.950 . S
C81 C82 1.378 . S
C82 C81 1.378 . S
C82 C83 1.409 . S
C83 C79 1.387 . S
C83 C82 1.409 . S
C83 H85 0.951 . S
C84 C79 1.491 . S
C84 C86 1.382 . S
C84 C88 1.404 . S
H85 C83 0.951 . S
C86 C84 1.382 . S
C86 C87 1.390 1_565 S
C86 H91 0.949 . S
C87 C86 1.390 1_545 S
C87 C92 1.399 . S
C88 C84 1.404 . S
C88 H89 0.950 . S
C88 C90 1.375 . S
H89 C88 0.950 . S
C90 C88 1.375 . S
C90 C92 1.382 1_565 S
C90 H94 0.950 1_565 S
H91 C86 0.949 . S
C92 C87 1.399 . S
C92 C90 1.382 1_545 S
C92 H93 0.952 . S
H93 C92 0.952 . S
H94 C90 0.950 1_545 S
H95 C96 0.949 . S
C96 H95 0.949 . S
C96 C97 1.395 . S
C96 C98 1.391 . S
C97 C96 1.395 . S
C97 C100 1.390 . S
C98 C96 1.391 . S
C98 C102 1.387 . S
C98 C103 1.491 . S
H99 C100 0.950 . S
C100 C97 1.390 . S
C100 H99 0.950 . S
C100 C101 1.378 . S
C101 C100 1.378 . S
C101 C102 1.409 . S
C102 C98 1.387 . S
C102 C101 1.409 . S
C102 H104 0.951 . S
C103 C98 1.491 . S
C103 C105 1.382 . S
C103 C107 1.404 . S
H104 C102 0.951 . S
C105 C103 1.382 . S
C105 C106 1.390 1_455 S
C105 H110 0.949 . S
C106 C105 1.390 1_655 S
C106 C111 1.399 . S
C107 C103 1.404 . S
C107 H108 0.950 . S
C107 C109 1.374 . S
H108 C107 0.950 . S
C109 C107 1.374 . S
C109 C111 1.383 1_455 S
C109 H113 0.951 1_455 S
H110 C105 0.949 . S
C111 C106 1.399 . S
C111 C109 1.383 1_655 S
C111 H112 0.952 . S
H112 C111 0.952 . S
H113 C109 0.951 1_655 S
H114 C115 0.949 . S
C115 H114 0.949 . S
C115 C116 1.395 . S
C115 C117 1.391 . S
C116 C115 1.395 . S
C116 C119 1.390 . S
C117 C115 1.391 . S
C117 C121 1.387 . S
C117 C122 1.491 . S
H118 C119 0.950 . S
C119 C116 1.390 . S
C119 H118 0.950 . S
C119 C120 1.378 . S
C120 C119 1.378 . S
C120 C121 1.409 . S
C121 C117 1.387 . S
C121 C120 1.409 . S
C121 H123 0.951 . S
C122 C117 1.491 . S
C122 C124 1.382 . S
C122 C126 1.404 . S
H123 C121 0.951 . S
C124 C122 1.382 . S
C124 C125 1.390 . S
C124 H129 0.949 . S
C125 C124 1.390 . S
C125 C130 1.399 . S
C126 C122 1.404 . S
C126 H127 0.950 . S
C126 C128 1.375 . S
H127 C126 0.950 . S
C128 C126 1.375 . S
C128 C130 1.382 . S
C128 H132 0.950 . S
H129 C124 0.949 . S
C130 C125 1.399 . S
C130 C128 1.382 . S
C130 H131 0.952 . S
H131 C130 0.952 . S
H132 C128 0.950 . S
H133 C134 0.949 . S
C134 H133 0.949 . S
C134 C135 1.395 . S
C134 C136 1.391 . S
C135 C134 1.395 . S
C135 C138 1.390 . S
C136 C134 1.391 . S
C136 C140 1.387 . S
C136 C141 1.491 . S
H137 C138 0.950 . S
C138 C135 1.390 . S
C138 H137 0.950 . S
C138 C139 1.378 . S
C139 C138 1.378 . S
C139 C140 1.409 . S
C140 C136 1.387 . S
C140 C139 1.409 . S
C140 H142 0.951 . S
C141 C136 1.491 . S
C141 C143 1.382 . S
C141 C145 1.404 . S
H142 C140 0.951 . S
C143 C141 1.382 . S
C143 C144 1.390 . S
C143 H148 0.949 . S
C144 C143 1.390 . S
C144 C149 1.399 . S
C145 C141 1.404 . S
C145 H146 0.950 . S
C145 C147 1.375 . S
H146 C145 0.950 . S
C147 C145 1.375 . S
C147 C149 1.382 . S
C147 H151 0.950 . S
H148 C143 0.949 . S
C149 C144 1.399 . S
C149 C147 1.382 . S
C149 H150 0.952 . S
H150 C149 0.952 . S
H151 C147 0.950 . S
H152 C153 0.949 . S
C153 H152 0.949 . S
C153 C154 1.395 . S
C153 C155 1.391 . S
C154 C153 1.395 . S
C154 C157 1.390 . S
C155 C153 1.391 . S
C155 C159 1.387 . S
C155 C160 1.491 . S
H156 C157 0.950 . S
C157 C154 1.390 . S
C157 H156 0.950 . S
C157 C158 1.378 . S
C158 C157 1.378 . S
C158 C159 1.409 . S
C159 C155 1.387 . S
C159 C158 1.409 . S
C159 H161 0.951 . S
C160 C155 1.491 . S
C160 C162 1.382 . S
C160 C164 1.404 . S
H161 C159 0.951 . S
C162 C160 1.382 . S
C162 C163 1.390 . S
C162 H167 0.949 . S
C163 C162 1.390 . S
C163 C168 1.399 . S
C164 C160 1.404 . S
C164 H165 0.950 . S
C164 C166 1.375 . S
H165 C164 0.950 . S
C166 C164 1.375 . S
C166 C168 1.382 . S
C166 H170 0.950 . S
H167 C162 0.949 . S
C168 C163 1.399 . S
C168 C166 1.382 . S
C168 H169 0.952 . S
H169 C168 0.952 . S
H170 C166 0.950 . S
H171 C172 0.949 . S
C172 H171 0.949 . S
C172 C173 1.395 . S
C172 C174 1.391 . S
C173 C172 1.395 . S
C173 C176 1.390 . S
C174 C172 1.391 . S
C174 C178 1.387 . S
C174 C179 1.491 . S
H175 C176 0.950 . S
C176 C173 1.390 . S
C176 H175 0.950 . S
C176 C177 1.378 . S
C177 C176 1.378 . S
C177 C178 1.409 . S
C178 C174 1.387 . S
C178 C177 1.409 . S
C178 H180 0.951 . S
C179 C174 1.491 . S
C179 C181 1.382 . S
C179 C183 1.404 . S
H180 C178 0.951 . S
C181 C179 1.382 . S
C181 C182 1.390 . S
C181 H186 0.949 . S
C182 C181 1.390 . S
C182 C187 1.399 . S
C183 C179 1.404 . S
C183 H184 0.950 . S
C183 C185 1.392 . S
H184 C183 0.950 . S
C185 C183 1.392 . S
C185 C187 1.387 . S
C185 H189 0.930 1_556 S
H186 C181 0.949 . S
C187 C182 1.399 . S
C187 C185 1.387 . S
C187 H188 0.952 1_556 S
H188 C187 0.952 1_554 S
H189 C185 0.930 1_554 S
H190 C191 0.949 . S
C191 H190 0.949 . S
C191 C192 1.395 . S
C191 C193 1.391 . S
C192 C191 1.395 . S
C192 C195 1.390 . S
C193 C191 1.391 . S
C193 C197 1.387 . S
C193 C198 1.491 . S
H194 C195 0.950 . S
C195 C192 1.390 . S
C195 H194 0.950 . S
C195 C196 1.378 . S
C196 C195 1.378 . S
C196 C197 1.409 . S
C197 C193 1.387 . S
C197 C196 1.409 . S
C197 H199 0.987 . S
C198 C193 1.491 . S
C198 C200 1.382 . S
C198 C202 1.404 . S
H199 C197 0.987 . S
C200 C198 1.382 . S
C200 C201 1.390 . S
C200 H205 0.949 . S
C201 C200 1.390 . S
C201 C206 1.399 1_556 S
C202 C198 1.404 . S
C202 H203 0.950 . S
C202 C204 1.375 1_556 S
H203 C202 0.950 . S
C204 C202 1.375 1_554 S
C204 C206 1.382 . S
C204 H208 0.950 . S
H205 C200 0.949 . S
C206 C201 1.399 1_554 S
C206 C204 1.382 . S
C206 H207 0.952 . S
H207 C206 0.952 . S
H208 C204 0.950 . S
H209 C210 0.949 . S
C210 H209 0.949 . S
C210 C211 1.395 . S
C210 C212 1.391 . S
C211 C210 1.395 . S
C211 C214 1.390 . S
C212 C210 1.391 . S
C212 C216 1.387 . S
C212 C217 1.491 . S
H213 C214 0.950 . S
C214 C211 1.390 . S
C214 H213 0.950 . S
C214 C215 1.378 . S
C215 C214 1.378 . S
C215 C216 1.409 . S
C216 C212 1.387 . S
C216 C215 1.409 . S
C216 H218 0.951 . S
C217 C212 1.491 . S
C217 C219 1.382 . S
C217 C221 1.404 . S
H218 C216 0.951 . S
C219 C217 1.382 . S
C219 C220 1.390 . S
C219 H224 0.949 . S
C220 C219 1.390 . S
C220 C225 1.389 1_556 S
C221 C217 1.404 . S
C221 H222 0.950 . S
C221 C223 1.375 1_556 S
H222 C221 0.950 . S
C223 C221 1.375 1_554 S
C223 C225 1.384 . S
C223 H227 0.950 . S
H224 C219 0.949 . S
C225 C220 1.389 1_554 S
C225 C223 1.384 . S
C225 H226 0.960 . S
H226 C225 0.960 . S
H227 C223 0.950 . S
H228 C229 0.949 . S
C229 H228 0.949 . S
C229 C230 1.395 . S
C229 C231 1.391 . S
C230 C229 1.395 . S
C230 C233 1.390 . S
C231 C229 1.391 . S
C231 C235 1.387 . S
C231 C236 1.491 . S
H232 C233 0.950 . S
C233 C230 1.390 . S
C233 H232 0.950 . S
C233 C234 1.378 . S
C234 C233 1.378 . S
C234 C235 1.409 . S
C235 C231 1.387 . S
C235 C234 1.409 . S
C235 H237 0.951 . S
C236 C231 1.491 . S
C236 C238 1.382 . S
C236 C240 1.404 . S
H237 C235 0.951 . S
C238 C236 1.382 . S
C238 C239 1.390 . S
C238 H243 0.949 . S
C239 C238 1.390 . S
C239 C244 1.399 . S
C240 C236 1.404 . S
C240 H241 0.950 . S
C240 C242 1.375 . S
H241 C240 0.950 . S
C242 C240 1.375 . S
C242 C244 1.382 . S
C242 H246 0.950 . S
H243 C238 0.949 . S
C244 C239 1.399 . S
C244 C242 1.382 . S
C244 H245 0.952 . S
H245 C244 0.952 . S
H246 C242 0.950 . S
H247 C248 0.949 . S
C248 H247 0.949 . S
C248 C249 1.395 . S
C248 C250 1.391 . S
C249 C248 1.395 . S
C249 C252 1.390 . S
C250 C248 1.391 . S
C250 C254 1.387 . S
C250 C255 1.491 . S
H251 C252 0.950 . S
C252 C249 1.390 . S
C252 H251 0.950 . S
C252 C253 1.378 . S
C253 C252 1.378 . S
C253 C254 1.409 . S
C254 C250 1.387 . S
C254 C253 1.409 . S
C254 H256 0.951 . S
C255 C250 1.491 . S
C255 C257 1.382 . S
C255 C259 1.404 . S
H256 C254 0.951 . S
C257 C255 1.382 . S
C257 C258 1.390 . S
C257 H262 0.949 . S
C258 C257 1.390 . S
C258 C263 1.399 . S
C259 C255 1.404 . S
C259 H260 0.950 . S
C259 C261 1.375 . S
H260 C259 0.950 . S
C261 C259 1.375 . S
C261 C263 1.382 . S
C261 H265 0.950 . S
H262 C257 0.949 . S
C263 C258 1.399 . S
C263 C261 1.382 . S
C263 H264 0.952 . S
H264 C263 0.952 . S
H265 C261 0.950 . S
H266 C267 0.949 . S
C267 H266 0.949 . S
C267 C268 1.395 . S
C267 C269 1.391 . S
C268 C267 1.395 . S
C268 C271 1.390 . S
C269 C267 1.391 . S
C269 C273 1.387 . S
C269 C274 1.491 . S
H270 C271 0.950 . S
C271 C268 1.390 . S
C271 H270 0.950 . S
C271 C272 1.378 . S
C272 C271 1.378 . S
C272 C273 1.409 . S
C273 C269 1.387 . S
C273 C272 1.409 . S
C273 H275 0.951 . S
C274 C269 1.491 . S
C274 C276 1.382 . S
C274 C278 1.404 . S
H275 C273 0.951 . S
C276 C274 1.382 . S
C276 C277 1.390 . S
C276 H281 0.949 . S
C277 C276 1.390 . S
C277 C282 1.399 . S
C278 C274 1.404 . S
C278 H279 0.950 . S
C278 C280 1.375 . S
H279 C278 0.950 . S
C280 C278 1.375 . S
C280 C282 1.382 . S
C280 H284 0.950 . S
H281 C276 0.949 . S
C282 C277 1.399 . S
C282 C280 1.382 . S
C282 H283 0.952 . S
H283 C282 0.952 . S
H284 C280 0.950 . S
H285 C286 0.949 . S
C286 H285 0.949 . S
C286 C287 1.395 . S
C286 C288 1.391 . S
C287 C286 1.395 . S
C287 C290 1.390 . S
C288 C286 1.391 . S
C288 C292 1.387 . S
C288 C293 1.491 . S
H289 C290 0.950 . S
C290 C287 1.390 . S
C290 H289 0.950 . S
C290 C291 1.378 . S
C291 C290 1.378 . S
C291 C292 1.409 . S
C292 C288 1.387 . S
C292 C291 1.409 . S
C292 H294 0.951 . S
C293 C288 1.491 . S
C293 C295 1.382 . S
C293 C297 1.404 . S
H294 C292 0.951 . S
C295 C293 1.382 . S
C295 C296 1.390 . S
C295 H300 0.949 . S
C296 C295 1.390 . S
C296 C301 1.399 . S
C297 C293 1.404 . S
C297 H298 0.950 . S
C297 C299 1.375 . S
H298 C297 0.950 . S
C299 C297 1.375 . S
C299 C301 1.382 . S
C299 H303 0.950 . S
H300 C295 0.949 . S
C301 C296 1.399 . S
C301 C299 1.382 . S
C301 H302 0.952 . S
H302 C301 0.952 . S
H303 C299 0.950 . S
H304 C305 0.949 . S
C305 H304 0.949 . S
C305 C306 1.395 . S
C305 C307 1.391 . S
C306 C305 1.395 . S
C306 C309 1.390 . S
C307 C305 1.391 . S
C307 C311 1.387 . S
C307 C312 1.491 . S
H308 C309 0.950 . S
C309 C306 1.390 . S
C309 H308 0.950 . S
C309 C310 1.378 . S
C310 C309 1.378 . S
C310 C311 1.409 . S
C311 C307 1.387 . S
C311 C310 1.409 . S
C311 H313 0.951 . S
C312 C307 1.491 . S
C312 C314 1.382 . S
C312 C316 1.404 . S
H313 C311 0.951 . S
C314 C312 1.382 . S
C314 C315 1.390 . S
C314 H319 0.949 . S
C315 C314 1.390 . S
C315 C320 1.399 . S
C316 C312 1.404 . S
C316 H317 0.950 . S
C316 C318 1.375 . S
H317 C316 0.950 . S
C318 C316 1.375 . S
C318 C320 1.382 . S
C318 H322 0.950 . S
H319 C314 0.949 . S
C320 C315 1.399 . S
C320 C318 1.382 . S
C320 H321 0.952 . S
H321 C320 0.952 . S
H322 C318 0.950 . S
H323 C324 0.949 . S
C324 H323 0.949 . S
C324 C325 1.395 . S
C324 C326 1.391 . S
C325 C324 1.395 . S
C325 C328 1.390 . S
C326 C324 1.391 . S
C326 C330 1.387 . S
C326 C331 1.491 . S
H327 C328 0.950 . S
C328 C325 1.390 . S
C328 H327 0.950 . S
C328 C329 1.378 . S
C329 C328 1.378 . S
C329 C330 1.409 . S
C330 C326 1.387 . S
C330 C329 1.409 . S
C330 H332 0.951 . S
C331 C326 1.491 . S
C331 C333 1.382 . S
C331 C335 1.404 . S
H332 C330 0.951 . S
C333 C331 1.382 . S
C333 C334 1.390 . S
C333 H338 0.949 . S
C334 C333 1.390 . S
C334 C339 1.399 . S
C335 C331 1.404 . S
C335 H336 0.950 . S
C335 C337 1.375 . S
H336 C335 0.950 . S
C337 C335 1.375 . S
C337 C339 1.382 . S
C337 H341 0.950 . S
H338 C333 0.949 . S
C339 C334 1.399 . S
C339 C337 1.382 . S
C339 H340 0.952 . S
H340 C339 0.952 . S
H341 C337 0.950 . S
Gd342 N373 2.661 . S
Gd342 N379 2.601 . S
Gd342 O386 2.545 . S
Gd342 O387 2.606 1_545 S
Gd342 O389 2.429 . S
Gd342 O390 2.545 1_545 S
Gd342 O391 2.412 1_545 S
Gd342 O393 2.362 . S
Gd342 O394 2.324 1_545 S
Gd342 C401 2.828 1_545 S
Gd343 N352 2.661 . S
Gd343 N356 2.601 . S
Gd343 O387 2.362 1_556 S
Gd343 O388 2.324 1_565 S
Gd343 O392 2.545 . S
Gd343 O393 2.606 1_566 S
Gd343 O395 2.429 . S
Gd343 O396 2.545 1_565 S
Gd343 O397 2.412 1_565 S
Gd343 C410 2.828 1_565 S
C344 C347 1.417 . S
C344 C349 1.431 . S
C344 C350 1.412 . S
C345 C348 1.437 . S
C345 C349 1.317 . S
C345 H364 0.929 . S
C346 C347 1.426 . S
C346 C348 1.413 . S
C346 N356 1.359 . S
C347 C344 1.417 . S
C347 C346 1.426 . S
C347 N352 1.350 . S
C348 C345 1.437 . S
C348 C346 1.413 . S
C348 C358 1.391 . S
C349 C344 1.431 . S
C349 C345 1.317 . S
C349 H360 0.930 . S
C350 C344 1.412 . S
C350 C351 1.355 . S
C350 H362 0.930 . S
C351 C350 1.355 . S
C351 C353 1.402 . S
C351 H363 0.930 . S
N352 Gd343 2.661 . S
N352 C347 1.350 . S
N352 C353 1.307 . S
C353 C351 1.402 . S
C353 N352 1.307 . S
C353 H354 0.930 . S
H354 C353 0.930 . S
C355 N356 1.334 . S
C355 C357 1.394 . S
C355 H359 0.930 . S
N356 Gd343 2.601 . S
N356 C346 1.359 . S
N356 C355 1.334 . S
C357 C355 1.394 . S
C357 C358 1.359 . S
C357 H369 0.930 . S
C358 C348 1.391 . S
C358 C357 1.359 . S
C358 H370 0.929 . S
H359 C355 0.930 . S
H360 C349 0.930 . S
H361 C378 0.930 . S
H362 C350 0.930 . S
H363 C351 0.930 . S
H364 C345 0.929 . S
H365 C383 0.930 . S
H366 C374 0.930 . S
H367 C375 0.930 . S
H368 C399 0.929 . S
H369 C357 0.930 . S
H370 C358 0.929 . S
H371 C400 0.930 . S
H372 C381 0.930 . S
N373 Gd342 2.661 . S
N373 C377 1.350 . S
N373 C378 1.307 . S
C374 H366 0.930 . S
C374 C375 1.355 . S
C374 C376 1.412 . S
C375 H367 0.930 . S
C375 C374 1.355 . S
C375 C378 1.402 . S
C376 C374 1.412 . S
C376 C377 1.417 . S
C376 C400 1.431 . S
C377 N373 1.350 . S
C377 C376 1.417 . S
C377 C380 1.426 . S
C378 H361 0.930 . S
C378 N373 1.307 . S
C378 C375 1.402 . S
N379 Gd342 2.601 . S
N379 C380 1.359 . S
N379 C383 1.334 . S
C380 C377 1.426 . S
C380 N379 1.359 . S
C380 C384 1.413 . S
C381 H372 0.930 . S
C381 C382 1.359 . S
C381 C383 1.394 . S
C382 C381 1.359 . S
C382 C384 1.391 . S
C382 H385 0.929 . S
C383 H365 0.930 . S
C383 N379 1.334 . S
C383 C381 1.394 . S
C384 C380 1.413 . S
C384 C382 1.391 . S
C384 C399 1.437 . S
H385 C382 0.929 . S
O386 Gd342 2.545 . S
O386 C401 1.257 1_545 S
O387 Gd342 2.606 1_565 S
O387 Gd343 2.362 1_554 S
O387 C398 1.284 . S
O388 Gd343 2.324 1_545 S
O388 C408 1.254 1_556 S
O389 Gd342 2.429 . S
O389 C408 1.268 . S
O390 Gd342 2.545 1_565 S
O390 C398 1.250 . S
O391 Gd342 2.412 1_565 S
O391 C401 1.253 . S
O392 Gd343 2.545 . S
O392 C410 1.258 1_565 S
O393 Gd342 2.362 . S
O393 Gd343 2.606 1_544 S
O393 C409 1.284 1_554 S
O394 Gd342 2.324 1_565 S
O394 C417 1.254 . S
O395 Gd343 2.429 . S
O395 C417 1.268 1_556 S
O396 Gd343 2.545 1_545 S
O396 C409 1.250 . S
O397 Gd343 2.412 1_545 S
O397 C410 1.252 . S
C398 O387 1.284 . S
C398 O390 1.250 . S
C399 H368 0.929 . S
C399 C384 1.437 . S
C399 C400 1.317 . S
C400 H371 0.930 . S
C400 C376 1.431 . S
C400 C399 1.317 . S
C401 Gd342 2.828 1_565 S
C401 O386 1.257 1_565 S
C401 O391 1.253 . S
C401 C402 1.497 . S
C402 C401 1.497 . S
C402 C403 1.395 1_565 S
C402 C404 1.380 . S
C403 C402 1.395 1_545 S
C403 C406 1.398 1_545 S
C403 H418 0.930 . S
C404 C402 1.380 . S
C404 C405 1.391 . S
C404 H419 0.930 . S
C405 C404 1.391 . S
C405 C407 1.387 . S
C406 C403 1.398 1_565 S
C406 C407 1.380 . S
C406 H420 0.930 1_565 S
C407 C405 1.387 . S
C407 C406 1.380 . S
C407 H421 0.930 . S
C408 O388 1.254 1_554 S
C408 O389 1.268 . S
C409 O393 1.284 1_556 S
C409 O396 1.250 . S
C410 Gd343 2.828 1_545 S
C410 O392 1.258 1_545 S
C410 O397 1.252 . S
C410 C411 1.497 . S
C411 C410 1.497 . S
C411 C412 1.395 1_545 S
C411 C413 1.380 . S
C412 C411 1.395 1_565 S
C412 C415 1.398 1_565 S
C412 H422 0.930 . S
C413 C411 1.380 . S
C413 C414 1.391 . S
C413 H423 0.930 . S
C414 C413 1.391 . S
C414 C416 1.387 . S
C415 C412 1.398 1_545 S
C415 C416 1.380 . S
C415 H424 0.930 1_545 S
C416 C414 1.387 . S
C416 C415 1.380 . S
C416 H425 0.930 . S
C417 O394 1.254 . S
C417 O395 1.268 1_554 S
H418 C403 0.930 . S
H419 C404 0.930 . S
H420 C406 0.930 1_545 S
H421 C407 0.930 . S
H422 C412 0.930 . S
H423 C413 0.930 . S
H424 C415 0.930 1_565 S
H425 C416 0.930 . S
Gd426 N457 2.661 . S
Gd426 N463 2.601 . S
Gd426 O470 2.545 . S
Gd426 O471 2.606 1_655 S
Gd426 O473 2.429 . S
Gd426 O474 2.545 1_655 S
Gd426 O475 2.412 1_655 S
Gd426 O477 2.362 . S
Gd426 O478 2.324 1_655 S
Gd426 C485 2.828 1_655 S
Gd427 N436 2.661 . S
Gd427 N440 2.601 . S
Gd427 O471 2.362 1_556 S
Gd427 O472 2.324 1_455 S
Gd427 O476 2.545 . S
Gd427 O477 2.606 1_456 S
Gd427 O479 2.429 . S
Gd427 O480 2.545 1_455 S
Gd427 O481 2.412 1_455 S
Gd427 C494 2.828 . S
C428 C431 1.417 . S
C428 C433 1.431 . S
C428 C434 1.412 . S
C429 C432 1.437 . S
C429 C433 1.317 . S
C429 H448 0.929 . S
C430 C431 1.426 . S
C430 C432 1.413 . S
C430 N440 1.359 . S
C431 C428 1.417 . S
C431 C430 1.426 . S
C431 N436 1.350 . S
C432 C429 1.437 . S
C432 C430 1.413 . S
C432 C442 1.391 . S
C433 C428 1.431 . S
C433 C429 1.317 . S
C433 H444 0.930 . S
C434 C428 1.412 . S
C434 C435 1.355 . S
C434 H446 0.930 . S
C435 C434 1.355 . S
C435 C437 1.402 . S
C435 H447 0.930 . S
N436 Gd427 2.661 . S
N436 C431 1.350 . S
N436 C437 1.307 . S
C437 C435 1.402 . S
C437 N436 1.307 . S
C437 H438 0.930 . S
H438 C437 0.930 . S
C439 N440 1.334 . S
C439 C441 1.394 . S
C439 H443 0.930 . S
N440 Gd427 2.601 . S
N440 C430 1.359 . S
N440 C439 1.334 . S
C441 C439 1.394 . S
C441 C442 1.359 . S
C441 H453 0.930 . S
C442 C432 1.391 . S
C442 C441 1.359 . S
C442 H454 0.929 . S
H443 C439 0.930 . S
H444 C433 0.930 . S
H445 C462 0.930 . S
H446 C434 0.930 . S
H447 C435 0.930 . S
H448 C429 0.929 . S
H449 C467 0.930 . S
H450 C458 0.930 . S
H451 C459 0.930 . S
H452 C483 0.929 . S
H453 C441 0.930 . S
H454 C442 0.929 . S
H455 C484 0.930 . S
H456 C465 0.930 . S
N457 Gd426 2.661 . S
N457 C461 1.350 . S
N457 C462 1.307 . S
C458 H450 0.930 . S
C458 C459 1.355 . S
C458 C460 1.412 . S
C459 H451 0.930 . S
C459 C458 1.355 . S
C459 C462 1.402 . S
C460 C458 1.412 . S
C460 C461 1.417 . S
C460 C484 1.431 . S
C461 N457 1.350 . S
C461 C460 1.417 . S
C461 C464 1.426 . S
C462 H445 0.930 . S
C462 N457 1.307 . S
C462 C459 1.402 . S
N463 Gd426 2.601 . S
N463 C464 1.359 . S
N463 C467 1.334 . S
C464 C461 1.426 . S
C464 N463 1.359 . S
C464 C468 1.413 . S
C465 H456 0.930 . S
C465 C466 1.359 . S
C465 C467 1.394 . S
C466 C465 1.359 . S
C466 C468 1.391 . S
C466 H469 0.929 . S
C467 H449 0.930 . S
C467 N463 1.334 . S
C467 C465 1.394 . S
C468 C464 1.413 . S
C468 C466 1.391 . S
C468 C483 1.437 . S
H469 C466 0.929 . S
O470 Gd426 2.545 . S
O470 C485 1.258 1_655 S
O471 Gd426 2.606 1_455 S
O471 Gd427 2.362 1_554 S
O471 C482 1.284 . S
O472 Gd427 2.324 1_655 S
O472 C492 1.258 . S
O473 Gd426 2.429 . S
O473 C492 1.262 1_554 S
O474 Gd426 2.545 1_455 S
O474 C482 1.250 . S
O475 Gd426 2.412 1_455 S
O475 C485 1.252 . S
O476 Gd427 2.545 . S
O476 C494 1.258 . S
O477 Gd426 2.362 . S
O477 Gd427 2.606 1_654 S
O477 C493 1.284 1_554 S
O478 Gd426 2.324 1_455 S
O478 C501 1.254 . S
O479 Gd427 2.429 . S
O479 C501 1.268 1_556 S
O480 Gd427 2.545 1_655 S
O480 C493 1.250 . S
O481 Gd427 2.412 1_655 S
O481 C494 1.252 1_655 S
C482 O471 1.284 . S
C482 O474 1.250 . S
C483 H452 0.929 . S
C483 C468 1.437 . S
C483 C484 1.317 . S
C484 H455 0.930 . S
C484 C460 1.431 . S
C484 C483 1.317 . S
C485 Gd426 2.828 1_455 S
C485 O470 1.258 1_455 S
C485 O475 1.252 . S
C485 C486 1.497 . S
C486 C485 1.497 . S
C486 C487 1.395 1_455 S
C486 C488 1.380 . S
C487 C486 1.395 1_655 S
C487 C490 1.398 1_655 S
C487 H502 0.930 . S
C488 C486 1.380 . S
C488 C489 1.391 . S
C488 H503 0.930 . S
C489 C488 1.391 . S
C489 C491 1.387 . S
C490 C487 1.398 1_455 S
C490 C491 1.380 . S
C490 H504 0.930 1_455 S
C491 C489 1.387 . S
C491 C490 1.380 . S
C491 H505 0.930 . S
C492 O472 1.258 . S
C492 O473 1.262 1_556 S
C493 O477 1.284 1_556 S
C493 O480 1.250 . S
C494 Gd427 2.828 . S
C494 O476 1.258 . S
C494 O481 1.252 1_455 S
C494 C495 1.497 1_455 S
C495 C494 1.497 1_655 S
C495 C496 1.395 1_655 S
C495 C497 1.380 . S
C496 C495 1.395 1_455 S
C496 C499 1.398 . S
C496 H506 0.930 . S
C497 C495 1.380 . S
C497 C498 1.391 . S
C497 H507 0.930 . S
C498 C497 1.391 . S
C498 C500 1.387 . S
C499 C496 1.398 . S
C499 C500 1.380 1_455 S
C499 H508 0.930 . S
C500 C498 1.387 . S
C500 C499 1.380 1_655 S
C500 H509 0.930 . S
C501 O478 1.254 . S
C501 O479 1.268 1_554 S
H502 C487 0.930 . S
H503 C488 0.930 . S
H504 C490 0.930 1_655 S
H505 C491 0.930 . S
H506 C496 0.930 . S
H507 C497 0.930 . S
H508 C499 0.930 . S
H509 C500 0.930 . S
Gd510 N541 2.661 . S
Gd510 N547 2.601 . S
Gd510 O554 2.545 . S
Gd510 O555 2.606 1_556 S
Gd510 O557 2.429 . S
Gd510 O558 2.545 . S
Gd510 O559 2.412 . S
Gd510 O561 2.362 1_556 S
Gd510 O562 2.324 . S
Gd510 C569 2.828 . S
Gd511 N520 2.661 . S
Gd511 N524 2.601 . S
Gd511 O555 2.362 . S
Gd511 O556 2.324 . S
Gd511 O560 2.545 . S
Gd511 O561 2.606 . S
Gd511 O563 2.429 . S
Gd511 O564 2.545 . S
Gd511 O565 2.412 . S
Gd511 C578 2.828 . S
C512 C515 1.417 . S
C512 C517 1.431 . S
C512 C518 1.412 . S
C513 C516 1.437 . S
C513 C517 1.317 . S
C513 H532 0.929 . S
C514 C515 1.426 . S
C514 C516 1.413 . S
C514 N524 1.359 . S
C515 C512 1.417 . S
C515 C514 1.426 . S
C515 N520 1.350 . S
C516 C513 1.437 . S
C516 C514 1.413 . S
C516 C526 1.391 . S
C517 C512 1.431 . S
C517 C513 1.317 . S
C517 H528 0.930 . S
C518 C512 1.412 . S
C518 C519 1.355 . S
C518 H530 0.930 . S
C519 C518 1.355 . S
C519 C521 1.402 . S
C519 H531 0.930 . S
N520 Gd511 2.661 . S
N520 C515 1.350 . S
N520 C521 1.307 . S
C521 C519 1.402 . S
C521 N520 1.307 . S
C521 H522 0.930 . S
H522 C521 0.930 . S
C523 N524 1.334 . S
C523 C525 1.394 . S
C523 H527 0.930 . S
N524 Gd511 2.601 . S
N524 C514 1.359 . S
N524 C523 1.334 . S
C525 C523 1.394 . S
C525 C526 1.359 . S
C525 H537 0.930 . S
C526 C516 1.391 . S
C526 C525 1.359 . S
C526 H538 0.929 . S
H527 C523 0.930 . S
H528 C517 0.930 . S
H529 C546 0.930 . S
H530 C518 0.930 . S
H531 C519 0.930 . S
H532 C513 0.929 . S
H533 C551 0.930 . S
H534 C542 0.930 . S
H535 C543 0.930 . S
H536 C567 0.929 . S
H537 C525 0.930 . S
H538 C526 0.929 . S
H539 C568 0.930 . S
H540 C549 0.930 . S
N541 Gd510 2.661 . S
N541 C545 1.350 . S
N541 C546 1.307 . S
C542 H534 0.930 . S
C542 C543 1.355 . S
C542 C544 1.412 . S
C543 H535 0.930 . S
C543 C542 1.355 . S
C543 C546 1.402 . S
C544 C542 1.412 . S
C544 C545 1.417 . S
C544 C568 1.431 . S
C545 N541 1.350 . S
C545 C544 1.417 . S
C545 C548 1.426 . S
C546 H529 0.930 . S
C546 N541 1.307 . S
C546 C543 1.402 . S
N547 Gd510 2.601 . S
N547 C548 1.359 . S
N547 C551 1.334 . S
C548 C545 1.426 . S
C548 N547 1.359 . S
C548 C552 1.413 . S
C549 H540 0.930 . S
C549 C550 1.359 . S
C549 C551 1.394 . S
C550 C549 1.359 . S
C550 C552 1.391 . S
C550 H553 0.929 . S
C551 H533 0.930 . S
C551 N547 1.334 . S
C551 C549 1.394 . S
C552 C548 1.413 . S
C552 C550 1.391 . S
C552 C567 1.437 . S
H553 C550 0.929 . S
O554 Gd510 2.545 . S
O554 C569 1.258 . S
O555 Gd510 2.606 1_554 S
O555 Gd511 2.362 . S
O555 C566 1.284 1_554 S
O556 Gd511 2.324 . S
O556 C576 1.254 . S
O557 Gd510 2.429 . S
O557 C576 1.268 1_556 S
O558 Gd510 2.545 . S
O558 C566 1.250 . S
O559 Gd510 2.412 . S
O559 C569 1.252 . S
O560 Gd511 2.545 . S
O560 C578 1.258 . S
O561 Gd510 2.362 1_554 S
O561 Gd511 2.606 . S
O561 C577 1.284 . S
O562 Gd510 2.324 . S
O562 C585 1.254 1_556 S
O563 Gd511 2.429 . S
O563 C585 1.268 . S
O564 Gd511 2.545 . S
O564 C577 1.250 . S
O565 Gd511 2.412 . S
O565 C578 1.252 . S
C566 O555 1.284 1_556 S
C566 O558 1.250 . S
C567 H536 0.929 . S
C567 C552 1.437 . S
C567 C568 1.317 . S
C568 H539 0.930 . S
C568 C544 1.431 . S
C568 C567 1.317 . S
C569 Gd510 2.828 . S
C569 O554 1.258 . S
C569 O559 1.252 . S
C569 C570 1.497 . S
C570 C569 1.497 . S
C570 C571 1.395 . S
C570 C572 1.380 . S
C571 C570 1.395 . S
C571 C574 1.398 . S
C571 H586 0.930 . S
C572 C570 1.380 . S
C572 C573 1.391 . S
C572 H587 0.930 . S
C573 C572 1.391 . S
C573 C575 1.387 . S
C574 C571 1.398 . S
C574 C575 1.380 . S
C574 H588 0.930 . S
C575 C573 1.387 . S
C575 C574 1.380 . S
C575 H589 0.930 . S
C576 O556 1.254 . S
C576 O557 1.268 1_554 S
C577 O561 1.284 . S
C577 O564 1.250 . S
C578 Gd511 2.828 . S
C578 O560 1.258 . S
C578 O565 1.252 . S
C578 C579 1.497 . S
C579 C578 1.497 . S
C579 C580 1.395 . S
C579 C581 1.380 . S
C580 C579 1.395 . S
C580 C583 1.398 . S
C580 H590 0.930 . S
C581 C579 1.380 . S
C581 C582 1.391 . S
C581 H591 0.930 . S
C582 C581 1.391 . S
C582 C584 1.387 . S
C583 C580 1.398 . S
C583 C584 1.380 . S
C583 H592 0.930 . S
C584 C582 1.387 . S
C584 C583 1.380 . S
C584 H593 0.930 . S
C585 O562 1.254 1_554 S
C585 O563 1.268 . S
H586 C571 0.930 . S
H587 C572 0.930 . S
H588 C574 0.930 . S
H589 C575 0.930 . S
H590 C580 0.930 . S
H591 C581 0.930 . S
H592 C583 0.930 . S
H593 C584 0.930 . S
Gd594 N625 2.661 . S
Gd594 N631 2.601 . S
Gd594 O638 2.545 . S
Gd594 O639 2.606 . S
Gd594 O641 2.429 . S
Gd594 O642 2.545 . S
Gd594 O643 2.412 . S
Gd594 O645 2.362 . S
Gd594 O646 2.324 . S
Gd594 C653 2.828 . S
Gd595 N604 2.661 . S
Gd595 N608 2.601 . S
Gd595 O639 2.362 . S
Gd595 O640 2.324 . S
Gd595 O644 2.545 . S
Gd595 O645 2.606 . S
Gd595 O647 2.429 . S
Gd595 O648 2.545 . S
Gd595 O649 2.412 . S
Gd595 C662 2.828 . S
C596 C599 1.417 1_655 S
C596 C601 1.431 . S
C596 C602 1.412 . S
C597 C600 1.437 1_655 S
C597 C601 1.317 . S
C597 H616 0.929 . S
C598 C599 1.426 . S
C598 C600 1.413 . S
C598 N608 1.359 . S
C599 C596 1.417 1_455 S
C599 C598 1.426 . S
C599 N604 1.350 . S
C600 C597 1.437 1_455 S
C600 C598 1.413 . S
C600 C610 1.391 . S
C601 C596 1.431 . S
C601 C597 1.317 . S
C601 H612 0.930 . S
C602 C596 1.412 . S
C602 C603 1.355 . S
C602 H614 0.930 . S
C603 C602 1.355 . S
C603 C605 1.402 1_655 S
C603 H615 0.930 . S
N604 Gd595 2.661 . S
N604 C599 1.350 . S
N604 C605 1.307 . S
C605 C603 1.402 1_455 S
C605 N604 1.307 . S
C605 H606 0.930 . S
H606 C605 0.930 . S
C607 N608 1.334 . S
C607 C609 1.394 . S
C607 H611 0.930 . S
N608 Gd595 2.601 . S
N608 C598 1.359 . S
N608 C607 1.334 . S
C609 C607 1.394 . S
C609 C610 1.359 . S
C609 H621 0.930 . S
C610 C600 1.391 . S
C610 C609 1.359 . S
C610 H622 0.929 . S
H611 C607 0.930 . S
H612 C601 0.930 . S
H613 C630 0.930 . S
H614 C602 0.930 . S
H615 C603 0.930 . S
H616 C597 0.929 . S
H617 C635 0.930 . S
H618 C626 0.930 . S
H619 C627 0.930 . S
H620 C651 0.929 . S
H621 C609 0.930 . S
H622 C610 0.929 . S
H623 C652 0.930 . S
H624 C633 0.930 . S
N625 Gd594 2.661 . S
N625 C629 1.350 . S
N625 C630 1.307 . S
C626 H618 0.930 . S
C626 C627 1.355 . S
C626 C628 1.412 . S
C627 H619 0.930 . S
C627 C626 1.355 . S
C627 C630 1.402 . S
C628 C626 1.412 . S
C628 C629 1.417 . S
C628 C652 1.431 . S
C629 N625 1.350 . S
C629 C628 1.417 . S
C629 C632 1.426 . S
C630 H613 0.930 . S
C630 N625 1.307 . S
C630 C627 1.402 . S
N631 Gd594 2.601 . S
N631 C632 1.359 . S
N631 C635 1.334 . S
C632 C629 1.426 . S
C632 N631 1.359 . S
C632 C636 1.413 . S
C633 H624 0.930 . S
C633 C634 1.359 . S
C633 C635 1.394 . S
C634 C633 1.359 . S
C634 C636 1.391 . S
C634 H637 0.929 . S
C635 H617 0.930 . S
C635 N631 1.334 . S
C635 C633 1.394 . S
C636 C632 1.413 . S
C636 C634 1.391 . S
C636 C651 1.437 . S
H637 C634 0.929 . S
O638 Gd594 2.545 . S
O638 C653 1.258 . S
O639 Gd594 2.606 . S
O639 Gd595 2.362 . S
O639 C650 1.284 . S
O640 Gd595 2.324 . S
O640 C660 1.254 . S
O641 Gd594 2.429 . S
O641 C660 1.268 . S
O642 Gd594 2.545 . S
O642 C650 1.250 . S
O643 Gd594 2.412 . S
O643 C653 1.252 . S
O644 Gd595 2.545 . S
O644 C662 1.258 . S
O645 Gd594 2.362 . S
O645 Gd595 2.606 . S
O645 C661 1.284 . S
O646 Gd594 2.324 . S
O646 C669 1.254 . S
O647 Gd595 2.429 . S
O647 C669 1.268 . S
O648 Gd595 2.545 . S
O648 C661 1.250 . S
O649 Gd595 2.412 . S
O649 C662 1.252 . S
C650 O639 1.284 . S
C650 O642 1.250 . S
C651 H620 0.929 . S
C651 C636 1.437 . S
C651 C652 1.317 . S
C652 H623 0.930 . S
C652 C628 1.431 . S
C652 C651 1.317 . S
C653 Gd594 2.828 . S
C653 O638 1.258 . S
C653 O643 1.252 . S
C653 C654 1.497 . S
C654 C653 1.497 . S
C654 C655 1.395 . S
C654 C656 1.380 . S
C655 C654 1.395 . S
C655 C658 1.398 . S
C655 H670 0.930 . S
C656 C654 1.380 . S
C656 C657 1.391 . S
C656 H671 0.930 . S
C657 C656 1.391 . S
C657 C659 1.387 . S
C658 C655 1.398 . S
C658 C659 1.380 . S
C658 H672 0.930 . S
C659 C657 1.387 . S
C659 C658 1.380 . S
C659 H673 0.930 . S
C660 O640 1.254 . S
C660 O641 1.268 . S
C661 O645 1.284 . S
C661 O648 1.250 . S
C662 Gd595 2.828 . S
C662 O644 1.258 . S
C662 O649 1.252 . S
C662 C663 1.497 . S
C663 C662 1.497 . S
C663 C664 1.395 . S
C663 C665 1.380 . S
C664 C663 1.395 . S
C664 C667 1.398 . S
C664 H674 0.930 . S
C665 C663 1.380 . S
C665 C666 1.391 . S
C665 H675 0.930 . S
C666 C665 1.391 . S
C666 C668 1.387 . S
C667 C664 1.398 . S
C667 C668 1.380 . S
C667 H676 0.930 . S
C668 C666 1.387 . S
C668 C667 1.380 . S
C668 H677 0.930 . S
C669 O646 1.254 . S
C669 O647 1.268 . S
H670 C655 0.930 . S
H671 C656 0.930 . S
H672 C658 0.930 . S
H673 C659 0.930 . S
H674 C664 0.930 . S
H675 C665 0.930 . S
H676 C667 0.930 . S
H677 C668 0.930 . S
Gd678 N709 2.661 . S
Gd678 N715 2.601 . S
Gd678 O722 2.545 . S
Gd678 O723 2.606 . S
Gd678 O725 2.429 . S
Gd678 O726 2.545 . S
Gd678 O727 2.412 . S
Gd678 O729 2.362 . S
Gd678 O730 2.324 . S
Gd678 C737 2.828 . S
Gd679 N688 2.661 . S
Gd679 N692 2.601 . S
Gd679 O723 2.362 . S
Gd679 O724 2.324 . S
Gd679 O728 2.545 . S
Gd679 O729 2.606 . S
Gd679 O731 2.429 . S
Gd679 O732 2.545 . S
Gd679 O733 2.412 . S
Gd679 C746 2.828 . S
C680 C683 1.417 . S
C680 C685 1.431 . S
C680 C686 1.412 . S
C681 C684 1.437 . S
C681 C685 1.317 . S
C681 H700 0.929 . S
C682 C683 1.426 . S
C682 C684 1.413 . S
C682 N692 1.359 . S
C683 C680 1.417 . S
C683 C682 1.426 . S
C683 N688 1.350 . S
C684 C681 1.437 . S
C684 C682 1.413 . S
C684 C694 1.391 . S
C685 C680 1.431 . S
C685 C681 1.317 . S
C685 H696 0.930 . S
C686 C680 1.412 . S
C686 C687 1.355 . S
C686 H698 0.930 . S
C687 C686 1.355 . S
C687 C689 1.402 . S
C687 H699 0.930 . S
N688 Gd679 2.661 . S
N688 C683 1.350 . S
N688 C689 1.307 . S
C689 C687 1.402 . S
C689 N688 1.307 . S
C689 H690 0.930 . S
H690 C689 0.930 . S
C691 N692 1.334 . S
C691 C693 1.394 . S
C691 H695 0.930 . S
N692 Gd679 2.601 . S
N692 C682 1.359 . S
N692 C691 1.334 . S
C693 C691 1.394 . S
C693 C694 1.359 . S
C693 H705 0.930 . S
C694 C684 1.391 . S
C694 C693 1.359 . S
C694 H706 0.929 . S
H695 C691 0.930 . S
H696 C685 0.930 . S
H697 C714 0.930 . S
H698 C686 0.930 . S
H699 C687 0.930 . S
H700 C681 0.929 . S
H701 C719 0.930 . S
H702 C710 0.930 . S
H703 C711 0.930 . S
H704 C735 0.929 . S
H705 C693 0.930 . S
H706 C694 0.929 . S
H707 C736 0.930 . S
H708 C717 0.930 . S
N709 Gd678 2.661 . S
N709 C713 1.350 . S
N709 C714 1.307 . S
C710 H702 0.930 . S
C710 C711 1.355 . S
C710 C712 1.412 . S
C711 H703 0.930 . S
C711 C710 1.355 . S
C711 C714 1.402 . S
C712 C710 1.412 . S
C712 C713 1.417 . S
C712 C736 1.431 . S
C713 N709 1.350 . S
C713 C712 1.417 . S
C713 C716 1.426 . S
C714 H697 0.930 . S
C714 N709 1.307 . S
C714 C711 1.402 . S
N715 Gd678 2.601 . S
N715 C716 1.359 . S
N715 C719 1.334 . S
C716 C713 1.426 . S
C716 N715 1.359 . S
C716 C720 1.413 . S
C717 H708 0.930 . S
C717 C718 1.359 . S
C717 C719 1.394 . S
C718 C717 1.359 . S
C718 C720 1.391 . S
C718 H721 0.929 . S
C719 H701 0.930 . S
C719 N715 1.334 . S
C719 C717 1.394 . S
C720 C716 1.413 . S
C720 C718 1.391 . S
C720 C735 1.437 . S
H721 C718 0.929 . S
O722 Gd678 2.545 . S
O722 C737 1.258 . S
O723 Gd678 2.606 . S
O723 Gd679 2.362 . S
O723 C734 1.284 . S
O724 Gd679 2.324 . S
O724 C744 1.254 . S
O725 Gd678 2.429 . S
O725 C744 1.268 . S
O726 Gd678 2.545 . S
O726 C734 1.250 . S
O727 Gd678 2.412 . S
O727 C737 1.252 . S
O728 Gd679 2.545 . S
O728 C746 1.258 . S
O729 Gd678 2.362 . S
O729 Gd679 2.606 . S
O729 C745 1.284 . S
O730 Gd678 2.324 . S
O730 C753 1.254 . S
O731 Gd679 2.429 . S
O731 C753 1.268 . S
O732 Gd679 2.545 . S
O732 C745 1.250 . S
O733 Gd679 2.412 . S
O733 C746 1.252 . S
C734 O723 1.284 . S
C734 O726 1.250 . S
C735 H704 0.929 . S
C735 C720 1.437 . S
C735 C736 1.317 . S
C736 H707 0.930 . S
C736 C712 1.431 . S
C736 C735 1.317 . S
C737 Gd678 2.828 . S
C737 O722 1.258 . S
C737 O727 1.252 . S
C737 C738 1.497 . S
C738 C737 1.497 . S
C738 C739 1.395 . S
C738 C740 1.380 . S
C739 C738 1.395 . S
C739 C742 1.398 . S
C739 H754 0.930 . S
C740 C738 1.380 . S
C740 C741 1.391 . S
C740 H755 0.930 . S
C741 C740 1.391 . S
C741 C743 1.387 . S
C742 C739 1.398 . S
C742 C743 1.380 . S
C742 H756 0.930 . S
C743 C741 1.387 . S
C743 C742 1.380 . S
C743 H757 0.930 . S
C744 O724 1.254 . S
C744 O725 1.268 . S
C745 O729 1.284 . S
C745 O732 1.250 . S
C746 Gd679 2.828 . S
C746 O728 1.258 . S
C746 O733 1.252 . S
C746 C747 1.497 . S
C747 C746 1.497 . S
C747 C748 1.395 . S
C747 C749 1.380 . S
C748 C747 1.395 . S
C748 C751 1.398 . S
C748 H758 0.930 . S
C749 C747 1.380 . S
C749 C750 1.391 . S
C749 H759 0.930 . S
C750 C749 1.391 . S
C750 C752 1.387 . S
C751 C748 1.398 . S
C751 C752 1.380 . S
C751 H760 0.930 . S
C752 C750 1.387 . S
C752 C751 1.380 . S
C752 H761 0.930 . S
C753 O730 1.254 . S
C753 O731 1.268 . S
H754 C739 0.930 . S
H755 C740 0.930 . S
H756 C742 0.930 . S
H757 C743 0.930 . S
H758 C748 0.930 . S
H759 C749 0.930 . S
H760 C751 0.930 . S
H761 C752 0.930 . S
Gd762 N793 2.661 . S
Gd762 N799 2.601 . S
Gd762 O806 2.545 . S
Gd762 O807 2.606 . S
Gd762 O809 2.429 . S
Gd762 O810 2.545 . S
Gd762 O811 2.412 . S
Gd762 O813 2.362 . S
Gd762 O814 2.324 . S
Gd762 C821 2.828 . S
Gd763 N772 2.661 . S
Gd763 N776 2.601 . S
Gd763 O807 2.362 . S
Gd763 O808 2.324 . S
Gd763 O812 2.545 . S
Gd763 O813 2.606 . S
Gd763 O815 2.429 . S
Gd763 O816 2.545 . S
Gd763 O817 2.412 . S
Gd763 C830 2.828 . S
C764 C767 1.417 . S
C764 C769 1.431 . S
C764 C770 1.412 . S
C765 C768 1.437 . S
C765 C769 1.317 . S
C765 H784 0.929 . S
C766 C767 1.426 . S
C766 C768 1.413 . S
C766 N776 1.359 . S
C767 C764 1.417 . S
C767 C766 1.426 . S
C767 N772 1.350 . S
C768 C765 1.437 . S
C768 C766 1.413 . S
C768 C778 1.391 . S
C769 C764 1.431 . S
C769 C765 1.317 . S
C769 H780 0.930 . S
C770 C764 1.412 . S
C770 C771 1.355 . S
C770 H782 0.930 . S
C771 C770 1.355 . S
C771 C773 1.402 . S
C771 H783 0.949 . S
N772 Gd763 2.661 . S
N772 C767 1.350 . S
N772 C773 1.307 . S
C773 C771 1.402 . S
C773 N772 1.307 . S
C773 H774 0.930 . S
H774 C773 0.930 . S
C775 N776 1.334 . S
C775 C777 1.394 . S
C775 H779 0.930 . S
N776 Gd763 2.601 . S
N776 C766 1.359 . S
N776 C775 1.334 . S
C777 C775 1.394 . S
C777 C778 1.359 . S
C777 H789 0.930 . S
C778 C768 1.391 . S
C778 C777 1.359 . S
C778 H790 0.929 . S
H779 C775 0.930 . S
H780 C769 0.930 . S
H781 C798 0.930 . S
H782 C770 0.930 . S
H783 C771 0.949 . S
H784 C765 0.929 . S
H785 C803 0.930 . S
H786 C794 0.930 . S
H787 C795 0.930 . S
H788 C819 0.929 . S
H789 C777 0.930 . S
H790 C778 0.929 . S
H791 C820 0.930 . S
H792 C801 0.954 . S
N793 Gd762 2.661 . S
N793 C797 1.350 . S
N793 C798 1.307 . S
C794 H786 0.930 . S
C794 C795 1.355 . S
C794 C796 1.412 . S
C795 H787 0.930 . S
C795 C794 1.355 . S
C795 C798 1.402 . S
C796 C794 1.412 . S
C796 C797 1.417 . S
C796 C820 1.431 . S
C797 N793 1.350 . S
C797 C796 1.417 . S
C797 C800 1.426 . S
C798 H781 0.930 . S
C798 N793 1.307 . S
C798 C795 1.402 . S
N799 Gd762 2.601 . S
N799 C800 1.359 . S
N799 C803 1.334 . S
C800 C797 1.426 . S
C800 N799 1.359 . S
C800 C804 1.413 . S
C801 H792 0.954 . S
C801 C802 1.359 . S
C801 C803 1.394 . S
C802 C801 1.359 . S
C802 C804 1.391 . S
C802 H805 0.929 . S
C803 H785 0.930 . S
C803 N799 1.334 . S
C803 C801 1.394 . S
C804 C800 1.413 . S
C804 C802 1.391 . S
C804 C819 1.437 . S
H805 C802 0.929 . S
O806 Gd762 2.545 . S
O806 C821 1.258 . S
O807 Gd762 2.606 . S
O807 Gd763 2.362 . S
O807 C818 1.284 . S
O808 Gd763 2.324 . S
O808 C828 1.254 . S
O809 Gd762 2.429 . S
O809 C828 1.268 . S
O810 Gd762 2.545 . S
O810 C818 1.250 . S
O811 Gd762 2.412 . S
O811 C821 1.252 . S
O812 Gd763 2.545 . S
O812 C830 1.258 . S
O813 Gd762 2.362 . S
O813 Gd763 2.606 . S
O813 C829 1.284 . S
O814 Gd762 2.324 . S
O814 C837 1.254 . S
O815 Gd763 2.429 . S
O815 C837 1.268 . S
O816 Gd763 2.545 . S
O816 C829 1.250 . S
O817 Gd763 2.412 . S
O817 C830 1.252 . S
C818 O807 1.284 . S
C818 O810 1.250 . S
C819 H788 0.929 . S
C819 C804 1.437 . S
C819 C820 1.317 . S
C820 H791 0.930 . S
C820 C796 1.431 . S
C820 C819 1.317 . S
C821 Gd762 2.828 . S
C821 O806 1.258 . S
C821 O811 1.252 . S
C821 C822 1.497 . S
C822 C821 1.497 . S
C822 C823 1.395 . S
C822 C824 1.380 . S
C823 C822 1.395 . S
C823 C826 1.398 . S
C823 H838 0.930 . S
C824 C822 1.380 . S
C824 C825 1.391 . S
C824 H839 0.930 . S
C825 C824 1.391 . S
C825 C827 1.387 . S
C826 C823 1.398 . S
C826 C827 1.380 . S
C826 H840 0.930 . S
C827 C825 1.387 . S
C827 C826 1.380 . S
C827 H841 0.930 . S
C828 O808 1.254 . S
C828 O809 1.268 . S
C829 O813 1.284 . S
C829 O816 1.250 . S
C830 Gd763 2.828 . S
C830 O812 1.258 . S
C830 O817 1.252 . S
C830 C831 1.497 . S
C831 C830 1.497 . S
C831 C832 1.395 . S
C831 C833 1.380 . S
C832 C831 1.395 . S
C832 C835 1.398 . S
C832 H842 0.930 . S
C833 C831 1.380 . S
C833 C834 1.391 . S
C833 H843 0.930 . S
C834 C833 1.391 . S
C834 C836 1.387 . S
C835 C832 1.398 . S
C835 C836 1.380 . S
C835 H844 0.930 . S
C836 C834 1.387 . S
C836 C835 1.380 . S
C836 H845 0.930 . S
C837 O814 1.254 . S
C837 O815 1.268 . S
H838 C823 0.930 . S
H839 C824 0.930 . S
H840 C826 0.930 . S
H841 C827 0.930 . S
H842 C832 0.930 . S
H843 C833 0.930 . S
H844 C835 0.930 . S
H845 C836 0.930 . S
Gd846 N877 2.661 . S
Gd846 N883 2.601 . S
Gd846 O890 2.545 . S
Gd846 O891 2.606 . S
Gd846 O893 2.429 . S
Gd846 O894 2.545 . S
Gd846 O895 2.412 . S
Gd846 O897 2.362 . S
Gd846 O898 2.324 . S
Gd846 C905 2.828 . S
Gd847 N856 2.661 . S
Gd847 N860 2.601 . S
Gd847 O891 2.362 . S
Gd847 O892 2.324 . S
Gd847 O896 2.545 . S
Gd847 O897 2.606 . S
Gd847 O899 2.429 . S
Gd847 O900 2.545 . S
Gd847 O901 2.412 . S
Gd847 C914 2.828 . S
C848 C851 1.417 . S
C848 C853 1.431 . S
C848 C854 1.412 . S
C849 C852 1.437 . S
C849 C853 1.317 . S
C849 H868 0.929 . S
C850 C851 1.426 . S
C850 C852 1.413 . S
C850 N860 1.359 . S
C851 C848 1.417 . S
C851 C850 1.426 . S
C851 N856 1.350 . S
C852 C849 1.437 . S
C852 C850 1.413 . S
C852 C862 1.391 . S
C853 C848 1.431 . S
C853 C849 1.317 . S
C853 H864 0.930 . S
C854 C848 1.412 . S
C854 C855 1.355 . S
C854 H866 0.930 . S
C855 C854 1.355 . S
C855 C857 1.402 . S
C855 H867 0.930 . S
N856 Gd847 2.661 . S
N856 C851 1.350 . S
N856 C857 1.307 . S
C857 C855 1.402 . S
C857 N856 1.307 . S
C857 H858 0.930 . S
H858 C857 0.930 . S
C859 N860 1.334 . S
C859 C861 1.394 . S
C859 H863 0.930 . S
N860 Gd847 2.601 . S
N860 C850 1.359 . S
N860 C859 1.334 . S
C861 C859 1.394 . S
C861 C862 1.359 . S
C861 H873 0.930 . S
C862 C852 1.391 . S
C862 C861 1.359 . S
C862 H874 0.929 . S
H863 C859 0.930 . S
H864 C853 0.930 . S
H865 C882 0.930 . S
H866 C854 0.930 . S
H867 C855 0.930 . S
H868 C849 0.929 . S
H869 C887 0.930 . S
H870 C878 0.930 . S
H871 C879 0.930 . S
H872 C903 0.929 . S
H873 C861 0.930 . S
H874 C862 0.929 . S
H875 C904 0.930 . S
H876 C885 0.930 . S
N877 Gd846 2.661 . S
N877 C881 1.350 . S
N877 C882 1.307 . S
C878 H870 0.930 . S
C878 C879 1.355 . S
C878 C880 1.412 . S
C879 H871 0.930 . S
C879 C878 1.355 . S
C879 C882 1.402 . S
C880 C878 1.412 . S
C880 C881 1.417 . S
C880 C904 1.431 . S
C881 N877 1.350 . S
C881 C880 1.417 . S
C881 C884 1.426 . S
C882 H865 0.930 . S
C882 N877 1.307 . S
C882 C879 1.402 . S
N883 Gd846 2.601 . S
N883 C884 1.359 . S
N883 C887 1.334 . S
C884 C881 1.426 . S
C884 N883 1.359 . S
C884 C888 1.413 . S
C885 H876 0.930 . S
C885 C886 1.359 . S
C885 C887 1.394 . S
C886 C885 1.359 . S
C886 C888 1.391 . S
C886 H889 0.929 . S
C887 H869 0.930 . S
C887 N883 1.334 . S
C887 C885 1.394 . S
C888 C884 1.413 . S
C888 C886 1.391 . S
C888 C903 1.437 . S
H889 C886 0.929 . S
O890 Gd846 2.545 . S
O890 C905 1.258 . S
O891 Gd846 2.606 . S
O891 Gd847 2.362 . S
O891 C902 1.284 . S
O892 Gd847 2.324 . S
O892 C912 1.254 . S
O893 Gd846 2.429 . S
O893 C912 1.268 . S
O894 Gd846 2.545 . S
O894 C902 1.250 . S
O895 Gd846 2.412 . S
O895 C905 1.252 . S
O896 Gd847 2.545 . S
O896 C914 1.258 . S
O897 Gd846 2.362 . S
O897 Gd847 2.606 . S
O897 C913 1.284 . S
O898 Gd846 2.324 . S
O898 C921 1.254 . S
O899 Gd847 2.429 . S
O899 C921 1.268 . S
O900 Gd847 2.545 . S
O900 C913 1.250 . S
O901 Gd847 2.412 . S
O901 C914 1.252 . S
C902 O891 1.284 . S
C902 O894 1.250 . S
C903 H872 0.929 . S
C903 C888 1.437 . S
C903 C904 1.317 . S
C904 H875 0.930 . S
C904 C880 1.431 . S
C904 C903 1.317 . S
C905 Gd846 2.828 . S
C905 O890 1.258 . S
C905 O895 1.252 . S
C905 C906 1.497 . S
C906 C905 1.497 . S
C906 C907 1.395 . S
C906 C908 1.380 . S
C907 C906 1.395 . S
C907 C910 1.398 . S
C907 H922 0.930 . S
C908 C906 1.380 . S
C908 C909 1.391 . S
C908 H923 0.930 . S
C909 C908 1.391 . S
C909 C911 1.387 . S
C910 C907 1.398 . S
C910 C911 1.380 . S
C910 H924 0.930 . S
C911 C909 1.387 . S
C911 C910 1.380 . S
C911 H925 0.930 . S
C912 O892 1.254 . S
C912 O893 1.268 . S
C913 O897 1.284 . S
C913 O900 1.250 . S
C914 Gd847 2.828 . S
C914 O896 1.258 . S
C914 O901 1.252 . S
C914 C915 1.497 . S
C915 C914 1.497 . S
C915 C916 1.395 . S
C915 C917 1.380 . S
C916 C915 1.395 . S
C916 C919 1.398 . S
C916 H926 0.930 . S
C917 C915 1.380 . S
C917 C918 1.391 . S
C917 H927 0.930 . S
C918 C917 1.391 . S
C918 C920 1.387 . S
C919 C916 1.398 . S
C919 C920 1.380 . S
C919 H928 0.930 . S
C920 C918 1.387 . S
C920 C919 1.380 . S
C920 H929 0.930 . S
C921 O898 1.254 . S
C921 O899 1.268 . S
H922 C907 0.930 . S
H923 C908 0.930 . S
H924 C910 0.930 . S
H925 C911 0.930 . S
H926 C916 0.930 . S
H927 C917 0.930 . S
H928 C919 0.930 . S
H929 C920 0.930 . S
Gd930 N961 2.661 . S
Gd930 N967 2.601 . S
Gd930 O974 2.545 . S
Gd930 O975 2.606 . S
Gd930 O977 2.429 . S
Gd930 O978 2.545 . S
Gd930 O979 2.412 . S
Gd930 O981 2.362 . S
Gd930 O982 2.324 . S
Gd930 C989 2.828 . S
Gd931 N940 2.661 . S
Gd931 N944 2.601 . S
Gd931 O975 2.362 . S
Gd931 O976 2.324 . S
Gd931 O980 2.545 . S
Gd931 O981 2.606 . S
Gd931 O983 2.429 . S
Gd931 O984 2.545 . S
Gd931 O985 2.412 . S
Gd931 C998 2.828 . S
C932 C935 1.417 . S
C932 C937 1.431 . S
C932 C938 1.412 . S
C933 C936 1.437 . S
C933 C937 1.317 . S
C933 H952 0.929 . S
C934 C935 1.426 . S
C934 C936 1.413 . S
C934 N944 1.359 . S
C935 C932 1.417 . S
C935 C934 1.426 . S
C935 N940 1.350 . S
C936 C933 1.437 . S
C936 C934 1.413 . S
C936 C946 1.391 . S
C937 C932 1.431 . S
C937 C933 1.317 . S
C937 H948 0.930 . S
C938 C932 1.412 . S
C938 C939 1.355 . S
C938 H950 0.930 . S
C939 C938 1.355 . S
C939 C941 1.402 . S
C939 H951 0.930 . S
N940 Gd931 2.661 . S
N940 C935 1.350 . S
N940 C941 1.307 . S
C941 C939 1.402 . S
C941 N940 1.307 . S
C941 H942 0.930 . S
H942 C941 0.930 . S
C943 N944 1.334 . S
C943 C945 1.394 . S
C943 H947 0.930 . S
N944 Gd931 2.601 . S
N944 C934 1.359 . S
N944 C943 1.334 . S
C945 C943 1.394 . S
C945 C946 1.359 . S
C945 H957 0.930 . S
C946 C936 1.391 . S
C946 C945 1.359 . S
C946 H958 0.929 . S
H947 C943 0.930 . S
H948 C937 0.930 . S
H949 C966 0.930 . S
H950 C938 0.930 . S
H951 C939 0.930 . S
H952 C933 0.929 . S
H953 C971 0.930 . S
H954 C962 0.930 . S
H955 C963 0.930 . S
H956 C987 0.929 . S
H957 C945 0.930 . S
H958 C946 0.929 . S
H959 C988 0.930 . S
H960 C969 0.930 . S
N961 Gd930 2.661 . S
N961 C965 1.350 . S
N961 C966 1.307 . S
C962 H954 0.930 . S
C962 C963 1.355 . S
C962 C964 1.412 . S
C963 H955 0.930 . S
C963 C962 1.355 . S
C963 C966 1.402 . S
C964 C962 1.412 . S
C964 C965 1.417 . S
C964 C988 1.431 . S
C965 N961 1.350 . S
C965 C964 1.417 . S
C965 C968 1.426 . S
C966 H949 0.930 . S
C966 N961 1.307 . S
C966 C963 1.402 . S
N967 Gd930 2.601 . S
N967 C968 1.359 . S
N967 C971 1.334 . S
C968 C965 1.426 . S
C968 N967 1.359 . S
C968 C972 1.413 . S
C969 H960 0.930 . S
C969 C970 1.359 . S
C969 C971 1.394 . S
C970 C969 1.359 . S
C970 C972 1.391 . S
C970 H973 0.929 . S
C971 H953 0.930 . S
C971 N967 1.334 . S
C971 C969 1.394 . S
C972 C968 1.413 . S
C972 C970 1.391 . S
C972 C987 1.437 . S
H973 C970 0.929 . S
O974 Gd930 2.545 . S
O974 C989 1.258 . S
O975 Gd930 2.606 . S
O975 Gd931 2.362 . S
O975 C986 1.284 . S
O976 Gd931 2.324 . S
O976 C996 1.254 . S
O977 Gd930 2.429 . S
O977 C996 1.268 . S
O978 Gd930 2.545 . S
O978 C986 1.250 . S
O979 Gd930 2.412 . S
O979 C989 1.252 . S
O980 Gd931 2.545 . S
O980 C998 1.258 . S
O981 Gd930 2.362 . S
O981 Gd931 2.606 . S
O981 C997 1.284 . S
O982 Gd930 2.324 . S
O982 C1005 1.254 . S
O983 Gd931 2.429 . S
O983 C1005 1.268 . S
O984 Gd931 2.545 . S
O984 C997 1.250 . S
O985 Gd931 2.412 . S
O985 C998 1.252 . S
C986 O975 1.284 . S
C986 O978 1.250 . S
C987 H956 0.929 . S
C987 C972 1.437 . S
C987 C988 1.317 . S
C988 H959 0.930 . S
C988 C964 1.431 . S
C988 C987 1.317 . S
C989 Gd930 2.828 . S
C989 O974 1.258 . S
C989 O979 1.252 . S
C989 C990 1.497 . S
C990 C989 1.497 . S
C990 C991 1.395 . S
C990 C992 1.380 . S
C991 C990 1.395 . S
C991 C994 1.398 . S
C991 H1006 0.930 . S
C992 C990 1.380 . S
C992 C993 1.391 . S
C992 H1007 0.930 . S
C993 C992 1.391 . S
C993 C995 1.387 . S
C994 C991 1.398 . S
C994 C995 1.380 . S
C994 H1008 0.930 . S
C995 C993 1.387 . S
C995 C994 1.380 . S
C995 H1009 0.930 . S
C996 O976 1.254 . S
C996 O977 1.268 . S
C997 O981 1.284 . S
C997 O984 1.250 . S
C998 Gd931 2.828 . S
C998 O980 1.258 . S
C998 O985 1.252 . S
C998 C999 1.497 . S
C999 C998 1.497 . S
C999 C1000 1.395 . S
C999 C1001 1.380 . S
C1000 C999 1.395 . S
C1000 C1003 1.398 . S
C1000 H1010 0.930 . S
C1001 C999 1.380 . S
C1001 C1002 1.391 . S
C1001 H1011 0.930 . S
C1002 C1001 1.391 . S
C1002 C1004 1.387 . S
C1003 C1000 1.398 . S
C1003 C1004 1.380 . S
C1003 H1012 0.930 . S
C1004 C1002 1.387 . S
C1004 C1003 1.380 . S
C1004 H1013 0.930 . S
C1005 O982 1.254 . S
C1005 O983 1.268 . S
H1006 C991 0.930 . S
H1007 C992 0.930 . S
H1008 C994 0.930 . S
H1009 C995 0.930 . S
H1010 C1000 0.930 . S
H1011 C1001 0.930 . S
H1012 C1003 0.930 . S
H1013 C1004 0.930 . S
Gd1014 N1045 2.661 . S
Gd1014 N1051 2.601 . S
Gd1014 O1058 2.545 . S
Gd1014 O1059 2.606 . S
Gd1014 O1061 2.429 . S
Gd1014 O1062 2.545 . S
Gd1014 O1063 2.412 . S
Gd1014 O1065 2.362 . S
Gd1014 O1066 2.324 . S
Gd1014 C1073 2.828 . S
Gd1015 N1024 2.661 . S
Gd1015 N1028 2.601 . S
Gd1015 O1059 2.362 . S
Gd1015 O1060 2.324 . S
Gd1015 O1064 2.545 . S
Gd1015 O1065 2.606 . S
Gd1015 O1067 2.429 . S
Gd1015 O1068 2.545 . S
Gd1015 O1069 2.412 . S
Gd1015 C1082 2.828 . S
C1016 C1019 1.417 1_455 S
C1016 C1021 1.431 . S
C1016 C1022 1.412 . S
C1017 C1020 1.437 1_455 S
C1017 C1021 1.317 . S
C1017 H1036 0.929 . S
C1018 C1019 1.426 . S
C1018 C1020 1.413 . S
C1018 N1028 1.359 . S
C1019 C1016 1.417 1_655 S
C1019 C1018 1.426 . S
C1019 N1024 1.350 . S
C1020 C1017 1.437 1_655 S
C1020 C1018 1.413 . S
C1020 C1030 1.391 . S
C1021 C1016 1.431 . S
C1021 C1017 1.317 . S
C1021 H1032 0.930 . S
C1022 C1016 1.412 . S
C1022 C1023 1.355 . S
C1022 H1034 0.930 . S
C1023 C1022 1.355 . S
C1023 C1025 1.402 1_455 S
C1023 H1035 0.930 . S
N1024 Gd1015 2.661 . S
N1024 C1019 1.350 . S
N1024 C1025 1.307 . S
C1025 C1023 1.402 1_655 S
C1025 N1024 1.307 . S
C1025 H1026 0.930 . S
H1026 C1025 0.930 . S
C1027 N1028 1.334 . S
C1027 C1029 1.394 . S
C1027 H1031 0.930 . S
N1028 Gd1015 2.601 . S
N1028 C1018 1.359 . S
N1028 C1027 1.334 . S
C1029 C1027 1.394 . S
C1029 C1030 1.359 . S
C1029 H1041 0.930 . S
C1030 C1020 1.391 . S
C1030 C1029 1.359 . S
C1030 H1042 0.929 . S
H1031 C1027 0.930 . S
H1032 C1021 0.930 . S
H1033 C1050 0.930 . S
H1034 C1022 0.930 . S
H1035 C1023 0.930 . S
H1036 C1017 0.929 . S
H1037 C1055 0.930 . S
H1038 C1046 0.930 . S
H1039 C1047 0.930 . S
H1040 C1071 0.929 . S
H1041 C1029 0.930 . S
H1042 C1030 0.929 . S
H1043 C1072 0.930 . S
H1044 C1053 0.930 . S
N1045 Gd1014 2.661 . S
N1045 C1049 1.350 . S
N1045 C1050 1.307 . S
C1046 H1038 0.930 . S
C1046 C1047 1.355 . S
C1046 C1048 1.412 . S
C1047 H1039 0.930 . S
C1047 C1046 1.355 . S
C1047 C1050 1.402 . S
C1048 C1046 1.412 . S
C1048 C1049 1.417 . S
C1048 C1072 1.431 . S
C1049 N1045 1.350 . S
C1049 C1048 1.417 . S
C1049 C1052 1.426 . S
C1050 H1033 0.930 . S
C1050 N1045 1.307 . S
C1050 C1047 1.402 . S
N1051 Gd1014 2.601 . S
N1051 C1052 1.359 . S
N1051 C1055 1.334 . S
C1052 C1049 1.426 . S
C1052 N1051 1.359 . S
C1052 C1056 1.413 . S
C1053 H1044 0.930 . S
C1053 C1054 1.359 . S
C1053 C1055 1.394 . S
C1054 C1053 1.359 . S
C1054 C1056 1.391 . S
C1054 H1057 0.929 . S
C1055 H1037 0.930 . S
C1055 N1051 1.334 . S
C1055 C1053 1.394 . S
C1056 C1052 1.413 . S
C1056 C1054 1.391 . S
C1056 C1071 1.437 . S
H1057 C1054 0.929 . S
O1058 Gd1014 2.545 . S
O1058 C1073 1.258 . S
O1059 Gd1014 2.606 . S
O1059 Gd1015 2.362 . S
O1059 C1070 1.284 . S
O1060 Gd1015 2.324 . S
O1060 C1080 1.254 . S
O1061 Gd1014 2.429 . S
O1061 C1080 1.268 . S
O1062 Gd1014 2.545 . S
O1062 C1070 1.250 . S
O1063 Gd1014 2.412 . S
O1063 C1073 1.252 . S
O1064 Gd1015 2.545 . S
O1064 C1082 1.258 . S
O1065 Gd1014 2.362 . S
O1065 Gd1015 2.606 . S
O1065 C1081 1.284 . S
O1066 Gd1014 2.324 . S
O1066 C1089 1.254 . S
O1067 Gd1015 2.429 . S
O1067 C1089 1.268 . S
O1068 Gd1015 2.545 . S
O1068 C1081 1.250 . S
O1069 Gd1015 2.412 . S
O1069 C1082 1.252 . S
C1070 O1059 1.284 . S
C1070 O1062 1.250 . S
C1071 H1040 0.929 . S
C1071 C1056 1.437 . S
C1071 C1072 1.317 . S
C1072 H1043 0.930 . S
C1072 C1048 1.431 . S
C1072 C1071 1.317 . S
C1073 Gd1014 2.828 . S
C1073 O1058 1.258 . S
C1073 O1063 1.252 . S
C1073 C1074 1.497 . S
C1074 C1073 1.497 . S
C1074 C1075 1.395 . S
C1074 C1076 1.380 . S
C1075 C1074 1.395 . S
C1075 C1078 1.398 . S
C1075 H1090 0.930 . S
C1076 C1074 1.380 . S
C1076 C1077 1.391 . S
C1076 H1091 0.930 . S
C1077 C1076 1.391 . S
C1077 C1079 1.387 . S
C1078 C1075 1.398 . S
C1078 C1079 1.380 . S
C1078 H1092 0.930 . S
C1079 C1077 1.387 . S
C1079 C1078 1.380 . S
C1079 H1093 0.930 . S
C1080 O1060 1.254 . S
C1080 O1061 1.268 . S
C1081 O1065 1.284 . S
C1081 O1068 1.250 . S
C1082 Gd1015 2.828 . S
C1082 O1064 1.258 . S
C1082 O1069 1.252 . S
C1082 C1083 1.497 . S
C1083 C1082 1.497 . S
C1083 C1084 1.395 . S
C1083 C1085 1.380 . S
C1084 C1083 1.395 . S
C1084 C1087 1.398 . S
C1084 H1094 0.930 . S
C1085 C1083 1.380 . S
C1085 C1086 1.391 . S
C1085 H1095 0.930 . S
C1086 C1085 1.391 . S
C1086 C1088 1.387 . S
C1087 C1084 1.398 . S
C1087 C1088 1.380 . S
C1087 H1096 0.930 . S
C1088 C1086 1.387 . S
C1088 C1087 1.380 . S
C1088 H1097 0.930 . S
C1089 O1066 1.254 . S
C1089 O1067 1.268 . S
H1090 C1075 0.930 . S
H1091 C1076 0.930 . S
H1092 C1078 0.930 . S
H1093 C1079 0.930 . S
H1094 C1084 0.930 . S
H1095 C1085 0.930 . S
H1096 C1087 0.930 . S
H1097 C1088 0.930 . S
C1098 C1099 1.387 . S
C1098 H1102 0.950 . S
C1098 C1107 1.390 . S
C1099 C1098 1.387 . S
C1099 C1101 1.387 . S
H1100 C1107 0.950 . S
C1101 C1099 1.387 . S
C1101 C1103 1.390 . S
C1101 H1105 0.950 . S
H1102 C1098 0.950 . S
C1103 C1101 1.390 . S
C1103 C1104 1.387 . S
C1103 H1106 0.950 1_554 S
C1104 C1103 1.387 . S
C1104 C1107 1.387 . S
H1105 C1101 0.950 . S
H1106 C1103 0.950 1_556 S
C1107 C1098 1.390 . S
C1107 H1100 0.950 . S
C1107 C1104 1.387 . S
C1108 C1109 1.387 . S
C1108 H1112 0.950 . S
C1108 C1117 1.390 . S
C1109 C1108 1.387 . S
C1109 C1111 1.387 . S
H1110 C1117 0.950 . S
C1111 C1109 1.387 . S
C1111 C1113 1.390 . S
C1111 H1115 0.950 . S
H1112 C1108 0.950 . S
C1113 C1111 1.390 . S
C1113 C1114 1.387 . S
C1113 H1116 0.950 . S
C1114 C1113 1.387 . S
C1114 C1117 1.387 . S
H1115 C1111 0.950 . S
H1116 C1113 0.950 . S
C1117 C1108 1.390 . S
C1117 H1110 0.950 . S
C1117 C1114 1.387 . S
C1118 C1119 1.387 . S
C1118 H1122 0.950 . S
C1118 C1127 1.390 . S
C1119 C1118 1.387 . S
C1119 C1121 1.387 . S
H1120 C1127 0.950 . S
C1121 C1119 1.387 . S
C1121 C1123 1.390 . S
C1121 H1125 0.977 . S
H1122 C1118 0.950 . S
C1123 C1121 1.390 . S
C1123 C1124 1.387 . S
C1123 H1126 0.950 1_554 S
C1124 C1123 1.387 . S
C1124 C1127 1.387 . S
H1125 C1121 0.977 . S
H1126 C1123 0.950 1_556 S
C1127 C1118 1.390 . S
C1127 H1120 0.950 . S
C1127 C1124 1.387 . S
C1128 C1129 1.387 1_554 S
C1128 H1132 0.950 . S
C1128 C1137 1.390 . S
C1129 C1128 1.387 1_556 S
C1129 C1131 1.387 . S
H1130 C1137 0.950 . S
C1131 C1129 1.387 . S
C1131 C1133 1.390 . S
C1131 H1135 0.950 . S
H1132 C1128 0.950 . S
C1133 C1131 1.390 . S
C1133 C1134 1.387 . S
C1133 H1136 0.950 . S
C1134 C1133 1.387 . S
C1134 C1137 1.387 1_556 S
H1135 C1131 0.950 . S
H1136 C1133 0.950 . S
C1137 C1128 1.390 . S
C1137 H1130 0.950 . S
C1137 C1134 1.387 1_554 S
C1138 C1139 1.387 . S
C1138 H1142 0.950 . S
C1138 C1147 1.390 . S
C1139 C1138 1.387 . S
C1139 C1141 1.387 . S
H1140 C1147 0.950 . S
C1141 C1139 1.387 . S
C1141 C1143 1.390 . S
C1141 H1145 0.950 . S
H1142 C1138 0.950 . S
C1143 C1141 1.390 . S
C1143 C1144 1.387 . S
C1143 H1146 0.950 . S
C1144 C1143 1.387 . S
C1144 C1147 1.387 . S
H1145 C1141 0.950 . S
H1146 C1143 0.950 . S
C1147 C1138 1.390 . S
C1147 H1140 0.950 . S
C1147 C1144 1.387 . S
C1148 C1149 1.387 1_554 S
C1148 H1152 0.950 . S
C1148 C1157 1.390 . S
C1149 C1148 1.387 1_556 S
C1149 C1151 1.387 . S
H1150 C1157 0.950 . S
C1151 C1149 1.387 . S
C1151 C1153 1.390 . S
C1151 H1155 0.950 . S
H1152 C1148 0.950 . S
C1153 C1151 1.390 . S
C1153 C1154 1.387 . S
C1153 H1156 0.950 . S
C1154 C1153 1.387 . S
C1154 C1157 1.387 1_556 S
H1155 C1151 0.950 . S
H1156 C1153 0.950 . S
C1157 C1148 1.390 . S
C1157 H1150 0.950 . S
C1157 C1154 1.387 1_554 S
C1158 C1159 1.387 . S
C1158 H1162 0.950 . S
C1158 C1167 1.390 . S
C1159 C1158 1.387 . S
C1159 C1161 1.387 1_556 S
H1160 C1167 0.950 . S
C1161 C1159 1.387 1_554 S
C1161 C1163 1.390 . S
C1161 H1165 0.950 . S
H1162 C1158 0.950 . S
C1163 C1161 1.390 . S
C1163 C1164 1.387 1_554 S
C1163 H1166 0.950 . S
C1164 C1163 1.387 1_556 S
C1164 C1167 1.387 . S
H1165 C1161 0.950 . S
H1166 C1163 0.950 . S
C1167 C1158 1.390 . S
C1167 H1160 0.950 . S
C1167 C1164 1.387 . S
C1168 C1169 1.387 1_554 S
C1168 H1172 0.950 . S
C1168 C1177 1.390 . S
C1169 C1168 1.387 1_556 S
C1169 C1171 1.387 . S
H1170 C1177 0.950 . S
C1171 C1169 1.387 . S
C1171 C1173 1.390 . S
C1171 H1175 0.950 . S
H1172 C1168 0.950 . S
C1173 C1171 1.390 . S
C1173 C1174 1.387 . S
C1173 H1176 0.950 . S
C1174 C1173 1.387 . S
C1174 C1177 1.387 1_556 S
H1175 C1171 0.950 . S
H1176 C1173 0.950 . S
C1177 C1168 1.390 . S
C1177 H1170 0.950 . S
C1177 C1174 1.387 1_554 S
C1178 C1179 1.387 1_554 S
C1178 H1182 0.950 . S
C1178 C1187 1.390 . S
C1179 C1178 1.387 1_556 S
C1179 C1181 1.387 . S
H1180 C1187 0.950 . S
C1181 C1179 1.387 . S
C1181 C1183 1.390 . S
C1181 H1185 0.950 . S
H1182 C1178 0.950 . S
C1183 C1181 1.390 . S
C1183 C1184 1.387 . S
C1183 H1186 0.950 . S
C1184 C1183 1.387 . S
C1184 C1187 1.387 1_556 S
H1185 C1181 0.950 . S
H1186 C1183 0.950 . S
C1187 C1178 1.390 . S
C1187 H1180 0.950 . S
C1187 C1184 1.387 1_554 S
C1188 C1189 1.387 . S
C1188 H1192 0.950 . S
C1188 C1197 1.390 . S
C1189 C1188 1.387 . S
C1189 C1191 1.387 . S
H1190 C1197 0.950 . S
C1191 C1189 1.387 . S
C1191 C1193 1.390 . S
C1191 H1195 0.950 1_554 S
H1192 C1188 0.950 . S
C1193 C1191 1.390 . S
C1193 C1194 1.387 . S
C1193 H1196 0.950 1_554 S
C1194 C1193 1.387 . S
C1194 C1197 1.387 . S
H1195 C1191 0.950 1_556 S
H1196 C1193 0.950 1_556 S
C1197 C1188 1.390 . S
C1197 H1190 0.950 . S
C1197 C1194 1.387 . S
C1198 C1199 1.387 . S
C1198 H1202 0.950 . S
C1198 C1207 1.390 . S
C1199 C1198 1.387 . S
C1199 C1201 1.387 . S
H1200 C1207 0.950 1_556 S
C1201 C1199 1.387 . S
C1201 C1203 1.390 . S
C1201 H1205 0.950 . S
H1202 C1198 0.950 . S
C1203 C1201 1.390 . S
C1203 C1204 1.387 . S
C1203 H1206 0.950 . S
C1204 C1203 1.387 . S
C1204 C1207 1.387 . S
H1205 C1201 0.950 . S
H1206 C1203 0.950 . S
C1207 C1198 1.390 . S
C1207 H1200 0.950 1_554 S
C1207 C1204 1.387 . S
C1208 C1209 1.387 . S
C1208 H1212 0.950 . S
C1208 C1217 1.390 . S
C1209 C1208 1.387 . S
C1209 C1211 1.387 . S
H1210 C1217 0.950 . S
C1211 C1209 1.387 . S
C1211 C1213 1.390 . S
C1211 H1215 0.950 1_554 S
H1212 C1208 0.950 . S
C1213 C1211 1.390 . S
C1213 C1214 1.387 . S
C1213 H1216 0.950 1_554 S
C1214 C1213 1.387 . S
C1214 C1217 1.387 . S
H1215 C1211 0.950 1_556 S
H1216 C1213 0.950 1_556 S
C1217 C1208 1.390 . S
C1217 H1210 0.950 . S
C1217 C1214 1.387 . S
C1218 C1219 1.387 . S
C1218 H1222 0.950 . S
C1218 C1227 1.390 1_655 S
C1219 C1218 1.387 . S
C1219 C1221 1.387 . S
H1220 C1227 0.950 . S
C1221 C1219 1.387 . S
C1221 C1223 1.390 1_655 S
C1221 H1225 0.950 . S
H1222 C1218 0.950 . S
C1223 C1221 1.390 1_455 S
C1223 C1224 1.387 . S
C1223 H1226 0.950 . S
C1224 C1223 1.387 . S
C1224 C1227 1.387 . S
H1225 C1221 0.950 . S
H1226 C1223 0.950 . S
C1227 C1218 1.390 1_455 S
C1227 H1220 0.950 . S
C1227 C1224 1.387 . S
C1228 C1229 1.387 . S
C1228 H1232 0.950 . S
C1228 C1237 1.390 . S
C1229 C1228 1.387 . S
C1229 C1231 1.387 . S
H1230 C1237 0.950 . S
C1231 C1229 1.387 . S
C1231 C1233 1.390 . S
C1231 H1235 0.950 . S
H1232 C1228 0.950 . S
C1233 C1231 1.390 . S
C1233 C1234 1.387 . S
C1233 H1236 0.950 . S
C1234 C1233 1.387 . S
C1234 C1237 1.387 . S
H1235 C1231 0.950 . S
H1236 C1233 0.950 . S
C1237 C1228 1.390 . S
C1237 H1230 0.950 . S
C1237 C1234 1.387 . S
C1238 C1239 1.387 . S
C1238 H1242 0.950 . S
C1238 C1247 1.390 1_545 S
C1239 C1238 1.387 . S
C1239 C1241 1.387 . S
H1240 C1247 0.950 . S
C1241 C1239 1.387 . S
C1241 C1243 1.390 . S
C1241 H1245 0.950 . S
H1242 C1238 0.950 . S
C1243 C1241 1.390 . S
C1243 C1244 1.387 1_545 S
C1243 H1246 0.950 . S
C1244 C1243 1.387 1_565 S
C1244 C1247 1.387 . S
H1245 C1241 0.950 . S
H1246 C1243 0.950 . S
C1247 C1238 1.390 1_565 S
C1247 H1240 0.950 . S
C1247 C1244 1.387 . S
C1248 C1249 1.387 . S
C1248 H1252 0.950 . S
C1248 C1257 1.390 . S
C1249 C1248 1.387 . S
C1249 C1251 1.387 . S
H1250 C1257 0.950 . S
C1251 C1249 1.387 . S
C1251 C1253 1.390 . S
C1251 H1255 0.950 . S
H1252 C1248 0.950 . S
C1253 C1251 1.390 . S
C1253 C1254 1.387 . S
C1253 H1256 0.950 . S
C1254 C1253 1.387 . S
C1254 C1257 1.387 . S
H1255 C1251 0.950 . S
H1256 C1253 0.950 . S
C1257 C1248 1.390 . S
C1257 H1250 0.950 . S
C1257 C1254 1.387 . S
C1258 C1259 1.387 . S
C1258 H1262 0.950 . S
C1258 C1267 1.390 . S
C1259 C1258 1.387 . S
C1259 C1261 1.387 . S
H1260 C1267 0.950 . S
C1261 C1259 1.387 . S
C1261 C1263 1.390 . S
C1261 H1265 0.950 . S
H1262 C1258 0.950 . S
C1263 C1261 1.390 . S
C1263 C1264 1.387 . S
C1263 H1266 0.950 . S
C1264 C1263 1.387 . S
C1264 C1267 1.387 . S
H1265 C1261 0.950 . S
H1266 C1263 0.950 . S
C1267 C1258 1.390 . S
C1267 H1260 0.950 . S
C1267 C1264 1.387 . S
C1268 C1269 1.387 . S
C1268 H1272 0.950 . S
C1268 C1277 1.390 . S
C1269 C1268 1.387 . S
C1269 C1271 1.387 . S
H1270 C1277 0.950 . S
C1271 C1269 1.387 . S
C1271 C1273 1.390 . S
C1271 H1275 0.950 . S
H1272 C1268 0.950 . S
C1273 C1271 1.390 . S
C1273 C1274 1.387 . S
C1273 H1276 0.950 . S
C1274 C1273 1.387 . S
C1274 C1277 1.387 . S
H1275 C1271 0.950 . S
H1276 C1273 0.950 . S
C1277 C1268 1.390 . S
C1277 H1270 0.950 . S
C1277 C1274 1.387 . S
C1278 C1279 1.387 . S
C1278 H1282 0.950 . S
C1278 C1287 1.390 . S
C1279 C1278 1.387 . S
C1279 C1281 1.387 . S
H1280 C1287 0.950 . S
C1281 C1279 1.387 . S
C1281 C1283 1.390 . S
C1281 H1285 0.950 . S
H1282 C1278 0.950 . S
C1283 C1281 1.390 . S
C1283 C1284 1.387 . S
C1283 H1286 0.950 . S
C1284 C1283 1.387 . S
C1284 C1287 1.387 . S
H1285 C1281 0.950 . S
H1286 C1283 0.950 . S
C1287 C1278 1.390 . S
C1287 H1280 0.950 . S
C1287 C1284 1.387 . S
C1288 C1289 1.387 . S
C1288 H1292 0.950 . S
C1288 C1297 1.390 . S
C1289 C1288 1.387 . S
C1289 C1291 1.387 . S
H1290 C1297 0.950 . S
C1291 C1289 1.387 . S
C1291 C1293 1.390 . S
C1291 H1295 0.950 . S
H1292 C1288 0.950 . S
C1293 C1291 1.390 . S
C1293 C1294 1.387 . S
C1293 H1296 0.950 . S
C1294 C1293 1.387 . S
C1294 C1297 1.387 . S
H1295 C1291 0.950 . S
H1296 C1293 0.950 . S
C1297 C1288 1.390 . S
C1297 H1290 0.950 . S
C1297 C1294 1.387 . S
C1298 C1299 1.387 . S
C1298 H1302 0.950 . S
C1298 C1307 1.390 . S
C1299 C1298 1.387 . S
C1299 C1301 1.387 . S
H1300 C1307 0.950 . S
C1301 C1299 1.387 . S
C1301 C1303 1.390 . S
C1301 H1305 0.950 . S
H1302 C1298 0.950 . S
C1303 C1301 1.390 . S
C1303 C1304 1.387 . S
C1303 H1306 0.950 . S
C1304 C1303 1.387 . S
C1304 C1307 1.387 . S
H1305 C1301 0.950 . S
H1306 C1303 0.950 . S
C1307 C1298 1.390 . S
C1307 H1300 0.950 . S
C1307 C1304 1.387 . S
C1308 C1309 1.387 . S
C1308 H1312 0.950 . S
C1308 C1317 1.390 . S
C1309 C1308 1.387 . S
C1309 C1311 1.387 . S
H1310 C1317 0.950 . S
C1311 C1309 1.387 . S
C1311 C1313 1.390 . S
C1311 H1315 0.950 . S
H1312 C1308 0.950 . S
C1313 C1311 1.390 . S
C1313 C1314 1.387 . S
C1313 H1316 0.950 . S
C1314 C1313 1.387 . S
C1314 C1317 1.387 . S
H1315 C1311 0.950 . S
H1316 C1313 0.950 . S
C1317 C1308 1.390 . S
C1317 H1310 0.950 . S
C1317 C1314 1.387 . S
C1318 C1319 1.387 . S
C1318 H1322 0.950 . S
C1318 C1327 1.390 . S
C1319 C1318 1.387 . S
C1319 C1321 1.387 . S
H1320 C1327 0.950 . S
C1321 C1319 1.387 . S
C1321 C1323 1.390 . S
C1321 H1325 0.950 . S
H1322 C1318 0.950 . S
C1323 C1321 1.390 . S
C1323 C1324 1.387 . S
C1323 H1326 0.950 . S
C1324 C1323 1.387 . S
C1324 C1327 1.387 . S
H1325 C1321 0.950 . S
H1326 C1323 0.950 . S
C1327 C1318 1.390 . S
C1327 H1320 0.950 . S
C1327 C1324 1.387 . S
C1328 C1329 1.387 . S
C1328 H1332 0.950 . S
C1328 C1337 1.390 . S
C1329 C1328 1.387 . S
C1329 C1331 1.387 . S
H1330 C1337 0.950 . S
C1331 C1329 1.387 . S
C1331 C1333 1.390 . S
C1331 H1335 0.950 . S
H1332 C1328 0.950 . S
C1333 C1331 1.390 . S
C1333 C1334 1.387 . S
C1333 H1336 0.950 . S
C1334 C1333 1.387 . S
C1334 C1337 1.387 . S
H1335 C1331 0.950 . S
H1336 C1333 0.950 . S
C1337 C1328 1.390 . S
C1337 H1330 0.950 . S
C1337 C1334 1.387 . S
C1338 C1339 1.387 . S
C1338 H1342 0.950 . S
C1338 C1347 1.390 . S
C1339 C1338 1.387 . S
C1339 C1341 1.387 . S
H1340 C1347 0.950 . S
C1341 C1339 1.387 . S
C1341 C1343 1.390 . S
C1341 H1345 0.950 . S
H1342 C1338 0.950 . S
C1343 C1341 1.390 . S
C1343 C1344 1.387 . S
C1343 H1346 0.950 . S
C1344 C1343 1.387 . S
C1344 C1347 1.387 . S
H1345 C1341 0.950 . S
H1346 C1343 0.950 . S
C1347 C1338 1.390 . S
C1347 H1340 0.950 . S
C1347 C1344 1.387 . S
C1348 C1349 1.387 . S
C1348 H1352 0.950 . S
C1348 C1357 1.390 . S
C1349 C1348 1.387 . S
C1349 C1351 1.387 . S
H1350 C1357 0.950 . S
C1351 C1349 1.387 . S
C1351 C1353 1.390 . S
C1351 H1355 0.950 . S
H1352 C1348 0.950 . S
C1353 C1351 1.390 . S
C1353 C1354 1.387 . S
C1353 H1356 0.950 . S
C1354 C1353 1.387 . S
C1354 C1357 1.387 . S
H1355 C1351 0.950 . S
H1356 C1353 0.950 . S
C1357 C1348 1.390 . S
C1357 H1350 0.950 . S
C1357 C1354 1.387 . S
C1358 C1359 1.387 . S
C1358 H1362 0.950 . S
C1358 C1367 1.390 . S
C1359 C1358 1.387 . S
C1359 C1361 1.387 . S
H1360 C1367 0.950 . S
C1361 C1359 1.387 . S
C1361 C1363 1.390 . S
C1361 H1365 0.950 . S
H1362 C1358 0.950 . S
C1363 C1361 1.390 . S
C1363 C1364 1.387 . S
C1363 H1366 0.950 . S
C1364 C1363 1.387 . S
C1364 C1367 1.387 . S
H1365 C1361 0.950 . S
H1366 C1363 0.950 . S
C1367 C1358 1.390 . S
C1367 H1360 0.950 . S
C1367 C1364 1.387 . S
C1368 C1369 1.387 . S
C1368 H1372 0.950 . S
C1368 C1377 1.390 1_565 S
C1369 C1368 1.387 . S
C1369 C1371 1.387 . S
H1370 C1377 0.950 . S
C1371 C1369 1.387 . S
C1371 C1373 1.383 1_565 S
C1371 H1375 0.950 . S
H1372 C1368 0.950 . S
C1373 C1371 1.383 1_545 S
C1373 C1374 1.397 . S
C1373 H1376 0.948 . S
C1374 C1373 1.397 . S
C1374 C1377 1.387 . S
H1375 C1371 0.950 . S
H1376 C1373 0.948 . S
C1377 C1368 1.390 1_545 S
C1377 H1370 0.950 . S
C1377 C1374 1.387 . S
C1378 C1379 1.387 . S
C1378 H1382 0.950 . S
C1378 C1387 1.390 1_455 S
C1379 C1378 1.387 . S
C1379 C1381 1.387 . S
H1380 C1387 0.950 . S
C1381 C1379 1.387 . S
C1381 C1383 1.390 1_455 S
C1381 H1385 0.950 . S
H1382 C1378 0.950 . S
C1383 C1381 1.390 1_655 S
C1383 C1384 1.387 . S
C1383 H1386 0.950 . S
C1384 C1383 1.387 . S
C1384 C1387 1.387 . S
H1385 C1381 0.950 . S
H1386 C1383 0.950 . S
C1387 C1378 1.390 1_655 S
C1387 H1380 0.950 . S
C1387 C1384 1.387 . S
C1388 C1389 1.387 . S
C1388 H1392 0.950 . S
C1388 C1397 1.390 . S
C1389 C1388 1.387 . S
C1389 C1391 1.387 . S
H1390 C1397 0.950 . S
C1391 C1389 1.387 . S
C1391 C1393 1.390 . S
C1391 H1395 0.950 . S
H1392 C1388 0.950 . S
C1393 C1391 1.390 . S
C1393 C1394 1.387 . S
C1393 H1396 0.950 . S
C1394 C1393 1.387 . S
C1394 C1397 1.387 . S
H1395 C1391 0.950 . S
H1396 C1393 0.950 . S
C1397 C1388 1.390 . S
C1397 H1390 0.950 . S
C1397 C1394 1.387 . S
C1398 C1399 1.387 . S
C1398 H1402 0.950 . S
C1398 C1407 1.390 . S
C1399 C1398 1.387 . S
C1399 C1401 1.387 . S
H1400 C1407 0.950 . S
C1401 C1399 1.387 . S
C1401 C1403 1.390 . S
C1401 H1405 0.950 . S
H1402 C1398 0.950 . S
C1403 C1401 1.390 . S
C1403 C1404 1.387 . S
C1403 H1406 0.950 . S
C1404 C1403 1.387 . S
C1404 C1407 1.387 . S
H1405 C1401 0.950 . S
H1406 C1403 0.950 . S
C1407 C1398 1.390 . S
C1407 H1400 0.950 . S
C1407 C1404 1.387 . S
C1408 C1409 1.387 . S
C1408 H1412 0.950 . S
C1408 C1417 1.390 . S
C1409 C1408 1.387 . S
C1409 C1411 1.387 . S
H1410 C1417 0.950 . S
C1411 C1409 1.387 . S
C1411 C1413 1.390 . S
C1411 H1415 0.950 . S
H1412 C1408 0.950 . S
C1413 C1411 1.390 . S
C1413 C1414 1.387 . S
C1413 H1416 0.950 . S
C1414 C1413 1.387 . S
C1414 C1417 1.387 . S
H1415 C1411 0.950 . S
H1416 C1413 0.950 . S
C1417 C1408 1.390 . S
C1417 H1410 0.950 . S
C1417 C1414 1.387 . S
C1418 C1419 1.387 . S
C1418 H1422 0.950 . S
C1418 C1427 1.390 . S
C1419 C1418 1.387 . S
C1419 C1421 1.387 . S
H1420 C1427 0.950 . S
C1421 C1419 1.387 . S
C1421 C1423 1.390 . S
C1421 H1425 0.950 . S
H1422 C1418 0.950 . S
C1423 C1421 1.390 . S
C1423 C1424 1.387 . S
C1423 H1426 0.950 . S
C1424 C1423 1.387 . S
C1424 C1427 1.387 . S
H1425 C1421 0.950 . S
H1426 C1423 0.950 . S
C1427 C1418 1.390 . S
C1427 H1420 0.950 . S
C1427 C1424 1.387 . S
C1428 C1429 1.387 . S
C1428 H1432 0.950 . S
C1428 C1437 1.390 . S
C1429 C1428 1.387 . S
C1429 C1431 1.387 . S
H1430 C1437 0.950 . S
C1431 C1429 1.387 . S
C1431 C1433 1.390 . S
C1431 H1435 0.950 . S
H1432 C1428 0.950 . S
C1433 C1431 1.390 . S
C1433 C1434 1.387 . S
C1433 H1436 0.950 . S
C1434 C1433 1.387 . S
C1434 C1437 1.387 . S
H1435 C1431 0.950 . S
H1436 C1433 0.950 . S
C1437 C1428 1.390 . S
C1437 H1430 0.950 . S
C1437 C1434 1.387 . S
C1438 C1439 1.387 . S
C1438 H1442 0.950 . S
C1438 C1447 1.390 . S
C1439 C1438 1.387 . S
C1439 C1441 1.387 . S
H1440 C1447 0.950 . S
C1441 C1439 1.387 . S
C1441 C1443 1.390 . S
C1441 H1445 0.950 . S
H1442 C1438 0.950 . S
C1443 C1441 1.390 . S
C1443 C1444 1.387 . S
C1443 H1446 0.950 . S
C1444 C1443 1.387 . S
C1444 C1447 1.387 . S
H1445 C1441 0.950 . S
H1446 C1443 0.950 . S
C1447 C1438 1.390 . S
C1447 H1440 0.950 . S
C1447 C1444 1.387 . S
C1448 C1449 1.387 . S
C1448 H1452 0.950 . S
C1448 C1457 1.390 . S
C1449 C1448 1.387 . S
C1449 C1451 1.387 . S
H1450 C1457 0.950 . S
C1451 C1449 1.387 . S
C1451 C1453 1.390 . S
C1451 H1455 0.950 . S
H1452 C1448 0.950 . S
C1453 C1451 1.390 . S
C1453 C1454 1.387 . S
C1453 H1456 0.950 . S
C1454 C1453 1.387 . S
C1454 C1457 1.387 . S
H1455 C1451 0.950 . S
H1456 C1453 0.950 . S
C1457 C1448 1.390 . S
C1457 H1450 0.950 . S
C1457 C1454 1.387 . S
C1458 C1459 1.387 . S
C1458 H1462 0.950 . S
C1458 C1467 1.390 . S
C1459 C1458 1.387 . S
C1459 C1461 1.387 . S
H1460 C1467 0.950 . S
C1461 C1459 1.387 . S
C1461 C1463 1.390 . S
C1461 H1465 0.950 . S
H1462 C1458 0.950 . S
C1463 C1461 1.390 . S
C1463 C1464 1.387 . S
C1463 H1466 0.950 . S
C1464 C1463 1.387 . S
C1464 C1467 1.387 . S
H1465 C1461 0.950 . S
H1466 C1463 0.950 . S
C1467 C1458 1.390 . S
C1467 H1460 0.950 . S
C1467 C1464 1.387 . S
C1468 C1469 1.387 . S
C1468 H1472 0.950 . S
C1468 C1477 1.390 . S
C1469 C1468 1.387 . S
C1469 C1471 1.387 . S
H1470 C1477 0.950 . S
C1471 C1469 1.387 . S
C1471 C1473 1.390 . S
C1471 H1475 0.950 . S
H1472 C1468 0.950 . S
C1473 C1471 1.390 . S
C1473 C1474 1.387 . S
C1473 H1476 0.950 . S
C1474 C1473 1.387 . S
C1474 C1477 1.387 . S
H1475 C1471 0.950 . S
H1476 C1473 0.950 . S
C1477 C1468 1.390 . S
C1477 H1470 0.950 . S
C1477 C1474 1.387 . S
C1478 C1479 1.387 . S
C1478 H1482 0.950 . S
C1478 C1487 1.390 . S
C1479 C1478 1.387 . S
C1479 C1481 1.387 . S
H1480 C1487 0.950 . S
C1481 C1479 1.387 . S
C1481 C1483 1.390 . S
C1481 H1485 0.950 . S
H1482 C1478 0.950 . S
C1483 C1481 1.390 . S
C1483 C1484 1.387 . S
C1483 H1486 0.950 . S
C1484 C1483 1.387 . S
C1484 C1487 1.387 . S
H1485 C1481 0.950 . S
H1486 C1483 0.950 . S
C1487 C1478 1.390 . S
C1487 H1480 0.950 . S
C1487 C1484 1.387 . S
C1488 C1489 1.387 . S
C1488 H1492 0.950 . S
C1488 C1497 1.390 . S
C1489 C1488 1.387 . S
C1489 C1491 1.387 . S
H1490 C1497 0.950 . S
C1491 C1489 1.387 . S
C1491 C1493 1.390 . S
C1491 H1495 0.950 . S
H1492 C1488 0.950 . S
C1493 C1491 1.390 . S
C1493 C1494 1.387 . S
C1493 H1496 0.950 . S
C1494 C1493 1.387 . S
C1494 C1497 1.387 . S
H1495 C1491 0.950 . S
H1496 C1493 0.950 . S
C1497 C1488 1.390 . S
C1497 H1490 0.950 . S
C1497 C1494 1.387 . S
C1498 C1499 1.387 . S
C1498 H1502 0.950 . S
C1498 C1507 1.390 . S
C1499 C1498 1.387 . S
C1499 C1501 1.387 . S
H1500 C1507 0.950 . S
C1501 C1499 1.387 . S
C1501 C1503 1.390 . S
C1501 H1505 0.950 . S
H1502 C1498 0.950 . S
C1503 C1501 1.390 . S
C1503 C1504 1.387 . S
C1503 H1506 0.950 . S
C1504 C1503 1.387 . S
C1504 C1507 1.387 . S
H1505 C1501 0.950 . S
H1506 C1503 0.950 . S
C1507 C1498 1.390 . S
C1507 H1500 0.950 . S
C1507 C1504 1.387 . S
C1508 C1509 1.387 . S
C1508 H1512 0.950 . S
C1508 C1517 1.390 . S
C1509 C1508 1.387 . S
C1509 C1511 1.387 . S
H1510 C1517 0.950 . S
C1511 C1509 1.387 . S
C1511 C1513 1.390 . S
C1511 H1515 0.950 . S
H1512 C1508 0.950 . S
C1513 C1511 1.390 . S
C1513 C1514 1.387 . S
C1513 H1516 0.950 . S
C1514 C1513 1.387 . S
C1514 C1517 1.387 . S
H1515 C1511 0.950 . S
H1516 C1513 0.950 . S
C1517 C1508 1.390 . S
C1517 H1510 0.950 . S
C1517 C1514 1.387 . S
C1518 C1519 1.387 . S
C1518 H1522 0.950 . S
C1518 C1527 1.390 . S
C1519 C1518 1.387 . S
C1519 C1521 1.387 . S
H1520 C1527 0.950 . S
C1521 C1519 1.387 . S
C1521 C1523 1.390 . S
C1521 H1525 0.950 . S
H1522 C1518 0.950 . S
C1523 C1521 1.390 . S
C1523 C1524 1.387 . S
C1523 H1526 0.950 . S
C1524 C1523 1.387 . S
C1524 C1527 1.387 . S
H1525 C1521 0.950 . S
H1526 C1523 0.950 . S
C1527 C1518 1.390 . S
C1527 H1520 0.950 . S
C1527 C1524 1.387 . S
C1528 C1529 1.387 . S
C1528 H1532 0.950 . S
C1528 C1537 1.390 . S
C1529 C1528 1.387 . S
C1529 C1531 1.387 . S
H1530 C1537 0.950 . S
C1531 C1529 1.387 . S
C1531 C1533 1.390 . S
C1531 H1535 0.950 . S
H1532 C1528 0.950 . S
C1533 C1531 1.390 . S
C1533 C1534 1.387 . S
C1533 H1536 0.950 . S
C1534 C1533 1.387 . S
C1534 C1537 1.387 . S
H1535 C1531 0.950 . S
H1536 C1533 0.950 . S
C1537 C1528 1.390 . S
C1537 H1530 0.950 . S
C1537 C1534 1.387 . S
C1538 C1539 1.387 . S
C1538 H1542 0.950 . S
C1538 C1547 1.390 . S
C1539 C1538 1.387 . S
C1539 C1541 1.387 . S
H1540 C1547 0.950 . S
C1541 C1539 1.387 . S
C1541 C1543 1.390 . S
C1541 H1545 0.950 . S
H1542 C1538 0.950 . S
C1543 C1541 1.390 . S
C1543 C1544 1.387 . S
C1543 H1546 0.950 . S
C1544 C1543 1.387 . S
C1544 C1547 1.387 . S
H1545 C1541 0.950 . S
H1546 C1543 0.950 . S
C1547 C1538 1.390 . S
C1547 H1540 0.950 . S
C1547 C1544 1.387 . S
C1548 C1549 1.387 . S
C1548 H1552 0.950 . S
C1548 C1557 1.390 . S
C1549 C1548 1.387 . S
C1549 C1551 1.387 . S
H1550 C1557 0.950 . S
C1551 C1549 1.387 . S
C1551 C1553 1.390 . S
C1551 H1555 0.950 . S
H1552 C1548 0.950 . S
C1553 C1551 1.390 . S
C1553 C1554 1.387 . S
C1553 H1556 0.950 . S
C1554 C1553 1.387 . S
C1554 C1557 1.387 . S
H1555 C1551 0.950 . S
H1556 C1553 0.950 . S
C1557 C1548 1.390 . S
C1557 H1550 0.950 . S
C1557 C1554 1.387 . S
C1558 C1559 1.387 . S
C1558 H1562 0.950 . S
C1558 C1567 1.390 . S
C1559 C1558 1.387 . S
C1559 C1561 1.387 . S
H1560 C1567 0.950 . S
C1561 C1559 1.387 . S
C1561 C1563 1.390 . S
C1561 H1565 0.950 . S
H1562 C1558 0.950 . S
C1563 C1561 1.390 . S
C1563 C1564 1.387 . S
C1563 H1566 0.950 . S
C1564 C1563 1.387 . S
C1564 C1567 1.387 . S
H1565 C1561 0.950 . S
H1566 C1563 0.950 . S
C1567 C1558 1.390 . S
C1567 H1560 0.950 . S
C1567 C1564 1.387 . S
C1568 C1569 1.387 . S
C1568 H1572 0.950 . S
C1568 C1577 1.390 . S
C1569 C1568 1.387 . S
C1569 C1571 1.387 . S
H1570 C1577 0.950 . S
C1571 C1569 1.387 . S
C1571 C1573 1.390 . S
C1571 H1575 0.950 . S
H1572 C1568 0.950 . S
C1573 C1571 1.390 . S
C1573 C1574 1.387 . S
C1573 H1576 0.950 . S
C1574 C1573 1.387 . S
C1574 C1577 1.387 . S
H1575 C1571 0.950 . S
H1576 C1573 0.950 . S
C1577 C1568 1.390 . S
C1577 H1570 0.950 . S
C1577 C1574 1.387 . S
C1578 C1579 1.387 . S
C1578 H1582 0.950 . S
C1578 C1587 1.390 . S
C1579 C1578 1.387 . S
C1579 C1581 1.387 . S
H1580 C1587 0.950 . S
C1581 C1579 1.387 . S
C1581 C1583 1.390 . S
C1581 H1585 0.950 . S
H1582 C1578 0.950 . S
C1583 C1581 1.390 . S
C1583 C1584 1.387 . S
C1583 H1586 0.950 . S
C1584 C1583 1.387 . S
C1584 C1587 1.387 . S
H1585 C1581 0.950 . S
H1586 C1583 0.950 . S
C1587 C1578 1.390 . S
C1587 H1580 0.950 . S
C1587 C1584 1.387 . S
C1588 C1589 1.387 . S
C1588 H1592 0.950 . S
C1588 C1597 1.390 . S
C1589 C1588 1.387 . S
C1589 C1591 1.387 . S
H1590 C1597 0.950 . S
C1591 C1589 1.387 . S
C1591 C1593 1.390 . S
C1591 H1595 0.950 . S
H1592 C1588 0.950 . S
C1593 C1591 1.390 . S
C1593 C1594 1.387 . S
C1593 H1596 0.950 . S
C1594 C1593 1.387 . S
C1594 C1597 1.387 . S
H1595 C1591 0.950 . S
H1596 C1593 0.950 . S
C1597 C1588 1.390 . S
C1597 H1590 0.950 . S
C1597 C1594 1.387 . S
C1598 C1599 1.387 . S
C1598 H1602 0.950 . S
C1598 C1607 1.390 . S
C1599 C1598 1.387 . S
C1599 C1601 1.387 . S
H1600 C1607 0.950 . S
C1601 C1599 1.387 . S
C1601 C1603 1.390 . S
C1601 H1605 0.950 . S
H1602 C1598 0.950 . S
C1603 C1601 1.390 . S
C1603 C1604 1.387 . S
C1603 H1606 0.950 . S
C1604 C1603 1.387 . S
C1604 C1607 1.387 . S
H1605 C1601 0.950 . S
H1606 C1603 0.950 . S
C1607 C1598 1.390 . S
C1607 H1600 0.950 . S
C1607 C1604 1.387 . S
C1608 C1609 1.387 . S
C1608 H1612 0.950 . S
C1608 C1617 1.390 . S
C1609 C1608 1.387 . S
C1609 C1611 1.387 . S
H1610 C1617 0.950 . S
C1611 C1609 1.387 . S
C1611 C1613 1.390 . S
C1611 H1615 0.950 . S
H1612 C1608 0.950 . S
C1613 C1611 1.390 . S
C1613 C1614 1.387 . S
C1613 H1616 0.950 . S
C1614 C1613 1.387 . S
C1614 C1617 1.387 . S
H1615 C1611 0.950 . S
H1616 C1613 0.950 . S
C1617 C1608 1.390 . S
C1617 H1610 0.950 . S
C1617 C1614 1.387 . S
C1618 C1619 1.387 . S
C1618 H1622 0.950 . S
C1618 C1627 1.390 . S
C1619 C1618 1.387 . S
C1619 C1621 1.387 . S
H1620 C1627 0.950 . S
C1621 C1619 1.387 . S
C1621 C1623 1.390 . S
C1621 H1625 0.950 . S
H1622 C1618 0.950 . S
C1623 C1621 1.390 . S
C1623 C1624 1.387 . S
C1623 H1626 0.950 . S
C1624 C1623 1.387 . S
C1624 C1627 1.387 . S
H1625 C1621 0.950 . S
H1626 C1623 0.950 . S
C1627 C1618 1.390 . S
C1627 H1620 0.950 . S
C1627 C1624 1.387 . S
C1628 C1629 1.387 . S
C1628 H1632 0.950 . S
C1628 C1637 1.390 . S
C1629 C1628 1.387 . S
C1629 C1631 1.387 . S
H1630 C1637 0.950 . S
C1631 C1629 1.387 . S
C1631 C1633 1.390 . S
C1631 H1635 0.950 . S
H1632 C1628 0.950 . S
C1633 C1631 1.390 . S
C1633 C1634 1.387 . S
C1633 H1636 0.950 . S
C1634 C1633 1.387 . S
C1634 C1637 1.387 . S
H1635 C1631 0.950 . S
H1636 C1633 0.950 . S
C1637 C1628 1.390 . S
C1637 H1630 0.950 . S
C1637 C1634 1.387 . S
C1099 C253 1.503 . S
C1104 C398 1.440 . S
C1109 C272 1.538 . S
C1114 C482 1.479 . S
C1119 C234 1.494 . S
C1124 C576 1.508 . S
C1129 C215 1.498 . S
C1134 C492 1.514 . S
C1144 C566 1.439 . S
C1139 C177 1.511 . S
C1149 C196 1.468 . S
C1154 C408 1.479 1_556 S
C1164 C409 1.501 . S
C1159 C220 1.466 . S
C1174 C493 1.526 . S
C1169 C182 1.497 . S
C1179 C201 1.478 . S
C1184 C585 1.508 1_556 S
C1189 C258 1.455 . S
C1194 C501 1.485 . S
C1199 C277 1.455 . S
C1204 C577 1.482 . S
C1214 C417 1.466 . S
C1209 C239 1.433 . S
C1224 C650 1.440 . S
C1219 C25 1.503 . S
C1229 C44 1.538 . S
C1234 C734 1.479 . S
C1239 C6 1.494 . S
C1244 C828 1.508 . S
C1249 C329 1.497 . S
C1254 C744 1.512 . S
C1259 C291 1.510 . S
C1264 C818 1.443 . S
C1269 C310 1.467 . S
C1274 C660 1.479 . S
C1279 C334 1.467 . S
C1284 C661 1.501 . S
C1289 C296 1.493 . S
C1294 C745 1.523 . S
C1304 C837 1.508 . S
C1299 C315 1.477 . S
C1309 C30 1.457 . S
C1314 C753 1.485 . S
C1324 C829 1.478 . S
C1319 C49 1.452 . S
C1329 C11 1.433 . S
C1334 C669 1.466 . S
C1344 C902 1.441 . S
C1339 C139 1.504 . S
C1349 C158 1.538 . S
C1354 C986 1.479 . S
C1364 C1080 1.508 . S
C1359 C120 1.495 . S
C1374 C996 1.512 . S
C1369 C101 1.497 . S
C1384 C1070 1.442 . S
C1379 C63 1.511 . S
C1389 C82 1.467 . S
C1394 C912 1.479 . S
C1399 C106 1.470 . S
C1404 C913 1.503 . S
C1409 C68 1.497 . S
C1414 C997 1.526 . S
C1424 C1089 1.505 . S
C1419 C87 1.474 . S
C1429 C144 1.455 . S
C1434 C1005 1.485 . S
C1439 C163 1.455 . S
C1444 C1081 1.481 . S
C1449 C125 1.433 . S
C1454 C921 1.466 . S
C1459 C287 1.659 . S
C1464 C405 1.565 . S
C1474 C489 1.578 . S
C1469 C306 1.705 . S
C1479 C325 1.654 . S
C1484 C582 1.443 . S
C1489 C116 1.663 . S
C1494 C498 1.435 . S
C1499 C135 1.665 . S
C1504 C573 1.551 . S
C1514 C414 1.430 . S
C1509 C154 1.617 . S
C1519 C59 1.659 . S
C1524 C657 1.564 . S
C1529 C78 1.704 . S
C1534 C741 1.581 . S
C1539 C97 1.653 . S
C1544 C834 1.443 . S
C1549 C230 1.663 . S
C1554 C750 1.440 . S
C1564 C825 1.549 . S
C1559 C249 1.667 . S
C1569 C268 1.616 . S
C1574 C666 1.427 . S
C1579 C173 1.658 . S
C1584 C909 1.567 . S
C1589 C192 1.703 . S
C1594 C993 1.581 . S
C1604 C1086 1.445 . S
C1599 C211 1.654 . S
C1609 C2 1.665 . S
C1614 C1002 1.438 . S
C1619 C21 1.664 . S
C1624 C1077 1.550 . S
C1629 C40 1.616 . S
C1634 C918 1.426 . S
