# Generated by pormake.
# Topology anh, (6,3)-cn, num edge types: 1
# Building blocks:
#     Node 0, Type 0, BuildingBlock: CUKXOW_clean_sbu_0, # of connection points: 6
#     Node 1, Type 0, BuildingBlock: CUKXOW_clean_sbu_0, # of connection points: 6
#     Node 2, Type 0, BuildingBlock: CUKXOW_clean_sbu_0, # of connection points: 6
#     Node 3, Type 1, BuildingBlock: KAKCAD_clean_linker_0, # of connection points: 3
#     Node 4, Type 1, BuildingBlock: KAKCAD_clean_linker_0, # of connection points: 3
#     Node 5, Type 1, BuildingBlock: KAKCAD_clean_linker_0, # of connection points: 3
#     Node 6, Type 1, BuildingBlock: KAKCAD_clean_linker_0, # of connection points: 3
#     Node 7, Type 1, BuildingBlock: KAKCAD_clean_linker_0, # of connection points: 3
#     Node 8, Type 1, BuildingBlock: KAKCAD_clean_linker_0, # of connection points: 3
#     Edge 9, Type (0, 1), BuildingBlock: TEMPAE_clean_linker_10, # of connection points: 2
#     Edge 10, Type (0, 1), BuildingBlock: TEMPAE_clean_linker_10, # of connection points: 2
#     Edge 11, Type (0, 1), BuildingBlock: TEMPAE_clean_linker_10, # of connection points: 2
#     Edge 12, Type (0, 1), BuildingBlock: TEMPAE_clean_linker_10, # of connection points: 2
#     Edge 13, Type (0, 1), BuildingBlock: TEMPAE_clean_linker_10, # of connection points: 2
#     Edge 14, Type (0, 1), BuildingBlock: TEMPAE_clean_linker_10, # of connection points: 2
#     Edge 15, Type (0, 1), BuildingBlock: TEMPAE_clean_linker_10, # of connection points: 2
#     Edge 16, Type (0, 1), BuildingBlock: TEMPAE_clean_linker_10, # of connection points: 2
#     Edge 17, Type (0, 1), BuildingBlock: TEMPAE_clean_linker_10, # of connection points: 2
#     Edge 18, Type (0, 1), BuildingBlock: TEMPAE_clean_linker_10, # of connection points: 2
#     Edge 19, Type (0, 1), BuildingBlock: TEMPAE_clean_linker_10, # of connection points: 2
#     Edge 20, Type (0, 1), BuildingBlock: TEMPAE_clean_linker_10, # of connection points: 2
#     Edge 21, Type (0, 1), BuildingBlock: TEMPAE_clean_linker_10, # of connection points: 2
#     Edge 22, Type (0, 1), BuildingBlock: TEMPAE_clean_linker_10, # of connection points: 2
#     Edge 23, Type (0, 1), BuildingBlock: TEMPAE_clean_linker_10, # of connection points: 2
#     Edge 24, Type (0, 1), BuildingBlock: TEMPAE_clean_linker_10, # of connection points: 2
#     Edge 25, Type (0, 1), BuildingBlock: TEMPAE_clean_linker_10, # of connection points: 2
#     Edge 26, Type (0, 1), BuildingBlock: TEMPAE_clean_linker_10, # of connection points: 2
# Relax obj value: 0.133
# Max RMSD: 0.194
# Mean RMSD: 0.139
data_MOF--net-anh--node1-CUKXOW_clean_sbu_0--node2-KAKCAD_clean_linker_0--edge1-TEMPAE_clean_linker_10
_symmetry_space_group_name_H-M    P1
_symmetry_Int_Tables_number       1
_symmetry_cell_setting            triclinic
loop_
_symmetry_equiv_pos_as_xyz
'x, y, z'
_cell_length_a     35.625369
_cell_length_b     34.623499
_cell_length_c     65.877107
_cell_angle_alpha  95.595786
_cell_angle_beta   90.187042
_cell_angle_gamma 115.09678
loop_
_atom_site_label
_atom_site_type_symbol
_atom_site_fract_x
_atom_site_fract_y
_atom_site_fract_z
_atom_type_partial_charge
Tb0 Tb 0.07671 0.53902 0.15392 0.0
C1 C 0.03942 0.48669 0.19106 0.0
Tb2 Tb 1.01437 0.4383 0.14614 0.0
O3 O 0.02738 0.56245 0.15645 0.0
O4 O 1.01313 0.49901 0.1495 0.0
O5 O 0.07101 0.51969 0.18453 0.0
C6 C 0.94471 0.3661 0.1426 0.0
O7 O 1.01086 0.45528 0.17864 0.0
C8 C 0.09463 0.45329 0.1482 0.0
C9 C 0.05594 0.48838 0.10903 0.0
O10 O 0.97714 0.37368 0.15421 0.0
O11 O 0.95185 0.39895 0.13266 0.0
O12 O 0.06407 0.41521 0.14458 0.0
O13 O 0.0778 0.47873 0.15032 0.0
O14 O 0.02403 0.45472 0.11499 0.0
O15 O 0.08247 0.52094 0.12179 0.0
C16 C 0.14598 0.61134 0.1592 0.0
O17 O 0.12049 0.59898 0.14325 0.0
O18 O 0.13224 0.58318 0.17223 0.0
C19 C 0.99658 0.52467 0.15248 0.0
Tb20 Tb 0.49144 0.00929 0.50584 0.0
C21 C 0.53775 0.04684 0.46677 0.0
Tb22 Tb 0.58654 0.07563 0.5102 0.0
O23 O 0.46603 0.05833 0.5098 0.0
O24 O 0.52806 0.07436 0.51085 0.0
O25 O 0.50711 0.0139 0.47399 0.0
C26 C 0.65722 0.14539 0.50993 0.0
O27 O 0.56867 0.07703 0.4786 0.0
C28 C 0.57007 0.9944 0.51051 0.0
C29 C 0.53818 0.04364 0.54965 0.0
O30 O 0.64722 0.10994 0.49799 0.0
O31 O 0.62772 0.14131 0.52225 0.0
O32 O 0.60354 0.02558 0.51912 0.0
O33 O 0.55043 0.00972 0.50052 0.0
O34 O 0.5702 0.07436 0.54195 0.0
O35 O 0.50641 0.01336 0.53834 0.0
C36 C 0.42434 0.93523 0.50234 0.0
O37 O 0.42809 0.96911 0.494 0.0
O38 O 0.45839 0.94305 0.51266 0.0
C39 C 0.50266 0.09045 0.5116 0.0
Tb40 Tb 0.52222 0.54155 0.8349 0.0
C41 C 0.5667 0.54672 0.87761 0.0
Tb42 Tb 0.60995 0.54344 0.83556 0.0
O43 O 0.49368 0.47351 0.8215 0.0
O44 O 0.54869 0.49903 0.83909 0.0
O45 O 0.53558 0.55029 0.86788 0.0
C46 C 0.66978 0.51759 0.8367 0.0
O47 O 0.59756 0.5417 0.86803 0.0
C48 C 0.60675 0.61704 0.83186 0.0
C49 C 0.56639 0.53946 0.79383 0.0
O50 O 0.67194 0.55349 0.84603 0.0
O51 O 0.63429 0.49676 0.82674 0.0
O52 O 0.63663 0.60802 0.82497 0.0
O53 O 0.58375 0.5872 0.84167 0.0
O54 O 0.5917 0.52718 0.8032 0.0
O55 O 0.54079 0.55218 0.8038 0.0
C56 C 0.46633 0.57282 0.83385 0.0
O57 O 0.49923 0.58423 0.82338 0.0
O58 O 0.46402 0.54267 0.84492 0.0
C59 C 0.52472 0.4665 0.82781 0.0
C60 C 0.5085 0.04058 0.30244 0.0
C61 C 0.54584 0.05316 0.31399 0.0
C62 C 0.50794 0.03638 0.28113 0.0
C63 C 0.54471 0.0448 0.2709 0.0
C64 C 0.58222 0.05843 0.28244 0.0
C65 C 0.58276 0.06246 0.30377 0.0
C66 C 0.5436 0.03767 0.24829 0.0
C67 C 0.57374 0.06739 0.23709 0.0
C68 C 0.57321 0.0599 0.21572 0.0
C69 C 0.54191 0.02256 0.20548 0.0
C70 C 0.5116 0.99267 0.21649 0.0
C71 C 0.51271 1.00034 0.23784 0.0
C72 C 0.47837 0.9534 0.20587 0.0
C73 C 0.45318 0.95612 0.19015 0.0
C74 C 0.47011 0.91319 0.21227 0.0
C75 C 0.43653 0.87641 0.20349 0.0
C76 C 0.41028 0.8793 0.18836 0.0
C77 C 0.60623 0.09053 0.20422 0.0
C78 C 0.6163 0.13454 0.20738 0.0
C79 C 0.62905 0.07609 0.19068 0.0
C80 C 0.66237 0.10533 0.18101 0.0
C81 C 0.67319 0.14962 0.18445 0.0
C82 C 0.64918 0.16375 0.19746 0.0
C83 C 0.41915 0.91938 0.18158 0.0
H84 H 0.4795 0.03286 0.30988 0.0
H85 H 0.47863 0.02625 0.27264 0.0
H86 H 0.611 0.06485 0.27498 0.0
H87 H 0.61206 0.07264 0.31227 0.0
H88 H 0.5979 0.0962 0.24501 0.0
H89 H 0.48946 0.97701 0.24634 0.0
H90 H 0.5413 0.01663 0.18899 0.0
H91 H 0.4589 0.98686 0.18505 0.0
H92 H 0.48929 0.91034 0.22431 0.0
H93 H 0.43013 0.84594 0.2091 0.0
H94 H 0.59879 0.14635 0.21758 0.0
H95 H 0.62205 0.04228 0.18816 0.0
H96 H 0.39937 0.92233 0.16988 0.0
H97 H 0.65597 0.19746 0.20014 0.0
H98 H 0.68047 0.09326 0.17138 0.0
C99 C 0.53887 0.56608 0.6332 0.0
C100 C 0.57206 0.56142 0.64246 0.0
C101 C 0.53704 0.56806 0.61218 0.0
C102 C 0.56808 0.56481 0.60001 0.0
C103 C 0.60173 0.56104 0.60933 0.0
C104 C 0.60387 0.55971 0.63042 0.0
C105 C 0.56363 0.56218 0.57751 0.0
C106 C 0.55389 0.59169 0.56826 0.0
C107 C 0.54617 0.5873 0.54695 0.0
C108 C 0.54868 0.55237 0.53491 0.0
C109 C 0.55947 0.52312 0.54413 0.0
C110 C 0.56688 0.52847 0.56536 0.0
C111 C 0.56111 0.48502 0.53246 0.0
C112 C 0.52578 0.45363 0.52143 0.0
C113 C 0.59548 0.47604 0.53569 0.0
C114 C 0.5933 0.43534 0.52965 0.0
C115 C 0.55671 0.40266 0.52021 0.0
C116 C 0.53649 0.6201 0.53777 0.0
C117 C 0.51379 0.63944 0.54859 0.0
C118 C 0.55264 0.63512 0.51916 0.0
C119 C 0.54829 0.67017 0.51226 0.0
C120 C 0.52825 0.69159 0.52393 0.0
C121 C 0.51029 0.67492 0.54198 0.0
C122 C 0.5236 0.41271 0.51532 0.0
H123 H 0.51415 0.56781 0.64222 0.0
H124 H 0.51062 0.57062 0.60532 0.0
H125 H 0.62609 0.5586 0.60025 0.0
H126 H 0.62971 0.55599 0.63723 0.0
H127 H 0.55301 0.61856 0.57782 0.0
H128 H 0.57352 0.50508 0.57261 0.0
H129 H 0.54224 0.54783 0.51856 0.0
H130 H 0.49873 0.45961 0.51892 0.0
H131 H 0.62317 0.49979 0.54407 0.0
H132 H 0.61959 0.42881 0.53327 0.0
H133 H 0.49971 0.62807 0.56266 0.0
H134 H 0.5702 0.62105 0.51034 0.0
H135 H 0.49498 0.38814 0.50808 0.0
H136 H 0.49495 0.69025 0.55167 0.0
H137 H 0.56159 0.68102 0.49798 0.0
C138 C 0.11477 0.57794 0.95621 0.0
C139 C 0.09463 0.53548 0.96102 0.0
C140 C 0.11584 0.58691 0.93596 0.0
C141 C 0.09653 0.55361 0.92019 0.0
C142 C 0.07765 0.51101 0.92493 0.0
C143 C 0.07683 0.50201 0.94517 0.0
C144 C 0.09372 0.56361 0.89905 0.0
C145 C 0.1285 0.59328 0.89027 0.0
C146 C 0.12548 0.60477 0.87055 0.0
C147 C 0.08651 0.58586 0.85989 0.0
C148 C 0.05207 0.55452 0.86812 0.0
C149 C 0.0558 0.54398 0.88777 0.0
C150 C 1.0118 0.53306 0.8564 0.0
C151 C 0.99605 0.55718 0.84622 0.0
C152 C 0.98783 0.48865 0.8563 0.0
C153 C 0.94772 0.46924 0.84732 0.0
C154 C 0.93103 0.49392 0.83826 0.0
C155 C 0.16365 0.63241 0.8604 0.0
C156 C 0.19982 0.66056 0.87206 0.0
C157 C 0.16617 0.62685 0.83904 0.0
C158 C 0.20443 0.64389 0.83013 0.0
C159 C 0.24129 0.66458 0.84241 0.0
C160 C 0.23832 0.67567 0.86328 0.0
C161 C 0.95605 0.53779 0.83722 0.0
H162 H 0.12911 0.60427 0.96815 0.0
H163 H 0.13042 0.62004 0.93273 0.0
H164 H 0.0629 0.48471 0.91302 0.0
H165 H 0.06096 0.46902 0.94848 0.0
H166 H 0.15809 0.6059 0.89873 0.0
H167 H 0.02871 0.5213 0.89455 0.0
H168 H 0.08279 0.59452 0.84493 0.0
H169 H 1.01371 0.59148 0.84619 0.0
H170 H 0.99967 0.46918 0.86369 0.0
H171 H 0.92916 0.43534 0.84819 0.0
H172 H 0.19913 0.66838 0.88832 0.0
H173 H 0.1395 0.60638 0.82912 0.0
H174 H 0.94377 0.55785 0.83069 0.0
H175 H 0.2657 0.69246 0.87337 0.0
H176 H 0.20523 0.63694 0.81379 0.0
C177 C 0.98748 0.48288 0.35417 0.0
C178 C 0.02259 0.48525 0.34373 0.0
C179 C 0.98896 0.48871 0.37548 0.0
C180 C 0.02559 0.49699 0.38681 0.0
C181 C 0.06033 0.49816 0.37637 0.0
C182 C 0.05887 0.49239 0.35506 0.0
C183 C 0.02804 0.50638 0.40936 0.0
C184 C 0.99467 0.48282 0.42099 0.0
C185 C 0.99573 0.49332 0.44224 0.0
C186 C 0.03103 0.52775 0.45179 0.0
C187 C 0.06511 0.55052 0.44045 0.0
C188 C 0.06339 0.53987 0.41929 0.0
C189 C 0.10263 0.58581 0.45057 0.0
C190 C 0.09968 0.61953 0.46305 0.0
C191 C 0.14179 0.58659 0.44721 0.0
C192 C 0.17758 0.62105 0.45582 0.0
C193 C 0.17495 0.65578 0.46768 0.0
C194 C 0.96052 0.46744 0.45442 0.0
C195 C 0.91956 0.44979 0.44612 0.0
C196 C 0.96768 0.45853 0.47408 0.0
C197 C 0.93491 0.43141 0.48481 0.0
C198 C 0.89429 0.41178 0.47598 0.0
C199 C 0.88697 0.42196 0.45663 0.0
C200 C 0.13553 0.65436 0.47142 0.0
H201 H 0.95892 0.47692 0.34586 0.0
H202 H 0.96176 0.48797 0.38306 0.0
H203 H 0.08885 0.50395 0.38467 0.0
H204 H 0.08656 0.49476 0.34747 0.0
H205 H 0.96823 0.45567 0.41344 0.0
H206 H 0.08923 0.55868 0.4105 0.0
H207 H 0.03233 0.53678 0.46809 0.0
H208 H 0.06973 0.61964 0.46572 0.0
H209 H 0.14467 0.56056 0.43785 0.0
H210 H 0.20735 0.62066 0.45299 0.0
H211 H 0.91263 0.45673 0.43125 0.0
H212 H 0.99879 0.47123 0.48097 0.0
H213 H 0.13237 0.68081 0.48023 0.0
H214 H 0.8563 0.40718 0.44915 0.0
H215 H 0.94168 0.42507 0.49983 0.0
C216 C 0.52686 0.99005 0.71024 0.0
C217 C 0.54903 0.02808 0.70133 0.0
C218 C 0.52876 0.98989 0.73144 0.0
C219 C 0.55313 0.0277 0.74408 0.0
C220 C 0.57633 0.06532 0.735 0.0
C221 C 0.57411 0.06555 0.71389 0.0
C222 C 0.55352 0.02862 0.76667 0.0
C223 C 0.55436 0.99455 0.77626 0.0
C224 C 0.55571 0.99614 0.79766 0.0
C225 C 0.55606 0.03236 0.80966 0.0
C226 C 0.55454 0.06635 0.80008 0.0
C227 C 0.55321 0.06409 0.77875 0.0
C228 C 0.55406 0.10505 0.81149 0.0
C229 C 0.51596 0.10606 0.81589 0.0
C230 C 0.59013 0.14372 0.81296 0.0
C231 C 0.58785 0.18296 0.81758 0.0
C232 C 0.54932 0.18437 0.8206 0.0
C233 C 0.55757 0.9596 0.80684 0.0
C234 C 0.52369 0.91915 0.80391 0.0
C235 C 0.5951 0.9632 0.81547 0.0
C236 C 0.59928 0.92654 0.82019 0.0
C237 C 0.56585 0.88552 0.81649 0.0
C238 C 0.52761 0.88261 0.80889 0.0
C239 C 0.5136 0.14534 0.82048 0.0
H240 H 0.50715 0.96078 0.70086 0.0
H241 H 0.51025 0.96049 0.73796 0.0
H242 H 0.5962 0.09473 0.74423 0.0
H243 H 0.5921 0.09508 0.70735 0.0
H244 H 0.55504 0.96708 0.76712 0.0
H245 H 0.55142 0.09016 0.77154 0.0
H246 H 0.55723 0.03394 0.82617 0.0
H247 H 0.48759 0.07667 0.81429 0.0
H248 H 0.61971 0.1437 0.8092 0.0
H249 H 0.61607 0.21232 0.81791 0.0
H250 H 0.49453 0.91563 0.79711 0.0
H251 H 0.62186 0.99402 0.81748 0.0
H252 H 0.48338 0.14513 0.82257 0.0
H253 H 0.50085 0.8519 0.80628 0.0
H254 H 0.62934 0.93022 0.82578 0.0
C255 C 0.57465 0.49863 0.03746 0.0
C256 C 0.55981 0.52601 0.02946 0.0
C257 C 0.57322 0.49399 0.05831 0.0
C258 C 0.55667 0.51641 0.07159 0.0
C259 C 0.54201 0.54394 0.06361 0.0
C260 C 0.5437 0.54881 0.04278 0.0
C261 C 0.55405 0.5105 0.09364 0.0
C262 C 0.58785 0.5109 0.10469 0.0
C263 C 0.58584 0.50483 0.12551 0.0
C264 C 0.5484 0.49794 0.13543 0.0
C265 C 0.51377 0.49733 0.1243 0.0
C266 C 0.51748 0.5039 0.10354 0.0
C267 C 0.47266 0.48957 0.13311 0.0
C268 C 0.43629 0.45708 0.12322 0.0
C269 C 0.46839 0.51924 0.14804 0.0
C270 C 0.42888 0.5178 0.15206 0.0
C271 C 0.39279 0.48692 0.14108 0.0
C272 C 0.62412 0.50626 0.13576 0.0
C273 C 0.62617 0.46858 0.14078 0.0
C274 C 0.6615 0.54357 0.1359 0.0
C275 C 0.69993 0.54283 0.13981 0.0
C276 C 0.70245 0.50462 0.14362 0.0
C277 C 0.66483 0.46781 0.14476 0.0
C278 C 0.39713 0.4558 0.12711 0.0
H279 H 0.58758 0.48095 0.02759 0.0
H280 H 0.58444 0.47229 0.064 0.0
H281 H 0.52939 0.56189 0.07352 0.0
H282 H 0.53177 0.5699 0.03702 0.0
H283 H 0.61626 0.51623 0.09702 0.0
H284 H 0.49126 0.50336 0.0949 0.0
H285 H 0.54622 0.49301 0.15144 0.0
H286 H 0.4384 0.43384 0.11156 0.0
H287 H 0.49574 0.54515 0.15565 0.0
H288 H 0.42686 0.5423 0.16295 0.0
H289 H 0.5981 0.43904 0.14032 0.0
H290 H 0.66111 0.57298 0.13182 0.0
H291 H 0.37019 0.43096 0.11867 0.0
H292 H 0.6653 0.43772 0.14756 0.0
H293 H 0.72789 0.57211 0.13922 0.0
C294 C 0.17103 0.50477 0.14855 0.0
C295 C 0.13977 0.46296 0.14868 0.0
C296 C 0.21348 0.51276 0.14822 0.0
C297 C 0.22511 0.47818 0.14816 0.0
C298 C 0.19348 0.4361 0.14871 0.0
C299 C 0.15152 0.42907 0.14884 0.0
C300 C 0.24578 0.55811 0.14745 0.0
C301 C 0.2039 0.39815 0.14886 0.0
C302 C 0.32544 0.48163 0.12569 0.0
C303 C 0.35104 0.48793 0.14316 0.0
C304 C 0.28542 0.48035 0.1271 0.0
C305 C 0.26979 0.48503 0.1465 0.0
C306 C 0.29585 0.49259 0.16422 0.0
C307 C 0.3361 0.49425 0.16235 0.0
C308 C 0.25939 0.47285 0.10773 0.0
C309 C 0.28065 0.49743 0.18524 0.0
H310 H 0.16229 0.53111 0.14829 0.0
H311 H 0.12766 0.39666 0.14901 0.0
H312 H 0.27014 0.56681 0.15978 0.0
H313 H 0.26121 0.56055 0.13271 0.0
H314 H 0.2322 0.58177 0.14899 0.0
H315 H 0.17605 0.36783 0.15039 0.0
H316 H 0.21861 0.39403 0.1345 0.0
H317 H 0.22657 0.40383 0.16167 0.0
H318 H 0.33677 0.4776 0.11074 0.0
H319 H 0.35538 0.49909 0.17597 0.0
H320 H 0.24752 0.49772 0.10758 0.0
H321 H 0.23207 0.4413 0.10706 0.0
H322 H 0.27703 0.47327 0.09381 0.0
H323 H 0.26864 0.52229 0.18623 0.0
H324 H 0.30544 0.50627 0.19741 0.0
H325 H 0.25457 0.46678 0.18817 0.0
C326 C 0.70529 0.22019 0.52328 0.0
C327 C 0.6938 0.18563 0.50798 0.0
C328 C 0.73882 0.25954 0.52094 0.0
C329 C 0.7603 0.26445 0.50264 0.0
C330 C 0.74868 0.22949 0.48718 0.0
C331 C 0.71584 0.19027 0.49017 0.0
C332 C 0.75108 0.29584 0.53792 0.0
C333 C 0.77031 0.23375 0.46727 0.0
C334 C 0.81912 0.37261 0.4835 0.0
C335 C 0.86031 0.37808 0.48596 0.0
C336 C 0.78612 0.33665 0.48976 0.0
C337 C 0.79464 0.30614 0.49928 0.0
C338 C 0.83617 0.31327 0.50339 0.0
C339 C 0.86849 0.3488 0.49642 0.0
C340 C 0.74214 0.32985 0.48491 0.0
C341 C 0.84645 0.28196 0.514 0.0
H342 H 0.68807 0.21644 0.53705 0.0
H343 H 0.70658 0.16358 0.47827 0.0
H344 H 0.78453 0.30789 0.54236 0.0
H345 H 0.74645 0.32297 0.53257 0.0
H346 H 0.73279 0.28594 0.55164 0.0
H347 H 0.75684 0.20368 0.45667 0.0
H348 H 0.76809 0.25989 0.45958 0.0
H349 H 0.80374 0.24247 0.47023 0.0
H350 H 0.81247 0.39564 0.47598 0.0
H351 H 0.90001 0.35223 0.49829 0.0
H352 H 0.72342 0.32213 0.4986 0.0
H353 H 0.72739 0.30211 0.47304 0.0
H354 H 0.7408 0.35842 0.4792 0.0
H355 H 0.82762 0.27262 0.52759 0.0
H356 H 0.87984 0.29546 0.51892 0.0
H357 H 0.83886 0.25235 0.50347 0.0
C358 C 0.57141 0.66473 0.84081 0.0
C359 C 0.60184 0.65698 0.83002 0.0
C360 C 0.56481 0.70138 0.83868 0.0
C361 C 0.5905 0.73209 0.82611 0.0
C362 C 0.62213 0.72503 0.81561 0.0
C363 C 0.62718 0.68734 0.81756 0.0
C364 C 0.53004 0.70695 0.84971 0.0
C365 C 0.65054 0.75724 0.80229 0.0
C366 C 0.55167 0.8085 0.80569 0.0
C367 C 0.57141 0.84585 0.8194 0.0
C368 C 0.55728 0.77126 0.80782 0.0
C369 C 0.58396 0.77134 0.82381 0.0
C370 C 0.60405 0.8088 0.83769 0.0
C371 C 0.59734 0.84541 0.83541 0.0
C372 C 0.53498 0.73195 0.79278 0.0
C373 C 0.63288 0.81028 0.8549 0.0
H374 H 0.55238 0.64185 0.85085 0.0
H375 H 0.65093 0.68161 0.80931 0.0
H376 H 0.54294 0.7361 0.86087 0.0
H377 H 0.50903 0.71153 0.83868 0.0
H378 H 0.5114 0.67896 0.85796 0.0
H379 H 0.67457 0.74782 0.79579 0.0
H380 H 0.63218 0.76067 0.78954 0.0
H381 H 0.66623 0.78919 0.81127 0.0
H382 H 0.53231 0.80847 0.79297 0.0
H383 H 0.61233 0.87369 0.84628 0.0
H384 H 0.51892 0.70325 0.80096 0.0
H385 H 0.5578 0.72602 0.78309 0.0
H386 H 0.51181 0.73541 0.78268 0.0
H387 H 0.61572 0.78564 0.86515 0.0
H388 H 0.64696 0.84215 0.86409 0.0
H389 H 0.65815 0.80265 0.84866 0.0
C390 C 0.93973 0.54509 0.16373 0.0
C391 C 0.9516 0.51574 0.15256 0.0
C392 C 0.89835 0.54021 0.163 0.0
C393 C 0.86762 0.50548 0.15045 0.0
C394 C 0.87932 0.47538 0.13927 0.0
C395 C 0.921 0.48073 0.14057 0.0
C396 C 0.88777 0.57305 0.17532 0.0
C397 C 0.84801 0.43796 0.12559 0.0
C398 C 0.75307 0.48019 0.15946 0.0
C399 C 0.74414 0.50311 0.14512 0.0
C400 C 0.79262 0.4799 0.16114 0.0
C401 C 0.82425 0.50271 0.14807 0.0
C402 C 0.81499 0.52487 0.13323 0.0
C403 C 0.77545 0.52489 0.13199 0.0
C404 C 0.80083 0.4558 0.17717 0.0
C405 C 0.84711 0.54894 0.11866 0.0
H406 H 0.96311 0.57237 0.173 0.0
H407 H 0.92994 0.45861 0.13146 0.0
H408 H 0.87822 0.59092 0.16489 0.0
H409 H 0.86119 0.55687 0.1849 0.0
H410 H 0.91436 0.59646 0.1854 0.0
H411 H 0.86288 0.42104 0.11577 0.0
H412 H 0.82567 0.41477 0.1351 0.0
H413 H 0.83003 0.44881 0.11563 0.0
H414 H 0.72941 0.46324 0.16973 0.0
H415 H 0.76893 0.54185 0.12049 0.0
H416 H 0.8265 0.47834 0.18795 0.0
H417 H 0.81083 0.43167 0.16989 0.0
H418 H 0.77305 0.43916 0.18599 0.0
H419 H 0.87404 0.57527 0.12733 0.0
H420 H 0.83465 0.56294 0.10738 0.0
H421 H 0.85874 0.52715 0.11027 0.0
C422 C 0.38873 0.85771 0.50713 0.0
C423 C 0.38758 0.89387 0.49985 0.0
C424 C 0.35447 0.81761 0.5039 0.0
C425 C 0.31848 0.81388 0.49307 0.0
C426 C 0.31682 0.8507 0.48627 0.0
C427 C 0.35153 0.8903 0.48968 0.0
C428 C 0.35797 0.77938 0.5114 0.0
C429 C 0.27873 0.84808 0.47494 0.0
C430 C 0.24693 0.7099 0.46249 0.0
C431 C 0.21316 0.69441 0.47509 0.0
C432 C 0.2822 0.74783 0.46861 0.0
C433 C 0.2834 0.77131 0.48759 0.0
C434 C 0.25009 0.75534 0.50067 0.0
C435 C 0.21539 0.71691 0.49431 0.0
C436 C 0.31773 0.7634 0.45452 0.0
C437 C 0.25091 0.77926 0.52121 0.0
H438 H 0.41672 0.86052 0.51499 0.0
H439 H 0.35062 0.91841 0.48417 0.0
H440 H 0.32737 0.75348 0.51416 0.0
H441 H 0.37313 0.76619 0.49976 0.0
H442 H 0.37757 0.78904 0.52578 0.0
H443 H 0.28152 0.88014 0.47184 0.0
H444 H 0.27355 0.82779 0.46016 0.0
H445 H 0.25089 0.83274 0.48389 0.0
H446 H 0.24537 0.69311 0.44752 0.0
H447 H 0.18983 0.70468 0.50432 0.0
H448 H 0.34716 0.76926 0.4628 0.0
H449 H 0.32135 0.79432 0.44938 0.0
H450 H 0.313 0.74009 0.44083 0.0
H451 H 0.27904 0.78437 0.53046 0.0
H452 H 0.22307 0.76189 0.52985 0.0
H453 H 0.25262 0.81138 0.51912 0.0
C454 C 0.50075 0.38965 0.81294 0.0
C455 C 0.52734 0.42473 0.82634 0.0
C456 C 0.50352 0.35007 0.8118 0.0
C457 C 0.53363 0.34563 0.82433 0.0
C458 C 0.56052 0.38111 0.83786 0.0
C459 C 0.55675 0.41996 0.83882 0.0
C460 C 0.47436 0.31304 0.79715 0.0
C461 C 0.59344 0.37814 0.85129 0.0
C462 C 0.51904 0.23422 0.83555 0.0
C463 C 0.54594 0.22612 0.82207 0.0
C464 C 0.51451 0.27279 0.83635 0.0
C465 C 0.53732 0.30408 0.82333 0.0
C466 C 0.56464 0.2962 0.80976 0.0
C467 C 0.56852 0.25738 0.80925 0.0
C468 C 0.48545 0.28017 0.85122 0.0
C469 C 0.58952 0.32862 0.79559 0.0
H470 H 0.47788 0.39318 0.80333 0.0
H471 H 0.57687 0.4467 0.84953 0.0
H472 H 0.49239 0.30243 0.78608 0.0
H473 H 0.45606 0.28536 0.80562 0.0
H474 H 0.45257 0.32155 0.78855 0.0
H475 H 0.61198 0.40875 0.86092 0.0
H476 H 0.57881 0.35245 0.8614 0.0
H477 H 0.61487 0.36945 0.84173 0.0
H478 H 0.50172 0.21049 0.84562 0.0
H479 H 0.58871 0.25115 0.79846 0.0
H480 H 0.46172 0.2863 0.84291 0.0
H481 H 0.50302 0.30904 0.86209 0.0
H482 H 0.46939 0.25241 0.86005 0.0
H483 H 0.56818 0.33269 0.78458 0.0
H484 H 0.61132 0.31886 0.78689 0.0
H485 H 0.60757 0.36038 0.80437 0.0
C486 C 0.57408 0.93554 0.52785 0.0
C487 C 0.55853 0.94836 0.51153 0.0
C488 C 0.56518 0.89221 0.5288 0.0
C489 C 0.54123 0.86107 0.51268 0.0
C490 C 0.52497 0.87386 0.49624 0.0
C491 C 0.53335 0.91737 0.49602 0.0
C492 C 0.58187 0.87986 0.54698 0.0
C493 C 0.49992 0.84187 0.4786 0.0
C494 C 0.56256 0.76201 0.50877 0.0
C495 C 0.52858 0.73277 0.51835 0.0
C496 C 0.56563 0.80281 0.50564 0.0
C497 C 0.53477 0.81557 0.51286 0.0
C498 C 0.49967 0.7859 0.52182 0.0
C499 C 0.4966 0.74471 0.52407 0.0
C500 C 0.60297 0.83301 0.49541 0.0
C501 C 0.46648 0.79842 0.53014 0.0
H502 H 0.59317 0.95948 0.53997 0.0
H503 H 0.52135 0.92737 0.48337 0.0
H504 H 0.5564 0.85365 0.55378 0.0
H505 H 0.60495 0.86767 0.54203 0.0
H506 H 0.59699 0.90732 0.55897 0.0
H507 H 0.48919 0.85692 0.46711 0.0
H508 H 0.51898 0.82689 0.47098 0.0
H509 H 0.47241 0.81575 0.48418 0.0
H510 H 0.58785 0.75393 0.50443 0.0
H511 H 0.46945 0.72228 0.53086 0.0
H512 H 0.62356 0.85931 0.50685 0.0
H513 H 0.59318 0.84786 0.4835 0.0
H514 H 0.62119 0.8165 0.48826 0.0
H515 H 0.47963 0.8229 0.54354 0.0
H516 H 0.43935 0.77061 0.53495 0.0
H517 H 0.45564 0.81309 0.51857 0.0
C518 C 0.69646 0.46339 0.82618 0.0
C519 C 0.70314 0.50347 0.83632 0.0
C520 C 0.72887 0.45065 0.82453 0.0
C521 C 0.76871 0.47901 0.83304 0.0
C522 C 0.77516 0.51902 0.8438 0.0
C523 C 0.74214 0.53069 0.84536 0.0
C524 C 0.72068 0.40765 0.8131 0.0
C525 C 0.81722 0.55005 0.85327 0.0
C526 C 0.85774 0.45514 0.84735 0.0
C527 C 0.8861 0.47654 0.83303 0.0
C528 C 0.81688 0.45076 0.84615 0.0
C529 C 0.80459 0.46844 0.83036 0.0
C530 C 0.83134 0.48465 0.81437 0.0
C531 C 0.872 0.48852 0.8159 0.0
C532 C 0.7887 0.43209 0.86316 0.0
C533 C 0.8188 0.50267 0.79696 0.0
H534 H 0.66604 0.44222 0.81927 0.0
H535 H 0.7471 0.56158 0.85324 0.0
H536 H 0.73179 0.41239 0.79743 0.0
H537 H 0.73757 0.39193 0.8206 0.0
H538 H 0.68705 0.38573 0.81188 0.0
H539 H 0.81662 0.57934 0.86151 0.0
H540 H 0.82835 0.53428 0.86419 0.0
H541 H 0.84009 0.55992 0.84122 0.0
H542 H 0.8684 0.44561 0.8606 0.0
H543 H 0.89372 0.50412 0.80456 0.0
H544 H 0.75633 0.41236 0.85711 0.0
H545 H 0.78859 0.4586 0.87405 0.0
H546 H 0.79923 0.41202 0.87167 0.0
H547 H 0.78659 0.48144 0.79116 0.0
H548 H 0.83989 0.50692 0.78413 0.0
H549 H 0.8198 0.53443 0.8025 0.0
C550 C 0.20114 0.67463 0.14559 0.0
C551 C 0.18489 0.65077 0.16201 0.0
C552 C 0.23849 0.71205 0.1481 0.0
C553 C 0.25947 0.72609 0.16757 0.0
C554 C 0.24299 0.70204 0.1842 0.0
C555 C 0.20603 0.66439 0.18116 0.0
C556 C 0.25554 0.73649 0.12996 0.0
C557 C 0.26417 0.71629 0.20526 0.0
C558 C 0.3738 0.80194 0.17458 0.0
C559 C 0.37214 0.84102 0.18084 0.0
C560 C 0.33734 0.76451 0.16932 0.0
C561 C 0.29841 0.76621 0.17076 0.0
C562 C 0.29667 0.80586 0.17655 0.0
C563 C 0.33364 0.8429 0.18138 0.0
C564 C 0.34041 0.72293 0.16285 0.0
C565 C 0.25572 0.80882 0.17854 0.0
H566 H 0.18487 0.66383 0.13072 0.0
H567 H 0.19339 0.64587 0.19385 0.0
H568 H 0.25766 0.76945 0.13295 0.0
H569 H 0.28743 0.73953 0.12747 0.0
H570 H 0.23601 0.72065 0.11574 0.0
H571 H 0.24698 0.69422 0.21661 0.0
H572 H 0.29599 0.71808 0.20478 0.0
H573 H 0.26716 0.74892 0.2106 0.0
H574 H 0.40365 0.80062 0.17403 0.0
H575 H 0.33236 0.87304 0.18646 0.0
H576 H 0.32202 0.70736 0.14832 0.0
H577 H 0.32722 0.70045 0.17455 0.0
H578 H 0.37299 0.72778 0.16077 0.0
H579 H 0.23623 0.79486 0.1642 0.0
H580 H 0.25979 0.84243 0.18213 0.0
H581 H 0.23849 0.78991 0.19088 0.0
C582 C 0.55061 0.16599 0.50671 0.0
C583 C 0.51202 0.13641 0.51238 0.0
C584 C 0.55956 0.20968 0.50698 0.0
C585 C 0.52912 0.22405 0.51313 0.0
C586 C 0.48999 0.1941 0.51879 0.0
C587 C 0.48182 0.15057 0.51819 0.0
C588 C 0.60152 0.24038 0.50064 0.0
C589 C 0.45691 0.20814 0.52575 0.0
C590 C 0.56289 0.34072 0.53398 0.0
C591 C 0.55166 0.3575 0.51765 0.0
C592 C 0.55633 0.2976 0.53257 0.0
C593 C 0.53843 0.27051 0.5143 0.0
C594 C 0.52785 0.28744 0.49757 0.0
C595 C 0.53424 0.33067 0.49951 0.0
C596 C 0.56751 0.28077 0.55087 0.0
C597 C 0.50931 0.25973 0.47773 0.0
H598 H 0.5735 0.15483 0.50163 0.0
H599 H 0.45188 0.12761 0.52248 0.0
H600 H 0.59759 0.25693 0.48775 0.0
H601 H 0.61788 0.26546 0.51345 0.0
H602 H 0.62146 0.22394 0.49593 0.0
H603 H 0.42813 0.18087 0.5296 0.0
H604 H 0.46877 0.23212 0.5394 0.0
H605 H 0.44897 0.22388 0.51361 0.0
H606 H 0.57571 0.36108 0.54817 0.0
H607 H 0.5257 0.34355 0.48683 0.0
H608 H 0.58915 0.26622 0.5466 0.0
H609 H 0.53918 0.25519 0.55621 0.0
H610 H 0.58221 0.30629 0.56376 0.0
H611 H 0.52957 0.24447 0.47194 0.0
H612 H 0.505 0.27828 0.46581 0.0
H613 H 0.47873 0.23355 0.4803 0.0
C614 C 0.44268 0.62255 0.8194 0.0
C615 C 0.43771 0.59314 0.83352 0.0
C616 C 0.41564 0.64218 0.81846 0.0
C617 C 0.38346 0.63264 0.83228 0.0
C618 C 0.37923 0.60399 0.84704 0.0
C619 C 0.40634 0.58428 0.84738 0.0
C620 C 0.42164 0.67278 0.80262 0.0
C621 C 0.34532 0.59324 0.86211 0.0
C622 C 0.31939 0.69451 0.84398 0.0
C623 C 0.28084 0.66503 0.83484 0.0
C624 C 0.35468 0.68638 0.84198 0.0
C625 C 0.3513 0.64859 0.8302 0.0
C626 C 0.31428 0.62218 0.81863 0.0
C627 C 0.27938 0.63039 0.82126 0.0
C628 C 0.39442 0.71608 0.85386 0.0
C629 C 0.31026 0.58273 0.80503 0.0
H630 H 0.46744 0.62982 0.80884 0.0
H631 H 0.40296 0.56193 0.85844 0.0
H632 H 0.39162 0.67036 0.79646 0.0
H633 H 0.43975 0.70613 0.80977 0.0
H634 H 0.43911 0.66686 0.78968 0.0
H635 H 0.34834 0.57309 0.87357 0.0
H636 H 0.34589 0.6231 0.87026 0.0
H637 H 0.3146 0.57566 0.85384 0.0
H638 H 0.32145 0.72236 0.85382 0.0
H639 H 0.25021 0.60708 0.81397 0.0
H640 H 0.42128 0.72336 0.84402 0.0
H641 H 0.39947 0.70006 0.86671 0.0
H642 H 0.39369 0.74669 0.86018 0.0
H643 H 0.33746 0.59039 0.79539 0.0
H644 H 0.2816 0.56918 0.79492 0.0
H645 H 0.30937 0.55774 0.81461 0.0
C646 C 0.90061 0.29488 0.15382 0.0
C647 C 0.90391 0.32989 0.14377 0.0
C648 C 0.86166 0.26336 0.15795 0.0
C649 C 0.82533 0.26753 0.15218 0.0
C650 C 0.8285 0.30177 0.1411 0.0
C651 C 0.86789 0.33246 0.1369 0.0
C652 C 0.85955 0.2269 0.16945 0.0
C653 C 0.79065 0.30778 0.13492 0.0
C654 C 0.72181 0.17172 0.15574 0.0
C655 C 0.71066 0.18105 0.17542 0.0
C656 C 0.75869 0.1999 0.14775 0.0
C657 C 0.78471 0.23859 0.1596 0.0
C658 C 0.77298 0.24891 0.17916 0.0
C659 C 0.73638 0.21988 0.1869 0.0
C660 C 0.77031 0.18787 0.12685 0.0
C661 C 0.79968 0.29016 0.19217 0.0
H662 H 0.92854 0.29286 0.15907 0.0
H663 H 0.87049 0.35969 0.12921 0.0
H664 H 0.84908 0.23076 0.18505 0.0
H665 H 0.83661 0.19577 0.16174 0.0
H666 H 0.8901 0.22564 0.1708 0.0
H667 H 0.79751 0.33072 0.12328 0.0
H668 H 0.76504 0.2768 0.12877 0.0
H669 H 0.77952 0.32049 0.14856 0.0
H670 H 0.70184 0.1422 0.1466 0.0
H671 H 0.72859 0.22718 0.20224 0.0
H672 H 0.79977 0.1844 0.12816 0.0
H673 H 0.77567 0.2137 0.11695 0.0
H674 H 0.746 0.15735 0.11927 0.0
H675 H 0.82993 0.29023 0.19632 0.0
H676 H 0.78483 0.29465 0.20646 0.0
H677 H 0.80622 0.31802 0.18347 0.0
C678 C 0.03027 0.46625 0.07246 0.0
C679 C 0.06271 0.49032 0.08698 0.0
C680 C 0.03559 0.47079 0.0516 0.0
C681 C 0.07439 0.4997 0.04516 0.0
C682 C 0.10774 0.52267 0.05967 0.0
C683 C 0.10143 0.51787 0.08041 0.0
C684 C 0.99925 0.44599 0.03654 0.0
C685 C 0.14971 0.55342 0.05335 0.0
C686 C 0.09782 0.49293 0.98909 0.0
C687 C 0.09012 0.52637 0.98259 0.0
C688 C 0.09277 0.48371 0.00945 0.0
C689 C 0.07935 0.50831 0.02348 0.0
C690 C 0.0713 0.54193 0.01694 0.0
C691 C 0.07693 0.55064 0.99658 0.0
C692 C 0.10205 0.44794 0.01598 0.0
C693 C 0.05664 0.56866 0.03144 0.0
H694 H 1.00026 0.44496 0.07745 0.0
H695 H 0.12684 0.53616 0.09153 0.0
H696 H 0.98978 0.46861 0.02956 0.0
H697 H 1.00824 0.42833 0.02397 0.0
H698 H 0.97207 0.42271 0.04382 0.0
H699 H 0.17326 0.56615 0.0663 0.0
H700 H 0.16096 0.53731 0.04106 0.0
H701 H 0.14706 0.58085 0.04713 0.0
H702 H 0.10824 0.4743 0.97829 0.0
H703 H 0.0703 0.57605 0.99149 0.0
H704 H 0.07419 0.42376 0.02238 0.0
H705 H 0.12702 0.46087 0.02824 0.0
H706 H 0.11191 0.43164 0.00314 0.0
H707 H 0.02747 0.54764 0.03819 0.0
H708 H 0.05101 0.59308 0.02381 0.0
H709 H 0.08009 0.58535 0.04421 0.0
C710 C 0.50864 0.01655 0.4311 0.0
C711 C 0.53827 0.04957 0.44445 0.0
C712 C 0.50965 0.01814 0.4099 0.0
C713 C 0.54095 0.05364 0.40185 0.0
C714 C 0.57056 0.08738 0.41523 0.0
C715 C 0.5689 0.08493 0.43636 0.0
C716 C 0.47756 0.98151 0.39609 0.0
C717 C 0.60431 0.12584 0.4072 0.0
C718 C 0.56808 0.03719 0.34701 0.0
C719 C 0.5459 0.05498 0.33659 0.0
C720 C 0.56702 0.0369 0.36828 0.0
C721 C 0.54328 0.05493 0.37939 0.0
C722 C 0.52129 0.07349 0.36901 0.0
C723 C 0.52281 0.07322 0.34772 0.0
C724 C 0.59076 0.01666 0.37881 0.0
C725 C 0.49589 0.09328 0.38039 0.0
H726 H 0.48484 0.9891 0.43716 0.0
H727 H 0.59185 0.11074 0.44652 0.0
H728 H 0.46056 0.99377 0.38631 0.0
H729 H 0.49307 0.96614 0.38578 0.0
H730 H 0.45473 0.95669 0.40478 0.0
H731 H 0.62422 0.14995 0.41967 0.0
H732 H 0.62424 0.11539 0.39735 0.0
H733 H 0.5904 0.14149 0.39762 0.0
H734 H 0.58551 0.02252 0.33846 0.0
H735 H 0.50599 0.08743 0.33975 0.0
H736 H 0.56895 0.98929 0.38652 0.0
H737 H 0.6128 0.04022 0.39078 0.0
H738 H 0.60842 0.00485 0.36801 0.0
H739 H 0.47103 0.06866 0.38829 0.0
H740 H 0.48134 0.10722 0.3701 0.0
H741 H 0.51575 0.11891 0.39229 0.0
C742 C 0.55415 0.56837 0.76257 0.0
C743 C 0.56809 0.54141 0.77154 0.0
C744 C 0.55614 0.57157 0.74154 0.0
C745 C 0.57183 0.54666 0.7291 0.0
C746 C 0.58581 0.5192 0.73803 0.0
C747 C 0.58413 0.5172 0.75922 0.0
C748 C 0.54152 0.60172 0.73264 0.0
C749 C 0.60214 0.49169 0.72517 0.0
C750 C 0.53771 0.52688 0.67301 0.0
C751 C 0.57268 0.55693 0.66455 0.0
C752 C 0.53749 0.52233 0.69392 0.0
C753 C 0.57286 0.54899 0.7067 0.0
C754 C 0.60842 0.57918 0.6982 0.0
C755 C 0.60802 0.58253 0.67714 0.0
C756 C 0.49924 0.48934 0.70238 0.0
C757 C 0.64645 0.60862 0.71141 0.0
H758 H 0.5422 0.5876 0.77206 0.0
H759 H 0.59483 0.49623 0.7661 0.0
H760 H 0.5668 0.62496 0.72434 0.0
H761 H 0.51514 0.58336 0.72142 0.0
H762 H 0.53146 0.61989 0.74452 0.0
H763 H 0.61173 0.47199 0.73446 0.0
H764 H 0.57794 0.46995 0.71352 0.0
H765 H 0.62918 0.5122 0.71687 0.0
H766 H 0.51059 0.50667 0.66318 0.0
H767 H 0.63498 0.60589 0.67057 0.0
H768 H 0.48551 0.50557 0.71332 0.0
H769 H 0.50765 0.46779 0.7109 0.0
H770 H 0.47526 0.46951 0.69021 0.0
H771 H 0.6383 0.6293 0.72278 0.0
H772 H 0.67191 0.62951 0.70234 0.0
H773 H 0.65801 0.58956 0.72003 0.0
C774 C 0.50214 0.01741 0.58143 0.0
C775 C 0.53855 0.04212 0.572 0.0
C776 C 0.50243 0.01447 0.60251 0.0
C777 C 0.54013 0.03631 0.61436 0.0
C778 C 0.57697 0.06132 0.60495 0.0
C779 C 0.57569 0.06416 0.5839 0.0
C780 C 0.46242 0.98799 0.61209 0.0
C781 C 0.61785 0.08471 0.61709 0.0
C782 C 0.53797 0.06184 0.67149 0.0
C783 C 0.54551 0.02918 0.67904 0.0
C784 C 0.53546 0.06412 0.65044 0.0
C785 C 0.54109 0.03324 0.63666 0.0
C786 C 0.54842 0.99998 0.64418 0.0
C787 C 0.55027 0.99818 0.66534 0.0
C788 C 0.52703 0.0997 0.64297 0.0
C789 C 0.55501 0.96677 0.62992 0.0
H790 H 0.47328 1.00043 0.57235 0.0
H791 H 0.60404 0.083 0.5767 0.0
H792 H 0.46551 0.9618 0.61933 0.0
H793 H 0.45568 0.00823 0.62432 0.0
H794 H 0.43561 0.9736 0.60079 0.0
H795 H 0.64375 0.10249 0.60742 0.0
H796 H 0.61543 0.1078 0.62933 0.0
H797 H 0.6256 0.06152 0.62461 0.0
H798 H 0.53376 0.08551 0.6821 0.0
H799 H 0.55639 0.97311 0.67119 0.0
H800 H 0.49916 0.08596 0.63236 0.0
H801 H 0.55351 0.12015 0.63433 0.0
H802 H 0.52205 0.12031 0.65569 0.0
H803 H 0.52782 0.94974 0.61901 0.0
H804 H 0.5599 0.94272 0.63822 0.0
H805 H 0.58243 0.98273 0.62079 0.0
C806 C 0.60078 0.5482 0.91117 0.0
C807 C 0.56642 0.54692 0.90013 0.0
C808 C 0.60027 0.54632 0.93235 0.0
C809 C 0.56445 0.54279 0.94275 0.0
C810 C 0.5299 0.5421 0.93179 0.0
C811 C 0.53134 0.54433 0.91062 0.0
C812 C 0.63786 0.54747 0.94354 0.0
C813 C 0.49106 0.53811 0.94235 0.0
C814 C 0.54776 0.49391 0.99297 0.0
C815 C 0.56077 0.53041 0.00726 0.0
C816 C 0.54846 0.49748 0.97193 0.0
C817 C 0.56277 0.53858 0.96502 0.0
C818 C 0.5759 0.57556 0.97936 0.0
C819 C 0.57461 0.57101 0.00033 0.0
C820 C 0.53387 0.45726 0.9571 0.0
C821 C 0.59169 0.61993 0.97256 0.0
H822 H 0.62812 0.5504 0.90326 0.0
H823 H 0.50458 0.54319 0.90225 0.0
H824 H 0.64883 0.57389 0.9562 0.0
H825 H 0.62945 0.51707 0.95043 0.0
H826 H 0.66385 0.55201 0.93335 0.0
H827 H 0.46732 0.53919 0.93174 0.0
H828 H 0.47738 0.50739 0.94925 0.0
H829 H 0.49874 0.56436 0.95496 0.0
H830 H 0.53652 0.46242 -0.00173 0.0
H831 H 0.58508 0.59933 0.01133 0.0
H832 H 0.55944 0.45837 0.94726 0.0
H833 H 0.50806 0.4552 0.94692 0.0
H834 H 0.52309 0.42771 0.96497 0.0
H835 H 0.61924 0.62616 0.96332 0.0
H836 H 0.60039 0.64537 0.98565 0.0
H837 H 0.56761 0.62225 0.96268 0.0
C838 C 0.06635 0.51599 0.22705 0.0
C839 C 0.03565 0.48498 0.21338 0.0
C840 C 0.06329 0.51477 0.24821 0.0
C841 C 0.02868 0.4818 0.25589 0.0
C842 C 0.99757 0.4504 0.24222 0.0
C843 C 1.00144 0.45233 0.22112 0.0
C844 C 0.09713 0.54879 0.26235 0.0
C845 C 0.96014 0.41488 0.2499 0.0
C846 C 0.0409 0.45901 0.31008 0.0
C847 C 0.02205 0.48217 0.32109 0.0
C848 C 0.04262 0.45796 0.28878 0.0
C849 C 0.02499 0.48053 0.27827 0.0
C850 C 1.00513 0.50318 0.28924 0.0
C851 C 1.00397 0.50381 0.31053 0.0
C852 C 0.06398 0.43337 0.27755 0.0
C853 C 0.98598 0.52763 0.27854 0.0
H854 H 0.09295 0.5413 0.22127 0.0
H855 H 0.97751 0.42823 0.21071 0.0
H856 H 0.08382 0.56665 0.27258 0.0
H857 H 0.11107 0.53357 0.27218 0.0
H858 H 0.12215 0.57208 0.25392 0.0
H859 H 0.93884 0.39279 0.23725 0.0
H860 H 0.9702 0.39597 0.25945 0.0
H861 H 0.94268 0.42875 0.2597 0.0
H862 H 0.05443 0.44177 0.31814 0.0
H863 H 0.98988 0.52226 0.31898 0.0
H864 H 0.09108 0.4557 0.26988 0.0
H865 H 0.04255 0.40951 0.26548 0.0
H866 H 0.07489 0.41635 0.2879 0.0
H867 H 1.01042 0.55381 0.27122 0.0
H868 H 0.96996 0.54188 0.28917 0.0
H869 H 0.96329 0.50611 0.26626 0.0
loop_
_geom_bond_atom_site_label_1
_geom_bond_atom_site_label_2
_geom_bond_distance
_geom_bond_site_symmetry_2
_ccdc_geom_bond_type
Tb0 O3 2.453 1_455 S
Tb0 O4 2.596 1_455 S
Tb0 O5 2.374 . S
Tb0 O13 2.343 . S
Tb0 O15 2.353 . S
Tb0 O17 2.427 . S
Tb0 O18 2.513 . S
C1 O5 1.251 . S
C1 O7 1.263 . S
Tb2 O4 2.343 1_455 S
Tb2 O7 2.353 . S
Tb2 O10 2.427 1_455 S
Tb2 O11 2.513 1_455 S
Tb2 O12 2.453 . S
Tb2 O13 2.596 . S
Tb2 O14 2.374 . S
O3 Tb0 2.453 1_655 S
O3 C19 1.245 . S
O4 Tb0 2.596 1_655 S
O4 Tb2 2.343 1_655 S
O4 C19 1.259 . S
O5 Tb0 2.374 . S
O5 C1 1.251 . S
C6 O10 1.275 . S
C6 O11 1.246 . S
O7 C1 1.263 . S
O7 Tb2 2.353 . S
C8 O12 1.245 . S
C8 O13 1.259 . S
C9 O14 1.250 . S
C9 O15 1.263 . S
O10 Tb2 2.427 1_655 S
O10 C6 1.275 . S
O11 Tb2 2.513 1_655 S
O11 C6 1.246 . S
O12 Tb2 2.453 . S
O12 C8 1.245 . S
O13 Tb0 2.343 . S
O13 Tb2 2.596 . S
O13 C8 1.259 . S
O14 Tb2 2.374 . S
O14 C9 1.250 . S
O15 Tb0 2.353 . S
O15 C9 1.263 . S
C16 O17 1.275 . S
C16 O18 1.246 . S
O17 Tb0 2.427 . S
O17 C16 1.275 . S
O18 Tb0 2.513 . S
O18 C16 1.246 . S
C19 O3 1.245 . S
C19 O4 1.259 . S
Tb20 O23 2.453 . S
Tb20 O24 2.596 . S
Tb20 O25 2.374 . S
Tb20 O33 2.343 1_545 S
Tb20 O35 2.353 . S
Tb20 O37 2.427 1_545 S
Tb20 O38 2.513 1_545 S
C21 O25 1.251 . S
C21 O27 1.263 . S
Tb22 O24 2.343 . S
Tb22 O27 2.353 . S
Tb22 O30 2.427 . S
Tb22 O31 2.513 . S
Tb22 O32 2.453 1_545 S
Tb22 O33 2.596 1_545 S
Tb22 O34 2.374 . S
O23 Tb20 2.453 . S
O23 C39 1.245 . S
O24 Tb20 2.596 . S
O24 Tb22 2.343 . S
O24 C39 1.259 . S
O25 Tb20 2.374 . S
O25 C21 1.251 . S
C26 O30 1.275 . S
C26 O31 1.246 . S
O27 C21 1.263 . S
O27 Tb22 2.353 . S
C28 O32 1.245 . S
C28 O33 1.259 . S
C29 O34 1.250 . S
C29 O35 1.263 . S
O30 Tb22 2.427 . S
O30 C26 1.275 . S
O31 Tb22 2.513 . S
O31 C26 1.246 . S
O32 Tb22 2.453 1_565 S
O32 C28 1.245 . S
O33 Tb20 2.343 1_565 S
O33 Tb22 2.596 1_565 S
O33 C28 1.259 . S
O34 Tb22 2.374 . S
O34 C29 1.250 . S
O35 Tb20 2.353 . S
O35 C29 1.263 . S
C36 O37 1.275 . S
C36 O38 1.246 . S
O37 Tb20 2.427 1_565 S
O37 C36 1.275 . S
O38 Tb20 2.513 1_565 S
O38 C36 1.246 . S
C39 O23 1.245 . S
C39 O24 1.259 . S
Tb40 O43 2.453 . S
Tb40 O44 2.596 . S
Tb40 O45 2.374 . S
Tb40 O53 2.343 . S
Tb40 O55 2.353 . S
Tb40 O57 2.427 . S
Tb40 O58 2.513 . S
C41 O45 1.251 . S
C41 O47 1.263 . S
Tb42 O44 2.343 . S
Tb42 O47 2.353 . S
Tb42 O50 2.427 . S
Tb42 O51 2.513 . S
Tb42 O52 2.453 . S
Tb42 O53 2.596 . S
Tb42 O54 2.374 . S
O43 Tb40 2.453 . S
O43 C59 1.245 . S
O44 Tb40 2.596 . S
O44 Tb42 2.343 . S
O44 C59 1.259 . S
O45 Tb40 2.374 . S
O45 C41 1.251 . S
C46 O50 1.275 . S
C46 O51 1.246 . S
O47 C41 1.263 . S
O47 Tb42 2.353 . S
C48 O52 1.245 . S
C48 O53 1.259 . S
C49 O54 1.250 . S
C49 O55 1.263 . S
O50 Tb42 2.427 . S
O50 C46 1.275 . S
O51 Tb42 2.513 . S
O51 C46 1.246 . S
O52 Tb42 2.453 . S
O52 C48 1.245 . S
O53 Tb40 2.343 . S
O53 Tb42 2.596 . S
O53 C48 1.259 . S
O54 Tb42 2.374 . S
O54 C49 1.250 . S
O55 Tb40 2.353 . S
O55 C49 1.263 . S
C56 O57 1.275 . S
C56 O58 1.246 . S
O57 Tb40 2.427 . S
O57 C56 1.275 . S
O58 Tb40 2.513 . S
O58 C56 1.246 . S
C59 O43 1.245 . S
C59 O44 1.259 . S
C60 C61 1.386 . S
C60 C62 1.397 . S
C60 H84 0.931 . S
C61 C60 1.386 . S
C61 C65 1.397 . S
C62 C60 1.397 . S
C62 C63 1.384 . S
C62 H85 0.930 . S
C63 C62 1.384 . S
C63 C64 1.377 . S
C63 C66 1.481 . S
C64 C63 1.377 . S
C64 C65 1.389 . S
C64 H86 0.929 1_545 S
C65 C61 1.397 . S
C65 C64 1.389 . S
C65 H87 0.931 1_545 S
C66 C63 1.481 . S
C66 C67 1.387 . S
C66 C71 1.390 . S
C67 C66 1.387 . S
C67 C68 1.401 . S
C67 H88 0.930 . S
C68 C67 1.401 . S
C68 C69 1.376 . S
C68 C77 1.511 . S
C69 C68 1.376 . S
C69 C70 1.392 . S
C69 H90 0.931 . S
C70 C69 1.392 . S
C70 C71 1.361 . S
C70 C72 1.500 1_545 S
C71 C66 1.390 . S
C71 C70 1.361 . S
C71 H89 0.931 1_545 S
C72 C70 1.500 1_565 S
C72 C73 1.371 . S
C72 C74 1.365 . S
C73 C72 1.371 . S
C73 C83 1.386 . S
C73 H91 0.931 . S
C74 C72 1.365 . S
C74 C75 1.409 . S
C74 H92 0.929 . S
C75 C74 1.409 . S
C75 C76 1.380 . S
C75 H93 0.930 . S
C76 C75 1.380 . S
C76 C83 1.357 . S
C77 C68 1.511 . S
C77 C78 1.341 . S
C77 C79 1.371 . S
C78 C77 1.341 . S
C78 C82 1.394 . S
C78 H94 0.930 . S
C79 C77 1.371 . S
C79 C80 1.392 . S
C79 H95 0.931 . S
C80 C79 1.392 . S
C80 C81 1.331 . S
C80 H98 0.932 . S
C81 C80 1.331 . S
C81 C82 1.336 . S
C82 C78 1.394 . S
C82 C81 1.336 . S
C82 H97 0.929 . S
C83 C73 1.386 . S
C83 C76 1.357 . S
C83 H96 0.928 . S
H84 C60 0.931 . S
H85 C62 0.930 . S
H86 C64 0.929 1_565 S
H87 C65 0.931 1_565 S
H88 C67 0.930 . S
H89 C71 0.931 1_565 S
H90 C69 0.931 . S
H91 C73 0.931 . S
H92 C74 0.929 . S
H93 C75 0.930 . S
H94 C78 0.930 . S
H95 C79 0.931 . S
H96 C83 0.928 . S
H97 C82 0.929 . S
H98 C80 0.932 . S
C99 C100 1.386 . S
C99 C101 1.397 . S
C99 H123 0.931 . S
C100 C99 1.386 . S
C100 C104 1.397 . S
C101 C99 1.397 . S
C101 C102 1.384 . S
C101 H124 0.930 . S
C102 C101 1.384 . S
C102 C103 1.377 . S
C102 C105 1.481 . S
C103 C102 1.377 . S
C103 C104 1.389 . S
C103 H125 0.929 . S
C104 C100 1.397 . S
C104 C103 1.389 . S
C104 H126 0.931 . S
C105 C102 1.481 . S
C105 C106 1.387 . S
C105 C110 1.390 . S
C106 C105 1.387 . S
C106 C107 1.401 . S
C106 H127 0.930 . S
C107 C106 1.401 . S
C107 C108 1.376 . S
C107 C116 1.511 . S
C108 C107 1.376 . S
C108 C109 1.392 . S
C108 H129 0.931 . S
C109 C108 1.392 . S
C109 C110 1.361 . S
C109 C111 1.500 . S
C110 C105 1.390 . S
C110 C109 1.361 . S
C110 H128 0.931 . S
C111 C109 1.500 . S
C111 C112 1.371 . S
C111 C113 1.365 . S
C112 C111 1.371 . S
C112 C122 1.386 . S
C112 H130 0.931 . S
C113 C111 1.365 . S
C113 C114 1.409 . S
C113 H131 0.929 . S
C114 C113 1.409 . S
C114 C115 1.380 . S
C114 H132 0.930 . S
C115 C114 1.380 . S
C115 C122 1.357 . S
C116 C107 1.511 . S
C116 C117 1.341 . S
C116 C118 1.371 . S
C117 C116 1.341 . S
C117 C121 1.394 . S
C117 H133 0.930 . S
C118 C116 1.371 . S
C118 C119 1.392 . S
C118 H134 0.931 . S
C119 C118 1.392 . S
C119 C120 1.331 . S
C119 H137 0.932 . S
C120 C119 1.331 . S
C120 C121 1.336 . S
C121 C117 1.394 . S
C121 C120 1.336 . S
C121 H136 0.929 . S
C122 C112 1.386 . S
C122 C115 1.357 . S
C122 H135 0.928 . S
H123 C99 0.931 . S
H124 C101 0.930 . S
H125 C103 0.929 . S
H126 C104 0.931 . S
H127 C106 0.930 . S
H128 C110 0.931 . S
H129 C108 0.931 . S
H130 C112 0.931 . S
H131 C113 0.929 . S
H132 C114 0.930 . S
H133 C117 0.930 . S
H134 C118 0.931 . S
H135 C122 0.928 . S
H136 C121 0.929 . S
H137 C119 0.932 . S
C138 C139 1.386 . S
C138 C140 1.397 . S
C138 H162 0.931 . S
C139 C138 1.386 . S
C139 C143 1.397 . S
C140 C138 1.397 . S
C140 C141 1.384 . S
C140 H163 0.930 . S
C141 C140 1.384 . S
C141 C142 1.377 . S
C141 C144 1.481 . S
C142 C141 1.377 . S
C142 C143 1.389 . S
C142 H164 0.929 . S
C143 C139 1.397 . S
C143 C142 1.389 . S
C143 H165 0.931 . S
C144 C141 1.481 . S
C144 C145 1.387 . S
C144 C149 1.390 . S
C145 C144 1.387 . S
C145 C146 1.401 . S
C145 H166 0.930 . S
C146 C145 1.401 . S
C146 C147 1.376 . S
C146 C155 1.511 . S
C147 C146 1.376 . S
C147 C148 1.392 . S
C147 H168 0.931 . S
C148 C147 1.392 . S
C148 C149 1.361 . S
C148 C150 1.500 . S
C149 C144 1.390 . S
C149 C148 1.361 . S
C149 H167 0.931 . S
C150 C148 1.500 . S
C150 C151 1.371 . S
C150 C152 1.365 1_455 S
C151 C150 1.371 . S
C151 C161 1.386 1_455 S
C151 H169 0.931 . S
C152 C150 1.365 1_655 S
C152 C153 1.409 . S
C152 H170 0.929 . S
C153 C152 1.409 . S
C153 C154 1.380 . S
C153 H171 0.930 . S
C154 C153 1.380 . S
C154 C161 1.357 . S
C155 C146 1.511 . S
C155 C156 1.341 . S
C155 C157 1.371 . S
C156 C155 1.341 . S
C156 C160 1.394 . S
C156 H172 0.930 . S
C157 C155 1.371 . S
C157 C158 1.392 . S
C157 H173 0.931 . S
C158 C157 1.392 . S
C158 C159 1.331 . S
C158 H176 0.932 . S
C159 C158 1.331 . S
C159 C160 1.336 . S
C160 C156 1.394 . S
C160 C159 1.336 . S
C160 H175 0.929 . S
C161 C151 1.386 1_655 S
C161 C154 1.357 . S
C161 H174 0.928 . S
H162 C138 0.931 . S
H163 C140 0.930 . S
H164 C142 0.929 . S
H165 C143 0.931 . S
H166 C145 0.930 . S
H167 C149 0.931 . S
H168 C147 0.931 . S
H169 C151 0.931 . S
H170 C152 0.929 . S
H171 C153 0.930 . S
H172 C156 0.930 . S
H173 C157 0.931 . S
H174 C161 0.928 . S
H175 C160 0.929 . S
H176 C158 0.932 . S
C177 C178 1.386 . S
C177 C179 1.397 . S
C177 H201 0.931 . S
C178 C177 1.386 . S
C178 C182 1.397 1_655 S
C179 C177 1.397 . S
C179 C180 1.384 . S
C179 H202 0.930 . S
C180 C179 1.384 . S
C180 C181 1.377 1_655 S
C180 C183 1.481 . S
C181 C180 1.377 1_455 S
C181 C182 1.389 . S
C181 H203 0.929 . S
C182 C178 1.397 1_455 S
C182 C181 1.389 . S
C182 H204 0.931 . S
C183 C180 1.481 . S
C183 C184 1.387 . S
C183 C188 1.390 1_655 S
C184 C183 1.387 . S
C184 C185 1.401 . S
C184 H205 0.930 . S
C185 C184 1.401 . S
C185 C186 1.367 1_655 S
C185 C194 1.511 . S
C186 C185 1.367 1_455 S
C186 C187 1.402 . S
C186 H207 0.932 . S
C187 C186 1.402 . S
C187 C188 1.361 . S
C187 C189 1.500 . S
C188 C183 1.390 1_455 S
C188 C187 1.361 . S
C188 H206 0.931 . S
C189 C187 1.500 . S
C189 C190 1.371 . S
C189 C191 1.365 . S
C190 C189 1.371 . S
C190 C200 1.386 . S
C190 H208 0.931 . S
C191 C189 1.365 . S
C191 C192 1.409 . S
C191 H209 0.929 . S
C192 C191 1.409 . S
C192 C193 1.380 . S
C192 H210 0.930 . S
C193 C192 1.380 . S
C193 C200 1.357 . S
C194 C185 1.511 . S
C194 C195 1.341 . S
C194 C196 1.371 . S
C195 C194 1.341 . S
C195 C199 1.394 . S
C195 H211 0.930 . S
C196 C194 1.371 . S
C196 C197 1.392 . S
C196 H212 0.931 . S
C197 C196 1.392 . S
C197 C198 1.331 . S
C197 H215 0.932 . S
C198 C197 1.331 . S
C198 C199 1.336 . S
C199 C195 1.394 . S
C199 C198 1.336 . S
C199 H214 0.929 . S
C200 C190 1.386 . S
C200 C193 1.357 . S
C200 H213 0.928 . S
H201 C177 0.931 . S
H202 C179 0.930 . S
H203 C181 0.929 . S
H204 C182 0.931 . S
H205 C184 0.930 . S
H206 C188 0.931 . S
H207 C186 0.932 . S
H208 C190 0.931 . S
H209 C191 0.929 . S
H210 C192 0.930 . S
H211 C195 0.930 . S
H212 C196 0.931 . S
H213 C200 0.928 . S
H214 C199 0.929 . S
H215 C197 0.932 . S
C216 C217 1.386 1_565 S
C216 C218 1.397 . S
C216 H240 0.931 . S
C217 C216 1.386 1_545 S
C217 C221 1.397 . S
C218 C216 1.397 . S
C218 C219 1.384 1_565 S
C218 H241 0.930 . S
C219 C218 1.384 1_545 S
C219 C220 1.377 . S
C219 C222 1.481 . S
C220 C219 1.377 . S
C220 C221 1.389 . S
C220 H242 0.929 . S
C221 C217 1.397 . S
C221 C220 1.389 . S
C221 H243 0.931 . S
C222 C219 1.481 . S
C222 C223 1.387 1_545 S
C222 C227 1.390 . S
C223 C222 1.387 1_565 S
C223 C224 1.401 . S
C223 H244 0.930 . S
C224 C223 1.401 . S
C224 C225 1.376 1_565 S
C224 C233 1.511 . S
C225 C224 1.376 1_545 S
C225 C226 1.392 . S
C225 H246 0.931 . S
C226 C225 1.392 . S
C226 C227 1.361 . S
C226 C228 1.500 . S
C227 C222 1.390 . S
C227 C226 1.361 . S
C227 H245 0.931 . S
C228 C226 1.500 . S
C228 C229 1.371 . S
C228 C230 1.365 . S
C229 C228 1.371 . S
C229 C239 1.386 . S
C229 H247 0.931 . S
C230 C228 1.365 . S
C230 C231 1.409 . S
C230 H248 0.929 . S
C231 C230 1.409 . S
C231 C232 1.380 . S
C231 H249 0.930 . S
C232 C231 1.380 . S
C232 C239 1.357 . S
C233 C224 1.511 . S
C233 C234 1.341 . S
C233 C235 1.371 . S
C234 C233 1.341 . S
C234 C238 1.394 . S
C234 H250 0.930 . S
C235 C233 1.371 . S
C235 C236 1.392 . S
C235 H251 0.931 . S
C236 C235 1.392 . S
C236 C237 1.331 . S
C236 H254 0.932 . S
C237 C236 1.331 . S
C237 C238 1.336 . S
C238 C234 1.394 . S
C238 C237 1.336 . S
C238 H253 0.929 . S
C239 C229 1.386 . S
C239 C232 1.357 . S
C239 H252 0.928 . S
H240 C216 0.931 . S
H241 C218 0.930 . S
H242 C220 0.929 . S
H243 C221 0.931 . S
H244 C223 0.930 . S
H245 C227 0.931 . S
H246 C225 0.931 . S
H247 C229 0.931 . S
H248 C230 0.929 . S
H249 C231 0.930 . S
H250 C234 0.930 . S
H251 C235 0.931 . S
H252 C239 0.928 . S
H253 C238 0.929 . S
H254 C236 0.932 . S
C255 C256 1.386 . S
C255 C257 1.397 . S
C255 H279 0.931 . S
C256 C255 1.386 . S
C256 C260 1.397 . S
C257 C255 1.397 . S
C257 C258 1.384 . S
C257 H280 0.930 . S
C258 C257 1.384 . S
C258 C259 1.377 . S
C258 C261 1.481 . S
C259 C258 1.377 . S
C259 C260 1.389 . S
C259 H281 0.929 . S
C260 C256 1.397 . S
C260 C259 1.389 . S
C260 H282 0.931 . S
C261 C258 1.481 . S
C261 C262 1.387 . S
C261 C266 1.390 . S
C262 C261 1.387 . S
C262 C263 1.401 . S
C262 H283 0.930 . S
C263 C262 1.401 . S
C263 C264 1.376 . S
C263 C272 1.511 . S
C264 C263 1.376 . S
C264 C265 1.392 . S
C264 H285 0.931 . S
C265 C264 1.392 . S
C265 C266 1.361 . S
C265 C267 1.500 . S
C266 C261 1.390 . S
C266 C265 1.361 . S
C266 H284 0.931 . S
C267 C265 1.500 . S
C267 C268 1.371 . S
C267 C269 1.365 . S
C268 C267 1.371 . S
C268 C278 1.386 . S
C268 H286 0.931 . S
C269 C267 1.365 . S
C269 C270 1.409 . S
C269 H287 0.929 . S
C270 C269 1.409 . S
C270 C271 1.380 . S
C270 H288 0.930 . S
C271 C270 1.380 . S
C271 C278 1.357 . S
C272 C263 1.511 . S
C272 C273 1.341 . S
C272 C274 1.371 . S
C273 C272 1.341 . S
C273 C277 1.394 . S
C273 H289 0.930 . S
C274 C272 1.371 . S
C274 C275 1.392 . S
C274 H290 0.931 . S
C275 C274 1.392 . S
C275 C276 1.331 . S
C275 H293 0.932 . S
C276 C275 1.331 . S
C276 C277 1.336 . S
C277 C273 1.394 . S
C277 C276 1.336 . S
C277 H292 0.929 . S
C278 C268 1.386 . S
C278 C271 1.357 . S
C278 H291 0.928 . S
H279 C255 0.931 . S
H280 C257 0.930 . S
H281 C259 0.929 . S
H282 C260 0.931 . S
H283 C262 0.930 . S
H284 C266 0.931 . S
H285 C264 0.931 . S
H286 C268 0.931 . S
H287 C269 0.929 . S
H288 C270 0.930 . S
H289 C273 0.930 . S
H290 C274 0.931 . S
H291 C278 0.928 . S
H292 C277 0.929 . S
H293 C275 0.932 . S
C294 C295 1.391 . S
C294 C296 1.394 . S
C294 H310 0.931 . S
C295 C294 1.391 . S
C295 C299 1.376 . S
C296 C294 1.394 . S
C296 C297 1.369 . S
C296 C300 1.531 . S
C297 C296 1.369 . S
C297 C298 1.410 . S
C297 C305 1.503 . S
C298 C297 1.410 . S
C298 C299 1.392 . S
C298 C301 1.511 . S
C299 C295 1.376 . S
C299 C298 1.392 . S
C299 H311 0.929 . S
C300 C296 1.531 . S
C300 H312 0.960 . S
C300 H313 0.962 . S
C300 H314 0.960 . S
C301 C298 1.511 . S
C301 H315 0.961 . S
C301 H316 0.961 . S
C301 H317 0.961 . S
C302 C303 1.370 . S
C302 C304 1.363 . S
C302 H318 0.931 . S
C303 C302 1.370 . S
C303 C307 1.408 . S
C304 C302 1.363 . S
C304 C305 1.370 . S
C304 C308 1.524 . S
C305 C297 1.503 . S
C305 C304 1.370 . S
C305 C306 1.403 . S
C306 C305 1.403 . S
C306 C307 1.404 . S
C306 C309 1.539 . S
C307 C303 1.408 . S
C307 C306 1.404 . S
C307 H319 0.930 . S
C308 C304 1.524 . S
C308 H320 0.956 . S
C308 H321 0.961 . S
C308 H322 0.961 . S
C309 C306 1.539 . S
C309 H323 0.958 . S
C309 H324 0.961 . S
C309 H325 0.960 . S
H310 C294 0.931 . S
H311 C299 0.929 . S
H312 C300 0.960 . S
H313 C300 0.962 . S
H314 C300 0.960 . S
H315 C301 0.961 . S
H316 C301 0.961 . S
H317 C301 0.961 . S
H318 C302 0.931 . S
H319 C307 0.930 . S
H320 C308 0.956 . S
H321 C308 0.961 . S
H322 C308 0.961 . S
H323 C309 0.958 . S
H324 C309 0.961 . S
H325 C309 0.960 . S
C326 C327 1.391 . S
C326 C328 1.394 . S
C326 H342 0.931 . S
C327 C326 1.391 . S
C327 C331 1.376 . S
C328 C326 1.394 . S
C328 C329 1.369 . S
C328 C332 1.531 . S
C329 C328 1.369 . S
C329 C330 1.410 . S
C329 C337 1.503 . S
C330 C329 1.410 . S
C330 C331 1.392 . S
C330 C333 1.511 . S
C331 C327 1.376 . S
C331 C330 1.392 . S
C331 H343 0.929 . S
C332 C328 1.531 . S
C332 H344 0.960 . S
C332 H345 0.962 . S
C332 H346 0.960 . S
C333 C330 1.511 . S
C333 H347 0.961 . S
C333 H348 0.961 . S
C333 H349 0.961 . S
C334 C335 1.370 . S
C334 C336 1.363 . S
C334 H350 0.931 . S
C335 C334 1.370 . S
C335 C339 1.408 . S
C336 C334 1.363 . S
C336 C337 1.370 . S
C336 C340 1.524 . S
C337 C329 1.503 . S
C337 C336 1.370 . S
C337 C338 1.403 . S
C338 C337 1.403 . S
C338 C339 1.404 . S
C338 C341 1.539 . S
C339 C335 1.408 . S
C339 C338 1.404 . S
C339 H351 0.930 . S
C340 C336 1.524 . S
C340 H352 0.956 . S
C340 H353 0.961 . S
C340 H354 0.961 . S
C341 C338 1.539 . S
C341 H355 0.958 . S
C341 H356 0.961 . S
C341 H357 0.960 . S
H342 C326 0.931 . S
H343 C331 0.929 . S
H344 C332 0.960 . S
H345 C332 0.962 . S
H346 C332 0.960 . S
H347 C333 0.961 . S
H348 C333 0.961 . S
H349 C333 0.961 . S
H350 C334 0.931 . S
H351 C339 0.930 . S
H352 C340 0.956 . S
H353 C340 0.961 . S
H354 C340 0.961 . S
H355 C341 0.958 . S
H356 C341 0.961 . S
H357 C341 0.960 . S
C358 C359 1.391 . S
C358 C360 1.394 . S
C358 H374 0.931 . S
C359 C358 1.391 . S
C359 C363 1.376 . S
C360 C358 1.394 . S
C360 C361 1.369 . S
C360 C364 1.531 . S
C361 C360 1.369 . S
C361 C362 1.410 . S
C361 C369 1.503 . S
C362 C361 1.410 . S
C362 C363 1.392 . S
C362 C365 1.511 . S
C363 C359 1.376 . S
C363 C362 1.392 . S
C363 H375 0.929 . S
C364 C360 1.531 . S
C364 H376 0.960 . S
C364 H377 0.962 . S
C364 H378 0.960 . S
C365 C362 1.511 . S
C365 H379 0.961 . S
C365 H380 0.961 . S
C365 H381 0.961 . S
C366 C367 1.370 . S
C366 C368 1.363 . S
C366 H382 0.931 . S
C367 C366 1.370 . S
C367 C371 1.408 . S
C368 C366 1.363 . S
C368 C369 1.370 . S
C368 C372 1.524 . S
C369 C361 1.503 . S
C369 C368 1.370 . S
C369 C370 1.403 . S
C370 C369 1.403 . S
C370 C371 1.404 . S
C370 C373 1.539 . S
C371 C367 1.408 . S
C371 C370 1.404 . S
C371 H383 0.930 . S
C372 C368 1.524 . S
C372 H384 0.956 . S
C372 H385 0.961 . S
C372 H386 0.961 . S
C373 C370 1.539 . S
C373 H387 0.958 . S
C373 H388 0.961 . S
C373 H389 0.960 . S
H374 C358 0.931 . S
H375 C363 0.929 . S
H376 C364 0.960 . S
H377 C364 0.962 . S
H378 C364 0.960 . S
H379 C365 0.961 . S
H380 C365 0.961 . S
H381 C365 0.961 . S
H382 C366 0.931 . S
H383 C371 0.930 . S
H384 C372 0.956 . S
H385 C372 0.961 . S
H386 C372 0.961 . S
H387 C373 0.958 . S
H388 C373 0.961 . S
H389 C373 0.960 . S
C390 C391 1.391 . S
C390 C392 1.394 . S
C390 H406 0.931 . S
C391 C390 1.391 . S
C391 C395 1.376 . S
C392 C390 1.394 . S
C392 C393 1.369 . S
C392 C396 1.531 . S
C393 C392 1.369 . S
C393 C394 1.410 . S
C393 C401 1.503 . S
C394 C393 1.410 . S
C394 C395 1.392 . S
C394 C397 1.511 . S
C395 C391 1.376 . S
C395 C394 1.392 . S
C395 H407 0.929 . S
C396 C392 1.531 . S
C396 H408 0.960 . S
C396 H409 0.962 . S
C396 H410 0.960 . S
C397 C394 1.511 . S
C397 H411 0.961 . S
C397 H412 0.961 . S
C397 H413 0.961 . S
C398 C399 1.370 . S
C398 C400 1.363 . S
C398 H414 0.931 . S
C399 C398 1.370 . S
C399 C403 1.408 . S
C400 C398 1.363 . S
C400 C401 1.370 . S
C400 C404 1.524 . S
C401 C393 1.503 . S
C401 C400 1.370 . S
C401 C402 1.403 . S
C402 C401 1.403 . S
C402 C403 1.404 . S
C402 C405 1.539 . S
C403 C399 1.408 . S
C403 C402 1.404 . S
C403 H415 0.930 . S
C404 C400 1.524 . S
C404 H416 0.956 . S
C404 H417 0.961 . S
C404 H418 0.961 . S
C405 C402 1.539 . S
C405 H419 0.958 . S
C405 H420 0.961 . S
C405 H421 0.960 . S
H406 C390 0.931 . S
H407 C395 0.929 . S
H408 C396 0.960 . S
H409 C396 0.962 . S
H410 C396 0.960 . S
H411 C397 0.961 . S
H412 C397 0.961 . S
H413 C397 0.961 . S
H414 C398 0.931 . S
H415 C403 0.930 . S
H416 C404 0.956 . S
H417 C404 0.961 . S
H418 C404 0.961 . S
H419 C405 0.958 . S
H420 C405 0.961 . S
H421 C405 0.960 . S
C422 C423 1.391 . S
C422 C424 1.394 . S
C422 H438 0.931 . S
C423 C422 1.391 . S
C423 C427 1.376 . S
C424 C422 1.394 . S
C424 C425 1.369 . S
C424 C428 1.531 . S
C425 C424 1.369 . S
C425 C426 1.410 . S
C425 C433 1.503 . S
C426 C425 1.410 . S
C426 C427 1.392 . S
C426 C429 1.511 . S
C427 C423 1.376 . S
C427 C426 1.392 . S
C427 H439 0.929 . S
C428 C424 1.531 . S
C428 H440 0.960 . S
C428 H441 0.962 . S
C428 H442 0.960 . S
C429 C426 1.511 . S
C429 H443 0.961 . S
C429 H444 0.961 . S
C429 H445 0.961 . S
C430 C431 1.370 . S
C430 C432 1.363 . S
C430 H446 0.931 . S
C431 C430 1.370 . S
C431 C435 1.408 . S
C432 C430 1.363 . S
C432 C433 1.370 . S
C432 C436 1.524 . S
C433 C425 1.503 . S
C433 C432 1.370 . S
C433 C434 1.403 . S
C434 C433 1.403 . S
C434 C435 1.404 . S
C434 C437 1.539 . S
C435 C431 1.408 . S
C435 C434 1.404 . S
C435 H447 0.930 . S
C436 C432 1.524 . S
C436 H448 0.956 . S
C436 H449 0.961 . S
C436 H450 0.961 . S
C437 C434 1.539 . S
C437 H451 0.958 . S
C437 H452 0.961 . S
C437 H453 0.960 . S
H438 C422 0.931 . S
H439 C427 0.929 . S
H440 C428 0.960 . S
H441 C428 0.962 . S
H442 C428 0.960 . S
H443 C429 0.961 . S
H444 C429 0.961 . S
H445 C429 0.961 . S
H446 C430 0.931 . S
H447 C435 0.930 . S
H448 C436 0.956 . S
H449 C436 0.961 . S
H450 C436 0.961 . S
H451 C437 0.958 . S
H452 C437 0.961 . S
H453 C437 0.960 . S
C454 C455 1.391 . S
C454 C456 1.394 . S
C454 H470 0.931 . S
C455 C454 1.391 . S
C455 C459 1.376 . S
C456 C454 1.394 . S
C456 C457 1.369 . S
C456 C460 1.531 . S
C457 C456 1.369 . S
C457 C458 1.410 . S
C457 C465 1.503 . S
C458 C457 1.410 . S
C458 C459 1.392 . S
C458 C461 1.511 . S
C459 C455 1.376 . S
C459 C458 1.392 . S
C459 H471 0.929 . S
C460 C456 1.531 . S
C460 H472 0.960 . S
C460 H473 0.962 . S
C460 H474 0.960 . S
C461 C458 1.511 . S
C461 H475 0.961 . S
C461 H476 0.961 . S
C461 H477 0.961 . S
C462 C463 1.370 . S
C462 C464 1.363 . S
C462 H478 0.931 . S
C463 C462 1.370 . S
C463 C467 1.408 . S
C464 C462 1.363 . S
C464 C465 1.370 . S
C464 C468 1.524 . S
C465 C457 1.503 . S
C465 C464 1.370 . S
C465 C466 1.403 . S
C466 C465 1.403 . S
C466 C467 1.404 . S
C466 C469 1.539 . S
C467 C463 1.408 . S
C467 C466 1.404 . S
C467 H479 0.930 . S
C468 C464 1.524 . S
C468 H480 0.956 . S
C468 H481 0.961 . S
C468 H482 0.961 . S
C469 C466 1.539 . S
C469 H483 0.958 . S
C469 H484 0.961 . S
C469 H485 0.960 . S
H470 C454 0.931 . S
H471 C459 0.929 . S
H472 C460 0.960 . S
H473 C460 0.962 . S
H474 C460 0.960 . S
H475 C461 0.961 . S
H476 C461 0.961 . S
H477 C461 0.961 . S
H478 C462 0.931 . S
H479 C467 0.930 . S
H480 C468 0.956 . S
H481 C468 0.961 . S
H482 C468 0.961 . S
H483 C469 0.958 . S
H484 C469 0.961 . S
H485 C469 0.960 . S
C486 C487 1.391 . S
C486 C488 1.394 . S
C486 H502 0.931 . S
C487 C486 1.391 . S
C487 C491 1.376 . S
C488 C486 1.394 . S
C488 C489 1.369 . S
C488 C492 1.531 . S
C489 C488 1.369 . S
C489 C490 1.410 . S
C489 C497 1.503 . S
C490 C489 1.410 . S
C490 C491 1.392 . S
C490 C493 1.511 . S
C491 C487 1.376 . S
C491 C490 1.392 . S
C491 H503 0.929 . S
C492 C488 1.531 . S
C492 H504 0.960 . S
C492 H505 0.962 . S
C492 H506 0.960 . S
C493 C490 1.511 . S
C493 H507 0.961 . S
C493 H508 0.961 . S
C493 H509 0.961 . S
C494 C495 1.370 . S
C494 C496 1.363 . S
C494 H510 0.931 . S
C495 C494 1.370 . S
C495 C499 1.408 . S
C496 C494 1.363 . S
C496 C497 1.370 . S
C496 C500 1.524 . S
C497 C489 1.503 . S
C497 C496 1.370 . S
C497 C498 1.403 . S
C498 C497 1.403 . S
C498 C499 1.404 . S
C498 C501 1.539 . S
C499 C495 1.408 . S
C499 C498 1.404 . S
C499 H511 0.930 . S
C500 C496 1.524 . S
C500 H512 0.956 . S
C500 H513 0.961 . S
C500 H514 0.961 . S
C501 C498 1.539 . S
C501 H515 0.958 . S
C501 H516 0.961 . S
C501 H517 0.960 . S
H502 C486 0.931 . S
H503 C491 0.929 . S
H504 C492 0.960 . S
H505 C492 0.962 . S
H506 C492 0.960 . S
H507 C493 0.961 . S
H508 C493 0.961 . S
H509 C493 0.961 . S
H510 C494 0.931 . S
H511 C499 0.930 . S
H512 C500 0.956 . S
H513 C500 0.961 . S
H514 C500 0.961 . S
H515 C501 0.958 . S
H516 C501 0.961 . S
H517 C501 0.960 . S
C518 C519 1.391 . S
C518 C520 1.394 . S
C518 H534 0.931 . S
C519 C518 1.391 . S
C519 C523 1.376 . S
C520 C518 1.394 . S
C520 C521 1.369 . S
C520 C524 1.531 . S
C521 C520 1.369 . S
C521 C522 1.410 . S
C521 C529 1.503 . S
C522 C521 1.410 . S
C522 C523 1.392 . S
C522 C525 1.511 . S
C523 C519 1.376 . S
C523 C522 1.392 . S
C523 H535 0.929 . S
C524 C520 1.531 . S
C524 H536 0.960 . S
C524 H537 0.962 . S
C524 H538 0.960 . S
C525 C522 1.511 . S
C525 H539 0.961 . S
C525 H540 0.961 . S
C525 H541 0.961 . S
C526 C527 1.370 . S
C526 C528 1.363 . S
C526 H542 0.931 . S
C527 C526 1.370 . S
C527 C531 1.408 . S
C528 C526 1.363 . S
C528 C529 1.370 . S
C528 C532 1.524 . S
C529 C521 1.503 . S
C529 C528 1.370 . S
C529 C530 1.403 . S
C530 C529 1.403 . S
C530 C531 1.404 . S
C530 C533 1.539 . S
C531 C527 1.408 . S
C531 C530 1.404 . S
C531 H543 0.930 . S
C532 C528 1.524 . S
C532 H544 0.956 . S
C532 H545 0.961 . S
C532 H546 0.961 . S
C533 C530 1.539 . S
C533 H547 0.958 . S
C533 H548 0.961 . S
C533 H549 0.960 . S
H534 C518 0.931 . S
H535 C523 0.929 . S
H536 C524 0.960 . S
H537 C524 0.962 . S
H538 C524 0.960 . S
H539 C525 0.961 . S
H540 C525 0.961 . S
H541 C525 0.961 . S
H542 C526 0.931 . S
H543 C531 0.930 . S
H544 C532 0.956 . S
H545 C532 0.961 . S
H546 C532 0.961 . S
H547 C533 0.958 . S
H548 C533 0.961 . S
H549 C533 0.960 . S
C550 C551 1.391 . S
C550 C552 1.394 . S
C550 H566 0.931 . S
C551 C550 1.391 . S
C551 C555 1.376 . S
C552 C550 1.394 . S
C552 C553 1.369 . S
C552 C556 1.531 . S
C553 C552 1.369 . S
C553 C554 1.410 . S
C553 C561 1.503 . S
C554 C553 1.410 . S
C554 C555 1.392 . S
C554 C557 1.511 . S
C555 C551 1.376 . S
C555 C554 1.392 . S
C555 H567 0.929 . S
C556 C552 1.531 . S
C556 H568 0.960 . S
C556 H569 0.962 . S
C556 H570 0.960 . S
C557 C554 1.511 . S
C557 H571 0.961 . S
C557 H572 0.961 . S
C557 H573 0.961 . S
C558 C559 1.370 . S
C558 C560 1.363 . S
C558 H574 0.931 . S
C559 C558 1.370 . S
C559 C563 1.408 . S
C560 C558 1.363 . S
C560 C561 1.370 . S
C560 C564 1.524 . S
C561 C553 1.503 . S
C561 C560 1.370 . S
C561 C562 1.403 . S
C562 C561 1.403 . S
C562 C563 1.404 . S
C562 C565 1.539 . S
C563 C559 1.408 . S
C563 C562 1.404 . S
C563 H575 0.930 . S
C564 C560 1.524 . S
C564 H576 0.956 . S
C564 H577 0.961 . S
C564 H578 0.961 . S
C565 C562 1.539 . S
C565 H579 0.958 . S
C565 H580 0.961 . S
C565 H581 0.960 . S
H566 C550 0.931 . S
H567 C555 0.929 . S
H568 C556 0.960 . S
H569 C556 0.962 . S
H570 C556 0.960 . S
H571 C557 0.961 . S
H572 C557 0.961 . S
H573 C557 0.961 . S
H574 C558 0.931 . S
H575 C563 0.930 . S
H576 C564 0.956 . S
H577 C564 0.961 . S
H578 C564 0.961 . S
H579 C565 0.958 . S
H580 C565 0.961 . S
H581 C565 0.960 . S
C582 C583 1.391 . S
C582 C584 1.394 . S
C582 H598 0.931 . S
C583 C582 1.391 . S
C583 C587 1.376 . S
C584 C582 1.394 . S
C584 C585 1.369 . S
C584 C588 1.531 . S
C585 C584 1.369 . S
C585 C586 1.410 . S
C585 C593 1.503 . S
C586 C585 1.410 . S
C586 C587 1.392 . S
C586 C589 1.511 . S
C587 C583 1.376 . S
C587 C586 1.392 . S
C587 H599 0.929 . S
C588 C584 1.531 . S
C588 H600 0.960 . S
C588 H601 0.962 . S
C588 H602 0.960 . S
C589 C586 1.511 . S
C589 H603 0.961 . S
C589 H604 0.961 . S
C589 H605 0.961 . S
C590 C591 1.370 . S
C590 C592 1.363 . S
C590 H606 0.931 . S
C591 C590 1.370 . S
C591 C595 1.408 . S
C592 C590 1.363 . S
C592 C593 1.370 . S
C592 C596 1.524 . S
C593 C585 1.503 . S
C593 C592 1.370 . S
C593 C594 1.403 . S
C594 C593 1.403 . S
C594 C595 1.404 . S
C594 C597 1.539 . S
C595 C591 1.408 . S
C595 C594 1.404 . S
C595 H607 0.930 . S
C596 C592 1.524 . S
C596 H608 0.956 . S
C596 H609 0.961 . S
C596 H610 0.961 . S
C597 C594 1.539 . S
C597 H611 0.958 . S
C597 H612 0.961 . S
C597 H613 0.960 . S
H598 C582 0.931 . S
H599 C587 0.929 . S
H600 C588 0.960 . S
H601 C588 0.962 . S
H602 C588 0.960 . S
H603 C589 0.961 . S
H604 C589 0.961 . S
H605 C589 0.961 . S
H606 C590 0.931 . S
H607 C595 0.930 . S
H608 C596 0.956 . S
H609 C596 0.961 . S
H610 C596 0.961 . S
H611 C597 0.958 . S
H612 C597 0.961 . S
H613 C597 0.960 . S
C614 C615 1.391 . S
C614 C616 1.394 . S
C614 H630 0.931 . S
C615 C614 1.391 . S
C615 C619 1.376 . S
C616 C614 1.394 . S
C616 C617 1.369 . S
C616 C620 1.531 . S
C617 C616 1.369 . S
C617 C618 1.410 . S
C617 C625 1.503 . S
C618 C617 1.410 . S
C618 C619 1.392 . S
C618 C621 1.511 . S
C619 C615 1.376 . S
C619 C618 1.392 . S
C619 H631 0.929 . S
C620 C616 1.531 . S
C620 H632 0.960 . S
C620 H633 0.962 . S
C620 H634 0.960 . S
C621 C618 1.511 . S
C621 H635 0.961 . S
C621 H636 0.961 . S
C621 H637 0.961 . S
C622 C623 1.370 . S
C622 C624 1.363 . S
C622 H638 0.931 . S
C623 C622 1.370 . S
C623 C627 1.408 . S
C624 C622 1.363 . S
C624 C625 1.370 . S
C624 C628 1.524 . S
C625 C617 1.503 . S
C625 C624 1.370 . S
C625 C626 1.403 . S
C626 C625 1.403 . S
C626 C627 1.404 . S
C626 C629 1.539 . S
C627 C623 1.408 . S
C627 C626 1.404 . S
C627 H639 0.930 . S
C628 C624 1.524 . S
C628 H640 0.956 . S
C628 H641 0.961 . S
C628 H642 0.961 . S
C629 C626 1.539 . S
C629 H643 0.958 . S
C629 H644 0.961 . S
C629 H645 0.960 . S
H630 C614 0.931 . S
H631 C619 0.929 . S
H632 C620 0.960 . S
H633 C620 0.962 . S
H634 C620 0.960 . S
H635 C621 0.961 . S
H636 C621 0.961 . S
H637 C621 0.961 . S
H638 C622 0.931 . S
H639 C627 0.930 . S
H640 C628 0.956 . S
H641 C628 0.961 . S
H642 C628 0.961 . S
H643 C629 0.958 . S
H644 C629 0.961 . S
H645 C629 0.960 . S
C646 C647 1.391 . S
C646 C648 1.394 . S
C646 H662 0.931 . S
C647 C646 1.391 . S
C647 C651 1.376 . S
C648 C646 1.394 . S
C648 C649 1.369 . S
C648 C652 1.531 . S
C649 C648 1.369 . S
C649 C650 1.410 . S
C649 C657 1.503 . S
C650 C649 1.410 . S
C650 C651 1.392 . S
C650 C653 1.511 . S
C651 C647 1.376 . S
C651 C650 1.392 . S
C651 H663 0.929 . S
C652 C648 1.531 . S
C652 H664 0.960 . S
C652 H665 0.962 . S
C652 H666 0.960 . S
C653 C650 1.511 . S
C653 H667 0.961 . S
C653 H668 0.961 . S
C653 H669 0.961 . S
C654 C655 1.370 . S
C654 C656 1.363 . S
C654 H670 0.931 . S
C655 C654 1.370 . S
C655 C659 1.408 . S
C656 C654 1.363 . S
C656 C657 1.370 . S
C656 C660 1.524 . S
C657 C649 1.503 . S
C657 C656 1.370 . S
C657 C658 1.403 . S
C658 C657 1.403 . S
C658 C659 1.404 . S
C658 C661 1.539 . S
C659 C655 1.408 . S
C659 C658 1.404 . S
C659 H671 0.930 . S
C660 C656 1.524 . S
C660 H672 0.956 . S
C660 H673 0.961 . S
C660 H674 0.961 . S
C661 C658 1.539 . S
C661 H675 0.958 . S
C661 H676 0.961 . S
C661 H677 0.960 . S
H662 C646 0.931 . S
H663 C651 0.929 . S
H664 C652 0.960 . S
H665 C652 0.962 . S
H666 C652 0.960 . S
H667 C653 0.961 . S
H668 C653 0.961 . S
H669 C653 0.961 . S
H670 C654 0.931 . S
H671 C659 0.930 . S
H672 C660 0.956 . S
H673 C660 0.961 . S
H674 C660 0.961 . S
H675 C661 0.958 . S
H676 C661 0.961 . S
H677 C661 0.960 . S
C678 C679 1.391 . S
C678 C680 1.394 . S
C678 H694 0.931 . S
C679 C678 1.391 . S
C679 C683 1.376 . S
C680 C678 1.394 . S
C680 C681 1.369 . S
C680 C684 1.531 . S
C681 C680 1.369 . S
C681 C682 1.410 . S
C681 C689 1.503 . S
C682 C681 1.410 . S
C682 C683 1.392 . S
C682 C685 1.511 . S
C683 C679 1.376 . S
C683 C682 1.392 . S
C683 H695 0.929 . S
C684 C680 1.531 . S
C684 H696 0.960 . S
C684 H697 0.962 1_455 S
C684 H698 0.960 . S
C685 C682 1.511 . S
C685 H699 0.961 . S
C685 H700 0.961 . S
C685 H701 0.961 . S
C686 C687 1.370 1_554 S
C686 C688 1.363 . S
C686 H702 0.931 1_554 S
C687 C686 1.370 1_556 S
C687 C691 1.408 1_556 S
C688 C686 1.363 . S
C688 C689 1.370 . S
C688 C692 1.516 1_455 S
C689 C681 1.503 . S
C689 C688 1.370 . S
C689 C690 1.403 . S
C690 C689 1.403 . S
C690 C691 1.404 . S
C690 C693 1.539 . S
C691 C687 1.408 1_554 S
C691 C690 1.404 . S
C691 H703 0.930 . S
C692 C688 1.516 1_655 S
C692 H704 0.972 . S
C692 H705 0.947 1_655 S
C692 H706 0.967 . S
C693 C690 1.539 . S
C693 H707 0.958 . S
C693 H708 0.961 . S
C693 H709 0.960 . S
H694 C678 0.931 . S
H695 C683 0.929 . S
H696 C684 0.960 . S
H697 C684 0.962 1_655 S
H698 C684 0.960 . S
H699 C685 0.961 . S
H700 C685 0.961 . S
H701 C685 0.961 . S
H702 C686 0.931 1_556 S
H703 C691 0.930 . S
H704 C692 0.972 . S
H705 C692 0.947 1_455 S
H706 C692 0.967 . S
H707 C693 0.958 . S
H708 C693 0.961 . S
H709 C693 0.960 . S
C710 C711 1.391 . S
C710 C712 1.394 . S
C710 H726 0.931 . S
C711 C710 1.391 . S
C711 C715 1.376 . S
C712 C710 1.394 . S
C712 C713 1.369 . S
C712 C716 1.531 . S
C713 C712 1.369 . S
C713 C714 1.410 . S
C713 C721 1.503 . S
C714 C713 1.410 . S
C714 C715 1.392 . S
C714 C717 1.511 . S
C715 C711 1.376 . S
C715 C714 1.392 . S
C715 H727 0.929 . S
C716 C712 1.531 . S
C716 H728 0.960 . S
C716 H729 0.962 . S
C716 H730 0.960 . S
C717 C714 1.511 . S
C717 H731 0.961 . S
C717 H732 0.961 . S
C717 H733 0.961 . S
C718 C719 1.370 . S
C718 C720 1.363 . S
C718 H734 0.928 1_545 S
C719 C718 1.370 . S
C719 C723 1.408 . S
C720 C718 1.363 . S
C720 C721 1.370 . S
C720 C724 1.524 1_545 S
C721 C713 1.503 . S
C721 C720 1.370 . S
C721 C722 1.403 . S
C722 C721 1.403 . S
C722 C723 1.404 . S
C722 C725 1.539 . S
C723 C719 1.408 . S
C723 C722 1.404 . S
C723 H735 0.930 . S
C724 C720 1.524 1_565 S
C724 H736 0.956 . S
C724 H737 0.961 . S
C724 H738 0.961 . S
C725 C722 1.539 . S
C725 H739 0.958 . S
C725 H740 0.961 . S
C725 H741 0.960 . S
H726 C710 0.931 . S
H727 C715 0.929 . S
H728 C716 0.960 . S
H729 C716 0.962 . S
H730 C716 0.960 . S
H731 C717 0.961 . S
H732 C717 0.961 . S
H733 C717 0.961 . S
H734 C718 0.928 1_565 S
H735 C723 0.930 . S
H736 C724 0.956 . S
H737 C724 0.961 . S
H738 C724 0.961 . S
H739 C725 0.958 . S
H740 C725 0.961 . S
H741 C725 0.960 . S
C742 C743 1.391 . S
C742 C744 1.394 . S
C742 H758 0.931 . S
C743 C742 1.391 . S
C743 C747 1.376 . S
C744 C742 1.394 . S
C744 C745 1.369 . S
C744 C748 1.531 . S
C745 C744 1.369 . S
C745 C746 1.410 . S
C745 C753 1.503 . S
C746 C745 1.410 . S
C746 C747 1.392 . S
C746 C749 1.511 . S
C747 C743 1.376 . S
C747 C746 1.392 . S
C747 H759 0.929 . S
C748 C744 1.531 . S
C748 H760 0.960 . S
C748 H761 0.962 . S
C748 H762 0.960 . S
C749 C746 1.511 . S
C749 H763 0.961 . S
C749 H764 0.961 . S
C749 H765 0.961 . S
C750 C751 1.370 . S
C750 C752 1.363 . S
C750 H766 0.931 . S
C751 C750 1.370 . S
C751 C755 1.408 . S
C752 C750 1.363 . S
C752 C753 1.370 . S
C752 C756 1.524 . S
C753 C745 1.503 . S
C753 C752 1.370 . S
C753 C754 1.403 . S
C754 C753 1.403 . S
C754 C755 1.404 . S
C754 C757 1.539 . S
C755 C751 1.408 . S
C755 C754 1.404 . S
C755 H767 0.930 . S
C756 C752 1.524 . S
C756 H768 0.956 . S
C756 H769 0.961 . S
C756 H770 0.961 . S
C757 C754 1.539 . S
C757 H771 0.958 . S
C757 H772 0.961 . S
C757 H773 0.960 . S
H758 C742 0.931 . S
H759 C747 0.929 . S
H760 C748 0.960 . S
H761 C748 0.962 . S
H762 C748 0.960 . S
H763 C749 0.961 . S
H764 C749 0.961 . S
H765 C749 0.961 . S
H766 C750 0.931 . S
H767 C755 0.930 . S
H768 C756 0.956 . S
H769 C756 0.961 . S
H770 C756 0.961 . S
H771 C757 0.958 . S
H772 C757 0.961 . S
H773 C757 0.960 . S
C774 C775 1.391 . S
C774 C776 1.393 1_545 S
C774 H790 0.931 1_545 S
C775 C774 1.391 . S
C775 C779 1.376 . S
C776 C774 1.393 1_565 S
C776 C777 1.369 1_565 S
C776 C780 1.531 . S
C777 C776 1.369 1_545 S
C777 C778 1.410 . S
C777 C785 1.503 . S
C778 C777 1.410 . S
C778 C779 1.392 . S
C778 C781 1.511 . S
C779 C775 1.376 . S
C779 C778 1.392 . S
C779 H791 0.929 . S
C780 C776 1.531 . S
C780 H792 0.960 . S
C780 H793 0.962 1_565 S
C780 H794 0.960 . S
C781 C778 1.511 . S
C781 H795 0.961 . S
C781 H796 0.961 . S
C781 H797 0.961 . S
C782 C783 1.370 . S
C782 C784 1.363 . S
C782 H798 0.931 . S
C783 C782 1.370 . S
C783 C787 1.408 1_545 S
C784 C782 1.363 . S
C784 C785 1.370 . S
C784 C788 1.524 . S
C785 C777 1.503 . S
C785 C784 1.370 . S
C785 C786 1.403 1_545 S
C786 C785 1.403 1_565 S
C786 C787 1.404 . S
C786 C789 1.539 . S
C787 C783 1.408 1_565 S
C787 C786 1.404 . S
C787 H799 0.930 . S
C788 C784 1.524 . S
C788 H800 0.956 . S
C788 H801 0.961 . S
C788 H802 0.961 . S
C789 C786 1.539 . S
C789 H803 0.958 . S
C789 H804 0.961 . S
C789 H805 0.960 . S
H790 C774 0.931 1_565 S
H791 C779 0.929 . S
H792 C780 0.960 . S
H793 C780 0.962 1_545 S
H794 C780 0.960 . S
H795 C781 0.961 . S
H796 C781 0.961 . S
H797 C781 0.961 . S
H798 C782 0.931 . S
H799 C787 0.930 . S
H800 C788 0.956 . S
H801 C788 0.961 . S
H802 C788 0.961 . S
H803 C789 0.958 . S
H804 C789 0.961 . S
H805 C789 0.960 . S
C806 C807 1.391 . S
C806 C808 1.394 . S
C806 H822 0.931 . S
C807 C806 1.391 . S
C807 C811 1.376 . S
C808 C806 1.394 . S
C808 C809 1.369 . S
C808 C812 1.531 . S
C809 C808 1.369 . S
C809 C810 1.410 . S
C809 C817 1.503 . S
C810 C809 1.410 . S
C810 C811 1.392 . S
C810 C813 1.511 . S
C811 C807 1.376 . S
C811 C810 1.392 . S
C811 H823 0.929 . S
C812 C808 1.531 . S
C812 H824 0.960 . S
C812 H825 0.962 . S
C812 H826 0.960 . S
C813 C810 1.511 . S
C813 H827 0.961 . S
C813 H828 0.961 . S
C813 H829 0.961 . S
C814 C815 1.369 1_556 S
C814 C816 1.363 . S
C814 H830 0.931 . S
C815 C814 1.369 1_554 S
C815 C819 1.408 1_554 S
C816 C814 1.363 . S
C816 C817 1.370 . S
C816 C820 1.524 . S
C817 C809 1.503 . S
C817 C816 1.370 . S
C817 C818 1.403 . S
C818 C817 1.403 . S
C818 C819 1.404 . S
C818 C821 1.539 . S
C819 C815 1.408 1_556 S
C819 C818 1.404 . S
C819 H831 0.930 1_556 S
C820 C816 1.524 . S
C820 H832 0.956 . S
C820 H833 0.961 . S
C820 H834 0.961 . S
C821 C818 1.539 . S
C821 H835 0.958 . S
C821 H836 0.961 . S
C821 H837 0.960 . S
H822 C806 0.931 . S
H823 C811 0.929 . S
H824 C812 0.960 . S
H825 C812 0.962 . S
H826 C812 0.960 . S
H827 C813 0.961 . S
H828 C813 0.961 . S
H829 C813 0.961 . S
H830 C814 0.931 . S
H831 C819 0.930 1_554 S
H832 C820 0.956 . S
H833 C820 0.961 . S
H834 C820 0.961 . S
H835 C821 0.958 . S
H836 C821 0.961 . S
H837 C821 0.960 . S
C838 C839 1.391 . S
C838 C840 1.394 . S
C838 H854 0.931 . S
C839 C838 1.391 . S
C839 C843 1.376 1_455 S
C840 C838 1.394 . S
C840 C841 1.369 . S
C840 C844 1.531 . S
C841 C840 1.369 . S
C841 C842 1.410 1_455 S
C841 C849 1.503 . S
C842 C841 1.410 1_655 S
C842 C843 1.392 . S
C842 C845 1.511 . S
C843 C839 1.376 1_655 S
C843 C842 1.392 . S
C843 H855 0.929 . S
C844 C840 1.531 . S
C844 H856 0.960 . S
C844 H857 0.962 . S
C844 H858 0.960 . S
C845 C842 1.511 . S
C845 H859 0.961 . S
C845 H860 0.961 . S
C845 H861 0.961 . S
C846 C847 1.382 . S
C846 C848 1.363 . S
C846 H862 0.931 . S
C847 C846 1.382 . S
C847 C851 1.400 . S
C848 C846 1.363 . S
C848 C849 1.370 . S
C848 C852 1.524 . S
C849 C841 1.503 . S
C849 C848 1.370 . S
C849 C850 1.403 . S
C850 C849 1.403 . S
C850 C851 1.404 . S
C850 C853 1.539 . S
C851 C847 1.400 . S
C851 C850 1.404 . S
C851 H863 0.931 . S
C852 C848 1.524 . S
C852 H864 0.956 . S
C852 H865 0.961 1_455 S
C852 H866 0.961 . S
C853 C850 1.539 . S
C853 H867 0.958 . S
C853 H868 0.961 1_455 S
C853 H869 0.960 1_455 S
H854 C838 0.931 . S
H855 C843 0.929 . S
H856 C844 0.960 . S
H857 C844 0.962 . S
H858 C844 0.960 . S
H859 C845 0.961 . S
H860 C845 0.961 . S
H861 C845 0.961 . S
H862 C846 0.931 . S
H863 C851 0.931 . S
H864 C852 0.956 . S
H865 C852 0.961 1_655 S
H866 C852 0.961 . S
H867 C853 0.958 . S
H868 C853 0.961 1_655 S
H869 C853 0.960 1_655 S
C295 C8 2.048 . S
C303 C271 2.088 . S
C327 C26 1.337 . S
C335 C198 1.352 . S
C359 C48 1.497 . S
C367 C237 1.555 . S
C391 C19 1.797 . S
C399 C276 1.848 . S
C431 C193 1.533 . S
C423 C36 1.520 . S
C463 C232 1.753 . S
C455 C59 1.724 . S
C487 C28 1.559 . S
C495 C120 1.566 . S
C519 C46 1.231 . S
C527 C154 1.266 . S
C551 C16 1.566 . S
C559 C76 1.589 . S
C591 C115 1.732 . S
C583 C39 1.690 . S
C623 C159 1.018 . S
C615 C56 0.980 . S
C647 C6 1.385 . S
C655 C81 1.375 . S
C687 C139 1.436 . S
C679 C9 1.405 . S
C711 C21 1.508 . S
C719 C61 1.515 . S
C743 C49 1.482 . S
C751 C100 1.491 . S
C783 C217 1.476 . S
C775 C29 1.475 . S
C815 C256 1.590 . S
C807 C41 1.562 . S
C839 C1 1.498 . S
C847 C178 1.511 1_455 S
