# Generated by pormake.
# Topology ctn, (3,4)-cn, num edge types: 1
# Building blocks:
#     Node 0, Type 0, BuildingBlock: QEWDON_clean_linker_0, # of connection points: 3
#     Node 1, Type 0, BuildingBlock: QEWDON_clean_linker_0, # of connection points: 3
#     Node 2, Type 0, BuildingBlock: QEWDON_clean_linker_0, # of connection points: 3
#     Node 3, Type 0, BuildingBlock: QEWDON_clean_linker_0, # of connection points: 3
#     Node 4, Type 0, BuildingBlock: QEWDON_clean_linker_0, # of connection points: 3
#     Node 5, Type 0, BuildingBlock: QEWDON_clean_linker_0, # of connection points: 3
#     Node 6, Type 0, BuildingBlock: QEWDON_clean_linker_0, # of connection points: 3
#     Node 7, Type 0, BuildingBlock: QEWDON_clean_linker_0, # of connection points: 3
#     Node 8, Type 0, BuildingBlock: QEWDON_clean_linker_0, # of connection points: 3
#     Node 9, Type 0, BuildingBlock: QEWDON_clean_linker_0, # of connection points: 3
#     Node 10, Type 0, BuildingBlock: QEWDON_clean_linker_0, # of connection points: 3
#     Node 11, Type 0, BuildingBlock: QEWDON_clean_linker_0, # of connection points: 3
#     Node 12, Type 0, BuildingBlock: QEWDON_clean_linker_0, # of connection points: 3
#     Node 13, Type 0, BuildingBlock: QEWDON_clean_linker_0, # of connection points: 3
#     Node 14, Type 0, BuildingBlock: QEWDON_clean_linker_0, # of connection points: 3
#     Node 15, Type 0, BuildingBlock: QEWDON_clean_linker_0, # of connection points: 3
#     Node 16, Type 1, BuildingBlock: AZAVOO_clean_sbu_0, # of connection points: 4
#     Node 17, Type 1, BuildingBlock: AZAVOO_clean_sbu_0, # of connection points: 4
#     Node 18, Type 1, BuildingBlock: AZAVOO_clean_sbu_0, # of connection points: 4
#     Node 19, Type 1, BuildingBlock: AZAVOO_clean_sbu_0, # of connection points: 4
#     Node 20, Type 1, BuildingBlock: AZAVOO_clean_sbu_0, # of connection points: 4
#     Node 21, Type 1, BuildingBlock: AZAVOO_clean_sbu_0, # of connection points: 4
#     Node 22, Type 1, BuildingBlock: AZAVOO_clean_sbu_0, # of connection points: 4
#     Node 23, Type 1, BuildingBlock: AZAVOO_clean_sbu_0, # of connection points: 4
#     Node 24, Type 1, BuildingBlock: AZAVOO_clean_sbu_0, # of connection points: 4
#     Node 25, Type 1, BuildingBlock: AZAVOO_clean_sbu_0, # of connection points: 4
#     Node 26, Type 1, BuildingBlock: AZAVOO_clean_sbu_0, # of connection points: 4
#     Node 27, Type 1, BuildingBlock: AZAVOO_clean_sbu_0, # of connection points: 4
#     Edge 28, Type (0, 1), BuildingBlock: XUDNAN_clean_linker_2, # of connection points: 2
#     Edge 29, Type (0, 1), BuildingBlock: XUDNAN_clean_linker_2, # of connection points: 2
#     Edge 30, Type (0, 1), BuildingBlock: XUDNAN_clean_linker_2, # of connection points: 2
#     Edge 31, Type (0, 1), BuildingBlock: XUDNAN_clean_linker_2, # of connection points: 2
#     Edge 32, Type (0, 1), BuildingBlock: XUDNAN_clean_linker_2, # of connection points: 2
#     Edge 33, Type (0, 1), BuildingBlock: XUDNAN_clean_linker_2, # of connection points: 2
#     Edge 34, Type (0, 1), BuildingBlock: XUDNAN_clean_linker_2, # of connection points: 2
#     Edge 35, Type (0, 1), BuildingBlock: XUDNAN_clean_linker_2, # of connection points: 2
#     Edge 36, Type (0, 1), BuildingBlock: XUDNAN_clean_linker_2, # of connection points: 2
#     Edge 37, Type (0, 1), BuildingBlock: XUDNAN_clean_linker_2, # of connection points: 2
#     Edge 38, Type (0, 1), BuildingBlock: XUDNAN_clean_linker_2, # of connection points: 2
#     Edge 39, Type (0, 1), BuildingBlock: XUDNAN_clean_linker_2, # of connection points: 2
#     Edge 40, Type (0, 1), BuildingBlock: XUDNAN_clean_linker_2, # of connection points: 2
#     Edge 41, Type (0, 1), BuildingBlock: XUDNAN_clean_linker_2, # of connection points: 2
#     Edge 42, Type (0, 1), BuildingBlock: XUDNAN_clean_linker_2, # of connection points: 2
#     Edge 43, Type (0, 1), BuildingBlock: XUDNAN_clean_linker_2, # of connection points: 2
#     Edge 44, Type (0, 1), BuildingBlock: XUDNAN_clean_linker_2, # of connection points: 2
#     Edge 45, Type (0, 1), BuildingBlock: XUDNAN_clean_linker_2, # of connection points: 2
#     Edge 46, Type (0, 1), BuildingBlock: XUDNAN_clean_linker_2, # of connection points: 2
#     Edge 47, Type (0, 1), BuildingBlock: XUDNAN_clean_linker_2, # of connection points: 2
#     Edge 48, Type (0, 1), BuildingBlock: XUDNAN_clean_linker_2, # of connection points: 2
#     Edge 49, Type (0, 1), BuildingBlock: XUDNAN_clean_linker_2, # of connection points: 2
#     Edge 50, Type (0, 1), BuildingBlock: XUDNAN_clean_linker_2, # of connection points: 2
#     Edge 51, Type (0, 1), BuildingBlock: XUDNAN_clean_linker_2, # of connection points: 2
#     Edge 52, Type (0, 1), BuildingBlock: XUDNAN_clean_linker_2, # of connection points: 2
#     Edge 53, Type (0, 1), BuildingBlock: XUDNAN_clean_linker_2, # of connection points: 2
#     Edge 54, Type (0, 1), BuildingBlock: XUDNAN_clean_linker_2, # of connection points: 2
#     Edge 55, Type (0, 1), BuildingBlock: XUDNAN_clean_linker_2, # of connection points: 2
#     Edge 56, Type (0, 1), BuildingBlock: XUDNAN_clean_linker_2, # of connection points: 2
#     Edge 57, Type (0, 1), BuildingBlock: XUDNAN_clean_linker_2, # of connection points: 2
#     Edge 58, Type (0, 1), BuildingBlock: XUDNAN_clean_linker_2, # of connection points: 2
#     Edge 59, Type (0, 1), BuildingBlock: XUDNAN_clean_linker_2, # of connection points: 2
#     Edge 60, Type (0, 1), BuildingBlock: XUDNAN_clean_linker_2, # of connection points: 2
#     Edge 61, Type (0, 1), BuildingBlock: XUDNAN_clean_linker_2, # of connection points: 2
#     Edge 62, Type (0, 1), BuildingBlock: XUDNAN_clean_linker_2, # of connection points: 2
#     Edge 63, Type (0, 1), BuildingBlock: XUDNAN_clean_linker_2, # of connection points: 2
#     Edge 64, Type (0, 1), BuildingBlock: XUDNAN_clean_linker_2, # of connection points: 2
#     Edge 65, Type (0, 1), BuildingBlock: XUDNAN_clean_linker_2, # of connection points: 2
#     Edge 66, Type (0, 1), BuildingBlock: XUDNAN_clean_linker_2, # of connection points: 2
#     Edge 67, Type (0, 1), BuildingBlock: XUDNAN_clean_linker_2, # of connection points: 2
#     Edge 68, Type (0, 1), BuildingBlock: XUDNAN_clean_linker_2, # of connection points: 2
#     Edge 69, Type (0, 1), BuildingBlock: XUDNAN_clean_linker_2, # of connection points: 2
#     Edge 70, Type (0, 1), BuildingBlock: XUDNAN_clean_linker_2, # of connection points: 2
#     Edge 71, Type (0, 1), BuildingBlock: XUDNAN_clean_linker_2, # of connection points: 2
#     Edge 72, Type (0, 1), BuildingBlock: XUDNAN_clean_linker_2, # of connection points: 2
#     Edge 73, Type (0, 1), BuildingBlock: XUDNAN_clean_linker_2, # of connection points: 2
#     Edge 74, Type (0, 1), BuildingBlock: XUDNAN_clean_linker_2, # of connection points: 2
#     Edge 75, Type (0, 1), BuildingBlock: XUDNAN_clean_linker_2, # of connection points: 2
# Relax obj value: 0.116
# Max RMSD: 0.293
# Mean RMSD: 0.158
data_MOF--net-ctn--node1-AZAVOO_clean_sbu_0--node2-QEWDON_clean_linker_0--edge1-XUDNAN_clean_linker_2
_symmetry_space_group_name_H-M    P1
_symmetry_Int_Tables_number       1
_symmetry_cell_setting            triclinic
loop_
_symmetry_equiv_pos_as_xyz
'x, y, z'
_cell_length_a     52.074628
_cell_length_b     55.332428
_cell_length_c     58.712373
_cell_angle_alpha  98.311648
_cell_angle_beta   94.569711
_cell_angle_gamma 98.642276
loop_
_atom_site_label
_atom_site_type_symbol
_atom_site_fract_x
_atom_site_fract_y
_atom_site_fract_z
_atom_type_partial_charge
H0 H 0.12463 0.00838 0.03741 0.0
C1 C 0.11049 0.00973 0.04993 0.0
C2 C 0.10797 0.99311 0.06585 0.0
C3 C 0.09574 0.02883 0.05034 0.0
H4 H 0.09027 0.98502 0.09645 0.0
C5 C 0.09123 0.99697 0.08343 0.0
C6 C 0.07639 0.01654 0.08448 0.0
C7 C 0.07796 0.03145 0.06682 0.0
C8 C 0.10159 0.04785 0.03536 0.0
H9 H 0.06632 0.04601 0.06625 0.0
C10 C 0.08224 0.05313 0.01952 0.0
C11 C 0.08884 0.07091 0.0052 0.0
C12 C 0.12724 0.06075 0.03693 0.0
H13 H 0.14236 0.05706 0.04912 0.0
C14 C 0.1336 0.07861 0.02293 0.0
H15 H 0.06244 0.0432 0.01805 0.0
C16 C 0.11453 0.08365 0.0071 0.0
H17 H 0.11984 0.09743 0.99618 0.0
H18 H 0.15339 0.08848 0.02429 0.0
H19 H 0.35744 0.75068 0.24548 0.0
C20 C 0.34089 0.73623 0.24552 0.0
C21 C 0.34414 0.71503 0.25538 0.0
C22 C 0.31599 0.73962 0.23702 0.0
H23 H 0.32448 0.68061 0.26359 0.0
C24 C 0.32217 0.69691 0.25589 0.0
C25 C 0.29713 0.70009 0.24728 0.0
C26 C 0.2943 0.72155 0.23786 0.0
C27 C 0.31194 0.76261 0.22838 0.0
H28 H 0.27515 0.7243 0.23109 0.0
C29 C 0.32036 0.76747 0.20712 0.0
C30 C 0.3131 0.78755 0.19719 0.0
C31 C 0.29742 0.77858 0.24047 0.0
H32 H 0.2907 0.77499 0.25685 0.0
C33 C 0.29098 0.79899 0.2313 0.0
H34 H 0.33174 0.75503 0.19809 0.0
C35 C 0.29837 0.80328 0.20973 0.0
H36 H 0.29161 0.81847 0.20265 0.0
H37 H 0.27951 0.81111 0.24061 0.0
H38 H 0.04269 0.48155 0.05394 0.0
C39 C 0.02863 0.4934 0.05015 0.0
C40 C 0.01947 0.5082 0.06828 0.0
C41 C 0.02052 0.49433 0.02705 0.0
H42 H 0.99428 0.53519 0.07671 0.0
C43 C 1.00104 0.52333 0.0629 0.0
C44 C 0.99252 0.52424 0.03965 0.0
C45 C 1.00247 0.50958 0.0219 0.0
C46 C 0.03228 0.48053 0.00826 0.0
H47 H 0.99612 0.50983 0.00391 0.0
C48 C 0.02858 0.45456 0.00482 0.0
C49 C 0.04076 0.44133 0.98755 0.0
C50 C 0.0479 0.49347 0.99416 0.0
H51 H 0.05096 0.51353 0.99661 0.0
C52 C 0.06023 0.48064 0.97719 0.0
H53 H 0.01577 0.44485 0.01538 0.0
C54 C 0.05692 0.45482 0.97399 0.0
H55 H 0.06732 0.44555 0.96105 0.0
H56 H 0.07263 0.49076 0.96661 0.0
H57 H 0.79168 0.83146 0.2464 0.0
C58 C 0.78853 0.82168 0.22877 0.0
C59 C 0.79764 0.83351 0.21062 0.0
C60 C 0.77696 0.79667 0.22445 0.0
H61 H 0.80123 0.82918 0.17391 0.0
C62 C 0.7941 0.82023 0.18797 0.0
C63 C 0.78235 0.79522 0.1835 0.0
C64 C 0.774 0.78353 0.20189 0.0
C65 C 0.77004 0.78342 0.24367 0.0
H66 H 0.76529 0.76412 0.19872 0.0
C67 C 0.74679 0.78566 0.2538 0.0
C68 C 0.73938 0.77132 0.27086 0.0
C69 C 0.78617 0.76728 0.25099 0.0
H70 H 0.80408 0.7653 0.24322 0.0
C71 C 0.77919 0.75347 0.26826 0.0
H72 H 0.7341 0.79779 0.2478 0.0
C73 C 0.7559 0.75534 0.27808 0.0
H74 H 0.75079 0.74431 0.29137 0.0
H75 H 0.79174 0.74108 0.27388 0.0
H76 H 0.12746 0.00333 0.50401 0.0
C77 C 0.11263 0.99965 0.48934 0.0
C78 C 0.10942 0.01836 0.47612 0.0
C79 C 0.09752 0.97594 0.48347 0.0
H80 H 0.08902 0.02729 0.446 0.0
C81 C 0.09045 0.01326 0.45693 0.0
C82 C 0.07488 0.98972 0.45068 0.0
C83 C 0.07832 0.97121 0.46439 0.0
C84 C 0.10484 0.95554 0.49526 0.0
H85 H 0.06702 0.9528 0.45962 0.0
C86 C 0.08651 0.93973 0.50516 0.0
C87 C 0.0946 0.92069 0.51626 0.0
C88 C 0.13106 0.95201 0.49652 0.0
H89 H 0.14546 0.9637 0.48887 0.0
C90 C 0.13904 0.9333 0.50745 0.0
H91 H 0.06623 0.94224 0.50426 0.0
C92 C 0.12104 0.9178 0.51728 0.0
H93 H 0.12792 0.90363 0.52596 0.0
H94 H 0.15931 0.93084 0.50835 0.0
H95 H 0.27723 0.67354 0.75195 0.0
C96 C 0.27262 0.68488 0.7672 0.0
C97 C 0.28444 0.68265 0.78901 0.0
C98 C 0.25564 0.70217 0.7647 0.0
H99 H 0.28631 0.69533 0.82568 0.0
C100 C 0.27811 0.69743 0.80868 0.0
C101 C 0.26142 0.71501 0.80672 0.0
C102 C 0.25014 0.71712 0.78465 0.0
C103 C 0.24509 0.70541 0.74106 0.0
H104 H 0.23807 0.73121 0.78294 0.0
C105 C 0.21956 0.71066 0.73652 0.0
C106 C 0.20964 0.71275 0.71384 0.0
C107 C 0.26078 0.70307 0.72268 0.0
H108 H 0.28077 0.70005 0.72551 0.0
C109 C 0.25102 0.70465 0.70029 0.0
H110 H 0.20749 0.713 0.75059 0.0
C111 C 0.22566 0.70908 0.69581 0.0
H112 H 0.21864 0.70938 0.67802 0.0
H113 H 0.26318 0.70231 0.68628 0.0
H114 H 0.95079 0.56542 0.47218 0.0
C115 C 0.94594 0.54669 0.47571 0.0
C116 C 0.94499 0.54215 0.49868 0.0
C117 C 0.9397 0.52719 0.45697 0.0
H118 H 0.93698 0.51336 0.5198 0.0
C119 C 0.93773 0.51756 0.50239 0.0
C120 C 0.93003 0.49823 0.48375 0.0
C121 C 0.93139 0.50304 0.46105 0.0
C122 C 0.93972 0.53241 0.433 0.0
H123 H 0.92523 0.48817 0.44659 0.0
C124 C 0.95765 0.52366 0.41843 0.0
C125 C 0.95781 0.52907 0.39567 0.0
C126 C 0.92173 0.54637 0.42472 0.0
H127 H 0.9078 0.55322 0.43572 0.0
C128 C 0.92135 0.5513 0.40208 0.0
H129 H 0.9719 0.51337 0.42513 0.0
C130 C 0.93917 0.54272 0.38763 0.0
H131 H 0.93824 0.54672 0.3701 0.0
H132 H 0.90721 0.56185 0.39571 0.0
H133 H 0.83684 0.81789 0.78903 0.0
C134 C 0.83523 0.80272 0.79891 0.0
C135 C 0.84926 0.78317 0.7936 0.0
C136 C 0.81978 0.80324 0.81739 0.0
H137 H 0.85747 0.74835 0.80235 0.0
C138 C 0.84685 0.76353 0.80656 0.0
C139 C 0.83143 0.76382 0.82527 0.0
C140 C 0.81824 0.78402 0.83061 0.0
C141 C 0.80674 0.82479 0.8241 0.0
H142 H 0.8071 0.78523 0.84544 0.0
C143 C 0.78744 0.83099 0.80883 0.0
C144 C 0.77531 0.85182 0.81522 0.0
C145 C 0.81377 0.83927 0.84597 0.0
H146 H 0.82857 0.83475 0.85795 0.0
C147 C 0.80218 0.86 0.85236 0.0
H148 H 0.78166 0.81923 0.79226 0.0
C149 C 0.7833 0.86638 0.83713 0.0
H150 H 0.77537 0.88303 0.8425 0.0
H151 H 0.80804 0.87133 0.86913 0.0
H152 H 0.34075 0.32841 0.29882 0.0
C153 C 0.33963 0.31487 0.31047 0.0
C154 C 0.35607 0.29674 0.30897 0.0
C155 C 0.32241 0.3163 0.32762 0.0
H156 H 0.36791 0.26641 0.32447 0.0
C157 C 0.35461 0.27972 0.32479 0.0
C158 C 0.33715 0.28079 0.34193 0.0
C159 C 0.32081 0.29886 0.34273 0.0
C160 C 0.30843 0.3377 0.33206 0.0
H161 H 0.307 0.29985 0.35557 0.0
C162 C 0.2912 0.34387 0.31486 0.0
C163 C 0.27752 0.36387 0.32008 0.0
C164 C 0.31227 0.35192 0.35427 0.0
H165 H 0.32557 0.34763 0.3677 0.0
C166 C 0.29928 0.37193 0.35934 0.0
H167 H 0.28795 0.33275 0.2978 0.0
C168 C 0.28209 0.37792 0.34245 0.0
H169 H 0.27265 0.39387 0.34689 0.0
H170 H 0.30259 0.38291 0.37645 0.0
H171 H 0.53281 0.98115 0.54442 0.0
C172 C 0.51793 0.99284 0.54365 0.0
C173 C 0.50879 0.00338 0.56415 0.0
C174 C 0.5082 0.99745 0.52201 0.0
H175 H 0.48107 0.0258 0.57789 0.0
C176 C 0.48853 0.01754 0.56242 0.0
C177 C 0.47849 0.02196 0.54072 0.0
C178 C 0.48879 0.01227 0.52069 0.0
C179 C 0.51767 0.9862 0.50056 0.0
H180 H 0.48096 0.01549 0.50391 0.0
C181 C 0.51459 0.96035 0.49475 0.0
C182 C 0.52169 0.94935 0.47352 0.0
C183 C 0.52852 1.00118 0.48527 0.0
H184 H 0.53093 0.02117 0.48943 0.0
C185 C 0.53634 0.99044 0.4645 0.0
H186 H 0.50613 0.94885 0.5066 0.0
C187 C 0.53288 0.9647 0.45857 0.0
H188 H 0.53832 0.95685 0.44201 0.0
H189 H 0.54472 1.00209 0.45278 0.0
H190 H 0.28626 0.35284 0.754 0.0
C191 C 0.28384 0.33845 0.73898 0.0
C192 C 0.29445 0.34356 0.71868 0.0
C193 C 0.27172 0.31453 0.74068 0.0
H194 H 0.30245 0.32815 0.68473 0.0
C195 C 0.29295 0.32436 0.69988 0.0
C196 C 0.28034 0.30021 0.70107 0.0
C197 C 0.26918 0.29572 0.7215 0.0
C198 C 0.26554 0.30853 0.76356 0.0
H199 H 0.25966 0.27731 0.72305 0.0
C200 C 0.24009 0.29856 0.76745 0.0
C201 C 0.23497 0.29275 0.78941 0.0
C202 C 0.28578 0.31258 0.78167 0.0
H203 H 0.30554 0.32011 0.77896 0.0
C204 C 0.28081 0.30664 0.80333 0.0
H205 H 0.22441 0.29544 0.75353 0.0
C206 C 0.25561 0.29679 0.80722 0.0
H207 H 0.25214 0.29275 0.82434 0.0
H208 H 0.29653 0.30978 0.81718 0.0
H209 H 0.84266 0.25519 0.75923 0.0
C210 C 0.83011 0.23756 0.75322 0.0
C211 C 0.83783 0.21564 0.7586 0.0
C212 C 0.80578 0.23692 0.74084 0.0
H213 H 0.82695 0.17605 0.7554 0.0
C214 C 0.82114 0.19302 0.75116 0.0
C215 C 0.79679 0.1922 0.73868 0.0
C216 C 0.78911 0.21426 0.73365 0.0
C217 C 0.79706 0.26023 0.73701 0.0
H218 H 0.77014 0.21383 0.72438 0.0
C219 C 0.79906 0.26873 0.7157 0.0
C220 C 0.79164 0.29157 0.71257 0.0
C221 C 0.78731 0.27437 0.75511 0.0
H222 H 0.78574 0.26801 0.77163 0.0
C223 C 0.77951 0.29679 0.75198 0.0
H224 H 0.807 0.2579 0.70188 0.0
C225 C 0.78166 0.30539 0.7309 0.0
H226 H 0.77532 0.3228 0.7289 0.0
H227 H 0.77185 0.30758 0.76596 0.0
H228 H 0.61498 0.52924 0.53221 0.0
C229 C 0.6041 0.5257 0.5467 0.0
C230 C 0.60594 0.50451 0.55698 0.0
C231 C 0.58924 0.54316 0.55558 0.0
H232 H 0.59386 0.48499 0.58464 0.0
C233 C 0.5917 0.50071 0.57604 0.0
C234 C 0.5759 0.51789 0.58477 0.0
C235 C 0.57475 0.53894 0.57403 0.0
C236 C 0.59207 0.56754 0.54796 0.0
H237 H 0.56285 0.55252 0.58008 0.0
C238 C 0.58127 0.57045 0.52602 0.0
C239 C 0.58545 0.59378 0.5189 0.0
C240 C 0.60674 0.58802 0.56275 0.0
H241 H 0.61522 0.586 0.5797 0.0
C242 C 0.61101 0.61111 0.55562 0.0
H243 H 0.5698 0.55472 0.5146 0.0
C244 C 0.60054 0.614 0.53377 0.0
H245 H 0.60382 0.63215 0.52859 0.0
H246 H 0.62246 0.6268 0.56705 0.0
H247 H 0.61527 0.47055 0.99745 0.0
C248 C 0.6017 0.4765 0.98531 0.0
C249 C 0.60778 0.49987 0.97825 0.0
C250 C 0.57866 0.46026 0.97581 0.0
H251 H 0.59479 0.52435 0.95575 0.0
C252 C 0.59 0.50696 0.96211 0.0
C253 C 0.56693 0.49102 0.95263 0.0
C254 C 0.56141 0.46777 0.95956 0.0
C255 C 0.57353 0.43441 0.9806 0.0
H256 H 0.54376 0.45527 0.95197 0.0
C257 C 0.57283 0.42888 1.00333 0.0
C258 C 0.56558 0.40415 0.00687 0.0
C259 C 0.56808 0.41495 0.96176 0.0
H260 H 0.56881 0.41867 0.94418 0.0
C261 C 0.56156 0.39054 0.9653 0.0
H262 H 0.57682 0.44369 0.01802 0.0
C263 C 0.5601 0.38516 0.98764 0.0
H264 H 0.55479 0.36604 0.98995 0.0
H265 H 0.55739 0.37574 0.95064 0.0
H266 H 0.78324 0.16063 0.2676 0.0
C267 C 0.77926 0.17276 0.2826 0.0
C268 C 0.79232 0.17195 0.30433 0.0
C269 C 0.76182 0.18955 0.27979 0.0
H270 H 0.79719 0.18765 0.34046 0.0
C271 C 0.78705 0.18793 0.32371 0.0
C272 C 0.76926 0.20457 0.32161 0.0
C273 C 0.7567 0.20505 0.29952 0.0
C274 C 0.75035 0.19172 0.25604 0.0
H275 H 0.74324 0.21789 0.2976 0.0
C276 C 0.72519 0.19809 0.25196 0.0
C277 C 0.71494 0.20018 0.22939 0.0
C278 C 0.76508 0.18785 0.23711 0.0
H279 H 0.78483 0.18407 0.23942 0.0
C280 C 0.75477 0.18908 0.2148 0.0
H281 H 0.71367 0.20153 0.26627 0.0
C282 C 0.72991 0.19492 0.21089 0.0
H283 H 0.72246 0.19523 0.19321 0.0
H284 H 0.76621 0.18561 0.20042 0.0
H285 H 0.46558 0.08894 0.97645 0.0
C286 C 0.458 0.06984 0.97744 0.0
C287 C 0.45106 0.06312 0.99864 0.0
C288 C 0.45478 0.0522 0.95717 0.0
H289 H 0.43523 0.03243 0.01517 0.0
C290 C 0.4403 0.03828 0.99906 0.0
C291 C 0.4362 0.02059 0.97884 0.0
C292 C 0.44407 0.02755 0.95805 0.0
C293 C 0.46118 0.06007 0.93488 0.0
H294 H 0.44073 0.01408 0.94231 0.0
C295 C 0.47714 0.04761 0.92053 0.0
C296 C 0.48421 0.05631 0.9001 0.0
C297 C 0.45168 0.08072 0.92816 0.0
H298 H 0.43913 0.09042 0.93873 0.0
C299 C 0.45812 0.08899 0.9077 0.0
H300 H 0.48487 0.03188 0.92572 0.0
C301 C 0.47436 0.077 0.89382 0.0
H302 H 0.47919 0.08388 0.87806 0.0
H303 H 0.45063 0.10487 0.90266 0.0
Mg304 Mg 0.26491 0.84429 0.01125 0.0
O305 O 0.30215 0.87003 0.00428 0.0
O306 O 0.33261 0.84554 1.00039 0.0
Mg307 Mg 0.31656 0.80608 0.00481 0.0
C308 C 0.32534 0.86659 1.00048 0.0
C309 C 0.22354 0.87071 0.02642 0.0
O310 O 0.22495 0.85153 0.03702 0.0
O311 O 0.25786 0.82734 0.97227 0.0
O312 O 0.28972 0.80428 0.97163 0.0
O313 O 0.27795 0.85125 0.0492 0.0
O314 O 0.28746 0.82042 0.02503 0.0
C315 C 0.27056 0.81193 0.96149 0.0
C316 C 0.28962 0.83225 0.04578 0.0
O317 O 0.23804 0.87379 0.01019 0.0
Mg318 Mg 0.14668 0.51412 0.27031 0.0
O319 O 0.12293 0.50984 0.23451 0.0
O320 O 0.15205 0.51413 0.20883 0.0
Mg321 Mg 0.19344 0.52148 0.22724 0.0
C322 C 0.12847 0.51054 0.21376 0.0
C323 C 0.09296 0.51416 0.28892 0.0
O324 O 0.09606 0.53434 0.2794 0.0
O325 O 0.15835 0.47561 0.26224 0.0
O326 O 0.18843 0.48273 0.23779 0.0
O327 O 0.14794 0.55513 0.27496 0.0
O328 O 0.17799 0.53618 0.25913 0.0
C329 C 0.17571 0.46846 0.24978 0.0
C330 C 0.1692 0.55646 0.2649 0.0
O331 O 0.11004 0.49998 0.28695 0.0
Mg332 Mg 0.81997 0.66408 0.00674 0.0
O333 O 0.78293 0.63419 1.00189 0.0
O334 O 0.749 0.65378 0.9962 0.0
Mg335 Mg 0.76357 0.69516 0.99757 0.0
C336 C 0.75834 0.63405 0.99829 0.0
C337 C 0.85166 0.62216 0.01823 0.0
O338 O 0.83922 0.62418 0.03685 0.0
O339 O 0.81724 0.66681 0.96805 0.0
O340 O 0.78428 0.68808 0.96449 0.0
O341 O 0.81696 0.67224 0.04486 0.0
O342 O 0.79881 0.69144 0.01906 0.0
C343 C 0.80259 0.67784 0.95599 0.0
C344 C 0.80272 0.68856 0.04033 0.0
O345 O 0.84679 0.63492 1.00251 0.0
Mg346 Mg 0.96808 0.03484 0.26536 0.0
O347 O 0.93622 1.00093 0.25191 0.0
O348 O 0.95603 0.9706 0.23571 0.0
Mg349 Mg 0.99998 0.98433 0.23903 0.0
C350 C 0.93544 0.97886 0.24144 0.0
C351 C 0.9164 0.05628 0.27548 0.0
O352 O 0.90899 0.04378 0.25464 0.0
O353 O 0.98033 0.0163 0.29625 0.0
O354 O 1.00053 0.98693 0.27873 0.0
O355 O 0.96626 0.04815 0.23113 0.0
O356 O 0.99221 0.02235 0.24044 0.0
C357 C 0.99308 0.99832 0.29696 0.0
C358 C 0.98347 0.03447 0.22519 0.0
O359 O 0.93897 0.0553 0.2851 0.0
Mg360 Mg 0.31832 0.17048 0.52231 0.0
O361 O 0.2751 0.15236 0.51325 0.0
O362 O 0.25193 0.18335 0.51527 0.0
Mg363 Mg 0.27941 0.22037 0.52637 0.0
C364 C 0.25329 0.16027 0.51146 0.0
C365 C 0.35674 0.13493 0.5094 0.0
O366 O 0.37132 0.15665 0.51023 0.0
O367 O 0.31937 0.18267 0.48659 0.0
O368 O 0.29824 0.21504 0.49205 0.0
O369 O 0.31488 0.16884 0.55945 0.0
O370 O 0.30744 0.20084 0.54298 0.0
C371 C 0.31118 0.20128 0.47963 0.0
C372 C 0.30747 0.19024 0.56115 0.0
O373 O 0.33242 0.13398 0.51105 0.0
Mg374 Mg 0.46425 0.54498 0.7626 0.0
O375 O 0.43308 0.50998 0.75156 0.0
O376 O 0.45443 0.47793 0.74433 0.0
Mg377 Mg 0.49835 0.49154 0.75057 0.0
C378 C 0.43323 0.48686 0.74535 0.0
C379 C 0.41129 0.56803 0.76537 0.0
O380 O 0.40411 0.553 0.74569 0.0
O381 O 0.47285 0.53361 0.79816 0.0
O382 O 0.49501 0.50244 0.7895 0.0
O383 O 0.46685 0.55039 0.7255 0.0
O384 O 0.49048 0.52764 0.74356 0.0
C385 C 0.48556 0.51711 0.80424 0.0
C386 C 0.48374 0.53543 0.72475 0.0
O387 O 0.43365 0.56822 0.77598 0.0
Mg388 Mg 0.74707 0.3391 0.51808 0.0
O389 O 0.78813 0.3599 0.5149 0.0
O390 O 0.81653 0.3344 0.52126 0.0
Mg391 Mg 0.79379 0.29733 0.52695 0.0
C392 C 0.81145 0.35521 0.51678 0.0
C393 C 0.70501 0.37006 0.51302 0.0
O394 O 0.69504 0.35151 0.52298 0.0
O395 O 0.74735 0.31753 0.48183 0.0
O396 O 0.77473 0.29135 0.48911 0.0
O397 O 0.75221 0.35226 0.5557 0.0
O398 O 0.76295 0.31689 0.5399 0.0
C399 C 0.75927 0.29958 0.47516 0.0
C400 C 0.7628 0.33299 0.55811 0.0
O401 O 0.72745 0.36985 0.50586 0.0
Mg402 Mg 0.65053 0.00443 0.7571 0.0
O403 O 0.62307 0.99731 0.72287 0.0
O404 O 0.64865 0.99287 0.69427 0.0
Mg405 Mg 0.69108 0.99634 0.70897 0.0
C406 C 0.62621 0.99378 0.70132 0.0
C407 C 0.6141 0.01774 0.79367 0.0
O408 O 0.63199 0.03757 0.79552 0.0
O409 O 0.65601 0.96359 0.75412 0.0
O410 O 0.68236 0.96164 0.72586 0.0
O411 O 0.65798 0.04528 0.75542 0.0
O412 O 0.68196 0.01883 0.74026 0.0
C413 C 0.67011 0.95179 0.7411 0.0
C414 C 0.67733 0.04115 0.74373 0.0
O415 O 0.61561 0.99915 0.77858 0.0
Mg416 Mg 0.04366 0.22089 0.89909 0.0
O417 O 0.00635 0.21619 0.8749 0.0
O418 O 0.97222 0.2061 0.8943 0.0
Mg419 Mg 0.98851 0.20279 0.9312 0.0
C420 C 0.9818 0.21112 0.87584 0.0
C421 C 0.08706 0.23046 0.86812 0.0
O422 O 0.09335 0.21246 0.87867 0.0
O423 O 0.03474 0.25769 0.917 0.0
O424 O 1.00363 0.24482 0.93885 0.0
O425 O 0.04632 0.18064 0.89057 0.0
O426 O 0.02639 0.19654 0.91952 0.0
C427 C 0.01935 0.26204 0.93245 0.0
C428 C 0.03328 0.17737 0.90806 0.0
O429 O 0.06648 0.23911 0.87276 0.0
Mg430 Mg 0.55342 0.73441 0.39369 0.0
O431 O 0.51778 0.72212 0.36647 0.0
O432 O 0.48394 0.70917 0.38529 0.0
Mg433 Mg 0.49771 0.71145 0.42358 0.0
C434 C 0.49358 0.71366 0.36671 0.0
C435 C 0.5838 0.73998 0.35137 0.0
O436 O 0.57561 0.71599 0.34853 0.0
O437 O 0.53686 0.76906 0.40686 0.0
O438 O 0.50469 0.75394 0.42655 0.0
O439 O 0.56426 0.69647 0.38999 0.0
O440 O 0.5373 0.70978 0.41424 0.0
C441 C 0.51855 0.77209 0.41971 0.0
C442 C 0.54868 0.69206 0.40552 0.0
O443 O 0.57675 0.75371 0.36823 0.0
Mg444 Mg 0.98432 0.74671 0.62124 0.0
O445 O 0.02347 0.74257 0.64072 0.0
O446 O 0.04837 0.72953 0.61361 0.0
Mg447 Mg 0.02513 0.7228 0.57788 0.0
C448 C 0.04492 0.7363 0.63472 0.0
C449 C 0.94996 0.75725 0.65966 0.0
O450 O 0.93741 0.73747 0.64587 0.0
O451 O 1.00342 0.78204 0.60803 0.0
O452 O 0.02498 0.76453 0.58038 0.0
O453 O 0.96831 0.70749 0.62349 0.0
O454 O 0.98868 0.71846 0.59424 0.0
C455 C 0.01753 0.78358 0.59121 0.0
C456 C 0.97732 0.70102 0.60405 0.0
O457 O 0.97164 0.76773 0.65424 0.0
Mg458 Mg 0.49652 0.25437 0.14135 0.0
O459 O 0.53425 0.24626 0.1605 0.0
O460 O 0.55938 0.23533 0.13283 0.0
Mg461 Mg 0.53754 0.23295 0.09701 0.0
C462 C 0.55553 0.2399 0.15412 0.0
C463 C 0.47202 0.26057 0.18809 0.0
O464 O 0.46963 0.23642 0.18272 0.0
O465 O 0.51814 0.29046 0.13155 0.0
O466 O 0.53986 0.27526 0.10274 0.0
O467 O 0.47718 0.2151 0.13918 0.0
O468 O 0.50033 0.22832 0.11236 0.0
C469 C 0.53296 0.29342 0.11546 0.0
C470 C 0.4868 0.21015 0.11975 0.0
O471 O 0.48396 0.27409 0.17512 0.0
H472 H 0.29769 0.73766 0.84269 0.0
H473 H 0.21571 0.73116 0.81834 0.0
H474 H 0.20919 0.75858 0.85399 0.0
H475 H 0.28865 0.73406 0.90094 0.0
H476 H 0.3179 0.75563 0.91226 0.0
H477 H 0.31601 0.73743 0.88402 0.0
H478 H 0.32716 0.77757 0.86631 0.0
H479 H 0.32891 0.79593 0.89453 0.0
H480 H 0.30734 0.80154 0.87099 0.0
H481 H 0.21179 0.78548 0.89434 0.0
H482 H 0.22299 0.80698 0.93495 0.0
H483 H 0.30281 0.79407 0.93161 0.0
C484 C 0.27829 0.74187 0.84479 0.0
C485 C 0.25719 0.73208 0.82771 0.0
C486 C 0.23226 0.73856 0.83108 0.0
C487 C 0.22836 0.75409 0.85131 0.0
C488 C 0.24962 0.76312 0.86794 0.0
C489 C 0.27409 0.75717 0.86477 0.0
C490 C 0.2936 0.76807 0.88546 0.0
C491 C 0.30467 0.74758 0.89631 0.0
C492 C 0.31554 0.7869 0.87892 0.0
C493 C 0.27627 0.78072 0.90108 0.0
C494 C 0.25102 0.77804 0.89075 0.0
C495 C 0.23157 0.78777 0.9025 0.0
C496 C 0.23809 0.80003 0.9255 0.0
C497 C 0.26371 0.80212 0.9365 0.0
C498 C 0.28298 0.79271 0.92381 0.0
H499 H 0.98318 0.55531 0.3655 0.0
H500 H 0.97778 0.48529 0.3914 0.0
H501 H 0.0109 0.47293 0.36608 0.0
H502 H 0.98962 0.53077 0.30615 0.0
H503 H 0.01205 0.5576 0.30211 0.0
H504 H 0.98802 0.56071 0.32231 0.0
H505 H 0.02466 0.58079 0.35501 0.0
H506 H 0.04878 0.5778 0.33491 0.0
H507 H 0.05133 0.56458 0.36115 0.0
H508 H 0.04577 0.46883 0.33803 0.0
H509 H 0.07906 0.47369 0.31041 0.0
H510 H 0.0593 0.54562 0.30222 0.0
C511 C 0.98858 0.53719 0.36567 0.0
C512 C 0.97769 0.52126 0.38045 0.0
C513 C 0.98597 0.49798 0.38045 0.0
C514 C 1.00465 0.4907 0.36599 0.0
C515 C 0.01479 0.50686 0.35154 0.0
C516 C 0.00696 0.5296 0.3513 0.0
C517 C 0.02093 0.5438 0.33448 0.0
C518 C 1.00149 0.54848 0.31511 0.0
C519 C 0.0374 0.56817 0.34715 0.0
C520 C 0.03801 0.52557 0.32532 0.0
C521 C 0.03428 0.50435 0.33532 0.0
C522 C 0.04868 0.48531 0.33 0.0
C523 C 0.06752 0.48821 0.31427 0.0
C524 C 0.07172 0.50995 0.30401 0.0
C525 C 0.05646 0.52864 0.30951 0.0
H526 H 0.78937 0.74452 0.84639 0.0
H527 H 0.87063 0.73885 0.83893 0.0
H528 H 0.86959 0.71005 0.86735 0.0
H529 H 0.79564 0.74984 0.90581 0.0
H530 H 0.76374 0.73287 0.90783 0.0
H531 H 0.7693 0.74877 0.88362 0.0
H532 H 0.75277 0.70782 0.85541 0.0
H533 H 0.7472 0.69174 0.87961 0.0
H534 H 0.7677 0.68092 0.85831 0.0
H535 H 0.8613 0.686 0.90031 0.0
H536 H 0.84753 0.67131 0.93592 0.0
H537 H 0.77263 0.69498 0.92327 0.0
C538 C 0.80693 0.73706 0.85045 0.0
C539 C 0.83007 0.74404 0.84022 0.0
C540 C 0.85246 0.73353 0.84605 0.0
C541 C 0.8521 0.71717 0.8623 0.0
C542 C 0.82919 0.71141 0.8726 0.0
C543 C 0.80701 0.72106 0.86685 0.0
C544 C 0.78586 0.71443 0.88222 0.0
C545 C 0.77821 0.73787 0.89566 0.0
C546 C 0.76197 0.69773 0.86804 0.0
C547 C 0.79993 0.70033 0.89813 0.0
C548 C 0.82467 0.69824 0.89199 0.0
C549 C 0.84184 0.68726 0.90507 0.0
C550 C 0.8338 0.67889 0.92528 0.0
C551 C 0.80896 0.68194 0.93246 0.0
C552 C 0.79166 0.69219 0.91824 0.0
H553 H 0.0448 0.02006 0.4311 0.0
H554 H 0.06659 0.94688 0.419 0.0
H555 H 0.04313 0.93951 0.37993 0.0
H556 H 0.98014 0.00448 0.39583 0.0
H557 H 0.98427 0.03359 0.3851 0.0
H558 H 0.99903 0.03168 0.41349 0.0
H559 H 0.04424 0.0497 0.40221 0.0
H560 H 0.02969 0.05156 0.37382 0.0
H561 H 0.05641 0.03462 0.37694 0.0
H562 H 0.02275 0.94201 0.34059 0.0
H563 H 0.006 0.9538 0.30404 0.0
H564 H 0.99791 0.02574 0.34078 0.0
C565 C 0.04432 1.00231 0.42041 0.0
C566 C 0.05749 0.984 0.42839 0.0
C567 C 0.05625 0.96104 0.4137 0.0
C568 C 0.04308 0.95672 0.39132 0.0
C569 C 0.03109 0.97546 0.3838 0.0
C570 C 0.0314 0.99775 0.39794 0.0
C571 C 0.01892 0.01558 0.38497 0.0
C572 C 0.99411 0.02169 0.39548 0.0
C573 C 0.03849 0.03925 0.38446 0.0
C574 C 0.01236 1.00013 0.3611 0.0
C575 C 0.0193 0.97695 0.36092 0.0
C576 C 0.01687 0.95995 0.3406 0.0
C577 C 0.00742 0.96689 0.31988 0.0
C578 C 1.00048 0.99066 0.3195 0.0
C579 C 1.00259 0.00729 0.34054 0.0
H580 H 0.27799 0.30083 0.65379 0.0
H581 H 0.28559 0.25226 0.70506 0.0
H582 H 0.2888 0.21822 0.67422 0.0
H583 H 0.24208 0.25423 0.60681 0.0
H584 H 0.25968 0.26676 0.58479 0.0
H585 H 0.25475 0.28687 0.61053 0.0
H586 H 0.30469 0.30176 0.61872 0.0
H587 H 0.30975 0.28177 0.59301 0.0
H588 H 0.32616 0.27927 0.62058 0.0
H589 H 0.29412 0.19006 0.63864 0.0
H590 H 0.30315 0.17001 0.60056 0.0
H591 H 0.2948 0.23695 0.57208 0.0
C592 C 0.28019 0.28303 0.65859 0.0
C593 C 0.28101 0.27933 0.68202 0.0
C594 C 0.28397 0.25561 0.68734 0.0
C595 C 0.28605 0.23608 0.6699 0.0
C596 C 0.28537 0.24047 0.64714 0.0
C597 C 0.28265 0.26335 0.6414 0.0
C598 C 0.28447 0.26353 0.61575 0.0
C599 C 0.25871 0.26812 0.60377 0.0
C600 C 0.30765 0.28272 0.61179 0.0
C601 C 0.28911 0.2373 0.60811 0.0
C602 C 0.28921 0.22428 0.62649 0.0
C603 C 0.29393 0.19999 0.62406 0.0
C604 C 0.29906 0.18877 0.60233 0.0
C605 C 0.29963 0.20186 0.58329 0.0
C606 C 0.29425 0.22637 0.58622 0.0
H607 H 0.56455 0.55444 0.61808 0.0
H608 H 0.55427 0.47438 0.59916 0.0
H609 H 0.52979 0.46991 0.63305 0.0
H610 H 0.57023 0.55849 0.67894 0.0
H611 H 0.55135 0.58322 0.68343 0.0
H612 H 0.56949 0.57994 0.65862 0.0
H613 H 0.52721 0.57809 0.63151 0.0
H614 H 0.50891 0.58136 0.65623 0.0
H615 H 0.49903 0.55539 0.63331 0.0
H616 H 0.5073 0.4746 0.67027 0.0
H617 H 0.48654 0.48806 0.70551 0.0
H618 H 0.50657 0.56454 0.69602 0.0
C619 C 0.55683 0.53584 0.62052 0.0
C620 C 0.56146 0.51477 0.60554 0.0
C621 C 0.55154 0.49092 0.61038 0.0
C622 C 0.53736 0.48816 0.62953 0.0
C623 C 0.5328 0.5094 0.64352 0.0
C624 C 0.54203 0.53275 0.63901 0.0
C625 C 0.53373 0.5527 0.65599 0.0
C626 C 0.55762 0.56957 0.67008 0.0
C627 C 0.51617 0.56777 0.64351 0.0
C628 C 0.51849 0.53697 0.67097 0.0
C629 C 0.51846 0.51202 0.66375 0.0
C630 C 0.50692 0.49405 0.67584 0.0
C631 C 0.49524 0.50182 0.69582 0.0
C632 C 0.49471 0.52724 0.70313 0.0
C633 C 0.50625 0.54495 0.69042 0.0
H634 H 0.77892 0.26628 0.66814 0.0
H635 H 0.8102 0.33899 0.70705 0.0
H636 H 0.81093 0.35642 0.67075 0.0
H637 H 0.81573 0.27355 0.61662 0.0
H638 H 0.78859 0.25682 0.59674 0.0
H639 H 0.7934 0.24933 0.6255 0.0
H640 H 0.7464 0.25638 0.6325 0.0
H641 H 0.74147 0.26392 0.60386 0.0
H642 H 0.73666 0.28555 0.62859 0.0
H643 H 0.80295 0.36703 0.63158 0.0
H644 H 0.78775 0.37001 0.59135 0.0
H645 H 0.76366 0.29038 0.57673 0.0
C646 C 0.78657 0.28573 0.66893 0.0
C647 C 0.7944 0.3013 0.69044 0.0
C648 C 0.80378 0.32677 0.69081 0.0
C649 C 0.80449 0.3368 0.67027 0.0
C650 C 0.79606 0.3211 0.64942 0.0
C651 C 0.7875 0.29607 0.64851 0.0
C652 C 0.77775 0.2837 0.62393 0.0
C653 C 0.7949 0.26473 0.61518 0.0
C654 C 0.74886 0.27169 0.62212 0.0
C655 C 0.78126 0.30588 0.61135 0.0
C656 C 0.79209 0.32721 0.62642 0.0
C657 C 0.79501 0.35041 0.61949 0.0
C658 C 0.78624 0.35193 0.59666 0.0
C659 C 0.77491 0.33039 0.58098 0.0
C660 C 0.77292 0.30702 0.58827 0.0
H661 H 0.56057 0.00281 0.57662 0.0
H662 H 0.48526 0.99717 0.60403 0.0
H663 H 0.50656 0.99304 0.64216 0.0
H664 H 0.58521 0.95732 0.6072 0.0
H665 H 0.61814 0.97405 0.61146 0.0
H666 H 0.59672 0.97647 0.58654 0.0
H667 H 0.60454 0.02425 0.59795 0.0
H668 H 0.62596 0.02198 0.62289 0.0
H669 H 0.5983 0.03773 0.6264 0.0
H670 H 0.53719 0.99081 0.67804 0.0
H671 H 0.57378 0.99027 0.70757 0.0
H672 H 0.62775 0.99521 0.6551 0.0
C673 C 0.54834 1.00026 0.59043 0.0
C674 C 0.52113 1.00024 0.58715 0.0
C675 C 0.50616 0.99754 0.60607 0.0
C676 C 0.51807 0.99499 0.62778 0.0
C677 C 0.54495 0.99503 0.63029 0.0
C678 C 0.5598 0.99748 0.61203 0.0
C679 C 0.58831 0.99721 0.61906 0.0
C680 C 0.59763 0.97494 0.60525 0.0
C681 C 0.60527 0.02175 0.61642 0.0
C682 C 0.58732 0.99443 0.64422 0.0
C683 C 0.56221 0.99323 0.6505 0.0
C684 C 0.55688 0.99153 0.67321 0.0
C685 C 0.57779 0.99124 0.68987 0.0
C686 C 0.60369 0.9925 0.68371 0.0
C687 C 0.60824 0.9939 0.66047 0.0
H688 H 0.84533 0.19576 0.7981 0.0
H689 H 0.88635 0.23775 0.7513 0.0
H690 H 0.92807 0.23953 0.7754 0.0
H691 H 0.88169 0.22956 0.84995 0.0
H692 H 0.8815 0.20298 0.86447 0.0
H693 H 0.85526 0.20377 0.84282 0.0
H694 H 0.8637 0.16244 0.82009 0.0
H695 H 0.88999 0.16152 0.84168 0.0
H696 H 0.89588 0.15996 0.81171 0.0
H697 H 0.96502 0.23669 0.80451 0.0
H698 H 0.99451 0.23216 0.83802 0.0
H699 H 0.929 0.19352 0.86695 0.0
C700 C 0.86318 0.20507 0.79283 0.0
C701 C 0.86281 0.21644 0.77279 0.0
C702 C 0.88636 0.22894 0.76662 0.0
C703 C 0.91008 0.22994 0.78012 0.0
C704 C 0.90979 0.21856 0.79982 0.0
C705 C 0.88694 0.20654 0.80628 0.0
C706 C 0.89178 0.19692 0.82886 0.0
C707 C 0.87666 0.20904 0.84763 0.0
C708 C 0.88493 0.16853 0.82537 0.0
C709 C 0.92094 0.20548 0.83416 0.0
C710 C 0.93097 0.21766 0.81705 0.0
C711 C 0.9574 0.22721 0.81804 0.0
C712 C 0.974 0.22446 0.83714 0.0
C713 C 0.96409 0.21251 0.85519 0.0
C714 C 0.93718 0.20281 0.85352 0.0
H715 H 0.55285 0.91943 0.45133 0.0
H716 H 0.47818 0.91743 0.4797 0.0
H717 H 0.46898 0.8721 0.46823 0.0
H718 H 0.53014 0.87202 0.4015 0.0
H719 H 0.55989 0.85906 0.40241 0.0
H720 H 0.56074 0.89145 0.41289 0.0
H721 H 0.58318 0.88626 0.4525 0.0
H722 H 0.58244 0.85388 0.44213 0.0
H723 H 0.56793 0.86324 0.46817 0.0
H724 H 0.46811 0.82713 0.45442 0.0
H725 H 0.47567 0.78518 0.43921 0.0
H726 H 0.55025 0.81634 0.41854 0.0
C727 C 0.53447 0.9095 0.45496 0.0
C728 C 0.51632 0.92202 0.46658 0.0
C729 C 0.49262 0.90825 0.47123 0.0
C730 C 0.4871 0.88251 0.4646 0.0
C731 C 0.5054 0.87079 0.45322 0.0
C732 C 0.52858 0.88379 0.44838 0.0
C733 C 0.54499 0.86662 0.43611 0.0
C734 C 0.54918 0.87265 0.41178 0.0
C735 C 0.57118 0.86756 0.4506 0.0
C736 C 0.52745 0.84192 0.43494 0.0
C737 C 0.50471 0.84478 0.4449 0.0
C738 C 0.48578 0.82464 0.44648 0.0
C739 C 0.49029 0.80088 0.43781 0.0
C740 C 0.51352 0.79743 0.42761 0.0
C741 C 0.53219 0.81834 0.42601 0.0
H742 H 0.21983 0.25346 0.81117 0.0
H743 H 0.19013 0.31131 0.77973 0.0
H744 H 0.14704 0.29934 0.79363 0.0
H745 H 0.15798 0.20804 0.80061 0.0
H746 H 0.16404 0.19758 0.82792 0.0
H747 H 0.19103 0.20861 0.81269 0.0
H748 H 0.21038 0.24046 0.84907 0.0
H749 H 0.18339 0.22975 0.86432 0.0
H750 H 0.19069 0.26204 0.86159 0.0
H751 H 0.10916 0.28442 0.81556 0.0
H752 H 0.07909 0.26628 0.84151 0.0
H753 H 0.13413 0.21815 0.85798 0.0
C754 C 0.20407 0.26326 0.80681 0.0
C755 C 0.2082 0.28327 0.79439 0.0
C756 C 0.1872 0.29572 0.789 0.0
C757 C 0.16274 0.28911 0.7969 0.0
C758 C 0.15959 0.2698 0.80984 0.0
C759 C 0.17961 0.25681 0.81442 0.0
C760 C 0.17191 0.23786 0.82983 0.0
C761 C 0.17119 0.21146 0.81699 0.0
C762 C 0.19017 0.24284 0.85254 0.0
C763 C 0.14478 0.24281 0.83399 0.0
C764 C 0.13784 0.26112 0.82218 0.0
C765 C 0.11423 0.26978 0.82457 0.0
C766 C 0.09733 0.25945 0.83942 0.0
C767 C 0.10421 0.24074 0.85172 0.0
C768 C 0.12815 0.23225 0.84869 0.0
H769 H 0.6106 0.60994 0.48386 0.0
H770 H 0.53364 0.58843 0.50458 0.0
H771 H 0.51395 0.60471 0.47137 0.0
H772 H 0.60261 0.66496 0.47129 0.0
H773 H 0.62069 0.6648 0.44635 0.0
H774 H 0.62799 0.64625 0.4679 0.0
H775 H 0.62005 0.60696 0.43669 0.0
H776 H 0.6129 0.62549 0.41485 0.0
H777 H 0.58958 0.59906 0.41836 0.0
H778 H 0.50437 0.63253 0.443 0.0
H779 H 0.50527 0.66628 0.41953 0.0
H780 H 0.58793 0.66706 0.41487 0.0
C781 C 0.58954 0.60772 0.48069 0.0
C782 C 0.5735 0.59782 0.49644 0.0
C783 C 0.54609 0.59563 0.49235 0.0
C784 C 0.53481 0.60484 0.47357 0.0
C785 C 0.55125 0.61556 0.45882 0.0
C786 C 0.57803 0.61645 0.46184 0.0
C787 C 0.59166 0.63137 0.44533 0.0
C788 C 0.6119 0.65312 0.45851 0.0
C789 C 0.60429 0.61472 0.42776 0.0
C790 C 0.56864 0.64031 0.43376 0.0
C791 C 0.54542 0.63074 0.44153 0.0
C792 C 0.52222 0.63941 0.43611 0.0
C793 C 0.52291 0.65866 0.4229 0.0
C794 C 0.54656 0.66878 0.41509 0.0
C795 C 0.56943 0.6589 0.41992 0.0
H796 H 0.85335 0.74626 0.75799 0.0
H797 H 0.88602 0.82202 0.78785 0.0
H798 H 0.91621 0.82376 0.75744 0.0
H799 H 0.91344 0.72732 0.74095 0.0
H800 H 0.89806 0.70844 0.71435 0.0
H801 H 0.87966 0.71307 0.73888 0.0
H802 H 0.84491 0.72948 0.71382 0.0
H803 H 0.86319 0.7249 0.68923 0.0
H804 H 0.85493 0.75496 0.69879 0.0
H805 H 0.94345 0.81682 0.72363 0.0
H806 H 0.96339 0.80243 0.68818 0.0
H807 H 0.91151 0.73194 0.68007 0.0
C808 C 0.86699 0.76313 0.7582 0.0
C809 C 0.86737 0.78399 0.77528 0.0
C810 C 0.88527 0.80588 0.7748 0.0
C811 C 0.90258 0.807 0.75768 0.0
C812 C 0.90166 0.78613 0.74102 0.0
C813 C 0.88419 0.76467 0.74107 0.0
C814 C 0.88653 0.7451 0.72083 0.0
C815 C 0.89493 0.72213 0.72926 0.0
C816 C 0.86087 0.73822 0.70471 0.0
C817 C 0.90799 0.75887 0.70937 0.0
C818 C 0.91669 0.78244 0.72134 0.0
C819 C 0.9367 0.79842 0.71407 0.0
C820 C 0.94795 0.79011 0.69396 0.0
C821 C 0.93892 0.76616 0.68125 0.0
C822 C 0.91874 0.75045 0.68924 0.0
H823 H 0.08972 0.87049 0.51125 0.0
H824 H 0.05901 0.93247 0.54671 0.0
H825 H 0.03426 0.90421 0.56953 0.0
H826 H 0.03143 0.82355 0.50935 0.0
H827 H 0.0507 0.79989 0.51396 0.0
H828 H 0.0633 0.82479 0.49919 0.0
H829 H 0.10453 0.83533 0.5289 0.0
H830 H 0.0919 0.81075 0.54395 0.0
H831 H 0.10084 0.84192 0.55933 0.0
H832 H 0.01595 0.86851 0.59103 0.0
H833 H 1.00398 0.8294 0.60662 0.0
H834 H 0.04819 0.79234 0.55672 0.0
C835 C 0.07744 0.87809 0.52356 0.0
C836 C 0.07626 0.90366 0.52722 0.0
C837 C 0.05994 0.91287 0.54344 0.0
C838 C 0.04599 0.89697 0.55658 0.0
C839 C 0.04843 0.87191 0.55311 0.0
C840 C 0.06354 0.86258 0.53671 0.0
C841 C 0.06402 0.83535 0.5367 0.0
C842 C 0.05161 0.81999 0.51342 0.0
C843 C 0.09198 0.83057 0.54258 0.0
C844 C 0.0472 0.83074 0.55595 0.0
C845 C 0.03822 0.85189 0.56526 0.0
C846 C 0.02276 0.85184 0.58367 0.0
C847 C 0.01615 0.82956 0.59251 0.0
C848 C 0.02507 0.80766 0.58297 0.0
C849 C 0.04089 0.80858 0.5645 0.0
H850 H 0.19272 0.7385 0.68024 0.0
H851 H 0.16483 0.69931 0.73483 0.0
H852 H 0.12006 0.70593 0.72354 0.0
H853 H 0.14675 0.78208 0.68057 0.0
H854 H 0.14316 0.77923 0.64946 0.0
H855 H 0.17346 0.7752 0.66437 0.0
H856 H 0.17033 0.73193 0.63953 0.0
H857 H 0.14014 0.73586 0.62452 0.0
H858 H 0.14142 0.70923 0.63875 0.0
H859 H 0.07731 0.71473 0.70426 0.0
H860 H 0.04102 0.72107 0.67687 0.0
H861 H 0.09709 0.74944 0.63256 0.0
C862 C 0.17737 0.73115 0.68994 0.0
C863 C 0.18268 0.71829 0.70852 0.0
C864 C 0.16169 0.70964 0.72084 0.0
C865 C 0.13605 0.7132 0.71446 0.0
C866 C 0.13157 0.72528 0.69559 0.0
C867 C 0.15172 0.73392 0.68343 0.0
C868 C 0.1417 0.7439 0.66234 0.0
C869 C 0.15187 0.77176 0.66432 0.0
C870 C 0.14881 0.72935 0.63997 0.0
C871 C 0.11264 0.73904 0.66417 0.0
C872 C 0.10713 0.72891 0.68378 0.0
C873 C 0.08147 0.7227 0.6889 0.0
C874 C 0.061 0.72644 0.67333 0.0
C875 C 0.06633 0.73568 0.65265 0.0
C876 C 0.0925 0.74231 0.64825 0.0
H877 H 0.97796 0.58746 0.50326 0.0
H878 H 0.92145 0.54515 0.53919 0.0
H879 H 0.92793 0.57946 0.57155 0.0
H880 H 0.02077 0.62087 0.55389 0.0
H881 H 0.02546 0.64952 0.54238 0.0
H882 H 0.01936 0.62037 0.52304 0.0
H883 H 0.97986 0.634 0.50159 0.0
H884 H 0.98593 0.66319 0.52075 0.0
H885 H 0.95431 0.64394 0.51782 0.0
H886 H 0.93849 0.61871 0.59939 0.0
H887 H 0.94944 0.66185 0.61923 0.0
H888 H 0.99576 0.68062 0.56403 0.0
C889 C 0.96692 0.58525 0.51788 0.0
C890 C 0.9496 0.56304 0.5186 0.0
C891 C 0.93564 0.56131 0.53829 0.0
C892 C 0.93899 0.58088 0.55683 0.0
C893 C 0.95606 0.60238 0.55544 0.0
C894 C 0.96957 0.60485 0.53639 0.0
C895 C 0.98485 0.63082 0.53841 0.0
C896 C 0.01436 0.63035 0.5395 0.0
C897 C 0.97568 0.64375 0.51846 0.0
C898 C 0.9774 0.6426 0.56139 0.0
C899 C 0.96118 0.62567 0.57109 0.0
C900 C 0.95125 0.63214 0.59203 0.0
C901 C 0.95763 0.65672 0.60318 0.0
C902 C 0.9735 0.67467 0.59323 0.0
C903 C 0.98375 0.66735 0.57218 0.0
H904 H 0.84465 0.84928 0.1958 0.0
H905 H 0.78585 0.87455 0.23743 0.0
H906 H 0.81326 0.91605 0.24751 0.0
H907 H 0.89867 0.87952 0.23403 0.0
H908 H 0.91911 0.88678 0.21176 0.0
H909 H 0.89369 0.86016 0.20606 0.0
H910 H 0.87395 0.8767 0.1706 0.0
H911 H 0.89939 0.9034 0.17617 0.0
H912 H 0.8656 0.90739 0.17428 0.0
H913 H 0.84844 0.9543 0.25433 0.0
H914 H 0.88906 0.98495 0.25917 0.0
H915 H 0.92477 0.93358 0.2137 0.0
C916 C 0.83726 0.86372 0.2066 0.0
C917 C 0.813 0.85887 0.2156 0.0
C918 C 0.80436 0.87798 0.2303 0.0
C919 C 0.81973 0.90159 0.23601 0.0
C920 C 0.8437 0.90569 0.22696 0.0
C921 C 0.85241 0.88721 0.21262 0.0
C922 C 0.87964 0.89565 0.20651 0.0
C923 C 0.8989 0.87958 0.21511 0.0
C924 C 0.87963 0.8958 0.18034 0.0
C925 C 0.88513 0.92166 0.21992 0.0
C926 C 0.86408 0.9273 0.23137 0.0
C927 C 0.86498 0.95011 0.24534 0.0
C928 C 0.88813 0.96742 0.24795 0.0
C929 C 0.91017 0.96169 0.23687 0.0
C930 C 0.90834 0.93859 0.22244 0.0
H931 H 0.79259 0.12526 0.27973 0.0
H932 H 0.83864 0.18131 0.33291 0.0
H933 H 0.87318 0.15554 0.33428 0.0
H934 H 0.81314 0.07073 0.29951 0.0
H935 H 0.81454 0.05537 0.27049 0.0
H936 H 0.7918 0.07657 0.27591 0.0
H937 H 0.81107 0.10198 0.24569 0.0
H938 H 0.83379 0.08087 0.24014 0.0
H939 H 0.84563 0.11352 0.24863 0.0
H940 H 0.90438 0.12482 0.32801 0.0
H941 H 0.93027 0.09317 0.31302 0.0
H942 H 0.86531 0.05893 0.26197 0.0
C943 C 0.80985 0.13224 0.29175 0.0
C944 C 0.81251 0.15544 0.30635 0.0
C945 C 0.83553 0.16344 0.32192 0.0
C946 C 0.85547 0.14896 0.32274 0.0
C947 C 0.85234 0.1265 0.30778 0.0
C948 C 0.83013 0.11825 0.29251 0.0
C949 C 0.83244 0.09446 0.27693 0.0
C950 C 0.81175 0.07302 0.28096 0.0
C951 C 0.83063 0.09793 0.25134 0.0
C952 C 0.85965 0.0909 0.28549 0.0
C953 C 0.87064 0.10932 0.30357 0.0
C954 C 0.89589 0.11023 0.31394 0.0
C955 C 0.91045 0.09212 0.30533 0.0
C956 C 0.89988 0.07353 0.2863 0.0
C957 C 0.87398 0.07283 0.27655 0.0
H958 H 0.39112 0.00678 0.99812 0.0
H959 H 0.4509 0.97693 0.96075 0.0
H960 H 0.4287 0.93442 0.96208 0.0
H961 H 0.38228 0.96129 0.03593 0.0
H962 H 0.34742 0.96006 0.03502 0.0
H963 H 0.36798 0.98807 0.03112 0.0
H964 H 0.34109 0.98769 0.99196 0.0
H965 H 0.32045 0.95966 0.99572 0.0
H966 H 0.33701 0.96066 0.96998 0.0
H967 H 0.40107 0.89555 0.96865 0.0
H968 H 0.36868 0.86233 0.97813 0.0
H969 H 0.3255 0.91713 0.0102 0.0
C970 C 0.39958 0.99126 0.99033 0.0
C971 C 0.42281 0.99507 0.97943 0.0
C972 C 0.43308 0.97437 0.96909 0.0
C973 C 0.42066 0.95021 0.96984 0.0
C974 C 0.39786 0.94711 0.98079 0.0
C975 C 0.38727 0.96704 0.9907 0.0
C976 C 0.36233 0.95856 1.00108 0.0
C977 C 0.36519 0.96753 0.02734 0.0
C978 C 0.33883 0.96715 0.98896 0.0
C979 C 0.36065 0.9307 0.99563 0.0
C980 C 0.38144 0.92458 0.98403 0.0
C981 C 0.38464 0.90011 0.97762 0.0
C982 C 0.36613 0.88137 0.98319 0.0
C983 C 0.34447 0.88707 0.99492 0.0
C984 C 0.34169 0.91215 1.0011 0.0
H985 H 0.23083 0.3797 0.3267 0.0
H986 H 0.28262 0.36486 0.2739 0.0
H987 H 0.2553 0.38296 0.24672 0.0
H988 H 0.16856 0.37252 0.28704 0.0
H989 H 0.15798 0.39795 0.30458 0.0
H990 H 0.17767 0.37858 0.31785 0.0
H991 H 0.21147 0.41732 0.33576 0.0
H992 H 0.19195 0.43671 0.32264 0.0
H993 H 0.22561 0.43769 0.31709 0.0
H994 H 0.22763 0.40937 0.22802 0.0
H995 H 0.20331 0.44262 0.2199 0.0
H996 H 0.17016 0.44149 0.28528 0.0
C997 C 0.23617 0.37977 0.30926 0.0
C998 C 0.25895 0.37086 0.30247 0.0
C999 C 0.2651 0.37121 0.27945 0.0
C1000 C 0.24968 0.38151 0.26388 0.0
C1001 C 0.22801 0.39114 0.27152 0.0
C1002 C 0.22116 0.39017 0.29366 0.0
C1003 C 0.19924 0.40469 0.29874 0.0
C1004 C 0.17439 0.38739 0.30226 0.0
C1005 C 0.20759 0.42532 0.31978 0.0
C1006 C 0.1958 0.41521 0.27648 0.0
C1007 C 0.2121 0.40665 0.26076 0.0
C1008 C 0.2144 0.41576 0.23998 0.0
C1009 C 0.20051 0.43471 0.23553 0.0
C1010 C 0.18465 0.44457 0.25188 0.0
C1011 C 0.18156 0.43395 0.27218 0.0
H1012 H 0.16267 0.02697 0.48703 0.0
H1013 H 0.09636 0.06459 0.47649 0.0
H1014 H 0.12599 0.10487 0.48396 0.0
H1015 H 0.19827 0.07255 0.53355 0.0
H1016 H 0.22974 0.06915 0.52393 0.0
H1017 H 0.20325 0.04339 0.51789 0.0
H1018 H 0.20893 0.03972 0.47414 0.0
H1019 H 0.23535 0.06554 0.48003 0.0
H1020 H 0.20763 0.06631 0.45985 0.0
H1021 H 0.16278 0.14096 0.49275 0.0
H1022 H 0.20398 0.17045 0.50212 0.0
H1023 H 0.24655 0.10926 0.50681 0.0
C1024 C 0.15433 0.0437 0.48658 0.0
C1025 C 0.12714 0.04265 0.48129 0.0
C1026 C 0.11711 0.06495 0.48038 0.0
C1027 C 0.13377 0.0879 0.48466 0.0
C1028 C 0.16045 0.08824 0.48975 0.0
C1029 C 0.17068 0.06674 0.49071 0.0
C1030 C 0.20011 0.0722 0.49631 0.0
C1031 C 0.20832 0.06383 0.51929 0.0
C1032 C 0.2138 0.06023 0.47639 0.0
C1033 C 0.20484 0.10017 0.49844 0.0
C1034 C 0.1817 0.10903 0.49459 0.0
C1035 C 0.18103 0.13424 0.49577 0.0
C1036 C 0.2046 0.15085 0.50113 0.0
C1037 C 0.22863 0.14227 0.50521 0.0
C1038 C 0.22861 0.1165 0.50371 0.0
H1039 H 0.74688 0.18021 0.74946 0.0
H1040 H 0.80767 0.15019 0.71386 0.0
H1041 H 0.78032 0.10873 0.70653 0.0
H1042 H 0.73158 0.13143 0.77907 0.0
H1043 H 0.69691 0.13164 0.77761 0.0
H1044 H 0.71897 0.15964 0.77646 0.0
H1045 H 0.6942 0.16405 0.73761 0.0
H1046 H 0.67192 0.13604 0.73868 0.0
H1047 H 0.68959 0.13881 0.71375 0.0
H1048 H 0.74953 0.0703 0.70748 0.0
H1049 H 0.7178 0.03688 0.71725 0.0
H1050 H 0.67638 0.09117 0.75263 0.0
C1051 C 0.75396 0.165 0.73948 0.0
C1052 C 0.77913 0.16827 0.73191 0.0
C1053 C 0.78831 0.14793 0.7196 0.0
C1054 C 0.77288 0.12441 0.71529 0.0
C1055 C 0.74837 0.1216 0.72345 0.0
C1056 C 0.73889 0.14131 0.73525 0.0
C1057 C 0.71321 0.13273 0.7444 0.0
C1058 C 0.71531 0.13924 0.77095 0.0
C1059 C 0.69091 0.14355 0.73292 0.0
C1060 C 0.71023 0.10504 0.73661 0.0
C1061 C 0.73051 0.09912 0.72421 0.0
C1062 C 0.73324 0.0747 0.71674 0.0
C1063 C 0.71501 0.05578 0.72238 0.0
C1064 C 0.69429 0.06131 0.73543 0.0
C1065 C 0.69168 0.08632 0.74225 0.0
H1066 H 0.47801 0.06351 0.52075 0.0
H1067 H 0.43012 0.01205 0.55528 0.0
H1068 H 0.39239 0.03347 0.54815 0.0
H1069 H 0.45138 0.11739 0.54383 0.0
H1070 H 0.45357 0.13096 0.51778 0.0
H1071 H 0.47616 0.11096 0.5251 0.0
H1072 H 0.46267 0.08325 0.48516 0.0
H1073 H 0.43971 0.10295 0.47787 0.0
H1074 H 0.42878 0.07028 0.4768 0.0
H1075 H 0.35964 0.05977 0.5359 0.0
H1076 H 0.33608 0.09264 0.52509 0.0
H1077 H 0.40627 0.12828 0.50046 0.0
C1078 C 0.45957 0.05688 0.52687 0.0
C1079 C 0.45679 0.03618 0.53851 0.0
C1080 C 0.43254 0.02802 0.54646 0.0
C1081 C 0.41102 0.03992 0.5423 0.0
C1082 C 0.41426 0.06007 0.53041 0.0
C1083 C 0.43807 0.06878 0.52321 0.0
C1084 C 0.43679 0.09153 0.51187 0.0
C1085 C 0.45558 0.11404 0.52546 0.0
C1086 C 0.44231 0.0867 0.48641 0.0
C1087 C 0.40854 0.09434 0.51386 0.0
C1088 C 0.39575 0.07575 0.52421 0.0
C1089 C 0.36949 0.07447 0.52787 0.0
C1090 C 0.35622 0.09314 0.5215 0.0
C1091 C 0.36934 0.11306 0.51195 0.0
C1092 C 0.3957 0.11329 0.50769 0.0
H1093 H 0.59919 0.45338 0.55303 0.0
H1094 H 0.65421 0.5169 0.5422 0.0
H1095 H 0.68329 0.48911 0.52631 0.0
H1096 H 0.64825 0.41964 0.57249 0.0
H1097 H 0.63048 0.38982 0.55907 0.0
H1098 H 0.61307 0.41469 0.56818 0.0
H1099 H 0.5899 0.4095 0.52662 0.0
H1100 H 0.6075 0.3848 0.51732 0.0
H1101 H 0.60921 0.41131 0.50258 0.0
H1102 H 0.70697 0.45459 0.51189 0.0
H1103 H 0.72547 0.41599 0.50395 0.0
H1104 H 0.65637 0.37504 0.52581 0.0
C1105 C 0.61737 0.46148 0.5474 0.0
C1106 C 0.62398 0.48741 0.54845 0.0
C1107 C 0.64813 0.49712 0.54093 0.0
C1108 C 0.66494 0.48148 0.53195 0.0
C1109 C 0.65761 0.45607 0.53079 0.0
C1110 C 0.63459 0.44612 0.53858 0.0
C1111 C 0.6321 0.41823 0.53656 0.0
C1112 C 0.63092 0.41012 0.5605 0.0
C1113 C 0.60826 0.4052 0.51977 0.0
C1114 C 0.65741 0.41415 0.52663 0.0
C1115 C 0.67168 0.43619 0.52314 0.0
C1116 C 0.69596 0.43718 0.51451 0.0
C1117 C 0.70626 0.41514 0.50994 0.0
C1118 C 0.69241 0.39247 0.51422 0.0
C1119 C 0.66744 0.39203 0.52225 0.0
H1120 H 0.76944 0.19704 0.36732 0.0
H1121 H 0.75925 0.25246 0.32335 0.0
H1122 H 0.75181 0.28122 0.35725 0.0
H1123 H 0.72372 0.21231 0.40803 0.0
H1124 H 0.74441 0.20796 0.43272 0.0
H1125 H 0.74627 0.19061 0.40463 0.0
H1126 H 0.79593 0.20701 0.40771 0.0
H1127 H 0.79426 0.22428 0.43585 0.0
H1128 H 0.80734 0.23994 0.41339 0.0
H1129 H 0.74609 0.30455 0.39636 0.0
H1130 H 0.74696 0.32171 0.4378 0.0
H1131 H 0.76542 0.25274 0.45644 0.0
C1132 C 0.76581 0.21522 0.36465 0.0
C1133 C 0.76458 0.22207 0.34229 0.0
C1134 C 0.75949 0.24617 0.33996 0.0
C1135 C 0.75543 0.26284 0.35923 0.0
C1136 C 0.75689 0.25544 0.3809 0.0
C1137 C 0.76229 0.23231 0.38375 0.0
C1138 C 0.76468 0.22953 0.4091 0.0
C1139 C 0.7435 0.20888 0.41389 0.0
C1140 C 0.79219 0.22493 0.41697 0.0
C1141 C 0.75999 0.25478 0.42007 0.0
C1142 C 0.75506 0.26932 0.4035 0.0
C1143 C 0.74999 0.29335 0.40949 0.0
C1144 C 0.75041 0.3029 0.43305 0.0
C1145 C 0.75635 0.28861 0.45034 0.0
C1146 C 0.76096 0.26417 0.44364 0.0
H1147 H 0.52682 0.0796 0.88323 0.0
H1148 H 0.48264 0.00682 0.88387 0.0
H1149 H 0.51137 0.98827 0.85691 0.0
H1150 H 0.53673 0.07127 0.82394 0.0
H1151 H 0.56937 0.08866 0.8284 0.0
H1152 H 0.54605 0.09568 0.84838 0.0
H1153 H 0.57781 0.0892 0.88244 0.0
H1154 H 0.60132 0.08231 0.86258 0.0
H1155 H 0.59042 0.06048 0.88118 0.0
H1156 H 0.54386 0.97842 0.82747 0.0
H1157 H 0.57865 0.97791 0.80097 0.0
H1158 H 0.60134 0.05734 0.82112 0.0
C1159 C 0.52323 0.05973 0.87776 0.0
C1160 C 0.50243 0.04463 0.88549 0.0
C1161 C 0.49857 0.01868 0.87821 0.0
C1162 C 0.5147 0.00804 0.86283 0.0
C1163 C 0.53476 0.0236 0.85517 0.0
C1164 C 0.5392 0.04887 0.86267 0.0
C1165 C 0.56186 0.0617 0.85197 0.0
C1166 C 0.55296 0.08043 0.8373 0.0
C1167 C 0.58417 0.07415 0.87066 0.0
C1168 C 0.56936 0.0398 0.83698 0.0
C1169 C 0.55353 0.01794 0.83891 0.0
C1170 C 0.55648 0.99543 0.82602 0.0
C1171 C 0.57622 0.99532 0.81095 0.0
C1172 C 0.59282 0.01755 0.80905 0.0
C1173 C 0.58917 0.03997 0.82229 0.0
H1174 H 0.33095 0.29294 0.3879 0.0
H1175 H 0.34239 0.23124 0.33714 0.0
H1176 H 0.33913 0.20402 0.36718 0.0
H1177 H 0.36504 0.27659 0.43763 0.0
H1178 H 0.34191 0.28643 0.45679 0.0
H1179 H 0.34746 0.30107 0.43175 0.0
H1180 H 0.29796 0.29057 0.41788 0.0
H1181 H 0.29225 0.27589 0.44285 0.0
H1182 H 0.28173 0.25889 0.41423 0.0
H1183 H 0.3332 0.18333 0.40362 0.0
H1184 H 0.32378 0.17138 0.44164 0.0
H1185 H 0.31302 0.24659 0.46628 0.0
C1186 C 0.33258 0.27367 0.38286 0.0
C1187 C 0.3367 0.26427 0.35997 0.0
C1188 C 0.33944 0.23901 0.35456 0.0
C1189 C 0.33748 0.22337 0.3715 0.0
C1190 C 0.33273 0.23324 0.39375 0.0
C1191 C 0.33027 0.25785 0.39933 0.0
C1192 C 0.324 0.26396 0.42399 0.0
C1193 C 0.34591 0.28315 0.43838 0.0
C1194 C 0.29741 0.27284 0.42477 0.0
C1195 C 0.32303 0.23889 0.4315 0.0
C1196 C 0.32843 0.22138 0.41403 0.0
C1197 C 0.32888 0.19694 0.41734 0.0
C1198 C 0.32353 0.19031 0.43898 0.0
C1199 C 0.31741 0.20797 0.45687 0.0
C1200 C 0.31729 0.23254 0.45292 0.0
H1201 H 0.5501 0.46413 0.90991 0.0
H1202 H 0.54647 0.53385 0.95292 0.0
H1203 H 0.52083 0.54652 0.92056 0.0
H1204 H 0.56105 0.48909 0.85955 0.0
H1205 H 0.54217 0.46325 0.84003 0.0
H1206 H 0.55707 0.45852 0.86738 0.0
H1207 H 0.51198 0.4389 0.87777 0.0
H1208 H 0.49691 0.44358 0.85038 0.0
H1209 H 0.48512 0.45597 0.87695 0.0
H1210 H 0.49777 0.5524 0.88254 0.0
H1211 H 0.48237 0.5524 0.84159 0.0
H1212 H 0.50289 0.47938 0.82333 0.0
C1213 C 0.54331 0.48179 0.91266 0.0
C1214 C 0.54986 0.4979 0.93396 0.0
C1215 C 0.54144 0.52122 0.93674 0.0
C1216 C 0.52681 0.52849 0.91851 0.0
C1217 C 0.52092 0.51228 0.89758 0.0
C1218 C 0.52903 0.48945 0.89457 0.0
C1219 C 0.52232 0.4764 0.86984 0.0
C1220 C 0.54713 0.47155 0.85854 0.0
C1221 C 0.50292 0.45229 0.86868 0.0
C1222 C 0.50963 0.49563 0.85925 0.0
C1223 C 0.50855 0.51601 0.87559 0.0
C1224 C 0.49837 0.53645 0.86964 0.0
C1225 C 0.48959 0.53626 0.84633 0.0
C1226 C 0.49142 0.51592 0.82919 0.0
C1227 C 0.50117 0.49523 0.83596 0.0
H1228 H 0.79704 0.75024 0.17056 0.0
H1229 H 0.76313 0.80837 0.14316 0.0
H1230 H 0.76071 0.78511 0.1035 0.0
H1231 H 0.83754 0.73956 0.12632 0.0
H1232 H 0.83389 0.70657 0.12581 0.0
H1233 H 0.83051 0.72658 0.15203 0.0
H1234 H 0.78457 0.70174 0.15384 0.0
H1235 H 0.78779 0.68166 0.12754 0.0
H1236 H 0.76021 0.69775 0.12941 0.0
H1237 H 0.7641 0.75665 0.06692 0.0
H1238 H 0.7757 0.72663 0.03576 0.0
H1239 H 0.80816 0.68727 0.08702 0.0
C1240 C 0.78865 0.75781 0.15623 0.0
C1241 C 0.78002 0.78095 0.15984 0.0
C1242 C 0.76982 0.79065 0.14067 0.0
C1243 C 0.76822 0.77751 0.11816 0.0
C1244 C 0.777 0.75477 0.11517 0.0
C1245 C 0.78713 0.74505 0.13367 0.0
C1246 C 0.79703 0.72119 0.12564 0.0
C1247 C 0.82649 0.72364 0.13287 0.0
C1248 C 0.78146 0.69929 0.13464 0.0
C1249 C 0.79132 0.71922 0.09968 0.0
C1250 C 0.77941 0.73857 0.09403 0.0
C1251 C 0.7732 0.74129 0.07114 0.0
C1252 C 0.77982 0.72406 0.05354 0.0
C1253 C 0.79271 0.70448 0.05892 0.0
C1254 C 0.79809 0.70187 0.08233 0.0
H1255 H 0.05457 0.98597 0.11487 0.0
H1256 H 0.06381 0.06216 0.10164 0.0
H1257 H 0.03776 0.07272 0.13304 0.0
H1258 H 0.99028 0.98141 0.13454 0.0
H1259 H 0.99812 0.96501 0.15787 0.0
H1260 H 0.01493 0.96179 0.1322 0.0
H1261 H 0.05941 0.97556 0.1572 0.0
H1262 H 0.04275 0.97867 0.18294 0.0
H1263 H 0.06511 0.00453 0.17679 0.0
H1264 H 0.01013 0.07579 0.16543 0.0
H1265 H 0.9887 0.07269 0.20107 0.0
H1266 H 1.00283 0.99705 0.19838 0.0
C1267 C 0.05134 0.00493 0.1184 0.0
C1268 C 0.06074 0.02275 0.10451 0.0
C1269 C 0.05586 0.0474 0.11053 0.0
C1270 C 0.04123 0.05387 0.12878 0.0
C1271 C 0.03214 0.03587 0.1417 0.0
C1272 C 0.03749 0.01206 0.13723 0.0
C1273 C 0.02744 0.99706 0.15541 0.0
C1274 C 0.00644 0.97501 0.14433 0.0
C1275 C 0.05003 0.98845 0.16888 0.0
C1276 C 0.01571 0.01626 0.1707 0.0
C1277 C 0.01815 0.03832 0.16204 0.0
C1278 C 0.00828 0.05869 0.17253 0.0
C1279 C 0.99601 0.0567 0.19271 0.0
C1280 C 0.99423 0.03472 0.20259 0.0
C1281 C 1.00411 0.01417 0.19133 0.0
H1282 H 0.32068 0.83109 0.17883 0.0
H1283 H 0.31695 0.75156 0.16029 0.0
H1284 H 0.32019 0.75657 0.11977 0.0
H1285 H 0.27629 0.8351 0.1342 0.0
H1286 H 0.29088 0.86526 0.12914 0.0
H1287 H 0.29569 0.85675 0.15736 0.0
H1288 H 0.34586 0.86639 0.15653 0.0
H1289 H 0.34116 0.87493 0.12817 0.0
H1290 H 0.36074 0.8515 0.13282 0.0
H1291 H 0.31698 0.76884 0.08055 0.0
H1292 H 0.30352 0.78663 0.04618 0.0
H1293 H 0.30423 0.85716 0.08969 0.0
C1294 C 0.32086 0.81465 0.16642 0.0
C1295 C 0.31874 0.79093 0.17316 0.0
C1296 C 0.31932 0.7701 0.15606 0.0
C1297 C 0.32103 0.77272 0.13281 0.0
C1298 C 0.32196 0.79622 0.12673 0.0
C1299 C 0.32176 0.81683 0.14306 0.0
C1300 C 0.31854 0.83927 0.13175 0.0
C1301 C 0.29389 0.84968 0.13851 0.0
C1302 C 0.34304 0.8592 0.13767 0.0
C1303 C 0.31566 0.82776 0.10648 0.0
C1304 C 0.3186 0.80313 0.10393 0.0
C1305 C 0.31502 0.7882 0.0823 0.0
C1306 C 0.3074 0.79848 0.06287 0.0
C1307 C 0.30285 0.82327 0.06531 0.0
C1308 C 0.30778 0.83822 0.08731 0.0
H1309 H 0.07062 0.50987 0.08401 0.0
H1310 H 0.99356 0.50799 0.1075 0.0
H1311 H 0.01257 0.50758 0.14754 0.0
H1312 H 0.09315 0.46866 0.12 0.0
H1313 H 0.1261 0.48538 0.12494 0.0
H1314 H 0.10624 0.48582 0.09849 0.0
H1315 H 0.1138 0.53381 0.10655 0.0
H1316 H 0.13375 0.53352 0.13296 0.0
H1317 H 0.10599 0.54944 0.13362 0.0
H1318 H 0.04084 0.50676 0.18526 0.0
H1319 H 0.07548 0.50751 0.21693 0.0
H1320 H 0.13322 0.50936 0.16751 0.0
C1321 C 0.05762 0.50913 0.0975 0.0
C1322 C 0.03053 0.50872 0.09257 0.0
C1323 C 0.01438 0.50841 0.11088 0.0
C1324 C 0.025 0.50803 0.13363 0.0
C1325 C 0.05179 0.50807 0.13776 0.0
C1326 C 0.06784 0.50874 0.12014 0.0
C1327 C 0.09598 0.50895 0.12889 0.0
C1328 C 0.10594 0.48582 0.1174 0.0
C1329 C 0.1134 0.53285 0.1253 0.0
C1330 C 0.0934 0.50827 0.15426 0.0
C1331 C 0.06781 0.50771 0.15914 0.0
C1332 C 0.06092 0.50719 0.18158 0.0
C1333 C 0.08074 0.50755 0.19945 0.0
C1334 C 0.10716 0.50848 0.1948 0.0
C1335 C 0.11331 0.50863 0.17179 0.0
H1336 H 0.35406 0.70001 0.29708 0.0
H1337 H 0.39259 0.72575 0.24012 0.0
H1338 H 0.43555 0.72471 0.26099 0.0
H1339 H 0.39808 0.7351 0.34141 0.0
H1340 H 0.39651 0.71175 0.35995 0.0
H1341 H 0.36905 0.71227 0.33952 0.0
H1342 H 0.37013 0.6668 0.32166 0.0
H1343 H 0.39762 0.66611 0.34212 0.0
H1344 H 0.39989 0.65849 0.31152 0.0
H1345 H 0.47437 0.72368 0.28967 0.0
H1346 H 0.50545 0.72379 0.3238 0.0
H1347 H 0.44071 0.69805 0.36122 0.0
C1348 C 0.37147 0.70479 0.28866 0.0
C1349 C 0.36995 0.71275 0.26686 0.0
C1350 C 0.39329 0.71965 0.25684 0.0
C1351 C 0.41775 0.71896 0.26849 0.0
C1352 C 0.4185 0.71122 0.29008 0.0
C1353 C 0.39592 0.70419 0.29999 0.0
C1354 C 0.40189 0.69814 0.32396 0.0
C1355 C 0.39073 0.71535 0.34228 0.0
C1356 C 0.39178 0.67076 0.32485 0.0
C1357 C 0.4314 0.70342 0.32626 0.0
C1358 C 0.44069 0.71069 0.30649 0.0
C1359 C 0.46731 0.71774 0.30513 0.0
C1360 C 0.48481 0.71773 0.32463 0.0
C1361 C 0.47559 0.71088 0.34525 0.0
C1362 C 0.44852 0.70321 0.34576 0.0
H1363 H 0.04017 0.40945 0.94648 0.0
H1364 H 0.03239 0.40998 0.01978 0.0
H1365 H 0.02416 0.36448 0.01306 0.0
H1366 H 0.99299 0.35606 0.92404 0.0
H1367 H 0.01218 0.34449 0.90195 0.0
H1368 H 0.01596 0.37727 0.91208 0.0
H1369 H 0.06559 0.37886 0.92231 0.0
H1370 H 0.062 0.34612 0.91208 0.0
H1371 H 0.07655 0.35858 0.94109 0.0
H1372 H 0.01546 0.31892 0.99831 0.0
H1373 H 0.01156 0.27632 0.9773 0.0
H1374 H 0.03013 0.30535 0.91469 0.0
C1375 C 0.03712 0.40019 0.96129 0.0
C1376 C 0.03662 0.41367 0.98367 0.0
C1377 C 0.03212 0.40039 1.00232 0.0
C1378 C 0.02763 0.37444 0.99874 0.0
C1379 C 0.0282 0.36191 0.9765 0.0
C1380 C 0.03325 0.37432 0.95817 0.0
C1381 C 0.03401 0.35642 0.93619 0.0
C1382 C 0.0125 0.3587 0.91746 0.0
C1383 C 0.06115 0.36022 0.92741 0.0
C1384 C 0.0285 0.33198 0.94505 0.0
C1385 C 0.02481 0.33559 0.96828 0.0
C1386 C 0.01854 0.31585 0.98018 0.0
C1387 C 0.01625 0.29175 0.96808 0.0
C1388 C 0.0207 0.28761 0.94444 0.0
C1389 C 0.02691 0.30802 0.93282 0.0
H1390 H 0.70304 0.73224 0.27633 0.0
H1391 H 0.7191 0.81248 0.28786 0.0
H1392 H 0.67841 0.81359 0.30697 0.0
H1393 H 0.63164 0.72604 0.26538 0.0
H1394 H 0.62617 0.69948 0.27995 0.0
H1395 H 0.65524 0.70532 0.26554 0.0
H1396 H 0.68384 0.70471 0.30361 0.0
H1397 H 0.65492 0.69887 0.31811 0.0
H1398 H 0.67981 0.7251 0.32948 0.0
H1399 H 0.6383 0.80545 0.32847 0.0
H1400 H 0.60167 0.78889 0.34923 0.0
H1401 H 0.61174 0.71406 0.32212 0.0
C1402 C 0.69787 0.75005 0.28271 0.0
C1403 C 0.71418 0.77229 0.28075 0.0
C1404 C 0.70671 0.79525 0.2891 0.0
C1405 C 0.6837 0.79603 0.29998 0.0
C1406 C 0.66826 0.7737 0.30201 0.0
C1407 C 0.67495 0.75115 0.29336 0.0
C1408 C 0.65574 0.72977 0.29848 0.0
C1409 C 0.64134 0.71424 0.276 0.0
C1410 C 0.6694 0.71368 0.31331 0.0
C1411 C 0.63758 0.74375 0.312 0.0
C1412 C 0.64497 0.76907 0.31379 0.0
C1413 C 0.63209 0.78566 0.32686 0.0
C1414 C 0.61135 0.7761 0.33861 0.0
C1415 C 0.6037 0.75019 0.33714 0.0
C1416 C 0.61678 0.73395 0.3233 0.0
H1417 H 0.05867 0.10673 0.01044 0.0
H1418 H 0.07876 0.04914 0.96036 0.0
H1419 H 0.05668 0.06593 0.9287 0.0
H1420 H 0.99385 0.11363 0.97661 0.0
H1421 H 1.00044 0.14665 0.98594 0.0
H1422 H 0.01101 0.12617 0.00471 0.0
H1423 H 0.05835 0.1498 0.00783 0.0
H1424 H 0.04808 0.1701 0.98902 0.0
H1425 H 0.07386 0.15288 0.98177 0.0
H1426 H 0.04328 0.09461 0.90283 0.0
H1427 H 0.03792 0.13166 0.88511 0.0
H1428 H 0.02439 0.17005 0.9517 0.0
C1429 C 0.05701 0.09696 0.99289 0.0
C1430 C 0.06963 0.07635 0.98768 0.0
C1431 C 0.06846 0.06455 0.96455 0.0
C1432 C 0.056 0.074 0.94652 0.0
C1433 C 0.04463 0.0951 0.95202 0.0
C1434 C 0.04455 0.10617 0.97474 0.0
C1435 C 0.03459 0.13062 0.9759 0.0
C1436 C 0.00841 0.12917 0.98641 0.0
C1437 C 0.05494 0.15209 0.98941 0.0
C1438 C 0.03097 0.13249 0.9504 0.0
C1439 C 0.03634 0.11161 0.93685 0.0
C1440 C 0.03813 0.11068 0.91315 0.0
C1441 C 0.03513 0.13183 0.90321 0.0
C1442 C 0.03035 0.15356 0.91696 0.0
C1443 C 0.02724 0.15344 0.94062 0.0
H1444 H 0.37086 0.2563 0.28324 0.0
H1445 H 0.38621 0.33667 0.2959 0.0
H1446 H 0.41834 0.33639 0.26722 0.0
H1447 H 0.43785 0.24799 0.27676 0.0
H1448 H 0.42869 0.22147 0.25432 0.0
H1449 H 0.40694 0.22804 0.27594 0.0
H1450 H 0.37002 0.22842 0.24373 0.0
H1451 H 0.39163 0.2218 0.22203 0.0
H1452 H 0.37572 0.24862 0.22251 0.0
H1453 H 0.44837 0.32726 0.23617 0.0
H1454 H 0.47342 0.30984 0.20545 0.0
H1455 H 0.43945 0.23564 0.21438 0.0
C1456 C 0.38114 0.27386 0.28018 0.0
C1457 C 0.37575 0.2965 0.29179 0.0
C1458 C 0.38951 0.31905 0.28697 0.0
C1459 C 0.40801 0.3191 0.27082 0.0
C1460 C 0.41276 0.29646 0.25967 0.0
C1461 C 0.39975 0.27426 0.26419 0.0
C1462 C 0.4082 0.25248 0.24968 0.0
C1463 C 0.4212 0.23656 0.2651 0.0
C1464 C 0.38501 0.23692 0.23353 0.0
C1465 C 0.42784 0.26588 0.23618 0.0
C1466 C 0.43026 0.29125 0.24217 0.0
C1467 C 0.44674 0.30741 0.23146 0.0
C1468 C 0.46092 0.29736 0.21404 0.0
C1469 C 0.45857 0.27138 0.20754 0.0
C1470 C 0.44195 0.25558 0.21902 0.0
H1471 H 0.52277 0.37935 0.02183 0.0
H1472 H 0.60339 0.41202 0.04365 0.0
H1473 H 0.60163 0.39217 0.07892 0.0
H1474 H 0.50018 0.38148 0.08184 0.0
H1475 H 0.47884 0.35221 0.07314 0.0
H1476 H 0.48514 0.37295 0.05246 0.0
H1477 H 0.50036 0.338 0.0251 0.0
H1478 H 0.49428 0.31726 0.04564 0.0
H1479 H 0.52619 0.32288 0.03571 0.0
H1480 H 0.59346 0.3617 0.10709 0.0
H1481 H 0.57896 0.32563 0.12631 0.0
H1482 H 0.50316 0.31446 0.08702 0.0
C1483 C 0.53972 0.38305 0.03452 0.0
C1484 C 0.56314 0.39736 0.03024 0.0
C1485 C 0.58515 0.40146 0.04688 0.0
C1486 C 0.5843 0.39019 0.0669 0.0
C1487 C 0.56113 0.3753 0.07017 0.0
C1488 C 0.53907 0.37215 0.05458 0.0
C1489 C 0.51741 0.35339 0.06062 0.0
C1490 C 0.49401 0.36575 0.06743 0.0
C1491 C 0.5091 0.33161 0.04059 0.0
C1492 C 0.53108 0.34539 0.08131 0.0
C1493 C 0.5562 0.35842 0.08681 0.0
C1494 C 0.57356 0.35203 0.10347 0.0
C1495 C 0.56519 0.33161 0.11437 0.0
C1496 C 0.53968 0.31803 0.10872 0.0
C1497 C 0.52235 0.32534 0.09235 0.0
H1498 H 0.70058 0.22812 0.19689 0.0
H1499 H 0.66982 0.18955 0.25078 0.0
H1500 H 0.62628 0.19991 0.24038 0.0
H1501 H 0.6596 0.27615 0.1998 0.0
H1502 H 0.65585 0.27463 0.16881 0.0
H1503 H 0.68518 0.2675 0.18292 0.0
H1504 H 0.67801 0.2247 0.15659 0.0
H1505 H 0.64877 0.2317 0.14239 0.0
H1506 H 0.64748 0.20408 0.15549 0.0
H1507 H 0.58489 0.21252 0.22187 0.0
H1508 H 0.54996 0.22291 0.19548 0.0
H1509 H 0.60801 0.24903 0.15184 0.0
C1510 C 0.68482 0.22171 0.20661 0.0
C1511 C 0.68889 0.20787 0.22468 0.0
C1512 C 0.66754 0.20048 0.23711 0.0
C1513 C 0.64263 0.2062 0.23125 0.0
C1514 C 0.63928 0.21925 0.21285 0.0
C1515 C 0.65988 0.22676 0.20069 0.0
C1516 C 0.65103 0.23844 0.18029 0.0
C1517 C 0.66367 0.2658 0.18314 0.0
C1518 C 0.65665 0.22385 0.15735 0.0
C1519 C 0.62206 0.23586 0.18247 0.0
C1520 C 0.61562 0.2253 0.20165 0.0
C1521 C 0.5898 0.22086 0.20688 0.0
C1522 C 0.5701 0.22689 0.19187 0.0
C1523 C 0.57632 0.23668 0.17162 0.0
C1524 C 0.60268 0.2415 0.16717 0.0
H1525 H 0.48858 0.10537 0.01119 0.0
H1526 H 0.42023 0.06471 0.0348 0.0
H1527 H 0.42526 0.09567 0.06995 0.0
H1528 H 0.52533 0.12869 0.06708 0.0
H1529 H 0.53652 0.15875 0.05972 0.0
H1530 H 0.52969 0.1319 0.03745 0.0
H1531 H 0.49741 0.15313 0.01448 0.0
H1532 H 0.50428 0.18008 0.03657 0.0
H1533 H 0.4711 0.16463 0.0285 0.0
H1534 H 0.43669 0.13143 0.10218 0.0
H1535 H 0.45077 0.1718 0.12717 0.0
H1536 H 0.50867 0.19166 0.0809 0.0
C1537 C 0.47451 0.10287 0.02359 0.0
C1538 C 0.45425 0.08206 0.02009 0.0
C1539 C 0.43652 0.0798 0.03714 0.0
C1540 C 0.43906 0.09747 0.05721 0.0
C1541 C 0.45916 0.11763 0.05997 0.0
C1542 C 0.47635 0.12064 0.04349 0.0
C1543 C 0.49488 0.14508 0.04979 0.0
C1544 C 0.52329 0.14084 0.05375 0.0
C1545 C 0.49171 0.16171 0.03124 0.0
C1546 C 0.48515 0.15544 0.07225 0.0
C1547 C 0.46488 0.13904 0.078 0.0
C1548 C 0.45255 0.14443 0.09787 0.0
C1549 C 0.46076 0.16742 0.11199 0.0
C1550 C 0.48083 0.18495 0.10603 0.0
C1551 C 0.49336 0.17868 0.086 0.0
H1552 H 0.34479 0.35444 0.7089 0.0
H1553 H 0.27877 0.38836 0.72966 0.0
H1554 H 0.30632 0.42975 0.73532 0.0
H1555 H 0.39027 0.39094 0.75053 0.0
H1556 H 0.41694 0.39306 0.73275 0.0
H1557 H 0.39121 0.36672 0.72665 0.0
H1558 H 0.38247 0.37512 0.68466 0.0
H1559 H 0.40843 0.40139 0.69055 0.0
H1560 H 0.37612 0.40521 0.6798 0.0
H1561 H 0.34224 0.46687 0.74246 0.0
H1562 H 0.38357 0.4966 0.75078 0.0
H1563 H 0.42612 0.43783 0.72634 0.0
C1564 C 0.33596 0.37069 0.71383 0.0
C1565 C 0.30962 0.36838 0.71849 0.0
C1566 C 0.29889 0.3899 0.7258 0.0
C1567 C 0.31436 0.41342 0.72901 0.0
C1568 C 0.34052 0.41505 0.7249 0.0
C1569 C 0.3512 0.39424 0.71736 0.0
C1570 C 0.38032 0.4007 0.71635 0.0
C1571 C 0.39557 0.38705 0.73254 0.0
C1572 C 0.38724 0.39529 0.69135 0.0
C1573 C 0.38448 0.42824 0.72507 0.0
C1574 C 0.36128 0.43628 0.7296 0.0
C1575 C 0.3605 0.46084 0.73873 0.0
C1576 C 0.38408 0.47759 0.74344 0.0
C1577 C 0.40814 0.4696 0.73927 0.0
C1578 C 0.40812 0.44461 0.72974 0.0
H1579 H 0.28695 0.63725 0.76259 0.0
H1580 H 0.32897 0.69131 0.81956 0.0
H1581 H 0.36392 0.66613 0.82161 0.0
H1582 H 0.30635 0.58202 0.78163 0.0
H1583 H 0.31 0.56777 0.75271 0.0
H1584 H 0.28673 0.58858 0.75726 0.0
H1585 H 0.30846 0.61545 0.72917 0.0
H1586 H 0.33176 0.59474 0.72453 0.0
H1587 H 0.34295 0.6273 0.73435 0.0
H1588 H 0.39581 0.63641 0.8162 0.0
H1589 H 0.42269 0.6051 0.80284 0.0
H1590 H 0.36145 0.57157 0.74793 0.0
C1591 C 0.30341 0.64388 0.77557 0.0
C1592 C 0.30479 0.66633 0.79108 0.0
C1593 C 0.32682 0.67396 0.80784 0.0
C1594 C 0.347 0.65985 0.80905 0.0
C1595 C 0.34513 0.63811 0.79331 0.0
C1596 C 0.32394 0.63017 0.77684 0.0
C1597 C 0.3275 0.60692 0.76104 0.0
C1598 C 0.30639 0.58503 0.7633 0.0
C1599 C 0.32769 0.61138 0.73578 0.0
C1600 C 0.3542 0.60329 0.77097 0.0
C1601 C 0.36387 0.62132 0.78976 0.0
C1602 C 0.38838 0.62214 0.80156 0.0
C1603 C 0.40352 0.60423 0.79383 0.0
C1604 C 0.39428 0.58582 0.77431 0.0
C1605 C 0.36913 0.58533 0.76292 0.0
H1606 H 0.87947 0.47656 0.47213 0.0
H1607 H 0.95259 0.46597 0.50674 0.0
H1608 H 0.93048 0.42704 0.51775 0.0
H1609 H 0.84044 0.45745 0.51481 0.0
H1610 H 0.8126 0.44262 0.49479 0.0
H1611 H 0.83464 0.46799 0.48749 0.0
H1612 H 0.84215 0.44068 0.44966 0.0
H1613 H 0.81991 0.41527 0.45672 0.0
H1614 H 0.85266 0.41129 0.45106 0.0
H1615 H 0.89992 0.39005 0.52583 0.0
H1616 H 0.86319 0.35851 0.53171 0.0
H1617 H 0.8094 0.39497 0.4939 0.0
C1618 C 0.89086 0.46565 0.48154 0.0
C1619 C 0.91776 0.47376 0.48821 0.0
C1620 C 0.93202 0.45967 0.50121 0.0
C1621 C 0.91962 0.43765 0.50754 0.0
C1622 C 0.89291 0.43029 0.50098 0.0
C1623 C 0.87868 0.44392 0.48834 0.0
C1624 C 0.84991 0.43296 0.48489 0.0
C1625 C 0.83344 0.45135 0.49617 0.0
C1626 C 0.84062 0.42455 0.45905 0.0
C1627 C 0.85012 0.41107 0.49763 0.0
C1628 C 0.87514 0.40969 0.50656 0.0
C1629 C 0.88025 0.39095 0.5189 0.0
C1630 C 0.85925 0.37312 0.52215 0.0
C1631 C 0.83339 0.37432 0.51337 0.0
C1632 C 0.82888 0.39365 0.50101 0.0
H1633 H 0.73352 0.87535 0.82613 0.0
H1634 H 0.77132 0.84538 0.76745 0.0
H1635 H 0.74029 0.86026 0.74123 0.0
H1636 H 0.66598 0.86801 0.79654 0.0
H1637 H 0.66095 0.89751 0.81143 0.0
H1638 H 0.68181 0.87954 0.82532 0.0
H1639 H 0.7198 0.91672 0.83176 0.0
H1640 H 0.699 0.93477 0.81817 0.0
H1641 H 0.72975 0.93074 0.80731 0.0
H1642 H 0.71005 0.88336 0.72179 0.0
H1643 H 0.68671 0.91633 0.71128 0.0
H1644 H 0.67047 0.93422 0.78253 0.0
C1645 C 0.73528 0.87163 0.80777 0.0
C1646 C 0.75502 0.8589 0.79906 0.0
C1647 C 0.75614 0.85442 0.77477 0.0
C1648 C 0.73855 0.86289 0.75963 0.0
C1649 C 0.71989 0.87593 0.76892 0.0
C1650 C 0.71825 0.88043 0.79246 0.0
C1651 C 0.69916 0.89801 0.79833 0.0
C1652 C 0.67557 0.88498 0.80851 0.0
C1653 C 0.71275 0.92144 0.81485 0.0
C1654 C 0.6913 0.90371 0.7745 0.0
C1655 C 0.70287 0.89014 0.75771 0.0
C1656 C 0.70055 0.89378 0.73471 0.0
C1657 C 0.68722 0.91257 0.7289 0.0
C1658 C 0.67662 0.92778 0.74605 0.0
C1659 C 0.67774 0.92251 0.76893 0.0
H1660 H 0.61787 0.55071 0.98843 0.0
H1661 H 0.65624 0.48601 0.98408 0.0
H1662 H 0.69919 0.51324 0.99111 0.0
H1663 H 0.66065 0.58396 0.9568 0.0
H1664 H 0.65991 0.61383 0.97347 0.0
H1665 H 0.63233 0.58946 0.97129 0.0
H1666 H 0.63511 0.59379 0.01601 0.0
H1667 H 0.66258 0.61838 0.01835 0.0
H1668 H 0.66543 0.59168 0.03212 0.0
H1669 H 0.7383 0.54796 0.99535 0.0
H1670 H 0.76958 0.58678 0.99731 0.0
H1671 H 0.70496 0.62806 0.99683 0.0
C1672 C 0.63526 0.54219 0.98919 0.0
C1673 C 0.63354 0.51612 0.98575 0.0
C1674 C 0.6569 0.50587 0.98707 0.0
C1675 C 0.68145 0.52122 0.99087 0.0
C1676 C 0.68236 0.5468 0.99336 0.0
C1677 C 0.65983 0.55717 0.99272 0.0
C1678 C 0.66594 0.58504 0.99442 0.0
C1679 C 0.654 0.59356 0.9727 0.0
C1680 C 0.65672 0.59798 0.01654 0.0
C1681 C 0.69544 0.58875 0.99568 0.0
C1682 C 0.70464 0.56655 0.99528 0.0
C1683 C 0.73127 0.56545 0.99583 0.0
C1684 C 0.74891 0.58761 0.99688 0.0
C1685 C 0.73982 0.61055 0.99715 0.0
C1686 C 0.71267 0.61092 0.99658 0.0
H1687 H 0.29213 0.64926 0.23941 0.0
H1688 H 0.24946 0.7092 0.25972 0.0
H1689 H 0.21092 0.67878 0.26355 0.0
H1690 H 0.23719 0.60605 0.20705 0.0
H1691 H 0.24777 0.57943 0.21692 0.0
H1692 H 0.27148 0.60585 0.21415 0.0
H1693 H 0.2897 0.60907 0.25707 0.0
H1694 H 0.26615 0.58261 0.25992 0.0
H1695 H 0.26781 0.61134 0.27929 0.0
H1696 H 0.17785 0.64204 0.26734 0.0
H1697 H 0.15292 0.60152 0.27145 0.0
H1698 H 0.21734 0.56561 0.24923 0.0
C1699 C 0.27468 0.656 0.24464 0.0
C1700 C 0.27379 0.68164 0.24908 0.0
C1701 C 0.25049 0.68966 0.25577 0.0
C1702 C 0.22851 0.67252 0.2581 0.0
C1703 C 0.23009 0.64742 0.25365 0.0
C1704 C 0.25256 0.63915 0.24707 0.0
C1705 C 0.2495 0.6112 0.24428 0.0
C1706 C 0.25161 0.59998 0.2191 0.0
C1707 C 0.26947 0.60309 0.26115 0.0
C1708 C 0.22196 0.60509 0.25072 0.0
C1709 C 0.21103 0.62622 0.2559 0.0
C1710 C 0.18611 0.62533 0.26315 0.0
C1711 C 0.17211 0.60224 0.26543 0.0
C1712 C 0.1831 0.58039 0.26052 0.0
C1713 C 0.20824 0.58191 0.25281 0.0
H1714 H 0.94896 0.53462 0.06088 0.0
H1715 H 0.99425 0.55204 0.00464 0.0
H1716 H 0.96218 0.5772 0.9923 0.0
H1717 H 0.88557 0.53058 0.03079 0.0
H1718 H 0.87174 0.54537 0.05522 0.0
H1719 H 0.89809 0.52836 0.0598 0.0
H1720 H 0.92539 0.56705 0.08567 0.0
H1721 H 0.89901 0.58411 0.08137 0.0
H1722 H 0.93118 0.59584 0.07447 0.0
H1723 H 0.92485 0.59943 0.98512 0.0
H1724 H 0.88652 0.62069 0.98579 0.0
H1725 H 0.86613 0.59089 0.04768 0.0
C1726 C 0.95229 0.54394 0.04613 0.0
C1727 C 0.97397 0.54093 0.03352 0.0
C1728 C 0.97749 0.55344 0.01425 0.0
C1729 C 0.95944 0.56792 0.00714 0.0
C1730 C 0.93804 0.57003 0.0196 0.0
C1731 C 0.93452 0.5587 0.03886 0.0
C1732 C 0.91004 0.56451 0.04941 0.0
C1733 C 0.89019 0.54079 0.04876 0.0
C1734 C 0.91681 0.57873 0.0742 0.0
C1735 C 0.90041 0.58083 0.03301 0.0
C1736 C 0.91678 0.58356 0.01584 0.0
C1737 C 0.91193 0.59755 0.99854 0.0
C1738 C 0.89003 0.60948 0.99902 0.0
C1739 C 0.8733 0.60754 0.0168 0.0
C1740 C 0.87852 0.59278 0.03386 0.0
H1741 H 0.12241 0.96645 0.02676 0.0
H1742 H 0.13145 0.97432 0.10185 0.0
H1743 H 0.16131 0.94367 0.09942 0.0
H1744 H 0.12664 0.9015 0.01398 0.0
H1745 H 0.14554 0.90512 0.98991 0.0
H1746 H 0.12308 0.92604 0.99744 0.0
H1747 H 0.16059 0.96328 1.00098 0.0
H1748 H 0.18323 0.94249 0.99363 0.0
H1749 H 0.18972 0.96436 0.02014 0.0
H1750 H 0.19072 0.91285 0.08899 0.0
H1751 H 0.21808 0.88407 0.07151 0.0
H1752 H 0.19371 0.89906 1.00325 0.0
C1753 C 0.13068 0.96191 0.0428 0.0
C1754 C 0.12434 0.97299 0.06456 0.0
C1755 C 0.13538 0.96592 0.08495 0.0
C1756 C 0.15265 0.94866 0.08375 0.0
C1757 C 0.15895 0.93877 0.06207 0.0
C1758 C 0.14836 0.94516 0.04196 0.0
C1759 C 0.15918 0.93261 0.02089 0.0
C1760 C 0.13731 0.91529 0.0046 0.0
C1761 C 0.17407 0.95184 0.00817 0.0
C1762 C 0.17761 0.9181 0.03232 0.0
C1763 C 0.17691 0.92181 0.05608 0.0
C1764 C 0.1915 0.90991 0.07045 0.0
C1765 C 0.20697 0.89358 0.06032 0.0
C1766 C 0.20814 0.88947 0.03605 0.0
C1767 C 0.19348 0.90214 0.02187 0.0
loop_
_geom_bond_atom_site_label_1
_geom_bond_atom_site_label_2
_geom_bond_distance
_geom_bond_site_symmetry_2
_ccdc_geom_bond_type
H0 C1 0.949 . S
C1 H0 0.949 . S
C1 C2 1.395 . S
C1 C3 1.391 . S
C2 C1 1.395 . S
C2 C5 1.394 . S
C3 C1 1.391 . S
C3 C7 1.387 . S
C3 C8 1.491 . S
H4 C5 0.934 1_565 S
C5 C2 1.394 . S
C5 H4 0.934 1_545 S
C5 C6 1.390 . S
C6 C5 1.390 . S
C6 C7 1.409 . S
C7 C3 1.387 . S
C7 C6 1.409 . S
C7 H9 0.951 . S
C8 C3 1.491 . S
C8 C10 1.382 . S
C8 C12 1.404 . S
H9 C7 0.951 . S
C10 C8 1.382 . S
C10 C11 1.390 1_554 S
C10 H15 0.949 1_554 S
C11 C10 1.390 1_556 S
C11 C16 1.399 1_556 S
C12 C8 1.404 . S
C12 H13 0.950 . S
C12 C14 1.375 . S
H13 C12 0.950 . S
C14 C12 1.375 . S
C14 C16 1.382 . S
C14 H18 0.950 . S
H15 C10 0.949 1_556 S
C16 C11 1.399 1_554 S
C16 C14 1.382 . S
C16 H17 0.952 1_554 S
H17 C16 0.952 1_556 S
H18 C14 0.950 . S
H19 C20 0.949 . S
C20 H19 0.949 . S
C20 C21 1.395 . S
C20 C22 1.391 . S
C21 C20 1.395 . S
C21 C24 1.390 . S
C22 C20 1.391 . S
C22 C26 1.387 . S
C22 C27 1.491 . S
H23 C24 0.950 . S
C24 C21 1.390 . S
C24 H23 0.950 . S
C24 C25 1.378 . S
C25 C24 1.378 . S
C25 C26 1.409 . S
C26 C22 1.387 . S
C26 C25 1.409 . S
C26 H28 0.951 . S
C27 C22 1.491 . S
C27 C29 1.382 . S
C27 C31 1.404 . S
H28 C26 0.951 . S
C29 C27 1.382 . S
C29 C30 1.390 . S
C29 H34 0.949 . S
C30 C29 1.390 . S
C30 C35 1.399 . S
C31 C27 1.404 . S
C31 H32 0.950 . S
C31 C33 1.375 . S
H32 C31 0.950 . S
C33 C31 1.375 . S
C33 C35 1.382 . S
C33 H37 0.950 . S
H34 C29 0.949 . S
C35 C30 1.399 . S
C35 C33 1.382 . S
C35 H36 0.952 . S
H36 C35 0.952 . S
H37 C33 0.950 . S
H38 C39 0.949 . S
C39 H38 0.949 . S
C39 C40 1.395 . S
C39 C41 1.391 1_455 S
C40 C39 1.395 . S
C40 C43 1.390 1_455 S
C41 C39 1.391 1_655 S
C41 C45 1.387 . S
C41 C46 1.480 1_654 S
H42 C43 0.950 . S
C43 C40 1.390 1_655 S
C43 H42 0.950 . S
C43 C44 1.378 . S
C44 C43 1.378 . S
C44 C45 1.409 . S
C45 C41 1.387 . S
C45 C44 1.409 . S
C45 H47 0.951 . S
C46 C41 1.480 1_456 S
C46 C48 1.400 . S
C46 C50 1.407 . S
H47 C45 0.951 . S
C48 C46 1.400 . S
C48 C49 1.415 . S
C48 H53 0.917 1_556 S
C49 C48 1.415 . S
C49 C54 1.399 . S
C50 C46 1.407 . S
C50 H51 0.953 . S
C50 C52 1.375 . S
H51 C50 0.953 . S
C52 C50 1.375 . S
C52 C54 1.382 . S
C52 H56 0.950 . S
H53 C48 0.917 1_554 S
C54 C49 1.399 . S
C54 C52 1.382 . S
C54 H55 0.952 . S
H55 C54 0.952 . S
H56 C52 0.950 . S
H57 C58 0.949 . S
C58 H57 0.949 . S
C58 C59 1.395 . S
C58 C60 1.391 . S
C59 C58 1.395 . S
C59 C62 1.390 . S
C60 C58 1.391 . S
C60 C64 1.387 . S
C60 C65 1.491 . S
H61 C62 0.950 . S
C62 C59 1.390 . S
C62 H61 0.950 . S
C62 C63 1.378 . S
C63 C62 1.378 . S
C63 C64 1.409 . S
C64 C60 1.387 . S
C64 C63 1.409 . S
C64 H66 0.951 . S
C65 C60 1.491 . S
C65 C67 1.382 . S
C65 C69 1.404 . S
H66 C64 0.951 . S
C67 C65 1.382 . S
C67 C68 1.390 . S
C67 H72 0.949 . S
C68 C67 1.390 . S
C68 C73 1.399 . S
C69 C65 1.404 . S
C69 H70 0.950 . S
C69 C71 1.375 . S
H70 C69 0.950 . S
C71 C69 1.375 . S
C71 C73 1.382 . S
C71 H75 0.950 . S
H72 C67 0.949 . S
C73 C68 1.399 . S
C73 C71 1.382 . S
C73 H74 0.952 . S
H74 C73 0.952 . S
H75 C71 0.950 . S
H76 C77 0.949 . S
C77 H76 0.949 . S
C77 C78 1.395 . S
C77 C79 1.391 . S
C78 C77 1.395 . S
C78 C81 1.393 . S
C79 C77 1.391 . S
C79 C83 1.387 . S
C79 C84 1.491 . S
H80 C81 0.944 1_545 S
C81 C78 1.393 . S
C81 H80 0.944 1_565 S
C81 C82 1.380 . S
C82 C81 1.380 . S
C82 C83 1.409 . S
C83 C79 1.387 . S
C83 C82 1.409 . S
C83 H85 0.951 . S
C84 C79 1.491 . S
C84 C86 1.382 . S
C84 C88 1.404 . S
H85 C83 0.951 . S
C86 C84 1.382 . S
C86 C87 1.390 . S
C86 H91 0.949 . S
C87 C86 1.390 . S
C87 C92 1.399 . S
C88 C84 1.404 . S
C88 H89 0.950 . S
C88 C90 1.375 . S
H89 C88 0.950 . S
C90 C88 1.375 . S
C90 C92 1.382 . S
C90 H94 0.950 . S
H91 C86 0.949 . S
C92 C87 1.399 . S
C92 C90 1.382 . S
C92 H93 0.952 . S
H93 C92 0.952 . S
H94 C90 0.950 . S
H95 C96 0.949 . S
C96 H95 0.949 . S
C96 C97 1.395 . S
C96 C98 1.391 . S
C97 C96 1.395 . S
C97 C100 1.390 . S
C98 C96 1.391 . S
C98 C102 1.387 . S
C98 C103 1.491 . S
H99 C100 0.950 . S
C100 C97 1.390 . S
C100 H99 0.950 . S
C100 C101 1.378 . S
C101 C100 1.378 . S
C101 C102 1.409 . S
C102 C98 1.387 . S
C102 C101 1.409 . S
C102 H104 0.951 . S
C103 C98 1.491 . S
C103 C105 1.382 . S
C103 C107 1.404 . S
H104 C102 0.951 . S
C105 C103 1.382 . S
C105 C106 1.390 . S
C105 H110 0.949 . S
C106 C105 1.390 . S
C106 C111 1.399 . S
C107 C103 1.404 . S
C107 H108 0.950 . S
C107 C109 1.375 . S
H108 C107 0.950 . S
C109 C107 1.375 . S
C109 C111 1.382 . S
C109 H113 0.950 . S
H110 C105 0.949 . S
C111 C106 1.399 . S
C111 C109 1.382 . S
C111 H112 0.952 . S
H112 C111 0.952 . S
H113 C109 0.950 . S
H114 C115 0.949 . S
C115 H114 0.949 . S
C115 C116 1.395 . S
C115 C117 1.391 . S
C116 C115 1.395 . S
C116 C119 1.390 . S
C117 C115 1.391 . S
C117 C121 1.387 . S
C117 C122 1.491 . S
H118 C119 0.950 . S
C119 C116 1.390 . S
C119 H118 0.950 . S
C119 C120 1.378 . S
C120 C119 1.378 . S
C120 C121 1.409 . S
C121 C117 1.387 . S
C121 C120 1.409 . S
C121 H123 0.951 . S
C122 C117 1.491 . S
C122 C124 1.382 . S
C122 C126 1.404 . S
H123 C121 0.951 . S
C124 C122 1.382 . S
C124 C125 1.390 1_655 S
C124 H129 0.949 1_655 S
C125 C124 1.390 1_455 S
C125 C130 1.399 1_455 S
C126 C122 1.404 . S
C126 H127 0.950 . S
C126 C128 1.375 . S
H127 C126 0.950 . S
C128 C126 1.375 . S
C128 C130 1.382 . S
C128 H132 0.950 . S
H129 C124 0.949 1_455 S
C130 C125 1.399 1_655 S
C130 C128 1.382 . S
C130 H131 0.952 . S
H131 C130 0.952 . S
H132 C128 0.950 . S
H133 C134 0.949 . S
C134 H133 0.949 . S
C134 C135 1.395 . S
C134 C136 1.391 . S
C135 C134 1.395 . S
C135 C138 1.390 . S
C136 C134 1.391 . S
C136 C140 1.387 . S
C136 C141 1.491 . S
H137 C138 0.950 . S
C138 C135 1.390 . S
C138 H137 0.950 . S
C138 C139 1.378 . S
C139 C138 1.378 . S
C139 C140 1.409 . S
C140 C136 1.387 . S
C140 C139 1.409 . S
C140 H142 0.951 . S
C141 C136 1.491 . S
C141 C143 1.382 . S
C141 C145 1.404 . S
H142 C140 0.951 . S
C143 C141 1.382 . S
C143 C144 1.390 . S
C143 H148 0.949 . S
C144 C143 1.390 . S
C144 C149 1.399 . S
C145 C141 1.404 . S
C145 H146 0.950 . S
C145 C147 1.375 . S
H146 C145 0.950 . S
C147 C145 1.375 . S
C147 C149 1.382 . S
C147 H151 0.950 . S
H148 C143 0.949 . S
C149 C144 1.399 . S
C149 C147 1.382 . S
C149 H150 0.952 . S
H150 C149 0.952 . S
H151 C147 0.950 . S
H152 C153 0.949 . S
C153 H152 0.949 . S
C153 C154 1.395 . S
C153 C155 1.391 . S
C154 C153 1.395 . S
C154 C157 1.390 . S
C155 C153 1.391 . S
C155 C159 1.387 . S
C155 C160 1.491 . S
H156 C157 0.950 . S
C157 C154 1.390 . S
C157 H156 0.950 . S
C157 C158 1.378 . S
C158 C157 1.378 . S
C158 C159 1.409 . S
C159 C155 1.387 . S
C159 C158 1.409 . S
C159 H161 0.951 . S
C160 C155 1.491 . S
C160 C162 1.382 . S
C160 C164 1.404 . S
H161 C159 0.951 . S
C162 C160 1.382 . S
C162 C163 1.390 . S
C162 H167 0.949 . S
C163 C162 1.390 . S
C163 C168 1.399 . S
C164 C160 1.404 . S
C164 H165 0.950 . S
C164 C166 1.375 . S
H165 C164 0.950 . S
C166 C164 1.375 . S
C166 C168 1.382 . S
C166 H170 0.950 . S
H167 C162 0.949 . S
C168 C163 1.399 . S
C168 C166 1.382 . S
C168 H169 0.952 . S
H169 C168 0.952 . S
H170 C166 0.950 . S
H171 C172 0.949 . S
C172 H171 0.949 . S
C172 C173 1.395 . S
C172 C174 1.391 . S
C173 C172 1.395 . S
C173 C176 1.416 . S
C174 C172 1.391 . S
C174 C178 1.387 . S
C174 C179 1.491 . S
H175 C176 0.932 1_545 S
C176 C173 1.416 . S
C176 H175 0.932 1_565 S
C176 C177 1.371 . S
C177 C176 1.371 . S
C177 C178 1.410 . S
C178 C174 1.387 . S
C178 C177 1.410 . S
C178 H180 0.951 . S
C179 C174 1.491 . S
C179 C181 1.382 . S
C179 C183 1.404 . S
H180 C178 0.951 . S
C181 C179 1.382 . S
C181 C182 1.390 . S
C181 H186 0.949 . S
C182 C181 1.390 . S
C182 C187 1.399 . S
C183 C179 1.404 . S
C183 H184 0.950 . S
C183 C185 1.375 . S
H184 C183 0.950 . S
C185 C183 1.375 . S
C185 C187 1.382 . S
C185 H189 0.950 . S
H186 C181 0.949 . S
C187 C182 1.399 . S
C187 C185 1.382 . S
C187 H188 0.952 . S
H188 C187 0.952 . S
H189 C185 0.950 . S
H190 C191 0.949 . S
C191 H190 0.949 . S
C191 C192 1.395 . S
C191 C193 1.391 . S
C192 C191 1.395 . S
C192 C195 1.390 . S
C193 C191 1.391 . S
C193 C197 1.387 . S
C193 C198 1.491 . S
H194 C195 0.950 . S
C195 C192 1.390 . S
C195 H194 0.950 . S
C195 C196 1.378 . S
C196 C195 1.378 . S
C196 C197 1.409 . S
C197 C193 1.387 . S
C197 C196 1.409 . S
C197 H199 0.951 . S
C198 C193 1.491 . S
C198 C200 1.382 . S
C198 C202 1.404 . S
H199 C197 0.951 . S
C200 C198 1.382 . S
C200 C201 1.390 . S
C200 H205 0.949 . S
C201 C200 1.390 . S
C201 C206 1.399 . S
C202 C198 1.404 . S
C202 H203 0.950 . S
C202 C204 1.375 . S
H203 C202 0.950 . S
C204 C202 1.375 . S
C204 C206 1.382 . S
C204 H208 0.950 . S
H205 C200 0.949 . S
C206 C201 1.399 . S
C206 C204 1.382 . S
C206 H207 0.952 . S
H207 C206 0.952 . S
H208 C204 0.950 . S
H209 C210 0.949 . S
C210 H209 0.949 . S
C210 C211 1.395 . S
C210 C212 1.391 . S
C211 C210 1.395 . S
C211 C214 1.390 . S
C212 C210 1.391 . S
C212 C216 1.387 . S
C212 C217 1.491 . S
H213 C214 0.950 . S
C214 C211 1.390 . S
C214 H213 0.950 . S
C214 C215 1.378 . S
C215 C214 1.378 . S
C215 C216 1.409 . S
C216 C212 1.387 . S
C216 C215 1.409 . S
C216 H218 0.951 . S
C217 C212 1.491 . S
C217 C219 1.382 . S
C217 C221 1.404 . S
H218 C216 0.951 . S
C219 C217 1.382 . S
C219 C220 1.390 . S
C219 H224 0.949 . S
C220 C219 1.390 . S
C220 C225 1.399 . S
C221 C217 1.404 . S
C221 H222 0.950 . S
C221 C223 1.375 . S
H222 C221 0.950 . S
C223 C221 1.375 . S
C223 C225 1.382 . S
C223 H227 0.950 . S
H224 C219 0.949 . S
C225 C220 1.399 . S
C225 C223 1.382 . S
C225 H226 0.952 . S
H226 C225 0.952 . S
H227 C223 0.950 . S
H228 C229 0.949 . S
C229 H228 0.949 . S
C229 C230 1.395 . S
C229 C231 1.391 . S
C230 C229 1.395 . S
C230 C233 1.390 . S
C231 C229 1.391 . S
C231 C235 1.387 . S
C231 C236 1.491 . S
H232 C233 0.950 . S
C233 C230 1.390 . S
C233 H232 0.950 . S
C233 C234 1.378 . S
C234 C233 1.378 . S
C234 C235 1.409 . S
C235 C231 1.387 . S
C235 C234 1.409 . S
C235 H237 0.951 . S
C236 C231 1.491 . S
C236 C238 1.382 . S
C236 C240 1.404 . S
H237 C235 0.951 . S
C238 C236 1.382 . S
C238 C239 1.390 . S
C238 H243 0.949 . S
C239 C238 1.390 . S
C239 C244 1.399 . S
C240 C236 1.404 . S
C240 H241 0.950 . S
C240 C242 1.375 . S
H241 C240 0.950 . S
C242 C240 1.375 . S
C242 C244 1.382 . S
C242 H246 0.950 . S
H243 C238 0.949 . S
C244 C239 1.399 . S
C244 C242 1.382 . S
C244 H245 0.952 . S
H245 C244 0.952 . S
H246 C242 0.950 . S
H247 C248 0.949 1_554 S
C248 H247 0.949 1_556 S
C248 C249 1.395 . S
C248 C250 1.391 . S
C249 C248 1.395 . S
C249 C252 1.390 . S
C250 C248 1.391 . S
C250 C254 1.387 . S
C250 C255 1.491 . S
H251 C252 0.950 . S
C252 C249 1.390 . S
C252 H251 0.950 . S
C252 C253 1.378 . S
C253 C252 1.378 . S
C253 C254 1.409 . S
C254 C250 1.387 . S
C254 C253 1.409 . S
C254 H256 0.951 . S
C255 C250 1.491 . S
C255 C257 1.382 1_556 S
C255 C259 1.404 . S
H256 C254 0.951 . S
C257 C255 1.382 1_554 S
C257 C258 1.390 . S
C257 H262 0.949 . S
C258 C257 1.390 . S
C258 C263 1.399 . S
C259 C255 1.404 . S
C259 H260 0.950 . S
C259 C261 1.375 . S
H260 C259 0.950 . S
C261 C259 1.375 . S
C261 C263 1.382 1_556 S
C261 H265 0.950 . S
H262 C257 0.949 . S
C263 C258 1.399 . S
C263 C261 1.382 1_554 S
C263 H264 0.952 . S
H264 C263 0.952 . S
H265 C261 0.950 . S
H266 C267 0.949 . S
C267 H266 0.949 . S
C267 C268 1.395 . S
C267 C269 1.391 . S
C268 C267 1.395 . S
C268 C271 1.390 . S
C269 C267 1.391 . S
C269 C273 1.387 . S
C269 C274 1.491 . S
H270 C271 0.950 . S
C271 C268 1.390 . S
C271 H270 0.950 . S
C271 C272 1.378 . S
C272 C271 1.378 . S
C272 C273 1.409 . S
C273 C269 1.387 . S
C273 C272 1.409 . S
C273 H275 0.951 . S
C274 C269 1.491 . S
C274 C276 1.382 . S
C274 C278 1.404 . S
H275 C273 0.951 . S
C276 C274 1.382 . S
C276 C277 1.390 . S
C276 H281 0.949 . S
C277 C276 1.390 . S
C277 C282 1.399 . S
C278 C274 1.404 . S
C278 H279 0.950 . S
C278 C280 1.375 . S
H279 C278 0.950 . S
C280 C278 1.375 . S
C280 C282 1.382 . S
C280 H284 0.950 . S
H281 C276 0.949 . S
C282 C277 1.399 . S
C282 C280 1.382 . S
C282 H283 0.952 . S
H283 C282 0.952 . S
H284 C280 0.950 . S
H285 C286 0.949 . S
C286 H285 0.949 . S
C286 C287 1.395 . S
C286 C288 1.391 . S
C287 C286 1.395 . S
C287 C290 1.390 . S
C288 C286 1.391 . S
C288 C292 1.387 . S
C288 C293 1.491 . S
H289 C290 0.950 1_554 S
C290 C287 1.390 . S
C290 H289 0.950 1_556 S
C290 C291 1.378 . S
C291 C290 1.378 . S
C291 C292 1.409 . S
C292 C288 1.387 . S
C292 C291 1.409 . S
C292 H294 0.916 1_545 S
C293 C288 1.491 . S
C293 C295 1.382 . S
C293 C297 1.404 . S
H294 C292 0.916 1_565 S
C295 C293 1.382 . S
C295 C296 1.390 . S
C295 H300 0.949 . S
C296 C295 1.390 . S
C296 C301 1.399 . S
C297 C293 1.404 . S
C297 H298 0.950 . S
C297 C299 1.375 . S
H298 C297 0.950 . S
C299 C297 1.375 . S
C299 C301 1.382 . S
C299 H303 0.950 . S
H300 C295 0.949 . S
C301 C296 1.399 . S
C301 C299 1.382 . S
C301 H302 0.952 . S
H302 C301 0.952 . S
H303 C299 0.950 . S
Mg304 O305 2.028 . S
Mg304 O311 2.015 . S
Mg304 O313 2.114 . S
Mg304 O314 2.251 . S
Mg304 O317 2.010 . S
O305 Mg304 2.028 . S
O305 C308 1.250 . S
O306 Mg307 2.028 . S
O306 C308 1.248 . S
Mg307 O306 2.028 . S
Mg307 O312 2.032 1_554 S
Mg307 O314 2.079 . S
C308 O305 1.250 . S
C308 O306 1.248 . S
C309 O310 1.264 . S
C309 O317 1.249 . S
O310 C309 1.264 . S
O311 Mg304 2.015 . S
O311 C315 1.231 1_554 S
O312 Mg307 2.032 1_556 S
O312 C315 1.259 . S
O313 Mg304 2.114 . S
O313 C316 1.252 . S
O314 Mg304 2.251 . S
O314 Mg307 2.079 . S
O314 C316 1.273 . S
C315 O311 1.231 1_556 S
C315 O312 1.259 . S
C316 O313 1.252 . S
C316 O314 1.273 . S
O317 Mg304 2.010 . S
O317 C309 1.249 . S
Mg318 O319 2.028 . S
Mg318 O325 1.986 . S
Mg318 O327 2.114 . S
Mg318 O328 2.251 . S
Mg318 O331 2.010 . S
O319 Mg318 2.028 . S
O319 C322 1.250 . S
O320 Mg321 2.028 . S
O320 C322 1.248 . S
Mg321 O320 2.028 . S
Mg321 O326 2.032 . S
Mg321 O328 2.079 . S
C322 O319 1.250 . S
C322 O320 1.248 . S
C323 O324 1.264 . S
C323 O331 1.249 . S
O324 C323 1.264 . S
O325 Mg318 1.986 . S
O325 C329 1.246 . S
O326 Mg321 2.032 . S
O326 C329 1.259 . S
O327 Mg318 2.114 . S
O327 C330 1.252 . S
O328 Mg318 2.251 . S
O328 Mg321 2.079 . S
O328 C330 1.273 . S
C329 O325 1.246 . S
C329 O326 1.259 . S
C330 O327 1.252 . S
C330 O328 1.273 . S
O331 Mg318 2.010 . S
O331 C323 1.249 . S
Mg332 O333 2.028 1_554 S
Mg332 O339 1.986 1_554 S
Mg332 O341 2.114 . S
Mg332 O342 2.251 . S
Mg332 O345 2.010 . S
O333 Mg332 2.028 1_556 S
O333 C336 1.250 . S
O334 Mg335 2.028 . S
O334 C336 1.248 . S
Mg335 O334 2.028 . S
Mg335 O340 2.032 . S
Mg335 O342 2.079 1_556 S
C336 O333 1.250 . S
C336 O334 1.248 . S
C337 O338 1.264 . S
C337 O345 1.249 . S
O338 C337 1.264 . S
O339 Mg332 1.986 1_556 S
O339 C343 1.246 . S
O340 Mg335 2.032 . S
O340 C343 1.259 . S
O341 Mg332 2.114 . S
O341 C344 1.252 . S
O342 Mg332 2.251 . S
O342 Mg335 2.079 1_554 S
O342 C344 1.273 . S
C343 O339 1.246 . S
C343 O340 1.259 . S
C344 O341 1.252 . S
C344 O342 1.273 . S
O345 Mg332 2.010 . S
O345 C337 1.249 . S
Mg346 O347 2.028 . S
Mg346 O353 1.986 . S
Mg346 O355 2.114 . S
Mg346 O356 2.251 . S
Mg346 O359 2.010 . S
O347 Mg346 2.028 . S
O347 C350 1.250 1_545 S
O348 Mg349 2.028 . S
O348 C350 1.248 . S
Mg349 O348 2.028 . S
Mg349 O354 2.032 1_565 S
Mg349 O356 2.079 1_565 S
C350 O347 1.250 1_565 S
C350 O348 1.248 . S
C351 O352 1.264 . S
C351 O359 1.249 . S
O352 C351 1.264 . S
O353 Mg346 1.986 . S
O353 C357 1.246 . S
O354 Mg349 2.032 1_545 S
O354 C357 1.259 . S
O355 Mg346 2.114 . S
O355 C358 1.252 . S
O356 Mg346 2.251 . S
O356 Mg349 2.079 1_545 S
O356 C358 1.273 . S
C357 O353 1.246 . S
C357 O354 1.259 . S
C358 O355 1.252 . S
C358 O356 1.273 . S
O359 Mg346 2.010 . S
O359 C351 1.249 . S
Mg360 O361 2.028 . S
Mg360 O367 1.986 . S
Mg360 O369 2.114 . S
Mg360 O370 2.251 . S
Mg360 O373 2.010 . S
O361 Mg360 2.028 . S
O361 C364 1.250 . S
O362 Mg363 2.028 . S
O362 C364 1.248 . S
Mg363 O362 2.028 . S
Mg363 O368 2.032 . S
Mg363 O370 2.079 . S
C364 O361 1.250 . S
C364 O362 1.248 . S
C365 O366 1.264 . S
C365 O373 1.249 . S
O366 C365 1.264 . S
O367 Mg360 1.986 . S
O367 C371 1.246 . S
O368 Mg363 2.032 . S
O368 C371 1.259 . S
O369 Mg360 2.114 . S
O369 C372 1.252 . S
O370 Mg360 2.251 . S
O370 Mg363 2.079 . S
O370 C372 1.273 . S
C371 O367 1.246 . S
C371 O368 1.259 . S
C372 O369 1.252 . S
C372 O370 1.273 . S
O373 Mg360 2.010 . S
O373 C365 1.249 . S
Mg374 O375 2.028 . S
Mg374 O381 1.986 . S
Mg374 O383 2.114 . S
Mg374 O384 2.251 . S
Mg374 O387 2.010 . S
O375 Mg374 2.028 . S
O375 C378 1.250 . S
O376 Mg377 2.028 . S
O376 C378 1.248 . S
Mg377 O376 2.028 . S
Mg377 O382 2.032 . S
Mg377 O384 2.079 . S
C378 O375 1.250 . S
C378 O376 1.248 . S
C379 O380 1.264 . S
C379 O387 1.249 . S
O380 C379 1.264 . S
O381 Mg374 1.986 . S
O381 C385 1.246 . S
O382 Mg377 2.032 . S
O382 C385 1.259 . S
O383 Mg374 2.114 . S
O383 C386 1.252 . S
O384 Mg374 2.251 . S
O384 Mg377 2.079 . S
O384 C386 1.273 . S
C385 O381 1.246 . S
C385 O382 1.259 . S
C386 O383 1.252 . S
C386 O384 1.273 . S
O387 Mg374 2.010 . S
O387 C379 1.249 . S
Mg388 O389 2.028 . S
Mg388 O395 1.986 . S
Mg388 O397 2.114 . S
Mg388 O398 2.251 . S
Mg388 O401 2.010 . S
O389 Mg388 2.028 . S
O389 C392 1.250 . S
O390 Mg391 2.028 . S
O390 C392 1.248 . S
Mg391 O390 2.028 . S
Mg391 O396 2.032 . S
Mg391 O398 2.079 . S
C392 O389 1.250 . S
C392 O390 1.248 . S
C393 O394 1.264 . S
C393 O401 1.249 . S
O394 C393 1.264 . S
O395 Mg388 1.986 . S
O395 C399 1.246 . S
O396 Mg391 2.032 . S
O396 C399 1.259 . S
O397 Mg388 2.114 . S
O397 C400 1.252 . S
O398 Mg388 2.251 . S
O398 Mg391 2.079 . S
O398 C400 1.273 . S
C399 O395 1.246 . S
C399 O396 1.259 . S
C400 O397 1.252 . S
C400 O398 1.273 . S
O401 Mg388 2.010 . S
O401 C393 1.249 . S
Mg402 O403 2.028 . S
Mg402 O409 1.986 1_545 S
Mg402 O411 2.114 . S
Mg402 O412 2.251 . S
Mg402 O415 2.010 . S
O403 Mg402 2.028 . S
O403 C406 1.250 . S
O404 Mg405 2.028 . S
O404 C406 1.248 . S
Mg405 O404 2.028 . S
Mg405 O410 2.032 1_545 S
Mg405 O412 2.079 . S
C406 O403 1.250 . S
C406 O404 1.248 . S
C407 O408 1.264 . S
C407 O415 1.249 . S
O408 C407 1.264 . S
O409 Mg402 1.986 1_565 S
O409 C413 1.246 . S
O410 Mg405 2.032 1_565 S
O410 C413 1.259 . S
O411 Mg402 2.114 . S
O411 C414 1.252 . S
O412 Mg402 2.251 . S
O412 Mg405 2.079 . S
O412 C414 1.273 . S
C413 O409 1.246 . S
C413 O410 1.259 . S
C414 O411 1.252 . S
C414 O412 1.273 . S
O415 Mg402 2.010 . S
O415 C407 1.249 . S
Mg416 O417 2.028 . S
Mg416 O423 1.986 . S
Mg416 O425 2.114 . S
Mg416 O426 2.251 . S
Mg416 O429 2.010 . S
O417 Mg416 2.028 . S
O417 C420 1.250 1_455 S
O418 Mg419 2.028 . S
O418 C420 1.248 . S
Mg419 O418 2.028 . S
Mg419 O424 2.032 . S
Mg419 O426 2.079 1_655 S
C420 O417 1.250 1_655 S
C420 O418 1.248 . S
C421 O422 1.264 . S
C421 O429 1.249 . S
O422 C421 1.264 . S
O423 Mg416 1.986 . S
O423 C427 1.246 . S
O424 Mg419 2.032 . S
O424 C427 1.259 1_655 S
O425 Mg416 2.114 . S
O425 C428 1.252 . S
O426 Mg416 2.251 . S
O426 Mg419 2.079 1_455 S
O426 C428 1.273 . S
C427 O423 1.246 . S
C427 O424 1.259 1_455 S
C428 O425 1.252 . S
C428 O426 1.273 . S
O429 Mg416 2.010 . S
O429 C421 1.249 . S
Mg430 O431 2.028 . S
Mg430 O437 1.986 . S
Mg430 O439 2.114 . S
Mg430 O440 2.251 . S
Mg430 O443 2.010 . S
O431 Mg430 2.028 . S
O431 C434 1.250 . S
O432 Mg433 2.028 . S
O432 C434 1.248 . S
Mg433 O432 2.028 . S
Mg433 O438 2.032 . S
Mg433 O440 2.079 . S
C434 O431 1.250 . S
C434 O432 1.248 . S
C435 O436 1.264 . S
C435 O443 1.249 . S
O436 C435 1.264 . S
O437 Mg430 1.986 . S
O437 C441 1.246 . S
O438 Mg433 2.032 . S
O438 C441 1.259 . S
O439 Mg430 2.114 . S
O439 C442 1.252 . S
O440 Mg430 2.251 . S
O440 Mg433 2.079 . S
O440 C442 1.273 . S
C441 O437 1.246 . S
C441 O438 1.259 . S
C442 O439 1.252 . S
C442 O440 1.273 . S
O443 Mg430 2.010 . S
O443 C435 1.249 . S
Mg444 O445 2.028 1_655 S
Mg444 O451 1.986 1_655 S
Mg444 O453 2.114 . S
Mg444 O454 2.251 1_655 S
Mg444 O457 2.010 . S
O445 Mg444 2.028 1_455 S
O445 C448 1.250 . S
O446 Mg447 2.028 . S
O446 C448 1.248 . S
Mg447 O446 2.028 . S
Mg447 O452 2.032 . S
Mg447 O454 2.079 . S
C448 O445 1.250 . S
C448 O446 1.248 . S
C449 O450 1.264 . S
C449 O457 1.249 . S
O450 C449 1.264 . S
O451 Mg444 1.986 1_455 S
O451 C455 1.246 . S
O452 Mg447 2.032 . S
O452 C455 1.259 . S
O453 Mg444 2.114 . S
O453 C456 1.252 . S
O454 Mg444 2.251 1_455 S
O454 Mg447 2.079 . S
O454 C456 1.273 1_455 S
C455 O451 1.246 . S
C455 O452 1.259 . S
C456 O453 1.252 . S
C456 O454 1.273 1_655 S
O457 Mg444 2.010 . S
O457 C449 1.249 . S
Mg458 O459 2.028 . S
Mg458 O465 1.986 . S
Mg458 O467 2.114 . S
Mg458 O468 2.251 . S
Mg458 O471 2.010 . S
O459 Mg458 2.028 . S
O459 C462 1.250 . S
O460 Mg461 2.028 . S
O460 C462 1.248 . S
Mg461 O460 2.028 . S
Mg461 O466 2.032 . S
Mg461 O468 2.079 . S
C462 O459 1.250 . S
C462 O460 1.248 . S
C463 O464 1.264 . S
C463 O471 1.249 . S
O464 C463 1.264 . S
O465 Mg458 1.986 . S
O465 C469 1.246 . S
O466 Mg461 2.032 . S
O466 C469 1.259 . S
O467 Mg458 2.114 . S
O467 C470 1.252 . S
O468 Mg458 2.251 . S
O468 Mg461 2.079 . S
O468 C470 1.273 . S
C469 O465 1.246 . S
C469 O466 1.259 . S
C470 O467 1.252 . S
C470 O468 1.273 . S
O471 Mg458 2.010 . S
O471 C463 1.249 . S
H472 C484 0.930 . S
H473 C486 0.930 . S
H474 C487 0.930 . S
H475 C491 0.959 . S
H476 C491 0.959 . S
H477 C491 0.961 . S
H478 C492 0.960 . S
H479 C492 0.961 . S
H480 C492 0.959 . S
H481 C495 0.929 . S
H482 C496 0.931 . S
H483 C498 0.930 . S
C484 H472 0.930 . S
C484 C485 1.399 . S
C484 C489 1.399 . S
C485 C484 1.399 . S
C485 C486 1.376 . S
C486 H473 0.930 . S
C486 C485 1.376 . S
C486 C487 1.388 . S
C487 H474 0.930 . S
C487 C486 1.388 . S
C487 C488 1.390 . S
C488 C487 1.390 . S
C488 C489 1.394 . S
C488 C494 1.465 . S
C489 C484 1.399 . S
C489 C488 1.394 . S
C489 C490 1.516 . S
C490 C489 1.516 . S
C490 C491 1.502 . S
C490 C492 1.561 . S
C490 C493 1.526 . S
C491 H475 0.959 . S
C491 H476 0.959 . S
C491 H477 0.961 . S
C491 C490 1.502 . S
C492 H478 0.960 . S
C492 H479 0.961 . S
C492 H480 0.959 . S
C492 C490 1.561 . S
C493 C490 1.526 . S
C493 C494 1.396 . S
C493 C498 1.390 . S
C494 C488 1.465 . S
C494 C493 1.396 . S
C494 C495 1.399 . S
C495 H481 0.929 . S
C495 C494 1.399 . S
C495 C496 1.385 . S
C496 H482 0.931 . S
C496 C495 1.385 . S
C496 C497 1.389 . S
C497 C496 1.389 . S
C497 C498 1.387 . S
C498 H483 0.930 . S
C498 C493 1.390 . S
C498 C497 1.387 . S
H499 C511 0.930 . S
H500 C513 0.930 . S
H501 C514 0.930 . S
H502 C518 0.959 . S
H503 C518 0.959 . S
H504 C518 0.961 . S
H505 C519 0.960 . S
H506 C519 0.961 . S
H507 C519 0.959 . S
H508 C522 0.929 . S
H509 C523 0.931 . S
H510 C525 0.930 . S
C511 H499 0.930 . S
C511 C512 1.399 . S
C511 C516 1.399 . S
C512 C511 1.399 . S
C512 C513 1.376 . S
C513 H500 0.930 . S
C513 C512 1.376 . S
C513 C514 1.388 . S
C514 H501 0.930 . S
C514 C513 1.388 . S
C514 C515 1.390 . S
C515 C514 1.390 . S
C515 C516 1.394 . S
C515 C521 1.465 . S
C516 C511 1.399 . S
C516 C515 1.394 . S
C516 C517 1.516 . S
C517 C516 1.516 . S
C517 C518 1.502 . S
C517 C519 1.561 . S
C517 C520 1.526 . S
C518 H502 0.959 . S
C518 H503 0.959 . S
C518 H504 0.961 . S
C518 C517 1.502 . S
C519 H505 0.960 . S
C519 H506 0.961 . S
C519 H507 0.959 . S
C519 C517 1.561 . S
C520 C517 1.526 . S
C520 C521 1.396 . S
C520 C525 1.390 . S
C521 C515 1.465 . S
C521 C520 1.396 . S
C521 C522 1.399 . S
C522 H508 0.929 . S
C522 C521 1.399 . S
C522 C523 1.385 . S
C523 H509 0.931 . S
C523 C522 1.385 . S
C523 C524 1.389 . S
C524 C523 1.389 . S
C524 C525 1.387 . S
C525 H510 0.930 . S
C525 C520 1.390 . S
C525 C524 1.387 . S
H526 C538 0.930 . S
H527 C540 0.930 . S
H528 C541 0.930 . S
H529 C545 0.959 . S
H530 C545 0.959 . S
H531 C545 0.961 . S
H532 C546 0.960 . S
H533 C546 0.961 . S
H534 C546 0.959 . S
H535 C549 0.929 . S
H536 C550 0.931 . S
H537 C552 0.930 . S
C538 H526 0.930 . S
C538 C539 1.399 . S
C538 C543 1.399 . S
C539 C538 1.399 . S
C539 C540 1.376 . S
C540 H527 0.930 . S
C540 C539 1.376 . S
C540 C541 1.388 . S
C541 H528 0.930 . S
C541 C540 1.388 . S
C541 C542 1.390 . S
C542 C541 1.390 . S
C542 C543 1.394 . S
C542 C548 1.465 . S
C543 C538 1.399 . S
C543 C542 1.394 . S
C543 C544 1.516 . S
C544 C543 1.516 . S
C544 C545 1.502 . S
C544 C546 1.561 . S
C544 C547 1.526 . S
C545 H529 0.959 . S
C545 H530 0.959 . S
C545 H531 0.961 . S
C545 C544 1.502 . S
C546 H532 0.960 . S
C546 H533 0.961 . S
C546 H534 0.959 . S
C546 C544 1.561 . S
C547 C544 1.526 . S
C547 C548 1.396 . S
C547 C552 1.390 . S
C548 C542 1.465 . S
C548 C547 1.396 . S
C548 C549 1.399 . S
C549 H535 0.929 . S
C549 C548 1.399 . S
C549 C550 1.385 . S
C550 H536 0.931 . S
C550 C549 1.385 . S
C550 C551 1.389 . S
C551 C550 1.389 . S
C551 C552 1.387 . S
C552 H537 0.930 . S
C552 C547 1.390 . S
C552 C551 1.387 . S
H553 C565 0.930 . S
H554 C567 0.930 . S
H555 C568 0.930 . S
H556 C572 0.959 . S
H557 C572 0.959 . S
H558 C572 0.961 . S
H559 C573 0.960 . S
H560 C573 0.961 . S
H561 C573 0.959 . S
H562 C576 0.929 1_655 S
H563 C577 0.931 . S
H564 C579 0.930 . S
C565 H553 0.930 . S
C565 C566 1.399 1_545 S
C565 C570 1.399 . S
C566 C565 1.399 1_565 S
C566 C567 1.376 . S
C567 H554 0.930 . S
C567 C566 1.376 . S
C567 C568 1.388 . S
C568 H555 0.930 . S
C568 C567 1.388 . S
C568 C569 1.390 . S
C569 C568 1.390 . S
C569 C570 1.394 1_565 S
C569 C575 1.465 . S
C570 C565 1.399 . S
C570 C569 1.394 1_545 S
C570 C571 1.516 . S
C571 C570 1.516 . S
C571 C572 1.502 . S
C571 C573 1.561 . S
C571 C574 1.526 . S
C572 H556 0.959 . S
C572 H557 0.959 . S
C572 H558 0.961 . S
C572 C571 1.502 . S
C573 H559 0.960 . S
C573 H560 0.961 . S
C573 H561 0.959 . S
C573 C571 1.561 . S
C574 C571 1.526 . S
C574 C575 1.396 1_545 S
C574 C579 1.390 . S
C575 C569 1.465 . S
C575 C574 1.396 1_565 S
C575 C576 1.399 . S
C576 H562 0.929 1_455 S
C576 C575 1.399 . S
C576 C577 1.385 1_455 S
C577 H563 0.931 . S
C577 C576 1.385 1_655 S
C577 C578 1.384 1_665 S
C578 C577 1.384 1_445 S
C578 C579 1.409 . S
C579 H564 0.930 . S
C579 C574 1.390 . S
C579 C578 1.409 . S
H580 C592 0.930 . S
H581 C594 0.930 . S
H582 C595 0.930 . S
H583 C599 0.959 . S
H584 C599 0.959 . S
H585 C599 0.961 . S
H586 C600 0.960 . S
H587 C600 0.961 . S
H588 C600 0.959 . S
H589 C603 0.929 . S
H590 C604 0.931 . S
H591 C606 0.930 . S
C592 H580 0.930 . S
C592 C593 1.399 . S
C592 C597 1.399 . S
C593 C592 1.399 . S
C593 C594 1.376 . S
C594 H581 0.930 . S
C594 C593 1.376 . S
C594 C595 1.388 . S
C595 H582 0.930 . S
C595 C594 1.388 . S
C595 C596 1.390 . S
C596 C595 1.390 . S
C596 C597 1.394 . S
C596 C602 1.465 . S
C597 C592 1.399 . S
C597 C596 1.394 . S
C597 C598 1.516 . S
C598 C597 1.516 . S
C598 C599 1.502 . S
C598 C600 1.561 . S
C598 C601 1.526 . S
C599 H583 0.959 . S
C599 H584 0.959 . S
C599 H585 0.961 . S
C599 C598 1.502 . S
C600 H586 0.960 . S
C600 H587 0.961 . S
C600 H588 0.959 . S
C600 C598 1.561 . S
C601 C598 1.526 . S
C601 C602 1.396 . S
C601 C606 1.390 . S
C602 C596 1.465 . S
C602 C601 1.396 . S
C602 C603 1.399 . S
C603 H589 0.929 . S
C603 C602 1.399 . S
C603 C604 1.385 . S
C604 H590 0.931 . S
C604 C603 1.385 . S
C604 C605 1.389 . S
C605 C604 1.389 . S
C605 C606 1.387 . S
C606 H591 0.930 . S
C606 C601 1.390 . S
C606 C605 1.387 . S
H607 C619 0.930 . S
H608 C621 0.930 . S
H609 C622 0.930 . S
H610 C626 0.959 . S
H611 C626 0.959 . S
H612 C626 0.961 . S
H613 C627 0.960 . S
H614 C627 0.961 . S
H615 C627 0.959 . S
H616 C630 0.929 . S
H617 C631 0.931 . S
H618 C633 0.930 . S
C619 H607 0.930 . S
C619 C620 1.399 . S
C619 C624 1.399 . S
C620 C619 1.399 . S
C620 C621 1.376 . S
C621 H608 0.930 . S
C621 C620 1.376 . S
C621 C622 1.388 . S
C622 H609 0.930 . S
C622 C621 1.388 . S
C622 C623 1.390 . S
C623 C622 1.390 . S
C623 C624 1.394 . S
C623 C629 1.465 . S
C624 C619 1.399 . S
C624 C623 1.394 . S
C624 C625 1.516 . S
C625 C624 1.516 . S
C625 C626 1.502 . S
C625 C627 1.561 . S
C625 C628 1.526 . S
C626 H610 0.959 . S
C626 H611 0.959 . S
C626 H612 0.961 . S
C626 C625 1.502 . S
C627 H613 0.960 . S
C627 H614 0.961 . S
C627 H615 0.959 . S
C627 C625 1.561 . S
C628 C625 1.526 . S
C628 C629 1.396 . S
C628 C633 1.390 . S
C629 C623 1.465 . S
C629 C628 1.396 . S
C629 C630 1.399 . S
C630 H616 0.929 . S
C630 C629 1.399 . S
C630 C631 1.385 . S
C631 H617 0.931 . S
C631 C630 1.385 . S
C631 C632 1.389 . S
C632 C631 1.389 . S
C632 C633 1.387 . S
C633 H618 0.930 . S
C633 C628 1.390 . S
C633 C632 1.387 . S
H634 C646 0.930 . S
H635 C648 0.930 . S
H636 C649 0.930 . S
H637 C653 0.959 . S
H638 C653 0.959 . S
H639 C653 0.961 . S
H640 C654 0.960 . S
H641 C654 0.961 . S
H642 C654 0.959 . S
H643 C657 0.929 . S
H644 C658 0.931 . S
H645 C660 0.930 . S
C646 H634 0.930 . S
C646 C647 1.399 . S
C646 C651 1.399 . S
C647 C646 1.399 . S
C647 C648 1.376 . S
C648 H635 0.930 . S
C648 C647 1.376 . S
C648 C649 1.388 . S
C649 H636 0.930 . S
C649 C648 1.388 . S
C649 C650 1.390 . S
C650 C649 1.390 . S
C650 C651 1.394 . S
C650 C656 1.465 . S
C651 C646 1.399 . S
C651 C650 1.394 . S
C651 C652 1.516 . S
C652 C651 1.516 . S
C652 C653 1.502 . S
C652 C654 1.561 . S
C652 C655 1.526 . S
C653 H637 0.959 . S
C653 H638 0.959 . S
C653 H639 0.961 . S
C653 C652 1.502 . S
C654 H640 0.960 . S
C654 H641 0.961 . S
C654 H642 0.959 . S
C654 C652 1.561 . S
C655 C652 1.526 . S
C655 C656 1.396 . S
C655 C660 1.390 . S
C656 C650 1.465 . S
C656 C655 1.396 . S
C656 C657 1.399 . S
C657 H643 0.929 . S
C657 C656 1.399 . S
C657 C658 1.385 . S
C658 H644 0.931 . S
C658 C657 1.385 . S
C658 C659 1.389 . S
C659 C658 1.389 . S
C659 C660 1.387 . S
C660 H645 0.930 . S
C660 C655 1.390 . S
C660 C659 1.387 . S
H661 C673 0.930 . S
H662 C675 0.930 . S
H663 C676 0.930 . S
H664 C680 0.959 . S
H665 C680 0.959 . S
H666 C680 0.961 . S
H667 C681 0.960 . S
H668 C681 0.961 . S
H669 C681 0.959 . S
H670 C684 0.929 . S
H671 C685 0.931 . S
H672 C687 0.930 . S
C673 H661 0.930 . S
C673 C674 1.399 1_545 S
C673 C678 1.399 . S
C674 C673 1.399 1_565 S
C674 C675 1.376 . S
C675 H662 0.930 . S
C675 C674 1.376 . S
C675 C676 1.388 . S
C676 H663 0.930 . S
C676 C675 1.388 . S
C676 C677 1.390 . S
C677 C676 1.390 . S
C677 C678 1.394 1_565 S
C677 C683 1.465 . S
C678 C673 1.399 . S
C678 C677 1.394 1_545 S
C678 C679 1.516 . S
C679 C678 1.516 . S
C679 C680 1.502 . S
C679 C681 1.561 . S
C679 C682 1.526 . S
C680 H664 0.959 . S
C680 H665 0.959 . S
C680 H666 0.961 . S
C680 C679 1.502 . S
C681 H667 0.960 . S
C681 H668 0.961 . S
C681 H669 0.959 . S
C681 C679 1.561 . S
C682 C679 1.526 . S
C682 C683 1.396 1_545 S
C682 C687 1.390 . S
C683 C677 1.465 . S
C683 C682 1.396 1_565 S
C683 C684 1.399 . S
C684 H670 0.929 . S
C684 C683 1.399 . S
C684 C685 1.385 . S
C685 H671 0.931 . S
C685 C684 1.385 . S
C685 C686 1.362 1_565 S
C686 C685 1.362 1_545 S
C686 C687 1.410 . S
C687 H672 0.930 . S
C687 C682 1.390 . S
C687 C686 1.410 . S
H688 C700 0.930 . S
H689 C702 0.930 . S
H690 C703 0.930 . S
H691 C707 0.959 . S
H692 C707 0.959 . S
H693 C707 0.961 . S
H694 C708 0.960 . S
H695 C708 0.961 . S
H696 C708 0.959 . S
H697 C711 0.929 . S
H698 C712 0.931 . S
H699 C714 0.930 . S
C700 H688 0.930 . S
C700 C701 1.399 . S
C700 C705 1.399 . S
C701 C700 1.399 . S
C701 C702 1.376 . S
C702 H689 0.930 . S
C702 C701 1.376 . S
C702 C703 1.388 . S
C703 H690 0.930 . S
C703 C702 1.388 . S
C703 C704 1.390 . S
C704 C703 1.390 . S
C704 C705 1.394 . S
C704 C710 1.465 . S
C705 C700 1.399 . S
C705 C704 1.394 . S
C705 C706 1.516 . S
C706 C705 1.516 . S
C706 C707 1.502 . S
C706 C708 1.561 . S
C706 C709 1.526 . S
C707 H691 0.959 . S
C707 H692 0.959 . S
C707 H693 0.961 . S
C707 C706 1.502 . S
C708 H694 0.960 . S
C708 H695 0.961 . S
C708 H696 0.959 . S
C708 C706 1.561 . S
C709 C706 1.526 . S
C709 C710 1.396 . S
C709 C714 1.390 . S
C710 C704 1.465 . S
C710 C709 1.396 . S
C710 C711 1.399 . S
C711 H697 0.929 . S
C711 C710 1.399 . S
C711 C712 1.385 . S
C712 H698 0.931 . S
C712 C711 1.385 . S
C712 C713 1.389 . S
C713 C712 1.389 . S
C713 C714 1.387 . S
C714 H699 0.930 . S
C714 C709 1.390 . S
C714 C713 1.387 . S
H715 C727 0.930 . S
H716 C729 0.930 . S
H717 C730 0.930 . S
H718 C734 0.959 . S
H719 C734 0.959 . S
H720 C734 0.961 . S
H721 C735 0.960 . S
H722 C735 0.961 . S
H723 C735 0.959 . S
H724 C738 0.929 . S
H725 C739 0.931 . S
H726 C741 0.930 . S
C727 H715 0.930 . S
C727 C728 1.399 . S
C727 C732 1.399 . S
C728 C727 1.399 . S
C728 C729 1.376 . S
C729 H716 0.930 . S
C729 C728 1.376 . S
C729 C730 1.388 . S
C730 H717 0.930 . S
C730 C729 1.388 . S
C730 C731 1.390 . S
C731 C730 1.390 . S
C731 C732 1.394 . S
C731 C737 1.465 . S
C732 C727 1.399 . S
C732 C731 1.394 . S
C732 C733 1.516 . S
C733 C732 1.516 . S
C733 C734 1.502 . S
C733 C735 1.561 . S
C733 C736 1.526 . S
C734 H718 0.959 . S
C734 H719 0.959 . S
C734 H720 0.961 . S
C734 C733 1.502 . S
C735 H721 0.960 . S
C735 H722 0.961 . S
C735 H723 0.959 . S
C735 C733 1.561 . S
C736 C733 1.526 . S
C736 C737 1.396 . S
C736 C741 1.390 . S
C737 C731 1.465 . S
C737 C736 1.396 . S
C737 C738 1.399 . S
C738 H724 0.929 . S
C738 C737 1.399 . S
C738 C739 1.385 . S
C739 H725 0.931 . S
C739 C738 1.385 . S
C739 C740 1.389 . S
C740 C739 1.389 . S
C740 C741 1.387 . S
C741 H726 0.930 . S
C741 C736 1.390 . S
C741 C740 1.387 . S
H742 C754 0.930 . S
H743 C756 0.930 . S
H744 C757 0.930 . S
H745 C761 0.959 . S
H746 C761 0.959 . S
H747 C761 0.961 . S
H748 C762 0.960 . S
H749 C762 0.961 . S
H750 C762 0.959 . S
H751 C765 0.929 . S
H752 C766 0.931 . S
H753 C768 0.930 . S
C754 H742 0.930 . S
C754 C755 1.399 . S
C754 C759 1.399 . S
C755 C754 1.399 . S
C755 C756 1.376 . S
C756 H743 0.930 . S
C756 C755 1.376 . S
C756 C757 1.388 . S
C757 H744 0.930 . S
C757 C756 1.388 . S
C757 C758 1.390 . S
C758 C757 1.390 . S
C758 C759 1.394 . S
C758 C764 1.465 . S
C759 C754 1.399 . S
C759 C758 1.394 . S
C759 C760 1.516 . S
C760 C759 1.516 . S
C760 C761 1.502 . S
C760 C762 1.561 . S
C760 C763 1.526 . S
C761 H745 0.959 . S
C761 H746 0.959 . S
C761 H747 0.961 . S
C761 C760 1.502 . S
C762 H748 0.960 . S
C762 H749 0.961 . S
C762 H750 0.959 . S
C762 C760 1.561 . S
C763 C760 1.526 . S
C763 C764 1.396 . S
C763 C768 1.390 . S
C764 C758 1.465 . S
C764 C763 1.396 . S
C764 C765 1.399 . S
C765 H751 0.929 . S
C765 C764 1.399 . S
C765 C766 1.385 . S
C766 H752 0.931 . S
C766 C765 1.385 . S
C766 C767 1.389 . S
C767 C766 1.389 . S
C767 C768 1.387 . S
C768 H753 0.930 . S
C768 C763 1.390 . S
C768 C767 1.387 . S
H769 C781 0.930 . S
H770 C783 0.930 . S
H771 C784 0.930 . S
H772 C788 0.959 . S
H773 C788 0.959 . S
H774 C788 0.961 . S
H775 C789 0.960 . S
H776 C789 0.961 . S
H777 C789 0.959 . S
H778 C792 0.929 . S
H779 C793 0.931 . S
H780 C795 0.930 . S
C781 H769 0.930 . S
C781 C782 1.399 . S
C781 C786 1.399 . S
C782 C781 1.399 . S
C782 C783 1.376 . S
C783 H770 0.930 . S
C783 C782 1.376 . S
C783 C784 1.388 . S
C784 H771 0.930 . S
C784 C783 1.388 . S
C784 C785 1.390 . S
C785 C784 1.390 . S
C785 C786 1.394 . S
C785 C791 1.465 . S
C786 C781 1.399 . S
C786 C785 1.394 . S
C786 C787 1.516 . S
C787 C786 1.516 . S
C787 C788 1.502 . S
C787 C789 1.561 . S
C787 C790 1.526 . S
C788 H772 0.959 . S
C788 H773 0.959 . S
C788 H774 0.961 . S
C788 C787 1.502 . S
C789 H775 0.960 . S
C789 H776 0.961 . S
C789 H777 0.959 . S
C789 C787 1.561 . S
C790 C787 1.526 . S
C790 C791 1.396 . S
C790 C795 1.390 . S
C791 C785 1.465 . S
C791 C790 1.396 . S
C791 C792 1.399 . S
C792 H778 0.929 . S
C792 C791 1.399 . S
C792 C793 1.385 . S
C793 H779 0.931 . S
C793 C792 1.385 . S
C793 C794 1.389 . S
C794 C793 1.389 . S
C794 C795 1.387 . S
C795 H780 0.930 . S
C795 C790 1.390 . S
C795 C794 1.387 . S
H796 C808 0.930 . S
H797 C810 0.930 . S
H798 C811 0.930 . S
H799 C815 0.959 . S
H800 C815 0.959 . S
H801 C815 0.961 . S
H802 C816 0.960 . S
H803 C816 0.961 . S
H804 C816 0.959 . S
H805 C819 0.929 . S
H806 C820 0.931 . S
H807 C822 0.930 . S
C808 H796 0.930 . S
C808 C809 1.399 . S
C808 C813 1.399 . S
C809 C808 1.399 . S
C809 C810 1.376 . S
C810 H797 0.930 . S
C810 C809 1.376 . S
C810 C811 1.388 . S
C811 H798 0.930 . S
C811 C810 1.388 . S
C811 C812 1.390 . S
C812 C811 1.390 . S
C812 C813 1.394 . S
C812 C818 1.465 . S
C813 C808 1.399 . S
C813 C812 1.394 . S
C813 C814 1.516 . S
C814 C813 1.516 . S
C814 C815 1.502 . S
C814 C816 1.561 . S
C814 C817 1.526 . S
C815 H799 0.959 . S
C815 H800 0.959 . S
C815 H801 0.961 . S
C815 C814 1.502 . S
C816 H802 0.960 . S
C816 H803 0.961 . S
C816 H804 0.959 . S
C816 C814 1.561 . S
C817 C814 1.526 . S
C817 C818 1.396 . S
C817 C822 1.390 . S
C818 C812 1.465 . S
C818 C817 1.396 . S
C818 C819 1.399 . S
C819 H805 0.929 . S
C819 C818 1.399 . S
C819 C820 1.385 . S
C820 H806 0.931 . S
C820 C819 1.385 . S
C820 C821 1.389 . S
C821 C820 1.389 . S
C821 C822 1.387 . S
C822 H807 0.930 . S
C822 C817 1.390 . S
C822 C821 1.387 . S
H823 C835 0.930 . S
H824 C837 0.930 . S
H825 C838 0.930 . S
H826 C842 0.959 . S
H827 C842 0.959 . S
H828 C842 0.961 . S
H829 C843 0.960 . S
H830 C843 0.961 . S
H831 C843 0.959 . S
H832 C846 0.929 . S
H833 C847 0.931 . S
H834 C849 0.930 . S
C835 H823 0.930 . S
C835 C836 1.399 . S
C835 C840 1.399 . S
C836 C835 1.399 . S
C836 C837 1.376 . S
C837 H824 0.930 . S
C837 C836 1.376 . S
C837 C838 1.388 . S
C838 H825 0.930 . S
C838 C837 1.388 . S
C838 C839 1.390 . S
C839 C838 1.390 . S
C839 C840 1.394 . S
C839 C845 1.465 . S
C840 C835 1.399 . S
C840 C839 1.394 . S
C840 C841 1.516 . S
C841 C840 1.516 . S
C841 C842 1.502 . S
C841 C843 1.561 . S
C841 C844 1.526 . S
C842 H826 0.959 . S
C842 H827 0.959 . S
C842 H828 0.961 . S
C842 C841 1.502 . S
C843 H829 0.960 . S
C843 H830 0.961 . S
C843 H831 0.959 . S
C843 C841 1.561 . S
C844 C841 1.526 . S
C844 C845 1.396 . S
C844 C849 1.390 . S
C845 C839 1.465 . S
C845 C844 1.396 . S
C845 C846 1.399 . S
C846 H832 0.929 . S
C846 C845 1.399 . S
C846 C847 1.385 . S
C847 H833 0.931 . S
C847 C846 1.385 . S
C847 C848 1.389 . S
C848 C847 1.389 . S
C848 C849 1.387 . S
C849 H834 0.930 . S
C849 C844 1.390 . S
C849 C848 1.387 . S
H850 C862 0.930 . S
H851 C864 0.930 . S
H852 C865 0.930 . S
H853 C869 0.959 . S
H854 C869 0.959 . S
H855 C869 0.961 . S
H856 C870 0.960 . S
H857 C870 0.961 . S
H858 C870 0.959 . S
H859 C873 0.929 . S
H860 C874 0.931 . S
H861 C876 0.930 . S
C862 H850 0.930 . S
C862 C863 1.399 . S
C862 C867 1.399 . S
C863 C862 1.399 . S
C863 C864 1.376 . S
C864 H851 0.930 . S
C864 C863 1.376 . S
C864 C865 1.388 . S
C865 H852 0.930 . S
C865 C864 1.388 . S
C865 C866 1.390 . S
C866 C865 1.390 . S
C866 C867 1.394 . S
C866 C872 1.465 . S
C867 C862 1.399 . S
C867 C866 1.394 . S
C867 C868 1.516 . S
C868 C867 1.516 . S
C868 C869 1.502 . S
C868 C870 1.561 . S
C868 C871 1.526 . S
C869 H853 0.959 . S
C869 H854 0.959 . S
C869 H855 0.961 . S
C869 C868 1.502 . S
C870 H856 0.960 . S
C870 H857 0.961 . S
C870 H858 0.959 . S
C870 C868 1.561 . S
C871 C868 1.526 . S
C871 C872 1.396 . S
C871 C876 1.390 . S
C872 C866 1.465 . S
C872 C871 1.396 . S
C872 C873 1.399 . S
C873 H859 0.929 . S
C873 C872 1.399 . S
C873 C874 1.385 . S
C874 H860 0.931 . S
C874 C873 1.385 . S
C874 C875 1.389 . S
C875 C874 1.389 . S
C875 C876 1.387 . S
C876 H861 0.930 . S
C876 C871 1.390 . S
C876 C875 1.387 . S
H877 C889 0.930 1_455 S
H878 C891 0.930 . S
H879 C892 0.930 . S
H880 C896 0.959 . S
H881 C896 0.959 . S
H882 C896 0.961 . S
H883 C897 0.960 . S
H884 C897 0.961 . S
H885 C897 0.959 1_655 S
H886 C900 0.929 . S
H887 C901 0.931 . S
H888 C903 0.915 1_455 S
C889 H877 0.930 1_655 S
C889 C890 1.399 . S
C889 C894 1.399 . S
C890 C889 1.399 . S
C890 C891 1.376 . S
C891 H878 0.930 . S
C891 C890 1.376 . S
C891 C892 1.388 . S
C892 H879 0.930 . S
C892 C891 1.388 . S
C892 C893 1.390 . S
C893 C892 1.390 . S
C893 C894 1.394 . S
C893 C899 1.465 . S
C894 C889 1.399 . S
C894 C893 1.394 . S
C894 C895 1.516 1_655 S
C895 C894 1.516 1_455 S
C895 C896 1.502 . S
C895 C897 1.561 . S
C895 C898 1.526 1_455 S
C896 H880 0.959 . S
C896 H881 0.959 . S
C896 H882 0.961 . S
C896 C895 1.502 . S
C897 H883 0.960 . S
C897 H884 0.961 . S
C897 H885 0.959 1_455 S
C897 C895 1.561 . S
C898 C895 1.526 1_655 S
C898 C899 1.396 . S
C898 C903 1.392 . S
C899 C893 1.465 . S
C899 C898 1.396 . S
C899 C900 1.399 . S
C900 H886 0.929 . S
C900 C899 1.399 . S
C900 C901 1.385 . S
C901 H887 0.931 . S
C901 C900 1.385 . S
C901 C902 1.389 . S
C902 C901 1.389 . S
C902 C903 1.400 . S
C903 H888 0.915 1_655 S
C903 C898 1.392 . S
C903 C902 1.400 . S
H904 C916 0.930 . S
H905 C918 0.930 . S
H906 C919 0.930 . S
H907 C923 0.959 . S
H908 C923 0.959 . S
H909 C923 0.961 . S
H910 C924 0.960 . S
H911 C924 0.961 . S
H912 C924 0.959 . S
H913 C927 0.929 . S
H914 C928 0.931 . S
H915 C930 0.930 . S
C916 H904 0.930 . S
C916 C917 1.399 . S
C916 C921 1.399 . S
C917 C916 1.399 . S
C917 C918 1.376 . S
C918 H905 0.930 . S
C918 C917 1.376 . S
C918 C919 1.388 . S
C919 H906 0.930 . S
C919 C918 1.388 . S
C919 C920 1.390 . S
C920 C919 1.390 . S
C920 C921 1.394 . S
C920 C926 1.465 . S
C921 C916 1.399 . S
C921 C920 1.394 . S
C921 C922 1.516 . S
C922 C921 1.516 . S
C922 C923 1.502 . S
C922 C924 1.561 . S
C922 C925 1.526 . S
C923 H907 0.959 . S
C923 H908 0.959 . S
C923 H909 0.961 . S
C923 C922 1.502 . S
C924 H910 0.960 . S
C924 H911 0.961 . S
C924 H912 0.959 . S
C924 C922 1.561 . S
C925 C922 1.526 . S
C925 C926 1.396 . S
C925 C930 1.390 . S
C926 C920 1.465 . S
C926 C925 1.396 . S
C926 C927 1.399 . S
C927 H913 0.929 . S
C927 C926 1.399 . S
C927 C928 1.385 . S
C928 H914 0.931 . S
C928 C927 1.385 . S
C928 C929 1.389 . S
C929 C928 1.389 . S
C929 C930 1.387 . S
C930 H915 0.930 . S
C930 C925 1.390 . S
C930 C929 1.387 . S
H931 C943 0.930 . S
H932 C945 0.930 . S
H933 C946 0.930 . S
H934 C950 0.959 . S
H935 C950 0.959 . S
H936 C950 0.961 . S
H937 C951 0.960 . S
H938 C951 0.961 . S
H939 C951 0.959 . S
H940 C954 0.929 . S
H941 C955 0.931 . S
H942 C957 0.930 . S
C943 H931 0.930 . S
C943 C944 1.399 . S
C943 C948 1.399 . S
C944 C943 1.399 . S
C944 C945 1.376 . S
C945 H932 0.930 . S
C945 C944 1.376 . S
C945 C946 1.388 . S
C946 H933 0.930 . S
C946 C945 1.388 . S
C946 C947 1.390 . S
C947 C946 1.390 . S
C947 C948 1.394 . S
C947 C953 1.465 . S
C948 C943 1.399 . S
C948 C947 1.394 . S
C948 C949 1.516 . S
C949 C948 1.516 . S
C949 C950 1.502 . S
C949 C951 1.561 . S
C949 C952 1.526 . S
C950 H934 0.959 . S
C950 H935 0.959 . S
C950 H936 0.961 . S
C950 C949 1.502 . S
C951 H937 0.960 . S
C951 H938 0.961 . S
C951 H939 0.959 . S
C951 C949 1.561 . S
C952 C949 1.526 . S
C952 C953 1.396 . S
C952 C957 1.390 . S
C953 C947 1.465 . S
C953 C952 1.396 . S
C953 C954 1.399 . S
C954 H940 0.929 . S
C954 C953 1.399 . S
C954 C955 1.385 . S
C955 H941 0.931 . S
C955 C954 1.385 . S
C955 C956 1.389 . S
C956 C955 1.389 . S
C956 C957 1.387 . S
C957 H942 0.930 . S
C957 C952 1.390 . S
C957 C956 1.387 . S
H958 C970 0.930 . S
H959 C972 0.930 . S
H960 C973 0.924 1_554 S
H961 C977 0.960 1_545 S
H962 C977 0.959 . S
H963 C977 0.961 1_546 S
H964 C978 0.960 . S
H965 C978 0.961 . S
H966 C978 0.959 . S
H967 C981 0.929 . S
H968 C982 0.931 . S
H969 C984 0.930 . S
C970 H958 0.930 . S
C970 C971 1.399 . S
C970 C975 1.399 1_545 S
C971 C970 1.399 . S
C971 C972 1.376 1_545 S
C972 H959 0.930 . S
C972 C971 1.376 1_565 S
C972 C973 1.396 . S
C973 H960 0.924 1_556 S
C973 C972 1.396 . S
C973 C974 1.390 . S
C974 C973 1.390 . S
C974 C975 1.399 . S
C974 C980 1.459 1_556 S
C975 C970 1.399 1_565 S
C975 C974 1.399 . S
C975 C976 1.516 . S
C976 C975 1.516 . S
C976 C977 1.502 1_556 S
C976 C978 1.561 . S
C976 C979 1.526 1_556 S
C977 H961 0.960 1_565 S
C977 H962 0.959 . S
C977 H963 0.961 1_564 S
C977 C976 1.502 1_554 S
C978 H964 0.960 . S
C978 H965 0.961 . S
C978 H966 0.959 . S
C978 C976 1.561 . S
C979 C976 1.526 1_554 S
C979 C980 1.396 . S
C979 C984 1.390 . S
C980 C974 1.459 1_554 S
C980 C979 1.396 . S
C980 C981 1.399 . S
C981 H967 0.929 . S
C981 C980 1.399 . S
C981 C982 1.385 . S
C982 H968 0.931 . S
C982 C981 1.385 . S
C982 C983 1.389 . S
C983 C982 1.389 . S
C983 C984 1.387 . S
C984 H969 0.930 . S
C984 C979 1.390 . S
C984 C983 1.387 . S
H985 C997 0.930 . S
H986 C999 0.930 . S
H987 C1000 0.930 . S
H988 C1004 0.959 . S
H989 C1004 0.959 . S
H990 C1004 0.961 . S
H991 C1005 0.960 . S
H992 C1005 0.961 . S
H993 C1005 0.959 . S
H994 C1008 0.929 . S
H995 C1009 0.931 . S
H996 C1011 0.930 . S
C997 H985 0.930 . S
C997 C998 1.399 . S
C997 C1002 1.399 . S
C998 C997 1.399 . S
C998 C999 1.376 . S
C999 H986 0.930 . S
C999 C998 1.376 . S
C999 C1000 1.388 . S
C1000 H987 0.930 . S
C1000 C999 1.388 . S
C1000 C1001 1.390 . S
C1001 C1000 1.390 . S
C1001 C1002 1.394 . S
C1001 C1007 1.465 . S
C1002 C997 1.399 . S
C1002 C1001 1.394 . S
C1002 C1003 1.516 . S
C1003 C1002 1.516 . S
C1003 C1004 1.502 . S
C1003 C1005 1.561 . S
C1003 C1006 1.526 . S
C1004 H988 0.959 . S
C1004 H989 0.959 . S
C1004 H990 0.961 . S
C1004 C1003 1.502 . S
C1005 H991 0.960 . S
C1005 H992 0.961 . S
C1005 H993 0.959 . S
C1005 C1003 1.561 . S
C1006 C1003 1.526 . S
C1006 C1007 1.396 . S
C1006 C1011 1.390 . S
C1007 C1001 1.465 . S
C1007 C1006 1.396 . S
C1007 C1008 1.399 . S
C1008 H994 0.929 . S
C1008 C1007 1.399 . S
C1008 C1009 1.385 . S
C1009 H995 0.931 . S
C1009 C1008 1.385 . S
C1009 C1010 1.389 . S
C1010 C1009 1.389 . S
C1010 C1011 1.387 . S
C1011 H996 0.930 . S
C1011 C1006 1.390 . S
C1011 C1010 1.387 . S
H1012 C1024 0.930 . S
H1013 C1026 0.930 . S
H1014 C1027 0.930 . S
H1015 C1031 0.959 . S
H1016 C1031 0.959 . S
H1017 C1031 0.961 . S
H1018 C1032 0.960 . S
H1019 C1032 0.961 . S
H1020 C1032 0.959 . S
H1021 C1035 0.929 . S
H1022 C1036 0.931 . S
H1023 C1038 0.930 . S
C1024 H1012 0.930 . S
C1024 C1025 1.399 . S
C1024 C1029 1.399 . S
C1025 C1024 1.399 . S
C1025 C1026 1.376 . S
C1026 H1013 0.930 . S
C1026 C1025 1.376 . S
C1026 C1027 1.388 . S
C1027 H1014 0.930 . S
C1027 C1026 1.388 . S
C1027 C1028 1.390 . S
C1028 C1027 1.390 . S
C1028 C1029 1.394 . S
C1028 C1034 1.465 . S
C1029 C1024 1.399 . S
C1029 C1028 1.394 . S
C1029 C1030 1.516 . S
C1030 C1029 1.516 . S
C1030 C1031 1.502 . S
C1030 C1032 1.561 . S
C1030 C1033 1.526 . S
C1031 H1015 0.959 . S
C1031 H1016 0.959 . S
C1031 H1017 0.961 . S
C1031 C1030 1.502 . S
C1032 H1018 0.960 . S
C1032 H1019 0.961 . S
C1032 H1020 0.959 . S
C1032 C1030 1.561 . S
C1033 C1030 1.526 . S
C1033 C1034 1.396 . S
C1033 C1038 1.390 . S
C1034 C1028 1.465 . S
C1034 C1033 1.396 . S
C1034 C1035 1.399 . S
C1035 H1021 0.929 . S
C1035 C1034 1.399 . S
C1035 C1036 1.385 . S
C1036 H1022 0.931 . S
C1036 C1035 1.385 . S
C1036 C1037 1.389 . S
C1037 C1036 1.389 . S
C1037 C1038 1.387 . S
C1038 H1023 0.930 . S
C1038 C1033 1.390 . S
C1038 C1037 1.387 . S
H1039 C1051 0.930 . S
H1040 C1053 0.930 . S
H1041 C1054 0.930 . S
H1042 C1058 0.959 . S
H1043 C1058 0.959 . S
H1044 C1058 0.961 . S
H1045 C1059 0.960 . S
H1046 C1059 0.961 . S
H1047 C1059 0.959 . S
H1048 C1062 0.929 . S
H1049 C1063 0.931 . S
H1050 C1065 0.930 . S
C1051 H1039 0.930 . S
C1051 C1052 1.399 . S
C1051 C1056 1.399 . S
C1052 C1051 1.399 . S
C1052 C1053 1.376 . S
C1053 H1040 0.930 . S
C1053 C1052 1.376 . S
C1053 C1054 1.388 . S
C1054 H1041 0.930 . S
C1054 C1053 1.388 . S
C1054 C1055 1.390 . S
C1055 C1054 1.390 . S
C1055 C1056 1.394 . S
C1055 C1061 1.465 . S
C1056 C1051 1.399 . S
C1056 C1055 1.394 . S
C1056 C1057 1.516 . S
C1057 C1056 1.516 . S
C1057 C1058 1.502 . S
C1057 C1059 1.561 . S
C1057 C1060 1.526 . S
C1058 H1042 0.959 . S
C1058 H1043 0.959 . S
C1058 H1044 0.961 . S
C1058 C1057 1.502 . S
C1059 H1045 0.960 . S
C1059 H1046 0.961 . S
C1059 H1047 0.959 . S
C1059 C1057 1.561 . S
C1060 C1057 1.526 . S
C1060 C1061 1.396 . S
C1060 C1065 1.390 . S
C1061 C1055 1.465 . S
C1061 C1060 1.396 . S
C1061 C1062 1.399 . S
C1062 H1048 0.929 . S
C1062 C1061 1.399 . S
C1062 C1063 1.385 . S
C1063 H1049 0.931 . S
C1063 C1062 1.385 . S
C1063 C1064 1.389 . S
C1064 C1063 1.389 . S
C1064 C1065 1.387 . S
C1065 H1050 0.930 . S
C1065 C1060 1.390 . S
C1065 C1064 1.387 . S
H1066 C1078 0.930 . S
H1067 C1080 0.930 . S
H1068 C1081 0.930 . S
H1069 C1085 0.959 . S
H1070 C1085 0.959 . S
H1071 C1085 0.961 . S
H1072 C1086 0.960 . S
H1073 C1086 0.961 . S
H1074 C1086 0.959 . S
H1075 C1089 0.929 . S
H1076 C1090 0.931 . S
H1077 C1092 0.930 . S
C1078 H1066 0.930 . S
C1078 C1079 1.399 . S
C1078 C1083 1.399 . S
C1079 C1078 1.399 . S
C1079 C1080 1.376 . S
C1080 H1067 0.930 . S
C1080 C1079 1.376 . S
C1080 C1081 1.388 . S
C1081 H1068 0.930 . S
C1081 C1080 1.388 . S
C1081 C1082 1.390 . S
C1082 C1081 1.390 . S
C1082 C1083 1.394 . S
C1082 C1088 1.465 . S
C1083 C1078 1.399 . S
C1083 C1082 1.394 . S
C1083 C1084 1.516 . S
C1084 C1083 1.516 . S
C1084 C1085 1.502 . S
C1084 C1086 1.561 . S
C1084 C1087 1.526 . S
C1085 H1069 0.959 . S
C1085 H1070 0.959 . S
C1085 H1071 0.961 . S
C1085 C1084 1.502 . S
C1086 H1072 0.960 . S
C1086 H1073 0.961 . S
C1086 H1074 0.959 . S
C1086 C1084 1.561 . S
C1087 C1084 1.526 . S
C1087 C1088 1.396 . S
C1087 C1092 1.390 . S
C1088 C1082 1.465 . S
C1088 C1087 1.396 . S
C1088 C1089 1.399 . S
C1089 H1075 0.929 . S
C1089 C1088 1.399 . S
C1089 C1090 1.385 . S
C1090 H1076 0.931 . S
C1090 C1089 1.385 . S
C1090 C1091 1.389 . S
C1091 C1090 1.389 . S
C1091 C1092 1.387 . S
C1092 H1077 0.930 . S
C1092 C1087 1.390 . S
C1092 C1091 1.387 . S
H1093 C1105 0.930 . S
H1094 C1107 0.930 . S
H1095 C1108 0.930 . S
H1096 C1112 0.959 . S
H1097 C1112 0.959 . S
H1098 C1112 0.961 . S
H1099 C1113 0.960 . S
H1100 C1113 0.961 . S
H1101 C1113 0.959 . S
H1102 C1116 0.929 . S
H1103 C1117 0.931 . S
H1104 C1119 0.930 . S
C1105 H1093 0.930 . S
C1105 C1106 1.399 . S
C1105 C1110 1.399 . S
C1106 C1105 1.399 . S
C1106 C1107 1.376 . S
C1107 H1094 0.930 . S
C1107 C1106 1.376 . S
C1107 C1108 1.388 . S
C1108 H1095 0.930 . S
C1108 C1107 1.388 . S
C1108 C1109 1.390 . S
C1109 C1108 1.390 . S
C1109 C1110 1.394 . S
C1109 C1115 1.465 . S
C1110 C1105 1.399 . S
C1110 C1109 1.394 . S
C1110 C1111 1.516 . S
C1111 C1110 1.516 . S
C1111 C1112 1.502 . S
C1111 C1113 1.561 . S
C1111 C1114 1.526 . S
C1112 H1096 0.959 . S
C1112 H1097 0.959 . S
C1112 H1098 0.961 . S
C1112 C1111 1.502 . S
C1113 H1099 0.960 . S
C1113 H1100 0.961 . S
C1113 H1101 0.959 . S
C1113 C1111 1.561 . S
C1114 C1111 1.526 . S
C1114 C1115 1.396 . S
C1114 C1119 1.390 . S
C1115 C1109 1.465 . S
C1115 C1114 1.396 . S
C1115 C1116 1.399 . S
C1116 H1102 0.929 . S
C1116 C1115 1.399 . S
C1116 C1117 1.385 . S
C1117 H1103 0.931 . S
C1117 C1116 1.385 . S
C1117 C1118 1.389 . S
C1118 C1117 1.389 . S
C1118 C1119 1.387 . S
C1119 H1104 0.930 . S
C1119 C1114 1.390 . S
C1119 C1118 1.387 . S
H1120 C1132 0.930 . S
H1121 C1134 0.930 . S
H1122 C1135 0.930 . S
H1123 C1139 0.959 . S
H1124 C1139 0.959 . S
H1125 C1139 0.961 . S
H1126 C1140 0.960 . S
H1127 C1140 0.961 . S
H1128 C1140 0.959 . S
H1129 C1143 0.929 . S
H1130 C1144 0.931 . S
H1131 C1146 0.930 . S
C1132 H1120 0.930 . S
C1132 C1133 1.399 . S
C1132 C1137 1.399 . S
C1133 C1132 1.399 . S
C1133 C1134 1.376 . S
C1134 H1121 0.930 . S
C1134 C1133 1.376 . S
C1134 C1135 1.388 . S
C1135 H1122 0.930 . S
C1135 C1134 1.388 . S
C1135 C1136 1.390 . S
C1136 C1135 1.390 . S
C1136 C1137 1.394 . S
C1136 C1142 1.465 . S
C1137 C1132 1.399 . S
C1137 C1136 1.394 . S
C1137 C1138 1.516 . S
C1138 C1137 1.516 . S
C1138 C1139 1.502 . S
C1138 C1140 1.561 . S
C1138 C1141 1.526 . S
C1139 H1123 0.959 . S
C1139 H1124 0.959 . S
C1139 H1125 0.961 . S
C1139 C1138 1.502 . S
C1140 H1126 0.960 . S
C1140 H1127 0.961 . S
C1140 H1128 0.959 . S
C1140 C1138 1.561 . S
C1141 C1138 1.526 . S
C1141 C1142 1.396 . S
C1141 C1146 1.390 . S
C1142 C1136 1.465 . S
C1142 C1141 1.396 . S
C1142 C1143 1.399 . S
C1143 H1129 0.929 . S
C1143 C1142 1.399 . S
C1143 C1144 1.385 . S
C1144 H1130 0.931 . S
C1144 C1143 1.385 . S
C1144 C1145 1.389 . S
C1145 C1144 1.389 . S
C1145 C1146 1.387 . S
C1146 H1131 0.930 . S
C1146 C1141 1.390 . S
C1146 C1145 1.387 . S
H1147 C1159 0.930 . S
H1148 C1161 0.925 1_565 S
H1149 C1162 0.930 1_565 S
H1150 C1166 0.959 . S
H1151 C1166 0.959 . S
H1152 C1166 0.961 . S
H1153 C1167 0.960 . S
H1154 C1167 0.961 . S
H1155 C1167 0.959 . S
H1156 C1170 0.929 1_565 S
H1157 C1171 0.931 1_565 S
H1158 C1173 0.930 . S
C1159 H1147 0.930 . S
C1159 C1160 1.399 . S
C1159 C1164 1.399 . S
C1160 C1159 1.399 . S
C1160 C1161 1.376 . S
C1161 H1148 0.925 1_545 S
C1161 C1160 1.376 . S
C1161 C1162 1.388 . S
C1162 H1149 0.930 1_545 S
C1162 C1161 1.388 . S
C1162 C1163 1.390 . S
C1163 C1162 1.390 . S
C1163 C1164 1.394 . S
C1163 C1169 1.465 . S
C1164 C1159 1.399 . S
C1164 C1163 1.394 . S
C1164 C1165 1.516 . S
C1165 C1164 1.516 . S
C1165 C1166 1.502 . S
C1165 C1167 1.561 . S
C1165 C1168 1.526 . S
C1166 H1150 0.959 . S
C1166 H1151 0.959 . S
C1166 H1152 0.961 . S
C1166 C1165 1.502 . S
C1167 H1153 0.960 . S
C1167 H1154 0.961 . S
C1167 H1155 0.959 . S
C1167 C1165 1.561 . S
C1168 C1165 1.526 . S
C1168 C1169 1.396 . S
C1168 C1173 1.390 . S
C1169 C1163 1.465 . S
C1169 C1168 1.396 . S
C1169 C1170 1.399 . S
C1170 H1156 0.929 1_545 S
C1170 C1169 1.399 . S
C1170 C1171 1.385 . S
C1171 H1157 0.931 1_545 S
C1171 C1170 1.385 . S
C1171 C1172 1.389 . S
C1172 C1171 1.389 . S
C1172 C1173 1.387 . S
C1173 H1158 0.930 . S
C1173 C1168 1.390 . S
C1173 C1172 1.387 . S
H1174 C1186 0.930 . S
H1175 C1188 0.930 . S
H1176 C1189 0.930 . S
H1177 C1193 0.959 . S
H1178 C1193 0.959 . S
H1179 C1193 0.961 . S
H1180 C1194 0.960 . S
H1181 C1194 0.961 . S
H1182 C1194 0.959 . S
H1183 C1197 0.929 . S
H1184 C1198 0.931 . S
H1185 C1200 0.930 . S
C1186 H1174 0.930 . S
C1186 C1187 1.399 . S
C1186 C1191 1.399 . S
C1187 C1186 1.399 . S
C1187 C1188 1.376 . S
C1188 H1175 0.930 . S
C1188 C1187 1.376 . S
C1188 C1189 1.388 . S
C1189 H1176 0.930 . S
C1189 C1188 1.388 . S
C1189 C1190 1.390 . S
C1190 C1189 1.390 . S
C1190 C1191 1.394 . S
C1190 C1196 1.465 . S
C1191 C1186 1.399 . S
C1191 C1190 1.394 . S
C1191 C1192 1.516 . S
C1192 C1191 1.516 . S
C1192 C1193 1.502 . S
C1192 C1194 1.561 . S
C1192 C1195 1.526 . S
C1193 H1177 0.959 . S
C1193 H1178 0.959 . S
C1193 H1179 0.961 . S
C1193 C1192 1.502 . S
C1194 H1180 0.960 . S
C1194 H1181 0.961 . S
C1194 H1182 0.959 . S
C1194 C1192 1.561 . S
C1195 C1192 1.526 . S
C1195 C1196 1.396 . S
C1195 C1200 1.390 . S
C1196 C1190 1.465 . S
C1196 C1195 1.396 . S
C1196 C1197 1.399 . S
C1197 H1183 0.929 . S
C1197 C1196 1.399 . S
C1197 C1198 1.385 . S
C1198 H1184 0.931 . S
C1198 C1197 1.385 . S
C1198 C1199 1.389 . S
C1199 C1198 1.389 . S
C1199 C1200 1.387 . S
C1200 H1185 0.930 . S
C1200 C1195 1.390 . S
C1200 C1199 1.387 . S
H1201 C1213 0.930 . S
H1202 C1215 0.930 . S
H1203 C1216 0.930 . S
H1204 C1220 0.959 . S
H1205 C1220 0.959 . S
H1206 C1220 0.961 . S
H1207 C1221 0.960 . S
H1208 C1221 0.961 . S
H1209 C1221 0.959 . S
H1210 C1224 0.929 . S
H1211 C1225 0.931 . S
H1212 C1227 0.930 . S
C1213 H1201 0.930 . S
C1213 C1214 1.399 . S
C1213 C1218 1.399 . S
C1214 C1213 1.399 . S
C1214 C1215 1.376 . S
C1215 H1202 0.930 . S
C1215 C1214 1.376 . S
C1215 C1216 1.388 . S
C1216 H1203 0.930 . S
C1216 C1215 1.388 . S
C1216 C1217 1.390 . S
C1217 C1216 1.390 . S
C1217 C1218 1.394 . S
C1217 C1223 1.465 . S
C1218 C1213 1.399 . S
C1218 C1217 1.394 . S
C1218 C1219 1.516 . S
C1219 C1218 1.516 . S
C1219 C1220 1.502 . S
C1219 C1221 1.561 . S
C1219 C1222 1.526 . S
C1220 H1204 0.959 . S
C1220 H1205 0.959 . S
C1220 H1206 0.961 . S
C1220 C1219 1.502 . S
C1221 H1207 0.960 . S
C1221 H1208 0.961 . S
C1221 H1209 0.959 . S
C1221 C1219 1.561 . S
C1222 C1219 1.526 . S
C1222 C1223 1.396 . S
C1222 C1227 1.390 . S
C1223 C1217 1.465 . S
C1223 C1222 1.396 . S
C1223 C1224 1.399 . S
C1224 H1210 0.929 . S
C1224 C1223 1.399 . S
C1224 C1225 1.385 . S
C1225 H1211 0.931 . S
C1225 C1224 1.385 . S
C1225 C1226 1.389 . S
C1226 C1225 1.389 . S
C1226 C1227 1.387 . S
C1227 H1212 0.930 . S
C1227 C1222 1.390 . S
C1227 C1226 1.387 . S
H1228 C1240 0.930 . S
H1229 C1242 0.930 . S
H1230 C1243 0.930 . S
H1231 C1247 0.959 . S
H1232 C1247 0.959 . S
H1233 C1247 0.961 . S
H1234 C1248 0.960 . S
H1235 C1248 0.961 . S
H1236 C1248 0.959 . S
H1237 C1251 0.929 . S
H1238 C1252 0.931 . S
H1239 C1254 0.930 . S
C1240 H1228 0.930 . S
C1240 C1241 1.399 . S
C1240 C1245 1.399 . S
C1241 C1240 1.399 . S
C1241 C1242 1.376 . S
C1242 H1229 0.930 . S
C1242 C1241 1.376 . S
C1242 C1243 1.388 . S
C1243 H1230 0.930 . S
C1243 C1242 1.388 . S
C1243 C1244 1.390 . S
C1244 C1243 1.390 . S
C1244 C1245 1.394 . S
C1244 C1250 1.465 . S
C1245 C1240 1.399 . S
C1245 C1244 1.394 . S
C1245 C1246 1.516 . S
C1246 C1245 1.516 . S
C1246 C1247 1.502 . S
C1246 C1248 1.561 . S
C1246 C1249 1.526 . S
C1247 H1231 0.959 . S
C1247 H1232 0.959 . S
C1247 H1233 0.961 . S
C1247 C1246 1.502 . S
C1248 H1234 0.960 . S
C1248 H1235 0.961 . S
C1248 H1236 0.959 . S
C1248 C1246 1.561 . S
C1249 C1246 1.526 . S
C1249 C1250 1.396 . S
C1249 C1254 1.390 . S
C1250 C1244 1.465 . S
C1250 C1249 1.396 . S
C1250 C1251 1.399 . S
C1251 H1237 0.929 . S
C1251 C1250 1.399 . S
C1251 C1252 1.385 . S
C1252 H1238 0.931 . S
C1252 C1251 1.385 . S
C1252 C1253 1.389 . S
C1253 C1252 1.389 . S
C1253 C1254 1.387 . S
C1254 H1239 0.930 . S
C1254 C1249 1.390 . S
C1254 C1253 1.387 . S
H1255 C1267 0.934 1_565 S
H1256 C1269 0.930 . S
H1257 C1270 0.930 . S
H1258 C1274 0.959 1_545 S
H1259 C1274 0.959 . S
H1260 C1274 0.961 . S
H1261 C1275 0.960 1_455 S
H1262 C1275 0.963 . S
H1263 C1275 0.955 1_455 S
H1264 C1278 0.929 . S
H1265 C1279 0.931 . S
H1266 C1281 0.924 1_565 S
C1267 H1255 0.934 1_545 S
C1267 C1268 1.399 . S
C1267 C1272 1.399 . S
C1268 C1267 1.399 . S
C1268 C1269 1.376 . S
C1269 H1256 0.930 . S
C1269 C1268 1.376 . S
C1269 C1270 1.388 . S
C1270 H1257 0.930 . S
C1270 C1269 1.388 . S
C1270 C1271 1.390 . S
C1271 C1270 1.390 . S
C1271 C1272 1.394 . S
C1271 C1277 1.465 . S
C1272 C1267 1.399 . S
C1272 C1271 1.394 . S
C1272 C1273 1.516 1_445 S
C1273 C1272 1.516 1_665 S
C1273 C1274 1.502 . S
C1273 C1275 1.564 . S
C1273 C1276 1.526 1_565 S
C1274 H1258 0.959 1_565 S
C1274 H1259 0.959 . S
C1274 H1260 0.961 . S
C1274 C1273 1.502 . S
C1275 H1261 0.960 1_655 S
C1275 H1262 0.963 . S
C1275 H1263 0.955 1_655 S
C1275 C1273 1.564 . S
C1276 C1273 1.526 1_545 S
C1276 C1277 1.396 1_655 S
C1276 C1281 1.390 . S
C1277 C1271 1.465 . S
C1277 C1276 1.396 1_455 S
C1277 C1278 1.399 . S
C1278 H1264 0.929 . S
C1278 C1277 1.399 . S
C1278 C1279 1.385 . S
C1279 H1265 0.931 . S
C1279 C1278 1.385 . S
C1279 C1280 1.389 1_455 S
C1280 C1279 1.389 1_655 S
C1280 C1281 1.387 . S
C1281 H1266 0.924 1_545 S
C1281 C1276 1.390 . S
C1281 C1280 1.387 . S
H1282 C1294 0.930 . S
H1283 C1296 0.930 . S
H1284 C1297 0.930 . S
H1285 C1301 0.959 . S
H1286 C1301 0.959 . S
H1287 C1301 0.961 . S
H1288 C1302 0.960 . S
H1289 C1302 0.961 . S
H1290 C1302 0.959 . S
H1291 C1305 0.929 . S
H1292 C1306 0.931 . S
H1293 C1308 0.930 . S
C1294 H1282 0.930 . S
C1294 C1295 1.399 . S
C1294 C1299 1.399 . S
C1295 C1294 1.399 . S
C1295 C1296 1.376 . S
C1296 H1283 0.930 . S
C1296 C1295 1.376 . S
C1296 C1297 1.388 . S
C1297 H1284 0.930 . S
C1297 C1296 1.388 . S
C1297 C1298 1.390 . S
C1298 C1297 1.390 . S
C1298 C1299 1.394 . S
C1298 C1304 1.465 . S
C1299 C1294 1.399 . S
C1299 C1298 1.394 . S
C1299 C1300 1.516 . S
C1300 C1299 1.516 . S
C1300 C1301 1.502 . S
C1300 C1302 1.561 . S
C1300 C1303 1.526 . S
C1301 H1285 0.959 . S
C1301 H1286 0.959 . S
C1301 H1287 0.961 . S
C1301 C1300 1.502 . S
C1302 H1288 0.960 . S
C1302 H1289 0.961 . S
C1302 H1290 0.959 . S
C1302 C1300 1.561 . S
C1303 C1300 1.526 . S
C1303 C1304 1.396 . S
C1303 C1308 1.390 . S
C1304 C1298 1.465 . S
C1304 C1303 1.396 . S
C1304 C1305 1.399 . S
C1305 H1291 0.929 . S
C1305 C1304 1.399 . S
C1305 C1306 1.385 . S
C1306 H1292 0.931 . S
C1306 C1305 1.385 . S
C1306 C1307 1.389 . S
C1307 C1306 1.389 . S
C1307 C1308 1.387 . S
C1308 H1293 0.930 . S
C1308 C1303 1.390 . S
C1308 C1307 1.387 . S
H1309 C1321 0.930 . S
H1310 C1323 0.930 . S
H1311 C1324 0.930 . S
H1312 C1328 0.959 . S
H1313 C1328 0.959 . S
H1314 C1328 0.961 . S
H1315 C1329 0.960 . S
H1316 C1329 0.961 . S
H1317 C1329 0.959 . S
H1318 C1332 0.929 . S
H1319 C1333 0.931 . S
H1320 C1335 0.930 . S
C1321 H1309 0.930 . S
C1321 C1322 1.399 . S
C1321 C1326 1.399 . S
C1322 C1321 1.399 . S
C1322 C1323 1.376 . S
C1323 H1310 0.930 . S
C1323 C1322 1.376 . S
C1323 C1324 1.388 . S
C1324 H1311 0.930 . S
C1324 C1323 1.388 . S
C1324 C1325 1.390 . S
C1325 C1324 1.390 . S
C1325 C1326 1.394 . S
C1325 C1331 1.465 . S
C1326 C1321 1.399 . S
C1326 C1325 1.394 . S
C1326 C1327 1.516 . S
C1327 C1326 1.516 . S
C1327 C1328 1.502 . S
C1327 C1329 1.561 . S
C1327 C1330 1.526 . S
C1328 H1312 0.959 . S
C1328 H1313 0.959 . S
C1328 H1314 0.961 . S
C1328 C1327 1.502 . S
C1329 H1315 0.960 . S
C1329 H1316 0.961 . S
C1329 H1317 0.959 . S
C1329 C1327 1.561 . S
C1330 C1327 1.526 . S
C1330 C1331 1.396 . S
C1330 C1335 1.390 . S
C1331 C1325 1.465 . S
C1331 C1330 1.396 . S
C1331 C1332 1.399 . S
C1332 H1318 0.929 . S
C1332 C1331 1.399 . S
C1332 C1333 1.385 . S
C1333 H1319 0.931 . S
C1333 C1332 1.385 . S
C1333 C1334 1.389 . S
C1334 C1333 1.389 . S
C1334 C1335 1.387 . S
C1335 H1320 0.930 . S
C1335 C1330 1.390 . S
C1335 C1334 1.387 . S
H1336 C1348 0.930 . S
H1337 C1350 0.930 . S
H1338 C1351 0.930 . S
H1339 C1355 0.959 . S
H1340 C1355 0.959 . S
H1341 C1355 0.961 . S
H1342 C1356 0.960 . S
H1343 C1356 0.961 . S
H1344 C1356 0.959 . S
H1345 C1359 0.929 . S
H1346 C1360 0.931 . S
H1347 C1362 0.930 . S
C1348 H1336 0.930 . S
C1348 C1349 1.399 . S
C1348 C1353 1.399 . S
C1349 C1348 1.399 . S
C1349 C1350 1.376 . S
C1350 H1337 0.930 . S
C1350 C1349 1.376 . S
C1350 C1351 1.388 . S
C1351 H1338 0.930 . S
C1351 C1350 1.388 . S
C1351 C1352 1.390 . S
C1352 C1351 1.390 . S
C1352 C1353 1.394 . S
C1352 C1358 1.465 . S
C1353 C1348 1.399 . S
C1353 C1352 1.394 . S
C1353 C1354 1.516 . S
C1354 C1353 1.516 . S
C1354 C1355 1.502 . S
C1354 C1356 1.561 . S
C1354 C1357 1.526 . S
C1355 H1339 0.959 . S
C1355 H1340 0.959 . S
C1355 H1341 0.961 . S
C1355 C1354 1.502 . S
C1356 H1342 0.960 . S
C1356 H1343 0.961 . S
C1356 H1344 0.959 . S
C1356 C1354 1.561 . S
C1357 C1354 1.526 . S
C1357 C1358 1.396 . S
C1357 C1362 1.390 . S
C1358 C1352 1.465 . S
C1358 C1357 1.396 . S
C1358 C1359 1.399 . S
C1359 H1345 0.929 . S
C1359 C1358 1.399 . S
C1359 C1360 1.385 . S
C1360 H1346 0.931 . S
C1360 C1359 1.385 . S
C1360 C1361 1.389 . S
C1361 C1360 1.389 . S
C1361 C1362 1.387 . S
C1362 H1347 0.930 . S
C1362 C1357 1.390 . S
C1362 C1361 1.387 . S
H1363 C1375 0.930 1_655 S
H1364 C1377 0.930 1_554 S
H1365 C1378 0.930 . S
H1366 C1382 0.959 . S
H1367 C1382 0.959 . S
H1368 C1382 0.961 . S
H1369 C1383 0.960 . S
H1370 C1383 0.961 . S
H1371 C1383 0.959 . S
H1372 C1386 0.929 . S
H1373 C1387 0.931 . S
H1374 C1389 0.930 1_655 S
C1375 H1363 0.930 1_455 S
C1375 C1376 1.399 . S
C1375 C1380 1.399 . S
C1376 C1375 1.399 . S
C1376 C1377 1.376 . S
C1377 H1364 0.930 1_556 S
C1377 C1376 1.376 . S
C1377 C1378 1.388 . S
C1378 H1365 0.930 . S
C1378 C1377 1.388 . S
C1378 C1379 1.390 . S
C1379 C1378 1.390 . S
C1379 C1380 1.394 . S
C1379 C1385 1.465 . S
C1380 C1375 1.399 . S
C1380 C1379 1.394 . S
C1380 C1381 1.516 . S
C1381 C1380 1.516 . S
C1381 C1382 1.502 1_455 S
C1381 C1383 1.561 . S
C1381 C1384 1.526 . S
C1382 H1366 0.959 . S
C1382 H1367 0.959 . S
C1382 H1368 0.961 . S
C1382 C1381 1.502 1_655 S
C1383 H1369 0.960 . S
C1383 H1370 0.961 . S
C1383 H1371 0.959 . S
C1383 C1381 1.561 . S
C1384 C1381 1.526 . S
C1384 C1385 1.396 . S
C1384 C1389 1.390 . S
C1385 C1379 1.465 . S
C1385 C1384 1.396 . S
C1385 C1386 1.399 . S
C1386 H1372 0.929 . S
C1386 C1385 1.399 . S
C1386 C1387 1.385 . S
C1387 H1373 0.931 . S
C1387 C1386 1.385 . S
C1387 C1388 1.389 . S
C1388 C1387 1.389 . S
C1388 C1389 1.387 . S
C1389 H1374 0.930 1_455 S
C1389 C1384 1.390 . S
C1389 C1388 1.387 . S
H1390 C1402 0.930 . S
H1391 C1404 0.930 . S
H1392 C1405 0.930 . S
H1393 C1409 0.959 . S
H1394 C1409 0.959 . S
H1395 C1409 0.961 . S
H1396 C1410 0.960 . S
H1397 C1410 0.961 . S
H1398 C1410 0.959 . S
H1399 C1413 0.929 . S
H1400 C1414 0.931 . S
H1401 C1416 0.930 . S
C1402 H1390 0.930 . S
C1402 C1403 1.399 . S
C1402 C1407 1.399 . S
C1403 C1402 1.399 . S
C1403 C1404 1.376 . S
C1404 H1391 0.930 . S
C1404 C1403 1.376 . S
C1404 C1405 1.388 . S
C1405 H1392 0.930 . S
C1405 C1404 1.388 . S
C1405 C1406 1.390 . S
C1406 C1405 1.390 . S
C1406 C1407 1.394 . S
C1406 C1412 1.465 . S
C1407 C1402 1.399 . S
C1407 C1406 1.394 . S
C1407 C1408 1.516 . S
C1408 C1407 1.516 . S
C1408 C1409 1.502 . S
C1408 C1410 1.561 . S
C1408 C1411 1.526 . S
C1409 H1393 0.959 . S
C1409 H1394 0.959 . S
C1409 H1395 0.961 . S
C1409 C1408 1.502 . S
C1410 H1396 0.960 . S
C1410 H1397 0.961 . S
C1410 H1398 0.959 . S
C1410 C1408 1.561 . S
C1411 C1408 1.526 . S
C1411 C1412 1.396 . S
C1411 C1416 1.390 . S
C1412 C1406 1.465 . S
C1412 C1411 1.396 . S
C1412 C1413 1.399 . S
C1413 H1399 0.929 . S
C1413 C1412 1.399 . S
C1413 C1414 1.385 . S
C1414 H1400 0.931 . S
C1414 C1413 1.385 . S
C1414 C1415 1.389 . S
C1415 C1414 1.389 . S
C1415 C1416 1.387 . S
C1416 H1401 0.930 . S
C1416 C1411 1.390 . S
C1416 C1415 1.387 . S
H1417 C1429 0.930 . S
H1418 C1431 0.930 . S
H1419 C1432 0.930 . S
H1420 C1436 0.952 1_655 S
H1421 C1436 0.950 1_655 S
H1422 C1436 0.962 . S
H1423 C1437 0.960 . S
H1424 C1437 0.961 . S
H1425 C1437 0.959 . S
H1426 C1440 0.929 . S
H1427 C1441 0.931 . S
H1428 C1443 0.930 . S
C1429 H1417 0.930 . S
C1429 C1430 1.399 . S
C1429 C1434 1.399 . S
C1430 C1429 1.399 . S
C1430 C1431 1.376 . S
C1431 H1418 0.930 . S
C1431 C1430 1.376 . S
C1431 C1432 1.388 . S
C1432 H1419 0.930 . S
C1432 C1431 1.388 . S
C1432 C1433 1.390 . S
C1433 C1432 1.390 . S
C1433 C1434 1.394 . S
C1433 C1439 1.465 . S
C1434 C1429 1.399 . S
C1434 C1433 1.394 . S
C1434 C1435 1.516 . S
C1435 C1434 1.516 . S
C1435 C1436 1.512 . S
C1435 C1437 1.561 . S
C1435 C1438 1.526 . S
C1436 H1420 0.952 1_455 S
C1436 H1421 0.950 1_455 S
C1436 H1422 0.962 . S
C1436 C1435 1.512 . S
C1437 H1423 0.960 . S
C1437 H1424 0.961 . S
C1437 H1425 0.959 . S
C1437 C1435 1.561 . S
C1438 C1435 1.526 . S
C1438 C1439 1.396 . S
C1438 C1443 1.390 . S
C1439 C1433 1.465 . S
C1439 C1438 1.396 . S
C1439 C1440 1.399 . S
C1440 H1426 0.929 . S
C1440 C1439 1.399 . S
C1440 C1441 1.385 . S
C1441 H1427 0.931 . S
C1441 C1440 1.385 . S
C1441 C1442 1.389 . S
C1442 C1441 1.389 . S
C1442 C1443 1.387 . S
C1443 H1428 0.930 . S
C1443 C1438 1.390 . S
C1443 C1442 1.387 . S
H1444 C1456 0.930 . S
H1445 C1458 0.930 . S
H1446 C1459 0.930 . S
H1447 C1463 0.959 . S
H1448 C1463 0.959 . S
H1449 C1463 0.961 . S
H1450 C1464 0.960 . S
H1451 C1464 0.961 . S
H1452 C1464 0.959 . S
H1453 C1467 0.929 . S
H1454 C1468 0.931 . S
H1455 C1470 0.930 . S
C1456 H1444 0.930 . S
C1456 C1457 1.399 . S
C1456 C1461 1.399 . S
C1457 C1456 1.399 . S
C1457 C1458 1.376 . S
C1458 H1445 0.930 . S
C1458 C1457 1.376 . S
C1458 C1459 1.388 . S
C1459 H1446 0.930 . S
C1459 C1458 1.388 . S
C1459 C1460 1.390 . S
C1460 C1459 1.390 . S
C1460 C1461 1.394 . S
C1460 C1466 1.465 . S
C1461 C1456 1.399 . S
C1461 C1460 1.394 . S
C1461 C1462 1.516 . S
C1462 C1461 1.516 . S
C1462 C1463 1.502 . S
C1462 C1464 1.561 . S
C1462 C1465 1.526 . S
C1463 H1447 0.959 . S
C1463 H1448 0.959 . S
C1463 H1449 0.961 . S
C1463 C1462 1.502 . S
C1464 H1450 0.960 . S
C1464 H1451 0.961 . S
C1464 H1452 0.959 . S
C1464 C1462 1.561 . S
C1465 C1462 1.526 . S
C1465 C1466 1.396 . S
C1465 C1470 1.390 . S
C1466 C1460 1.465 . S
C1466 C1465 1.396 . S
C1466 C1467 1.399 . S
C1467 H1453 0.929 . S
C1467 C1466 1.399 . S
C1467 C1468 1.385 . S
C1468 H1454 0.931 . S
C1468 C1467 1.385 . S
C1468 C1469 1.389 . S
C1469 C1468 1.389 . S
C1469 C1470 1.387 . S
C1470 H1455 0.930 . S
C1470 C1465 1.390 . S
C1470 C1469 1.387 . S
H1471 C1483 0.930 . S
H1472 C1485 0.930 . S
H1473 C1486 0.930 . S
H1474 C1490 0.959 . S
H1475 C1490 0.959 . S
H1476 C1490 0.961 . S
H1477 C1491 0.960 . S
H1478 C1491 0.961 . S
H1479 C1491 0.959 . S
H1480 C1494 0.929 . S
H1481 C1495 0.931 . S
H1482 C1497 0.930 . S
C1483 H1471 0.930 . S
C1483 C1484 1.399 . S
C1483 C1488 1.399 . S
C1484 C1483 1.399 . S
C1484 C1485 1.376 . S
C1485 H1472 0.930 . S
C1485 C1484 1.376 . S
C1485 C1486 1.388 . S
C1486 H1473 0.930 . S
C1486 C1485 1.388 . S
C1486 C1487 1.390 . S
C1487 C1486 1.390 . S
C1487 C1488 1.394 . S
C1487 C1493 1.465 . S
C1488 C1483 1.399 . S
C1488 C1487 1.394 . S
C1488 C1489 1.516 . S
C1489 C1488 1.516 . S
C1489 C1490 1.502 . S
C1489 C1491 1.561 . S
C1489 C1492 1.526 . S
C1490 H1474 0.959 . S
C1490 H1475 0.959 . S
C1490 H1476 0.961 . S
C1490 C1489 1.502 . S
C1491 H1477 0.960 . S
C1491 H1478 0.961 . S
C1491 H1479 0.959 . S
C1491 C1489 1.561 . S
C1492 C1489 1.526 . S
C1492 C1493 1.396 . S
C1492 C1497 1.390 . S
C1493 C1487 1.465 . S
C1493 C1492 1.396 . S
C1493 C1494 1.399 . S
C1494 H1480 0.929 . S
C1494 C1493 1.399 . S
C1494 C1495 1.385 . S
C1495 H1481 0.931 . S
C1495 C1494 1.385 . S
C1495 C1496 1.389 . S
C1496 C1495 1.389 . S
C1496 C1497 1.387 . S
C1497 H1482 0.930 . S
C1497 C1492 1.390 . S
C1497 C1496 1.387 . S
H1498 C1510 0.930 . S
H1499 C1512 0.930 . S
H1500 C1513 0.930 . S
H1501 C1517 0.959 . S
H1502 C1517 0.959 . S
H1503 C1517 0.961 . S
H1504 C1518 0.960 . S
H1505 C1518 0.961 . S
H1506 C1518 0.959 . S
H1507 C1521 0.929 . S
H1508 C1522 0.931 . S
H1509 C1524 0.930 . S
C1510 H1498 0.930 . S
C1510 C1511 1.399 . S
C1510 C1515 1.399 . S
C1511 C1510 1.399 . S
C1511 C1512 1.376 . S
C1512 H1499 0.930 . S
C1512 C1511 1.376 . S
C1512 C1513 1.388 . S
C1513 H1500 0.930 . S
C1513 C1512 1.388 . S
C1513 C1514 1.390 . S
C1514 C1513 1.390 . S
C1514 C1515 1.394 . S
C1514 C1520 1.465 . S
C1515 C1510 1.399 . S
C1515 C1514 1.394 . S
C1515 C1516 1.516 . S
C1516 C1515 1.516 . S
C1516 C1517 1.502 . S
C1516 C1518 1.561 . S
C1516 C1519 1.526 . S
C1517 H1501 0.959 . S
C1517 H1502 0.959 . S
C1517 H1503 0.961 . S
C1517 C1516 1.502 . S
C1518 H1504 0.960 . S
C1518 H1505 0.961 . S
C1518 H1506 0.959 . S
C1518 C1516 1.561 . S
C1519 C1516 1.526 . S
C1519 C1520 1.396 . S
C1519 C1524 1.390 . S
C1520 C1514 1.465 . S
C1520 C1519 1.396 . S
C1520 C1521 1.399 . S
C1521 H1507 0.929 . S
C1521 C1520 1.399 . S
C1521 C1522 1.385 . S
C1522 H1508 0.931 . S
C1522 C1521 1.385 . S
C1522 C1523 1.389 . S
C1523 C1522 1.389 . S
C1523 C1524 1.387 . S
C1524 H1509 0.930 . S
C1524 C1519 1.390 . S
C1524 C1523 1.387 . S
H1525 C1537 0.930 1_556 S
H1526 C1539 0.930 . S
H1527 C1540 0.930 . S
H1528 C1544 0.959 . S
H1529 C1544 0.959 . S
H1530 C1544 0.961 . S
H1531 C1545 0.979 . S
H1532 C1545 0.961 . S
H1533 C1545 0.959 . S
H1534 C1548 0.929 . S
H1535 C1549 0.931 . S
H1536 C1551 0.930 . S
C1537 H1525 0.930 1_554 S
C1537 C1538 1.399 1_554 S
C1537 C1542 1.399 . S
C1538 C1537 1.399 1_556 S
C1538 C1539 1.352 1_556 S
C1539 H1526 0.930 . S
C1539 C1538 1.352 1_554 S
C1539 C1540 1.388 . S
C1540 H1527 0.930 . S
C1540 C1539 1.388 . S
C1540 C1541 1.390 . S
C1541 C1540 1.390 . S
C1541 C1542 1.394 . S
C1541 C1547 1.465 . S
C1542 C1537 1.399 . S
C1542 C1541 1.394 . S
C1542 C1543 1.516 . S
C1543 C1542 1.516 . S
C1543 C1544 1.502 . S
C1543 C1545 1.561 . S
C1543 C1546 1.526 . S
C1544 H1528 0.959 . S
C1544 H1529 0.959 . S
C1544 H1530 0.961 . S
C1544 C1543 1.502 . S
C1545 H1531 0.979 . S
C1545 H1532 0.961 . S
C1545 H1533 0.959 . S
C1545 C1543 1.561 . S
C1546 C1543 1.526 . S
C1546 C1547 1.396 . S
C1546 C1551 1.390 . S
C1547 C1541 1.465 . S
C1547 C1546 1.396 . S
C1547 C1548 1.399 . S
C1548 H1534 0.929 . S
C1548 C1547 1.399 . S
C1548 C1549 1.385 . S
C1549 H1535 0.931 . S
C1549 C1548 1.385 . S
C1549 C1550 1.389 . S
C1550 C1549 1.389 . S
C1550 C1551 1.387 . S
C1551 H1536 0.930 . S
C1551 C1546 1.390 . S
C1551 C1550 1.387 . S
H1552 C1564 0.930 . S
H1553 C1566 0.930 . S
H1554 C1567 0.930 . S
H1555 C1571 0.959 . S
H1556 C1571 0.959 . S
H1557 C1571 0.961 . S
H1558 C1572 0.960 . S
H1559 C1572 0.961 . S
H1560 C1572 0.959 . S
H1561 C1575 0.929 . S
H1562 C1576 0.931 . S
H1563 C1578 0.930 . S
C1564 H1552 0.930 . S
C1564 C1565 1.399 . S
C1564 C1569 1.399 . S
C1565 C1564 1.399 . S
C1565 C1566 1.376 . S
C1566 H1553 0.930 . S
C1566 C1565 1.376 . S
C1566 C1567 1.388 . S
C1567 H1554 0.930 . S
C1567 C1566 1.388 . S
C1567 C1568 1.390 . S
C1568 C1567 1.390 . S
C1568 C1569 1.394 . S
C1568 C1574 1.465 . S
C1569 C1564 1.399 . S
C1569 C1568 1.394 . S
C1569 C1570 1.516 . S
C1570 C1569 1.516 . S
C1570 C1571 1.502 . S
C1570 C1572 1.561 . S
C1570 C1573 1.526 . S
C1571 H1555 0.959 . S
C1571 H1556 0.959 . S
C1571 H1557 0.961 . S
C1571 C1570 1.502 . S
C1572 H1558 0.960 . S
C1572 H1559 0.961 . S
C1572 H1560 0.959 . S
C1572 C1570 1.561 . S
C1573 C1570 1.526 . S
C1573 C1574 1.396 . S
C1573 C1578 1.390 . S
C1574 C1568 1.465 . S
C1574 C1573 1.396 . S
C1574 C1575 1.399 . S
C1575 H1561 0.929 . S
C1575 C1574 1.399 . S
C1575 C1576 1.385 . S
C1576 H1562 0.931 . S
C1576 C1575 1.385 . S
C1576 C1577 1.389 . S
C1577 C1576 1.389 . S
C1577 C1578 1.387 . S
C1578 H1563 0.930 . S
C1578 C1573 1.390 . S
C1578 C1577 1.387 . S
H1579 C1591 0.930 . S
H1580 C1593 0.930 . S
H1581 C1594 0.930 . S
H1582 C1598 0.959 . S
H1583 C1598 0.959 . S
H1584 C1598 0.961 . S
H1585 C1599 0.960 . S
H1586 C1599 0.961 . S
H1587 C1599 0.959 . S
H1588 C1602 0.929 . S
H1589 C1603 0.931 . S
H1590 C1605 0.930 . S
C1591 H1579 0.930 . S
C1591 C1592 1.399 . S
C1591 C1596 1.399 . S
C1592 C1591 1.399 . S
C1592 C1593 1.376 . S
C1593 H1580 0.930 . S
C1593 C1592 1.376 . S
C1593 C1594 1.388 . S
C1594 H1581 0.930 . S
C1594 C1593 1.388 . S
C1594 C1595 1.390 . S
C1595 C1594 1.390 . S
C1595 C1596 1.394 . S
C1595 C1601 1.465 . S
C1596 C1591 1.399 . S
C1596 C1595 1.394 . S
C1596 C1597 1.516 . S
C1597 C1596 1.516 . S
C1597 C1598 1.502 . S
C1597 C1599 1.561 . S
C1597 C1600 1.526 . S
C1598 H1582 0.959 . S
C1598 H1583 0.959 . S
C1598 H1584 0.961 . S
C1598 C1597 1.502 . S
C1599 H1585 0.960 . S
C1599 H1586 0.961 . S
C1599 H1587 0.959 . S
C1599 C1597 1.561 . S
C1600 C1597 1.526 . S
C1600 C1601 1.396 . S
C1600 C1605 1.390 . S
C1601 C1595 1.465 . S
C1601 C1600 1.396 . S
C1601 C1602 1.399 . S
C1602 H1588 0.929 . S
C1602 C1601 1.399 . S
C1602 C1603 1.385 . S
C1603 H1589 0.931 . S
C1603 C1602 1.385 . S
C1603 C1604 1.389 . S
C1604 C1603 1.389 . S
C1604 C1605 1.387 . S
C1605 H1590 0.930 . S
C1605 C1600 1.390 . S
C1605 C1604 1.387 . S
H1606 C1618 0.930 . S
H1607 C1620 0.930 . S
H1608 C1621 0.930 . S
H1609 C1625 0.959 . S
H1610 C1625 0.959 . S
H1611 C1625 0.961 . S
H1612 C1626 0.960 . S
H1613 C1626 0.961 . S
H1614 C1626 0.959 . S
H1615 C1629 0.929 . S
H1616 C1630 0.931 . S
H1617 C1632 0.930 . S
C1618 H1606 0.930 . S
C1618 C1619 1.399 . S
C1618 C1623 1.399 . S
C1619 C1618 1.399 . S
C1619 C1620 1.376 . S
C1620 H1607 0.930 . S
C1620 C1619 1.376 . S
C1620 C1621 1.388 . S
C1621 H1608 0.930 . S
C1621 C1620 1.388 . S
C1621 C1622 1.390 . S
C1622 C1621 1.390 . S
C1622 C1623 1.394 . S
C1622 C1628 1.465 . S
C1623 C1618 1.399 . S
C1623 C1622 1.394 . S
C1623 C1624 1.516 . S
C1624 C1623 1.516 . S
C1624 C1625 1.502 . S
C1624 C1626 1.561 . S
C1624 C1627 1.526 . S
C1625 H1609 0.959 . S
C1625 H1610 0.959 . S
C1625 H1611 0.961 . S
C1625 C1624 1.502 . S
C1626 H1612 0.960 . S
C1626 H1613 0.961 . S
C1626 H1614 0.959 . S
C1626 C1624 1.561 . S
C1627 C1624 1.526 . S
C1627 C1628 1.396 . S
C1627 C1632 1.390 . S
C1628 C1622 1.465 . S
C1628 C1627 1.396 . S
C1628 C1629 1.399 . S
C1629 H1615 0.929 . S
C1629 C1628 1.399 . S
C1629 C1630 1.385 . S
C1630 H1616 0.931 . S
C1630 C1629 1.385 . S
C1630 C1631 1.389 . S
C1631 C1630 1.389 . S
C1631 C1632 1.387 . S
C1632 H1617 0.930 . S
C1632 C1627 1.390 . S
C1632 C1631 1.387 . S
H1633 C1645 0.930 . S
H1634 C1647 0.930 . S
H1635 C1648 0.930 . S
H1636 C1652 0.959 . S
H1637 C1652 0.959 . S
H1638 C1652 0.961 . S
H1639 C1653 0.960 . S
H1640 C1653 0.961 . S
H1641 C1653 0.959 . S
H1642 C1656 0.929 . S
H1643 C1657 0.931 . S
H1644 C1659 0.930 . S
C1645 H1633 0.930 . S
C1645 C1646 1.399 . S
C1645 C1650 1.399 . S
C1646 C1645 1.399 . S
C1646 C1647 1.376 . S
C1647 H1634 0.930 . S
C1647 C1646 1.376 . S
C1647 C1648 1.388 . S
C1648 H1635 0.930 . S
C1648 C1647 1.388 . S
C1648 C1649 1.390 . S
C1649 C1648 1.390 . S
C1649 C1650 1.394 . S
C1649 C1655 1.465 . S
C1650 C1645 1.399 . S
C1650 C1649 1.394 . S
C1650 C1651 1.516 . S
C1651 C1650 1.516 . S
C1651 C1652 1.502 . S
C1651 C1653 1.561 . S
C1651 C1654 1.526 . S
C1652 H1636 0.959 . S
C1652 H1637 0.959 . S
C1652 H1638 0.961 . S
C1652 C1651 1.502 . S
C1653 H1639 0.960 . S
C1653 H1640 0.961 . S
C1653 H1641 0.959 . S
C1653 C1651 1.561 . S
C1654 C1651 1.526 . S
C1654 C1655 1.396 . S
C1654 C1659 1.390 . S
C1655 C1649 1.465 . S
C1655 C1654 1.396 . S
C1655 C1656 1.399 . S
C1656 H1642 0.929 . S
C1656 C1655 1.399 . S
C1656 C1657 1.385 . S
C1657 H1643 0.931 . S
C1657 C1656 1.385 . S
C1657 C1658 1.389 . S
C1658 C1657 1.389 . S
C1658 C1659 1.387 . S
C1659 H1644 0.930 . S
C1659 C1654 1.390 . S
C1659 C1658 1.387 . S
H1660 C1672 0.930 . S
H1661 C1674 0.930 . S
H1662 C1675 0.930 . S
H1663 C1679 0.959 . S
H1664 C1679 0.959 . S
H1665 C1679 0.961 . S
H1666 C1680 0.960 . S
H1667 C1680 0.961 . S
H1668 C1680 0.959 . S
H1669 C1683 0.929 . S
H1670 C1684 0.931 . S
H1671 C1686 0.930 . S
C1672 H1660 0.930 . S
C1672 C1673 1.399 1_554 S
C1672 C1677 1.399 . S
C1673 C1672 1.399 1_556 S
C1673 C1674 1.376 . S
C1674 H1661 0.930 . S
C1674 C1673 1.376 . S
C1674 C1675 1.388 . S
C1675 H1662 0.930 . S
C1675 C1674 1.388 . S
C1675 C1676 1.390 . S
C1676 C1675 1.390 . S
C1676 C1677 1.394 1_556 S
C1676 C1682 1.465 . S
C1677 C1672 1.399 . S
C1677 C1676 1.394 1_554 S
C1677 C1678 1.516 . S
C1678 C1677 1.516 . S
C1678 C1679 1.502 . S
C1678 C1680 1.561 . S
C1678 C1681 1.526 . S
C1679 H1663 0.959 . S
C1679 H1664 0.959 . S
C1679 H1665 0.961 . S
C1679 C1678 1.502 . S
C1680 H1666 0.960 . S
C1680 H1667 0.961 . S
C1680 H1668 0.959 . S
C1680 C1678 1.561 . S
C1681 C1678 1.526 . S
C1681 C1682 1.396 1_554 S
C1681 C1686 1.390 . S
C1682 C1676 1.465 . S
C1682 C1681 1.396 1_556 S
C1682 C1683 1.399 . S
C1683 H1669 0.929 . S
C1683 C1682 1.399 . S
C1683 C1684 1.385 . S
C1684 H1670 0.931 . S
C1684 C1683 1.385 . S
C1684 C1685 1.389 . S
C1685 C1684 1.389 . S
C1685 C1686 1.387 1_556 S
C1686 H1671 0.930 . S
C1686 C1681 1.390 . S
C1686 C1685 1.387 1_554 S
H1687 C1699 0.930 . S
H1688 C1701 0.930 . S
H1689 C1702 0.930 . S
H1690 C1706 0.959 . S
H1691 C1706 0.959 . S
H1692 C1706 0.961 . S
H1693 C1707 0.960 . S
H1694 C1707 0.961 . S
H1695 C1707 0.959 . S
H1696 C1710 0.929 . S
H1697 C1711 0.931 . S
H1698 C1713 0.930 . S
C1699 H1687 0.930 . S
C1699 C1700 1.399 . S
C1699 C1704 1.399 . S
C1700 C1699 1.399 . S
C1700 C1701 1.376 . S
C1701 H1688 0.930 . S
C1701 C1700 1.376 . S
C1701 C1702 1.388 . S
C1702 H1689 0.930 . S
C1702 C1701 1.388 . S
C1702 C1703 1.390 . S
C1703 C1702 1.390 . S
C1703 C1704 1.394 . S
C1703 C1709 1.465 . S
C1704 C1699 1.399 . S
C1704 C1703 1.394 . S
C1704 C1705 1.516 . S
C1705 C1704 1.516 . S
C1705 C1706 1.502 . S
C1705 C1707 1.561 . S
C1705 C1708 1.526 . S
C1706 H1690 0.959 . S
C1706 H1691 0.959 . S
C1706 H1692 0.961 . S
C1706 C1705 1.502 . S
C1707 H1693 0.960 . S
C1707 H1694 0.961 . S
C1707 H1695 0.959 . S
C1707 C1705 1.561 . S
C1708 C1705 1.526 . S
C1708 C1709 1.396 . S
C1708 C1713 1.390 . S
C1709 C1703 1.465 . S
C1709 C1708 1.396 . S
C1709 C1710 1.399 . S
C1710 H1696 0.929 . S
C1710 C1709 1.399 . S
C1710 C1711 1.385 . S
C1711 H1697 0.931 . S
C1711 C1710 1.385 . S
C1711 C1712 1.389 . S
C1712 C1711 1.389 . S
C1712 C1713 1.387 . S
C1713 H1698 0.930 . S
C1713 C1708 1.390 . S
C1713 C1712 1.387 . S
H1714 C1726 0.930 . S
H1715 C1728 0.908 1_556 S
H1716 C1729 0.930 . S
H1717 C1733 0.959 . S
H1718 C1733 0.959 . S
H1719 C1733 0.961 . S
H1720 C1734 0.960 . S
H1721 C1734 0.961 . S
H1722 C1734 0.959 . S
H1723 C1737 0.929 . S
H1724 C1738 0.931 . S
H1725 C1740 0.930 . S
C1726 H1714 0.930 . S
C1726 C1727 1.399 . S
C1726 C1731 1.399 . S
C1727 C1726 1.399 . S
C1727 C1728 1.376 . S
C1728 H1715 0.908 1_554 S
C1728 C1727 1.376 . S
C1728 C1729 1.388 1_554 S
C1729 H1716 0.930 . S
C1729 C1728 1.388 1_556 S
C1729 C1730 1.390 1_556 S
C1730 C1729 1.390 1_554 S
C1730 C1731 1.394 . S
C1730 C1736 1.465 . S
C1731 C1726 1.399 . S
C1731 C1730 1.394 . S
C1731 C1732 1.516 . S
C1732 C1731 1.516 . S
C1732 C1733 1.502 . S
C1732 C1734 1.561 . S
C1732 C1735 1.526 . S
C1733 H1717 0.959 . S
C1733 H1718 0.959 . S
C1733 H1719 0.961 . S
C1733 C1732 1.502 . S
C1734 H1720 0.960 . S
C1734 H1721 0.961 . S
C1734 H1722 0.959 . S
C1734 C1732 1.561 . S
C1735 C1732 1.526 . S
C1735 C1736 1.396 . S
C1735 C1740 1.390 . S
C1736 C1730 1.465 . S
C1736 C1735 1.396 . S
C1736 C1737 1.399 1_554 S
C1737 H1723 0.929 . S
C1737 C1736 1.399 1_556 S
C1737 C1738 1.385 . S
C1738 H1724 0.931 . S
C1738 C1737 1.385 . S
C1738 C1739 1.389 1_556 S
C1739 C1738 1.389 1_554 S
C1739 C1740 1.387 . S
C1740 H1725 0.930 . S
C1740 C1735 1.390 . S
C1740 C1739 1.387 . S
H1741 C1753 0.930 . S
H1742 C1755 0.930 . S
H1743 C1756 0.930 . S
H1744 C1760 0.959 . S
H1745 C1760 0.959 . S
H1746 C1760 0.961 . S
H1747 C1761 0.935 1_556 S
H1748 C1761 0.929 1_556 S
H1749 C1761 0.991 . S
H1750 C1764 0.929 . S
H1751 C1765 0.931 . S
H1752 C1767 0.930 . S
C1753 H1741 0.930 . S
C1753 C1754 1.399 . S
C1753 C1758 1.399 . S
C1754 C1753 1.399 . S
C1754 C1755 1.376 . S
C1755 H1742 0.930 . S
C1755 C1754 1.376 . S
C1755 C1756 1.388 . S
C1756 H1743 0.930 . S
C1756 C1755 1.388 . S
C1756 C1757 1.390 . S
C1757 C1756 1.390 . S
C1757 C1758 1.394 . S
C1757 C1763 1.465 . S
C1758 C1753 1.399 . S
C1758 C1757 1.394 . S
C1758 C1759 1.516 . S
C1759 C1758 1.516 . S
C1759 C1760 1.502 1_554 S
C1759 C1761 1.588 . S
C1759 C1762 1.526 . S
C1760 H1744 0.959 . S
C1760 H1745 0.959 . S
C1760 H1746 0.961 . S
C1760 C1759 1.502 1_556 S
C1761 H1747 0.935 1_554 S
C1761 H1748 0.929 1_554 S
C1761 H1749 0.991 . S
C1761 C1759 1.588 . S
C1762 C1759 1.526 . S
C1762 C1763 1.396 . S
C1762 C1767 1.390 . S
C1763 C1757 1.465 . S
C1763 C1762 1.396 . S
C1763 C1764 1.399 . S
C1764 H1750 0.929 . S
C1764 C1763 1.399 . S
C1764 C1765 1.385 . S
C1765 H1751 0.931 . S
C1765 C1764 1.385 . S
C1765 C1766 1.389 . S
C1766 C1765 1.389 . S
C1766 C1767 1.387 . S
C1767 H1752 0.930 . S
C1767 C1762 1.390 . S
C1767 C1766 1.387 . S
C497 C315 1.785 . S
C485 C101 1.812 . S
C524 C323 0.878 . S
C512 C125 1.101 . S
C539 C139 1.953 . S
C551 C343 1.930 . S
C578 C357 1.706 1_455 S
C566 C82 1.789 . S
C605 C372 1.594 . S
C593 C196 1.600 . S
C632 C386 1.847 . S
C620 C234 1.875 . S
C647 C220 0.828 . S
C659 C400 0.954 . S
C686 C406 1.607 . S
C674 C173 1.666 . S
C701 C211 1.189 . S
C713 C420 1.128 . S
C740 C441 1.101 . S
C728 C182 1.012 . S
C755 C201 1.293 . S
C767 C421 1.054 . S
C794 C442 1.343 . S
C782 C239 1.204 . S
C809 C135 1.652 . S
C821 C449 1.401 . S
C836 C87 1.803 . S
C848 C455 1.904 . S
C863 C106 1.197 . S
C875 C448 1.211 . S
C890 C116 1.165 . S
C902 C456 1.205 . S
C917 C59 1.905 . S
C929 C350 1.871 . S
C944 C268 2.209 . S
C956 C351 2.005 . S
C983 C308 1.158 . S
C971 C291 1.211 . S
C1010 C329 1.405 . S
C998 C163 1.338 . S
C1025 C78 2.025 1_545 S
C1037 C364 1.992 . S
C1064 C414 1.201 . S
C1052 C215 1.186 . S
C1091 C365 1.431 . S
C1079 C177 1.567 1_545 S
C1118 C393 1.555 . S
C1106 C230 1.826 . S
C1145 C399 1.800 . S
C1133 C272 1.819 . S
C1160 C296 1.096 . S
C1172 C407 0.905 . S
C1187 C158 1.956 . S
C1199 C371 1.892 . S
C1226 C385 1.742 . S
C1214 C253 1.774 . S
C1241 C63 1.582 . S
C1253 C344 1.583 . S
C1280 C358 1.880 . S
C1268 C6 1.852 . S
C1307 C316 0.927 . S
C1295 C30 0.933 . S
C1334 C322 1.652 . S
C1322 C40 1.682 . S
C1349 C21 1.211 . S
C1361 C434 1.125 . S
C1376 C49 1.091 . S
C1388 C427 1.094 . S
C1403 C68 1.283 . S
C1415 C435 1.041 . S
C1430 C11 1.299 . S
C1442 C428 1.358 . S
C1469 C463 1.350 . S
C1457 C154 1.634 . S
C1496 C469 1.890 . S
C1484 C258 1.763 . S
C1523 C462 1.228 . S
C1511 C277 1.192 . S
C1538 C287 1.176 . S
C1550 C470 1.207 . S
C1565 C192 1.879 . S
C1577 C378 1.836 . S
C1604 C379 1.946 . S
C1592 C97 2.163 . S
C1631 C392 1.212 . S
C1619 C120 1.209 . S
C1658 C413 1.409 . S
C1646 C144 1.354 . S
C1673 C249 2.016 . S
C1685 C336 2.022 . S
C1712 C330 1.212 . S
C1700 C25 1.227 . S
C1727 C44 1.520 . S
C1739 C337 1.393 . S
C1766 C309 1.536 . S
C1754 C2 1.824 1_565 S
