# Generated by pormake.
# Topology eea, (3,6)-cn, num edge types: 1
# Building blocks:
#     Node 0, Type 0, BuildingBlock: QEWDON_clean_linker_0, # of connection points: 3
#     Node 1, Type 0, BuildingBlock: QEWDON_clean_linker_0, # of connection points: 3
#     Node 2, Type 0, BuildingBlock: QEWDON_clean_linker_0, # of connection points: 3
#     Node 3, Type 0, BuildingBlock: QEWDON_clean_linker_0, # of connection points: 3
#     Node 4, Type 0, BuildingBlock: QEWDON_clean_linker_0, # of connection points: 3
#     Node 5, Type 0, BuildingBlock: QEWDON_clean_linker_0, # of connection points: 3
#     Node 6, Type 0, BuildingBlock: QEWDON_clean_linker_0, # of connection points: 3
#     Node 7, Type 0, BuildingBlock: QEWDON_clean_linker_0, # of connection points: 3
#     Node 8, Type 0, BuildingBlock: QEWDON_clean_linker_0, # of connection points: 3
#     Node 9, Type 0, BuildingBlock: QEWDON_clean_linker_0, # of connection points: 3
#     Node 10, Type 0, BuildingBlock: QEWDON_clean_linker_0, # of connection points: 3
#     Node 11, Type 0, BuildingBlock: QEWDON_clean_linker_0, # of connection points: 3
#     Node 12, Type 0, BuildingBlock: QEWDON_clean_linker_0, # of connection points: 3
#     Node 13, Type 0, BuildingBlock: QEWDON_clean_linker_0, # of connection points: 3
#     Node 14, Type 0, BuildingBlock: QEWDON_clean_linker_0, # of connection points: 3
#     Node 15, Type 0, BuildingBlock: QEWDON_clean_linker_0, # of connection points: 3
#     Node 16, Type 0, BuildingBlock: QEWDON_clean_linker_0, # of connection points: 3
#     Node 17, Type 0, BuildingBlock: QEWDON_clean_linker_0, # of connection points: 3
#     Node 18, Type 1, BuildingBlock: CUWYAW_clean_sbu_0, # of connection points: 6
#     Node 19, Type 1, BuildingBlock: CUWYAW_clean_sbu_0, # of connection points: 6
#     Node 20, Type 1, BuildingBlock: CUWYAW_clean_sbu_0, # of connection points: 6
#     Node 21, Type 1, BuildingBlock: CUWYAW_clean_sbu_0, # of connection points: 6
#     Node 22, Type 1, BuildingBlock: CUWYAW_clean_sbu_0, # of connection points: 6
#     Node 23, Type 1, BuildingBlock: CUWYAW_clean_sbu_0, # of connection points: 6
#     Node 24, Type 1, BuildingBlock: CUWYAW_clean_sbu_0, # of connection points: 6
#     Node 25, Type 1, BuildingBlock: CUWYAW_clean_sbu_0, # of connection points: 6
#     Node 26, Type 1, BuildingBlock: CUWYAW_clean_sbu_0, # of connection points: 6
#     Edge 27, Type (0, 1), BuildingBlock: TEMPAE_clean_linker_10, # of connection points: 2
#     Edge 28, Type (0, 1), BuildingBlock: TEMPAE_clean_linker_10, # of connection points: 2
#     Edge 29, Type (0, 1), BuildingBlock: TEMPAE_clean_linker_10, # of connection points: 2
#     Edge 30, Type (0, 1), BuildingBlock: TEMPAE_clean_linker_10, # of connection points: 2
#     Edge 31, Type (0, 1), BuildingBlock: TEMPAE_clean_linker_10, # of connection points: 2
#     Edge 32, Type (0, 1), BuildingBlock: TEMPAE_clean_linker_10, # of connection points: 2
#     Edge 33, Type (0, 1), BuildingBlock: TEMPAE_clean_linker_10, # of connection points: 2
#     Edge 34, Type (0, 1), BuildingBlock: TEMPAE_clean_linker_10, # of connection points: 2
#     Edge 35, Type (0, 1), BuildingBlock: TEMPAE_clean_linker_10, # of connection points: 2
#     Edge 36, Type (0, 1), BuildingBlock: TEMPAE_clean_linker_10, # of connection points: 2
#     Edge 37, Type (0, 1), BuildingBlock: TEMPAE_clean_linker_10, # of connection points: 2
#     Edge 38, Type (0, 1), BuildingBlock: TEMPAE_clean_linker_10, # of connection points: 2
#     Edge 39, Type (0, 1), BuildingBlock: TEMPAE_clean_linker_10, # of connection points: 2
#     Edge 40, Type (0, 1), BuildingBlock: TEMPAE_clean_linker_10, # of connection points: 2
#     Edge 41, Type (0, 1), BuildingBlock: TEMPAE_clean_linker_10, # of connection points: 2
#     Edge 42, Type (0, 1), BuildingBlock: TEMPAE_clean_linker_10, # of connection points: 2
#     Edge 43, Type (0, 1), BuildingBlock: TEMPAE_clean_linker_10, # of connection points: 2
#     Edge 44, Type (0, 1), BuildingBlock: TEMPAE_clean_linker_10, # of connection points: 2
#     Edge 45, Type (0, 1), BuildingBlock: TEMPAE_clean_linker_10, # of connection points: 2
#     Edge 46, Type (0, 1), BuildingBlock: TEMPAE_clean_linker_10, # of connection points: 2
#     Edge 47, Type (0, 1), BuildingBlock: TEMPAE_clean_linker_10, # of connection points: 2
#     Edge 48, Type (0, 1), BuildingBlock: TEMPAE_clean_linker_10, # of connection points: 2
#     Edge 49, Type (0, 1), BuildingBlock: TEMPAE_clean_linker_10, # of connection points: 2
#     Edge 50, Type (0, 1), BuildingBlock: TEMPAE_clean_linker_10, # of connection points: 2
#     Edge 51, Type (0, 1), BuildingBlock: TEMPAE_clean_linker_10, # of connection points: 2
#     Edge 52, Type (0, 1), BuildingBlock: TEMPAE_clean_linker_10, # of connection points: 2
#     Edge 53, Type (0, 1), BuildingBlock: TEMPAE_clean_linker_10, # of connection points: 2
#     Edge 54, Type (0, 1), BuildingBlock: TEMPAE_clean_linker_10, # of connection points: 2
#     Edge 55, Type (0, 1), BuildingBlock: TEMPAE_clean_linker_10, # of connection points: 2
#     Edge 56, Type (0, 1), BuildingBlock: TEMPAE_clean_linker_10, # of connection points: 2
#     Edge 57, Type (0, 1), BuildingBlock: TEMPAE_clean_linker_10, # of connection points: 2
#     Edge 58, Type (0, 1), BuildingBlock: TEMPAE_clean_linker_10, # of connection points: 2
#     Edge 59, Type (0, 1), BuildingBlock: TEMPAE_clean_linker_10, # of connection points: 2
#     Edge 60, Type (0, 1), BuildingBlock: TEMPAE_clean_linker_10, # of connection points: 2
#     Edge 61, Type (0, 1), BuildingBlock: TEMPAE_clean_linker_10, # of connection points: 2
#     Edge 62, Type (0, 1), BuildingBlock: TEMPAE_clean_linker_10, # of connection points: 2
#     Edge 63, Type (0, 1), BuildingBlock: TEMPAE_clean_linker_10, # of connection points: 2
#     Edge 64, Type (0, 1), BuildingBlock: TEMPAE_clean_linker_10, # of connection points: 2
#     Edge 65, Type (0, 1), BuildingBlock: TEMPAE_clean_linker_10, # of connection points: 2
#     Edge 66, Type (0, 1), BuildingBlock: TEMPAE_clean_linker_10, # of connection points: 2
#     Edge 67, Type (0, 1), BuildingBlock: TEMPAE_clean_linker_10, # of connection points: 2
#     Edge 68, Type (0, 1), BuildingBlock: TEMPAE_clean_linker_10, # of connection points: 2
#     Edge 69, Type (0, 1), BuildingBlock: TEMPAE_clean_linker_10, # of connection points: 2
#     Edge 70, Type (0, 1), BuildingBlock: TEMPAE_clean_linker_10, # of connection points: 2
#     Edge 71, Type (0, 1), BuildingBlock: TEMPAE_clean_linker_10, # of connection points: 2
#     Edge 72, Type (0, 1), BuildingBlock: TEMPAE_clean_linker_10, # of connection points: 2
#     Edge 73, Type (0, 1), BuildingBlock: TEMPAE_clean_linker_10, # of connection points: 2
#     Edge 74, Type (0, 1), BuildingBlock: TEMPAE_clean_linker_10, # of connection points: 2
#     Edge 75, Type (0, 1), BuildingBlock: TEMPAE_clean_linker_10, # of connection points: 2
#     Edge 76, Type (0, 1), BuildingBlock: TEMPAE_clean_linker_10, # of connection points: 2
#     Edge 77, Type (0, 1), BuildingBlock: TEMPAE_clean_linker_10, # of connection points: 2
#     Edge 78, Type (0, 1), BuildingBlock: TEMPAE_clean_linker_10, # of connection points: 2
#     Edge 79, Type (0, 1), BuildingBlock: TEMPAE_clean_linker_10, # of connection points: 2
#     Edge 80, Type (0, 1), BuildingBlock: TEMPAE_clean_linker_10, # of connection points: 2
# Relax obj value: 0.087
# Max RMSD: 0.261
# Mean RMSD: 0.180
data_MOF--net-eea--node1-CUWYAW_clean_sbu_0--node2-QEWDON_clean_linker_0--edge1-TEMPAE_clean_linker_10
_symmetry_space_group_name_H-M    P1
_symmetry_Int_Tables_number       1
_symmetry_cell_setting            triclinic
loop_
_symmetry_equiv_pos_as_xyz
'x, y, z'
_cell_length_a     58.905129
_cell_length_b     58.664523
_cell_length_c     68.147675
_cell_angle_alpha  93.329917
_cell_angle_beta   93.353273
_cell_angle_gamma 119.92849
loop_
_atom_site_label
_atom_site_type_symbol
_atom_site_fract_x
_atom_site_fract_y
_atom_site_fract_z
_atom_type_partial_charge
H0 H 0.19835 0.11641 0.42562 0.0
C1 C 0.19813 0.09981 0.41753 0.0
C2 C 0.21101 0.08769 0.4263 0.0
C3 C 0.18317 0.08928 0.39909 0.0
H4 H 0.21978 0.05621 0.42274 0.0
C5 C 0.20957 0.06541 0.41614 0.0
C6 C 0.19496 0.05475 0.39763 0.0
C7 C 0.18193 0.0669 0.38913 0.0
C8 C 0.16624 0.09958 0.39149 0.0
H9 H 0.17002 0.05838 0.37508 0.0
C10 C 0.17617 0.12692 0.39077 0.0
C11 C 0.15921 0.13622 0.38479 0.0
C12 C 0.13935 0.0818 0.38589 0.0
H13 H 0.13114 0.06075 0.38654 0.0
C14 C 0.12258 0.09102 0.37998 0.0
H15 H 0.19689 0.14086 0.39493 0.0
C16 C 0.13237 0.11803 0.37951 0.0
H17 H 0.11902 0.12475 0.3747 0.0
H18 H 0.10188 0.07716 0.37581 0.0
H19 H 0.89622 0.09511 0.42273 0.0
C20 C 0.91176 0.11212 0.41684 0.0
C21 C 0.92251 0.13748 0.42707 0.0
C22 C 0.92166 0.10834 0.39946 0.0
H23 H 0.95209 0.17875 0.42737 0.0
C24 C 0.94302 0.15932 0.41927 0.0
C25 C 0.95295 0.15598 0.40169 0.0
C26 C 0.94186 0.13044 0.39185 0.0
C27 C 0.91301 0.08118 0.39035 0.0
H28 H 0.9492 0.12764 0.37823 0.0
C29 C 0.88618 0.06115 0.38753 0.0
C30 C 0.87882 0.03535 0.37956 0.0
C31 C 0.93219 0.07501 0.38502 0.0
H32 H 0.95294 0.08976 0.38731 0.0
C33 C 0.92496 0.04963 0.37707 0.0
H34 H 0.87116 0.06557 0.39156 0.0
C35 C 0.89854 0.02994 0.37436 0.0
H36 H 0.89348 0.01046 0.36792 0.0
H37 H 0.93993 0.04517 0.37303 0.0
H38 H 0.92156 0.80125 0.43759 0.0
C39 C 0.90384 0.79865 0.4296 0.0
C40 C 0.87912 0.78248 0.43642 0.0
C41 C 0.90585 0.8124 0.41297 0.0
H42 H 0.83735 0.76736 0.43125 0.0
C43 C 0.85634 0.77966 0.42599 0.0
C44 C 0.85792 0.7934 0.4094 0.0
C45 C 0.88284 0.80956 0.40301 0.0
C46 C 0.93192 0.83176 0.40678 0.0
H47 H 0.88459 0.82086 0.3906 0.0
C48 C 0.95151 0.82511 0.40361 0.0
C49 C 0.97534 0.8434 0.39632 0.0
C50 C 0.93678 0.85711 0.4033 0.0
H51 H 0.92233 0.86293 0.40594 0.0
C52 C 0.96013 0.87518 0.3962 0.0
H53 H 0.94797 0.80571 0.40652 0.0
C54 C 0.97906 0.86835 0.39248 0.0
H55 H 0.99648 0.88263 0.38623 0.0
H56 H 0.96342 0.89449 0.39328 0.0
H57 H 0.11509 0.20517 0.57876 0.0
C58 C 0.10017 0.20784 0.58535 0.0
C59 C 0.08987 0.22198 0.57594 0.0
C60 C 0.09019 0.19581 0.60254 0.0
H61 H 0.06096 0.23436 0.57654 0.0
C62 C 0.06935 0.22402 0.58396 0.0
C63 C 0.05924 0.21233 0.60122 0.0
C64 C 0.0703 0.1989 0.61059 0.0
C65 C 0.0987 0.17824 0.6114 0.0
H66 H 0.06311 0.19049 0.6242 0.0
C67 C 0.12528 0.18444 0.61303 0.0
C68 C 0.13269 0.16757 0.62189 0.0
C69 C 0.07967 0.15467 0.61831 0.0
H70 H 0.05901 0.1488 0.61677 0.0
C71 C 0.08688 0.13819 0.62723 0.0
H72 H 0.14007 0.20233 0.60752 0.0
C73 C 0.1131 0.14465 0.62921 0.0
H74 H 0.118 0.13168 0.63674 0.0
H75 H 0.07205 0.12033 0.63273 0.0
H76 H 0.80424 0.91227 0.6005 0.0
C77 C 0.8031 0.895 0.60639 0.0
C78 C 0.79022 0.87059 0.59458 0.0
C79 C 0.81559 0.8975 0.62527 0.0
H80 H 0.78026 0.82967 0.59278 0.0
C81 C 0.79012 0.84853 0.60177 0.0
C82 C 0.80213 0.85049 0.62069 0.0
C83 C 0.81439 0.87488 0.63239 0.0
C84 C 0.83113 0.92378 0.63722 0.0
H85 H 0.8236 0.87633 0.647 0.0
C86 C 0.82308 0.94284 0.63736 0.0
C87 C 0.83784 0.96713 0.64924 0.0
C88 C 0.85458 0.92999 0.64866 0.0
H89 H 0.86201 0.91642 0.64842 0.0
C90 C 0.8691 0.95397 0.66039 0.0
H91 H 0.80517 0.93868 0.62871 0.0
C92 C 0.86074 0.97236 0.6608 0.0
H93 H 0.87247 0.99098 0.66992 0.0
H94 H 0.88703 0.95839 0.66913 0.0
H95 H 0.08826 0.89147 0.58347 0.0
C96 C 0.10604 0.90792 0.59121 0.0
C97 C 0.13 0.91828 0.58253 0.0
C98 C 0.10483 0.91952 0.60954 0.0
H99 H 0.17094 0.94908 0.58553 0.0
C100 C 0.15266 0.94043 0.59237 0.0
C101 C 0.15188 0.95211 0.61066 0.0
C102 C 0.12805 0.94118 0.61929 0.0
C103 C 0.07918 0.91156 0.61766 0.0
H104 H 0.1273 0.95042 0.6333 0.0
C105 C 0.06001 0.88483 0.61915 0.0
C106 C 0.03639 0.87848 0.62769 0.0
C107 C 0.0741 0.93158 0.62432 0.0
H108 H 0.08803 0.95217 0.62297 0.0
C109 C 0.05111 0.92546 0.63283 0.0
H110 H 0.06355 0.86923 0.61386 0.0
C111 C 0.03259 0.89929 0.63471 0.0
H112 H 0.01532 0.89544 0.64196 0.0
H113 H 0.04771 0.94115 0.63814 0.0
H114 H 0.90672 0.47365 0.74212 0.0
C115 C 0.89932 0.45324 0.73656 0.0
C116 C 0.89415 0.43423 0.74993 0.0
C117 C 0.89589 0.44622 0.71608 0.0
H118 H 0.88081 0.39326 0.75292 0.0
C119 C 0.88487 0.40783 0.74257 0.0
C120 C 0.88178 0.40033 0.72217 0.0
C121 C 0.88721 0.41978 0.7091 0.0
C122 C 0.90274 0.46657 0.70184 0.0
H123 H 0.88527 0.41456 0.69336 0.0
C124 C 0.89578 0.48636 0.70408 0.0
C125 C 0.90135 0.50468 0.68989 0.0
C126 C 0.9161 0.4659 0.68557 0.0
H127 H 0.92241 0.45152 0.68367 0.0
C128 C 0.92152 0.48374 0.67151 0.0
H129 H 0.88585 0.48726 0.71673 0.0
C130 C 0.91397 0.50271 0.67346 0.0
H131 H 0.91776 0.51559 0.66183 0.0
H132 H 0.93145 0.48271 0.6589 0.0
H133 H 0.56497 0.43961 0.76694 0.0
C134 C 0.58013 0.45544 0.75976 0.0
C135 C 0.58982 0.48182 0.76716 0.0
C136 C 0.59133 0.4492 0.74425 0.0
H137 H 0.61706 0.52254 0.76376 0.0
C138 C 0.61023 0.50224 0.75827 0.0
C139 C 0.62175 0.49656 0.74251 0.0
C140 C 0.61215 0.4698 0.7358 0.0
C141 C 0.58308 0.42113 0.73836 0.0
H142 H 0.62128 0.46476 0.72429 0.0
C143 C 0.55621 0.4014 0.73497 0.0
C144 C 0.54883 0.37465 0.7307 0.0
C145 C 0.60233 0.41376 0.73712 0.0
H146 H 0.62308 0.4284 0.7399 0.0
C147 C 0.59505 0.38732 0.73285 0.0
H148 H 0.54114 0.40679 0.73579 0.0
C149 C 0.56852 0.36787 0.72975 0.0
H150 H 0.56334 0.34748 0.7263 0.0
H151 H 0.61004 0.38186 0.73203 0.0
H152 H 0.59668 0.14409 0.77332 0.0
C153 C 0.57885 0.14191 0.76584 0.0
C154 C 0.5546 0.1273 0.77378 0.0
C155 C 0.58022 0.1545 0.74861 0.0
H156 H 0.51344 0.11559 0.77092 0.0
C157 C 0.53181 0.12552 0.76428 0.0
C158 C 0.53277 0.13775 0.74702 0.0
C159 C 0.55698 0.15173 0.73913 0.0
C160 C 0.60589 0.17263 0.74122 0.0
H161 H 0.55786 0.16096 0.72565 0.0
C162 C 0.62516 0.16541 0.73849 0.0
C163 C 0.64862 0.18261 0.73024 0.0
C164 C 0.61071 0.19749 0.73626 0.0
H165 H 0.59656 0.20381 0.73855 0.0
C166 C 0.63366 0.21444 0.72815 0.0
H167 H 0.6217 0.14642 0.74252 0.0
C168 C 0.65226 0.20701 0.72492 0.0
H169 H 0.66938 0.22037 0.7179 0.0
H170 H 0.63689 0.23334 0.72411 0.0
H171 H 0.77893 0.53975 0.91328 0.0
C172 C 0.76421 0.54255 0.92008 0.0
C173 C 0.75456 0.55767 0.91132 0.0
C174 C 0.75445 0.53043 0.93726 0.0
H175 H 0.72659 0.57123 0.91302 0.0
C176 C 0.7349 0.56058 0.92008 0.0
C177 C 0.72491 0.54859 0.93729 0.0
C178 C 0.73535 0.53421 0.94595 0.0
C179 C 0.76247 0.51219 0.94557 0.0
H180 H 0.72827 0.52558 0.95952 0.0
C181 C 0.78886 0.51783 0.94694 0.0
C182 C 0.79585 0.50044 0.95544 0.0
C183 C 0.74316 0.48865 0.95232 0.0
H184 H 0.72263 0.48326 0.95098 0.0
C185 C 0.74995 0.47165 0.96087 0.0
H186 H 0.80384 0.53569 0.94154 0.0
C187 C 0.77601 0.47756 0.96264 0.0
H188 H 0.78058 0.46421 0.9699 0.0
H189 H 0.73491 0.45382 0.96627 0.0
H190 H 0.48581 0.25456 0.93289 0.0
C191 C 0.48416 0.23708 0.93876 0.0
C192 C 0.47186 0.21288 0.92669 0.0
C193 C 0.49538 0.23911 0.95802 0.0
H194 H 0.46127 0.17177 0.92506 0.0
C195 C 0.47097 0.19057 0.93412 0.0
C196 C 0.48193 0.19215 0.95336 0.0
C197 C 0.49378 0.21639 0.96522 0.0
C198 C 0.50985 0.26502 0.97044 0.0
H199 H 0.50225 0.21765 0.98007 0.0
C200 C 0.50067 0.28318 0.97085 0.0
C201 C 0.51419 0.30699 0.98338 0.0
C202 C 0.53317 0.27162 0.98221 0.0
H203 H 0.54126 0.2586 0.98183 0.0
C204 C 0.54657 0.29522 0.9945 0.0
H205 H 0.48277 0.27856 0.96195 0.0
C206 C 0.5371 0.31272 0.99521 0.0
H207 H 0.54793 0.33102 0.00482 0.0
H208 H 0.56443 0.3 0.0035 0.0
H209 H 0.75594 0.22335 0.9145 0.0
C210 C 0.77353 0.23964 0.92257 0.0
C211 C 0.79784 0.25018 0.91435 0.0
C212 C 0.77174 0.25089 0.94084 0.0
H213 H 0.83883 0.28097 0.91821 0.0
C214 C 0.82027 0.27213 0.92467 0.0
C215 C 0.8189 0.28339 0.94296 0.0
C216 C 0.79471 0.27231 0.95107 0.0
C217 C 0.7458 0.24294 0.94843 0.0
H218 H 0.79348 0.28126 0.96505 0.0
C219 C 0.72662 0.21625 0.95 0.0
C220 C 0.70283 0.20996 0.95825 0.0
C221 C 0.74054 0.26299 0.95463 0.0
H222 H 0.75453 0.28355 0.95322 0.0
C223 C 0.71737 0.25695 0.96281 0.0
H224 H 0.73035 0.20065 0.94504 0.0
C225 C 0.69887 0.23082 0.96484 0.0
H226 H 0.6815 0.22708 0.9719 0.0
H227 H 0.71384 0.27266 0.9678 0.0
H228 H 0.55149 0.79808 0.08702 0.0
C229 C 0.55007 0.78104 0.07866 0.0
C230 C 0.56702 0.77172 0.08446 0.0
C231 C 0.53007 0.76738 0.06308 0.0
H232 H 0.577 0.74138 0.07866 0.0
C233 C 0.56462 0.74923 0.07386 0.0
C234 C 0.54463 0.73525 0.05832 0.0
C235 C 0.5274 0.74442 0.05303 0.0
C236 C 0.5102 0.77539 0.05887 0.0
H237 H 0.51165 0.73342 0.04126 0.0
C238 C 0.51781 0.80183 0.05622 0.0
C239 C 0.49868 0.80934 0.05327 0.0
C240 C 0.48329 0.75657 0.05837 0.0
H241 H 0.47695 0.73618 0.06058 0.0
C242 C 0.46433 0.76399 0.05554 0.0
H243 H 0.53851 0.81648 0.05647 0.0
C244 C 0.47192 0.79019 0.05307 0.0
H245 H 0.45682 0.79541 0.05062 0.0
H246 H 0.44367 0.74937 0.05527 0.0
H247 H 0.23043 0.76655 0.09193 0.0
C248 C 0.24543 0.78321 0.08531 0.0
C249 C 0.25592 0.80897 0.09465 0.0
C250 C 0.25543 0.77851 0.06833 0.0
H251 H 0.28496 0.8501 0.09379 0.0
C252 C 0.27652 0.83027 0.08652 0.0
C253 C 0.28678 0.82606 0.06938 0.0
C254 C 0.27586 0.80006 0.06035 0.0
C255 C 0.24654 0.75092 0.06022 0.0
H256 H 0.2834 0.79647 0.04711 0.0
C257 C 0.21958 0.73129 0.05741 0.0
C258 C 0.21188 0.70491 0.05102 0.0
C259 C 0.26548 0.74381 0.05624 0.0
H260 H 0.2863 0.75832 0.05851 0.0
C261 C 0.25785 0.71774 0.04988 0.0
H262 H 0.20471 0.73643 0.0603 0.0
C263 C 0.23128 0.69838 0.04738 0.0
H264 H 0.22581 0.67827 0.04233 0.0
H265 H 0.27263 0.71249 0.04698 0.0
H266 H 0.25867 0.47496 0.10713 0.0
C267 C 0.24113 0.47202 0.09862 0.0
C268 C 0.21619 0.45584 0.10505 0.0
C269 C 0.2436 0.48601 0.08204 0.0
H270 H 0.17445 0.43941 0.09861 0.0
C271 C 0.19366 0.45275 0.0941 0.0
C272 C 0.19565 0.46705 0.07781 0.0
C273 C 0.22079 0.48344 0.07185 0.0
C274 C 0.26994 0.50533 0.07622 0.0
H275 H 0.22288 0.49503 0.05957 0.0
C276 C 0.28973 0.49872 0.07393 0.0
C277 C 0.31394 0.51695 0.06712 0.0
C278 C 0.27497 0.53061 0.07231 0.0
H279 H 0.26042 0.53647 0.07432 0.0
C280 C 0.29869 0.54862 0.06563 0.0
H281 H 0.28607 0.47939 0.07719 0.0
C282 C 0.31784 0.54181 0.0628 0.0
H283 H 0.3356 0.55604 0.05687 0.0
H284 H 0.30212 0.56787 0.06238 0.0
H285 H 0.45086 0.88159 0.24851 0.0
C286 C 0.43535 0.88321 0.25511 0.0
C287 C 0.4249 0.89768 0.24648 0.0
C288 C 0.42437 0.86894 0.27118 0.0
H289 H 0.39531 0.90906 0.24775 0.0
C290 C 0.40371 0.89833 0.25456 0.0
C291 C 0.39275 0.8845 0.27092 0.0
C292 C 0.40345 0.87004 0.27916 0.0
C293 C 0.4319 0.84979 0.27785 0.0
H294 H 0.39517 0.85908 0.29165 0.0
C295 C 0.45812 0.85753 0.28454 0.0
C296 C 0.46449 0.83862 0.29076 0.0
C297 C 0.41227 0.82308 0.27714 0.0
H298 H 0.39205 0.81666 0.27189 0.0
C299 C 0.41852 0.8043 0.28277 0.0
H300 H 0.47321 0.87819 0.28535 0.0
C301 C 0.44435 0.8119 0.28942 0.0
H302 H 0.44854 0.79666 0.29334 0.0
H303 H 0.40328 0.78371 0.28189 0.0
H304 H 0.15161 0.58583 0.26277 0.0
C305 C 0.15108 0.5688 0.26861 0.0
C306 C 0.14045 0.54486 0.25639 0.0
C307 C 0.1613 0.57094 0.28821 0.0
H308 H 0.13366 0.5051 0.25414 0.0
C309 C 0.14067 0.52307 0.26386 0.0
C310 C 0.15077 0.52473 0.28347 0.0
C311 C 0.16018 0.54853 0.29559 0.0
C312 C 0.17449 0.59672 0.30087 0.0
H313 H 0.16679 0.5497 0.31098 0.0
C314 C 0.1649 0.61454 0.30054 0.0
C315 C 0.1774 0.63824 0.31324 0.0
C316 C 0.19721 0.6036 0.31356 0.0
H317 H 0.20567 0.59092 0.31377 0.0
C318 C 0.20955 0.62706 0.32603 0.0
H319 H 0.1475 0.60978 0.29091 0.0
C320 C 0.19966 0.64419 0.32599 0.0
H321 H 0.20968 0.66241 0.33575 0.0
H322 H 0.22694 0.63202 0.33573 0.0
H323 H 0.43166 0.55846 0.25611 0.0
C324 C 0.44876 0.57246 0.266 0.0
C325 C 0.47413 0.58338 0.25951 0.0
C326 C 0.44524 0.58135 0.28461 0.0
H327 H 0.5156 0.61115 0.26742 0.0
C328 C 0.49604 0.60246 0.27228 0.0
C329 C 0.49284 0.61158 0.29081 0.0
C330 C 0.46746 0.60074 0.2969 0.0
C331 C 0.41848 0.57349 0.29041 0.0
H332 H 0.46492 0.60803 0.31112 0.0
C333 C 0.39833 0.54676 0.29005 0.0
C334 C 0.37363 0.54031 0.29673 0.0
C335 C 0.41342 0.59355 0.29691 0.0
H336 H 0.4283 0.6142 0.29703 0.0
C337 C 0.38928 0.58737 0.30345 0.0
H338 H 0.40201 0.53121 0.28488 0.0
C339 C 0.3697 0.56111 0.30359 0.0
H340 H 0.35156 0.55718 0.30948 0.0
H341 H 0.38582 0.60305 0.30868 0.0
C342 C 0.52732 0.01499 0.06819 0.0
Eu343 Eu 0.51404 0.01609 0.03121 0.0
C344 C 0.51448 1.00079 0.08519 0.0
C345 C 0.49232 1.0009 0.09173 0.0
C346 C 0.48155 0.98882 0.10861 0.0
C347 C 0.49255 0.97619 0.11922 0.0
C348 C 0.5142 0.97539 0.11229 0.0
C349 C 0.5251 0.98765 0.0955 0.0
C350 C 0.50305 0.05151 0.01614 0.0
C351 C 0.45039 0.97412 0.02088 0.0
C352 C 0.47565 0.00352 0.95153 0.0
Eu353 Eu 0.48915 1.00184 0.98826 0.0
C354 C 0.48827 0.01902 0.93501 0.0
C355 C 0.48915 0.00578 0.9175 0.0
C356 C 0.50073 0.01974 0.90154 0.0
C357 C 0.51153 0.04729 0.90267 0.0
C358 C 0.51076 0.06062 0.92024 0.0
C359 C 0.49934 0.04664 0.93631 0.0
C360 C 0.49934 0.96578 0.0029 0.0
C361 C 0.55278 0.0439 0.99879 0.0
O362 O 0.52992 1.00116 0.05364 0.0
O363 O 0.52076 0.03184 0.06202 0.0
O364 O 0.52358 0.05812 0.02837 0.0
O365 O 0.48861 0.02671 0.01338 0.0
O366 O 0.47191 0.9836 0.03334 0.0
O367 O 0.45133 0.98069 1.00257 0.0
O368 O 0.47147 0.01562 0.96643 0.0
O369 O 0.48389 0.98769 0.95712 0.0
O370 O 0.47922 0.95984 0.99041 0.0
O371 O 0.51424 0.99059 0.00611 0.0
O372 O 0.53135 0.03447 0.98623 0.0
O373 O 0.55185 0.03729 0.01707 0.0
H374 H 0.48346 0.01058 0.08398 0.0
H375 H 0.46462 0.98941 0.11341 0.0
H376 H 0.52319 0.96592 0.12019 0.0
H377 H 0.54214 0.98725 0.09073 0.0
H378 H 0.48068 0.98451 0.91611 0.0
H379 H 0.50066 0.00886 0.88812 0.0
H380 H 0.51908 0.08186 0.92158 0.0
H381 H 0.49911 0.05746 0.94966 0.0
C382 C 0.0086 0.52307 0.06559 0.0
Eu383 Eu 1.00285 0.50552 0.02848 0.0
C384 C 0.02462 0.52689 0.08422 0.0
C385 C 0.01306 0.52424 0.10195 0.0
C386 C 0.0273 0.52705 0.11992 0.0
C387 C 0.05354 0.53271 0.12059 0.0
C388 C 0.06512 0.5353 0.10271 0.0
C389 C 0.05076 0.53237 0.08466 0.0
C390 C 0.96526 0.45612 0.0132 0.0
C391 C 0.04344 0.48431 0.02045 0.0
C392 C 0.99828 0.4667 0.9505 0.0
Eu393 Eu 0.00766 0.48901 0.98654 0.0
C394 C 0.98392 0.46473 0.93145 0.0
C395 C 0.98466 0.48694 0.92407 0.0
C396 C 0.97239 0.48474 0.90526 0.0
C397 C 0.95913 0.46028 0.89355 0.0
C398 C 0.95757 0.43793 0.90139 0.0
C399 C 0.96988 0.44017 0.92013 0.0
C400 C 0.04612 0.53827 1.00085 0.0
C401 C 0.96865 0.51301 0.99457 0.0
O402 O 0.02021 0.53832 0.05181 0.0
O403 O 0.9923 0.49858 0.05856 0.0
O404 O 0.96045 0.47192 0.0239 0.0
O405 O 0.98954 0.46676 0.01148 0.0
O406 O 0.03846 0.50017 0.03161 0.0
O407 O 0.03035 0.47322 0.00294 0.0
O408 O 0.98398 0.45508 0.9647 0.0
O409 O 0.01911 0.48954 0.9567 0.0
O410 O 0.04963 0.52246 0.98894 0.0
O411 O 0.02206 0.52821 0.00364 0.0
O412 O 0.97546 0.49956 0.98235 0.0
O413 O 0.97904 0.52065 0.01312 0.0
H414 H 0.99284 0.51975 0.10189 0.0
H415 H 0.01754 0.52437 0.13329 0.0
H416 H 0.08533 0.53982 0.10269 0.0
H417 H 0.06001 0.53434 0.07109 0.0
H418 H 0.99516 0.50609 0.93265 0.0
H419 H 0.97405 0.50235 0.89965 0.0
H420 H 0.94704 0.4187 0.89295 0.0
H421 H 0.96883 0.42274 0.92565 0.0
C422 C 0.486 0.48902 0.95153 0.0
Eu423 Eu 0.50123 0.50858 0.98837 0.0
C424 C 0.49862 0.49034 0.93322 0.0
C425 C 0.51994 0.51414 0.92852 0.0
C426 C 0.53112 0.51505 0.91081 0.0
C427 C 0.52141 0.49214 0.89759 0.0
C428 C 0.50043 0.46827 0.90254 0.0
C429 C 0.48911 0.46742 0.92015 0.0
C430 C 0.5114 0.55625 0.00457 0.0
C431 C 0.56563 0.5355 0.99568 0.0
C432 C 0.54385 0.53766 0.06784 0.0
Eu433 Eu 0.52809 0.52296 0.03024 0.0
C434 C 0.53428 0.54292 0.08615 0.0
C435 C 0.50726 0.53101 0.08833 0.0
C436 C 0.49869 0.5344 0.10647 0.0
C437 C 0.51702 0.54975 0.12279 0.0
C438 C 0.54405 0.56228 0.12026 0.0
C439 C 0.55255 0.55885 0.10215 0.0
C440 C 0.51862 0.47616 0.01258 0.0
C441 C 0.46456 0.50016 0.02232 0.0
O442 O 0.49009 0.47639 0.96523 0.0
O443 O 0.487 0.5107 0.95872 0.0
O444 O 0.49141 0.54101 0.9918 0.0
O445 O 0.52658 0.54695 0.00691 0.0
O446 O 0.54372 0.52224 0.9836 0.0
O447 O 0.56523 0.54093 0.01475 0.0
O448 O 0.54929 0.55436 0.05453 0.0
O449 O 0.53187 0.51309 0.06007 0.0
O450 O 0.53994 0.49251 0.02374 0.0
O451 O 0.50271 0.48467 0.01174 0.0
O452 O 0.48661 0.51474 0.03409 0.0
O453 O 0.4646 0.49167 0.00397 0.0
H454 H 0.52788 0.53205 0.93849 0.0
H455 H 0.54748 0.53363 0.9075 0.0
H456 H 0.49243 0.45034 0.89258 0.0
H457 H 0.47276 0.44886 0.92352 0.0
H458 H 0.49281 0.51861 0.07616 0.0
H459 H 0.47775 0.52436 0.10787 0.0
H460 H 0.55871 0.57468 0.13233 0.0
H461 H 0.57348 0.56829 0.10076 0.0
C462 C 0.19129 0.34802 0.40026 0.0
Eu463 Eu 0.17889 0.34676 0.36269 0.0
C464 C 0.17884 0.33263 0.41693 0.0
C465 C 0.15714 0.33264 0.42454 0.0
C466 C 0.14661 0.3193 0.44101 0.0
C467 C 0.15744 0.30555 0.45023 0.0
C468 C 0.17866 0.30494 0.4423 0.0
C469 C 0.18931 0.31843 0.42588 0.0
C470 C 0.16811 0.38101 0.34533 0.0
C471 C 0.11586 0.30367 0.35236 0.0
C472 C 0.14174 0.32798 0.28236 0.0
Eu473 Eu 0.15523 0.32976 0.31978 0.0
C474 C 0.15363 0.34189 0.26502 0.0
C475 C 0.15631 0.32783 0.2488 0.0
C476 C 0.16673 0.34025 0.23198 0.0
C477 C 0.17465 0.36704 0.23097 0.0
C478 C 0.17227 0.38122 0.24733 0.0
C479 C 0.16179 0.36875 0.26415 0.0
C480 C 0.16486 0.29463 0.33684 0.0
C481 C 0.21855 0.37308 0.33059 0.0
O482 O 0.19764 0.33641 0.38642 0.0
O483 O 0.18157 0.36197 0.39314 0.0
O484 O 0.18836 0.38843 0.35804 0.0
O485 O 0.15372 0.3562 0.34321 0.0
O486 O 0.13728 0.31357 0.36493 0.0
O487 O 0.11704 0.30955 0.33386 0.0
O488 O 0.13699 0.34089 0.29635 0.0
O489 O 0.15094 0.31353 0.28932 0.0
O490 O 0.14503 0.28815 0.32391 0.0
O491 O 0.17987 0.31949 0.33932 0.0
O492 O 0.19749 0.36235 0.31752 0.0
O493 O 0.21708 0.36772 0.34919 0.0
H494 H 0.14842 0.3432 0.41794 0.0
H495 H 0.13 0.3198 0.44658 0.0
H496 H 0.18754 0.29466 0.44914 0.0
H497 H 0.20603 0.31809 0.42036 0.0
H498 H 0.15012 0.30709 0.24907 0.0
H499 H 0.16853 0.32883 0.21973 0.0
H500 H 0.17782 0.40177 0.24693 0.0
H501 H 0.15973 0.38004 0.27632 0.0
C502 C 0.67633 0.86181 0.39945 0.0
Eu503 Eu 0.67085 0.83796 0.3646 0.0
C504 C 0.68547 0.86092 0.41979 0.0
C505 C 0.68414 0.83789 0.42595 0.0
C506 C 0.69451 0.83804 0.44502 0.0
C507 C 0.70664 0.8613 0.45813 0.0
C508 C 0.7077 0.88422 0.45189 0.0
C509 C 0.6972 0.884 0.4329 0.0
C510 C 0.64329 0.78512 0.35254 0.0
C511 C 0.70992 0.8175 0.35304 0.0
C512 C 0.65927 0.79359 0.28414 0.0
Eu513 Eu 0.67178 0.82068 0.3186 0.0
C514 C 0.6564 0.79525 0.26276 0.0
C515 C 0.67589 0.8154 0.2531 0.0
C516 C 0.67189 0.81606 0.23269 0.0
C517 C 0.64836 0.79659 0.22172 0.0
C518 C 0.62895 0.77665 0.23162 0.0
C519 C 0.633 0.77595 0.25185 0.0
C520 C 0.7079 0.87292 0.32962 0.0
C521 C 0.63432 0.84477 0.32967 0.0
O522 O 0.69454 0.87058 0.38722 0.0
O523 O 0.65406 0.84136 0.39154 0.0
O524 O 0.6532 0.79461 0.37069 0.0
O525 O 0.64637 0.80369 0.34258 0.0
O526 O 0.70716 0.83449 0.36485 0.0
O527 O 0.69456 0.80544 0.33632 0.0
O528 O 0.64238 0.79617 0.2943 0.0
O529 O 0.683 0.80497 0.29348 0.0
O530 O 0.70537 0.86134 0.3121 0.0
O531 O 0.69082 0.8561 0.33915 0.0
O532 O 0.64176 0.83365 0.31593 0.0
O533 O 0.64379 0.84972 0.34859 0.0
H534 H 0.67548 0.81995 0.41594 0.0
H535 H 0.69365 0.82016 0.44932 0.0
H536 H 0.71666 0.90235 0.46171 0.0
H537 H 0.69856 0.902 0.42835 0.0
H538 H 0.69409 0.8306 0.26128 0.0
H539 H 0.68723 0.83164 0.22549 0.0
H540 H 0.61034 0.76172 0.22378 0.0
H541 H 0.61763 0.76035 0.25905 0.0
C542 C 0.14831 0.81942 0.27726 0.0
Eu543 Eu 0.16283 0.83812 0.31431 0.0
C544 C 0.16104 0.81925 0.25928 0.0
C545 C 0.15014 0.8213 0.24109 0.0
C546 C 0.16213 0.82196 0.22387 0.0
C547 C 0.18531 0.82055 0.22446 0.0
C548 C 0.19619 0.81842 0.24274 0.0
C549 C 0.18421 0.81787 0.26002 0.0
C550 C 0.17179 0.88544 0.33028 0.0
C551 C 0.22729 0.86541 0.32279 0.0
C552 C 0.20344 0.87326 0.39357 0.0
Eu553 Eu 0.18923 0.85443 0.35651 0.0
C554 C 0.19106 0.87538 0.41142 0.0
C555 C 0.19056 0.86089 0.42726 0.0
C556 C 0.17986 0.86315 0.44455 0.0
C557 C 0.16957 0.88015 0.44653 0.0
C558 C 0.16991 0.89457 0.43062 0.0
C559 C 0.18048 0.89218 0.41324 0.0
C560 C 0.18079 0.80731 0.34046 0.0
C561 C 0.12498 0.82805 0.34787 0.0
O562 O 0.14963 0.80555 0.29122 0.0
O563 O 0.15202 0.8424 0.28418 0.0
O564 O 0.151 0.86912 0.31855 0.0
O565 O 0.18748 0.87679 0.33222 0.0
O566 O 0.20556 0.85087 0.31067 0.0
O567 O 0.22649 0.87243 0.34141 0.0
O568 O 0.20434 0.88765 0.37931 0.0
O569 O 0.19803 0.84952 0.38697 0.0
O570 O 0.20151 0.82394 0.35216 0.0
O571 O 0.16467 0.81551 0.33858 0.0
O572 O 0.14665 0.84246 0.36004 0.0
O573 O 0.12563 0.82065 0.32933 0.0
H574 H 0.13232 0.82245 0.24022 0.0
H575 H 0.15305 0.82326 0.21001 0.0
H576 H 0.21415 0.81754 0.24372 0.0
H577 H 0.19312 0.81649 0.27393 0.0
H578 H 0.19877 0.84799 0.42637 0.0
H579 H 0.1803 0.85209 0.4566 0.0
H580 H 0.16198 0.90771 0.43162 0.0
H581 H 0.18055 0.90366 0.40132 0.0
C582 C 0.86004 0.68525 0.73687 0.0
Eu583 Eu 0.84703 0.68238 0.69909 0.0
C584 C 0.84934 0.67 0.75381 0.0
C585 C 0.86065 0.68189 0.77296 0.0
C586 C 0.85007 0.66851 0.7894 0.0
C587 C 0.82786 0.64288 0.78704 0.0
C588 C 0.81665 0.63092 0.76774 0.0
C589 C 0.82732 0.64436 0.75127 0.0
C590 C 0.83344 0.71554 0.68291 0.0
C591 C 0.78534 0.63678 0.68829 0.0
C592 C 0.80901 0.66641 0.61926 0.0
Eu593 Eu 0.82337 0.66653 0.65626 0.0
C594 C 0.82049 0.68048 0.60185 0.0
C595 C 0.82225 0.66638 0.58521 0.0
C596 C 0.83188 0.67881 0.56822 0.0
C597 C 0.83981 0.70563 0.5674 0.0
C598 C 0.83827 0.71985 0.58414 0.0
C599 C 0.82876 0.70744 0.6012 0.0
C600 C 0.83689 0.63276 0.67143 0.0
C601 C 0.88615 0.71137 0.66711 0.0
O602 O 0.86789 0.67495 0.72318 0.0
O603 O 0.84704 0.69599 0.72952 0.0
O604 O 0.85436 0.72347 0.69502 0.0
O605 O 0.82017 0.69065 0.68059 0.0
O606 O 0.80716 0.64557 0.70021 0.0
O607 O 0.78567 0.64517 0.67069 0.0
O608 O 0.80567 0.67959 0.63387 0.0
O609 O 0.81728 0.65083 0.62536 0.0
O610 O 0.81662 0.62554 0.65873 0.0
O611 O 0.85022 0.65771 0.6747 0.0
O612 O 0.86493 0.70055 0.6542 0.0
O613 O 0.8851 0.7054 0.68558 0.0
H614 H 0.8775 0.70176 0.77522 0.0
H615 H 0.85897 0.67851 0.80399 0.0
H616 H 0.79971 0.61113 0.76536 0.0
H617 H 0.81826 0.63483 0.7366 0.0
H618 H 0.8158 0.64556 0.58523 0.0
H619 H 0.83243 0.66718 0.55552 0.0
H620 H 0.84441 0.74059 0.58404 0.0
H621 H 0.82767 0.71892 0.61377 0.0
C622 C 0.33765 0.18625 0.73613 0.0
Eu623 Eu 0.33616 0.17235 0.69881 0.0
C624 C 0.35333 0.18982 0.75483 0.0
C625 C 0.34161 0.18699 0.7725 0.0
C626 C 0.35566 0.18938 0.79046 0.0
C627 C 0.38176 0.19465 0.79109 0.0
C628 C 0.39358 0.19769 0.77332 0.0
C629 C 0.37943 0.19522 0.7553 0.0
C630 C 0.29888 0.12564 0.6792 0.0
C631 C 0.37673 0.15039 0.69248 0.0
C632 C 0.34577 0.1474 0.62063 0.0
Eu633 Eu 0.34711 0.16192 0.65772 0.0
C634 C 0.3314 0.14453 0.60137 0.0
C635 C 0.34586 0.15621 0.58558 0.0
C636 C 0.33304 0.15317 0.56693 0.0
C637 C 0.30542 0.13816 0.56363 0.0
C638 C 0.29089 0.12687 0.5796 0.0
C639 C 0.30377 0.13006 0.59834 0.0
C640 C 0.38513 0.20832 0.67712 0.0
C641 C 0.30604 0.18344 0.66415 0.0
O642 O 0.34923 0.20316 0.72328 0.0
O643 O 0.32333 0.16195 0.72797 0.0
O644 O 0.29365 0.14048 0.69065 0.0
O645 O 0.32343 0.13545 0.67921 0.0
O646 O 0.36954 0.16389 0.70422 0.0
O647 O 0.36753 0.14365 0.67366 0.0
O648 O 0.33304 0.1308 0.63341 0.0
O649 O 0.36112 0.17157 0.62879 0.0
O650 O 0.38956 0.19313 0.66535 0.0
O651 O 0.36064 0.19911 0.6775 0.0
O652 O 0.31405 0.17094 0.65214 0.0
O653 O 0.31468 0.18961 0.68308 0.0
H654 H 0.32148 0.1828 0.77239 0.0
H655 H 0.34613 0.1873 0.8039 0.0
H656 H 0.41357 0.20153 0.77332 0.0
H657 H 0.38878 0.19732 0.74177 0.0
H658 H 0.36718 0.16756 0.58765 0.0
H659 H 0.34479 0.1625 0.55505 0.0
H660 H 0.26961 0.11498 0.57751 0.0
H661 H 0.29213 0.12093 0.61032 0.0
C662 C 0.81731 0.15392 0.61038 0.0
Eu663 Eu 0.83252 0.17288 0.64735 0.0
C664 C 0.82983 0.15313 0.59237 0.0
C665 C 0.8537 0.17485 0.58831 0.0
C666 C 0.8647 0.17404 0.57079 0.0
C667 C 0.85213 0.15144 0.55698 0.0
C668 C 0.82853 0.12954 0.56139 0.0
C669 C 0.8175 0.13043 0.57886 0.0
C670 C 0.84305 0.2208 0.66322 0.0
C671 C 0.89698 0.19908 0.65463 0.0
C672 C 0.87503 0.20859 0.72584 0.0
Eu673 Eu 0.86013 0.18934 0.6889 0.0
C674 C 0.86258 0.21034 0.74377 0.0
C675 C 0.86269 0.19616 0.75966 0.0
C676 C 0.85175 0.19799 0.77694 0.0
C677 C 0.84063 0.21426 0.77886 0.0
C678 C 0.84034 0.22836 0.7629 0.0
C679 C 0.85114 0.22638 0.74552 0.0
C680 C 0.85014 0.1415 0.67318 0.0
C681 C 0.79579 0.16364 0.68145 0.0
O682 O 0.81838 0.13993 0.6243 0.0
O683 O 0.82136 0.17704 0.61735 0.0
O684 O 0.82137 0.20437 0.6524 0.0
O685 O 0.85847 0.21178 0.6646 0.0
O686 O 0.87483 0.1845 0.64296 0.0
O687 O 0.89691 0.20666 0.67326 0.0
O688 O 0.87527 0.22272 0.71157 0.0
O689 O 0.87017 0.18503 0.71925 0.0
O690 O 0.87141 0.15811 0.68438 0.0
O691 O 0.83439 0.15018 0.67157 0.0
O692 O 0.81786 0.178 0.69322 0.0
O693 O 0.79577 0.15595 0.66286 0.0
H694 H 0.8637 0.19259 0.59856 0.0
H695 H 0.88276 0.19135 0.56789 0.0
H696 H 0.81856 0.1116 0.55136 0.0
H697 H 0.79919 0.11338 0.58177 0.0
H698 H 0.87153 0.18382 0.7588 0.0
H699 H 0.85264 0.18718 0.78903 0.0
H700 H 0.83175 0.24091 0.76385 0.0
H701 H 0.85066 0.23757 0.73356 0.0
C702 C 0.33004 0.84523 0.05461 0.0
C703 C 0.30971 0.84851 0.06148 0.0
C704 C 0.35201 0.86617 0.04749 0.0
C705 C 0.35398 0.89123 0.04733 0.0
C706 C 0.33353 0.89471 0.05414 0.0
C707 C 0.31166 0.87334 0.06108 0.0
C708 C 0.37335 0.86156 0.04041 0.0
C709 C 0.33491 0.92111 0.0543 0.0
C710 C 0.42341 0.94985 0.04772 0.0
C711 C 0.42489 0.95443 0.02769 0.0
C712 C 0.40027 0.92991 0.05436 0.0
C713 C 0.37793 0.91392 0.04067 0.0
C714 C 0.37901 0.91886 0.02052 0.0
C715 C 0.40244 0.93909 0.01428 0.0
C716 C 0.40001 0.92553 0.07599 0.0
C717 C 0.35569 0.90221 0.00543 0.0
H718 H 0.32908 0.82635 0.05517 0.0
H719 H 0.29598 0.87607 0.06612 0.0
H720 H 0.37681 0.867 0.02509 0.0
H721 H 0.3921 0.87437 0.04985 0.0
H722 H 0.36837 0.84066 0.04071 0.0
H723 H 0.31717 0.92048 0.05966 0.0
H724 H 0.35252 0.93627 0.06394 0.0
H725 H 0.33702 0.9276 0.03921 0.0
H726 H 0.44054 0.96163 0.05828 0.0
H727 H 0.40335 0.94236 0.99879 0.0
H728 H 0.3974 0.9057 0.07776 0.0
H729 H 0.38315 0.92601 0.08203 0.0
H730 H 0.41847 0.9406 0.08491 0.0
H731 H 0.35143 0.88147 0.00422 0.0
H732 H 0.35912 0.90947 0.99058 0.0
H733 H 0.33791 0.90203 0.0102 0.0
C734 C 0.15141 0.46378 0.07924 0.0
C735 C 0.17183 0.46649 0.06809 0.0
C736 C 0.12961 0.46463 0.07069 0.0
C737 C 0.12851 0.46936 0.05064 0.0
C738 C 0.14882 0.47194 0.03919 0.0
C739 C 0.16992 0.46997 0.04794 0.0
C740 C 0.10806 0.46114 0.08332 0.0
C741 C 0.14874 0.4777 0.01789 0.0
C742 C 0.06332 0.45558 0.02435 0.0
C743 C 0.06524 0.48031 0.02749 0.0
C744 C 0.08372 0.45162 0.03186 0.0
C745 C 0.10691 0.47318 0.04205 0.0
C746 C 0.10918 0.4984 0.04465 0.0
C747 C 0.08812 0.50152 0.03766 0.0
C748 C 0.08016 0.42425 0.02941 0.0
C749 C 0.13383 0.52212 0.05487 0.0
H750 H 0.15266 0.46172 0.0949 0.0
H751 H 0.18511 0.47153 0.03895 0.0
H752 H 0.10834 0.48013 0.08588 0.0
H753 H 0.08848 0.44644 0.07565 0.0
H754 H 0.11029 0.45454 0.0979 0.0
H755 H 0.16575 0.47873 0.0109 0.0
H756 H 0.13031 0.46227 0.00922 0.0
H757 H 0.14937 0.49684 0.01701 0.0
H758 H 0.04552 0.43915 0.01658 0.0
H759 H 0.08971 0.52075 0.03988 0.0
H760 H 0.0811 0.4175 0.04415 0.0
H761 H 0.09633 0.42454 0.02167 0.0
H762 H 0.06107 0.40966 0.02097 0.0
H763 H 0.1364 0.51916 0.07059 0.0
H764 H 0.13324 0.54071 0.05426 0.0
H765 H 0.15136 0.52445 0.04795 0.0
C766 C 0.51548 0.68678 0.04879 0.0
C767 C 0.54019 0.70966 0.04908 0.0
C768 C 0.51132 0.66202 0.04138 0.0
C769 C 0.53225 0.66019 0.03369 0.0
C770 C 0.55711 0.68335 0.03357 0.0
C771 C 0.56087 0.70779 0.0415 0.0
C772 C 0.48468 0.63774 0.04216 0.0
C773 C 0.57973 0.68228 0.02513 0.0
C774 C 0.52882 0.59357 0.03124 0.0
C775 C 0.51806 0.58328 0.01177 0.0
C776 C 0.53364 0.61862 0.03859 0.0
C777 C 0.5281 0.63396 0.02595 0.0
C778 C 0.51776 0.62383 0.00608 0.0
C779 C 0.51246 0.5984 0.99933 0.0
C780 C 0.54394 0.62833 0.06002 0.0
C781 C 0.51212 0.63975 0.99201 0.0
H782 H 0.49959 0.68818 0.05493 0.0
H783 H 0.57996 0.72551 0.04171 0.0
H784 H 0.47619 0.62774 0.02707 0.0
H785 H 0.4868 0.62345 0.05096 0.0
H786 H 0.47059 0.64252 0.04881 0.0
H787 H 0.59747 0.7022 0.02543 0.0
H788 H 0.58505 0.66978 0.03365 0.0
H789 H 0.57378 0.67306 0.00964 0.0
H790 H 0.53247 0.58161 0.04094 0.0
H791 H 0.50411 0.5904 0.98423 0.0
H792 H 0.52966 0.63178 0.0677 0.0
H793 H 0.56269 0.64749 0.06118 0.0
H794 H 0.54738 0.61405 0.06784 0.0
H795 H 0.49649 0.64323 0.99718 0.0
H796 H 0.50564 0.6297 0.97674 0.0
H797 H 0.52998 0.6594 0.99167 0.0
C798 C 0.85672 0.32955 0.94224 0.0
C799 C 0.84218 0.30792 0.95294 0.0
C800 C 0.87761 0.3535 0.95166 0.0
C801 C 0.88432 0.35584 0.97228 0.0
C802 C 0.87017 0.33383 0.98305 0.0
C803 C 0.84918 0.31022 0.97329 0.0
C804 C 0.89197 0.37655 0.93965 0.0
C805 C 0.87694 0.33537 0.00498 0.0
C806 C 0.95139 0.41237 0.99456 0.0
C807 C 0.94475 0.43045 1.0028 0.0
C808 C 0.93195 0.38795 0.98465 0.0
C809 C 0.9053 0.38165 0.98273 0.0
C810 C 0.8986 0.40004 0.99087 0.0
C811 C 0.91837 0.4241 1.00094 0.0
C812 C 0.9399 0.36884 0.97632 0.0
C813 C 0.87054 0.39437 0.98886 0.0
H814 H 0.8512 0.32803 0.92656 0.0
H815 H 0.83816 0.2935 0.98159 0.0
H816 H 0.88891 0.39299 0.94492 0.0
H817 H 0.91345 0.38409 0.94164 0.0
H818 H 0.88514 0.37118 0.92364 0.0
H819 H 0.86509 0.31609 0.011 0.0
H820 H 0.89812 0.34195 0.00817 0.0
H821 H 0.87345 0.35023 0.0129 0.0
H822 H 0.97179 0.41724 0.996 0.0
H823 H 0.9132 0.43814 0.00716 0.0
H824 H 0.9345 0.36467 0.96011 0.0
H825 H 0.92909 0.34977 0.98279 0.0
H826 H 0.96137 0.37655 0.97929 0.0
H827 H 0.8629 0.39041 0.97302 0.0
H828 H 0.86871 0.41101 0.99558 0.0
H829 H 0.85783 0.37638 0.99607 0.0
C830 C 0.68195 0.52651 0.95218 0.0
C831 C 0.70248 0.54947 0.94576 0.0
C832 C 0.66085 0.5267 0.96059 0.0
C833 C 0.66 0.55041 0.96259 0.0
C834 C 0.68051 0.57366 0.95601 0.0
C835 C 0.70149 0.57291 0.94764 0.0
C836 C 0.63933 0.50138 0.96722 0.0
C837 C 0.68028 0.59929 0.95783 0.0
C838 C 0.59136 0.53965 0.96679 0.0
C839 C 0.59094 0.54284 0.98735 0.0
C840 C 0.61407 0.54331 0.95851 0.0
C841 C 0.6371 0.55034 0.97103 0.0
C842 C 0.63723 0.55482 0.99173 0.0
C843 C 0.61417 0.55105 0.99965 0.0
C844 C 0.61297 0.53839 0.93637 0.0
C845 C 0.66137 0.56234 0.0056 0.0
H846 H 0.6822 0.50816 0.95043 0.0
H847 H 0.71732 0.59076 0.94283 0.0
H848 H 0.63725 0.50439 0.98309 0.0
H849 H 0.62021 0.49563 0.95884 0.0
H850 H 0.64322 0.48477 0.96505 0.0
H851 H 0.6978 0.61569 0.95223 0.0
H852 H 0.6623 0.59673 0.94945 0.0
H853 H 0.67967 0.60499 0.97352 0.0
H854 H 0.57364 0.53355 0.95708 0.0
H855 H 0.61409 0.55357 0.01552 0.0
H856 H 0.6144 0.5205 0.93272 0.0
H857 H 0.62989 0.55521 0.93062 0.0
H858 H 0.59444 0.53542 0.92858 0.0
H859 H 0.665 0.54551 0.00551 0.0
H860 H 0.65924 0.5677 0.02101 0.0
H861 H 0.67897 0.57928 1.0006 0.0
C862 C 0.48913 0.15341 0.94942 0.0
C863 C 0.48185 0.16884 0.96101 0.0
C864 C 0.49134 0.13279 0.95713 0.0
C865 C 0.48605 0.12744 0.97687 0.0
C866 C 0.47779 0.14234 0.98839 0.0
C867 C 0.47582 0.16284 0.98033 0.0
C868 C 0.50016 0.11732 0.94438 0.0
C869 C 0.47176 0.13713 0.00944 0.0
C870 C 0.47428 0.06263 0.99517 0.0
C871 C 0.49868 0.0705 0.00558 0.0
C872 C 0.46999 0.08079 0.98535 0.0
C873 C 0.49063 0.10738 0.98597 0.0
C874 C 0.51548 0.11522 0.99613 0.0
C875 C 0.51916 0.0967 0.00588 0.0
C876 C 0.44324 0.07165 0.97466 0.0
C877 C 0.53813 0.14327 0.99695 0.0
H878 H 0.49401 0.15806 0.93453 0.0
H879 H 0.46978 0.17441 0.98926 0.0
H880 H 0.51934 0.12052 0.95094 0.0
H881 H 0.48582 0.09585 0.94375 0.0
H882 H 0.50235 0.1231 0.92906 0.0
H883 H 0.46413 0.14944 0.01603 0.0
H884 H 0.457 0.11599 0.01011 0.0
H885 H 0.48988 0.14138 0.01863 0.0
H886 H 0.45841 0.04236 0.99495 0.0
H887 H 0.53814 0.10278 0.01375 0.0
H888 H 0.4452 0.07638 0.95911 0.0
H889 H 0.43422 0.08231 0.98171 0.0
H890 H 0.4297 0.05006 0.97476 0.0
H891 H 0.542 0.14917 0.98178 0.0
H892 H 0.55652 0.14586 0.00469 0.0
H893 H 0.53295 0.15695 0.00473 0.0
C894 C 0.65542 0.17497 0.95897 0.0
C895 C 0.68214 0.18217 0.96085 0.0
C896 C 0.63583 0.15082 0.96459 0.0
C897 C 0.64277 0.1326 0.97149 0.0
C898 C 0.66935 0.13873 0.97199 0.0
C899 C 0.68878 0.16356 0.96692 0.0
C900 C 0.60785 0.1454 0.96399 0.0
C901 C 0.67739 0.11941 0.9785 0.0
C902 C 0.59598 0.08603 0.00581 0.0
C903 C 0.57802 0.06449 0.99246 0.0
C904 C 0.61779 0.10791 0.99931 0.0
C905 C 0.62221 0.1079 0.97907 0.0
C906 C 0.60505 0.08537 0.96579 0.0
C907 C 0.5829 0.06418 0.97256 0.0
C908 C 0.63503 0.13176 0.01389 0.0
C909 C 0.60939 0.08408 0.94424 0.0
H910 H 0.64979 0.18867 0.95364 0.0
H911 H 0.70925 0.16873 0.96844 0.0
H912 H 0.59441 0.12692 0.95441 0.0
H913 H 0.60125 0.14255 0.97904 0.0
H914 H 0.60575 0.16172 0.95838 0.0
H915 H 0.69792 0.12552 0.97559 0.0
H916 H 0.67587 0.11788 0.99457 0.0
H917 H 0.66396 0.09941 0.97079 0.0
H918 H 0.5921 0.08651 0.02114 0.0
H919 H 0.56909 0.04752 0.96219 0.0
H920 H 0.63273 0.14862 0.00987 0.0
H921 H 0.65605 0.1378 0.01333 0.0
H922 H 0.63002 0.12804 0.02928 0.0
H923 H 0.60396 0.0971 0.93657 0.0
H924 H 0.59733 0.06369 0.93675 0.0
H925 H 0.63045 0.09121 0.94257 0.0
C926 C 0.84501 0.53168 0.96242 0.0
C927 C 0.82362 0.50592 0.95751 0.0
C928 C 0.87074 0.53628 0.96669 0.0
C929 C 0.87509 0.5146 0.9666 0.0
C930 C 0.85382 0.48874 0.96083 0.0
C931 C 0.82858 0.48483 0.95598 0.0
C932 C 0.89308 0.56425 0.97205 0.0
C933 C 0.85739 0.46494 0.96077 0.0
C934 C 0.94175 0.51884 0.96758 0.0
C935 C 0.94692 0.51734 0.98767 0.0
C936 C 0.91934 0.51986 0.96064 0.0
C937 C 0.9012 0.51835 0.97401 0.0
C938 C 0.9068 0.51763 0.9944 0.0
C939 C 0.92978 0.51755 1.00101 0.0
C940 C 0.91459 0.52155 0.9389 0.0
C941 C 0.8877 0.51526 0.00911 0.0
H942 H 0.84158 0.54819 0.96368 0.0
H943 H 0.81248 0.46494 0.95151 0.0
H944 H 0.89935 0.56733 0.98811 0.0
H945 H 0.91034 0.56789 0.96413 0.0
H946 H 0.88733 0.57904 0.96849 0.0
H947 H 0.8389 0.44619 0.95563 0.0
H948 H 0.87269 0.46714 0.95108 0.0
H949 H 0.86422 0.46342 0.97591 0.0
H950 H 0.95504 0.51883 0.95722 0.0
H951 H 0.93354 0.5161 0.01652 0.0
H952 H 0.90859 0.53648 0.93675 0.0
H953 H 0.89832 0.50222 0.93193 0.0
H954 H 0.93235 0.52677 0.93111 0.0
H955 H 0.88295 0.53124 0.00816 0.0
H956 H 0.89553 0.51618 0.02455 0.0
H957 H 0.869 0.49616 0.00557 0.0
C958 C 0.50132 0.33536 1.00268 0.0
C959 C 0.50521 0.32652 0.98434 0.0
C960 C 0.49857 0.35775 0.00489 0.0
C961 C 0.50012 0.37188 0.98838 0.0
C962 C 0.50191 0.36177 0.96948 0.0
C963 C 0.50436 0.33908 0.96767 0.0
C964 C 0.49629 0.36752 0.02526 0.0
C965 C 0.50353 0.37613 0.95149 0.0
C966 C 0.48785 0.42946 0.99762 0.0
C967 C 0.51343 0.45011 0.00392 0.0
C968 C 0.48312 0.40393 0.99156 0.0
C969 C 0.50451 0.39921 0.99171 0.0
C970 C 0.53048 0.4205 0.997 0.0
C971 C 0.53456 0.44558 0.00311 0.0
C972 C 0.45519 0.38182 0.98596 0.0
C973 C 0.55396 0.41656 0.99712 0.0
H974 H 0.5018 0.32549 0.01555 0.0
H975 H 0.50747 0.33228 0.95348 0.0
H976 H 0.51521 0.38548 0.03092 0.0
H977 H 0.48082 0.37306 0.02473 0.0
H978 H 0.4916 0.35246 0.03588 0.0
H979 H 0.49982 0.36341 0.93758 0.0
H980 H 0.48919 0.38316 0.9512 0.0
H981 H 0.5235 0.39377 0.95201 0.0
H982 H 0.47148 0.43298 0.99816 0.0
H983 H 0.55442 0.46162 0.00771 0.0
H984 H 0.44872 0.36854 0.99793 0.0
H985 H 0.45388 0.36978 0.97232 0.0
H986 H 0.44137 0.38936 0.98363 0.0
H987 H 0.55298 0.40367 0.00873 0.0
H988 H 0.57294 0.43553 1.00002 0.0
H989 H 0.55377 0.40654 0.98275 0.0
C990 C 0.17485 0.66074 0.05708 0.0
C991 C 0.1838 0.68383 0.04753 0.0
C992 C 0.14997 0.63846 0.05131 0.0
C993 C 0.13389 0.63908 0.03529 0.0
C994 C 0.1422 0.66294 0.02643 0.0
C995 C 0.16703 0.68513 0.03277 0.0
C996 C 0.14173 0.61366 0.06144 0.0
C997 C 0.12587 0.6644 0.00918 0.0
C998 C 0.09317 0.57361 0.00361 0.0
C999 C 0.06781 0.56466 0.00928 0.0
C1000 C 0.11454 0.59803 0.01162 0.0
C1001 C 0.11067 0.61387 0.02599 0.0
C1002 C 0.08504 0.60507 0.03171 0.0
C1003 C 0.06381 0.58066 0.02308 0.0
C1004 C 0.1414 0.60668 0.00486 0.0
C1005 C 0.08019 0.62114 0.0472 0.0
H1006 H 0.18782 0.65979 0.06855 0.0
H1007 H 0.17406 0.70292 0.02529 0.0
H1008 H 0.12094 0.60475 0.06475 0.0
H1009 H 0.14316 0.59886 0.05148 0.0
H1010 H 0.15435 0.61755 0.07541 0.0
H1011 H 0.13313 0.68509 0.00579 0.0
H1012 H 0.1266 0.653 0.9959 0.0
H1013 H 0.10495 0.65542 0.01213 0.0
H1014 H 0.09641 0.5614 0.99288 0.0
H1015 H 0.04419 0.57398 0.02732 0.0
H1016 H 0.15503 0.60812 0.01744 0.0
H1017 H 0.14973 0.62658 0.99959 0.0
H1018 H 0.1408 0.59277 0.99279 0.0
H1019 H 0.09164 0.62331 0.0614 0.0
H1020 H 0.05904 0.61193 0.04964 0.0
H1021 H 0.08709 0.64132 0.04283 0.0
C1022 C 0.32868 0.48477 0.05618 0.0
C1023 C 0.33497 0.51032 0.06363 0.0
C1024 C 0.3484 0.47943 0.05072 0.0
C1025 C 0.37494 0.50026 0.05215 0.0
C1026 C 0.38153 0.52577 0.06037 0.0
C1027 C 0.36163 0.53029 0.0664 0.0
C1028 C 0.34071 0.45171 0.04279 0.0
C1029 C 0.40948 0.54872 0.06192 0.0
C1030 C 0.4348 0.49205 0.04904 0.0
C1031 C 0.43964 0.49612 0.02929 0.0
C1032 C 0.41273 0.49148 0.05641 0.0
C1033 C 0.3957 0.49613 0.04389 0.0
C1034 C 0.40016 0.4995 0.02376 0.0
C1035 C 0.42183 0.49901 0.01664 0.0
C1036 C 0.40823 0.48687 0.07775 0.0
C1037 C 0.38305 0.50535 0.01004 0.0
H1038 H 0.30827 0.4691 0.05389 0.0
H1039 H 0.367 0.54987 0.07283 0.0
H1040 H 0.34238 0.45092 0.02667 0.0
H1041 H 0.35423 0.4458 0.04981 0.0
H1042 H 0.32019 0.4371 0.04534 0.0
H1043 H 0.41133 0.56735 0.06865 0.0
H1044 H 0.42279 0.54425 0.07093 0.0
H1045 H 0.41643 0.552 0.04699 0.0
H1046 H 0.44845 0.48957 0.0588 0.0
H1047 H 0.42574 0.50249 1.00142 0.0
H1048 H 0.38719 0.4726 0.07907 0.0
H1049 H 0.41328 0.5057 0.08637 0.0
H1050 H 0.42047 0.47928 0.0845 0.0
H1051 H 0.36205 0.48998 0.00997 0.0
H1052 H 0.38844 0.50636 0.99463 0.0
H1053 H 0.38499 0.52455 0.01536 0.0
C1054 C 0.49544 0.84994 0.05986 0.0
C1055 C 0.50607 0.83672 0.04949 0.0
C1056 C 0.49852 0.87389 0.05424 0.0
C1057 C 0.51213 0.8846 0.03763 0.0
C1058 C 0.52439 0.87221 0.02794 0.0
C1059 C 0.52135 0.84846 0.03408 0.0
C1060 C 0.48556 0.8867 0.06523 0.0
C1061 C 0.53888 0.88282 0.01007 0.0
C1062 C 0.48492 0.91885 0.00672 0.0
C1063 C 0.50366 0.94561 0.01165 0.0
C1064 C 0.48778 0.89895 0.01487 0.0
C1065 C 0.50981 0.90594 0.02856 0.0
C1066 C 0.52891 0.93297 0.0336 0.0
C1067 C 0.52576 0.95254 0.02487 0.0
C1068 C 0.46703 0.8704 0.00891 0.0
C1069 C 0.55241 0.94118 0.04836 0.0
H1070 H 0.48388 0.84101 0.07194 0.0
H1071 H 0.52949 0.8382 0.026 0.0
H1072 H 0.49905 0.90837 0.06812 0.0
H1073 H 0.4678 0.88342 0.05605 0.0
H1074 H 0.47947 0.87845 0.07953 0.0
H1075 H 0.55038 0.87326 0.00599 0.0
H1076 H 0.52447 0.87917 0.99733 0.0
H1077 H 0.55243 0.90449 0.01275 0.0
H1078 H 0.46782 0.91335 0.99646 0.0
H1079 H 0.5405 0.9732 0.02846 0.0
H1080 H 0.45731 0.86101 0.02202 0.0
H1081 H 0.47628 0.8593 0.00303 0.0
H1082 H 0.45166 0.86831 0.99752 0.0
H1083 H 0.54567 0.93402 0.06281 0.0
H1084 H 0.5656 0.96298 0.05055 0.0
H1085 H 0.56388 0.93199 0.04341 0.0
C1086 C 0.99614 0.17559 0.38691 0.0
C1087 C 0.97591 0.17875 0.39412 0.0
C1088 C 0.01791 0.19661 0.37969 0.0
C1089 C 0.01975 0.22162 0.37972 0.0
C1090 C 0.99945 0.22502 0.38697 0.0
C1091 C 0.97781 0.20358 0.39409 0.0
C1092 C 0.03917 0.1921 0.37226 0.0
C1093 C 1.00068 0.25136 0.3873 0.0
C1094 C 0.0891 0.27999 0.37945 0.0
C1095 C 0.09036 0.28428 0.35936 0.0
C1096 C 0.06604 0.2603 0.38633 0.0
C1097 C 0.04348 0.24432 0.37284 0.0
C1098 C 0.04427 0.24906 0.35265 0.0
C1099 C 0.06768 0.269 0.34614 0.0
C1100 C 0.06615 0.25606 0.40799 0.0
C1101 C 0.02066 0.23247 0.33779 0.0
H1102 H 0.99519 0.15668 0.3872 0.0
H1103 H 0.96222 0.20619 0.39948 0.0
H1104 H 0.04216 0.19736 0.35687 0.0
H1105 H 0.05811 0.2051 0.38144 0.0
H1106 H 0.03439 0.17127 0.37261 0.0
H1107 H 0.98306 0.25065 0.39297 0.0
H1108 H 0.01846 0.26658 0.39676 0.0
H1109 H 1.00239 0.2578 0.3722 0.0
H1110 H 0.10639 0.29174 0.38988 0.0
H1111 H 0.0684 0.27209 0.33062 0.0
H1112 H 0.06369 0.23629 0.40975 0.0
H1113 H 0.04937 0.25649 0.41421 0.0
H1114 H 0.0847 0.27123 0.41676 0.0
H1115 H 0.01642 0.21174 0.33642 0.0
H1116 H 0.02377 0.2398 0.32295 0.0
H1117 H 1.00301 0.23226 0.34287 0.0
C1118 C 0.81426 0.79143 0.41088 0.0
C1119 C 0.83404 0.79265 0.39964 0.0
C1120 C 0.79285 0.79292 0.40223 0.0
C1121 C 0.79146 0.79656 0.38193 0.0
C1122 C 0.81091 0.79718 0.37036 0.0
C1123 C 0.83167 0.79479 0.37926 0.0
C1124 C 0.77221 0.79157 0.41503 0.0
C1125 C 0.81046 0.80154 0.34876 0.0
C1126 C 0.7271 0.78637 0.35659 0.0
C1127 C 0.73109 0.81203 0.35908 0.0
C1128 C 0.7466 0.78094 0.36388 0.0
C1129 C 0.77088 0.80185 0.37328 0.0
C1130 C 0.77527 0.82796 0.37509 0.0
C1131 C 0.75517 0.83263 0.36826 0.0
C1132 C 0.74087 0.75276 0.36217 0.0
C1133 C 0.8011 0.85097 0.38447 0.0
H1134 H 0.81586 0.79026 0.42666 0.0
H1135 H 0.84636 0.79511 0.37025 0.0
H1136 H 0.77381 0.81124 0.41703 0.0
H1137 H 0.75219 0.77739 0.40778 0.0
H1138 H 0.77433 0.78548 0.42984 0.0
H1139 H 0.82626 0.8002 0.34156 0.0
H1140 H 0.79117 0.78682 0.34073 0.0
H1141 H 0.81302 0.8214 0.34721 0.0
H1142 H 0.70836 0.7704 0.34964 0.0
H1143 H 0.75835 0.85254 0.37003 0.0
H1144 H 0.74113 0.74638 0.37716 0.0
H1145 H 0.75634 0.75125 0.35468 0.0
H1146 H 0.72142 0.73891 0.35387 0.0
H1147 H 0.80389 0.84865 0.40031 0.0
H1148 H 0.80207 0.87026 0.38336 0.0
H1149 H 0.81772 0.8514 0.3773 0.0
C1150 C 0.19538 0.02795 0.3677 0.0
C1151 C 0.19221 0.03005 0.38782 0.0
C1152 C 0.1929 0.0047 0.35838 0.0
C1153 C 0.18677 0.98292 0.3694 0.0
C1154 C 0.1835 0.98492 0.38972 0.0
C1155 C 0.18635 0.00849 0.39869 0.0
C1156 C 0.19679 1.00339 0.33673 0.0
C1157 C 0.17666 0.96206 0.40193 0.0
C1158 C 0.15462 0.91477 0.34099 0.0
C1159 C 0.17582 0.91027 0.34048 0.0
C1160 C 0.15787 0.93821 0.35053 0.0
C1161 C 0.18304 0.95777 0.35954 0.0
C1162 C 0.20452 0.95326 0.35911 0.0
C1163 C 0.2006 0.92944 0.34967 0.0
C1164 C 0.13435 0.94198 0.35101 0.0
C1165 C 0.23165 0.97368 0.36848 0.0
H1166 H 0.20013 0.04465 0.3593 0.0
H1167 H 0.18355 0.0099 0.4142 0.0
H1168 H 0.21243 0.99846 0.33459 0.0
H1169 H 0.17841 0.98745 0.3283 0.0
H1170 H 0.20229 0.0223 0.33041 0.0
H1171 H 0.17498 0.96688 0.41759 0.0
H1172 H 0.1577 0.94463 0.39562 0.0
H1173 H 0.19189 0.95623 0.40153 0.0
H1174 H 0.13537 0.89983 0.33404 0.0
H1175 H 0.217 0.92596 0.34927 0.0
H1176 H 0.13802 0.95966 0.34355 0.0
H1177 H 0.13121 0.94551 0.36653 0.0
H1178 H 0.11602 0.9246 0.34367 0.0
H1179 H 0.23846 0.99251 0.36173 0.0
H1180 H 0.24629 0.96721 0.36674 0.0
H1181 H 0.23104 0.97784 0.38446 0.0
C1182 C 0.51395 0.65693 0.30866 0.0
C1183 C 0.51557 0.63453 0.30277 0.0
C1184 C 0.53582 0.67983 0.31837 0.0
C1185 C 0.55986 0.68025 0.32269 0.0
C1186 C 0.5613 0.65728 0.31751 0.0
C1187 C 0.53924 0.6348 0.30736 0.0
C1188 C 0.5335 0.704 0.32319 0.0
C1189 C 0.58634 0.65669 0.32221 0.0
C1190 C 0.62058 0.7485 0.32551 0.0
C1191 C 0.6249 0.75686 0.34569 0.0
C1192 C 0.60017 0.72328 0.3179 0.0
C1193 C 0.58391 0.70554 0.33095 0.0
C1194 C 0.58948 0.71309 0.35161 0.0
C1195 C 0.60989 0.73877 0.35876 0.0
C1196 C 0.59514 0.71631 0.29579 0.0
C1197 C 0.57311 0.69453 0.36607 0.0
H1198 H 0.49578 0.6569 0.30492 0.0
H1199 H 0.5405 0.61746 0.3029 0.0
H1200 H 0.53951 0.71108 0.3391 0.0
H1201 H 0.54697 0.72021 0.31472 0.0
H1202 H 0.51315 0.70011 0.31961 0.0
H1203 H 0.58337 0.6365 0.31933 0.0
H1204 H 0.60164 0.67001 0.31308 0.0
H1205 H 0.59402 0.664 0.33793 0.0
H1206 H 0.63292 0.76198 0.31559 0.0
H1207 H 0.6133 0.74504 0.37445 0.0
H1208 H 0.57619 0.71471 0.29042 0.0
H1209 H 0.59343 0.69687 0.29187 0.0
H1210 H 0.61097 0.73136 0.28786 0.0
H1211 H 0.55323 0.69231 0.3649 0.0
H1212 H 0.58209 0.70184 0.38156 0.0
H1213 H 0.57053 0.67461 0.36255 0.0
C1214 C 0.3488 0.86007 0.28438 0.0
C1215 C 0.36921 0.88375 0.27872 0.0
C1216 C 0.32653 0.85885 0.29181 0.0
C1217 C 0.32429 0.88181 0.29346 0.0
C1218 C 0.34467 0.90576 0.28768 0.0
C1219 C 0.3669 0.90647 0.28043 0.0
C1220 C 0.30527 0.83289 0.29779 0.0
C1221 C 0.34293 0.93061 0.28907 0.0
C1222 C 0.25438 0.86875 0.29493 0.0
C1223 C 0.25295 0.87243 0.31528 0.0
C1224 C 0.27773 0.87272 0.28759 0.0
C1225 C 0.30029 0.88039 0.30089 0.0
C1226 C 0.29927 0.88499 0.32139 0.0
C1227 C 0.27566 0.88106 0.32833 0.0
C1228 C 0.27794 0.86778 0.26561 0.0
C1229 C 0.32282 0.89303 0.33607 0.0
H1230 H 0.35002 0.84223 0.28273 0.0
H1231 H 0.38261 0.92492 0.27628 0.0
H1232 H 0.30182 0.8354 0.31339 0.0
H1233 H 0.28649 0.82632 0.28859 0.0
H1234 H 0.31036 0.81706 0.29616 0.0
H1235 H 0.36044 0.94765 0.28402 0.0
H1236 H 0.32508 0.9272 0.27996 0.0
H1237 H 0.34103 0.93583 0.30455 0.0
H1238 H 0.23705 0.86231 0.28468 0.0
H1239 H 0.27476 0.88387 0.34407 0.0
H1240 H 0.27994 0.85013 0.26248 0.0
H1241 H 0.29507 0.88478 0.26021 0.0
H1242 H 0.25966 0.8644 0.25712 0.0
H1243 H 0.32735 0.8768 0.33613 0.0
H1244 H 0.31946 0.8976 0.35131 0.0
H1245 H 0.34041 0.91063 0.33174 0.0
C1246 C 0.17372 0.50719 0.3049 0.0
C1247 C 0.15246 0.50219 0.29129 0.0
C1248 C 0.17532 0.48657 0.31308 0.0
C1249 C 0.15567 0.46004 0.30708 0.0
C1250 C 0.13461 0.45467 0.2929 0.0
C1251 C 0.13307 0.47577 0.28536 0.0
C1252 C 0.19801 0.49324 0.32829 0.0
C1253 C 0.11363 0.42663 0.28578 0.0
C1254 C 0.1752 0.4087 0.31749 0.0
C1255 C 0.16308 0.39938 0.33464 0.0
C1256 C 0.17228 0.42784 0.30796 0.0
C1257 C 0.15712 0.43808 0.31599 0.0
C1258 C 0.14467 0.42844 0.33329 0.0
C1259 C 0.14773 0.40909 0.34237 0.0
C1260 C 0.18568 0.43736 0.28947 0.0
C1261 C 0.12896 0.43931 0.34264 0.0
H1262 H 0.18933 0.52735 0.30919 0.0
H1263 H 0.11643 0.47149 0.27503 0.0
H1264 H 0.19039 0.48454 0.34216 0.0
H1265 H 0.20973 0.48455 0.32291 0.0
H1266 H 0.21129 0.5149 0.33176 0.0
H1267 H 0.09926 0.42571 0.27399 0.0
H1268 H 0.12284 0.41544 0.28 0.0
H1269 H 0.10279 0.41653 0.2983 0.0
H1270 H 0.18726 0.40127 0.31166 0.0
H1271 H 0.13868 0.40201 0.35581 0.0
H1272 H 0.19858 0.45916 0.29125 0.0
H1273 H 0.17062 0.43237 0.27689 0.0
H1274 H 0.1978 0.42837 0.28569 0.0
H1275 H 0.14197 0.46072 0.34735 0.0
H1276 H 0.11985 0.42915 0.3557 0.0
H1277 H 0.11317 0.43728 0.33173 0.0
C1278 C 0.32555 0.50583 0.29438 0.0
C1279 C 0.35202 0.51236 0.29758 0.0
C1280 C 0.30489 0.48137 0.2986 0.0
C1281 C 0.31055 0.46223 0.30542 0.0
C1282 C 0.33695 0.4677 0.30706 0.0
C1283 C 0.35741 0.49281 0.30339 0.0
C1284 C 0.27714 0.47665 0.29684 0.0
C1285 C 0.34371 0.44743 0.31348 0.0
C1286 C 0.26152 0.41523 0.33829 0.0
C1287 C 0.24389 0.39397 0.32459 0.0
C1288 C 0.28374 0.43718 0.33233 0.0
C1289 C 0.28898 0.43756 0.31227 0.0
C1290 C 0.27207 0.4154 0.2986 0.0
C1291 C 0.24945 0.39411 0.30483 0.0
C1292 C 0.3007 0.46065 0.34732 0.0
C1293 C 0.2773 0.41453 0.27723 0.0
H1294 H 0.32093 0.52031 0.2892 0.0
H1295 H 0.37766 0.49742 0.3059 0.0
H1296 H 0.26391 0.45845 0.28691 0.0
H1297 H 0.26951 0.47366 0.31155 0.0
H1298 H 0.27599 0.4934 0.29105 0.0
H1299 H 0.36428 0.45304 0.31111 0.0
H1300 H 0.34133 0.44536 0.32941 0.0
H1301 H 0.33013 0.42781 0.30527 0.0
H1302 H 0.25717 0.41541 0.35351 0.0
H1303 H 0.23592 0.37769 0.29417 0.0
H1304 H 0.29951 0.47803 0.34305 0.0
H1305 H 0.3216 0.46592 0.34761 0.0
H1306 H 0.29457 0.45687 0.36245 0.0
H1307 H 0.27239 0.42785 0.26947 0.0
H1308 H 0.26535 0.39428 0.26948 0.0
H1309 H 0.29845 0.42152 0.27607 0.0
C1310 C 0.49568 0.83279 0.31375 0.0
C1311 C 0.49183 0.84603 0.2985 0.0
C1312 C 0.52058 0.83627 0.31937 0.0
C1313 C 0.54256 0.85415 0.31001 0.0
C1314 C 0.53929 0.86919 0.29573 0.0
C1315 C 0.51392 0.86476 0.28998 0.0
C1316 C 0.523 0.81958 0.33451 0.0
C1317 C 0.56236 0.88904 0.28585 0.0
C1318 C 0.60828 0.86765 0.33505 0.0
C1319 C 0.61269 0.84979 0.32365 0.0
C1320 C 0.58638 0.87059 0.3301 0.0
C1321 C 0.56808 0.85472 0.31373 0.0
C1322 C 0.57289 0.83723 0.30189 0.0
C1323 C 0.59523 0.83523 0.30685 0.0
C1324 C 0.5824 0.89006 0.34273 0.0
C1325 C 0.55367 0.81949 0.28457 0.0
H1326 H 0.47897 0.81895 0.32095 0.0
H1327 H 0.5113 0.87518 0.27824 0.0
H1328 H 0.52891 0.80605 0.32747 0.0
H1329 H 0.53852 0.83227 0.34658 0.0
H1330 H 0.50426 0.80751 0.34107 0.0
H1331 H 0.55748 0.90214 0.27768 0.0
H1332 H 0.57949 0.90143 0.29692 0.0
H1333 H 0.5684 0.8785 0.27523 0.0
H1334 H 0.62179 0.87914 0.34796 0.0
H1335 H 0.59833 0.82125 0.29799 0.0
H1336 H 0.56573 0.87923 0.35165 0.0
H1337 H 0.57733 0.90201 0.33331 0.0
H1338 H 0.60019 0.9036 0.35295 0.0
H1339 H 0.53454 0.80558 0.2899 0.0
H1340 H 0.56084 0.80779 0.27636 0.0
H1341 H 0.54995 0.83139 0.27417 0.0
C1342 C 0.16215 0.66541 0.33125 0.0
C1343 C 0.16814 0.65754 0.31343 0.0
C1344 C 0.15952 0.68789 0.33322 0.0
C1345 C 0.16337 0.7031 0.31702 0.0
C1346 C 0.1673 0.69397 0.29851 0.0
C1347 C 0.16958 0.67117 0.29691 0.0
C1348 C 0.15495 0.69662 0.35315 0.0
C1349 C 0.17142 0.70951 0.28086 0.0
C1350 C 0.15103 0.76085 0.32466 0.0
C1351 C 0.17614 0.78122 0.33239 0.0
C1352 C 0.14657 0.73539 0.31876 0.0
C1353 C 0.16779 0.73042 0.32056 0.0
C1354 C 0.19338 0.75139 0.32745 0.0
C1355 C 0.19719 0.77643 0.33334 0.0
C1356 C 0.11904 0.71361 0.31146 0.0
C1357 C 0.21668 0.74717 0.32938 0.0
H1358 H 0.16097 0.65477 0.344 0.0
H1359 H 0.17439 0.66515 0.28316 0.0
H1360 H 0.17346 0.71413 0.36005 0.0
H1361 H 0.13979 0.70252 0.35156 0.0
H1362 H 0.1486 0.68083 0.36329 0.0
H1363 H 0.16933 0.69756 0.2669 0.0
H1364 H 0.15724 0.71669 0.27953 0.0
H1365 H 0.19153 0.7271 0.2828 0.0
H1366 H 0.13473 0.76456 0.32383 0.0
H1367 H 0.21671 0.79224 0.33907 0.0
H1368 H 0.11113 0.69948 0.32278 0.0
H1369 H 0.11916 0.70241 0.29782 0.0
H1370 H 0.10554 0.72136 0.30839 0.0
H1371 H 0.21393 0.73349 0.34079 0.0
H1372 H 0.23555 0.76593 0.33361 0.0
H1373 H 0.21821 0.73791 0.31524 0.0
C1374 C 0.83196 0.01766 0.36554 0.0
C1375 C 0.85079 0.01382 0.37603 0.0
C1376 C 0.80663 0.9962 0.35921 0.0
C1377 C 0.80001 0.97037 0.36355 0.0
C1378 C 0.81841 0.96675 0.37526 0.0
C1379 C 0.84352 0.98847 0.38133 0.0
C1380 C 0.78758 1.00095 0.34684 0.0
C1381 C 0.81216 0.93964 0.3804 0.0
C1382 C 0.72973 0.91187 0.35541 0.0
C1383 C 0.73032 0.89903 0.33764 0.0
C1384 C 0.752 0.93555 0.36386 0.0
C1385 C 0.77525 0.94677 0.3541 0.0
C1386 C 0.77545 0.93442 0.33567 0.0
C1387 C 0.75299 0.91074 0.32767 0.0
C1388 C 0.75088 0.94816 0.38345 0.0
C1389 C 0.79973 0.94568 0.32469 0.0
H1390 H 0.8375 0.03717 0.36134 0.0
H1391 H 0.85788 0.98547 0.38969 0.0
H1392 H 0.78571 0.99291 0.3313 0.0
H1393 H 0.76773 0.99051 0.35209 0.0
H1394 H 0.79417 0.02232 0.34709 0.0
H1395 H 0.82752 0.94051 0.3912 0.0
H1396 H 0.79293 0.92953 0.38664 0.0
H1397 H 0.81055 0.92734 0.3668 0.0
H1398 H 0.71186 0.9034 0.36268 0.0
H1399 H 0.75346 0.90097 0.31383 0.0
H1400 H 0.75665 0.96911 0.38228 0.0
H1401 H 0.76515 0.94806 0.39477 0.0
H1402 H 0.73096 0.9377 0.38865 0.0
H1403 H 0.80657 0.96665 0.32252 0.0
H1404 H 0.79619 0.93453 0.31002 0.0
H1405 H 0.81588 0.94521 0.33354 0.0
C1406 C 0.98946 0.81124 0.384 0.0
C1407 C 0.9961 0.83674 0.39184 0.0
C1408 C 0.00885 0.80587 0.37772 0.0
C1409 C 0.03538 0.82664 0.37873 0.0
C1410 C 0.04233 0.85214 0.38724 0.0
C1411 C 0.02278 0.85667 0.39408 0.0
C1412 C 1.00083 0.77817 0.36947 0.0
C1413 C 0.07028 0.87502 0.38838 0.0
C1414 C 0.09513 0.81858 0.37461 0.0
C1415 C 0.09973 0.82295 0.35486 0.0
C1416 C 0.07305 0.81767 0.38224 0.0
C1417 C 0.05582 0.82239 0.37002 0.0
C1418 C 0.05998 0.82597 0.34987 0.0
C1419 C 0.08166 0.82577 0.34246 0.0
C1420 C 0.0689 0.81288 0.4036 0.0
C1421 C 0.04267 0.83194 0.33648 0.0
H1422 H 0.96903 0.79561 0.38209 0.0
H1423 H 0.02845 0.87621 0.40078 0.0
H1424 H 1.00234 0.77759 0.35332 0.0
H1425 H 0.01428 0.77201 0.37622 0.0
H1426 H 0.98031 0.76363 0.37208 0.0
H1427 H 0.07237 0.89372 0.3952 0.0
H1428 H 0.08378 0.87053 0.39713 0.0
H1429 H 0.07681 0.87819 0.37332 0.0
H1430 H 0.10911 0.81639 0.38422 0.0
H1431 H 0.08542 0.82957 0.32726 0.0
H1432 H 0.04786 0.79884 0.40512 0.0
H1433 H 0.07444 0.83172 0.41242 0.0
H1434 H 0.08099 0.8049 0.40997 0.0
H1435 H 0.02165 0.81685 0.33682 0.0
H1436 H 0.04752 0.83263 0.32093 0.0
H1437 H 0.04509 0.85135 0.34182 0.0
C1438 C 0.15748 0.17727 0.39305 0.0
C1439 C 0.16899 0.16463 0.38312 0.0
C1440 C 0.16183 0.202 0.38827 0.0
C1441 C 0.17754 0.21403 0.37285 0.0
C1442 C 0.19095 0.20233 0.36395 0.0
C1443 C 0.18662 0.17777 0.36929 0.0
C1444 C 0.14759 0.21398 0.39846 0.0
C1445 C 0.20776 0.21436 0.3474 0.0
C1446 C 0.15168 0.24792 0.34026 0.0
C1447 C 0.16937 0.27478 0.34599 0.0
C1448 C 0.15457 0.22819 0.34865 0.0
C1449 C 0.1755 0.23538 0.36348 0.0
C1450 C 0.19356 0.2625 0.36937 0.0
C1451 C 0.19045 0.28195 0.36036 0.0
C1452 C 0.13495 0.19956 0.34173 0.0
C1453 C 0.2158 0.27092 0.38538 0.0
H1454 H 0.14395 0.16711 0.40383 0.0
H1455 H 0.19541 0.16791 0.36155 0.0
H1456 H 0.1606 0.23566 0.40187 0.0
H1457 H 0.13036 0.21057 0.38851 0.0
H1458 H 0.14043 0.20512 0.41239 0.0
H1459 H 0.22033 0.20563 0.34446 0.0
H1460 H 0.19481 0.21081 0.3337 0.0
H1461 H 0.22054 0.23605 0.35082 0.0
H1462 H 0.13537 0.2422 0.32912 0.0
H1463 H 0.20435 0.30268 0.36464 0.0
H1464 H 0.12395 0.1894 0.35416 0.0
H1465 H 0.14537 0.18928 0.33665 0.0
H1466 H 0.12052 0.19738 0.32946 0.0
H1467 H 0.20767 0.26345 0.39943 0.0
H1468 H 0.22858 0.29276 0.38787 0.0
H1469 H 0.22805 0.26217 0.38152 0.0
C1470 C 0.64836 0.5153 0.7137 0.0
C1471 C 0.6445 0.51827 0.73367 0.0
C1472 C 0.67061 0.53455 0.7056 0.0
C1473 C 0.68911 0.55801 0.71744 0.0
C1474 C 0.68486 0.56175 0.73731 0.0
C1475 C 0.66298 0.54172 0.74526 0.0
C1476 C 0.67473 0.52938 0.6845 0.0
C1477 C 0.70372 0.58675 0.75035 0.0
C1478 C 0.76024 0.5964 0.70547 0.0
C1479 C 0.76035 0.6162 0.69484 0.0
C1480 C 0.73706 0.577 0.71243 0.0
C1481 C 0.71358 0.57799 0.70936 0.0
C1482 C 0.71367 0.59815 0.69877 0.0
C1483 C 0.73697 0.61674 0.69129 0.0
C1484 C 0.73774 0.55542 0.72304 0.0
C1485 C 0.68937 0.60053 0.69583 0.0
H1486 H 0.63408 0.49776 0.70431 0.0
H1487 H 0.66082 0.54434 0.76076 0.0
H1488 H 0.67616 0.54531 0.67573 0.0
H1489 H 0.69359 0.52948 0.68414 0.0
H1490 H 0.65857 0.51012 0.67725 0.0
H1491 H 0.69605 0.58799 0.76465 0.0
H1492 H 0.72281 0.58756 0.7535 0.0
H1493 H 0.70765 0.60437 0.74271 0.0
H1494 H 0.7783 0.59588 0.70813 0.0
H1495 H 0.73715 0.63224 0.68327 0.0
H1496 H 0.72214 0.53574 0.71601 0.0
H1497 H 0.73372 0.55699 0.7386 0.0
H1498 H 0.75706 0.55639 0.72297 0.0
H1499 H 0.67293 0.58216 0.68776 0.0
H1500 H 0.69273 0.61748 0.68748 0.0
H1501 H 0.68302 0.6031 0.71041 0.0
C1502 C 0.51094 0.16044 0.73115 0.0
C1503 C 0.50889 0.13745 0.73804 0.0
C1504 C 0.48861 0.16093 0.72339 0.0
C1505 C 0.46347 0.13794 0.72264 0.0
C1506 C 0.46121 0.1146 0.72942 0.0
C1507 C 0.48394 0.1146 0.73696 0.0
C1508 C 0.49188 0.18622 0.71627 0.0
C1509 C 0.43474 0.08973 0.72893 0.0
C1510 C 0.40573 0.14997 0.72066 0.0
C1511 C 0.39716 0.14465 0.70039 0.0
C1512 C 0.42671 0.14702 0.72818 0.0
C1513 C 0.43958 0.13867 0.71513 0.0
C1514 C 0.43053 0.13248 0.69476 0.0
C1515 C 0.40938 0.13546 0.68764 0.0
C1516 C 0.43561 0.15363 0.75004 0.0
C1517 C 0.44382 0.12365 0.68035 0.0
H1518 H 0.53001 0.17836 0.73225 0.0
H1519 H 0.48217 0.09666 0.74204 0.0
H1520 H 0.48317 0.1825 0.70072 0.0
H1521 H 0.48122 0.19344 0.72527 0.0
H1522 H 0.51287 0.20206 0.71717 0.0
H1523 H 0.43636 0.07311 0.73448 0.0
H1524 H 0.42181 0.09357 0.73808 0.0
H1525 H 0.42495 0.08359 0.71361 0.0
H1526 H 0.39634 0.15693 0.73067 0.0
H1527 H 0.40296 0.13134 0.67196 0.0
H1528 H 0.45585 0.17096 0.75243 0.0
H1529 H 0.43623 0.13686 0.75625 0.0
H1530 H 0.42249 0.15826 0.75836 0.0
H1531 H 0.46433 0.13986 0.6797 0.0
H1532 H 0.4334 0.11801 0.66521 0.0
H1533 H 0.44487 0.10653 0.68539 0.0
C1534 C 0.8822 0.35779 0.7256 0.0
C1535 C 0.87433 0.37268 0.71456 0.0
C1536 C 0.87606 0.33221 0.7184 0.0
C1537 C 0.8628 0.32154 0.69926 0.0
C1538 C 0.85477 0.33629 0.688 0.0
C1539 C 0.86008 0.36132 0.69593 0.0
C1540 C 0.88409 0.31672 0.73121 0.0
C1541 C 0.8411 0.3259 0.66733 0.0
C1542 C 0.87299 0.26898 0.6726 0.0
C1543 C 0.84848 0.24624 0.6731 0.0
C1544 C 0.87783 0.29368 0.68091 0.0
C1545 C 0.85806 0.29535 0.69074 0.0
C1546 C 0.83365 0.27207 0.69201 0.0
C1547 C 0.82891 0.24786 0.68273 0.0
C1548 C 0.9038 0.31807 0.67866 0.0
C1549 C 0.81255 0.27272 0.70317 0.0
H1550 H 0.89369 0.3662 0.73979 0.0
H1551 H 0.85314 0.37201 0.68737 0.0
H1552 H 0.86712 0.29657 0.73191 0.0
H1553 H 0.89974 0.31444 0.72469 0.0
H1554 H 0.89159 0.32653 0.74649 0.0
H1555 H 0.8369 0.34016 0.66024 0.0
H1556 H 0.85354 0.32149 0.65801 0.0
H1557 H 0.82227 0.30715 0.66765 0.0
H1558 H 0.88803 0.26758 0.66507 0.0
H1559 H 0.81005 0.23008 0.68328 0.0
H1560 H 0.9143 0.32797 0.6934 0.0
H1561 H 0.90028 0.33237 0.67099 0.0
H1562 H 0.9168 0.31347 0.67016 0.0
H1563 H 0.82095 0.28311 0.71819 0.0
H1564 H 0.79596 0.25256 0.70458 0.0
H1565 H 0.80468 0.28382 0.69545 0.0
C1566 C 0.18312 0.97987 0.64035 0.0
C1567 C 0.17537 0.97692 0.62008 0.0
C1568 C 0.20434 0.00374 0.64958 0.0
C1569 C 0.21799 0.02535 0.63832 0.0
C1570 C 0.21053 0.02234 0.61777 0.0
C1571 C 0.18941 0.99816 0.6089 0.0
C1572 C 0.21186 0.00601 0.67146 0.0
C1573 C 0.22431 0.04495 0.60527 0.0
C1574 C 0.25222 0.09399 0.66631 0.0
C1575 C 0.27861 0.10035 0.66817 0.0
C1576 C 0.23243 0.06989 0.65632 0.0
C1577 C 0.23911 0.05147 0.64824 0.0
C1578 C 0.26581 0.05792 0.64991 0.0
C1579 C 0.2853 0.0824 0.65974 0.0
C1580 C 0.20433 0.0641 0.65455 0.0
C1581 C 0.27373 0.03879 0.6416 0.0
H1582 H 0.17249 0.96347 0.64902 0.0
H1583 H 0.18332 0.99614 0.59327 0.0
H1584 H 0.23313 0.01277 0.67431 0.0
H1585 H 0.20849 0.02102 0.67928 0.0
H1586 H 0.20037 0.98696 0.67787 0.0
H1587 H 0.21709 0.03901 0.58935 0.0
H1588 H 0.22115 0.06139 0.61031 0.0
H1589 H 0.24585 0.05273 0.607 0.0
H1590 H 0.24702 0.10795 0.67264 0.0
H1591 H 0.3057 0.08729 0.66115 0.0
H1592 H 0.19195 0.04652 0.66228 0.0
H1593 H 0.19622 0.0594 0.63879 0.0
H1594 H 0.20258 0.08097 0.6609 0.0
H1595 H 0.26371 0.02013 0.6487 0.0
H1596 H 0.29534 0.0469 0.6439 0.0
H1597 H 0.26737 0.03372 0.62553 0.0
C1598 C 0.03409 0.23556 0.60942 0.0
C1599 C 0.03624 0.21275 0.60901 0.0
C1600 C 0.01235 0.23585 0.61675 0.0
C1601 C 0.9923 0.21281 0.62389 0.0
C1602 C 0.99436 0.18976 0.62349 0.0
C1603 C 0.01615 0.18998 0.61599 0.0
C1604 C 0.01079 0.26076 0.61682 0.0
C1605 C 0.97343 0.16473 0.63089 0.0
C1606 C 0.94555 0.21531 0.65919 0.0
C1607 C 0.92223 0.20551 0.64661 0.0
C1608 C 0.96881 0.21874 0.65188 0.0
C1609 C 0.96882 0.21239 0.63149 0.0
C1610 C 0.94566 0.2036 0.6186 0.0
C1611 C 0.92268 0.20019 0.62631 0.0
C1612 C 0.99305 0.22805 0.66613 0.0
C1613 C 0.94479 0.1968 0.59674 0.0
H1614 H 0.04956 0.25331 0.60422 0.0
H1615 H 0.01726 0.17206 0.61536 0.0
H1616 H 0.99255 0.25671 0.60791 0.0
H1617 H 0.00975 0.26753 0.63211 0.0
H1618 H 0.02797 0.27701 0.61078 0.0
H1619 H 0.97829 0.1487 0.63003 0.0
H1620 H 0.97086 0.16877 0.64647 0.0
H1621 H 0.95427 0.15759 0.62207 0.0
H1622 H 0.94544 0.21945 0.67488 0.0
H1623 H 0.90487 0.19278 0.6164 0.0
H1624 H 0.01031 0.24494 0.66075 0.0
H1625 H 0.99758 0.21189 0.6671 0.0
H1626 H 0.99052 0.23419 0.68119 0.0
H1627 H 0.96138 0.21329 0.59042 0.0
H1628 H 0.92603 0.19252 0.58848 0.0
H1629 H 0.94701 0.17917 0.59438 0.0
C1630 C 0.81069 0.81267 0.61632 0.0
C1631 C 0.80294 0.8275 0.62814 0.0
C1632 C 0.81417 0.7927 0.62392 0.0
C1633 C 0.80962 0.78732 0.64377 0.0
C1634 C 0.80073 0.80148 0.65547 0.0
C1635 C 0.79759 0.82142 0.64754 0.0
C1636 C 0.82375 0.77811 0.61098 0.0
C1637 C 0.79537 0.79619 0.67662 0.0
C1638 C 0.80244 0.72409 0.66214 0.0
C1639 C 0.82733 0.7334 0.67228 0.0
C1640 C 0.79646 0.74127 0.65244 0.0
C1641 C 0.81592 0.76831 0.65282 0.0
C1642 C 0.84128 0.77759 0.66266 0.0
C1643 C 0.84661 0.76006 0.67236 0.0
C1644 C 0.76921 0.73061 0.64214 0.0
C1645 C 0.86273 0.80617 0.66321 0.0
H1646 H 0.81505 0.8174 0.60136 0.0
H1647 H 0.79125 0.83256 0.65665 0.0
H1648 H 0.84377 0.78302 0.61698 0.0
H1649 H 0.81076 0.75644 0.61095 0.0
H1650 H 0.82453 0.78322 0.59549 0.0
H1651 H 0.78676 0.80754 0.68327 0.0
H1652 H 0.78169 0.77482 0.67747 0.0
H1653 H 0.814 0.80166 0.68563 0.0
H1654 H 0.78748 0.70346 0.66208 0.0
H1655 H 0.86597 0.76727 0.68002 0.0
H1656 H 0.77041 0.73514 0.62653 0.0
H1657 H 0.75945 0.7404 0.64934 0.0
H1658 H 0.75669 0.7089 0.64245 0.0
H1659 H 0.8658 0.81206 0.64798 0.0
H1660 H 0.88175 0.80992 0.67063 0.0
H1661 H 0.85674 0.81905 0.67119 0.0
C1662 C 0.98896 0.84351 0.62812 0.0
C1663 C 0.01566 0.85065 0.63009 0.0
C1664 C 0.96928 0.81926 0.63353 0.0
C1665 C 0.97613 0.80094 0.64037 0.0
C1666 C 1.00272 0.80708 0.641 0.0
C1667 C 0.02223 0.83197 0.63606 0.0
C1668 C 0.94129 0.8138 0.63276 0.0
C1669 C 0.0107 0.78772 0.64753 0.0
C1670 C 0.92893 0.754 0.67432 0.0
C1671 C 0.91122 0.73244 0.66087 0.0
C1672 C 0.95077 0.77601 0.66797 0.0
C1673 C 0.95547 0.77616 0.64779 0.0
C1674 C 0.93853 0.75367 0.63441 0.0
C1675 C 0.91637 0.73231 0.64103 0.0
C1676 C 0.96783 0.79978 0.68267 0.0
C1677 C 0.94316 0.75257 0.61291 0.0
H1678 H 0.98343 0.85733 0.6229 0.0
H1679 H 0.0427 0.83713 0.63764 0.0
H1680 H 0.92792 0.79529 0.62319 0.0
H1681 H 0.93459 0.811 0.64778 0.0
H1682 H 0.93921 0.8301 0.62706 0.0
H1683 H 0.03128 0.79387 0.64473 0.0
H1684 H 0.00901 0.78609 0.66357 0.0
H1685 H 0.99734 0.76776 0.63973 0.0
H1686 H 0.9249 0.75434 0.68962 0.0
H1687 H 0.90281 0.71562 0.63058 0.0
H1688 H 0.96561 0.81668 0.67863 0.0
H1689 H 0.98887 0.80582 0.68228 0.0
H1690 H 0.96259 0.79596 0.69801 0.0
H1691 H 0.93822 0.76597 0.60529 0.0
H1692 H 0.93095 0.73231 0.60524 0.0
H1693 H 0.96422 0.75941 0.61143 0.0
C1694 C 0.18165 0.19956 0.62913 0.0
C1695 C 0.16063 0.17361 0.62419 0.0
C1696 C 0.20751 0.20468 0.63374 0.0
C1697 C 0.21235 0.18333 0.63394 0.0
C1698 C 0.19149 0.15729 0.62808 0.0
C1699 C 0.16611 0.15286 0.62291 0.0
C1700 C 0.22942 0.23282 0.63921 0.0
C1701 C 0.1956 0.13384 0.6283 0.0
C1702 C 0.27972 0.18898 0.63649 0.0
C1703 C 0.28431 0.1875 0.65668 0.0
C1704 C 0.25724 0.18954 0.629 0.0
C1705 C 0.23848 0.1876 0.64191 0.0
C1706 C 0.24349 0.18693 0.6624 0.0
C1707 C 0.26651 0.18728 0.66956 0.0
C1708 C 0.25309 0.19113 0.60717 0.0
C1709 C 0.22374 0.18413 0.67664 0.0
H1710 H 0.17781 0.2158 0.63018 0.0
H1711 H 0.1503 0.13284 0.61843 0.0
H1712 H 0.23531 0.23603 0.65534 0.0
H1713 H 0.247 0.23678 0.63161 0.0
H1714 H 0.22339 0.24732 0.63536 0.0
H1715 H 0.17743 0.11491 0.6229 0.0
H1716 H 0.21137 0.13643 0.61897 0.0
H1717 H 0.20204 0.13236 0.64357 0.0
H1718 H 0.29348 0.18927 0.62648 0.0
H1719 H 0.26978 0.18583 0.68514 0.0
H1720 H 0.24643 0.20549 0.60466 0.0
H1721 H 0.2375 0.17157 0.60002 0.0
H1722 H 0.27131 0.19706 0.59983 0.0
H1723 H 0.21866 0.19985 0.67539 0.0
H1724 H 0.23115 0.18516 0.69223 0.0
H1725 H 0.20531 0.16485 0.67288 0.0
C1726 C 0.83083 1.00047 0.63276 0.0
C1727 C 0.83033 0.98778 0.64965 0.0
C1728 C 0.82998 0.02407 0.63409 0.0
C1729 C 0.82837 0.03497 0.65273 0.0
C1730 C 0.82559 0.02089 0.66947 0.0
C1731 C 0.82682 0.9976 0.66776 0.0
C1732 C 0.83301 0.03841 0.61589 0.0
C1733 C 0.82343 0.0315 0.68957 0.0
C1734 C 0.86481 0.10914 0.66617 0.0
C1735 C 0.84428 0.1147 0.66584 0.0
C1736 C 0.85992 0.08351 0.66099 0.0
C1737 C 0.83375 0.06272 0.65553 0.0
C1738 C 0.81299 0.0684 0.65439 0.0
C1739 C 0.81853 0.09444 0.65948 0.0
C1740 C 0.88276 0.07852 0.66213 0.0
C1741 C 0.78485 0.04682 0.64867 0.0
H1742 H 0.83375 0.99296 0.61878 0.0
H1743 H 0.82638 0.9877 0.68081 0.0
H1744 H 0.81929 0.04618 0.61494 0.0
H1745 H 0.85333 0.05557 0.61674 0.0
H1746 H 0.82945 0.02543 0.60215 0.0
H1747 H 0.81776 0.01656 0.70039 0.0
H1748 H 0.84268 0.04898 0.69529 0.0
H1749 H 0.80871 0.03803 0.68856 0.0
H1750 H 0.8848 0.12485 0.67085 0.0
H1751 H 0.80262 0.09872 0.65915 0.0
H1752 H 0.88268 0.0679 0.64809 0.0
H1753 H 0.88079 0.06578 0.67408 0.0
H1754 H 0.90207 0.09712 0.66512 0.0
H1755 H 0.7834 0.03459 0.6351 0.0
H1756 H 0.77151 0.05488 0.64613 0.0
H1757 H 0.77789 0.03356 0.66062 0.0
C1758 C 0.5111 0.33074 0.73658 0.0
C1759 C 0.5208 0.35351 0.72657 0.0
C1760 C 0.48631 0.30849 0.73052 0.0
C1761 C 0.47107 0.30882 0.71379 0.0
C1762 C 0.48004 0.33242 0.70446 0.0
C1763 C 0.50477 0.35459 0.71107 0.0
C1764 C 0.47736 0.28397 0.74114 0.0
C1765 C 0.46458 0.33359 0.68649 0.0
C1766 C 0.43226 0.24329 0.68201 0.0
C1767 C 0.4064 0.23437 0.68647 0.0
C1768 C 0.45321 0.26764 0.69053 0.0
C1769 C 0.44837 0.28346 0.70419 0.0
C1770 C 0.42226 0.27461 0.70882 0.0
C1771 C 0.40148 0.2502 0.69974 0.0
C1772 C 0.48063 0.2763 0.68498 0.0
C1773 C 0.41639 0.29071 0.72354 0.0
H1774 H 0.52341 0.32999 0.7487 0.0
H1775 H 0.5123 0.37215 0.70327 0.0
H1776 H 0.45628 0.27508 0.74362 0.0
H1777 H 0.47944 0.26903 0.7319 0.0
H1778 H 0.48913 0.28819 0.75561 0.0
H1779 H 0.47209 0.35419 0.68279 0.0
H1780 H 0.46599 0.322 0.67364 0.0
H1781 H 0.44344 0.32466 0.68877 0.0
H1782 H 0.43623 0.23119 0.67174 0.0
H1783 H 0.38151 0.24344 0.70316 0.0
H1784 H 0.49354 0.27812 0.69821 0.0
H1785 H 0.48926 0.29604 0.67938 0.0
H1786 H 0.48087 0.26221 0.67349 0.0
H1787 H 0.4272 0.29328 0.73814 0.0
H1788 H 0.39503 0.28131 0.72531 0.0
H1789 H 0.42334 0.31074 0.71882 0.0
C1790 C 0.66215 0.14937 0.71958 0.0
C1791 C 0.66909 0.17536 0.72629 0.0
C1792 C 0.68122 0.1434 0.7135 0.0
C1793 C 0.70768 0.16398 0.71355 0.0
C1794 C 0.71497 0.18998 0.72106 0.0
C1795 C 0.69578 0.19517 0.72774 0.0
C1796 C 0.67288 0.11522 0.70639 0.0
C1797 C 0.74283 0.21268 0.7211 0.0
C1798 C 0.76732 0.15589 0.70898 0.0
C1799 C 0.7709 0.15894 0.68894 0.0
C1800 C 0.74558 0.15534 0.71693 0.0
C1801 C 0.72762 0.15905 0.7047 0.0
C1802 C 0.73071 0.16121 0.68429 0.0
C1803 C 0.75209 0.16069 0.6766 0.0
C1804 C 0.74258 0.15208 0.7386 0.0
C1805 C 0.71258 0.16604 0.67083 0.0
H1806 H 0.64169 0.13383 0.71834 0.0
H1807 H 0.70168 0.21513 0.73358 0.0
H1808 H 0.67327 0.1133 0.69015 0.0
H1809 H 0.6868 0.10964 0.71313 0.0
H1810 H 0.6527 0.10107 0.70996 0.0
H1811 H 0.74528 0.23177 0.7274 0.0
H1812 H 0.75679 0.2087 0.72975 0.0
H1813 H 0.74842 0.21479 0.70576 0.0
H1814 H 0.78184 0.15447 0.71856 0.0
H1815 H 0.75503 0.16342 0.66116 0.0
H1816 H 0.72172 0.13835 0.74087 0.0
H1817 H 0.74858 0.17145 0.74678 0.0
H1818 H 0.75496 0.14448 0.74508 0.0
H1819 H 0.69175 0.15098 0.67192 0.0
H1820 H 0.71664 0.16566 0.65513 0.0
H1821 H 0.715 0.18564 0.6755 0.0
C1822 C 0.86994 0.52027 0.69921 0.0
C1823 C 0.89345 0.52534 0.69149 0.0
C1824 C 0.86117 0.53862 0.6987 0.0
C1825 C 0.87575 0.56222 0.68966 0.0
C1826 C 0.89996 0.56795 0.68259 0.0
C1827 C 0.90876 0.54979 0.684 0.0
C1828 C 0.83574 0.53223 0.70711 0.0
C1829 C 0.91594 0.59259 0.67249 0.0
C1830 C 0.8383 0.5914 0.66433 0.0
C1831 C 0.84638 0.61461 0.67671 0.0
C1832 C 0.84762 0.57418 0.66847 0.0
C1833 C 0.86466 0.57973 0.68585 0.0
C1834 C 0.8721 0.60266 0.69881 0.0
C1835 C 0.86334 0.62015 0.69383 0.0
C1836 C 0.83983 0.55047 0.65389 0.0
C1837 C 0.88937 0.60877 0.71787 0.0
H1838 H 0.85778 0.50155 0.705 0.0
H1839 H 0.92744 0.55456 0.67867 0.0
H1840 H 0.83805 0.54974 0.71616 0.0
H1841 H 0.82011 0.52684 0.69489 0.0
H1842 H 0.82906 0.51549 0.71639 0.0
H1843 H 0.93472 0.59452 0.66829 0.0
H1844 H 0.90429 0.59218 0.65893 0.0
H1845 H 0.92052 0.61044 0.68225 0.0
H1846 H 0.82526 0.58708 0.65101 0.0
H1847 H 0.86952 0.63797 0.70344 0.0
H1848 H 0.82955 0.53203 0.6612 0.0
H1849 H 0.85771 0.55149 0.64851 0.0
H1850 H 0.82672 0.54916 0.64095 0.0
H1851 H 0.88163 0.59112 0.72622 0.0
H1852 H 0.8907 0.6255 0.7274 0.0
H1853 H 0.90951 0.61392 0.71462 0.0
C1854 C 0.41704 0.9066 0.2119 0.0
C1855 C 0.43478 0.91032 0.22811 0.0
C1856 C 0.42599 0.91726 0.1941 0.0
C1857 C 0.45339 0.93222 0.19247 0.0
C1858 C 0.47142 0.93634 0.20887 0.0
C1859 C 0.4619 0.92522 0.22644 0.0
C1860 C 0.40612 0.91216 0.17692 0.0
C1861 C 0.50077 0.95242 0.20783 0.0
C1862 C 0.47774 0.93954 0.14134 0.0
C1863 C 0.48202 0.96464 0.13779 0.0
C1864 C 0.46824 0.92867 0.15899 0.0
C1865 C 0.46319 0.94337 0.17356 0.0
C1866 C 0.46751 0.96873 0.17005 0.0
C1867 C 0.47673 0.97898 0.15218 0.0
C1868 C 0.46357 0.90143 0.16204 0.0
C1869 C 0.46264 0.98516 0.18525 0.0
H1870 H 0.39606 0.89474 0.21297 0.0
H1871 H 0.4757 0.92829 0.23895 0.0
H1872 H 0.40917 0.93118 0.17216 0.0
H1873 H 0.40888 0.90149 0.16415 0.0
H1874 H 0.38551 0.9003 0.18061 0.0
H1875 H 0.51216 0.9543 0.22201 0.0
H1876 H 0.5066 0.94309 0.19605 0.0
H1877 H 0.5063 0.97252 0.20391 0.0
H1878 H 0.48156 0.92827 0.1302 0.0
H1879 H 0.48032 0.99853 0.14963 0.0
H1880 H 0.44274 0.88824 0.16466 0.0
H1881 H 0.47598 0.90246 0.17534 0.0
H1882 H 0.46809 0.89242 0.14916 0.0
H1883 H 0.4418 0.9743 0.18854 0.0
H1884 H 0.46702 0.00453 0.18029 0.0
H1885 H 0.47504 0.98877 0.19927 0.0
C1886 C 0.10488 0.5208 0.22839 0.0
C1887 C 0.12929 0.54271 0.23574 0.0
C1888 C 0.09349 0.51903 0.20925 0.0
C1889 C 0.10692 0.53957 0.19708 0.0
C1890 C 0.13186 0.56145 0.20425 0.0
C1891 C 0.14269 0.5628 0.22351 0.0
C1892 C 0.06676 0.49549 0.20224 0.0
C1893 C 0.14693 0.58362 0.19169 0.0
C1894 C 0.08488 0.52473 0.14185 0.0
C1895 C 0.06845 0.5356 0.13994 0.0
C1896 C 0.09788 0.52622 0.16028 0.0
C1897 C 0.09427 0.53876 0.17723 0.0
C1898 C 0.07808 0.55014 0.17534 0.0
C1899 C 0.06551 0.54855 0.15675 0.0
C1900 C 0.11511 0.51398 0.16167 0.0
C1901 C 0.07369 0.56369 0.19303 0.0
H1902 H 0.09433 0.50534 0.23783 0.0
H1903 H 0.16174 0.5796 0.22901 0.0
H1904 H 0.05237 0.50217 0.19937 0.0
H1905 H 0.06762 0.48568 0.18812 0.0
H1906 H 0.05937 0.48072 0.21319 0.0
H1907 H 0.16663 0.59858 0.19907 0.0
H1908 H 0.14953 0.57559 0.17739 0.0
H1909 H 0.13561 0.59362 0.18831 0.0
H1910 H 0.08708 0.51446 0.12902 0.0
H1911 H 0.05329 0.55747 0.15538 0.0
H1912 H 0.10686 0.49762 0.17128 0.0
H1913 H 0.13511 0.52883 0.16856 0.0
H1914 H 0.11686 0.50605 0.14699 0.0
H1915 H 0.06463 0.54951 0.20417 0.0
H1916 H 0.06071 0.57175 0.18904 0.0
H1917 H 0.09281 0.58012 0.20013 0.0
C1918 C 0.49485 0.59712 0.22795 0.0
C1919 C 0.47785 0.57685 0.23887 0.0
C1920 C 0.49951 0.59161 0.20876 0.0
C1921 C 0.48678 0.56513 0.20009 0.0
C1922 C 0.46905 0.54458 0.2108 0.0
C1923 C 0.46475 0.55068 0.23005 0.0
C1924 C 0.51845 0.61417 0.19789 0.0
C1925 C 0.45505 0.5161 0.20208 0.0
C1926 C 0.48645 0.55578 0.14416 0.0
C1927 C 0.5082 0.5523 0.14251 0.0
C1928 C 0.47871 0.55917 0.16277 0.0
C1929 C 0.49305 0.55909 0.18018 0.0
C1930 C 0.51459 0.55491 0.17859 0.0
C1931 C 0.52185 0.55153 0.15984 0.0
C1932 C 0.45564 0.56357 0.1638 0.0
C1933 C 0.5304 0.55461 0.19673 0.0
H1934 H 0.50457 0.61747 0.23442 0.0
H1935 H 0.4516 0.53491 0.23837 0.0
H1936 H 0.53539 0.61166 0.19475 0.0
H1937 H 0.50862 0.61412 0.18348 0.0
H1938 H 0.52609 0.63372 0.20644 0.0
H1939 H 0.44086 0.5026 0.21183 0.0
H1940 H 0.44431 0.51389 0.18752 0.0
H1941 H 0.46968 0.50986 0.19953 0.0
H1942 H 0.47586 0.55657 0.13091 0.0
H1943 H 0.53832 0.54827 0.15875 0.0
H1944 H 0.46257 0.58384 0.17074 0.0
H1945 H 0.4413 0.54955 0.17319 0.0
H1946 H 0.44534 0.56113 0.14897 0.0
H1947 H 0.54016 0.57424 0.20547 0.0
H1948 H 0.54575 0.54981 0.19298 0.0
H1949 H 0.51722 0.5399 0.20632 0.0
C1950 C 0.88403 0.42593 0.78497 0.0
C1951 C 0.90075 0.44202 0.77159 0.0
C1952 C 0.89199 0.4306 0.80532 0.0
C1953 C 0.91724 0.45194 0.8125 0.0
C1954 C 0.93351 0.46926 0.79923 0.0
C1955 C 0.92509 0.46407 0.77893 0.0
C1956 C 0.87399 0.41175 0.81898 0.0
C1957 C 0.96052 0.49231 0.80628 0.0
C1958 C 0.93457 0.47151 0.86798 0.0
C1959 C 0.94806 0.4582 0.87288 0.0
C1960 C 0.92439 0.46973 0.8484 0.0
C1961 C 0.9278 0.45429 0.83338 0.0
C1962 C 0.94144 0.44087 0.83825 0.0
C1963 C 0.95143 0.44304 0.85787 0.0
C1964 C 0.90997 0.48432 0.84376 0.0
C1965 C 0.94559 0.42426 0.82268 0.0
H1966 H 0.86502 0.40911 0.77942 0.0
H1967 H 0.93824 0.47648 0.7687 0.0
H1968 H 0.88243 0.39984 0.82449 0.0
H1969 H 0.87228 0.42281 0.83203 0.0
H1970 H 0.85396 0.39803 0.8115 0.0
H1971 H 0.9693 0.50573 0.79461 0.0
H1972 H 0.95962 0.50387 0.81938 0.0
H1973 H 0.9738 0.48482 0.81084 0.0
H1974 H 0.93172 0.4831 0.87951 0.0
H1975 H 0.96228 0.43313 0.86143 0.0
H1976 H 0.88956 0.47011 0.83728 0.0
H1977 H 0.91979 0.49821 0.8326 0.0
H1978 H 0.90916 0.49564 0.85708 0.0
H1979 H 0.92632 0.40841 0.81532 0.0
H1980 H 0.95648 0.41496 0.82893 0.0
H1981 H 0.95679 0.43666 0.81114 0.0
C1982 C 0.59799 0.5039 0.80147 0.0
C1983 C 0.58009 0.4876 0.78537 0.0
C1984 C 0.58925 0.50668 0.81973 0.0
C1985 C 0.56193 0.49304 0.82186 0.0
C1986 C 0.54372 0.47755 0.80537 0.0
C1987 C 0.55303 0.47488 0.78736 0.0
C1988 C 0.60931 0.52318 0.83698 0.0
C1989 C 0.51443 0.46302 0.80693 0.0
C1990 C 0.53897 0.47376 0.87243 0.0
C1991 C 0.53279 0.49309 0.87855 0.0
C1992 C 0.54889 0.47384 0.85419 0.0
C1993 C 0.55245 0.49353 0.84161 0.0
C1994 C 0.54646 0.51324 0.84778 0.0
C1995 C 0.53685 0.51288 0.86624 0.0
C1996 C 0.55539 0.45269 0.8483 0.0
C1997 C 0.54969 0.53438 0.83472 0.0
H1998 H 0.61894 0.51351 0.80006 0.0
H1999 H 0.53914 0.46241 0.77489 0.0
H2000 H 0.60459 0.53771 0.84388 0.0
H2001 H 0.6087 0.51023 0.84842 0.0
H2002 H 0.62965 0.534 0.83256 0.0
H2003 H 0.50286 0.45363 0.79238 0.0
H2004 H 0.50939 0.4474 0.81706 0.0
H2005 H 0.50836 0.47678 0.81326 0.0
H2006 H 0.53613 0.45862 0.88201 0.0
H2007 H 0.53187 0.5277 0.87084 0.0
H2008 H 0.57618 0.46192 0.84493 0.0
H2009 H 0.54286 0.4406 0.83467 0.0
H2010 H 0.55237 0.43936 0.86004 0.0
H2011 H 0.57026 0.54543 0.83086 0.0
H2012 H 0.54474 0.54863 0.84186 0.0
H2013 H 0.53678 0.52509 0.82068 0.0
C2014 C 0.53128 0.09019 0.79473 0.0
C2015 C 0.55278 0.11524 0.79269 0.0
C2016 C 0.52703 0.07988 0.81309 0.0
C2017 C 0.54486 0.09484 0.82987 0.0
C2018 C 0.56735 0.11954 0.82775 0.0
C2019 C 0.57102 0.1295 0.80918 0.0
C2020 C 0.50284 0.05341 0.81465 0.0
C2021 C 0.58696 0.13593 0.84524 0.0
C2022 C 0.51535 0.07977 0.87889 0.0
C2023 C 0.5225 0.06168 0.88518 0.0
C2024 C 0.52331 0.09145 0.86126 0.0
C2025 C 0.539 0.08506 0.84972 0.0
C2026 C 0.54727 0.06774 0.85647 0.0
C2027 C 0.53882 0.05616 0.87407 0.0
C2028 C 0.51391 0.10969 0.85453 0.0
C2029 C 0.5643 0.06072 0.84477 0.0
H2030 H 0.51734 0.07887 0.78198 0.0
H2031 H 0.58756 0.14895 0.80778 0.0
H2032 H 0.50849 0.03996 0.82136 0.0
H2033 H 0.48974 0.05601 0.82445 0.0
H2034 H 0.49152 0.04378 0.80005 0.0
H2035 H 0.60468 0.15336 0.84081 0.0
H2036 H 0.57757 0.143 0.85574 0.0
H2037 H 0.59326 0.12376 0.85326 0.0
H2038 H 0.50258 0.08396 0.88733 0.0
H2039 H 0.54471 0.04247 0.87903 0.0
H2040 H 0.50045 0.10051 0.84072 0.0
H2041 H 0.5308 0.12862 0.85116 0.0
H2042 H 0.50331 0.11402 0.86579 0.0
H2043 H 0.55302 0.04898 0.83067 0.0
H2044 H 0.57112 0.04904 0.85295 0.0
H2045 H 0.58176 0.07891 0.84098 0.0
C2046 C 0.0821 0.23043 0.54116 0.0
C2047 C 0.09978 0.2337 0.55728 0.0
C2048 C 0.09114 0.24146 0.52349 0.0
C2049 C 0.11856 0.25628 0.52189 0.0
C2050 C 0.13651 0.25956 0.53807 0.0
C2051 C 0.12691 0.24814 0.55553 0.0
C2052 C 0.07135 0.23729 0.50653 0.0
C2053 C 0.16588 0.2754 0.53703 0.0
C2054 C 0.14275 0.2672 0.47072 0.0
C2055 C 0.14717 0.29267 0.46844 0.0
C2056 C 0.13333 0.25505 0.48798 0.0
C2057 C 0.12844 0.26879 0.50342 0.0
C2058 C 0.13294 0.29454 0.50121 0.0
C2059 C 0.14215 0.30611 0.48374 0.0
C2060 C 0.12852 0.22747 0.48967 0.0
C2061 C 0.12821 0.30996 0.51737 0.0
H2062 H 0.06111 0.21895 0.5423 0.0
H2063 H 0.14067 0.25091 0.56798 0.0
H2064 H 0.07417 0.25664 0.5028 0.0
H2065 H 0.07442 0.22778 0.4932 0.0
H2066 H 0.05071 0.22478 0.50998 0.0
H2067 H 0.17721 0.27582 0.5508 0.0
H2068 H 0.17142 0.26696 0.52446 0.0
H2069 H 0.17178 0.29602 0.53436 0.0
H2070 H 0.14636 0.25663 0.45888 0.0
H2071 H 0.14587 0.32594 0.4822 0.0
H2072 H 0.10763 0.21403 0.49202 0.0
H2073 H 0.14077 0.2275 0.50268 0.0
H2074 H 0.1331 0.21939 0.4763 0.0
H2075 H 0.10735 0.2989 0.52056 0.0
H2076 H 0.1328 0.32982 0.51339 0.0
H2077 H 0.14053 0.31247 0.53118 0.0
C2078 C 0.76138 0.87956 0.5716 0.0
C2079 C 0.77732 0.86833 0.57456 0.0
C2080 C 0.7493 0.87784 0.55276 0.0
C2081 C 0.75341 0.86473 0.53643 0.0
C2082 C 0.76939 0.85325 0.53933 0.0
C2083 C 0.78109 0.85512 0.55837 0.0
C2084 C 0.73223 0.89015 0.5503 0.0
C2085 C 0.77444 0.83932 0.52228 0.0
C2086 C 0.70522 0.84144 0.49004 0.0
C2087 C 0.71864 0.8619 0.47811 0.0
C2088 C 0.71628 0.84207 0.50905 0.0
C2089 C 0.74146 0.86357 0.51623 0.0
C2090 C 0.7552 0.88414 0.50418 0.0
C2091 C 0.7436 0.88309 0.4853 0.0
C2092 C 0.70093 0.81987 0.52152 0.0
C2093 C 0.78218 0.90728 0.51121 0.0
H2094 H 0.75816 0.88952 0.58411 0.0
H2095 H 0.79364 0.84666 0.56052 0.0
H2096 H 0.74056 0.90576 0.54008 0.0
H2097 H 0.71221 0.87502 0.54363 0.0
H2098 H 0.73049 0.89906 0.56457 0.0
H2099 H 0.78697 0.83104 0.52706 0.0
H2100 H 0.75552 0.82299 0.51481 0.0
H2101 H 0.7843 0.85331 0.51118 0.0
H2102 H 0.68583 0.82514 0.48462 0.0
H2103 H 0.75424 0.89877 0.47604 0.0
H2104 H 0.69733 0.82786 0.5354 0.0
H2105 H 0.71251 0.81039 0.52571 0.0
H2106 H 0.68168 0.80451 0.51373 0.0
H2107 H 0.78121 0.91796 0.52482 0.0
H2108 H 0.79041 0.92146 0.49993 0.0
H2109 H 0.79596 0.90011 0.51502 0.0
C2110 C 0.15331 0.90478 0.55897 0.0
C2111 C 0.13157 0.90759 0.56257 0.0
C2112 C 0.15726 0.8984 0.53978 0.0
C2113 C 0.13895 0.89454 0.5237 0.0
C2114 C 0.11625 0.89603 0.52733 0.0
C2115 C 0.11284 0.90257 0.54672 0.0
C2116 C 0.18165 0.89686 0.53663 0.0
C2117 C 0.09614 0.89183 0.51062 0.0
C2118 C 0.16685 0.9089 0.47398 0.0
C2119 C 0.15964 0.88356 0.46548 0.0
C2120 C 0.15955 0.91265 0.49264 0.0
C2121 C 0.14452 0.89051 0.50307 0.0
C2122 C 0.13636 0.86479 0.49425 0.0
C2123 C 0.14408 0.86163 0.47562 0.0
C2124 C 0.16879 0.94043 0.50152 0.0
C2125 C 0.12011 0.84065 0.50475 0.0
H2126 H 0.16766 0.90824 0.57118 0.0
H2127 H 0.0961 0.9049 0.54933 0.0
H2128 H 0.17621 0.8777 0.52834 0.0
H2129 H 0.19443 0.91274 0.52764 0.0
H2130 H 0.19323 0.89898 0.55078 0.0
H2131 H 0.0784 0.89111 0.51605 0.0
H2132 H 0.10505 0.90818 0.50106 0.0
H2133 H 0.08998 0.87317 0.50129 0.0
H2134 H 0.17907 0.92597 0.46636 0.0
H2135 H 0.13812 0.84195 0.46902 0.0
H2136 H 0.1825 0.94518 0.515 0.0
H2137 H 0.15183 0.94206 0.50606 0.0
H2138 H 0.17904 0.95539 0.49109 0.0
H2139 H 0.13182 0.84099 0.51824 0.0
H2140 H 0.11362 0.82197 0.49528 0.0
H2141 H 0.10247 0.84071 0.50955 0.0
C2142 C 0.61014 0.78746 0.1047 0.0
C2143 C 0.58425 0.78266 0.10335 0.0
C2144 C 0.62503 0.79388 0.12313 0.0
C2145 C 0.61347 0.7949 0.14057 0.0
C2146 C 0.58782 0.79139 0.13916 0.0
C2147 C 0.5736 0.78547 0.12057 0.0
C2148 C 0.65256 0.79815 0.124 0.0
C2149 C 0.57461 0.79199 0.15737 0.0
C2150 C 0.63014 0.77319 0.18778 0.0
C2151 C 0.6433 0.79701 0.20013 0.0
C2152 C 0.62144 0.77246 0.16807 0.0
C2153 C 0.62651 0.79624 0.16031 0.0
C2154 C 0.64154 0.82062 0.17221 0.0
C2155 C 0.64962 0.82072 0.19207 0.0
C2156 C 0.60542 0.74599 0.15592 0.0
C2157 C 0.64786 0.84643 0.16431 0.0
H2158 H 0.61846 0.78547 0.09137 0.0
H2159 H 0.55346 0.78142 0.11963 0.0
H2160 H 0.66618 0.81553 0.13455 0.0
H2161 H 0.65256 0.78066 0.12935 0.0
H2162 H 0.66022 0.80115 0.10929 0.0
H2163 H 0.55547 0.79096 0.1537 0.0
H2164 H 0.57104 0.77497 0.16568 0.0
H2165 H 0.58754 0.81027 0.16731 0.0
H2166 H 0.62584 0.75487 0.19375 0.0
H2167 H 0.65977 0.83923 0.20148 0.0
H2168 H 0.61383 0.74625 0.14174 0.0
H2169 H 0.58502 0.74187 0.15233 0.0
H2170 H 0.60455 0.72954 0.16378 0.0
H2171 H 0.65468 0.84733 0.14939 0.0
H2172 H 0.66322 0.86373 0.17418 0.0
H2173 H 0.62982 0.84796 0.16289 0.0
C2174 C 0.21934 0.79903 0.11602 0.0
C2175 C 0.24629 0.81315 0.11354 0.0
C2176 C 0.2101 0.80125 0.13416 0.0
C2177 C 0.22821 0.81813 0.15027 0.0
C2178 C 0.25537 0.83292 0.14776 0.0
C2179 C 0.26409 0.83021 0.12947 0.0
C2180 C 0.18097 0.78517 0.13619 0.0
C2181 C 0.27529 0.85122 0.16454 0.0
C2182 C 0.20007 0.83866 0.19214 0.0
C2183 C 0.19774 0.82096 0.20597 0.0
C2184 C 0.21049 0.83837 0.17416 0.0
C2185 C 0.21867 0.81983 0.16981 0.0
C2186 C 0.21685 0.80226 0.18387 0.0
C2187 C 0.20649 0.80309 0.20179 0.0
C2188 C 0.21237 0.85763 0.15969 0.0
C2189 C 0.22524 0.78211 0.17976 0.0
H2190 H 0.20541 0.78609 0.10373 0.0
H2191 H 0.28498 0.84091 0.12782 0.0
H2192 H 0.17745 0.7716 0.14781 0.0
H2193 H 0.17347 0.79841 0.14087 0.0
H2194 H 0.16944 0.77326 0.12218 0.0
H2195 H 0.29552 0.86225 0.15995 0.0
H2196 H 0.26979 0.86565 0.17041 0.0
H2197 H 0.27542 0.83966 0.17682 0.0
H2198 H 0.19372 0.85279 0.1954 0.0
H2199 H 0.20453 0.78919 0.2123 0.0
H2200 H 0.19968 0.84667 0.14584 0.0
H2201 H 0.23286 0.86924 0.15578 0.0
H2202 H 0.20624 0.87154 0.16565 0.0
H2203 H 0.2129 0.76822 0.16672 0.0
H2204 H 0.22348 0.77053 0.1925 0.0
H2205 H 0.24595 0.79206 0.17616 0.0
C2206 C 0.22732 0.43108 0.1293 0.0
C2207 C 0.21336 0.44379 0.12406 0.0
C2208 C 0.22361 0.41883 0.14695 0.0
C2209 C 0.20556 0.41936 0.15959 0.0
C2210 C 0.19199 0.43277 0.15458 0.0
C2211 C 0.19615 0.44488 0.13699 0.0
C2212 C 0.23853 0.40483 0.15186 0.0
C2213 C 0.17263 0.43392 0.16763 0.0
C2214 C 0.17121 0.36635 0.19406 0.0
C2215 C 0.18419 0.37981 0.21258 0.0
C2216 C 0.17874 0.37863 0.17663 0.0
C2217 C 0.1998 0.40505 0.17767 0.0
C2218 C 0.2136 0.41846 0.19624 0.0
C2219 C 0.20559 0.40571 0.21348 0.0
C2220 C 0.16338 0.36368 0.15716 0.0
C2221 C 0.23626 0.44658 0.19797 0.0
H2222 H 0.24065 0.43017 0.1194 0.0
H2223 H 0.18578 0.45525 0.1333 0.0
H2224 H 0.24907 0.41216 0.16692 0.0
H2225 H 0.22452 0.38335 0.15182 0.0
H2226 H 0.25304 0.40762 0.14117 0.0
H2227 H 0.16416 0.44569 0.16184 0.0
H2228 H 0.15626 0.41361 0.1689 0.0
H2229 H 0.1824 0.44272 0.18274 0.0
H2230 H 0.15447 0.34646 0.19324 0.0
H2231 H 0.21596 0.41609 0.2277 0.0
H2232 H 0.17694 0.36447 0.14624 0.0
H2233 H 0.15252 0.37309 0.15111 0.0
H2234 H 0.14897 0.34263 0.15866 0.0
H2235 H 0.25074 0.44852 0.18753 0.0
H2236 H 0.2465 0.45333 0.21317 0.0
H2237 H 0.22887 0.45994 0.19395 0.0
C2238 C 0.76984 0.59532 0.89 0.0
C2239 C 0.76431 0.56955 0.8926 0.0
C2240 C 0.77943 0.60685 0.87256 0.0
C2241 C 0.78358 0.59229 0.85729 0.0
C2242 C 0.77772 0.56615 0.85971 0.0
C2243 C 0.76816 0.55512 0.8773 0.0
C2244 C 0.78549 0.63479 0.8706 0.0
C2245 C 0.78173 0.54988 0.84378 0.0
C2246 C 0.78897 0.61469 0.80545 0.0
C2247 C 0.81635 0.62903 0.80473 0.0
C2248 C 0.778 0.6025 0.82237 0.0
C2249 C 0.79479 0.60466 0.83903 0.0
C2250 C 0.82242 0.61882 0.8383 0.0
C2251 C 0.83283 0.63076 0.8212 0.0
C2252 C 0.74845 0.58759 0.82253 0.0
C2253 C 0.84103 0.62149 0.85565 0.0
H2254 H 0.76714 0.6067 0.90178 0.0
H2255 H 0.76349 0.53502 0.87899 0.0
H2256 H 0.80675 0.64765 0.86904 0.0
H2257 H 0.77441 0.63536 0.85708 0.0
H2258 H 0.78043 0.64318 0.88354 0.0
H2259 H 0.77574 0.52968 0.84778 0.0
H2260 H 0.7702 0.54817 0.82975 0.0
H2261 H 0.80277 0.55986 0.84099 0.0
H2262 H 0.77606 0.61347 0.79292 0.0
H2263 H 0.85398 0.64142 0.82069 0.0
H2264 H 0.74275 0.59692 0.8344 0.0
H2265 H 0.74156 0.56696 0.8258 0.0
H2266 H 0.73809 0.58713 0.80823 0.0
H2267 H 0.83815 0.6314 0.86885 0.0
H2268 H 0.86199 0.63302 0.8527 0.0
H2269 H 0.83671 0.60163 0.85933 0.0
C2270 C 0.44538 0.2233 0.90246 0.0
C2271 C 0.46007 0.21091 0.90629 0.0
C2272 C 0.43363 0.22112 0.88339 0.0
C2273 C 0.43653 0.20608 0.86776 0.0
C2274 C 0.45157 0.19376 0.87145 0.0
C2275 C 0.4632 0.19637 0.89065 0.0
C2276 C 0.41773 0.23453 0.88005 0.0
C2277 C 0.45512 0.17757 0.85517 0.0
C2278 C 0.38399 0.17879 0.82409 0.0
C2279 C 0.3964 0.19691 0.81031 0.0
C2280 C 0.397 0.18132 0.8427 0.0
C2281 C 0.42305 0.20252 0.8477 0.0
C2282 C 0.43589 0.22061 0.83371 0.0
C2283 C 0.42243 0.21755 0.81515 0.0
C2284 C 0.3827 0.16147 0.85712 0.0
C2285 C 0.46363 0.24352 0.83852 0.0
H2286 H 0.4426 0.2343 0.91449 0.0
H2287 H 0.47487 0.18709 0.89341 0.0
H2288 H 0.42529 0.24776 0.86813 0.0
H2289 H 0.39692 0.21948 0.87516 0.0
H2290 H 0.41826 0.24637 0.89359 0.0
H2291 H 0.46789 0.16976 0.86038 0.0
H2292 H 0.43568 0.16067 0.84907 0.0
H2293 H 0.46393 0.18975 0.84288 0.0
H2294 H 0.36403 0.16256 0.82031 0.0
H2295 H 0.43203 0.23173 0.80462 0.0
H2296 H 0.38069 0.17164 0.87058 0.0
H2297 H 0.39423 0.15212 0.86181 0.0
H2298 H 0.36276 0.14569 0.85075 0.0
H2299 H 0.46429 0.25678 0.85111 0.0
H2300 H 0.47118 0.25525 0.82578 0.0
H2301 H 0.47705 0.23622 0.84313 0.0
C2302 C 0.78151 0.23464 0.87837 0.0
C2303 C 0.80005 0.23987 0.89443 0.0
C2304 C 0.78542 0.22833 0.85907 0.0
C2305 C 0.80845 0.22734 0.85572 0.0
C2306 C 0.82661 0.23146 0.872 0.0
C2307 C 0.82214 0.23753 0.8911 0.0
C2308 C 0.76543 0.2238 0.84216 0.0
C2309 C 0.85137 0.2305 0.86916 0.0
C2310 C 0.81514 0.1952 0.80785 0.0
C2311 C 0.83042 0.21728 0.79777 0.0
C2312 C 0.80701 0.19803 0.82639 0.0
C2313 C 0.81452 0.22359 0.83519 0.0
C2314 C 0.82934 0.24588 0.82485 0.0
C2315 C 0.83701 0.24245 0.80627 0.0
C2316 C 0.79095 0.17373 0.83678 0.0
C2317 C 0.83795 0.27351 0.83373 0.0
H2318 H 0.76451 0.2366 0.88075 0.0
H2319 H 0.83634 0.2411 0.90346 0.0
H2320 H 0.77423 0.24021 0.83264 0.0
H2321 H 0.75975 0.20525 0.83284 0.0
H2322 H 0.7474 0.22264 0.84737 0.0
H2323 H 0.86284 0.23285 0.88342 0.0
H2324 H 0.84641 0.21146 0.86093 0.0
H2325 H 0.86408 0.2465 0.86022 0.0
H2326 H 0.80967 0.17565 0.80126 0.0
H2327 H 0.84903 0.25963 0.79869 0.0
H2328 H 0.77299 0.17333 0.84135 0.0
H2329 H 0.80258 0.1743 0.8504 0.0
H2330 H 0.78499 0.15518 0.82733 0.0
H2331 H 0.82067 0.27472 0.838 0.0
H2332 H 0.84823 0.28861 0.8234 0.0
H2333 H 0.85143 0.27841 0.84737 0.0
C2334 C 0.24166 0.12392 0.45245 0.0
C2335 C 0.22443 0.09696 0.44666 0.0
C2336 C 0.25493 0.13256 0.47157 0.0
C2337 C 0.25068 0.11378 0.48518 0.0
C2338 C 0.23284 0.08662 0.47952 0.0
C2339 C 0.21996 0.07856 0.46035 0.0
C2340 C 0.27391 0.16167 0.47708 0.0
C2341 C 0.22765 0.06599 0.49363 0.0
C2342 C 0.30255 0.12792 0.52708 0.0
C2343 C 0.292 0.13344 0.54341 0.0
C2344 C 0.28974 0.1224 0.50797 0.0
C2345 C 0.26565 0.12218 0.50508 0.0
C2346 C 0.25511 0.12825 0.52141 0.0
C2347 C 0.26843 0.13383 0.54039 0.0
C2348 C 0.30161 0.116 0.49094 0.0
C2349 C 0.22946 0.12821 0.51888 0.0
H2350 H 0.2452 0.13817 0.44187 0.0
H2351 H 0.20625 0.05775 0.45605 0.0
H2352 H 0.26875 0.16857 0.4907 0.0
H2353 H 0.29413 0.16511 0.48028 0.0
H2354 H 0.27403 0.17384 0.46514 0.0
H2355 H 0.21251 0.04579 0.48713 0.0
H2356 H 0.24612 0.06597 0.49788 0.0
H2357 H 0.22099 0.07077 0.50736 0.0
H2358 H 0.32054 0.12718 0.5293 0.0
H2359 H 0.26036 0.13846 0.5529 0.0
H2360 H 0.30349 0.12868 0.47896 0.0
H2361 H 0.28844 0.09517 0.48469 0.0
H2362 H 0.32133 0.11878 0.49546 0.0
H2363 H 0.23028 0.14132 0.50751 0.0
H2364 H 0.2247 0.13482 0.53286 0.0
H2365 H 0.21319 0.10798 0.51362 0.0
C2366 C 0.91022 0.1627 0.45135 0.0
C2367 C 0.91322 0.14083 0.44642 0.0
C2368 C 0.90124 0.16579 0.46946 0.0
C2369 C 0.89489 0.14647 0.48295 0.0
C2370 C 0.8981 0.12451 0.47815 0.0
C2371 C 0.90737 0.12206 0.46007 0.0
C2372 C 0.89827 0.1896 0.47407 0.0
C2373 C 0.89149 0.1034 0.49206 0.0
C2374 C 0.89059 0.16227 0.53722 0.0
C2375 C 0.86329 0.15077 0.53795 0.0
C2376 C 0.9012 0.16149 0.51939 0.0
C2377 C 0.88413 0.1487 0.50183 0.0
C2378 C 0.85661 0.13723 0.50242 0.0
C2379 C 0.84657 0.13853 0.5204 0.0
C2380 C 0.93067 0.17408 0.51939 0.0
C2381 C 0.8377 0.12331 0.48408 0.0
H2382 H 0.91448 0.17722 0.4409 0.0
H2383 H 0.91019 0.10542 0.4567 0.0
H2384 H 0.87731 0.18312 0.47557 0.0
H2385 H 0.90962 0.20044 0.48839 0.0
H2386 H 0.90512 0.20342 0.46244 0.0
H2387 H 0.89528 0.08766 0.48622 0.0
H2388 H 0.90327 0.11234 0.50657 0.0
H2389 H 0.87043 0.09415 0.49469 0.0
H2390 H 0.90372 0.17152 0.55069 0.0
H2391 H 0.82551 0.13004 0.52065 0.0
H2392 H 0.93779 0.18862 0.50829 0.0
H2393 H 0.93577 0.15877 0.51512 0.0
H2394 H 0.94131 0.18427 0.53407 0.0
H2395 H 0.84245 0.13702 0.47244 0.0
H2396 H 0.81687 0.11569 0.48696 0.0
H2397 H 0.83975 0.10648 0.47817 0.0
C2398 C 0.8942 0.78501 0.47219 0.0
C2399 C 0.87691 0.77027 0.45535 0.0
C2400 C 0.89035 0.77494 0.49071 0.0
C2401 C 0.86861 0.74957 0.49248 0.0
C2402 C 0.8517 0.7342 0.4754 0.0
C2403 C 0.8561 0.74468 0.45707 0.0
C2404 C 0.90895 0.79189 0.50851 0.0
C2405 C 0.82836 0.70702 0.4766 0.0
C2406 C 0.86549 0.71345 0.53784 0.0
C2407 C 0.84864 0.71829 0.54884 0.0
C2408 C 0.87266 0.72398 0.5197 0.0
C2409 C 0.86264 0.73962 0.51229 0.0
C2410 C 0.84605 0.74501 0.52352 0.0
C2411 C 0.83932 0.73436 0.54165 0.0
C2412 C 0.89062 0.718 0.5083 0.0
C2413 C 0.83483 0.76149 0.51613 0.0
H2414 H 0.91015 0.8049 0.47109 0.0
H2415 H 0.84288 0.73299 0.44409 0.0
H2416 H 0.89834 0.79771 0.51877 0.0
H2417 H 0.91621 0.78057 0.51667 0.0
H2418 H 0.92615 0.81012 0.50442 0.0
H2419 H 0.81787 0.69707 0.46183 0.0
H2420 H 0.8348 0.69438 0.48371 0.0
H2421 H 0.81426 0.70858 0.48592 0.0
H2422 H 0.87305 0.70134 0.54342 0.0
H2423 H 0.82606 0.73795 0.54994 0.0
H2424 H 0.9079 0.73666 0.50495 0.0
H2425 H 0.88004 0.70647 0.49397 0.0
H2426 H 0.89773 0.70657 0.51651 0.0
H2427 H 0.85094 0.78105 0.51296 0.0
H2428 H 0.82298 0.76463 0.52692 0.0
H2429 H 0.82211 0.75161 0.50208 0.0
loop_
_geom_bond_atom_site_label_1
_geom_bond_atom_site_label_2
_geom_bond_distance
_geom_bond_site_symmetry_2
_ccdc_geom_bond_type
H0 C1 0.949 . S
C1 H0 0.949 . S
C1 C2 1.395 . S
C1 C3 1.391 . S
C2 C1 1.395 . S
C2 C5 1.390 . S
C3 C1 1.391 . S
C3 C7 1.387 . S
C3 C8 1.491 . S
H4 C5 0.950 . S
C5 C2 1.390 . S
C5 H4 0.950 . S
C5 C6 1.378 . S
C6 C5 1.378 . S
C6 C7 1.409 . S
C7 C3 1.387 . S
C7 C6 1.409 . S
C7 H9 0.951 . S
C8 C3 1.491 . S
C8 C10 1.382 . S
C8 C12 1.404 . S
H9 C7 0.951 . S
C10 C8 1.382 . S
C10 C11 1.390 . S
C10 H15 0.949 . S
C11 C10 1.390 . S
C11 C16 1.399 . S
C12 C8 1.404 . S
C12 H13 0.950 . S
C12 C14 1.375 . S
H13 C12 0.950 . S
C14 C12 1.375 . S
C14 C16 1.382 . S
C14 H18 0.950 . S
H15 C10 0.949 . S
C16 C11 1.399 . S
C16 C14 1.382 . S
C16 H17 0.952 . S
H17 C16 0.952 . S
H18 C14 0.950 . S
H19 C20 0.949 . S
C20 H19 0.949 . S
C20 C21 1.395 . S
C20 C22 1.391 . S
C21 C20 1.395 . S
C21 C24 1.390 . S
C22 C20 1.391 . S
C22 C26 1.387 . S
C22 C27 1.491 . S
H23 C24 0.950 . S
C24 C21 1.390 . S
C24 H23 0.950 . S
C24 C25 1.378 . S
C25 C24 1.378 . S
C25 C26 1.409 . S
C26 C22 1.387 . S
C26 C25 1.409 . S
C26 H28 0.951 . S
C27 C22 1.491 . S
C27 C29 1.382 . S
C27 C31 1.404 . S
H28 C26 0.951 . S
C29 C27 1.382 . S
C29 C30 1.390 . S
C29 H34 0.949 . S
C30 C29 1.390 . S
C30 C35 1.399 . S
C31 C27 1.404 . S
C31 H32 0.950 . S
C31 C33 1.375 . S
H32 C31 0.950 . S
C33 C31 1.375 . S
C33 C35 1.382 . S
C33 H37 0.950 . S
H34 C29 0.949 . S
C35 C30 1.399 . S
C35 C33 1.382 . S
C35 H36 0.952 . S
H36 C35 0.952 . S
H37 C33 0.950 . S
H38 C39 0.949 . S
C39 H38 0.949 . S
C39 C40 1.395 . S
C39 C41 1.391 . S
C40 C39 1.395 . S
C40 C43 1.390 . S
C41 C39 1.391 . S
C41 C45 1.387 . S
C41 C46 1.491 . S
H42 C43 0.950 . S
C43 C40 1.390 . S
C43 H42 0.950 . S
C43 C44 1.378 . S
C44 C43 1.378 . S
C44 C45 1.409 . S
C45 C41 1.387 . S
C45 C44 1.409 . S
C45 H47 0.951 . S
C46 C41 1.491 . S
C46 C48 1.382 . S
C46 C50 1.404 . S
H47 C45 0.951 . S
C48 C46 1.382 . S
C48 C49 1.390 . S
C48 H53 0.949 . S
C49 C48 1.390 . S
C49 C54 1.399 . S
C50 C46 1.404 . S
C50 H51 0.950 . S
C50 C52 1.375 . S
H51 C50 0.950 . S
C52 C50 1.375 . S
C52 C54 1.382 . S
C52 H56 0.950 . S
H53 C48 0.949 . S
C54 C49 1.399 . S
C54 C52 1.382 . S
C54 H55 0.952 1_655 S
H55 C54 0.952 1_455 S
H56 C52 0.950 . S
H57 C58 0.949 . S
C58 H57 0.949 . S
C58 C59 1.395 . S
C58 C60 1.391 . S
C59 C58 1.395 . S
C59 C62 1.390 . S
C60 C58 1.391 . S
C60 C64 1.387 . S
C60 C65 1.491 . S
H61 C62 0.950 . S
C62 C59 1.390 . S
C62 H61 0.950 . S
C62 C63 1.378 . S
C63 C62 1.378 . S
C63 C64 1.409 . S
C64 C60 1.387 . S
C64 C63 1.409 . S
C64 H66 0.951 . S
C65 C60 1.491 . S
C65 C67 1.382 . S
C65 C69 1.404 . S
H66 C64 0.951 . S
C67 C65 1.382 . S
C67 C68 1.390 . S
C67 H72 0.949 . S
C68 C67 1.390 . S
C68 C73 1.399 . S
C69 C65 1.404 . S
C69 H70 0.950 . S
C69 C71 1.375 . S
H70 C69 0.950 . S
C71 C69 1.375 . S
C71 C73 1.382 . S
C71 H75 0.950 . S
H72 C67 0.949 . S
C73 C68 1.399 . S
C73 C71 1.382 . S
C73 H74 0.952 . S
H74 C73 0.952 . S
H75 C71 0.950 . S
H76 C77 0.949 . S
C77 H76 0.949 . S
C77 C78 1.395 . S
C77 C79 1.391 . S
C78 C77 1.395 . S
C78 C81 1.390 . S
C79 C77 1.391 . S
C79 C83 1.387 . S
C79 C84 1.491 . S
H80 C81 0.950 . S
C81 C78 1.390 . S
C81 H80 0.950 . S
C81 C82 1.378 . S
C82 C81 1.378 . S
C82 C83 1.409 . S
C83 C79 1.387 . S
C83 C82 1.409 . S
C83 H85 0.951 . S
C84 C79 1.491 . S
C84 C86 1.382 . S
C84 C88 1.404 . S
H85 C83 0.951 . S
C86 C84 1.382 . S
C86 C87 1.390 . S
C86 H91 0.949 . S
C87 C86 1.390 . S
C87 C92 1.399 . S
C88 C84 1.404 . S
C88 H89 0.950 . S
C88 C90 1.375 . S
H89 C88 0.950 . S
C90 C88 1.375 . S
C90 C92 1.382 . S
C90 H94 0.950 . S
H91 C86 0.949 . S
C92 C87 1.399 . S
C92 C90 1.382 . S
C92 H93 0.952 . S
H93 C92 0.952 . S
H94 C90 0.950 . S
H95 C96 0.949 . S
C96 H95 0.949 . S
C96 C97 1.395 . S
C96 C98 1.391 . S
C97 C96 1.395 . S
C97 C100 1.390 . S
C98 C96 1.391 . S
C98 C102 1.387 . S
C98 C103 1.491 . S
H99 C100 0.950 . S
C100 C97 1.390 . S
C100 H99 0.950 . S
C100 C101 1.378 . S
C101 C100 1.378 . S
C101 C102 1.409 . S
C102 C98 1.387 . S
C102 C101 1.409 . S
C102 H104 0.951 . S
C103 C98 1.491 . S
C103 C105 1.382 . S
C103 C107 1.404 . S
H104 C102 0.951 . S
C105 C103 1.382 . S
C105 C106 1.390 . S
C105 H110 0.949 . S
C106 C105 1.390 . S
C106 C111 1.399 . S
C107 C103 1.404 . S
C107 H108 0.950 . S
C107 C109 1.375 . S
H108 C107 0.950 . S
C109 C107 1.375 . S
C109 C111 1.382 . S
C109 H113 0.950 . S
H110 C105 0.949 . S
C111 C106 1.399 . S
C111 C109 1.382 . S
C111 H112 0.952 . S
H112 C111 0.952 . S
H113 C109 0.950 . S
H114 C115 0.949 . S
C115 H114 0.949 . S
C115 C116 1.395 . S
C115 C117 1.391 . S
C116 C115 1.395 . S
C116 C119 1.390 . S
C117 C115 1.391 . S
C117 C121 1.387 . S
C117 C122 1.491 . S
H118 C119 0.950 . S
C119 C116 1.390 . S
C119 H118 0.950 . S
C119 C120 1.378 . S
C120 C119 1.378 . S
C120 C121 1.409 . S
C121 C117 1.387 . S
C121 C120 1.409 . S
C121 H123 0.951 . S
C122 C117 1.491 . S
C122 C124 1.382 . S
C122 C126 1.404 . S
H123 C121 0.951 . S
C124 C122 1.382 . S
C124 C125 1.390 . S
C124 H129 0.949 . S
C125 C124 1.390 . S
C125 C130 1.399 . S
C126 C122 1.404 . S
C126 H127 0.950 . S
C126 C128 1.375 . S
H127 C126 0.950 . S
C128 C126 1.375 . S
C128 C130 1.382 . S
C128 H132 0.950 . S
H129 C124 0.949 . S
C130 C125 1.399 . S
C130 C128 1.382 . S
C130 H131 0.952 . S
H131 C130 0.952 . S
H132 C128 0.950 . S
H133 C134 0.949 . S
C134 H133 0.949 . S
C134 C135 1.395 . S
C134 C136 1.391 . S
C135 C134 1.395 . S
C135 C138 1.390 . S
C136 C134 1.391 . S
C136 C140 1.387 . S
C136 C141 1.491 . S
H137 C138 0.950 . S
C138 C135 1.390 . S
C138 H137 0.950 . S
C138 C139 1.378 . S
C139 C138 1.378 . S
C139 C140 1.409 . S
C140 C136 1.387 . S
C140 C139 1.409 . S
C140 H142 0.951 . S
C141 C136 1.491 . S
C141 C143 1.382 . S
C141 C145 1.404 . S
H142 C140 0.951 . S
C143 C141 1.382 . S
C143 C144 1.390 . S
C143 H148 0.949 . S
C144 C143 1.390 . S
C144 C149 1.399 . S
C145 C141 1.404 . S
C145 H146 0.950 . S
C145 C147 1.375 . S
H146 C145 0.950 . S
C147 C145 1.375 . S
C147 C149 1.382 . S
C147 H151 0.950 . S
H148 C143 0.949 . S
C149 C144 1.399 . S
C149 C147 1.382 . S
C149 H150 0.952 . S
H150 C149 0.952 . S
H151 C147 0.950 . S
H152 C153 0.949 . S
C153 H152 0.949 . S
C153 C154 1.395 . S
C153 C155 1.391 . S
C154 C153 1.395 . S
C154 C157 1.390 . S
C155 C153 1.391 . S
C155 C159 1.387 . S
C155 C160 1.491 . S
H156 C157 0.950 . S
C157 C154 1.390 . S
C157 H156 0.950 . S
C157 C158 1.378 . S
C158 C157 1.378 . S
C158 C159 1.409 . S
C159 C155 1.387 . S
C159 C158 1.409 . S
C159 H161 0.951 . S
C160 C155 1.491 . S
C160 C162 1.382 . S
C160 C164 1.404 . S
H161 C159 0.951 . S
C162 C160 1.382 . S
C162 C163 1.390 . S
C162 H167 0.949 . S
C163 C162 1.390 . S
C163 C168 1.399 . S
C164 C160 1.404 . S
C164 H165 0.950 . S
C164 C166 1.375 . S
H165 C164 0.950 . S
C166 C164 1.375 . S
C166 C168 1.382 . S
C166 H170 0.950 . S
H167 C162 0.949 . S
C168 C163 1.399 . S
C168 C166 1.382 . S
C168 H169 0.952 . S
H169 C168 0.952 . S
H170 C166 0.950 . S
H171 C172 0.949 . S
C172 H171 0.949 . S
C172 C173 1.395 . S
C172 C174 1.391 . S
C173 C172 1.395 . S
C173 C176 1.390 . S
C174 C172 1.391 . S
C174 C178 1.387 . S
C174 C179 1.491 . S
H175 C176 0.950 . S
C176 C173 1.390 . S
C176 H175 0.950 . S
C176 C177 1.378 . S
C177 C176 1.378 . S
C177 C178 1.409 . S
C178 C174 1.387 . S
C178 C177 1.409 . S
C178 H180 0.951 . S
C179 C174 1.491 . S
C179 C181 1.382 . S
C179 C183 1.404 . S
H180 C178 0.951 . S
C181 C179 1.382 . S
C181 C182 1.390 . S
C181 H186 0.949 . S
C182 C181 1.390 . S
C182 C187 1.399 . S
C183 C179 1.404 . S
C183 H184 0.950 . S
C183 C185 1.375 . S
H184 C183 0.950 . S
C185 C183 1.375 . S
C185 C187 1.382 . S
C185 H189 0.950 . S
H186 C181 0.949 . S
C187 C182 1.399 . S
C187 C185 1.382 . S
C187 H188 0.952 . S
H188 C187 0.952 . S
H189 C185 0.950 . S
H190 C191 0.949 . S
C191 H190 0.949 . S
C191 C192 1.395 . S
C191 C193 1.391 . S
C192 C191 1.395 . S
C192 C195 1.390 . S
C193 C191 1.391 . S
C193 C197 1.387 . S
C193 C198 1.491 . S
H194 C195 0.950 . S
C195 C192 1.390 . S
C195 H194 0.950 . S
C195 C196 1.378 . S
C196 C195 1.378 . S
C196 C197 1.409 . S
C197 C193 1.387 . S
C197 C196 1.409 . S
C197 H199 0.951 1_556 S
C198 C193 1.491 . S
C198 C200 1.382 . S
C198 C202 1.404 1_556 S
H199 C197 0.951 1_554 S
C200 C198 1.382 . S
C200 C201 1.390 1_556 S
C200 H205 0.949 . S
C201 C200 1.390 1_554 S
C201 C206 1.399 . S
C202 C198 1.404 1_554 S
C202 H203 0.950 . S
C202 C204 1.375 . S
H203 C202 0.950 . S
C204 C202 1.375 . S
C204 C206 1.382 . S
C204 H208 0.950 . S
H205 C200 0.949 . S
C206 C201 1.399 . S
C206 C204 1.382 . S
C206 H207 0.952 . S
H207 C206 0.952 . S
H208 C204 0.950 . S
H209 C210 0.949 . S
C210 H209 0.949 . S
C210 C211 1.395 . S
C210 C212 1.391 . S
C211 C210 1.395 . S
C211 C214 1.390 . S
C212 C210 1.391 . S
C212 C216 1.387 . S
C212 C217 1.491 . S
H213 C214 0.950 . S
C214 C211 1.390 . S
C214 H213 0.950 . S
C214 C215 1.378 . S
C215 C214 1.378 . S
C215 C216 1.409 . S
C216 C212 1.387 . S
C216 C215 1.409 . S
C216 H218 0.951 . S
C217 C212 1.491 . S
C217 C219 1.382 . S
C217 C221 1.404 . S
H218 C216 0.951 . S
C219 C217 1.382 . S
C219 C220 1.390 . S
C219 H224 0.949 . S
C220 C219 1.390 . S
C220 C225 1.399 . S
C221 C217 1.404 . S
C221 H222 0.950 . S
C221 C223 1.375 . S
H222 C221 0.950 . S
C223 C221 1.375 . S
C223 C225 1.382 . S
C223 H227 0.950 . S
H224 C219 0.949 . S
C225 C220 1.399 . S
C225 C223 1.382 . S
C225 H226 0.952 . S
H226 C225 0.952 . S
H227 C223 0.950 . S
H228 C229 0.949 . S
C229 H228 0.949 . S
C229 C230 1.395 . S
C229 C231 1.391 . S
C230 C229 1.395 . S
C230 C233 1.390 . S
C231 C229 1.391 . S
C231 C235 1.387 . S
C231 C236 1.491 . S
H232 C233 0.950 . S
C233 C230 1.390 . S
C233 H232 0.950 . S
C233 C234 1.378 . S
C234 C233 1.378 . S
C234 C235 1.409 . S
C235 C231 1.387 . S
C235 C234 1.409 . S
C235 H237 0.951 . S
C236 C231 1.491 . S
C236 C238 1.382 . S
C236 C240 1.404 . S
H237 C235 0.951 . S
C238 C236 1.382 . S
C238 C239 1.390 . S
C238 H243 0.949 . S
C239 C238 1.390 . S
C239 C244 1.399 . S
C240 C236 1.404 . S
C240 H241 0.950 . S
C240 C242 1.354 1_554 S
H241 C240 0.950 . S
C242 C240 1.354 1_556 S
C242 C244 1.382 1_556 S
C242 H246 0.974 . S
H243 C238 0.949 . S
C244 C239 1.399 . S
C244 C242 1.382 1_554 S
C244 H245 0.952 1_554 S
H245 C244 0.952 1_556 S
H246 C242 0.974 . S
H247 C248 0.949 . S
C248 H247 0.949 . S
C248 C249 1.395 . S
C248 C250 1.391 . S
C249 C248 1.395 . S
C249 C252 1.390 . S
C250 C248 1.391 . S
C250 C254 1.387 . S
C250 C255 1.491 . S
H251 C252 0.950 . S
C252 C249 1.390 . S
C252 H251 0.950 . S
C252 C253 1.378 . S
C253 C252 1.378 . S
C253 C254 1.409 . S
C254 C250 1.387 . S
C254 C253 1.409 . S
C254 H256 0.951 . S
C255 C250 1.491 . S
C255 C257 1.382 . S
C255 C259 1.404 . S
H256 C254 0.951 . S
C257 C255 1.382 . S
C257 C258 1.390 . S
C257 H262 0.949 . S
C258 C257 1.390 . S
C258 C263 1.399 . S
C259 C255 1.404 . S
C259 H260 0.950 . S
C259 C261 1.375 . S
H260 C259 0.950 . S
C261 C259 1.375 . S
C261 C263 1.382 . S
C261 H265 0.950 . S
H262 C257 0.949 . S
C263 C258 1.399 . S
C263 C261 1.382 . S
C263 H264 0.952 . S
H264 C263 0.952 . S
H265 C261 0.950 . S
H266 C267 0.949 . S
C267 H266 0.949 . S
C267 C268 1.395 . S
C267 C269 1.391 . S
C268 C267 1.395 . S
C268 C271 1.390 . S
C269 C267 1.391 . S
C269 C273 1.387 . S
C269 C274 1.491 . S
H270 C271 0.950 . S
C271 C268 1.390 . S
C271 H270 0.950 . S
C271 C272 1.378 . S
C272 C271 1.378 . S
C272 C273 1.409 . S
C273 C269 1.387 . S
C273 C272 1.409 . S
C273 H275 0.951 . S
C274 C269 1.491 . S
C274 C276 1.382 . S
C274 C278 1.404 . S
H275 C273 0.951 . S
C276 C274 1.382 . S
C276 C277 1.390 . S
C276 H281 0.949 . S
C277 C276 1.390 . S
C277 C282 1.399 . S
C278 C274 1.404 . S
C278 H279 0.950 . S
C278 C280 1.375 . S
H279 C278 0.950 . S
C280 C278 1.375 . S
C280 C282 1.382 . S
C280 H284 0.950 . S
H281 C276 0.949 . S
C282 C277 1.399 . S
C282 C280 1.382 . S
C282 H283 0.952 . S
H283 C282 0.952 . S
H284 C280 0.950 . S
H285 C286 0.949 . S
C286 H285 0.949 . S
C286 C287 1.395 . S
C286 C288 1.391 . S
C287 C286 1.395 . S
C287 C290 1.390 . S
C288 C286 1.391 . S
C288 C292 1.387 . S
C288 C293 1.491 . S
H289 C290 0.950 . S
C290 C287 1.390 . S
C290 H289 0.950 . S
C290 C291 1.378 . S
C291 C290 1.378 . S
C291 C292 1.409 . S
C292 C288 1.387 . S
C292 C291 1.409 . S
C292 H294 0.951 . S
C293 C288 1.491 . S
C293 C295 1.382 . S
C293 C297 1.404 . S
H294 C292 0.951 . S
C295 C293 1.382 . S
C295 C296 1.390 . S
C295 H300 0.949 . S
C296 C295 1.390 . S
C296 C301 1.399 . S
C297 C293 1.404 . S
C297 H298 0.950 . S
C297 C299 1.375 . S
H298 C297 0.950 . S
C299 C297 1.375 . S
C299 C301 1.382 . S
C299 H303 0.950 . S
H300 C295 0.949 . S
C301 C296 1.399 . S
C301 C299 1.382 . S
C301 H302 0.952 . S
H302 C301 0.952 . S
H303 C299 0.950 . S
H304 C305 0.949 . S
C305 H304 0.949 . S
C305 C306 1.395 . S
C305 C307 1.391 . S
C306 C305 1.395 . S
C306 C309 1.390 . S
C307 C305 1.391 . S
C307 C311 1.387 . S
C307 C312 1.491 . S
H308 C309 0.950 . S
C309 C306 1.390 . S
C309 H308 0.950 . S
C309 C310 1.378 . S
C310 C309 1.378 . S
C310 C311 1.409 . S
C311 C307 1.387 . S
C311 C310 1.409 . S
C311 H313 0.951 . S
C312 C307 1.491 . S
C312 C314 1.382 . S
C312 C316 1.404 . S
H313 C311 0.951 . S
C314 C312 1.382 . S
C314 C315 1.390 . S
C314 H319 0.949 . S
C315 C314 1.390 . S
C315 C320 1.399 . S
C316 C312 1.404 . S
C316 H317 0.950 . S
C316 C318 1.375 . S
H317 C316 0.950 . S
C318 C316 1.375 . S
C318 C320 1.382 . S
C318 H322 0.950 . S
H319 C314 0.949 . S
C320 C315 1.399 . S
C320 C318 1.382 . S
C320 H321 0.952 . S
H321 C320 0.952 . S
H322 C318 0.950 . S
H323 C324 0.949 . S
C324 H323 0.949 . S
C324 C325 1.395 . S
C324 C326 1.391 . S
C325 C324 1.395 . S
C325 C328 1.390 . S
C326 C324 1.391 . S
C326 C330 1.387 . S
C326 C331 1.491 . S
H327 C328 0.950 . S
C328 C325 1.390 . S
C328 H327 0.950 . S
C328 C329 1.378 . S
C329 C328 1.378 . S
C329 C330 1.409 . S
C330 C326 1.387 . S
C330 C329 1.409 . S
C330 H332 0.951 . S
C331 C326 1.491 . S
C331 C333 1.382 . S
C331 C335 1.404 . S
H332 C330 0.951 . S
C333 C331 1.382 . S
C333 C334 1.390 . S
C333 H338 0.949 . S
C334 C333 1.390 . S
C334 C339 1.399 . S
C335 C331 1.404 . S
C335 H336 0.950 . S
C335 C337 1.375 . S
H336 C335 0.950 . S
C337 C335 1.375 . S
C337 C339 1.382 . S
C337 H341 0.950 . S
H338 C333 0.949 . S
C339 C334 1.399 . S
C339 C337 1.382 . S
C339 H340 0.952 . S
H340 C339 0.952 . S
H341 C337 0.950 . S
C342 Eu343 2.835 1_565 S
C342 C344 1.500 . S
C342 O362 1.257 . S
C342 O363 1.260 1_565 S
Eu343 C342 2.835 1_545 S
Eu343 O362 2.473 1_545 S
Eu343 O363 2.480 . S
Eu343 O364 2.430 . S
Eu343 O365 2.670 1_554 S
Eu343 O366 2.394 1_545 S
Eu343 O371 2.355 1_545 S
Eu343 O373 2.374 . S
C344 C342 1.500 . S
C344 C345 1.377 . S
C344 C349 1.377 . S
C345 C344 1.377 . S
C345 C346 1.395 . S
C345 H374 0.931 1_565 S
C346 C345 1.395 . S
C346 C347 1.383 . S
C346 H375 0.936 . S
C347 C346 1.383 . S
C347 C348 1.394 . S
C348 C347 1.394 . S
C348 C349 1.378 . S
C348 H376 0.931 . S
C349 C344 1.377 . S
C349 C348 1.378 . S
C349 H377 0.931 . S
C350 O364 1.259 . S
C350 O365 1.270 1_554 S
C351 O366 1.251 . S
C351 O367 1.251 1_554 S
C352 Eu353 2.835 1_545 S
C352 C354 1.500 . S
C352 O368 1.257 . S
C352 O369 1.260 1_545 S
Eu353 C352 2.835 1_565 S
Eu353 O365 2.355 1_565 S
Eu353 O367 2.374 . S
Eu353 O368 2.473 1_565 S
Eu353 O369 2.480 . S
Eu353 O370 2.430 . S
Eu353 O371 2.670 1_556 S
Eu353 O372 2.394 1_565 S
C354 C352 1.500 . S
C354 C355 1.377 . S
C354 C359 1.377 . S
C355 C354 1.377 . S
C355 C356 1.395 . S
C355 H378 0.931 1_545 S
C356 C355 1.395 . S
C356 C357 1.383 . S
C356 H379 0.931 . S
C357 C356 1.383 . S
C357 C358 1.394 . S
C358 C357 1.394 . S
C358 C359 1.378 . S
C358 H380 0.931 . S
C359 C354 1.377 . S
C359 C358 1.378 . S
C359 H381 0.931 . S
C360 O370 1.292 . S
C360 O371 1.254 1_556 S
C361 O372 1.251 . S
C361 O373 1.251 1_556 S
O362 C342 1.257 . S
O362 Eu343 2.473 1_565 S
O363 C342 1.260 1_545 S
O363 Eu343 2.480 . S
O364 Eu343 2.430 . S
O364 C350 1.259 . S
O365 Eu343 2.670 1_556 S
O365 C350 1.270 1_556 S
O365 Eu353 2.355 1_545 S
O366 Eu343 2.394 1_565 S
O366 C351 1.251 . S
O367 C351 1.251 1_556 S
O367 Eu353 2.374 . S
O368 C352 1.257 . S
O368 Eu353 2.473 1_545 S
O369 C352 1.260 1_565 S
O369 Eu353 2.480 . S
O370 Eu353 2.430 . S
O370 C360 1.292 . S
O371 Eu343 2.355 1_565 S
O371 Eu353 2.670 1_554 S
O371 C360 1.254 1_554 S
O372 Eu353 2.394 1_545 S
O372 C361 1.251 . S
O373 Eu343 2.374 . S
O373 C361 1.251 1_554 S
H374 C345 0.931 1_545 S
H375 C346 0.936 . S
H376 C348 0.931 . S
H377 C349 0.931 . S
H378 C355 0.931 1_565 S
H379 C356 0.931 . S
H380 C358 0.931 . S
H381 C359 0.931 . S
C382 Eu383 2.835 1_455 S
C382 C384 1.500 . S
C382 O402 1.257 . S
C382 O403 1.260 1_455 S
Eu383 C382 2.835 1_655 S
Eu383 O402 2.473 1_655 S
Eu383 O403 2.480 . S
Eu383 O404 2.430 . S
Eu383 O405 2.670 1_554 S
Eu383 O406 2.394 1_655 S
Eu383 O411 2.355 1_655 S
Eu383 O413 2.374 . S
C384 C382 1.500 . S
C384 C385 1.377 . S
C384 C389 1.377 . S
C385 C384 1.377 . S
C385 C386 1.395 . S
C385 H414 0.931 1_455 S
C386 C385 1.395 . S
C386 C387 1.383 . S
C386 H415 0.931 . S
C387 C386 1.383 . S
C387 C388 1.394 . S
C388 C387 1.394 . S
C388 C389 1.378 . S
C388 H416 0.931 . S
C389 C384 1.377 . S
C389 C388 1.378 . S
C389 H417 0.931 . S
C390 O404 1.259 . S
C390 O405 1.270 1_554 S
C391 O406 1.251 . S
C391 O407 1.251 1_554 S
C392 Eu393 2.835 1_655 S
C392 C394 1.500 . S
C392 O408 1.257 . S
C392 O409 1.260 1_655 S
Eu393 C392 2.835 1_455 S
Eu393 O405 2.355 1_455 S
Eu393 O407 2.374 . S
Eu393 O408 2.473 1_455 S
Eu393 O409 2.480 . S
Eu393 O410 2.430 . S
Eu393 O411 2.670 1_556 S
Eu393 O412 2.394 1_455 S
C394 C392 1.500 . S
C394 C395 1.377 . S
C394 C399 1.377 . S
C395 C394 1.377 . S
C395 C396 1.395 . S
C395 H418 0.931 1_655 S
C396 C395 1.395 . S
C396 C397 1.383 . S
C396 H419 0.931 . S
C397 C396 1.383 . S
C397 C398 1.394 . S
C398 C397 1.394 . S
C398 C399 1.378 . S
C398 H420 0.931 . S
C399 C394 1.377 . S
C399 C398 1.378 . S
C399 H421 0.931 . S
C400 O410 1.259 1_554 S
C400 O411 1.270 . S
C401 O412 1.251 . S
C401 O413 1.251 1_556 S
O402 C382 1.257 . S
O402 Eu383 2.473 1_455 S
O403 C382 1.260 1_655 S
O403 Eu383 2.480 . S
O404 Eu383 2.430 . S
O404 C390 1.259 . S
O405 Eu383 2.670 1_556 S
O405 C390 1.270 1_556 S
O405 Eu393 2.355 1_655 S
O406 Eu383 2.394 1_455 S
O406 C391 1.251 . S
O407 C391 1.251 1_556 S
O407 Eu393 2.374 . S
O408 C392 1.257 . S
O408 Eu393 2.473 1_655 S
O409 C392 1.260 1_455 S
O409 Eu393 2.480 . S
O410 Eu393 2.430 . S
O410 C400 1.259 1_556 S
O411 Eu383 2.355 1_455 S
O411 Eu393 2.670 1_554 S
O411 C400 1.270 . S
O412 Eu393 2.394 1_655 S
O412 C401 1.251 . S
O413 Eu383 2.374 . S
O413 C401 1.251 1_554 S
H414 C385 0.931 1_655 S
H415 C386 0.931 . S
H416 C388 0.931 . S
H417 C389 0.931 . S
H418 C395 0.931 1_455 S
H419 C396 0.931 . S
H420 C398 0.931 . S
H421 C399 0.931 . S
C422 Eu423 2.835 . S
C422 C424 1.500 . S
C422 O442 1.257 . S
C422 O443 1.260 . S
Eu423 C422 2.835 . S
Eu423 O442 2.473 . S
Eu423 O443 2.480 . S
Eu423 O444 2.430 . S
Eu423 O445 2.670 1_556 S
Eu423 O446 2.394 . S
Eu423 O451 2.355 1_556 S
Eu423 O453 2.374 1_556 S
C424 C422 1.500 . S
C424 C425 1.377 . S
C424 C429 1.377 . S
C425 C424 1.377 . S
C425 C426 1.395 . S
C425 H454 0.931 . S
C426 C425 1.395 . S
C426 C427 1.383 . S
C426 H455 0.931 . S
C427 C426 1.383 . S
C427 C428 1.394 . S
C428 C427 1.394 . S
C428 C429 1.378 . S
C428 H456 0.931 . S
C429 C424 1.377 . S
C429 C428 1.378 . S
C429 H457 0.931 . S
C430 O444 1.259 1_554 S
C430 O445 1.270 . S
C431 O446 1.251 . S
C431 O447 1.251 1_556 S
C432 Eu433 2.835 . S
C432 C434 1.500 . S
C432 O448 1.257 . S
C432 O449 1.260 . S
Eu433 C432 2.835 . S
Eu433 O445 2.355 . S
Eu433 O447 2.374 . S
Eu433 O448 2.473 . S
Eu433 O449 2.480 . S
Eu433 O450 2.430 . S
Eu433 O451 2.670 . S
Eu433 O452 2.394 . S
C434 C432 1.500 . S
C434 C435 1.377 . S
C434 C439 1.377 . S
C435 C434 1.377 . S
C435 C436 1.395 . S
C435 H458 0.931 . S
C436 C435 1.395 . S
C436 C437 1.383 . S
C436 H459 0.931 . S
C437 C436 1.383 . S
C437 C438 1.394 . S
C438 C437 1.394 . S
C438 C439 1.378 . S
C438 H460 0.931 . S
C439 C434 1.377 . S
C439 C438 1.378 . S
C439 H461 0.931 . S
C440 O450 1.259 . S
C440 O451 1.270 . S
C441 O452 1.251 . S
C441 O453 1.251 . S
O442 C422 1.257 . S
O442 Eu423 2.473 . S
O443 C422 1.260 . S
O443 Eu423 2.480 . S
O444 Eu423 2.430 . S
O444 C430 1.259 1_556 S
O445 Eu423 2.670 1_554 S
O445 C430 1.270 . S
O445 Eu433 2.355 . S
O446 Eu423 2.394 . S
O446 C431 1.251 . S
O447 C431 1.251 1_554 S
O447 Eu433 2.374 . S
O448 C432 1.257 . S
O448 Eu433 2.473 . S
O449 C432 1.260 . S
O449 Eu433 2.480 . S
O450 Eu433 2.430 . S
O450 C440 1.259 . S
O451 Eu423 2.355 1_554 S
O451 Eu433 2.670 . S
O451 C440 1.270 . S
O452 Eu433 2.394 . S
O452 C441 1.251 . S
O453 Eu423 2.374 1_554 S
O453 C441 1.251 . S
H454 C425 0.931 . S
H455 C426 0.931 . S
H456 C428 0.931 . S
H457 C429 0.931 . S
H458 C435 0.931 . S
H459 C436 0.931 . S
H460 C438 0.931 . S
H461 C439 0.931 . S
C462 Eu463 2.835 . S
C462 C464 1.500 . S
C462 O482 1.257 . S
C462 O483 1.260 . S
Eu463 C462 2.835 . S
Eu463 O482 2.473 . S
Eu463 O483 2.480 . S
Eu463 O484 2.430 . S
Eu463 O485 2.670 . S
Eu463 O486 2.394 . S
Eu463 O491 2.355 . S
Eu463 O493 2.374 . S
C464 C462 1.500 . S
C464 C465 1.377 . S
C464 C469 1.377 . S
C465 C464 1.377 . S
C465 C466 1.395 . S
C465 H494 0.931 . S
C466 C465 1.395 . S
C466 C467 1.383 . S
C466 H495 0.931 . S
C467 C466 1.383 . S
C467 C468 1.394 . S
C468 C467 1.394 . S
C468 C469 1.378 . S
C468 H496 0.931 . S
C469 C464 1.377 . S
C469 C468 1.378 . S
C469 H497 0.931 . S
C470 O484 1.259 . S
C470 O485 1.270 . S
C471 O486 1.251 . S
C471 O487 1.251 . S
C472 Eu473 2.835 . S
C472 C474 1.500 . S
C472 O488 1.257 . S
C472 O489 1.260 . S
Eu473 C472 2.835 . S
Eu473 O485 2.355 . S
Eu473 O487 2.374 . S
Eu473 O488 2.473 . S
Eu473 O489 2.480 . S
Eu473 O490 2.430 . S
Eu473 O491 2.670 . S
Eu473 O492 2.394 . S
C474 C472 1.500 . S
C474 C475 1.377 . S
C474 C479 1.377 . S
C475 C474 1.377 . S
C475 C476 1.395 . S
C475 H498 0.931 . S
C476 C475 1.395 . S
C476 C477 1.383 . S
C476 H499 0.931 . S
C477 C476 1.383 . S
C477 C478 1.394 . S
C478 C477 1.394 . S
C478 C479 1.378 . S
C478 H500 0.931 . S
C479 C474 1.377 . S
C479 C478 1.378 . S
C479 H501 0.931 . S
C480 O490 1.259 . S
C480 O491 1.270 . S
C481 O492 1.251 . S
C481 O493 1.251 . S
O482 C462 1.257 . S
O482 Eu463 2.473 . S
O483 C462 1.260 . S
O483 Eu463 2.480 . S
O484 Eu463 2.430 . S
O484 C470 1.259 . S
O485 Eu463 2.670 . S
O485 C470 1.270 . S
O485 Eu473 2.355 . S
O486 Eu463 2.394 . S
O486 C471 1.251 . S
O487 C471 1.251 . S
O487 Eu473 2.374 . S
O488 C472 1.257 . S
O488 Eu473 2.473 . S
O489 C472 1.260 . S
O489 Eu473 2.480 . S
O490 Eu473 2.430 . S
O490 C480 1.259 . S
O491 Eu463 2.355 . S
O491 Eu473 2.670 . S
O491 C480 1.270 . S
O492 Eu473 2.394 . S
O492 C481 1.251 . S
O493 Eu463 2.374 . S
O493 C481 1.251 . S
H494 C465 0.931 . S
H495 C466 0.931 . S
H496 C468 0.931 . S
H497 C469 0.931 . S
H498 C475 0.931 . S
H499 C476 0.931 . S
H500 C478 0.931 . S
H501 C479 0.931 . S
C502 Eu503 2.835 . S
C502 C504 1.500 . S
C502 O522 1.257 . S
C502 O523 1.260 . S
Eu503 C502 2.835 . S
Eu503 O522 2.473 . S
Eu503 O523 2.480 . S
Eu503 O524 2.430 . S
Eu503 O525 2.670 . S
Eu503 O526 2.394 . S
Eu503 O531 2.355 . S
Eu503 O533 2.374 . S
C504 C502 1.500 . S
C504 C505 1.377 . S
C504 C509 1.377 . S
C505 C504 1.377 . S
C505 C506 1.395 . S
C505 H534 0.931 . S
C506 C505 1.395 . S
C506 C507 1.383 . S
C506 H535 0.931 . S
C507 C506 1.383 . S
C507 C508 1.394 . S
C508 C507 1.394 . S
C508 C509 1.378 . S
C508 H536 0.931 . S
C509 C504 1.377 . S
C509 C508 1.378 . S
C509 H537 0.931 . S
C510 O524 1.259 . S
C510 O525 1.270 . S
C511 O526 1.251 . S
C511 O527 1.251 . S
C512 Eu513 2.835 . S
C512 C514 1.500 . S
C512 O528 1.257 . S
C512 O529 1.260 . S
Eu513 C512 2.835 . S
Eu513 O525 2.355 . S
Eu513 O527 2.374 . S
Eu513 O528 2.473 . S
Eu513 O529 2.480 . S
Eu513 O530 2.430 . S
Eu513 O531 2.670 . S
Eu513 O532 2.394 . S
C514 C512 1.500 . S
C514 C515 1.377 . S
C514 C519 1.377 . S
C515 C514 1.377 . S
C515 C516 1.395 . S
C515 H538 0.931 . S
C516 C515 1.395 . S
C516 C517 1.383 . S
C516 H539 0.931 . S
C517 C516 1.383 . S
C517 C518 1.394 . S
C518 C517 1.394 . S
C518 C519 1.378 . S
C518 H540 0.931 . S
C519 C514 1.377 . S
C519 C518 1.378 . S
C519 H541 0.931 . S
C520 O530 1.259 . S
C520 O531 1.270 . S
C521 O532 1.251 . S
C521 O533 1.251 . S
O522 C502 1.257 . S
O522 Eu503 2.473 . S
O523 C502 1.260 . S
O523 Eu503 2.480 . S
O524 Eu503 2.430 . S
O524 C510 1.259 . S
O525 Eu503 2.670 . S
O525 C510 1.270 . S
O525 Eu513 2.355 . S
O526 Eu503 2.394 . S
O526 C511 1.251 . S
O527 C511 1.251 . S
O527 Eu513 2.374 . S
O528 C512 1.257 . S
O528 Eu513 2.473 . S
O529 C512 1.260 . S
O529 Eu513 2.480 . S
O530 Eu513 2.430 . S
O530 C520 1.259 . S
O531 Eu503 2.355 . S
O531 Eu513 2.670 . S
O531 C520 1.270 . S
O532 Eu513 2.394 . S
O532 C521 1.251 . S
O533 Eu503 2.374 . S
O533 C521 1.251 . S
H534 C505 0.931 . S
H535 C506 0.931 . S
H536 C508 0.931 . S
H537 C509 0.931 . S
H538 C515 0.931 . S
H539 C516 0.931 . S
H540 C518 0.931 . S
H541 C519 0.931 . S
C542 Eu543 2.835 . S
C542 C544 1.500 . S
C542 O562 1.257 . S
C542 O563 1.260 . S
Eu543 C542 2.835 . S
Eu543 O562 2.473 . S
Eu543 O563 2.480 . S
Eu543 O564 2.430 . S
Eu543 O565 2.670 . S
Eu543 O566 2.394 . S
Eu543 O571 2.355 . S
Eu543 O573 2.374 . S
C544 C542 1.500 . S
C544 C545 1.377 . S
C544 C549 1.377 . S
C545 C544 1.377 . S
C545 C546 1.395 . S
C545 H574 0.931 . S
C546 C545 1.395 . S
C546 C547 1.383 . S
C546 H575 0.931 . S
C547 C546 1.383 . S
C547 C548 1.394 . S
C548 C547 1.394 . S
C548 C549 1.378 . S
C548 H576 0.931 . S
C549 C544 1.377 . S
C549 C548 1.378 . S
C549 H577 0.931 . S
C550 O564 1.259 . S
C550 O565 1.270 . S
C551 O566 1.251 . S
C551 O567 1.251 . S
C552 Eu553 2.835 . S
C552 C554 1.500 . S
C552 O568 1.257 . S
C552 O569 1.260 . S
Eu553 C552 2.835 . S
Eu553 O565 2.355 . S
Eu553 O567 2.374 . S
Eu553 O568 2.473 . S
Eu553 O569 2.480 . S
Eu553 O570 2.430 . S
Eu553 O571 2.670 . S
Eu553 O572 2.394 . S
C554 C552 1.500 . S
C554 C555 1.377 . S
C554 C559 1.377 . S
C555 C554 1.377 . S
C555 C556 1.395 . S
C555 H578 0.931 . S
C556 C555 1.395 . S
C556 C557 1.383 . S
C556 H579 0.931 . S
C557 C556 1.383 . S
C557 C558 1.394 . S
C558 C557 1.394 . S
C558 C559 1.378 . S
C558 H580 0.931 . S
C559 C554 1.377 . S
C559 C558 1.378 . S
C559 H581 0.931 . S
C560 O570 1.259 . S
C560 O571 1.270 . S
C561 O572 1.251 . S
C561 O573 1.251 . S
O562 C542 1.257 . S
O562 Eu543 2.473 . S
O563 C542 1.260 . S
O563 Eu543 2.480 . S
O564 Eu543 2.430 . S
O564 C550 1.259 . S
O565 Eu543 2.670 . S
O565 C550 1.270 . S
O565 Eu553 2.355 . S
O566 Eu543 2.394 . S
O566 C551 1.251 . S
O567 C551 1.251 . S
O567 Eu553 2.374 . S
O568 C552 1.257 . S
O568 Eu553 2.473 . S
O569 C552 1.260 . S
O569 Eu553 2.480 . S
O570 Eu553 2.430 . S
O570 C560 1.259 . S
O571 Eu543 2.355 . S
O571 Eu553 2.670 . S
O571 C560 1.270 . S
O572 Eu553 2.394 . S
O572 C561 1.251 . S
O573 Eu543 2.374 . S
O573 C561 1.251 . S
H574 C545 0.931 . S
H575 C546 0.931 . S
H576 C548 0.931 . S
H577 C549 0.931 . S
H578 C555 0.931 . S
H579 C556 0.931 . S
H580 C558 0.931 . S
H581 C559 0.931 . S
C582 Eu583 2.835 . S
C582 C584 1.500 . S
C582 O602 1.257 . S
C582 O603 1.260 . S
Eu583 C582 2.835 . S
Eu583 O602 2.473 . S
Eu583 O603 2.480 . S
Eu583 O604 2.430 . S
Eu583 O605 2.670 . S
Eu583 O606 2.394 . S
Eu583 O611 2.355 . S
Eu583 O613 2.374 . S
C584 C582 1.500 . S
C584 C585 1.377 . S
C584 C589 1.377 . S
C585 C584 1.377 . S
C585 C586 1.395 . S
C585 H614 0.931 . S
C586 C585 1.395 . S
C586 C587 1.383 . S
C586 H615 0.931 . S
C587 C586 1.383 . S
C587 C588 1.394 . S
C588 C587 1.394 . S
C588 C589 1.378 . S
C588 H616 0.931 . S
C589 C584 1.377 . S
C589 C588 1.378 . S
C589 H617 0.931 . S
C590 O604 1.259 . S
C590 O605 1.270 . S
C591 O606 1.251 . S
C591 O607 1.251 . S
C592 Eu593 2.835 . S
C592 C594 1.500 . S
C592 O608 1.257 . S
C592 O609 1.260 . S
Eu593 C592 2.835 . S
Eu593 O605 2.355 . S
Eu593 O607 2.374 . S
Eu593 O608 2.473 . S
Eu593 O609 2.480 . S
Eu593 O610 2.430 . S
Eu593 O611 2.670 . S
Eu593 O612 2.394 . S
C594 C592 1.500 . S
C594 C595 1.377 . S
C594 C599 1.377 . S
C595 C594 1.377 . S
C595 C596 1.395 . S
C595 H618 0.931 . S
C596 C595 1.395 . S
C596 C597 1.383 . S
C596 H619 0.931 . S
C597 C596 1.383 . S
C597 C598 1.394 . S
C598 C597 1.394 . S
C598 C599 1.378 . S
C598 H620 0.931 . S
C599 C594 1.377 . S
C599 C598 1.378 . S
C599 H621 0.931 . S
C600 O610 1.259 . S
C600 O611 1.270 . S
C601 O612 1.251 . S
C601 O613 1.251 . S
O602 C582 1.257 . S
O602 Eu583 2.473 . S
O603 C582 1.260 . S
O603 Eu583 2.480 . S
O604 Eu583 2.430 . S
O604 C590 1.259 . S
O605 Eu583 2.670 . S
O605 C590 1.270 . S
O605 Eu593 2.355 . S
O606 Eu583 2.394 . S
O606 C591 1.251 . S
O607 C591 1.251 . S
O607 Eu593 2.374 . S
O608 C592 1.257 . S
O608 Eu593 2.473 . S
O609 C592 1.260 . S
O609 Eu593 2.480 . S
O610 Eu593 2.430 . S
O610 C600 1.259 . S
O611 Eu583 2.355 . S
O611 Eu593 2.670 . S
O611 C600 1.270 . S
O612 Eu593 2.394 . S
O612 C601 1.251 . S
O613 Eu583 2.374 . S
O613 C601 1.251 . S
H614 C585 0.931 . S
H615 C586 0.931 . S
H616 C588 0.931 . S
H617 C589 0.931 . S
H618 C595 0.931 . S
H619 C596 0.931 . S
H620 C598 0.931 . S
H621 C599 0.931 . S
C622 Eu623 2.835 . S
C622 C624 1.500 . S
C622 O642 1.257 . S
C622 O643 1.260 . S
Eu623 C622 2.835 . S
Eu623 O642 2.473 . S
Eu623 O643 2.480 . S
Eu623 O644 2.430 . S
Eu623 O645 2.670 . S
Eu623 O646 2.394 . S
Eu623 O651 2.355 . S
Eu623 O653 2.374 . S
C624 C622 1.500 . S
C624 C625 1.377 . S
C624 C629 1.377 . S
C625 C624 1.377 . S
C625 C626 1.395 . S
C625 H654 0.931 . S
C626 C625 1.395 . S
C626 C627 1.383 . S
C626 H655 0.931 . S
C627 C626 1.383 . S
C627 C628 1.394 . S
C628 C627 1.394 . S
C628 C629 1.378 . S
C628 H656 0.931 . S
C629 C624 1.377 . S
C629 C628 1.378 . S
C629 H657 0.931 . S
C630 O644 1.259 . S
C630 O645 1.270 . S
C631 O646 1.251 . S
C631 O647 1.251 . S
C632 Eu633 2.835 . S
C632 C634 1.500 . S
C632 O648 1.257 . S
C632 O649 1.260 . S
Eu633 C632 2.835 . S
Eu633 O645 2.355 . S
Eu633 O647 2.374 . S
Eu633 O648 2.473 . S
Eu633 O649 2.480 . S
Eu633 O650 2.430 . S
Eu633 O651 2.670 . S
Eu633 O652 2.394 . S
C634 C632 1.500 . S
C634 C635 1.377 . S
C634 C639 1.377 . S
C635 C634 1.377 . S
C635 C636 1.395 . S
C635 H658 0.931 . S
C636 C635 1.395 . S
C636 C637 1.383 . S
C636 H659 0.931 . S
C637 C636 1.383 . S
C637 C638 1.394 . S
C638 C637 1.394 . S
C638 C639 1.378 . S
C638 H660 0.931 . S
C639 C634 1.377 . S
C639 C638 1.378 . S
C639 H661 0.931 . S
C640 O650 1.259 . S
C640 O651 1.270 . S
C641 O652 1.251 . S
C641 O653 1.251 . S
O642 C622 1.257 . S
O642 Eu623 2.473 . S
O643 C622 1.260 . S
O643 Eu623 2.480 . S
O644 Eu623 2.430 . S
O644 C630 1.259 . S
O645 Eu623 2.670 . S
O645 C630 1.270 . S
O645 Eu633 2.355 . S
O646 Eu623 2.394 . S
O646 C631 1.251 . S
O647 C631 1.251 . S
O647 Eu633 2.374 . S
O648 C632 1.257 . S
O648 Eu633 2.473 . S
O649 C632 1.260 . S
O649 Eu633 2.480 . S
O650 Eu633 2.430 . S
O650 C640 1.259 . S
O651 Eu623 2.355 . S
O651 Eu633 2.670 . S
O651 C640 1.270 . S
O652 Eu633 2.394 . S
O652 C641 1.251 . S
O653 Eu623 2.374 . S
O653 C641 1.251 . S
H654 C625 0.931 . S
H655 C626 0.931 . S
H656 C628 0.931 . S
H657 C629 0.931 . S
H658 C635 0.931 . S
H659 C636 0.931 . S
H660 C638 0.931 . S
H661 C639 0.931 . S
C662 Eu663 2.835 . S
C662 C664 1.500 . S
C662 O682 1.257 . S
C662 O683 1.260 . S
Eu663 C662 2.835 . S
Eu663 O682 2.473 . S
Eu663 O683 2.480 . S
Eu663 O684 2.430 . S
Eu663 O685 2.670 . S
Eu663 O686 2.394 . S
Eu663 O691 2.355 . S
Eu663 O693 2.374 . S
C664 C662 1.500 . S
C664 C665 1.377 . S
C664 C669 1.377 . S
C665 C664 1.377 . S
C665 C666 1.395 . S
C665 H694 0.931 . S
C666 C665 1.395 . S
C666 C667 1.383 . S
C666 H695 0.931 . S
C667 C666 1.383 . S
C667 C668 1.394 . S
C668 C667 1.394 . S
C668 C669 1.378 . S
C668 H696 0.931 . S
C669 C664 1.377 . S
C669 C668 1.378 . S
C669 H697 0.931 . S
C670 O684 1.259 . S
C670 O685 1.270 . S
C671 O686 1.251 . S
C671 O687 1.251 . S
C672 Eu673 2.835 . S
C672 C674 1.500 . S
C672 O688 1.257 . S
C672 O689 1.260 . S
Eu673 C672 2.835 . S
Eu673 O685 2.355 . S
Eu673 O687 2.374 . S
Eu673 O688 2.473 . S
Eu673 O689 2.480 . S
Eu673 O690 2.430 . S
Eu673 O691 2.670 . S
Eu673 O692 2.394 . S
C674 C672 1.500 . S
C674 C675 1.377 . S
C674 C679 1.377 . S
C675 C674 1.377 . S
C675 C676 1.395 . S
C675 H698 0.931 . S
C676 C675 1.395 . S
C676 C677 1.383 . S
C676 H699 0.931 . S
C677 C676 1.383 . S
C677 C678 1.394 . S
C678 C677 1.394 . S
C678 C679 1.378 . S
C678 H700 0.931 . S
C679 C674 1.377 . S
C679 C678 1.378 . S
C679 H701 0.931 . S
C680 O690 1.259 . S
C680 O691 1.270 . S
C681 O692 1.251 . S
C681 O693 1.251 . S
O682 C662 1.257 . S
O682 Eu663 2.473 . S
O683 C662 1.260 . S
O683 Eu663 2.480 . S
O684 Eu663 2.430 . S
O684 C670 1.259 . S
O685 Eu663 2.670 . S
O685 C670 1.270 . S
O685 Eu673 2.355 . S
O686 Eu663 2.394 . S
O686 C671 1.251 . S
O687 C671 1.251 . S
O687 Eu673 2.374 . S
O688 C672 1.257 . S
O688 Eu673 2.473 . S
O689 C672 1.260 . S
O689 Eu673 2.480 . S
O690 Eu673 2.430 . S
O690 C680 1.259 . S
O691 Eu663 2.355 . S
O691 Eu673 2.670 . S
O691 C680 1.270 . S
O692 Eu673 2.394 . S
O692 C681 1.251 . S
O693 Eu663 2.374 . S
O693 C681 1.251 . S
H694 C665 0.931 . S
H695 C666 0.931 . S
H696 C668 0.931 . S
H697 C669 0.931 . S
H698 C675 0.931 . S
H699 C676 0.931 . S
H700 C678 0.931 . S
H701 C679 0.931 . S
C702 C703 1.391 . S
C702 C704 1.394 . S
C702 H718 0.931 . S
C703 C702 1.391 . S
C703 C707 1.376 . S
C704 C702 1.394 . S
C704 C705 1.369 . S
C704 C708 1.538 . S
C705 C704 1.369 . S
C705 C706 1.410 . S
C705 C713 1.503 . S
C706 C705 1.410 . S
C706 C707 1.392 . S
C706 C709 1.511 . S
C707 C703 1.376 . S
C707 C706 1.392 . S
C707 H719 0.929 . S
C708 C704 1.538 . S
C708 H720 0.955 1_554 S
C708 H721 0.966 . S
C708 H722 0.955 1_554 S
C709 C706 1.511 . S
C709 H723 0.961 . S
C709 H724 0.961 . S
C709 H725 0.961 . S
C710 C711 1.370 . S
C710 C712 1.363 . S
C710 H726 0.931 . S
C711 C710 1.370 . S
C711 C715 1.408 . S
C712 C710 1.363 . S
C712 C713 1.370 . S
C712 C716 1.524 . S
C713 C705 1.503 . S
C713 C712 1.370 . S
C713 C714 1.403 . S
C714 C713 1.403 . S
C714 C715 1.404 . S
C714 C717 1.539 1_554 S
C715 C711 1.408 . S
C715 C714 1.404 . S
C715 H727 0.930 1_554 S
C716 C712 1.524 . S
C716 H728 0.956 . S
C716 H729 0.961 . S
C716 H730 0.961 . S
C717 C714 1.539 1_556 S
C717 H731 0.958 . S
C717 H732 0.961 . S
C717 H733 0.960 1_556 S
H718 C702 0.931 . S
H719 C707 0.929 . S
H720 C708 0.955 1_556 S
H721 C708 0.966 . S
H722 C708 0.955 1_556 S
H723 C709 0.961 . S
H724 C709 0.961 . S
H725 C709 0.961 . S
H726 C710 0.931 . S
H727 C715 0.930 1_556 S
H728 C716 0.956 . S
H729 C716 0.961 . S
H730 C716 0.961 . S
H731 C717 0.958 . S
H732 C717 0.961 . S
H733 C717 0.960 1_554 S
C734 C735 1.391 . S
C734 C736 1.394 . S
C734 H750 0.931 . S
C735 C734 1.391 . S
C735 C739 1.376 . S
C736 C734 1.394 . S
C736 C737 1.369 . S
C736 C740 1.531 . S
C737 C736 1.369 . S
C737 C738 1.410 . S
C737 C745 1.503 . S
C738 C737 1.410 . S
C738 C739 1.392 . S
C738 C741 1.511 . S
C739 C735 1.376 . S
C739 C738 1.392 . S
C739 H751 0.929 . S
C740 C736 1.531 . S
C740 H752 0.960 . S
C740 H753 0.962 . S
C740 H754 0.960 . S
C741 C738 1.511 . S
C741 H755 0.961 . S
C741 H756 0.961 . S
C741 H757 0.961 . S
C742 C743 1.370 . S
C742 C744 1.363 . S
C742 H758 0.931 . S
C743 C742 1.370 . S
C743 C747 1.408 . S
C744 C742 1.363 . S
C744 C745 1.370 . S
C744 C748 1.524 . S
C745 C737 1.503 . S
C745 C744 1.370 . S
C745 C746 1.403 . S
C746 C745 1.403 . S
C746 C747 1.404 . S
C746 C749 1.539 . S
C747 C743 1.408 . S
C747 C746 1.404 . S
C747 H759 0.930 . S
C748 C744 1.524 . S
C748 H760 0.956 . S
C748 H761 0.961 . S
C748 H762 0.961 . S
C749 C746 1.539 . S
C749 H763 0.958 . S
C749 H764 0.961 . S
C749 H765 0.960 . S
H750 C734 0.931 . S
H751 C739 0.929 . S
H752 C740 0.960 . S
H753 C740 0.962 . S
H754 C740 0.960 . S
H755 C741 0.961 . S
H756 C741 0.961 . S
H757 C741 0.961 . S
H758 C742 0.931 . S
H759 C747 0.930 . S
H760 C748 0.956 . S
H761 C748 0.961 . S
H762 C748 0.961 . S
H763 C749 0.958 . S
H764 C749 0.961 . S
H765 C749 0.960 . S
C766 C767 1.391 . S
C766 C768 1.394 . S
C766 H782 0.931 . S
C767 C766 1.391 . S
C767 C771 1.376 . S
C768 C766 1.394 . S
C768 C769 1.369 . S
C768 C772 1.531 . S
C769 C768 1.369 . S
C769 C770 1.410 . S
C769 C777 1.503 . S
C770 C769 1.410 . S
C770 C771 1.392 . S
C770 C773 1.511 . S
C771 C767 1.376 . S
C771 C770 1.392 . S
C771 H783 0.929 . S
C772 C768 1.531 . S
C772 H784 0.981 . S
C772 H785 0.962 . S
C772 H786 0.960 . S
C773 C770 1.511 . S
C773 H787 0.961 . S
C773 H788 0.961 . S
C773 H789 0.961 . S
C774 C775 1.370 . S
C774 C776 1.363 . S
C774 H790 0.931 . S
C775 C774 1.370 . S
C775 C779 1.408 1_554 S
C776 C774 1.363 . S
C776 C777 1.370 . S
C776 C780 1.524 . S
C777 C769 1.503 . S
C777 C776 1.370 . S
C777 C778 1.403 1_554 S
C778 C777 1.403 1_556 S
C778 C779 1.404 . S
C778 C781 1.539 . S
C779 C775 1.408 1_556 S
C779 C778 1.404 . S
C779 H791 0.930 . S
C780 C776 1.524 . S
C780 H792 0.956 . S
C780 H793 0.961 . S
C780 H794 0.961 . S
C781 C778 1.539 . S
C781 H795 0.958 . S
C781 H796 0.961 . S
C781 H797 0.960 . S
H782 C766 0.931 . S
H783 C771 0.929 . S
H784 C772 0.981 . S
H785 C772 0.962 . S
H786 C772 0.960 . S
H787 C773 0.961 . S
H788 C773 0.961 . S
H789 C773 0.961 . S
H790 C774 0.931 . S
H791 C779 0.930 . S
H792 C780 0.956 . S
H793 C780 0.961 . S
H794 C780 0.961 . S
H795 C781 0.958 . S
H796 C781 0.961 . S
H797 C781 0.960 . S
C798 C799 1.391 . S
C798 C800 1.394 . S
C798 H814 0.931 . S
C799 C798 1.391 . S
C799 C803 1.376 . S
C800 C798 1.394 . S
C800 C801 1.369 . S
C800 C804 1.531 . S
C801 C800 1.369 . S
C801 C802 1.410 . S
C801 C809 1.503 . S
C802 C801 1.410 . S
C802 C803 1.392 . S
C802 C805 1.511 . S
C803 C799 1.376 . S
C803 C802 1.392 . S
C803 H815 0.929 . S
C804 C800 1.531 . S
C804 H816 0.960 . S
C804 H817 0.962 . S
C804 H818 0.960 . S
C805 C802 1.511 . S
C805 H819 0.961 . S
C805 H820 0.961 . S
C805 H821 0.961 1_556 S
C806 C807 1.370 . S
C806 C808 1.363 . S
C806 H822 0.931 . S
C807 C806 1.370 . S
C807 C811 1.408 1_556 S
C808 C806 1.363 . S
C808 C809 1.370 . S
C808 C812 1.524 . S
C809 C801 1.503 . S
C809 C808 1.370 . S
C809 C810 1.403 1_556 S
C810 C809 1.403 1_554 S
C810 C811 1.404 . S
C810 C813 1.539 . S
C811 C807 1.408 1_554 S
C811 C810 1.404 . S
C811 H823 0.930 . S
C812 C808 1.524 . S
C812 H824 0.956 . S
C812 H825 0.961 . S
C812 H826 0.961 . S
C813 C810 1.539 . S
C813 H827 0.958 . S
C813 H828 0.961 . S
C813 H829 0.960 . S
H814 C798 0.931 . S
H815 C803 0.929 . S
H816 C804 0.960 . S
H817 C804 0.962 . S
H818 C804 0.960 . S
H819 C805 0.961 . S
H820 C805 0.961 . S
H821 C805 0.961 1_554 S
H822 C806 0.931 . S
H823 C811 0.930 . S
H824 C812 0.956 . S
H825 C812 0.961 . S
H826 C812 0.961 . S
H827 C813 0.958 . S
H828 C813 0.961 . S
H829 C813 0.960 . S
C830 C831 1.391 . S
C830 C832 1.394 . S
C830 H846 0.931 . S
C831 C830 1.391 . S
C831 C835 1.376 . S
C832 C830 1.394 . S
C832 C833 1.369 . S
C832 C836 1.531 . S
C833 C832 1.369 . S
C833 C834 1.410 . S
C833 C841 1.503 . S
C834 C833 1.410 . S
C834 C835 1.392 . S
C834 C837 1.511 . S
C835 C831 1.376 . S
C835 C834 1.392 . S
C835 H847 0.929 . S
C836 C832 1.531 . S
C836 H848 0.960 . S
C836 H849 0.962 . S
C836 H850 0.960 . S
C837 C834 1.511 . S
C837 H851 0.961 . S
C837 H852 0.961 . S
C837 H853 0.961 1_556 S
C838 C839 1.370 . S
C838 C840 1.363 . S
C838 H854 0.931 . S
C839 C838 1.370 . S
C839 C843 1.408 1_556 S
C840 C838 1.363 . S
C840 C841 1.370 . S
C840 C844 1.524 . S
C841 C833 1.503 . S
C841 C840 1.370 . S
C841 C842 1.403 . S
C842 C841 1.403 . S
C842 C843 1.404 1_556 S
C842 C845 1.539 1_556 S
C843 C839 1.408 1_554 S
C843 C842 1.404 1_554 S
C843 H855 0.930 . S
C844 C840 1.524 . S
C844 H856 0.956 . S
C844 H857 0.961 . S
C844 H858 0.961 . S
C845 C842 1.539 1_554 S
C845 H859 0.958 . S
C845 H860 0.961 . S
C845 H861 0.960 . S
H846 C830 0.931 . S
H847 C835 0.929 . S
H848 C836 0.960 . S
H849 C836 0.962 . S
H850 C836 0.960 . S
H851 C837 0.961 . S
H852 C837 0.961 . S
H853 C837 0.961 1_554 S
H854 C838 0.931 . S
H855 C843 0.930 . S
H856 C844 0.956 . S
H857 C844 0.961 . S
H858 C844 0.961 . S
H859 C845 0.958 . S
H860 C845 0.961 . S
H861 C845 0.960 . S
C862 C863 1.391 . S
C862 C864 1.394 . S
C862 H878 0.931 . S
C863 C862 1.391 . S
C863 C867 1.376 1_556 S
C864 C862 1.394 . S
C864 C865 1.369 . S
C864 C868 1.531 . S
C865 C864 1.369 . S
C865 C866 1.410 1_556 S
C865 C873 1.503 . S
C866 C865 1.410 1_554 S
C866 C867 1.392 . S
C866 C869 1.511 . S
C867 C863 1.376 1_554 S
C867 C866 1.392 . S
C867 H879 0.929 . S
C868 C864 1.531 . S
C868 H880 0.960 . S
C868 H881 0.962 . S
C868 H882 0.960 . S
C869 C866 1.511 . S
C869 H883 0.961 . S
C869 H884 0.961 . S
C869 H885 0.961 . S
C870 C871 1.370 1_554 S
C870 C872 1.362 1_554 S
C870 H886 0.931 . S
C871 C870 1.370 1_556 S
C871 C875 1.408 . S
C872 C870 1.362 1_556 S
C872 C873 1.374 . S
C872 C876 1.522 1_556 S
C873 C865 1.503 . S
C873 C872 1.374 . S
C873 C874 1.403 . S
C874 C873 1.403 . S
C874 C875 1.404 . S
C874 C877 1.539 . S
C875 C871 1.408 . S
C875 C874 1.404 . S
C875 H887 0.930 . S
C876 C872 1.522 1_554 S
C876 H888 0.956 1_554 S
C876 H889 0.961 . S
C876 H890 0.961 . S
C877 C874 1.539 . S
C877 H891 0.958 . S
C877 H892 0.961 . S
C877 H893 0.960 . S
H878 C862 0.931 . S
H879 C867 0.929 . S
H880 C868 0.960 . S
H881 C868 0.962 . S
H882 C868 0.960 . S
H883 C869 0.961 . S
H884 C869 0.961 . S
H885 C869 0.961 . S
H886 C870 0.931 . S
H887 C875 0.930 . S
H888 C876 0.956 1_556 S
H889 C876 0.961 . S
H890 C876 0.961 . S
H891 C877 0.958 . S
H892 C877 0.961 . S
H893 C877 0.960 . S
C894 C895 1.391 . S
C894 C896 1.394 . S
C894 H910 0.931 . S
C895 C894 1.391 . S
C895 C899 1.376 . S
C896 C894 1.394 . S
C896 C897 1.369 . S
C896 C900 1.531 . S
C897 C896 1.369 . S
C897 C898 1.410 . S
C897 C905 1.503 . S
C898 C897 1.410 . S
C898 C899 1.392 . S
C898 C901 1.511 . S
C899 C895 1.376 . S
C899 C898 1.392 . S
C899 H911 0.929 . S
C900 C896 1.531 . S
C900 H912 0.960 . S
C900 H913 0.962 . S
C900 H914 0.960 . S
C901 C898 1.511 . S
C901 H915 0.961 . S
C901 H916 0.961 . S
C901 H917 0.961 . S
C902 C903 1.370 1_554 S
C902 C904 1.379 . S
C902 H918 0.931 . S
C903 C902 1.370 1_556 S
C903 C907 1.408 . S
C904 C902 1.379 . S
C904 C905 1.319 1_554 S
C904 C908 1.562 . S
C905 C897 1.503 . S
C905 C904 1.319 1_556 S
C905 C906 1.403 . S
C906 C905 1.403 . S
C906 C907 1.404 . S
C906 C909 1.539 . S
C907 C903 1.408 . S
C907 C906 1.404 . S
C907 H919 0.930 . S
C908 C904 1.562 . S
C908 H920 0.956 . S
C908 H921 0.961 . S
C908 H922 0.961 . S
C909 C906 1.539 . S
C909 H923 0.958 . S
C909 H924 0.961 . S
C909 H925 0.960 . S
H910 C894 0.931 . S
H911 C899 0.929 . S
H912 C900 0.960 . S
H913 C900 0.962 . S
H914 C900 0.960 . S
H915 C901 0.961 . S
H916 C901 0.961 . S
H917 C901 0.961 . S
H918 C902 0.931 . S
H919 C907 0.930 . S
H920 C908 0.956 . S
H921 C908 0.961 . S
H922 C908 0.961 . S
H923 C909 0.958 . S
H924 C909 0.961 . S
H925 C909 0.960 . S
C926 C927 1.391 . S
C926 C928 1.394 . S
C926 H942 0.931 . S
C927 C926 1.391 . S
C927 C931 1.376 . S
C928 C926 1.394 . S
C928 C929 1.369 . S
C928 C932 1.531 . S
C929 C928 1.369 . S
C929 C930 1.410 . S
C929 C937 1.503 . S
C930 C929 1.410 . S
C930 C931 1.392 . S
C930 C933 1.511 . S
C931 C927 1.376 . S
C931 C930 1.392 . S
C931 H943 0.929 . S
C932 C928 1.531 . S
C932 H944 0.960 . S
C932 H945 0.962 . S
C932 H946 0.960 . S
C933 C930 1.511 . S
C933 H947 0.961 . S
C933 H948 0.961 . S
C933 H949 0.961 . S
C934 C935 1.370 . S
C934 C936 1.363 . S
C934 H950 0.931 . S
C935 C934 1.370 . S
C935 C939 1.408 . S
C936 C934 1.363 . S
C936 C937 1.370 . S
C936 C940 1.524 . S
C937 C929 1.503 . S
C937 C936 1.370 . S
C937 C938 1.403 . S
C938 C937 1.403 . S
C938 C939 1.404 . S
C938 C941 1.539 1_556 S
C939 C935 1.408 . S
C939 C938 1.404 . S
C939 H951 0.930 1_556 S
C940 C936 1.524 . S
C940 H952 0.956 . S
C940 H953 0.961 . S
C940 H954 0.961 . S
C941 C938 1.539 1_554 S
C941 H955 0.958 . S
C941 H956 0.961 . S
C941 H957 0.960 . S
H942 C926 0.931 . S
H943 C931 0.929 . S
H944 C932 0.960 . S
H945 C932 0.962 . S
H946 C932 0.960 . S
H947 C933 0.961 . S
H948 C933 0.961 . S
H949 C933 0.961 . S
H950 C934 0.931 . S
H951 C939 0.930 1_554 S
H952 C940 0.956 . S
H953 C940 0.961 . S
H954 C940 0.961 . S
H955 C941 0.958 . S
H956 C941 0.961 . S
H957 C941 0.960 . S
C958 C959 1.417 . S
C958 C960 1.394 . S
C958 H974 0.931 . S
C959 C958 1.417 . S
C959 C963 1.346 1_554 S
C960 C958 1.394 . S
C960 C961 1.397 . S
C960 C964 1.531 . S
C961 C960 1.397 . S
C961 C962 1.385 1_554 S
C961 C969 1.502 . S
C962 C961 1.385 1_556 S
C962 C963 1.392 . S
C962 C965 1.511 . S
C963 C959 1.346 1_556 S
C963 C962 1.392 . S
C963 H975 0.929 . S
C964 C960 1.531 . S
C964 H976 0.960 . S
C964 H977 0.962 . S
C964 H978 0.960 . S
C965 C962 1.511 . S
C965 H979 0.961 . S
C965 H980 0.961 . S
C965 H981 0.961 . S
C966 C967 1.370 . S
C966 C968 1.363 . S
C966 H982 0.931 . S
C967 C966 1.370 . S
C967 C971 1.408 1_554 S
C968 C966 1.363 . S
C968 C969 1.370 . S
C968 C972 1.524 . S
C969 C961 1.502 . S
C969 C968 1.370 . S
C969 C970 1.403 1_554 S
C970 C969 1.403 1_556 S
C970 C971 1.404 . S
C970 C973 1.539 . S
C971 C967 1.408 1_556 S
C971 C970 1.404 . S
C971 H983 0.930 . S
C972 C968 1.524 . S
C972 H984 0.956 . S
C972 H985 0.961 . S
C972 H986 0.961 . S
C973 C970 1.539 . S
C973 H987 0.958 . S
C973 H988 0.961 . S
C973 H989 0.960 . S
H974 C958 0.931 . S
H975 C963 0.929 . S
H976 C964 0.960 . S
H977 C964 0.962 . S
H978 C964 0.960 . S
H979 C965 0.961 . S
H980 C965 0.961 . S
H981 C965 0.961 . S
H982 C966 0.931 . S
H983 C971 0.930 . S
H984 C972 0.956 . S
H985 C972 0.961 . S
H986 C972 0.961 . S
H987 C973 0.958 . S
H988 C973 0.961 . S
H989 C973 0.960 . S
C990 C991 1.391 . S
C990 C992 1.394 . S
C990 H1006 0.931 . S
C991 C990 1.391 . S
C991 C995 1.376 . S
C992 C990 1.394 . S
C992 C993 1.369 . S
C992 C996 1.531 . S
C993 C992 1.369 . S
C993 C994 1.410 . S
C993 C1001 1.503 . S
C994 C993 1.410 . S
C994 C995 1.392 . S
C994 C997 1.511 . S
C995 C991 1.376 . S
C995 C994 1.392 . S
C995 H1007 0.929 . S
C996 C992 1.531 . S
C996 H1008 0.960 . S
C996 H1009 0.962 . S
C996 H1010 0.960 . S
C997 C994 1.511 . S
C997 H1011 0.961 . S
C997 H1012 0.961 . S
C997 H1013 0.961 . S
C998 C999 1.370 1_556 S
C998 C1000 1.365 . S
C998 H1014 0.931 . S
C999 C998 1.370 1_554 S
C999 C1003 1.408 . S
C1000 C998 1.365 . S
C1000 C1001 1.342 1_556 S
C1000 C1004 1.552 . S
C1001 C993 1.503 . S
C1001 C1000 1.342 1_554 S
C1001 C1002 1.403 . S
C1002 C1001 1.403 . S
C1002 C1003 1.404 . S
C1002 C1005 1.539 . S
C1003 C999 1.408 . S
C1003 C1002 1.404 . S
C1003 H1015 0.930 . S
C1004 C1000 1.552 . S
C1004 H1016 0.956 . S
C1004 H1017 0.961 . S
C1004 H1018 0.961 . S
C1005 C1002 1.539 . S
C1005 H1019 0.958 . S
C1005 H1020 0.961 . S
C1005 H1021 0.960 . S
H1006 C990 0.931 . S
H1007 C995 0.929 . S
H1008 C996 0.960 . S
H1009 C996 0.962 . S
H1010 C996 0.960 . S
H1011 C997 0.961 . S
H1012 C997 0.961 . S
H1013 C997 0.961 . S
H1014 C998 0.931 . S
H1015 C1003 0.930 . S
H1016 C1004 0.956 . S
H1017 C1004 0.961 . S
H1018 C1004 0.961 . S
H1019 C1005 0.958 . S
H1020 C1005 0.961 . S
H1021 C1005 0.960 . S
C1022 C1023 1.391 . S
C1022 C1024 1.394 . S
C1022 H1038 0.931 . S
C1023 C1022 1.391 . S
C1023 C1027 1.376 . S
C1024 C1022 1.394 . S
C1024 C1025 1.369 . S
C1024 C1028 1.531 . S
C1025 C1024 1.369 . S
C1025 C1026 1.410 . S
C1025 C1033 1.503 . S
C1026 C1025 1.410 . S
C1026 C1027 1.392 . S
C1026 C1029 1.511 . S
C1027 C1023 1.376 . S
C1027 C1026 1.392 . S
C1027 H1039 0.929 . S
C1028 C1024 1.531 . S
C1028 H1040 0.960 . S
C1028 H1041 0.962 . S
C1028 H1042 0.960 . S
C1029 C1026 1.511 . S
C1029 H1043 0.961 . S
C1029 H1044 0.961 . S
C1029 H1045 0.961 . S
C1030 C1031 1.370 . S
C1030 C1032 1.363 . S
C1030 H1046 0.931 . S
C1031 C1030 1.370 . S
C1031 C1035 1.408 . S
C1032 C1030 1.363 . S
C1032 C1033 1.370 . S
C1032 C1036 1.524 . S
C1033 C1025 1.503 . S
C1033 C1032 1.370 . S
C1033 C1034 1.403 . S
C1034 C1033 1.403 . S
C1034 C1035 1.404 . S
C1034 C1037 1.539 1_554 S
C1035 C1031 1.408 . S
C1035 C1034 1.404 . S
C1035 H1047 0.930 1_554 S
C1036 C1032 1.524 . S
C1036 H1048 0.956 . S
C1036 H1049 0.961 . S
C1036 H1050 0.961 . S
C1037 C1034 1.539 1_556 S
C1037 H1051 0.958 . S
C1037 H1052 0.961 . S
C1037 H1053 0.960 1_556 S
H1038 C1022 0.931 . S
H1039 C1027 0.929 . S
H1040 C1028 0.960 . S
H1041 C1028 0.962 . S
H1042 C1028 0.960 . S
H1043 C1029 0.961 . S
H1044 C1029 0.961 . S
H1045 C1029 0.961 . S
H1046 C1030 0.931 . S
H1047 C1035 0.930 1_556 S
H1048 C1036 0.956 . S
H1049 C1036 0.961 . S
H1050 C1036 0.961 . S
H1051 C1037 0.958 . S
H1052 C1037 0.961 . S
H1053 C1037 0.960 1_554 S
C1054 C1055 1.391 . S
C1054 C1056 1.394 . S
C1054 H1070 0.931 . S
C1055 C1054 1.391 . S
C1055 C1059 1.376 1_554 S
C1056 C1054 1.394 . S
C1056 C1057 1.369 . S
C1056 C1060 1.531 . S
C1057 C1056 1.369 . S
C1057 C1058 1.410 1_554 S
C1057 C1065 1.503 . S
C1058 C1057 1.410 1_556 S
C1058 C1059 1.392 . S
C1058 C1061 1.511 . S
C1059 C1055 1.376 1_556 S
C1059 C1058 1.392 . S
C1059 H1071 0.929 . S
C1060 C1056 1.531 . S
C1060 H1072 0.960 . S
C1060 H1073 0.962 . S
C1060 H1074 0.960 . S
C1061 C1058 1.511 . S
C1061 H1075 0.961 . S
C1061 H1076 0.961 . S
C1061 H1077 0.961 . S
C1062 C1063 1.370 . S
C1062 C1064 1.363 . S
C1062 H1078 0.931 1_554 S
C1063 C1062 1.370 . S
C1063 C1067 1.408 . S
C1064 C1062 1.363 . S
C1064 C1065 1.370 . S
C1064 C1068 1.524 1_554 S
C1065 C1057 1.503 . S
C1065 C1064 1.370 . S
C1065 C1066 1.403 . S
C1066 C1065 1.403 . S
C1066 C1067 1.404 . S
C1066 C1069 1.539 . S
C1067 C1063 1.408 . S
C1067 C1066 1.404 . S
C1067 H1079 0.930 . S
C1068 C1064 1.524 1_556 S
C1068 H1080 0.956 1_556 S
C1068 H1081 0.961 . S
C1068 H1082 0.961 . S
C1069 C1066 1.539 . S
C1069 H1083 0.958 . S
C1069 H1084 0.961 . S
C1069 H1085 0.960 . S
H1070 C1054 0.931 . S
H1071 C1059 0.929 . S
H1072 C1060 0.960 . S
H1073 C1060 0.962 . S
H1074 C1060 0.960 . S
H1075 C1061 0.961 . S
H1076 C1061 0.961 . S
H1077 C1061 0.961 . S
H1078 C1062 0.931 1_556 S
H1079 C1067 0.930 . S
H1080 C1068 0.956 1_554 S
H1081 C1068 0.961 . S
H1082 C1068 0.961 . S
H1083 C1069 0.958 . S
H1084 C1069 0.961 . S
H1085 C1069 0.960 . S
C1086 C1087 1.391 . S
C1086 C1088 1.394 . S
C1086 H1102 0.931 . S
C1087 C1086 1.391 . S
C1087 C1091 1.376 . S
C1088 C1086 1.394 . S
C1088 C1089 1.369 . S
C1088 C1092 1.531 . S
C1089 C1088 1.369 . S
C1089 C1090 1.410 . S
C1089 C1097 1.503 1_655 S
C1090 C1089 1.410 . S
C1090 C1091 1.392 . S
C1090 C1093 1.511 . S
C1091 C1087 1.376 . S
C1091 C1090 1.392 . S
C1091 H1103 0.929 . S
C1092 C1088 1.531 . S
C1092 H1104 0.960 1_655 S
C1092 H1105 0.962 1_655 S
C1092 H1106 0.960 . S
C1093 C1090 1.511 . S
C1093 H1107 0.961 . S
C1093 H1108 0.961 . S
C1093 H1109 0.961 . S
C1094 C1095 1.370 . S
C1094 C1096 1.363 . S
C1094 H1110 0.931 . S
C1095 C1094 1.370 . S
C1095 C1099 1.408 . S
C1096 C1094 1.363 . S
C1096 C1097 1.370 . S
C1096 C1100 1.524 1_455 S
C1097 C1089 1.503 1_455 S
C1097 C1096 1.370 . S
C1097 C1098 1.403 . S
C1098 C1097 1.403 . S
C1098 C1099 1.404 . S
C1098 C1101 1.539 . S
C1099 C1095 1.408 . S
C1099 C1098 1.404 . S
C1099 H1111 0.930 . S
C1100 C1096 1.524 1_655 S
C1100 H1112 0.956 . S
C1100 H1113 0.961 . S
C1100 H1114 0.964 1_655 S
C1101 C1098 1.539 . S
C1101 H1115 0.958 . S
C1101 H1116 0.961 . S
C1101 H1117 0.960 1_455 S
H1102 C1086 0.931 . S
H1103 C1091 0.929 . S
H1104 C1092 0.960 1_455 S
H1105 C1092 0.962 1_455 S
H1106 C1092 0.960 . S
H1107 C1093 0.961 . S
H1108 C1093 0.961 . S
H1109 C1093 0.961 . S
H1110 C1094 0.931 . S
H1111 C1099 0.930 . S
H1112 C1100 0.956 . S
H1113 C1100 0.961 . S
H1114 C1100 0.964 1_455 S
H1115 C1101 0.958 . S
H1116 C1101 0.961 . S
H1117 C1101 0.960 1_655 S
C1118 C1119 1.391 . S
C1118 C1120 1.394 . S
C1118 H1134 0.931 . S
C1119 C1118 1.391 . S
C1119 C1123 1.376 . S
C1120 C1118 1.394 . S
C1120 C1121 1.369 . S
C1120 C1124 1.531 . S
C1121 C1120 1.369 . S
C1121 C1122 1.410 . S
C1121 C1129 1.503 . S
C1122 C1121 1.410 . S
C1122 C1123 1.392 . S
C1122 C1125 1.511 . S
C1123 C1119 1.376 . S
C1123 C1122 1.392 . S
C1123 H1135 0.929 . S
C1124 C1120 1.531 . S
C1124 H1136 0.960 . S
C1124 H1137 0.962 . S
C1124 H1138 0.960 . S
C1125 C1122 1.511 . S
C1125 H1139 0.961 . S
C1125 H1140 0.961 . S
C1125 H1141 0.961 . S
C1126 C1127 1.370 . S
C1126 C1128 1.363 . S
C1126 H1142 0.931 . S
C1127 C1126 1.370 . S
C1127 C1131 1.408 . S
C1128 C1126 1.363 . S
C1128 C1129 1.370 . S
C1128 C1132 1.524 . S
C1129 C1121 1.503 . S
C1129 C1128 1.370 . S
C1129 C1130 1.403 . S
C1130 C1129 1.403 . S
C1130 C1131 1.404 . S
C1130 C1133 1.539 . S
C1131 C1127 1.408 . S
C1131 C1130 1.404 . S
C1131 H1143 0.930 . S
C1132 C1128 1.524 . S
C1132 H1144 0.956 . S
C1132 H1145 0.961 . S
C1132 H1146 0.961 . S
C1133 C1130 1.539 . S
C1133 H1147 0.958 . S
C1133 H1148 0.961 . S
C1133 H1149 0.960 . S
H1134 C1118 0.931 . S
H1135 C1123 0.929 . S
H1136 C1124 0.960 . S
H1137 C1124 0.962 . S
H1138 C1124 0.960 . S
H1139 C1125 0.961 . S
H1140 C1125 0.961 . S
H1141 C1125 0.961 . S
H1142 C1126 0.931 . S
H1143 C1131 0.930 . S
H1144 C1132 0.956 . S
H1145 C1132 0.961 . S
H1146 C1132 0.961 . S
H1147 C1133 0.958 . S
H1148 C1133 0.961 . S
H1149 C1133 0.960 . S
C1150 C1151 1.391 . S
C1150 C1152 1.394 . S
C1150 H1166 0.931 . S
C1151 C1150 1.391 . S
C1151 C1155 1.376 . S
C1152 C1150 1.394 . S
C1152 C1153 1.369 . S
C1152 C1156 1.531 . S
C1153 C1152 1.369 . S
C1153 C1154 1.410 . S
C1153 C1161 1.503 . S
C1154 C1153 1.410 . S
C1154 C1155 1.392 . S
C1154 C1157 1.511 . S
C1155 C1151 1.376 . S
C1155 C1154 1.392 . S
C1155 H1167 0.929 . S
C1156 C1152 1.531 . S
C1156 H1168 0.960 . S
C1156 H1169 0.962 . S
C1156 H1170 0.960 . S
C1157 C1154 1.511 . S
C1157 H1171 0.961 . S
C1157 H1172 0.961 . S
C1157 H1173 0.961 . S
C1158 C1159 1.370 . S
C1158 C1160 1.363 . S
C1158 H1174 0.931 . S
C1159 C1158 1.370 . S
C1159 C1163 1.408 . S
C1160 C1158 1.363 . S
C1160 C1161 1.370 1_565 S
C1160 C1164 1.524 1_565 S
C1161 C1153 1.503 . S
C1161 C1160 1.370 1_545 S
C1161 C1162 1.403 1_545 S
C1162 C1161 1.403 1_565 S
C1162 C1163 1.404 . S
C1162 C1165 1.539 1_565 S
C1163 C1159 1.408 . S
C1163 C1162 1.404 . S
C1163 H1175 0.930 . S
C1164 C1160 1.524 1_545 S
C1164 H1176 0.956 . S
C1164 H1177 0.961 . S
C1164 H1178 0.961 1_545 S
C1165 C1162 1.539 1_545 S
C1165 H1179 0.958 . S
C1165 H1180 0.961 1_545 S
C1165 H1181 0.960 . S
H1166 C1150 0.931 . S
H1167 C1155 0.929 . S
H1168 C1156 0.960 . S
H1169 C1156 0.962 . S
H1170 C1156 0.960 . S
H1171 C1157 0.961 . S
H1172 C1157 0.961 . S
H1173 C1157 0.961 . S
H1174 C1158 0.931 . S
H1175 C1163 0.930 . S
H1176 C1164 0.956 . S
H1177 C1164 0.961 . S
H1178 C1164 0.961 1_565 S
H1179 C1165 0.958 . S
H1180 C1165 0.961 1_565 S
H1181 C1165 0.960 . S
C1182 C1183 1.391 . S
C1182 C1184 1.394 . S
C1182 H1198 0.931 . S
C1183 C1182 1.391 . S
C1183 C1187 1.376 . S
C1184 C1182 1.394 . S
C1184 C1185 1.369 . S
C1184 C1188 1.531 . S
C1185 C1184 1.369 . S
C1185 C1186 1.410 . S
C1185 C1193 1.503 . S
C1186 C1185 1.410 . S
C1186 C1187 1.392 . S
C1186 C1189 1.511 . S
C1187 C1183 1.376 . S
C1187 C1186 1.392 . S
C1187 H1199 0.929 . S
C1188 C1184 1.531 . S
C1188 H1200 0.960 . S
C1188 H1201 0.962 . S
C1188 H1202 0.960 . S
C1189 C1186 1.511 . S
C1189 H1203 0.961 . S
C1189 H1204 0.961 . S
C1189 H1205 0.961 . S
C1190 C1191 1.370 . S
C1190 C1192 1.363 . S
C1190 H1206 0.931 . S
C1191 C1190 1.370 . S
C1191 C1195 1.408 . S
C1192 C1190 1.363 . S
C1192 C1193 1.370 . S
C1192 C1196 1.524 . S
C1193 C1185 1.503 . S
C1193 C1192 1.370 . S
C1193 C1194 1.403 . S
C1194 C1193 1.403 . S
C1194 C1195 1.404 . S
C1194 C1197 1.539 . S
C1195 C1191 1.408 . S
C1195 C1194 1.404 . S
C1195 H1207 0.930 . S
C1196 C1192 1.524 . S
C1196 H1208 0.956 . S
C1196 H1209 0.961 . S
C1196 H1210 0.961 . S
C1197 C1194 1.539 . S
C1197 H1211 0.958 . S
C1197 H1212 0.961 . S
C1197 H1213 0.960 . S
H1198 C1182 0.931 . S
H1199 C1187 0.929 . S
H1200 C1188 0.960 . S
H1201 C1188 0.962 . S
H1202 C1188 0.960 . S
H1203 C1189 0.961 . S
H1204 C1189 0.961 . S
H1205 C1189 0.961 . S
H1206 C1190 0.931 . S
H1207 C1195 0.930 . S
H1208 C1196 0.956 . S
H1209 C1196 0.961 . S
H1210 C1196 0.961 . S
H1211 C1197 0.958 . S
H1212 C1197 0.961 . S
H1213 C1197 0.960 . S
C1214 C1215 1.391 . S
C1214 C1216 1.394 . S
C1214 H1230 0.931 . S
C1215 C1214 1.391 . S
C1215 C1219 1.376 . S
C1216 C1214 1.394 . S
C1216 C1217 1.369 . S
C1216 C1220 1.531 . S
C1217 C1216 1.369 . S
C1217 C1218 1.410 . S
C1217 C1225 1.503 . S
C1218 C1217 1.410 . S
C1218 C1219 1.392 . S
C1218 C1221 1.511 . S
C1219 C1215 1.376 . S
C1219 C1218 1.392 . S
C1219 H1231 0.929 . S
C1220 C1216 1.531 . S
C1220 H1232 0.960 . S
C1220 H1233 0.962 . S
C1220 H1234 0.960 . S
C1221 C1218 1.511 . S
C1221 H1235 0.961 . S
C1221 H1236 0.961 . S
C1221 H1237 0.961 . S
C1222 C1223 1.370 . S
C1222 C1224 1.363 . S
C1222 H1238 0.931 . S
C1223 C1222 1.370 . S
C1223 C1227 1.408 . S
C1224 C1222 1.363 . S
C1224 C1225 1.370 . S
C1224 C1228 1.524 . S
C1225 C1217 1.503 . S
C1225 C1224 1.370 . S
C1225 C1226 1.403 . S
C1226 C1225 1.403 . S
C1226 C1227 1.404 . S
C1226 C1229 1.539 . S
C1227 C1223 1.408 . S
C1227 C1226 1.404 . S
C1227 H1239 0.930 . S
C1228 C1224 1.524 . S
C1228 H1240 0.956 . S
C1228 H1241 0.961 . S
C1228 H1242 0.961 . S
C1229 C1226 1.539 . S
C1229 H1243 0.958 . S
C1229 H1244 0.961 . S
C1229 H1245 0.960 . S
H1230 C1214 0.931 . S
H1231 C1219 0.929 . S
H1232 C1220 0.960 . S
H1233 C1220 0.962 . S
H1234 C1220 0.960 . S
H1235 C1221 0.961 . S
H1236 C1221 0.961 . S
H1237 C1221 0.961 . S
H1238 C1222 0.931 . S
H1239 C1227 0.930 . S
H1240 C1228 0.956 . S
H1241 C1228 0.961 . S
H1242 C1228 0.961 . S
H1243 C1229 0.958 . S
H1244 C1229 0.961 . S
H1245 C1229 0.960 . S
C1246 C1247 1.391 . S
C1246 C1248 1.394 . S
C1246 H1262 0.931 . S
C1247 C1246 1.391 . S
C1247 C1251 1.376 . S
C1248 C1246 1.394 . S
C1248 C1249 1.369 . S
C1248 C1252 1.531 . S
C1249 C1248 1.369 . S
C1249 C1250 1.410 . S
C1249 C1257 1.503 . S
C1250 C1249 1.410 . S
C1250 C1251 1.392 . S
C1250 C1253 1.511 . S
C1251 C1247 1.376 . S
C1251 C1250 1.392 . S
C1251 H1263 0.929 . S
C1252 C1248 1.531 . S
C1252 H1264 0.960 . S
C1252 H1265 0.962 . S
C1252 H1266 0.960 . S
C1253 C1250 1.511 . S
C1253 H1267 0.961 . S
C1253 H1268 0.961 . S
C1253 H1269 0.961 . S
C1254 C1255 1.370 . S
C1254 C1256 1.363 . S
C1254 H1270 0.931 . S
C1255 C1254 1.370 . S
C1255 C1259 1.408 . S
C1256 C1254 1.363 . S
C1256 C1257 1.370 . S
C1256 C1260 1.524 . S
C1257 C1249 1.503 . S
C1257 C1256 1.370 . S
C1257 C1258 1.403 . S
C1258 C1257 1.403 . S
C1258 C1259 1.404 . S
C1258 C1261 1.539 . S
C1259 C1255 1.408 . S
C1259 C1258 1.404 . S
C1259 H1271 0.930 . S
C1260 C1256 1.524 . S
C1260 H1272 0.956 . S
C1260 H1273 0.961 . S
C1260 H1274 0.961 . S
C1261 C1258 1.539 . S
C1261 H1275 0.958 . S
C1261 H1276 0.961 . S
C1261 H1277 0.960 . S
H1262 C1246 0.931 . S
H1263 C1251 0.929 . S
H1264 C1252 0.960 . S
H1265 C1252 0.962 . S
H1266 C1252 0.960 . S
H1267 C1253 0.961 . S
H1268 C1253 0.961 . S
H1269 C1253 0.961 . S
H1270 C1254 0.931 . S
H1271 C1259 0.930 . S
H1272 C1260 0.956 . S
H1273 C1260 0.961 . S
H1274 C1260 0.961 . S
H1275 C1261 0.958 . S
H1276 C1261 0.961 . S
H1277 C1261 0.960 . S
C1278 C1279 1.391 . S
C1278 C1280 1.394 . S
C1278 H1294 0.931 . S
C1279 C1278 1.391 . S
C1279 C1283 1.376 . S
C1280 C1278 1.394 . S
C1280 C1281 1.369 . S
C1280 C1284 1.531 . S
C1281 C1280 1.369 . S
C1281 C1282 1.410 . S
C1281 C1289 1.503 . S
C1282 C1281 1.410 . S
C1282 C1283 1.392 . S
C1282 C1285 1.511 . S
C1283 C1279 1.376 . S
C1283 C1282 1.392 . S
C1283 H1295 0.929 . S
C1284 C1280 1.531 . S
C1284 H1296 0.960 . S
C1284 H1297 0.962 . S
C1284 H1298 0.960 . S
C1285 C1282 1.511 . S
C1285 H1299 0.961 . S
C1285 H1300 0.961 . S
C1285 H1301 0.961 . S
C1286 C1287 1.370 . S
C1286 C1288 1.363 . S
C1286 H1302 0.931 . S
C1287 C1286 1.370 . S
C1287 C1291 1.408 . S
C1288 C1286 1.363 . S
C1288 C1289 1.370 . S
C1288 C1292 1.524 . S
C1289 C1281 1.503 . S
C1289 C1288 1.370 . S
C1289 C1290 1.403 . S
C1290 C1289 1.403 . S
C1290 C1291 1.404 . S
C1290 C1293 1.539 . S
C1291 C1287 1.408 . S
C1291 C1290 1.404 . S
C1291 H1303 0.930 . S
C1292 C1288 1.524 . S
C1292 H1304 0.956 . S
C1292 H1305 0.961 . S
C1292 H1306 0.961 . S
C1293 C1290 1.539 . S
C1293 H1307 0.958 . S
C1293 H1308 0.961 . S
C1293 H1309 0.960 . S
H1294 C1278 0.931 . S
H1295 C1283 0.929 . S
H1296 C1284 0.960 . S
H1297 C1284 0.962 . S
H1298 C1284 0.960 . S
H1299 C1285 0.961 . S
H1300 C1285 0.961 . S
H1301 C1285 0.961 . S
H1302 C1286 0.931 . S
H1303 C1291 0.930 . S
H1304 C1292 0.956 . S
H1305 C1292 0.961 . S
H1306 C1292 0.961 . S
H1307 C1293 0.958 . S
H1308 C1293 0.961 . S
H1309 C1293 0.960 . S
C1310 C1311 1.391 . S
C1310 C1312 1.394 . S
C1310 H1326 0.931 . S
C1311 C1310 1.391 . S
C1311 C1315 1.376 . S
C1312 C1310 1.394 . S
C1312 C1313 1.369 . S
C1312 C1316 1.531 . S
C1313 C1312 1.369 . S
C1313 C1314 1.410 . S
C1313 C1321 1.503 . S
C1314 C1313 1.410 . S
C1314 C1315 1.392 . S
C1314 C1317 1.511 . S
C1315 C1311 1.376 . S
C1315 C1314 1.392 . S
C1315 H1327 0.929 . S
C1316 C1312 1.531 . S
C1316 H1328 0.960 . S
C1316 H1329 0.962 . S
C1316 H1330 0.960 . S
C1317 C1314 1.511 . S
C1317 H1331 0.961 . S
C1317 H1332 0.961 . S
C1317 H1333 0.961 . S
C1318 C1319 1.370 . S
C1318 C1320 1.363 . S
C1318 H1334 0.931 . S
C1319 C1318 1.370 . S
C1319 C1323 1.408 . S
C1320 C1318 1.363 . S
C1320 C1321 1.370 . S
C1320 C1324 1.524 . S
C1321 C1313 1.503 . S
C1321 C1320 1.370 . S
C1321 C1322 1.403 . S
C1322 C1321 1.403 . S
C1322 C1323 1.404 . S
C1322 C1325 1.539 . S
C1323 C1319 1.408 . S
C1323 C1322 1.404 . S
C1323 H1335 0.930 . S
C1324 C1320 1.524 . S
C1324 H1336 0.956 . S
C1324 H1337 0.961 . S
C1324 H1338 0.961 . S
C1325 C1322 1.539 . S
C1325 H1339 0.958 . S
C1325 H1340 0.961 . S
C1325 H1341 0.960 . S
H1326 C1310 0.931 . S
H1327 C1315 0.929 . S
H1328 C1316 0.960 . S
H1329 C1316 0.962 . S
H1330 C1316 0.960 . S
H1331 C1317 0.961 . S
H1332 C1317 0.961 . S
H1333 C1317 0.961 . S
H1334 C1318 0.931 . S
H1335 C1323 0.930 . S
H1336 C1324 0.956 . S
H1337 C1324 0.961 . S
H1338 C1324 0.961 . S
H1339 C1325 0.958 . S
H1340 C1325 0.961 . S
H1341 C1325 0.960 . S
C1342 C1343 1.391 . S
C1342 C1344 1.394 . S
C1342 H1358 0.931 . S
C1343 C1342 1.391 . S
C1343 C1347 1.376 . S
C1344 C1342 1.394 . S
C1344 C1345 1.369 . S
C1344 C1348 1.531 . S
C1345 C1344 1.369 . S
C1345 C1346 1.410 . S
C1345 C1353 1.503 . S
C1346 C1345 1.410 . S
C1346 C1347 1.392 . S
C1346 C1349 1.511 . S
C1347 C1343 1.376 . S
C1347 C1346 1.392 . S
C1347 H1359 0.929 . S
C1348 C1344 1.531 . S
C1348 H1360 0.960 . S
C1348 H1361 0.962 . S
C1348 H1362 0.960 . S
C1349 C1346 1.511 . S
C1349 H1363 0.961 . S
C1349 H1364 0.961 . S
C1349 H1365 0.961 . S
C1350 C1351 1.370 . S
C1350 C1352 1.363 . S
C1350 H1366 0.931 . S
C1351 C1350 1.370 . S
C1351 C1355 1.408 . S
C1352 C1350 1.363 . S
C1352 C1353 1.370 . S
C1352 C1356 1.524 . S
C1353 C1345 1.503 . S
C1353 C1352 1.370 . S
C1353 C1354 1.403 . S
C1354 C1353 1.403 . S
C1354 C1355 1.404 . S
C1354 C1357 1.539 . S
C1355 C1351 1.408 . S
C1355 C1354 1.404 . S
C1355 H1367 0.930 . S
C1356 C1352 1.524 . S
C1356 H1368 0.956 . S
C1356 H1369 0.961 . S
C1356 H1370 0.961 . S
C1357 C1354 1.539 . S
C1357 H1371 0.958 . S
C1357 H1372 0.961 . S
C1357 H1373 0.960 . S
H1358 C1342 0.931 . S
H1359 C1347 0.929 . S
H1360 C1348 0.960 . S
H1361 C1348 0.962 . S
H1362 C1348 0.960 . S
H1363 C1349 0.961 . S
H1364 C1349 0.961 . S
H1365 C1349 0.961 . S
H1366 C1350 0.931 . S
H1367 C1355 0.930 . S
H1368 C1356 0.956 . S
H1369 C1356 0.961 . S
H1370 C1356 0.961 . S
H1371 C1357 0.958 . S
H1372 C1357 0.961 . S
H1373 C1357 0.960 . S
C1374 C1375 1.391 1_565 S
C1374 C1376 1.394 . S
C1374 H1390 0.931 1_565 S
C1375 C1374 1.391 1_545 S
C1375 C1379 1.376 1_545 S
C1376 C1374 1.394 . S
C1376 C1377 1.369 . S
C1376 C1380 1.531 . S
C1377 C1376 1.369 . S
C1377 C1378 1.410 . S
C1377 C1385 1.503 . S
C1378 C1377 1.410 . S
C1378 C1379 1.392 . S
C1378 C1381 1.511 . S
C1379 C1375 1.376 1_565 S
C1379 C1378 1.392 . S
C1379 H1391 0.929 1_565 S
C1380 C1376 1.531 . S
C1380 H1392 0.960 . S
C1380 H1393 0.962 . S
C1380 H1394 0.960 . S
C1381 C1378 1.511 . S
C1381 H1395 0.961 . S
C1381 H1396 0.961 . S
C1381 H1397 0.961 . S
C1382 C1383 1.370 . S
C1382 C1384 1.363 . S
C1382 H1398 0.931 . S
C1383 C1382 1.370 . S
C1383 C1387 1.408 . S
C1384 C1382 1.363 . S
C1384 C1385 1.370 . S
C1384 C1388 1.524 . S
C1385 C1377 1.503 . S
C1385 C1384 1.370 . S
C1385 C1386 1.403 . S
C1386 C1385 1.403 . S
C1386 C1387 1.404 . S
C1386 C1389 1.539 . S
C1387 C1383 1.408 . S
C1387 C1386 1.404 . S
C1387 H1399 0.930 . S
C1388 C1384 1.524 . S
C1388 H1400 0.956 . S
C1388 H1401 0.961 . S
C1388 H1402 0.961 . S
C1389 C1386 1.539 . S
C1389 H1403 0.958 . S
C1389 H1404 0.961 . S
C1389 H1405 0.960 . S
H1390 C1374 0.931 1_545 S
H1391 C1379 0.929 1_545 S
H1392 C1380 0.960 . S
H1393 C1380 0.962 . S
H1394 C1380 0.960 . S
H1395 C1381 0.961 . S
H1396 C1381 0.961 . S
H1397 C1381 0.961 . S
H1398 C1382 0.931 . S
H1399 C1387 0.930 . S
H1400 C1388 0.956 . S
H1401 C1388 0.961 . S
H1402 C1388 0.961 . S
H1403 C1389 0.958 . S
H1404 C1389 0.961 . S
H1405 C1389 0.960 . S
C1406 C1407 1.391 . S
C1406 C1408 1.394 . S
C1406 H1422 0.931 . S
C1407 C1406 1.391 . S
C1407 C1411 1.376 . S
C1408 C1406 1.394 . S
C1408 C1409 1.369 . S
C1408 C1412 1.531 . S
C1409 C1408 1.369 . S
C1409 C1410 1.410 . S
C1409 C1417 1.503 . S
C1410 C1409 1.410 . S
C1410 C1411 1.392 . S
C1410 C1413 1.511 . S
C1411 C1407 1.376 . S
C1411 C1410 1.392 . S
C1411 H1423 0.929 . S
C1412 C1408 1.531 . S
C1412 H1424 0.960 . S
C1412 H1425 0.962 . S
C1412 H1426 0.960 . S
C1413 C1410 1.511 . S
C1413 H1427 0.961 . S
C1413 H1428 0.961 . S
C1413 H1429 0.961 . S
C1414 C1415 1.370 . S
C1414 C1416 1.363 . S
C1414 H1430 0.931 . S
C1415 C1414 1.370 . S
C1415 C1419 1.408 . S
C1416 C1414 1.363 . S
C1416 C1417 1.370 . S
C1416 C1420 1.524 . S
C1417 C1409 1.503 . S
C1417 C1416 1.370 . S
C1417 C1418 1.403 . S
C1418 C1417 1.403 . S
C1418 C1419 1.404 . S
C1418 C1421 1.539 . S
C1419 C1415 1.408 . S
C1419 C1418 1.404 . S
C1419 H1431 0.930 . S
C1420 C1416 1.524 . S
C1420 H1432 0.956 . S
C1420 H1433 0.961 . S
C1420 H1434 0.961 . S
C1421 C1418 1.539 . S
C1421 H1435 0.958 . S
C1421 H1436 0.961 . S
C1421 H1437 0.960 . S
H1422 C1406 0.931 . S
H1423 C1411 0.929 . S
H1424 C1412 0.960 . S
H1425 C1412 0.962 . S
H1426 C1412 0.960 . S
H1427 C1413 0.961 . S
H1428 C1413 0.961 . S
H1429 C1413 0.961 . S
H1430 C1414 0.931 . S
H1431 C1419 0.930 . S
H1432 C1420 0.956 . S
H1433 C1420 0.961 . S
H1434 C1420 0.961 . S
H1435 C1421 0.958 . S
H1436 C1421 0.961 . S
H1437 C1421 0.960 . S
C1438 C1439 1.391 . S
C1438 C1440 1.394 . S
C1438 H1454 0.931 . S
C1439 C1438 1.391 . S
C1439 C1443 1.376 . S
C1440 C1438 1.394 . S
C1440 C1441 1.369 . S
C1440 C1444 1.531 . S
C1441 C1440 1.369 . S
C1441 C1442 1.410 . S
C1441 C1449 1.503 . S
C1442 C1441 1.410 . S
C1442 C1443 1.392 . S
C1442 C1445 1.511 . S
C1443 C1439 1.376 . S
C1443 C1442 1.392 . S
C1443 H1455 0.929 . S
C1444 C1440 1.531 . S
C1444 H1456 0.960 . S
C1444 H1457 0.962 . S
C1444 H1458 0.960 . S
C1445 C1442 1.511 . S
C1445 H1459 0.961 . S
C1445 H1460 0.961 . S
C1445 H1461 0.961 . S
C1446 C1447 1.370 . S
C1446 C1448 1.363 . S
C1446 H1462 0.931 . S
C1447 C1446 1.370 . S
C1447 C1451 1.408 . S
C1448 C1446 1.363 . S
C1448 C1449 1.370 . S
C1448 C1452 1.524 . S
C1449 C1441 1.503 . S
C1449 C1448 1.370 . S
C1449 C1450 1.403 . S
C1450 C1449 1.403 . S
C1450 C1451 1.404 . S
C1450 C1453 1.539 . S
C1451 C1447 1.408 . S
C1451 C1450 1.404 . S
C1451 H1463 0.930 . S
C1452 C1448 1.524 . S
C1452 H1464 0.956 . S
C1452 H1465 0.961 . S
C1452 H1466 0.961 . S
C1453 C1450 1.539 . S
C1453 H1467 0.958 . S
C1453 H1468 0.961 . S
C1453 H1469 0.960 . S
H1454 C1438 0.931 . S
H1455 C1443 0.929 . S
H1456 C1444 0.960 . S
H1457 C1444 0.962 . S
H1458 C1444 0.960 . S
H1459 C1445 0.961 . S
H1460 C1445 0.961 . S
H1461 C1445 0.961 . S
H1462 C1446 0.931 . S
H1463 C1451 0.930 . S
H1464 C1452 0.956 . S
H1465 C1452 0.961 . S
H1466 C1452 0.961 . S
H1467 C1453 0.958 . S
H1468 C1453 0.961 . S
H1469 C1453 0.960 . S
C1470 C1471 1.391 . S
C1470 C1472 1.394 . S
C1470 H1486 0.931 . S
C1471 C1470 1.391 . S
C1471 C1475 1.376 . S
C1472 C1470 1.394 . S
C1472 C1473 1.369 . S
C1472 C1476 1.531 . S
C1473 C1472 1.369 . S
C1473 C1474 1.410 . S
C1473 C1481 1.503 . S
C1474 C1473 1.410 . S
C1474 C1475 1.392 . S
C1474 C1477 1.511 . S
C1475 C1471 1.376 . S
C1475 C1474 1.392 . S
C1475 H1487 0.929 . S
C1476 C1472 1.531 . S
C1476 H1488 0.960 . S
C1476 H1489 0.962 . S
C1476 H1490 0.960 . S
C1477 C1474 1.511 . S
C1477 H1491 0.961 . S
C1477 H1492 0.961 . S
C1477 H1493 0.961 . S
C1478 C1479 1.370 . S
C1478 C1480 1.363 . S
C1478 H1494 0.931 . S
C1479 C1478 1.370 . S
C1479 C1483 1.408 . S
C1480 C1478 1.363 . S
C1480 C1481 1.370 . S
C1480 C1484 1.524 . S
C1481 C1473 1.503 . S
C1481 C1480 1.370 . S
C1481 C1482 1.403 . S
C1482 C1481 1.403 . S
C1482 C1483 1.404 . S
C1482 C1485 1.539 . S
C1483 C1479 1.408 . S
C1483 C1482 1.404 . S
C1483 H1495 0.930 . S
C1484 C1480 1.524 . S
C1484 H1496 0.956 . S
C1484 H1497 0.961 . S
C1484 H1498 0.961 . S
C1485 C1482 1.539 . S
C1485 H1499 0.958 . S
C1485 H1500 0.961 . S
C1485 H1501 0.960 . S
H1486 C1470 0.931 . S
H1487 C1475 0.929 . S
H1488 C1476 0.960 . S
H1489 C1476 0.962 . S
H1490 C1476 0.960 . S
H1491 C1477 0.961 . S
H1492 C1477 0.961 . S
H1493 C1477 0.961 . S
H1494 C1478 0.931 . S
H1495 C1483 0.930 . S
H1496 C1484 0.956 . S
H1497 C1484 0.961 . S
H1498 C1484 0.961 . S
H1499 C1485 0.958 . S
H1500 C1485 0.961 . S
H1501 C1485 0.960 . S
C1502 C1503 1.391 . S
C1502 C1504 1.394 . S
C1502 H1518 0.931 . S
C1503 C1502 1.391 . S
C1503 C1507 1.376 . S
C1504 C1502 1.394 . S
C1504 C1505 1.369 . S
C1504 C1508 1.531 . S
C1505 C1504 1.369 . S
C1505 C1506 1.410 . S
C1505 C1513 1.503 . S
C1506 C1505 1.410 . S
C1506 C1507 1.392 . S
C1506 C1509 1.511 . S
C1507 C1503 1.376 . S
C1507 C1506 1.392 . S
C1507 H1519 0.929 . S
C1508 C1504 1.531 . S
C1508 H1520 0.960 . S
C1508 H1521 0.962 . S
C1508 H1522 0.960 . S
C1509 C1506 1.511 . S
C1509 H1523 0.961 . S
C1509 H1524 0.961 . S
C1509 H1525 0.961 . S
C1510 C1511 1.370 . S
C1510 C1512 1.363 . S
C1510 H1526 0.931 . S
C1511 C1510 1.370 . S
C1511 C1515 1.408 . S
C1512 C1510 1.363 . S
C1512 C1513 1.370 . S
C1512 C1516 1.524 . S
C1513 C1505 1.503 . S
C1513 C1512 1.370 . S
C1513 C1514 1.403 . S
C1514 C1513 1.403 . S
C1514 C1515 1.404 . S
C1514 C1517 1.539 . S
C1515 C1511 1.408 . S
C1515 C1514 1.404 . S
C1515 H1527 0.930 . S
C1516 C1512 1.524 . S
C1516 H1528 0.956 . S
C1516 H1529 0.961 . S
C1516 H1530 0.961 . S
C1517 C1514 1.539 . S
C1517 H1531 0.958 . S
C1517 H1532 0.961 . S
C1517 H1533 0.960 . S
H1518 C1502 0.931 . S
H1519 C1507 0.929 . S
H1520 C1508 0.960 . S
H1521 C1508 0.962 . S
H1522 C1508 0.960 . S
H1523 C1509 0.961 . S
H1524 C1509 0.961 . S
H1525 C1509 0.961 . S
H1526 C1510 0.931 . S
H1527 C1515 0.930 . S
H1528 C1516 0.956 . S
H1529 C1516 0.961 . S
H1530 C1516 0.961 . S
H1531 C1517 0.958 . S
H1532 C1517 0.961 . S
H1533 C1517 0.960 . S
C1534 C1535 1.391 . S
C1534 C1536 1.394 . S
C1534 H1550 0.931 . S
C1535 C1534 1.391 . S
C1535 C1539 1.376 . S
C1536 C1534 1.394 . S
C1536 C1537 1.369 . S
C1536 C1540 1.531 . S
C1537 C1536 1.369 . S
C1537 C1538 1.410 . S
C1537 C1545 1.503 . S
C1538 C1537 1.410 . S
C1538 C1539 1.392 . S
C1538 C1541 1.511 . S
C1539 C1535 1.376 . S
C1539 C1538 1.392 . S
C1539 H1551 0.929 . S
C1540 C1536 1.531 . S
C1540 H1552 0.960 . S
C1540 H1553 0.962 . S
C1540 H1554 0.960 . S
C1541 C1538 1.511 . S
C1541 H1555 0.961 . S
C1541 H1556 0.961 . S
C1541 H1557 0.961 . S
C1542 C1543 1.370 . S
C1542 C1544 1.363 . S
C1542 H1558 0.931 . S
C1543 C1542 1.370 . S
C1543 C1547 1.408 . S
C1544 C1542 1.363 . S
C1544 C1545 1.370 . S
C1544 C1548 1.524 . S
C1545 C1537 1.503 . S
C1545 C1544 1.370 . S
C1545 C1546 1.403 . S
C1546 C1545 1.403 . S
C1546 C1547 1.404 . S
C1546 C1549 1.539 . S
C1547 C1543 1.408 . S
C1547 C1546 1.404 . S
C1547 H1559 0.930 . S
C1548 C1544 1.524 . S
C1548 H1560 0.956 . S
C1548 H1561 0.961 . S
C1548 H1562 0.961 . S
C1549 C1546 1.539 . S
C1549 H1563 0.958 . S
C1549 H1564 0.961 . S
C1549 H1565 0.960 . S
H1550 C1534 0.931 . S
H1551 C1539 0.929 . S
H1552 C1540 0.960 . S
H1553 C1540 0.962 . S
H1554 C1540 0.960 . S
H1555 C1541 0.961 . S
H1556 C1541 0.961 . S
H1557 C1541 0.961 . S
H1558 C1542 0.931 . S
H1559 C1547 0.930 . S
H1560 C1548 0.956 . S
H1561 C1548 0.961 . S
H1562 C1548 0.961 . S
H1563 C1549 0.958 . S
H1564 C1549 0.961 . S
H1565 C1549 0.960 . S
C1566 C1567 1.391 . S
C1566 C1568 1.394 . S
C1566 H1582 0.931 . S
C1567 C1566 1.391 . S
C1567 C1571 1.376 . S
C1568 C1566 1.394 . S
C1568 C1569 1.369 . S
C1568 C1572 1.531 . S
C1569 C1568 1.369 . S
C1569 C1570 1.410 . S
C1569 C1577 1.503 1_565 S
C1570 C1569 1.410 . S
C1570 C1571 1.392 . S
C1570 C1573 1.511 . S
C1571 C1567 1.376 . S
C1571 C1570 1.392 . S
C1571 H1583 0.929 . S
C1572 C1568 1.531 . S
C1572 H1584 0.960 . S
C1572 H1585 0.962 . S
C1572 H1586 0.960 . S
C1573 C1570 1.511 . S
C1573 H1587 0.961 . S
C1573 H1588 0.961 1_565 S
C1573 H1589 0.961 . S
C1574 C1575 1.370 . S
C1574 C1576 1.363 . S
C1574 H1590 0.931 . S
C1575 C1574 1.370 . S
C1575 C1579 1.408 . S
C1576 C1574 1.363 . S
C1576 C1577 1.370 . S
C1576 C1580 1.524 . S
C1577 C1569 1.503 1_545 S
C1577 C1576 1.370 . S
C1577 C1578 1.403 . S
C1578 C1577 1.403 . S
C1578 C1579 1.404 . S
C1578 C1581 1.539 . S
C1579 C1575 1.408 . S
C1579 C1578 1.404 . S
C1579 H1591 0.930 . S
C1580 C1576 1.524 . S
C1580 H1592 0.956 1_545 S
C1580 H1593 0.961 1_545 S
C1580 H1594 0.961 . S
C1581 C1578 1.539 . S
C1581 H1595 0.958 1_545 S
C1581 H1596 0.961 . S
C1581 H1597 0.960 1_545 S
H1582 C1566 0.931 . S
H1583 C1571 0.929 . S
H1584 C1572 0.960 . S
H1585 C1572 0.962 . S
H1586 C1572 0.960 . S
H1587 C1573 0.961 . S
H1588 C1573 0.961 1_545 S
H1589 C1573 0.961 . S
H1590 C1574 0.931 . S
H1591 C1579 0.930 . S
H1592 C1580 0.956 1_565 S
H1593 C1580 0.961 1_565 S
H1594 C1580 0.961 . S
H1595 C1581 0.958 1_565 S
H1596 C1581 0.961 . S
H1597 C1581 0.960 1_565 S
C1598 C1599 1.391 . S
C1598 C1600 1.394 . S
C1598 H1614 0.931 . S
C1599 C1598 1.391 . S
C1599 C1603 1.376 . S
C1600 C1598 1.394 . S
C1600 C1601 1.369 . S
C1600 C1604 1.531 . S
C1601 C1600 1.369 . S
C1601 C1602 1.410 . S
C1601 C1609 1.503 1_455 S
C1602 C1601 1.410 . S
C1602 C1603 1.392 . S
C1602 C1605 1.511 1_455 S
C1603 C1599 1.376 . S
C1603 C1602 1.392 . S
C1603 H1615 0.929 . S
C1604 C1600 1.531 . S
C1604 H1616 0.960 . S
C1604 H1617 0.962 . S
C1604 H1618 0.960 . S
C1605 C1602 1.511 1_655 S
C1605 H1619 0.961 . S
C1605 H1620 0.961 . S
C1605 H1621 0.961 . S
C1606 C1607 1.370 . S
C1606 C1608 1.363 . S
C1606 H1622 0.931 . S
C1607 C1606 1.370 . S
C1607 C1611 1.408 . S
C1608 C1606 1.363 . S
C1608 C1609 1.370 . S
C1608 C1612 1.524 1_655 S
C1609 C1601 1.503 1_655 S
C1609 C1608 1.370 . S
C1609 C1610 1.403 . S
C1610 C1609 1.403 . S
C1610 C1611 1.404 . S
C1610 C1613 1.539 . S
C1611 C1607 1.408 . S
C1611 C1610 1.404 . S
C1611 H1623 0.930 . S
C1612 C1608 1.524 1_455 S
C1612 H1624 0.956 . S
C1612 H1625 0.961 . S
C1612 H1626 0.961 1_455 S
C1613 C1610 1.539 . S
C1613 H1627 0.958 . S
C1613 H1628 0.961 . S
C1613 H1629 0.960 . S
H1614 C1598 0.931 . S
H1615 C1603 0.929 . S
H1616 C1604 0.960 . S
H1617 C1604 0.962 . S
H1618 C1604 0.960 . S
H1619 C1605 0.961 . S
H1620 C1605 0.961 . S
H1621 C1605 0.961 . S
H1622 C1606 0.931 . S
H1623 C1611 0.930 . S
H1624 C1612 0.956 . S
H1625 C1612 0.961 . S
H1626 C1612 0.961 1_655 S
H1627 C1613 0.958 . S
H1628 C1613 0.961 . S
H1629 C1613 0.960 . S
C1630 C1631 1.391 . S
C1630 C1632 1.394 . S
C1630 H1646 0.931 . S
C1631 C1630 1.391 . S
C1631 C1635 1.376 . S
C1632 C1630 1.394 . S
C1632 C1633 1.369 . S
C1632 C1636 1.531 . S
C1633 C1632 1.369 . S
C1633 C1634 1.410 . S
C1633 C1641 1.503 . S
C1634 C1633 1.410 . S
C1634 C1635 1.392 . S
C1634 C1637 1.511 . S
C1635 C1631 1.376 . S
C1635 C1634 1.392 . S
C1635 H1647 0.929 . S
C1636 C1632 1.531 . S
C1636 H1648 0.960 . S
C1636 H1649 0.962 . S
C1636 H1650 0.960 . S
C1637 C1634 1.511 . S
C1637 H1651 0.961 . S
C1637 H1652 0.961 . S
C1637 H1653 0.961 . S
C1638 C1639 1.370 . S
C1638 C1640 1.363 . S
C1638 H1654 0.931 . S
C1639 C1638 1.370 . S
C1639 C1643 1.408 . S
C1640 C1638 1.363 . S
C1640 C1641 1.370 . S
C1640 C1644 1.524 . S
C1641 C1633 1.503 . S
C1641 C1640 1.370 . S
C1641 C1642 1.403 . S
C1642 C1641 1.403 . S
C1642 C1643 1.404 . S
C1642 C1645 1.539 . S
C1643 C1639 1.408 . S
C1643 C1642 1.404 . S
C1643 H1655 0.930 . S
C1644 C1640 1.524 . S
C1644 H1656 0.956 . S
C1644 H1657 0.961 . S
C1644 H1658 0.961 . S
C1645 C1642 1.539 . S
C1645 H1659 0.958 . S
C1645 H1660 0.961 . S
C1645 H1661 0.960 . S
H1646 C1630 0.931 . S
H1647 C1635 0.929 . S
H1648 C1636 0.960 . S
H1649 C1636 0.962 . S
H1650 C1636 0.960 . S
H1651 C1637 0.961 . S
H1652 C1637 0.961 . S
H1653 C1637 0.961 . S
H1654 C1638 0.931 . S
H1655 C1643 0.930 . S
H1656 C1644 0.956 . S
H1657 C1644 0.961 . S
H1658 C1644 0.961 . S
H1659 C1645 0.958 . S
H1660 C1645 0.961 . S
H1661 C1645 0.960 . S
C1662 C1663 1.391 1_655 S
C1662 C1664 1.394 . S
C1662 H1678 0.931 . S
C1663 C1662 1.391 1_455 S
C1663 C1667 1.376 . S
C1664 C1662 1.394 . S
C1664 C1665 1.369 . S
C1664 C1668 1.531 . S
C1665 C1664 1.369 . S
C1665 C1666 1.410 . S
C1665 C1673 1.503 . S
C1666 C1665 1.410 . S
C1666 C1667 1.392 1_655 S
C1666 C1669 1.511 . S
C1667 C1663 1.376 . S
C1667 C1666 1.392 1_455 S
C1667 H1679 0.929 . S
C1668 C1664 1.531 . S
C1668 H1680 0.960 . S
C1668 H1681 0.962 . S
C1668 H1682 0.960 . S
C1669 C1666 1.511 . S
C1669 H1683 0.961 . S
C1669 H1684 0.961 . S
C1669 H1685 0.961 . S
C1670 C1671 1.370 . S
C1670 C1672 1.363 . S
C1670 H1686 0.931 . S
C1671 C1670 1.370 . S
C1671 C1675 1.408 . S
C1672 C1670 1.363 . S
C1672 C1673 1.370 . S
C1672 C1676 1.524 . S
C1673 C1665 1.503 . S
C1673 C1672 1.370 . S
C1673 C1674 1.403 . S
C1674 C1673 1.403 . S
C1674 C1675 1.404 . S
C1674 C1677 1.539 . S
C1675 C1671 1.408 . S
C1675 C1674 1.404 . S
C1675 H1687 0.930 . S
C1676 C1672 1.524 . S
C1676 H1688 0.956 . S
C1676 H1689 0.961 . S
C1676 H1690 0.961 . S
C1677 C1674 1.539 . S
C1677 H1691 0.958 . S
C1677 H1692 0.961 . S
C1677 H1693 0.960 . S
H1678 C1662 0.931 . S
H1679 C1667 0.929 . S
H1680 C1668 0.960 . S
H1681 C1668 0.962 . S
H1682 C1668 0.960 . S
H1683 C1669 0.961 . S
H1684 C1669 0.961 . S
H1685 C1669 0.961 . S
H1686 C1670 0.931 . S
H1687 C1675 0.930 . S
H1688 C1676 0.956 . S
H1689 C1676 0.961 . S
H1690 C1676 0.961 . S
H1691 C1677 0.958 . S
H1692 C1677 0.961 . S
H1693 C1677 0.960 . S
C1694 C1695 1.391 . S
C1694 C1696 1.394 . S
C1694 H1710 0.931 . S
C1695 C1694 1.391 . S
C1695 C1699 1.376 . S
C1696 C1694 1.394 . S
C1696 C1697 1.369 . S
C1696 C1700 1.531 . S
C1697 C1696 1.369 . S
C1697 C1698 1.410 . S
C1697 C1705 1.503 . S
C1698 C1697 1.410 . S
C1698 C1699 1.392 . S
C1698 C1701 1.511 . S
C1699 C1695 1.376 . S
C1699 C1698 1.392 . S
C1699 H1711 0.929 . S
C1700 C1696 1.531 . S
C1700 H1712 0.960 . S
C1700 H1713 0.962 . S
C1700 H1714 0.960 . S
C1701 C1698 1.511 . S
C1701 H1715 0.961 . S
C1701 H1716 0.961 . S
C1701 H1717 0.961 . S
C1702 C1703 1.370 . S
C1702 C1704 1.363 . S
C1702 H1718 0.931 . S
C1703 C1702 1.370 . S
C1703 C1707 1.408 . S
C1704 C1702 1.363 . S
C1704 C1705 1.370 . S
C1704 C1708 1.524 . S
C1705 C1697 1.503 . S
C1705 C1704 1.370 . S
C1705 C1706 1.403 . S
C1706 C1705 1.403 . S
C1706 C1707 1.404 . S
C1706 C1709 1.539 . S
C1707 C1703 1.408 . S
C1707 C1706 1.404 . S
C1707 H1719 0.930 . S
C1708 C1704 1.524 . S
C1708 H1720 0.956 . S
C1708 H1721 0.961 . S
C1708 H1722 0.961 . S
C1709 C1706 1.539 . S
C1709 H1723 0.958 . S
C1709 H1724 0.961 . S
C1709 H1725 0.960 . S
H1710 C1694 0.931 . S
H1711 C1699 0.929 . S
H1712 C1700 0.960 . S
H1713 C1700 0.962 . S
H1714 C1700 0.960 . S
H1715 C1701 0.961 . S
H1716 C1701 0.961 . S
H1717 C1701 0.961 . S
H1718 C1702 0.931 . S
H1719 C1707 0.930 . S
H1720 C1708 0.956 . S
H1721 C1708 0.961 . S
H1722 C1708 0.961 . S
H1723 C1709 0.958 . S
H1724 C1709 0.961 . S
H1725 C1709 0.960 . S
C1726 C1727 1.391 1_545 S
C1726 C1728 1.394 . S
C1726 H1742 0.931 1_545 S
C1727 C1726 1.391 1_565 S
C1727 C1731 1.376 1_565 S
C1728 C1726 1.394 . S
C1728 C1729 1.369 . S
C1728 C1732 1.531 . S
C1729 C1728 1.369 . S
C1729 C1730 1.410 . S
C1729 C1737 1.503 . S
C1730 C1729 1.410 . S
C1730 C1731 1.392 . S
C1730 C1733 1.511 . S
C1731 C1727 1.376 1_545 S
C1731 C1730 1.392 . S
C1731 H1743 0.948 . S
C1732 C1728 1.531 . S
C1732 H1744 0.960 . S
C1732 H1745 0.962 . S
C1732 H1746 0.960 . S
C1733 C1730 1.511 . S
C1733 H1747 0.961 . S
C1733 H1748 0.961 . S
C1733 H1749 0.961 . S
C1734 C1735 1.370 . S
C1734 C1736 1.363 . S
C1734 H1750 0.931 . S
C1735 C1734 1.370 . S
C1735 C1739 1.408 . S
C1736 C1734 1.363 . S
C1736 C1737 1.370 . S
C1736 C1740 1.524 . S
C1737 C1729 1.503 . S
C1737 C1736 1.370 . S
C1737 C1738 1.403 . S
C1738 C1737 1.403 . S
C1738 C1739 1.404 . S
C1738 C1741 1.539 . S
C1739 C1735 1.408 . S
C1739 C1738 1.404 . S
C1739 H1751 0.930 . S
C1740 C1736 1.524 . S
C1740 H1752 0.956 . S
C1740 H1753 0.961 . S
C1740 H1754 0.961 . S
C1741 C1738 1.539 . S
C1741 H1755 0.958 . S
C1741 H1756 0.961 . S
C1741 H1757 0.960 . S
H1742 C1726 0.931 1_565 S
H1743 C1731 0.948 . S
H1744 C1732 0.960 . S
H1745 C1732 0.962 . S
H1746 C1732 0.960 . S
H1747 C1733 0.961 . S
H1748 C1733 0.961 . S
H1749 C1733 0.961 . S
H1750 C1734 0.931 . S
H1751 C1739 0.930 . S
H1752 C1740 0.956 . S
H1753 C1740 0.961 . S
H1754 C1740 0.961 . S
H1755 C1741 0.958 . S
H1756 C1741 0.961 . S
H1757 C1741 0.960 . S
C1758 C1759 1.391 . S
C1758 C1760 1.394 . S
C1758 H1774 0.931 . S
C1759 C1758 1.391 . S
C1759 C1763 1.376 . S
C1760 C1758 1.394 . S
C1760 C1761 1.369 . S
C1760 C1764 1.531 . S
C1761 C1760 1.369 . S
C1761 C1762 1.410 . S
C1761 C1769 1.503 . S
C1762 C1761 1.410 . S
C1762 C1763 1.392 . S
C1762 C1765 1.511 . S
C1763 C1759 1.376 . S
C1763 C1762 1.392 . S
C1763 H1775 0.929 . S
C1764 C1760 1.531 . S
C1764 H1776 0.960 . S
C1764 H1777 0.962 . S
C1764 H1778 0.960 . S
C1765 C1762 1.511 . S
C1765 H1779 0.961 . S
C1765 H1780 0.961 . S
C1765 H1781 0.961 . S
C1766 C1767 1.370 . S
C1766 C1768 1.363 . S
C1766 H1782 0.931 . S
C1767 C1766 1.370 . S
C1767 C1771 1.408 . S
C1768 C1766 1.363 . S
C1768 C1769 1.370 . S
C1768 C1772 1.524 . S
C1769 C1761 1.503 . S
C1769 C1768 1.370 . S
C1769 C1770 1.403 . S
C1770 C1769 1.403 . S
C1770 C1771 1.404 . S
C1770 C1773 1.539 . S
C1771 C1767 1.408 . S
C1771 C1770 1.404 . S
C1771 H1783 0.930 . S
C1772 C1768 1.524 . S
C1772 H1784 0.956 . S
C1772 H1785 0.961 . S
C1772 H1786 0.961 . S
C1773 C1770 1.539 . S
C1773 H1787 0.958 . S
C1773 H1788 0.961 . S
C1773 H1789 0.960 . S
H1774 C1758 0.931 . S
H1775 C1763 0.929 . S
H1776 C1764 0.960 . S
H1777 C1764 0.962 . S
H1778 C1764 0.960 . S
H1779 C1765 0.961 . S
H1780 C1765 0.961 . S
H1781 C1765 0.961 . S
H1782 C1766 0.931 . S
H1783 C1771 0.930 . S
H1784 C1772 0.956 . S
H1785 C1772 0.961 . S
H1786 C1772 0.961 . S
H1787 C1773 0.958 . S
H1788 C1773 0.961 . S
H1789 C1773 0.960 . S
C1790 C1791 1.391 . S
C1790 C1792 1.394 . S
C1790 H1806 0.931 . S
C1791 C1790 1.391 . S
C1791 C1795 1.376 . S
C1792 C1790 1.394 . S
C1792 C1793 1.369 . S
C1792 C1796 1.531 . S
C1793 C1792 1.369 . S
C1793 C1794 1.410 . S
C1793 C1801 1.503 . S
C1794 C1793 1.410 . S
C1794 C1795 1.392 . S
C1794 C1797 1.511 . S
C1795 C1791 1.376 . S
C1795 C1794 1.392 . S
C1795 H1807 0.929 . S
C1796 C1792 1.531 . S
C1796 H1808 0.960 . S
C1796 H1809 0.962 . S
C1796 H1810 0.960 . S
C1797 C1794 1.511 . S
C1797 H1811 0.961 . S
C1797 H1812 0.961 . S
C1797 H1813 0.961 . S
C1798 C1799 1.370 . S
C1798 C1800 1.363 . S
C1798 H1814 0.931 . S
C1799 C1798 1.370 . S
C1799 C1803 1.408 . S
C1800 C1798 1.363 . S
C1800 C1801 1.370 . S
C1800 C1804 1.524 . S
C1801 C1793 1.503 . S
C1801 C1800 1.370 . S
C1801 C1802 1.403 . S
C1802 C1801 1.403 . S
C1802 C1803 1.404 . S
C1802 C1805 1.539 . S
C1803 C1799 1.408 . S
C1803 C1802 1.404 . S
C1803 H1815 0.930 . S
C1804 C1800 1.524 . S
C1804 H1816 0.956 . S
C1804 H1817 0.961 . S
C1804 H1818 0.961 . S
C1805 C1802 1.539 . S
C1805 H1819 0.958 . S
C1805 H1820 0.961 . S
C1805 H1821 0.960 . S
H1806 C1790 0.931 . S
H1807 C1795 0.929 . S
H1808 C1796 0.960 . S
H1809 C1796 0.962 . S
H1810 C1796 0.960 . S
H1811 C1797 0.961 . S
H1812 C1797 0.961 . S
H1813 C1797 0.961 . S
H1814 C1798 0.931 . S
H1815 C1803 0.930 . S
H1816 C1804 0.956 . S
H1817 C1804 0.961 . S
H1818 C1804 0.961 . S
H1819 C1805 0.958 . S
H1820 C1805 0.961 . S
H1821 C1805 0.960 . S
C1822 C1823 1.391 . S
C1822 C1824 1.394 . S
C1822 H1838 0.931 . S
C1823 C1822 1.391 . S
C1823 C1827 1.376 . S
C1824 C1822 1.394 . S
C1824 C1825 1.369 . S
C1824 C1828 1.531 . S
C1825 C1824 1.369 . S
C1825 C1826 1.410 . S
C1825 C1833 1.503 . S
C1826 C1825 1.410 . S
C1826 C1827 1.392 . S
C1826 C1829 1.511 . S
C1827 C1823 1.376 . S
C1827 C1826 1.392 . S
C1827 H1839 0.929 . S
C1828 C1824 1.531 . S
C1828 H1840 0.960 . S
C1828 H1841 0.962 . S
C1828 H1842 0.960 . S
C1829 C1826 1.511 . S
C1829 H1843 0.961 . S
C1829 H1844 0.961 . S
C1829 H1845 0.961 . S
C1830 C1831 1.370 . S
C1830 C1832 1.363 . S
C1830 H1846 0.931 . S
C1831 C1830 1.370 . S
C1831 C1835 1.408 . S
C1832 C1830 1.363 . S
C1832 C1833 1.370 . S
C1832 C1836 1.524 . S
C1833 C1825 1.503 . S
C1833 C1832 1.370 . S
C1833 C1834 1.403 . S
C1834 C1833 1.403 . S
C1834 C1835 1.404 . S
C1834 C1837 1.539 . S
C1835 C1831 1.408 . S
C1835 C1834 1.404 . S
C1835 H1847 0.930 . S
C1836 C1832 1.524 . S
C1836 H1848 0.956 . S
C1836 H1849 0.961 . S
C1836 H1850 0.961 . S
C1837 C1834 1.539 . S
C1837 H1851 0.958 . S
C1837 H1852 0.961 . S
C1837 H1853 0.960 . S
H1838 C1822 0.931 . S
H1839 C1827 0.929 . S
H1840 C1828 0.960 . S
H1841 C1828 0.962 . S
H1842 C1828 0.960 . S
H1843 C1829 0.961 . S
H1844 C1829 0.961 . S
H1845 C1829 0.961 . S
H1846 C1830 0.931 . S
H1847 C1835 0.930 . S
H1848 C1836 0.956 . S
H1849 C1836 0.961 . S
H1850 C1836 0.961 . S
H1851 C1837 0.958 . S
H1852 C1837 0.961 . S
H1853 C1837 0.960 . S
C1854 C1855 1.391 . S
C1854 C1856 1.394 . S
C1854 H1870 0.931 . S
C1855 C1854 1.391 . S
C1855 C1859 1.376 . S
C1856 C1854 1.394 . S
C1856 C1857 1.369 . S
C1856 C1860 1.531 . S
C1857 C1856 1.369 . S
C1857 C1858 1.410 . S
C1857 C1865 1.503 . S
C1858 C1857 1.410 . S
C1858 C1859 1.392 . S
C1858 C1861 1.511 . S
C1859 C1855 1.376 . S
C1859 C1858 1.392 . S
C1859 H1871 0.929 . S
C1860 C1856 1.531 . S
C1860 H1872 0.960 . S
C1860 H1873 0.962 . S
C1860 H1874 0.960 . S
C1861 C1858 1.511 . S
C1861 H1875 0.961 . S
C1861 H1876 0.961 . S
C1861 H1877 0.961 . S
C1862 C1863 1.370 . S
C1862 C1864 1.363 . S
C1862 H1878 0.931 . S
C1863 C1862 1.370 . S
C1863 C1867 1.408 . S
C1864 C1862 1.363 . S
C1864 C1865 1.370 . S
C1864 C1868 1.524 . S
C1865 C1857 1.503 . S
C1865 C1864 1.370 . S
C1865 C1866 1.403 . S
C1866 C1865 1.403 . S
C1866 C1867 1.404 . S
C1866 C1869 1.539 . S
C1867 C1863 1.408 . S
C1867 C1866 1.404 . S
C1867 H1879 0.930 . S
C1868 C1864 1.524 . S
C1868 H1880 0.956 . S
C1868 H1881 0.961 . S
C1868 H1882 0.961 . S
C1869 C1866 1.539 . S
C1869 H1883 0.957 1_565 S
C1869 H1884 0.961 1_565 S
C1869 H1885 0.960 . S
H1870 C1854 0.931 . S
H1871 C1859 0.929 . S
H1872 C1860 0.960 . S
H1873 C1860 0.962 . S
H1874 C1860 0.960 . S
H1875 C1861 0.961 . S
H1876 C1861 0.961 . S
H1877 C1861 0.961 . S
H1878 C1862 0.931 . S
H1879 C1867 0.930 . S
H1880 C1868 0.956 . S
H1881 C1868 0.961 . S
H1882 C1868 0.961 . S
H1883 C1869 0.957 1_545 S
H1884 C1869 0.961 1_545 S
H1885 C1869 0.960 . S
C1886 C1887 1.391 . S
C1886 C1888 1.394 . S
C1886 H1902 0.931 . S
C1887 C1886 1.391 . S
C1887 C1891 1.376 . S
C1888 C1886 1.394 . S
C1888 C1889 1.369 . S
C1888 C1892 1.531 . S
C1889 C1888 1.369 . S
C1889 C1890 1.410 . S
C1889 C1897 1.503 . S
C1890 C1889 1.410 . S
C1890 C1891 1.392 . S
C1890 C1893 1.511 . S
C1891 C1887 1.376 . S
C1891 C1890 1.392 . S
C1891 H1903 0.929 . S
C1892 C1888 1.531 . S
C1892 H1904 0.960 . S
C1892 H1905 0.962 . S
C1892 H1906 0.960 . S
C1893 C1890 1.511 . S
C1893 H1907 0.961 . S
C1893 H1908 0.961 . S
C1893 H1909 0.961 . S
C1894 C1895 1.370 . S
C1894 C1896 1.363 . S
C1894 H1910 0.931 . S
C1895 C1894 1.370 . S
C1895 C1899 1.408 . S
C1896 C1894 1.363 . S
C1896 C1897 1.370 . S
C1896 C1900 1.524 . S
C1897 C1889 1.503 . S
C1897 C1896 1.370 . S
C1897 C1898 1.403 . S
C1898 C1897 1.403 . S
C1898 C1899 1.404 . S
C1898 C1901 1.539 . S
C1899 C1895 1.408 . S
C1899 C1898 1.404 . S
C1899 H1911 0.930 . S
C1900 C1896 1.524 . S
C1900 H1912 0.956 . S
C1900 H1913 0.961 . S
C1900 H1914 0.961 . S
C1901 C1898 1.539 . S
C1901 H1915 0.958 1_455 S
C1901 H1916 0.961 . S
C1901 H1917 0.960 . S
H1902 C1886 0.931 . S
H1903 C1891 0.929 . S
H1904 C1892 0.960 . S
H1905 C1892 0.962 . S
H1906 C1892 0.960 . S
H1907 C1893 0.961 . S
H1908 C1893 0.961 . S
H1909 C1893 0.961 . S
H1910 C1894 0.931 . S
H1911 C1899 0.930 . S
H1912 C1900 0.956 . S
H1913 C1900 0.961 . S
H1914 C1900 0.961 . S
H1915 C1901 0.958 1_655 S
H1916 C1901 0.961 . S
H1917 C1901 0.960 . S
C1918 C1919 1.391 . S
C1918 C1920 1.394 . S
C1918 H1934 0.931 . S
C1919 C1918 1.391 . S
C1919 C1923 1.376 . S
C1920 C1918 1.394 . S
C1920 C1921 1.369 . S
C1920 C1924 1.531 . S
C1921 C1920 1.369 . S
C1921 C1922 1.410 . S
C1921 C1929 1.503 . S
C1922 C1921 1.410 . S
C1922 C1923 1.392 . S
C1922 C1925 1.511 . S
C1923 C1919 1.376 . S
C1923 C1922 1.392 . S
C1923 H1935 0.929 . S
C1924 C1920 1.531 . S
C1924 H1936 0.960 . S
C1924 H1937 0.962 . S
C1924 H1938 0.960 . S
C1925 C1922 1.511 . S
C1925 H1939 0.961 . S
C1925 H1940 0.961 . S
C1925 H1941 0.961 . S
C1926 C1927 1.370 . S
C1926 C1928 1.363 . S
C1926 H1942 0.931 . S
C1927 C1926 1.370 . S
C1927 C1931 1.408 . S
C1928 C1926 1.363 . S
C1928 C1929 1.370 . S
C1928 C1932 1.524 . S
C1929 C1921 1.503 . S
C1929 C1928 1.370 . S
C1929 C1930 1.403 . S
C1930 C1929 1.403 . S
C1930 C1931 1.404 . S
C1930 C1933 1.539 . S
C1931 C1927 1.408 . S
C1931 C1930 1.404 . S
C1931 H1943 0.930 . S
C1932 C1928 1.524 . S
C1932 H1944 0.956 . S
C1932 H1945 0.961 . S
C1932 H1946 0.961 . S
C1933 C1930 1.539 . S
C1933 H1947 0.958 . S
C1933 H1948 0.961 . S
C1933 H1949 0.960 . S
H1934 C1918 0.931 . S
H1935 C1923 0.929 . S
H1936 C1924 0.960 . S
H1937 C1924 0.962 . S
H1938 C1924 0.960 . S
H1939 C1925 0.961 . S
H1940 C1925 0.961 . S
H1941 C1925 0.961 . S
H1942 C1926 0.931 . S
H1943 C1931 0.930 . S
H1944 C1932 0.956 . S
H1945 C1932 0.961 . S
H1946 C1932 0.961 . S
H1947 C1933 0.958 . S
H1948 C1933 0.961 . S
H1949 C1933 0.960 . S
C1950 C1951 1.391 . S
C1950 C1952 1.394 . S
C1950 H1966 0.931 . S
C1951 C1950 1.391 . S
C1951 C1955 1.376 . S
C1952 C1950 1.394 . S
C1952 C1953 1.369 . S
C1952 C1956 1.531 . S
C1953 C1952 1.369 . S
C1953 C1954 1.410 . S
C1953 C1961 1.503 . S
C1954 C1953 1.410 . S
C1954 C1955 1.392 . S
C1954 C1957 1.511 . S
C1955 C1951 1.376 . S
C1955 C1954 1.392 . S
C1955 H1967 0.929 . S
C1956 C1952 1.531 . S
C1956 H1968 0.960 . S
C1956 H1969 0.962 . S
C1956 H1970 0.960 . S
C1957 C1954 1.511 . S
C1957 H1971 0.961 1_655 S
C1957 H1972 0.961 . S
C1957 H1973 0.961 1_655 S
C1958 C1959 1.370 . S
C1958 C1960 1.363 . S
C1958 H1974 0.931 . S
C1959 C1958 1.370 . S
C1959 C1963 1.408 . S
C1960 C1958 1.363 . S
C1960 C1961 1.370 . S
C1960 C1964 1.524 . S
C1961 C1953 1.503 . S
C1961 C1960 1.370 . S
C1961 C1962 1.403 . S
C1962 C1961 1.403 . S
C1962 C1963 1.404 . S
C1962 C1965 1.539 . S
C1963 C1959 1.408 . S
C1963 C1962 1.404 . S
C1963 H1975 0.930 . S
C1964 C1960 1.524 . S
C1964 H1976 0.956 . S
C1964 H1977 0.961 . S
C1964 H1978 0.961 . S
C1965 C1962 1.539 . S
C1965 H1979 0.958 . S
C1965 H1980 0.961 . S
C1965 H1981 0.960 . S
H1966 C1950 0.931 . S
H1967 C1955 0.929 . S
H1968 C1956 0.960 . S
H1969 C1956 0.962 . S
H1970 C1956 0.960 . S
H1971 C1957 0.961 1_455 S
H1972 C1957 0.961 . S
H1973 C1957 0.961 1_455 S
H1974 C1958 0.931 . S
H1975 C1963 0.930 . S
H1976 C1964 0.956 . S
H1977 C1964 0.961 . S
H1978 C1964 0.961 . S
H1979 C1965 0.958 . S
H1980 C1965 0.961 . S
H1981 C1965 0.960 . S
C1982 C1983 1.391 . S
C1982 C1984 1.394 . S
C1982 H1998 0.931 . S
C1983 C1982 1.391 . S
C1983 C1987 1.376 . S
C1984 C1982 1.394 . S
C1984 C1985 1.369 . S
C1984 C1988 1.531 . S
C1985 C1984 1.369 . S
C1985 C1986 1.410 . S
C1985 C1993 1.503 . S
C1986 C1985 1.410 . S
C1986 C1987 1.392 . S
C1986 C1989 1.511 . S
C1987 C1983 1.376 . S
C1987 C1986 1.392 . S
C1987 H1999 0.929 . S
C1988 C1984 1.531 . S
C1988 H2000 0.960 . S
C1988 H2001 0.962 . S
C1988 H2002 0.960 . S
C1989 C1986 1.511 . S
C1989 H2003 0.961 . S
C1989 H2004 0.961 . S
C1989 H2005 0.961 . S
C1990 C1991 1.370 . S
C1990 C1992 1.363 . S
C1990 H2006 0.931 . S
C1991 C1990 1.370 . S
C1991 C1995 1.408 . S
C1992 C1990 1.363 . S
C1992 C1993 1.370 . S
C1992 C1996 1.524 . S
C1993 C1985 1.503 . S
C1993 C1992 1.370 . S
C1993 C1994 1.403 . S
C1994 C1993 1.403 . S
C1994 C1995 1.404 . S
C1994 C1997 1.539 . S
C1995 C1991 1.408 . S
C1995 C1994 1.404 . S
C1995 H2007 0.930 . S
C1996 C1992 1.524 . S
C1996 H2008 0.956 . S
C1996 H2009 0.961 . S
C1996 H2010 0.961 . S
C1997 C1994 1.539 . S
C1997 H2011 0.958 . S
C1997 H2012 0.961 . S
C1997 H2013 0.960 . S
H1998 C1982 0.931 . S
H1999 C1987 0.929 . S
H2000 C1988 0.960 . S
H2001 C1988 0.962 . S
H2002 C1988 0.960 . S
H2003 C1989 0.961 . S
H2004 C1989 0.961 . S
H2005 C1989 0.961 . S
H2006 C1990 0.931 . S
H2007 C1995 0.930 . S
H2008 C1996 0.956 . S
H2009 C1996 0.961 . S
H2010 C1996 0.961 . S
H2011 C1997 0.958 . S
H2012 C1997 0.961 . S
H2013 C1997 0.960 . S
C2014 C2015 1.391 . S
C2014 C2016 1.394 . S
C2014 H2030 0.931 . S
C2015 C2014 1.391 . S
C2015 C2019 1.376 . S
C2016 C2014 1.394 . S
C2016 C2017 1.369 . S
C2016 C2020 1.531 . S
C2017 C2016 1.369 . S
C2017 C2018 1.410 . S
C2017 C2025 1.503 . S
C2018 C2017 1.410 . S
C2018 C2019 1.392 . S
C2018 C2021 1.511 . S
C2019 C2015 1.376 . S
C2019 C2018 1.392 . S
C2019 H2031 0.929 . S
C2020 C2016 1.531 . S
C2020 H2032 0.960 . S
C2020 H2033 0.962 . S
C2020 H2034 0.960 . S
C2021 C2018 1.511 . S
C2021 H2035 0.961 . S
C2021 H2036 0.961 . S
C2021 H2037 0.961 . S
C2022 C2023 1.370 . S
C2022 C2024 1.363 . S
C2022 H2038 0.931 . S
C2023 C2022 1.370 . S
C2023 C2027 1.408 . S
C2024 C2022 1.363 . S
C2024 C2025 1.370 . S
C2024 C2028 1.524 . S
C2025 C2017 1.503 . S
C2025 C2024 1.370 . S
C2025 C2026 1.403 . S
C2026 C2025 1.403 . S
C2026 C2027 1.404 . S
C2026 C2029 1.539 . S
C2027 C2023 1.408 . S
C2027 C2026 1.404 . S
C2027 H2039 0.930 . S
C2028 C2024 1.524 . S
C2028 H2040 0.956 . S
C2028 H2041 0.961 . S
C2028 H2042 0.961 . S
C2029 C2026 1.539 . S
C2029 H2043 0.958 . S
C2029 H2044 0.961 . S
C2029 H2045 0.960 . S
H2030 C2014 0.931 . S
H2031 C2019 0.929 . S
H2032 C2020 0.960 . S
H2033 C2020 0.962 . S
H2034 C2020 0.960 . S
H2035 C2021 0.961 . S
H2036 C2021 0.961 . S
H2037 C2021 0.961 . S
H2038 C2022 0.931 . S
H2039 C2027 0.930 . S
H2040 C2028 0.956 . S
H2041 C2028 0.961 . S
H2042 C2028 0.961 . S
H2043 C2029 0.958 . S
H2044 C2029 0.961 . S
H2045 C2029 0.960 . S
C2046 C2047 1.391 . S
C2046 C2048 1.394 . S
C2046 H2062 0.931 . S
C2047 C2046 1.391 . S
C2047 C2051 1.376 . S
C2048 C2046 1.394 . S
C2048 C2049 1.369 . S
C2048 C2052 1.531 . S
C2049 C2048 1.369 . S
C2049 C2050 1.410 . S
C2049 C2057 1.503 . S
C2050 C2049 1.410 . S
C2050 C2051 1.392 . S
C2050 C2053 1.511 . S
C2051 C2047 1.376 . S
C2051 C2050 1.392 . S
C2051 H2063 0.929 . S
C2052 C2048 1.531 . S
C2052 H2064 0.960 . S
C2052 H2065 0.962 . S
C2052 H2066 0.960 . S
C2053 C2050 1.511 . S
C2053 H2067 0.961 . S
C2053 H2068 0.961 . S
C2053 H2069 0.961 . S
C2054 C2055 1.370 . S
C2054 C2056 1.363 . S
C2054 H2070 0.931 . S
C2055 C2054 1.370 . S
C2055 C2059 1.408 . S
C2056 C2054 1.363 . S
C2056 C2057 1.370 . S
C2056 C2060 1.524 . S
C2057 C2049 1.503 . S
C2057 C2056 1.370 . S
C2057 C2058 1.403 . S
C2058 C2057 1.403 . S
C2058 C2059 1.404 . S
C2058 C2061 1.539 . S
C2059 C2055 1.408 . S
C2059 C2058 1.404 . S
C2059 H2071 0.930 . S
C2060 C2056 1.524 . S
C2060 H2072 0.956 . S
C2060 H2073 0.961 . S
C2060 H2074 0.961 . S
C2061 C2058 1.539 . S
C2061 H2075 0.958 . S
C2061 H2076 0.961 . S
C2061 H2077 0.960 . S
H2062 C2046 0.931 . S
H2063 C2051 0.929 . S
H2064 C2052 0.960 . S
H2065 C2052 0.962 . S
H2066 C2052 0.960 . S
H2067 C2053 0.961 . S
H2068 C2053 0.961 . S
H2069 C2053 0.961 . S
H2070 C2054 0.931 . S
H2071 C2059 0.930 . S
H2072 C2060 0.956 . S
H2073 C2060 0.961 . S
H2074 C2060 0.961 . S
H2075 C2061 0.958 . S
H2076 C2061 0.961 . S
H2077 C2061 0.960 . S
C2078 C2079 1.391 . S
C2078 C2080 1.394 . S
C2078 H2094 0.931 . S
C2079 C2078 1.391 . S
C2079 C2083 1.376 . S
C2080 C2078 1.394 . S
C2080 C2081 1.369 . S
C2080 C2084 1.531 . S
C2081 C2080 1.369 . S
C2081 C2082 1.410 . S
C2081 C2089 1.503 . S
C2082 C2081 1.410 . S
C2082 C2083 1.392 . S
C2082 C2085 1.511 . S
C2083 C2079 1.376 . S
C2083 C2082 1.392 . S
C2083 H2095 0.929 . S
C2084 C2080 1.531 . S
C2084 H2096 0.960 . S
C2084 H2097 0.962 . S
C2084 H2098 0.960 . S
C2085 C2082 1.511 . S
C2085 H2099 0.961 . S
C2085 H2100 0.961 . S
C2085 H2101 0.961 . S
C2086 C2087 1.370 . S
C2086 C2088 1.363 . S
C2086 H2102 0.931 . S
C2087 C2086 1.370 . S
C2087 C2091 1.408 . S
C2088 C2086 1.363 . S
C2088 C2089 1.370 . S
C2088 C2092 1.524 . S
C2089 C2081 1.503 . S
C2089 C2088 1.370 . S
C2089 C2090 1.403 . S
C2090 C2089 1.403 . S
C2090 C2091 1.404 . S
C2090 C2093 1.539 . S
C2091 C2087 1.408 . S
C2091 C2090 1.404 . S
C2091 H2103 0.930 . S
C2092 C2088 1.524 . S
C2092 H2104 0.956 . S
C2092 H2105 0.961 . S
C2092 H2106 0.961 . S
C2093 C2090 1.539 . S
C2093 H2107 0.958 . S
C2093 H2108 0.961 . S
C2093 H2109 0.960 . S
H2094 C2078 0.931 . S
H2095 C2083 0.929 . S
H2096 C2084 0.960 . S
H2097 C2084 0.962 . S
H2098 C2084 0.960 . S
H2099 C2085 0.961 . S
H2100 C2085 0.961 . S
H2101 C2085 0.961 . S
H2102 C2086 0.931 . S
H2103 C2091 0.930 . S
H2104 C2092 0.956 . S
H2105 C2092 0.961 . S
H2106 C2092 0.961 . S
H2107 C2093 0.958 . S
H2108 C2093 0.961 . S
H2109 C2093 0.960 . S
C2110 C2111 1.391 . S
C2110 C2112 1.394 . S
C2110 H2126 0.931 . S
C2111 C2110 1.391 . S
C2111 C2115 1.376 . S
C2112 C2110 1.394 . S
C2112 C2113 1.369 . S
C2112 C2116 1.531 . S
C2113 C2112 1.369 . S
C2113 C2114 1.410 . S
C2113 C2121 1.503 . S
C2114 C2113 1.410 . S
C2114 C2115 1.392 . S
C2114 C2117 1.511 . S
C2115 C2111 1.376 . S
C2115 C2114 1.392 . S
C2115 H2127 0.929 . S
C2116 C2112 1.531 . S
C2116 H2128 0.960 . S
C2116 H2129 0.962 . S
C2116 H2130 0.960 . S
C2117 C2114 1.511 . S
C2117 H2131 0.961 . S
C2117 H2132 0.961 . S
C2117 H2133 0.961 . S
C2118 C2119 1.370 . S
C2118 C2120 1.363 . S
C2118 H2134 0.931 . S
C2119 C2118 1.370 . S
C2119 C2123 1.408 . S
C2120 C2118 1.363 . S
C2120 C2121 1.370 . S
C2120 C2124 1.524 . S
C2121 C2113 1.503 . S
C2121 C2120 1.370 . S
C2121 C2122 1.403 . S
C2122 C2121 1.403 . S
C2122 C2123 1.404 . S
C2122 C2125 1.539 . S
C2123 C2119 1.408 . S
C2123 C2122 1.404 . S
C2123 H2135 0.930 . S
C2124 C2120 1.524 . S
C2124 H2136 0.956 . S
C2124 H2137 0.961 . S
C2124 H2138 0.961 . S
C2125 C2122 1.539 . S
C2125 H2139 0.958 . S
C2125 H2140 0.961 . S
C2125 H2141 0.960 . S
H2126 C2110 0.931 . S
H2127 C2115 0.929 . S
H2128 C2116 0.960 . S
H2129 C2116 0.962 . S
H2130 C2116 0.960 . S
H2131 C2117 0.961 . S
H2132 C2117 0.961 . S
H2133 C2117 0.961 . S
H2134 C2118 0.931 . S
H2135 C2123 0.930 . S
H2136 C2124 0.956 . S
H2137 C2124 0.961 . S
H2138 C2124 0.961 . S
H2139 C2125 0.958 . S
H2140 C2125 0.961 . S
H2141 C2125 0.960 . S
C2142 C2143 1.391 . S
C2142 C2144 1.394 . S
C2142 H2158 0.931 . S
C2143 C2142 1.391 . S
C2143 C2147 1.376 . S
C2144 C2142 1.394 . S
C2144 C2145 1.369 . S
C2144 C2148 1.531 . S
C2145 C2144 1.369 . S
C2145 C2146 1.410 . S
C2145 C2153 1.503 . S
C2146 C2145 1.410 . S
C2146 C2147 1.392 . S
C2146 C2149 1.511 . S
C2147 C2143 1.376 . S
C2147 C2146 1.392 . S
C2147 H2159 0.929 . S
C2148 C2144 1.531 . S
C2148 H2160 0.960 . S
C2148 H2161 0.962 . S
C2148 H2162 0.960 . S
C2149 C2146 1.511 . S
C2149 H2163 0.961 . S
C2149 H2164 0.961 . S
C2149 H2165 0.961 . S
C2150 C2151 1.370 . S
C2150 C2152 1.363 . S
C2150 H2166 0.931 . S
C2151 C2150 1.370 . S
C2151 C2155 1.408 . S
C2152 C2150 1.363 . S
C2152 C2153 1.370 . S
C2152 C2156 1.524 . S
C2153 C2145 1.503 . S
C2153 C2152 1.370 . S
C2153 C2154 1.403 . S
C2154 C2153 1.403 . S
C2154 C2155 1.404 . S
C2154 C2157 1.539 . S
C2155 C2151 1.408 . S
C2155 C2154 1.404 . S
C2155 H2167 0.930 . S
C2156 C2152 1.524 . S
C2156 H2168 0.956 . S
C2156 H2169 0.961 . S
C2156 H2170 0.961 . S
C2157 C2154 1.539 . S
C2157 H2171 0.958 . S
C2157 H2172 0.961 . S
C2157 H2173 0.960 . S
H2158 C2142 0.931 . S
H2159 C2147 0.929 . S
H2160 C2148 0.960 . S
H2161 C2148 0.962 . S
H2162 C2148 0.960 . S
H2163 C2149 0.961 . S
H2164 C2149 0.961 . S
H2165 C2149 0.961 . S
H2166 C2150 0.931 . S
H2167 C2155 0.930 . S
H2168 C2156 0.956 . S
H2169 C2156 0.961 . S
H2170 C2156 0.961 . S
H2171 C2157 0.958 . S
H2172 C2157 0.961 . S
H2173 C2157 0.960 . S
C2174 C2175 1.391 . S
C2174 C2176 1.394 . S
C2174 H2190 0.931 . S
C2175 C2174 1.391 . S
C2175 C2179 1.376 . S
C2176 C2174 1.394 . S
C2176 C2177 1.369 . S
C2176 C2180 1.531 . S
C2177 C2176 1.369 . S
C2177 C2178 1.410 . S
C2177 C2185 1.503 . S
C2178 C2177 1.410 . S
C2178 C2179 1.392 . S
C2178 C2181 1.511 . S
C2179 C2175 1.376 . S
C2179 C2178 1.392 . S
C2179 H2191 0.929 . S
C2180 C2176 1.531 . S
C2180 H2192 0.960 . S
C2180 H2193 0.962 . S
C2180 H2194 0.960 . S
C2181 C2178 1.511 . S
C2181 H2195 0.961 . S
C2181 H2196 0.961 . S
C2181 H2197 0.961 . S
C2182 C2183 1.370 . S
C2182 C2184 1.363 . S
C2182 H2198 0.931 . S
C2183 C2182 1.370 . S
C2183 C2187 1.408 . S
C2184 C2182 1.363 . S
C2184 C2185 1.370 . S
C2184 C2188 1.524 . S
C2185 C2177 1.503 . S
C2185 C2184 1.370 . S
C2185 C2186 1.403 . S
C2186 C2185 1.403 . S
C2186 C2187 1.404 . S
C2186 C2189 1.539 . S
C2187 C2183 1.408 . S
C2187 C2186 1.404 . S
C2187 H2199 0.930 . S
C2188 C2184 1.524 . S
C2188 H2200 0.956 . S
C2188 H2201 0.961 . S
C2188 H2202 0.961 . S
C2189 C2186 1.539 . S
C2189 H2203 0.958 . S
C2189 H2204 0.961 . S
C2189 H2205 0.960 . S
H2190 C2174 0.931 . S
H2191 C2179 0.929 . S
H2192 C2180 0.960 . S
H2193 C2180 0.962 . S
H2194 C2180 0.960 . S
H2195 C2181 0.961 . S
H2196 C2181 0.961 . S
H2197 C2181 0.961 . S
H2198 C2182 0.931 . S
H2199 C2187 0.930 . S
H2200 C2188 0.956 . S
H2201 C2188 0.961 . S
H2202 C2188 0.961 . S
H2203 C2189 0.958 . S
H2204 C2189 0.961 . S
H2205 C2189 0.960 . S
C2206 C2207 1.391 . S
C2206 C2208 1.394 . S
C2206 H2222 0.931 . S
C2207 C2206 1.391 . S
C2207 C2211 1.376 . S
C2208 C2206 1.394 . S
C2208 C2209 1.369 . S
C2208 C2212 1.531 . S
C2209 C2208 1.369 . S
C2209 C2210 1.410 . S
C2209 C2217 1.503 . S
C2210 C2209 1.410 . S
C2210 C2211 1.392 . S
C2210 C2213 1.511 . S
C2211 C2207 1.376 . S
C2211 C2210 1.392 . S
C2211 H2223 0.929 . S
C2212 C2208 1.531 . S
C2212 H2224 0.960 . S
C2212 H2225 0.962 . S
C2212 H2226 0.960 . S
C2213 C2210 1.511 . S
C2213 H2227 0.961 . S
C2213 H2228 0.961 . S
C2213 H2229 0.961 . S
C2214 C2215 1.370 . S
C2214 C2216 1.363 . S
C2214 H2230 0.931 . S
C2215 C2214 1.370 . S
C2215 C2219 1.408 . S
C2216 C2214 1.363 . S
C2216 C2217 1.370 . S
C2216 C2220 1.524 . S
C2217 C2209 1.503 . S
C2217 C2216 1.370 . S
C2217 C2218 1.403 . S
C2218 C2217 1.403 . S
C2218 C2219 1.404 . S
C2218 C2221 1.539 . S
C2219 C2215 1.408 . S
C2219 C2218 1.404 . S
C2219 H2231 0.930 . S
C2220 C2216 1.524 . S
C2220 H2232 0.956 . S
C2220 H2233 0.961 . S
C2220 H2234 0.961 . S
C2221 C2218 1.539 . S
C2221 H2235 0.958 . S
C2221 H2236 0.961 . S
C2221 H2237 0.960 . S
H2222 C2206 0.931 . S
H2223 C2211 0.929 . S
H2224 C2212 0.960 . S
H2225 C2212 0.962 . S
H2226 C2212 0.960 . S
H2227 C2213 0.961 . S
H2228 C2213 0.961 . S
H2229 C2213 0.961 . S
H2230 C2214 0.931 . S
H2231 C2219 0.930 . S
H2232 C2220 0.956 . S
H2233 C2220 0.961 . S
H2234 C2220 0.961 . S
H2235 C2221 0.958 . S
H2236 C2221 0.961 . S
H2237 C2221 0.960 . S
C2238 C2239 1.391 . S
C2238 C2240 1.394 . S
C2238 H2254 0.931 . S
C2239 C2238 1.391 . S
C2239 C2243 1.376 . S
C2240 C2238 1.394 . S
C2240 C2241 1.369 . S
C2240 C2244 1.531 . S
C2241 C2240 1.369 . S
C2241 C2242 1.410 . S
C2241 C2249 1.503 . S
C2242 C2241 1.410 . S
C2242 C2243 1.392 . S
C2242 C2245 1.511 . S
C2243 C2239 1.376 . S
C2243 C2242 1.392 . S
C2243 H2255 0.929 . S
C2244 C2240 1.531 . S
C2244 H2256 0.960 . S
C2244 H2257 0.962 . S
C2244 H2258 0.960 . S
C2245 C2242 1.511 . S
C2245 H2259 0.961 . S
C2245 H2260 0.961 . S
C2245 H2261 0.961 . S
C2246 C2247 1.370 . S
C2246 C2248 1.363 . S
C2246 H2262 0.931 . S
C2247 C2246 1.370 . S
C2247 C2251 1.408 . S
C2248 C2246 1.363 . S
C2248 C2249 1.370 . S
C2248 C2252 1.524 . S
C2249 C2241 1.503 . S
C2249 C2248 1.370 . S
C2249 C2250 1.403 . S
C2250 C2249 1.403 . S
C2250 C2251 1.404 . S
C2250 C2253 1.539 . S
C2251 C2247 1.408 . S
C2251 C2250 1.404 . S
C2251 H2263 0.930 . S
C2252 C2248 1.524 . S
C2252 H2264 0.956 . S
C2252 H2265 0.961 . S
C2252 H2266 0.961 . S
C2253 C2250 1.539 . S
C2253 H2267 0.958 . S
C2253 H2268 0.961 . S
C2253 H2269 0.960 . S
H2254 C2238 0.931 . S
H2255 C2243 0.929 . S
H2256 C2244 0.960 . S
H2257 C2244 0.962 . S
H2258 C2244 0.960 . S
H2259 C2245 0.961 . S
H2260 C2245 0.961 . S
H2261 C2245 0.961 . S
H2262 C2246 0.931 . S
H2263 C2251 0.930 . S
H2264 C2252 0.956 . S
H2265 C2252 0.961 . S
H2266 C2252 0.961 . S
H2267 C2253 0.958 . S
H2268 C2253 0.961 . S
H2269 C2253 0.960 . S
C2270 C2271 1.391 . S
C2270 C2272 1.394 . S
C2270 H2286 0.931 . S
C2271 C2270 1.391 . S
C2271 C2275 1.376 . S
C2272 C2270 1.394 . S
C2272 C2273 1.369 . S
C2272 C2276 1.531 . S
C2273 C2272 1.369 . S
C2273 C2274 1.410 . S
C2273 C2281 1.503 . S
C2274 C2273 1.410 . S
C2274 C2275 1.392 . S
C2274 C2277 1.511 . S
C2275 C2271 1.376 . S
C2275 C2274 1.392 . S
C2275 H2287 0.929 . S
C2276 C2272 1.531 . S
C2276 H2288 0.960 . S
C2276 H2289 0.962 . S
C2276 H2290 0.960 . S
C2277 C2274 1.511 . S
C2277 H2291 0.961 . S
C2277 H2292 0.961 . S
C2277 H2293 0.961 . S
C2278 C2279 1.370 . S
C2278 C2280 1.363 . S
C2278 H2294 0.931 . S
C2279 C2278 1.370 . S
C2279 C2283 1.408 . S
C2280 C2278 1.363 . S
C2280 C2281 1.370 . S
C2280 C2284 1.524 . S
C2281 C2273 1.503 . S
C2281 C2280 1.370 . S
C2281 C2282 1.403 . S
C2282 C2281 1.403 . S
C2282 C2283 1.404 . S
C2282 C2285 1.539 . S
C2283 C2279 1.408 . S
C2283 C2282 1.404 . S
C2283 H2295 0.930 . S
C2284 C2280 1.524 . S
C2284 H2296 0.956 . S
C2284 H2297 0.961 . S
C2284 H2298 0.961 . S
C2285 C2282 1.539 . S
C2285 H2299 0.958 . S
C2285 H2300 0.961 . S
C2285 H2301 0.960 . S
H2286 C2270 0.931 . S
H2287 C2275 0.929 . S
H2288 C2276 0.960 . S
H2289 C2276 0.962 . S
H2290 C2276 0.960 . S
H2291 C2277 0.961 . S
H2292 C2277 0.961 . S
H2293 C2277 0.961 . S
H2294 C2278 0.931 . S
H2295 C2283 0.930 . S
H2296 C2284 0.956 . S
H2297 C2284 0.961 . S
H2298 C2284 0.961 . S
H2299 C2285 0.958 . S
H2300 C2285 0.961 . S
H2301 C2285 0.960 . S
C2302 C2303 1.391 . S
C2302 C2304 1.394 . S
C2302 H2318 0.931 . S
C2303 C2302 1.391 . S
C2303 C2307 1.376 . S
C2304 C2302 1.394 . S
C2304 C2305 1.369 . S
C2304 C2308 1.531 . S
C2305 C2304 1.369 . S
C2305 C2306 1.410 . S
C2305 C2313 1.503 . S
C2306 C2305 1.410 . S
C2306 C2307 1.392 . S
C2306 C2309 1.511 . S
C2307 C2303 1.376 . S
C2307 C2306 1.392 . S
C2307 H2319 0.929 . S
C2308 C2304 1.531 . S
C2308 H2320 0.960 . S
C2308 H2321 0.962 . S
C2308 H2322 0.960 . S
C2309 C2306 1.511 . S
C2309 H2323 0.961 . S
C2309 H2324 0.961 . S
C2309 H2325 0.961 . S
C2310 C2311 1.370 . S
C2310 C2312 1.363 . S
C2310 H2326 0.931 . S
C2311 C2310 1.370 . S
C2311 C2315 1.408 . S
C2312 C2310 1.363 . S
C2312 C2313 1.370 . S
C2312 C2316 1.524 . S
C2313 C2305 1.503 . S
C2313 C2312 1.370 . S
C2313 C2314 1.403 . S
C2314 C2313 1.403 . S
C2314 C2315 1.404 . S
C2314 C2317 1.539 . S
C2315 C2311 1.408 . S
C2315 C2314 1.404 . S
C2315 H2327 0.930 . S
C2316 C2312 1.524 . S
C2316 H2328 0.956 . S
C2316 H2329 0.961 . S
C2316 H2330 0.961 . S
C2317 C2314 1.539 . S
C2317 H2331 0.958 . S
C2317 H2332 0.961 . S
C2317 H2333 0.960 . S
H2318 C2302 0.931 . S
H2319 C2307 0.929 . S
H2320 C2308 0.960 . S
H2321 C2308 0.962 . S
H2322 C2308 0.960 . S
H2323 C2309 0.961 . S
H2324 C2309 0.961 . S
H2325 C2309 0.961 . S
H2326 C2310 0.931 . S
H2327 C2315 0.930 . S
H2328 C2316 0.956 . S
H2329 C2316 0.961 . S
H2330 C2316 0.961 . S
H2331 C2317 0.958 . S
H2332 C2317 0.961 . S
H2333 C2317 0.960 . S
C2334 C2335 1.391 . S
C2334 C2336 1.394 . S
C2334 H2350 0.931 . S
C2335 C2334 1.391 . S
C2335 C2339 1.376 . S
C2336 C2334 1.394 . S
C2336 C2337 1.369 . S
C2336 C2340 1.531 . S
C2337 C2336 1.369 . S
C2337 C2338 1.410 . S
C2337 C2345 1.503 . S
C2338 C2337 1.410 . S
C2338 C2339 1.392 . S
C2338 C2341 1.511 . S
C2339 C2335 1.376 . S
C2339 C2338 1.392 . S
C2339 H2351 0.929 . S
C2340 C2336 1.531 . S
C2340 H2352 0.960 . S
C2340 H2353 0.962 . S
C2340 H2354 0.960 . S
C2341 C2338 1.511 . S
C2341 H2355 0.961 . S
C2341 H2356 0.961 . S
C2341 H2357 0.961 . S
C2342 C2343 1.370 . S
C2342 C2344 1.363 . S
C2342 H2358 0.931 . S
C2343 C2342 1.370 . S
C2343 C2347 1.408 . S
C2344 C2342 1.363 . S
C2344 C2345 1.370 . S
C2344 C2348 1.524 . S
C2345 C2337 1.503 . S
C2345 C2344 1.370 . S
C2345 C2346 1.403 . S
C2346 C2345 1.403 . S
C2346 C2347 1.404 . S
C2346 C2349 1.539 . S
C2347 C2343 1.408 . S
C2347 C2346 1.404 . S
C2347 H2359 0.930 . S
C2348 C2344 1.524 . S
C2348 H2360 0.956 . S
C2348 H2361 0.961 . S
C2348 H2362 0.961 . S
C2349 C2346 1.539 . S
C2349 H2363 0.958 . S
C2349 H2364 0.961 . S
C2349 H2365 0.960 . S
H2350 C2334 0.931 . S
H2351 C2339 0.929 . S
H2352 C2340 0.960 . S
H2353 C2340 0.962 . S
H2354 C2340 0.960 . S
H2355 C2341 0.961 . S
H2356 C2341 0.961 . S
H2357 C2341 0.961 . S
H2358 C2342 0.931 . S
H2359 C2347 0.930 . S
H2360 C2348 0.956 . S
H2361 C2348 0.961 . S
H2362 C2348 0.961 . S
H2363 C2349 0.958 . S
H2364 C2349 0.961 . S
H2365 C2349 0.960 . S
C2366 C2367 1.391 . S
C2366 C2368 1.394 . S
C2366 H2382 0.931 . S
C2367 C2366 1.391 . S
C2367 C2371 1.376 . S
C2368 C2366 1.394 . S
C2368 C2369 1.369 . S
C2368 C2372 1.531 . S
C2369 C2368 1.369 . S
C2369 C2370 1.410 . S
C2369 C2377 1.503 . S
C2370 C2369 1.410 . S
C2370 C2371 1.392 . S
C2370 C2373 1.511 . S
C2371 C2367 1.376 . S
C2371 C2370 1.392 . S
C2371 H2383 0.929 . S
C2372 C2368 1.531 . S
C2372 H2384 0.960 . S
C2372 H2385 0.962 . S
C2372 H2386 0.960 . S
C2373 C2370 1.511 . S
C2373 H2387 0.961 . S
C2373 H2388 0.961 . S
C2373 H2389 0.961 . S
C2374 C2375 1.370 . S
C2374 C2376 1.363 . S
C2374 H2390 0.931 . S
C2375 C2374 1.370 . S
C2375 C2379 1.408 . S
C2376 C2374 1.363 . S
C2376 C2377 1.370 . S
C2376 C2380 1.524 . S
C2377 C2369 1.503 . S
C2377 C2376 1.370 . S
C2377 C2378 1.403 . S
C2378 C2377 1.403 . S
C2378 C2379 1.404 . S
C2378 C2381 1.539 . S
C2379 C2375 1.408 . S
C2379 C2378 1.404 . S
C2379 H2391 0.930 . S
C2380 C2376 1.524 . S
C2380 H2392 0.956 . S
C2380 H2393 0.961 . S
C2380 H2394 0.961 . S
C2381 C2378 1.539 . S
C2381 H2395 0.958 . S
C2381 H2396 0.961 . S
C2381 H2397 0.960 . S
H2382 C2366 0.931 . S
H2383 C2371 0.929 . S
H2384 C2372 0.960 . S
H2385 C2372 0.962 . S
H2386 C2372 0.960 . S
H2387 C2373 0.961 . S
H2388 C2373 0.961 . S
H2389 C2373 0.961 . S
H2390 C2374 0.931 . S
H2391 C2379 0.930 . S
H2392 C2380 0.956 . S
H2393 C2380 0.961 . S
H2394 C2380 0.961 . S
H2395 C2381 0.958 . S
H2396 C2381 0.961 . S
H2397 C2381 0.960 . S
C2398 C2399 1.391 . S
C2398 C2400 1.394 . S
C2398 H2414 0.931 . S
C2399 C2398 1.391 . S
C2399 C2403 1.376 . S
C2400 C2398 1.394 . S
C2400 C2401 1.369 . S
C2400 C2404 1.531 . S
C2401 C2400 1.369 . S
C2401 C2402 1.410 . S
C2401 C2409 1.503 . S
C2402 C2401 1.410 . S
C2402 C2403 1.392 . S
C2402 C2405 1.511 . S
C2403 C2399 1.376 . S
C2403 C2402 1.392 . S
C2403 H2415 0.929 . S
C2404 C2400 1.531 . S
C2404 H2416 0.960 . S
C2404 H2417 0.962 . S
C2404 H2418 0.960 . S
C2405 C2402 1.511 . S
C2405 H2419 0.961 . S
C2405 H2420 0.961 . S
C2405 H2421 0.961 . S
C2406 C2407 1.370 . S
C2406 C2408 1.363 . S
C2406 H2422 0.931 . S
C2407 C2406 1.370 . S
C2407 C2411 1.408 . S
C2408 C2406 1.363 . S
C2408 C2409 1.370 . S
C2408 C2412 1.524 . S
C2409 C2401 1.503 . S
C2409 C2408 1.370 . S
C2409 C2410 1.403 . S
C2410 C2409 1.403 . S
C2410 C2411 1.404 . S
C2410 C2413 1.539 . S
C2411 C2407 1.408 . S
C2411 C2410 1.404 . S
C2411 H2423 0.930 . S
C2412 C2408 1.524 . S
C2412 H2424 0.956 . S
C2412 H2425 0.961 . S
C2412 H2426 0.961 . S
C2413 C2410 1.539 . S
C2413 H2427 0.958 . S
C2413 H2428 0.961 . S
C2413 H2429 0.960 . S
H2414 C2398 0.931 . S
H2415 C2403 0.929 . S
H2416 C2404 0.960 . S
H2417 C2404 0.962 . S
H2418 C2404 0.960 . S
H2419 C2405 0.961 . S
H2420 C2405 0.961 . S
H2421 C2405 0.961 . S
H2422 C2406 0.931 . S
H2423 C2411 0.930 . S
H2424 C2412 0.956 . S
H2425 C2412 0.961 . S
H2426 C2412 0.961 . S
H2427 C2413 0.958 . S
H2428 C2413 0.961 . S
H2429 C2413 0.960 . S
C703 C253 1.727 . S
C711 C351 1.721 . S
C735 C272 1.821 . S
C743 C391 1.831 . S
C767 C234 1.630 . S
C775 C430 1.568 . S
C799 C215 1.495 . S
C807 C390 1.423 1_556 S
C839 C431 1.557 . S
C831 C177 1.556 . S
C863 C196 1.374 . S
C871 C350 1.366 1_556 S
C903 C361 1.666 . S
C895 C220 1.535 . S
C935 C401 1.623 . S
C927 C182 1.520 . S
C959 C201 1.592 . S
C967 C440 1.732 . S
C991 C258 1.451 . S
C999 C400 1.546 . S
C1023 C277 1.304 . S
C1031 C441 1.434 . S
C1063 C360 1.531 1_554 S
C1055 C239 1.454 . S
C1095 C471 1.726 . S
C1087 C25 1.712 . S
C1119 C44 1.826 . S
C1127 C511 1.829 . S
C1151 C6 1.589 . S
C1159 C550 1.585 . S
C1183 C329 1.486 . S
C1191 C510 1.419 . S
C1215 C291 1.557 . S
C1223 C551 1.556 . S
C1247 C310 1.414 . S
C1255 C470 1.372 . S
C1279 C334 1.553 . S
C1287 C481 1.662 . S
C1311 C296 1.503 . S
C1319 C521 1.634 . S
C1351 C560 1.731 . S
C1343 C315 1.584 . S
C1375 C30 1.391 . S
C1383 C520 1.531 . S
C1415 C561 1.433 . S
C1407 C49 1.310 1_455 S
C1439 C11 1.448 . S
C1447 C480 1.534 . S
C1479 C591 1.722 . S
C1471 C139 1.726 . S
C1503 C158 1.833 . S
C1511 C631 1.827 . S
C1543 C670 1.578 . S
C1535 C120 1.585 . S
C1575 C630 1.445 . S
C1567 C101 1.463 . S
C1607 C671 1.559 . S
C1599 C63 1.552 . S
C1631 C82 1.384 . S
C1639 C590 1.361 . S
C1663 C106 1.578 . S
C1671 C601 1.652 . S
C1695 C68 1.548 . S
C1703 C641 1.617 . S
C1735 C680 1.728 . S
C1727 C87 1.662 . S
C1759 C144 1.475 . S
C1767 C640 1.542 . S
C1791 C163 1.272 . S
C1799 C681 1.445 . S
C1823 C125 1.384 . S
C1831 C600 1.548 . S
C1855 C287 1.590 . S
C1863 C347 1.585 . S
C1895 C387 2.064 . S
C1887 C306 2.079 . S
C1919 C325 1.607 . S
C1927 C437 1.663 . S
C1951 C116 1.822 . S
C1959 C397 1.873 . S
C1983 C135 1.809 . S
C1991 C427 1.804 . S
C2023 C357 1.349 . S
C2015 C154 1.355 . S
C2047 C59 1.578 . S
C2055 C467 1.590 . S
C2079 C78 2.055 . S
C2087 C507 2.074 . S
C2111 C97 1.647 . S
C2119 C557 1.654 . S
C2143 C230 1.859 . S
C2151 C517 1.866 . S
C2183 C547 1.807 . S
C2175 C249 1.803 . S
C2207 C268 1.321 . S
C2215 C477 1.355 . S
C2239 C173 1.607 . S
C2247 C587 1.578 . S
C2271 C192 2.068 . S
C2279 C627 2.068 . S
C2311 C677 1.664 . S
C2303 C211 1.602 . S
C2335 C2 1.825 . S
C2343 C637 1.876 . S
C2367 C21 1.813 . S
C2375 C667 1.803 . S
C2399 C40 1.304 . S
C2407 C597 1.358 . S
