# Generated by pormake.
# Topology nom, (4,4)-cn, num edge types: 1
# Building blocks:
#     Node 0, Type 0, BuildingBlock: MUDLON_clean_linker_0, # of connection points: 4
#     Node 1, Type 0, BuildingBlock: MUDLON_clean_linker_0, # of connection points: 4
#     Node 2, Type 0, BuildingBlock: MUDLON_clean_linker_0, # of connection points: 4
#     Node 3, Type 0, BuildingBlock: MUDLON_clean_linker_0, # of connection points: 4
#     Node 4, Type 0, BuildingBlock: MUDLON_clean_linker_0, # of connection points: 4
#     Node 5, Type 0, BuildingBlock: MUDLON_clean_linker_0, # of connection points: 4
#     Node 6, Type 1, BuildingBlock: TATPOV_clean_sbu_0, # of connection points: 4
#     Node 7, Type 1, BuildingBlock: TATPOV_clean_sbu_0, # of connection points: 4
#     Node 8, Type 1, BuildingBlock: TATPOV_clean_sbu_0, # of connection points: 4
#     Node 9, Type 1, BuildingBlock: TATPOV_clean_sbu_0, # of connection points: 4
#     Node 10, Type 1, BuildingBlock: TATPOV_clean_sbu_0, # of connection points: 4
#     Node 11, Type 1, BuildingBlock: TATPOV_clean_sbu_0, # of connection points: 4
#     Edge 12, Type (0, 1), BuildingBlock: CIFDUS_clean_linker_0, # of connection points: 2
#     Edge 13, Type (0, 1), BuildingBlock: CIFDUS_clean_linker_0, # of connection points: 2
#     Edge 14, Type (0, 1), BuildingBlock: CIFDUS_clean_linker_0, # of connection points: 2
#     Edge 15, Type (0, 1), BuildingBlock: CIFDUS_clean_linker_0, # of connection points: 2
#     Edge 16, Type (0, 1), BuildingBlock: CIFDUS_clean_linker_0, # of connection points: 2
#     Edge 17, Type (0, 1), BuildingBlock: CIFDUS_clean_linker_0, # of connection points: 2
#     Edge 18, Type (0, 1), BuildingBlock: CIFDUS_clean_linker_0, # of connection points: 2
#     Edge 19, Type (0, 1), BuildingBlock: CIFDUS_clean_linker_0, # of connection points: 2
#     Edge 20, Type (0, 1), BuildingBlock: CIFDUS_clean_linker_0, # of connection points: 2
#     Edge 21, Type (0, 1), BuildingBlock: CIFDUS_clean_linker_0, # of connection points: 2
#     Edge 22, Type (0, 1), BuildingBlock: CIFDUS_clean_linker_0, # of connection points: 2
#     Edge 23, Type (0, 1), BuildingBlock: CIFDUS_clean_linker_0, # of connection points: 2
#     Edge 24, Type (0, 1), BuildingBlock: CIFDUS_clean_linker_0, # of connection points: 2
#     Edge 25, Type (0, 1), BuildingBlock: CIFDUS_clean_linker_0, # of connection points: 2
#     Edge 26, Type (0, 1), BuildingBlock: CIFDUS_clean_linker_0, # of connection points: 2
#     Edge 27, Type (0, 1), BuildingBlock: CIFDUS_clean_linker_0, # of connection points: 2
#     Edge 28, Type (0, 1), BuildingBlock: CIFDUS_clean_linker_0, # of connection points: 2
#     Edge 29, Type (0, 1), BuildingBlock: CIFDUS_clean_linker_0, # of connection points: 2
#     Edge 30, Type (0, 1), BuildingBlock: CIFDUS_clean_linker_0, # of connection points: 2
#     Edge 31, Type (0, 1), BuildingBlock: CIFDUS_clean_linker_0, # of connection points: 2
#     Edge 32, Type (0, 1), BuildingBlock: CIFDUS_clean_linker_0, # of connection points: 2
#     Edge 33, Type (0, 1), BuildingBlock: CIFDUS_clean_linker_0, # of connection points: 2
#     Edge 34, Type (0, 1), BuildingBlock: CIFDUS_clean_linker_0, # of connection points: 2
#     Edge 35, Type (0, 1), BuildingBlock: CIFDUS_clean_linker_0, # of connection points: 2
# Relax obj value: 0.023
# Max RMSD: 0.120
# Mean RMSD: 0.105
data_MOF--net-nom--node1-TATPOV_clean_sbu_0--node2-MUDLON_clean_linker_0--edge1-CIFDUS_clean_linker_0
_symmetry_space_group_name_H-M    P1
_symmetry_Int_Tables_number       1
_symmetry_cell_setting            triclinic
loop_
_symmetry_equiv_pos_as_xyz
'x, y, z'
_cell_length_a     54.248331
_cell_length_b     55.619348
_cell_length_c     54.465995
_cell_angle_alpha  90.924393
_cell_angle_beta   90.62004
_cell_angle_gamma 120.38545
loop_
_atom_site_label
_atom_site_type_symbol
_atom_site_fract_x
_atom_site_fract_y
_atom_site_fract_z
_atom_type_partial_charge
H0 H 0.17041 0.52185 0.32312 0.0
N1 N 0.11874 0.51275 0.33354 0.0
H2 H 0.20552 0.55739 0.29676 0.0
H3 H 0.10805 0.54379 0.30009 0.0
H4 H 0.1422 0.57781 0.27275 0.0
H5 H 0.13188 0.56507 0.34904 0.0
H6 H 0.15163 0.58697 0.38905 0.0
H7 H 0.12908 0.48995 0.37211 0.0
H8 H 0.14909 0.51196 0.41257 0.0
H9 H 0.08508 0.46047 0.31738 0.0
H10 H 0.08305 0.53395 0.34043 0.0
H11 H 0.03322 0.43563 0.31033 0.0
H12 H 0.03191 0.50997 0.33253 0.0
H13 H 0.86222 0.37487 0.27546 0.0
H14 H 0.84238 0.37929 0.23643 0.0
H15 H 0.9128 0.46394 0.23152 0.0
H16 H 0.93138 0.45984 0.2711 0.0
H17 H 0.90307 0.46248 0.30674 0.0
H18 H 0.86879 0.46805 0.3309 0.0
H19 H 0.83635 0.38544 0.35929 0.0
H20 H 0.86999 0.37956 0.3338 0.0
H21 H 0.94506 0.40868 0.27679 0.0
H22 H 0.99657 0.43231 0.28419 0.0
H23 H 0.98801 0.47516 0.34747 0.0
N24 N 0.90609 0.41501 0.30142 0.0
H25 H 0.93732 0.45282 0.33963 0.0
C26 C 0.13655 0.53 0.31401 0.0
C27 C 0.16399 0.53369 0.31182 0.0
C28 C 0.18403 0.554 0.2966 0.0
C29 C 0.17693 0.5709 0.28279 0.0
C30 C 0.14876 0.56579 0.28361 0.0
C31 C 0.12891 0.54589 0.29923 0.0
C32 C 0.12864 0.52561 0.35765 0.0
C33 C 0.13504 0.55307 0.36287 0.0
C34 C 0.14641 0.56562 0.38579 0.0
C35 C 0.15183 0.55115 0.40401 0.0
C36 C 0.1453 0.52367 0.39884 0.0
C37 C 0.1337 0.51102 0.37588 0.0
C38 C 0.08812 0.499 0.32947 0.0
C39 C 0.07347 0.47127 0.32079 0.0
C40 C 0.04386 0.45721 0.31661 0.0
C41 C 0.02821 0.47073 0.32086 0.0
C42 C 0.04302 0.49862 0.32951 0.0
C43 C 0.07252 0.51251 0.33395 0.0
C44 C 0.89826 0.41685 0.27628 0.0
C45 C 0.8736 0.39417 0.26567 0.0
C46 C 0.86236 0.39674 0.24329 0.0
C47 C 0.87576 0.4221 0.23086 0.0
C48 C 0.90148 0.4443 0.24081 0.0
C49 C 0.91242 0.44186 0.26336 0.0
C50 C 0.88882 0.42035 0.31823 0.0
C51 C 0.88865 0.44558 0.31819 0.0
C52 C 0.86918 0.44885 0.33231 0.0
C53 C 0.84958 0.42712 0.347 0.0
C54 C 0.85074 0.40242 0.34786 0.0
C55 C 0.8701 0.39908 0.33352 0.0
C56 C 0.93676 0.42944 0.30677 0.0
C57 C 0.95429 0.42348 0.29207 0.0
C58 C 0.98381 0.4368 0.29651 0.0
C59 C 0.99666 0.456 0.31627 0.0
C60 C 0.97909 0.46119 0.33161 0.0
C61 C 0.94965 0.44816 0.32701 0.0
H62 H 0.49253 0.8751 0.48036 0.0
N63 N 0.49371 0.9193 0.46125 0.0
H64 H 0.45564 0.84004 0.50584 0.0
H65 H 0.45192 0.92448 0.48451 0.0
H66 H 0.41582 0.89043 0.51128 0.0
H67 H 0.45089 0.92428 0.43938 0.0
H68 H 0.42509 0.90141 0.4014 0.0
H69 H 0.50323 0.88693 0.43106 0.0
H70 H 0.47597 0.86187 0.39405 0.0
H71 H 0.5154 0.94888 0.50392 0.0
H72 H 0.50625 0.9597 0.42645 0.0
H73 H 0.53865 0.99924 0.51061 0.0
H74 H 0.52847 0.00943 0.43358 0.0
H75 H 0.63106 0.16793 0.51625 0.0
H76 H 0.62654 0.18569 0.55615 0.0
H77 H 0.53747 0.12092 0.55719 0.0
H78 H 0.54188 0.10465 0.51656 0.0
H79 H 0.54739 0.13798 0.47966 0.0
H80 H 0.54988 0.17351 0.45238 0.0
H81 H 0.63385 0.19204 0.43015 0.0
H82 H 0.63068 0.15579 0.45697 0.0
H83 H 0.60887 0.09314 0.50291 0.0
H84 H 0.58535 0.04242 0.49671 0.0
H85 H 0.51585 0.04269 0.45765 0.0
N86 N 0.59026 0.12678 0.48901 0.0
H87 H 0.53891 0.09299 0.46429 0.0
C88 C 0.47511 0.90238 0.48049 0.0
C89 C 0.47615 0.87879 0.48751 0.0
C90 C 0.45501 0.85879 0.5022 0.0
C91 C 0.43239 0.86211 0.51052 0.0
C92 C 0.43243 0.88674 0.50476 0.0
C93 C 0.45332 0.90649 0.48967 0.0
C94 C 0.47946 0.90774 0.43778 0.0
C95 C 0.45683 0.91111 0.4293 0.0
C96 C 0.4418 0.89763 0.40766 0.0
C97 C 0.44814 0.87946 0.3945 0.0
C98 C 0.47075 0.8761 0.40319 0.0
C99 C 0.48633 0.89028 0.42445 0.0
C100 C 0.50661 0.94942 0.465 0.0
C101 C 0.51745 0.96169 0.48844 0.0
C102 C 0.53109 0.99059 0.49228 0.0
C103 C 0.53466 0.0081 0.4727 0.0
C104 C 0.52512 0.99628 0.44913 0.0
C105 C 0.51195 0.96748 0.44519 0.0
C106 C 0.58705 0.13485 0.51354 0.0
C107 C 0.61066 0.15751 0.52526 0.0
C108 C 0.60801 0.16748 0.54817 0.0
C109 C 0.58164 0.1547 0.56012 0.0
C110 C 0.55802 0.13159 0.54848 0.0
C111 C 0.56059 0.12197 0.52531 0.0
C112 C 0.58894 0.1442 0.47028 0.0
C113 C 0.566 0.14918 0.46844 0.0
C114 C 0.56758 0.16972 0.45299 0.0
C115 C 0.59219 0.18589 0.43924 0.0
C116 C 0.61443 0.17983 0.44022 0.0
C117 C 0.61274 0.15918 0.45558 0.0
C118 C 0.57606 0.09711 0.48386 0.0
C119 C 0.58861 0.08224 0.49294 0.0
C120 C 0.5751 0.05332 0.48953 0.0
C121 C 0.54883 0.03871 0.47667 0.0
C122 C 0.53624 0.05354 0.46744 0.0
C123 C 0.54953 0.08242 0.47121 0.0
H124 H 0.47179 0.63728 0.63351 0.0
N125 N 0.46544 0.59008 0.65003 0.0
H126 H 0.43729 0.6437 0.60952 0.0
H127 H 0.41664 0.54815 0.62727 0.0
H128 H 0.38157 0.55434 0.60385 0.0
H129 H 0.41516 0.55348 0.67165 0.0
H130 H 0.40335 0.55383 0.71455 0.0
H131 H 0.49803 0.62635 0.68537 0.0
H132 H 0.48616 0.62692 0.72876 0.0
H133 H 0.5162 0.60682 0.63103 0.0
H134 H 0.44099 0.53349 0.65584 0.0
H135 H 0.54032 0.57999 0.62619 0.0
H136 H 0.4652 0.50689 0.65221 0.0
H137 H 0.6236 0.50984 0.62693 0.0
H138 H 0.64384 0.50567 0.58811 0.0
H139 H 0.55858 0.45098 0.55871 0.0
H140 H 0.53866 0.45533 0.59731 0.0
H141 H 0.52685 0.42955 0.63321 0.0
H142 H 0.52282 0.39103 0.6568 0.0
H143 H 0.59281 0.44934 0.70428 0.0
H144 H 0.59717 0.48791 0.67992 0.0
H145 H 0.58748 0.53674 0.65241 0.0
H146 H 0.5609 0.56141 0.65285 0.0
H147 H 0.48519 0.48625 0.6266 0.0
N148 N 0.5689 0.48443 0.63872 0.0
H149 H 0.51172 0.46157 0.62731 0.0
C150 C 0.44683 0.59238 0.63232 0.0
C151 C 0.45243 0.6191 0.62657 0.0
C152 C 0.43254 0.62269 0.61309 0.0
C153 C 0.40641 0.59953 0.60515 0.0
C154 C 0.4015 0.57261 0.60966 0.0
C155 C 0.42154 0.56904 0.62314 0.0
C156 C 0.45769 0.58985 0.6753 0.0
C157 C 0.43093 0.5695 0.68388 0.0
C158 C 0.4242 0.56968 0.70849 0.0
C159 C 0.44393 0.59029 0.72502 0.0
C160 C 0.47053 0.61086 0.71639 0.0
C161 C 0.47736 0.61051 0.69173 0.0
C162 C 0.47696 0.57242 0.64395 0.0
C163 C 0.50479 0.58485 0.63515 0.0
C164 C 0.51863 0.56953 0.63273 0.0
C165 C 0.50496 0.54134 0.6393 0.0
C166 C 0.47643 0.52849 0.64689 0.0
C167 C 0.46251 0.54381 0.6491 0.0
C168 C 0.57974 0.48291 0.6151 0.0
C169 C 0.60937 0.49719 0.61197 0.0
C170 C 0.62083 0.49481 0.58983 0.0
C171 C 0.60277 0.47786 0.57045 0.0
C172 C 0.57302 0.46389 0.57346 0.0
C173 C 0.56159 0.46646 0.59555 0.0
C174 C 0.56246 0.46175 0.65478 0.0
C175 C 0.54096 0.43422 0.64894 0.0
C176 C 0.53862 0.41209 0.66259 0.0
C177 C 0.55767 0.41701 0.68235 0.0
C178 C 0.5781 0.44473 0.68894 0.0
C179 C 0.58046 0.46682 0.67523 0.0
C180 C 0.55175 0.49744 0.63983 0.0
C181 C 0.56508 0.52561 0.64694 0.0
C182 C 0.5499 0.53973 0.64687 0.0
C183 C 0.52091 0.52598 0.63941 0.0
C184 C 0.50741 0.49751 0.63257 0.0
C185 C 0.52265 0.48334 0.63283 0.0
H186 H 0.15381 0.65103 0.82453 0.0
N187 N 0.10651 0.60727 0.80664 0.0
H188 H 0.19324 0.65144 0.84674 0.0
H189 H 0.10673 0.5612 0.82414 0.0
H190 H 0.14497 0.56129 0.84791 0.0
H191 H 0.12293 0.57853 0.77617 0.0
H192 H 0.14002 0.59068 0.7343 0.0
H193 H 0.10972 0.6486 0.78057 0.0
H194 H 0.1276 0.66151 0.73898 0.0
H195 H 0.07228 0.61667 0.83435 0.0
H196 H 0.07342 0.55382 0.78787 0.0
H197 H 0.02103 0.58606 0.84019 0.0
H198 H 0.02227 0.5229 0.79382 0.0
H199 H 0.86614 0.51224 0.85083 0.0
H200 H 0.84301 0.49649 0.89039 0.0
H201 H 0.87201 0.43713 0.89363 0.0
H202 H 0.8951 0.4531 0.85397 0.0
H203 H 0.88742 0.44275 0.81123 0.0
H204 H 0.8499 0.409 0.78297 0.0
H205 H 0.82279 0.46858 0.76927 0.0
H206 H 0.86038 0.50204 0.79739 0.0
H207 H 0.93508 0.51921 0.86244 0.0
H208 H 0.98648 0.54342 0.85898 0.0
H209 H 0.97727 0.5206 0.78192 0.0
N210 N 0.89494 0.49346 0.82587 0.0
H211 H 0.92572 0.49563 0.78525 0.0
C212 C 0.12727 0.60625 0.82271 0.0
C213 C 0.1517 0.63141 0.82988 0.0
C214 C 0.17415 0.63155 0.84276 0.0
C215 C 0.17254 0.60638 0.84916 0.0
C216 C 0.14738 0.58111 0.84289 0.0
C217 C 0.12517 0.581 0.8295 0.0
C218 C 0.11487 0.61266 0.78139 0.0
C219 C 0.12348 0.5964 0.76802 0.0
C220 C 0.13355 0.60357 0.74417 0.0
C221 C 0.13529 0.62714 0.73328 0.0
C222 C 0.12619 0.64301 0.74663 0.0
C223 C 0.11605 0.63577 0.77041 0.0
C224 C 0.07669 0.58773 0.81065 0.0
C225 C 0.06148 0.59613 0.82563 0.0
C226 C 0.03224 0.57852 0.82903 0.0
C227 C 0.01751 0.55196 0.81749 0.0
C228 C 0.0329 0.54332 0.80276 0.0
C229 C 0.06222 0.561 0.7994 0.0
C230 C 0.8823 0.48395 0.84953 0.0
C231 C 0.86754 0.49592 0.86016 0.0
C232 C 0.85444 0.48693 0.88274 0.0
C233 C 0.85577 0.46562 0.89515 0.0
C234 C 0.87038 0.45338 0.88437 0.0
C235 C 0.88362 0.46251 0.86176 0.0
C236 C 0.87649 0.47486 0.80647 0.0
C237 C 0.87363 0.4486 0.80186 0.0
C238 C 0.85215 0.42934 0.78575 0.0
C239 C 0.83321 0.43602 0.77397 0.0
C240 C 0.83718 0.46284 0.77774 0.0
C241 C 0.85857 0.48198 0.79385 0.0
C242 C 0.92556 0.50397 0.82446 0.0
C243 C 0.94373 0.51827 0.84487 0.0
C244 C 0.97341 0.53267 0.84284 0.0
C245 C 0.98605 0.53396 0.82019 0.0
C246 C 0.96825 0.51955 0.79979 0.0
C247 C 0.93847 0.50505 0.8018 0.0
H248 H 0.55224 0.13872 0.9794 0.0
N249 N 0.58065 0.11197 0.96528 0.0
H250 H 0.57176 0.18083 0.0054 0.0
H251 H 0.62795 0.13389 0.99312 0.0
H252 H 0.64772 0.17612 0.0193 0.0
H253 H 0.62227 0.14755 0.93711 0.0
H254 H 0.61814 0.16873 0.89981 0.0
H255 H 0.53043 0.09784 0.94014 0.0
H256 H 0.52601 0.11692 0.9017 0.0
H257 H 0.52838 0.09032 0.98701 0.0
H258 H 0.58814 0.06892 0.95697 0.0
H259 H 0.4949 0.04139 0.99435 0.0
H260 H 0.55499 0.01964 0.96497 0.0
H261 H 0.38181 0.89227 0.01033 0.0
H262 H 0.36476 0.87091 0.0502 0.0
H263 H 0.44918 0.88588 0.06849 0.0
H264 H 0.46598 0.90721 0.02854 0.0
H265 H 0.46798 0.88876 0.9894 0.0
H266 H 0.45441 0.84354 0.97007 0.0
H267 H 0.37918 0.83973 0.93822 0.0
H268 H 0.39232 0.88428 0.9585 0.0
H269 H 0.4489 0.95539 0.02346 0.0
H270 H 0.48624 0.00334 0.01889 0.0
H271 H 0.5101 0.98113 0.95053 0.0
N272 N 0.43351 0.91163 0.99203 0.0
H273 H 0.47349 0.93274 0.9555 0.0
C274 C 0.58862 0.13299 0.98447 0.0
C275 C 0.57262 0.14613 0.98873 0.0
C276 C 0.5839 0.17035 0.00353 0.0
C277 C 0.61144 0.18201 0.01421 0.0
C278 C 0.62663 0.16788 0.01106 0.0
C279 C 0.61526 0.14361 0.99636 0.0
C280 C 0.57688 0.12088 0.94144 0.0
C281 C 0.60121 0.1406 0.92928 0.0
C282 C 0.59872 0.15256 0.90777 0.0
C283 C 0.57167 0.14458 0.89738 0.0
C284 C 0.54722 0.1241 0.90923 0.0
C285 C 0.54974 0.11271 0.93119 0.0
C286 C 0.56097 0.08339 0.97148 0.0
C287 C 0.53457 0.07517 0.98235 0.0
C288 C 0.51539 0.04702 0.98664 0.0
C289 C 0.52219 0.02639 0.98034 0.0
C290 C 0.54882 0.0348 0.96979 0.0
C291 C 0.56791 0.06296 0.96539 0.0
C292 C 0.42502 0.90127 0.01649 0.0
C293 C 0.39663 0.89117 0.0231 0.0
C294 C 0.387 0.87904 0.04585 0.0
C295 C 0.40562 0.87664 0.06246 0.0
C296 C 0.43424 0.8871 0.05595 0.0
C297 C 0.44389 0.89937 0.03318 0.0
C298 C 0.43082 0.88965 0.97569 0.0
C299 C 0.44889 0.87843 0.97786 0.0
C300 C 0.44116 0.85261 0.96667 0.0
C301 C 0.41534 0.83769 0.95305 0.0
C302 C 0.39883 0.85033 0.94908 0.0
C303 C 0.40646 0.87594 0.96038 0.0
C304 C 0.45862 0.93941 0.99053 0.0
C305 C 0.46269 0.96033 0.00784 0.0
C306 C 0.48387 0.98813 0.00499 0.0
C307 C 0.50127 0.99629 0.98431 0.0
C308 C 0.49751 0.97559 0.96696 0.0
C309 C 0.47638 0.94762 0.9699 0.0
H310 H 0.53016 0.39595 0.17297 0.0
N311 N 0.52451 0.44097 0.17104 0.0
H312 H 0.55979 0.38479 0.14758 0.0
H313 H 0.54631 0.46345 0.12508 0.0
H314 H 0.57522 0.45188 0.09964 0.0
H315 H 0.58137 0.47134 0.18371 0.0
H316 H 0.60288 0.47408 0.22388 0.0
H317 H 0.49754 0.41769 0.21233 0.0
H318 H 0.51916 0.42 0.25285 0.0
H319 H 0.47417 0.43819 0.1676 0.0
H320 H 0.56463 0.49576 0.16293 0.0
H321 H 0.46484 0.47631 0.1611 0.0
H322 H 0.55569 0.53346 0.15506 0.0
H323 H 0.4373 0.57559 0.12042 0.0
H324 H 0.41831 0.57932 0.08094 0.0
H325 H 0.5042 0.628 0.05422 0.0
H326 H 0.52321 0.62451 0.0943 0.0
H327 H 0.51713 0.65457 0.14445 0.0
H328 H 0.49664 0.67731 0.16842 0.0
H329 H 0.42827 0.59664 0.19001 0.0
H330 H 0.44864 0.5741 0.16524 0.0
H331 H 0.45638 0.5446 0.12364 0.0
H332 H 0.46398 0.50634 0.13262 0.0
H333 H 0.5425 0.56344 0.17195 0.0
N334 N 0.4938 0.60059 0.13436 0.0
H335 H 0.53568 0.60213 0.16119 0.0
C336 C 0.53738 0.43187 0.15241 0.0
C337 C 0.53976 0.40824 0.15691 0.0
C338 C 0.55655 0.40166 0.14217 0.0
C339 C 0.57075 0.41805 0.122 0.0
C340 C 0.56558 0.43957 0.11568 0.0
C341 C 0.54904 0.44637 0.13058 0.0
C342 C 0.53767 0.44457 0.19509 0.0
C343 C 0.5675 0.4607 0.19879 0.0
C344 C 0.57982 0.46212 0.22178 0.0
C345 C 0.56269 0.4473 0.24152 0.0
C346 C 0.53287 0.43149 0.23791 0.0
C347 C 0.5205 0.43029 0.2149 0.0
C348 C 0.51995 0.46383 0.16546 0.0
C349 C 0.49197 0.45897 0.16478 0.0
C350 C 0.48673 0.48085 0.16096 0.0
C351 C 0.50948 0.50819 0.15748 0.0
C352 C 0.53757 0.51296 0.15818 0.0
C353 C 0.54277 0.49121 0.1625 0.0
C354 C 0.48183 0.59967 0.1103 0.0
C355 C 0.45212 0.58679 0.10606 0.0
C356 C 0.44124 0.58888 0.08339 0.0
C357 C 0.45975 0.60399 0.06445 0.0
C358 C 0.48941 0.61646 0.06855 0.0
C359 C 0.50029 0.61425 0.09127 0.0
C360 C 0.48448 0.61278 0.15299 0.0
C361 C 0.49817 0.64188 0.15493 0.0
C362 C 0.48639 0.65481 0.16872 0.0
C363 C 0.4606 0.63882 0.18102 0.0
C364 C 0.44789 0.60958 0.18043 0.0
C365 C 0.45967 0.59664 0.16649 0.0
C366 C 0.4959 0.57667 0.14128 0.0
C367 C 0.47536 0.54915 0.13405 0.0
C368 C 0.4796 0.52698 0.1395 0.0
C369 C 0.50409 0.5316 0.15281 0.0
C370 C 0.52381 0.55899 0.16103 0.0
C371 C 0.51983 0.58119 0.15515 0.0
Zn372 Zn 0.67707 0.4502 0.40011 0.0
Zn373 Zn 0.64298 0.39394 0.40343 0.0
O374 O 0.68292 0.40029 0.39649 0.0
O375 O 0.71164 0.4457 0.39519 0.0
O376 O 0.62038 0.3526 0.40931 0.0
O377 O 0.66587 0.45568 0.43424 0.0
O378 O 0.63795 0.41017 0.43586 0.0
C379 C 0.70781 0.42128 0.39383 0.0
C380 C 0.63047 0.42352 0.36309 0.0
O381 O 0.62413 0.40095 0.3738 0.0
O382 O 0.65164 0.44648 0.37073 0.0
C383 C 0.62331 0.33485 0.3966 0.0
O384 O 0.64011 0.34329 0.37758 0.0
C385 C 0.64794 0.43439 0.44563 0.0
Zn386 Zn 0.22483 0.6941 0.55932 0.0
Zn387 Zn 0.25849 0.67202 0.56555 0.0
O388 O 0.28611 0.7132 0.55729 0.0
O389 O 0.25894 0.73165 0.55194 0.0
O390 O 0.28635 0.65913 0.57395 0.0
O391 O 0.20991 0.68404 0.5936 0.0
O392 O 0.23666 0.665 0.59797 0.0
C393 C 0.28344 0.73409 0.55224 0.0
C394 C 0.21253 0.64839 0.52494 0.0
O395 O 0.23319 0.64791 0.53593 0.0
O396 O 0.20527 0.66579 0.53175 0.0
C397 C 0.29062 0.64081 0.56381 0.0
O398 O 0.2751 0.62656 0.54447 0.0
C399 C 0.21842 0.6708 0.60649 0.0
Zn400 Zn 0.56255 0.23764 0.73087 0.0
Zn401 Zn 0.621 0.26828 0.73374 0.0
O402 O 0.60839 0.29729 0.73048 0.0
O403 O 0.56137 0.27358 0.72903 0.0
O404 O 0.66355 0.29165 0.73984 0.0
O405 O 0.56177 0.22011 0.76382 0.0
O406 O 0.60879 0.24373 0.76376 0.0
C407 C 0.58464 0.2967 0.72871 0.0
C408 C 0.59285 0.22779 0.69079 0.0
O409 O 0.6155 0.24593 0.7022 0.0
O410 O 0.56844 0.22102 0.69907 0.0
C411 C 0.6801 0.3136 0.72835 0.0
O412 O 0.66958 0.32142 0.71037 0.0
C413 C 0.58556 0.2261 0.77362 0.0
Zn414 Zn 0.34875 0.57578 0.89265 0.0
Zn415 Zn 0.37286 0.63124 0.89853 0.0
O416 O 0.32982 0.61696 0.89194 0.0
O417 O 0.31031 0.57165 0.88585 0.0
O418 O 0.39019 0.67303 0.90429 0.0
O419 O 0.36101 0.57278 0.92679 0.0
O420 O 0.38348 0.61855 0.93056 0.0
C421 C 0.30798 0.59316 0.88682 0.0
C422 C 0.39135 0.60674 0.85666 0.0
O423 O 0.39283 0.62787 0.86768 0.0
O424 O 0.3748 0.58246 0.86434 0.0
C425 C 0.37613 0.68213 0.91578 0.0
O426 O 0.35071 0.66416 0.92382 0.0
C427 C 0.37688 0.59489 0.93922 0.0
Zn428 Zn 0.7774 0.45427 0.07764 0.0
Zn429 Zn 0.74873 0.40066 0.06498 0.0
O430 O 0.71624 0.40928 0.07222 0.0
O431 O 0.74073 0.45423 0.08129 0.0
O432 O 0.72814 0.35987 0.05411 0.0
O433 O 0.79725 0.4645 0.04553 0.0
O434 O 0.77296 0.42014 0.03439 0.0
C435 C 0.71695 0.43193 0.07817 0.0
C436 C 0.78988 0.42185 0.11014 0.0
O437 O 0.77253 0.40198 0.09569 0.0
O438 O 0.79536 0.44648 0.10649 0.0
C439 C 0.70383 0.34111 0.06145 0.0
O440 O 0.69025 0.34785 0.07745 0.0
C441 C 0.79116 0.4454 0.0296 0.0
Zn442 Zn 0.33022 0.77941 0.23209 0.0
Zn443 Zn 0.35996 0.75256 0.2269 0.0
O444 O 0.31862 0.72127 0.23299 0.0
O445 O 0.2938 0.74251 0.23594 0.0
O446 O 0.38051 0.73104 0.22241 0.0
O447 O 0.34358 0.796 0.19858 0.0
O448 O 0.36704 0.77348 0.19457 0.0
C449 C 0.29489 0.7203 0.23617 0.0
C450 C 0.37482 0.79523 0.26902 0.0
O451 O 0.37987 0.77845 0.25691 0.0
O452 O 0.35451 0.79892 0.26248 0.0
C453 C 0.40696 0.74119 0.22732 0.0
O454 O 0.4221 0.76701 0.23577 0.0
C455 C 0.35948 0.79008 0.18611 0.0
H456 H 0.18198 0.62187 0.278 0.0
H457 H 0.22301 0.57528 0.25797 0.0
H458 H 0.2627 0.61713 0.24088 0.0
H459 H 0.2871 0.66772 0.2339 0.0
H460 H 0.24436 0.7131 0.25251 0.0
H461 H 0.20361 0.67062 0.26714 0.0
C462 C 0.19913 0.62049 0.26934 0.0
C463 C 0.19942 0.59531 0.26954 0.0
C464 C 0.2217 0.6445 0.25928 0.0
C465 C 0.22236 0.59441 0.2586 0.0
C466 C 0.24504 0.61833 0.24868 0.0
C467 C 0.26874 0.66825 0.24092 0.0
C468 C 0.269 0.69369 0.24231 0.0
C469 C 0.2452 0.64364 0.24934 0.0
C470 C 0.24488 0.69391 0.25126 0.0
C471 C 0.22154 0.66961 0.25973 0.0
H472 H 0.57684 0.22335 0.45401 0.0
H473 H 0.61643 0.20432 0.39435 0.0
H474 H 0.62778 0.24795 0.37492 0.0
H475 H 0.6296 0.29307 0.37652 0.0
H476 H 0.58981 0.31167 0.43635 0.0
H477 H 0.57478 0.26627 0.45367 0.0
C478 C 0.58734 0.22834 0.43646 0.0
C479 C 0.5959 0.21057 0.42577 0.0
C480 C 0.59388 0.25348 0.42543 0.0
C481 C 0.60997 0.21778 0.40321 0.0
C482 C 0.61639 0.24269 0.39204 0.0
C483 C 0.61733 0.28707 0.39318 0.0
C484 C 0.61112 0.30593 0.40521 0.0
C485 C 0.60898 0.26099 0.40325 0.0
C486 C 0.59507 0.2977 0.42674 0.0
C487 C 0.5865 0.27173 0.43673 0.0
H488 H 0.39077 0.63661 0.61974 0.0
H489 H 0.37056 0.57134 0.56571 0.0
H490 H 0.33278 0.57809 0.5481 0.0
H491 H 0.30562 0.6029 0.54809 0.0
H492 H 0.32683 0.66822 0.60254 0.0
H493 H 0.36427 0.66127 0.61965 0.0
C494 C 0.3784 0.62408 0.60388 0.0
C495 C 0.38371 0.60368 0.59393 0.0
C496 C 0.35683 0.62808 0.59391 0.0
C497 C 0.36688 0.58714 0.57379 0.0
C498 C 0.34534 0.59106 0.56367 0.0
C499 C 0.31844 0.61561 0.56368 0.0
C500 C 0.31331 0.63607 0.57394 0.0
C501 C 0.3401 0.61149 0.57359 0.0
C502 C 0.33017 0.65231 0.5942 0.0
C503 C 0.35167 0.64838 0.60405 0.0
H504 H 0.79798 0.38187 0.78551 0.0
H505 H 0.81096 0.44205 0.73063 0.0
H506 H 0.76545 0.40868 0.71056 0.0
H507 H 0.72021 0.36381 0.71066 0.0
H508 H 0.70749 0.30396 0.76589 0.0
H509 H 0.7549 0.33562 0.78341 0.0
C510 C 0.79123 0.3875 0.76882 0.0
C511 C 0.80781 0.41451 0.7597 0.0
C512 C 0.76495 0.36831 0.75751 0.0
C513 C 0.79843 0.42153 0.73825 0.0
C514 C 0.77243 0.40244 0.72673 0.0
C515 C 0.72792 0.35755 0.72635 0.0
C516 C 0.71012 0.33164 0.73707 0.0
C517 C 0.75518 0.376 0.73655 0.0
C518 C 0.72058 0.32384 0.75734 0.0
C519 C 0.74772 0.34196 0.76742 0.0
H520 H 0.44407 0.81337 0.93302 0.0
H521 H 0.36072 0.79483 0.95684 0.0
H522 H 0.34139 0.74568 0.94684 0.0
H523 H 0.3481 0.70757 0.93275 0.0
H524 H 0.43096 0.72494 0.90884 0.0
H525 H 0.45049 0.77474 0.91761 0.0
C526 C 0.42169 0.79855 0.93599 0.0
C527 C 0.40389 0.80796 0.94549 0.0
C528 C 0.4106 0.77002 0.93034 0.0
C529 C 0.37486 0.78841 0.94909 0.0
C530 C 0.36378 0.76018 0.94358 0.0
C531 C 0.37045 0.7222 0.92942 0.0
C532 C 0.38805 0.71246 0.92029 0.0
C533 C 0.38146 0.75072 0.93438 0.0
C534 C 0.41691 0.73183 0.91589 0.0
C535 C 0.4281 0.76033 0.92093 0.0
H536 H 0.62189 0.45933 0.10677 0.0
H537 H 0.57092 0.36971 0.10997 0.0
H538 H 0.61116 0.3657 0.09511 0.0
H539 H 0.6623 0.38817 0.08422 0.0
H540 H 0.71209 0.47802 0.08154 0.0
H541 H 0.67062 0.48123 0.09261 0.0
C542 C 0.61917 0.43882 0.10361 0.0
C543 C 0.59334 0.41489 0.10956 0.0
C544 C 0.64235 0.43668 0.09528 0.0
C545 C 0.59066 0.38855 0.10584 0.0
C546 C 0.61366 0.38622 0.09729 0.0
C547 C 0.66393 0.40839 0.08576 0.0
C548 C 0.69043 0.4328 0.08234 0.0
C549 C 0.63987 0.41022 0.09246 0.0
C550 C 0.69213 0.45886 0.08437 0.0
C551 C 0.66838 0.46078 0.09069 0.0
H552 H 0.376 0.84636 0.50614 0.0
H553 H 0.43294 0.8251 0.54326 0.0
H554 H 0.39201 0.78379 0.55962 0.0
H555 H 0.33981 0.75235 0.56172 0.0
H556 H 0.28352 0.77571 0.52662 0.0
H557 H 0.32456 0.81793 0.51175 0.0
C558 C 0.37968 0.83321 0.51831 0.0
C559 C 0.40772 0.83891 0.52316 0.0
C560 C 0.35608 0.80972 0.52801 0.0
C561 C 0.41168 0.82106 0.53867 0.0
C562 C 0.38825 0.79744 0.54819 0.0
C563 C 0.33656 0.76679 0.55095 0.0
C564 C 0.30862 0.76073 0.54512 0.0
C565 C 0.36033 0.79129 0.54262 0.0
C566 C 0.30477 0.77982 0.53139 0.0
C567 C 0.32824 0.80397 0.52279 0.0
H568 H 0.60381 0.4132 0.69667 0.0
H569 H 0.51156 0.3671 0.69526 0.0
H570 H 0.51177 0.32634 0.71105 0.0
H571 H 0.53815 0.30287 0.72258 0.0
H572 H 0.63046 0.34925 0.72397 0.0
H573 H 0.63013 0.39098 0.71145 0.0
C574 C 0.58371 0.39448 0.70031 0.0
C575 C 0.5577 0.39325 0.69461 0.0
C576 C 0.58398 0.37109 0.70934 0.0
C577 C 0.5319 0.36855 0.6991 0.0
C578 C 0.532 0.34524 0.70822 0.0
C579 C 0.55822 0.32217 0.72043 0.0
C580 C 0.58429 0.32276 0.72404 0.0
C581 C 0.55792 0.3461 0.71296 0.0
C582 C 0.61006 0.34806 0.72125 0.0
C583 C 0.60991 0.37198 0.71401 0.0
H584 H 0.19012 0.56874 0.84187 0.0
H585 H 0.21217 0.6446 0.88252 0.0
H586 H 0.25601 0.64738 0.89773 0.0
H587 H 0.28915 0.62914 0.89824 0.0
H588 H 0.26456 0.55137 0.85998 0.0
H589 H 0.22028 0.54817 0.84575 0.0
C590 C 0.204 0.58557 0.85454 0.0
C591 C 0.19773 0.60655 0.86073 0.0
C592 C 0.22886 0.58675 0.8637 0.0
C593 C 0.21659 0.62843 0.87686 0.0
C594 C 0.24166 0.62998 0.88575 0.0
C595 C 0.27399 0.61143 0.88692 0.0
C596 C 0.28027 0.59065 0.88005 0.0
C597 C 0.24823 0.60946 0.879 0.0
C598 C 0.26028 0.56766 0.86559 0.0
C599 C 0.23495 0.56583 0.85735 0.0
H600 H 0.66556 0.22506 0.00873 0.0
H601 H 0.58796 0.20196 0.04735 0.0
H602 H 0.6098 0.24893 0.06577 0.0
H603 H 0.65064 0.29696 0.07003 0.0
H604 H 0.72786 0.31981 0.0307 0.0
H605 H 0.70654 0.27249 0.01367 0.0
C606 C 0.65356 0.23014 0.02149 0.0
C607 C 0.6252 0.20994 0.02674 0.0
C608 C 0.66615 0.25722 0.03182 0.0
C609 C 0.60976 0.21713 0.0429 0.0
C610 C 0.62227 0.24397 0.05346 0.0
C611 C 0.66286 0.29158 0.05781 0.0
C612 C 0.69084 0.31203 0.05166 0.0
C613 C 0.65038 0.26427 0.04789 0.0
C614 C 0.70629 0.30461 0.03574 0.0
C615 C 0.69412 0.2775 0.02598 0.0
H616 H 0.48424 0.68841 0.20685 0.0
H617 H 0.40335 0.62047 0.17954 0.0
H618 H 0.37944 0.64532 0.19297 0.0
H619 H 0.38195 0.68785 0.20929 0.0
H620 H 0.46309 0.75682 0.23483 0.0
H621 H 0.4864 0.73023 0.22489 0.0
C622 C 0.46137 0.679 0.20385 0.0
C623 C 0.44573 0.65259 0.19209 0.0
C624 C 0.44779 0.69375 0.21101 0.0
C625 C 0.41598 0.64055 0.18883 0.0
C626 C 0.40227 0.6549 0.19626 0.0
C627 C 0.40471 0.69705 0.21282 0.0
C628 C 0.42076 0.72442 0.2226 0.0
C629 C 0.41805 0.68174 0.20689 0.0
C630 C 0.45021 0.73588 0.22718 0.0
C631 C 0.46359 0.72068 0.22151 0.0
H632 H 0.79392 0.38676 0.35287 0.0
H633 H 0.85409 0.47341 0.37025 0.0
H634 H 0.81574 0.47901 0.38704 0.0
H635 H 0.76464 0.46001 0.39456 0.0
H636 H 0.70497 0.37291 0.37863 0.0
H637 H 0.74382 0.36669 0.36412 0.0
C638 C 0.79888 0.40674 0.36083 0.0
C639 C 0.82692 0.42969 0.35998 0.0
C640 C 0.77677 0.40979 0.37068 0.0
C641 C 0.83266 0.4555 0.37012 0.0
C642 C 0.81074 0.45871 0.37986 0.0
C643 C 0.76016 0.43961 0.3881 0.0
C644 C 0.73187 0.41705 0.38746 0.0
C645 C 0.78262 0.43613 0.37981 0.0
C646 C 0.72651 0.39068 0.37929 0.0
C647 C 0.74871 0.38711 0.3709 0.0
H648 H 0.13682 0.58209 0.43205 0.0
H649 H 0.19566 0.55152 0.42996 0.0
H650 H 0.21902 0.57773 0.46803 0.0
H651 H 0.22439 0.61175 0.50068 0.0
H652 H 0.16521 0.64221 0.5014 0.0
H653 H 0.14063 0.61385 0.46515 0.0
C654 C 0.15479 0.58118 0.4399 0.0
C655 C 0.16465 0.56511 0.42809 0.0
C656 C 0.16823 0.59646 0.46154 0.0
C657 C 0.18757 0.56367 0.43878 0.0
C658 C 0.20105 0.57879 0.46046 0.0
C659 C 0.20601 0.61201 0.49299 0.0
C660 C 0.19693 0.62936 0.50373 0.0
C661 C 0.19182 0.59561 0.47184 0.0
C662 C 0.17295 0.62932 0.49351 0.0
C663 C 0.15877 0.61306 0.47271 0.0
H664 H 0.62107 0.1777 0.59784 0.0
H665 H 0.53554 0.15749 0.5768 0.0
H666 H 0.53103 0.17687 0.61575 0.0
H667 H 0.55188 0.20116 0.65518 0.0
H668 H 0.63875 0.2249 0.67465 0.0
H669 H 0.64242 0.20319 0.63659 0.0
C670 C 0.60153 0.1778 0.60154 0.0
C671 C 0.57869 0.16599 0.58424 0.0
C672 C 0.59936 0.18983 0.62366 0.0
C673 C 0.55333 0.16585 0.58982 0.0
C674 C 0.5508 0.17722 0.61205 0.0
C675 C 0.57158 0.20149 0.65114 0.0
C676 C 0.59498 0.21457 0.66775 0.0
C677 C 0.57373 0.18941 0.62903 0.0
C678 C 0.62045 0.21506 0.66213 0.0
C679 C 0.62255 0.20259 0.6404 0.0
H680 H 0.45059 0.63403 0.75356 0.0
H681 H 0.42038 0.54587 0.75494 0.0
H682 H 0.40366 0.54388 0.79666 0.0
H683 H 0.39458 0.56622 0.83134 0.0
H684 H 0.42327 0.65411 0.83029 0.0
H685 H 0.44418 0.6573 0.79 0.0
C686 C 0.44073 0.61451 0.76318 0.0
C687 C 0.43643 0.59006 0.75113 0.0
C688 C 0.43086 0.61345 0.78714 0.0
C689 C 0.42349 0.56486 0.76372 0.0
C690 C 0.41402 0.56372 0.78758 0.0
C691 C 0.4056 0.58619 0.82246 0.0
C692 C 0.40709 0.60983 0.83375 0.0
C693 C 0.41707 0.58775 0.79924 0.0
C694 C 0.42172 0.63555 0.822 0.0
C695 C 0.43359 0.63736 0.79892 0.0
H696 H 0.85875 0.49888 0.93321 0.0
H697 H 0.82286 0.41242 0.91167 0.0
H698 H 0.79965 0.39821 0.95143 0.0
H699 H 0.7888 0.41062 0.99215 0.0
H700 H 0.82541 0.49761 0.01282 0.0
H701 H 0.84871 0.5112 0.97352 0.0
C702 C 0.84568 0.4769 0.93714 0.0
C703 C 0.84236 0.45675 0.91947 0.0
C704 C 0.83241 0.46895 0.95989 0.0
C705 C 0.82587 0.42836 0.92504 0.0
C706 C 0.81247 0.42023 0.94771 0.0
C707 C 0.80186 0.43253 0.98803 0.0
C708 C 0.80522 0.45299 0.00548 0.0
C709 C 0.81547 0.44037 0.96526 0.0
C710 C 0.82238 0.48132 -0.00016 0.0
C711 C 0.83577 0.4892 0.97731 0.0
H712 H 0.41602 0.83875 0.08416 0.0
H713 H 0.37116 0.88371 0.09427 0.0
H714 H 0.35242 0.86039 0.13297 0.0
H715 H 0.34894 0.82753 0.16397 0.0
H716 H 0.39404 0.78267 0.15431 0.0
H717 H 0.4126 0.80576 0.11545 0.0
C718 C 0.40237 0.84363 0.09497 0.0
C719 C 0.39501 0.86295 0.08634 0.0
C720 C 0.39164 0.83012 0.11723 0.0
C721 C 0.37692 0.86872 0.10037 0.0
C722 C 0.36628 0.85547 0.12254 0.0
C723 C 0.36276 0.82269 0.15337 0.0
C724 C 0.37003 0.80334 0.16211 0.0
C725 C 0.37344 0.8361 0.13111 0.0
C726 C 0.38803 0.79743 0.14807 0.0
C727 C 0.39871 0.81067 0.12584 0.0
H728 H 0.55104 0.40305 0.26987 0.0
H729 H 0.60505 0.49237 0.26657 0.0
H730 H 0.6302 0.49287 0.30421 0.0
H731 H 0.63806 0.46789 0.33701 0.0
H732 H 0.58463 0.37842 0.34039 0.0
H733 H 0.55787 0.37808 0.30385 0.0
C734 C 0.56804 0.42264 0.27762 0.0
C735 C 0.57624 0.44764 0.26543 0.0
C736 C 0.5826 0.42275 0.29916 0.0
C737 C 0.59855 0.47284 0.27548 0.0
C738 C 0.6129 0.47314 0.29701 0.0
C739 C 0.62051 0.44827 0.32986 0.0
C740 C 0.6135 0.4232 0.34142 0.0
C741 C 0.60534 0.44819 0.30881 0.0
C742 C 0.59059 0.39803 0.33186 0.0
C743 C 0.57525 0.39781 0.31095 0.0
H744 H 0.46544 0.86303 0.35347 0.0
H745 H 0.39094 0.85914 0.38556 0.0
H746 H 0.3625 0.83409 0.34931 0.0
H747 H 0.35823 0.81263 0.30873 0.0
H748 H 0.43082 0.81168 0.27837 0.0
H749 H 0.46029 0.8385 0.31415 0.0
C750 C 0.4429 0.85639 0.35285 0.0
C751 C 0.43068 0.86352 0.37234 0.0
C752 C 0.4262 0.8409 0.33228 0.0
C753 C 0.40141 0.8549 0.37071 0.0
C754 C 0.3849 0.84021 0.35004 0.0
C755 C 0.38053 0.81834 0.30995 0.0
C756 C 0.39245 0.81045 0.29092 0.0
C757 C 0.39707 0.83315 0.33073 0.0
C758 C 0.4212 0.81753 0.29286 0.0
C759 C 0.43804 0.83292 0.31325 0.0
H760 H 0.58731 0.42959 0.54529 0.0
H761 H 0.64566 0.51834 0.54386 0.0
H762 H 0.66547 0.51264 0.50555 0.0
H763 H 0.6654 0.48257 0.47203 0.0
H764 H 0.60697 0.3937 0.47357 0.0
H765 H 0.58801 0.39937 0.51226 0.0
C766 C 0.60423 0.44769 0.53648 0.0
C767 C 0.6149 0.47435 0.54729 0.0
C768 C 0.61553 0.44424 0.51452 0.0
C769 C 0.6372 0.49757 0.53595 0.0
C770 C 0.64846 0.49434 0.51402 0.0
C771 C 0.64859 0.4644 0.48085 0.0
C772 C 0.6376 0.43776 0.46981 0.0
C773 C 0.63772 0.46778 0.5031 0.0
C774 C 0.61587 0.41446 0.4816 0.0
C775 C 0.60494 0.41767 0.50372 0.0
H776 H 0.18114 0.62653 0.71377 0.0
H777 H 0.11604 0.64691 0.69661 0.0
H778 H 0.1365 0.66283 0.65636 0.0
H779 H 0.17274 0.67103 0.62606 0.0
H780 H 0.23696 0.64922 0.64229 0.0
H781 H 0.21672 0.63347 0.68279 0.0
C782 C 0.17119 0.6341 0.70112 0.0
C783 C 0.14712 0.6356 0.70832 0.0
C784 C 0.18292 0.64302 0.67785 0.0
C785 C 0.13481 0.64591 0.69176 0.0
C786 C 0.14642 0.65489 0.66866 0.0
C787 C 0.18241 0.66292 0.63845 0.0
C788 C 0.20644 0.66145 0.63116 0.0
C789 C 0.17053 0.65367 0.66157 0.0
C790 C 0.21848 0.65062 0.64742 0.0
C791 C 0.20691 0.6416 0.67059 0.0
H792 H 0.60841 0.16449 0.859 0.0
H793 H 0.52919 0.15578 0.88457 0.0
H794 H 0.52568 0.17874 0.84814 0.0
H795 H 0.54595 0.20295 0.80945 0.0
H796 H 0.62781 0.21614 0.7869 0.0
H797 H 0.62984 0.19071 0.82217 0.0
C798 C 0.59056 0.16796 0.85701 0.0
C799 C 0.56913 0.15818 0.87478 0.0
C800 C 0.58925 0.18232 0.83655 0.0
C801 C 0.54581 0.16238 0.87114 0.0
C802 C 0.5439 0.17587 0.85037 0.0
C803 C 0.5642 0.20023 0.81232 0.0
C804 C 0.58667 0.21139 0.79559 0.0
C805 C 0.56558 0.18609 0.83302 0.0
C806 C 0.61032 0.20793 0.79961 0.0
C807 C 0.61146 0.19327 0.81971 0.0
H808 H 0.41411 0.56398 0.03827 0.0
H809 H 0.4789 0.65106 0.03747 0.0
H810 H 0.45851 0.65636 -0.00094 0.0
H811 H 0.42207 0.63608 0.96565 0.0
H812 H 0.35772 0.54875 0.96684 0.0
H813 H 0.37779 0.54392 0.00538 0.0
C814 C 0.42365 0.58417 0.0298 0.0
C815 C 0.44796 0.60707 0.04073 0.0
C816 C 0.41177 0.58709 0.00785 0.0
C817 C 0.46037 0.633 0.02927 0.0
C818 C 0.44859 0.6361 0.00742 0.0
C819 C 0.41233 0.61607 0.97446 0.0
C820 C 0.3884 0.59284 0.96336 0.0
C821 C 0.42424 0.61328 0.99654 0.0
C822 C 0.37619 0.56697 0.97491 0.0
C823 C 0.38766 0.56415 0.99696 0.0
H824 H 0.84521 0.38456 0.19332 0.0
H825 H 0.87423 0.46884 0.21903 0.0
H826 H 0.85093 0.476 0.18394 0.0
H827 H 0.8216 0.4585 0.14663 0.0
H828 H 0.78999 0.37378 0.1212 0.0
H829 H 0.81447 0.3665 0.15587 0.0
C830 C 0.84631 0.40444 0.19136 0.0
C831 C 0.86188 0.42621 0.2088 0.0
C832 C 0.83219 0.40832 0.1713 0.0
C833 C 0.86317 0.45189 0.20569 0.0
C834 C 0.84954 0.45596 0.18572 0.0
C835 C 0.82002 0.43838 0.14856 0.0
C836 C 0.804 0.41674 0.13125 0.0
C837 C 0.83396 0.43434 0.16848 0.0
C838 C 0.80212 0.3908 0.13425 0.0
C839 C 0.81618 0.38666 0.15405 0.0
loop_
_geom_bond_atom_site_label_1
_geom_bond_atom_site_label_2
_geom_bond_distance
_geom_bond_site_symmetry_2
_ccdc_geom_bond_type
H0 C27 0.929 . S
N1 C26 1.433 . S
N1 C32 1.435 . S
N1 C38 1.423 . S
H2 C28 0.930 . S
H3 C31 0.931 . S
H4 C30 0.929 . S
H5 C33 0.930 . S
H6 C34 0.932 . S
H7 C37 0.929 . S
H8 C36 0.931 . S
H9 C39 0.929 . S
H10 C43 0.932 . S
H11 C40 0.931 . S
H12 C42 0.929 . S
H13 C45 0.929 . S
H14 C46 0.930 . S
H15 C48 0.929 . S
H16 C49 0.931 . S
H17 C51 0.930 . S
H18 C52 0.932 . S
H19 C54 0.931 . S
H20 C55 0.929 . S
H21 C57 0.929 . S
H22 C58 0.931 . S
H23 C60 0.929 . S
N24 C44 1.433 . S
N24 C50 1.435 . S
N24 C56 1.423 . S
H25 C61 0.932 . S
C26 N1 1.433 . S
C26 C27 1.363 . S
C26 C31 1.370 . S
C27 H0 0.929 . S
C27 C26 1.363 . S
C27 C28 1.385 . S
C28 H2 0.930 . S
C28 C27 1.385 . S
C28 C29 1.357 . S
C29 C28 1.357 . S
C29 C30 1.406 . S
C30 H4 0.929 . S
C30 C29 1.406 . S
C30 C31 1.391 . S
C31 H3 0.931 . S
C31 C26 1.370 . S
C31 C30 1.391 . S
C32 N1 1.435 . S
C32 C33 1.358 . S
C32 C37 1.371 . S
C33 H5 0.930 . S
C33 C32 1.358 . S
C33 C34 1.405 . S
C34 H6 0.932 . S
C34 C33 1.405 . S
C34 C35 1.383 . S
C35 C34 1.383 . S
C35 C36 1.393 . S
C36 H8 0.931 . S
C36 C35 1.393 . S
C36 C37 1.382 . S
C37 H7 0.929 . S
C37 C32 1.371 . S
C37 C36 1.382 . S
C38 N1 1.423 . S
C38 C39 1.362 . S
C38 C43 1.388 . S
C39 H9 0.929 . S
C39 C38 1.362 . S
C39 C40 1.376 . S
C40 H11 0.931 . S
C40 C39 1.376 . S
C40 C41 1.396 . S
C41 C40 1.396 . S
C41 C42 1.348 . S
C41 C59 1.472 1_455 S
C42 H12 0.929 . S
C42 C41 1.348 . S
C42 C43 1.443 . S
C43 H10 0.932 . S
C43 C38 1.388 . S
C43 C42 1.443 . S
C44 N24 1.433 . S
C44 C45 1.363 . S
C44 C49 1.370 . S
C45 H13 0.929 . S
C45 C44 1.363 . S
C45 C46 1.385 . S
C46 H14 0.930 . S
C46 C45 1.385 . S
C46 C47 1.357 . S
C47 C46 1.357 . S
C47 C48 1.406 . S
C48 H15 0.929 . S
C48 C47 1.406 . S
C48 C49 1.391 . S
C49 H16 0.931 . S
C49 C44 1.370 . S
C49 C48 1.391 . S
C50 N24 1.435 . S
C50 C51 1.358 . S
C50 C55 1.371 . S
C51 H17 0.930 . S
C51 C50 1.358 . S
C51 C52 1.405 . S
C52 H18 0.932 . S
C52 C51 1.405 . S
C52 C53 1.383 . S
C53 C52 1.383 . S
C53 C54 1.393 . S
C54 H19 0.931 . S
C54 C53 1.393 . S
C54 C55 1.382 . S
C55 H20 0.929 . S
C55 C50 1.371 . S
C55 C54 1.382 . S
C56 N24 1.423 . S
C56 C57 1.362 . S
C56 C61 1.388 . S
C57 H21 0.929 . S
C57 C56 1.362 . S
C57 C58 1.376 . S
C58 H22 0.931 . S
C58 C57 1.376 . S
C58 C59 1.396 . S
C59 C41 1.472 1_655 S
C59 C58 1.396 . S
C59 C60 1.348 . S
C60 H23 0.929 . S
C60 C59 1.348 . S
C60 C61 1.443 . S
C61 H25 0.932 . S
C61 C56 1.388 . S
C61 C60 1.443 . S
H62 C89 0.929 . S
N63 C88 1.433 . S
N63 C94 1.435 . S
N63 C100 1.423 . S
H64 C90 0.930 . S
H65 C93 0.931 . S
H66 C92 0.929 . S
H67 C95 0.930 . S
H68 C96 0.932 . S
H69 C99 0.929 . S
H70 C98 0.931 . S
H71 C101 0.929 . S
H72 C105 0.932 . S
H73 C102 0.931 . S
H74 C104 0.929 1_545 S
H75 C107 0.929 . S
H76 C108 0.930 . S
H77 C110 0.929 . S
H78 C111 0.931 . S
H79 C113 0.930 . S
H80 C114 0.932 . S
H81 C116 0.931 . S
H82 C117 0.929 . S
H83 C119 0.929 . S
H84 C120 0.931 . S
H85 C122 0.929 . S
N86 C106 1.433 . S
N86 C112 1.435 . S
N86 C118 1.423 . S
H87 C123 0.932 . S
C88 N63 1.433 . S
C88 C89 1.363 . S
C88 C93 1.370 . S
C89 H62 0.929 . S
C89 C88 1.363 . S
C89 C90 1.385 . S
C90 H64 0.930 . S
C90 C89 1.385 . S
C90 C91 1.357 . S
C91 C90 1.357 . S
C91 C92 1.406 . S
C92 H66 0.929 . S
C92 C91 1.406 . S
C92 C93 1.391 . S
C93 H65 0.931 . S
C93 C88 1.370 . S
C93 C92 1.391 . S
C94 N63 1.435 . S
C94 C95 1.358 . S
C94 C99 1.371 . S
C95 H67 0.930 . S
C95 C94 1.358 . S
C95 C96 1.405 . S
C96 H68 0.932 . S
C96 C95 1.405 . S
C96 C97 1.383 . S
C97 C96 1.383 . S
C97 C98 1.393 . S
C98 H70 0.931 . S
C98 C97 1.393 . S
C98 C99 1.382 . S
C99 H69 0.929 . S
C99 C94 1.371 . S
C99 C98 1.382 . S
C100 N63 1.423 . S
C100 C101 1.362 . S
C100 C105 1.388 . S
C101 H71 0.929 . S
C101 C100 1.362 . S
C101 C102 1.376 . S
C102 H73 0.931 . S
C102 C101 1.376 . S
C102 C103 1.396 1_565 S
C103 C102 1.396 1_545 S
C103 C104 1.348 1_545 S
C103 C121 1.472 . S
C104 H74 0.929 1_565 S
C104 C103 1.348 1_565 S
C104 C105 1.443 . S
C105 H72 0.932 . S
C105 C100 1.388 . S
C105 C104 1.443 . S
C106 N86 1.433 . S
C106 C107 1.363 . S
C106 C111 1.370 . S
C107 H75 0.929 . S
C107 C106 1.363 . S
C107 C108 1.385 . S
C108 H76 0.930 . S
C108 C107 1.385 . S
C108 C109 1.357 . S
C109 C108 1.357 . S
C109 C110 1.406 . S
C110 H77 0.929 . S
C110 C109 1.406 . S
C110 C111 1.391 . S
C111 H78 0.931 . S
C111 C106 1.370 . S
C111 C110 1.391 . S
C112 N86 1.435 . S
C112 C113 1.358 . S
C112 C117 1.371 . S
C113 H79 0.930 . S
C113 C112 1.358 . S
C113 C114 1.405 . S
C114 H80 0.932 . S
C114 C113 1.405 . S
C114 C115 1.383 . S
C115 C114 1.383 . S
C115 C116 1.393 . S
C116 H81 0.931 . S
C116 C115 1.393 . S
C116 C117 1.382 . S
C117 H82 0.929 . S
C117 C112 1.371 . S
C117 C116 1.382 . S
C118 N86 1.423 . S
C118 C119 1.362 . S
C118 C123 1.388 . S
C119 H83 0.929 . S
C119 C118 1.362 . S
C119 C120 1.376 . S
C120 H84 0.931 . S
C120 C119 1.376 . S
C120 C121 1.396 . S
C121 C103 1.472 . S
C121 C120 1.396 . S
C121 C122 1.348 . S
C122 H85 0.929 . S
C122 C121 1.348 . S
C122 C123 1.443 . S
C123 H87 0.932 . S
C123 C118 1.388 . S
C123 C122 1.443 . S
H124 C151 0.929 . S
N125 C150 1.433 . S
N125 C156 1.435 . S
N125 C162 1.423 . S
H126 C152 0.930 . S
H127 C155 0.931 . S
H128 C154 0.929 . S
H129 C157 0.930 . S
H130 C158 0.932 . S
H131 C161 0.929 . S
H132 C160 0.931 . S
H133 C163 0.929 . S
H134 C167 0.932 . S
H135 C164 0.931 . S
H136 C166 0.929 . S
H137 C169 0.929 . S
H138 C170 0.930 . S
H139 C172 0.929 . S
H140 C173 0.931 . S
H141 C175 0.930 . S
H142 C176 0.932 . S
H143 C178 0.931 . S
H144 C179 0.929 . S
H145 C181 0.929 . S
H146 C182 0.931 . S
H147 C184 0.929 . S
N148 C168 1.433 . S
N148 C174 1.435 . S
N148 C180 1.423 . S
H149 C185 0.932 . S
C150 N125 1.433 . S
C150 C151 1.363 . S
C150 C155 1.370 . S
C151 H124 0.929 . S
C151 C150 1.363 . S
C151 C152 1.385 . S
C152 H126 0.930 . S
C152 C151 1.385 . S
C152 C153 1.357 . S
C153 C152 1.357 . S
C153 C154 1.406 . S
C154 H128 0.929 . S
C154 C153 1.406 . S
C154 C155 1.391 . S
C155 H127 0.931 . S
C155 C150 1.370 . S
C155 C154 1.391 . S
C156 N125 1.435 . S
C156 C157 1.358 . S
C156 C161 1.371 . S
C157 H129 0.930 . S
C157 C156 1.358 . S
C157 C158 1.405 . S
C158 H130 0.932 . S
C158 C157 1.405 . S
C158 C159 1.383 . S
C159 C158 1.383 . S
C159 C160 1.393 . S
C160 H132 0.931 . S
C160 C159 1.393 . S
C160 C161 1.382 . S
C161 H131 0.929 . S
C161 C156 1.371 . S
C161 C160 1.382 . S
C162 N125 1.423 . S
C162 C163 1.362 . S
C162 C167 1.388 . S
C163 H133 0.929 . S
C163 C162 1.362 . S
C163 C164 1.376 . S
C164 H135 0.931 . S
C164 C163 1.376 . S
C164 C165 1.396 . S
C165 C164 1.396 . S
C165 C166 1.348 . S
C165 C183 1.472 . S
C166 H136 0.929 . S
C166 C165 1.348 . S
C166 C167 1.443 . S
C167 H134 0.932 . S
C167 C162 1.388 . S
C167 C166 1.443 . S
C168 N148 1.433 . S
C168 C169 1.363 . S
C168 C173 1.370 . S
C169 H137 0.929 . S
C169 C168 1.363 . S
C169 C170 1.385 . S
C170 H138 0.930 . S
C170 C169 1.385 . S
C170 C171 1.357 . S
C171 C170 1.357 . S
C171 C172 1.406 . S
C172 H139 0.929 . S
C172 C171 1.406 . S
C172 C173 1.391 . S
C173 H140 0.931 . S
C173 C168 1.370 . S
C173 C172 1.391 . S
C174 N148 1.435 . S
C174 C175 1.358 . S
C174 C179 1.371 . S
C175 H141 0.930 . S
C175 C174 1.358 . S
C175 C176 1.405 . S
C176 H142 0.932 . S
C176 C175 1.405 . S
C176 C177 1.383 . S
C177 C176 1.383 . S
C177 C178 1.393 . S
C178 H143 0.931 . S
C178 C177 1.393 . S
C178 C179 1.382 . S
C179 H144 0.929 . S
C179 C174 1.371 . S
C179 C178 1.382 . S
C180 N148 1.423 . S
C180 C181 1.362 . S
C180 C185 1.388 . S
C181 H145 0.929 . S
C181 C180 1.362 . S
C181 C182 1.376 . S
C182 H146 0.931 . S
C182 C181 1.376 . S
C182 C183 1.396 . S
C183 C165 1.472 . S
C183 C182 1.396 . S
C183 C184 1.348 . S
C184 H147 0.929 . S
C184 C183 1.348 . S
C184 C185 1.443 . S
C185 H149 0.932 . S
C185 C180 1.388 . S
C185 C184 1.443 . S
H186 C213 0.929 . S
N187 C212 1.433 . S
N187 C218 1.435 . S
N187 C224 1.423 . S
H188 C214 0.930 . S
H189 C217 0.931 . S
H190 C216 0.929 . S
H191 C219 0.930 . S
H192 C220 0.932 . S
H193 C223 0.929 . S
H194 C222 0.931 . S
H195 C225 0.929 . S
H196 C229 0.932 . S
H197 C226 0.931 . S
H198 C228 0.929 . S
H199 C231 0.929 . S
H200 C232 0.930 . S
H201 C234 0.929 . S
H202 C235 0.931 . S
H203 C237 0.930 . S
H204 C238 0.932 . S
H205 C240 0.931 . S
H206 C241 0.929 . S
H207 C243 0.929 . S
H208 C244 0.931 . S
H209 C246 0.929 . S
N210 C230 1.433 . S
N210 C236 1.435 . S
N210 C242 1.423 . S
H211 C247 0.932 . S
C212 N187 1.433 . S
C212 C213 1.363 . S
C212 C217 1.370 . S
C213 H186 0.929 . S
C213 C212 1.363 . S
C213 C214 1.385 . S
C214 H188 0.930 . S
C214 C213 1.385 . S
C214 C215 1.357 . S
C215 C214 1.357 . S
C215 C216 1.406 . S
C216 H190 0.929 . S
C216 C215 1.406 . S
C216 C217 1.391 . S
C217 H189 0.931 . S
C217 C212 1.370 . S
C217 C216 1.391 . S
C218 N187 1.435 . S
C218 C219 1.358 . S
C218 C223 1.371 . S
C219 H191 0.930 . S
C219 C218 1.358 . S
C219 C220 1.405 . S
C220 H192 0.932 . S
C220 C219 1.405 . S
C220 C221 1.383 . S
C221 C220 1.383 . S
C221 C222 1.393 . S
C222 H194 0.931 . S
C222 C221 1.393 . S
C222 C223 1.382 . S
C223 H193 0.929 . S
C223 C218 1.371 . S
C223 C222 1.382 . S
C224 N187 1.423 . S
C224 C225 1.362 . S
C224 C229 1.388 . S
C225 H195 0.929 . S
C225 C224 1.362 . S
C225 C226 1.376 . S
C226 H197 0.931 . S
C226 C225 1.376 . S
C226 C227 1.396 . S
C227 C226 1.396 . S
C227 C228 1.348 . S
C227 C245 1.472 1_455 S
C228 H198 0.929 . S
C228 C227 1.348 . S
C228 C229 1.443 . S
C229 H196 0.932 . S
C229 C224 1.388 . S
C229 C228 1.443 . S
C230 N210 1.433 . S
C230 C231 1.363 . S
C230 C235 1.370 . S
C231 H199 0.929 . S
C231 C230 1.363 . S
C231 C232 1.385 . S
C232 H200 0.930 . S
C232 C231 1.385 . S
C232 C233 1.357 . S
C233 C232 1.357 . S
C233 C234 1.406 . S
C234 H201 0.929 . S
C234 C233 1.406 . S
C234 C235 1.391 . S
C235 H202 0.931 . S
C235 C230 1.370 . S
C235 C234 1.391 . S
C236 N210 1.435 . S
C236 C237 1.358 . S
C236 C241 1.371 . S
C237 H203 0.930 . S
C237 C236 1.358 . S
C237 C238 1.405 . S
C238 H204 0.932 . S
C238 C237 1.405 . S
C238 C239 1.383 . S
C239 C238 1.383 . S
C239 C240 1.393 . S
C240 H205 0.931 . S
C240 C239 1.393 . S
C240 C241 1.382 . S
C241 H206 0.929 . S
C241 C236 1.371 . S
C241 C240 1.382 . S
C242 N210 1.423 . S
C242 C243 1.362 . S
C242 C247 1.388 . S
C243 H207 0.929 . S
C243 C242 1.362 . S
C243 C244 1.376 . S
C244 H208 0.931 . S
C244 C243 1.376 . S
C244 C245 1.396 . S
C245 C227 1.472 1_655 S
C245 C244 1.396 . S
C245 C246 1.348 . S
C246 H209 0.929 . S
C246 C245 1.348 . S
C246 C247 1.443 . S
C247 H211 0.932 . S
C247 C242 1.388 . S
C247 C246 1.443 . S
H248 C275 0.929 . S
N249 C274 1.433 . S
N249 C280 1.435 . S
N249 C286 1.423 . S
H250 C276 0.930 . S
H251 C279 0.931 . S
H252 C278 0.929 . S
H253 C281 0.930 . S
H254 C282 0.932 . S
H255 C285 0.929 . S
H256 C284 0.931 . S
H257 C287 0.929 . S
H258 C291 0.932 . S
H259 C288 0.931 . S
H260 C290 0.929 . S
H261 C293 0.929 . S
H262 C294 0.930 . S
H263 C296 0.929 . S
H264 C297 0.931 . S
H265 C299 0.899 1_554 S
H266 C300 0.932 . S
H267 C302 0.931 . S
H268 C303 0.929 . S
H269 C305 0.929 . S
H270 C306 0.958 1_554 S
H271 C308 0.929 . S
N272 C292 1.433 . S
N272 C298 1.435 1_554 S
N272 C304 1.423 1_554 S
H273 C309 0.932 . S
C274 N249 1.433 . S
C274 C275 1.363 . S
C274 C279 1.370 . S
C275 H248 0.929 . S
C275 C274 1.363 . S
C275 C276 1.385 . S
C276 H250 0.930 . S
C276 C275 1.385 . S
C276 C277 1.357 1_556 S
C277 C276 1.357 1_554 S
C277 C278 1.406 . S
C278 H252 0.929 . S
C278 C277 1.406 . S
C278 C279 1.391 1_554 S
C279 H251 0.931 . S
C279 C274 1.370 . S
C279 C278 1.391 1_556 S
C280 N249 1.435 . S
C280 C281 1.358 . S
C280 C285 1.371 . S
C281 H253 0.930 . S
C281 C280 1.358 . S
C281 C282 1.405 . S
C282 H254 0.932 . S
C282 C281 1.405 . S
C282 C283 1.383 . S
C283 C282 1.383 . S
C283 C284 1.393 . S
C284 H256 0.931 . S
C284 C283 1.393 . S
C284 C285 1.382 . S
C285 H255 0.929 . S
C285 C280 1.371 . S
C285 C284 1.382 . S
C286 N249 1.423 . S
C286 C287 1.362 . S
C286 C291 1.388 . S
C287 H257 0.929 . S
C287 C286 1.362 . S
C287 C288 1.376 . S
C288 H259 0.931 . S
C288 C287 1.376 . S
C288 C289 1.396 . S
C289 C288 1.396 . S
C289 C290 1.348 . S
C289 C307 1.472 1_545 S
C290 H260 0.929 . S
C290 C289 1.348 . S
C290 C291 1.443 . S
C291 H258 0.932 . S
C291 C286 1.388 . S
C291 C290 1.443 . S
C292 N272 1.433 . S
C292 C293 1.363 . S
C292 C297 1.370 . S
C293 H261 0.929 . S
C293 C292 1.363 . S
C293 C294 1.385 . S
C294 H262 0.930 . S
C294 C293 1.385 . S
C294 C295 1.357 . S
C295 C294 1.357 . S
C295 C296 1.406 . S
C296 H263 0.929 . S
C296 C295 1.406 . S
C296 C297 1.391 . S
C297 H264 0.931 . S
C297 C292 1.370 . S
C297 C296 1.391 . S
C298 N272 1.435 1_556 S
C298 C299 1.370 . S
C298 C303 1.371 . S
C299 H265 0.899 1_556 S
C299 C298 1.370 . S
C299 C300 1.426 . S
C300 H266 0.932 . S
C300 C299 1.426 . S
C300 C301 1.383 . S
C301 C300 1.383 . S
C301 C302 1.393 . S
C302 H267 0.931 . S
C302 C301 1.393 . S
C302 C303 1.382 . S
C303 H268 0.929 . S
C303 C298 1.371 . S
C303 C302 1.382 . S
C304 N272 1.423 1_556 S
C304 C305 1.362 1_556 S
C304 C309 1.388 . S
C305 H269 0.929 . S
C305 C304 1.362 1_554 S
C305 C306 1.376 1_554 S
C306 H270 0.958 1_556 S
C306 C305 1.376 1_556 S
C306 C307 1.396 . S
C307 C289 1.472 1_565 S
C307 C306 1.396 . S
C307 C308 1.348 . S
C308 H271 0.929 . S
C308 C307 1.348 . S
C308 C309 1.443 . S
C309 H273 0.932 . S
C309 C304 1.388 . S
C309 C308 1.443 . S
H310 C337 0.929 . S
N311 C336 1.433 . S
N311 C342 1.435 . S
N311 C348 1.423 . S
H312 C338 0.930 . S
H313 C341 0.931 . S
H314 C340 0.929 . S
H315 C343 0.930 . S
H316 C344 0.932 . S
H317 C347 0.929 . S
H318 C346 0.931 . S
H319 C349 0.929 . S
H320 C353 0.932 . S
H321 C350 0.931 . S
H322 C352 0.929 . S
H323 C355 0.929 . S
H324 C356 0.930 . S
H325 C358 0.929 . S
H326 C359 0.931 . S
H327 C361 0.930 . S
H328 C362 0.932 . S
H329 C364 0.931 . S
H330 C365 0.929 . S
H331 C367 0.929 . S
H332 C368 0.931 . S
H333 C370 0.929 . S
N334 C354 1.433 . S
N334 C360 1.435 . S
N334 C366 1.423 . S
H335 C371 0.932 . S
C336 N311 1.433 . S
C336 C337 1.363 . S
C336 C341 1.370 . S
C337 H310 0.929 . S
C337 C336 1.363 . S
C337 C338 1.385 . S
C338 H312 0.930 . S
C338 C337 1.385 . S
C338 C339 1.357 . S
C339 C338 1.357 . S
C339 C340 1.406 . S
C340 H314 0.929 . S
C340 C339 1.406 . S
C340 C341 1.391 . S
C341 H313 0.931 . S
C341 C336 1.370 . S
C341 C340 1.391 . S
C342 N311 1.435 . S
C342 C343 1.358 . S
C342 C347 1.371 . S
C343 H315 0.930 . S
C343 C342 1.358 . S
C343 C344 1.405 . S
C344 H316 0.932 . S
C344 C343 1.405 . S
C344 C345 1.383 . S
C345 C344 1.383 . S
C345 C346 1.393 . S
C346 H318 0.931 . S
C346 C345 1.393 . S
C346 C347 1.382 . S
C347 H317 0.929 . S
C347 C342 1.371 . S
C347 C346 1.382 . S
C348 N311 1.423 . S
C348 C349 1.362 . S
C348 C353 1.388 . S
C349 H319 0.929 . S
C349 C348 1.362 . S
C349 C350 1.376 . S
C350 H321 0.931 . S
C350 C349 1.376 . S
C350 C351 1.396 . S
C351 C350 1.396 . S
C351 C352 1.348 . S
C351 C369 1.472 . S
C352 H322 0.929 . S
C352 C351 1.348 . S
C352 C353 1.443 . S
C353 H320 0.932 . S
C353 C348 1.388 . S
C353 C352 1.443 . S
C354 N334 1.433 . S
C354 C355 1.363 . S
C354 C359 1.370 . S
C355 H323 0.929 . S
C355 C354 1.363 . S
C355 C356 1.385 . S
C356 H324 0.930 . S
C356 C355 1.385 . S
C356 C357 1.357 . S
C357 C356 1.357 . S
C357 C358 1.406 . S
C358 H325 0.929 . S
C358 C357 1.406 . S
C358 C359 1.391 . S
C359 H326 0.931 . S
C359 C354 1.370 . S
C359 C358 1.391 . S
C360 N334 1.435 . S
C360 C361 1.358 . S
C360 C365 1.371 . S
C361 H327 0.930 . S
C361 C360 1.358 . S
C361 C362 1.405 . S
C362 H328 0.932 . S
C362 C361 1.405 . S
C362 C363 1.383 . S
C363 C362 1.383 . S
C363 C364 1.393 . S
C364 H329 0.931 . S
C364 C363 1.393 . S
C364 C365 1.382 . S
C365 H330 0.929 . S
C365 C360 1.371 . S
C365 C364 1.382 . S
C366 N334 1.423 . S
C366 C367 1.362 . S
C366 C371 1.388 . S
C367 H331 0.929 . S
C367 C366 1.362 . S
C367 C368 1.376 . S
C368 H332 0.931 . S
C368 C367 1.376 . S
C368 C369 1.396 . S
C369 C351 1.472 . S
C369 C368 1.396 . S
C369 C370 1.348 . S
C370 H333 0.929 . S
C370 C369 1.348 . S
C370 C371 1.443 . S
C371 H335 0.932 . S
C371 C366 1.388 . S
C371 C370 1.443 . S
Zn372 O375 2.031 . S
Zn372 O377 2.049 . S
Zn372 O382 2.067 . S
Zn373 O374 1.962 . S
Zn373 O376 1.986 . S
Zn373 O378 1.996 . S
Zn373 O381 1.943 . S
O374 Zn373 1.962 . S
O374 C379 1.254 . S
O375 Zn372 2.031 . S
O375 C379 1.269 . S
O376 Zn373 1.986 . S
O376 C383 1.262 . S
O377 Zn372 2.049 . S
O377 C385 1.260 . S
O378 Zn373 1.996 . S
O378 C385 1.257 . S
C379 O374 1.254 . S
C379 O375 1.269 . S
C380 O381 1.249 . S
C380 O382 1.270 . S
O381 Zn373 1.943 . S
O381 C380 1.249 . S
O382 Zn372 2.067 . S
O382 C380 1.270 . S
C383 O376 1.262 . S
C383 O384 1.232 . S
O384 C383 1.232 . S
C385 O377 1.260 . S
C385 O378 1.257 . S
Zn386 O389 2.031 . S
Zn386 O391 2.049 . S
Zn386 O396 2.067 . S
Zn387 O388 1.962 . S
Zn387 O390 1.986 . S
Zn387 O392 1.996 . S
Zn387 O395 1.943 . S
O388 Zn387 1.962 . S
O388 C393 1.254 . S
O389 Zn386 2.031 . S
O389 C393 1.269 . S
O390 Zn387 1.986 . S
O390 C397 1.262 . S
O391 Zn386 2.049 . S
O391 C399 1.260 . S
O392 Zn387 1.996 . S
O392 C399 1.257 . S
C393 O388 1.254 . S
C393 O389 1.269 . S
C394 O395 1.249 . S
C394 O396 1.270 . S
O395 Zn387 1.943 . S
O395 C394 1.249 . S
O396 Zn386 2.067 . S
O396 C394 1.270 . S
C397 O390 1.262 . S
C397 O398 1.232 . S
O398 C397 1.232 . S
C399 O391 1.260 . S
C399 O392 1.257 . S
Zn400 O403 2.031 . S
Zn400 O405 2.049 . S
Zn400 O410 2.067 . S
Zn401 O402 1.962 . S
Zn401 O404 1.986 . S
Zn401 O406 1.996 . S
Zn401 O409 1.943 . S
O402 Zn401 1.962 . S
O402 C407 1.254 . S
O403 Zn400 2.031 . S
O403 C407 1.269 . S
O404 Zn401 1.986 . S
O404 C411 1.262 . S
O405 Zn400 2.049 . S
O405 C413 1.260 . S
O406 Zn401 1.996 . S
O406 C413 1.257 . S
C407 O402 1.254 . S
C407 O403 1.269 . S
C408 O409 1.249 . S
C408 O410 1.270 . S
O409 Zn401 1.943 . S
O409 C408 1.249 . S
O410 Zn400 2.067 . S
O410 C408 1.270 . S
C411 O404 1.262 . S
C411 O412 1.232 . S
O412 C411 1.232 . S
C413 O405 1.260 . S
C413 O406 1.257 . S
Zn414 O417 2.031 . S
Zn414 O419 2.049 . S
Zn414 O424 2.067 . S
Zn415 O416 1.962 . S
Zn415 O418 1.986 . S
Zn415 O420 1.996 . S
Zn415 O423 1.943 . S
O416 Zn415 1.962 . S
O416 C421 1.254 . S
O417 Zn414 2.031 . S
O417 C421 1.269 . S
O418 Zn415 1.986 . S
O418 C425 1.262 . S
O419 Zn414 2.049 . S
O419 C427 1.260 . S
O420 Zn415 1.996 . S
O420 C427 1.257 . S
C421 O416 1.254 . S
C421 O417 1.269 . S
C422 O423 1.249 . S
C422 O424 1.270 . S
O423 Zn415 1.943 . S
O423 C422 1.249 . S
O424 Zn414 2.067 . S
O424 C422 1.270 . S
C425 O418 1.262 . S
C425 O426 1.232 . S
O426 C425 1.232 . S
C427 O419 1.260 . S
C427 O420 1.257 . S
Zn428 O431 2.031 . S
Zn428 O433 2.049 . S
Zn428 O438 2.067 . S
Zn429 O430 1.962 . S
Zn429 O432 1.986 . S
Zn429 O434 1.996 . S
Zn429 O437 1.943 . S
O430 Zn429 1.962 . S
O430 C435 1.254 . S
O431 Zn428 2.031 . S
O431 C435 1.269 . S
O432 Zn429 1.986 . S
O432 C439 1.262 . S
O433 Zn428 2.049 . S
O433 C441 1.260 . S
O434 Zn429 1.996 . S
O434 C441 1.257 . S
C435 O430 1.254 . S
C435 O431 1.269 . S
C436 O437 1.249 . S
C436 O438 1.270 . S
O437 Zn429 1.943 . S
O437 C436 1.249 . S
O438 Zn428 2.067 . S
O438 C436 1.270 . S
C439 O432 1.262 . S
C439 O440 1.232 . S
O440 C439 1.232 . S
C441 O433 1.260 . S
C441 O434 1.257 . S
Zn442 O445 2.031 . S
Zn442 O447 2.049 . S
Zn442 O452 2.067 . S
Zn443 O444 1.962 . S
Zn443 O446 1.986 . S
Zn443 O448 1.996 . S
Zn443 O451 1.943 . S
O444 Zn443 1.962 . S
O444 C449 1.254 . S
O445 Zn442 2.031 . S
O445 C449 1.269 . S
O446 Zn443 1.986 . S
O446 C453 1.262 . S
O447 Zn442 2.049 . S
O447 C455 1.260 . S
O448 Zn443 1.996 . S
O448 C455 1.257 . S
C449 O444 1.254 . S
C449 O445 1.269 . S
C450 O451 1.249 . S
C450 O452 1.270 . S
O451 Zn443 1.943 . S
O451 C450 1.249 . S
O452 Zn442 2.067 . S
O452 C450 1.270 . S
C453 O446 1.262 . S
C453 O454 1.232 . S
O454 C453 1.232 . S
C455 O447 1.260 . S
C455 O448 1.257 . S
H456 C462 0.930 . S
H457 C465 0.930 . S
H458 C466 0.930 . S
H459 C467 0.930 . S
H460 C470 0.930 . S
H461 C471 0.930 . S
C462 H456 0.930 . S
C462 C463 1.355 . S
C462 C464 1.415 . S
C463 C462 1.355 . S
C463 C465 1.419 . S
C464 C462 1.415 . S
C464 C469 1.425 . S
C464 C471 1.409 . S
C465 H457 0.930 . S
C465 C463 1.419 . S
C465 C466 1.362 . S
C466 H458 0.930 . S
C466 C465 1.362 . S
C466 C469 1.409 . S
C467 H459 0.930 . S
C467 C468 1.355 . S
C467 C469 1.415 . S
C468 C467 1.355 . S
C468 C470 1.419 . S
C469 C464 1.425 . S
C469 C466 1.409 . S
C469 C467 1.415 . S
C470 H460 0.930 . S
C470 C468 1.419 . S
C470 C471 1.362 . S
C471 H461 0.930 . S
C471 C464 1.409 . S
C471 C470 1.362 . S
H472 C478 0.930 . S
H473 C481 0.930 . S
H474 C482 0.930 . S
H475 C483 0.930 . S
H476 C486 0.930 . S
H477 C487 0.930 . S
C478 H472 0.930 . S
C478 C479 1.355 . S
C478 C480 1.415 . S
C479 C478 1.355 . S
C479 C481 1.419 . S
C480 C478 1.415 . S
C480 C485 1.425 . S
C480 C487 1.409 . S
C481 H473 0.930 . S
C481 C479 1.419 . S
C481 C482 1.362 . S
C482 H474 0.930 . S
C482 C481 1.362 . S
C482 C485 1.409 . S
C483 H475 0.930 . S
C483 C484 1.355 . S
C483 C485 1.415 . S
C484 C483 1.355 . S
C484 C486 1.419 . S
C485 C480 1.425 . S
C485 C482 1.409 . S
C485 C483 1.415 . S
C486 H476 0.930 . S
C486 C484 1.419 . S
C486 C487 1.362 . S
C487 H477 0.930 . S
C487 C480 1.409 . S
C487 C486 1.362 . S
H488 C494 0.930 . S
H489 C497 0.930 . S
H490 C498 0.930 . S
H491 C499 0.930 . S
H492 C502 0.930 . S
H493 C503 0.930 . S
C494 H488 0.930 . S
C494 C495 1.355 . S
C494 C496 1.415 . S
C495 C494 1.355 . S
C495 C497 1.419 . S
C496 C494 1.415 . S
C496 C501 1.425 . S
C496 C503 1.409 . S
C497 H489 0.930 . S
C497 C495 1.419 . S
C497 C498 1.362 . S
C498 H490 0.930 . S
C498 C497 1.362 . S
C498 C501 1.409 . S
C499 H491 0.930 . S
C499 C500 1.355 . S
C499 C501 1.415 . S
C500 C499 1.355 . S
C500 C502 1.419 . S
C501 C496 1.425 . S
C501 C498 1.409 . S
C501 C499 1.415 . S
C502 H492 0.930 . S
C502 C500 1.419 . S
C502 C503 1.362 . S
C503 H493 0.930 . S
C503 C496 1.409 . S
C503 C502 1.362 . S
H504 C510 0.930 . S
H505 C513 0.930 . S
H506 C514 0.930 . S
H507 C515 0.930 . S
H508 C518 0.930 . S
H509 C519 0.930 . S
C510 H504 0.930 . S
C510 C511 1.355 . S
C510 C512 1.415 . S
C511 C510 1.355 . S
C511 C513 1.419 . S
C512 C510 1.415 . S
C512 C517 1.425 . S
C512 C519 1.409 . S
C513 H505 0.930 . S
C513 C511 1.419 . S
C513 C514 1.362 . S
C514 H506 0.930 . S
C514 C513 1.362 . S
C514 C517 1.409 . S
C515 H507 0.930 . S
C515 C516 1.355 . S
C515 C517 1.415 . S
C516 C515 1.355 . S
C516 C518 1.419 . S
C517 C512 1.425 . S
C517 C514 1.409 . S
C517 C515 1.415 . S
C518 H508 0.930 . S
C518 C516 1.419 . S
C518 C519 1.362 . S
C519 H509 0.930 . S
C519 C512 1.409 . S
C519 C518 1.362 . S
H520 C526 0.930 . S
H521 C529 0.930 . S
H522 C530 0.930 . S
H523 C531 0.930 . S
H524 C534 0.930 . S
H525 C535 0.930 . S
C526 H520 0.930 . S
C526 C527 1.355 . S
C526 C528 1.415 . S
C527 C526 1.355 . S
C527 C529 1.419 . S
C528 C526 1.415 . S
C528 C533 1.425 . S
C528 C535 1.409 . S
C529 H521 0.930 . S
C529 C527 1.419 . S
C529 C530 1.362 . S
C530 H522 0.930 . S
C530 C529 1.362 . S
C530 C533 1.409 . S
C531 H523 0.930 . S
C531 C532 1.355 . S
C531 C533 1.415 . S
C532 C531 1.355 . S
C532 C534 1.419 . S
C533 C528 1.425 . S
C533 C530 1.409 . S
C533 C531 1.415 . S
C534 H524 0.930 . S
C534 C532 1.419 . S
C534 C535 1.362 . S
C535 H525 0.930 . S
C535 C528 1.409 . S
C535 C534 1.362 . S
H536 C542 0.930 . S
H537 C545 0.930 . S
H538 C546 0.930 . S
H539 C547 0.930 . S
H540 C550 0.930 . S
H541 C551 0.930 . S
C542 H536 0.930 . S
C542 C543 1.355 . S
C542 C544 1.415 . S
C543 C542 1.355 . S
C543 C545 1.419 . S
C544 C542 1.415 . S
C544 C549 1.425 . S
C544 C551 1.409 . S
C545 H537 0.930 . S
C545 C543 1.419 . S
C545 C546 1.362 . S
C546 H538 0.930 . S
C546 C545 1.362 . S
C546 C549 1.409 . S
C547 H539 0.930 . S
C547 C548 1.355 . S
C547 C549 1.415 . S
C548 C547 1.355 . S
C548 C550 1.419 . S
C549 C544 1.425 . S
C549 C546 1.409 . S
C549 C547 1.415 . S
C550 H540 0.930 . S
C550 C548 1.419 . S
C550 C551 1.362 . S
C551 H541 0.930 . S
C551 C544 1.409 . S
C551 C550 1.362 . S
H552 C558 0.930 . S
H553 C561 0.930 . S
H554 C562 0.930 . S
H555 C563 0.930 . S
H556 C566 0.930 . S
H557 C567 0.930 . S
C558 H552 0.930 . S
C558 C559 1.355 . S
C558 C560 1.415 . S
C559 C558 1.355 . S
C559 C561 1.419 . S
C560 C558 1.415 . S
C560 C565 1.425 . S
C560 C567 1.409 . S
C561 H553 0.930 . S
C561 C559 1.419 . S
C561 C562 1.362 . S
C562 H554 0.930 . S
C562 C561 1.362 . S
C562 C565 1.409 . S
C563 H555 0.930 . S
C563 C564 1.355 . S
C563 C565 1.415 . S
C564 C563 1.355 . S
C564 C566 1.419 . S
C565 C560 1.425 . S
C565 C562 1.409 . S
C565 C563 1.415 . S
C566 H556 0.930 . S
C566 C564 1.419 . S
C566 C567 1.362 . S
C567 H557 0.930 . S
C567 C560 1.409 . S
C567 C566 1.362 . S
H568 C574 0.930 . S
H569 C577 0.930 . S
H570 C578 0.930 . S
H571 C579 0.930 . S
H572 C582 0.930 . S
H573 C583 0.930 . S
C574 H568 0.930 . S
C574 C575 1.355 . S
C574 C576 1.415 . S
C575 C574 1.355 . S
C575 C577 1.419 . S
C576 C574 1.415 . S
C576 C581 1.425 . S
C576 C583 1.409 . S
C577 H569 0.930 . S
C577 C575 1.419 . S
C577 C578 1.362 . S
C578 H570 0.930 . S
C578 C577 1.362 . S
C578 C581 1.409 . S
C579 H571 0.930 . S
C579 C580 1.355 . S
C579 C581 1.415 . S
C580 C579 1.355 . S
C580 C582 1.419 . S
C581 C576 1.425 . S
C581 C578 1.409 . S
C581 C579 1.415 . S
C582 H572 0.930 . S
C582 C580 1.419 . S
C582 C583 1.362 . S
C583 H573 0.930 . S
C583 C576 1.409 . S
C583 C582 1.362 . S
H584 C590 0.930 . S
H585 C593 0.930 . S
H586 C594 0.930 . S
H587 C595 0.930 . S
H588 C598 0.930 . S
H589 C599 0.930 . S
C590 H584 0.930 . S
C590 C591 1.355 . S
C590 C592 1.415 . S
C591 C590 1.355 . S
C591 C593 1.419 . S
C592 C590 1.415 . S
C592 C597 1.425 . S
C592 C599 1.409 . S
C593 H585 0.930 . S
C593 C591 1.419 . S
C593 C594 1.362 . S
C594 H586 0.930 . S
C594 C593 1.362 . S
C594 C597 1.409 . S
C595 H587 0.930 . S
C595 C596 1.355 . S
C595 C597 1.415 . S
C596 C595 1.355 . S
C596 C598 1.419 . S
C597 C592 1.425 . S
C597 C594 1.409 . S
C597 C595 1.415 . S
C598 H588 0.930 . S
C598 C596 1.419 . S
C598 C599 1.362 . S
C599 H589 0.930 . S
C599 C592 1.409 . S
C599 C598 1.362 . S
H600 C606 0.930 . S
H601 C609 0.930 . S
H602 C610 0.930 . S
H603 C611 0.930 . S
H604 C614 0.930 . S
H605 C615 0.930 . S
C606 H600 0.930 . S
C606 C607 1.355 . S
C606 C608 1.415 . S
C607 C606 1.355 . S
C607 C609 1.419 . S
C608 C606 1.415 . S
C608 C613 1.425 . S
C608 C615 1.409 . S
C609 H601 0.930 . S
C609 C607 1.419 . S
C609 C610 1.362 . S
C610 H602 0.930 . S
C610 C609 1.362 . S
C610 C613 1.409 . S
C611 H603 0.930 . S
C611 C612 1.355 . S
C611 C613 1.415 . S
C612 C611 1.355 . S
C612 C614 1.419 . S
C613 C608 1.425 . S
C613 C610 1.409 . S
C613 C611 1.415 . S
C614 H604 0.930 . S
C614 C612 1.419 . S
C614 C615 1.362 . S
C615 H605 0.930 . S
C615 C608 1.409 . S
C615 C614 1.362 . S
H616 C622 0.930 . S
H617 C625 0.930 . S
H618 C626 0.930 . S
H619 C627 0.930 . S
H620 C630 0.930 . S
H621 C631 0.930 . S
C622 H616 0.930 . S
C622 C623 1.355 . S
C622 C624 1.415 . S
C623 C622 1.355 . S
C623 C625 1.419 . S
C624 C622 1.415 . S
C624 C629 1.425 . S
C624 C631 1.409 . S
C625 H617 0.930 . S
C625 C623 1.419 . S
C625 C626 1.362 . S
C626 H618 0.930 . S
C626 C625 1.362 . S
C626 C629 1.409 . S
C627 H619 0.930 . S
C627 C628 1.355 . S
C627 C629 1.415 . S
C628 C627 1.355 . S
C628 C630 1.419 . S
C629 C624 1.425 . S
C629 C626 1.409 . S
C629 C627 1.415 . S
C630 H620 0.930 . S
C630 C628 1.419 . S
C630 C631 1.362 . S
C631 H621 0.930 . S
C631 C624 1.409 . S
C631 C630 1.362 . S
H632 C638 0.930 . S
H633 C641 0.930 . S
H634 C642 0.930 . S
H635 C643 0.930 . S
H636 C646 0.930 . S
H637 C647 0.930 . S
C638 H632 0.930 . S
C638 C639 1.355 . S
C638 C640 1.415 . S
C639 C638 1.355 . S
C639 C641 1.419 . S
C640 C638 1.415 . S
C640 C645 1.425 . S
C640 C647 1.409 . S
C641 H633 0.930 . S
C641 C639 1.419 . S
C641 C642 1.362 . S
C642 H634 0.930 . S
C642 C641 1.362 . S
C642 C645 1.409 . S
C643 H635 0.930 . S
C643 C644 1.355 . S
C643 C645 1.415 . S
C644 C643 1.355 . S
C644 C646 1.419 . S
C645 C640 1.425 . S
C645 C642 1.409 . S
C645 C643 1.415 . S
C646 H636 0.930 . S
C646 C644 1.419 . S
C646 C647 1.362 . S
C647 H637 0.930 . S
C647 C640 1.409 . S
C647 C646 1.362 . S
H648 C654 0.930 . S
H649 C657 0.930 . S
H650 C658 0.930 . S
H651 C659 0.930 . S
H652 C662 0.930 . S
H653 C663 0.930 . S
C654 H648 0.930 . S
C654 C655 1.355 . S
C654 C656 1.415 . S
C655 C654 1.355 . S
C655 C657 1.419 . S
C656 C654 1.415 . S
C656 C661 1.425 . S
C656 C663 1.409 . S
C657 H649 0.930 . S
C657 C655 1.419 . S
C657 C658 1.362 . S
C658 H650 0.930 . S
C658 C657 1.362 . S
C658 C661 1.409 . S
C659 H651 0.930 . S
C659 C660 1.355 . S
C659 C661 1.415 . S
C660 C659 1.355 . S
C660 C662 1.419 . S
C661 C656 1.425 . S
C661 C658 1.409 . S
C661 C659 1.415 . S
C662 H652 0.930 . S
C662 C660 1.419 . S
C662 C663 1.362 . S
C663 H653 0.930 . S
C663 C656 1.409 . S
C663 C662 1.362 . S
H664 C670 0.930 . S
H665 C673 0.930 . S
H666 C674 0.930 . S
H667 C675 0.930 . S
H668 C678 0.930 . S
H669 C679 0.930 . S
C670 H664 0.930 . S
C670 C671 1.355 . S
C670 C672 1.415 . S
C671 C670 1.355 . S
C671 C673 1.419 . S
C672 C670 1.415 . S
C672 C677 1.425 . S
C672 C679 1.409 . S
C673 H665 0.930 . S
C673 C671 1.419 . S
C673 C674 1.362 . S
C674 H666 0.930 . S
C674 C673 1.362 . S
C674 C677 1.409 . S
C675 H667 0.930 . S
C675 C676 1.355 . S
C675 C677 1.415 . S
C676 C675 1.355 . S
C676 C678 1.419 . S
C677 C672 1.425 . S
C677 C674 1.409 . S
C677 C675 1.415 . S
C678 H668 0.930 . S
C678 C676 1.419 . S
C678 C679 1.362 . S
C679 H669 0.930 . S
C679 C672 1.409 . S
C679 C678 1.362 . S
H680 C686 0.930 . S
H681 C689 0.930 . S
H682 C690 0.930 . S
H683 C691 0.930 . S
H684 C694 0.930 . S
H685 C695 0.930 . S
C686 H680 0.930 . S
C686 C687 1.355 . S
C686 C688 1.415 . S
C687 C686 1.355 . S
C687 C689 1.419 . S
C688 C686 1.415 . S
C688 C693 1.425 . S
C688 C695 1.409 . S
C689 H681 0.930 . S
C689 C687 1.419 . S
C689 C690 1.362 . S
C690 H682 0.930 . S
C690 C689 1.362 . S
C690 C693 1.409 . S
C691 H683 0.930 . S
C691 C692 1.355 . S
C691 C693 1.415 . S
C692 C691 1.355 . S
C692 C694 1.419 . S
C693 C688 1.425 . S
C693 C690 1.409 . S
C693 C691 1.415 . S
C694 H684 0.930 . S
C694 C692 1.419 . S
C694 C695 1.362 . S
C695 H685 0.930 . S
C695 C688 1.409 . S
C695 C694 1.362 . S
H696 C702 0.930 . S
H697 C705 0.930 . S
H698 C706 0.930 . S
H699 C707 0.930 . S
H700 C710 0.930 . S
H701 C711 0.930 . S
C702 H696 0.930 . S
C702 C703 1.355 . S
C702 C704 1.415 . S
C703 C702 1.355 . S
C703 C705 1.419 . S
C704 C702 1.415 . S
C704 C709 1.425 . S
C704 C711 1.409 . S
C705 H697 0.930 . S
C705 C703 1.419 . S
C705 C706 1.362 . S
C706 H698 0.930 . S
C706 C705 1.362 . S
C706 C709 1.409 . S
C707 H699 0.930 . S
C707 C708 1.355 1_556 S
C707 C709 1.415 . S
C708 C707 1.355 1_554 S
C708 C710 1.419 . S
C709 C704 1.425 . S
C709 C706 1.409 . S
C709 C707 1.415 . S
C710 H700 0.930 . S
C710 C708 1.419 . S
C710 C711 1.362 1_554 S
C711 H701 0.930 . S
C711 C704 1.409 . S
C711 C710 1.362 1_556 S
H712 C718 0.930 . S
H713 C721 0.930 . S
H714 C722 0.930 . S
H715 C723 0.930 . S
H716 C726 0.930 . S
H717 C727 0.930 . S
C718 H712 0.930 . S
C718 C719 1.355 . S
C718 C720 1.415 . S
C719 C718 1.355 . S
C719 C721 1.419 . S
C720 C718 1.415 . S
C720 C725 1.425 . S
C720 C727 1.409 . S
C721 H713 0.930 . S
C721 C719 1.419 . S
C721 C722 1.362 . S
C722 H714 0.930 . S
C722 C721 1.362 . S
C722 C725 1.409 . S
C723 H715 0.930 . S
C723 C724 1.355 . S
C723 C725 1.415 . S
C724 C723 1.355 . S
C724 C726 1.419 . S
C725 C720 1.425 . S
C725 C722 1.409 . S
C725 C723 1.415 . S
C726 H716 0.930 . S
C726 C724 1.419 . S
C726 C727 1.362 . S
C727 H717 0.930 . S
C727 C720 1.409 . S
C727 C726 1.362 . S
H728 C734 0.930 . S
H729 C737 0.930 . S
H730 C738 0.930 . S
H731 C739 0.930 . S
H732 C742 0.930 . S
H733 C743 0.930 . S
C734 H728 0.930 . S
C734 C735 1.355 . S
C734 C736 1.415 . S
C735 C734 1.355 . S
C735 C737 1.419 . S
C736 C734 1.415 . S
C736 C741 1.425 . S
C736 C743 1.409 . S
C737 H729 0.930 . S
C737 C735 1.419 . S
C737 C738 1.362 . S
C738 H730 0.930 . S
C738 C737 1.362 . S
C738 C741 1.409 . S
C739 H731 0.930 . S
C739 C740 1.355 . S
C739 C741 1.415 . S
C740 C739 1.355 . S
C740 C742 1.419 . S
C741 C736 1.425 . S
C741 C738 1.409 . S
C741 C739 1.415 . S
C742 H732 0.930 . S
C742 C740 1.419 . S
C742 C743 1.362 . S
C743 H733 0.930 . S
C743 C736 1.409 . S
C743 C742 1.362 . S
H744 C750 0.930 . S
H745 C753 0.930 . S
H746 C754 0.930 . S
H747 C755 0.930 . S
H748 C758 0.930 . S
H749 C759 0.930 . S
C750 H744 0.930 . S
C750 C751 1.355 . S
C750 C752 1.415 . S
C751 C750 1.355 . S
C751 C753 1.419 . S
C752 C750 1.415 . S
C752 C757 1.425 . S
C752 C759 1.409 . S
C753 H745 0.930 . S
C753 C751 1.419 . S
C753 C754 1.362 . S
C754 H746 0.930 . S
C754 C753 1.362 . S
C754 C757 1.409 . S
C755 H747 0.930 . S
C755 C756 1.355 . S
C755 C757 1.415 . S
C756 C755 1.355 . S
C756 C758 1.419 . S
C757 C752 1.425 . S
C757 C754 1.409 . S
C757 C755 1.415 . S
C758 H748 0.930 . S
C758 C756 1.419 . S
C758 C759 1.362 . S
C759 H749 0.930 . S
C759 C752 1.409 . S
C759 C758 1.362 . S
H760 C766 0.930 . S
H761 C769 0.930 . S
H762 C770 0.930 . S
H763 C771 0.930 . S
H764 C774 0.930 . S
H765 C775 0.930 . S
C766 H760 0.930 . S
C766 C767 1.355 . S
C766 C768 1.415 . S
C767 C766 1.355 . S
C767 C769 1.419 . S
C768 C766 1.415 . S
C768 C773 1.425 . S
C768 C775 1.409 . S
C769 H761 0.930 . S
C769 C767 1.419 . S
C769 C770 1.362 . S
C770 H762 0.930 . S
C770 C769 1.362 . S
C770 C773 1.409 . S
C771 H763 0.930 . S
C771 C772 1.355 . S
C771 C773 1.415 . S
C772 C771 1.355 . S
C772 C774 1.419 . S
C773 C768 1.425 . S
C773 C770 1.409 . S
C773 C771 1.415 . S
C774 H764 0.930 . S
C774 C772 1.419 . S
C774 C775 1.362 . S
C775 H765 0.930 . S
C775 C768 1.409 . S
C775 C774 1.362 . S
H776 C782 0.930 . S
H777 C785 0.930 . S
H778 C786 0.930 . S
H779 C787 0.930 . S
H780 C790 0.930 . S
H781 C791 0.930 . S
C782 H776 0.930 . S
C782 C783 1.355 . S
C782 C784 1.415 . S
C783 C782 1.355 . S
C783 C785 1.419 . S
C784 C782 1.415 . S
C784 C789 1.425 . S
C784 C791 1.409 . S
C785 H777 0.930 . S
C785 C783 1.419 . S
C785 C786 1.362 . S
C786 H778 0.930 . S
C786 C785 1.362 . S
C786 C789 1.409 . S
C787 H779 0.930 . S
C787 C788 1.355 . S
C787 C789 1.415 . S
C788 C787 1.355 . S
C788 C790 1.419 . S
C789 C784 1.425 . S
C789 C786 1.409 . S
C789 C787 1.415 . S
C790 H780 0.930 . S
C790 C788 1.419 . S
C790 C791 1.362 . S
C791 H781 0.930 . S
C791 C784 1.409 . S
C791 C790 1.362 . S
H792 C798 0.930 . S
H793 C801 0.930 . S
H794 C802 0.930 . S
H795 C803 0.930 . S
H796 C806 0.930 . S
H797 C807 0.930 . S
C798 H792 0.930 . S
C798 C799 1.355 . S
C798 C800 1.415 . S
C799 C798 1.355 . S
C799 C801 1.419 . S
C800 C798 1.415 . S
C800 C805 1.425 . S
C800 C807 1.409 . S
C801 H793 0.930 . S
C801 C799 1.419 . S
C801 C802 1.362 . S
C802 H794 0.930 . S
C802 C801 1.362 . S
C802 C805 1.409 . S
C803 H795 0.930 . S
C803 C804 1.355 . S
C803 C805 1.415 . S
C804 C803 1.355 . S
C804 C806 1.419 . S
C805 C800 1.425 . S
C805 C802 1.409 . S
C805 C803 1.415 . S
C806 H796 0.930 . S
C806 C804 1.419 . S
C806 C807 1.362 . S
C807 H797 0.930 . S
C807 C800 1.409 . S
C807 C806 1.362 . S
H808 C814 0.930 . S
H809 C817 0.930 . S
H810 C818 0.930 . S
H811 C819 0.930 . S
H812 C822 0.930 . S
H813 C823 0.930 . S
C814 H808 0.930 . S
C814 C815 1.355 . S
C814 C816 1.415 . S
C815 C814 1.355 . S
C815 C817 1.419 . S
C816 C814 1.415 . S
C816 C821 1.425 1_554 S
C816 C823 1.409 . S
C817 H809 0.930 . S
C817 C815 1.419 . S
C817 C818 1.362 1_554 S
C818 H810 0.930 . S
C818 C817 1.362 1_556 S
C818 C821 1.409 . S
C819 H811 0.930 . S
C819 C820 1.355 . S
C819 C821 1.415 . S
C820 C819 1.355 . S
C820 C822 1.419 . S
C821 C816 1.425 1_556 S
C821 C818 1.409 . S
C821 C819 1.415 . S
C822 H812 0.930 . S
C822 C820 1.419 . S
C822 C823 1.362 1_556 S
C823 H813 0.930 . S
C823 C816 1.409 . S
C823 C822 1.362 1_554 S
H824 C830 0.930 . S
H825 C833 0.930 . S
H826 C834 0.930 . S
H827 C835 0.930 . S
H828 C838 0.930 . S
H829 C839 0.930 . S
C830 H824 0.930 . S
C830 C831 1.355 . S
C830 C832 1.415 . S
C831 C830 1.355 . S
C831 C833 1.419 . S
C832 C830 1.415 . S
C832 C837 1.425 . S
C832 C839 1.409 . S
C833 H825 0.930 . S
C833 C831 1.419 . S
C833 C834 1.362 . S
C834 H826 0.930 . S
C834 C833 1.362 . S
C834 C837 1.409 . S
C835 H827 0.930 . S
C835 C836 1.355 . S
C835 C837 1.415 . S
C836 C835 1.355 . S
C836 C838 1.419 . S
C837 C832 1.425 . S
C837 C834 1.409 . S
C837 C835 1.415 . S
C838 H828 0.930 . S
C838 C836 1.419 . S
C838 C839 1.362 . S
C839 H829 0.930 . S
C839 C832 1.409 . S
C839 C838 1.362 . S
C468 C449 1.631 . S
C463 C29 1.557 . S
C479 C115 1.442 . S
C484 C383 1.393 . S
C495 C153 1.428 . S
C500 C397 1.433 . S
C511 C239 1.467 . S
C516 C411 1.422 . S
C532 C425 1.568 . S
C527 C301 1.576 . S
C543 C339 1.756 . S
C548 C435 1.847 . S
C559 C91 1.580 . S
C564 C393 1.627 . S
C575 C177 1.596 . S
C580 C407 1.628 . S
C591 C215 1.604 . S
C596 C421 1.661 . S
C612 C439 1.837 . S
C607 C277 1.761 . S
C628 C453 1.537 . S
C623 C363 1.517 . S
C644 C379 1.513 . S
C639 C53 1.523 . S
C655 C35 1.540 . S
C660 C394 1.496 . S
C671 C109 1.463 . S
C676 C408 1.526 . S
C692 C422 1.517 . S
C687 C159 1.536 . S
C703 C233 1.571 . S
C708 C441 1.605 . S
C724 C455 1.471 . S
C719 C295 1.353 . S
C740 C380 1.386 . S
C735 C345 1.401 . S
C756 C450 1.390 . S
C751 C97 1.414 . S
C767 C171 1.304 . S
C772 C385 1.363 . S
C788 C399 1.457 . S
C783 C221 1.449 . S
C799 C283 1.313 . S
C804 C413 1.336 . S
C815 C357 1.436 . S
C820 C427 1.469 . S
C831 C47 1.655 . S
C836 C436 1.700 . S
