# Generated by pormake.
# Topology nom, (4,4)-cn, num edge types: 1
# Building blocks:
#     Node 0, Type 0, BuildingBlock: AZAVOO_clean_linker_0, # of connection points: 4
#     Node 1, Type 0, BuildingBlock: AZAVOO_clean_linker_0, # of connection points: 4
#     Node 2, Type 0, BuildingBlock: AZAVOO_clean_linker_0, # of connection points: 4
#     Node 3, Type 0, BuildingBlock: AZAVOO_clean_linker_0, # of connection points: 4
#     Node 4, Type 0, BuildingBlock: AZAVOO_clean_linker_0, # of connection points: 4
#     Node 5, Type 0, BuildingBlock: AZAVOO_clean_linker_0, # of connection points: 4
#     Node 6, Type 1, BuildingBlock: TATPOV_clean_sbu_0, # of connection points: 4
#     Node 7, Type 1, BuildingBlock: TATPOV_clean_sbu_0, # of connection points: 4
#     Node 8, Type 1, BuildingBlock: TATPOV_clean_sbu_0, # of connection points: 4
#     Node 9, Type 1, BuildingBlock: TATPOV_clean_sbu_0, # of connection points: 4
#     Node 10, Type 1, BuildingBlock: TATPOV_clean_sbu_0, # of connection points: 4
#     Node 11, Type 1, BuildingBlock: TATPOV_clean_sbu_0, # of connection points: 4
#     Edge 12, Type (0, 1), None
#     Edge 13, Type (0, 1), None
#     Edge 14, Type (0, 1), None
#     Edge 15, Type (0, 1), None
#     Edge 16, Type (0, 1), None
#     Edge 17, Type (0, 1), None
#     Edge 18, Type (0, 1), None
#     Edge 19, Type (0, 1), None
#     Edge 20, Type (0, 1), None
#     Edge 21, Type (0, 1), None
#     Edge 22, Type (0, 1), None
#     Edge 23, Type (0, 1), None
#     Edge 24, Type (0, 1), None
#     Edge 25, Type (0, 1), None
#     Edge 26, Type (0, 1), None
#     Edge 27, Type (0, 1), None
#     Edge 28, Type (0, 1), None
#     Edge 29, Type (0, 1), None
#     Edge 30, Type (0, 1), None
#     Edge 31, Type (0, 1), None
#     Edge 32, Type (0, 1), None
#     Edge 33, Type (0, 1), None
#     Edge 34, Type (0, 1), None
#     Edge 35, Type (0, 1), None
# Relax obj value: 0.202
# Max RMSD: 0.236
# Mean RMSD: 0.173
data_MOF--net-nom--node1-TATPOV_clean_sbu_0--node2-AZAVOO_clean_linker_0--edge1-none
_symmetry_space_group_name_H-M    P1
_symmetry_Int_Tables_number       1
_symmetry_cell_setting            triclinic
loop_
_symmetry_equiv_pos_as_xyz
'x, y, z'
_cell_length_a     25.645469
_cell_length_b     27.083043
_cell_length_c     31.260023
_cell_angle_alpha  91.060698
_cell_angle_beta   89.718556
_cell_angle_gamma 121.40695
loop_
_atom_site_label
_atom_site_type_symbol
_atom_site_fract_x
_atom_site_fract_y
_atom_site_fract_z
_atom_type_partial_charge
H0 H 0.13706 0.36783 0.01184 0.0
H1 H 0.47913 0.75674 0.38518 0.0
H2 H 0.97873 0.37582 0.21127 0.0
H3 H 0.91895 0.36011 0.14584 0.0
H4 H 0.96654 0.53833 0.15248 0.0
H5 H 0.02594 0.5537 0.21683 0.0
H6 H 0.1309 0.4046 0.19647 0.0
H7 H 0.13402 0.37467 0.12261 0.0
H8 H 0.09744 0.50357 0.07719 0.0
H9 H 0.09568 0.53376 0.15071 0.0
H10 H 0.28673 0.53952 0.23569 0.0
H11 H 0.37745 0.63575 0.22603 0.0
H12 H 0.26228 0.69778 0.18248 0.0
H13 H 0.17327 0.60465 0.19549 0.0
H14 H 0.24246 0.49829 0.32574 0.0
H15 H 0.3429 0.55629 0.36017 0.0
H16 H 0.34291 0.71222 0.33262 0.0
H17 H 0.24261 0.65374 0.29846 0.0
H18 H 0.13551 0.47437 0.37989 0.0
H19 H 0.17807 0.52084 0.44972 0.0
H20 H 0.17205 0.67017 0.41169 0.0
H21 H 0.13489 0.62605 0.34122 0.0
H22 H 0.96084 0.42072 0.32908 0.0
H23 H 0.88137 0.43471 0.36136 0.0
H24 H 0.9821 0.61349 0.32337 0.0
H25 H 0.05862 0.59837 0.28982 0.0
O26 O 0.13363 0.37892 0.04085 0.0
O27 O 0.11073 0.44325 0.01935 0.0
O28 O 0.43754 0.65134 0.385 0.0
O29 O 0.43936 0.73268 0.37197 0.0
C30 C 0.06088 0.48236 0.24565 0.0
C31 C 0.11371 0.49016 0.22444 0.0
C32 C 0.17118 0.52382 0.24424 0.0
C33 C 0.17465 0.53664 0.28847 0.0
C34 C 0.12164 0.52529 0.31079 0.0
C35 C 0.06552 0.50249 0.28854 0.0
C36 C 0.00637 0.4658 0.2191 0.0
C37 C 0.97351 0.4105 0.19977 0.0
C38 C 0.94019 0.40184 0.16213 0.0
C39 C 0.94009 0.44861 0.14354 0.0
C40 C 0.96716 0.50192 0.16568 0.0
C41 C -0.00021 0.51037 0.20327 0.0
C42 C 0.11177 0.47055 0.17928 0.0
C43 C 0.12307 0.426 0.17054 0.0
C44 C 0.12494 0.40906 0.1283 0.0
C45 C 0.11586 0.43665 0.09397 0.0
C46 C 0.10436 0.48119 0.10284 0.0
C47 C 0.10282 0.49824 0.14503 0.0
C48 C 0.22317 0.56532 0.21753 0.0
C49 C 0.28148 0.5732 0.22214 0.0
C50 C 0.33322 0.62835 0.21685 0.0
C51 C 0.32628 0.67478 0.20573 0.0
C52 C 0.26883 0.66331 0.19256 0.0
C53 C 0.21755 0.60917 0.19901 0.0
C54 C 0.23536 0.57184 0.30977 0.0
C55 C 0.26425 0.54495 0.32732 0.0
C56 C 0.32157 0.57819 0.34691 0.0
C57 C 0.3509 0.63892 0.3492 0.0
C58 C 0.32159 0.66561 0.33156 0.0
C59 C 0.26427 0.63233 0.3121 0.0
C60 C 0.12913 0.5455 0.35598 0.0
C61 C 0.14156 0.51632 0.38717 0.0
C62 C 0.1669 0.54325 0.42657 0.0
C63 C 0.17845 0.59901 0.43564 0.0
C64 C 0.16301 0.6269 0.40539 0.0
C65 C 0.13988 0.60092 0.36551 0.0
C66 C 0.01604 0.50879 0.30769 0.0
C67 C 0.96545 0.46276 0.3278 0.0
C68 C 0.92042 0.47095 0.34639 0.0
C69 C 0.92607 0.52558 0.3457 0.0
C70 C 0.97689 0.57127 0.32541 0.0
C71 C 0.02072 0.56267 0.30613 0.0
C72 C 0.11966 0.41983 0.04911 0.0
C73 C 0.41183 0.67446 0.36984 0.0
H74 H 0.61955 0.09463 0.20682 0.0
H75 H 0.67065 0.39289 0.65115 0.0
H76 H 0.60302 0.9958 0.42724 0.0
H77 H 0.57802 0.92179 0.37155 0.0
H78 H 0.38698 0.86627 0.38288 0.0
H79 H 0.41286 0.9417 0.43682 0.0
H80 H 0.64981 0.10354 0.39294 0.0
H81 H 0.65586 0.10595 0.31469 0.0
H82 H 0.47027 0.06864 0.30803 0.0
H83 H 0.46488 0.06611 0.38628 0.0
H84 H 0.67443 0.20707 0.42426 0.0
H85 H 0.70428 0.30336 0.39875 0.0
H86 H 0.53255 0.27874 0.44313 0.0
H87 H 0.50252 0.1821 0.46721 0.0
H88 H 0.68598 0.19652 0.52956 0.0
H89 H 0.73622 0.28353 0.57522 0.0
H90 H 0.56107 0.2652 0.60051 0.0
H91 H 0.51128 0.1778 0.55483 0.0
H92 H 0.62013 0.08952 0.59127 0.0
H93 H 0.62166 0.12116 0.6653 0.0
H94 H 0.4366 0.08277 0.65 0.0
H95 H 0.43702 0.05487 0.57588 0.0
H96 H 0.5338 0.93352 0.52438 0.0
H97 H 0.45699 0.83449 0.54532 0.0
H98 H 0.31978 0.88158 0.5483 0.0
H99 H 0.39554 0.97844 0.52589 0.0
O100 O 0.61655 0.09413 0.23771 0.0
O101 O 0.52481 0.08412 0.23638 0.0
O102 O 0.7378 0.35853 0.62662 0.0
O103 O 0.65081 0.35688 0.63492 0.0
C104 C 0.52654 0.02661 0.46197 0.0
C105 C 0.55257 0.08127 0.44227 0.0
C106 C 0.56964 0.13135 0.46735 0.0
C107 C 0.56566 0.12716 0.51222 0.0
C108 C 0.53597 0.07224 0.53153 0.0
C109 C 0.51364 0.02152 0.50621 0.0
C110 C 0.50982 0.9746 0.43538 0.0
C111 C 0.55566 0.96665 0.41822 0.0
C112 C 0.54124 0.92399 0.38678 0.0
C113 C 0.48068 0.88875 0.37233 0.0
C114 C 0.43423 0.89311 0.39298 0.0
C115 C 0.4488 0.93619 0.42385 0.0
C116 C 0.55705 0.08496 0.39507 0.0
C117 C 0.61069 0.09621 0.37445 0.0
C118 C 0.61392 0.09737 0.3298 0.0
C119 C 0.56354 0.0875 0.3051 0.0
C120 C 0.50994 0.07657 0.32608 0.0
C121 C 0.50673 0.07519 0.37071 0.0
C122 C 0.58614 0.18729 0.44741 0.0
C123 C 0.64267 0.22188 0.42743 0.0
C124 C 0.65968 0.27704 0.41303 0.0
C125 C 0.62083 0.29896 0.419 0.0
C126 C 0.56361 0.26342 0.43804 0.0
C127 C 0.54638 0.20813 0.45183 0.0
C128 C 0.59509 0.18086 0.53908 0.0
C129 C 0.65857 0.21141 0.54498 0.0
C130 C 0.68708 0.26091 0.57121 0.0
C131 C 0.65258 0.2811 0.5917 0.0
C132 C 0.58891 0.25066 0.58531 0.0
C133 C 0.56036 0.20081 0.55926 0.0
C134 C 0.52827 0.06942 0.57837 0.0
C135 C 0.57905 0.08551 0.60462 0.0
C136 C 0.57996 0.10387 0.64674 0.0
C137 C 0.52959 0.10522 0.66311 0.0
C138 C 0.47607 0.0821 0.63831 0.0
C139 C 0.47583 0.06529 0.59593 0.0
C140 C 0.47067 0.96376 0.52453 0.0
C141 C 0.48735 0.92251 0.53043 0.0
C142 C 0.44334 0.86592 0.54237 0.0
C143 C 0.38203 0.84984 0.54872 0.0
C144 C 0.36645 0.8922 0.54423 0.0
C145 C 0.41 0.94808 0.53179 0.0
C146 C 0.56691 0.08845 0.25768 0.0
C147 C 0.68307 0.33428 0.61896 0.0
H148 H 0.5109 0.45451 0.86682 0.0
H149 H 0.70969 0.34553 0.49483 0.0
H150 H 0.65155 0.67599 0.69865 0.0
H151 H 0.63466 0.70247 0.77023 0.0
H152 H 0.44198 0.61838 0.74265 0.0
H153 H 0.45867 0.58818 0.67235 0.0
H154 H 0.60895 0.56682 0.75401 0.0
H155 H 0.55624 0.52432 0.82076 0.0
H156 H 0.38606 0.42311 0.75149 0.0
H157 H 0.43864 0.46893 0.68518 0.0
H158 H 0.66863 0.50907 0.70265 0.0
H159 H 0.65903 0.42481 0.73876 0.0
H160 H 0.47659 0.31809 0.68642 0.0
H161 H 0.48693 0.40196 0.65061 0.0
H162 H 0.72898 0.56483 0.60951 0.0
H163 H 0.77909 0.51946 0.57372 0.0
H164 H 0.60246 0.375 0.53493 0.0
H165 H 0.55299 0.42107 0.57077 0.0
H166 H 0.71327 0.65663 0.56696 0.0
H167 H 0.77506 0.64922 0.51018 0.0
H168 H 0.61411 0.49641 0.45981 0.0
H169 H 0.55264 0.50524 0.51583 0.0
H170 H 0.60564 0.70991 0.60085 0.0
H171 H 0.5365 0.74111 0.57687 0.0
H172 H 0.40136 0.56445 0.54205 0.0
H173 H 0.47137 0.53403 0.5648 0.0
O174 O 0.46716 0.43736 0.86613 0.0
O175 O 0.3802 0.40758 0.83203 0.0
O176 O 0.78062 0.44089 0.5282 0.0
O177 O 0.69093 0.36444 0.509 0.0
C178 C 0.5621 0.58844 0.65301 0.0
C179 C 0.55973 0.54153 0.67348 0.0
C180 C 0.58296 0.51078 0.65293 0.0
C181 C 0.60778 0.52605 0.61191 0.0
C182 C 0.60206 0.56774 0.58898 0.0
C183 C 0.57595 0.59719 0.60904 0.0
C184 C 0.55615 0.63026 0.68027 0.0
C185 C 0.60626 0.66675 0.70688 0.0
C186 C 0.59666 0.68154 0.74792 0.0
C187 C 0.53718 0.66235 0.76166 0.0
C188 C 0.48844 0.63454 0.73228 0.0
C189 C 0.49781 0.61785 0.69181 0.0
C190 C 0.5276 0.52071 0.71486 0.0
C191 C 0.56018 0.53593 0.75346 0.0
C192 C 0.53011 0.51047 0.79151 0.0
C193 C 0.46739 0.46803 0.79147 0.0
C194 C 0.43456 0.45489 0.75277 0.0
C195 C 0.46442 0.48111 0.71486 0.0
C196 C 0.57862 0.4608 0.67393 0.0
C197 C 0.62685 0.46728 0.69913 0.0
C198 C 0.62114 0.41952 0.7198 0.0
C199 C 0.56707 0.36525 0.71534 0.0
C200 C 0.51858 0.35955 0.69063 0.0
C201 C 0.52451 0.40703 0.66987 0.0
C202 C 0.63752 0.49645 0.59235 0.0
C203 C 0.70125 0.52329 0.5934 0.0
C204 C 0.72971 0.49736 0.57283 0.0
C205 C 0.69478 0.44385 0.55111 0.0
C206 C 0.63071 0.4164 0.55109 0.0
C207 C 0.60233 0.44242 0.57169 0.0
C208 C 0.62836 0.5815 0.54557 0.0
C209 C 0.69073 0.6236 0.54218 0.0
C210 C 0.72634 0.61821 0.51053 0.0
C211 C 0.69995 0.57049 0.482 0.0
C212 C 0.63621 0.53241 0.48241 0.0
C213 C 0.60054 0.53851 0.51351 0.0
C214 C 0.54423 0.61986 0.58387 0.0
C215 C 0.56225 0.67841 0.58633 0.0
C216 C 0.5223 0.69597 0.57297 0.0
C217 C 0.46304 0.65505 0.55797 0.0
C218 C 0.44643 0.59694 0.55361 0.0
C219 C 0.48681 0.57968 0.56609 0.0
C220 C 0.43592 0.43646 0.8311 0.0
C221 C 0.7249 0.41656 0.52874 0.0
H222 H 0.01138 0.24594 0.03293 0.0
H223 H 0.40287 0.62928 0.63824 0.0
H224 H 0.00756 0.47232 0.82376 0.0
H225 H 0.97004 0.48986 0.88974 0.0
H226 H 0.8697 0.30648 0.91476 0.0
H227 H 0.90761 0.28889 0.84705 0.0
H228 H 0.05224 0.40809 0.89762 0.0
H229 H 0.03874 0.3537 0.96234 0.0
H230 H 0.02421 0.21281 0.88526 0.0
H231 H 0.03662 0.26732 0.82049 0.0
H232 H 0.14468 0.47756 0.86231 0.0
H233 H 0.24644 0.53043 0.89321 0.0
H234 H 0.30016 0.43498 0.81045 0.0
H235 H 0.19623 0.37963 0.78112 0.0
H236 H 0.17959 0.54795 0.77998 0.0
H237 H 0.27671 0.62343 0.7504 0.0
H238 H 0.28124 0.49558 0.66812 0.0
H239 H 0.18412 0.42025 0.69843 0.0
H240 H 0.06754 0.53274 0.73721 0.0
H241 H 0.12632 0.61056 0.68684 0.0
H242 H 0.14876 0.49242 0.60574 0.0
H243 H 0.086 0.41355 0.6547 0.0
H244 H 0.96208 0.47264 0.74838 0.0
H245 H 0.85504 0.44451 0.74193 0.0
H246 H 0.80321 0.26593 0.72501 0.0
H247 H 0.91028 0.29458 0.73003 0.0
O248 O 0.01724 0.26689 0.00685 0.0
O249 O 0.01692 0.19841 0.96626 0.0
O250 O 0.36903 0.66122 0.70105 0.0
O251 O 0.36586 0.59964 0.65162 0.0
C252 C 0.00033 0.37492 0.79832 0.0
C253 C 0.05034 0.3728 0.81428 0.0
C254 C 0.10741 0.40549 0.79459 0.0
C255 C 0.11289 0.43483 0.75642 0.0
C256 C 0.06041 0.42932 0.73658 0.0
C257 C 0.00324 0.39743 0.7573 0.0
C258 C 0.96031 0.37931 0.83049 0.0
C259 C 0.97547 0.43543 0.84242 0.0
C260 C 0.955 0.44556 0.88075 0.0
C261 C 0.91873 0.39975 0.90813 0.0
C262 C 0.89852 0.34267 0.89447 0.0
C263 C 0.91933 0.33243 0.85565 0.0
C264 C 0.04481 0.34141 0.85422 0.0
C265 C 0.04635 0.36559 0.89467 0.0
C266 C 0.0386 0.3344 0.93168 0.0
C267 C 0.0303 0.27887 0.92901 0.0
C268 C 0.03033 0.25541 0.88846 0.0
C269 C 0.03746 0.28645 0.85142 0.0
C270 C 0.16297 0.4241 0.82012 0.0
C271 C 0.17727 0.46553 0.85269 0.0
C272 C 0.23576 0.49639 0.86979 0.0
C273 C 0.28118 0.48704 0.85397 0.0
C274 C 0.2657 0.44238 0.82366 0.0
C275 C 0.20656 0.41086 0.8068 0.0
C276 C 0.17473 0.47891 0.74097 0.0
C277 C 0.20204 0.53628 0.75592 0.0
C278 C 0.25738 0.57928 0.73891 0.0
C279 C 0.28627 0.56559 0.70651 0.0
C280 C 0.2598 0.50759 0.69272 0.0
C281 C 0.20456 0.46448 0.71005 0.0
C282 C 0.07063 0.46662 0.69929 0.0
C283 C 0.08124 0.52244 0.70717 0.0
C284 C 0.1168 0.56746 0.6791 0.0
C285 C 0.144 0.55789 0.64338 0.0
C286 C 0.12974 0.50128 0.63378 0.0
C287 C 0.09234 0.45582 0.66104 0.0
C288 C 0.94466 0.38595 0.73876 0.0
C289 C 0.92829 0.42801 0.74082 0.0
C290 C 0.86673 0.41161 0.73796 0.0
C291 C 0.82062 0.35282 0.73391 0.0
C292 C 0.83756 0.31145 0.72878 0.0
C293 C 0.89892 0.32793 0.73093 0.0
C294 C 0.02118 0.24551 0.96838 0.0
C295 C 0.34297 0.61178 0.68646 0.0
H296 H 0.3039 0.9759 0.74587 0.0
H297 H 0.45023 0.66601 0.08935 0.0
H298 H 0.44269 0.09425 0.95453 0.0
H299 H 0.46481 0.16376 0.89842 0.0
H300 H 0.64156 0.18276 0.87927 0.0
H301 H 0.6189 0.11338 0.93577 0.0
H302 H 0.35233 0.95471 0.92534 0.0
H303 H 0.31412 0.95588 0.85394 0.0
H304 H 0.49613 0.02649 0.80311 0.0
H305 H 0.53342 0.0242 0.87442 0.0
H306 H 0.3438 0.83846 0.98278 0.0
H307 H 0.31241 0.74216 0.95363 0.0
H308 H 0.4644 0.82029 0.86581 0.0
H309 H 0.49733 0.9146 0.89686 0.0
H310 H 0.3987 0.88257 0.07512 0.0
H311 H 0.37696 0.79268 0.10856 0.0
H312 H 0.5018 0.78158 0.02108 0.0
H313 H 0.52349 0.87165 0.98822 0.0
H314 H 0.4811 0.02723 0.10156 0.0
H315 H 0.48363 -0.00085 0.17435 0.0
H316 H 0.59156 0.92656 0.1332 0.0
H317 H 0.59104 0.95757 0.06029 0.0
H318 H 0.50906 0.12599 0.04464 0.0
H319 H 0.58662 0.22598 0.06468 0.0
H320 H 0.72806 0.18687 0.04285 0.0
H321 H 0.65041 0.08731 0.02331 0.0
O322 O 0.31984 0.97553 0.77379 0.0
O323 O 0.41354 0.00867 0.74891 0.0
O324 O 0.38475 0.70245 0.11435 0.0
O325 O 0.45753 0.7012 0.07632 0.0
C326 C 0.50758 0.04339 0.97058 0.0
C327 C 0.46884 0.99037 0.9488 0.0
C328 C 0.45396 0.93792 0.96794 0.0
C329 C 0.47641 0.93852 0.00933 0.0
C330 C 0.51429 0.99181 0.03116 0.0
C331 C 0.53002 0.04406 0.01167 0.0
C332 C 0.52862 0.09807 0.94821 0.0
C333 C 0.48713 0.11536 0.93943 0.0
C334 C 0.49992 0.15495 0.90733 0.0
C335 C 0.55411 0.17709 0.88355 0.0
C336 C 0.59918 0.1659 0.89672 0.0
C337 C 0.58635 0.12631 0.92898 0.0
C338 C 0.44568 0.98986 0.90513 0.0
C339 C 0.38376 0.97021 0.8987 0.0
C340 C 0.36214 0.97108 0.85791 0.0
C341 C 0.40212 0.99146 0.82283 0.0
C342 C 0.46412 0.01064 0.82941 0.0
C343 C 0.4856 0.00963 0.87016 0.0
C344 C 0.4234 0.88335 0.94239 0.0
C345 C 0.36913 0.83462 0.95643 0.0
C346 C 0.3512 0.77975 0.93968 0.0
C347 C 0.38695 0.7736 0.90829 0.0
C348 C 0.43649 0.82342 0.89057 0.0
C349 C 0.4551 0.8777 0.90794 0.0
C350 C 0.46244 0.88343 0.02917 0.0
C351 C 0.42119 0.86057 0.06322 0.0
C352 C 0.40882 0.80924 0.0822 0.0
C353 C 0.43762 0.77994 0.06741 0.0
C354 C 0.47894 0.80308 0.03326 0.0
C355 C 0.49123 0.85438 0.01433 0.0
C356 C 0.53385 0.99233 0.07562 0.0
C357 C 0.50778 0.0078 0.10861 0.0
C358 C 0.50929 0.99158 0.15026 0.0
C359 C 0.5358 0.95864 0.15913 0.0
C360 C 0.56981 0.95096 0.12717 0.0
C361 C 0.56921 0.96826 0.08549 0.0
C362 C 0.57448 0.09995 0.03229 0.0
C363 C 0.55675 0.13884 0.04545 0.0
C364 C 0.60097 0.1957 0.0569 0.0
C365 C 0.66322 0.21414 0.05467 0.0
C366 C 0.68034 0.17381 0.04442 0.0
C367 C 0.63619 0.11698 0.03348 0.0
C368 C 0.3791 0.99251 0.77958 0.0
C369 C 0.42487 0.72556 0.08752 0.0
H370 H 0.65355 0.53621 0.84077 0.0
H371 H 0.84461 0.43968 0.21684 0.0
H372 H 0.47306 0.54412 0.08329 0.0
H373 H 0.4314 0.55429 0.01657 0.0
H374 H 0.59274 0.72251 -0.00065 0.0
H375 H 0.63496 0.71187 0.06637 0.0
H376 H 0.546 0.49246 0.01175 0.0
H377 H 0.5644 0.49574 0.93463 0.0
H378 H 0.70562 0.67618 0.94737 0.0
H379 H 0.68964 0.67152 0.02469 0.0
H380 H 0.60108 0.43262 0.06601 0.0
H381 H 0.66642 0.39933 0.03648 0.0
H382 H 0.80998 0.57752 0.01773 0.0
H383 H 0.74585 0.60977 0.04915 0.0
H384 H 0.58911 0.42513 0.15191 0.0
H385 H 0.64061 0.3771 0.17913 0.0
H386 H 0.81259 0.54061 0.17944 0.0
H387 H 0.76048 0.58792 0.15208 0.0
H388 H 0.56038 0.47908 0.21581 0.0
H389 H 0.60642 0.46693 0.28016 0.0
H390 H 0.7556 0.64458 0.27115 0.0
H391 H 0.71029 0.65541 0.20656 0.0
H392 H 0.51313 0.5653 0.20708 0.0
H393 H 0.49218 0.62523 0.25504 0.0
H394 H 0.63363 0.77888 0.19321 0.0
H395 H 0.65488 0.71853 0.14603 0.0
O396 O 0.64141 0.53687 0.87004 0.0
O397 O 0.67802 0.63164 0.86984 0.0
O398 O 0.73395 0.37417 0.2038 0.0
O399 O 0.82311 0.45754 0.20608 0.0
C400 C 0.59322 0.60385 0.09862 0.0
C401 C 0.61475 0.5763 0.07107 0.0
C402 C 0.63819 0.54426 0.08829 0.0
C403 C 0.64013 0.53899 0.13274 0.0
C404 C 0.62034 0.56773 0.16042 0.0
C405 C 0.59814 0.60151 0.14351 0.0
C406 C 0.5577 0.62649 0.079 0.0
C407 C 0.49771 0.58497 0.0669 0.0
C408 C 0.47433 0.59044 0.02842 0.0
C409 C 0.50998 0.63836 0.00263 0.0
C410 C 0.56482 0.68508 0.01883 0.0
C411 C 0.58859 0.67927 0.05739 0.0
C412 C 0.61562 0.58206 0.02378 0.0
C413 C 0.57985 0.53302 -0.00232 0.0
C414 C 0.5907 0.53488 0.95373 0.0
C415 C 0.63653 0.58618 0.93506 0.0
C416 C 0.66971 0.63617 0.96085 0.0
C417 C 0.66012 0.63379 0.00496 0.0
C418 C 0.66953 0.52344 0.06037 0.0
C419 C 0.6462 0.46409 0.05454 0.0
C420 C 0.68341 0.44528 0.03758 0.0
C421 C 0.74376 0.4859 0.02579 0.0
C422 C 0.76398 0.54514 0.02703 0.0
C423 C 0.72735 0.56377 0.04478 0.0
C424 C 0.67109 0.50994 0.15023 0.0
C425 C 0.63786 0.45042 0.158 0.0
C426 C 0.66741 0.42316 0.1735 0.0
C427 C 0.73078 0.45506 0.18148 0.0
C428 C 0.7638 0.51479 0.17369 0.0
C429 C 0.73419 0.54194 0.15813 0.0
C430 C 0.63228 0.56805 0.20658 0.0
C431 C 0.60175 0.51591 0.22888 0.0
C432 C 0.62869 0.5087 0.26503 0.0
C433 C 0.68561 0.55413 0.27975 0.0
C434 C 0.71226 0.60831 0.2601 0.0
C435 C 0.68585 0.61513 0.22367 0.0
C436 C 0.58462 0.63744 0.17244 0.0
C437 C 0.53978 0.61191 0.20411 0.0
C438 C 0.5283 0.64634 0.23172 0.0
C439 C 0.56134 0.70697 0.22803 0.0
C440 C 0.60741 0.7324 0.19699 0.0
C441 C 0.61899 0.69793 0.16956 0.0
C442 C 0.65269 0.58644 0.88954 0.0
C443 C 0.76247 0.42629 0.19777 0.0
Zn444 Zn 0.8144 0.59069 0.38119 0.0
Zn445 Zn 0.73683 0.47763 0.37952 0.0
O446 O 0.82299 0.49199 0.36623 0.0
O447 O 0.88887 0.58553 0.36971 0.0
O448 O 0.69172 0.39066 0.38883 0.0
O449 O 0.78799 0.60463 0.43849 0.0
O450 O 0.71584 0.51273 0.43129 0.0
C451 C 0.87753 0.53466 0.36277 0.0
C452 C 0.71822 0.54574 0.31485 0.0
O453 O 0.70086 0.49523 0.32827 0.0
O454 O 0.76419 0.59001 0.33148 0.0
C455 C 0.64153 0.35979 0.40832 0.0
O456 O 0.61136 0.3838 0.42241 0.0
C457 C 0.73763 0.56176 0.45034 0.0
Zn458 Zn 0.21317 0.69221 0.5547 0.0
Zn459 Zn 0.29377 0.65684 0.54995 0.0
O460 O 0.34368 0.74766 0.55161 0.0
O461 O 0.27832 0.77634 0.55975 0.0
O462 O 0.36036 0.63573 0.55258 0.0
O463 O 0.16965 0.64218 0.60519 0.0
O464 O 0.23047 0.60773 0.59713 0.0
C465 C 0.33281 0.78851 0.55525 0.0
C466 C 0.20583 0.62805 0.47665 0.0
O467 O 0.24906 0.62434 0.49306 0.0
O468 O 0.18497 0.65586 0.49565 0.0
C469 C 0.41771 0.67246 0.55014 0.0
O470 O 0.43672 0.7272 0.54462 0.0
C471 C 0.18449 0.60597 0.61492 0.0
Zn472 Zn 0.50048 0.19728 0.76112 0.0
Zn473 Zn 0.625 0.24765 0.75648 0.0
O474 O 0.60966 0.31165 0.74045 0.0
O475 O 0.5093 0.2697 0.73949 0.0
O476 O 0.7165 0.28259 0.74919 0.0
O477 O 0.50695 0.18797 0.82342 0.0
O478 O 0.60559 0.22101 0.81862 0.0
C479 C 0.56186 0.3136 0.73378 0.0
C480 C 0.53649 0.14042 0.70148 0.0
O481 O 0.58965 0.18111 0.71276 0.0
O482 O 0.48953 0.13617 0.71858 0.0
C483 C 0.75527 0.33406 0.73792 0.0
O484 O 0.73742 0.37089 0.73184 0.0
C485 C 0.55672 0.1995 0.84059 0.0
Zn486 Zn 0.47387 0.5761 0.87424 0.0
Zn487 Zn 0.4414 0.65349 0.87961 0.0
O488 O 0.35963 0.58012 0.8762 0.0
O489 O 0.38616 0.51741 0.85739 0.0
O490 O 0.42474 0.71696 0.88093 0.0
O491 O 0.49401 0.58951 0.93693 0.0
O492 O 0.48346 0.66517 0.93781 0.0
C493 C 0.34525 0.5294 0.86426 0.0
C494 C 0.52284 0.65494 0.80739 0.0
O495 O 0.48512 0.66754 0.82249 0.0
O496 O 0.53467 0.62196 0.82776 0.0
C497 C 0.3807 0.71714 0.89942 0.0
O498 O 0.33825 0.67015 0.91818 0.0
C499 C 0.49663 0.63192 0.95671 0.0
Zn500 Zn 0.90764 0.48691 0.01834 0.0
Zn501 Zn 0.82288 0.37677 0.03002 0.0
O502 O 0.77416 0.41674 0.02744 0.0
O503 O 0.84371 0.50685 0.0128 0.0
O504 O 0.75992 0.29393 0.03745 0.0
O505 O 0.9344 0.46479 0.965 0.0
O506 O 0.86051 0.37424 0.9726 0.0
C507 C 0.78863 0.46831 0.01959 0.0
C508 C 0.91655 0.44425 0.09992 0.0
O509 O 0.87329 0.39627 0.08503 0.0
O510 O 0.93963 0.48928 0.07751 0.0
C511 C 0.71021 0.27602 0.05745 0.0
O512 O 0.69831 0.31339 0.07522 0.0
C513 C 0.90418 0.41318 0.95085 0.0
Zn514 Zn 0.4219 0.84395 0.24841 0.0
Zn515 Zn 0.50358 0.82234 0.24824 0.0
O516 O 0.42475 0.74634 0.23196 0.0
O517 O 0.36169 0.77422 0.21466 0.0
O518 O 0.56179 0.79408 0.24128 0.0
O519 O 0.47152 0.9182 0.21839 0.0
O520 O 0.53075 0.88453 0.2024 0.0
C521 C 0.37423 0.73496 0.21588 0.0
C522 C 0.46736 0.85799 0.33059 0.0
O523 O 0.50859 0.85465 0.30991 0.0
O524 O 0.41837 0.84566 0.3118 0.0
C525 C 0.54242 0.7424 0.25248 0.0
O526 O 0.49495 0.71687 0.27793 0.0
C527 C 0.51504 0.92154 0.19688 0.0
loop_
_geom_bond_atom_site_label_1
_geom_bond_atom_site_label_2
_geom_bond_distance
_geom_bond_site_symmetry_2
_ccdc_geom_bond_type
H0 O26 0.856 . S
H1 O29 0.854 . S
H2 C37 0.930 1_455 S
H3 C38 0.930 . S
H4 C40 0.930 . S
H5 C41 0.930 . S
H6 C43 0.931 . S
H7 C44 0.930 . S
H8 C46 0.930 . S
H9 C47 0.929 . S
H10 C49 0.930 . S
H11 C50 0.931 . S
H12 C52 0.930 . S
H13 C53 0.929 . S
H14 C55 0.931 . S
H15 C56 0.930 . S
H16 C58 0.930 . S
H17 C59 0.932 . S
H18 C61 0.930 . S
H19 C62 0.929 . S
H20 C64 0.931 . S
H21 C65 0.930 . S
H22 C67 0.929 . S
H23 C68 0.931 . S
H24 C70 0.930 . S
H25 C71 0.929 . S
O26 H0 0.856 . S
O26 C72 1.300 . S
O27 C72 1.209 . S
O28 C73 1.199 . S
O29 H1 0.854 . S
O29 C73 1.297 . S
C30 C31 1.404 . S
C30 C35 1.397 . S
C30 C36 1.492 . S
C31 C30 1.404 . S
C31 C32 1.396 . S
C31 C42 1.492 . S
C32 C31 1.396 . S
C32 C33 1.397 . S
C32 C48 1.509 . S
C33 C32 1.397 . S
C33 C34 1.412 . S
C33 C54 1.485 . S
C34 C33 1.412 . S
C34 C35 1.388 . S
C34 C60 1.490 . S
C35 C30 1.397 . S
C35 C34 1.388 . S
C35 C66 1.519 1_455 S
C36 C30 1.492 . S
C36 C37 1.363 1_455 S
C36 C41 1.390 1_455 S
C37 H2 0.930 1_655 S
C37 C36 1.363 1_655 S
C37 C38 1.372 . S
C38 H3 0.930 . S
C38 C37 1.372 . S
C38 C39 1.383 . S
C39 C38 1.383 . S
C39 C40 1.395 . S
C40 H4 0.930 . S
C40 C39 1.395 . S
C40 C41 1.362 . S
C41 H5 0.930 . S
C41 C36 1.390 1_655 S
C41 C40 1.362 . S
C42 C31 1.492 . S
C42 C43 1.377 . S
C42 C47 1.397 . S
C43 H6 0.931 . S
C43 C42 1.377 . S
C43 C44 1.376 . S
C44 H7 0.930 . S
C44 C43 1.376 . S
C44 C45 1.376 . S
C45 C44 1.376 . S
C45 C46 1.378 . S
C45 C72 1.486 . S
C46 H8 0.930 . S
C46 C45 1.378 . S
C46 C47 1.376 . S
C47 H9 0.929 . S
C47 C42 1.397 . S
C47 C46 1.376 . S
C48 C32 1.509 . S
C48 C49 1.391 . S
C48 C53 1.386 . S
C49 H10 0.930 . S
C49 C48 1.391 . S
C49 C50 1.375 . S
C50 H11 0.931 . S
C50 C49 1.375 . S
C50 C51 1.375 . S
C51 C50 1.375 . S
C51 C52 1.361 . S
C52 H12 0.930 . S
C52 C51 1.361 . S
C52 C53 1.399 . S
C53 H13 0.929 . S
C53 C48 1.386 . S
C53 C52 1.399 . S
C54 C33 1.485 . S
C54 C55 1.394 . S
C54 C59 1.360 . S
C55 H14 0.931 . S
C55 C54 1.394 . S
C55 C56 1.372 . S
C56 H15 0.930 . S
C56 C55 1.372 . S
C56 C57 1.397 . S
C57 C56 1.397 . S
C57 C58 1.390 . S
C57 C73 1.476 . S
C58 H16 0.930 . S
C58 C57 1.390 . S
C58 C59 1.366 . S
C59 H17 0.932 . S
C59 C54 1.360 . S
C59 C58 1.366 . S
C60 C34 1.490 . S
C60 C61 1.380 . S
C60 C65 1.386 . S
C61 H18 0.930 . S
C61 C60 1.380 . S
C61 C62 1.381 . S
C62 H19 0.929 . S
C62 C61 1.381 . S
C62 C63 1.371 . S
C63 C62 1.371 . S
C63 C64 1.380 . S
C64 H20 0.931 . S
C64 C63 1.380 . S
C64 C65 1.387 . S
C65 H21 0.930 . S
C65 C60 1.386 . S
C65 C64 1.387 . S
C66 C35 1.519 1_655 S
C66 C67 1.377 . S
C66 C71 1.361 . S
C67 H22 0.929 . S
C67 C66 1.377 . S
C67 C68 1.386 . S
C68 H23 0.931 . S
C68 C67 1.386 . S
C68 C69 1.363 . S
C69 C68 1.363 . S
C69 C70 1.385 . S
C70 H24 0.930 . S
C70 C69 1.385 . S
C70 C71 1.396 . S
C71 H25 0.929 . S
C71 C66 1.361 . S
C71 C70 1.396 . S
C72 O26 1.300 . S
C72 O27 1.209 . S
C72 C45 1.486 . S
C73 O28 1.199 . S
C73 O29 1.297 . S
C73 C57 1.476 . S
H74 O100 0.856 . S
H75 O103 0.854 . S
H76 C111 0.930 1_545 S
H77 C112 0.930 . S
H78 C114 0.930 . S
H79 C115 0.930 . S
H80 C117 0.931 . S
H81 C118 0.930 . S
H82 C120 0.930 . S
H83 C121 0.929 . S
H84 C123 0.930 . S
H85 C124 0.931 . S
H86 C126 0.930 . S
H87 C127 0.929 . S
H88 C129 0.931 . S
H89 C130 0.930 . S
H90 C132 0.930 . S
H91 C133 0.932 . S
H92 C135 0.930 . S
H93 C136 0.929 . S
H94 C138 0.931 . S
H95 C139 0.930 . S
H96 C141 0.929 . S
H97 C142 0.931 . S
H98 C144 0.930 . S
H99 C145 0.929 . S
O100 H74 0.856 . S
O100 C146 1.300 . S
O101 C146 1.209 . S
O102 C147 1.199 . S
O103 H75 0.854 . S
O103 C147 1.297 . S
C104 C105 1.404 . S
C104 C109 1.397 . S
C104 C110 1.492 1_545 S
C105 C104 1.404 . S
C105 C106 1.396 . S
C105 C116 1.492 . S
C106 C105 1.396 . S
C106 C107 1.397 . S
C106 C122 1.509 . S
C107 C106 1.397 . S
C107 C108 1.412 . S
C107 C128 1.485 . S
C108 C107 1.412 . S
C108 C109 1.388 . S
C108 C134 1.490 . S
C109 C104 1.397 . S
C109 C108 1.388 . S
C109 C140 1.519 1_545 S
C110 C104 1.492 1_565 S
C110 C111 1.363 . S
C110 C115 1.390 . S
C111 H76 0.930 1_565 S
C111 C110 1.363 . S
C111 C112 1.372 . S
C112 H77 0.930 . S
C112 C111 1.372 . S
C112 C113 1.383 . S
C113 C112 1.383 . S
C113 C114 1.395 . S
C114 H78 0.930 . S
C114 C113 1.395 . S
C114 C115 1.362 . S
C115 H79 0.930 . S
C115 C110 1.390 . S
C115 C114 1.362 . S
C116 C105 1.492 . S
C116 C117 1.377 . S
C116 C121 1.397 . S
C117 H80 0.931 . S
C117 C116 1.377 . S
C117 C118 1.376 . S
C118 H81 0.930 . S
C118 C117 1.376 . S
C118 C119 1.376 . S
C119 C118 1.376 . S
C119 C120 1.378 . S
C119 C146 1.486 . S
C120 H82 0.930 . S
C120 C119 1.378 . S
C120 C121 1.376 . S
C121 H83 0.929 . S
C121 C116 1.397 . S
C121 C120 1.376 . S
C122 C106 1.509 . S
C122 C123 1.391 . S
C122 C127 1.386 . S
C123 H84 0.930 . S
C123 C122 1.391 . S
C123 C124 1.375 . S
C124 H85 0.931 . S
C124 C123 1.375 . S
C124 C125 1.375 . S
C125 C124 1.375 . S
C125 C126 1.361 . S
C126 H86 0.930 . S
C126 C125 1.361 . S
C126 C127 1.399 . S
C127 H87 0.929 . S
C127 C122 1.386 . S
C127 C126 1.399 . S
C128 C107 1.485 . S
C128 C129 1.394 . S
C128 C133 1.360 . S
C129 H88 0.931 . S
C129 C128 1.394 . S
C129 C130 1.372 . S
C130 H89 0.930 . S
C130 C129 1.372 . S
C130 C131 1.397 . S
C131 C130 1.397 . S
C131 C132 1.390 . S
C131 C147 1.476 . S
C132 H90 0.930 . S
C132 C131 1.390 . S
C132 C133 1.366 . S
C133 H91 0.932 . S
C133 C128 1.360 . S
C133 C132 1.366 . S
C134 C108 1.490 . S
C134 C135 1.380 . S
C134 C139 1.386 . S
C135 H92 0.930 . S
C135 C134 1.380 . S
C135 C136 1.381 . S
C136 H93 0.929 . S
C136 C135 1.381 . S
C136 C137 1.371 . S
C137 C136 1.371 . S
C137 C138 1.380 . S
C138 H94 0.931 . S
C138 C137 1.380 . S
C138 C139 1.387 . S
C139 H95 0.930 . S
C139 C134 1.386 . S
C139 C138 1.387 . S
C140 C109 1.519 1_565 S
C140 C141 1.377 . S
C140 C145 1.361 . S
C141 H96 0.929 . S
C141 C140 1.377 . S
C141 C142 1.386 . S
C142 H97 0.931 . S
C142 C141 1.386 . S
C142 C143 1.363 . S
C143 C142 1.363 . S
C143 C144 1.385 . S
C144 H98 0.930 . S
C144 C143 1.385 . S
C144 C145 1.396 . S
C145 H99 0.929 . S
C145 C140 1.361 . S
C145 C144 1.396 . S
C146 O100 1.300 . S
C146 O101 1.209 . S
C146 C119 1.486 . S
C147 O102 1.199 . S
C147 O103 1.297 . S
C147 C131 1.476 . S
H148 O174 0.856 . S
H149 O177 0.854 . S
H150 C185 0.930 . S
H151 C186 0.930 . S
H152 C188 0.930 . S
H153 C189 0.930 . S
H154 C191 0.931 . S
H155 C192 0.930 . S
H156 C194 0.930 . S
H157 C195 0.929 . S
H158 C197 0.930 . S
H159 C198 0.931 . S
H160 C200 0.930 . S
H161 C201 0.929 . S
H162 C203 0.931 . S
H163 C204 0.930 . S
H164 C206 0.930 . S
H165 C207 0.932 . S
H166 C209 0.930 . S
H167 C210 0.929 . S
H168 C212 0.931 . S
H169 C213 0.930 . S
H170 C215 0.929 . S
H171 C216 0.931 . S
H172 C218 0.930 . S
H173 C219 0.929 . S
O174 H148 0.856 . S
O174 C220 1.300 . S
O175 C220 1.209 . S
O176 C221 1.199 . S
O177 H149 0.854 . S
O177 C221 1.297 . S
C178 C179 1.404 . S
C178 C183 1.397 . S
C178 C184 1.492 . S
C179 C178 1.404 . S
C179 C180 1.396 . S
C179 C190 1.492 . S
C180 C179 1.396 . S
C180 C181 1.397 . S
C180 C196 1.509 . S
C181 C180 1.397 . S
C181 C182 1.412 . S
C181 C202 1.485 . S
C182 C181 1.412 . S
C182 C183 1.388 . S
C182 C208 1.490 . S
C183 C178 1.397 . S
C183 C182 1.388 . S
C183 C214 1.519 . S
C184 C178 1.492 . S
C184 C185 1.363 . S
C184 C189 1.390 . S
C185 H150 0.930 . S
C185 C184 1.363 . S
C185 C186 1.372 . S
C186 H151 0.930 . S
C186 C185 1.372 . S
C186 C187 1.383 . S
C187 C186 1.383 . S
C187 C188 1.395 . S
C188 H152 0.930 . S
C188 C187 1.395 . S
C188 C189 1.362 . S
C189 H153 0.930 . S
C189 C184 1.390 . S
C189 C188 1.362 . S
C190 C179 1.492 . S
C190 C191 1.377 . S
C190 C195 1.397 . S
C191 H154 0.931 . S
C191 C190 1.377 . S
C191 C192 1.376 . S
C192 H155 0.930 . S
C192 C191 1.376 . S
C192 C193 1.376 . S
C193 C192 1.376 . S
C193 C194 1.378 . S
C193 C220 1.486 . S
C194 H156 0.930 . S
C194 C193 1.378 . S
C194 C195 1.376 . S
C195 H157 0.929 . S
C195 C190 1.397 . S
C195 C194 1.376 . S
C196 C180 1.509 . S
C196 C197 1.391 . S
C196 C201 1.386 . S
C197 H158 0.930 . S
C197 C196 1.391 . S
C197 C198 1.375 . S
C198 H159 0.931 . S
C198 C197 1.375 . S
C198 C199 1.375 . S
C199 C198 1.375 . S
C199 C200 1.361 . S
C200 H160 0.930 . S
C200 C199 1.361 . S
C200 C201 1.399 . S
C201 H161 0.929 . S
C201 C196 1.386 . S
C201 C200 1.399 . S
C202 C181 1.485 . S
C202 C203 1.394 . S
C202 C207 1.360 . S
C203 H162 0.931 . S
C203 C202 1.394 . S
C203 C204 1.372 . S
C204 H163 0.930 . S
C204 C203 1.372 . S
C204 C205 1.397 . S
C205 C204 1.397 . S
C205 C206 1.390 . S
C205 C221 1.476 . S
C206 H164 0.930 . S
C206 C205 1.390 . S
C206 C207 1.366 . S
C207 H165 0.932 . S
C207 C202 1.360 . S
C207 C206 1.366 . S
C208 C182 1.490 . S
C208 C209 1.380 . S
C208 C213 1.386 . S
C209 H166 0.930 . S
C209 C208 1.380 . S
C209 C210 1.381 . S
C210 H167 0.929 . S
C210 C209 1.381 . S
C210 C211 1.371 . S
C211 C210 1.371 . S
C211 C212 1.380 . S
C212 H168 0.931 . S
C212 C211 1.380 . S
C212 C213 1.387 . S
C213 H169 0.930 . S
C213 C208 1.386 . S
C213 C212 1.387 . S
C214 C183 1.519 . S
C214 C215 1.377 . S
C214 C219 1.361 . S
C215 H170 0.929 . S
C215 C214 1.377 . S
C215 C216 1.386 . S
C216 H171 0.931 . S
C216 C215 1.386 . S
C216 C217 1.363 . S
C217 C216 1.363 . S
C217 C218 1.385 . S
C218 H172 0.930 . S
C218 C217 1.385 . S
C218 C219 1.396 . S
C219 H173 0.929 . S
C219 C214 1.361 . S
C219 C218 1.396 . S
C220 O174 1.300 . S
C220 O175 1.209 . S
C220 C193 1.486 . S
C221 O176 1.199 . S
C221 O177 1.297 . S
C221 C205 1.476 . S
H222 O248 0.856 . S
H223 O251 0.854 . S
H224 C259 0.930 1_455 S
H225 C260 0.930 . S
H226 C262 0.930 . S
H227 C263 0.930 . S
H228 C265 0.931 . S
H229 C266 0.930 . S
H230 C268 0.930 . S
H231 C269 0.929 . S
H232 C271 0.930 . S
H233 C272 0.931 . S
H234 C274 0.930 . S
H235 C275 0.929 . S
H236 C277 0.931 . S
H237 C278 0.930 . S
H238 C280 0.930 . S
H239 C281 0.932 . S
H240 C283 0.930 . S
H241 C284 0.929 . S
H242 C286 0.931 . S
H243 C287 0.930 . S
H244 C289 0.929 . S
H245 C290 0.931 . S
H246 C292 0.930 . S
H247 C293 0.929 . S
O248 H222 0.856 . S
O248 C294 1.300 . S
O249 C294 1.209 . S
O250 C295 1.199 . S
O251 H223 0.854 . S
O251 C295 1.297 . S
C252 C253 1.404 . S
C252 C257 1.397 . S
C252 C258 1.492 1_455 S
C253 C252 1.404 . S
C253 C254 1.396 . S
C253 C264 1.492 . S
C254 C253 1.396 . S
C254 C255 1.397 . S
C254 C270 1.509 . S
C255 C254 1.397 . S
C255 C256 1.412 . S
C255 C276 1.485 . S
C256 C255 1.412 . S
C256 C257 1.388 . S
C256 C282 1.490 . S
C257 C252 1.397 . S
C257 C256 1.388 . S
C257 C288 1.519 1_455 S
C258 C252 1.492 1_655 S
C258 C259 1.363 . S
C258 C263 1.390 . S
C259 H224 0.930 1_655 S
C259 C258 1.363 . S
C259 C260 1.372 . S
C260 H225 0.930 . S
C260 C259 1.372 . S
C260 C261 1.383 . S
C261 C260 1.383 . S
C261 C262 1.395 . S
C262 H226 0.930 . S
C262 C261 1.395 . S
C262 C263 1.362 . S
C263 H227 0.930 . S
C263 C258 1.390 . S
C263 C262 1.362 . S
C264 C253 1.492 . S
C264 C265 1.377 . S
C264 C269 1.397 . S
C265 H228 0.931 . S
C265 C264 1.377 . S
C265 C266 1.376 . S
C266 H229 0.930 . S
C266 C265 1.376 . S
C266 C267 1.376 . S
C267 C266 1.376 . S
C267 C268 1.378 . S
C267 C294 1.486 1_556 S
C268 H230 0.930 . S
C268 C267 1.378 . S
C268 C269 1.376 . S
C269 H231 0.929 . S
C269 C264 1.397 . S
C269 C268 1.376 . S
C270 C254 1.509 . S
C270 C271 1.391 . S
C270 C275 1.386 . S
C271 H232 0.930 . S
C271 C270 1.391 . S
C271 C272 1.375 . S
C272 H233 0.931 . S
C272 C271 1.375 . S
C272 C273 1.375 . S
C273 C272 1.375 . S
C273 C274 1.361 . S
C274 H234 0.930 . S
C274 C273 1.361 . S
C274 C275 1.399 . S
C275 H235 0.929 . S
C275 C270 1.386 . S
C275 C274 1.399 . S
C276 C255 1.485 . S
C276 C277 1.394 . S
C276 C281 1.360 . S
C277 H236 0.931 . S
C277 C276 1.394 . S
C277 C278 1.372 . S
C278 H237 0.930 . S
C278 C277 1.372 . S
C278 C279 1.397 . S
C279 C278 1.397 . S
C279 C280 1.390 . S
C279 C295 1.476 . S
C280 H238 0.930 . S
C280 C279 1.390 . S
C280 C281 1.366 . S
C281 H239 0.932 . S
C281 C276 1.360 . S
C281 C280 1.366 . S
C282 C256 1.490 . S
C282 C283 1.380 . S
C282 C287 1.386 . S
C283 H240 0.930 . S
C283 C282 1.380 . S
C283 C284 1.381 . S
C284 H241 0.929 . S
C284 C283 1.381 . S
C284 C285 1.371 . S
C285 C284 1.371 . S
C285 C286 1.380 . S
C286 H242 0.931 . S
C286 C285 1.380 . S
C286 C287 1.387 . S
C287 H243 0.930 . S
C287 C282 1.386 . S
C287 C286 1.387 . S
C288 C257 1.519 1_655 S
C288 C289 1.377 . S
C288 C293 1.361 . S
C289 H244 0.929 . S
C289 C288 1.377 . S
C289 C290 1.386 . S
C290 H245 0.931 . S
C290 C289 1.386 . S
C290 C291 1.363 . S
C291 C290 1.363 . S
C291 C292 1.385 . S
C292 H246 0.930 . S
C292 C291 1.385 . S
C292 C293 1.396 . S
C293 H247 0.929 . S
C293 C288 1.361 . S
C293 C292 1.396 . S
C294 O248 1.300 . S
C294 O249 1.209 . S
C294 C267 1.486 1_554 S
C295 O250 1.199 . S
C295 O251 1.297 . S
C295 C279 1.476 . S
H296 O322 0.856 . S
H297 O325 0.854 . S
H298 C333 0.930 . S
H299 C334 0.930 . S
H300 C336 0.930 . S
H301 C337 0.930 . S
H302 C339 0.931 . S
H303 C340 0.930 . S
H304 C342 0.930 . S
H305 C343 0.929 1_545 S
H306 C345 0.930 . S
H307 C346 0.931 . S
H308 C348 0.930 . S
H309 C349 0.929 . S
H310 C351 0.931 . S
H311 C352 0.930 . S
H312 C354 0.930 . S
H313 C355 0.932 . S
H314 C357 0.930 . S
H315 C358 0.929 . S
H316 C360 0.931 . S
H317 C361 0.930 . S
H318 C363 0.929 1_556 S
H319 C364 0.931 . S
H320 C366 0.930 . S
H321 C367 0.929 . S
O322 H296 0.856 . S
O322 C368 1.300 . S
O323 C368 1.209 . S
O324 C369 1.199 . S
O325 H297 0.854 . S
O325 C369 1.297 . S
C326 C327 1.404 1_545 S
C326 C331 1.397 . S
C326 C332 1.492 . S
C327 C326 1.404 1_565 S
C327 C328 1.396 . S
C327 C338 1.492 . S
C328 C327 1.396 . S
C328 C329 1.397 . S
C328 C344 1.509 . S
C329 C328 1.397 . S
C329 C330 1.412 1_556 S
C329 C350 1.485 1_556 S
C330 C329 1.412 1_554 S
C330 C331 1.388 1_564 S
C330 C356 1.490 . S
C331 C326 1.397 . S
C331 C330 1.388 1_546 S
C331 C362 1.519 1_556 S
C332 C326 1.492 . S
C332 C333 1.363 . S
C332 C337 1.390 . S
C333 H298 0.930 . S
C333 C332 1.363 . S
C333 C334 1.372 . S
C334 H299 0.930 . S
C334 C333 1.372 . S
C334 C335 1.383 . S
C335 C334 1.383 . S
C335 C336 1.395 . S
C336 H300 0.930 . S
C336 C335 1.395 . S
C336 C337 1.362 . S
C337 H301 0.930 . S
C337 C332 1.390 . S
C337 C336 1.362 . S
C338 C327 1.492 . S
C338 C339 1.377 . S
C338 C343 1.397 . S
C339 H302 0.931 . S
C339 C338 1.377 . S
C339 C340 1.376 . S
C340 H303 0.930 . S
C340 C339 1.376 . S
C340 C341 1.376 . S
C341 C340 1.376 . S
C341 C342 1.378 . S
C341 C368 1.486 . S
C342 H304 0.930 . S
C342 C341 1.378 . S
C342 C343 1.376 . S
C343 H305 0.929 1_565 S
C343 C338 1.397 . S
C343 C342 1.376 . S
C344 C328 1.509 . S
C344 C345 1.391 . S
C344 C349 1.386 . S
C345 H306 0.930 . S
C345 C344 1.391 . S
C345 C346 1.375 . S
C346 H307 0.931 . S
C346 C345 1.375 . S
C346 C347 1.375 . S
C347 C346 1.375 . S
C347 C348 1.361 . S
C348 H308 0.930 . S
C348 C347 1.361 . S
C348 C349 1.399 . S
C349 H309 0.929 . S
C349 C344 1.386 . S
C349 C348 1.399 . S
C350 C329 1.485 1_554 S
C350 C351 1.394 . S
C350 C355 1.360 . S
C351 H310 0.931 . S
C351 C350 1.394 . S
C351 C352 1.372 . S
C352 H311 0.930 . S
C352 C351 1.372 . S
C352 C353 1.397 . S
C353 C352 1.397 . S
C353 C354 1.390 . S
C353 C369 1.476 . S
C354 H312 0.930 . S
C354 C353 1.390 . S
C354 C355 1.366 . S
C355 H313 0.932 . S
C355 C350 1.360 . S
C355 C354 1.366 . S
C356 C330 1.490 . S
C356 C357 1.380 1_565 S
C356 C361 1.386 . S
C357 H314 0.930 . S
C357 C356 1.380 1_545 S
C357 C358 1.381 . S
C358 H315 0.929 . S
C358 C357 1.381 . S
C358 C359 1.371 . S
C359 C358 1.371 . S
C359 C360 1.380 1_545 S
C360 H316 0.931 . S
C360 C359 1.380 1_565 S
C360 C361 1.387 . S
C361 H317 0.930 . S
C361 C356 1.386 . S
C361 C360 1.387 . S
C362 C331 1.519 1_554 S
C362 C363 1.377 . S
C362 C367 1.361 . S
C363 H318 0.929 1_554 S
C363 C362 1.377 . S
C363 C364 1.386 . S
C364 H319 0.931 . S
C364 C363 1.386 . S
C364 C365 1.363 . S
C365 C364 1.363 . S
C365 C366 1.385 . S
C366 H320 0.930 . S
C366 C365 1.385 . S
C366 C367 1.396 . S
C367 H321 0.929 . S
C367 C362 1.361 . S
C367 C366 1.396 . S
C368 O322 1.300 . S
C368 O323 1.209 . S
C368 C341 1.486 . S
C369 O324 1.199 . S
C369 O325 1.297 . S
C369 C353 1.476 . S
H370 O396 0.856 . S
H371 O399 0.854 . S
H372 C407 0.930 . S
H373 C408 0.930 . S
H374 C410 0.930 . S
H375 C411 0.930 . S
H376 C413 0.931 . S
H377 C414 0.930 . S
H378 C416 0.930 . S
H379 C417 0.929 . S
H380 C419 0.930 . S
H381 C420 0.931 . S
H382 C422 0.930 . S
H383 C423 0.929 . S
H384 C425 0.931 . S
H385 C426 0.930 . S
H386 C428 0.930 . S
H387 C429 0.932 . S
H388 C431 0.930 . S
H389 C432 0.929 . S
H390 C434 0.931 . S
H391 C435 0.930 . S
H392 C437 0.929 . S
H393 C438 0.931 . S
H394 C440 0.930 . S
H395 C441 0.929 . S
O396 H370 0.856 . S
O396 C442 1.300 . S
O397 C442 1.209 . S
O398 C443 1.199 . S
O399 H371 0.854 . S
O399 C443 1.297 . S
C400 C401 1.404 . S
C400 C405 1.397 . S
C400 C406 1.492 . S
C401 C400 1.404 . S
C401 C402 1.396 . S
C401 C412 1.492 . S
C402 C401 1.396 . S
C402 C403 1.397 . S
C402 C418 1.509 . S
C403 C402 1.397 . S
C403 C404 1.412 . S
C403 C424 1.485 . S
C404 C403 1.412 . S
C404 C405 1.388 . S
C404 C430 1.490 . S
C405 C400 1.397 . S
C405 C404 1.388 . S
C405 C436 1.519 . S
C406 C400 1.492 . S
C406 C407 1.363 . S
C406 C411 1.390 . S
C407 H372 0.930 . S
C407 C406 1.363 . S
C407 C408 1.372 . S
C408 H373 0.930 . S
C408 C407 1.372 . S
C408 C409 1.383 . S
C409 C408 1.383 . S
C409 C410 1.395 . S
C410 H374 0.930 . S
C410 C409 1.395 . S
C410 C411 1.362 . S
C411 H375 0.930 . S
C411 C406 1.390 . S
C411 C410 1.362 . S
C412 C401 1.492 . S
C412 C413 1.377 . S
C412 C417 1.397 . S
C413 H376 0.931 . S
C413 C412 1.377 . S
C413 C414 1.376 1_554 S
C414 H377 0.930 . S
C414 C413 1.376 1_556 S
C414 C415 1.376 . S
C415 C414 1.376 . S
C415 C416 1.378 . S
C415 C442 1.486 . S
C416 H378 0.930 . S
C416 C415 1.378 . S
C416 C417 1.376 1_556 S
C417 H379 0.929 . S
C417 C412 1.397 . S
C417 C416 1.376 1_554 S
C418 C402 1.509 . S
C418 C419 1.391 . S
C418 C423 1.386 . S
C419 H380 0.930 . S
C419 C418 1.391 . S
C419 C420 1.375 . S
C420 H381 0.931 . S
C420 C419 1.375 . S
C420 C421 1.375 . S
C421 C420 1.375 . S
C421 C422 1.361 . S
C422 H382 0.930 . S
C422 C421 1.361 . S
C422 C423 1.399 . S
C423 H383 0.929 . S
C423 C418 1.386 . S
C423 C422 1.399 . S
C424 C403 1.485 . S
C424 C425 1.394 . S
C424 C429 1.360 . S
C425 H384 0.931 . S
C425 C424 1.394 . S
C425 C426 1.372 . S
C426 H385 0.930 . S
C426 C425 1.372 . S
C426 C427 1.397 . S
C427 C426 1.397 . S
C427 C428 1.390 . S
C427 C443 1.476 . S
C428 H386 0.930 . S
C428 C427 1.390 . S
C428 C429 1.366 . S
C429 H387 0.932 . S
C429 C424 1.360 . S
C429 C428 1.366 . S
C430 C404 1.490 . S
C430 C431 1.380 . S
C430 C435 1.386 . S
C431 H388 0.930 . S
C431 C430 1.380 . S
C431 C432 1.381 . S
C432 H389 0.929 . S
C432 C431 1.381 . S
C432 C433 1.371 . S
C433 C432 1.371 . S
C433 C434 1.380 . S
C434 H390 0.931 . S
C434 C433 1.380 . S
C434 C435 1.387 . S
C435 H391 0.930 . S
C435 C430 1.386 . S
C435 C434 1.387 . S
C436 C405 1.519 . S
C436 C437 1.377 . S
C436 C441 1.361 . S
C437 H392 0.929 . S
C437 C436 1.377 . S
C437 C438 1.386 . S
C438 H393 0.931 . S
C438 C437 1.386 . S
C438 C439 1.363 . S
C439 C438 1.363 . S
C439 C440 1.385 . S
C440 H394 0.930 . S
C440 C439 1.385 . S
C440 C441 1.396 . S
C441 H395 0.929 . S
C441 C436 1.361 . S
C441 C440 1.396 . S
C442 O396 1.300 . S
C442 O397 1.209 . S
C442 C415 1.486 . S
C443 O398 1.199 . S
C443 O399 1.297 . S
C443 C427 1.476 . S
Zn444 O447 2.031 . S
Zn444 O449 2.049 . S
Zn444 O454 2.067 . S
Zn445 O446 1.962 . S
Zn445 O448 1.986 . S
Zn445 O450 1.996 . S
Zn445 O453 1.943 . S
O446 Zn445 1.962 . S
O446 C451 1.254 . S
O447 Zn444 2.031 . S
O447 C451 1.269 . S
O448 Zn445 1.986 . S
O448 C455 1.262 . S
O449 Zn444 2.049 . S
O449 C457 1.260 . S
O450 Zn445 1.996 . S
O450 C457 1.257 . S
C451 O446 1.254 . S
C451 O447 1.269 . S
C452 O453 1.249 . S
C452 O454 1.270 . S
O453 Zn445 1.943 . S
O453 C452 1.249 . S
O454 Zn444 2.067 . S
O454 C452 1.270 . S
C455 O448 1.262 . S
C455 O456 1.232 . S
O456 C455 1.232 . S
C457 O449 1.260 . S
C457 O450 1.257 . S
Zn458 O461 2.031 . S
Zn458 O463 2.049 . S
Zn458 O468 2.067 . S
Zn459 O460 1.962 . S
Zn459 O462 1.986 . S
Zn459 O464 1.996 . S
Zn459 O467 1.943 . S
O460 Zn459 1.962 . S
O460 C465 1.254 . S
O461 Zn458 2.031 . S
O461 C465 1.269 . S
O462 Zn459 1.986 . S
O462 C469 1.262 . S
O463 Zn458 2.049 . S
O463 C471 1.260 . S
O464 Zn459 1.996 . S
O464 C471 1.257 . S
C465 O460 1.254 . S
C465 O461 1.269 . S
C466 O467 1.249 . S
C466 O468 1.270 . S
O467 Zn459 1.943 . S
O467 C466 1.249 . S
O468 Zn458 2.067 . S
O468 C466 1.270 . S
C469 O462 1.262 . S
C469 O470 1.232 . S
O470 C469 1.232 . S
C471 O463 1.260 . S
C471 O464 1.257 . S
Zn472 O475 2.031 . S
Zn472 O477 2.049 . S
Zn472 O482 2.067 . S
Zn473 O474 1.962 . S
Zn473 O476 1.986 . S
Zn473 O478 1.996 . S
Zn473 O481 1.943 . S
O474 Zn473 1.962 . S
O474 C479 1.254 . S
O475 Zn472 2.031 . S
O475 C479 1.269 . S
O476 Zn473 1.986 . S
O476 C483 1.262 . S
O477 Zn472 2.049 . S
O477 C485 1.260 . S
O478 Zn473 1.996 . S
O478 C485 1.257 . S
C479 O474 1.254 . S
C479 O475 1.269 . S
C480 O481 1.249 . S
C480 O482 1.270 . S
O481 Zn473 1.943 . S
O481 C480 1.249 . S
O482 Zn472 2.067 . S
O482 C480 1.270 . S
C483 O476 1.262 . S
C483 O484 1.232 . S
O484 C483 1.232 . S
C485 O477 1.260 . S
C485 O478 1.257 . S
Zn486 O489 2.031 . S
Zn486 O491 2.049 . S
Zn486 O496 2.067 . S
Zn487 O488 1.962 . S
Zn487 O490 1.986 . S
Zn487 O492 1.996 . S
Zn487 O495 1.943 . S
O488 Zn487 1.962 . S
O488 C493 1.254 . S
O489 Zn486 2.031 . S
O489 C493 1.269 . S
O490 Zn487 1.986 . S
O490 C497 1.262 . S
O491 Zn486 2.049 . S
O491 C499 1.260 . S
O492 Zn487 1.996 . S
O492 C499 1.257 . S
C493 O488 1.254 . S
C493 O489 1.269 . S
C494 O495 1.249 . S
C494 O496 1.270 . S
O495 Zn487 1.943 . S
O495 C494 1.249 . S
O496 Zn486 2.067 . S
O496 C494 1.270 . S
C497 O490 1.262 . S
C497 O498 1.232 . S
O498 C497 1.232 . S
C499 O491 1.260 . S
C499 O492 1.257 . S
Zn500 O503 2.031 . S
Zn500 O505 2.051 . S
Zn500 O510 2.067 . S
Zn501 O502 1.962 . S
Zn501 O504 1.986 . S
Zn501 O506 1.996 . S
Zn501 O509 1.943 . S
O502 Zn501 1.962 . S
O502 C507 1.254 . S
O503 Zn500 2.031 . S
O503 C507 1.269 . S
O504 Zn501 1.986 . S
O504 C511 1.262 . S
O505 Zn500 2.051 . S
O505 C513 1.260 1_554 S
O506 Zn501 1.996 . S
O506 C513 1.257 1_554 S
C507 O502 1.254 . S
C507 O503 1.269 . S
C508 O509 1.249 . S
C508 O510 1.270 . S
O509 Zn501 1.943 . S
O509 C508 1.249 . S
O510 Zn500 2.067 . S
O510 C508 1.270 . S
C511 O504 1.262 . S
C511 O512 1.232 . S
O512 C511 1.232 . S
C513 O505 1.260 1_556 S
C513 O506 1.257 1_556 S
Zn514 O517 2.031 . S
Zn514 O519 2.049 . S
Zn514 O524 2.067 . S
Zn515 O516 1.962 . S
Zn515 O518 1.986 . S
Zn515 O520 1.996 . S
Zn515 O523 1.943 . S
O516 Zn515 1.962 . S
O516 C521 1.254 . S
O517 Zn514 2.031 . S
O517 C521 1.269 . S
O518 Zn515 1.986 . S
O518 C525 1.262 . S
O519 Zn514 2.049 . S
O519 C527 1.260 . S
O520 Zn515 1.996 . S
O520 C527 1.257 . S
C521 O516 1.254 . S
C521 O517 1.269 . S
C522 O523 1.249 . S
C522 O524 1.270 . S
O523 Zn515 1.943 . S
O523 C522 1.249 . S
O524 Zn514 2.067 . S
O524 C522 1.270 . S
C525 O518 1.262 . S
C525 O526 1.232 . S
O526 C525 1.232 . S
C527 O519 1.260 . S
C527 O520 1.257 . S
C521 C51 1.908 . S
C125 C455 1.569 . S
C217 C469 3.144 . S
C291 C483 1.678 . S
C497 C347 1.630 . S
C421 C507 1.001 . S
C143 C465 3.159 . S
C199 C479 2.168 . S
C273 C493 0.619 . S
C511 C365 2.175 . S
C525 C439 2.450 . S
C451 C69 3.295 . S
C63 C466 2.147 . S
C137 C480 2.319 . S
C494 C187 2.105 . S
C261 C513 2.285 . S
C527 C359 1.962 1_565 S
C452 C433 1.425 . S
C522 C113 2.500 . S
C211 C457 1.706 . S
C471 C285 2.606 . S
C335 C485 1.885 . S
C409 C499 2.202 1_554 S
C39 C508 2.254 . S
