# Generated by pormake.
# Topology apo, (3,6)-cn, num edge types: 1
# Building blocks:
#     Node 0, Type 0, BuildingBlock: MIDCAF_clean_linker_0, # of connection points: 3
#     Node 1, Type 0, BuildingBlock: MIDCAF_clean_linker_0, # of connection points: 3
#     Node 2, Type 0, BuildingBlock: MIDCAF_clean_linker_0, # of connection points: 3
#     Node 3, Type 0, BuildingBlock: MIDCAF_clean_linker_0, # of connection points: 3
#     Node 4, Type 0, BuildingBlock: MIDCAF_clean_linker_0, # of connection points: 3
#     Node 5, Type 0, BuildingBlock: MIDCAF_clean_linker_0, # of connection points: 3
#     Node 6, Type 0, BuildingBlock: MIDCAF_clean_linker_0, # of connection points: 3
#     Node 7, Type 0, BuildingBlock: MIDCAF_clean_linker_0, # of connection points: 3
#     Node 8, Type 1, BuildingBlock: KUMBOL_clean_sbu_1, # of connection points: 6
#     Node 9, Type 1, BuildingBlock: KUMBOL_clean_sbu_1, # of connection points: 6
#     Node 10, Type 1, BuildingBlock: KUMBOL_clean_sbu_1, # of connection points: 6
#     Node 11, Type 1, BuildingBlock: KUMBOL_clean_sbu_1, # of connection points: 6
#     Edge 12, Type (0, 1), BuildingBlock: MIFKUJ_clean_linker_0, # of connection points: 2
#     Edge 13, Type (0, 1), BuildingBlock: MIFKUJ_clean_linker_0, # of connection points: 2
#     Edge 14, Type (0, 1), BuildingBlock: MIFKUJ_clean_linker_0, # of connection points: 2
#     Edge 15, Type (0, 1), BuildingBlock: MIFKUJ_clean_linker_0, # of connection points: 2
#     Edge 16, Type (0, 1), BuildingBlock: MIFKUJ_clean_linker_0, # of connection points: 2
#     Edge 17, Type (0, 1), BuildingBlock: MIFKUJ_clean_linker_0, # of connection points: 2
#     Edge 18, Type (0, 1), BuildingBlock: MIFKUJ_clean_linker_0, # of connection points: 2
#     Edge 19, Type (0, 1), BuildingBlock: MIFKUJ_clean_linker_0, # of connection points: 2
#     Edge 20, Type (0, 1), BuildingBlock: MIFKUJ_clean_linker_0, # of connection points: 2
#     Edge 21, Type (0, 1), BuildingBlock: MIFKUJ_clean_linker_0, # of connection points: 2
#     Edge 22, Type (0, 1), BuildingBlock: MIFKUJ_clean_linker_0, # of connection points: 2
#     Edge 23, Type (0, 1), BuildingBlock: MIFKUJ_clean_linker_0, # of connection points: 2
#     Edge 24, Type (0, 1), BuildingBlock: MIFKUJ_clean_linker_0, # of connection points: 2
#     Edge 25, Type (0, 1), BuildingBlock: MIFKUJ_clean_linker_0, # of connection points: 2
#     Edge 26, Type (0, 1), BuildingBlock: MIFKUJ_clean_linker_0, # of connection points: 2
#     Edge 27, Type (0, 1), BuildingBlock: MIFKUJ_clean_linker_0, # of connection points: 2
#     Edge 28, Type (0, 1), BuildingBlock: MIFKUJ_clean_linker_0, # of connection points: 2
#     Edge 29, Type (0, 1), BuildingBlock: MIFKUJ_clean_linker_0, # of connection points: 2
#     Edge 30, Type (0, 1), BuildingBlock: MIFKUJ_clean_linker_0, # of connection points: 2
#     Edge 31, Type (0, 1), BuildingBlock: MIFKUJ_clean_linker_0, # of connection points: 2
#     Edge 32, Type (0, 1), BuildingBlock: MIFKUJ_clean_linker_0, # of connection points: 2
#     Edge 33, Type (0, 1), BuildingBlock: MIFKUJ_clean_linker_0, # of connection points: 2
#     Edge 34, Type (0, 1), BuildingBlock: MIFKUJ_clean_linker_0, # of connection points: 2
#     Edge 35, Type (0, 1), BuildingBlock: MIFKUJ_clean_linker_0, # of connection points: 2
# Relax obj value: 0.010
# Max RMSD: 0.084
# Mean RMSD: 0.068
data_MOF--net-apo--node1-KUMBOL_clean_sbu_1--node2-MIDCAF_clean_linker_0--edge1-MIFKUJ_clean_linker_0
_symmetry_space_group_name_H-M    P1
_symmetry_Int_Tables_number       1
_symmetry_cell_setting            triclinic
loop_
_symmetry_equiv_pos_as_xyz
'x, y, z'
_cell_length_a     35.827812
_cell_length_b     65.529914
_cell_length_c     77.727252
_cell_angle_alpha  90.01436
_cell_angle_beta   90.192982
_cell_angle_gamma 90.978727
loop_
_atom_site_label
_atom_site_type_symbol
_atom_site_fract_x
_atom_site_fract_y
_atom_site_fract_z
_atom_type_partial_charge
C0 C 0.30824 0.39377 0.47808 0.0
C1 C 0.30782 0.37474 0.48645 0.0
C2 C 0.29593 0.35737 0.47713 0.0
C3 C 0.28534 0.35895 0.45983 0.0
H4 H 0.23133 0.32744 0.41904 0.0
H5 H 0.20033 0.29996 0.40291 0.0
H6 H 0.19049 0.33989 0.35896 0.0
H7 H 0.22213 0.36699 0.37476 0.0
H8 H 0.25496 0.41151 0.37563 0.0
H9 H 0.27685 0.44086 0.35917 0.0
H10 H 0.35655 0.45563 0.39935 0.0
H11 H 0.33358 0.42672 0.41613 0.0
H12 H 0.29908 0.41023 0.45476 0.0
H13 H 0.31639 0.40756 0.4849 0.0
H14 H 0.29569 0.34241 0.48303 0.0
H15 H 0.2769 0.34522 0.45299 0.0
N16 N 0.25847 0.36431 0.42453 0.0
N17 N 0.26072 0.38318 0.3989 0.0
N18 N 0.28809 0.39656 0.42394 0.0
C19 C 0.24991 0.36605 0.40752 0.0
C20 C 0.2799 0.39846 0.40697 0.0
C21 C 0.27737 0.37962 0.43285 0.0
C22 C 0.22958 0.34943 0.3982 0.0
C23 C 0.22249 0.33036 0.40594 0.0
C24 C 0.20453 0.31462 0.39672 0.0
C25 C 0.19317 0.31761 0.37956 0.0
C26 C 0.19956 0.33684 0.372 0.0
C27 C 0.21759 0.35248 0.38115 0.0
C28 C 0.29254 0.41672 0.3972 0.0
C29 C 0.27705 0.42107 0.381 0.0
C30 C 0.28978 0.43787 0.3715 0.0
C31 C 0.31867 0.45062 0.37784 0.0
C32 C 0.33388 0.44637 0.39415 0.0
C33 C 0.32083 0.4297 0.40375 0.0
C34 C 0.28678 0.37791 0.45139 0.0
C35 C 0.29808 0.39531 0.46077 0.0
C36 C 0.20451 0.10006 0.97803 0.0
C37 C 0.20674 0.11903 0.98638 0.0
C38 C 0.22084 0.13606 0.97737 0.0
C39 C 0.23204 0.13418 0.96022 0.0
H40 H 0.28104 0.1659 0.91863 0.0
H41 H 0.31232 0.19306 0.90244 0.0
H42 H 0.329 0.15134 0.86018 0.0
H43 H 0.29674 0.12456 0.876 0.0
H44 H 0.23628 0.08859 0.87252 0.0
H45 H 0.21131 0.05957 0.85633 0.0
H46 H 0.17642 0.03061 0.90359 0.0
H47 H 0.2011 0.0597 0.91998 0.0
H48 H 0.21266 0.08339 0.9548 0.0
H49 H 0.19345 0.08672 0.98462 0.0
H50 H 0.22312 0.15083 0.98358 0.0
H51 H 0.24241 0.14763 0.95356 0.0
N52 N 0.25742 0.1285 0.92491 0.0
N53 N 0.25375 0.10973 0.89924 0.0
N54 N 0.22705 0.09647 0.92437 0.0
C55 C 0.26543 0.12669 0.90788 0.0
C56 C 0.23451 0.09457 0.90735 0.0
C57 C 0.23838 0.11334 0.93325 0.0
C58 C 0.28606 0.14307 0.89858 0.0
C59 C 0.29146 0.16253 0.9059 0.0
C60 C 0.30959 0.17809 0.89663 0.0
C61 C 0.32297 0.17448 0.87992 0.0
C62 C 0.31832 0.15485 0.87284 0.0
C63 C 0.29996 0.13941 0.88199 0.0
C64 C 0.22066 0.07654 0.89759 0.0
C65 C 0.22342 0.07606 0.87954 0.0
C66 C 0.20899 0.0595 0.87022 0.0
C67 C 0.19191 0.04296 0.87874 0.0
C68 C 0.18969 0.04317 0.89676 0.0
C69 C 0.20373 0.05986 0.9061 0.0
C70 C 0.22889 0.11528 0.95171 0.0
C71 C 0.21532 0.09821 0.96088 0.0
C72 C 0.82556 0.10253 0.53154 0.0
C73 C 0.81829 0.12013 0.52189 0.0
C74 C 0.79939 0.13626 0.52982 0.0
C75 C 0.7885 0.13488 0.54709 0.0
H76 H 0.72711 0.16413 0.58721 0.0
H77 H 0.69604 0.19113 0.60331 0.0
H78 H 0.71351 0.15789 0.65053 0.0
H79 H 0.74451 0.13128 0.63477 0.0
H80 H 0.76874 0.08674 0.63424 0.0
H81 H 0.79015 0.05786 0.65097 0.0
H82 H 0.85686 0.03827 0.60799 0.0
H83 H 0.83471 0.06688 0.59104 0.0
H84 H 0.82096 0.08727 0.55565 0.0
H85 H 0.8394 0.08967 0.52576 0.0
H86 H 0.79358 0.1501 0.52275 0.0
H87 H 0.77438 0.14765 0.55285 0.0
N88 N 0.76688 0.13081 0.58332 0.0
N89 N 0.76891 0.11227 0.60913 0.0
N90 N 0.79627 0.09905 0.58438 0.0
C91 C 0.75829 0.12912 0.60034 0.0
C92 C 0.78784 0.09718 0.6013 0.0
C93 C 0.78589 0.11571 0.57525 0.0
C94 C 0.73854 0.14552 0.60965 0.0
C95 C 0.72431 0.16261 0.60102 0.0
C96 C 0.70637 0.17802 0.61022 0.0
C97 C 0.70266 0.1767 0.6282 0.0
C98 C 0.7165 0.15954 0.63673 0.0
C99 C 0.73412 0.14417 0.6276 0.0
C100 C 0.80005 0.07921 0.61128 0.0
C101 C 0.78787 0.07627 0.62829 0.0
C102 C 0.80031 0.05974 0.63794 0.0
C103 C 0.82538 0.0458 0.63086 0.0
C104 C 0.83719 0.04858 0.61378 0.0
C105 C 0.82461 0.06506 0.60408 0.0
C106 C 0.79622 0.11732 0.55679 0.0
C107 C 0.8147 0.10113 0.54872 0.0
C108 C 0.69534 0.39139 0.03052 0.0
C109 C 0.70048 0.37329 0.02123 0.0
C110 C 0.71651 0.35654 0.02965 0.0
C111 C 0.72683 0.35784 0.04702 0.0
H112 H 0.78188 0.32691 0.088 0.0
H113 H 0.81315 0.30007 0.10419 0.0
H114 H 0.80854 0.33702 0.15013 0.0
H115 H 0.77696 0.36342 0.13428 0.0
H116 H 0.72586 0.40045 0.13607 0.0
H117 H 0.70397 0.42944 0.15233 0.0
H118 H 0.67769 0.46063 0.10491 0.0
H119 H 0.6983 0.4312 0.08859 0.0
H120 H 0.70063 0.40686 0.05456 0.0
H121 H 0.68267 0.40449 0.02451 0.0
H122 H 0.72118 0.34244 0.02278 0.0
H123 H 0.73883 0.34462 0.05314 0.0
N124 N 0.74882 0.36212 0.08326 0.0
N125 N 0.74506 0.38033 0.10918 0.0
N126 N 0.71939 0.39388 0.08408 0.0
C127 C 0.75644 0.36363 0.10042 0.0
C128 C 0.72657 0.3955 0.10115 0.0
C129 C 0.7303 0.37729 0.075 0.0
C130 C 0.77653 0.34733 0.1098 0.0
C131 C 0.78755 0.32929 0.10155 0.0
C132 C 0.80565 0.31395 0.11081 0.0
C133 C 0.81302 0.3163 0.12852 0.0
C134 C 0.80261 0.33448 0.13662 0.0
C135 C 0.78461 0.34973 0.12743 0.0
C136 C 0.7139 0.41345 0.111 0.0
C137 C 0.7155 0.41348 0.12907 0.0
C138 C 0.70315 0.43022 0.13842 0.0
C139 C 0.68925 0.4475 0.12997 0.0
C140 C 0.68777 0.44751 0.11188 0.0
C141 C 0.69981 0.43065 0.10251 0.0
C142 C 0.72111 0.37588 0.05638 0.0
C143 C 0.70545 0.39267 0.04785 0.0
C144 C 0.70343 0.59865 0.52705 0.0
C145 C 0.70728 0.61748 0.51862 0.0
C146 C 0.72343 0.63412 0.52744 0.0
C147 C 0.73543 0.63198 0.54449 0.0
H148 H 0.80613 0.65849 0.58311 0.0
H149 H 0.83941 0.68554 0.59882 0.0
H150 H 0.81306 0.6553 0.6468 0.0
H151 H 0.78137 0.62816 0.63124 0.0
H152 H 0.7579 0.58232 0.63056 0.0
H153 H 0.73303 0.55426 0.64782 0.0
H154 H 0.66497 0.53413 0.60495 0.0
H155 H 0.68981 0.56221 0.5875 0.0
H156 H 0.71094 0.58189 0.55036 0.0
H157 H 0.69096 0.58563 0.52048 0.0
H158 H 0.72694 0.64874 0.5211 0.0
H159 H 0.74772 0.64513 0.55095 0.0
N160 N 0.76169 0.62622 0.57965 0.0
N161 N 0.75916 0.60761 0.60538 0.0
N162 N 0.73059 0.59437 0.58057 0.0
C163 C 0.77054 0.6245 0.59662 0.0
C164 C 0.73925 0.59248 0.59751 0.0
C165 C 0.74175 0.61115 0.57152 0.0
C166 C 0.79113 0.64106 0.60586 0.0
C167 C 0.80765 0.65759 0.59701 0.0
C168 C 0.82658 0.67316 0.60603 0.0
C169 C 0.8292 0.67261 0.62411 0.0
C170 C 0.81251 0.65608 0.63288 0.0
C171 C 0.79397 0.64051 0.6239 0.0
C172 C 0.72575 0.57463 0.60762 0.0
C173 C 0.73782 0.57188 0.6247 0.0
C174 C 0.72373 0.55575 0.63461 0.0
C175 C 0.69702 0.54211 0.62773 0.0
C176 C 0.6853 0.54459 0.6106 0.0
C177 C 0.69968 0.56062 0.6006 0.0
C178 C 0.73089 0.61324 0.55314 0.0
C179 C 0.71484 0.59658 0.54417 0.0
C180 C 0.82171 0.89146 0.02933 0.0
C181 C 0.80674 0.87594 0.0188 0.0
C182 C 0.77902 0.86277 0.02552 0.0
C183 C 0.76724 0.86478 0.04261 0.0
H184 H 0.71104 0.83339 0.0832 0.0
H185 H 0.67838 0.80612 0.09882 0.0
H186 H 0.69794 0.83845 0.14655 0.0
H187 H 0.72921 0.86574 0.13107 0.0
H188 H 0.76332 0.90898 0.13173 0.0
H189 H 0.78967 0.93703 0.14854 0.0
H190 H 0.84543 0.96042 0.10328 0.0
H191 H 0.81842 0.93261 0.0863 0.0
H192 H 0.82219 0.90569 0.054 0.0
H193 H 0.84274 0.90199 0.02442 0.0
H194 H 0.76709 0.85063 0.01769 0.0
H195 H 0.74625 0.85421 0.04748 0.0
N196 N 0.75152 0.867 0.07957 0.0
N197 N 0.75489 0.8854 0.10547 0.0
N198 N 0.78301 0.8987 0.0807 0.0
C199 C 0.7431 0.86858 0.09661 0.0
C200 C 0.77473 0.90055 0.09763 0.0
C201 C 0.77153 0.88207 0.07154 0.0
C202 C 0.7227 0.85189 0.1058 0.0
C203 C 0.70817 0.83472 0.09701 0.0
C204 C 0.68961 0.819 0.106 0.0
C205 C 0.68522 0.82007 0.12398 0.0
C206 C 0.69993 0.83723 0.13269 0.0
C207 C 0.71821 0.85291 0.12376 0.0
C208 C 0.78895 0.91836 0.10765 0.0
C209 C 0.78101 0.92013 0.12529 0.0
C210 C 0.79634 0.93617 0.13498 0.0
C211 C 0.82006 0.95084 0.12731 0.0
C212 C 0.82712 0.94945 0.10957 0.0
C213 C 0.81174 0.9334 0.09986 0.0
C214 C 0.78263 0.88016 0.05323 0.0
C215 C 0.80969 0.89361 0.04628 0.0
C216 C 0.1866 0.88806 0.47384 0.0
C217 C 0.20184 0.8734 0.48483 0.0
C218 C 0.22921 0.86029 0.47844 0.0
C219 C 0.24067 0.86164 0.46125 0.0
H220 H 0.27856 0.82567 0.41822 0.0
H221 H 0.30894 0.79829 0.40238 0.0
H222 H 0.33038 0.83964 0.3602 0.0
H223 H 0.30037 0.8669 0.37586 0.0
H224 H 0.25183 0.90647 0.37238 0.0
H225 H 0.22843 0.93523 0.35584 0.0
H226 H 0.16911 0.95641 0.40048 0.0
H227 H 0.19218 0.92776 0.41708 0.0
H228 H 0.1858 0.9011 0.44873 0.0
H229 H 0.16582 0.89852 0.47848 0.0
H230 H 0.24131 0.8488 0.48666 0.0
H231 H 0.26162 0.85126 0.45665 0.0
N232 N 0.25679 0.86316 0.42415 0.0
N233 N 0.25618 0.88181 0.39834 0.0
N234 N 0.22694 0.89471 0.42278 0.0
C235 C 0.26651 0.86497 0.40727 0.0
C236 C 0.23639 0.89675 0.406 0.0
C237 C 0.23702 0.87809 0.43199 0.0
C238 C 0.28685 0.84851 0.39832 0.0
C239 C 0.29001 0.82897 0.40563 0.0
C240 C 0.30721 0.81324 0.39653 0.0
C241 C 0.32202 0.81682 0.38005 0.0
C242 C 0.31959 0.83645 0.37294 0.0
C243 C 0.30213 0.85206 0.38192 0.0
C244 C 0.22381 0.91469 0.39607 0.0
C245 C 0.23398 0.9173 0.37873 0.0
C246 C 0.22075 0.93382 0.36926 0.0
C247 C 0.1969 0.94798 0.37688 0.0
C248 C 0.18714 0.94558 0.39424 0.0
C249 C 0.20054 0.92917 0.40375 0.0
C250 C 0.22532 0.87632 0.45023 0.0
C251 C 0.1983 0.88957 0.45679 0.0
C252 C 0.31532 0.60056 0.97549 0.0
C253 C 0.31143 0.61884 0.98468 0.0
C254 C 0.29455 0.63549 0.97648 0.0
C255 C 0.28254 0.63398 0.95936 0.0
H256 H 0.22245 0.66383 0.91964 0.0
H257 H 0.19053 0.69083 0.90397 0.0
H258 H 0.20098 0.65647 0.85684 0.0
H259 H 0.23168 0.62951 0.87234 0.0
H260 H 0.2724 0.58924 0.87075 0.0
H261 H 0.29723 0.56111 0.85413 0.0
H262 H 0.34191 0.53474 0.90061 0.0
H263 H 0.31769 0.563 0.91727 0.0
H264 H 0.30734 0.58474 0.95177 0.0
H265 H 0.32743 0.5873 0.9815 0.0
H266 H 0.29138 0.64986 0.98315 0.0
H267 H 0.27024 0.64718 0.95334 0.0
N268 N 0.25797 0.62943 0.92354 0.0
N269 N 0.26085 0.61131 0.89754 0.0
N270 N 0.28767 0.5978 0.92239 0.0
C271 C 0.24971 0.62796 0.90646 0.0
C272 C 0.2798 0.59617 0.90538 0.0
C273 C 0.27692 0.61429 0.9316 0.0
C274 C 0.2297 0.64442 0.89731 0.0
C275 C 0.21775 0.66201 0.90595 0.0
C276 C 0.19961 0.67753 0.89696 0.0
C277 C 0.19302 0.67579 0.87915 0.0
C278 C 0.20489 0.65819 0.87059 0.0
C279 C 0.22284 0.64273 0.87952 0.0
C280 C 0.29316 0.57849 0.89537 0.0
C281 C 0.28735 0.57743 0.87748 0.0
C282 C 0.30144 0.56124 0.86794 0.0
C283 C 0.32164 0.54574 0.87605 0.0
C284 C 0.32694 0.54661 0.89395 0.0
C285 C 0.31284 0.56278 0.90351 0.0
C286 C 0.28731 0.61581 0.95006 0.0
C287 C 0.30351 0.59908 0.95841 0.0
C288 C 0.87579 0.12232 0.26064 0.0
C289 C 0.86451 0.08771 0.27057 0.0
C290 C 0.88832 0.10495 0.26886 0.0
C291 C 0.82844 0.08806 0.26349 0.0
C292 C 0.83931 0.12285 0.25378 0.0
C293 C 0.81597 0.1055 0.25498 0.0
N294 N 0.89865 0.13906 0.26015 0.0
C295 C 0.88558 0.15723 0.25436 0.0
C296 C 0.82684 0.14109 0.24658 0.0
C297 C 0.84991 0.15846 0.24713 0.0
Gd298 Gd 0.0469 0.1333 0.23647 0.0
Gd299 Gd 0.95873 0.13542 0.27188 0.0
N300 N 0.92277 0.10546 0.27624 0.0
C301 C 0.87703 0.07099 0.28002 0.0
C302 C 0.93349 0.09001 0.28681 0.0
C303 C 0.91145 0.0723 0.28844 0.0
H304 H 0.9582 0.09169 0.29462 0.0
H305 H 0.92054 0.05993 0.29658 0.0
H306 H 0.03917 0.18039 0.2206 0.0
H307 H 0.90211 0.17093 0.25575 0.0
H308 H 0.07632 0.21245 0.219 0.0
H309 H 0.85965 0.05742 0.28155 0.0
H310 H 0.80951 0.07515 0.26501 0.0
H311 H 0.1085 0.09636 0.24542 0.0
H312 H 0.799 0.14213 0.2412 0.0
H313 H 0.83998 0.17288 0.2423 0.0
H314 H 0.19407 0.19511 0.24426 0.0
H315 H 0.78781 0.10564 0.24985 0.0
H316 H 0.2135 0.12483 0.25792 0.0
H317 H 0.17412 0.09368 0.2547 0.0
N318 N 0.10971 0.12887 0.24468 0.0
C319 C 0.13158 0.146 0.24525 0.0
C320 C 0.12508 0.11015 0.24721 0.0
C321 C 0.18451 0.12614 0.25412 0.0
C322 C 0.16239 0.10853 0.2523 0.0
C323 C 0.16947 0.14514 0.25018 0.0
H324 H 0.22052 0.16277 0.25422 0.0
N325 N 0.08109 0.16409 0.23377 0.0
C326 C 0.11691 0.16415 0.23947 0.0
C327 C 0.12425 0.19967 0.23158 0.0
C328 C 0.1394 0.18201 0.2387 0.0
C329 C 0.06694 0.18091 0.22586 0.0
C330 C 0.08801 0.19903 0.22491 0.0
O331 O 0.94764 0.12016 0.24616 0.0
O332 O 0.00581 0.10744 0.24149 0.0
O333 O 0.04363 0.13892 0.20878 0.0
O334 O 0.06796 0.11132 0.21829 0.0
O335 O 1.0025 0.11157 0.2781 0.0
O336 O 0.05313 0.11124 0.2588 0.0
O337 O 0.04498 0.16012 0.25479 0.0
O338 O 0.01893 0.14333 0.27735 0.0
O339 O 0.94189 0.13235 0.29874 0.0
O340 O 0.9439 0.16243 0.28653 0.0
O341 O 0.99112 0.14666 0.22988 0.0
O342 O 0.96767 0.16256 0.25384 0.0
C343 C 0.97009 0.10786 0.238 0.0
C344 C 0.03504 0.10468 0.27262 0.0
C345 C 0.09335 0.12495 0.19284 0.0
C346 C 0.11734 0.12478 0.16354 0.0
C347 C 0.16022 0.12638 0.18777 0.0
C348 C 0.13018 0.12603 0.1991 0.0
C349 C 0.15392 0.12561 0.1701 0.0
C350 C 0.08696 0.12467 0.17496 0.0
C351 C 0.06188 0.12261 0.20488 0.0
C352 C 0.17647 0.1815 0.24457 0.0
C353 C 0.1915 0.16309 0.25028 0.0
H354 H 0.1406 0.21371 0.23078 0.0
C355 C 0.03605 0.15945 0.27112 0.0
C356 C 0.9753 0.16234 0.23721 0.0
C357 C 0.92499 0.16127 0.31673 0.0
C358 C 0.9073 0.15892 0.34709 0.0
C359 C 0.90622 0.19156 0.33228 0.0
C360 C 0.91824 0.18231 0.31718 0.0
C361 C 0.90061 0.17997 0.3471 0.0
C362 C 0.91989 0.14958 0.33188 0.0
C363 C 0.93726 0.15186 0.30043 0.0
H364 H 0.1885 0.12695 0.19272 0.0
H365 H 0.1359 0.12617 0.21273 0.0
H366 H 0.17767 0.12566 0.1615 0.0
H367 H 0.05868 0.12362 0.17 0.0
H368 H 0.90105 0.20778 0.33248 0.0
H369 H 0.92211 0.19168 0.30583 0.0
H370 H 0.89112 0.18749 0.35866 0.0
H371 H 0.92497 0.13332 0.33178 0.0
C372 C 0.63414 0.37392 0.7584 0.0
C373 C 0.6378 0.41066 0.76216 0.0
C374 C 0.61757 0.39204 0.76333 0.0
C375 C 0.67462 0.41079 0.756 0.0
C376 C 0.6714 0.37396 0.75256 0.0
C377 C 0.6914 0.3925 0.75126 0.0
N378 N 0.61412 0.35621 0.75961 0.0
C379 C 0.63046 0.33794 0.75662 0.0
C380 C 0.68769 0.3553 0.7485 0.0
C381 C 0.66724 0.33718 0.75075 0.0
Gd382 Gd 0.46314 0.35696 0.73742 0.0
Gd383 Gd 0.55334 0.35879 0.77004 0.0
N384 N 0.58182 0.39146 0.76927 0.0
C385 C 0.62052 0.42861 0.76732 0.0
C386 C 0.56534 0.40889 0.77478 0.0
C387 C 0.58422 0.42769 0.77374 0.0
H388 H 0.5379 0.40853 0.7802 0.0
H389 H 0.57084 0.44147 0.77803 0.0
H390 H 0.47155 0.31021 0.72153 0.0
H391 H 0.61556 0.32394 0.7593 0.0
H392 H 0.43646 0.2774 0.72117 0.0
H393 H 0.63511 0.44321 0.7666 0.0
H394 H 0.69051 0.42496 0.75501 0.0
H395 H 0.40029 0.39194 0.74921 0.0
H396 H 0.71628 0.35468 0.74405 0.0
H397 H 0.67995 0.32262 0.74824 0.0
H398 H 0.32559 0.29134 0.75327 0.0
H399 H 0.72 0.39282 0.74676 0.0
H400 H 0.30432 0.36068 0.76916 0.0
H401 H 0.33881 0.39292 0.76328 0.0
N402 N 0.40386 0.35969 0.75012 0.0
C403 C 0.3842 0.34187 0.75197 0.0
C404 C 0.38708 0.37787 0.75318 0.0
C405 C 0.33218 0.3602 0.7638 0.0
C406 C 0.3516 0.37842 0.76057 0.0
C407 C 0.34785 0.34166 0.75894 0.0
H408 H 0.29961 0.32275 0.76529 0.0
N409 N 0.43299 0.32496 0.73772 0.0
C410 C 0.39883 0.32408 0.74526 0.0
C411 C 0.39173 0.28869 0.73683 0.0
C412 C 0.37753 0.30577 0.74526 0.0
C413 C 0.44579 0.3088 0.7285 0.0
C414 C 0.42577 0.29031 0.72818 0.0
O415 O 0.5579 0.37289 0.74348 0.0
O416 O 0.49921 0.3855 0.73847 0.0
O417 O 0.4733 0.35684 0.70964 0.0
O418 O 0.4188 0.36371 0.71951 0.0
O419 O 0.50327 0.37627 0.77897 0.0
O420 O 0.46451 0.38442 0.75574 0.0
O421 O 0.47327 0.33078 0.75574 0.0
O422 O 0.49619 0.34859 0.77851 0.0
O423 O 0.57617 0.36579 0.79562 0.0
O424 O 0.57389 0.33423 0.78596 0.0
O425 O 0.51767 0.34369 0.72887 0.0
O426 O 0.548 0.33076 0.75274 0.0
C427 C 0.53555 0.386 0.73602 0.0
C428 C 0.47661 0.38708 0.77177 0.0
C429 C 0.43216 0.37549 0.6915 0.0
C430 C 0.4227 0.38046 0.66067 0.0
C431 C 0.40967 0.40783 0.68082 0.0
C432 C 0.42042 0.3955 0.69453 0.0
C433 C 0.41082 0.40041 0.664 0.0
C434 C 0.43318 0.36799 0.67453 0.0
C435 C 0.43907 0.36145 0.70588 0.0
C436 C 0.34222 0.30531 0.75302 0.0
C437 C 0.32746 0.32319 0.7599 0.0
H438 H 0.37612 0.27438 0.73646 0.0
C439 C 0.47925 0.33244 0.77229 0.0
C440 C 0.53849 0.32986 0.73629 0.0
C441 C 0.60068 0.33912 0.81446 0.0
C442 C 0.61157 0.34087 0.84552 0.0
C443 C 0.63747 0.31327 0.8287 0.0
C444 C 0.62157 0.32121 0.81381 0.0
C445 C 0.63234 0.32293 0.84446 0.0
C446 C 0.59617 0.3492 0.83039 0.0
C447 C 0.58313 0.34662 0.79849 0.0
H448 H 0.39988 0.42309 0.68323 0.0
H449 H 0.41868 0.4014 0.70752 0.0
H450 H 0.40162 0.41011 0.65358 0.0
H451 H 0.44151 0.35241 0.67214 0.0
H452 H 0.65363 0.29949 0.82805 0.0
H453 H 0.62569 0.31331 0.80173 0.0
H454 H 0.64473 0.31639 0.8559 0.0
H455 H 0.57992 0.36297 0.83112 0.0
C456 C 0.88193 0.84441 0.7576 0.0
C457 C 0.87621 0.8085 0.7651 0.0
C458 C 0.89807 0.82649 0.76356 0.0
C459 C 0.83809 0.80884 0.76091 0.0
C460 C 0.84403 0.8445 0.75269 0.0
C461 C 0.82216 0.82666 0.75449 0.0
N462 N 0.90329 0.86172 0.7566 0.0
C463 C 0.88879 0.87951 0.75064 0.0
C464 C 0.82903 0.86263 0.74636 0.0
C465 C 0.85158 0.88017 0.74526 0.0
Gd466 Gd 0.05175 0.8555 0.73613 0.0
Gd467 Gd 0.96328 0.8592 0.7681 0.0
N468 N 0.93496 0.82671 0.76798 0.0
C469 C 0.89311 0.79077 0.77113 0.0
C470 C 0.95107 0.80971 0.77456 0.0
C471 C 0.9307 0.7914 0.77588 0.0
H472 H 0.97909 0.81025 0.77939 0.0
H473 H 0.94377 0.77791 0.781 0.0
H474 H 0.03928 0.90452 0.72398 0.0
H475 H 0.90545 0.89337 0.75061 0.0
H476 H 0.07582 0.93648 0.72285 0.0
H477 H 0.87724 0.77663 0.77244 0.0
H478 H 0.82059 0.79538 0.76263 0.0
H479 H 0.10854 0.82063 0.75324 0.0
H480 H 0.80003 0.86328 0.74243 0.0
H481 H 0.84009 0.89432 0.74061 0.0
H482 H 0.19787 0.9176 0.74182 0.0
H483 H 0.7928 0.82654 0.7511 0.0
H484 H 0.21501 0.84939 0.76198 0.0
H485 H 0.17359 0.81887 0.76357 0.0
N486 N 0.11229 0.85222 0.74708 0.0
C487 C 0.13451 0.8692 0.74612 0.0
C488 C 0.12588 0.83426 0.75314 0.0
C489 C 0.18622 0.85038 0.75781 0.0
C490 C 0.1629 0.83312 0.75875 0.0
C491 C 0.17221 0.86867 0.75135 0.0
H492 H 0.22399 0.88609 0.7535 0.0
N493 N 0.08276 0.88736 0.73526 0.0
C494 C 0.11942 0.88723 0.73996 0.0
C495 C 0.12586 0.92297 0.73266 0.0
C496 C 0.14196 0.90502 0.73869 0.0
C497 C 0.06737 0.90463 0.72876 0.0
C498 C 0.08838 0.92276 0.72773 0.0
O499 O 0.95415 0.8434 0.74233 0.0
O500 O 0.01108 0.82911 0.73804 0.0
O501 O 0.05167 0.85895 0.70784 0.0
O502 O 0.08729 0.83675 0.7207 0.0
O503 O 0.01571 0.84407 0.77811 0.0
O504 O 0.04056 0.82917 0.754 0.0
O505 O 0.06076 0.87275 0.76123 0.0
O506 O 1.00318 0.88615 0.76778 0.0
O507 O 0.96166 0.85448 0.79598 0.0
O508 O 0.92298 0.87491 0.78366 0.0
O509 O 1.00026 0.87202 0.72678 0.0
O510 O 0.97362 0.88638 0.75096 0.0
C511 C 0.97558 0.83043 0.7344 0.0
C512 C 0.03816 0.83101 0.77077 0.0
C513 C 0.09139 0.83728 0.68973 0.0
C514 C 0.10578 0.84153 0.65924 0.0
C515 C 0.12315 0.81054 0.67409 0.0
C516 C 0.108 0.81799 0.68928 0.0
C517 C 0.12218 0.82224 0.65917 0.0
C518 C 0.09004 0.84906 0.67453 0.0
C519 C 0.07655 0.84476 0.70626 0.0
C520 C 0.17983 0.90431 0.74331 0.0
C521 C 0.19481 0.88628 0.74981 0.0
H522 H 0.14217 0.93699 0.73162 0.0
C523 C 0.03972 0.88589 0.76934 0.0
C524 C 0.97892 0.88563 0.7342 0.0
C525 C 0.93231 0.87946 0.81367 0.0
C526 C 0.91961 0.88187 0.84445 0.0
C527 C 0.92567 0.91262 0.8272 0.0
C528 C 0.93224 0.90087 0.81256 0.0
C529 C 0.91926 0.9032 0.84304 0.0
C530 C 0.9262 0.87 0.82974 0.0
C531 C 0.93376 0.86674 0.79804 0.0
H532 H 0.13593 0.7957 0.67392 0.0
H533 H 0.10933 0.80859 0.70072 0.0
H534 H 0.1345 0.81629 0.64752 0.0
H535 H 0.07769 0.86404 0.67466 0.0
H536 H 0.92501 0.92909 0.82621 0.0
H537 H 0.93631 0.90849 0.80033 0.0
H538 H 0.91371 0.91255 0.85422 0.0
H539 H 0.92553 0.85349 0.8307 0.0
C540 C 0.63207 0.65335 0.25664 0.0
C541 C 0.63684 0.68827 0.26687 0.0
C542 C 0.61614 0.66992 0.26486 0.0
C543 C 0.67362 0.6896 0.26078 0.0
C544 C 0.66887 0.65478 0.25027 0.0
C545 C 0.68945 0.67302 0.25232 0.0
N546 N 0.61208 0.63561 0.25542 0.0
C547 C 0.62787 0.61853 0.24883 0.0
C548 C 0.68444 0.63757 0.24263 0.0
C549 C 0.6639 0.61932 0.24202 0.0
Gd550 Gd 0.4653 0.63354 0.23593 0.0
Gd551 Gd 0.55389 0.63511 0.26902 0.0
N552 N 0.58123 0.6678 0.27159 0.0
C553 C 0.62044 0.70454 0.27551 0.0
C554 C 0.56611 0.6832 0.28092 0.0
C555 C 0.58496 0.70196 0.28261 0.0
H556 H 0.54025 0.68091 0.28766 0.0
H557 H 0.57256 0.71422 0.28983 0.0
H558 H 0.47338 0.58652 0.2207 0.0
H559 H 0.61345 0.60406 0.24935 0.0
H560 H 0.43779 0.5538 0.2208 0.0
H561 H 0.63535 0.71894 0.27718 0.0
H562 H 0.69038 0.70327 0.26288 0.0
H563 H 0.40476 0.66942 0.24961 0.0
H564 H 0.71264 0.63805 0.23764 0.0
H565 H 0.67613 0.60571 0.23671 0.0
H566 H 0.32635 0.56901 0.25207 0.0
H567 H 0.71795 0.6743 0.24776 0.0
H568 H 0.30683 0.63856 0.26795 0.0
H569 H 0.34295 0.67049 0.2631 0.0
N570 N 0.40617 0.63689 0.24871 0.0
C571 C 0.38585 0.61924 0.25036 0.0
C572 C 0.39046 0.65521 0.25251 0.0
C573 C 0.33461 0.63789 0.26253 0.0
C574 C 0.35493 0.65595 0.25984 0.0
C575 C 0.34957 0.61928 0.25738 0.0
H576 H 0.30093 0.60071 0.26381 0.0
N577 N 0.43448 0.6018 0.23643 0.0
C578 C 0.40012 0.60127 0.24378 0.0
C579 C 0.39279 0.56569 0.23596 0.0
C580 C 0.37859 0.58305 0.24399 0.0
C581 C 0.44736 0.58537 0.22757 0.0
C582 C 0.42709 0.56695 0.22748 0.0
O583 O 0.55921 0.64947 0.24241 0.0
O584 O 0.50088 0.66233 0.23678 0.0
O585 O 0.47527 0.63106 0.20832 0.0
O586 O 0.4223 0.6416 0.21767 0.0
O587 O 0.50276 0.65236 0.27782 0.0
O588 O 0.46858 0.66143 0.25336 0.0
O589 O 0.47326 0.6079 0.25507 0.0
O590 O 0.49713 0.62491 0.27831 0.0
O591 O 0.5784 0.63974 0.29451 0.0
O592 O 0.58023 0.61011 0.28234 0.0
O593 O 0.52017 0.62016 0.22821 0.0
O594 O 0.54618 0.60661 0.25272 0.0
C595 C 0.53746 0.66316 0.23534 0.0
C596 C 0.47746 0.66338 0.2698 0.0
C597 C 0.43812 0.65055 0.18923 0.0
C598 C 0.42078 0.65402 0.15902 0.0
C599 C 0.42999 0.68416 0.17693 0.0
C600 C 0.4385 0.67185 0.19102 0.0
C601 C 0.42082 0.67534 0.16107 0.0
C602 C 0.42994 0.64169 0.17314 0.0
C603 C 0.44207 0.6372 0.20424 0.0
C604 C 0.34319 0.5829 0.25167 0.0
C605 C 0.32874 0.60096 0.25837 0.0
H606 H 0.37704 0.55143 0.23581 0.0
C607 C 0.47813 0.60957 0.27173 0.0
C608 C 0.53868 0.60578 0.2361 0.0
C609 C 0.57876 0.61078 0.31299 0.0
C610 C 0.58695 0.60933 0.34425 0.0
C611 C 0.55397 0.58195 0.32929 0.0
C612 C 0.55929 0.59196 0.31363 0.0
C613 C 0.56775 0.59052 0.3445 0.0
C614 C 0.59248 0.61948 0.32846 0.0
C615 C 0.58717 0.62066 0.29625 0.0
H616 H 0.42985 0.70059 0.17838 0.0
H617 H 0.44448 0.67887 0.20337 0.0
H618 H 0.41374 0.68515 0.15038 0.0
H619 H 0.42903 0.62521 0.17181 0.0
H620 H 0.53947 0.56736 0.32966 0.0
H621 H 0.5486 0.58478 0.30202 0.0
H622 H 0.56371 0.58237 0.3565 0.0
H623 H 0.60796 0.63383 0.32819 0.0
H624 H 0.23407 0.97398 0.35515 0.0
H625 H 0.20755 0.00134 0.33763 0.0
H626 H 0.09821 0.98723 0.35789 0.0
H627 H 0.12449 0.95993 0.37543 0.0
H628 H 0.10172 0.99021 0.32142 0.0
H629 H 0.13897 0.02795 0.37201 0.0
H630 H 0.18296 0.04015 0.39436 0.0
H631 H 0.25304 0.06722 0.35557 0.0
H632 H 0.20968 0.05493 0.33296 0.0
H633 H 1.00177 0.07097 0.28667 0.0
H634 H 0.02932 0.04609 0.30567 0.0
H635 H 0.13792 0.07403 0.2974 0.0
H636 H 0.10862 0.10133 0.28104 0.0
H637 H 0.13657 0.06342 0.32775 0.0
H638 H 0.10029 0.02572 0.27674 0.0
H639 H 0.05616 0.01391 0.25426 0.0
H640 H 0.98612 0.98629 0.29278 0.0
H641 H 0.02963 -0.00191 0.31549 0.0
C642 C 0.2044 0.97676 0.35585 0.0
C643 C 0.18131 0.96488 0.36663 0.0
C644 C 0.18937 0.99242 0.34595 0.0
C645 C 0.15101 0.99629 0.34657 0.0
C646 C 0.1279 0.98446 0.3573 0.0
C647 C 0.14296 0.96898 0.36736 0.0
C648 C 0.13469 0.01225 0.33558 0.0
C649 C 0.10904 0.00626 0.32284 0.0
C650 C 0.14511 0.03304 0.33722 0.0
C651 C 0.17132 0.04031 0.35079 0.0
C652 C 0.16397 0.03632 0.36823 0.0
C653 C 0.18873 0.0433 0.38095 0.0
C654 C 0.22084 0.0544 0.37639 0.0
C655 C 0.2282 0.05858 0.35909 0.0
C656 C 0.20353 0.05163 0.34632 0.0
C657 C 0.03108 0.07242 0.28959 0.0
C658 C 0.05271 0.08847 0.28278 0.0
C659 C 0.04728 0.05763 0.29992 0.0
C660 C 0.08606 0.05765 0.30265 0.0
C661 C 0.10796 0.0735 0.29548 0.0
C662 C 0.09135 0.08891 0.28584 0.0
C663 C 0.10353 0.04149 0.31329 0.0
C664 C 0.12942 0.04739 0.32606 0.0
C665 C 0.09368 0.02052 0.31151 0.0
C666 C 0.06814 0.01287 0.2978 0.0
C667 C 0.07546 0.01714 0.2804 0.0
C668 C 0.05054 0.01046 0.26763 0.0
C669 C 0.01833 -0.00062 0.27209 0.0
C670 C 0.01108 0.99486 0.28934 0.0
C671 C 0.0359 0.0015 0.30216 0.0
H672 H 0.99902 0.99429 0.26219 0.0
H673 H 0.23997 0.0598 0.38626 0.0
H674 H 0.39093 0.52925 0.87923 0.0
H675 H 0.41766 0.50186 0.86209 0.0
H676 H 0.31598 0.49723 0.83235 0.0
H677 H 0.28869 0.52426 0.84974 0.0
H678 H 0.3413 0.45992 0.84108 0.0
H679 H 0.39179 0.52149 0.8161 0.0
H680 H 0.42509 0.55474 0.81573 0.0
H681 H 0.52442 0.52639 0.83451 0.0
H682 H 0.49154 0.49299 0.83519 0.0
H683 H 0.4279 0.41768 0.76262 0.0
H684 H 0.40054 0.44323 0.78152 0.0
H685 H 0.46687 0.42154 0.82381 0.0
H686 H 0.49116 0.39458 0.80574 0.0
H687 H 0.45978 0.47113 0.80924 0.0
H688 H 0.40649 0.40966 0.83586 0.0
H689 H 0.37398 0.37646 0.83386 0.0
H690 H 0.27833 0.40526 0.8117 0.0
H691 H 0.31135 0.43864 0.81276 0.0
C692 C 0.37412 0.52225 0.86916 0.0
C693 C 0.33771 0.52893 0.86581 0.0
C694 C 0.38955 0.50673 0.85928 0.0
C695 C 0.36893 0.49766 0.84584 0.0
C696 C 0.33239 0.50407 0.84264 0.0
C697 C 0.31696 0.51962 0.85249 0.0
C698 C 0.38545 0.48152 0.83507 0.0
C699 C 0.36706 0.46246 0.83404 0.0
C700 C 0.41937 0.4847 0.82607 0.0
C701 C 0.43908 0.50479 0.82587 0.0
C702 C 0.42063 0.52238 0.82031 0.0
C703 C 0.43944 0.54124 0.82001 0.0
C704 C 0.47681 0.54268 0.82514 0.0
C705 C 0.49545 0.52525 0.83056 0.0
C706 C 0.47675 0.50635 0.8309 0.0
C707 C 0.43541 0.41765 0.77608 0.0
C708 C 0.46049 0.40334 0.7827 0.0
C709 C 0.42031 0.43256 0.78678 0.0
C710 C 0.43119 0.4339 0.80409 0.0
C711 C 0.45753 0.4204 0.81056 0.0
C712 C 0.47143 0.40502 0.80011 0.0
C713 C 0.41562 0.44973 0.81535 0.0
C714 C 0.43414 0.46868 0.8164 0.0
C715 C 0.38193 0.44647 0.82439 0.0
C716 C 0.36181 0.42654 0.82394 0.0
C717 C 0.37889 0.40886 0.83019 0.0
C718 C 0.36027 0.39 0.82929 0.0
C719 C 0.32408 0.38868 0.82258 0.0
C720 C 0.30646 0.40627 0.81678 0.0
C721 C 0.32521 0.42516 0.81745 0.0
H722 H 0.30963 0.37406 0.82194 0.0
H723 H 0.49135 0.55729 0.82487 0.0
H724 H 0.62338 0.53231 0.63207 0.0
H725 H 0.59638 0.50584 0.65078 0.0
H726 H 0.70691 0.48848 0.66657 0.0
H727 H 0.73405 0.51503 0.64797 0.0
H728 H 0.65908 0.45543 0.65703 0.0
H729 H 0.65964 0.51422 0.69355 0.0
H730 H 0.64636 0.54983 0.70131 0.0
H731 H 0.52875 0.53757 0.69609 0.0
H732 H 0.54137 0.50193 0.68802 0.0
H733 H 0.60863 0.39057 0.72627 0.0
H734 H 0.63603 0.41685 0.70792 0.0
H735 H 0.52711 0.44234 0.6998 0.0
H736 H 0.49966 0.41661 0.71892 0.0
H737 H 0.57488 0.4718 0.70545 0.0
H738 H 0.57354 0.41343 0.66841 0.0
H739 H 0.58619 0.37925 0.65697 0.0
H740 H 0.70418 0.39093 0.66131 0.0
H741 H 0.69218 0.42515 0.67305 0.0
C742 C 0.64187 0.52276 0.63947 0.0
C743 C 0.68077 0.52568 0.63859 0.0
C744 C 0.62645 0.50778 0.65022 0.0
C745 C 0.64969 0.49535 0.66013 0.0
C746 C 0.68855 0.49799 0.65906 0.0
C747 C 0.70397 0.51316 0.64849 0.0
C748 C 0.63342 0.47936 0.67142 0.0
C749 C 0.64113 0.45895 0.66781 0.0
C750 C 0.60919 0.48407 0.68512 0.0
C751 C 0.60147 0.50547 0.69 0.0
C752 C 0.63095 0.51916 0.69389 0.0
C753 C 0.62355 0.53935 0.69838 0.0
C754 C 0.58674 0.54598 0.69915 0.0
C755 C 0.55725 0.53242 0.69546 0.0
C756 C 0.56451 0.51222 0.69094 0.0
C757 C 0.59046 0.40186 0.72077 0.0
C758 C 0.55196 0.40161 0.72433 0.0
C759 C 0.60617 0.41677 0.71005 0.0
C760 C 0.58364 0.43149 0.70228 0.0
C761 C 0.54512 0.43117 0.70566 0.0
C762 C 0.52943 0.4164 0.71657 0.0
C763 C 0.60038 0.4476 0.69108 0.0
C764 C 0.59284 0.46813 0.69472 0.0
C765 C 0.62472 0.44298 0.67732 0.0
C766 C 0.63193 0.42179 0.67173 0.0
C767 C 0.60217 0.40859 0.66721 0.0
C768 C 0.60926 0.38922 0.66058 0.0
C769 C 0.64602 0.38294 0.65832 0.0
C770 C 0.67574 0.39584 0.66302 0.0
C771 C 0.66881 0.41521 0.66968 0.0
H772 H 0.65155 0.36815 0.65281 0.0
H773 H 0.58106 0.56161 0.70264 0.0
H774 H 0.83125 0.99129 0.11913 0.0
H775 H 0.86027 0.01798 0.13701 0.0
H776 H 0.87855 0.97399 0.1773 0.0
H777 H 0.85018 0.94724 0.15948 0.0
H778 H 0.84593 0.00779 0.18921 0.0
H779 H 0.95033 0.99204 0.15388 0.0
H780 H 0.98327 0.98669 0.12651 0.0
H781 H 0.96568 0.04918 0.11249 0.0
H782 H 0.93201 0.05482 0.13967 0.0
H783 H 0.96269 0.06741 0.24432 0.0
H784 H 0.93829 0.04094 0.22469 0.0
H785 H 0.91868 0.08682 0.18602 0.0
H786 H 0.94267 0.11332 0.20582 0.0
H787 H 0.95305 0.05247 0.17265 0.0
H788 H 0.842 0.06659 0.20537 0.0
H789 H 0.80064 0.07055 0.23038 0.0
H790 H 0.82992 0.01097 0.24844 0.0
H791 H 0.87081 0.0065 0.22327 0.0
C792 C 0.8419 0.98725 0.1317 0.0
C793 C 0.83817 0.96714 0.13791 0.0
C794 C 0.8585 0.00251 0.1419 0.0
C795 C 0.87179 -0.00207 0.15845 0.0
C796 C 0.86842 0.97786 0.16459 0.0
C797 C 0.85193 0.96262 0.15442 0.0
C798 C 0.8872 0.01422 0.16982 0.0
C799 C 0.86978 0.01732 0.18569 0.0
C800 C 0.9176 0.02704 0.165 0.0
C801 C 0.93828 0.02379 0.14875 0.0
C802 C 0.9532 0.0046 0.14491 0.0
C803 C 0.97205 0.00152 0.12943 0.0
C804 C 0.97647 0.01757 0.11774 0.0
C805 C 0.96217 0.03675 0.12154 0.0
C806 C 0.94322 0.0399 0.13699 0.0
C807 C 0.95289 0.07175 0.23165 0.0
C808 C 0.9541 0.09224 0.2265 0.0
C809 C 0.93896 0.0567 0.22048 0.0
C810 C 0.92646 0.06193 0.20392 0.0
C811 C 0.92809 0.08246 0.19873 0.0
C812 C 0.94151 0.09756 0.21003 0.0
C813 C 0.91178 0.04589 0.19207 0.0
C814 C 0.92934 0.04285 0.17615 0.0
C815 C 0.88147 0.03302 0.19677 0.0
C816 C 0.85967 0.03632 0.2126 0.0
C817 C 0.83999 0.05447 0.21482 0.0
C818 C 0.81644 0.05674 0.22895 0.0
C819 C 0.81279 0.04105 0.24105 0.0
C820 C 0.8328 0.0231 0.23907 0.0
C821 C 0.85601 0.02065 0.22484 0.0
H822 H 0.79424 0.04271 0.25189 0.0
H823 H 0.99105 0.01515 0.10576 0.0
H824 H 0.8374 0.00632 0.62083 0.0
H825 H 0.86307 0.97866 0.63806 0.0
H826 H 0.87044 0.01873 0.68204 0.0
H827 H 0.84637 0.04667 0.66472 0.0
H828 H 0.93269 -0.00185 0.67862 0.0
H829 H 0.80171 0.98131 0.67835 0.0
H830 H 0.74002 0.9737 0.6655 0.0
H831 H 0.78486 0.922 0.6392 0.0
H832 H 0.84698 0.92948 0.65171 0.0
H833 H 0.95798 0.92377 0.74395 0.0
H834 H 0.93239 0.95058 0.72569 0.0
H835 H 0.93789 0.91067 0.68167 0.0
H836 H 0.96362 0.88377 0.69985 0.0
H837 H 0.86979 0.93049 0.68455 0.0
H838 H 1.00047 0.94789 0.68376 0.0
H839 H 0.06282 0.95578 0.69578 0.0
H840 H 0.01808 0.00597 0.72414 0.0
H841 H 0.95545 -0.00156 0.71216 0.0
C842 C 0.84471 0.00928 0.63414 0.0
C843 C 0.83976 0.02871 0.6414 0.0
C844 C 0.85899 0.99339 0.64402 0.0
C845 C 0.86825 0.99656 0.6614 0.0
C846 C 0.86333 0.01592 0.66868 0.0
C847 C 0.84923 0.03183 0.65879 0.0
C848 C 0.88417 0.97991 0.67189 0.0
C849 C 0.91862 0.98346 0.68011 0.0
C850 C 0.86638 0.96054 0.67344 0.0
C851 C 0.8291 0.9561 0.66582 0.0
C852 C 0.79851 0.96843 0.6697 0.0
C853 C 0.76344 0.96412 0.6625 0.0
C854 C 0.75855 0.94741 0.6515 0.0
C855 C 0.78871 0.93496 0.6477 0.0
C856 C 0.82384 0.93922 0.65485 0.0
C857 C 0.95357 0.92068 0.73039 0.0
C858 C 0.96266 0.90168 0.72331 0.0
C859 C 0.93922 0.93604 0.71997 0.0
C860 C 0.93354 0.93262 0.70233 0.0
C861 C 0.94218 0.91359 0.69526 0.0
C862 C 0.95693 0.89829 0.70564 0.0
C863 C 0.918 0.94885 0.69133 0.0
C864 C 0.88372 0.9452 0.68303 0.0
C865 C 0.93587 0.96814 0.6897 0.0
C866 C 0.97324 0.97246 0.69723 0.0
C867 C 0.00387 0.96049 0.69269 0.0
C868 C 0.03928 0.96495 0.69944 0.0
C869 C 0.04437 0.98127 0.71082 0.0
C870 C 0.01409 0.99328 0.71537 0.0
C871 C 0.97866 0.98898 0.70855 0.0
H872 H 0.07181 0.98466 0.71607 0.0
H873 H 0.73137 0.94408 0.64595 0.0
H874 H 0.62931 0.4719 0.12314 0.0
H875 H 0.6062 0.50006 0.14058 0.0
H876 H 0.6945 0.49087 0.17741 0.0
H877 H 0.71901 0.46338 0.15973 0.0
H878 H 0.61595 0.49098 0.19026 0.0
H879 H 0.70399 0.52986 0.15501 0.0
H880 H 0.72971 0.54193 0.12736 0.0
H881 H 0.62369 0.56713 0.1139 0.0
H882 H 0.5972 0.55496 0.14137 0.0
H883 H 0.57987 0.57288 0.24657 0.0
H884 H 0.60782 0.54701 0.22838 0.0
H885 H 0.55508 0.57338 0.18374 0.0
H886 H 0.53067 0.60042 0.2015 0.0
H887 H 0.61722 0.56423 0.1743 0.0
H888 H 0.52539 0.52609 0.20539 0.0
H889 H 0.49083 0.51161 0.23005 0.0
H890 H 0.5905 0.48305 0.24819 0.0
H891 H 0.62581 0.49758 0.22376 0.0
C892 C 0.64437 0.47612 0.13474 0.0
C893 C 0.67596 0.46524 0.14006 0.0
C894 C 0.63097 0.49214 0.14472 0.0
C895 C 0.64871 0.49744 0.16022 0.0
C896 C 0.68043 0.48688 0.16548 0.0
C897 C 0.69417 0.47107 0.15542 0.0
C898 C 0.63303 0.51326 0.17147 0.0
C899 C 0.61657 0.50708 0.18696 0.0
C900 C 0.63252 0.53402 0.16667 0.0
C901 C 0.64853 0.54131 0.15017 0.0
C902 C 0.68607 0.5378 0.14608 0.0
C903 C 0.70081 0.5447 0.13046 0.0
C904 C 0.67833 0.55524 0.11886 0.0
C905 C 0.64107 0.55894 0.12288 0.0
C906 C 0.62619 0.55206 0.13848 0.0
C907 C 0.57472 0.57335 0.23284 0.0
C908 C 0.55362 0.58901 0.2255 0.0
C909 C 0.59021 0.5583 0.22245 0.0
C910 C 0.58329 0.55797 0.20462 0.0
C911 C 0.56127 0.57329 0.19739 0.0
C912 C 0.54703 0.58874 0.20765 0.0
C913 C 0.5996 0.54209 0.19334 0.0
C914 C 0.61633 0.5482 0.17777 0.0
C915 C 0.59903 0.5211 0.19776 0.0
C916 C 0.57827 0.51303 0.21282 0.0
C917 C 0.54002 0.5169 0.21474 0.0
C918 C 0.52029 0.50866 0.22865 0.0
C919 C 0.53847 0.49638 0.24062 0.0
C920 C 0.57648 0.49253 0.23886 0.0
C921 C 0.59636 0.50076 0.22499 0.0
H922 H 0.52302 0.48972 0.25117 0.0
H923 H 0.68979 0.56058 0.10677 0.0
H924 H 0.34275 0.48856 0.3888 0.0
H925 H 0.37 0.51607 0.37149 0.0
H926 H 0.35399 0.4798 0.32564 0.0
H927 H 0.32886 0.45181 0.34292 0.0
H928 H 0.42085 0.49596 0.3259 0.0
H929 H 0.29761 0.52168 0.33641 0.0
H930 H 0.24459 0.53233 0.35426 0.0
H931 H 0.31433 0.57758 0.37899 0.0
H932 H 0.36789 0.567 0.36145 0.0
H933 H 0.45148 0.57175 0.26276 0.0
H934 H 0.42434 0.54565 0.28141 0.0
H935 H 0.44634 0.58387 0.32563 0.0
H936 H 0.47193 0.61056 0.30683 0.0
H937 H 0.37774 0.56744 0.32723 0.0
H938 H 0.49961 0.54322 0.31614 0.0
H939 H 0.55435 0.53205 0.29972 0.0
H940 H 0.48876 0.48332 0.27736 0.0
H941 H 0.43345 0.4947 0.29315 0.0
C942 C 0.34525 0.48635 0.37505 0.0
C943 C 0.33353 0.4679 0.36729 0.0
C944 C 0.36039 0.50224 0.36513 0.0
C945 C 0.3636 0.50014 0.34722 0.0
C946 C 0.35165 0.48183 0.33943 0.0
C947 C 0.33689 0.46588 0.34934 0.0
C948 C 0.38097 0.51658 0.33661 0.0
C949 C 0.411 0.51152 0.32597 0.0
C950 C 0.36907 0.53706 0.3372 0.0
C951 C 0.33685 0.5434 0.34774 0.0
C952 C 0.30171 0.53378 0.34575 0.0
C953 C 0.27154 0.53983 0.3558 0.0
C954 C 0.27611 0.55558 0.36778 0.0
C955 C 0.31083 0.56536 0.36972 0.0
C956 C 0.3411 0.55935 0.35972 0.0
C957 C 0.44996 0.57479 0.27639 0.0
C958 C 0.46312 0.59343 0.28323 0.0
C959 C 0.43493 0.5597 0.2871 0.0
C960 C 0.43348 0.56273 0.30495 0.0
C961 C 0.44703 0.58123 0.31188 0.0
C962 C 0.46178 0.59644 0.30112 0.0
C963 C 0.41721 0.54672 0.31631 0.0
C964 C 0.3875 0.55186 0.32711 0.0
C965 C 0.42944 0.52629 0.3159 0.0
C966 C 0.46229 0.51999 0.30572 0.0
C967 C 0.49675 0.53036 0.30749 0.0
C968 C 0.52791 0.52398 0.29829 0.0
C969 C 0.52505 0.50704 0.28742 0.0
C970 C 0.49097 0.49654 0.28566 0.0
C971 C 0.45967 0.50299 0.29471 0.0
H972 H 0.5493 0.502 0.28044 0.0
H973 H 0.25272 0.56024 0.37554 0.0
H974 H 0.14344 0.0448 0.85183 0.0
H975 H 0.11777 0.01631 0.83484 0.0
H976 H 0.1792 0.97386 0.86595 0.0
H977 H 0.20461 0.00236 0.88317 0.0
H978 H 0.1861 0.96953 0.82852 0.0
H979 H 0.09266 0.97441 0.87274 0.0
H980 H 0.04786 0.99294 0.89069 0.0
H981 H 0.98704 0.01042 0.84549 0.0
H982 H 0.03183 0.99222 0.82724 0.0
H983 H 0.10292 0.88241 0.78859 0.0
H984 H 0.12939 0.90753 0.80865 0.0
H985 H 0.04483 0.95035 0.79372 0.0
H986 H 0.01689 0.92471 0.77462 0.0
H987 H 0.05066 0.95281 0.82551 0.0
H988 H 0.14569 0.95747 0.78155 0.0
H989 H 0.19252 0.9451 0.76114 0.0
H990 H 0.24869 0.9139 0.8021 0.0
H991 H 0.2028 0.92689 0.82291 0.0
C992 C 0.15137 0.02938 0.85504 0.0
C993 C 0.17595 0.0257 0.86876 0.0
C994 C 0.13661 0.01316 0.84541 0.0
C995 C 0.14651 0.99305 0.84924 0.0
C996 C 0.1712 0.98931 0.86288 0.0
C997 C 0.18552 0.00553 0.87271 0.0
C998 C 0.13174 0.97603 0.83861 0.0
C999 C 0.15658 0.96555 0.82807 0.0
C1000 C 0.09313 0.97145 0.83765 0.0
C1001 C 0.06576 0.98207 0.84862 0.0
C1002 C 0.06988 0.98231 0.86662 0.0
C1003 C 0.04446 0.99274 0.87685 0.0
C1004 C 0.01466 0.00288 0.86923 0.0
C1005 C 0.01015 0.00256 0.85137 0.0
C1006 C 0.03551 0.99216 0.84108 0.0
C1007 C 0.09025 0.89726 0.78955 0.0
C1008 C 0.05784 0.90164 0.78016 0.0
C1009 C 0.10553 0.9117 0.80092 0.0
C1010 C 0.0895 0.93105 0.80262 0.0
C1011 C 0.05764 0.93554 0.79281 0.0
C1012 C 0.04176 0.92092 0.78183 0.0
C1013 C 0.10494 0.94641 0.81499 0.0
C1014 C 0.08025 0.95656 0.82597 0.0
C1015 C 0.1436 0.95114 0.81604 0.0
C1016 C 0.1707 0.94291 0.80368 0.0
C1017 C 0.16794 0.94788 0.78616 0.0
C1018 C 0.1944 0.94083 0.77454 0.0
C1019 C 0.22336 0.92847 0.78025 0.0
C1020 C 0.22619 0.92341 0.79767 0.0
C1021 C 0.20017 0.93077 0.80941 0.0
H1022 H 0.2437 0.92291 0.7712 0.0
H1023 H 0.99504 0.01097 0.87717 0.0
H1024 H 0.22162 0.09439 0.01376 0.0
H1025 H 0.19604 0.09648 0.0428 0.0
H1026 H 0.13456 0.14989 0.02825 0.0
H1027 H 0.16095 0.14815 0.99927 0.0
H1028 H 0.16388 0.15488 0.05896 0.0
H1029 H 0.09343 0.10064 0.03136 0.0
H1030 H 0.08593 0.06827 0.01542 0.0
H1031 H 0.14088 0.03628 0.05623 0.0
H1032 H 0.14935 0.06848 0.07227 0.0
H1033 H 0.08049 0.15091 0.14211 0.0
H1034 H 0.08264 0.15112 0.11044 0.0
H1035 H 0.14621 0.09571 0.11146 0.0
H1036 H 0.14311 0.09528 0.14275 0.0
H1037 H 0.10304 0.09415 0.08551 0.0
H1038 H 0.1848 0.14643 0.11019 0.0
H1039 H 0.20066 0.17804 0.12602 0.0
H1040 H 0.13287 0.2125 0.09127 0.0
H1041 H 0.11604 0.18101 0.07543 0.0
C1042 C 0.20266 0.10657 0.01678 0.0
C1043 C 0.19306 0.12104 0.00426 0.0
C1044 C 0.18788 0.1077 0.03334 0.0
C1045 C 0.16256 0.12303 0.03758 0.0
C1046 C 0.15378 0.13783 0.02523 0.0
C1047 C 0.16896 0.13687 0.00871 0.0
C1048 C 0.14571 0.12374 0.055 0.0
C1049 C 0.1499 0.14172 0.06467 0.0
C1050 C 0.12798 0.10647 0.06253 0.0
C1051 C 0.12216 0.08703 0.05299 0.0
C1052 C 0.10406 0.08672 0.0369 0.0
C1053 C 0.09966 0.06839 0.02784 0.0
C1054 C 0.11295 0.05024 0.0348 0.0
C1055 C 0.1306 0.05035 0.05085 0.0
C1056 C 0.13518 0.06864 0.05994 0.0
C1057 C 0.09397 0.13855 0.13543 0.0
C1058 C 0.11199 0.12318 0.14473 0.0
C1059 C 0.09553 0.13876 0.1174 0.0
C1060 C 0.11536 0.12368 0.10855 0.0
C1061 C 0.13096 0.1076 0.11792 0.0
C1062 C 0.12932 0.10737 0.13581 0.0
C1063 C 0.12264 0.125 0.08975 0.0
C1064 C 0.11636 0.10744 0.07972 0.0
C1065 C 0.13925 0.1425 0.08201 0.0
C1066 C 0.14861 0.16131 0.09183 0.0
C1067 C 0.17289 0.1607 0.10607 0.0
C1068 C 0.18211 0.17861 0.11502 0.0
C1069 C 0.16763 0.19726 0.10971 0.0
C1070 C 0.14391 0.19804 0.09543 0.0
C1071 C 0.13446 0.18016 0.08648 0.0
H1072 H 0.17492 0.21111 0.11661 0.0
H1073 H 0.10954 0.03607 0.02776 0.0
H1074 H 0.28007 0.34965 0.51193 0.0
H1075 H 0.30369 0.34568 0.54121 0.0
H1076 H 0.38724 0.39251 0.5318 0.0
H1077 H 0.36537 0.39567 0.50224 0.0
H1078 H 0.41813 0.36279 0.54781 0.0
H1079 H 0.30693 0.40087 0.5568 0.0
H1080 H 0.24005 0.40906 0.5554 0.0
H1081 H 0.21253 0.35335 0.58192 0.0
H1082 H 0.27926 0.34473 0.58331 0.0
H1083 H 0.45611 0.3975 0.63274 0.0
H1084 H 0.44304 0.38977 0.60255 0.0
H1085 H 0.37322 0.33868 0.61785 0.0
H1086 H 0.38627 0.34651 0.64821 0.0
H1087 H 0.3358 0.36584 0.59884 0.0
H1088 H 0.45182 0.3309 0.59218 0.0
H1089 H 0.51981 0.32589 0.59417 0.0
H1090 H 0.53936 0.37996 0.56409 0.0
H1091 H 0.47155 0.38536 0.56201 0.0
C1092 C 0.30371 0.35898 0.51601 0.0
C1093 C 0.32079 0.37297 0.50463 0.0
C1094 C 0.3169 0.35687 0.53286 0.0
C1095 C 0.34708 0.36892 0.53881 0.0
C1096 C 0.36395 0.38302 0.52754 0.0
C1097 C 0.35106 0.38498 0.51065 0.0
C1098 C 0.36171 0.3666 0.55663 0.0
C1099 C 0.40014 0.36363 0.55898 0.0
C1100 C 0.33822 0.36718 0.57123 0.0
C1101 C 0.29803 0.37202 0.56994 0.0
C1102 C 0.28658 0.39025 0.56215 0.0
C1103 C 0.24871 0.395 0.56141 0.0
C1104 C 0.22205 0.3817 0.56851 0.0
C1105 C 0.2332 0.36362 0.57638 0.0
C1106 C 0.27103 0.3588 0.57716 0.0
C1107 C 0.43883 0.38428 0.62961 0.0
C1108 C 0.42184 0.37275 0.64274 0.0
C1109 C 0.43159 0.37976 0.61235 0.0
C1110 C 0.40709 0.36365 0.6079 0.0
C1111 C 0.39225 0.35116 0.621 0.0
C1112 C 0.39979 0.35559 0.63831 0.0
C1113 C 0.39226 0.36223 0.59005 0.0
C1114 C 0.35371 0.36461 0.58767 0.0
C1115 C 0.41577 0.36156 0.57548 0.0
C1116 C 0.4566 0.35859 0.57704 0.0
C1117 C 0.47064 0.34182 0.58612 0.0
C1118 C 0.50914 0.33887 0.58722 0.0
C1119 C 0.53389 0.35261 0.57928 0.0
C1120 C 0.52018 0.36932 0.57023 0.0
C1121 C 0.48171 0.3723 0.56905 0.0
H1122 H 0.56367 0.3503 0.58013 0.0
H1123 H 0.19276 0.38543 0.56796 0.0
H1124 H 0.70985 0.40178 0.99574 0.0
H1125 H 0.68809 0.39977 0.96592 0.0
H1126 H 0.64136 0.33977 0.97564 0.0
H1127 H 0.66329 0.34164 0.00542 0.0
H1128 H 0.67795 0.33999 0.94656 0.0
H1129 H 0.58664 0.38302 0.97227 0.0
H1130 H 0.56588 0.41269 0.98899 0.0
H1131 H 0.61511 0.45327 0.95176 0.0
H1132 H 0.63669 0.42381 0.93493 0.0
H1133 H 0.5761 0.3239 0.87278 0.0
H1134 H 0.58277 0.33403 0.90292 0.0
H1135 H 0.64422 0.38812 0.88753 0.0
H1136 H 0.63707 0.37806 0.85715 0.0
H1137 H 0.59966 0.39274 0.91912 0.0
H1138 H 0.6925 0.34926 0.89421 0.0
H1139 H 0.71307 0.31934 0.87776 0.0
H1140 H 0.66048 0.27936 0.9145 0.0
H1141 H 0.63888 0.30909 0.93098 0.0
C1142 C 0.69473 0.38821 0.99154 0.0
C1143 C 0.68827 0.37186 1.00296 0.0
C1144 C 0.6822 0.38711 0.9745 0.0
C1145 C 0.66255 0.36974 0.96857 0.0
C1146 C 0.6564 0.35334 0.97991 0.0
C1147 C 0.66912 0.35438 0.99691 0.0
C1148 C 0.64947 0.36829 0.95042 0.0
C1149 C 0.6604 0.35141 0.94069 0.0
C1150 C 0.62735 0.38346 0.94255 0.0
C1151 C 0.61356 0.4012 0.95241 0.0
C1152 C 0.59321 0.39827 0.96768 0.0
C1153 C 0.58129 0.41505 0.97719 0.0
C1154 C 0.58924 0.43485 0.97146 0.0
C1155 C 0.609 0.43791 0.95618 0.0
C1156 C 0.62105 0.42118 0.94664 0.0
C1157 C 0.58978 0.33835 0.8758 0.0
C1158 C 0.60631 0.35015 0.86272 0.0
C1159 C 0.59361 0.34412 0.89301 0.0
C1160 C 0.61457 0.36163 0.89748 0.0
C1161 C 0.62797 0.37454 0.88435 0.0
C1162 C 0.62388 0.3688 0.86703 0.0
C1163 C 0.62773 0.36428 0.91551 0.0
C1164 C 0.61708 0.38136 0.92511 0.0
C1165 C 0.65011 0.34929 0.92339 0.0
C1166 C 0.66375 0.33139 0.91371 0.0
C1167 C 0.68508 0.33409 0.89871 0.0
C1168 C 0.69694 0.31717 0.88939 0.0
C1169 C 0.68801 0.29746 0.89506 0.0
C1170 C 0.66731 0.29464 0.9101 0.0
C1171 C 0.65524 0.31152 0.91944 0.0
H1172 H 0.69721 0.28437 0.88782 0.0
H1173 H 0.58005 0.44782 0.97885 0.0
H1174 H 0.88464 0.10812 0.50812 0.0
H1175 H 0.90372 0.10911 0.47795 0.0
H1176 H 0.79909 0.13643 0.46422 0.0
H1177 H 0.7794 0.13503 0.49434 0.0
H1178 H 0.81798 0.10498 0.44238 0.0
H1179 H 0.87798 0.16566 0.46665 0.0
H1180 H 0.91847 0.18335 0.48784 0.0
H1181 H 0.01086 0.1466 0.47268 0.0
H1182 H 0.97076 0.12857 0.45148 0.0
H1183 H 0.84192 0.15562 0.36418 0.0
H1184 H 0.83161 0.14255 0.39316 0.0
H1185 H 0.94613 0.12334 0.39567 0.0
H1186 H 0.95659 0.13681 0.36644 0.0
H1187 H 0.92955 0.14476 0.42345 0.0
H1188 H 0.8729 0.08697 0.3967 0.0
H1189 H 0.83292 0.06767 0.37631 0.0
H1190 H 0.73579 0.09663 0.39653 0.0
H1191 H 0.77521 0.11619 0.41696 0.0
C1192 C 0.86557 0.11423 0.49866 0.0
C1193 C 0.83044 0.12148 0.50364 0.0
C1194 C 0.87665 0.11491 0.48144 0.0
C1195 C 0.85291 0.12293 0.46884 0.0
C1196 C 0.81784 0.13017 0.47375 0.0
C1197 C 0.80676 0.12954 0.49098 0.0
C1198 C 0.86448 0.12384 0.45052 0.0
C1199 C 0.84221 0.11379 0.4382 0.0
C1200 C 0.89704 0.13456 0.44517 0.0
C1201 C 0.92135 0.14569 0.45759 0.0
C1202 C 0.9069 0.16131 0.46789 0.0
C1203 C 0.92977 0.1714 0.47989 0.0
C1204 C 0.9672 0.16607 0.48163 0.0
C1205 C 0.98186 0.1507 0.47132 0.0
C1206 C 0.95911 0.14058 0.45929 0.0
C1207 C 0.86464 0.14816 0.37076 0.0
C1208 C 0.89999 0.14719 0.3631 0.0
C1209 C 0.85872 0.14059 0.38732 0.0
C1210 C 0.88798 0.13177 0.39664 0.0
C1211 C 0.92307 0.13 0.38873 0.0
C1212 C 0.92897 0.13753 0.37201 0.0
C1213 C 0.88227 0.12643 0.41511 0.0
C1214 C 0.90566 0.13562 0.42755 0.0
C1215 C 0.8509 0.11474 0.42061 0.0
C1216 C 0.82704 0.10312 0.40828 0.0
C1217 C 0.84304 0.08932 0.39671 0.0
C1218 C 0.82047 0.0783 0.38517 0.0
C1219 C 0.78185 0.08095 0.3851 0.0
C1220 C 0.76571 0.09458 0.3966 0.0
C1221 C 0.78814 0.10559 0.4082 0.0
H1222 H 0.76443 0.07241 0.37615 0.0
H1223 H 0.98484 0.17387 0.49095 0.0
H1224 H 0.87915 0.87545 0.00811 0.0
H1225 H 0.90239 0.87141 0.9788 0.0
H1226 H 0.78909 0.86703 0.95991 0.0
H1227 H 0.76581 0.87048 0.98934 0.0
H1228 H 0.82931 0.83984 0.94453 0.0
H1229 H 0.84645 0.9121 0.95598 0.0
H1230 H 0.87018 0.94235 0.97174 0.0
H1231 H 0.98273 0.92245 0.96485 0.0
H1232 H 0.95961 0.89199 0.94916 0.0
H1233 H 0.85224 0.8698 0.8571 0.0
H1234 H 0.83742 0.86202 0.88717 0.0
H1235 H 0.95465 0.86584 0.90003 0.0
H1236 H 0.96918 0.87408 0.86996 0.0
H1237 H 0.91802 0.89035 0.91937 0.0
H1238 H 0.90123 0.81971 0.9055 0.0
H1239 H 0.87765 0.7891 0.89019 0.0
H1240 H 0.7649 0.80566 0.90147 0.0
H1241 H 0.78778 0.83642 0.91676 0.0
C1242 C 0.85923 0.8737 0.99768 0.0
C1243 C 0.82066 0.87336 1.00099 0.0
C1244 C 0.87253 0.87144 0.98092 0.0
C1245 C 0.84753 0.86923 0.96705 0.0
C1246 C 0.80897 0.8687 0.97037 0.0
C1247 C 0.79566 0.87067 0.98718 0.0
C1248 C 0.86141 0.86739 0.9491 0.0
C1249 C 0.8484 0.85101 0.93895 0.0
C1250 C 0.88743 0.88151 0.94197 0.0
C1251 C 0.90128 0.89968 0.95157 0.0
C1252 C 0.87623 0.9141 0.95795 0.0
C1253 C 0.88957 0.9313 0.96684 0.0
C1254 C 0.92793 0.93429 0.96934 0.0
C1255 C 0.95303 0.9201 0.96293 0.0
C1256 C 0.93982 0.90289 0.95403 0.0
C1257 C 0.87482 0.8683 0.86629 0.0
C1258 C 0.9118 0.87243 0.86134 0.0
C1259 C 0.86641 0.86377 0.88346 0.0
C1260 C 0.89491 0.86326 0.89594 0.0
C1261 C 0.93216 0.86613 0.89068 0.0
C1262 C 0.94052 0.87074 0.87353 0.0
C1263 C 0.88543 0.86296 0.91459 0.0
C1264 C 0.89926 0.87899 0.92493 0.0
C1265 C 0.86012 0.84855 0.92184 0.0
C1266 C 0.84623 0.83047 0.91212 0.0
C1267 C 0.8714 0.81694 0.90454 0.0
C1268 C 0.85816 0.79952 0.89593 0.0
C1269 C 0.8198 0.79547 0.89482 0.0
C1270 C 0.7946 0.80882 0.90232 0.0
C1271 C 0.80769 0.82623 0.91099 0.0
H1272 H 0.80962 0.78196 0.88817 0.0
H1273 H 0.9382 0.94762 0.97621 0.0
H1274 H 0.65556 0.64379 0.50627 0.0
H1275 H 0.63351 0.64712 0.47641 0.0
H1276 H 0.70847 0.59983 0.46075 0.0
H1277 H 0.7298 0.59612 0.49062 0.0
H1278 H 0.71007 0.63728 0.44007 0.0
H1279 H 0.62356 0.58649 0.46335 0.0
H1280 H 0.57686 0.57404 0.48428 0.0
H1281 H 0.50603 0.62416 0.47179 0.0
H1282 H 0.55256 0.63703 0.4509 0.0
H1283 H 0.65376 0.60091 0.3587 0.0
H1284 H 0.67386 0.60821 0.38821 0.0
H1285 H 0.57353 0.64233 0.39661 0.0
H1286 H 0.55311 0.63452 0.36705 0.0
H1287 H 0.58185 0.6171 0.42183 0.0
H1288 H 0.66312 0.66649 0.3967 0.0
H1289 H 0.70972 0.68115 0.37673 0.0
H1290 H 0.78971 0.63717 0.3933 0.0
H1291 H 0.7435 0.62214 0.41327 0.0
C1292 C 0.66726 0.63416 0.4964 0.0
C1293 C 0.69435 0.61973 0.50064 0.0
C1294 C 0.65461 0.63602 0.47942 0.0
C1295 C 0.6694 0.62372 0.46641 0.0
C1296 C 0.69677 0.60946 0.47062 0.0
C1297 C 0.70884 0.60732 0.48763 0.0
C1298 C 0.65661 0.62568 0.44833 0.0
C1299 C 0.68214 0.63274 0.436 0.0
C1300 C 0.61971 0.62058 0.44324 0.0
C1301 C 0.59169 0.61284 0.45572 0.0
C1302 C 0.59817 0.59495 0.46518 0.0
C1303 C 0.5717 0.58779 0.477 0.0
C1304 C 0.53854 0.59833 0.4794 0.0
C1305 C 0.53174 0.61602 0.46994 0.0
C1306 C 0.55813 0.62324 0.45809 0.0
C1307 C 0.63663 0.61048 0.36672 0.0
C1308 C 0.60226 0.61745 0.36062 0.0
C1309 C 0.64809 0.61469 0.38359 0.0
C1310 C 0.62546 0.62604 0.39469 0.0
C1311 C 0.59159 0.63362 0.38833 0.0
C1312 C 0.58006 0.62932 0.37144 0.0
C1313 C 0.63571 0.62823 0.41324 0.0
C1314 C 0.60967 0.62197 0.42578 0.0
C1315 C 0.67206 0.63437 0.41858 0.0
C1316 C 0.69974 0.64309 0.40637 0.0
C1317 C 0.69054 0.65983 0.39596 0.0
C1318 C 0.71692 0.66824 0.38468 0.0
C1319 C 0.75262 0.66007 0.38372 0.0
C1320 C 0.76204 0.64348 0.39405 0.0
C1321 C 0.7358 0.63504 0.40538 0.0
H1322 H 0.773 0.66661 0.37498 0.0
H1323 H 0.51809 0.59277 0.48856 0.0
H1324 H 0.27854 0.638 0.01191 0.0
H1325 H 0.30166 0.64082 0.04142 0.0
H1326 H 0.39823 0.60588 0.02797 0.0
H1327 H 0.37572 0.60332 0.9983 0.0
H1328 H 0.3677 0.59337 0.05867 0.0
H1329 H 0.4085 0.65543 0.03285 0.0
H1330 H 0.40392 0.68734 0.01625 0.0
H1331 H 0.32514 0.71033 0.05265 0.0
H1332 H 0.32872 0.6784 0.06931 0.0
H1333 H 0.4599 0.62765 0.13875 0.0
H1334 H 0.44405 0.61677 0.10923 0.0
H1335 H 0.34014 0.64882 0.11257 0.0
H1336 H 0.35613 0.6599 0.14174 0.0
H1337 H 0.38358 0.66148 0.08576 0.0
H1338 H 0.34184 0.59738 0.11083 0.0
H1339 H 0.34671 0.56463 0.12621 0.0
H1340 H 0.43045 0.54517 0.0907 0.0
H1341 H 0.42651 0.57794 0.07525 0.0
C1342 C 0.3049 0.6311 0.01515 0.0
C1343 C 0.3253 0.6205 1.0027 0.0
C1344 C 0.318 0.63264 0.03205 0.0
C1345 C 0.3518 0.62368 0.03684 0.0
C1346 C 0.37203 0.61285 0.02455 0.0
C1347 C 0.35902 0.61137 0.00761 0.0
C1348 C 0.36595 0.62585 0.0547 0.0
C1349 C 0.37179 0.60825 0.06458 0.0
C1350 C 0.37119 0.64526 0.06234 0.0
C1351 C 0.36862 0.66442 0.05225 0.0
C1352 C 0.38989 0.66719 0.03722 0.0
C1353 C 0.38753 0.68531 0.02782 0.0
C1354 C 0.36418 0.70083 0.03337 0.0
C1355 C 0.34317 0.69828 0.04835 0.0
C1356 C 0.34537 0.68018 0.05778 0.0
C1357 C 0.43339 0.63198 0.13322 0.0
C1358 C 0.40945 0.64488 0.14232 0.0
C1359 C 0.42431 0.62571 0.11643 0.0
C1360 C 0.39099 0.63208 0.10869 0.0
C1361 C 0.36611 0.64386 0.11826 0.0
C1362 C 0.37529 0.65025 0.13487 0.0
C1363 C 0.38375 0.62901 0.09005 0.0
C1364 C 0.3797 0.64655 0.0799 0.0
C1365 C 0.38061 0.60954 0.08221 0.0
C1366 C 0.38434 0.59029 0.09207 0.0
C1367 C 0.36179 0.58629 0.10648 0.0
C1368 C 0.36424 0.56766 0.11516 0.0
C1369 C 0.389 0.55287 0.10949 0.0
C1370 C 0.4114 0.55667 0.09513 0.0
C1371 C 0.40908 0.57527 0.08641 0.0
H1372 H 0.39072 0.53843 0.11618 0.0
H1373 H 0.36244 0.71486 0.02608 0.0
H1374 H 0.13006 0.87239 0.49641 0.0
H1375 H 0.10856 0.87051 0.5262 0.0
H1376 H 0.22295 0.86981 0.54379 0.0
H1377 H 0.24447 0.87106 0.51394 0.0
H1378 H 0.18429 0.84281 0.56056 0.0
H1379 H 0.16522 0.91363 0.54647 0.0
H1380 H 0.14045 0.94166 0.52886 0.0
H1381 H 0.02852 0.92001 0.53813 0.0
H1382 H 0.05267 0.89171 0.55566 0.0
H1383 H 0.16458 0.86327 0.6471 0.0
H1384 H 0.17471 0.87334 0.61711 0.0
H1385 H 0.06166 0.85504 0.60465 0.0
H1386 H 0.05156 0.84482 0.63478 0.0
H1387 H 0.09483 0.89185 0.5852 0.0
H1388 H 0.11434 0.82088 0.59872 0.0
H1389 H 0.13928 0.79268 0.61606 0.0
H1390 H 0.25105 0.81484 0.60717 0.0
H1391 H 0.22667 0.84341 0.59002 0.0
C1392 C 0.15058 0.8719 0.50667 0.0
C1393 C 0.18893 0.87191 0.5029 0.0
C1394 C 0.13828 0.87094 0.52369 0.0
C1395 C 0.16411 0.87041 0.53731 0.0
C1396 C 0.20246 0.87026 0.53353 0.0
C1397 C 0.21475 0.87091 0.51648 0.0
C1398 C 0.15133 0.86936 0.55548 0.0
C1399 C 0.16513 0.85374 0.56593 0.0
C1400 C 0.12536 0.88321 0.56246 0.0
C1401 C 0.11076 0.90048 0.55228 0.0
C1402 C 0.13533 0.91481 0.54471 0.0
C1403 C 0.1214 0.93075 0.53474 0.0
C1404 C 0.08294 0.93259 0.53235 0.0
C1405 C 0.05831 0.91856 0.53999 0.0
C1406 C 0.0721 0.90259 0.54997 0.0
C1407 C 0.14144 0.86227 0.63811 0.0
C1408 C 0.10722 0.85351 0.64317 0.0
C1409 C 0.14727 0.86792 0.621 0.0
C1410 C 0.11901 0.86479 0.60868 0.0
C1411 C 0.08369 0.85771 0.61401 0.0
C1412 C 0.07789 0.85195 0.63118 0.0
C1413 C 0.12858 0.86563 0.59016 0.0
C1414 C 0.11404 0.88104 0.5797 0.0
C1415 C 0.15391 0.85162 0.58308 0.0
C1416 C 0.16866 0.8344 0.59328 0.0
C1417 C 0.14421 0.81985 0.60061 0.0
C1418 C 0.15824 0.80378 0.61037 0.0
C1419 C 0.19672 0.80201 0.61277 0.0
C1420 C 0.22124 0.81627 0.60535 0.0
C1421 C 0.20734 0.8324 0.5956 0.0
H1422 H 0.20753 0.78955 0.62033 0.0
H1423 H 0.07221 0.94492 0.52461 0.0
H1424 H 0.20424 0.30832 0.34563 0.0
H1425 H 0.17363 0.28166 0.32855 0.0
H1426 H 0.11198 0.26151 0.37313 0.0
H1427 H 0.14185 0.28861 0.39034 0.0
H1428 H 0.14356 0.22944 0.35429 0.0
H1429 H 0.06703 0.28752 0.34369 0.0
H1430 H 0.0549 0.32328 0.33589 0.0
H1431 H 0.10331 0.31374 0.28613 0.0
H1432 H 0.11615 0.27798 0.29372 0.0
H1433 H 0.02436 0.16272 0.30584 0.0
H1434 H 0.04792 0.18933 0.32529 0.0
H1435 H 0.10224 0.21961 0.28266 0.0
H1436 H 0.07776 0.19351 0.26314 0.0
H1437 H 0.07056 0.24673 0.30209 0.0
H1438 H 0.15064 0.19004 0.31244 0.0
H1439 H 0.16695 0.15474 0.31998 0.0
H1440 H 0.11621 0.16176 0.36956 0.0
H1441 H 0.09912 0.19703 0.36221 0.0
C1442 C 0.18383 0.29843 0.35181 0.0
C1443 C 0.17528 0.3008 0.36936 0.0
C1444 C 0.16647 0.28312 0.34202 0.0
C1445 C 0.14022 0.26975 0.34951 0.0
C1446 C 0.13214 0.2717 0.36709 0.0
C1447 C 0.14937 0.28714 0.37692 0.0
C1448 C 0.12151 0.25373 0.33889 0.0
C1449 C 0.127 0.23317 0.34305 0.0
C1450 C 0.10075 0.25866 0.32399 0.0
C1451 C 0.09279 0.28011 0.31933 0.0
C1452 C 0.07531 0.29309 0.33113 0.0
C1453 C 0.06827 0.31335 0.32673 0.0
C1454 C 0.07839 0.32079 0.31053 0.0
C1455 C 0.09549 0.30796 0.29868 0.0
C1456 C 0.10261 0.28768 0.30301 0.0
C1457 C 0.0413 0.17505 0.30059 0.0
C1458 C 0.04956 0.17581 0.28291 0.0
C1459 C 0.05492 0.19022 0.31176 0.0
C1460 C 0.07743 0.20634 0.30552 0.0
C1461 C 0.08508 0.20731 0.28783 0.0
C1462 C 0.07123 0.19227 0.27666 0.0
C1463 C 0.0929 0.2223 0.31733 0.0
C1464 C 0.08681 0.2429 0.3134 0.0
C1465 C 0.11345 0.21739 0.33235 0.0
C1466 C 0.1232 0.19609 0.33669 0.0
C1467 C 0.14262 0.18399 0.32488 0.0
C1468 C 0.15208 0.164 0.32914 0.0
C1469 C 0.14253 0.15599 0.34522 0.0
C1470 C 0.12352 0.16797 0.35709 0.0
C1471 C 0.11395 0.18796 0.35289 0.0
H1472 H 0.14994 0.14053 0.3485 0.0
H1473 H 0.07293 0.33648 0.30716 0.0
H1474 H 0.31613 0.18176 0.84536 0.0
H1475 H 0.34682 0.20844 0.82841 0.0
H1476 H 0.40013 0.2322 0.87419 0.0
H1477 H 0.37066 0.205 0.89127 0.0
H1478 H 0.36446 0.26199 0.85291 0.0
H1479 H 0.45256 0.20783 0.84822 0.0
H1480 H 0.47214 0.17262 0.84239 0.0
H1481 H 0.43254 0.17743 0.79037 0.0
H1482 H 0.41228 0.21261 0.79596 0.0
H1483 H 0.48086 0.33251 0.80753 0.0
H1484 H 0.4569 0.30608 0.82693 0.0
H1485 H 0.42112 0.26996 0.78325 0.0
H1486 H 0.44737 0.29557 0.76395 0.0
H1487 H 0.45094 0.24633 0.80517 0.0
H1488 H 0.35964 0.29885 0.8092 0.0
H1489 H 0.33239 0.33247 0.81497 0.0
H1490 H 0.3719 0.33017 0.86714 0.0
H1491 H 0.3999 0.29669 0.86162 0.0
C1492 C 0.33485 0.19241 0.85184 0.0
C1493 C 0.34112 0.19108 0.8697 0.0
C1494 C 0.3522 0.20772 0.84212 0.0
C1495 C 0.37594 0.22214 0.85005 0.0
C1496 C 0.38187 0.22116 0.86787 0.0
C1497 C 0.36483 0.20568 0.87761 0.0
C1498 C 0.39391 0.23843 0.83965 0.0
C1499 C 0.38394 0.2587 0.84265 0.0
C1500 C 0.41834 0.23392 0.82599 0.0
C1501 C 0.43063 0.2128 0.82256 0.0
C1502 C 0.44776 0.20133 0.83558 0.0
C1503 C 0.45904 0.18138 0.83231 0.0
C1504 C 0.45352 0.17278 0.81603 0.0
C1505 C 0.43678 0.18412 0.80298 0.0
C1506 C 0.42544 0.20407 0.80618 0.0
C1507 C 0.46791 0.31893 0.80206 0.0
C1508 C 0.46518 0.31639 0.78412 0.0
C1509 C 0.45394 0.30389 0.81318 0.0
C1510 C 0.43644 0.28618 0.80659 0.0
C1511 C 0.43424 0.28353 0.78869 0.0
C1512 C 0.4488 0.29836 0.77761 0.0
C1513 C 0.42123 0.27012 0.81823 0.0
C1514 C 0.43172 0.2498 0.81548 0.0
C1515 C 0.39681 0.27459 0.83198 0.0
C1516 C 0.38212 0.29532 0.83496 0.0
C1517 C 0.363 0.30564 0.82183 0.0
C1518 C 0.3473 0.32464 0.82507 0.0
C1519 C 0.35027 0.33338 0.84143 0.0
C1520 C 0.36953 0.32334 0.85449 0.0
C1521 C 0.38534 0.30437 0.85131 0.0
H1522 H 0.3374 0.34785 0.84406 0.0
H1523 H 0.46227 0.15734 0.81352 0.0
H1524 H 0.72711 0.19366 0.65831 0.0
H1525 H 0.69621 0.2191 0.67596 0.0
H1526 H 0.60701 0.22237 0.6387 0.0
H1527 H 0.63798 0.19683 0.62088 0.0
H1528 H 0.62968 0.25996 0.64994 0.0
H1529 H 0.59469 0.19571 0.6763 0.0
H1530 H 0.60723 0.16215 0.68927 0.0
H1531 H 0.67369 0.19106 0.7287 0.0
H1532 H 0.66186 0.22476 0.71585 0.0
H1533 H 0.52047 0.32216 0.70271 0.0
H1534 H 0.542 0.29502 0.68442 0.0
H1535 H 0.61567 0.27497 0.72492 0.0
H1536 H 0.58815 0.29944 0.74439 0.0
H1537 H 0.59749 0.24453 0.7106 0.0
H1538 H 0.63651 0.30867 0.68439 0.0
H1539 H 0.62642 0.34243 0.67156 0.0
H1540 H 0.55947 0.31509 0.63151 0.0
H1541 H 0.56792 0.28117 0.64456 0.0
C1542 C 0.70082 0.19972 0.6539 0.0
C1543 C 0.68478 0.1931 0.63828 0.0
C1544 C 0.68318 0.21424 0.66401 0.0
C1545 C 0.64895 0.22233 0.65881 0.0
C1546 C 0.63333 0.21622 0.64299 0.0
C1547 C 0.65109 0.20171 0.6328 0.0
C1548 C 0.62974 0.23728 0.66989 0.0
C1549 C 0.62223 0.2566 0.66317 0.0
C1550 C 0.62086 0.23299 0.68724 0.0
C1551 C 0.62757 0.21273 0.69505 0.0
C1552 C 0.61213 0.19489 0.68768 0.0
C1553 C 0.61909 0.17585 0.69502 0.0
C1554 C 0.64129 0.17447 0.70978 0.0
C1555 C 0.65649 0.19214 0.71727 0.0
C1556 C 0.64962 0.21122 0.70998 0.0
C1557 C 0.54091 0.31182 0.70789 0.0
C1558 C 0.55324 0.31349 0.72507 0.0
C1559 C 0.55391 0.29645 0.69718 0.0
C1560 C 0.58211 0.28337 0.70279 0.0
C1561 C 0.59433 0.28493 0.72 0.0
C1562 C 0.57923 0.29938 0.73113 0.0
C1563 C 0.59841 0.26785 0.69097 0.0
C1564 C 0.6051 0.24821 0.69746 0.0
C1565 C 0.60726 0.27204 0.67347 0.0
C1566 C 0.60266 0.29242 0.66553 0.0
C1567 C 0.61951 0.30987 0.67289 0.0
C1568 C 0.61402 0.32906 0.66557 0.0
C1569 C 0.59251 0.33093 0.65063 0.0
C1570 C 0.57617 0.31362 0.64306 0.0
C1571 C 0.58117 0.29442 0.65046 0.0
H1572 H 0.58849 0.34574 0.64486 0.0
H1573 H 0.64666 0.15971 0.71544 0.0
H1574 H 0.79506 0.30337 0.16093 0.0
H1575 H 0.82604 0.27772 0.17836 0.0
H1576 H 0.90207 0.26593 0.13678 0.0
H1577 H 0.87147 0.29194 0.11924 0.0
H1578 H 0.87354 0.23044 0.15218 0.0
H1579 H 0.93247 0.29367 0.1703 0.0
H1580 H 0.9331 0.32917 0.18088 0.0
H1581 H 0.87465 0.31018 0.22644 0.0
H1582 H 0.87331 0.2746 0.21604 0.0
H1583 H 0.98462 0.16592 0.20247 0.0
H1584 H 0.963 0.19256 0.18355 0.0
H1585 H 0.90906 0.22166 0.22646 0.0
H1586 H 0.93674 0.19705 0.24593 0.0
H1587 H 0.92937 0.24917 0.2086 0.0
H1588 H 0.86455 0.18683 0.19058 0.0
H1589 H 0.86041 0.15124 0.18023 0.0
H1590 H 0.92341 0.16769 0.13527 0.0
H1591 H 0.92823 0.20331 0.14543 0.0
C1592 C 0.81859 0.29549 0.1555 0.0
C1593 C 0.83101 0.2999 0.13872 0.0
C1594 C 0.83621 0.28078 0.16549 0.0
C1595 C 0.86669 0.27012 0.15897 0.0
C1596 C 0.87864 0.27404 0.14208 0.0
C1597 C 0.86103 0.28884 0.13205 0.0
C1598 C 0.88584 0.25488 0.16986 0.0
C1599 C 0.88614 0.23448 0.16446 0.0
C1600 C 0.90147 0.26014 0.18602 0.0
C1601 C 0.90259 0.2815 0.19234 0.0
C1602 C 0.91956 0.29709 0.18253 0.0
C1603 C 0.92008 0.31722 0.1885 0.0
C1604 C 0.90387 0.32193 0.20431 0.0
C1605 C 0.88719 0.30651 0.2142 0.0
C1606 C 0.8866 0.28636 0.20829 0.0
C1607 C 0.96838 0.17805 0.20798 0.0
C1608 C 0.96136 0.1788 0.22579 0.0
C1609 C 0.95532 0.1932 0.19699 0.0
C1610 C 0.9325 0.20875 0.20323 0.0
C1611 C 0.92602 0.20974 0.22108 0.0
C1612 C 0.94118 0.1953 0.23226 0.0
C1613 C 0.91613 0.22423 0.19133 0.0
C1614 C 0.91659 0.24484 0.19644 0.0
C1615 C 0.90042 0.21905 0.17503 0.0
C1616 C 0.89696 0.19769 0.16883 0.0
C1617 C 0.87758 0.18283 0.17851 0.0
C1618 C 0.87514 0.16266 0.17268 0.0
C1619 C 0.89169 0.1572 0.15712 0.0
C1620 C 0.91061 0.17193 0.14732 0.0
C1621 C 0.91317 0.19211 0.1531 0.0
H1622 H 0.88981 0.14158 0.15264 0.0
H1623 H 0.90429 0.33752 0.2089 0.0
H1624 H 0.82994 0.71388 0.61748 0.0
H1625 H 0.85766 0.74119 0.63509 0.0
H1626 H 0.8981 0.69661 0.67106 0.0
H1627 H 0.87208 0.66918 0.65325 0.0
H1628 H 0.85593 0.7281 0.6861 0.0
H1629 H 0.95867 0.71936 0.6479 0.0
H1630 H 0.98996 0.71694 0.61981 0.0
H1631 H 0.95934 0.77844 0.60797 0.0
H1632 H 0.92725 0.78111 0.6359 0.0
H1633 H 0.97781 0.78942 0.73823 0.0
H1634 H 0.95206 0.76333 0.71863 0.0
H1635 H 0.91083 0.81057 0.6853 0.0
H1636 H 0.93551 0.83672 0.70529 0.0
H1637 H 0.95304 0.77864 0.66829 0.0
H1638 H 0.84526 0.78624 0.70423 0.0
H1639 H 0.80863 0.78814 0.7309 0.0
H1640 H 0.84869 0.72955 0.74651 0.0
H1641 H 0.88476 0.72706 0.71959 0.0
C1642 C 0.84546 0.70981 0.62891 0.0
C1643 C 0.84841 0.68927 0.63398 0.0
C1644 C 0.86112 0.72547 0.639 0.0
C1645 C 0.8798 0.72088 0.65438 0.0
C1646 C 0.88357 0.70045 0.65928 0.0
C1647 C 0.86841 0.6848 0.64912 0.0
C1648 C 0.89354 0.7374 0.66591 0.0
C1649 C 0.87754 0.73897 0.68228 0.0
C1650 C 0.92095 0.7519 0.66072 0.0
C1651 C 0.94012 0.75034 0.6439 0.0
C1652 C 0.95822 0.7323 0.63923 0.0
C1653 C 0.97618 0.73089 0.62335 0.0
C1654 C 0.97652 0.7475 0.61209 0.0
C1655 C 0.95897 0.76557 0.6167 0.0
C1656 C 0.9409 0.76704 0.63256 0.0
C1657 C 0.96293 0.79414 0.72679 0.0
C1658 C 0.95837 0.81491 0.72317 0.0
C1659 C 0.94827 0.77931 0.71563 0.0
C1660 C 0.92963 0.78506 0.70052 0.0
C1661 C 0.92512 0.80587 0.6969 0.0
C1662 C 0.93896 0.82072 0.70831 0.0
C1663 C 0.91543 0.76923 0.68845 0.0
C1664 C 0.9314 0.76776 0.67204 0.0
C1665 C 0.88792 0.7548 0.69352 0.0
C1666 C 0.86794 0.75657 0.71004 0.0
C1667 C 0.84653 0.77386 0.71344 0.0
C1668 C 0.82572 0.77498 0.72855 0.0
C1669 C 0.82658 0.75905 0.74049 0.0
C1670 C 0.84812 0.7419 0.73728 0.0
C1671 C 0.86854 0.74056 0.72204 0.0
H1672 H 0.81041 0.75992 0.75219 0.0
H1673 H 0.99047 0.74638 0.5998 0.0
H1674 H 0.68811 0.77854 0.11869 0.0
H1675 H 0.65986 0.7514 0.13625 0.0
H1676 H 0.61163 0.79655 0.1694 0.0
H1677 H 0.63858 0.82372 0.15168 0.0
H1678 H 0.65141 0.76729 0.18716 0.0
H1679 H 0.55666 0.77009 0.14361 0.0
H1680 H 0.53252 0.76965 0.11388 0.0
H1681 H 0.57242 0.70877 0.10706 0.0
H1682 H 0.59739 0.70898 0.13668 0.0
H1683 H 0.52537 0.70393 0.23597 0.0
H1684 H 0.55044 0.72997 0.21617 0.0
H1685 H 0.60977 0.68355 0.18866 0.0
H1686 H 0.58589 0.65758 0.20891 0.0
H1687 H 0.56392 0.71256 0.16741 0.0
H1688 H 0.67136 0.71303 0.20586 0.0
H1689 H 0.70562 0.71424 0.23336 0.0
H1690 H 0.64434 0.767 0.24865 0.0
H1691 H 0.61102 0.76663 0.22074 0.0
C1692 C 0.67085 0.78273 0.12949 0.0
C1693 C 0.66596 0.8034 0.13381 0.0
C1694 C 0.65482 0.76718 0.13956 0.0
C1695 C 0.63364 0.77196 0.15415 0.0
C1696 C 0.62803 0.79251 0.15826 0.0
C1697 C 0.64371 0.80804 0.14815 0.0
C1698 C 0.61918 0.75564 0.16576 0.0
C1699 C 0.63178 0.75556 0.18285 0.0
C1700 C 0.59455 0.73989 0.16006 0.0
C1701 C 0.57925 0.73964 0.14231 0.0
C1702 C 0.56059 0.75667 0.13573 0.0
C1703 C 0.5467 0.75646 0.1189 0.0
C1704 C 0.55103 0.73921 0.10857 0.0
C1705 C 0.56915 0.72213 0.11507 0.0
C1706 C 0.58315 0.72228 0.13188 0.0
C1707 C 0.54399 0.69937 0.22576 0.0
C1708 C 0.55391 0.67886 0.22393 0.0
C1709 C 0.55825 0.7142 0.21448 0.0
C1710 C 0.58182 0.70866 0.20091 0.0
C1711 C 0.59161 0.68812 0.19903 0.0
C1712 C 0.57818 0.67336 0.21062 0.0
C1713 C 0.59607 0.72443 0.18875 0.0
C1714 C 0.58338 0.72441 0.17163 0.0
C1715 C 0.62086 0.74006 0.19427 0.0
C1716 C 0.63847 0.73963 0.21143 0.0
C1717 C 0.66498 0.72475 0.21518 0.0
C1718 C 0.68441 0.72539 0.23077 0.0
C1719 C 0.67682 0.74053 0.24288 0.0
C1720 C 0.65005 0.75522 0.2393 0.0
C1721 C 0.63114 0.75493 0.22354 0.0
H1722 H 0.69184 0.74097 0.25497 0.0
H1723 H 0.54027 0.73908 0.09554 0.0
H1724 H 0.29499 0.77793 0.37517 0.0
H1725 H 0.32061 0.7514 0.35668 0.0
H1726 H 0.41315 0.79146 0.34373 0.0
H1727 H 0.38719 0.81813 0.3619 0.0
H1728 H 0.38625 0.77473 0.31582 0.0
H1729 H 0.42135 0.74906 0.37158 0.0
H1730 H 0.40997 0.73776 0.4014 0.0
H1731 H 0.33512 0.69062 0.38314 0.0
H1732 H 0.3457 0.7018 0.35321 0.0
H1733 H 0.49723 0.70343 0.27204 0.0
H1734 H 0.47187 0.72884 0.29157 0.0
H1735 H 0.38804 0.68502 0.30829 0.0
H1736 H 0.41675 0.65893 0.29024 0.0
H1737 H 0.40901 0.70365 0.33441 0.0
H1738 H 0.37355 0.72944 0.27846 0.0
H1739 H 0.38527 0.74082 0.24867 0.0
H1740 H 0.45993 0.78792 0.26719 0.0
H1741 H 0.44896 0.77668 0.29706 0.0
C1742 C 0.32108 0.78094 0.36856 0.0
C1743 C 0.33908 0.80011 0.36998 0.0
C1744 C 0.33574 0.76576 0.358 0.0
C1745 C 0.36905 0.76932 0.34888 0.0
C1746 C 0.38737 0.78834 0.35056 0.0
C1747 C 0.37253 0.80358 0.36096 0.0
C1748 C 0.38409 0.75362 0.33702 0.0
C1749 C 0.39162 0.75924 0.31994 0.0
C1750 C 0.39016 0.73323 0.34221 0.0
C1751 C 0.38406 0.72639 0.36018 0.0
C1752 C 0.40228 0.73637 0.37394 0.0
C1753 C 0.396 0.72997 0.39085 0.0
C1754 C 0.37176 0.71352 0.39416 0.0
C1755 C 0.35385 0.70338 0.38056 0.0
C1756 C 0.36001 0.70972 0.36362 0.0
C1757 C 0.47353 0.69929 0.28 0.0
C1758 C 0.45903 0.6793 0.27984 0.0
C1759 C 0.45856 0.7139 0.29098 0.0
C1760 C 0.42728 0.70916 0.30125 0.0
C1761 C 0.41214 0.6892 0.3006 0.0
C1762 C 0.42824 0.67433 0.29018 0.0
C1763 C 0.41119 0.7247 0.31308 0.0
C1764 C 0.40345 0.71908 0.33019 0.0
C1765 C 0.40474 0.7451 0.3079 0.0
C1766 C 0.4106 0.75214 0.28997 0.0
C1767 C 0.39252 0.74219 0.27616 0.0
C1768 C 0.39905 0.74861 0.25927 0.0
C1769 C 0.42338 0.76505 0.25604 0.0
C1770 C 0.4411 0.77518 0.2697 0.0
C1771 C 0.43469 0.76882 0.28661 0.0
H1772 H 0.42846 0.76997 0.24295 0.0
H1773 H 0.36692 0.7086 0.40727 0.0
H1774 H 0.20302 0.71724 0.88263 0.0
H1775 H 0.17611 0.74413 0.86485 0.0
H1776 H 0.11563 0.6987 0.83525 0.0
H1777 H 0.14159 0.6718 0.85317 0.0
H1778 H 0.15472 0.72634 0.81494 0.0
H1779 H 0.06999 0.7275 0.86298 0.0
H1780 H 0.05282 0.73026 0.89358 0.0
H1781 H 0.1031 0.79016 0.89593 0.0
H1782 H 0.12105 0.78762 0.8654 0.0
H1783 H 0.03994 0.7902 0.76522 0.0
H1784 H 0.06573 0.76421 0.78412 0.0
H1785 H 0.10415 0.81133 0.81917 0.0
H1786 H 0.07538 0.83719 0.80085 0.0
H1787 H 0.07815 0.78291 0.837 0.0
H1788 H 0.16307 0.78267 0.78922 0.0
H1789 H 0.18121 0.78034 0.7587 0.0
H1790 H 0.134 0.71978 0.75583 0.0
H1791 H 0.11517 0.72181 0.78626 0.0
C1792 C 0.18345 0.71298 0.87256 0.0
C1793 C 0.17465 0.69233 0.86928 0.0
C1794 C 0.16823 0.72837 0.86236 0.0
C1795 C 0.14394 0.72338 0.84872 0.0
C1796 C 0.13455 0.70285 0.84563 0.0
C1797 C 0.14954 0.6875 0.85586 0.0
C1798 C 0.1292 0.73947 0.83728 0.0
C1799 C 0.13767 0.73864 0.81969 0.0
C1800 C 0.1079 0.75579 0.8436 0.0
C1801 C 0.09724 0.75727 0.86197 0.0
C1802 C 0.07771 0.74117 0.87007 0.0
C1803 C 0.06776 0.74271 0.88739 0.0
C1804 C 0.07697 0.76034 0.89671 0.0
C1805 C 0.09605 0.77649 0.88871 0.0
C1806 C 0.1061 0.77501 0.8714 0.0
C1807 C 0.05409 0.79494 0.77694 0.0
C1808 C 0.05582 0.81558 0.78167 0.0
C1809 C 0.06911 0.7801 0.78769 0.0
C1810 C 0.08778 0.78574 0.80296 0.0
C1811 C 0.08993 0.80652 0.8075 0.0
C1812 C 0.07365 0.82129 0.79705 0.0
C1813 C 0.10377 0.76997 0.81451 0.0
C1814 C 0.09549 0.77079 0.83216 0.0
C1815 C 0.12571 0.75377 0.80825 0.0
C1816 C 0.13748 0.75246 0.79 0.0
C1817 C 0.15641 0.76889 0.78206 0.0
C1818 C 0.1668 0.76763 0.76477 0.0
C1819 C 0.15867 0.74995 0.75533 0.0
C1820 C 0.14025 0.73347 0.76316 0.0
C1821 C 0.12975 0.73465 0.78043 0.0
H1822 H 0.16672 0.74901 0.74194 0.0
H1823 H 0.06922 0.76151 0.91011 0.0
loop_
_geom_bond_atom_site_label_1
_geom_bond_atom_site_label_2
_geom_bond_distance
_geom_bond_site_symmetry_2
_ccdc_geom_bond_type
C0 C1 1.384 . S
C0 H13 0.947 . S
C0 C35 1.382 . S
C1 C0 1.384 . S
C1 C2 1.378 . S
C2 C1 1.378 . S
C2 C3 1.378 . S
C2 H14 0.952 . S
C3 C2 1.378 . S
C3 H15 0.950 . S
C3 C34 1.383 . S
H4 C23 0.947 . S
H5 C24 0.946 . S
H6 C26 0.953 . S
H7 C27 0.945 . S
H8 C29 0.952 . S
H9 C30 0.949 . S
H10 C32 0.950 . S
H11 C33 0.948 . S
H12 C35 0.951 . S
H13 C0 0.947 . S
H14 C2 0.952 . S
H15 C3 0.950 . S
N16 C19 1.382 . S
N16 C21 1.363 . S
N17 C19 1.371 . S
N17 C20 1.372 . S
N18 C20 1.361 . S
N18 C21 1.377 . S
C19 N16 1.382 . S
C19 N17 1.371 . S
C19 C22 1.480 . S
C20 N17 1.372 . S
C20 N18 1.361 . S
C20 C28 1.457 . S
C21 N16 1.363 . S
C21 N18 1.377 . S
C21 C34 1.479 . S
C22 C19 1.480 . S
C22 C23 1.383 . S
C22 C27 1.385 . S
C23 H4 0.947 . S
C23 C22 1.383 . S
C23 C24 1.388 . S
C24 H5 0.946 . S
C24 C23 1.388 . S
C24 C25 1.384 . S
C25 C24 1.384 . S
C25 C26 1.377 . S
C26 H6 0.953 . S
C26 C25 1.377 . S
C26 C27 1.369 . S
C27 H7 0.945 . S
C27 C22 1.385 . S
C27 C26 1.369 . S
C28 C20 1.457 . S
C28 C29 1.372 . S
C28 C33 1.364 . S
C29 H8 0.952 . S
C29 C28 1.372 . S
C29 C30 1.389 . S
C30 H9 0.949 . S
C30 C29 1.389 . S
C30 C31 1.387 . S
C31 C30 1.387 . S
C31 C32 1.372 . S
C32 H10 0.950 . S
C32 C31 1.372 . S
C32 C33 1.379 . S
C33 H11 0.948 . S
C33 C28 1.364 . S
C33 C32 1.379 . S
C34 C3 1.383 . S
C34 C21 1.479 . S
C34 C35 1.398 . S
C35 C0 1.382 . S
C35 H12 0.951 . S
C35 C34 1.398 . S
C36 C37 1.384 . S
C36 H49 0.947 . S
C36 C71 1.382 . S
C37 C36 1.384 . S
C37 C38 1.378 . S
C38 C37 1.378 . S
C38 C39 1.378 . S
C38 H50 0.952 . S
C39 C38 1.378 . S
C39 H51 0.950 . S
C39 C70 1.383 . S
H40 C59 0.947 . S
H41 C60 0.946 . S
H42 C62 0.953 . S
H43 C63 0.945 . S
H44 C65 0.952 . S
H45 C66 0.949 . S
H46 C68 0.950 . S
H47 C69 0.948 . S
H48 C71 0.951 . S
H49 C36 0.947 . S
H50 C38 0.952 . S
H51 C39 0.950 . S
N52 C55 1.382 . S
N52 C57 1.363 . S
N53 C55 1.371 . S
N53 C56 1.372 . S
N54 C56 1.361 . S
N54 C57 1.377 . S
C55 N52 1.382 . S
C55 N53 1.371 . S
C55 C58 1.480 . S
C56 N53 1.372 . S
C56 N54 1.361 . S
C56 C64 1.457 . S
C57 N52 1.363 . S
C57 N54 1.377 . S
C57 C70 1.479 . S
C58 C55 1.480 . S
C58 C59 1.383 . S
C58 C63 1.385 . S
C59 H40 0.947 . S
C59 C58 1.383 . S
C59 C60 1.388 . S
C60 H41 0.946 . S
C60 C59 1.388 . S
C60 C61 1.384 . S
C61 C60 1.384 . S
C61 C62 1.377 . S
C62 H42 0.953 . S
C62 C61 1.377 . S
C62 C63 1.369 . S
C63 H43 0.945 . S
C63 C58 1.385 . S
C63 C62 1.369 . S
C64 C56 1.457 . S
C64 C65 1.372 . S
C64 C69 1.364 . S
C65 H44 0.952 . S
C65 C64 1.372 . S
C65 C66 1.389 . S
C66 H45 0.949 . S
C66 C65 1.389 . S
C66 C67 1.387 . S
C67 C66 1.387 . S
C67 C68 1.372 . S
C68 H46 0.950 . S
C68 C67 1.372 . S
C68 C69 1.379 . S
C69 H47 0.948 . S
C69 C64 1.364 . S
C69 C68 1.379 . S
C70 C39 1.383 . S
C70 C57 1.479 . S
C70 C71 1.398 . S
C71 C36 1.382 . S
C71 H48 0.951 . S
C71 C70 1.398 . S
C72 C73 1.384 . S
C72 H85 0.947 . S
C72 C107 1.382 . S
C73 C72 1.384 . S
C73 C74 1.378 . S
C74 C73 1.378 . S
C74 C75 1.378 . S
C74 H86 0.952 . S
C75 C74 1.378 . S
C75 H87 0.950 . S
C75 C106 1.383 . S
H76 C95 0.947 . S
H77 C96 0.946 . S
H78 C98 0.953 . S
H79 C99 0.945 . S
H80 C101 0.952 . S
H81 C102 0.949 . S
H82 C104 0.950 . S
H83 C105 0.948 . S
H84 C107 0.951 . S
H85 C72 0.947 . S
H86 C74 0.952 . S
H87 C75 0.950 . S
N88 C91 1.382 . S
N88 C93 1.363 . S
N89 C91 1.371 . S
N89 C92 1.372 . S
N90 C92 1.361 . S
N90 C93 1.377 . S
C91 N88 1.382 . S
C91 N89 1.371 . S
C91 C94 1.480 . S
C92 N89 1.372 . S
C92 N90 1.361 . S
C92 C100 1.457 . S
C93 N88 1.363 . S
C93 N90 1.377 . S
C93 C106 1.479 . S
C94 C91 1.480 . S
C94 C95 1.383 . S
C94 C99 1.385 . S
C95 H76 0.947 . S
C95 C94 1.383 . S
C95 C96 1.388 . S
C96 H77 0.946 . S
C96 C95 1.388 . S
C96 C97 1.384 . S
C97 C96 1.384 . S
C97 C98 1.377 . S
C98 H78 0.953 . S
C98 C97 1.377 . S
C98 C99 1.369 . S
C99 H79 0.945 . S
C99 C94 1.385 . S
C99 C98 1.369 . S
C100 C92 1.457 . S
C100 C101 1.372 . S
C100 C105 1.364 . S
C101 H80 0.952 . S
C101 C100 1.372 . S
C101 C102 1.389 . S
C102 H81 0.949 . S
C102 C101 1.389 . S
C102 C103 1.387 . S
C103 C102 1.387 . S
C103 C104 1.372 . S
C104 H82 0.950 . S
C104 C103 1.372 . S
C104 C105 1.379 . S
C105 H83 0.948 . S
C105 C100 1.364 . S
C105 C104 1.379 . S
C106 C75 1.383 . S
C106 C93 1.479 . S
C106 C107 1.398 . S
C107 C72 1.382 . S
C107 H84 0.951 . S
C107 C106 1.398 . S
C108 C109 1.384 . S
C108 H121 0.947 . S
C108 C143 1.382 . S
C109 C108 1.384 . S
C109 C110 1.378 . S
C110 C109 1.378 . S
C110 C111 1.378 . S
C110 H122 0.952 . S
C111 C110 1.378 . S
C111 H123 0.950 . S
C111 C142 1.383 . S
H112 C131 0.947 . S
H113 C132 0.946 . S
H114 C134 0.953 . S
H115 C135 0.945 . S
H116 C137 0.952 . S
H117 C138 0.949 . S
H118 C140 0.950 . S
H119 C141 0.948 . S
H120 C143 0.951 . S
H121 C108 0.947 . S
H122 C110 0.952 . S
H123 C111 0.950 . S
N124 C127 1.382 . S
N124 C129 1.363 . S
N125 C127 1.371 . S
N125 C128 1.372 . S
N126 C128 1.361 . S
N126 C129 1.377 . S
C127 N124 1.382 . S
C127 N125 1.371 . S
C127 C130 1.480 . S
C128 N125 1.372 . S
C128 N126 1.361 . S
C128 C136 1.457 . S
C129 N124 1.363 . S
C129 N126 1.377 . S
C129 C142 1.479 . S
C130 C127 1.480 . S
C130 C131 1.383 . S
C130 C135 1.385 . S
C131 H112 0.947 . S
C131 C130 1.383 . S
C131 C132 1.388 . S
C132 H113 0.946 . S
C132 C131 1.388 . S
C132 C133 1.384 . S
C133 C132 1.384 . S
C133 C134 1.377 . S
C134 H114 0.953 . S
C134 C133 1.377 . S
C134 C135 1.369 . S
C135 H115 0.945 . S
C135 C130 1.385 . S
C135 C134 1.369 . S
C136 C128 1.457 . S
C136 C137 1.372 . S
C136 C141 1.364 . S
C137 H116 0.952 . S
C137 C136 1.372 . S
C137 C138 1.389 . S
C138 H117 0.949 . S
C138 C137 1.389 . S
C138 C139 1.387 . S
C139 C138 1.387 . S
C139 C140 1.372 . S
C140 H118 0.950 . S
C140 C139 1.372 . S
C140 C141 1.379 . S
C141 H119 0.948 . S
C141 C136 1.364 . S
C141 C140 1.379 . S
C142 C111 1.383 . S
C142 C129 1.479 . S
C142 C143 1.398 . S
C143 C108 1.382 . S
C143 H120 0.951 . S
C143 C142 1.398 . S
C144 C145 1.384 . S
C144 H157 0.947 . S
C144 C179 1.382 . S
C145 C144 1.384 . S
C145 C146 1.378 . S
C146 C145 1.378 . S
C146 C147 1.378 . S
C146 H158 0.952 . S
C147 C146 1.378 . S
C147 H159 0.950 . S
C147 C178 1.383 . S
H148 C167 0.947 . S
H149 C168 0.946 . S
H150 C170 0.953 . S
H151 C171 0.945 . S
H152 C173 0.952 . S
H153 C174 0.949 . S
H154 C176 0.950 . S
H155 C177 0.948 . S
H156 C179 0.951 . S
H157 C144 0.947 . S
H158 C146 0.952 . S
H159 C147 0.950 . S
N160 C163 1.382 . S
N160 C165 1.363 . S
N161 C163 1.371 . S
N161 C164 1.372 . S
N162 C164 1.361 . S
N162 C165 1.377 . S
C163 N160 1.382 . S
C163 N161 1.371 . S
C163 C166 1.480 . S
C164 N161 1.372 . S
C164 N162 1.361 . S
C164 C172 1.457 . S
C165 N160 1.363 . S
C165 N162 1.377 . S
C165 C178 1.479 . S
C166 C163 1.480 . S
C166 C167 1.383 . S
C166 C171 1.385 . S
C167 H148 0.947 . S
C167 C166 1.383 . S
C167 C168 1.388 . S
C168 H149 0.946 . S
C168 C167 1.388 . S
C168 C169 1.384 . S
C169 C168 1.384 . S
C169 C170 1.377 . S
C170 H150 0.953 . S
C170 C169 1.377 . S
C170 C171 1.369 . S
C171 H151 0.945 . S
C171 C166 1.385 . S
C171 C170 1.369 . S
C172 C164 1.457 . S
C172 C173 1.372 . S
C172 C177 1.364 . S
C173 H152 0.952 . S
C173 C172 1.372 . S
C173 C174 1.389 . S
C174 H153 0.949 . S
C174 C173 1.389 . S
C174 C175 1.387 . S
C175 C174 1.387 . S
C175 C176 1.372 . S
C176 H154 0.950 . S
C176 C175 1.372 . S
C176 C177 1.379 . S
C177 H155 0.948 . S
C177 C172 1.364 . S
C177 C176 1.379 . S
C178 C147 1.383 . S
C178 C165 1.479 . S
C178 C179 1.398 . S
C179 C144 1.382 . S
C179 H156 0.951 . S
C179 C178 1.398 . S
C180 C181 1.384 . S
C180 H193 0.947 . S
C180 C215 1.382 . S
C181 C180 1.384 . S
C181 C182 1.378 . S
C182 C181 1.378 . S
C182 C183 1.378 . S
C182 H194 0.952 . S
C183 C182 1.378 . S
C183 H195 0.950 . S
C183 C214 1.383 . S
H184 C203 0.947 . S
H185 C204 0.946 . S
H186 C206 0.953 . S
H187 C207 0.945 . S
H188 C209 0.952 . S
H189 C210 0.949 . S
H190 C212 0.950 . S
H191 C213 0.948 . S
H192 C215 0.951 . S
H193 C180 0.947 . S
H194 C182 0.952 . S
H195 C183 0.950 . S
N196 C199 1.382 . S
N196 C201 1.363 . S
N197 C199 1.371 . S
N197 C200 1.372 . S
N198 C200 1.361 . S
N198 C201 1.377 . S
C199 N196 1.382 . S
C199 N197 1.371 . S
C199 C202 1.480 . S
C200 N197 1.372 . S
C200 N198 1.361 . S
C200 C208 1.457 . S
C201 N196 1.363 . S
C201 N198 1.377 . S
C201 C214 1.479 . S
C202 C199 1.480 . S
C202 C203 1.383 . S
C202 C207 1.385 . S
C203 H184 0.947 . S
C203 C202 1.383 . S
C203 C204 1.388 . S
C204 H185 0.946 . S
C204 C203 1.388 . S
C204 C205 1.384 . S
C205 C204 1.384 . S
C205 C206 1.377 . S
C206 H186 0.953 . S
C206 C205 1.377 . S
C206 C207 1.369 . S
C207 H187 0.945 . S
C207 C202 1.385 . S
C207 C206 1.369 . S
C208 C200 1.457 . S
C208 C209 1.372 . S
C208 C213 1.364 . S
C209 H188 0.952 . S
C209 C208 1.372 . S
C209 C210 1.389 . S
C210 H189 0.949 . S
C210 C209 1.389 . S
C210 C211 1.387 . S
C211 C210 1.387 . S
C211 C212 1.372 . S
C212 H190 0.950 . S
C212 C211 1.372 . S
C212 C213 1.379 . S
C213 H191 0.948 . S
C213 C208 1.364 . S
C213 C212 1.379 . S
C214 C183 1.383 . S
C214 C201 1.479 . S
C214 C215 1.398 . S
C215 C180 1.382 . S
C215 H192 0.951 . S
C215 C214 1.398 . S
C216 C217 1.384 . S
C216 H229 0.947 . S
C216 C251 1.382 . S
C217 C216 1.384 . S
C217 C218 1.378 . S
C218 C217 1.378 . S
C218 C219 1.378 . S
C218 H230 0.952 . S
C219 C218 1.378 . S
C219 H231 0.950 . S
C219 C250 1.383 . S
H220 C239 0.947 . S
H221 C240 0.946 . S
H222 C242 0.953 . S
H223 C243 0.945 . S
H224 C245 0.952 . S
H225 C246 0.949 . S
H226 C248 0.950 . S
H227 C249 0.948 . S
H228 C251 0.951 . S
H229 C216 0.947 . S
H230 C218 0.952 . S
H231 C219 0.950 . S
N232 C235 1.382 . S
N232 C237 1.363 . S
N233 C235 1.371 . S
N233 C236 1.372 . S
N234 C236 1.361 . S
N234 C237 1.377 . S
C235 N232 1.382 . S
C235 N233 1.371 . S
C235 C238 1.480 . S
C236 N233 1.372 . S
C236 N234 1.361 . S
C236 C244 1.457 . S
C237 N232 1.363 . S
C237 N234 1.377 . S
C237 C250 1.479 . S
C238 C235 1.480 . S
C238 C239 1.383 . S
C238 C243 1.385 . S
C239 H220 0.947 . S
C239 C238 1.383 . S
C239 C240 1.388 . S
C240 H221 0.946 . S
C240 C239 1.388 . S
C240 C241 1.384 . S
C241 C240 1.384 . S
C241 C242 1.377 . S
C242 H222 0.953 . S
C242 C241 1.377 . S
C242 C243 1.369 . S
C243 H223 0.945 . S
C243 C238 1.385 . S
C243 C242 1.369 . S
C244 C236 1.457 . S
C244 C245 1.372 . S
C244 C249 1.364 . S
C245 H224 0.952 . S
C245 C244 1.372 . S
C245 C246 1.389 . S
C246 H225 0.949 . S
C246 C245 1.389 . S
C246 C247 1.387 . S
C247 C246 1.387 . S
C247 C248 1.372 . S
C248 H226 0.950 . S
C248 C247 1.372 . S
C248 C249 1.379 . S
C249 H227 0.948 . S
C249 C244 1.364 . S
C249 C248 1.379 . S
C250 C219 1.383 . S
C250 C237 1.479 . S
C250 C251 1.398 . S
C251 C216 1.382 . S
C251 H228 0.951 . S
C251 C250 1.398 . S
C252 C253 1.384 . S
C252 H265 0.947 . S
C252 C287 1.382 . S
C253 C252 1.384 . S
C253 C254 1.378 . S
C254 C253 1.378 . S
C254 C255 1.378 . S
C254 H266 0.952 . S
C255 C254 1.378 . S
C255 H267 0.950 . S
C255 C286 1.383 . S
H256 C275 0.947 . S
H257 C276 0.946 . S
H258 C278 0.953 . S
H259 C279 0.945 . S
H260 C281 0.952 . S
H261 C282 0.949 . S
H262 C284 0.950 . S
H263 C285 0.948 . S
H264 C287 0.951 . S
H265 C252 0.947 . S
H266 C254 0.952 . S
H267 C255 0.950 . S
N268 C271 1.382 . S
N268 C273 1.363 . S
N269 C271 1.371 . S
N269 C272 1.372 . S
N270 C272 1.361 . S
N270 C273 1.377 . S
C271 N268 1.382 . S
C271 N269 1.371 . S
C271 C274 1.480 . S
C272 N269 1.372 . S
C272 N270 1.361 . S
C272 C280 1.457 . S
C273 N268 1.363 . S
C273 N270 1.377 . S
C273 C286 1.479 . S
C274 C271 1.480 . S
C274 C275 1.383 . S
C274 C279 1.385 . S
C275 H256 0.947 . S
C275 C274 1.383 . S
C275 C276 1.388 . S
C276 H257 0.946 . S
C276 C275 1.388 . S
C276 C277 1.384 . S
C277 C276 1.384 . S
C277 C278 1.377 . S
C278 H258 0.953 . S
C278 C277 1.377 . S
C278 C279 1.369 . S
C279 H259 0.945 . S
C279 C274 1.385 . S
C279 C278 1.369 . S
C280 C272 1.457 . S
C280 C281 1.372 . S
C280 C285 1.364 . S
C281 H260 0.952 . S
C281 C280 1.372 . S
C281 C282 1.389 . S
C282 H261 0.949 . S
C282 C281 1.389 . S
C282 C283 1.387 . S
C283 C282 1.387 . S
C283 C284 1.372 . S
C284 H262 0.950 . S
C284 C283 1.372 . S
C284 C285 1.379 . S
C285 H263 0.948 . S
C285 C280 1.364 . S
C285 C284 1.379 . S
C286 C255 1.383 . S
C286 C273 1.479 . S
C286 C287 1.398 . S
C287 C252 1.382 . S
C287 H264 0.951 . S
C287 C286 1.398 . S
C288 C290 1.422 . S
C288 C292 1.415 . S
C288 N294 1.369 . S
C289 C290 1.421 . S
C289 C291 1.417 . S
C289 C301 1.422 . S
C290 C288 1.422 . S
C290 C289 1.421 . S
C290 N300 1.359 . S
C291 C289 1.417 . S
C291 C293 1.329 . S
C291 H310 0.930 . S
C292 C288 1.415 . S
C292 C293 1.437 . S
C292 C296 1.413 . S
C293 C291 1.329 . S
C293 C292 1.437 . S
C293 H315 0.929 . S
N294 C288 1.369 . S
N294 C295 1.338 . S
N294 Gd299 2.622 . S
C295 N294 1.338 . S
C295 C297 1.378 . S
C295 H307 0.929 . S
C296 C292 1.413 . S
C296 C297 1.348 . S
C296 H312 0.931 . S
C297 C295 1.378 . S
C297 C296 1.348 . S
C297 H313 0.930 . S
Gd298 N318 2.622 . S
Gd298 N325 2.570 . S
Gd298 O332 2.353 . S
Gd298 O333 2.468 . S
Gd298 O334 2.427 . S
Gd298 O336 2.388 . S
Gd298 O337 2.386 . S
Gd298 O341 2.307 . S
Gd298 C351 2.805 . S
Gd299 N294 2.622 . S
Gd299 N300 2.570 . S
Gd299 O331 2.386 . S
Gd299 O335 2.307 1_655 S
Gd299 O338 2.353 1_655 S
Gd299 O339 2.468 . S
Gd299 O340 2.427 . S
Gd299 O342 2.388 . S
Gd299 C363 2.805 . S
N300 C290 1.359 . S
N300 Gd299 2.570 . S
N300 C302 1.343 . S
C301 C289 1.422 . S
C301 C303 1.321 . S
C301 H309 0.931 . S
C302 N300 1.343 . S
C302 C303 1.390 . S
C302 H304 0.931 . S
C303 C301 1.321 . S
C303 C302 1.390 . S
C303 H305 0.930 . S
H304 C302 0.931 . S
H305 C303 0.930 . S
H306 C329 0.931 . S
H307 C295 0.929 . S
H308 C330 0.930 . S
H309 C301 0.931 . S
H310 C291 0.930 . S
H311 C320 0.929 . S
H312 C296 0.931 . S
H313 C297 0.930 . S
H314 C352 0.930 . S
H315 C293 0.929 . S
H316 C321 0.931 . S
H317 C322 0.930 . S
N318 Gd298 2.622 . S
N318 C319 1.369 . S
N318 C320 1.338 . S
C319 N318 1.369 . S
C319 C323 1.415 . S
C319 C326 1.422 . S
C320 H311 0.929 . S
C320 N318 1.338 . S
C320 C322 1.378 . S
C321 H316 0.931 . S
C321 C322 1.348 . S
C321 C323 1.413 . S
C322 H317 0.930 . S
C322 C320 1.378 . S
C322 C321 1.348 . S
C323 C319 1.415 . S
C323 C321 1.413 . S
C323 C353 1.437 . S
H324 C353 0.929 . S
N325 Gd298 2.570 . S
N325 C326 1.359 . S
N325 C329 1.343 . S
C326 C319 1.422 . S
C326 N325 1.359 . S
C326 C328 1.421 . S
C327 C328 1.422 . S
C327 C330 1.321 . S
C327 H354 0.931 . S
C328 C326 1.421 . S
C328 C327 1.422 . S
C328 C352 1.417 . S
C329 H306 0.931 . S
C329 N325 1.343 . S
C329 C330 1.390 . S
C330 H308 0.930 . S
C330 C327 1.321 . S
C330 C329 1.390 . S
O331 Gd299 2.386 . S
O331 C343 1.265 . S
O332 Gd298 2.353 . S
O332 C343 1.242 1_455 S
O333 Gd298 2.468 . S
O333 C351 1.263 . S
O334 Gd298 2.427 . S
O334 C351 1.252 . S
O335 Gd299 2.307 1_455 S
O335 C344 1.261 . S
O336 Gd298 2.388 . S
O336 C344 1.252 . S
O337 Gd298 2.386 . S
O337 C355 1.265 . S
O338 Gd299 2.353 1_455 S
O338 C355 1.242 . S
O339 Gd299 2.468 . S
O339 C363 1.263 . S
O340 Gd299 2.427 . S
O340 C363 1.252 . S
O341 Gd298 2.307 . S
O341 C356 1.261 1_455 S
O342 Gd299 2.388 . S
O342 C356 1.252 . S
C343 O331 1.265 . S
C343 O332 1.242 1_655 S
C344 O335 1.261 . S
C344 O336 1.252 . S
C345 C348 1.394 . S
C345 C350 1.370 . S
C345 C351 1.500 . S
C346 C349 1.383 . S
C346 C350 1.395 . S
C347 C348 1.396 . S
C347 C349 1.365 . S
C347 H364 0.929 . S
C348 C345 1.394 . S
C348 C347 1.396 . S
C348 H365 0.930 . S
C349 C346 1.383 . S
C349 C347 1.365 . S
C349 H366 0.931 . S
C350 C345 1.370 . S
C350 C346 1.395 . S
C350 H367 0.930 . S
C351 Gd298 2.805 . S
C351 O333 1.263 . S
C351 O334 1.252 . S
C351 C345 1.500 . S
C352 H314 0.930 . S
C352 C328 1.417 . S
C352 C353 1.329 . S
C353 C323 1.437 . S
C353 H324 0.929 . S
C353 C352 1.329 . S
H354 C327 0.931 . S
C355 O337 1.265 . S
C355 O338 1.242 . S
C356 O341 1.261 1_655 S
C356 O342 1.252 . S
C357 C360 1.394 . S
C357 C362 1.370 . S
C357 C363 1.500 . S
C358 C361 1.383 . S
C358 C362 1.395 . S
C359 C360 1.396 . S
C359 C361 1.365 . S
C359 H368 0.929 . S
C360 C357 1.394 . S
C360 C359 1.396 . S
C360 H369 0.930 . S
C361 C358 1.383 . S
C361 C359 1.365 . S
C361 H370 0.931 . S
C362 C357 1.370 . S
C362 C358 1.395 . S
C362 H371 0.930 . S
C363 Gd299 2.805 . S
C363 O339 1.263 . S
C363 O340 1.252 . S
C363 C357 1.500 . S
H364 C347 0.929 . S
H365 C348 0.930 . S
H366 C349 0.931 . S
H367 C350 0.930 . S
H368 C359 0.929 . S
H369 C360 0.930 . S
H370 C361 0.931 . S
H371 C362 0.930 . S
C372 C374 1.422 . S
C372 C376 1.415 . S
C372 N378 1.369 . S
C373 C374 1.421 . S
C373 C375 1.417 . S
C373 C385 1.422 . S
C374 C372 1.422 . S
C374 C373 1.421 . S
C374 N384 1.359 . S
C375 C373 1.417 . S
C375 C377 1.329 . S
C375 H394 0.930 . S
C376 C372 1.415 . S
C376 C377 1.437 . S
C376 C380 1.413 . S
C377 C375 1.329 . S
C377 C376 1.437 . S
C377 H399 0.929 . S
N378 C372 1.369 . S
N378 C379 1.338 . S
N378 Gd383 2.622 . S
C379 N378 1.338 . S
C379 C381 1.378 . S
C379 H391 0.929 . S
C380 C376 1.413 . S
C380 C381 1.348 . S
C380 H396 0.931 . S
C381 C379 1.378 . S
C381 C380 1.348 . S
C381 H397 0.930 . S
Gd382 N402 2.622 . S
Gd382 N409 2.570 . S
Gd382 O416 2.353 . S
Gd382 O417 2.468 . S
Gd382 O418 2.427 . S
Gd382 O420 2.388 . S
Gd382 O421 2.386 . S
Gd382 O425 2.307 . S
Gd382 C435 2.805 . S
Gd383 N378 2.622 . S
Gd383 N384 2.570 . S
Gd383 O415 2.386 . S
Gd383 O419 2.307 . S
Gd383 O422 2.353 . S
Gd383 O423 2.468 . S
Gd383 O424 2.427 . S
Gd383 O426 2.388 . S
Gd383 C447 2.805 . S
N384 C374 1.359 . S
N384 Gd383 2.570 . S
N384 C386 1.343 . S
C385 C373 1.422 . S
C385 C387 1.321 . S
C385 H393 0.931 . S
C386 N384 1.343 . S
C386 C387 1.390 . S
C386 H388 0.931 . S
C387 C385 1.321 . S
C387 C386 1.390 . S
C387 H389 0.930 . S
H388 C386 0.931 . S
H389 C387 0.930 . S
H390 C413 0.931 . S
H391 C379 0.929 . S
H392 C414 0.930 . S
H393 C385 0.931 . S
H394 C375 0.930 . S
H395 C404 0.929 . S
H396 C380 0.931 . S
H397 C381 0.930 . S
H398 C436 0.930 . S
H399 C377 0.929 . S
H400 C405 0.931 . S
H401 C406 0.930 . S
N402 Gd382 2.622 . S
N402 C403 1.369 . S
N402 C404 1.338 . S
C403 N402 1.369 . S
C403 C407 1.415 . S
C403 C410 1.422 . S
C404 H395 0.929 . S
C404 N402 1.338 . S
C404 C406 1.378 . S
C405 H400 0.931 . S
C405 C406 1.348 . S
C405 C407 1.413 . S
C406 H401 0.930 . S
C406 C404 1.378 . S
C406 C405 1.348 . S
C407 C403 1.415 . S
C407 C405 1.413 . S
C407 C437 1.437 . S
H408 C437 0.929 . S
N409 Gd382 2.570 . S
N409 C410 1.359 . S
N409 C413 1.343 . S
C410 C403 1.422 . S
C410 N409 1.359 . S
C410 C412 1.421 . S
C411 C412 1.422 . S
C411 C414 1.321 . S
C411 H438 0.931 . S
C412 C410 1.421 . S
C412 C411 1.422 . S
C412 C436 1.417 . S
C413 H390 0.931 . S
C413 N409 1.343 . S
C413 C414 1.390 . S
C414 H392 0.930 . S
C414 C411 1.321 . S
C414 C413 1.390 . S
O415 Gd383 2.386 . S
O415 C427 1.265 . S
O416 Gd382 2.353 . S
O416 C427 1.242 . S
O417 Gd382 2.468 . S
O417 C435 1.263 . S
O418 Gd382 2.427 . S
O418 C435 1.252 . S
O419 Gd383 2.307 . S
O419 C428 1.261 . S
O420 Gd382 2.388 . S
O420 C428 1.252 . S
O421 Gd382 2.386 . S
O421 C439 1.265 . S
O422 Gd383 2.353 . S
O422 C439 1.242 . S
O423 Gd383 2.468 . S
O423 C447 1.263 . S
O424 Gd383 2.427 . S
O424 C447 1.252 . S
O425 Gd382 2.307 . S
O425 C440 1.261 . S
O426 Gd383 2.388 . S
O426 C440 1.252 . S
C427 O415 1.265 . S
C427 O416 1.242 . S
C428 O419 1.261 . S
C428 O420 1.252 . S
C429 C432 1.394 . S
C429 C434 1.370 . S
C429 C435 1.500 . S
C430 C433 1.383 . S
C430 C434 1.395 . S
C431 C432 1.396 . S
C431 C433 1.365 . S
C431 H448 0.929 . S
C432 C429 1.394 . S
C432 C431 1.396 . S
C432 H449 0.930 . S
C433 C430 1.383 . S
C433 C431 1.365 . S
C433 H450 0.931 . S
C434 C429 1.370 . S
C434 C430 1.395 . S
C434 H451 0.930 . S
C435 Gd382 2.805 . S
C435 O417 1.263 . S
C435 O418 1.252 . S
C435 C429 1.500 . S
C436 H398 0.930 . S
C436 C412 1.417 . S
C436 C437 1.329 . S
C437 C407 1.437 . S
C437 H408 0.929 . S
C437 C436 1.329 . S
H438 C411 0.931 . S
C439 O421 1.265 . S
C439 O422 1.242 . S
C440 O425 1.261 . S
C440 O426 1.252 . S
C441 C444 1.394 . S
C441 C446 1.370 . S
C441 C447 1.500 . S
C442 C445 1.383 . S
C442 C446 1.395 . S
C443 C444 1.396 . S
C443 C445 1.365 . S
C443 H452 0.929 . S
C444 C441 1.394 . S
C444 C443 1.396 . S
C444 H453 0.930 . S
C445 C442 1.383 . S
C445 C443 1.365 . S
C445 H454 0.931 . S
C446 C441 1.370 . S
C446 C442 1.395 . S
C446 H455 0.930 . S
C447 Gd383 2.805 . S
C447 O423 1.263 . S
C447 O424 1.252 . S
C447 C441 1.500 . S
H448 C431 0.929 . S
H449 C432 0.930 . S
H450 C433 0.931 . S
H451 C434 0.930 . S
H452 C443 0.929 . S
H453 C444 0.930 . S
H454 C445 0.931 . S
H455 C446 0.930 . S
C456 C458 1.422 . S
C456 C460 1.415 . S
C456 N462 1.369 . S
C457 C458 1.421 . S
C457 C459 1.417 . S
C457 C469 1.422 . S
C458 C456 1.422 . S
C458 C457 1.421 . S
C458 N468 1.359 . S
C459 C457 1.417 . S
C459 C461 1.329 . S
C459 H478 0.930 . S
C460 C456 1.415 . S
C460 C461 1.437 . S
C460 C464 1.413 . S
C461 C459 1.329 . S
C461 C460 1.437 . S
C461 H483 0.929 . S
N462 C456 1.369 . S
N462 C463 1.338 . S
N462 Gd467 2.622 . S
C463 N462 1.338 . S
C463 C465 1.378 . S
C463 H475 0.929 . S
C464 C460 1.413 . S
C464 C465 1.348 . S
C464 H480 0.931 . S
C465 C463 1.378 . S
C465 C464 1.348 . S
C465 H481 0.930 . S
Gd466 N486 2.622 . S
Gd466 N493 2.570 . S
Gd466 O500 2.353 . S
Gd466 O501 2.468 . S
Gd466 O502 2.427 . S
Gd466 O504 2.388 . S
Gd466 O505 2.386 . S
Gd466 O509 2.307 . S
Gd466 C519 2.805 . S
Gd467 N462 2.622 . S
Gd467 N468 2.570 . S
Gd467 O499 2.386 . S
Gd467 O503 2.307 1_655 S
Gd467 O506 2.353 1_655 S
Gd467 O507 2.468 . S
Gd467 O508 2.427 . S
Gd467 O510 2.388 . S
Gd467 C531 2.805 . S
N468 C458 1.359 . S
N468 Gd467 2.570 . S
N468 C470 1.343 . S
C469 C457 1.422 . S
C469 C471 1.321 . S
C469 H477 0.931 . S
C470 N468 1.343 . S
C470 C471 1.390 . S
C470 H472 0.931 . S
C471 C469 1.321 . S
C471 C470 1.390 . S
C471 H473 0.930 . S
H472 C470 0.931 . S
H473 C471 0.930 . S
H474 C497 0.931 . S
H475 C463 0.929 . S
H476 C498 0.930 . S
H477 C469 0.931 . S
H478 C459 0.930 . S
H479 C488 0.929 . S
H480 C464 0.931 . S
H481 C465 0.930 . S
H482 C520 0.930 . S
H483 C461 0.929 . S
H484 C489 0.931 . S
H485 C490 0.930 . S
N486 Gd466 2.622 . S
N486 C487 1.369 . S
N486 C488 1.338 . S
C487 N486 1.369 . S
C487 C491 1.415 . S
C487 C494 1.422 . S
C488 H479 0.929 . S
C488 N486 1.338 . S
C488 C490 1.378 . S
C489 H484 0.931 . S
C489 C490 1.348 . S
C489 C491 1.413 . S
C490 H485 0.930 . S
C490 C488 1.378 . S
C490 C489 1.348 . S
C491 C487 1.415 . S
C491 C489 1.413 . S
C491 C521 1.437 . S
H492 C521 0.929 . S
N493 Gd466 2.570 . S
N493 C494 1.359 . S
N493 C497 1.343 . S
C494 C487 1.422 . S
C494 N493 1.359 . S
C494 C496 1.421 . S
C495 C496 1.422 . S
C495 C498 1.321 . S
C495 H522 0.931 . S
C496 C494 1.421 . S
C496 C495 1.422 . S
C496 C520 1.417 . S
C497 H474 0.931 . S
C497 N493 1.343 . S
C497 C498 1.390 . S
C498 H476 0.930 . S
C498 C495 1.321 . S
C498 C497 1.390 . S
O499 Gd467 2.386 . S
O499 C511 1.265 . S
O500 Gd466 2.353 . S
O500 C511 1.242 1_455 S
O501 Gd466 2.468 . S
O501 C519 1.263 . S
O502 Gd466 2.427 . S
O502 C519 1.252 . S
O503 Gd467 2.307 1_455 S
O503 C512 1.261 . S
O504 Gd466 2.388 . S
O504 C512 1.252 . S
O505 Gd466 2.386 . S
O505 C523 1.265 . S
O506 Gd467 2.353 1_455 S
O506 C523 1.242 . S
O507 Gd467 2.468 . S
O507 C531 1.263 . S
O508 Gd467 2.427 . S
O508 C531 1.252 . S
O509 Gd466 2.307 . S
O509 C524 1.261 1_455 S
O510 Gd467 2.388 . S
O510 C524 1.252 . S
C511 O499 1.265 . S
C511 O500 1.242 1_655 S
C512 O503 1.261 . S
C512 O504 1.252 . S
C513 C516 1.394 . S
C513 C518 1.370 . S
C513 C519 1.500 . S
C514 C517 1.383 . S
C514 C518 1.395 . S
C515 C516 1.396 . S
C515 C517 1.365 . S
C515 H532 0.929 . S
C516 C513 1.394 . S
C516 C515 1.396 . S
C516 H533 0.930 . S
C517 C514 1.383 . S
C517 C515 1.365 . S
C517 H534 0.931 . S
C518 C513 1.370 . S
C518 C514 1.395 . S
C518 H535 0.930 . S
C519 Gd466 2.805 . S
C519 O501 1.263 . S
C519 O502 1.252 . S
C519 C513 1.500 . S
C520 H482 0.930 . S
C520 C496 1.417 . S
C520 C521 1.329 . S
C521 C491 1.437 . S
C521 H492 0.929 . S
C521 C520 1.329 . S
H522 C495 0.931 . S
C523 O505 1.265 . S
C523 O506 1.242 . S
C524 O509 1.261 1_655 S
C524 O510 1.252 . S
C525 C528 1.394 . S
C525 C530 1.370 . S
C525 C531 1.500 . S
C526 C529 1.383 . S
C526 C530 1.395 . S
C527 C528 1.396 . S
C527 C529 1.365 . S
C527 H536 0.929 . S
C528 C525 1.394 . S
C528 C527 1.396 . S
C528 H537 0.930 . S
C529 C526 1.383 . S
C529 C527 1.365 . S
C529 H538 0.931 . S
C530 C525 1.370 . S
C530 C526 1.395 . S
C530 H539 0.930 . S
C531 Gd467 2.805 . S
C531 O507 1.263 . S
C531 O508 1.252 . S
C531 C525 1.500 . S
H532 C515 0.929 . S
H533 C516 0.930 . S
H534 C517 0.931 . S
H535 C518 0.930 . S
H536 C527 0.929 . S
H537 C528 0.930 . S
H538 C529 0.931 . S
H539 C530 0.930 . S
C540 C542 1.422 . S
C540 C544 1.415 . S
C540 N546 1.369 . S
C541 C542 1.421 . S
C541 C543 1.417 . S
C541 C553 1.422 . S
C542 C540 1.422 . S
C542 C541 1.421 . S
C542 N552 1.359 . S
C543 C541 1.417 . S
C543 C545 1.329 . S
C543 H562 0.930 . S
C544 C540 1.415 . S
C544 C545 1.437 . S
C544 C548 1.413 . S
C545 C543 1.329 . S
C545 C544 1.437 . S
C545 H567 0.929 . S
N546 C540 1.369 . S
N546 C547 1.338 . S
N546 Gd551 2.622 . S
C547 N546 1.338 . S
C547 C549 1.378 . S
C547 H559 0.929 . S
C548 C544 1.413 . S
C548 C549 1.348 . S
C548 H564 0.931 . S
C549 C547 1.378 . S
C549 C548 1.348 . S
C549 H565 0.930 . S
Gd550 N570 2.622 . S
Gd550 N577 2.570 . S
Gd550 O584 2.353 . S
Gd550 O585 2.468 . S
Gd550 O586 2.427 . S
Gd550 O588 2.388 . S
Gd550 O589 2.386 . S
Gd550 O593 2.307 . S
Gd550 C603 2.805 . S
Gd551 N546 2.622 . S
Gd551 N552 2.570 . S
Gd551 O583 2.386 . S
Gd551 O587 2.307 . S
Gd551 O590 2.353 . S
Gd551 O591 2.468 . S
Gd551 O592 2.427 . S
Gd551 O594 2.388 . S
Gd551 C615 2.805 . S
N552 C542 1.359 . S
N552 Gd551 2.570 . S
N552 C554 1.343 . S
C553 C541 1.422 . S
C553 C555 1.321 . S
C553 H561 0.931 . S
C554 N552 1.343 . S
C554 C555 1.390 . S
C554 H556 0.931 . S
C555 C553 1.321 . S
C555 C554 1.390 . S
C555 H557 0.930 . S
H556 C554 0.931 . S
H557 C555 0.930 . S
H558 C581 0.931 . S
H559 C547 0.929 . S
H560 C582 0.930 . S
H561 C553 0.931 . S
H562 C543 0.930 . S
H563 C572 0.929 . S
H564 C548 0.931 . S
H565 C549 0.930 . S
H566 C604 0.930 . S
H567 C545 0.929 . S
H568 C573 0.931 . S
H569 C574 0.930 . S
N570 Gd550 2.622 . S
N570 C571 1.369 . S
N570 C572 1.338 . S
C571 N570 1.369 . S
C571 C575 1.415 . S
C571 C578 1.422 . S
C572 H563 0.929 . S
C572 N570 1.338 . S
C572 C574 1.378 . S
C573 H568 0.931 . S
C573 C574 1.348 . S
C573 C575 1.413 . S
C574 H569 0.930 . S
C574 C572 1.378 . S
C574 C573 1.348 . S
C575 C571 1.415 . S
C575 C573 1.413 . S
C575 C605 1.437 . S
H576 C605 0.929 . S
N577 Gd550 2.570 . S
N577 C578 1.359 . S
N577 C581 1.343 . S
C578 C571 1.422 . S
C578 N577 1.359 . S
C578 C580 1.421 . S
C579 C580 1.422 . S
C579 C582 1.321 . S
C579 H606 0.931 . S
C580 C578 1.421 . S
C580 C579 1.422 . S
C580 C604 1.417 . S
C581 H558 0.931 . S
C581 N577 1.343 . S
C581 C582 1.390 . S
C582 H560 0.930 . S
C582 C579 1.321 . S
C582 C581 1.390 . S
O583 Gd551 2.386 . S
O583 C595 1.265 . S
O584 Gd550 2.353 . S
O584 C595 1.242 . S
O585 Gd550 2.468 . S
O585 C603 1.263 . S
O586 Gd550 2.427 . S
O586 C603 1.252 . S
O587 Gd551 2.307 . S
O587 C596 1.261 . S
O588 Gd550 2.388 . S
O588 C596 1.252 . S
O589 Gd550 2.386 . S
O589 C607 1.265 . S
O590 Gd551 2.353 . S
O590 C607 1.242 . S
O591 Gd551 2.468 . S
O591 C615 1.263 . S
O592 Gd551 2.427 . S
O592 C615 1.252 . S
O593 Gd550 2.307 . S
O593 C608 1.261 . S
O594 Gd551 2.388 . S
O594 C608 1.252 . S
C595 O583 1.265 . S
C595 O584 1.242 . S
C596 O587 1.261 . S
C596 O588 1.252 . S
C597 C600 1.394 . S
C597 C602 1.370 . S
C597 C603 1.500 . S
C598 C601 1.383 . S
C598 C602 1.395 . S
C599 C600 1.396 . S
C599 C601 1.365 . S
C599 H616 0.929 . S
C600 C597 1.394 . S
C600 C599 1.396 . S
C600 H617 0.930 . S
C601 C598 1.383 . S
C601 C599 1.365 . S
C601 H618 0.931 . S
C602 C597 1.370 . S
C602 C598 1.395 . S
C602 H619 0.930 . S
C603 Gd550 2.805 . S
C603 O585 1.263 . S
C603 O586 1.252 . S
C603 C597 1.500 . S
C604 H566 0.930 . S
C604 C580 1.417 . S
C604 C605 1.329 . S
C605 C575 1.437 . S
C605 H576 0.929 . S
C605 C604 1.329 . S
H606 C579 0.931 . S
C607 O589 1.265 . S
C607 O590 1.242 . S
C608 O593 1.261 . S
C608 O594 1.252 . S
C609 C612 1.394 . S
C609 C614 1.370 . S
C609 C615 1.500 . S
C610 C613 1.383 . S
C610 C614 1.395 . S
C611 C612 1.396 . S
C611 C613 1.365 . S
C611 H620 0.929 . S
C612 C609 1.394 . S
C612 C611 1.396 . S
C612 H621 0.930 . S
C613 C610 1.383 . S
C613 C611 1.365 . S
C613 H622 0.931 . S
C614 C609 1.370 . S
C614 C610 1.395 . S
C614 H623 0.930 . S
C615 Gd551 2.805 . S
C615 O591 1.263 . S
C615 O592 1.252 . S
C615 C609 1.500 . S
H616 C599 0.929 . S
H617 C600 0.930 . S
H618 C601 0.931 . S
H619 C602 0.930 . S
H620 C611 0.929 . S
H621 C612 0.930 . S
H622 C613 0.931 . S
H623 C614 0.930 . S
H624 C642 0.951 . S
H625 C644 0.951 1_545 S
H626 C646 0.950 . S
H627 C647 0.950 . S
H628 C649 0.950 1_565 S
H629 C652 0.950 . S
H630 C653 0.950 . S
H631 C655 0.950 . S
H632 C656 0.950 . S
H633 C657 0.979 . S
H634 C659 0.951 . S
H635 C661 0.950 . S
H636 C662 0.950 . S
H637 C664 0.950 . S
H638 C667 0.950 . S
H639 C668 0.950 . S
H640 C670 0.931 1_655 S
H641 C671 0.950 . S
C642 H624 0.951 . S
C642 C643 1.366 . S
C642 C644 1.388 . S
C643 C642 1.366 . S
C643 C647 1.385 . S
C644 H625 0.951 1_565 S
C644 C642 1.388 . S
C644 C645 1.369 . S
C645 C644 1.369 . S
C645 C646 1.428 . S
C645 C648 1.483 1_565 S
C646 H626 0.950 . S
C646 C645 1.428 . S
C646 C647 1.374 . S
C647 H627 0.950 . S
C647 C643 1.385 . S
C647 C646 1.374 . S
C648 C645 1.483 1_545 S
C648 C649 1.373 . S
C648 C650 1.389 . S
C649 H628 0.950 1_545 S
C649 C648 1.373 . S
C649 C665 1.377 . S
C650 C648 1.389 . S
C650 C651 1.524 . S
C650 C664 1.377 . S
C651 C650 1.524 . S
C651 C652 1.397 . S
C651 C656 1.363 . S
C652 H629 0.950 . S
C652 C651 1.397 . S
C652 C653 1.334 . S
C653 H630 0.950 . S
C653 C652 1.334 . S
C653 C654 1.287 . S
C654 C653 1.287 . S
C654 C655 1.524 . S
C654 H673 0.913 . S
C655 H631 0.950 . S
C655 C654 1.524 . S
C655 C656 1.415 . S
C656 H632 0.950 . S
C656 C651 1.363 . S
C656 C655 1.415 . S
C657 H633 0.979 . S
C657 C658 1.366 . S
C657 C659 1.388 . S
C658 C657 1.366 . S
C658 C662 1.385 . S
C659 H634 0.951 . S
C659 C657 1.388 . S
C659 C660 1.366 . S
C660 C659 1.366 . S
C660 C661 1.414 . S
C660 C663 1.499 . S
C661 H635 0.950 . S
C661 C660 1.414 . S
C661 C662 1.374 . S
C662 H636 0.950 . S
C662 C658 1.385 . S
C662 C661 1.374 . S
C663 C660 1.499 . S
C663 C664 1.373 . S
C663 C665 1.389 . S
C664 H637 0.950 . S
C664 C650 1.377 . S
C664 C663 1.373 . S
C665 C649 1.377 . S
C665 C663 1.389 . S
C665 C666 1.524 . S
C666 C665 1.524 . S
C666 C667 1.397 . S
C666 C671 1.363 . S
C667 H638 0.950 . S
C667 C666 1.397 . S
C667 C668 1.334 . S
C668 H639 0.950 . S
C668 C667 1.334 . S
C668 C669 1.287 . S
C669 C668 1.287 . S
C669 C670 1.531 1_545 S
C669 H672 0.999 1_445 S
C670 H640 0.931 1_455 S
C670 C669 1.531 1_565 S
C670 C671 1.429 1_565 S
C671 H641 0.950 . S
C671 C666 1.363 . S
C671 C670 1.429 1_545 S
H672 C669 0.999 1_665 S
H673 C654 0.913 . S
H674 C692 0.951 . S
H675 C694 0.951 . S
H676 C696 0.950 . S
H677 C697 0.950 . S
H678 C699 0.950 . S
H679 C702 0.950 . S
H680 C703 0.950 . S
H681 C705 0.950 . S
H682 C706 0.950 . S
H683 C707 0.951 . S
H684 C709 0.951 . S
H685 C711 0.950 . S
H686 C712 0.950 . S
H687 C714 0.950 . S
H688 C717 0.950 . S
H689 C718 0.950 . S
H690 C720 0.950 . S
H691 C721 0.950 . S
C692 H674 0.951 . S
C692 C693 1.366 . S
C692 C694 1.388 . S
C693 C692 1.366 . S
C693 C697 1.385 . S
C694 H675 0.951 . S
C694 C692 1.388 . S
C694 C695 1.366 . S
C695 C694 1.366 . S
C695 C696 1.414 . S
C695 C698 1.499 . S
C696 H676 0.950 . S
C696 C695 1.414 . S
C696 C697 1.374 . S
C697 H677 0.950 . S
C697 C693 1.385 . S
C697 C696 1.374 . S
C698 C695 1.499 . S
C698 C699 1.373 . S
C698 C700 1.389 . S
C699 H678 0.950 . S
C699 C698 1.373 . S
C699 C715 1.377 . S
C700 C698 1.389 . S
C700 C701 1.524 . S
C700 C714 1.377 . S
C701 C700 1.524 . S
C701 C702 1.397 . S
C701 C706 1.363 . S
C702 H679 0.950 . S
C702 C701 1.397 . S
C702 C703 1.334 . S
C703 H680 0.950 . S
C703 C702 1.334 . S
C703 C704 1.287 . S
C704 C703 1.287 . S
C704 C705 1.524 . S
C704 H723 0.913 . S
C705 H681 0.950 . S
C705 C704 1.524 . S
C705 C706 1.415 . S
C706 H682 0.950 . S
C706 C701 1.363 . S
C706 C705 1.415 . S
C707 H683 0.951 . S
C707 C708 1.366 . S
C707 C709 1.388 . S
C708 C707 1.366 . S
C708 C712 1.385 . S
C709 H684 0.951 . S
C709 C707 1.388 . S
C709 C710 1.366 . S
C710 C709 1.366 . S
C710 C711 1.414 . S
C710 C713 1.499 . S
C711 H685 0.950 . S
C711 C710 1.414 . S
C711 C712 1.374 . S
C712 H686 0.950 . S
C712 C708 1.385 . S
C712 C711 1.374 . S
C713 C710 1.499 . S
C713 C714 1.373 . S
C713 C715 1.389 . S
C714 H687 0.950 . S
C714 C700 1.377 . S
C714 C713 1.373 . S
C715 C699 1.377 . S
C715 C713 1.389 . S
C715 C716 1.524 . S
C716 C715 1.524 . S
C716 C717 1.397 . S
C716 C721 1.363 . S
C717 H688 0.950 . S
C717 C716 1.397 . S
C717 C718 1.334 . S
C718 H689 0.950 . S
C718 C717 1.334 . S
C718 C719 1.287 . S
C719 C718 1.287 . S
C719 C720 1.524 . S
C719 H722 0.999 . S
C720 H690 0.950 . S
C720 C719 1.524 . S
C720 C721 1.415 . S
C721 H691 0.950 . S
C721 C716 1.363 . S
C721 C720 1.415 . S
H722 C719 0.999 . S
H723 C704 0.913 . S
H724 C742 0.951 . S
H725 C744 0.951 . S
H726 C746 0.950 . S
H727 C747 0.950 . S
H728 C749 0.950 . S
H729 C752 0.950 . S
H730 C753 0.950 . S
H731 C755 0.950 . S
H732 C756 0.950 . S
H733 C757 0.951 . S
H734 C759 0.951 . S
H735 C761 0.950 . S
H736 C762 0.950 . S
H737 C764 0.950 . S
H738 C767 0.950 . S
H739 C768 0.950 . S
H740 C770 0.950 . S
H741 C771 0.950 . S
C742 H724 0.951 . S
C742 C743 1.366 . S
C742 C744 1.388 . S
C743 C742 1.366 . S
C743 C747 1.385 . S
C744 H725 0.951 . S
C744 C742 1.388 . S
C744 C745 1.366 . S
C745 C744 1.366 . S
C745 C746 1.414 . S
C745 C748 1.499 . S
C746 H726 0.950 . S
C746 C745 1.414 . S
C746 C747 1.374 . S
C747 H727 0.950 . S
C747 C743 1.385 . S
C747 C746 1.374 . S
C748 C745 1.499 . S
C748 C749 1.373 . S
C748 C750 1.389 . S
C749 H728 0.950 . S
C749 C748 1.373 . S
C749 C765 1.377 . S
C750 C748 1.389 . S
C750 C751 1.524 . S
C750 C764 1.377 . S
C751 C750 1.524 . S
C751 C752 1.397 . S
C751 C756 1.363 . S
C752 H729 0.950 . S
C752 C751 1.397 . S
C752 C753 1.334 . S
C753 H730 0.950 . S
C753 C752 1.334 . S
C753 C754 1.287 . S
C754 C753 1.287 . S
C754 C755 1.524 . S
C754 H773 0.913 . S
C755 H731 0.950 . S
C755 C754 1.524 . S
C755 C756 1.415 . S
C756 H732 0.950 . S
C756 C751 1.363 . S
C756 C755 1.415 . S
C757 H733 0.951 . S
C757 C758 1.366 . S
C757 C759 1.388 . S
C758 C757 1.366 . S
C758 C762 1.385 . S
C759 H734 0.951 . S
C759 C757 1.388 . S
C759 C760 1.366 . S
C760 C759 1.366 . S
C760 C761 1.414 . S
C760 C763 1.499 . S
C761 H735 0.950 . S
C761 C760 1.414 . S
C761 C762 1.374 . S
C762 H736 0.950 . S
C762 C758 1.385 . S
C762 C761 1.374 . S
C763 C760 1.499 . S
C763 C764 1.373 . S
C763 C765 1.389 . S
C764 H737 0.950 . S
C764 C750 1.377 . S
C764 C763 1.373 . S
C765 C749 1.377 . S
C765 C763 1.389 . S
C765 C766 1.524 . S
C766 C765 1.524 . S
C766 C767 1.397 . S
C766 C771 1.363 . S
C767 H738 0.950 . S
C767 C766 1.397 . S
C767 C768 1.334 . S
C768 H739 0.950 . S
C768 C767 1.334 . S
C768 C769 1.287 . S
C769 C768 1.287 . S
C769 C770 1.524 . S
C769 H772 0.999 . S
C770 H740 0.950 . S
C770 C769 1.524 . S
C770 C771 1.415 . S
C771 H741 0.950 . S
C771 C766 1.363 . S
C771 C770 1.415 . S
H772 C769 0.999 . S
H773 C754 0.913 . S
H774 C792 0.951 . S
H775 C794 0.951 . S
H776 C796 0.950 . S
H777 C797 0.950 . S
H778 C799 0.950 . S
H779 C802 0.950 1_565 S
H780 C803 0.950 1_565 S
H781 C805 0.950 . S
H782 C806 0.950 . S
H783 C807 0.951 . S
H784 C809 0.951 . S
H785 C811 0.950 . S
H786 C812 0.950 . S
H787 C814 0.950 . S
H788 C817 0.950 . S
H789 C818 0.950 . S
H790 C820 0.950 . S
H791 C821 0.950 . S
C792 H774 0.951 . S
C792 C793 1.366 . S
C792 C794 1.388 1_565 S
C793 C792 1.366 . S
C793 C797 1.385 . S
C794 H775 0.951 . S
C794 C792 1.388 1_545 S
C794 C795 1.370 . S
C795 C794 1.370 . S
C795 C796 1.394 1_545 S
C795 C798 1.513 . S
C796 H776 0.950 . S
C796 C795 1.394 1_565 S
C796 C797 1.374 . S
C797 H777 0.950 . S
C797 C793 1.385 . S
C797 C796 1.374 . S
C798 C795 1.513 . S
C798 C799 1.373 . S
C798 C800 1.389 . S
C799 H778 0.950 . S
C799 C798 1.373 . S
C799 C815 1.377 . S
C800 C798 1.389 . S
C800 C801 1.524 . S
C800 C814 1.377 . S
C801 C800 1.524 . S
C801 C802 1.397 . S
C801 C806 1.363 . S
C802 H779 0.950 1_545 S
C802 C801 1.397 . S
C802 C803 1.334 . S
C803 H780 0.950 1_545 S
C803 C802 1.334 . S
C803 C804 1.287 . S
C804 C803 1.287 . S
C804 C805 1.524 . S
C804 H823 0.913 . S
C805 H781 0.950 . S
C805 C804 1.524 . S
C805 C806 1.415 . S
C806 H782 0.950 . S
C806 C801 1.363 . S
C806 C805 1.415 . S
C807 H783 0.951 . S
C807 C808 1.366 . S
C807 C809 1.388 . S
C808 C807 1.366 . S
C808 C812 1.385 . S
C809 H784 0.951 . S
C809 C807 1.388 . S
C809 C810 1.366 . S
C810 C809 1.366 . S
C810 C811 1.414 . S
C810 C813 1.499 . S
C811 H785 0.950 . S
C811 C810 1.414 . S
C811 C812 1.374 . S
C812 H786 0.950 . S
C812 C808 1.385 . S
C812 C811 1.374 . S
C813 C810 1.499 . S
C813 C814 1.373 . S
C813 C815 1.389 . S
C814 H787 0.950 . S
C814 C800 1.377 . S
C814 C813 1.373 . S
C815 C799 1.377 . S
C815 C813 1.389 . S
C815 C816 1.524 . S
C816 C815 1.524 . S
C816 C817 1.397 . S
C816 C821 1.363 . S
C817 H788 0.950 . S
C817 C816 1.397 . S
C817 C818 1.334 . S
C818 H789 0.950 . S
C818 C817 1.334 . S
C818 C819 1.287 . S
C819 C818 1.287 . S
C819 C820 1.524 . S
C819 H822 0.999 . S
C820 H790 0.950 . S
C820 C819 1.524 . S
C820 C821 1.415 . S
C821 H791 0.950 . S
C821 C816 1.363 . S
C821 C820 1.415 . S
H822 C819 0.999 . S
H823 C804 0.913 . S
H824 C842 0.951 . S
H825 C844 0.951 . S
H826 C846 0.950 . S
H827 C847 0.950 . S
H828 C849 0.950 1_545 S
H829 C852 0.950 . S
H830 C853 0.950 . S
H831 C855 0.950 . S
H832 C856 0.950 . S
H833 C857 0.951 . S
H834 C859 0.951 . S
H835 C861 0.950 . S
H836 C862 0.950 . S
H837 C864 0.950 . S
H838 C867 0.950 . S
H839 C868 0.950 . S
H840 C870 0.950 . S
H841 C871 0.950 1_545 S
C842 H824 0.951 . S
C842 C843 1.366 . S
C842 C844 1.388 1_545 S
C843 C842 1.366 . S
C843 C847 1.385 . S
C844 H825 0.951 . S
C844 C842 1.388 1_565 S
C844 C845 1.358 1_565 S
C845 C844 1.358 1_545 S
C845 C846 1.460 . S
C845 C848 1.464 1_545 S
C846 H826 0.950 . S
C846 C845 1.460 . S
C846 C847 1.374 . S
C847 H827 0.950 . S
C847 C843 1.385 . S
C847 C846 1.374 . S
C848 C845 1.464 1_565 S
C848 C849 1.373 . S
C848 C850 1.389 . S
C849 H828 0.950 1_565 S
C849 C848 1.373 . S
C849 C865 1.377 . S
C850 C848 1.389 . S
C850 C851 1.524 . S
C850 C864 1.377 . S
C851 C850 1.524 . S
C851 C852 1.397 . S
C851 C856 1.363 . S
C852 H829 0.950 . S
C852 C851 1.397 . S
C852 C853 1.334 . S
C853 H830 0.950 . S
C853 C852 1.334 . S
C853 C854 1.287 . S
C854 C853 1.287 . S
C854 C855 1.524 . S
C854 H873 0.913 . S
C855 H831 0.950 . S
C855 C854 1.524 . S
C855 C856 1.415 . S
C856 H832 0.950 . S
C856 C851 1.363 . S
C856 C855 1.415 . S
C857 H833 0.951 . S
C857 C858 1.366 . S
C857 C859 1.388 . S
C858 C857 1.366 . S
C858 C862 1.385 . S
C859 H834 0.951 . S
C859 C857 1.388 . S
C859 C860 1.366 . S
C860 C859 1.366 . S
C860 C861 1.414 . S
C860 C863 1.499 . S
C861 H835 0.950 . S
C861 C860 1.414 . S
C861 C862 1.374 . S
C862 H836 0.950 . S
C862 C858 1.385 . S
C862 C861 1.374 . S
C863 C860 1.499 . S
C863 C864 1.373 . S
C863 C865 1.389 . S
C864 H837 0.950 . S
C864 C850 1.377 . S
C864 C863 1.373 . S
C865 C849 1.377 . S
C865 C863 1.389 . S
C865 C866 1.524 . S
C866 C865 1.524 . S
C866 C867 1.397 . S
C866 C871 1.363 . S
C867 H838 0.950 . S
C867 C866 1.397 . S
C867 C868 1.334 1_655 S
C868 H839 0.950 . S
C868 C867 1.334 1_455 S
C868 C869 1.287 . S
C869 C868 1.287 . S
C869 C870 1.524 1_565 S
C869 H872 0.999 . S
C870 H840 0.950 . S
C870 C869 1.524 1_545 S
C870 C871 1.415 1_445 S
C871 H841 0.950 1_565 S
C871 C866 1.363 . S
C871 C870 1.415 1_665 S
H872 C869 0.999 . S
H873 C854 0.913 . S
H874 C892 0.951 . S
H875 C894 0.951 . S
H876 C896 0.950 . S
H877 C897 0.950 . S
H878 C899 0.950 . S
H879 C902 0.950 . S
H880 C903 0.950 . S
H881 C905 0.950 . S
H882 C906 0.950 . S
H883 C907 0.951 . S
H884 C909 0.951 . S
H885 C911 0.950 . S
H886 C912 0.950 . S
H887 C914 0.950 . S
H888 C917 0.950 . S
H889 C918 0.950 . S
H890 C920 0.950 . S
H891 C921 0.950 . S
C892 H874 0.951 . S
C892 C893 1.366 . S
C892 C894 1.388 . S
C893 C892 1.366 . S
C893 C897 1.385 . S
C894 H875 0.951 . S
C894 C892 1.388 . S
C894 C895 1.366 . S
C895 C894 1.366 . S
C895 C896 1.414 . S
C895 C898 1.499 . S
C896 H876 0.950 . S
C896 C895 1.414 . S
C896 C897 1.374 . S
C897 H877 0.950 . S
C897 C893 1.385 . S
C897 C896 1.374 . S
C898 C895 1.499 . S
C898 C899 1.373 . S
C898 C900 1.389 . S
C899 H878 0.950 . S
C899 C898 1.373 . S
C899 C915 1.377 . S
C900 C898 1.389 . S
C900 C901 1.524 . S
C900 C914 1.377 . S
C901 C900 1.524 . S
C901 C902 1.397 . S
C901 C906 1.363 . S
C902 H879 0.950 . S
C902 C901 1.397 . S
C902 C903 1.334 . S
C903 H880 0.950 . S
C903 C902 1.334 . S
C903 C904 1.287 . S
C904 C903 1.287 . S
C904 C905 1.524 . S
C904 H923 0.913 . S
C905 H881 0.950 . S
C905 C904 1.524 . S
C905 C906 1.415 . S
C906 H882 0.950 . S
C906 C901 1.363 . S
C906 C905 1.415 . S
C907 H883 0.951 . S
C907 C908 1.366 . S
C907 C909 1.388 . S
C908 C907 1.366 . S
C908 C912 1.385 . S
C909 H884 0.951 . S
C909 C907 1.388 . S
C909 C910 1.366 . S
C910 C909 1.366 . S
C910 C911 1.414 . S
C910 C913 1.499 . S
C911 H885 0.950 . S
C911 C910 1.414 . S
C911 C912 1.374 . S
C912 H886 0.950 . S
C912 C908 1.385 . S
C912 C911 1.374 . S
C913 C910 1.499 . S
C913 C914 1.373 . S
C913 C915 1.389 . S
C914 H887 0.950 . S
C914 C900 1.377 . S
C914 C913 1.373 . S
C915 C899 1.377 . S
C915 C913 1.389 . S
C915 C916 1.524 . S
C916 C915 1.524 . S
C916 C917 1.397 . S
C916 C921 1.363 . S
C917 H888 0.950 . S
C917 C916 1.397 . S
C917 C918 1.334 . S
C918 H889 0.950 . S
C918 C917 1.334 . S
C918 C919 1.287 . S
C919 C918 1.287 . S
C919 C920 1.524 . S
C919 H922 0.999 . S
C920 H890 0.950 . S
C920 C919 1.524 . S
C920 C921 1.415 . S
C921 H891 0.950 . S
C921 C916 1.363 . S
C921 C920 1.415 . S
H922 C919 0.999 . S
H923 C904 0.913 . S
H924 C942 0.951 . S
H925 C944 0.951 . S
H926 C946 0.950 . S
H927 C947 0.950 . S
H928 C949 0.950 . S
H929 C952 0.950 . S
H930 C953 0.950 . S
H931 C955 0.950 . S
H932 C956 0.950 . S
H933 C957 0.951 . S
H934 C959 0.951 . S
H935 C961 0.950 . S
H936 C962 0.950 . S
H937 C964 0.950 . S
H938 C967 0.950 . S
H939 C968 0.950 . S
H940 C970 0.950 . S
H941 C971 0.950 . S
C942 H924 0.951 . S
C942 C943 1.366 . S
C942 C944 1.388 . S
C943 C942 1.366 . S
C943 C947 1.385 . S
C944 H925 0.951 . S
C944 C942 1.388 . S
C944 C945 1.366 . S
C945 C944 1.366 . S
C945 C946 1.414 . S
C945 C948 1.499 . S
C946 H926 0.950 . S
C946 C945 1.414 . S
C946 C947 1.374 . S
C947 H927 0.950 . S
C947 C943 1.385 . S
C947 C946 1.374 . S
C948 C945 1.499 . S
C948 C949 1.373 . S
C948 C950 1.389 . S
C949 H928 0.950 . S
C949 C948 1.373 . S
C949 C965 1.377 . S
C950 C948 1.389 . S
C950 C951 1.524 . S
C950 C964 1.377 . S
C951 C950 1.524 . S
C951 C952 1.397 . S
C951 C956 1.363 . S
C952 H929 0.950 . S
C952 C951 1.397 . S
C952 C953 1.334 . S
C953 H930 0.950 . S
C953 C952 1.334 . S
C953 C954 1.287 . S
C954 C953 1.287 . S
C954 C955 1.524 . S
C954 H973 0.913 . S
C955 H931 0.950 . S
C955 C954 1.524 . S
C955 C956 1.415 . S
C956 H932 0.950 . S
C956 C951 1.363 . S
C956 C955 1.415 . S
C957 H933 0.951 . S
C957 C958 1.366 . S
C957 C959 1.388 . S
C958 C957 1.366 . S
C958 C962 1.385 . S
C959 H934 0.951 . S
C959 C957 1.388 . S
C959 C960 1.366 . S
C960 C959 1.366 . S
C960 C961 1.414 . S
C960 C963 1.499 . S
C961 H935 0.950 . S
C961 C960 1.414 . S
C961 C962 1.374 . S
C962 H936 0.950 . S
C962 C958 1.385 . S
C962 C961 1.374 . S
C963 C960 1.499 . S
C963 C964 1.373 . S
C963 C965 1.389 . S
C964 H937 0.950 . S
C964 C950 1.377 . S
C964 C963 1.373 . S
C965 C949 1.377 . S
C965 C963 1.389 . S
C965 C966 1.524 . S
C966 C965 1.524 . S
C966 C967 1.397 . S
C966 C971 1.363 . S
C967 H938 0.950 . S
C967 C966 1.397 . S
C967 C968 1.334 . S
C968 H939 0.950 . S
C968 C967 1.334 . S
C968 C969 1.287 . S
C969 C968 1.287 . S
C969 C970 1.524 . S
C969 H972 0.999 . S
C970 H940 0.950 . S
C970 C969 1.524 . S
C970 C971 1.415 . S
C971 H941 0.950 . S
C971 C966 1.363 . S
C971 C970 1.415 . S
H972 C969 0.999 . S
H973 C954 0.913 . S
H974 C992 0.951 . S
H975 C994 0.951 . S
H976 C996 0.950 . S
H977 C997 0.950 . S
H978 C999 0.950 . S
H979 C1002 0.950 . S
H980 C1003 0.950 . S
H981 C1005 0.950 1_655 S
H982 C1006 0.950 1_545 S
H983 C1007 0.951 . S
H984 C1009 0.951 . S
H985 C1011 0.950 . S
H986 C1012 0.950 . S
H987 C1014 0.950 . S
H988 C1017 0.950 . S
H989 C1018 0.950 . S
H990 C1020 0.950 . S
H991 C1021 0.950 . S
C992 H974 0.951 . S
C992 C993 1.366 . S
C992 C994 1.388 . S
C993 C992 1.366 . S
C993 C997 1.385 . S
C994 H975 0.951 . S
C994 C992 1.388 . S
C994 C995 1.366 1_545 S
C995 C994 1.366 1_565 S
C995 C996 1.414 . S
C995 C998 1.499 . S
C996 H976 0.950 . S
C996 C995 1.414 . S
C996 C997 1.374 1_565 S
C997 H977 0.950 . S
C997 C993 1.385 . S
C997 C996 1.374 1_545 S
C998 C995 1.499 . S
C998 C999 1.373 . S
C998 C1000 1.389 . S
C999 H978 0.950 . S
C999 C998 1.373 . S
C999 C1015 1.377 . S
C1000 C998 1.389 . S
C1000 C1001 1.524 . S
C1000 C1014 1.377 . S
C1001 C1000 1.524 . S
C1001 C1002 1.397 . S
C1001 C1006 1.360 . S
C1002 H979 0.950 . S
C1002 C1001 1.397 . S
C1002 C1003 1.334 . S
C1003 H980 0.950 . S
C1003 C1002 1.334 . S
C1003 C1004 1.287 1_565 S
C1004 C1003 1.287 1_545 S
C1004 C1005 1.524 . S
C1004 H1023 0.913 . S
C1005 H981 0.950 1_455 S
C1005 C1004 1.524 . S
C1005 C1006 1.418 1_545 S
C1006 H982 0.950 1_565 S
C1006 C1001 1.360 . S
C1006 C1005 1.418 1_565 S
C1007 H983 0.951 . S
C1007 C1008 1.366 . S
C1007 C1009 1.388 . S
C1008 C1007 1.366 . S
C1008 C1012 1.385 . S
C1009 H984 0.951 . S
C1009 C1007 1.388 . S
C1009 C1010 1.366 . S
C1010 C1009 1.366 . S
C1010 C1011 1.414 . S
C1010 C1013 1.499 . S
C1011 H985 0.950 . S
C1011 C1010 1.414 . S
C1011 C1012 1.374 . S
C1012 H986 0.950 . S
C1012 C1008 1.385 . S
C1012 C1011 1.374 . S
C1013 C1010 1.499 . S
C1013 C1014 1.373 . S
C1013 C1015 1.389 . S
C1014 H987 0.950 . S
C1014 C1000 1.377 . S
C1014 C1013 1.373 . S
C1015 C999 1.377 . S
C1015 C1013 1.389 . S
C1015 C1016 1.524 . S
C1016 C1015 1.524 . S
C1016 C1017 1.397 . S
C1016 C1021 1.363 . S
C1017 H988 0.950 . S
C1017 C1016 1.397 . S
C1017 C1018 1.334 . S
C1018 H989 0.950 . S
C1018 C1017 1.334 . S
C1018 C1019 1.287 . S
C1019 C1018 1.287 . S
C1019 C1020 1.524 . S
C1019 H1022 0.999 . S
C1020 H990 0.950 . S
C1020 C1019 1.524 . S
C1020 C1021 1.415 . S
C1021 H991 0.950 . S
C1021 C1016 1.363 . S
C1021 C1020 1.415 . S
H1022 C1019 0.999 . S
H1023 C1004 0.913 . S
H1024 C1042 0.951 . S
H1025 C1044 0.951 . S
H1026 C1046 0.950 . S
H1027 C1047 0.950 1_556 S
H1028 C1049 0.950 . S
H1029 C1052 0.950 . S
H1030 C1053 0.950 . S
H1031 C1055 0.950 . S
H1032 C1056 0.950 . S
H1033 C1057 0.951 . S
H1034 C1059 0.951 . S
H1035 C1061 0.950 . S
H1036 C1062 0.950 . S
H1037 C1064 0.950 . S
H1038 C1067 0.950 . S
H1039 C1068 0.950 . S
H1040 C1070 0.950 . S
H1041 C1071 0.950 . S
C1042 H1024 0.951 . S
C1042 C1043 1.366 . S
C1042 C1044 1.388 . S
C1043 C1042 1.366 . S
C1043 C1047 1.385 . S
C1044 H1025 0.951 . S
C1044 C1042 1.388 . S
C1044 C1045 1.366 . S
C1045 C1044 1.366 . S
C1045 C1046 1.414 . S
C1045 C1048 1.499 . S
C1046 H1026 0.950 . S
C1046 C1045 1.414 . S
C1046 C1047 1.374 . S
C1047 H1027 0.950 1_554 S
C1047 C1043 1.385 . S
C1047 C1046 1.374 . S
C1048 C1045 1.499 . S
C1048 C1049 1.373 . S
C1048 C1050 1.389 . S
C1049 H1028 0.950 . S
C1049 C1048 1.373 . S
C1049 C1065 1.377 . S
C1050 C1048 1.389 . S
C1050 C1051 1.524 . S
C1050 C1064 1.377 . S
C1051 C1050 1.524 . S
C1051 C1052 1.397 . S
C1051 C1056 1.363 . S
C1052 H1029 0.950 . S
C1052 C1051 1.397 . S
C1052 C1053 1.334 . S
C1053 H1030 0.950 . S
C1053 C1052 1.334 . S
C1053 C1054 1.287 . S
C1054 C1053 1.287 . S
C1054 C1055 1.524 . S
C1054 H1073 0.913 . S
C1055 H1031 0.950 . S
C1055 C1054 1.524 . S
C1055 C1056 1.415 . S
C1056 H1032 0.950 . S
C1056 C1051 1.363 . S
C1056 C1055 1.415 . S
C1057 H1033 0.951 . S
C1057 C1058 1.366 . S
C1057 C1059 1.388 . S
C1058 C1057 1.366 . S
C1058 C1062 1.385 . S
C1059 H1034 0.951 . S
C1059 C1057 1.388 . S
C1059 C1060 1.366 . S
C1060 C1059 1.366 . S
C1060 C1061 1.414 . S
C1060 C1063 1.499 . S
C1061 H1035 0.950 . S
C1061 C1060 1.414 . S
C1061 C1062 1.374 . S
C1062 H1036 0.950 . S
C1062 C1058 1.385 . S
C1062 C1061 1.374 . S
C1063 C1060 1.499 . S
C1063 C1064 1.373 . S
C1063 C1065 1.389 . S
C1064 H1037 0.950 . S
C1064 C1050 1.377 . S
C1064 C1063 1.373 . S
C1065 C1049 1.377 . S
C1065 C1063 1.389 . S
C1065 C1066 1.524 . S
C1066 C1065 1.524 . S
C1066 C1067 1.397 . S
C1066 C1071 1.363 . S
C1067 H1038 0.950 . S
C1067 C1066 1.397 . S
C1067 C1068 1.334 . S
C1068 H1039 0.950 . S
C1068 C1067 1.334 . S
C1068 C1069 1.287 . S
C1069 C1068 1.287 . S
C1069 C1070 1.524 . S
C1069 H1072 0.999 . S
C1070 H1040 0.950 . S
C1070 C1069 1.524 . S
C1070 C1071 1.415 . S
C1071 H1041 0.950 . S
C1071 C1066 1.363 . S
C1071 C1070 1.415 . S
H1072 C1069 0.999 . S
H1073 C1054 0.913 . S
H1074 C1092 0.951 . S
H1075 C1094 0.951 . S
H1076 C1096 0.950 . S
H1077 C1097 0.950 . S
H1078 C1099 0.950 . S
H1079 C1102 0.950 . S
H1080 C1103 0.950 . S
H1081 C1105 0.950 . S
H1082 C1106 0.950 . S
H1083 C1107 0.951 . S
H1084 C1109 0.951 . S
H1085 C1111 0.950 . S
H1086 C1112 0.950 . S
H1087 C1114 0.950 . S
H1088 C1117 0.950 . S
H1089 C1118 0.950 . S
H1090 C1120 0.950 . S
H1091 C1121 0.950 . S
C1092 H1074 0.951 . S
C1092 C1093 1.366 . S
C1092 C1094 1.388 . S
C1093 C1092 1.366 . S
C1093 C1097 1.385 . S
C1094 H1075 0.951 . S
C1094 C1092 1.388 . S
C1094 C1095 1.366 . S
C1095 C1094 1.366 . S
C1095 C1096 1.414 . S
C1095 C1098 1.499 . S
C1096 H1076 0.950 . S
C1096 C1095 1.414 . S
C1096 C1097 1.374 . S
C1097 H1077 0.950 . S
C1097 C1093 1.385 . S
C1097 C1096 1.374 . S
C1098 C1095 1.499 . S
C1098 C1099 1.373 . S
C1098 C1100 1.389 . S
C1099 H1078 0.950 . S
C1099 C1098 1.373 . S
C1099 C1115 1.377 . S
C1100 C1098 1.389 . S
C1100 C1101 1.524 . S
C1100 C1114 1.377 . S
C1101 C1100 1.524 . S
C1101 C1102 1.397 . S
C1101 C1106 1.363 . S
C1102 H1079 0.950 . S
C1102 C1101 1.397 . S
C1102 C1103 1.334 . S
C1103 H1080 0.950 . S
C1103 C1102 1.334 . S
C1103 C1104 1.287 . S
C1104 C1103 1.287 . S
C1104 C1105 1.524 . S
C1104 H1123 0.913 . S
C1105 H1081 0.950 . S
C1105 C1104 1.524 . S
C1105 C1106 1.415 . S
C1106 H1082 0.950 . S
C1106 C1101 1.363 . S
C1106 C1105 1.415 . S
C1107 H1083 0.951 . S
C1107 C1108 1.366 . S
C1107 C1109 1.388 . S
C1108 C1107 1.366 . S
C1108 C1112 1.385 . S
C1109 H1084 0.951 . S
C1109 C1107 1.388 . S
C1109 C1110 1.366 . S
C1110 C1109 1.366 . S
C1110 C1111 1.414 . S
C1110 C1113 1.499 . S
C1111 H1085 0.950 . S
C1111 C1110 1.414 . S
C1111 C1112 1.374 . S
C1112 H1086 0.950 . S
C1112 C1108 1.385 . S
C1112 C1111 1.374 . S
C1113 C1110 1.499 . S
C1113 C1114 1.373 . S
C1113 C1115 1.389 . S
C1114 H1087 0.950 . S
C1114 C1100 1.377 . S
C1114 C1113 1.373 . S
C1115 C1099 1.377 . S
C1115 C1113 1.389 . S
C1115 C1116 1.524 . S
C1116 C1115 1.524 . S
C1116 C1117 1.397 . S
C1116 C1121 1.363 . S
C1117 H1088 0.950 . S
C1117 C1116 1.397 . S
C1117 C1118 1.334 . S
C1118 H1089 0.950 . S
C1118 C1117 1.334 . S
C1118 C1119 1.287 . S
C1119 C1118 1.287 . S
C1119 C1120 1.524 . S
C1119 H1122 0.999 . S
C1120 H1090 0.950 . S
C1120 C1119 1.524 . S
C1120 C1121 1.415 . S
C1121 H1091 0.950 . S
C1121 C1116 1.363 . S
C1121 C1120 1.415 . S
H1122 C1119 0.999 . S
H1123 C1104 0.913 . S
H1124 C1142 0.951 . S
H1125 C1144 0.951 . S
H1126 C1146 0.950 . S
H1127 C1147 0.950 1_554 S
H1128 C1149 0.950 . S
H1129 C1152 0.950 . S
H1130 C1153 0.950 . S
H1131 C1155 0.950 . S
H1132 C1156 0.950 . S
H1133 C1157 0.951 . S
H1134 C1159 0.951 . S
H1135 C1161 0.950 . S
H1136 C1162 0.950 . S
H1137 C1164 0.950 . S
H1138 C1167 0.950 . S
H1139 C1168 0.950 . S
H1140 C1170 0.950 . S
H1141 C1171 0.950 . S
C1142 H1124 0.951 . S
C1142 C1143 1.366 1_556 S
C1142 C1144 1.388 . S
C1143 C1142 1.366 1_554 S
C1143 C1147 1.385 1_554 S
C1144 H1125 0.951 . S
C1144 C1142 1.388 . S
C1144 C1145 1.366 . S
C1145 C1144 1.366 . S
C1145 C1146 1.414 . S
C1145 C1148 1.499 . S
C1146 H1126 0.950 . S
C1146 C1145 1.414 . S
C1146 C1147 1.374 . S
C1147 H1127 0.950 1_556 S
C1147 C1143 1.385 1_556 S
C1147 C1146 1.374 . S
C1148 C1145 1.499 . S
C1148 C1149 1.373 . S
C1148 C1150 1.389 . S
C1149 H1128 0.950 . S
C1149 C1148 1.373 . S
C1149 C1165 1.377 . S
C1150 C1148 1.389 . S
C1150 C1151 1.524 . S
C1150 C1164 1.377 . S
C1151 C1150 1.524 . S
C1151 C1152 1.397 . S
C1151 C1156 1.363 . S
C1152 H1129 0.950 . S
C1152 C1151 1.397 . S
C1152 C1153 1.334 . S
C1153 H1130 0.950 . S
C1153 C1152 1.334 . S
C1153 C1154 1.287 . S
C1154 C1153 1.287 . S
C1154 C1155 1.524 . S
C1154 H1173 0.913 . S
C1155 H1131 0.950 . S
C1155 C1154 1.524 . S
C1155 C1156 1.415 . S
C1156 H1132 0.950 . S
C1156 C1151 1.363 . S
C1156 C1155 1.415 . S
C1157 H1133 0.951 . S
C1157 C1158 1.366 . S
C1157 C1159 1.388 . S
C1158 C1157 1.366 . S
C1158 C1162 1.385 . S
C1159 H1134 0.951 . S
C1159 C1157 1.388 . S
C1159 C1160 1.366 . S
C1160 C1159 1.366 . S
C1160 C1161 1.414 . S
C1160 C1163 1.499 . S
C1161 H1135 0.950 . S
C1161 C1160 1.414 . S
C1161 C1162 1.374 . S
C1162 H1136 0.950 . S
C1162 C1158 1.385 . S
C1162 C1161 1.374 . S
C1163 C1160 1.499 . S
C1163 C1164 1.373 . S
C1163 C1165 1.389 . S
C1164 H1137 0.950 . S
C1164 C1150 1.377 . S
C1164 C1163 1.373 . S
C1165 C1149 1.377 . S
C1165 C1163 1.389 . S
C1165 C1166 1.524 . S
C1166 C1165 1.524 . S
C1166 C1167 1.397 . S
C1166 C1171 1.363 . S
C1167 H1138 0.950 . S
C1167 C1166 1.397 . S
C1167 C1168 1.334 . S
C1168 H1139 0.950 . S
C1168 C1167 1.334 . S
C1168 C1169 1.287 . S
C1169 C1168 1.287 . S
C1169 C1170 1.524 . S
C1169 H1172 0.999 . S
C1170 H1140 0.950 . S
C1170 C1169 1.524 . S
C1170 C1171 1.415 . S
C1171 H1141 0.950 . S
C1171 C1166 1.363 . S
C1171 C1170 1.415 . S
H1172 C1169 0.999 . S
H1173 C1154 0.913 . S
H1174 C1192 0.951 . S
H1175 C1194 0.951 . S
H1176 C1196 0.950 . S
H1177 C1197 0.950 . S
H1178 C1199 0.950 . S
H1179 C1202 0.950 . S
H1180 C1203 0.950 . S
H1181 C1205 0.950 1_455 S
H1182 C1206 0.950 . S
H1183 C1207 0.951 . S
H1184 C1209 0.951 . S
H1185 C1211 0.950 . S
H1186 C1212 0.950 . S
H1187 C1214 0.950 . S
H1188 C1217 0.950 . S
H1189 C1218 0.950 . S
H1190 C1220 0.950 . S
H1191 C1221 0.950 . S
C1192 H1174 0.951 . S
C1192 C1193 1.366 . S
C1192 C1194 1.388 . S
C1193 C1192 1.366 . S
C1193 C1197 1.385 . S
C1194 H1175 0.951 . S
C1194 C1192 1.388 . S
C1194 C1195 1.366 . S
C1195 C1194 1.366 . S
C1195 C1196 1.414 . S
C1195 C1198 1.499 . S
C1196 H1176 0.950 . S
C1196 C1195 1.414 . S
C1196 C1197 1.374 . S
C1197 H1177 0.950 . S
C1197 C1193 1.385 . S
C1197 C1196 1.374 . S
C1198 C1195 1.499 . S
C1198 C1199 1.373 . S
C1198 C1200 1.389 . S
C1199 H1178 0.950 . S
C1199 C1198 1.373 . S
C1199 C1215 1.377 . S
C1200 C1198 1.389 . S
C1200 C1201 1.524 . S
C1200 C1214 1.377 . S
C1201 C1200 1.524 . S
C1201 C1202 1.397 . S
C1201 C1206 1.363 . S
C1202 H1179 0.950 . S
C1202 C1201 1.397 . S
C1202 C1203 1.334 . S
C1203 H1180 0.950 . S
C1203 C1202 1.334 . S
C1203 C1204 1.287 . S
C1204 C1203 1.287 . S
C1204 C1205 1.524 . S
C1204 H1223 0.913 . S
C1205 H1181 0.950 1_655 S
C1205 C1204 1.524 . S
C1205 C1206 1.415 . S
C1206 H1182 0.950 . S
C1206 C1201 1.363 . S
C1206 C1205 1.415 . S
C1207 H1183 0.951 . S
C1207 C1208 1.366 . S
C1207 C1209 1.388 . S
C1208 C1207 1.366 . S
C1208 C1212 1.385 . S
C1209 H1184 0.951 . S
C1209 C1207 1.388 . S
C1209 C1210 1.366 . S
C1210 C1209 1.366 . S
C1210 C1211 1.414 . S
C1210 C1213 1.499 . S
C1211 H1185 0.950 . S
C1211 C1210 1.414 . S
C1211 C1212 1.374 . S
C1212 H1186 0.950 . S
C1212 C1208 1.385 . S
C1212 C1211 1.374 . S
C1213 C1210 1.499 . S
C1213 C1214 1.373 . S
C1213 C1215 1.389 . S
C1214 H1187 0.950 . S
C1214 C1200 1.377 . S
C1214 C1213 1.373 . S
C1215 C1199 1.377 . S
C1215 C1213 1.389 . S
C1215 C1216 1.524 . S
C1216 C1215 1.524 . S
C1216 C1217 1.397 . S
C1216 C1221 1.363 . S
C1217 H1188 0.950 . S
C1217 C1216 1.397 . S
C1217 C1218 1.334 . S
C1218 H1189 0.950 . S
C1218 C1217 1.334 . S
C1218 C1219 1.287 . S
C1219 C1218 1.287 . S
C1219 C1220 1.524 . S
C1219 H1222 0.999 . S
C1220 H1190 0.950 . S
C1220 C1219 1.524 . S
C1220 C1221 1.415 . S
C1221 H1191 0.950 . S
C1221 C1216 1.363 . S
C1221 C1220 1.415 . S
H1222 C1219 0.999 . S
H1223 C1204 0.913 . S
H1224 C1242 0.951 1_554 S
H1225 C1244 0.951 . S
H1226 C1246 0.950 . S
H1227 C1247 0.950 . S
H1228 C1249 0.950 . S
H1229 C1252 0.950 . S
H1230 C1253 0.950 . S
H1231 C1255 0.950 . S
H1232 C1256 0.950 . S
H1233 C1257 0.951 . S
H1234 C1259 0.951 . S
H1235 C1261 0.950 . S
H1236 C1262 0.950 . S
H1237 C1264 0.950 . S
H1238 C1267 0.950 . S
H1239 C1268 0.950 . S
H1240 C1270 0.950 . S
H1241 C1271 0.950 . S
C1242 H1224 0.951 1_556 S
C1242 C1243 1.366 . S
C1242 C1244 1.388 . S
C1243 C1242 1.366 . S
C1243 C1247 1.385 . S
C1244 H1225 0.951 . S
C1244 C1242 1.388 . S
C1244 C1245 1.366 . S
C1245 C1244 1.366 . S
C1245 C1246 1.414 . S
C1245 C1248 1.499 . S
C1246 H1226 0.950 . S
C1246 C1245 1.414 . S
C1246 C1247 1.374 . S
C1247 H1227 0.950 . S
C1247 C1243 1.385 . S
C1247 C1246 1.374 . S
C1248 C1245 1.499 . S
C1248 C1249 1.373 . S
C1248 C1250 1.389 . S
C1249 H1228 0.950 . S
C1249 C1248 1.373 . S
C1249 C1265 1.377 . S
C1250 C1248 1.389 . S
C1250 C1251 1.524 . S
C1250 C1264 1.377 . S
C1251 C1250 1.524 . S
C1251 C1252 1.397 . S
C1251 C1256 1.363 . S
C1252 H1229 0.950 . S
C1252 C1251 1.397 . S
C1252 C1253 1.334 . S
C1253 H1230 0.950 . S
C1253 C1252 1.334 . S
C1253 C1254 1.287 . S
C1254 C1253 1.287 . S
C1254 C1255 1.524 . S
C1254 H1273 0.913 . S
C1255 H1231 0.950 . S
C1255 C1254 1.524 . S
C1255 C1256 1.415 . S
C1256 H1232 0.950 . S
C1256 C1251 1.363 . S
C1256 C1255 1.415 . S
C1257 H1233 0.951 . S
C1257 C1258 1.366 . S
C1257 C1259 1.388 . S
C1258 C1257 1.366 . S
C1258 C1262 1.385 . S
C1259 H1234 0.951 . S
C1259 C1257 1.388 . S
C1259 C1260 1.366 . S
C1260 C1259 1.366 . S
C1260 C1261 1.414 . S
C1260 C1263 1.499 . S
C1261 H1235 0.950 . S
C1261 C1260 1.414 . S
C1261 C1262 1.374 . S
C1262 H1236 0.950 . S
C1262 C1258 1.385 . S
C1262 C1261 1.374 . S
C1263 C1260 1.499 . S
C1263 C1264 1.373 . S
C1263 C1265 1.389 . S
C1264 H1237 0.950 . S
C1264 C1250 1.377 . S
C1264 C1263 1.373 . S
C1265 C1249 1.377 . S
C1265 C1263 1.389 . S
C1265 C1266 1.524 . S
C1266 C1265 1.524 . S
C1266 C1267 1.397 . S
C1266 C1271 1.363 . S
C1267 H1238 0.950 . S
C1267 C1266 1.397 . S
C1267 C1268 1.334 . S
C1268 H1239 0.950 . S
C1268 C1267 1.334 . S
C1268 C1269 1.287 . S
C1269 C1268 1.287 . S
C1269 C1270 1.524 . S
C1269 H1272 0.999 . S
C1270 H1240 0.950 . S
C1270 C1269 1.524 . S
C1270 C1271 1.415 . S
C1271 H1241 0.950 . S
C1271 C1266 1.363 . S
C1271 C1270 1.415 . S
H1272 C1269 0.999 . S
H1273 C1254 0.913 . S
H1274 C1292 0.951 . S
H1275 C1294 0.951 . S
H1276 C1296 0.950 . S
H1277 C1297 0.950 . S
H1278 C1299 0.950 . S
H1279 C1302 0.950 . S
H1280 C1303 0.950 . S
H1281 C1305 0.950 . S
H1282 C1306 0.950 . S
H1283 C1307 0.951 . S
H1284 C1309 0.951 . S
H1285 C1311 0.950 . S
H1286 C1312 0.950 . S
H1287 C1314 0.950 . S
H1288 C1317 0.950 . S
H1289 C1318 0.950 . S
H1290 C1320 0.950 . S
H1291 C1321 0.950 . S
C1292 H1274 0.951 . S
C1292 C1293 1.366 . S
C1292 C1294 1.388 . S
C1293 C1292 1.366 . S
C1293 C1297 1.385 . S
C1294 H1275 0.951 . S
C1294 C1292 1.388 . S
C1294 C1295 1.366 . S
C1295 C1294 1.366 . S
C1295 C1296 1.414 . S
C1295 C1298 1.499 . S
C1296 H1276 0.950 . S
C1296 C1295 1.414 . S
C1296 C1297 1.374 . S
C1297 H1277 0.950 . S
C1297 C1293 1.385 . S
C1297 C1296 1.374 . S
C1298 C1295 1.499 . S
C1298 C1299 1.373 . S
C1298 C1300 1.389 . S
C1299 H1278 0.950 . S
C1299 C1298 1.373 . S
C1299 C1315 1.377 . S
C1300 C1298 1.389 . S
C1300 C1301 1.524 . S
C1300 C1314 1.377 . S
C1301 C1300 1.524 . S
C1301 C1302 1.397 . S
C1301 C1306 1.363 . S
C1302 H1279 0.950 . S
C1302 C1301 1.397 . S
C1302 C1303 1.334 . S
C1303 H1280 0.950 . S
C1303 C1302 1.334 . S
C1303 C1304 1.287 . S
C1304 C1303 1.287 . S
C1304 C1305 1.524 . S
C1304 H1323 0.913 . S
C1305 H1281 0.950 . S
C1305 C1304 1.524 . S
C1305 C1306 1.415 . S
C1306 H1282 0.950 . S
C1306 C1301 1.363 . S
C1306 C1305 1.415 . S
C1307 H1283 0.951 . S
C1307 C1308 1.366 . S
C1307 C1309 1.388 . S
C1308 C1307 1.366 . S
C1308 C1312 1.385 . S
C1309 H1284 0.951 . S
C1309 C1307 1.388 . S
C1309 C1310 1.366 . S
C1310 C1309 1.366 . S
C1310 C1311 1.414 . S
C1310 C1313 1.499 . S
C1311 H1285 0.950 . S
C1311 C1310 1.414 . S
C1311 C1312 1.374 . S
C1312 H1286 0.950 . S
C1312 C1308 1.385 . S
C1312 C1311 1.374 . S
C1313 C1310 1.499 . S
C1313 C1314 1.373 . S
C1313 C1315 1.389 . S
C1314 H1287 0.950 . S
C1314 C1300 1.377 . S
C1314 C1313 1.373 . S
C1315 C1299 1.377 . S
C1315 C1313 1.389 . S
C1315 C1316 1.524 . S
C1316 C1315 1.524 . S
C1316 C1317 1.397 . S
C1316 C1321 1.363 . S
C1317 H1288 0.950 . S
C1317 C1316 1.397 . S
C1317 C1318 1.334 . S
C1318 H1289 0.950 . S
C1318 C1317 1.334 . S
C1318 C1319 1.287 . S
C1319 C1318 1.287 . S
C1319 C1320 1.524 . S
C1319 H1322 0.999 . S
C1320 H1290 0.950 . S
C1320 C1319 1.524 . S
C1320 C1321 1.415 . S
C1321 H1291 0.950 . S
C1321 C1316 1.363 . S
C1321 C1320 1.415 . S
H1322 C1319 0.999 . S
H1323 C1304 0.913 . S
H1324 C1342 0.951 . S
H1325 C1344 0.951 . S
H1326 C1346 0.950 . S
H1327 C1347 0.950 1_556 S
H1328 C1349 0.950 . S
H1329 C1352 0.950 . S
H1330 C1353 0.950 . S
H1331 C1355 0.950 . S
H1332 C1356 0.950 . S
H1333 C1357 0.951 . S
H1334 C1359 0.951 . S
H1335 C1361 0.950 . S
H1336 C1362 0.950 . S
H1337 C1364 0.950 . S
H1338 C1367 0.950 . S
H1339 C1368 0.950 . S
H1340 C1370 0.950 . S
H1341 C1371 0.950 . S
C1342 H1324 0.951 . S
C1342 C1343 1.366 1_554 S
C1342 C1344 1.388 . S
C1343 C1342 1.366 1_556 S
C1343 C1347 1.385 1_556 S
C1344 H1325 0.951 . S
C1344 C1342 1.388 . S
C1344 C1345 1.366 . S
C1345 C1344 1.366 . S
C1345 C1346 1.414 . S
C1345 C1348 1.499 . S
C1346 H1326 0.950 . S
C1346 C1345 1.414 . S
C1346 C1347 1.374 . S
C1347 H1327 0.950 1_554 S
C1347 C1343 1.385 1_554 S
C1347 C1346 1.374 . S
C1348 C1345 1.499 . S
C1348 C1349 1.373 . S
C1348 C1350 1.389 . S
C1349 H1328 0.950 . S
C1349 C1348 1.373 . S
C1349 C1365 1.377 . S
C1350 C1348 1.389 . S
C1350 C1351 1.524 . S
C1350 C1364 1.377 . S
C1351 C1350 1.524 . S
C1351 C1352 1.397 . S
C1351 C1356 1.363 . S
C1352 H1329 0.950 . S
C1352 C1351 1.397 . S
C1352 C1353 1.334 . S
C1353 H1330 0.950 . S
C1353 C1352 1.334 . S
C1353 C1354 1.287 . S
C1354 C1353 1.287 . S
C1354 C1355 1.524 . S
C1354 H1373 0.913 . S
C1355 H1331 0.950 . S
C1355 C1354 1.524 . S
C1355 C1356 1.415 . S
C1356 H1332 0.950 . S
C1356 C1351 1.363 . S
C1356 C1355 1.415 . S
C1357 H1333 0.951 . S
C1357 C1358 1.366 . S
C1357 C1359 1.388 . S
C1358 C1357 1.366 . S
C1358 C1362 1.385 . S
C1359 H1334 0.951 . S
C1359 C1357 1.388 . S
C1359 C1360 1.366 . S
C1360 C1359 1.366 . S
C1360 C1361 1.414 . S
C1360 C1363 1.499 . S
C1361 H1335 0.950 . S
C1361 C1360 1.414 . S
C1361 C1362 1.374 . S
C1362 H1336 0.950 . S
C1362 C1358 1.385 . S
C1362 C1361 1.374 . S
C1363 C1360 1.499 . S
C1363 C1364 1.373 . S
C1363 C1365 1.389 . S
C1364 H1337 0.950 . S
C1364 C1350 1.377 . S
C1364 C1363 1.373 . S
C1365 C1349 1.377 . S
C1365 C1363 1.389 . S
C1365 C1366 1.524 . S
C1366 C1365 1.524 . S
C1366 C1367 1.397 . S
C1366 C1371 1.363 . S
C1367 H1338 0.950 . S
C1367 C1366 1.397 . S
C1367 C1368 1.334 . S
C1368 H1339 0.950 . S
C1368 C1367 1.334 . S
C1368 C1369 1.287 . S
C1369 C1368 1.287 . S
C1369 C1370 1.524 . S
C1369 H1372 0.999 . S
C1370 H1340 0.950 . S
C1370 C1369 1.524 . S
C1370 C1371 1.415 . S
C1371 H1341 0.950 . S
C1371 C1366 1.363 . S
C1371 C1370 1.415 . S
H1372 C1369 0.999 . S
H1373 C1354 0.913 . S
H1374 C1392 0.951 . S
H1375 C1394 0.951 . S
H1376 C1396 0.950 . S
H1377 C1397 0.950 . S
H1378 C1399 0.950 . S
H1379 C1402 0.950 . S
H1380 C1403 0.950 . S
H1381 C1405 0.950 . S
H1382 C1406 0.950 . S
H1383 C1407 0.951 . S
H1384 C1409 0.951 . S
H1385 C1411 0.950 . S
H1386 C1412 0.950 . S
H1387 C1414 0.950 . S
H1388 C1417 0.950 . S
H1389 C1418 0.950 . S
H1390 C1420 0.950 . S
H1391 C1421 0.950 . S
C1392 H1374 0.951 . S
C1392 C1393 1.366 . S
C1392 C1394 1.388 . S
C1393 C1392 1.366 . S
C1393 C1397 1.385 . S
C1394 H1375 0.951 . S
C1394 C1392 1.388 . S
C1394 C1395 1.366 . S
C1395 C1394 1.366 . S
C1395 C1396 1.414 . S
C1395 C1398 1.499 . S
C1396 H1376 0.950 . S
C1396 C1395 1.414 . S
C1396 C1397 1.374 . S
C1397 H1377 0.950 . S
C1397 C1393 1.385 . S
C1397 C1396 1.374 . S
C1398 C1395 1.499 . S
C1398 C1399 1.373 . S
C1398 C1400 1.389 . S
C1399 H1378 0.950 . S
C1399 C1398 1.373 . S
C1399 C1415 1.377 . S
C1400 C1398 1.389 . S
C1400 C1401 1.524 . S
C1400 C1414 1.377 . S
C1401 C1400 1.524 . S
C1401 C1402 1.397 . S
C1401 C1406 1.363 . S
C1402 H1379 0.950 . S
C1402 C1401 1.397 . S
C1402 C1403 1.334 . S
C1403 H1380 0.950 . S
C1403 C1402 1.334 . S
C1403 C1404 1.287 . S
C1404 C1403 1.287 . S
C1404 C1405 1.524 . S
C1404 H1423 0.913 . S
C1405 H1381 0.950 . S
C1405 C1404 1.524 . S
C1405 C1406 1.415 . S
C1406 H1382 0.950 . S
C1406 C1401 1.363 . S
C1406 C1405 1.415 . S
C1407 H1383 0.951 . S
C1407 C1408 1.366 . S
C1407 C1409 1.388 . S
C1408 C1407 1.366 . S
C1408 C1412 1.385 . S
C1409 H1384 0.951 . S
C1409 C1407 1.388 . S
C1409 C1410 1.366 . S
C1410 C1409 1.366 . S
C1410 C1411 1.414 . S
C1410 C1413 1.499 . S
C1411 H1385 0.950 . S
C1411 C1410 1.414 . S
C1411 C1412 1.374 . S
C1412 H1386 0.950 . S
C1412 C1408 1.385 . S
C1412 C1411 1.374 . S
C1413 C1410 1.499 . S
C1413 C1414 1.373 . S
C1413 C1415 1.389 . S
C1414 H1387 0.950 . S
C1414 C1400 1.377 . S
C1414 C1413 1.373 . S
C1415 C1399 1.377 . S
C1415 C1413 1.389 . S
C1415 C1416 1.524 . S
C1416 C1415 1.524 . S
C1416 C1417 1.397 . S
C1416 C1421 1.363 . S
C1417 H1388 0.950 . S
C1417 C1416 1.397 . S
C1417 C1418 1.334 . S
C1418 H1389 0.950 . S
C1418 C1417 1.334 . S
C1418 C1419 1.287 . S
C1419 C1418 1.287 . S
C1419 C1420 1.524 . S
C1419 H1422 0.999 . S
C1420 H1390 0.950 . S
C1420 C1419 1.524 . S
C1420 C1421 1.415 . S
C1421 H1391 0.950 . S
C1421 C1416 1.363 . S
C1421 C1420 1.415 . S
H1422 C1419 0.999 . S
H1423 C1404 0.913 . S
H1424 C1442 0.951 . S
H1425 C1444 0.951 . S
H1426 C1446 0.950 . S
H1427 C1447 0.950 . S
H1428 C1449 0.950 . S
H1429 C1452 0.950 . S
H1430 C1453 0.950 . S
H1431 C1455 0.950 . S
H1432 C1456 0.950 . S
H1433 C1457 0.951 . S
H1434 C1459 0.951 . S
H1435 C1461 0.950 . S
H1436 C1462 0.950 . S
H1437 C1464 0.950 . S
H1438 C1467 0.950 . S
H1439 C1468 0.950 . S
H1440 C1470 0.950 . S
H1441 C1471 0.950 . S
C1442 H1424 0.951 . S
C1442 C1443 1.366 . S
C1442 C1444 1.388 . S
C1443 C1442 1.366 . S
C1443 C1447 1.385 . S
C1444 H1425 0.951 . S
C1444 C1442 1.388 . S
C1444 C1445 1.366 . S
C1445 C1444 1.366 . S
C1445 C1446 1.414 . S
C1445 C1448 1.499 . S
C1446 H1426 0.950 . S
C1446 C1445 1.414 . S
C1446 C1447 1.374 . S
C1447 H1427 0.950 . S
C1447 C1443 1.385 . S
C1447 C1446 1.374 . S
C1448 C1445 1.499 . S
C1448 C1449 1.373 . S
C1448 C1450 1.389 . S
C1449 H1428 0.950 . S
C1449 C1448 1.373 . S
C1449 C1465 1.377 . S
C1450 C1448 1.389 . S
C1450 C1451 1.524 . S
C1450 C1464 1.377 . S
C1451 C1450 1.524 . S
C1451 C1452 1.397 . S
C1451 C1456 1.363 . S
C1452 H1429 0.950 . S
C1452 C1451 1.397 . S
C1452 C1453 1.334 . S
C1453 H1430 0.950 . S
C1453 C1452 1.334 . S
C1453 C1454 1.287 . S
C1454 C1453 1.287 . S
C1454 C1455 1.524 . S
C1454 H1473 0.913 . S
C1455 H1431 0.950 . S
C1455 C1454 1.524 . S
C1455 C1456 1.415 . S
C1456 H1432 0.950 . S
C1456 C1451 1.363 . S
C1456 C1455 1.415 . S
C1457 H1433 0.951 . S
C1457 C1458 1.366 . S
C1457 C1459 1.388 . S
C1458 C1457 1.366 . S
C1458 C1462 1.385 . S
C1459 H1434 0.951 . S
C1459 C1457 1.388 . S
C1459 C1460 1.366 . S
C1460 C1459 1.366 . S
C1460 C1461 1.414 . S
C1460 C1463 1.499 . S
C1461 H1435 0.950 . S
C1461 C1460 1.414 . S
C1461 C1462 1.374 . S
C1462 H1436 0.950 . S
C1462 C1458 1.385 . S
C1462 C1461 1.374 . S
C1463 C1460 1.499 . S
C1463 C1464 1.373 . S
C1463 C1465 1.389 . S
C1464 H1437 0.950 . S
C1464 C1450 1.377 . S
C1464 C1463 1.373 . S
C1465 C1449 1.377 . S
C1465 C1463 1.389 . S
C1465 C1466 1.524 . S
C1466 C1465 1.524 . S
C1466 C1467 1.397 . S
C1466 C1471 1.363 . S
C1467 H1438 0.950 . S
C1467 C1466 1.397 . S
C1467 C1468 1.334 . S
C1468 H1439 0.950 . S
C1468 C1467 1.334 . S
C1468 C1469 1.287 . S
C1469 C1468 1.287 . S
C1469 C1470 1.524 . S
C1469 H1472 0.999 . S
C1470 H1440 0.950 . S
C1470 C1469 1.524 . S
C1470 C1471 1.415 . S
C1471 H1441 0.950 . S
C1471 C1466 1.363 . S
C1471 C1470 1.415 . S
H1472 C1469 0.999 . S
H1473 C1454 0.913 . S
H1474 C1492 0.951 . S
H1475 C1494 0.951 . S
H1476 C1496 0.950 . S
H1477 C1497 0.950 . S
H1478 C1499 0.950 . S
H1479 C1502 0.950 . S
H1480 C1503 0.950 . S
H1481 C1505 0.950 . S
H1482 C1506 0.950 . S
H1483 C1507 0.951 . S
H1484 C1509 0.951 . S
H1485 C1511 0.950 . S
H1486 C1512 0.950 . S
H1487 C1514 0.950 . S
H1488 C1517 0.950 . S
H1489 C1518 0.950 . S
H1490 C1520 0.950 . S
H1491 C1521 0.950 . S
C1492 H1474 0.951 . S
C1492 C1493 1.366 . S
C1492 C1494 1.388 . S
C1493 C1492 1.366 . S
C1493 C1497 1.385 . S
C1494 H1475 0.951 . S
C1494 C1492 1.388 . S
C1494 C1495 1.366 . S
C1495 C1494 1.366 . S
C1495 C1496 1.414 . S
C1495 C1498 1.499 . S
C1496 H1476 0.950 . S
C1496 C1495 1.414 . S
C1496 C1497 1.374 . S
C1497 H1477 0.950 . S
C1497 C1493 1.385 . S
C1497 C1496 1.374 . S
C1498 C1495 1.499 . S
C1498 C1499 1.373 . S
C1498 C1500 1.389 . S
C1499 H1478 0.950 . S
C1499 C1498 1.373 . S
C1499 C1515 1.377 . S
C1500 C1498 1.389 . S
C1500 C1501 1.524 . S
C1500 C1514 1.377 . S
C1501 C1500 1.524 . S
C1501 C1502 1.397 . S
C1501 C1506 1.363 . S
C1502 H1479 0.950 . S
C1502 C1501 1.397 . S
C1502 C1503 1.334 . S
C1503 H1480 0.950 . S
C1503 C1502 1.334 . S
C1503 C1504 1.287 . S
C1504 C1503 1.287 . S
C1504 C1505 1.524 . S
C1504 H1523 0.913 . S
C1505 H1481 0.950 . S
C1505 C1504 1.524 . S
C1505 C1506 1.415 . S
C1506 H1482 0.950 . S
C1506 C1501 1.363 . S
C1506 C1505 1.415 . S
C1507 H1483 0.951 . S
C1507 C1508 1.366 . S
C1507 C1509 1.388 . S
C1508 C1507 1.366 . S
C1508 C1512 1.385 . S
C1509 H1484 0.951 . S
C1509 C1507 1.388 . S
C1509 C1510 1.366 . S
C1510 C1509 1.366 . S
C1510 C1511 1.414 . S
C1510 C1513 1.499 . S
C1511 H1485 0.950 . S
C1511 C1510 1.414 . S
C1511 C1512 1.374 . S
C1512 H1486 0.950 . S
C1512 C1508 1.385 . S
C1512 C1511 1.374 . S
C1513 C1510 1.499 . S
C1513 C1514 1.373 . S
C1513 C1515 1.389 . S
C1514 H1487 0.950 . S
C1514 C1500 1.377 . S
C1514 C1513 1.373 . S
C1515 C1499 1.377 . S
C1515 C1513 1.389 . S
C1515 C1516 1.524 . S
C1516 C1515 1.524 . S
C1516 C1517 1.397 . S
C1516 C1521 1.363 . S
C1517 H1488 0.950 . S
C1517 C1516 1.397 . S
C1517 C1518 1.334 . S
C1518 H1489 0.950 . S
C1518 C1517 1.334 . S
C1518 C1519 1.287 . S
C1519 C1518 1.287 . S
C1519 C1520 1.524 . S
C1519 H1522 0.999 . S
C1520 H1490 0.950 . S
C1520 C1519 1.524 . S
C1520 C1521 1.415 . S
C1521 H1491 0.950 . S
C1521 C1516 1.363 . S
C1521 C1520 1.415 . S
H1522 C1519 0.999 . S
H1523 C1504 0.913 . S
H1524 C1542 0.951 . S
H1525 C1544 0.951 . S
H1526 C1546 0.950 . S
H1527 C1547 0.950 . S
H1528 C1549 0.950 . S
H1529 C1552 0.950 . S
H1530 C1553 0.950 . S
H1531 C1555 0.950 . S
H1532 C1556 0.950 . S
H1533 C1557 0.951 . S
H1534 C1559 0.951 . S
H1535 C1561 0.950 . S
H1536 C1562 0.950 . S
H1537 C1564 0.950 . S
H1538 C1567 0.950 . S
H1539 C1568 0.950 . S
H1540 C1570 0.950 . S
H1541 C1571 0.950 . S
C1542 H1524 0.951 . S
C1542 C1543 1.366 . S
C1542 C1544 1.388 . S
C1543 C1542 1.366 . S
C1543 C1547 1.385 . S
C1544 H1525 0.951 . S
C1544 C1542 1.388 . S
C1544 C1545 1.366 . S
C1545 C1544 1.366 . S
C1545 C1546 1.414 . S
C1545 C1548 1.499 . S
C1546 H1526 0.950 . S
C1546 C1545 1.414 . S
C1546 C1547 1.374 . S
C1547 H1527 0.950 . S
C1547 C1543 1.385 . S
C1547 C1546 1.374 . S
C1548 C1545 1.499 . S
C1548 C1549 1.373 . S
C1548 C1550 1.389 . S
C1549 H1528 0.950 . S
C1549 C1548 1.373 . S
C1549 C1565 1.377 . S
C1550 C1548 1.389 . S
C1550 C1551 1.524 . S
C1550 C1564 1.377 . S
C1551 C1550 1.524 . S
C1551 C1552 1.397 . S
C1551 C1556 1.363 . S
C1552 H1529 0.950 . S
C1552 C1551 1.397 . S
C1552 C1553 1.334 . S
C1553 H1530 0.950 . S
C1553 C1552 1.334 . S
C1553 C1554 1.287 . S
C1554 C1553 1.287 . S
C1554 C1555 1.524 . S
C1554 H1573 0.913 . S
C1555 H1531 0.950 . S
C1555 C1554 1.524 . S
C1555 C1556 1.415 . S
C1556 H1532 0.950 . S
C1556 C1551 1.363 . S
C1556 C1555 1.415 . S
C1557 H1533 0.951 . S
C1557 C1558 1.366 . S
C1557 C1559 1.388 . S
C1558 C1557 1.366 . S
C1558 C1562 1.385 . S
C1559 H1534 0.951 . S
C1559 C1557 1.388 . S
C1559 C1560 1.366 . S
C1560 C1559 1.366 . S
C1560 C1561 1.414 . S
C1560 C1563 1.499 . S
C1561 H1535 0.950 . S
C1561 C1560 1.414 . S
C1561 C1562 1.374 . S
C1562 H1536 0.950 . S
C1562 C1558 1.385 . S
C1562 C1561 1.374 . S
C1563 C1560 1.499 . S
C1563 C1564 1.373 . S
C1563 C1565 1.389 . S
C1564 H1537 0.950 . S
C1564 C1550 1.377 . S
C1564 C1563 1.373 . S
C1565 C1549 1.377 . S
C1565 C1563 1.389 . S
C1565 C1566 1.524 . S
C1566 C1565 1.524 . S
C1566 C1567 1.397 . S
C1566 C1571 1.363 . S
C1567 H1538 0.950 . S
C1567 C1566 1.397 . S
C1567 C1568 1.334 . S
C1568 H1539 0.950 . S
C1568 C1567 1.334 . S
C1568 C1569 1.287 . S
C1569 C1568 1.287 . S
C1569 C1570 1.524 . S
C1569 H1572 0.999 . S
C1570 H1540 0.950 . S
C1570 C1569 1.524 . S
C1570 C1571 1.415 . S
C1571 H1541 0.950 . S
C1571 C1566 1.363 . S
C1571 C1570 1.415 . S
H1572 C1569 0.999 . S
H1573 C1554 0.913 . S
H1574 C1592 0.951 . S
H1575 C1594 0.951 . S
H1576 C1596 0.950 . S
H1577 C1597 0.950 . S
H1578 C1599 0.950 . S
H1579 C1602 0.950 . S
H1580 C1603 0.950 . S
H1581 C1605 0.950 . S
H1582 C1606 0.950 . S
H1583 C1607 0.951 . S
H1584 C1609 0.951 . S
H1585 C1611 0.950 . S
H1586 C1612 0.950 . S
H1587 C1614 0.950 . S
H1588 C1617 0.950 . S
H1589 C1618 0.950 . S
H1590 C1620 0.950 . S
H1591 C1621 0.950 . S
C1592 H1574 0.951 . S
C1592 C1593 1.366 . S
C1592 C1594 1.388 . S
C1593 C1592 1.366 . S
C1593 C1597 1.385 . S
C1594 H1575 0.951 . S
C1594 C1592 1.388 . S
C1594 C1595 1.366 . S
C1595 C1594 1.366 . S
C1595 C1596 1.414 . S
C1595 C1598 1.499 . S
C1596 H1576 0.950 . S
C1596 C1595 1.414 . S
C1596 C1597 1.374 . S
C1597 H1577 0.950 . S
C1597 C1593 1.385 . S
C1597 C1596 1.374 . S
C1598 C1595 1.499 . S
C1598 C1599 1.373 . S
C1598 C1600 1.389 . S
C1599 H1578 0.950 . S
C1599 C1598 1.373 . S
C1599 C1615 1.377 . S
C1600 C1598 1.389 . S
C1600 C1601 1.524 . S
C1600 C1614 1.377 . S
C1601 C1600 1.524 . S
C1601 C1602 1.397 . S
C1601 C1606 1.363 . S
C1602 H1579 0.950 . S
C1602 C1601 1.397 . S
C1602 C1603 1.334 . S
C1603 H1580 0.950 . S
C1603 C1602 1.334 . S
C1603 C1604 1.287 . S
C1604 C1603 1.287 . S
C1604 C1605 1.524 . S
C1604 H1623 0.913 . S
C1605 H1581 0.950 . S
C1605 C1604 1.524 . S
C1605 C1606 1.415 . S
C1606 H1582 0.950 . S
C1606 C1601 1.363 . S
C1606 C1605 1.415 . S
C1607 H1583 0.951 . S
C1607 C1608 1.366 . S
C1607 C1609 1.388 . S
C1608 C1607 1.366 . S
C1608 C1612 1.385 . S
C1609 H1584 0.951 . S
C1609 C1607 1.388 . S
C1609 C1610 1.366 . S
C1610 C1609 1.366 . S
C1610 C1611 1.414 . S
C1610 C1613 1.499 . S
C1611 H1585 0.950 . S
C1611 C1610 1.414 . S
C1611 C1612 1.374 . S
C1612 H1586 0.950 . S
C1612 C1608 1.385 . S
C1612 C1611 1.374 . S
C1613 C1610 1.499 . S
C1613 C1614 1.373 . S
C1613 C1615 1.389 . S
C1614 H1587 0.950 . S
C1614 C1600 1.377 . S
C1614 C1613 1.373 . S
C1615 C1599 1.377 . S
C1615 C1613 1.389 . S
C1615 C1616 1.524 . S
C1616 C1615 1.524 . S
C1616 C1617 1.397 . S
C1616 C1621 1.363 . S
C1617 H1588 0.950 . S
C1617 C1616 1.397 . S
C1617 C1618 1.334 . S
C1618 H1589 0.950 . S
C1618 C1617 1.334 . S
C1618 C1619 1.287 . S
C1619 C1618 1.287 . S
C1619 C1620 1.524 . S
C1619 H1622 0.999 . S
C1620 H1590 0.950 . S
C1620 C1619 1.524 . S
C1620 C1621 1.415 . S
C1621 H1591 0.950 . S
C1621 C1616 1.363 . S
C1621 C1620 1.415 . S
H1622 C1619 0.999 . S
H1623 C1604 0.913 . S
H1624 C1642 0.951 . S
H1625 C1644 0.951 . S
H1626 C1646 0.950 . S
H1627 C1647 0.950 . S
H1628 C1649 0.950 . S
H1629 C1652 0.950 . S
H1630 C1653 0.950 . S
H1631 C1655 0.950 . S
H1632 C1656 0.950 . S
H1633 C1657 0.951 . S
H1634 C1659 0.951 . S
H1635 C1661 0.950 . S
H1636 C1662 0.950 . S
H1637 C1664 0.950 . S
H1638 C1667 0.950 . S
H1639 C1668 0.950 . S
H1640 C1670 0.950 . S
H1641 C1671 0.950 . S
C1642 H1624 0.951 . S
C1642 C1643 1.366 . S
C1642 C1644 1.388 . S
C1643 C1642 1.366 . S
C1643 C1647 1.385 . S
C1644 H1625 0.951 . S
C1644 C1642 1.388 . S
C1644 C1645 1.366 . S
C1645 C1644 1.366 . S
C1645 C1646 1.414 . S
C1645 C1648 1.499 . S
C1646 H1626 0.950 . S
C1646 C1645 1.414 . S
C1646 C1647 1.374 . S
C1647 H1627 0.950 . S
C1647 C1643 1.385 . S
C1647 C1646 1.374 . S
C1648 C1645 1.499 . S
C1648 C1649 1.373 . S
C1648 C1650 1.389 . S
C1649 H1628 0.950 . S
C1649 C1648 1.373 . S
C1649 C1665 1.377 . S
C1650 C1648 1.389 . S
C1650 C1651 1.524 . S
C1650 C1664 1.377 . S
C1651 C1650 1.524 . S
C1651 C1652 1.397 . S
C1651 C1656 1.363 . S
C1652 H1629 0.950 . S
C1652 C1651 1.397 . S
C1652 C1653 1.334 . S
C1653 H1630 0.950 . S
C1653 C1652 1.334 . S
C1653 C1654 1.287 . S
C1654 C1653 1.287 . S
C1654 C1655 1.524 . S
C1654 H1673 0.913 . S
C1655 H1631 0.950 . S
C1655 C1654 1.524 . S
C1655 C1656 1.415 . S
C1656 H1632 0.950 . S
C1656 C1651 1.363 . S
C1656 C1655 1.415 . S
C1657 H1633 0.951 . S
C1657 C1658 1.366 . S
C1657 C1659 1.388 . S
C1658 C1657 1.366 . S
C1658 C1662 1.385 . S
C1659 H1634 0.951 . S
C1659 C1657 1.388 . S
C1659 C1660 1.366 . S
C1660 C1659 1.366 . S
C1660 C1661 1.414 . S
C1660 C1663 1.499 . S
C1661 H1635 0.950 . S
C1661 C1660 1.414 . S
C1661 C1662 1.374 . S
C1662 H1636 0.950 . S
C1662 C1658 1.385 . S
C1662 C1661 1.374 . S
C1663 C1660 1.499 . S
C1663 C1664 1.373 . S
C1663 C1665 1.389 . S
C1664 H1637 0.950 . S
C1664 C1650 1.377 . S
C1664 C1663 1.373 . S
C1665 C1649 1.377 . S
C1665 C1663 1.389 . S
C1665 C1666 1.524 . S
C1666 C1665 1.524 . S
C1666 C1667 1.397 . S
C1666 C1671 1.363 . S
C1667 H1638 0.950 . S
C1667 C1666 1.397 . S
C1667 C1668 1.334 . S
C1668 H1639 0.950 . S
C1668 C1667 1.334 . S
C1668 C1669 1.287 . S
C1669 C1668 1.287 . S
C1669 C1670 1.524 . S
C1669 H1672 0.999 . S
C1670 H1640 0.950 . S
C1670 C1669 1.524 . S
C1670 C1671 1.415 . S
C1671 H1641 0.950 . S
C1671 C1666 1.363 . S
C1671 C1670 1.415 . S
H1672 C1669 0.999 . S
H1673 C1654 0.913 . S
H1674 C1692 0.951 . S
H1675 C1694 0.951 . S
H1676 C1696 0.950 . S
H1677 C1697 0.950 . S
H1678 C1699 0.950 . S
H1679 C1702 0.950 . S
H1680 C1703 0.950 . S
H1681 C1705 0.950 . S
H1682 C1706 0.950 . S
H1683 C1707 0.951 . S
H1684 C1709 0.951 . S
H1685 C1711 0.950 . S
H1686 C1712 0.950 . S
H1687 C1714 0.950 . S
H1688 C1717 0.950 . S
H1689 C1718 0.950 . S
H1690 C1720 0.950 . S
H1691 C1721 0.950 . S
C1692 H1674 0.951 . S
C1692 C1693 1.366 . S
C1692 C1694 1.388 . S
C1693 C1692 1.366 . S
C1693 C1697 1.385 . S
C1694 H1675 0.951 . S
C1694 C1692 1.388 . S
C1694 C1695 1.366 . S
C1695 C1694 1.366 . S
C1695 C1696 1.414 . S
C1695 C1698 1.499 . S
C1696 H1676 0.950 . S
C1696 C1695 1.414 . S
C1696 C1697 1.374 . S
C1697 H1677 0.950 . S
C1697 C1693 1.385 . S
C1697 C1696 1.374 . S
C1698 C1695 1.499 . S
C1698 C1699 1.373 . S
C1698 C1700 1.389 . S
C1699 H1678 0.950 . S
C1699 C1698 1.373 . S
C1699 C1715 1.377 . S
C1700 C1698 1.389 . S
C1700 C1701 1.524 . S
C1700 C1714 1.377 . S
C1701 C1700 1.524 . S
C1701 C1702 1.397 . S
C1701 C1706 1.363 . S
C1702 H1679 0.950 . S
C1702 C1701 1.397 . S
C1702 C1703 1.334 . S
C1703 H1680 0.950 . S
C1703 C1702 1.334 . S
C1703 C1704 1.287 . S
C1704 C1703 1.287 . S
C1704 C1705 1.524 . S
C1704 H1723 0.913 . S
C1705 H1681 0.950 . S
C1705 C1704 1.524 . S
C1705 C1706 1.415 . S
C1706 H1682 0.950 . S
C1706 C1701 1.363 . S
C1706 C1705 1.415 . S
C1707 H1683 0.951 . S
C1707 C1708 1.366 . S
C1707 C1709 1.388 . S
C1708 C1707 1.366 . S
C1708 C1712 1.385 . S
C1709 H1684 0.951 . S
C1709 C1707 1.388 . S
C1709 C1710 1.366 . S
C1710 C1709 1.366 . S
C1710 C1711 1.414 . S
C1710 C1713 1.499 . S
C1711 H1685 0.950 . S
C1711 C1710 1.414 . S
C1711 C1712 1.374 . S
C1712 H1686 0.950 . S
C1712 C1708 1.385 . S
C1712 C1711 1.374 . S
C1713 C1710 1.499 . S
C1713 C1714 1.373 . S
C1713 C1715 1.389 . S
C1714 H1687 0.950 . S
C1714 C1700 1.377 . S
C1714 C1713 1.373 . S
C1715 C1699 1.377 . S
C1715 C1713 1.389 . S
C1715 C1716 1.524 . S
C1716 C1715 1.524 . S
C1716 C1717 1.397 . S
C1716 C1721 1.363 . S
C1717 H1688 0.950 . S
C1717 C1716 1.397 . S
C1717 C1718 1.334 . S
C1718 H1689 0.950 . S
C1718 C1717 1.334 . S
C1718 C1719 1.287 . S
C1719 C1718 1.287 . S
C1719 C1720 1.524 . S
C1719 H1722 0.999 . S
C1720 H1690 0.950 . S
C1720 C1719 1.524 . S
C1720 C1721 1.415 . S
C1721 H1691 0.950 . S
C1721 C1716 1.363 . S
C1721 C1720 1.415 . S
H1722 C1719 0.999 . S
H1723 C1704 0.913 . S
H1724 C1742 0.951 . S
H1725 C1744 0.951 . S
H1726 C1746 0.950 . S
H1727 C1747 0.950 . S
H1728 C1749 0.950 . S
H1729 C1752 0.950 . S
H1730 C1753 0.950 . S
H1731 C1755 0.950 . S
H1732 C1756 0.950 . S
H1733 C1757 0.951 . S
H1734 C1759 0.951 . S
H1735 C1761 0.950 . S
H1736 C1762 0.950 . S
H1737 C1764 0.950 . S
H1738 C1767 0.950 . S
H1739 C1768 0.950 . S
H1740 C1770 0.950 . S
H1741 C1771 0.950 . S
C1742 H1724 0.951 . S
C1742 C1743 1.366 . S
C1742 C1744 1.388 . S
C1743 C1742 1.366 . S
C1743 C1747 1.385 . S
C1744 H1725 0.951 . S
C1744 C1742 1.388 . S
C1744 C1745 1.366 . S
C1745 C1744 1.366 . S
C1745 C1746 1.414 . S
C1745 C1748 1.499 . S
C1746 H1726 0.950 . S
C1746 C1745 1.414 . S
C1746 C1747 1.374 . S
C1747 H1727 0.950 . S
C1747 C1743 1.385 . S
C1747 C1746 1.374 . S
C1748 C1745 1.499 . S
C1748 C1749 1.373 . S
C1748 C1750 1.389 . S
C1749 H1728 0.950 . S
C1749 C1748 1.373 . S
C1749 C1765 1.377 . S
C1750 C1748 1.389 . S
C1750 C1751 1.524 . S
C1750 C1764 1.377 . S
C1751 C1750 1.524 . S
C1751 C1752 1.397 . S
C1751 C1756 1.363 . S
C1752 H1729 0.950 . S
C1752 C1751 1.397 . S
C1752 C1753 1.334 . S
C1753 H1730 0.950 . S
C1753 C1752 1.334 . S
C1753 C1754 1.287 . S
C1754 C1753 1.287 . S
C1754 C1755 1.524 . S
C1754 H1773 0.913 . S
C1755 H1731 0.950 . S
C1755 C1754 1.524 . S
C1755 C1756 1.415 . S
C1756 H1732 0.950 . S
C1756 C1751 1.363 . S
C1756 C1755 1.415 . S
C1757 H1733 0.951 . S
C1757 C1758 1.366 . S
C1757 C1759 1.388 . S
C1758 C1757 1.366 . S
C1758 C1762 1.385 . S
C1759 H1734 0.951 . S
C1759 C1757 1.388 . S
C1759 C1760 1.366 . S
C1760 C1759 1.366 . S
C1760 C1761 1.414 . S
C1760 C1763 1.499 . S
C1761 H1735 0.950 . S
C1761 C1760 1.414 . S
C1761 C1762 1.374 . S
C1762 H1736 0.950 . S
C1762 C1758 1.385 . S
C1762 C1761 1.374 . S
C1763 C1760 1.499 . S
C1763 C1764 1.373 . S
C1763 C1765 1.389 . S
C1764 H1737 0.950 . S
C1764 C1750 1.377 . S
C1764 C1763 1.373 . S
C1765 C1749 1.377 . S
C1765 C1763 1.389 . S
C1765 C1766 1.524 . S
C1766 C1765 1.524 . S
C1766 C1767 1.397 . S
C1766 C1771 1.363 . S
C1767 H1738 0.950 . S
C1767 C1766 1.397 . S
C1767 C1768 1.334 . S
C1768 H1739 0.950 . S
C1768 C1767 1.334 . S
C1768 C1769 1.287 . S
C1769 C1768 1.287 . S
C1769 C1770 1.524 . S
C1769 H1772 0.999 . S
C1770 H1740 0.950 . S
C1770 C1769 1.524 . S
C1770 C1771 1.415 . S
C1771 H1741 0.950 . S
C1771 C1766 1.363 . S
C1771 C1770 1.415 . S
H1772 C1769 0.999 . S
H1773 C1754 0.913 . S
H1774 C1792 0.951 . S
H1775 C1794 0.951 . S
H1776 C1796 0.950 . S
H1777 C1797 0.950 . S
H1778 C1799 0.950 . S
H1779 C1802 0.950 . S
H1780 C1803 0.950 . S
H1781 C1805 0.950 . S
H1782 C1806 0.950 . S
H1783 C1807 0.951 . S
H1784 C1809 0.951 . S
H1785 C1811 0.950 . S
H1786 C1812 0.950 . S
H1787 C1814 0.950 . S
H1788 C1817 0.950 . S
H1789 C1818 0.950 . S
H1790 C1820 0.950 . S
H1791 C1821 0.950 . S
C1792 H1774 0.951 . S
C1792 C1793 1.366 . S
C1792 C1794 1.388 . S
C1793 C1792 1.366 . S
C1793 C1797 1.385 . S
C1794 H1775 0.951 . S
C1794 C1792 1.388 . S
C1794 C1795 1.366 . S
C1795 C1794 1.366 . S
C1795 C1796 1.414 . S
C1795 C1798 1.499 . S
C1796 H1776 0.950 . S
C1796 C1795 1.414 . S
C1796 C1797 1.374 . S
C1797 H1777 0.950 . S
C1797 C1793 1.385 . S
C1797 C1796 1.374 . S
C1798 C1795 1.499 . S
C1798 C1799 1.373 . S
C1798 C1800 1.389 . S
C1799 H1778 0.950 . S
C1799 C1798 1.373 . S
C1799 C1815 1.377 . S
C1800 C1798 1.389 . S
C1800 C1801 1.524 . S
C1800 C1814 1.377 . S
C1801 C1800 1.524 . S
C1801 C1802 1.397 . S
C1801 C1806 1.363 . S
C1802 H1779 0.950 . S
C1802 C1801 1.397 . S
C1802 C1803 1.334 . S
C1803 H1780 0.950 . S
C1803 C1802 1.334 . S
C1803 C1804 1.287 . S
C1804 C1803 1.287 . S
C1804 C1805 1.524 . S
C1804 H1823 0.913 . S
C1805 H1781 0.950 . S
C1805 C1804 1.524 . S
C1805 C1806 1.415 . S
C1806 H1782 0.950 . S
C1806 C1801 1.363 . S
C1806 C1805 1.415 . S
C1807 H1783 0.951 . S
C1807 C1808 1.366 . S
C1807 C1809 1.388 . S
C1808 C1807 1.366 . S
C1808 C1812 1.385 . S
C1809 H1784 0.951 . S
C1809 C1807 1.388 . S
C1809 C1810 1.366 . S
C1810 C1809 1.366 . S
C1810 C1811 1.414 . S
C1810 C1813 1.499 . S
C1811 H1785 0.950 . S
C1811 C1810 1.414 . S
C1811 C1812 1.374 . S
C1812 H1786 0.950 . S
C1812 C1808 1.385 . S
C1812 C1811 1.374 . S
C1813 C1810 1.499 . S
C1813 C1814 1.373 . S
C1813 C1815 1.389 . S
C1814 H1787 0.950 . S
C1814 C1800 1.377 . S
C1814 C1813 1.373 . S
C1815 C1799 1.377 . S
C1815 C1813 1.389 . S
C1815 C1816 1.524 . S
C1816 C1815 1.524 . S
C1816 C1817 1.397 . S
C1816 C1821 1.363 . S
C1817 H1788 0.950 . S
C1817 C1816 1.397 . S
C1817 C1818 1.334 . S
C1818 H1789 0.950 . S
C1818 C1817 1.334 . S
C1818 C1819 1.287 . S
C1819 C1818 1.287 . S
C1819 C1820 1.524 . S
C1819 H1822 0.999 . S
C1820 H1790 0.950 . S
C1820 C1819 1.524 . S
C1820 C1821 1.415 . S
C1821 H1791 0.950 . S
C1821 C1816 1.363 . S
C1821 C1820 1.415 . S
H1822 C1819 0.999 . S
H1823 C1804 0.913 . S
C643 C247 1.473 . S
C658 C344 1.453 . S
C708 C428 1.453 . S
C693 C283 1.473 . S
C758 C427 1.458 . S
C743 C175 1.462 . S
C793 C211 1.463 . S
C808 C343 1.458 . S
C858 C524 1.453 . S
C843 C103 1.461 . S
C908 C608 1.453 . S
C893 C139 1.461 . S
C943 C31 1.448 . S
C958 C607 1.458 . S
C993 C67 1.449 . S
C1008 C523 1.458 . S
C1058 C346 1.341 . S
C1043 C37 1.508 1_554 S
C1108 C430 1.340 . S
C1093 C1 1.508 . S
C1158 C442 1.408 . S
C1143 C109 1.537 . S
C1208 C358 1.407 . S
C1193 C73 1.537 . S
C1258 C526 1.341 . S
C1243 C181 1.520 1_556 S
C1293 C145 1.520 . S
C1308 C610 1.341 . S
C1358 C598 1.407 . S
C1343 C253 1.547 . S
C1393 C217 1.547 . S
C1408 C514 1.408 . S
C1458 C355 1.593 . S
C1443 C25 1.570 . S
C1508 C439 1.593 . S
C1493 C61 1.570 . S
C1543 C97 1.559 . S
C1558 C440 1.564 . S
C1608 C356 1.564 . S
C1593 C133 1.559 . S
C1658 C511 1.592 . S
C1643 C169 1.587 . S
C1693 C205 1.587 . S
C1708 C595 1.593 . S
C1743 C241 1.573 . S
C1758 C596 1.564 . S
C1793 C277 1.573 . S
C1808 C512 1.564 . S
