# Generated by pormake.
# Topology tsx, (6,3)-cn, num edge types: 1
# Building blocks:
#     Node 0, Type 0, BuildingBlock: CIFDUS_clean_sbu_1, # of connection points: 6
#     Node 1, Type 0, BuildingBlock: CIFDUS_clean_sbu_1, # of connection points: 6
#     Node 2, Type 1, BuildingBlock: CUQRIR_clean_linker_1, # of connection points: 3
#     Node 3, Type 1, BuildingBlock: CUQRIR_clean_linker_1, # of connection points: 3
#     Node 4, Type 1, BuildingBlock: CUQRIR_clean_linker_1, # of connection points: 3
#     Node 5, Type 1, BuildingBlock: CUQRIR_clean_linker_1, # of connection points: 3
#     Edge 6, Type (0, 1), BuildingBlock: MIFKUJ_clean_linker_0, # of connection points: 2
#     Edge 7, Type (0, 1), BuildingBlock: MIFKUJ_clean_linker_0, # of connection points: 2
#     Edge 8, Type (0, 1), BuildingBlock: MIFKUJ_clean_linker_0, # of connection points: 2
#     Edge 9, Type (0, 1), BuildingBlock: MIFKUJ_clean_linker_0, # of connection points: 2
#     Edge 10, Type (0, 1), BuildingBlock: MIFKUJ_clean_linker_0, # of connection points: 2
#     Edge 11, Type (0, 1), BuildingBlock: MIFKUJ_clean_linker_0, # of connection points: 2
#     Edge 12, Type (0, 1), BuildingBlock: MIFKUJ_clean_linker_0, # of connection points: 2
#     Edge 13, Type (0, 1), BuildingBlock: MIFKUJ_clean_linker_0, # of connection points: 2
#     Edge 14, Type (0, 1), BuildingBlock: MIFKUJ_clean_linker_0, # of connection points: 2
#     Edge 15, Type (0, 1), BuildingBlock: MIFKUJ_clean_linker_0, # of connection points: 2
#     Edge 16, Type (0, 1), BuildingBlock: MIFKUJ_clean_linker_0, # of connection points: 2
#     Edge 17, Type (0, 1), BuildingBlock: MIFKUJ_clean_linker_0, # of connection points: 2
# Relax obj value: 0.155
# Max RMSD: 0.176
# Mean RMSD: 0.162
data_MOF--net-tsx--node1-CIFDUS_clean_sbu_1--node2-CUQRIR_clean_linker_1--edge1-MIFKUJ_clean_linker_0
_symmetry_space_group_name_H-M    P1
_symmetry_Int_Tables_number       1
_symmetry_cell_setting            triclinic
loop_
_symmetry_equiv_pos_as_xyz
'x, y, z'
_cell_length_a     22.860551
_cell_length_b     27.475159
_cell_length_c     43.002858
_cell_angle_alpha  87.31733
_cell_angle_beta   90.881261
_cell_angle_gamma 91.033159
loop_
_atom_site_label
_atom_site_type_symbol
_atom_site_fract_x
_atom_site_fract_y
_atom_site_fract_z
_atom_type_partial_charge
O0 O 0.01021 0.09462 0.00266 0.0
Mn1 Mn 0.06451 0.03407 -0.00011 0.0
O2 O 0.93275 0.07659 0.97283 0.0
Mn3 Mn 0.96036 0.01723 0.96279 0.0
O4 O 0.11998 0.9733 -0.00365 0.0
O5 O 0.13318 0.08233 0.00716 0.0
Mn6 Mn 0.1788 0.0493 0.03405 0.0
O7 O 0.05385 0.01948 0.04783 0.0
O8 O 0.20681 0.99552 0.01616 0.0
O9 O 0.07754 0.05082 0.95174 0.0
O10 O 1.00277 0.01618 0.92753 0.0
O11 O 0.21797 0.10631 0.02778 0.0
O12 O 0.13973 0.03789 0.07082 0.0
C13 C 0.94689 0.9562 0.99011 0.0
C14 C 0.9603 0.10513 0.99034 0.0
C15 C 0.17445 0.96513 0.00239 0.0
C16 C 0.17348 0.11658 0.00978 0.0
C17 C 0.08655 0.02403 0.07209 0.0
C18 C 0.05114 0.03872 0.92666 0.0
O19 O 0.99321 0.9848 -0.00491 0.0
O20 O 0.91055 0.96805 0.96767 0.0
O21 O 0.51477 0.60059 0.50076 0.0
Mn22 Mn 0.56506 0.5372 0.4984 0.0
O23 O 0.43082 0.58431 0.47569 0.0
Mn24 Mn 0.45514 0.52545 0.46277 0.0
O25 O 0.61587 0.47321 0.49589 0.0
O26 O 0.63607 0.58199 0.50423 0.0
Mn27 Mn 0.68622 0.54874 0.52772 0.0
O28 O 0.55798 0.52603 0.547 0.0
O29 O 0.70795 0.49485 0.50783 0.0
O30 O 0.57748 0.54941 0.44992 0.0
O31 O 0.49537 0.52566 0.42625 0.0
O32 O 0.7229 0.60712 0.51989 0.0
O33 O 0.64986 0.53786 0.56551 0.0
C34 C 0.44499 0.46323 0.4906 0.0
C35 C 0.46296 0.61222 0.49151 0.0
C36 C 0.67083 0.4637 0.49861 0.0
C37 C 0.67392 0.61784 0.50589 0.0
C38 C 0.5955 0.52896 0.56958 0.0
C39 C 0.54811 0.54009 0.42516 0.0
O40 O 0.4915 0.49185 0.49364 0.0
O41 O 0.40608 0.47533 0.46952 0.0
C42 C 0.05014 0.02233 0.44466 0.0
N43 N 0.08146 0.99899 0.4236 0.0
N44 N 1.00464 0.04601 0.43051 0.0
C45 C 0.06221 0.02019 0.47912 0.0
C46 C 0.00928 0.03569 0.40022 0.0
N47 N 0.05597 0.00724 0.39597 0.0
C48 C 0.97003 0.056 0.37443 0.0
H49 H 0.0209 0.01229 0.49168 0.0
H50 H 0.07998 0.05594 0.48606 0.0
H51 H 0.09431 0.99179 0.4861 0.0
H52 H 0.97859 0.09577 0.37108 0.0
H53 H 0.9235 0.05059 0.38064 0.0
H54 H 0.97673 0.03817 0.35218 0.0
C55 C 0.99425 0.07965 0.55788 0.0
N56 N 0.02927 0.09995 0.57973 0.0
N57 N 0.9673 0.03843 0.56958 0.0
C58 C 0.98614 0.10021 0.52543 0.0
C59 C 0.98612 0.03509 0.59956 0.0
N60 N 0.02366 0.07207 0.60558 0.0
C61 C 0.96543 0.9973 0.62354 0.0
H62 H 0.95723 0.13213 0.526 0.0
H63 H 0.96517 0.07346 0.5102 0.0
H64 H 0.02885 0.11281 0.5159 0.0
H65 H 0.99856 0.96834 0.62634 0.0
H66 H 0.92295 0.98062 0.61657 0.0
H67 H 0.96068 0.01381 0.64639 0.0
C68 C 0.55193 0.52417 0.94159 0.0
N69 N 0.5756 0.49358 0.92168 0.0
N70 N 0.50648 0.5482 0.92774 0.0
C71 C 0.57308 0.53009 0.97442 0.0
C72 C 0.50379 0.53117 0.89873 0.0
N73 N 0.54528 0.49749 0.89515 0.0
C74 C 0.46384 0.55075 0.87306 0.0
H75 H 0.58783 0.49477 0.98511 0.0
H76 H 0.53826 0.54466 0.98865 0.0
H77 H 0.61089 0.55598 0.97423 0.0
H78 H 0.45888 0.59067 0.8746 0.0
H79 H 0.42001 0.53325 0.87582 0.0
H80 H 0.4799 0.5431 0.84962 0.0
C81 C 0.47908 0.58942 0.05651 0.0
N82 N 0.51608 0.60455 0.07929 0.0
N83 N 0.44187 0.55389 0.06754 0.0
C84 C 0.47751 0.61069 0.02382 0.0
C85 C 0.45698 0.54836 0.09808 0.0
N86 N 0.50275 0.57839 0.10517 0.0
C87 C 0.42639 0.51364 0.12101 0.0
H88 H 0.45418 0.64575 0.02353 0.0
H89 H 0.45342 0.58669 0.00789 0.0
H90 H 0.52258 0.61813 0.01543 0.0
H91 H 0.44463 0.47671 0.11937 0.0
H92 H 0.37895 0.51102 0.11604 0.0
H93 H 0.43151 0.52546 0.1452 0.0
H94 H 0.11277 0.19059 0.03204 0.0
H95 H 0.1494 0.27478 0.0303 0.0
H96 H 0.27155 0.24041 0.95943 0.0
H97 H 0.23582 0.15593 0.96193 0.0
H98 H 0.3277 0.27511 0.00723 0.0
H99 H 0.15946 0.32683 0.94733 0.0
H100 H 0.05347 0.33077 0.93623 0.0
H101 H 0.02794 0.40106 0.02198 0.0
H102 H 0.13366 0.39669 0.03389 0.0
H103 H 0.47632 0.49715 0.02198 0.0
H104 H 0.41895 0.4335 -0.00287 0.0
H105 H 0.27043 0.46718 0.05273 0.0
H106 H 0.32533 0.5362 0.07322 0.0
H107 H 0.22767 0.43377 0.0062 0.0
H108 H 0.38637 0.36914 0.07149 0.0
H109 H 0.49003 0.36073 0.08741 0.0
H110 H 0.53071 0.31116 -0.0029 0.0
H111 H 0.42731 0.31955 0.98064 0.0
C112 C 0.14469 0.20181 0.01464 0.0
C113 C 0.17039 0.16689 -0.00343 0.0
C114 C 0.16634 0.24997 0.01394 0.0
C115 C 0.21366 0.26427 -0.00518 0.0
C116 C 0.23519 0.2305 0.97445 0.0
C117 C 0.21383 0.18235 0.97536 0.0
C118 C 0.24583 0.31148 -0.0008 0.0
C119 C 0.30592 0.30993 0.00635 0.0
C120 C 0.21752 0.35688 -0.00078 0.0
C121 C 0.15438 0.36116 0.99157 0.0
C122 C 0.13119 0.34297 0.96387 0.0
C123 C 0.07117 0.34524 0.95745 0.0
C124 C 0.03398 0.36608 0.97841 0.0
C125 C 0.0568 0.38491 0.00577 0.0
C126 C 0.11677 0.38259 0.01235 0.0
C127 C 0.43075 0.49204 0.02786 0.0
C128 C 0.40563 0.52088 0.05003 0.0
C129 C 0.39819 0.45471 0.0143 0.0
C130 C 0.34094 0.44308 0.02424 0.0
C131 C 0.31471 0.47418 0.04491 0.0
C132 C 0.34636 0.51327 0.05709 0.0
C133 C 0.30961 0.39742 0.01471 0.0
C134 C 0.24969 0.39911 0.00673 0.0
C135 C 0.33774 0.35172 0.01461 0.0
C136 C 0.3994 0.34537 0.02479 0.0
C137 C 0.4175 0.35645 0.05507 0.0
C138 C 0.47616 0.35172 0.06416 0.0
C139 C 0.51695 0.33551 0.04326 0.0
C140 C 0.49909 0.32372 0.01326 0.0
C141 C 0.44047 0.32837 0.00406 0.0
H142 H 0.56239 0.33203 0.05031 0.0
H143 H 0.98747 0.36768 0.97344 0.0
H144 H 0.12642 0.8848 0.97332 0.0
H145 H 0.1776 0.80993 0.96089 0.0
H146 H 0.33673 0.86684 0.00156 0.0
H147 H 0.28747 0.94032 0.01365 0.0
H148 H 0.35608 0.8327 0.94534 0.0
H149 H 0.25685 0.78024 0.03988 0.0
H150 H 0.17142 0.76278 0.07318 0.0
H151 H 0.10304 0.66241 0.00759 0.0
H152 H 0.1877 0.67981 0.97369 0.0
H153 H 0.54583 0.63289 0.95039 0.0
H154 H 0.48629 0.70116 0.96509 0.0
H155 H 0.32949 0.61963 0.94176 0.0
H156 H 0.38932 0.55007 0.93015 0.0
H157 H 0.30417 0.66636 0.98667 0.0
H158 H 0.40558 0.7196 0.89153 0.0
H159 H 0.49347 0.73657 0.8599 0.0
H160 H 0.55848 0.83595 0.92698 0.0
H161 H 0.47127 0.81926 0.95909 0.0
C162 C 0.17227 0.88122 0.97954 0.0
C163 C 0.2026 0.91897 -0.00569 0.0
C164 C 0.20139 0.8384 0.97257 0.0
C165 C 0.26113 0.83289 0.98026 0.0
C166 C 0.29089 0.87032 -0.00483 0.0
C167 C 0.26223 0.91254 0.0021 0.0
C168 C 0.29438 0.7892 0.9724 0.0
C169 C 0.34471 0.79626 0.95435 0.0
C170 C 0.27937 0.74165 0.98388 0.0
C171 C 0.22816 0.73182 0.00406 0.0
C172 C 0.22326 0.75487 0.0324 0.0
C173 C 0.17506 0.74489 0.05142 0.0
C174 C 0.13172 0.71164 0.04246 0.0
C175 C 0.13655 0.68825 0.01447 0.0
C176 C 0.18461 0.69816 -0.00465 0.0
C177 C 0.4986 0.62957 0.94905 0.0
C178 C 0.47188 0.58653 0.93921 0.0
C179 C 0.46446 0.66893 0.95674 0.0
C180 C 0.40301 0.66663 0.95351 0.0
C181 C 0.37657 0.62283 0.94441 0.0
C182 C 0.41065 0.58314 0.93759 0.0
C183 C 0.36605 0.70958 0.95926 0.0
C184 C 0.31515 0.70252 0.97706 0.0
C185 C 0.38043 0.75731 0.94746 0.0
C186 C 0.43207 0.76805 0.92772 0.0
C187 C 0.43866 0.74504 0.8995 0.0
C188 C 0.48837 0.75458 0.88152 0.0
C189 C 0.53154 0.78729 0.89143 0.0
C190 C 0.52501 0.81066 0.91931 0.0
C191 C 0.47542 0.80126 0.93736 0.0
H192 H 0.57003 0.79456 0.87751 0.0
H193 H 0.09448 0.70389 0.05724 0.0
H194 H 0.91866 0.87041 0.96728 0.0
H195 H 0.85219 0.80997 0.99063 0.0
H196 H 0.86769 0.87955 0.07831 0.0
H197 H 0.93148 0.94333 0.05381 0.0
H198 H 0.85281 0.74411 0.03451 0.0
H199 H 0.77337 0.88795 0.10336 0.0
H200 H 0.7495 0.97545 0.10107 0.0
H201 H 0.67003 0.96129 0.0107 0.0
H202 H 0.69515 0.87414 0.01219 0.0
H203 H 0.62943 0.58965 0.09562 0.0
H204 H 0.71165 0.64735 0.08944 0.0
H205 H 0.59576 0.75303 0.04527 0.0
H206 H 0.51297 0.69707 0.0546 0.0
H207 H 0.66484 0.80211 0.07363 0.0
H208 H 0.69734 0.6798 0.00468 0.0
H209 H 0.71326 0.60086 0.9815 0.0
H210 H 0.86565 0.57859 0.03969 0.0
H211 H 0.85006 0.65709 0.06365 0.0
C212 C 0.9096 0.87203 -0.00812 0.0
C213 C 0.93079 0.91147 0.00872 0.0
C214 C 0.87081 0.83764 0.00517 0.0
C215 C 0.85283 0.84089 0.03603 0.0
C216 C 0.87863 0.87739 0.05406 0.0
C217 C 0.9168 0.91291 0.04038 0.0
C218 C 0.80588 0.80658 0.04807 0.0
C219 C 0.81222 0.75659 0.0439 0.0
C220 C 0.75135 0.82286 0.05838 0.0
C221 C 0.73725 0.87512 0.05761 0.0
C222 C 0.75147 0.90377 0.0829 0.0
C223 C 0.73776 0.95324 0.08172 0.0
C224 C 0.70859 0.974 0.05567 0.0
C225 C 0.69306 0.94531 0.03075 0.0
C226 C 0.70737 0.89602 0.03166 0.0
C227 C 0.62155 0.62555 0.08511 0.0
C228 C 0.56478 0.63874 0.07549 0.0
C229 C 0.66876 0.65841 0.08111 0.0
C230 C 0.66082 0.7047 0.06628 0.0
C231 C 0.60376 0.71786 0.05683 0.0
C232 C 0.55634 0.68551 0.06169 0.0
C233 C 0.71177 0.739 0.06027 0.0
C234 C 0.70598 0.78894 0.06537 0.0
C235 C 0.76545 0.72316 0.04841 0.0
C236 C 0.77205 0.67398 0.03628 0.0
C237 C 0.73358 0.65763 0.01299 0.0
C238 C 0.74269 0.61309 -0.00041 0.0
C239 C 0.79044 0.58481 0.00907 0.0
C240 C 0.82867 0.60057 0.03236 0.0
C241 C 0.81964 0.64502 0.04592 0.0
H242 H 0.79796 0.55085 -0.00184 0.0
H243 H 0.69778 0.01223 0.05486 0.0
H244 H 0.8498 0.11773 0.00774 0.0
H245 H 0.79292 0.19149 -0.00104 0.0
H246 H 0.94914 0.27148 0.97129 0.0
H247 H 0.00684 0.19706 0.98042 0.0
H248 H 0.86015 0.32393 0.0081 0.0
H249 H 0.87557 0.22956 0.91535 0.0
H250 H 0.86958 0.15217 0.88847 0.0
H251 H 0.68933 0.13393 0.91394 0.0
H252 H 0.69448 0.21089 0.94128 0.0
H253 H 0.69083 0.51103 0.93077 0.0
H254 H 0.76556 0.45035 0.94534 0.0
H255 H 0.63206 0.3369 0.94591 0.0
H256 H 0.55885 0.3975 0.92977 0.0
H257 H 0.71935 0.30411 0.92045 0.0
H258 H 0.69556 0.38821 0.01334 0.0
H259 H 0.69469 0.45392 0.05042 0.0
H260 H 0.87769 0.48219 0.03542 0.0
H261 H 0.87933 0.41762 -0.00245 0.0
C262 C 0.8724 0.15152 0.00099 0.0
C263 C 0.93255 0.15199 -0.00509 0.0
C264 C 0.83984 0.19346 -0.00426 0.0
C265 C 0.86671 0.23652 0.98394 0.0
C266 C 0.92775 0.23841 0.98036 0.0
C267 C 0.96068 0.19616 0.98582 0.0
C268 C 0.82956 0.27729 0.97244 0.0
C269 C 0.83014 0.32039 0.98851 0.0
C270 C 0.78897 0.27137 0.9477 0.0
C271 C 0.78548 0.22589 0.93041 0.0
C272 C 0.83472 0.20896 0.91528 0.0
C273 C 0.83147 0.16518 0.89996 0.0
C274 C 0.77911 0.13815 0.89951 0.0
C275 C 0.72983 0.15492 0.91428 0.0
C276 C 0.73286 0.19866 0.92962 0.0
C277 C 0.67822 0.47294 0.93374 0.0
C278 C 0.61989 0.4583 0.92891 0.0
C279 C 0.7205 0.43839 0.94238 0.0
C280 C 0.70457 0.38889 0.9471 0.0
C281 C 0.64581 0.37465 0.94224 0.0
C282 C 0.60399 0.40903 0.93302 0.0
C283 C 0.74882 0.35151 0.95636 0.0
C284 C 0.74973 0.30868 0.93977 0.0
C285 C 0.78938 0.35717 0.98134 0.0
C286 C 0.78737 0.39847 0.00227 0.0
C287 C 0.73537 0.40904 0.01748 0.0
C288 C 0.7348 0.44595 0.03876 0.0
C289 C 0.78614 0.47206 0.04537 0.0
C290 C 0.83799 0.46183 0.03037 0.0
C291 C 0.83869 0.42527 0.00887 0.0
H292 H 0.7857 0.50035 0.06205 0.0
H293 H 0.7767 0.10422 0.8877 0.0
H294 H 0.64321 0.67544 0.55053 0.0
H295 H 0.67938 0.75832 0.55334 0.0
H296 H 0.71555 0.76248 0.45494 0.0
H297 H 0.6852 0.67668 0.45327 0.0
H298 H 0.80651 0.78527 0.48115 0.0
H299 H 0.61151 0.84357 0.49868 0.0
H300 H 0.51598 0.84096 0.52471 0.0
H301 H 0.60182 0.86001 0.61296 0.0
H302 H 0.69779 0.86204 0.58756 0.0
H303 H 0.86582 0.05341 0.53744 0.0
H304 H 0.80168 0.99066 0.51521 0.0
H305 H 0.92468 0.88031 0.54564 0.0
H306 H 0.98934 0.94317 0.56636 0.0
H307 H 0.74691 0.91993 0.54579 0.0
H308 H 0.91904 0.79057 0.51595 0.0
H309 H 0.00941 0.7781 0.48691 0.0
H310 H 0.96331 0.89478 0.42161 0.0
H311 H 0.87325 0.90848 0.45078 0.0
C312 C 0.65554 0.69498 0.52906 0.0
C313 C 0.66061 0.6698 0.50159 0.0
C314 C 0.67661 0.74283 0.53069 0.0
C315 C 0.70031 0.76766 0.50434 0.0
C316 C 0.69796 0.74438 0.47576 0.0
C317 C 0.67922 0.69558 0.47452 0.0
C318 C 0.73638 0.8133 0.50773 0.0
C319 C 0.79245 0.81507 0.49478 0.0
C320 C 0.71969 0.85219 0.52614 0.0
C321 C 0.6618 0.85294 0.54117 0.0
C322 C 0.60996 0.84722 0.52363 0.0
C323 C 0.55575 0.84576 0.53829 0.0
C324 C 0.55284 0.85033 0.57046 0.0
C325 C 0.60411 0.85657 0.58804 0.0
C326 C 0.65841 0.858 0.57351 0.0
C327 C 0.87952 0.01585 0.53853 0.0
C328 C 0.93227 0.00291 0.55359 0.0
C329 C 0.84292 0.97998 0.52597 0.0
C330 C 0.85848 0.93055 0.52825 0.0
C331 C 0.91213 0.91805 0.54261 0.0
C332 C 0.94877 0.95387 0.55488 0.0
C333 C 0.81621 0.89166 0.51887 0.0
C334 C 0.75958 0.89084 0.53121 0.0
C335 C 0.83229 0.85325 0.50018 0.0
C336 C 0.89017 0.85093 0.48569 0.0
C337 C 0.92897 0.81418 0.49576 0.0
C338 C 0.97994 0.80679 0.47928 0.0
C339 C 0.99194 0.83544 0.4524 0.0
C340 C 0.95404 0.8727 0.44253 0.0
C341 C 0.90331 0.88063 0.4592 0.0
H342 H 0.03033 0.82822 0.4391 0.0
H343 H 0.51084 0.84904 0.58177 0.0
H344 H 0.62768 0.39077 0.46101 0.0
H345 H 0.67681 0.31372 0.45068 0.0
H346 H 0.81479 0.34959 0.51558 0.0
H347 H 0.76693 0.42474 0.52608 0.0
H348 H 0.85414 0.32945 0.45602 0.0
H349 H 0.72479 0.26413 0.53644 0.0
H350 H 0.62825 0.24496 0.55921 0.0
H351 H 0.58174 0.1601 0.48089 0.0
H352 H 0.67776 0.17936 0.45746 0.0
H353 H 0.04032 0.12921 0.45589 0.0
H354 H 0.97896 0.19453 0.47238 0.0
H355 H 0.82531 0.11503 0.44154 0.0
H356 H 0.88672 0.04601 0.43129 0.0
H357 H 0.78856 0.15957 0.48131 0.0
H358 H 0.91794 0.22862 0.39858 0.0
H359 H 0.01494 0.24926 0.37654 0.0
H360 H 0.06033 0.32928 0.45717 0.0
H361 H 0.96383 0.30898 0.47965 0.0
C362 C 0.66801 0.38168 0.4733 0.0
C363 C 0.69393 0.41443 0.49384 0.0
C364 C 0.69603 0.33781 0.4674 0.0
C365 C 0.74989 0.32636 0.48212 0.0
C366 C 0.77381 0.35794 0.50366 0.0
C367 C 0.74624 0.40113 0.50952 0.0
C368 C 0.78444 0.2835 0.47417 0.0
C369 C 0.83977 0.29214 0.4613 0.0
C370 C 0.76564 0.23505 0.48093 0.0
C371 C 0.70807 0.22365 0.49504 0.0
C372 C 0.69373 0.2418 0.52393 0.0
C373 C 0.63917 0.23082 0.53699 0.0
C374 C 0.5988 0.20147 0.52146 0.0
C375 C 0.61298 0.18292 0.49287 0.0
C376 C 0.66745 0.19383 0.4797 0.0
C377 C 0.99325 0.12548 0.45356 0.0
C378 C 0.9681 0.08273 0.44245 0.0
C379 C 0.95794 0.1637 0.46189 0.0
C380 C 0.89687 0.16192 0.45664 0.0
C381 C 0.87194 0.11839 0.44587 0.0
C382 C 0.90705 0.07894 0.43957 0.0
C383 C 0.8589 0.20481 0.46211 0.0
C384 C 0.80292 0.19646 0.47492 0.0
C385 C 0.87687 0.25385 0.4549 0.0
C386 C 0.9339 0.26718 0.44076 0.0
C387 C 0.94863 0.25072 0.4115 0.0
C388 C 1.00352 0.2623 0.39898 0.0
C389 C 0.04376 0.29053 0.41545 0.0
C390 C 0.02913 0.30748 0.44441 0.0
C391 C 0.97433 0.29609 0.457 0.0
H392 H 0.08629 0.2993 0.40577 0.0
H393 H 0.55659 0.19298 0.53161 0.0
H394 H 0.43188 0.37487 0.46824 0.0
H395 H 0.36646 0.31169 0.48949 0.0
H396 H 0.35978 0.38574 0.57567 0.0
H397 H 0.42255 0.45156 0.55312 0.0
H398 H 0.35626 0.24757 0.53088 0.0
H399 H 0.2564 0.38621 0.60236 0.0
H400 H 0.23121 0.47347 0.60062 0.0
H401 H 0.18895 0.46796 0.50314 0.0
H402 H 0.21533 0.38109 0.5043 0.0
H403 H 0.14294 0.0925 0.59583 0.0
H404 H 0.22049 0.15344 0.58818 0.0
H405 H 0.09776 0.25027 0.54101 0.0
H406 H 0.0185 0.19082 0.552 0.0
H407 H 0.16653 0.3041 0.56888 0.0
H408 H 0.20051 0.17948 0.50193 0.0
H409 H 0.21613 0.09869 0.48119 0.0
H410 H 0.37058 0.08159 0.53849 0.0
H411 H 0.35512 0.16182 0.56013 0.0
C412 C 0.4185 0.37667 0.49223 0.0
C413 C 0.43283 0.41786 0.50911 0.0
C414 C 0.38025 0.34072 0.5043 0.0
C415 C 0.35598 0.34456 0.53387 0.0
C416 C 0.37566 0.3829 0.55228 0.0
C417 C 0.41324 0.41972 0.53982 0.0
C418 C 0.30812 0.30975 0.54403 0.0
C419 C 0.31517 0.25988 0.53974 0.0
C420 C 0.25307 0.32561 0.55393 0.0
C421 C 0.23852 0.37773 0.55334 0.0
C422 C 0.24199 0.40384 0.58059 0.0
C423 C 0.22771 0.45318 0.57967 0.0
C424 C 0.20868 0.47629 0.55176 0.0
C425 C 0.20409 0.45015 0.52468 0.0
C426 C 0.2191 0.40102 0.52541 0.0
C427 C 0.13213 0.12733 0.58467 0.0
C428 C 0.0745 0.13694 0.57478 0.0
C429 C 0.17685 0.16192 0.57968 0.0
C430 C 0.16577 0.20639 0.56335 0.0
C431 C 0.10788 0.21636 0.55363 0.0
C432 C 0.06261 0.18212 0.55952 0.0
C433 C 0.21495 0.24158 0.55602 0.0
C434 C 0.20803 0.29141 0.56076 0.0
C435 C 0.26883 0.22612 0.5442 0.0
C436 C 0.2763 0.17645 0.5329 0.0
C437 C 0.23727 0.15815 0.5105 0.0
C438 C 0.24618 0.11252 0.4985 0.0
C439 C 0.29435 0.08509 0.50845 0.0
C440 C 0.33326 0.10287 0.53079 0.0
C441 C 0.32439 0.14838 0.54299 0.0
H442 H 0.30163 0.05018 0.49868 0.0
H443 H 0.19734 0.5144 0.55112 0.0
H444 H 0.35506 0.62855 0.51212 0.0
H445 H 0.30164 0.70441 0.50514 0.0
H446 H 0.45963 0.77954 0.4752 0.0
H447 H 0.51381 0.70293 0.48223 0.0
H448 H 0.36327 0.83292 0.51502 0.0
H449 H 0.39425 0.73855 0.42227 0.0
H450 H 0.39111 0.65911 0.39798 0.0
H451 H 0.20644 0.64634 0.41395 0.0
H452 H 0.20904 0.72454 0.43987 0.0
H453 H 0.1945 0.02098 0.4374 0.0
H454 H 0.27179 0.96241 0.45209 0.0
H455 H 0.14687 0.84393 0.44214 0.0
H456 H 0.07231 0.90294 0.42546 0.0
H457 H 0.23843 0.81632 0.42058 0.0
H458 H 0.19498 0.89384 0.51324 0.0
H459 H 0.18411 0.95777 0.55093 0.0
H460 H 0.36871 0.98891 0.54778 0.0
H461 H 0.38034 0.92674 0.50897 0.0
C462 C 0.37897 0.66165 0.50527 0.0
C463 C 0.43836 0.66 0.49754 0.0
C464 C 0.34838 0.7049 0.50125 0.0
C465 C 0.37653 0.74722 0.48921 0.0
C466 C 0.43728 0.74709 0.48454 0.0
C467 C 0.46821 0.70349 0.48868 0.0
C468 C 0.34038 0.7882 0.47697 0.0
C469 C 0.33683 0.8302 0.49398 0.0
C470 C 0.30386 0.78297 0.45043 0.0
C471 C 0.30197 0.73732 0.43321 0.0
C472 C 0.35305 0.71869 0.4208 0.0
C473 C 0.35136 0.67383 0.40673 0.0
C474 C 0.29856 0.64781 0.40421 0.0
C475 C 0.24732 0.66655 0.41586 0.0
C476 C 0.24893 0.71106 0.43035 0.0
C477 C 0.18455 0.98228 0.43796 0.0
C478 C 0.12811 0.96561 0.43022 0.0
C479 C 0.22823 0.94887 0.44667 0.0
C480 C 0.21533 0.89845 0.44863 0.0
C481 C 0.15853 0.88235 0.44068 0.0
C482 C 0.11574 0.91568 0.43135 0.0
C483 C 0.26027 0.86201 0.45873 0.0
C484 C 0.26548 0.82034 0.44128 0.0
C485 C 0.29598 0.8666 0.48582 0.0
C486 C 0.28839 0.90611 0.50773 0.0
C487 C 0.2331 0.915 0.52005 0.0
C488 C 0.2268 0.9509 0.54168 0.0
C489 C 0.27565 0.97747 0.5517 0.0
C490 C 0.33085 0.96842 0.53994 0.0
C491 C 0.33725 0.93313 0.51794 0.0
H492 H 0.27077 0.00509 0.56857 0.0
H493 H 0.29737 0.61311 0.39328 0.0
H494 H 0.03756 0.08522 0.11115 0.0
H495 H 0.03261 0.07213 0.16788 0.0
H496 H 0.08751 0.92385 0.1601 0.0
H497 H 0.09166 0.93685 0.10334 0.0
H498 H 0.00573 0.93773 0.20959 0.0
H499 H 0.18841 0.0097 0.16743 0.0
H500 H 0.24142 0.07374 0.13647 0.0
H501 H 0.17344 0.18308 0.19356 0.0
H502 H 0.11932 0.11979 0.22451 0.0
H503 H 0.07137 0.92098 0.36896 0.0
H504 H 0.08994 0.91157 0.31359 0.0
H505 H 0.10476 0.06834 0.30028 0.0
H506 H 0.09561 0.07626 0.35588 0.0
H507 H 0.15854 0.04008 0.25904 0.0
H508 H 0.96588 0.98595 0.29472 0.0
H509 H 0.89717 0.93327 0.32528 0.0
H510 H 0.96118 0.80725 0.28206 0.0
H511 H 0.03079 0.85918 0.25158 0.0
C512 C 0.0457 0.04924 0.12154 0.0
C513 C 0.06403 0.01173 0.10316 0.0
C514 C 0.0435 0.04191 0.15387 0.0
C515 C 0.06066 0.99725 0.16812 0.0
C516 C 0.07407 0.95849 0.14951 0.0
C517 C 0.07608 0.96581 0.11716 0.0
C518 C 0.0723 0.99304 0.20208 0.0
C519 C 0.0393 0.95983 0.22054 0.0
C520 C 0.11546 0.02247 0.21627 0.0
C521 C 0.14977 0.06004 0.19821 0.0
C522 C 0.18473 0.0474 0.17332 0.0
C523 C 0.21489 0.08358 0.15576 0.0
C524 C 0.21081 0.13244 0.16304 0.0
C525 C 0.17663 0.14524 0.18795 0.0
C526 C 0.14627 0.10924 0.20552 0.0
C527 C 0.08192 0.9529 0.35433 0.0
C528 C 0.08149 0.99944 0.36634 0.0
C529 C 0.09089 0.94778 0.32248 0.0
C530 C 0.09554 0.98936 0.30208 0.0
C531 C 0.10073 0.03538 0.31496 0.0
C532 C 0.0953 0.04011 0.34683 0.0
C533 C 0.08962 0.98651 0.26753 0.0
C534 C 0.12459 0.01786 0.24855 0.0
C535 C 0.04598 0.95728 0.25311 0.0
C536 C 1.0038 0.92628 0.27115 0.0
C537 C 0.96532 0.94698 0.29183 0.0
C538 C 0.92632 0.91727 0.30915 0.0
C539 C 0.9249 0.86693 0.30566 0.0
C540 C 0.96241 0.84622 0.28479 0.0
C541 C 1.00165 0.87574 0.26751 0.0
H542 H 0.89464 0.84399 0.31908 0.0
H543 H 0.23415 0.1604 0.1494 0.0
H544 H 0.15952 0.0425 0.89804 0.0
H545 H 0.17574 0.0634 0.8421 0.0
H546 H 0.99403 0.10064 0.83067 0.0
H547 H 0.97816 0.08161 0.88554 0.0
H548 H 0.05206 0.01436 0.79536 0.0
H549 H 0.04183 0.18414 0.81838 0.0
H550 H 0.07365 0.25698 0.84579 0.0
H551 H 0.2442 0.24946 0.80595 0.0
H552 H 0.2137 0.1755 0.77901 0.0
H553 H 0.99084 0.14419 0.64097 0.0
H554 H 0.01657 0.15286 0.69632 0.0
H555 H 0.13516 0.03294 0.69228 0.0
H556 H 0.10679 0.02297 0.63761 0.0
H557 H 0.11869 0.16356 0.73546 0.0
H558 H 0.1044 0.96077 0.73482 0.0
H559 H 0.05059 0.89649 0.7072 0.0
H560 H 0.8963 0.98365 0.70367 0.0
H561 H 0.94977 0.04871 0.7306 0.0
C562 C 0.12388 0.05674 0.88365 0.0
C563 C 0.0675 0.05984 0.89584 0.0
C564 C 0.13302 0.06851 0.85187 0.0
C565 C 0.08593 0.08359 0.83249 0.0
C566 C 0.0309 0.08945 0.84529 0.0
C567 C 0.02195 0.07825 0.87663 0.0
C568 C 0.0902 0.08633 0.79826 0.0
C569 C 0.06826 0.04647 0.78232 0.0
C570 C 0.10767 0.12933 0.78134 0.0
C571 C 0.12599 0.1737 0.79732 0.0
C572 C 0.08645 0.19744 0.81595 0.0
C573 C 0.10415 0.23904 0.8313 0.0
C574 C 0.16105 0.25767 0.82778 0.0
C575 C 0.20024 0.23482 0.8088 0.0
C576 C 0.18282 0.193 0.79354 0.0
C577 C 0.02341 0.12071 0.65198 0.0
C578 C 0.04701 0.08293 0.63563 0.0
C579 C 0.03829 0.12574 0.68335 0.0
C580 C 0.07743 0.09328 0.69838 0.0
C581 C 0.10444 0.058 0.68114 0.0
C582 C 0.0885 0.0523 0.6501 0.0
C583 C 0.08288 0.09075 0.73274 0.0
C584 C 0.10513 0.13074 0.7486 0.0
C585 C 0.06306 0.04877 0.74992 0.0
C586 C 0.03083 0.00919 0.73467 0.0
C587 C 0.05892 0.96591 0.72825 0.0
C588 C 0.02863 0.92957 0.71256 0.0
C589 C 0.97003 0.93595 0.70373 0.0
C590 C 0.94164 0.97873 0.71052 0.0
C591 C 0.97198 0.01543 0.7258 0.0
H592 H 0.94666 0.90779 0.69159 0.0
H593 H 0.17467 0.28996 0.83963 0.0
H594 H 0.52313 0.45871 0.59717 0.0
H595 H 0.51327 0.44136 0.65367 0.0
H596 H 0.61876 0.56914 0.67159 0.0
H597 H 0.62925 0.58587 0.61583 0.0
H598 H 0.66125 0.49078 0.70252 0.0
H599 H 0.47379 0.56549 0.68622 0.0
H600 H 0.37632 0.57471 0.6615 0.0
H601 H 0.32774 0.42983 0.69447 0.0
H602 H 0.42532 0.41957 0.71903 0.0
H603 H 0.62542 0.54287 0.85981 0.0
H604 H 0.6346 0.53607 0.80375 0.0
H605 H 0.51505 0.4124 0.80721 0.0
H606 H 0.50336 0.42197 0.86341 0.0
H607 H 0.48025 0.47361 0.76438 0.0
H608 H 0.67019 0.40678 0.78769 0.0
H609 H 0.76754 0.40521 0.81325 0.0
H610 H 0.8124 0.54286 0.76753 0.0
H611 H 0.71514 0.54557 0.74206 0.0
C612 C 0.54273 0.48361 0.61329 0.0
C613 C 0.57719 0.52341 0.60229 0.0
C614 C 0.53745 0.47359 0.64549 0.0
C615 C 0.56606 0.50361 0.66686 0.0
C616 C 0.59713 0.54504 0.65562 0.0
C617 C 0.60273 0.55475 0.62375 0.0
C618 C 0.5671 0.49117 0.70088 0.0
C619 C 0.62166 0.48709 0.71609 0.0
C620 C 0.51563 0.48522 0.7185 0.0
C621 C 0.45695 0.49153 0.70408 0.0
C622 C 0.44244 0.53548 0.68797 0.0
C623 C 0.38719 0.54092 0.67403 0.0
C624 C 0.34593 0.50281 0.67631 0.0
C625 C 0.35978 0.45927 0.69266 0.0
C626 C 0.41502 0.45362 0.7066 0.0
C627 C 0.60329 0.51302 0.84864 0.0
C628 C 0.5646 0.4824 0.86561 0.0
C629 C 0.60832 0.50906 0.81658 0.0
C630 C 0.5761 0.47324 0.80103 0.0
C631 C 0.54047 0.44028 0.81858 0.0
C632 C 0.5344 0.44512 0.85064 0.0
C633 C 0.57465 0.47409 0.76632 0.0
C634 C 0.51998 0.47606 0.75087 0.0
C635 C 0.62619 0.47882 0.74848 0.0
C636 C 0.68535 0.47637 0.76303 0.0
C637 C 0.70082 0.43672 0.78314 0.0
C638 C 0.75596 0.43567 0.79763 0.0
C639 C 0.79612 0.47392 0.79203 0.0
C640 C 0.78131 0.51322 0.77183 0.0
C641 C 0.72624 0.51447 0.7573 0.0
H642 H 0.83873 0.47309 0.80334 0.0
H643 H 0.30318 0.50706 0.66547 0.0
H644 H 0.61398 0.61753 0.40123 0.0
H645 H 0.63744 0.63426 0.34589 0.0
H646 H 0.56124 0.49506 0.32377 0.0
H647 H 0.5375 0.47877 0.37835 0.0
H648 H 0.66035 0.51633 0.28994 0.0
H649 H 0.47782 0.59836 0.31722 0.0
H650 H 0.42263 0.65821 0.34544 0.0
H651 H 0.54086 0.77235 0.3134 0.0
H652 H 0.59634 0.71306 0.28463 0.0
H653 H 0.53788 0.50233 0.14233 0.0
H654 H 0.56669 0.50429 0.19638 0.0
H655 H 0.57894 0.66165 0.18804 0.0
H656 H 0.53541 0.65927 0.13577 0.0
H657 H 0.54179 0.64662 0.23806 0.0
H658 H 0.7055 0.56436 0.19676 0.0
H659 H 0.75222 0.50255 0.16601 0.0
H660 H 0.67443 0.38828 0.22397 0.0
H661 H 0.6267 0.44919 0.25478 0.0
C662 C 0.60389 0.59011 0.38457 0.0
C663 C 0.57395 0.54688 0.39395 0.0
C664 C 0.61686 0.59979 0.35299 0.0
C665 C 0.60069 0.56602 0.33061 0.0
C666 C 0.57431 0.52161 0.34051 0.0
C667 C 0.56067 0.51234 0.37173 0.0
C668 C 0.60547 0.57752 0.29657 0.0
C669 C 0.63514 0.54514 0.27838 0.0
C670 C 0.57417 0.61599 0.28154 0.0
C671 C 0.54154 0.65131 0.29919 0.0
C672 C 0.49223 0.63617 0.31642 0.0
C673 C 0.46087 0.66999 0.33247 0.0
C674 C 0.47852 0.71901 0.33151 0.0
C675 C 0.52737 0.73435 0.31426 0.0
C676 C 0.55867 0.7007 0.298 0.0
C677 C 0.54543 0.53739 0.15225 0.0
C678 C 0.53236 0.58056 0.13508 0.0
C679 C 0.56443 0.53858 0.18312 0.0
C680 C 0.57782 0.58309 0.19676 0.0
C681 C 0.56911 0.62655 0.17858 0.0
C682 C 0.54518 0.62531 0.14838 0.0
C683 C 0.59518 0.58412 0.23057 0.0
C684 C 0.56956 0.61893 0.24892 0.0
C685 C 0.63104 0.54804 0.24566 0.0
C686 C 0.66274 0.51149 0.22821 0.0
C687 C 0.69864 0.52607 0.20305 0.0
C688 C 0.72511 0.49115 0.18554 0.0
C689 C 0.71636 0.44154 0.19306 0.0
C690 C 0.68136 0.42671 0.21823 0.0
C691 C 0.65477 0.46142 0.2358 0.0
H692 H 0.73667 0.41459 0.17939 0.0
H693 H 0.45417 0.74511 0.34399 0.0
loop_
_geom_bond_atom_site_label_1
_geom_bond_atom_site_label_2
_geom_bond_distance
_geom_bond_site_symmetry_2
_ccdc_geom_bond_type
O0 Mn1 2.163 . S
O0 C14 1.244 1_454 S
Mn1 O0 2.163 . S
Mn1 O4 2.160 1_545 S
Mn1 O5 2.221 . S
Mn1 O7 2.163 . S
Mn1 O9 2.160 1_554 S
Mn1 O19 2.208 1_444 S
O2 Mn3 2.087 . S
O2 C14 1.256 . S
Mn3 O2 2.087 . S
Mn3 O10 2.089 . S
Mn3 O19 2.301 1_545 S
Mn3 O20 2.251 1_546 S
O4 Mn1 2.160 1_565 S
O4 C15 1.239 . S
O5 Mn1 2.221 . S
O5 Mn6 2.290 . S
O5 C16 1.278 . S
Mn6 O5 2.290 . S
Mn6 O8 2.089 1_545 S
Mn6 O11 2.251 . S
Mn6 O12 2.087 . S
O7 Mn1 2.163 . S
O7 C17 1.244 . S
O8 Mn6 2.089 1_565 S
O8 C15 1.256 . S
O9 Mn1 2.160 1_556 S
O9 C18 1.239 . S
O10 Mn3 2.089 . S
O10 C18 1.256 1_655 S
O11 Mn6 2.251 . S
O11 C16 1.241 . S
O12 Mn6 2.087 . S
O12 C17 1.256 . S
C13 O19 1.291 1_554 S
C13 O20 1.241 . S
C14 O0 1.244 1_656 S
C14 O2 1.256 . S
C15 O4 1.239 . S
C15 O8 1.256 . S
C16 O5 1.278 . S
C16 O11 1.241 . S
C17 O7 1.244 . S
C17 O12 1.256 . S
C18 O9 1.239 . S
C18 O10 1.256 1_455 S
O19 Mn1 2.208 1_666 S
O19 Mn3 2.301 1_565 S
O19 C13 1.291 1_556 S
O20 Mn3 2.251 1_564 S
O20 C13 1.241 . S
O21 Mn22 2.163 . S
O21 C35 1.244 . S
Mn22 O21 2.163 . S
Mn22 O25 2.160 . S
Mn22 O26 2.221 . S
Mn22 O28 2.163 . S
Mn22 O30 2.160 . S
Mn22 O40 2.221 . S
O23 Mn24 2.087 . S
O23 C35 1.256 . S
Mn24 O23 2.087 . S
Mn24 O31 2.089 . S
Mn24 O40 2.290 . S
Mn24 O41 2.251 . S
O25 Mn22 2.160 . S
O25 C36 1.239 . S
O26 Mn22 2.221 . S
O26 Mn27 2.290 . S
O26 C37 1.278 . S
Mn27 O26 2.290 . S
Mn27 O29 2.089 . S
Mn27 O32 2.251 . S
Mn27 O33 2.087 . S
O28 Mn22 2.163 . S
O28 C38 1.244 . S
O29 Mn27 2.089 . S
O29 C36 1.256 . S
O30 Mn22 2.160 . S
O30 C39 1.239 . S
O31 Mn24 2.089 . S
O31 C39 1.256 . S
O32 Mn27 2.251 . S
O32 C37 1.241 . S
O33 Mn27 2.087 . S
O33 C38 1.256 . S
C34 O40 1.278 . S
C34 O41 1.241 . S
C35 O21 1.244 . S
C35 O23 1.256 . S
C36 O25 1.239 . S
C36 O29 1.256 . S
C37 O26 1.278 . S
C37 O32 1.241 . S
C38 O28 1.244 . S
C38 O33 1.256 . S
C39 O30 1.239 . S
C39 O31 1.256 . S
O40 Mn22 2.221 . S
O40 Mn24 2.290 . S
O40 C34 1.278 . S
O41 Mn24 2.251 . S
O41 C34 1.241 . S
C42 N43 1.317 1_545 S
C42 N44 1.348 . S
C42 C45 1.488 . S
N43 C42 1.317 1_565 S
N43 N47 1.370 1_565 S
N44 C42 1.348 . S
N44 C46 1.346 . S
C45 C42 1.488 . S
C45 H49 0.947 1_545 S
C45 H50 0.982 . S
C45 H51 0.949 1_545 S
C46 N44 1.346 . S
C46 N47 1.307 . S
C46 C48 1.486 1_455 S
N47 N43 1.370 1_545 S
N47 C46 1.307 . S
C48 C46 1.486 1_655 S
C48 H52 0.960 . S
C48 H53 0.960 . S
C48 H54 0.959 . S
H49 C45 0.947 1_565 S
H50 C45 0.982 . S
H51 C45 0.949 1_565 S
H52 C48 0.960 . S
H53 C48 0.960 . S
H54 C48 0.959 . S
C55 N56 1.317 . S
C55 N57 1.348 1_455 S
C55 C58 1.485 . S
N56 C55 1.317 . S
N56 N60 1.370 . S
N57 C55 1.348 1_655 S
N57 C59 1.346 . S
C58 C55 1.485 . S
C58 H62 0.960 1_455 S
C58 H63 0.961 . S
C58 H64 0.960 . S
C59 N57 1.346 . S
C59 N60 1.307 1_655 S
C59 C61 1.486 . S
N60 N56 1.370 . S
N60 C59 1.307 1_455 S
C61 C59 1.486 . S
C61 H65 0.960 1_545 S
C61 H66 0.960 . S
C61 H67 0.959 . S
H62 C58 0.960 1_655 S
H63 C58 0.961 . S
H64 C58 0.960 . S
H65 C61 0.960 1_565 S
H66 C61 0.960 . S
H67 C61 0.959 . S
C68 N69 1.317 . S
C68 N70 1.348 . S
C68 C71 1.485 1_556 S
N69 C68 1.317 . S
N69 N73 1.370 . S
N70 C68 1.348 . S
N70 C72 1.346 . S
C71 C68 1.485 1_554 S
C71 H75 0.960 . S
C71 H76 0.961 . S
C71 H77 0.960 . S
C72 N70 1.346 . S
C72 N73 1.307 . S
C72 C74 1.486 . S
N73 N69 1.370 . S
N73 C72 1.307 . S
C74 C72 1.486 . S
C74 H78 0.960 . S
C74 H79 0.960 . S
C74 H80 0.959 . S
H75 C71 0.960 . S
H76 C71 0.961 . S
H77 C71 0.960 . S
H78 C74 0.960 . S
H79 C74 0.960 . S
H80 C74 0.959 . S
C81 N82 1.317 . S
C81 N83 1.348 . S
C81 C84 1.485 . S
N82 C81 1.317 . S
N82 N86 1.370 . S
N83 C81 1.348 . S
N83 C85 1.346 . S
C84 C81 1.485 . S
C84 H88 0.960 . S
C84 H89 0.976 . S
C84 H90 0.960 . S
C85 N83 1.346 . S
C85 N86 1.307 . S
C85 C87 1.486 . S
N86 N82 1.370 . S
N86 C85 1.307 . S
C87 C85 1.486 . S
C87 H91 0.960 . S
C87 H92 0.960 . S
C87 H93 0.959 . S
H88 C84 0.960 . S
H89 C84 0.976 . S
H90 C84 0.960 . S
H91 C87 0.960 . S
H92 C87 0.960 . S
H93 C87 0.959 . S
H94 C112 0.951 . S
H95 C114 0.951 . S
H96 C116 0.950 . S
H97 C117 0.950 . S
H98 C119 0.950 . S
H99 C122 0.950 . S
H100 C123 0.950 . S
H101 C125 0.950 . S
H102 C126 0.950 . S
H103 C127 0.951 . S
H104 C129 0.951 . S
H105 C131 0.950 . S
H106 C132 0.950 . S
H107 C134 0.950 . S
H108 C137 0.950 . S
H109 C138 0.950 . S
H110 C140 0.950 . S
H111 C141 0.950 1_556 S
C112 H94 0.951 . S
C112 C113 1.366 . S
C112 C114 1.388 . S
C113 C112 1.366 . S
C113 C117 1.385 1_554 S
C114 H95 0.951 . S
C114 C112 1.388 . S
C114 C115 1.366 . S
C115 C114 1.366 . S
C115 C116 1.414 1_554 S
C115 C118 1.499 . S
C116 H96 0.950 . S
C116 C115 1.414 1_556 S
C116 C117 1.374 . S
C117 H97 0.950 . S
C117 C113 1.385 1_556 S
C117 C116 1.374 . S
C118 C115 1.499 . S
C118 C119 1.373 . S
C118 C120 1.389 . S
C119 H98 0.950 . S
C119 C118 1.373 . S
C119 C135 1.377 . S
C120 C118 1.389 . S
C120 C121 1.524 . S
C120 C134 1.377 . S
C121 C120 1.524 . S
C121 C122 1.397 1_554 S
C121 C126 1.363 . S
C122 H99 0.950 . S
C122 C121 1.397 1_556 S
C122 C123 1.334 . S
C123 H100 0.950 . S
C123 C122 1.334 . S
C123 C124 1.310 . S
C124 C123 1.310 . S
C124 C125 1.491 1_556 S
C124 H143 0.922 . S
C125 H101 0.950 . S
C125 C124 1.491 1_554 S
C125 C126 1.415 . S
C126 H102 0.950 . S
C126 C121 1.363 . S
C126 C125 1.415 . S
C127 H103 0.951 . S
C127 C128 1.366 . S
C127 C129 1.388 . S
C128 C127 1.366 . S
C128 C132 1.385 . S
C129 H104 0.951 . S
C129 C127 1.388 . S
C129 C130 1.366 . S
C130 C129 1.366 . S
C130 C131 1.414 . S
C130 C133 1.499 . S
C131 H105 0.950 . S
C131 C130 1.414 . S
C131 C132 1.374 . S
C132 H106 0.950 . S
C132 C128 1.385 . S
C132 C131 1.374 . S
C133 C130 1.499 . S
C133 C134 1.373 . S
C133 C135 1.389 . S
C134 H107 0.950 . S
C134 C120 1.377 . S
C134 C133 1.373 . S
C135 C119 1.377 . S
C135 C133 1.389 . S
C135 C136 1.524 . S
C136 C135 1.524 . S
C136 C137 1.397 . S
C136 C141 1.363 . S
C137 H108 0.950 . S
C137 C136 1.397 . S
C137 C138 1.334 . S
C138 H109 0.950 . S
C138 C137 1.334 . S
C138 C139 1.287 . S
C139 C138 1.287 . S
C139 C140 1.524 . S
C139 H142 0.999 . S
C140 H110 0.950 . S
C140 C139 1.524 . S
C140 C141 1.415 . S
C141 H111 0.950 1_554 S
C141 C136 1.363 . S
C141 C140 1.415 . S
H142 C139 0.999 . S
H143 C124 0.922 . S
H144 C162 0.951 . S
H145 C164 0.951 . S
H146 C166 0.950 . S
H147 C167 0.950 . S
H148 C169 0.950 . S
H149 C172 0.950 . S
H150 C173 0.950 . S
H151 C175 0.950 . S
H152 C176 0.950 1_556 S
H153 C177 0.951 . S
H154 C179 0.951 . S
H155 C181 0.950 . S
H156 C182 0.950 . S
H157 C184 0.955 . S
H158 C187 0.950 . S
H159 C188 0.950 . S
H160 C190 0.950 . S
H161 C191 0.950 . S
C162 H144 0.951 . S
C162 C163 1.366 1_556 S
C162 C164 1.388 . S
C163 C162 1.366 1_554 S
C163 C167 1.385 . S
C164 H145 0.951 . S
C164 C162 1.388 . S
C164 C165 1.355 1_556 S
C165 C164 1.355 1_554 S
C165 C166 1.430 . S
C165 C168 1.493 1_554 S
C166 H146 0.950 . S
C166 C165 1.430 . S
C166 C167 1.374 . S
C167 H147 0.950 . S
C167 C163 1.385 . S
C167 C166 1.374 . S
C168 C165 1.493 1_556 S
C168 C169 1.373 . S
C168 C170 1.389 1_556 S
C169 H148 0.950 . S
C169 C168 1.373 . S
C169 C185 1.377 . S
C170 C168 1.389 1_554 S
C170 C171 1.524 . S
C170 C184 1.377 1_554 S
C171 C170 1.524 . S
C171 C172 1.397 . S
C171 C176 1.363 . S
C172 H149 0.950 . S
C172 C171 1.397 . S
C172 C173 1.334 . S
C173 H150 0.950 . S
C173 C172 1.334 . S
C173 C174 1.287 . S
C174 C173 1.287 . S
C174 C175 1.524 . S
C174 H193 0.913 . S
C175 H151 0.950 . S
C175 C174 1.524 . S
C175 C176 1.415 . S
C176 H152 0.950 1_554 S
C176 C171 1.363 . S
C176 C175 1.415 . S
C177 H153 0.951 . S
C177 C178 1.366 . S
C177 C179 1.388 . S
C178 C177 1.366 . S
C178 C182 1.385 . S
C179 H154 0.951 . S
C179 C177 1.388 . S
C179 C180 1.366 . S
C180 C179 1.366 . S
C180 C181 1.414 . S
C180 C183 1.499 . S
C181 H155 0.950 . S
C181 C180 1.414 . S
C181 C182 1.374 . S
C182 H156 0.950 . S
C182 C178 1.385 . S
C182 C181 1.374 . S
C183 C180 1.499 . S
C183 C184 1.373 . S
C183 C185 1.389 . S
C184 H157 0.955 . S
C184 C170 1.377 1_556 S
C184 C183 1.373 . S
C185 C169 1.377 . S
C185 C183 1.389 . S
C185 C186 1.524 . S
C186 C185 1.524 . S
C186 C187 1.397 . S
C186 C191 1.363 . S
C187 H158 0.950 . S
C187 C186 1.397 . S
C187 C188 1.334 . S
C188 H159 0.950 . S
C188 C187 1.334 . S
C188 C189 1.287 . S
C189 C188 1.287 . S
C189 C190 1.524 . S
C189 H192 0.999 . S
C190 H160 0.950 . S
C190 C189 1.524 . S
C190 C191 1.415 . S
C191 H161 0.950 . S
C191 C186 1.363 . S
C191 C190 1.415 . S
H192 C189 0.999 . S
H193 C174 0.913 . S
H194 C212 0.951 1_556 S
H195 C214 0.951 1_556 S
H196 C216 0.950 . S
H197 C217 0.950 . S
H198 C219 0.950 . S
H199 C222 0.950 . S
H200 C223 0.950 . S
H201 C225 0.950 . S
H202 C226 0.950 . S
H203 C227 0.951 . S
H204 C229 0.951 . S
H205 C231 0.950 . S
H206 C232 0.950 . S
H207 C234 0.950 . S
H208 C237 0.950 . S
H209 C238 0.950 1_556 S
H210 C240 0.950 . S
H211 C241 0.950 . S
C212 H194 0.951 1_554 S
C212 C213 1.366 . S
C212 C214 1.388 . S
C213 C212 1.366 . S
C213 C217 1.385 . S
C214 H195 0.951 1_554 S
C214 C212 1.388 . S
C214 C215 1.366 . S
C215 C214 1.366 . S
C215 C216 1.414 . S
C215 C218 1.499 . S
C216 H196 0.950 . S
C216 C215 1.414 . S
C216 C217 1.374 . S
C217 H197 0.950 . S
C217 C213 1.385 . S
C217 C216 1.374 . S
C218 C215 1.499 . S
C218 C219 1.373 . S
C218 C220 1.389 . S
C219 H198 0.950 . S
C219 C218 1.373 . S
C219 C235 1.377 . S
C220 C218 1.389 . S
C220 C221 1.524 . S
C220 C234 1.377 . S
C221 C220 1.524 . S
C221 C222 1.397 . S
C221 C226 1.363 . S
C222 H199 0.950 . S
C222 C221 1.397 . S
C222 C223 1.334 . S
C223 H200 0.950 . S
C223 C222 1.334 . S
C223 C224 1.287 . S
C224 C223 1.287 . S
C224 C225 1.524 . S
C224 H243 0.913 1_565 S
C225 H201 0.950 . S
C225 C224 1.524 . S
C225 C226 1.415 . S
C226 H202 0.950 . S
C226 C221 1.363 . S
C226 C225 1.415 . S
C227 H203 0.951 . S
C227 C228 1.366 . S
C227 C229 1.388 . S
C228 C227 1.366 . S
C228 C232 1.385 . S
C229 H204 0.951 . S
C229 C227 1.388 . S
C229 C230 1.366 . S
C230 C229 1.366 . S
C230 C231 1.414 . S
C230 C233 1.499 . S
C231 H205 0.950 . S
C231 C230 1.414 . S
C231 C232 1.374 . S
C232 H206 0.950 . S
C232 C228 1.385 . S
C232 C231 1.374 . S
C233 C230 1.499 . S
C233 C234 1.373 . S
C233 C235 1.389 . S
C234 H207 0.950 . S
C234 C220 1.377 . S
C234 C233 1.373 . S
C235 C219 1.377 . S
C235 C233 1.389 . S
C235 C236 1.524 . S
C236 C235 1.524 . S
C236 C237 1.397 . S
C236 C241 1.363 . S
C237 H208 0.950 . S
C237 C236 1.397 . S
C237 C238 1.334 . S
C238 H209 0.950 1_554 S
C238 C237 1.334 . S
C238 C239 1.287 . S
C239 C238 1.287 . S
C239 C240 1.524 . S
C239 H242 0.999 . S
C240 H210 0.950 . S
C240 C239 1.524 . S
C240 C241 1.415 . S
C241 H211 0.950 . S
C241 C236 1.363 . S
C241 C240 1.415 . S
H242 C239 0.999 . S
H243 C224 0.913 1_545 S
H244 C262 0.951 1_554 S
H245 C264 0.951 . S
H246 C266 0.950 . S
H247 C267 0.950 1_455 S
H248 C269 0.950 1_554 S
H249 C272 0.950 . S
H250 C273 0.950 . S
H251 C275 0.950 . S
H252 C276 0.950 . S
H253 C277 0.951 . S
H254 C279 0.951 . S
H255 C281 0.950 . S
H256 C282 0.950 . S
H257 C284 0.950 . S
H258 C287 0.950 . S
H259 C288 0.950 . S
H260 C290 0.950 . S
H261 C291 0.950 1_556 S
C262 H244 0.951 1_556 S
C262 C263 1.366 . S
C262 C264 1.388 . S
C263 C262 1.366 . S
C263 C267 1.385 . S
C264 H245 0.951 . S
C264 C262 1.388 . S
C264 C265 1.366 . S
C265 C264 1.366 . S
C265 C266 1.414 . S
C265 C268 1.499 . S
C266 H246 0.950 . S
C266 C265 1.414 . S
C266 C267 1.374 . S
C267 H247 0.950 1_655 S
C267 C263 1.385 . S
C267 C266 1.374 . S
C268 C265 1.499 . S
C268 C269 1.373 . S
C268 C270 1.389 . S
C269 H248 0.950 1_556 S
C269 C268 1.373 . S
C269 C285 1.377 . S
C270 C268 1.389 . S
C270 C271 1.524 . S
C270 C284 1.377 . S
C271 C270 1.524 . S
C271 C272 1.397 . S
C271 C276 1.363 . S
C272 H249 0.950 . S
C272 C271 1.397 . S
C272 C273 1.334 . S
C273 H250 0.950 . S
C273 C272 1.334 . S
C273 C274 1.287 . S
C274 C273 1.287 . S
C274 C275 1.524 . S
C274 H293 0.913 . S
C275 H251 0.950 . S
C275 C274 1.524 . S
C275 C276 1.415 . S
C276 H252 0.950 . S
C276 C271 1.363 . S
C276 C275 1.415 . S
C277 H253 0.951 . S
C277 C278 1.366 . S
C277 C279 1.388 . S
C278 C277 1.366 . S
C278 C282 1.385 . S
C279 H254 0.951 . S
C279 C277 1.388 . S
C279 C280 1.366 . S
C280 C279 1.366 . S
C280 C281 1.414 . S
C280 C283 1.499 . S
C281 H255 0.950 . S
C281 C280 1.414 . S
C281 C282 1.374 . S
C282 H256 0.950 . S
C282 C278 1.385 . S
C282 C281 1.374 . S
C283 C280 1.499 . S
C283 C284 1.373 . S
C283 C285 1.389 . S
C284 H257 0.950 . S
C284 C270 1.377 . S
C284 C283 1.373 . S
C285 C269 1.377 . S
C285 C283 1.389 . S
C285 C286 1.524 1_556 S
C286 C285 1.524 1_554 S
C286 C287 1.397 . S
C286 C291 1.363 . S
C287 H258 0.950 . S
C287 C286 1.397 . S
C287 C288 1.334 . S
C288 H259 0.950 . S
C288 C287 1.334 . S
C288 C289 1.287 . S
C289 C288 1.287 . S
C289 C290 1.524 . S
C289 H292 0.999 . S
C290 H260 0.950 . S
C290 C289 1.524 . S
C290 C291 1.415 . S
C291 H261 0.950 1_554 S
C291 C286 1.363 . S
C291 C290 1.415 . S
H292 C289 0.999 . S
H293 C274 0.913 . S
H294 C312 0.951 . S
H295 C314 0.951 . S
H296 C316 0.950 . S
H297 C317 0.950 . S
H298 C319 0.950 . S
H299 C322 0.950 . S
H300 C323 0.950 . S
H301 C325 0.950 . S
H302 C326 0.950 . S
H303 C327 0.951 1_545 S
H304 C329 0.951 . S
H305 C331 0.950 . S
H306 C332 0.950 . S
H307 C334 0.950 . S
H308 C337 0.950 . S
H309 C338 0.950 . S
H310 C340 0.950 . S
H311 C341 0.950 . S
C312 H294 0.951 . S
C312 C313 1.366 . S
C312 C314 1.388 . S
C313 C312 1.366 . S
C313 C317 1.385 . S
C314 H295 0.951 . S
C314 C312 1.388 . S
C314 C315 1.366 . S
C315 C314 1.366 . S
C315 C316 1.414 . S
C315 C318 1.499 . S
C316 H296 0.950 . S
C316 C315 1.414 . S
C316 C317 1.374 . S
C317 H297 0.950 . S
C317 C313 1.385 . S
C317 C316 1.374 . S
C318 C315 1.499 . S
C318 C319 1.373 . S
C318 C320 1.389 . S
C319 H298 0.950 . S
C319 C318 1.373 . S
C319 C335 1.377 . S
C320 C318 1.389 . S
C320 C321 1.524 . S
C320 C334 1.377 . S
C321 C320 1.524 . S
C321 C322 1.397 . S
C321 C326 1.363 . S
C322 H299 0.950 . S
C322 C321 1.397 . S
C322 C323 1.334 . S
C323 H300 0.950 . S
C323 C322 1.334 . S
C323 C324 1.287 . S
C324 C323 1.287 . S
C324 C325 1.524 . S
C324 H343 0.913 . S
C325 H301 0.950 . S
C325 C324 1.524 . S
C325 C326 1.415 . S
C326 H302 0.950 . S
C326 C321 1.363 . S
C326 C325 1.415 . S
C327 H303 0.951 1_565 S
C327 C328 1.366 1_565 S
C327 C329 1.388 . S
C328 C327 1.366 1_545 S
C328 C332 1.385 1_545 S
C329 H304 0.951 . S
C329 C327 1.388 . S
C329 C330 1.366 . S
C330 C329 1.366 . S
C330 C331 1.414 . S
C330 C333 1.499 . S
C331 H305 0.950 . S
C331 C330 1.414 . S
C331 C332 1.374 . S
C332 H306 0.950 . S
C332 C328 1.385 1_565 S
C332 C331 1.374 . S
C333 C330 1.499 . S
C333 C334 1.373 . S
C333 C335 1.389 . S
C334 H307 0.950 . S
C334 C320 1.377 . S
C334 C333 1.373 . S
C335 C319 1.377 . S
C335 C333 1.389 . S
C335 C336 1.524 . S
C336 C335 1.524 . S
C336 C337 1.397 . S
C336 C341 1.363 . S
C337 H308 0.950 . S
C337 C336 1.397 . S
C337 C338 1.334 1_655 S
C338 H309 0.950 . S
C338 C337 1.334 1_455 S
C338 C339 1.287 . S
C339 C338 1.287 . S
C339 C340 1.524 1_455 S
C339 H342 0.999 . S
C340 H310 0.950 . S
C340 C339 1.524 1_655 S
C340 C341 1.415 . S
C341 H311 0.950 . S
C341 C336 1.363 . S
C341 C340 1.415 . S
H342 C339 0.999 . S
H343 C324 0.913 . S
H344 C362 0.951 . S
H345 C364 0.951 . S
H346 C366 0.950 . S
H347 C367 0.950 . S
H348 C369 0.950 . S
H349 C372 0.950 . S
H350 C373 0.950 . S
H351 C375 0.950 . S
H352 C376 0.950 . S
H353 C377 0.951 1_455 S
H354 C379 0.951 . S
H355 C381 0.950 . S
H356 C382 0.950 . S
H357 C384 0.950 . S
H358 C387 0.950 . S
H359 C388 0.950 . S
H360 C390 0.950 . S
H361 C391 0.950 . S
C362 H344 0.951 . S
C362 C363 1.366 . S
C362 C364 1.388 . S
C363 C362 1.366 . S
C363 C367 1.385 . S
C364 H345 0.951 . S
C364 C362 1.388 . S
C364 C365 1.366 . S
C365 C364 1.366 . S
C365 C366 1.414 . S
C365 C368 1.499 . S
C366 H346 0.950 . S
C366 C365 1.414 . S
C366 C367 1.374 . S
C367 H347 0.950 . S
C367 C363 1.385 . S
C367 C366 1.374 . S
C368 C365 1.499 . S
C368 C369 1.373 . S
C368 C370 1.389 . S
C369 H348 0.950 . S
C369 C368 1.373 . S
C369 C385 1.377 . S
C370 C368 1.389 . S
C370 C371 1.524 . S
C370 C384 1.377 . S
C371 C370 1.524 . S
C371 C372 1.397 . S
C371 C376 1.363 . S
C372 H349 0.950 . S
C372 C371 1.397 . S
C372 C373 1.334 . S
C373 H350 0.950 . S
C373 C372 1.334 . S
C373 C374 1.287 . S
C374 C373 1.287 . S
C374 C375 1.524 . S
C374 H393 0.913 . S
C375 H351 0.950 . S
C375 C374 1.524 . S
C375 C376 1.415 . S
C376 H352 0.950 . S
C376 C371 1.363 . S
C376 C375 1.415 . S
C377 H353 0.951 1_655 S
C377 C378 1.366 . S
C377 C379 1.388 . S
C378 C377 1.366 . S
C378 C382 1.385 . S
C379 H354 0.951 . S
C379 C377 1.388 . S
C379 C380 1.366 . S
C380 C379 1.366 . S
C380 C381 1.414 . S
C380 C383 1.499 . S
C381 H355 0.950 . S
C381 C380 1.414 . S
C381 C382 1.374 . S
C382 H356 0.950 . S
C382 C378 1.385 . S
C382 C381 1.374 . S
C383 C380 1.499 . S
C383 C384 1.373 . S
C383 C385 1.389 . S
C384 H357 0.950 . S
C384 C370 1.377 . S
C384 C383 1.373 . S
C385 C369 1.377 . S
C385 C383 1.389 . S
C385 C386 1.524 . S
C386 C385 1.524 . S
C386 C387 1.397 . S
C386 C391 1.363 . S
C387 H358 0.950 . S
C387 C386 1.397 . S
C387 C388 1.334 1_655 S
C388 H359 0.950 . S
C388 C387 1.334 1_455 S
C388 C389 1.287 . S
C389 C388 1.287 . S
C389 C390 1.524 . S
C389 H392 0.999 . S
C390 H360 0.950 . S
C390 C389 1.524 . S
C390 C391 1.415 1_455 S
C391 H361 0.950 . S
C391 C386 1.363 . S
C391 C390 1.415 1_655 S
H392 C389 0.999 . S
H393 C374 0.913 . S
H394 C412 0.951 . S
H395 C414 0.951 . S
H396 C416 0.950 . S
H397 C417 0.950 . S
H398 C419 0.950 . S
H399 C422 0.950 . S
H400 C423 0.950 . S
H401 C425 0.950 . S
H402 C426 0.950 . S
H403 C427 0.951 . S
H404 C429 0.951 . S
H405 C431 0.950 . S
H406 C432 0.950 . S
H407 C434 0.950 . S
H408 C437 0.950 . S
H409 C438 0.950 . S
H410 C440 0.950 . S
H411 C441 0.950 . S
C412 H394 0.951 . S
C412 C413 1.366 . S
C412 C414 1.388 . S
C413 C412 1.366 . S
C413 C417 1.385 . S
C414 H395 0.951 . S
C414 C412 1.388 . S
C414 C415 1.366 . S
C415 C414 1.366 . S
C415 C416 1.414 . S
C415 C418 1.499 . S
C416 H396 0.950 . S
C416 C415 1.414 . S
C416 C417 1.374 . S
C417 H397 0.950 . S
C417 C413 1.385 . S
C417 C416 1.374 . S
C418 C415 1.499 . S
C418 C419 1.373 . S
C418 C420 1.389 . S
C419 H398 0.950 . S
C419 C418 1.373 . S
C419 C435 1.377 . S
C420 C418 1.389 . S
C420 C421 1.524 . S
C420 C434 1.377 . S
C421 C420 1.524 . S
C421 C422 1.397 . S
C421 C426 1.363 . S
C422 H399 0.950 . S
C422 C421 1.397 . S
C422 C423 1.334 . S
C423 H400 0.950 . S
C423 C422 1.334 . S
C423 C424 1.287 . S
C424 C423 1.287 . S
C424 C425 1.524 . S
C424 H443 0.913 . S
C425 H401 0.950 . S
C425 C424 1.524 . S
C425 C426 1.415 . S
C426 H402 0.950 . S
C426 C421 1.363 . S
C426 C425 1.415 . S
C427 H403 0.951 . S
C427 C428 1.366 . S
C427 C429 1.388 . S
C428 C427 1.366 . S
C428 C432 1.385 . S
C429 H404 0.951 . S
C429 C427 1.388 . S
C429 C430 1.366 . S
C430 C429 1.366 . S
C430 C431 1.414 . S
C430 C433 1.499 . S
C431 H405 0.950 . S
C431 C430 1.414 . S
C431 C432 1.374 . S
C432 H406 0.950 . S
C432 C428 1.385 . S
C432 C431 1.374 . S
C433 C430 1.499 . S
C433 C434 1.373 . S
C433 C435 1.389 . S
C434 H407 0.950 . S
C434 C420 1.377 . S
C434 C433 1.373 . S
C435 C419 1.377 . S
C435 C433 1.389 . S
C435 C436 1.524 . S
C436 C435 1.524 . S
C436 C437 1.397 . S
C436 C441 1.363 . S
C437 H408 0.950 . S
C437 C436 1.397 . S
C437 C438 1.334 . S
C438 H409 0.950 . S
C438 C437 1.334 . S
C438 C439 1.287 . S
C439 C438 1.287 . S
C439 C440 1.524 . S
C439 H442 0.999 . S
C440 H410 0.950 . S
C440 C439 1.524 . S
C440 C441 1.415 . S
C441 H411 0.950 . S
C441 C436 1.363 . S
C441 C440 1.415 . S
H442 C439 0.999 . S
H443 C424 0.913 . S
H444 C462 0.951 . S
H445 C464 0.951 . S
H446 C466 0.950 . S
H447 C467 0.950 . S
H448 C469 0.950 . S
H449 C472 0.950 . S
H450 C473 0.950 . S
H451 C475 0.950 . S
H452 C476 0.950 . S
H453 C477 0.951 . S
H454 C479 0.951 . S
H455 C481 0.950 . S
H456 C482 0.950 . S
H457 C484 0.950 . S
H458 C487 0.950 . S
H459 C488 0.950 . S
H460 C490 0.950 . S
H461 C491 0.950 . S
C462 H444 0.951 . S
C462 C463 1.366 . S
C462 C464 1.388 . S
C463 C462 1.366 . S
C463 C467 1.385 . S
C464 H445 0.951 . S
C464 C462 1.388 . S
C464 C465 1.366 . S
C465 C464 1.366 . S
C465 C466 1.414 . S
C465 C468 1.499 . S
C466 H446 0.950 . S
C466 C465 1.414 . S
C466 C467 1.374 . S
C467 H447 0.950 . S
C467 C463 1.385 . S
C467 C466 1.374 . S
C468 C465 1.499 . S
C468 C469 1.373 . S
C468 C470 1.389 . S
C469 H448 0.950 . S
C469 C468 1.373 . S
C469 C485 1.377 . S
C470 C468 1.389 . S
C470 C471 1.524 . S
C470 C484 1.377 . S
C471 C470 1.524 . S
C471 C472 1.397 . S
C471 C476 1.363 . S
C472 H449 0.950 . S
C472 C471 1.397 . S
C472 C473 1.334 . S
C473 H450 0.950 . S
C473 C472 1.334 . S
C473 C474 1.287 . S
C474 C473 1.287 . S
C474 C475 1.524 . S
C474 H493 0.913 . S
C475 H451 0.950 . S
C475 C474 1.524 . S
C475 C476 1.415 . S
C476 H452 0.950 . S
C476 C471 1.363 . S
C476 C475 1.415 . S
C477 H453 0.951 . S
C477 C478 1.366 . S
C477 C479 1.388 . S
C478 C477 1.366 . S
C478 C482 1.385 . S
C479 H454 0.951 . S
C479 C477 1.388 . S
C479 C480 1.366 . S
C480 C479 1.366 . S
C480 C481 1.414 . S
C480 C483 1.499 . S
C481 H455 0.950 . S
C481 C480 1.414 . S
C481 C482 1.374 . S
C482 H456 0.950 . S
C482 C478 1.385 . S
C482 C481 1.374 . S
C483 C480 1.499 . S
C483 C484 1.373 . S
C483 C485 1.389 . S
C484 H457 0.950 . S
C484 C470 1.377 . S
C484 C483 1.373 . S
C485 C469 1.377 . S
C485 C483 1.389 . S
C485 C486 1.524 . S
C486 C485 1.524 . S
C486 C487 1.397 . S
C486 C491 1.363 . S
C487 H458 0.950 . S
C487 C486 1.397 . S
C487 C488 1.334 . S
C488 H459 0.950 . S
C488 C487 1.334 . S
C488 C489 1.287 . S
C489 C488 1.287 . S
C489 C490 1.524 . S
C489 H492 0.999 . S
C490 H460 0.950 . S
C490 C489 1.524 . S
C490 C491 1.415 . S
C491 H461 0.950 . S
C491 C486 1.363 . S
C491 C490 1.415 . S
H492 C489 0.999 . S
H493 C474 0.913 . S
H494 C512 0.951 . S
H495 C514 0.951 . S
H496 C516 0.950 . S
H497 C517 0.950 . S
H498 C519 0.950 . S
H499 C522 0.950 . S
H500 C523 0.950 . S
H501 C525 0.950 . S
H502 C526 0.950 . S
H503 C527 0.951 . S
H504 C529 0.951 . S
H505 C531 0.950 . S
H506 C532 0.950 . S
H507 C534 0.950 . S
H508 C537 0.950 . S
H509 C538 0.950 . S
H510 C540 0.950 . S
H511 C541 0.950 . S
C512 H494 0.951 . S
C512 C513 1.366 . S
C512 C514 1.388 . S
C513 C512 1.366 . S
C513 C517 1.385 1_545 S
C514 H495 0.951 . S
C514 C512 1.388 . S
C514 C515 1.366 . S
C515 C514 1.366 . S
C515 C516 1.414 1_545 S
C515 C518 1.499 . S
C516 H496 0.950 . S
C516 C515 1.414 1_565 S
C516 C517 1.374 . S
C517 H497 0.950 . S
C517 C513 1.385 1_565 S
C517 C516 1.374 . S
C518 C515 1.499 . S
C518 C519 1.373 1_545 S
C518 C520 1.389 . S
C519 H498 0.950 . S
C519 C518 1.373 1_565 S
C519 C535 1.377 . S
C520 C518 1.389 . S
C520 C521 1.524 . S
C520 C534 1.377 . S
C521 C520 1.524 . S
C521 C522 1.397 . S
C521 C526 1.363 . S
C522 H499 0.950 . S
C522 C521 1.397 . S
C522 C523 1.334 . S
C523 H500 0.950 . S
C523 C522 1.334 . S
C523 C524 1.287 . S
C524 C523 1.287 . S
C524 C525 1.524 . S
C524 H543 0.913 . S
C525 H501 0.950 . S
C525 C524 1.524 . S
C525 C526 1.415 . S
C526 H502 0.950 . S
C526 C521 1.363 . S
C526 C525 1.415 . S
C527 H503 0.951 . S
C527 C528 1.366 . S
C527 C529 1.388 . S
C528 C527 1.366 . S
C528 C532 1.385 1_565 S
C529 H504 0.951 . S
C529 C527 1.388 . S
C529 C530 1.371 . S
C530 C529 1.371 . S
C530 C531 1.408 1_565 S
C530 C533 1.499 1_565 S
C531 H505 0.950 . S
C531 C530 1.408 1_545 S
C531 C532 1.374 . S
C532 H506 0.950 . S
C532 C528 1.385 1_545 S
C532 C531 1.374 . S
C533 C530 1.499 1_545 S
C533 C534 1.373 . S
C533 C535 1.389 1_545 S
C534 H507 0.950 . S
C534 C520 1.377 . S
C534 C533 1.373 . S
C535 C519 1.377 . S
C535 C533 1.389 1_565 S
C535 C536 1.524 1_455 S
C536 C535 1.524 1_655 S
C536 C537 1.397 . S
C536 C541 1.363 1_655 S
C537 H508 0.950 . S
C537 C536 1.397 . S
C537 C538 1.334 . S
C538 H509 0.950 . S
C538 C537 1.334 . S
C538 C539 1.287 . S
C539 C538 1.287 . S
C539 C540 1.524 . S
C539 H542 0.999 . S
C540 H510 0.950 . S
C540 C539 1.524 . S
C540 C541 1.415 1_655 S
C541 H511 0.950 . S
C541 C536 1.363 1_455 S
C541 C540 1.415 1_455 S
H542 C539 0.999 . S
H543 C524 0.913 . S
H544 C562 0.951 . S
H545 C564 0.951 . S
H546 C566 0.950 1_655 S
H547 C567 0.950 1_655 S
H548 C569 0.950 . S
H549 C572 0.950 . S
H550 C573 0.950 . S
H551 C575 0.950 . S
H552 C576 0.950 . S
H553 C577 0.951 . S
H554 C579 0.951 . S
H555 C581 0.950 . S
H556 C582 0.950 . S
H557 C584 0.950 . S
H558 C587 0.950 . S
H559 C588 0.950 . S
H560 C590 0.950 . S
H561 C591 0.950 . S
C562 H544 0.951 . S
C562 C563 1.366 . S
C562 C564 1.388 . S
C563 C562 1.366 . S
C563 C567 1.385 . S
C564 H545 0.951 . S
C564 C562 1.388 . S
C564 C565 1.366 . S
C565 C564 1.366 . S
C565 C566 1.414 . S
C565 C568 1.499 . S
C566 H546 0.950 1_455 S
C566 C565 1.414 . S
C566 C567 1.374 . S
C567 H547 0.950 1_455 S
C567 C563 1.385 . S
C567 C566 1.374 . S
C568 C565 1.499 . S
C568 C569 1.373 . S
C568 C570 1.389 . S
C569 H548 0.950 . S
C569 C568 1.373 . S
C569 C585 1.377 . S
C570 C568 1.389 . S
C570 C571 1.524 . S
C570 C584 1.377 . S
C571 C570 1.524 . S
C571 C572 1.397 . S
C571 C576 1.363 . S
C572 H549 0.950 . S
C572 C571 1.397 . S
C572 C573 1.334 . S
C573 H550 0.950 . S
C573 C572 1.334 . S
C573 C574 1.287 . S
C574 C573 1.287 . S
C574 C575 1.524 . S
C574 H593 0.913 . S
C575 H551 0.950 . S
C575 C574 1.524 . S
C575 C576 1.415 . S
C576 H552 0.950 . S
C576 C571 1.363 . S
C576 C575 1.415 . S
C577 H553 0.951 . S
C577 C578 1.366 1_655 S
C577 C579 1.388 . S
C578 C577 1.366 1_455 S
C578 C582 1.385 . S
C579 H554 0.951 . S
C579 C577 1.388 . S
C579 C580 1.366 1_655 S
C580 C579 1.366 1_455 S
C580 C581 1.414 . S
C580 C583 1.499 . S
C581 H555 0.950 . S
C581 C580 1.414 . S
C581 C582 1.374 . S
C582 H556 0.950 . S
C582 C578 1.385 . S
C582 C581 1.374 . S
C583 C580 1.499 . S
C583 C584 1.373 . S
C583 C585 1.389 . S
C584 H557 0.950 . S
C584 C570 1.377 . S
C584 C583 1.373 . S
C585 C569 1.377 . S
C585 C583 1.389 . S
C585 C586 1.524 1_445 S
C586 C585 1.524 1_665 S
C586 C587 1.397 1_655 S
C586 C591 1.363 . S
C587 H558 0.950 . S
C587 C586 1.397 1_455 S
C587 C588 1.334 . S
C588 H559 0.950 . S
C588 C587 1.334 . S
C588 C589 1.287 1_455 S
C589 C588 1.287 1_655 S
C589 C590 1.524 . S
C589 H592 0.999 . S
C590 H560 0.950 . S
C590 C589 1.524 . S
C590 C591 1.415 . S
C591 H561 0.950 . S
C591 C586 1.363 . S
C591 C590 1.415 . S
H592 C589 0.999 . S
H593 C574 0.913 . S
H594 C612 0.951 . S
H595 C614 0.951 . S
H596 C616 0.950 . S
H597 C617 0.950 . S
H598 C619 0.950 . S
H599 C622 0.950 . S
H600 C623 0.950 . S
H601 C625 0.950 . S
H602 C626 0.950 . S
H603 C627 0.951 . S
H604 C629 0.951 . S
H605 C631 0.950 . S
H606 C632 0.950 . S
H607 C634 0.950 . S
H608 C637 0.950 . S
H609 C638 0.950 . S
H610 C640 0.950 . S
H611 C641 0.950 . S
C612 H594 0.951 . S
C612 C613 1.366 . S
C612 C614 1.388 . S
C613 C612 1.366 . S
C613 C617 1.385 . S
C614 H595 0.951 . S
C614 C612 1.388 . S
C614 C615 1.366 . S
C615 C614 1.366 . S
C615 C616 1.414 . S
C615 C618 1.499 . S
C616 H596 0.950 . S
C616 C615 1.414 . S
C616 C617 1.374 . S
C617 H597 0.950 . S
C617 C613 1.385 . S
C617 C616 1.374 . S
C618 C615 1.499 . S
C618 C619 1.373 . S
C618 C620 1.389 . S
C619 H598 0.950 . S
C619 C618 1.373 . S
C619 C635 1.377 . S
C620 C618 1.389 . S
C620 C621 1.524 . S
C620 C634 1.377 . S
C621 C620 1.524 . S
C621 C622 1.397 . S
C621 C626 1.363 . S
C622 H599 0.950 . S
C622 C621 1.397 . S
C622 C623 1.334 . S
C623 H600 0.950 . S
C623 C622 1.334 . S
C623 C624 1.287 . S
C624 C623 1.287 . S
C624 C625 1.524 . S
C624 H643 0.913 . S
C625 H601 0.950 . S
C625 C624 1.524 . S
C625 C626 1.415 . S
C626 H602 0.950 . S
C626 C621 1.363 . S
C626 C625 1.415 . S
C627 H603 0.951 . S
C627 C628 1.366 . S
C627 C629 1.388 . S
C628 C627 1.366 . S
C628 C632 1.385 . S
C629 H604 0.951 . S
C629 C627 1.388 . S
C629 C630 1.366 . S
C630 C629 1.366 . S
C630 C631 1.414 . S
C630 C633 1.499 . S
C631 H605 0.950 . S
C631 C630 1.414 . S
C631 C632 1.374 . S
C632 H606 0.950 . S
C632 C628 1.385 . S
C632 C631 1.374 . S
C633 C630 1.499 . S
C633 C634 1.373 . S
C633 C635 1.389 . S
C634 H607 0.950 . S
C634 C620 1.377 . S
C634 C633 1.373 . S
C635 C619 1.377 . S
C635 C633 1.389 . S
C635 C636 1.524 . S
C636 C635 1.524 . S
C636 C637 1.397 . S
C636 C641 1.363 . S
C637 H608 0.950 . S
C637 C636 1.397 . S
C637 C638 1.334 . S
C638 H609 0.950 . S
C638 C637 1.334 . S
C638 C639 1.287 . S
C639 C638 1.287 . S
C639 C640 1.524 . S
C639 H642 0.999 . S
C640 H610 0.950 . S
C640 C639 1.524 . S
C640 C641 1.415 . S
C641 H611 0.950 . S
C641 C636 1.363 . S
C641 C640 1.415 . S
H642 C639 0.999 . S
H643 C624 0.913 . S
H644 C662 0.951 . S
H645 C664 0.951 . S
H646 C666 0.950 . S
H647 C667 0.950 . S
H648 C669 0.950 . S
H649 C672 0.950 . S
H650 C673 0.950 . S
H651 C675 0.950 . S
H652 C676 0.950 . S
H653 C677 0.951 . S
H654 C679 0.951 . S
H655 C681 0.950 . S
H656 C682 0.950 . S
H657 C684 0.950 . S
H658 C687 0.950 . S
H659 C688 0.950 . S
H660 C690 0.950 . S
H661 C691 0.950 . S
C662 H644 0.951 . S
C662 C663 1.366 . S
C662 C664 1.388 . S
C663 C662 1.366 . S
C663 C667 1.385 . S
C664 H645 0.951 . S
C664 C662 1.388 . S
C664 C665 1.366 . S
C665 C664 1.366 . S
C665 C666 1.414 . S
C665 C668 1.499 . S
C666 H646 0.950 . S
C666 C665 1.414 . S
C666 C667 1.374 . S
C667 H647 0.950 . S
C667 C663 1.385 . S
C667 C666 1.374 . S
C668 C665 1.499 . S
C668 C669 1.373 . S
C668 C670 1.389 . S
C669 H648 0.950 . S
C669 C668 1.373 . S
C669 C685 1.377 . S
C670 C668 1.389 . S
C670 C671 1.524 . S
C670 C684 1.377 . S
C671 C670 1.524 . S
C671 C672 1.397 . S
C671 C676 1.363 . S
C672 H649 0.950 . S
C672 C671 1.397 . S
C672 C673 1.334 . S
C673 H650 0.950 . S
C673 C672 1.334 . S
C673 C674 1.287 . S
C674 C673 1.287 . S
C674 C675 1.524 . S
C674 H693 0.913 . S
C675 H651 0.950 . S
C675 C674 1.524 . S
C675 C676 1.415 . S
C676 H652 0.950 . S
C676 C671 1.363 . S
C676 C675 1.415 . S
C677 H653 0.951 . S
C677 C678 1.366 . S
C677 C679 1.388 . S
C678 C677 1.366 . S
C678 C682 1.385 . S
C679 H654 0.951 . S
C679 C677 1.388 . S
C679 C680 1.366 . S
C680 C679 1.366 . S
C680 C681 1.414 . S
C680 C683 1.499 . S
C681 H655 0.950 . S
C681 C680 1.414 . S
C681 C682 1.374 . S
C682 H656 0.950 . S
C682 C678 1.385 . S
C682 C681 1.374 . S
C683 C680 1.499 . S
C683 C684 1.373 . S
C683 C685 1.389 . S
C684 H657 0.950 . S
C684 C670 1.377 . S
C684 C683 1.373 . S
C685 C669 1.377 . S
C685 C683 1.389 . S
C685 C686 1.524 . S
C686 C685 1.524 . S
C686 C687 1.397 . S
C686 C691 1.363 . S
C687 H658 0.950 . S
C687 C686 1.397 . S
C687 C688 1.334 . S
C688 H659 0.950 . S
C688 C687 1.334 . S
C688 C689 1.287 . S
C689 C688 1.287 . S
C689 C690 1.524 . S
C689 H692 0.999 . S
C690 H660 0.950 . S
C690 C689 1.524 . S
C690 C691 1.415 . S
C691 H661 0.950 . S
C691 C686 1.363 . S
C691 C690 1.415 . S
H692 C689 0.999 . S
H693 C674 0.913 . S
C128 N83 1.315 . S
C113 C16 1.146 . S
C163 C15 1.384 . S
C178 N70 1.379 . S
C213 C13 1.336 . S
C228 N82 1.546 . S
C263 C14 1.400 . S
C278 N69 1.461 . S
C313 C37 1.146 . S
C328 N57 1.315 . S
C363 C36 1.384 . S
C378 N44 1.379 1_655 S
C428 N56 1.546 . S
C413 C34 1.336 . S
C478 N43 1.461 . S
C463 C35 1.400 . S
C513 C17 1.568 . S
C528 N47 1.594 1_565 S
C563 C18 1.403 . S
C578 N60 1.437 . S
C628 N73 1.593 . S
C613 C38 1.567 . S
C663 C39 1.404 . S
C678 N86 1.437 . S
