# Generated by pormake.
# Topology ctn, (3,4)-cn, num edge types: 1
# Building blocks:
#     Node 0, Type 0, BuildingBlock: BETDIP_clean_linker_0, # of connection points: 3
#     Node 1, Type 0, BuildingBlock: BETDIP_clean_linker_0, # of connection points: 3
#     Node 2, Type 0, BuildingBlock: BETDIP_clean_linker_0, # of connection points: 3
#     Node 3, Type 0, BuildingBlock: BETDIP_clean_linker_0, # of connection points: 3
#     Node 4, Type 0, BuildingBlock: BETDIP_clean_linker_0, # of connection points: 3
#     Node 5, Type 0, BuildingBlock: BETDIP_clean_linker_0, # of connection points: 3
#     Node 6, Type 0, BuildingBlock: BETDIP_clean_linker_0, # of connection points: 3
#     Node 7, Type 0, BuildingBlock: BETDIP_clean_linker_0, # of connection points: 3
#     Node 8, Type 0, BuildingBlock: BETDIP_clean_linker_0, # of connection points: 3
#     Node 9, Type 0, BuildingBlock: BETDIP_clean_linker_0, # of connection points: 3
#     Node 10, Type 0, BuildingBlock: BETDIP_clean_linker_0, # of connection points: 3
#     Node 11, Type 0, BuildingBlock: BETDIP_clean_linker_0, # of connection points: 3
#     Node 12, Type 0, BuildingBlock: BETDIP_clean_linker_0, # of connection points: 3
#     Node 13, Type 0, BuildingBlock: BETDIP_clean_linker_0, # of connection points: 3
#     Node 14, Type 0, BuildingBlock: BETDIP_clean_linker_0, # of connection points: 3
#     Node 15, Type 0, BuildingBlock: BETDIP_clean_linker_0, # of connection points: 3
#     Node 16, Type 1, BuildingBlock: QUQFOY_clean_sbu_1, # of connection points: 4
#     Node 17, Type 1, BuildingBlock: QUQFOY_clean_sbu_1, # of connection points: 4
#     Node 18, Type 1, BuildingBlock: QUQFOY_clean_sbu_1, # of connection points: 4
#     Node 19, Type 1, BuildingBlock: QUQFOY_clean_sbu_1, # of connection points: 4
#     Node 20, Type 1, BuildingBlock: QUQFOY_clean_sbu_1, # of connection points: 4
#     Node 21, Type 1, BuildingBlock: QUQFOY_clean_sbu_1, # of connection points: 4
#     Node 22, Type 1, BuildingBlock: QUQFOY_clean_sbu_1, # of connection points: 4
#     Node 23, Type 1, BuildingBlock: QUQFOY_clean_sbu_1, # of connection points: 4
#     Node 24, Type 1, BuildingBlock: QUQFOY_clean_sbu_1, # of connection points: 4
#     Node 25, Type 1, BuildingBlock: QUQFOY_clean_sbu_1, # of connection points: 4
#     Node 26, Type 1, BuildingBlock: QUQFOY_clean_sbu_1, # of connection points: 4
#     Node 27, Type 1, BuildingBlock: QUQFOY_clean_sbu_1, # of connection points: 4
#     Edge 28, Type (0, 1), BuildingBlock: KIFKEQ_clean_linker_1, # of connection points: 2
#     Edge 29, Type (0, 1), BuildingBlock: KIFKEQ_clean_linker_1, # of connection points: 2
#     Edge 30, Type (0, 1), BuildingBlock: KIFKEQ_clean_linker_1, # of connection points: 2
#     Edge 31, Type (0, 1), BuildingBlock: KIFKEQ_clean_linker_1, # of connection points: 2
#     Edge 32, Type (0, 1), BuildingBlock: KIFKEQ_clean_linker_1, # of connection points: 2
#     Edge 33, Type (0, 1), BuildingBlock: KIFKEQ_clean_linker_1, # of connection points: 2
#     Edge 34, Type (0, 1), BuildingBlock: KIFKEQ_clean_linker_1, # of connection points: 2
#     Edge 35, Type (0, 1), BuildingBlock: KIFKEQ_clean_linker_1, # of connection points: 2
#     Edge 36, Type (0, 1), BuildingBlock: KIFKEQ_clean_linker_1, # of connection points: 2
#     Edge 37, Type (0, 1), BuildingBlock: KIFKEQ_clean_linker_1, # of connection points: 2
#     Edge 38, Type (0, 1), BuildingBlock: KIFKEQ_clean_linker_1, # of connection points: 2
#     Edge 39, Type (0, 1), BuildingBlock: KIFKEQ_clean_linker_1, # of connection points: 2
#     Edge 40, Type (0, 1), BuildingBlock: KIFKEQ_clean_linker_1, # of connection points: 2
#     Edge 41, Type (0, 1), BuildingBlock: KIFKEQ_clean_linker_1, # of connection points: 2
#     Edge 42, Type (0, 1), BuildingBlock: KIFKEQ_clean_linker_1, # of connection points: 2
#     Edge 43, Type (0, 1), BuildingBlock: KIFKEQ_clean_linker_1, # of connection points: 2
#     Edge 44, Type (0, 1), BuildingBlock: KIFKEQ_clean_linker_1, # of connection points: 2
#     Edge 45, Type (0, 1), BuildingBlock: KIFKEQ_clean_linker_1, # of connection points: 2
#     Edge 46, Type (0, 1), BuildingBlock: KIFKEQ_clean_linker_1, # of connection points: 2
#     Edge 47, Type (0, 1), BuildingBlock: KIFKEQ_clean_linker_1, # of connection points: 2
#     Edge 48, Type (0, 1), BuildingBlock: KIFKEQ_clean_linker_1, # of connection points: 2
#     Edge 49, Type (0, 1), BuildingBlock: KIFKEQ_clean_linker_1, # of connection points: 2
#     Edge 50, Type (0, 1), BuildingBlock: KIFKEQ_clean_linker_1, # of connection points: 2
#     Edge 51, Type (0, 1), BuildingBlock: KIFKEQ_clean_linker_1, # of connection points: 2
#     Edge 52, Type (0, 1), BuildingBlock: KIFKEQ_clean_linker_1, # of connection points: 2
#     Edge 53, Type (0, 1), BuildingBlock: KIFKEQ_clean_linker_1, # of connection points: 2
#     Edge 54, Type (0, 1), BuildingBlock: KIFKEQ_clean_linker_1, # of connection points: 2
#     Edge 55, Type (0, 1), BuildingBlock: KIFKEQ_clean_linker_1, # of connection points: 2
#     Edge 56, Type (0, 1), BuildingBlock: KIFKEQ_clean_linker_1, # of connection points: 2
#     Edge 57, Type (0, 1), BuildingBlock: KIFKEQ_clean_linker_1, # of connection points: 2
#     Edge 58, Type (0, 1), BuildingBlock: KIFKEQ_clean_linker_1, # of connection points: 2
#     Edge 59, Type (0, 1), BuildingBlock: KIFKEQ_clean_linker_1, # of connection points: 2
#     Edge 60, Type (0, 1), BuildingBlock: KIFKEQ_clean_linker_1, # of connection points: 2
#     Edge 61, Type (0, 1), BuildingBlock: KIFKEQ_clean_linker_1, # of connection points: 2
#     Edge 62, Type (0, 1), BuildingBlock: KIFKEQ_clean_linker_1, # of connection points: 2
#     Edge 63, Type (0, 1), BuildingBlock: KIFKEQ_clean_linker_1, # of connection points: 2
#     Edge 64, Type (0, 1), BuildingBlock: KIFKEQ_clean_linker_1, # of connection points: 2
#     Edge 65, Type (0, 1), BuildingBlock: KIFKEQ_clean_linker_1, # of connection points: 2
#     Edge 66, Type (0, 1), BuildingBlock: KIFKEQ_clean_linker_1, # of connection points: 2
#     Edge 67, Type (0, 1), BuildingBlock: KIFKEQ_clean_linker_1, # of connection points: 2
#     Edge 68, Type (0, 1), BuildingBlock: KIFKEQ_clean_linker_1, # of connection points: 2
#     Edge 69, Type (0, 1), BuildingBlock: KIFKEQ_clean_linker_1, # of connection points: 2
#     Edge 70, Type (0, 1), BuildingBlock: KIFKEQ_clean_linker_1, # of connection points: 2
#     Edge 71, Type (0, 1), BuildingBlock: KIFKEQ_clean_linker_1, # of connection points: 2
#     Edge 72, Type (0, 1), BuildingBlock: KIFKEQ_clean_linker_1, # of connection points: 2
#     Edge 73, Type (0, 1), BuildingBlock: KIFKEQ_clean_linker_1, # of connection points: 2
#     Edge 74, Type (0, 1), BuildingBlock: KIFKEQ_clean_linker_1, # of connection points: 2
#     Edge 75, Type (0, 1), BuildingBlock: KIFKEQ_clean_linker_1, # of connection points: 2
# Relax obj value: 0.095
# Max RMSD: 0.194
# Mean RMSD: 0.141
data_MOF--net-ctn--node1-QUQFOY_clean_sbu_1--node2-BETDIP_clean_linker_0--edge1-KIFKEQ_clean_linker_1
_symmetry_space_group_name_H-M    P1
_symmetry_Int_Tables_number       1
_symmetry_cell_setting            triclinic
loop_
_symmetry_equiv_pos_as_xyz
'x, y, z'
_cell_length_a     53.270023
_cell_length_b     53.450763
_cell_length_c     59.182432
_cell_angle_alpha  96.733936
_cell_angle_beta   93.87329
_cell_angle_gamma 97.720401
loop_
_atom_site_label
_atom_site_type_symbol
_atom_site_fract_x
_atom_site_fract_y
_atom_site_fract_z
_atom_type_partial_charge
H0 H 0.03452 0.10936 0.08335 0.0
H1 H 0.09072 0.07683 0.04541 0.0
H2 H 0.07249 0.05116 0.10938 0.0
H3 H 0.06309 0.08465 0.01571 0.0
C4 C 0.06101 0.10414 0.02195 0.0
C5 C 0.04841 0.09631 0.08177 0.0
C6 C 0.05194 0.08046 0.09868 0.0
C7 C 0.06219 0.09495 0.06248 0.0
C8 C 0.08005 0.07792 0.06034 0.0
C9 C 0.08398 0.06201 0.07717 0.0
C10 C 0.06989 0.06351 0.0964 0.0
N11 N 0.05774 0.11084 0.04543 0.0
H12 H 0.255 0.71231 0.21566 0.0
H13 H 0.32499 0.762 0.23665 0.0
H14 H 0.3061 0.69482 0.26908 0.0
H15 H 0.30033 0.79176 0.22375 0.0
C16 C 0.29092 0.78066 0.2082 0.0
C17 C 0.27245 0.71702 0.22676 0.0
C18 C 0.27835 0.70099 0.2429 0.0
C19 C 0.28885 0.73918 0.22469 0.0
C20 C 0.31193 0.74515 0.23848 0.0
C21 C 0.31832 0.72912 0.25453 0.0
C22 C 0.30135 0.70718 0.25666 0.0
N23 N 0.28199 0.75436 0.20781 0.0
H24 H 0.90897 0.50178 0.02735 0.0
H25 H 0.95974 0.46232 0.06435 0.0
H26 H 0.94857 0.53818 0.09089 0.0
H27 H 0.92755 0.42764 0.04794 0.0
C28 C 0.92986 0.43295 0.03094 0.0
C29 C 0.92178 0.50121 0.04226 0.0
C30 C 0.92766 0.52261 0.05888 0.0
C31 C 0.93275 0.4792 0.04452 0.0
C32 C 0.95008 0.47878 0.06339 0.0
C33 C 0.95601 0.49985 0.08035 0.0
C34 C 0.94458 0.52177 0.07793 0.0
N35 N 0.92758 0.45827 0.02693 0.0
H36 H 0.72834 0.77291 0.22126 0.0
H37 H 0.74627 0.83911 0.27153 0.0
H38 H 0.77654 0.83902 0.20611 0.0
H39 H 0.74029 0.80576 0.29609 0.0
C40 C 0.72201 0.79771 0.28707 0.0
C41 C 0.73837 0.79196 0.22643 0.0
C42 C 0.75274 0.80452 0.21098 0.0
C43 C 0.73634 0.8041 0.24843 0.0
C44 C 0.7486 0.82919 0.25493 0.0
C45 C 0.76272 0.84206 0.23955 0.0
C46 C 0.76498 0.82944 0.2178 0.0
N47 N 0.72008 0.79157 0.26294 0.0
H48 H 0.06036 0.96334 0.43499 0.0
H49 H 0.13339 0.98126 0.47317 0.0
H50 H 0.11564 0.02293 0.41781 0.0
H51 H 0.12334 0.93912 0.48079 0.0
C52 C 0.10372 0.94008 0.48434 0.0
C53 C 0.07929 0.97413 0.4375 0.0
C54 C 0.08617 0.99336 0.4239 0.0
C55 C 0.0963 0.96937 0.45504 0.0
C56 C 0.12045 0.98412 0.45912 0.0
C57 C 0.12756 0.00349 0.44571 0.0
C58 C 0.11044 0.00772 0.42796 0.0
N59 N 0.08765 0.95138 0.46964 0.0
H60 H 0.21632 0.78035 0.81776 0.0
H61 H 0.25105 0.72699 0.77489 0.0
H62 H 0.2768 0.7451 0.84634 0.0
H63 H 0.2358 0.74939 0.74617 0.0
C64 C 0.21762 0.75265 0.75234 0.0
C65 C 0.23074 0.76794 0.81571 0.0
C66 C 0.24629 0.76417 0.83469 0.0
C67 C 0.23289 0.75526 0.79409 0.0
C68 C 0.25053 0.73801 0.79135 0.0
C69 C 0.26633 0.7338 0.81022 0.0
C70 C 0.26434 0.74746 0.83174 0.0
N71 N 0.21535 0.75877 0.77603 0.0
H72 H 0.95467 0.61292 0.44067 0.0
H73 H 0.90513 0.54151 0.42933 0.0
H74 H 0.89649 0.5968 0.48606 0.0
H75 H 0.94083 0.52821 0.416 0.0
C76 C 0.949 0.54358 0.40708 0.0
C77 C 0.93871 0.60044 0.4455 0.0
C78 C 0.92637 0.60786 0.46487 0.0
C79 C 0.93144 0.57648 0.43286 0.0
C80 C 0.91089 0.56008 0.43907 0.0
C81 C 0.89813 0.56732 0.45826 0.0
C82 C 0.90589 0.59133 0.47094 0.0
N83 N 0.94587 0.56913 0.41457 0.0
H84 H 0.80782 0.85592 0.78099 0.0
H85 H 0.84652 0.81353 0.82586 0.0
H86 H 0.78265 0.84805 0.84791 0.0
H87 H 0.87952 0.8245 0.80605 0.0
C88 C 0.87155 0.82502 0.78877 0.0
C89 C 0.80975 0.84903 0.79743 0.0
C90 C 0.79271 0.85413 0.81396 0.0
C91 C 0.82961 0.83519 0.80181 0.0
C92 C 0.83176 0.82501 0.82256 0.0
C93 C 0.81468 0.82935 0.83918 0.0
C94 C 0.7955 0.84428 0.83491 0.0
N95 N 0.84679 0.83156 0.78478 0.0
H96 H 0.31605 0.37321 0.29244 0.0
H97 H 0.35339 0.3253 0.33306 0.0
H98 H 0.2817 0.34714 0.35079 0.0
H99 H 0.38857 0.34512 0.3191 0.0
C100 C 0.38194 0.34617 0.30152 0.0
C101 C 0.31646 0.36252 0.30691 0.0
C102 C 0.29644 0.36176 0.32115 0.0
C103 C 0.33717 0.34973 0.31119 0.0
C104 C 0.33766 0.3356 0.32977 0.0
C105 C 0.31775 0.33464 0.34422 0.0
C106 C 0.29714 0.34773 0.33974 0.0
N107 N 0.35677 0.35092 0.29608 0.0
H108 H 0.42351 0.00114 0.53387 0.0
H109 H 0.46684 0.96318 0.57946 0.0
H110 H 0.46836 0.04392 0.59283 0.0
H111 H 0.43943 0.92812 0.56259 0.0
C112 C 0.43998 0.93215 0.54504 0.0
C113 C 0.43628 0.00209 0.5491 0.0
C114 C 0.44475 0.02557 0.56265 0.0
C115 C 0.44397 0.97953 0.55499 0.0
C116 C 0.46013 0.9803 0.57488 0.0
C117 C 0.46878 0.00344 0.58856 0.0
C118 C 0.46127 0.02604 0.58232 0.0
N119 N 0.4368 0.95679 0.53965 0.0
H120 H 0.23669 0.25987 0.72011 0.0
H121 H 0.25179 0.33103 0.76409 0.0
H122 H 0.2878 0.32208 0.70144 0.0
H123 H 0.24588 0.29962 0.79176 0.0
C124 C 0.22746 0.29178 0.78291 0.0
C125 C 0.24659 0.27916 0.7238 0.0
C126 C 0.26308 0.28904 0.70841 0.0
C127 C 0.24308 0.29394 0.74421 0.0
C128 C 0.25547 0.31915 0.7489 0.0
C129 C 0.2714 0.32955 0.73338 0.0
C130 C 0.27539 0.31421 0.71341 0.0
N131 N 0.2256 0.28378 0.75902 0.0
H132 H 0.75413 0.22953 0.72186 0.0
H133 H 0.82948 0.27161 0.73057 0.0
H134 H 0.81349 0.20347 0.76198 0.0
H135 H 0.80865 0.30448 0.72406 0.0
C136 C 0.79361 0.29584 0.71108 0.0
C137 C 0.77364 0.23186 0.72918 0.0
C138 C 0.78183 0.21368 0.7422 0.0
C139 C 0.79044 0.25311 0.72537 0.0
C140 C 0.816 0.25588 0.73419 0.0
C141 C 0.82451 0.23787 0.74723 0.0
C142 C 0.80727 0.21692 0.75123 0.0
N143 N 0.78126 0.27072 0.7118 0.0
H144 H 0.54465 0.60135 0.58521 0.0
H145 H 0.59235 0.56115 0.54297 0.0
H146 H 0.56661 0.53103 0.60293 0.0
H147 H 0.56799 0.57542 0.51511 0.0
C148 C 0.5677 0.595 0.52238 0.0
C149 C 0.5548 0.58524 0.58177 0.0
C150 C 0.5547 0.56683 0.59691 0.0
C151 C 0.56756 0.58275 0.56189 0.0
C152 C 0.58127 0.56225 0.55762 0.0
C153 C 0.58112 0.54339 0.57231 0.0
C154 C 0.56768 0.54587 0.59189 0.0
N155 N 0.56599 0.60085 0.54625 0.0
H156 H 0.54879 0.47329 0.94124 0.0
H157 H 0.62212 0.499 0.97777 0.0
H158 H 0.595 0.54055 0.92581 0.0
H159 H 0.61804 0.46195 0.99013 0.0
C160 C 0.59785 0.45537 0.98997 0.0
C161 C 0.56636 0.48649 0.94393 0.0
C162 C 0.56967 0.50732 0.93146 0.0
C163 C 0.58518 0.48307 0.96057 0.0
C164 C 0.60759 0.50076 0.96464 0.0
C165 C 0.61131 0.52135 0.95198 0.0
C166 C 0.59234 0.52444 0.93538 0.0
N167 N 0.58013 0.46271 0.97383 0.0
H168 H 0.74104 0.27976 0.32537 0.0
H169 H 0.7831 0.24311 0.27499 0.0
H170 H 0.7991 0.23691 0.34632 0.0
H171 H 0.75987 0.26049 0.24949 0.0
C172 C 0.74441 0.26801 0.25776 0.0
C173 C 0.75576 0.26822 0.32116 0.0
C174 C 0.76963 0.25907 0.33854 0.0
C175 C 0.76042 0.26274 0.29832 0.0
C176 C 0.77941 0.24772 0.29262 0.0
C177 C 0.79376 0.23853 0.30993 0.0
C178 C 0.78877 0.24446 0.33287 0.0
N179 N 0.74458 0.27195 0.28191 0.0
H180 H 0.48988 0.11068 0.98249 0.0
H181 H 0.44329 0.03804 0.96429 0.0
H182 H 0.42632 0.08919 0.02085 0.0
H183 H 0.48182 0.02742 0.9537 0.0
C184 C 0.48849 0.04357 0.94504 0.0
C185 C 0.47366 0.09721 0.98536 0.0
C186 C 0.45881 0.10277 0.00351 0.0
C187 C 0.46854 0.07375 0.97149 0.0
C188 C 0.44772 0.05605 0.9752 0.0
C189 C 0.43255 0.06147 0.99311 0.0
C190 C 0.43822 0.08482 0.00719 0.0
N191 N 0.48464 0.06849 0.95394 0.0
O192 O 0.2503 0.85952 0.00393 0.0
Cd193 Cd 0.26194 0.88386 0.03351 0.0
Cd194 Cd 0.22923 0.91172 0.01379 0.0
O195 O 0.22134 0.8803 0.98939 0.0
O196 O 0.28072 0.86262 0.05197 0.0
O197 O 0.24711 0.87911 0.06344 0.0
C198 C 0.26492 0.86557 0.06726 0.0
C199 C 0.19678 0.93335 0.027 0.0
C200 C 0.23343 0.86132 0.9882 0.0
C201 C 0.28472 0.93358 0.02055 0.0
O202 O 0.26264 0.93532 0.01196 0.0
O203 O 0.28849 0.91481 0.03098 0.0
O204 O 0.20346 0.93377 0.00652 0.0
O205 O 0.20778 0.91943 0.0399 0.0
O206 O 0.15783 0.53604 0.2827 0.0
Cd207 Cd 0.13631 0.50359 0.29033 0.0
Cd208 Cd 0.10303 0.51539 0.25241 0.0
O209 O 0.13485 0.54145 0.25171 0.0
O210 O 0.15999 0.49128 0.31244 0.0
O211 O 0.14611 0.46953 0.2788 0.0
C212 C 0.16034 0.47163 0.29768 0.0
C213 C 0.07983 0.50475 0.21698 0.0
C214 C 0.15445 0.54789 0.26562 0.0
C215 C 0.08348 0.51365 0.29959 0.0
O216 O 0.08055 0.51868 0.27921 0.0
O217 O 0.1039 0.50644 0.30704 0.0
O218 O 0.08177 0.52712 0.22809 0.0
O219 O 0.09101 0.48785 0.2259 0.0
O220 O 0.79336 0.73788 0.98973 0.0
Cd221 Cd 0.78099 0.71385 0.01288 0.0
Cd222 Cd 0.81316 0.68486 0.99289 0.0
O223 O 0.82235 0.71594 0.97593 0.0
O224 O 0.76157 0.73419 0.03379 0.0
O225 O 0.79576 0.71847 0.0456 0.0
C226 C 0.77726 0.73098 0.05039 0.0
C227 C 0.84358 0.66596 0.01201 0.0
C228 C 0.81082 0.7353 0.97638 0.0
C229 C 0.75864 0.66254 0.98791 0.0
O230 O 0.7805 0.66032 0.9813 0.0
O231 O 0.75523 0.68207 0.0011 0.0
O232 O 0.84127 0.66407 0.99002 0.0
O233 O 0.82943 0.67987 0.02332 0.0
O234 O 0.95539 0.02638 0.28698 0.0
Cd235 Cd 0.93012 0.0325 0.2609 0.0
Cd236 Cd 0.90794 0.05474 0.29534 0.0
O237 O 0.9403 0.05004 0.31443 0.0
O238 O 0.94639 0.02321 0.23245 0.0
O239 O 0.9393 0.06242 0.24372 0.0
C240 C 0.94811 0.04671 0.22905 0.0
C241 C 0.89498 0.09462 0.29618 0.0
C242 C 0.95669 0.03627 0.30769 0.0
C243 C 0.87829 0.00787 0.26979 0.0
O244 O 0.8801 0.02359 0.28786 0.0
O245 O 0.89545 0.00947 0.25592 0.0
O246 O 0.89252 0.08164 0.31316 0.0
O247 O 0.90539 0.08507 0.27867 0.0
O248 O 0.29656 0.22712 0.48626 0.0
Cd249 Cd 0.28721 0.20176 0.50918 0.0
Cd250 Cd 0.32199 0.1769 0.48881 0.0
O251 O 0.32735 0.20838 0.47174 0.0
O252 O 0.26751 0.21945 0.53182 0.0
O253 O 0.30403 0.20633 0.54113 0.0
C254 C 0.2848 0.21697 0.54739 0.0
C255 C 0.35547 0.16217 0.5078 0.0
C256 C 0.31397 0.22639 0.47262 0.0
C257 C 0.26923 0.14929 0.48449 0.0
O258 O 0.29142 0.14925 0.47789 0.0
O259 O 0.26399 0.16823 0.49743 0.0
O260 O 0.3526 0.15971 0.4858 0.0
O261 O 0.33993 0.17426 0.51914 0.0
O262 O 0.44547 0.53393 0.78882 0.0
Cd263 Cd 0.42367 0.53507 0.75893 0.0
Cd264 Cd 0.39261 0.55402 0.79116 0.0
O265 O 0.42268 0.55178 0.81422 0.0
O266 O 0.44695 0.5238 0.7362 0.0
O267 O 0.43382 0.56132 0.73783 0.0
C268 C 0.44735 0.54533 0.72845 0.0
C269 C 0.37232 0.59015 0.79451 0.0
C270 C 0.44228 0.54175 0.80939 0.0
C271 C 0.37273 0.50437 0.76198 0.0
O272 O 0.36972 0.52037 0.77884 0.0
O273 O 0.39233 0.50759 0.75099 0.0
O274 O 0.36927 0.57342 0.80846 0.0
O275 O 0.38761 0.58677 0.77875 0.0
O276 O 0.75761 0.35264 0.50328 0.0
Cd277 Cd 0.76289 0.38243 0.52937 0.0
Cd278 Cd 0.72385 0.39663 0.50694 0.0
O279 O 0.72161 0.36152 0.48779 0.0
O280 O 0.78547 0.37198 0.55355 0.0
O281 O 0.74598 0.37881 0.55837 0.0
C282 C 0.76699 0.37243 0.56651 0.0
C283 C 0.68963 0.41119 0.52389 0.0
C284 C 0.73884 0.34724 0.48827 0.0
C285 C 0.77313 0.4304 0.50823 0.0
O286 O 0.75058 0.42496 0.49888 0.0
O287 O 0.78137 0.41661 0.52232 0.0
O288 O 0.69043 0.40862 0.50202 0.0
O289 O 0.70775 0.40414 0.53618 0.0
O290 O 0.66849 0.04725 0.78808 0.0
Cd291 Cd 0.6484 0.01403 0.79594 0.0
Cd292 Cd 0.60956 0.02965 0.76605 0.0
O293 O 0.63875 0.05873 0.76525 0.0
O294 O 0.67374 -0.00217 0.81315 0.0
O295 O 0.65468 0.98051 0.77948 0.0
C296 C 0.67053 0.97935 0.79671 0.0
C297 C 0.58307 0.01923 0.7323 0.0
C298 C 0.66109 0.06266 0.77513 0.0
C299 C 0.59825 0.02179 0.81446 0.0
O300 O 0.59094 0.02757 0.79514 0.0
O301 O 0.62031 0.01584 0.81811 0.0
O302 O 0.58229 0.03962 0.74594 0.0
O303 O 0.59917 0.00444 0.73766 0.0
O304 O 0.99469 0.28813 0.91653 0.0
Cd305 Cd 0.00574 0.25886 0.89539 0.0
Cd306 Cd 0.02822 0.29778 0.87663 0.0
O307 O 0.01859 0.32013 0.90465 0.0
O308 O 0.99679 0.22821 0.91088 0.0
O309 O 0.03643 0.24365 0.90595 0.0
C310 C 0.02073 0.22697 0.91393 0.0
C311 C 0.06939 0.29958 0.86565 0.0
C312 C 0.00286 0.31179 0.9182 0.0
C313 C 0.98546 0.26414 0.84834 0.0
O314 O -8e-05 0.28536 0.85082 0.0
O315 O 0.98625 0.24938 0.86362 0.0
O316 O 0.05577 0.31719 0.86209 0.0
O317 O 0.05998 0.28144 0.87661 0.0
O318 O 0.49479 0.78362 0.42764 0.0
Cd319 Cd 0.50343 0.75437 0.40499 0.0
Cd320 Cd 0.52404 0.79306 0.38471 0.0
O321 O 0.51664 0.81541 0.41363 0.0
O322 O 0.49604 0.7236 0.42063 0.0
O323 O 0.53476 0.73863 0.41265 0.0
C324 C 0.51999 0.72203 0.42163 0.0
C325 C 0.56428 0.79539 0.37153 0.0
C326 C 0.50278 0.80725 0.42863 0.0
C327 C 0.47903 0.75995 0.35928 0.0
O328 O 0.49398 0.78075 0.36052 0.0
O329 O 0.48086 0.74546 0.37468 0.0
O330 O 0.55009 0.81273 0.36875 0.0
O331 O 0.55594 0.77705 0.38271 0.0
O332 O 0.99582 0.77824 0.6591 0.0
Cd333 Cd 0.02078 0.76761 0.63576 0.0
Cd334 Cd 0.00014 0.80294 0.61371 0.0
O335 O 0.98244 0.80984 0.64316 0.0
O336 O 0.04101 0.746 0.65251 0.0
O337 O 0.05798 0.78207 0.64133 0.0
C338 C 0.06077 0.76253 0.65169 0.0
C339 C 0.02167 0.83591 0.59723 0.0
C340 C 0.98258 0.79634 0.65945 0.0
C341 C 0.99201 0.7496 0.59017 0.0
O342 O 0.98563 0.77168 0.59072 0.0
O343 O 0.00691 0.74442 0.60607 0.0
O344 O 0.99718 0.83189 0.59616 0.0
O345 O 0.03415 0.82184 0.60882 0.0
O346 O 0.5156 0.30367 0.17955 0.0
Cd347 Cd 0.53964 0.29052 0.15643 0.0
Cd348 Cd 0.51351 0.31857 0.12941 0.0
O349 O 0.49639 0.32823 0.15873 0.0
O350 O 0.56091 0.27211 0.17563 0.0
O351 O 0.57703 0.30486 0.15907 0.0
C352 C 0.58051 0.28742 0.17185 0.0
C353 C 0.53226 0.34974 0.10928 0.0
C354 C 0.49969 0.31911 0.17741 0.0
C355 C 0.50936 0.26319 0.11347 0.0
O356 O 0.50121 0.28386 0.11032 0.0
O357 O 0.5251 0.26237 0.13037 0.0
O358 O 0.50788 0.34444 0.10893 0.0
O359 O 0.54617 0.33783 0.12186 0.0
H360 H 0.23992 0.81372 0.84661 0.0
H361 H 0.24449 0.74326 0.87465 0.0
H362 H 0.23328 0.83443 0.8842 0.0
H363 H 0.2376 0.7639 0.91229 0.0
H364 H 0.25869 0.82058 0.97875 0.0
H365 H 0.25986 0.79564 0.94188 0.0
H366 H 0.20268 0.83541 0.9127 0.0
H367 H 0.20194 0.86093 0.94954 0.0
C368 C 0.2393 0.80261 0.86079 0.0
C369 C 0.24284 0.7769 0.8577 0.0
C370 C 0.23533 0.81442 0.88231 0.0
C371 C 0.23473 0.80077 0.90124 0.0
C372 C 0.23822 0.77502 0.89812 0.0
C373 C 0.24226 0.76322 0.87659 0.0
C374 C 0.24603 0.82376 0.9646 0.0
C375 C 0.23045 0.843 0.96706 0.0
C376 C 0.24665 0.80935 0.94343 0.0
C377 C 0.23164 0.81379 0.92426 0.0
C378 C 0.21489 0.83193 0.92705 0.0
C379 C 0.2143 0.84639 0.94822 0.0
H380 H 0.96772 0.4993 0.39681 0.0
H381 H 0.97142 0.57582 0.37922 0.0
H382 H -0.0003 0.4907 0.37017 0.0
H383 H 0.00331 0.56729 0.35278 0.0
H384 H 0.04009 0.53406 0.29087 0.0
H385 H 0.0065 0.54002 0.31605 0.0
H386 H 0.04637 0.50611 0.36783 0.0
H387 H 0.08009 0.49996 0.34261 0.0
C388 C 0.9753 0.51419 0.38715 0.0
C389 C 0.96723 0.5382 0.3901 0.0
C390 C 0.99365 0.50933 0.37206 0.0
C391 C 0.00399 0.52835 0.35948 0.0
C392 C 0.9955 0.55221 0.36212 0.0
C393 C 0.97734 0.55713 0.37734 0.0
C394 C 0.04172 0.52777 0.30759 0.0
C395 C 0.06285 0.51662 0.31477 0.0
C396 C 0.0225 0.53129 0.32202 0.0
C397 C 0.02389 0.52359 0.34388 0.0
C398 C 0.04474 0.51203 0.35097 0.0
C399 C 0.06411 0.50867 0.33658 0.0
H400 H 0.81116 0.85152 0.88287 0.0
H401 H 0.82234 0.78081 0.84412 0.0
H402 H 0.8136 0.8318 0.91806 0.0
H403 H 0.82468 0.76114 0.87907 0.0
H404 H 0.84714 0.73624 0.94581 0.0
H405 H 0.8508 0.76147 0.91418 0.0
H406 H 0.78852 0.79966 0.9363 0.0
H407 H 0.78523 0.7749 0.96825 0.0
C408 C 0.81407 0.83176 0.88187 0.0
C409 C 0.81661 0.81773 0.86073 0.0
C410 C 0.81551 0.82049 0.90201 0.0
C411 C 0.8195 0.79494 0.90141 0.0
C412 C 0.82217 0.78102 0.88025 0.0
C413 C 0.82076 0.79227 0.86018 0.0
C414 C 0.83451 0.75032 0.94417 0.0
C415 C 0.81571 0.75334 0.95944 0.0
C416 C 0.83649 0.76466 0.92593 0.0
C417 C 0.81969 0.78229 0.92249 0.0
C418 C 0.80186 0.78635 0.9385 0.0
C419 C 0.79992 0.77206 0.9568 0.0
H420 H 0.0755 0.04041 0.41682 0.0
H421 H 0.05464 0.96057 0.39186 0.0
H422 H 0.04509 0.05114 0.38815 0.0
H423 H 0.02367 0.97128 0.36341 0.0
H424 H 0.99144 0.00346 0.3005 0.0
H425 H 0.02306 0.9931 0.32837 0.0
H426 H -0.00159 0.04595 0.38029 0.0
H427 H 0.96696 0.05653 0.35248 0.0
C428 C 0.06449 0.02516 0.4051 0.0
C429 C 0.06754 -0.00035 0.40646 0.0
C430 C 0.0469 0.03129 0.38885 0.0
C431 C 0.03201 0.01205 0.37355 0.0
C432 C 0.03508 0.98652 0.37485 0.0
C433 C 0.05261 0.98037 0.39123 0.0
C434 C 0.99285 0.01299 0.31783 0.0
C435 C 0.97667 0.03084 0.32426 0.0
C436 C 0.01084 0.0069 0.33381 0.0
C437 C 0.01314 0.01865 0.3565 0.0
C438 C 0.99722 0.03675 0.36286 0.0
C439 C 0.97915 0.04273 0.34694 0.0
H440 H 0.3076 0.28502 0.68882 0.0
H441 H 0.22682 0.25916 0.67835 0.0
H442 H 0.31295 0.26558 0.65045 0.0
H443 H 0.23228 0.23878 0.64023 0.0
H444 H 0.24687 0.24064 0.56486 0.0
H445 H 0.24181 0.25467 0.60463 0.0
H446 H 0.31101 0.22623 0.6249 0.0
H447 H 0.31638 0.21258 0.58484 0.0
C448 C 0.29103 0.27486 0.6784 0.0
C449 C 0.26674 0.2739 0.68649 0.0
C450 C 0.29413 0.2635 0.65649 0.0
C451 C 0.27301 0.25086 0.64217 0.0
C452 C 0.24888 0.24877 0.6507 0.0
C453 C 0.24578 0.26016 0.67264 0.0
C454 C 0.26103 0.23735 0.57776 0.0
C455 C 0.28209 0.22558 0.57167 0.0
C456 C 0.25799 0.24518 0.60062 0.0
C457 C 0.2759 0.24141 0.61798 0.0
C458 C 0.29696 0.22957 0.61191 0.0
C459 C 0.30003 0.22173 0.58898 0.0
H460 H 0.50676 0.57953 0.60044 0.0
H461 H 0.56989 0.55812 0.63986 0.0
H462 H 0.48135 0.57748 0.63327 0.0
H463 H 0.54452 0.55601 0.67253 0.0
H464 H 0.48081 0.51677 0.70956 0.0
H465 H 0.50738 0.52555 0.67893 0.0
H466 H 0.47712 0.59592 0.67403 0.0
H467 H 0.45008 0.58702 0.70496 0.0
C468 C 0.51537 0.57488 0.61624 0.0
C469 C 0.54021 0.56863 0.61748 0.0
C470 C 0.50082 0.57372 0.63502 0.0
C471 C 0.51084 0.56625 0.65535 0.0
C472 C 0.53612 0.56132 0.65693 0.0
C473 C 0.55063 0.5625 0.63823 0.0
C474 C 0.47975 0.53417 0.70204 0.0
C475 C 0.46331 0.55121 0.70971 0.0
C476 C 0.49518 0.53929 0.68458 0.0
C477 C 0.49454 0.56154 0.67422 0.0
C478 C 0.47797 0.57859 0.68169 0.0
C479 C 0.46257 0.57353 0.69941 0.0
H480 H 0.75469 0.28282 0.67716 0.0
H481 H 0.81826 0.34072 0.70204 0.0
H482 H 0.74702 0.30475 0.64399 0.0
H483 H 0.81051 0.36276 0.66881 0.0
H484 H 0.81078 0.36665 0.59044 0.0
H485 H 0.81549 0.35102 0.62727 0.0
H486 H 0.73441 0.34545 0.6319 0.0
H487 H 0.72961 0.36117 0.59483 0.0
C488 C 0.76685 0.30039 0.67566 0.0
C489 C 0.78725 0.31001 0.69203 0.0
C490 C 0.76233 0.31303 0.65676 0.0
C491 C 0.77824 0.33539 0.6538 0.0
C492 C 0.79811 0.34543 0.67058 0.0
C493 C 0.80249 0.3329 0.68958 0.0
C494 C 0.79396 0.36234 0.59939 0.0
C495 C 0.7698 0.36498 0.58969 0.0
C496 C 0.79669 0.35356 0.62056 0.0
C497 C 0.77531 0.34701 0.63242 0.0
C498 C 0.75118 0.35021 0.62302 0.0
C499 C 0.74846 0.35929 0.60188 0.0
H500 H 0.51598 0.03059 0.59906 0.0
H501 H 0.46004 0.97706 0.62441 0.0
H502 H 0.5444 0.03111 0.63368 0.0
H503 H 0.48819 0.97817 0.65924 0.0
H504 H 0.53667 0.03361 0.72538 0.0
H505 H 0.50911 0.02718 0.68984 0.0
H506 H 0.56356 0.98675 0.65578 0.0
H507 H 0.59106 0.99245 0.6917 0.0
C508 C 0.50984 0.01901 0.61207 0.0
C509 C 0.48591 0.00387 0.60928 0.0
C510 C 0.52609 0.01914 0.63165 0.0
C511 C 0.51837 0.00451 0.6488 0.0
C512 C 0.49447 0.98939 0.64604 0.0
C513 C 0.47845 0.98884 0.62626 0.0
C514 C 0.54266 0.02311 0.71038 0.0
C515 C 0.56596 0.01353 0.7112 0.0
C516 C 0.52689 0.01942 0.69016 0.0
C517 C 0.53441 0.00658 0.67032 0.0
C518 C 0.55753 0.99671 0.67104 0.0
C519 C 0.57311 -0.00012 0.69149 0.0
H520 H 0.85289 0.28176 0.76832 0.0
H521 H 0.85613 0.20173 0.74958 0.0
H522 H 0.89485 0.28667 0.78869 0.0
H523 H 0.89822 0.20665 0.77005 0.0
H524 H 0.94983 0.22166 0.83884 0.0
H525 H 0.91345 0.21465 0.81057 0.0
H526 H 0.94022 0.28522 0.7853 0.0
H527 H 0.97647 0.29253 0.81387 0.0
C528 C 0.86281 0.26533 0.76814 0.0
C529 C 0.85112 0.24132 0.75752 0.0
C530 C 0.88689 0.26814 0.77978 0.0
C531 C 0.89981 0.24701 0.78105 0.0
C532 C 0.88857 0.2232 0.76963 0.0
C533 C 0.86448 0.22039 0.75796 0.0
C534 C 0.94822 0.23549 0.82702 0.0
C535 C 0.96587 0.25783 0.82883 0.0
C536 C 0.92742 0.23139 0.81071 0.0
C537 C 0.92383 0.24953 0.79586 0.0
C538 C 0.94228 0.27112 0.79677 0.0
C539 C 0.9631 0.27522 0.81307 0.0
H540 H 0.44429 0.93524 0.49948 0.0
H541 H 0.45332 0.88631 0.55169 0.0
H542 H 0.45982 0.90472 0.47187 0.0
H543 H 0.46941 0.85591 0.52416 0.0
H544 H 0.51509 0.85915 0.43575 0.0
H545 H 0.49955 0.88891 0.46409 0.0
H546 H 0.45584 0.82603 0.49005 0.0
H547 H 0.47176 0.79627 0.46213 0.0
C548 C 0.44954 0.91791 0.50504 0.0
C549 C 0.44764 0.91308 0.52773 0.0
C550 C 0.45865 0.90053 0.48927 0.0
C551 C 0.46606 0.87799 0.49587 0.0
C552 C 0.46366 0.87298 0.51849 0.0
C553 C 0.45451 0.89037 0.53425 0.0
C554 C 0.50232 0.85166 0.44761 0.0
C555 C 0.49466 0.82533 0.44664 0.0
C556 C 0.49325 0.86873 0.46373 0.0
C557 C 0.47631 0.85984 0.47921 0.0
C558 C 0.46904 0.83349 0.47851 0.0
C559 C 0.47811 0.81643 0.46243 0.0
H560 H 0.17759 0.28453 0.76581 0.0
H561 H 0.22584 0.29735 0.82891 0.0
H562 H 0.14023 0.2865 0.78737 0.0
H563 H 0.18821 0.29883 0.85055 0.0
H564 H 0.10645 0.27032 0.87502 0.0
H565 H 0.14555 0.2675 0.85574 0.0
H566 H 0.12656 0.32452 0.81418 0.0
H567 H 0.08795 0.32777 0.83352 0.0
C568 C 0.18018 0.28742 0.78429 0.0
C569 C 0.20458 0.29078 0.79575 0.0
C570 C 0.15882 0.28868 0.79659 0.0
C571 C 0.16143 0.29291 0.82057 0.0
C572 C 0.18574 0.29544 0.83207 0.0
C573 C 0.20718 0.29464 0.81973 0.0
C574 C 0.11081 0.28245 0.86195 0.0
C575 C 0.09412 0.29925 0.85577 0.0
C576 C 0.13314 0.28084 0.85098 0.0
C577 C 0.13882 0.29561 0.83336 0.0
C578 C 0.12242 0.31273 0.82754 0.0
C579 C 0.10042 0.31469 0.83874 0.0
H580 H 0.57228 0.64702 0.53226 0.0
H581 H 0.55526 0.58547 0.4769 0.0
H582 H 0.56386 0.67748 0.50574 0.0
H583 H 0.54636 0.61586 0.45056 0.0
H584 H 0.49485 0.67604 0.42771 0.0
H585 H 0.5095 0.6451 0.4509 0.0
H586 H 0.58183 0.69315 0.46706 0.0
H587 H 0.56737 0.72403 0.44327 0.0
C588 C 0.56686 0.64005 0.51443 0.0
C589 C 0.56416 0.61391 0.50659 0.0
C590 C 0.56224 0.65746 0.49927 0.0
C591 C 0.55445 0.64892 0.47619 0.0
C592 C 0.55228 0.62285 0.46831 0.0
C593 C 0.55735 0.60553 0.48334 0.0
C594 C 0.51401 0.67984 0.43594 0.0
C595 C 0.53 0.70238 0.43372 0.0
C596 C 0.52239 0.66212 0.44913 0.0
C597 C 0.54673 0.66685 0.46075 0.0
C598 C 0.56294 0.68918 0.45827 0.0
C599 C 0.55474 0.7067 0.4446 0.0
H600 H 0.9201 0.81524 0.79167 0.0
H601 H 0.85954 0.826 0.74304 0.0
H602 H 0.94763 0.80913 0.76069 0.0
H603 H 0.88682 0.81945 0.71206 0.0
H604 H 0.95134 0.83284 0.66577 0.0
H605 H 0.92485 0.84026 0.69722 0.0
H606 H 0.95135 0.77809 0.72792 0.0
H607 H 0.97817 0.77095 0.69678 0.0
C608 C 0.9127 0.8162 0.77434 0.0
C609 C 0.88777 0.82111 0.76976 0.0
C610 C 0.92838 0.81259 0.7566 0.0
C611 C 0.91941 0.81382 0.73392 0.0
C612 C 0.89441 0.81874 0.72938 0.0
C613 C 0.87873 0.82234 0.74712 0.0
C614 C 0.95159 0.82081 0.67927 0.0
C615 C 0.96688 0.8013 0.67874 0.0
C616 C 0.93629 0.82497 0.69722 0.0
C617 C 0.93596 0.80973 0.71504 0.0
C618 C 0.95141 0.79037 0.7146 0.0
C619 C 0.96668 0.78619 0.69666 0.0
H620 H 0.12274 0.90357 0.50571 0.0
H621 H 0.06118 0.94842 0.50554 0.0
H622 H 0.10397 0.88059 0.53523 0.0
H623 H 0.04313 0.92672 0.53583 0.0
H624 H -7e-05 0.86076 0.56538 0.0
H625 H 0.02086 0.88739 0.53992 0.0
H626 H 0.09398 0.88088 0.57347 0.0
H627 H 0.07279 0.85289 0.59839 0.0
C628 C 0.10535 0.90867 0.51224 0.0
C629 C 0.09313 0.92733 0.50311 0.0
C630 C 0.09469 0.89572 0.52931 0.0
C631 C 0.07183 0.90157 0.53785 0.0
C632 C 0.06033 0.92115 0.52929 0.0
C633 C 0.07071 0.93369 0.51195 0.0
C634 C 0.02047 0.8652 0.56755 0.0
C635 C 0.03471 0.85464 0.58387 0.0
C636 C 0.03253 0.88068 0.55298 0.0
C637 C 0.0592 0.8864 0.55455 0.0
C638 C 0.07344 0.87655 0.57148 0.0
C639 C 0.06132 0.8607 0.58591 0.0
H640 H 0.21752 0.75589 0.70664 0.0
H641 H 0.16796 0.75084 0.76127 0.0
H642 H 0.18062 0.7576 0.67977 0.0
H643 H 0.13153 0.7523 0.73467 0.0
H644 H 0.07017 0.72542 0.67745 0.0
H645 H 0.10927 0.72218 0.69989 0.0
H646 H 0.14643 0.78925 0.67517 0.0
H647 H 0.10698 0.79272 0.65255 0.0
C648 C 0.19879 0.7551 0.71284 0.0
C649 C 0.19558 0.75333 0.73598 0.0
C650 C 0.1778 0.75619 0.69756 0.0
C651 C 0.1533 0.75497 0.70519 0.0
C652 C 0.15019 0.75303 0.72831 0.0
C653 C 0.17109 0.75234 0.74356 0.0
C654 C 0.08668 0.73939 0.67655 0.0
C655 C 0.08539 0.7595 0.66339 0.0
C656 C 0.10905 0.73753 0.68946 0.0
C657 C 0.13073 0.75558 0.68938 0.0
C658 C 0.12994 0.77504 0.67543 0.0
C659 C 0.10737 0.77708 0.6626 0.0
H660 H 0.97585 0.62564 0.47938 0.0
H661 H 0.89952 0.64308 0.48542 0.0
H662 H 0.99215 0.66158 0.5082 0.0
H663 H 0.91578 0.67866 0.51481 0.0
H664 H 0.00432 0.70159 0.58197 0.0
H665 H 0.98885 0.66931 0.54978 0.0
H666 H 0.94291 0.72087 0.52181 0.0
H667 H 0.95815 0.75321 0.5542 0.0
C668 C 0.96261 0.63744 0.48657 0.0
C669 C 0.9364 0.63153 0.4802 0.0
C670 C 0.9719 0.65781 0.50328 0.0
C671 C 0.9552 0.67271 0.51392 0.0
C672 C 0.92911 0.66754 0.50683 0.0
C673 C 0.91979 0.64709 0.49015 0.0
C674 C 0.99092 0.70609 0.56899 0.0
C675 C 0.98244 0.72996 0.57068 0.0
C676 C 0.98222 0.68765 0.55044 0.0
C677 C 0.9648 0.69265 0.53322 0.0
C678 C 0.95622 0.71647 0.53492 0.0
C679 C 0.96502 0.73498 0.55343 0.0
H680 H 0.76263 0.88093 0.21362 0.0
H681 H 0.7904 0.86358 0.27943 0.0
H682 H 0.78692 0.92345 0.22159 0.0
H683 H 0.81474 0.90628 0.28746 0.0
H684 H 0.84436 0.9914 0.29957 0.0
H685 H 0.81252 0.95322 0.29337 0.0
H686 H 0.83321 0.93769 0.22433 0.0
H687 H 0.86473 0.97569 0.23038 0.0
C688 C 0.77385 0.88628 0.22985 0.0
C689 C 0.77499 0.8688 0.24575 0.0
C690 C 0.78769 0.91062 0.23442 0.0
C691 C 0.80295 0.91807 0.25502 0.0
C692 C 0.803 0.90111 0.27149 0.0
C693 C 0.78912 0.87667 0.26689 0.0
C694 C 0.84182 0.98002 0.28297 0.0
C695 C 0.85715 0.98649 0.26549 0.0
C696 C 0.82372 0.9581 0.27949 0.0
C697 C 0.82043 0.94247 0.2584 0.0
C698 C 0.8351 0.94951 0.2407 0.0
C699 C 0.85329 0.97122 0.24422 0.0
H700 H 0.84077 0.23952 0.33192 0.0
H701 H 0.79012 0.19889 0.27546 0.0
H702 H 0.86924 0.20754 0.32676 0.0
H703 H 0.81884 0.16713 0.27011 0.0
H704 H 0.88288 0.12405 0.33332 0.0
H705 H 0.86221 0.162 0.33411 0.0
H706 H 0.86316 0.15851 0.26091 0.0
H707 H 0.8841 0.12029 0.26009 0.0
C708 C 0.83586 0.22392 0.31824 0.0
C709 C 0.81298 0.22153 0.30433 0.0
C710 C 0.8522 0.20568 0.31526 0.0
C711 C 0.84611 0.18472 0.2982 0.0
C712 C 0.82411 0.18319 0.2833 0.0
C713 C 0.80766 0.2014 0.28636 0.0
C714 C 0.87901 0.13154 0.31741 0.0
C715 C 0.885 0.11913 0.29663 0.0
C716 C 0.86732 0.15339 0.31788 0.0
C717 C 0.86109 0.16322 0.29756 0.0
C718 C 0.86767 0.15125 0.2768 0.0
C719 C 0.87974 0.12949 0.27636 0.0
H720 H 0.42075 0.04615 0.03389 0.0
H721 H 0.3958 0.03448 0.96198 0.0
H722 H 0.38469 0.01566 0.04116 0.0
H723 H 0.35999 0.0036 0.96918 0.0
H724 H 0.28429 0.97323 0.99542 0.0
H725 H 0.32016 0.00428 0.98912 0.0
H726 H 0.3698 0.96891 0.03227 0.0
H727 H 0.33392 0.93787 0.03879 0.0
C728 C 0.4075 0.03707 0.01967 0.0
C729 C 0.41097 0.04267 0.99738 0.0
C730 C 0.38704 0.01949 0.0238 0.0
C731 C 0.36957 0.00733 0.00573 0.0
C732 C 0.37306 0.01291 0.98344 0.0
C733 C 0.39363 0.03036 0.97929 0.0
C734 C 0.30282 0.97211 0.00367 0.0
C735 C 0.30627 0.95304 0.01758 0.0
C736 C 0.32336 0.9898 -8e-05 0.0
C737 C 0.34774 0.98888 0.01011 0.0
C738 C 0.35115 0.97013 0.02434 0.0
C739 C 0.33063 0.95232 0.02798 0.0
H740 H 0.30009 0.41169 0.31541 0.0
H741 H 0.24535 0.34494 0.31788 0.0
H742 H 0.2655 0.43669 0.30984 0.0
H743 H 0.21056 0.37003 0.312 0.0
H744 H 0.16236 0.42501 0.27328 0.0
H745 H 0.19434 0.39673 0.27892 0.0
H746 H 0.23032 0.44898 0.33674 0.0
H747 H 0.19847 0.47691 0.33148 0.0
C748 C 0.28063 0.40237 0.31456 0.0
C749 C 0.27532 0.37646 0.31709 0.0
C750 C 0.26089 0.41666 0.3115 0.0
C751 C 0.23546 0.40523 0.31057 0.0
C752 C 0.23006 0.37919 0.31259 0.0
C753 C 0.24987 0.36495 0.31607 0.0
C754 C 0.17693 0.43026 0.28734 0.0
C755 C 0.17796 0.45322 0.30188 0.0
C756 C 0.19513 0.41408 0.29058 0.0
C757 C 0.21482 0.42088 0.30813 0.0
C758 C 0.21544 0.44348 0.32295 0.0
C759 C 0.19712 0.45938 0.31997 0.0
H760 H 0.14727 0.02614 0.48797 0.0
H761 H 0.16167 0.02132 0.41673 0.0
H762 H 0.18342 0.05974 0.49729 0.0
H763 H 0.1975 0.05555 0.42601 0.0
H764 H 0.27272 0.10563 0.45618 0.0
H765 H 0.24062 0.06786 0.44715 0.0
H766 H 0.18948 0.10446 0.48922 0.0
H767 H 0.22137 0.14194 0.4984 0.0
C768 C 0.15847 0.03191 0.47437 0.0
C769 C 0.15159 0.02119 0.45161 0.0
C770 C 0.17897 0.05136 0.47967 0.0
C771 C 0.19302 0.06048 0.46233 0.0
C772 C 0.18702 0.04886 0.43972 0.0
C773 C 0.16644 0.02942 0.4344 0.0
C774 C 0.2546 0.10561 0.46345 0.0
C775 C 0.24962 0.12678 0.47803 0.0
C776 C 0.23625 0.08401 0.45825 0.0
C777 C 0.21269 0.08315 0.46768 0.0
C778 C 0.20766 0.1044 0.48205 0.0
C779 C 0.22588 0.12597 0.48714 0.0
H780 H 0.7328 0.21306 0.75345 0.0
H781 H 0.79026 0.16427 0.7415 0.0
H782 H 0.70362 0.1768 0.76195 0.0
H783 H 0.76112 0.12807 0.75013 0.0
H784 H 0.71128 0.076 0.79076 0.0
H785 H 0.74034 0.11275 0.78302 0.0
H786 H 0.67991 0.13673 0.74208 0.0
H787 H 0.65078 0.10033 0.75002 0.0
C788 C 0.73911 0.19455 0.75242 0.0
C789 C 0.76383 0.19153 0.7468 0.0
C790 C 0.72242 0.17381 0.75733 0.0
C791 C 0.73013 0.14962 0.75678 0.0
C792 C 0.7548 0.14657 0.75107 0.0
C793 C 0.77146 0.16729 0.7461 0.0
C794 C 0.70416 0.08916 0.78019 0.0
C795 C 0.6787 0.08521 0.77102 0.0
C796 C 0.72085 0.11012 0.77565 0.0
C797 C 0.7124 0.12759 0.76192 0.0
C798 C 0.6869 0.12376 0.75293 0.0
C799 C 0.67025 0.1028 0.7574 0.0
H800 H 0.43751 0.03927 0.51979 0.0
H801 H 0.43267 0.06597 0.59096 0.0
H802 H 0.41967 0.07588 0.50896 0.0
H803 H 0.41665 0.10384 0.58018 0.0
H804 H 0.35366 0.14526 0.54941 0.0
H805 H 0.37895 0.1152 0.56426 0.0
H806 H 0.42531 0.11949 0.50719 0.0
H807 H 0.39897 0.1484 0.49178 0.0
C808 C 0.43284 0.05307 0.53318 0.0
C809 C 0.4362 0.04938 0.55625 0.0
C810 C 0.42303 0.07444 0.52697 0.0
C811 C 0.41667 0.093 0.54367 0.0
C812 C 0.42097 0.08982 0.56681 0.0
C813 C 0.43049 0.06822 0.57302 0.0
C814 C 0.3696 0.14017 0.54033 0.0
C815 C 0.37417 0.14886 0.51931 0.0
C816 C 0.38421 0.12295 0.54887 0.0
C817 C 0.40395 0.11443 0.53672 0.0
C818 C 0.40978 0.12494 0.51665 0.0
C819 C 0.39486 0.14173 0.50791 0.0
H820 H 0.60664 0.51752 0.60199 0.0
H821 H 0.58571 0.51792 0.53018 0.0
H822 H 0.62866 0.48111 0.59272 0.0
H823 H 0.60961 0.48334 0.52083 0.0
H824 H 0.64144 0.41235 0.50613 0.0
H825 H 0.61205 0.44062 0.51998 0.0
H826 H 0.66576 0.47063 0.5781 0.0
H827 H 0.69416 0.441 0.56491 0.0
C828 C 0.60666 0.50987 0.58422 0.0
C829 C 0.59448 0.52091 0.56685 0.0
C830 C 0.61964 0.48914 0.57887 0.0
C831 C 0.6211 0.47914 0.55598 0.0
C832 C 0.60862 0.49004 0.53868 0.0
C833 C 0.5953 0.51039 0.54404 0.0
C834 C 0.64658 0.42457 0.52217 0.0
C835 C 0.67007 0.42463 0.53439 0.0
C836 C 0.6299 0.44104 0.53001 0.0
C837 C 0.6367 0.45852 0.5499 0.0
C838 C 0.65965 0.45742 0.56282 0.0
C839 C 0.67604 0.44045 0.55525 0.0
H840 H 0.72328 0.25373 0.35569 0.0
H841 H 0.80313 0.27791 0.37539 0.0
H842 H 0.71324 0.26822 0.39424 0.0
H843 H 0.7932 0.29316 0.41375 0.0
H844 H 0.77201 0.31234 0.48393 0.0
H845 H 0.77774 0.28465 0.44947 0.0
H846 H 0.71288 0.30897 0.4149 0.0
H847 H 0.70667 0.33586 0.4494 0.0
C848 C 0.73868 0.26203 0.36837 0.0
C849 C 0.76394 0.26501 0.36256 0.0
C850 C 0.73295 0.27037 0.39042 0.0
C851 C 0.75235 0.28213 0.40707 0.0
C852 C 0.77777 0.28391 0.40149 0.0
C853 C 0.7835 0.27531 0.37948 0.0
C854 C 0.7586 0.31129 0.46913 0.0
C855 C 0.7391 0.3266 0.46932 0.0
C856 C 0.76202 0.29555 0.44931 0.0
C857 C 0.74608 0.2949 0.42926 0.0
C858 C 0.72545 0.30879 0.43003 0.0
C859 C 0.72193 0.32437 0.44985 0.0
H860 H 0.5066 0.00032 0.92959 0.0
H861 H 0.50494 0.07793 0.91647 0.0
H862 H 0.53263 0.99347 0.89744 0.0
H863 H 0.53084 0.0711 0.88448 0.0
H864 H 0.55314 0.04065 0.81452 0.0
H865 H 0.52591 0.0448 0.84578 0.0
H866 H 0.57723 0.01007 0.88783 0.0
H867 H 0.60463 0.0058 0.85652 0.0
C868 C 0.51182 0.01586 0.91981 0.0
C869 C 0.5039 0.03963 0.92551 0.0
C870 C 0.52674 0.01198 0.90154 0.0
C871 C 0.53369 0.03176 0.88852 0.0
C872 C 0.52553 0.05547 0.89412 0.0
C873 C 0.51085 0.05941 0.91251 0.0
C874 C 0.55859 0.03373 0.83036 0.0
C875 C 0.58113 0.023 0.83307 0.0
C876 C 0.54305 0.03625 0.84828 0.0
C877 C 0.54957 0.02788 0.86922 0.0
C878 C 0.57172 0.01653 0.87179 0.0
C879 C 0.58744 0.01422 0.85392 0.0
H880 H 0.3298 0.28671 0.34521 0.0
H881 H 0.30761 0.34979 0.38797 0.0
H882 H 0.33074 0.26257 0.37764 0.0
H883 H 0.30894 0.32584 0.4206 0.0
H884 H 0.2838 0.26251 0.46461 0.0
H885 H 0.28595 0.28975 0.43441 0.0
H886 H 0.35377 0.26058 0.41349 0.0
H887 H 0.35119 0.23276 0.44328 0.0
C888 C 0.32541 0.29551 0.36164 0.0
C889 C 0.31857 0.3201 0.36405 0.0
C890 C 0.32605 0.28173 0.38026 0.0
C891 C 0.32001 0.29229 0.40178 0.0
C892 C 0.31336 0.31699 0.40421 0.0
C893 C 0.31259 0.33072 0.38554 0.0
C894 C 0.29935 0.26212 0.45375 0.0
C895 C 0.3172 0.24529 0.45625 0.0
C896 C 0.30064 0.27783 0.43646 0.0
C897 C 0.31989 0.27719 0.42135 0.0
C898 C 0.33837 0.26116 0.42451 0.0
C899 C 0.33701 0.24534 0.44172 0.0
H900 H 0.55111 0.5518 0.92759 0.0
H901 H 0.54246 0.47313 0.89773 0.0
H902 H 0.51974 0.56031 0.89852 0.0
H903 H 0.51072 0.48154 0.86876 0.0
H904 H 0.48267 0.51558 0.80534 0.0
H905 H 0.5121 0.50677 0.83567 0.0
H906 H 0.47341 0.54925 0.88562 0.0
H907 H 0.44385 0.55825 0.85521 0.0
C908 C 0.54239 0.53632 0.91483 0.0
C909 C 0.54933 0.51185 0.91475 0.0
C910 C 0.5243 0.54114 0.89833 0.0
C911 C 0.51291 0.52162 0.88133 0.0
C912 C 0.51944 0.497 0.88154 0.0
C913 C 0.5374 0.49213 0.89818 0.0
C914 C 0.48044 0.52317 0.82276 0.0
C915 C 0.46089 0.53765 0.82784 0.0
C916 C 0.49719 0.51791 0.84015 0.0
C917 C 0.49491 0.52715 0.863 0.0
C918 C 0.47565 0.54197 0.86812 0.0
C919 C 0.45873 0.54709 0.85071 0.0
H920 H 0.76248 0.75614 0.19747 0.0
H921 H 0.7476 0.82538 0.17147 0.0
H922 H 0.76804 0.73723 0.15865 0.0
H923 H 0.75379 0.80691 0.13306 0.0
H924 H 0.74008 0.75782 0.06467 0.0
H925 H 0.73298 0.77381 0.1035 0.0
H926 H 0.79863 0.74284 0.12891 0.0
H927 H 0.80557 0.72633 0.08981 0.0
C928 C 0.76024 0.76722 0.18345 0.0
C929 C 0.7547 0.79225 0.18748 0.0
C930 C 0.76369 0.75652 0.16131 0.0
C931 C 0.76142 0.7706 0.14281 0.0
C932 C 0.75544 0.79546 0.14689 0.0
C933 C 0.7521 0.80613 0.16892 0.0
C934 C 0.75307 0.7544 0.07849 0.0
C935 C 0.77351 0.74094 0.07413 0.0
C936 C 0.74901 0.76364 0.10077 0.0
C937 C 0.7653 0.75968 0.11928 0.0
C938 C 0.78562 0.74598 0.115 0.0
C939 C 0.78971 0.73672 0.09262 0.0
H940 H 0.06688 0.08663 0.14426 0.0
H941 H 0.00035 0.0732 0.09625 0.0
H942 H 0.03959 0.08226 0.17581 0.0
H943 H 0.97316 0.06824 0.12771 0.0
H944 H 0.94975 0.01886 0.18801 0.0
H945 H 0.97353 0.03099 0.15614 0.0
H946 H -0.00048 0.10513 0.19375 0.0
H947 H 0.97496 0.09326 0.22557 0.0
C948 C 0.04643 0.08303 0.14055 0.0
C949 C 0.03563 0.08023 0.11793 0.0
C950 C 0.03088 0.0807 0.15853 0.0
C951 C 0.00437 0.07498 0.15407 0.0
C952 C 0.99357 0.07273 0.1315 0.0
C953 C 0.00907 0.07561 0.11359 0.0
C954 C 0.96023 0.03788 0.18935 0.0
C955 C 0.96056 0.05514 0.2092 0.0
C956 C 0.97372 0.04482 0.17112 0.0
C957 C 0.98828 0.06894 0.17261 0.0
C958 C 0.98837 0.08642 0.1923 0.0
C959 C 0.97429 0.07968 0.21037 0.0
H960 H 0.27432 0.75847 0.16485 0.0
H961 H 0.29537 0.83157 0.20596 0.0
H962 H 0.26663 0.77966 0.1313 0.0
H963 H 0.28738 0.85287 0.17214 0.0
H964 H 0.24344 0.87642 0.10748 0.0
H965 H 0.24873 0.85636 0.14245 0.0
H966 H 0.29715 0.80751 0.10921 0.0
H967 H 0.2922 0.82752 0.07461 0.0
C968 C 0.27712 0.77908 0.16676 0.0
C969 C 0.28548 0.79345 0.188 0.0
C970 C 0.27278 0.79118 0.14753 0.0
C971 C 0.27644 0.81785 0.14919 0.0
C972 C 0.28425 0.83227 0.1705 0.0
C973 C 0.28895 0.82013 0.18974 0.0
C974 C 0.25515 0.86137 0.1077 0.0
C975 C 0.26739 0.85351 0.08834 0.0
C976 C 0.25827 0.85004 0.12768 0.0
C977 C 0.27327 0.83038 0.12841 0.0
C978 C 0.28531 0.82247 0.10901 0.0
C979 C 0.28255 0.83402 0.08925 0.0
H980 H 0.99089 0.53893 0.10276 0.0
H981 H 0.96376 0.45894 0.10282 0.0
H982 H 0.02122 0.53765 0.13474 0.0
H983 H 0.99601 0.45703 0.13322 0.0
H984 H 0.0376 0.46993 0.20533 0.0
H985 H 0.00768 0.46764 0.17177 0.0
H986 H 0.05917 0.52481 0.14533 0.0
H987 H 0.08778 0.52825 0.17977 0.0
C988 C 0.99136 0.52101 0.10951 0.0
C989 C 0.97471 0.49907 0.10008 0.0
C990 C 0.00926 0.52012 0.12763 0.0
C991 C 0.01148 0.49712 0.13651 0.0
C992 C 0.99484 0.47516 0.12706 0.0
C993 C 0.97653 0.47618 0.10929 0.0
C994 C 0.04255 0.48155 0.19203 0.0
C995 C 0.06481 0.4992 0.19489 0.0
C996 C 0.02547 0.4803 0.17276 0.0
C997 C 0.03069 0.49637 0.15586 0.0
C998 C 0.05399 0.51276 0.15825 0.0
C999 C 0.07063 0.51448 0.17776 0.0
H1000 H 0.32603 0.72611 0.30006 0.0
H1001 H 0.36574 0.74494 0.24165 0.0
H1002 H 0.36629 0.73236 0.32341 0.0
H1003 H 0.40621 0.75142 0.2652 0.0
H1004 H 0.46762 0.78772 0.32487 0.0
H1005 H 0.42947 0.78034 0.29838 0.0
H1006 H 0.40442 0.71086 0.32607 0.0
H1007 H 0.44229 0.71829 0.35274 0.0
C1008 C 0.3434 0.73149 0.29219 0.0
C1009 C 0.34274 0.73483 0.26898 0.0
C1010 C 0.36646 0.735 0.30555 0.0
C1011 C 0.38942 0.74202 0.29605 0.0
C1012 C 0.38878 0.74607 0.27299 0.0
C1013 C 0.36564 0.74246 0.25955 0.0
C1014 C 0.45415 0.77069 0.32511 0.0
C1015 C 0.45787 0.75374 0.34111 0.0
C1016 C 0.43234 0.76645 0.30988 0.0
C1017 C 0.41382 0.74523 0.3104 0.0
C1018 C 0.41815 0.72765 0.32561 0.0
C1019 C 0.43994 0.73184 0.34078 0.0
H1020 H 0.94004 0.43932 0.98686 0.0
H1021 H 0.94132 0.38632 0.03651 0.0
H1022 H 0.9579 0.40994 0.95972 0.0
H1023 H 0.95972 0.3572 0.00967 0.0
H1024 H 0.96727 0.30028 0.94786 0.0
H1025 H 0.94889 0.32947 0.97436 0.0
H1026 H 0.99748 0.39292 0.95402 0.0
H1027 H 0.01552 0.36368 0.92694 0.0
C1028 C 0.94409 0.42136 0.99194 0.0
C1029 C 0.93926 0.41498 0.01374 0.0
C1030 C 0.95452 0.40463 0.97648 0.0
C1031 C 0.96034 0.38126 0.98256 0.0
C1032 C 0.95519 0.37488 0.00433 0.0
C1033 C 0.94472 0.39156 0.01972 0.0
C1034 C 0.97417 0.32044 0.94906 0.0
C1035 C 0.9929 0.32963 0.93525 0.0
C1036 C 0.96366 0.33719 0.96435 0.0
C1037 C 0.97169 0.36354 0.9663 0.0
C1038 C 0.99062 0.37275 0.95268 0.0
C1039 C 0.00111 0.35597 0.93731 0.0
H1040 H 0.72053 0.8009 0.33306 0.0
H1041 H 0.67208 0.78842 0.27007 0.0
H1042 H 0.68281 0.79941 0.3548 0.0
H1043 H 0.63464 0.78736 0.29174 0.0
H1044 H 0.58066 0.82431 0.33912 0.0
H1045 H 0.61914 0.82314 0.31922 0.0
H1046 H 0.64165 0.76649 0.35966 0.0
H1047 H 0.60271 0.76728 0.37953 0.0
C1048 C 0.70183 0.7976 0.32391 0.0
C1049 C 0.6992 0.79476 0.29994 0.0
C1050 C 0.68034 0.7967 0.33631 0.0
C1051 C 0.65592 0.79342 0.3249 0.0
C1052 C 0.6533 0.79011 0.30092 0.0
C1053 C 0.67473 0.79058 0.28854 0.0
C1054 C 0.59384 0.8117 0.34393 0.0
C1055 C 0.58863 0.79584 0.36087 0.0
C1056 C 0.61578 0.81093 0.33242 0.0
C1057 C 0.63318 0.79459 0.33781 0.0
C1058 C 0.62847 0.77926 0.35523 0.0
C1059 C 0.60623 0.7797 0.36653 0.0
H1060 H 0.06392 0.15608 0.03006 0.0
H1061 H 0.05127 0.09272 0.97621 0.0
H1062 H 0.05721 0.18526 0.00196 0.0
H1063 H 0.04402 0.12188 0.9482 0.0
H1064 H 0.99481 0.18106 0.91934 0.0
H1065 H 0.00732 0.15088 0.94442 0.0
H1066 H 0.07858 0.19963 0.96453 0.0
H1067 H 0.06633 0.22971 0.9389 0.0
C1068 C 0.05974 0.14843 0.01223 0.0
C1069 C 0.05786 0.12216 0.00524 0.0
C1070 C 0.05611 0.16512 0.99617 0.0
C1071 C 0.05012 0.15573 0.97299 0.0
C1072 C 0.04857 0.12951 0.966 0.0
C1073 C 0.05269 0.1129 0.98198 0.0
C1074 C 0.0133 0.18516 0.92885 0.0
C1075 C 0.02962 0.20769 0.92722 0.0
C1076 C 0.02046 0.16787 0.94312 0.0
C1077 C 0.04384 0.17305 0.95639 0.0
C1078 C 0.06042 0.19533 0.95447 0.0
C1079 C 0.05348 0.2124 0.93976 0.0
H1080 H 0.43205 0.34229 0.30743 0.0
H1081 H 0.37219 0.34534 0.25529 0.0
H1082 H 0.462 0.33815 0.27817 0.0
H1083 H 0.40178 0.34047 0.22603 0.0
H1084 H 0.4656 0.35322 0.18011 0.0
H1085 H 0.43827 0.36176 0.21069 0.0
H1086 H 0.47051 0.30718 0.248 0.0
H1087 H 0.49828 0.2992 0.21783 0.0
C1088 C 0.42534 0.34205 0.2897 0.0
C1089 C 0.39988 0.34415 0.28364 0.0
C1090 C 0.44242 0.33955 0.27294 0.0
C1091 C 0.4343 0.33895 0.24973 0.0
C1092 C 0.40879 0.34128 0.24375 0.0
C1093 C 0.39176 0.3439 0.26052 0.0
C1094 C 0.467 0.3432 0.19493 0.0
C1095 C 0.48409 0.32548 0.19648 0.0
C1096 C 0.45121 0.34798 0.2124 0.0
C1097 C 0.45209 0.33506 0.23176 0.0
C1098 C 0.46955 0.31772 0.23349 0.0
C1099 C 0.4854 0.31304 0.21609 0.0
H1100 H 0.55018 0.42984 0.99258 0.0
H1101 H 0.62556 0.446 0.02732 0.0
H1102 H 0.53568 0.40541 0.02258 0.0
H1103 H 0.61088 0.42232 0.05799 0.0
H1104 H 0.58053 0.35492 0.09566 0.0
H1105 H 0.59708 0.38063 0.06703 0.0
H1106 H 0.52612 0.41121 0.06113 0.0
H1107 H 0.50936 0.3848 0.08896 0.0
C1108 C 0.56362 0.42828 0.00673 0.0
C1109 C 0.58899 0.43985 0.00771 0.0
C1110 C 0.55528 0.41444 0.02406 0.0
C1111 C 0.57203 0.41211 0.04289 0.0
C1112 C 0.59751 0.42351 0.04368 0.0
C1113 C 0.60591 0.43715 0.02619 0.0
C1114 C 0.56863 0.36738 0.08841 0.0
C1115 C 0.5436 0.36771 0.09439 0.0
C1116 C 0.57811 0.38216 0.07202 0.0
C1117 C 0.56281 0.39775 0.0615 0.0
C1118 C 0.5382 0.39891 0.06839 0.0
C1119 C 0.52865 0.38394 0.08451 0.0
H1120 H 0.73737 0.26519 0.21126 0.0
H1121 H 0.70076 0.28291 0.273 0.0
H1122 H 0.69871 0.27119 0.18844 0.0
H1123 H 0.66273 0.28854 0.25042 0.0
H1124 H 0.59104 0.25711 0.20384 0.0
H1125 H 0.63207 0.25389 0.22294 0.0
H1126 H 0.66877 0.30862 0.18316 0.0
H1127 H 0.62724 0.31216 0.16387 0.0
C1128 C 0.72124 0.27056 0.21991 0.0
C1129 C 0.72206 0.27337 0.24386 0.0
C1130 C 0.69926 0.27408 0.20691 0.0
C1131 C 0.67779 0.28011 0.21776 0.0
C1132 C 0.67897 0.28365 0.24168 0.0
C1133 C 0.70085 0.28043 0.25459 0.0
C1134 C 0.60778 0.26844 0.19901 0.0
C1135 C 0.60586 0.28506 0.18246 0.0
C1136 C 0.63126 0.2666 0.21 0.0
C1137 C 0.65346 0.28112 0.20459 0.0
C1138 C 0.65185 0.29719 0.18755 0.0
C1139 C 0.62814 0.2993 0.17665 0.0
H1140 H 0.47237 0.15097 0.99279 0.0
H1141 H 0.46011 0.1086 0.0499 0.0
H1142 H 0.4841 0.1902 0.01926 0.0
H1143 H 0.47096 0.14774 0.07616 0.0
H1144 H 0.5222 0.21587 0.116 0.0
H1145 H 0.50958 0.17768 0.08897 0.0
H1146 H 0.465 0.21929 0.04704 0.0
H1147 H 0.47796 0.25787 0.07401 0.0
C1148 C 0.47215 0.15007 0.01097 0.0
C1149 C 0.46533 0.12675 0.01929 0.0
C1150 C 0.47859 0.17252 0.02608 0.0
C1151 C 0.47848 0.17199 0.04976 0.0
C1152 C 0.47148 0.14869 0.05801 0.0
C1153 C 0.465 0.12633 0.04296 0.0
C1154 C 0.50966 0.21695 0.10107 0.0
C1155 C 0.50104 0.23992 0.0972 0.0
C1156 C 0.50234 0.195 0.08563 0.0
C1157 C 0.48623 0.19549 0.06595 0.0
C1158 C 0.47761 0.21843 0.06199 0.0
C1159 C 0.4849 0.24045 0.0775 0.0
H1160 H 0.27616 0.36382 0.70254 0.0
H1161 H 0.29353 0.35653 0.77367 0.0
H1162 H 0.29807 0.40743 0.70872 0.0
H1163 H 0.31508 0.40037 0.77988 0.0
H1164 H 0.33387 0.48674 0.78649 0.0
H1165 H 0.30682 0.44552 0.77932 0.0
H1166 H 0.34343 0.42711 0.71783 0.0
H1167 H 0.37041 0.46828 0.72486 0.0
C1168 C 0.28472 0.37149 0.71948 0.0
C1169 C 0.28339 0.35659 0.73756 0.0
C1170 C 0.29715 0.39649 0.72301 0.0
C1171 C 0.30835 0.40723 0.74473 0.0
C1172 C 0.30637 0.39265 0.76299 0.0
C1173 C 0.29405 0.36756 0.75943 0.0
C1174 C 0.33593 0.47406 0.77127 0.0
C1175 C 0.3544 0.48074 0.7563 0.0
C1176 C 0.32055 0.4504 0.76727 0.0
C1177 C 0.32315 0.43308 0.74811 0.0
C1178 C 0.34089 0.44016 0.73266 0.0
C1179 C 0.35641 0.46371 0.73675 0.0
H1180 H 0.27828 0.70219 0.84134 0.0
H1181 H 0.29363 0.72026 0.77381 0.0
H1182 H 0.30579 0.66982 0.83782 0.0
H1183 H 0.31946 0.68596 0.76946 0.0
H1184 H 0.38189 0.63516 0.77637 0.0
H1185 H 0.35783 0.67112 0.7804 0.0
H1186 H 0.30516 0.62905 0.81957 0.0
H1187 H 0.32983 0.59412 0.81657 0.0
C1188 C 0.2876 0.69942 0.82573 0.0
C1189 C 0.28367 0.71408 0.8079 0.0
C1190 C 0.30307 0.68037 0.82353 0.0
C1191 C 0.31464 0.67487 0.80321 0.0
C1192 C 0.31104 0.6897 0.78543 0.0
C1193 C 0.29586 0.70916 0.7878 0.0
C1194 C 0.36523 0.63378 0.78592 0.0
C1195 C 0.35789 0.61196 0.79635 0.0
C1196 C 0.35132 0.6543 0.78812 0.0
C1197 C 0.32961 0.6532 0.80052 0.0
C1198 C 0.32213 0.63103 0.81048 0.0
C1199 C 0.33621 0.61084 0.80862 0.0
H1200 H 0.85923 0.53591 0.4323 0.0
H1201 H 0.8919 0.55736 0.50186 0.0
H1202 H 0.82807 0.50393 0.4451 0.0
H1203 H 0.86013 0.5263 0.51473 0.0
H1204 H 0.82288 0.44606 0.52356 0.0
H1205 H 0.85179 0.48034 0.51175 0.0
H1206 H 0.79105 0.4988 0.46732 0.0
H1207 H 0.76212 0.46404 0.47877 0.0
C1208 C 0.85962 0.53392 0.45032 0.0
C1209 C 0.87803 0.54912 0.46605 0.0
C1210 C 0.84161 0.51583 0.45769 0.0
C1211 C 0.84169 0.51257 0.48092 0.0
C1212 C 0.85977 0.52816 0.49668 0.0
C1213 C 0.87777 0.54618 0.48933 0.0
C1214 C 0.8156 0.45749 0.51137 0.0
C1215 C 0.7902 0.45225 0.50205 0.0
C1216 C 0.83216 0.47725 0.5047 0.0
C1217 C 0.82369 0.49228 0.4886 0.0
C1218 C 0.79819 0.48733 0.47955 0.0
C1219 C 0.7816 0.46752 0.48621 0.0
H1220 H 0.74415 0.8495 0.82791 0.0
H1221 H 0.79508 0.89518 0.78982 0.0
H1222 H 0.71221 0.87752 0.82254 0.0
H1223 H 0.76242 0.92193 0.78337 0.0
H1224 H 0.68544 0.94886 0.76115 0.0
H1225 H 0.71325 0.91595 0.76364 0.0
H1226 H 0.71562 0.92844 0.83717 0.0
H1227 H 0.68859 0.96168 0.83478 0.0
C1228 C 0.7486 0.86537 0.81836 0.0
C1229 C 0.77242 0.87007 0.80946 0.0
C1230 C 0.73016 0.8812 0.81509 0.0
C1231 C 0.7349 0.90167 0.80242 0.0
C1232 C 0.75824 0.90598 0.79291 0.0
C1233 C 0.77689 0.89053 0.79657 0.0
C1234 C 0.6917 0.94432 0.7778 0.0
C1235 C 0.68504 0.95784 0.79778 0.0
C1236 C 0.7076 0.92562 0.77921 0.0
C1237 C 0.71643 0.91976 0.80059 0.0
C1238 C 0.70888 0.93254 0.8205 0.0
C1239 C 0.69356 0.95161 0.81911 0.0
H1240 H 0.6418 0.54138 0.92135 0.0
H1241 H 0.63253 0.54473 0.99354 0.0
H1242 H 0.67805 0.57538 0.92933 0.0
H1243 H 0.66895 0.57834 0.00153 0.0
H1244 H 0.71127 0.65885 0.0031 0.0
H1245 H 0.67663 0.62376 0.99396 0.0
H1246 H 0.72271 0.58392 0.94884 0.0
H1247 H 0.75759 0.61918 0.95788 0.0
C1248 C 0.64765 0.5493 0.93891 0.0
C1249 C 0.63438 0.54052 0.95683 0.0
C1250 C 0.66845 0.56858 0.94347 0.0
C1251 C 0.67615 0.57955 0.96602 0.0
C1252 C 0.6632 0.57039 0.98396 0.0
C1253 C 0.64255 0.551 0.97942 0.0
C1254 C 0.71405 0.6427 0.99113 0.0
C1255 C 0.73723 0.64178 0.98125 0.0
C1256 C 0.69425 0.62253 0.98605 0.0
C1257 C 0.69711 0.60107 0.97087 0.0
C1258 C 0.72002 0.60032 0.96055 0.0
C1259 C 0.73997 0.62046 0.96578 0.0
H1260 H 0.22667 0.69649 0.24289 0.0
H1261 H 0.28948 0.65359 0.2492 0.0
H1262 H 0.19717 0.65902 0.24807 0.0
H1263 H 0.25991 0.61619 0.25471 0.0
H1264 H 0.2005 0.56547 0.28965 0.0
H1265 H 0.23079 0.60222 0.28377 0.0
H1266 H 0.1812 0.61619 0.22724 0.0
H1267 H 0.15086 0.57976 0.23313 0.0
C1268 C 0.23416 0.679 0.24516 0.0
C1269 C 0.26041 0.67801 0.24561 0.0
C1270 C 0.21727 0.65757 0.24818 0.0
C1271 C 0.22627 0.63472 0.2518 0.0
C1272 C 0.2525 0.63366 0.25224 0.0
C1273 C 0.26939 0.65507 0.2491 0.0
C1274 C 0.19608 0.57636 0.27595 0.0
C1275 C 0.17322 0.56972 0.26192 0.0
C1276 C 0.21348 0.5973 0.27252 0.0
C1277 C 0.20827 0.61208 0.2551 0.0
C1278 C 0.18555 0.60533 0.24098 0.0
C1279 C 0.16824 0.58436 0.24431 0.0
H1280 H 0.87764 0.52792 0.05269 0.0
H1281 H 0.95326 0.57006 0.05815 0.0
H1282 H 0.85971 0.56645 0.04551 0.0
H1283 H 0.93535 0.6085 0.0504 0.0
H1284 H 0.88595 0.64858 0.99688 0.0
H1285 H 0.90829 0.61625 0.01207 0.0
H1286 H 0.85937 0.61412 0.06723 0.0
H1287 H 0.83739 0.64704 0.05241 0.0
C1288 C 0.89034 0.5455 0.05249 0.0
C1289 C 0.91676 0.54614 0.05591 0.0
C1290 C 0.88013 0.56751 0.04856 0.0
C1291 C 0.89621 0.59036 0.04752 0.0
C1292 C 0.92262 0.59108 0.05121 0.0
C1293 C 0.93281 0.5692 0.05565 0.0
C1294 C 0.88041 0.64169 0.01258 0.0
C1295 C 0.85995 0.65026 0.02347 0.0
C1296 C 0.89321 0.62326 0.02126 0.0
C1297 C 0.88538 0.61268 0.04069 0.0
C1298 C 0.86566 0.62201 0.05217 0.0
C1299 C 0.85324 0.64091 0.04379 0.0
H1300 H 0.0774 0.01215 0.08545 0.0
H1301 H 0.13102 0.06892 0.06117 0.0
H1302 H 0.10465 0.97986 0.07531 0.0
H1303 H 0.15774 0.03657 0.0506 0.0
H1304 H 0.17523 0.96761 0.00453 0.0
H1305 H 0.14879 -0.00171 0.01939 0.0
H1306 H 0.15051 0.96813 0.08391 0.0
H1307 H 0.17742 0.93716 0.06905 0.0
C1308 C 0.09518 0.01785 0.07836 0.0
C1309 C 0.10187 0.04305 0.07381 0.0
C1310 C 0.11071 -0.00066 0.07251 0.0
C1311 C 0.13305 0.00569 0.06186 0.0
C1312 C 0.14034 0.03109 0.05839 0.0
C1313 C 0.12501 0.04958 0.06439 0.0
C1314 C 0.16988 0.96728 0.02184 0.0
C1315 C 0.17855 0.95 0.03565 0.0
C1316 C 0.15488 0.98501 0.03038 0.0
C1317 C 0.14795 0.9858 0.05288 0.0
C1318 C 0.15568 0.96791 0.06651 0.0
C1319 C 0.17103 0.95023 0.058 0.0
loop_
_geom_bond_atom_site_label_1
_geom_bond_atom_site_label_2
_geom_bond_distance
_geom_bond_site_symmetry_2
_ccdc_geom_bond_type
H0 C5 0.930 . S
H1 C8 0.930 . S
H2 C10 0.930 . S
H3 C4 1.016 . S
C4 H3 1.016 . S
C4 N11 1.286 . S
C5 H0 0.930 . S
C5 C6 1.397 . S
C5 C7 1.361 . S
C6 C5 1.397 . S
C6 C10 1.390 . S
C7 C5 1.361 . S
C7 C8 1.393 . S
C7 N11 1.413 . S
C8 H1 0.930 . S
C8 C7 1.393 . S
C8 C9 1.399 . S
C9 C8 1.399 . S
C9 C10 1.381 . S
C10 H2 0.930 . S
C10 C6 1.390 . S
C10 C9 1.381 . S
N11 C4 1.286 . S
N11 C7 1.413 . S
H12 C17 0.930 . S
H13 C20 0.930 . S
H14 C22 0.930 . S
H15 C16 1.016 . S
C16 H15 1.016 . S
C16 N23 1.286 . S
C17 H12 0.930 . S
C17 C18 1.397 . S
C17 C19 1.361 . S
C18 C17 1.397 . S
C18 C22 1.390 . S
C19 C17 1.361 . S
C19 C20 1.393 . S
C19 N23 1.413 . S
C20 H13 0.930 . S
C20 C19 1.393 . S
C20 C21 1.399 . S
C21 C20 1.399 . S
C21 C22 1.381 . S
C22 H14 0.930 . S
C22 C18 1.390 . S
C22 C21 1.381 . S
N23 C16 1.286 . S
N23 C19 1.413 . S
H24 C29 0.930 . S
H25 C32 0.930 . S
H26 C34 0.930 . S
H27 C28 1.016 . S
C28 H27 1.016 . S
C28 N35 1.286 . S
C29 H24 0.930 . S
C29 C30 1.397 . S
C29 C31 1.361 . S
C30 C29 1.397 . S
C30 C34 1.390 . S
C31 C29 1.361 . S
C31 C32 1.393 . S
C31 N35 1.413 . S
C32 H25 0.930 . S
C32 C31 1.393 . S
C32 C33 1.399 . S
C33 C32 1.399 . S
C33 C34 1.381 . S
C34 H26 0.930 . S
C34 C30 1.390 . S
C34 C33 1.381 . S
N35 C28 1.286 . S
N35 C31 1.413 . S
H36 C41 0.930 . S
H37 C44 0.930 . S
H38 C46 0.930 . S
H39 C40 1.016 . S
C40 H39 1.016 . S
C40 N47 1.286 . S
C41 H36 0.930 . S
C41 C42 1.397 . S
C41 C43 1.361 . S
C42 C41 1.397 . S
C42 C46 1.390 . S
C43 C41 1.361 . S
C43 C44 1.393 . S
C43 N47 1.413 . S
C44 H37 0.930 . S
C44 C43 1.393 . S
C44 C45 1.399 . S
C45 C44 1.399 . S
C45 C46 1.381 . S
C46 H38 0.930 . S
C46 C42 1.390 . S
C46 C45 1.381 . S
N47 C40 1.286 . S
N47 C43 1.413 . S
H48 C53 0.930 . S
H49 C56 0.930 . S
H50 C58 0.930 1_545 S
H51 C52 1.016 . S
C52 H51 1.016 . S
C52 N59 1.286 . S
C53 H48 0.930 . S
C53 C54 1.397 . S
C53 C55 1.361 . S
C54 C53 1.397 . S
C54 C58 1.390 . S
C55 C53 1.361 . S
C55 C56 1.393 . S
C55 N59 1.413 . S
C56 H49 0.930 . S
C56 C55 1.393 . S
C56 C57 1.399 . S
C57 C56 1.399 . S
C57 C58 1.381 . S
C58 H50 0.930 1_565 S
C58 C54 1.390 . S
C58 C57 1.381 . S
N59 C52 1.286 . S
N59 C55 1.413 . S
H60 C65 0.930 . S
H61 C68 0.930 . S
H62 C70 0.930 . S
H63 C64 1.016 . S
C64 H63 1.016 . S
C64 N71 1.286 . S
C65 H60 0.930 . S
C65 C66 1.397 . S
C65 C67 1.361 . S
C66 C65 1.397 . S
C66 C70 1.390 . S
C67 C65 1.361 . S
C67 C68 1.393 . S
C67 N71 1.413 . S
C68 H61 0.930 . S
C68 C67 1.393 . S
C68 C69 1.399 . S
C69 C68 1.399 . S
C69 C70 1.381 . S
C70 H62 0.930 . S
C70 C66 1.390 . S
C70 C69 1.381 . S
N71 C64 1.286 . S
N71 C67 1.413 . S
H72 C77 0.930 . S
H73 C80 0.930 . S
H74 C82 0.930 . S
H75 C76 1.016 . S
C76 H75 1.016 . S
C76 N83 1.286 . S
C77 H72 0.930 . S
C77 C78 1.397 . S
C77 C79 1.361 . S
C78 C77 1.397 . S
C78 C82 1.390 . S
C79 C77 1.361 . S
C79 C80 1.393 . S
C79 N83 1.413 . S
C80 H73 0.930 . S
C80 C79 1.393 . S
C80 C81 1.399 . S
C81 C80 1.399 . S
C81 C82 1.381 . S
C82 H74 0.930 . S
C82 C78 1.390 . S
C82 C81 1.381 . S
N83 C76 1.286 . S
N83 C79 1.413 . S
H84 C89 0.930 . S
H85 C92 0.930 . S
H86 C94 0.930 . S
H87 C88 1.016 . S
C88 H87 1.016 . S
C88 N95 1.286 . S
C89 H84 0.930 . S
C89 C90 1.397 . S
C89 C91 1.361 . S
C90 C89 1.397 . S
C90 C94 1.390 . S
C91 C89 1.361 . S
C91 C92 1.393 . S
C91 N95 1.413 . S
C92 H85 0.930 . S
C92 C91 1.393 . S
C92 C93 1.399 . S
C93 C92 1.399 . S
C93 C94 1.381 . S
C94 H86 0.930 . S
C94 C90 1.390 . S
C94 C93 1.381 . S
N95 C88 1.286 . S
N95 C91 1.413 . S
H96 C101 0.930 . S
H97 C104 0.930 . S
H98 C106 0.930 . S
H99 C100 1.016 . S
C100 H99 1.016 . S
C100 N107 1.286 . S
C101 H96 0.930 . S
C101 C102 1.397 . S
C101 C103 1.361 . S
C102 C101 1.397 . S
C102 C106 1.390 . S
C103 C101 1.361 . S
C103 C104 1.393 . S
C103 N107 1.413 . S
C104 H97 0.930 . S
C104 C103 1.393 . S
C104 C105 1.399 . S
C105 C104 1.399 . S
C105 C106 1.381 . S
C106 H98 0.930 . S
C106 C102 1.390 . S
C106 C105 1.381 . S
N107 C100 1.286 . S
N107 C103 1.413 . S
H108 C113 0.930 . S
H109 C116 0.930 . S
H110 C118 0.930 . S
H111 C112 1.016 . S
C112 H111 1.016 . S
C112 N119 1.286 . S
C113 H108 0.930 . S
C113 C114 1.397 . S
C113 C115 1.361 . S
C114 C113 1.397 . S
C114 C118 1.390 . S
C115 C113 1.361 . S
C115 C116 1.393 . S
C115 N119 1.413 . S
C116 H109 0.930 . S
C116 C115 1.393 . S
C116 C117 1.399 . S
C117 C116 1.399 . S
C117 C118 1.381 . S
C118 H110 0.930 . S
C118 C114 1.390 . S
C118 C117 1.381 . S
N119 C112 1.286 . S
N119 C115 1.413 . S
H120 C125 0.930 . S
H121 C128 0.930 . S
H122 C130 0.930 . S
H123 C124 1.016 . S
C124 H123 1.016 . S
C124 N131 1.286 . S
C125 H120 0.930 . S
C125 C126 1.397 . S
C125 C127 1.361 . S
C126 C125 1.397 . S
C126 C130 1.390 . S
C127 C125 1.361 . S
C127 C128 1.393 . S
C127 N131 1.413 . S
C128 H121 0.930 . S
C128 C127 1.393 . S
C128 C129 1.399 . S
C129 C128 1.399 . S
C129 C130 1.381 . S
C130 H122 0.930 . S
C130 C126 1.390 . S
C130 C129 1.381 . S
N131 C124 1.286 . S
N131 C127 1.413 . S
H132 C137 0.930 . S
H133 C140 0.930 . S
H134 C142 0.930 . S
H135 C136 1.016 . S
C136 H135 1.016 . S
C136 N143 1.286 . S
C137 H132 0.930 . S
C137 C138 1.397 . S
C137 C139 1.361 . S
C138 C137 1.397 . S
C138 C142 1.390 . S
C139 C137 1.361 . S
C139 C140 1.393 . S
C139 N143 1.413 . S
C140 H133 0.930 . S
C140 C139 1.393 . S
C140 C141 1.399 . S
C141 C140 1.399 . S
C141 C142 1.381 . S
C142 H134 0.930 . S
C142 C138 1.390 . S
C142 C141 1.381 . S
N143 C136 1.286 . S
N143 C139 1.413 . S
H144 C149 0.930 . S
H145 C152 0.930 . S
H146 C154 0.930 . S
H147 C148 1.016 . S
C148 H147 1.016 . S
C148 N155 1.286 . S
C149 H144 0.930 . S
C149 C150 1.397 . S
C149 C151 1.361 . S
C150 C149 1.397 . S
C150 C154 1.390 . S
C151 C149 1.361 . S
C151 C152 1.393 . S
C151 N155 1.413 . S
C152 H145 0.930 . S
C152 C151 1.393 . S
C152 C153 1.399 . S
C153 C152 1.399 . S
C153 C154 1.381 . S
C154 H146 0.930 . S
C154 C150 1.390 . S
C154 C153 1.381 . S
N155 C148 1.286 . S
N155 C151 1.413 . S
H156 C161 0.930 . S
H157 C164 0.930 . S
H158 C166 0.930 . S
H159 C160 1.016 . S
C160 H159 1.016 . S
C160 N167 1.286 . S
C161 H156 0.930 . S
C161 C162 1.397 . S
C161 C163 1.361 . S
C162 C161 1.397 . S
C162 C166 1.390 . S
C163 C161 1.361 . S
C163 C164 1.393 . S
C163 N167 1.413 . S
C164 H157 0.930 . S
C164 C163 1.393 . S
C164 C165 1.399 . S
C165 C164 1.399 . S
C165 C166 1.381 . S
C166 H158 0.930 . S
C166 C162 1.390 . S
C166 C165 1.381 . S
N167 C160 1.286 . S
N167 C163 1.413 . S
H168 C173 0.930 . S
H169 C176 0.930 . S
H170 C178 0.930 . S
H171 C172 1.016 . S
C172 H171 1.016 . S
C172 N179 1.286 . S
C173 H168 0.930 . S
C173 C174 1.397 . S
C173 C175 1.361 . S
C174 C173 1.397 . S
C174 C178 1.390 . S
C175 C173 1.361 . S
C175 C176 1.393 . S
C175 N179 1.413 . S
C176 H169 0.930 . S
C176 C175 1.393 . S
C176 C177 1.399 . S
C177 C176 1.399 . S
C177 C178 1.381 . S
C178 H170 0.930 . S
C178 C174 1.390 . S
C178 C177 1.381 . S
N179 C172 1.286 . S
N179 C175 1.413 . S
H180 C185 0.930 . S
H181 C188 0.930 . S
H182 C190 0.930 . S
H183 C184 1.016 . S
C184 H183 1.016 . S
C184 N191 1.286 . S
C185 H180 0.930 . S
C185 C186 1.397 . S
C185 C187 1.361 . S
C186 C185 1.397 . S
C186 C190 1.390 . S
C187 C185 1.361 . S
C187 C188 1.393 . S
C187 N191 1.413 . S
C188 H181 0.930 . S
C188 C187 1.393 . S
C188 C189 1.399 . S
C189 C188 1.399 . S
C189 C190 1.381 . S
C190 H182 0.930 . S
C190 C186 1.390 . S
C190 C189 1.381 . S
N191 C184 1.286 . S
N191 C187 1.413 . S
O192 Cd193 2.223 . S
O192 C200 1.315 . S
Cd193 O192 2.223 . S
Cd193 O196 2.297 . S
Cd193 O197 2.439 . S
Cd193 O203 2.240 . S
Cd194 O195 2.240 . S
Cd194 O202 2.223 . S
Cd194 O204 2.297 . S
Cd194 O205 2.439 . S
O195 Cd194 2.240 . S
O195 C200 1.279 . S
O196 Cd193 2.297 . S
O196 C198 1.247 . S
O197 Cd193 2.439 . S
O197 C198 1.208 . S
C198 O196 1.247 . S
C198 O197 1.208 . S
C199 O204 1.247 . S
C199 O205 1.208 . S
C200 O192 1.315 . S
C200 O195 1.279 . S
C201 O202 1.315 . S
C201 O203 1.279 . S
O202 Cd194 2.223 . S
O202 C201 1.315 . S
O203 Cd193 2.240 . S
O203 C201 1.279 . S
O204 Cd194 2.297 . S
O204 C199 1.247 . S
O205 Cd194 2.439 . S
O205 C199 1.208 . S
O206 Cd207 2.223 . S
O206 C214 1.315 . S
Cd207 O206 2.223 . S
Cd207 O210 2.297 . S
Cd207 O211 2.439 . S
Cd207 O217 2.240 . S
Cd208 O209 2.240 . S
Cd208 O216 2.223 . S
Cd208 O218 2.297 . S
Cd208 O219 2.439 . S
O209 Cd208 2.240 . S
O209 C214 1.279 . S
O210 Cd207 2.297 . S
O210 C212 1.247 . S
O211 Cd207 2.439 . S
O211 C212 1.208 . S
C212 O210 1.247 . S
C212 O211 1.208 . S
C213 O218 1.247 . S
C213 O219 1.208 . S
C214 O206 1.315 . S
C214 O209 1.279 . S
C215 O216 1.315 . S
C215 O217 1.279 . S
O216 Cd208 2.223 . S
O216 C215 1.315 . S
O217 Cd207 2.240 . S
O217 C215 1.279 . S
O218 Cd208 2.297 . S
O218 C213 1.247 . S
O219 Cd208 2.439 . S
O219 C213 1.208 . S
O220 Cd221 2.223 1_556 S
O220 C228 1.315 . S
Cd221 O220 2.223 1_554 S
Cd221 O224 2.297 . S
Cd221 O225 2.439 . S
Cd221 O231 2.240 . S
Cd222 O223 2.240 . S
Cd222 O230 2.223 . S
Cd222 O232 2.297 1_556 S
Cd222 O233 2.439 1_556 S
O223 Cd222 2.240 . S
O223 C228 1.279 . S
O224 Cd221 2.297 . S
O224 C226 1.247 . S
O225 Cd221 2.439 . S
O225 C226 1.208 . S
C226 O224 1.247 . S
C226 O225 1.208 . S
C227 O232 1.247 . S
C227 O233 1.208 . S
C228 O220 1.315 . S
C228 O223 1.279 . S
C229 O230 1.315 . S
C229 O231 1.279 1_556 S
O230 Cd222 2.223 . S
O230 C229 1.315 . S
O231 Cd221 2.240 . S
O231 C229 1.279 1_554 S
O232 Cd222 2.297 1_554 S
O232 C227 1.247 . S
O233 Cd222 2.439 1_554 S
O233 C227 1.208 . S
O234 Cd235 2.223 . S
O234 C242 1.315 . S
Cd235 O234 2.223 . S
Cd235 O238 2.297 . S
Cd235 O239 2.439 . S
Cd235 O245 2.240 . S
Cd236 O237 2.240 . S
Cd236 O244 2.223 . S
Cd236 O246 2.297 . S
Cd236 O247 2.439 . S
O237 Cd236 2.240 . S
O237 C242 1.279 . S
O238 Cd235 2.297 . S
O238 C240 1.247 . S
O239 Cd235 2.439 . S
O239 C240 1.208 . S
C240 O238 1.247 . S
C240 O239 1.208 . S
C241 O246 1.247 . S
C241 O247 1.208 . S
C242 O234 1.315 . S
C242 O237 1.279 . S
C243 O244 1.315 . S
C243 O245 1.279 . S
O244 Cd236 2.223 . S
O244 C243 1.315 . S
O245 Cd235 2.240 . S
O245 C243 1.279 . S
O246 Cd236 2.297 . S
O246 C241 1.247 . S
O247 Cd236 2.439 . S
O247 C241 1.208 . S
O248 Cd249 2.223 . S
O248 C256 1.315 . S
Cd249 O248 2.223 . S
Cd249 O252 2.297 . S
Cd249 O253 2.439 . S
Cd249 O259 2.240 . S
Cd250 O251 2.240 . S
Cd250 O258 2.223 . S
Cd250 O260 2.297 . S
Cd250 O261 2.439 . S
O251 Cd250 2.240 . S
O251 C256 1.279 . S
O252 Cd249 2.297 . S
O252 C254 1.247 . S
O253 Cd249 2.439 . S
O253 C254 1.208 . S
C254 O252 1.247 . S
C254 O253 1.208 . S
C255 O260 1.247 . S
C255 O261 1.208 . S
C256 O248 1.315 . S
C256 O251 1.279 . S
C257 O258 1.315 . S
C257 O259 1.279 . S
O258 Cd250 2.223 . S
O258 C257 1.315 . S
O259 Cd249 2.240 . S
O259 C257 1.279 . S
O260 Cd250 2.297 . S
O260 C255 1.247 . S
O261 Cd250 2.439 . S
O261 C255 1.208 . S
O262 Cd263 2.223 . S
O262 C270 1.315 . S
Cd263 O262 2.223 . S
Cd263 O266 2.297 . S
Cd263 O267 2.439 . S
Cd263 O273 2.240 . S
Cd264 O265 2.240 . S
Cd264 O272 2.223 . S
Cd264 O274 2.297 . S
Cd264 O275 2.439 . S
O265 Cd264 2.240 . S
O265 C270 1.279 . S
O266 Cd263 2.297 . S
O266 C268 1.247 . S
O267 Cd263 2.439 . S
O267 C268 1.208 . S
C268 O266 1.247 . S
C268 O267 1.208 . S
C269 O274 1.247 . S
C269 O275 1.208 . S
C270 O262 1.315 . S
C270 O265 1.279 . S
C271 O272 1.315 . S
C271 O273 1.279 . S
O272 Cd264 2.223 . S
O272 C271 1.315 . S
O273 Cd263 2.240 . S
O273 C271 1.279 . S
O274 Cd264 2.297 . S
O274 C269 1.247 . S
O275 Cd264 2.439 . S
O275 C269 1.208 . S
O276 Cd277 2.223 . S
O276 C284 1.315 . S
Cd277 O276 2.223 . S
Cd277 O280 2.297 . S
Cd277 O281 2.439 . S
Cd277 O287 2.240 . S
Cd278 O279 2.240 . S
Cd278 O286 2.223 . S
Cd278 O288 2.297 . S
Cd278 O289 2.439 . S
O279 Cd278 2.240 . S
O279 C284 1.279 . S
O280 Cd277 2.297 . S
O280 C282 1.247 . S
O281 Cd277 2.439 . S
O281 C282 1.208 . S
C282 O280 1.247 . S
C282 O281 1.208 . S
C283 O288 1.247 . S
C283 O289 1.208 . S
C284 O276 1.315 . S
C284 O279 1.279 . S
C285 O286 1.315 . S
C285 O287 1.279 . S
O286 Cd278 2.223 . S
O286 C285 1.315 . S
O287 Cd277 2.240 . S
O287 C285 1.279 . S
O288 Cd278 2.297 . S
O288 C283 1.247 . S
O289 Cd278 2.439 . S
O289 C283 1.208 . S
O290 Cd291 2.223 1_545 S
O290 C298 1.315 . S
Cd291 O290 2.223 1_565 S
Cd291 O294 2.297 . S
Cd291 O295 2.439 . S
Cd291 O301 2.240 1_565 S
Cd292 O293 2.240 . S
Cd292 O300 2.223 . S
Cd292 O302 2.297 . S
Cd292 O303 2.439 1_545 S
O293 Cd292 2.240 . S
O293 C298 1.279 . S
O294 Cd291 2.297 . S
O294 C296 1.247 . S
O295 Cd291 2.439 . S
O295 C296 1.208 . S
C296 O294 1.247 . S
C296 O295 1.208 . S
C297 O302 1.247 1_565 S
C297 O303 1.208 . S
C298 O290 1.315 . S
C298 O293 1.279 . S
C299 O300 1.315 . S
C299 O301 1.279 . S
O300 Cd292 2.223 . S
O300 C299 1.315 . S
O301 Cd291 2.240 1_545 S
O301 C299 1.279 . S
O302 Cd292 2.297 . S
O302 C297 1.247 1_545 S
O303 Cd292 2.439 1_565 S
O303 C297 1.208 . S
O304 Cd305 2.223 . S
O304 C312 1.315 . S
Cd305 O304 2.223 . S
Cd305 O308 2.297 1_655 S
Cd305 O309 2.439 1_655 S
Cd305 O315 2.240 . S
Cd306 O307 2.240 . S
Cd306 O314 2.223 1_455 S
Cd306 O316 2.297 . S
Cd306 O317 2.439 . S
O307 Cd306 2.240 . S
O307 C312 1.279 1_455 S
O308 Cd305 2.297 1_455 S
O308 C310 1.247 . S
O309 Cd305 2.439 1_455 S
O309 C310 1.208 . S
C310 O308 1.247 . S
C310 O309 1.208 . S
C311 O316 1.247 . S
C311 O317 1.208 . S
C312 O304 1.315 . S
C312 O307 1.279 1_655 S
C313 O314 1.315 . S
C313 O315 1.279 . S
O314 Cd306 2.223 1_655 S
O314 C313 1.315 . S
O315 Cd305 2.240 . S
O315 C313 1.279 . S
O316 Cd306 2.297 . S
O316 C311 1.247 . S
O317 Cd306 2.439 . S
O317 C311 1.208 . S
O318 Cd319 2.223 . S
O318 C326 1.315 . S
Cd319 O318 2.223 . S
Cd319 O322 2.297 . S
Cd319 O323 2.439 . S
Cd319 O329 2.240 . S
Cd320 O321 2.240 . S
Cd320 O328 2.223 . S
Cd320 O330 2.297 . S
Cd320 O331 2.439 . S
O321 Cd320 2.240 . S
O321 C326 1.279 . S
O322 Cd319 2.297 . S
O322 C324 1.247 . S
O323 Cd319 2.439 . S
O323 C324 1.208 . S
C324 O322 1.247 . S
C324 O323 1.208 . S
C325 O330 1.247 . S
C325 O331 1.208 . S
C326 O318 1.315 . S
C326 O321 1.279 . S
C327 O328 1.315 . S
C327 O329 1.279 . S
O328 Cd320 2.223 . S
O328 C327 1.315 . S
O329 Cd319 2.240 . S
O329 C327 1.279 . S
O330 Cd320 2.297 . S
O330 C325 1.247 . S
O331 Cd320 2.439 . S
O331 C325 1.208 . S
O332 Cd333 2.223 1_655 S
O332 C340 1.315 . S
Cd333 O332 2.223 1_455 S
Cd333 O336 2.297 . S
Cd333 O337 2.439 . S
Cd333 O343 2.240 . S
Cd334 O335 2.240 . S
Cd334 O342 2.223 1_455 S
Cd334 O344 2.297 . S
Cd334 O345 2.439 . S
O335 Cd334 2.240 . S
O335 C340 1.279 1_455 S
O336 Cd333 2.297 . S
O336 C338 1.247 . S
O337 Cd333 2.439 . S
O337 C338 1.208 . S
C338 O336 1.247 . S
C338 O337 1.208 . S
C339 O344 1.247 . S
C339 O345 1.208 . S
C340 O332 1.315 . S
C340 O335 1.279 1_655 S
C341 O342 1.315 . S
C341 O343 1.279 1_655 S
O342 Cd334 2.223 1_655 S
O342 C341 1.315 . S
O343 Cd333 2.240 . S
O343 C341 1.279 1_455 S
O344 Cd334 2.297 . S
O344 C339 1.247 . S
O345 Cd334 2.439 . S
O345 C339 1.208 . S
O346 Cd347 2.223 . S
O346 C354 1.315 . S
Cd347 O346 2.223 . S
Cd347 O350 2.297 . S
Cd347 O351 2.439 . S
Cd347 O357 2.240 . S
Cd348 O349 2.240 . S
Cd348 O356 2.223 . S
Cd348 O358 2.297 . S
Cd348 O359 2.439 . S
O349 Cd348 2.240 . S
O349 C354 1.279 . S
O350 Cd347 2.297 . S
O350 C352 1.247 . S
O351 Cd347 2.439 . S
O351 C352 1.208 . S
C352 O350 1.247 . S
C352 O351 1.208 . S
C353 O358 1.247 . S
C353 O359 1.208 . S
C354 O346 1.315 . S
C354 O349 1.279 . S
C355 O356 1.315 . S
C355 O357 1.279 . S
O356 Cd348 2.223 . S
O356 C355 1.315 . S
O357 Cd347 2.240 . S
O357 C355 1.279 . S
O358 Cd348 2.297 . S
O358 C353 1.247 . S
O359 Cd348 2.439 . S
O359 C353 1.208 . S
H360 C368 0.950 . S
H361 C373 0.950 . S
H362 C370 0.950 . S
H363 C372 0.950 . S
H364 C374 0.950 1_554 S
H365 C376 0.950 . S
H366 C378 0.950 . S
H367 C379 0.950 . S
C368 H360 0.950 . S
C368 C369 1.386 . S
C368 C370 1.391 . S
C369 C368 1.386 . S
C369 C373 1.393 . S
C370 H362 0.950 . S
C370 C368 1.391 . S
C370 C371 1.400 . S
C371 C370 1.400 . S
C371 C372 1.398 . S
C371 C377 1.491 . S
C372 H363 0.950 . S
C372 C371 1.398 . S
C372 C373 1.391 . S
C373 H361 0.950 . S
C373 C369 1.393 . S
C373 C372 1.391 . S
C374 H364 0.950 1_556 S
C374 C375 1.386 . S
C374 C376 1.391 . S
C375 C374 1.386 . S
C375 C379 1.393 . S
C376 H365 0.950 . S
C376 C374 1.391 . S
C376 C377 1.400 . S
C377 C371 1.491 . S
C377 C376 1.400 . S
C377 C378 1.398 . S
C378 H366 0.950 . S
C378 C377 1.398 . S
C378 C379 1.391 . S
C379 H367 0.950 . S
C379 C375 1.393 . S
C379 C378 1.391 . S
H380 C388 0.950 . S
H381 C393 0.950 . S
H382 C390 0.950 . S
H383 C392 0.950 . S
H384 C394 0.950 . S
H385 C396 0.950 . S
H386 C398 0.950 . S
H387 C399 0.950 . S
C388 H380 0.950 . S
C388 C389 1.386 . S
C388 C390 1.391 1_655 S
C389 C388 1.386 . S
C389 C393 1.393 . S
C390 H382 0.950 . S
C390 C388 1.391 1_455 S
C390 C391 1.400 . S
C391 C390 1.400 . S
C391 C392 1.398 1_455 S
C391 C397 1.491 . S
C392 H383 0.950 . S
C392 C391 1.398 1_655 S
C392 C393 1.391 . S
C393 H381 0.950 . S
C393 C389 1.393 . S
C393 C392 1.391 . S
C394 H384 0.950 . S
C394 C395 1.386 . S
C394 C396 1.391 . S
C395 C394 1.386 . S
C395 C399 1.393 . S
C396 H385 0.950 . S
C396 C394 1.391 . S
C396 C397 1.400 . S
C397 C391 1.491 . S
C397 C396 1.400 . S
C397 C398 1.398 . S
C398 H386 0.950 . S
C398 C397 1.398 . S
C398 C399 1.391 . S
C399 H387 0.950 . S
C399 C395 1.393 . S
C399 C398 1.391 . S
H400 C408 0.950 . S
H401 C413 0.950 . S
H402 C410 0.950 . S
H403 C412 0.950 . S
H404 C414 0.950 . S
H405 C416 0.950 . S
H406 C418 0.950 . S
H407 C419 0.950 . S
C408 H400 0.950 . S
C408 C409 1.386 . S
C408 C410 1.391 . S
C409 C408 1.386 . S
C409 C413 1.393 . S
C410 H402 0.950 . S
C410 C408 1.391 . S
C410 C411 1.400 . S
C411 C410 1.400 . S
C411 C412 1.398 . S
C411 C417 1.491 . S
C412 H403 0.950 . S
C412 C411 1.398 . S
C412 C413 1.391 . S
C413 H401 0.950 . S
C413 C409 1.393 . S
C413 C412 1.391 . S
C414 H404 0.950 . S
C414 C415 1.386 . S
C414 C416 1.391 . S
C415 C414 1.386 . S
C415 C419 1.393 . S
C416 H405 0.950 . S
C416 C414 1.391 . S
C416 C417 1.400 . S
C417 C411 1.491 . S
C417 C416 1.400 . S
C417 C418 1.398 . S
C418 H406 0.950 . S
C418 C417 1.398 . S
C418 C419 1.391 . S
C419 H407 0.950 . S
C419 C415 1.393 . S
C419 C418 1.391 . S
H420 C428 0.950 . S
H421 C433 0.950 . S
H422 C430 0.950 . S
H423 C432 0.950 . S
H424 C434 0.950 . S
H425 C436 0.950 . S
H426 C438 0.950 1_665 S
H427 C439 0.950 . S
C428 H420 0.950 . S
C428 C429 1.386 . S
C428 C430 1.391 . S
C429 C428 1.386 . S
C429 C433 1.393 1_565 S
C430 H422 0.950 . S
C430 C428 1.391 . S
C430 C431 1.400 1_565 S
C431 C430 1.400 1_545 S
C431 C432 1.398 . S
C431 C437 1.491 . S
C432 H423 0.950 . S
C432 C431 1.398 . S
C432 C433 1.391 . S
C433 H421 0.950 . S
C433 C429 1.393 1_545 S
C433 C432 1.391 . S
C434 H424 0.950 . S
C434 C435 1.386 1_455 S
C434 C436 1.391 . S
C435 C434 1.386 1_655 S
C435 C439 1.393 . S
C436 H425 0.950 . S
C436 C434 1.391 . S
C436 C437 1.400 . S
C437 C431 1.491 . S
C437 C436 1.400 . S
C437 C438 1.398 . S
C438 H426 0.950 1_445 S
C438 C437 1.398 . S
C438 C439 1.391 1_455 S
C439 H427 0.950 . S
C439 C435 1.393 . S
C439 C438 1.391 1_655 S
H440 C448 0.950 . S
H441 C453 0.950 . S
H442 C450 0.950 . S
H443 C452 0.950 . S
H444 C454 0.950 . S
H445 C456 0.950 . S
H446 C458 0.950 . S
H447 C459 0.950 . S
C448 H440 0.950 . S
C448 C449 1.386 . S
C448 C450 1.391 . S
C449 C448 1.386 . S
C449 C453 1.393 . S
C450 H442 0.950 . S
C450 C448 1.391 . S
C450 C451 1.400 . S
C451 C450 1.400 . S
C451 C452 1.398 . S
C451 C457 1.491 . S
C452 H443 0.950 . S
C452 C451 1.398 . S
C452 C453 1.391 . S
C453 H441 0.950 . S
C453 C449 1.393 . S
C453 C452 1.391 . S
C454 H444 0.950 . S
C454 C455 1.386 . S
C454 C456 1.391 . S
C455 C454 1.386 . S
C455 C459 1.393 . S
C456 H445 0.950 . S
C456 C454 1.391 . S
C456 C457 1.400 . S
C457 C451 1.491 . S
C457 C456 1.400 . S
C457 C458 1.398 . S
C458 H446 0.950 . S
C458 C457 1.398 . S
C458 C459 1.391 . S
C459 H447 0.950 . S
C459 C455 1.393 . S
C459 C458 1.391 . S
H460 C468 0.950 . S
H461 C473 0.950 . S
H462 C470 0.950 . S
H463 C472 0.950 . S
H464 C474 0.950 . S
H465 C476 0.950 . S
H466 C478 0.950 . S
H467 C479 0.950 . S
C468 H460 0.950 . S
C468 C469 1.386 . S
C468 C470 1.391 . S
C469 C468 1.386 . S
C469 C473 1.393 . S
C470 H462 0.950 . S
C470 C468 1.391 . S
C470 C471 1.400 . S
C471 C470 1.400 . S
C471 C472 1.398 . S
C471 C477 1.491 . S
C472 H463 0.950 . S
C472 C471 1.398 . S
C472 C473 1.391 . S
C473 H461 0.950 . S
C473 C469 1.393 . S
C473 C472 1.391 . S
C474 H464 0.950 . S
C474 C475 1.386 . S
C474 C476 1.391 . S
C475 C474 1.386 . S
C475 C479 1.393 . S
C476 H465 0.950 . S
C476 C474 1.391 . S
C476 C477 1.400 . S
C477 C471 1.491 . S
C477 C476 1.400 . S
C477 C478 1.398 . S
C478 H466 0.950 . S
C478 C477 1.398 . S
C478 C479 1.391 . S
C479 H467 0.950 . S
C479 C475 1.393 . S
C479 C478 1.391 . S
H480 C488 0.950 . S
H481 C493 0.950 . S
H482 C490 0.950 . S
H483 C492 0.950 . S
H484 C494 0.950 . S
H485 C496 0.950 . S
H486 C498 0.950 . S
H487 C499 0.950 . S
C488 H480 0.950 . S
C488 C489 1.386 . S
C488 C490 1.391 . S
C489 C488 1.386 . S
C489 C493 1.393 . S
C490 H482 0.950 . S
C490 C488 1.391 . S
C490 C491 1.400 . S
C491 C490 1.400 . S
C491 C492 1.398 . S
C491 C497 1.491 . S
C492 H483 0.950 . S
C492 C491 1.398 . S
C492 C493 1.391 . S
C493 H481 0.950 . S
C493 C489 1.393 . S
C493 C492 1.391 . S
C494 H484 0.950 . S
C494 C495 1.386 . S
C494 C496 1.391 . S
C495 C494 1.386 . S
C495 C499 1.393 . S
C496 H485 0.950 . S
C496 C494 1.391 . S
C496 C497 1.400 . S
C497 C491 1.491 . S
C497 C496 1.400 . S
C497 C498 1.398 . S
C498 H486 0.950 . S
C498 C497 1.398 . S
C498 C499 1.391 . S
C499 H487 0.950 . S
C499 C495 1.393 . S
C499 C498 1.391 . S
H500 C508 0.950 . S
H501 C513 0.950 . S
H502 C510 0.950 . S
H503 C512 0.950 . S
H504 C514 0.950 . S
H505 C516 0.950 . S
H506 C518 0.950 . S
H507 C519 0.950 . S
C508 H500 0.950 . S
C508 C509 1.386 . S
C508 C510 1.391 . S
C509 C508 1.386 . S
C509 C513 1.393 . S
C510 H502 0.950 . S
C510 C508 1.391 . S
C510 C511 1.400 . S
C511 C510 1.400 . S
C511 C512 1.398 . S
C511 C517 1.491 . S
C512 H503 0.950 . S
C512 C511 1.398 . S
C512 C513 1.391 . S
C513 H501 0.950 . S
C513 C509 1.393 . S
C513 C512 1.391 . S
C514 H504 0.950 . S
C514 C515 1.386 . S
C514 C516 1.391 . S
C515 C514 1.386 . S
C515 C519 1.393 . S
C516 H505 0.950 . S
C516 C514 1.391 . S
C516 C517 1.400 . S
C517 C511 1.491 . S
C517 C516 1.400 . S
C517 C518 1.398 . S
C518 H506 0.950 . S
C518 C517 1.398 . S
C518 C519 1.391 . S
C519 H507 0.950 . S
C519 C515 1.393 . S
C519 C518 1.391 . S
H520 C528 0.950 . S
H521 C533 0.950 . S
H522 C530 0.950 . S
H523 C532 0.950 . S
H524 C534 0.950 . S
H525 C536 0.950 . S
H526 C538 0.950 . S
H527 C539 0.950 . S
C528 H520 0.950 . S
C528 C529 1.386 . S
C528 C530 1.391 . S
C529 C528 1.386 . S
C529 C533 1.393 . S
C530 H522 0.950 . S
C530 C528 1.391 . S
C530 C531 1.400 . S
C531 C530 1.400 . S
C531 C532 1.398 . S
C531 C537 1.491 . S
C532 H523 0.950 . S
C532 C531 1.398 . S
C532 C533 1.391 . S
C533 H521 0.950 . S
C533 C529 1.393 . S
C533 C532 1.391 . S
C534 H524 0.950 . S
C534 C535 1.386 . S
C534 C536 1.391 . S
C535 C534 1.386 . S
C535 C539 1.393 . S
C536 H525 0.950 . S
C536 C534 1.391 . S
C536 C537 1.400 . S
C537 C531 1.491 . S
C537 C536 1.400 . S
C537 C538 1.398 . S
C538 H526 0.950 . S
C538 C537 1.398 . S
C538 C539 1.391 . S
C539 H527 0.950 . S
C539 C535 1.393 . S
C539 C538 1.391 . S
H540 C548 0.950 . S
H541 C553 0.950 . S
H542 C550 0.950 . S
H543 C552 0.950 . S
H544 C554 0.950 . S
H545 C556 0.950 . S
H546 C558 0.950 . S
H547 C559 0.950 . S
C548 H540 0.950 . S
C548 C549 1.386 . S
C548 C550 1.391 . S
C549 C548 1.386 . S
C549 C553 1.393 . S
C550 H542 0.950 . S
C550 C548 1.391 . S
C550 C551 1.400 . S
C551 C550 1.400 . S
C551 C552 1.398 . S
C551 C557 1.491 . S
C552 H543 0.950 . S
C552 C551 1.398 . S
C552 C553 1.391 . S
C553 H541 0.950 . S
C553 C549 1.393 . S
C553 C552 1.391 . S
C554 H544 0.950 . S
C554 C555 1.386 . S
C554 C556 1.391 . S
C555 C554 1.386 . S
C555 C559 1.393 . S
C556 H545 0.950 . S
C556 C554 1.391 . S
C556 C557 1.400 . S
C557 C551 1.491 . S
C557 C556 1.400 . S
C557 C558 1.398 . S
C558 H546 0.950 . S
C558 C557 1.398 . S
C558 C559 1.391 . S
C559 H547 0.950 . S
C559 C555 1.393 . S
C559 C558 1.391 . S
H560 C568 0.950 . S
H561 C573 0.950 . S
H562 C570 0.950 . S
H563 C572 0.950 . S
H564 C574 0.950 . S
H565 C576 0.950 . S
H566 C578 0.950 . S
H567 C579 0.950 . S
C568 H560 0.950 . S
C568 C569 1.386 . S
C568 C570 1.391 . S
C569 C568 1.386 . S
C569 C573 1.393 . S
C570 H562 0.950 . S
C570 C568 1.391 . S
C570 C571 1.400 . S
C571 C570 1.400 . S
C571 C572 1.398 . S
C571 C577 1.491 . S
C572 H563 0.950 . S
C572 C571 1.398 . S
C572 C573 1.391 . S
C573 H561 0.950 . S
C573 C569 1.393 . S
C573 C572 1.391 . S
C574 H564 0.950 . S
C574 C575 1.386 . S
C574 C576 1.391 . S
C575 C574 1.386 . S
C575 C579 1.393 . S
C576 H565 0.950 . S
C576 C574 1.391 . S
C576 C577 1.400 . S
C577 C571 1.491 . S
C577 C576 1.400 . S
C577 C578 1.398 . S
C578 H566 0.950 . S
C578 C577 1.398 . S
C578 C579 1.391 . S
C579 H567 0.950 . S
C579 C575 1.393 . S
C579 C578 1.391 . S
H580 C588 0.950 . S
H581 C593 0.950 . S
H582 C590 0.950 . S
H583 C592 0.950 . S
H584 C594 0.950 . S
H585 C596 0.950 . S
H586 C598 0.950 . S
H587 C599 0.950 . S
C588 H580 0.950 . S
C588 C589 1.386 . S
C588 C590 1.391 . S
C589 C588 1.386 . S
C589 C593 1.393 . S
C590 H582 0.950 . S
C590 C588 1.391 . S
C590 C591 1.400 . S
C591 C590 1.400 . S
C591 C592 1.398 . S
C591 C597 1.491 . S
C592 H583 0.950 . S
C592 C591 1.398 . S
C592 C593 1.391 . S
C593 H581 0.950 . S
C593 C589 1.393 . S
C593 C592 1.391 . S
C594 H584 0.950 . S
C594 C595 1.386 . S
C594 C596 1.391 . S
C595 C594 1.386 . S
C595 C599 1.393 . S
C596 H585 0.950 . S
C596 C594 1.391 . S
C596 C597 1.400 . S
C597 C591 1.491 . S
C597 C596 1.400 . S
C597 C598 1.398 . S
C598 H586 0.950 . S
C598 C597 1.398 . S
C598 C599 1.391 . S
C599 H587 0.950 . S
C599 C595 1.393 . S
C599 C598 1.391 . S
H600 C608 0.950 . S
H601 C613 0.950 . S
H602 C610 0.950 . S
H603 C612 0.950 . S
H604 C614 0.950 . S
H605 C616 0.950 . S
H606 C618 0.950 . S
H607 C619 0.950 . S
C608 H600 0.950 . S
C608 C609 1.386 . S
C608 C610 1.391 . S
C609 C608 1.386 . S
C609 C613 1.393 . S
C610 H602 0.950 . S
C610 C608 1.391 . S
C610 C611 1.400 . S
C611 C610 1.400 . S
C611 C612 1.398 . S
C611 C617 1.491 . S
C612 H603 0.950 . S
C612 C611 1.398 . S
C612 C613 1.391 . S
C613 H601 0.950 . S
C613 C609 1.393 . S
C613 C612 1.391 . S
C614 H604 0.950 . S
C614 C615 1.386 . S
C614 C616 1.391 . S
C615 C614 1.386 . S
C615 C619 1.393 . S
C616 H605 0.950 . S
C616 C614 1.391 . S
C616 C617 1.400 . S
C617 C611 1.491 . S
C617 C616 1.400 . S
C617 C618 1.398 . S
C618 H606 0.950 . S
C618 C617 1.398 . S
C618 C619 1.391 . S
C619 H607 0.950 . S
C619 C615 1.393 . S
C619 C618 1.391 . S
H620 C628 0.950 . S
H621 C633 0.950 . S
H622 C630 0.950 . S
H623 C632 0.950 . S
H624 C634 0.950 . S
H625 C636 0.950 . S
H626 C638 0.950 . S
H627 C639 0.950 . S
C628 H620 0.950 . S
C628 C629 1.386 . S
C628 C630 1.391 . S
C629 C628 1.386 . S
C629 C633 1.393 . S
C630 H622 0.950 . S
C630 C628 1.391 . S
C630 C631 1.400 . S
C631 C630 1.400 . S
C631 C632 1.398 . S
C631 C637 1.491 . S
C632 H623 0.950 . S
C632 C631 1.398 . S
C632 C633 1.391 . S
C633 H621 0.950 . S
C633 C629 1.393 . S
C633 C632 1.391 . S
C634 H624 0.950 . S
C634 C635 1.386 . S
C634 C636 1.391 . S
C635 C634 1.386 . S
C635 C639 1.393 . S
C636 H625 0.950 . S
C636 C634 1.391 . S
C636 C637 1.400 . S
C637 C631 1.491 . S
C637 C636 1.400 . S
C637 C638 1.398 . S
C638 H626 0.950 . S
C638 C637 1.398 . S
C638 C639 1.391 . S
C639 H627 0.950 . S
C639 C635 1.393 . S
C639 C638 1.391 . S
H640 C648 0.950 . S
H641 C653 0.950 . S
H642 C650 0.950 . S
H643 C652 0.950 . S
H644 C654 0.950 . S
H645 C656 0.950 . S
H646 C658 0.950 . S
H647 C659 0.950 . S
C648 H640 0.950 . S
C648 C649 1.386 . S
C648 C650 1.391 . S
C649 C648 1.386 . S
C649 C653 1.393 . S
C650 H642 0.950 . S
C650 C648 1.391 . S
C650 C651 1.400 . S
C651 C650 1.400 . S
C651 C652 1.398 . S
C651 C657 1.491 . S
C652 H643 0.950 . S
C652 C651 1.398 . S
C652 C653 1.391 . S
C653 H641 0.950 . S
C653 C649 1.393 . S
C653 C652 1.391 . S
C654 H644 0.950 . S
C654 C655 1.386 . S
C654 C656 1.391 . S
C655 C654 1.386 . S
C655 C659 1.393 . S
C656 H645 0.950 . S
C656 C654 1.391 . S
C656 C657 1.400 . S
C657 C651 1.491 . S
C657 C656 1.400 . S
C657 C658 1.398 . S
C658 H646 0.950 . S
C658 C657 1.398 . S
C658 C659 1.391 . S
C659 H647 0.950 . S
C659 C655 1.393 . S
C659 C658 1.391 . S
H660 C668 0.950 . S
H661 C673 0.950 . S
H662 C670 0.950 . S
H663 C672 0.950 . S
H664 C674 0.950 . S
H665 C676 0.950 . S
H666 C678 0.950 1_455 S
H667 C679 0.950 . S
C668 H660 0.950 . S
C668 C669 1.386 . S
C668 C670 1.391 . S
C669 C668 1.386 . S
C669 C673 1.393 . S
C670 H662 0.950 . S
C670 C668 1.391 . S
C670 C671 1.400 . S
C671 C670 1.400 . S
C671 C672 1.398 . S
C671 C677 1.491 . S
C672 H663 0.950 . S
C672 C671 1.398 . S
C672 C673 1.391 . S
C673 H661 0.950 . S
C673 C669 1.393 . S
C673 C672 1.391 . S
C674 H664 0.950 . S
C674 C675 1.386 . S
C674 C676 1.391 . S
C675 C674 1.386 . S
C675 C679 1.393 1_655 S
C676 H665 0.950 . S
C676 C674 1.391 . S
C676 C677 1.400 . S
C677 C671 1.491 . S
C677 C676 1.400 . S
C677 C678 1.398 . S
C678 H666 0.950 1_655 S
C678 C677 1.398 . S
C678 C679 1.391 1_655 S
C679 H667 0.950 . S
C679 C675 1.393 1_455 S
C679 C678 1.391 1_455 S
H680 C688 0.950 . S
H681 C693 0.950 . S
H682 C690 0.950 . S
H683 C692 0.950 . S
H684 C694 0.950 1_545 S
H685 C696 0.950 . S
H686 C698 0.950 . S
H687 C699 0.950 . S
C688 H680 0.950 . S
C688 C689 1.386 . S
C688 C690 1.391 . S
C689 C688 1.386 . S
C689 C693 1.393 . S
C690 H682 0.950 . S
C690 C688 1.391 . S
C690 C691 1.400 . S
C691 C690 1.400 . S
C691 C692 1.398 . S
C691 C697 1.491 . S
C692 H683 0.950 . S
C692 C691 1.398 . S
C692 C693 1.391 . S
C693 H681 0.950 . S
C693 C689 1.393 . S
C693 C692 1.391 . S
C694 H684 0.950 1_565 S
C694 C695 1.386 1_565 S
C694 C696 1.391 . S
C695 C694 1.386 1_545 S
C695 C699 1.393 . S
C696 H685 0.950 . S
C696 C694 1.391 . S
C696 C697 1.400 . S
C697 C691 1.491 . S
C697 C696 1.400 . S
C697 C698 1.398 . S
C698 H686 0.950 . S
C698 C697 1.398 . S
C698 C699 1.391 1_565 S
C699 H687 0.950 . S
C699 C695 1.393 . S
C699 C698 1.391 1_545 S
H700 C708 0.950 . S
H701 C713 0.950 . S
H702 C710 0.950 . S
H703 C712 0.950 . S
H704 C714 0.950 . S
H705 C716 0.950 . S
H706 C718 0.950 . S
H707 C719 0.950 . S
C708 H700 0.950 . S
C708 C709 1.386 . S
C708 C710 1.391 . S
C709 C708 1.386 . S
C709 C713 1.393 . S
C710 H702 0.950 . S
C710 C708 1.391 . S
C710 C711 1.400 . S
C711 C710 1.400 . S
C711 C712 1.398 . S
C711 C717 1.491 . S
C712 H703 0.950 . S
C712 C711 1.398 . S
C712 C713 1.391 . S
C713 H701 0.950 . S
C713 C709 1.393 . S
C713 C712 1.391 . S
C714 H704 0.950 . S
C714 C715 1.386 . S
C714 C716 1.391 . S
C715 C714 1.386 . S
C715 C719 1.393 . S
C716 H705 0.950 . S
C716 C714 1.391 . S
C716 C717 1.400 . S
C717 C711 1.491 . S
C717 C716 1.400 . S
C717 C718 1.398 . S
C718 H706 0.950 . S
C718 C717 1.398 . S
C718 C719 1.391 . S
C719 H707 0.950 . S
C719 C715 1.393 . S
C719 C718 1.391 . S
H720 C728 0.950 . S
H721 C733 0.950 . S
H722 C730 0.950 . S
H723 C732 0.950 . S
H724 C734 0.950 . S
H725 C736 0.950 1_556 S
H726 C738 0.950 . S
H727 C739 0.950 . S
C728 H720 0.950 . S
C728 C729 1.386 . S
C728 C730 1.391 . S
C729 C728 1.386 . S
C729 C733 1.393 . S
C730 H722 0.950 . S
C730 C728 1.391 . S
C730 C731 1.400 . S
C731 C730 1.400 . S
C731 C732 1.398 . S
C731 C737 1.491 . S
C732 H723 0.950 . S
C732 C731 1.398 . S
C732 C733 1.391 . S
C733 H721 0.950 . S
C733 C729 1.393 . S
C733 C732 1.391 . S
C734 H724 0.950 . S
C734 C735 1.386 . S
C734 C736 1.391 1_565 S
C735 C734 1.386 . S
C735 C739 1.393 . S
C736 H725 0.950 1_554 S
C736 C734 1.391 1_545 S
C736 C737 1.400 1_554 S
C737 C731 1.491 . S
C737 C736 1.400 1_556 S
C737 C738 1.398 1_546 S
C738 H726 0.950 . S
C738 C737 1.398 1_564 S
C738 C739 1.391 . S
C739 H727 0.950 . S
C739 C735 1.393 . S
C739 C738 1.391 . S
H740 C748 0.950 . S
H741 C753 0.950 . S
H742 C750 0.950 . S
H743 C752 0.950 . S
H744 C754 0.950 . S
H745 C756 0.950 . S
H746 C758 0.950 . S
H747 C759 0.950 . S
C748 H740 0.950 . S
C748 C749 1.386 . S
C748 C750 1.391 . S
C749 C748 1.386 . S
C749 C753 1.393 . S
C750 H742 0.950 . S
C750 C748 1.391 . S
C750 C751 1.400 . S
C751 C750 1.400 . S
C751 C752 1.398 . S
C751 C757 1.491 . S
C752 H743 0.950 . S
C752 C751 1.398 . S
C752 C753 1.391 . S
C753 H741 0.950 . S
C753 C749 1.393 . S
C753 C752 1.391 . S
C754 H744 0.950 . S
C754 C755 1.386 . S
C754 C756 1.391 . S
C755 C754 1.386 . S
C755 C759 1.393 . S
C756 H745 0.950 . S
C756 C754 1.391 . S
C756 C757 1.400 . S
C757 C751 1.491 . S
C757 C756 1.400 . S
C757 C758 1.398 . S
C758 H746 0.950 . S
C758 C757 1.398 . S
C758 C759 1.391 . S
C759 H747 0.950 . S
C759 C755 1.393 . S
C759 C758 1.391 . S
H760 C768 0.950 . S
H761 C773 0.950 1_565 S
H762 C770 0.950 . S
H763 C772 0.950 . S
H764 C774 0.950 . S
H765 C776 0.950 . S
H766 C778 0.950 . S
H767 C779 0.950 . S
C768 H760 0.950 . S
C768 C769 1.386 . S
C768 C770 1.391 . S
C769 C768 1.386 . S
C769 C773 1.393 . S
C770 H762 0.950 . S
C770 C768 1.391 . S
C770 C771 1.400 . S
C771 C770 1.400 . S
C771 C772 1.398 . S
C771 C777 1.491 . S
C772 H763 0.950 . S
C772 C771 1.398 . S
C772 C773 1.391 . S
C773 H761 0.950 1_545 S
C773 C769 1.393 . S
C773 C772 1.391 . S
C774 H764 0.950 . S
C774 C775 1.386 . S
C774 C776 1.391 . S
C775 C774 1.386 . S
C775 C779 1.393 . S
C776 H765 0.950 . S
C776 C774 1.391 . S
C776 C777 1.400 . S
C777 C771 1.491 . S
C777 C776 1.400 . S
C777 C778 1.398 . S
C778 H766 0.950 . S
C778 C777 1.398 . S
C778 C779 1.391 . S
C779 H767 0.950 . S
C779 C775 1.393 . S
C779 C778 1.391 . S
H780 C788 0.950 . S
H781 C793 0.950 . S
H782 C790 0.950 . S
H783 C792 0.950 . S
H784 C794 0.950 . S
H785 C796 0.950 . S
H786 C798 0.950 . S
H787 C799 0.950 . S
C788 H780 0.950 . S
C788 C789 1.386 . S
C788 C790 1.391 . S
C789 C788 1.386 . S
C789 C793 1.393 . S
C790 H782 0.950 . S
C790 C788 1.391 . S
C790 C791 1.400 . S
C791 C790 1.400 . S
C791 C792 1.398 . S
C791 C797 1.491 . S
C792 H783 0.950 . S
C792 C791 1.398 . S
C792 C793 1.391 . S
C793 H781 0.950 . S
C793 C789 1.393 . S
C793 C792 1.391 . S
C794 H784 0.950 . S
C794 C795 1.386 . S
C794 C796 1.391 . S
C795 C794 1.386 . S
C795 C799 1.393 . S
C796 H785 0.950 . S
C796 C794 1.391 . S
C796 C797 1.400 . S
C797 C791 1.491 . S
C797 C796 1.400 . S
C797 C798 1.398 . S
C798 H786 0.950 . S
C798 C797 1.398 . S
C798 C799 1.391 . S
C799 H787 0.950 . S
C799 C795 1.393 . S
C799 C798 1.391 . S
H800 C808 0.950 . S
H801 C813 0.950 1_565 S
H802 C810 0.950 . S
H803 C812 0.950 . S
H804 C814 0.950 . S
H805 C816 0.950 . S
H806 C818 0.950 . S
H807 C819 0.950 . S
C808 H800 0.950 . S
C808 C809 1.386 . S
C808 C810 1.391 1_565 S
C809 C808 1.386 . S
C809 C813 1.393 1_565 S
C810 H802 0.950 . S
C810 C808 1.391 1_545 S
C810 C811 1.400 . S
C811 C810 1.400 . S
C811 C812 1.398 . S
C811 C817 1.491 . S
C812 H803 0.950 . S
C812 C811 1.398 . S
C812 C813 1.391 . S
C813 H801 0.950 1_545 S
C813 C809 1.393 1_545 S
C813 C812 1.391 . S
C814 H804 0.950 . S
C814 C815 1.386 . S
C814 C816 1.391 . S
C815 C814 1.386 . S
C815 C819 1.393 . S
C816 H805 0.950 . S
C816 C814 1.391 . S
C816 C817 1.400 . S
C817 C811 1.491 . S
C817 C816 1.400 . S
C817 C818 1.398 . S
C818 H806 0.950 . S
C818 C817 1.398 . S
C818 C819 1.391 . S
C819 H807 0.950 . S
C819 C815 1.393 . S
C819 C818 1.391 . S
H820 C828 0.950 . S
H821 C833 0.950 . S
H822 C830 0.950 . S
H823 C832 0.950 . S
H824 C834 0.950 . S
H825 C836 0.950 . S
H826 C838 0.950 . S
H827 C839 0.950 . S
C828 H820 0.950 . S
C828 C829 1.386 . S
C828 C830 1.391 . S
C829 C828 1.386 . S
C829 C833 1.393 . S
C830 H822 0.950 . S
C830 C828 1.391 . S
C830 C831 1.400 . S
C831 C830 1.400 . S
C831 C832 1.398 . S
C831 C837 1.491 . S
C832 H823 0.950 . S
C832 C831 1.398 . S
C832 C833 1.391 . S
C833 H821 0.950 . S
C833 C829 1.393 . S
C833 C832 1.391 . S
C834 H824 0.950 . S
C834 C835 1.386 . S
C834 C836 1.391 . S
C835 C834 1.386 . S
C835 C839 1.393 . S
C836 H825 0.950 . S
C836 C834 1.391 . S
C836 C837 1.400 . S
C837 C831 1.491 . S
C837 C836 1.400 . S
C837 C838 1.398 . S
C838 H826 0.950 . S
C838 C837 1.398 . S
C838 C839 1.391 . S
C839 H827 0.950 . S
C839 C835 1.393 . S
C839 C838 1.391 . S
H840 C848 0.950 . S
H841 C853 0.950 . S
H842 C850 0.950 . S
H843 C852 0.950 . S
H844 C854 0.950 . S
H845 C856 0.950 . S
H846 C858 0.950 . S
H847 C859 0.950 . S
C848 H840 0.950 . S
C848 C849 1.386 . S
C848 C850 1.391 . S
C849 C848 1.386 . S
C849 C853 1.393 . S
C850 H842 0.950 . S
C850 C848 1.391 . S
C850 C851 1.400 . S
C851 C850 1.400 . S
C851 C852 1.398 . S
C851 C857 1.491 . S
C852 H843 0.950 . S
C852 C851 1.398 . S
C852 C853 1.391 . S
C853 H841 0.950 . S
C853 C849 1.393 . S
C853 C852 1.391 . S
C854 H844 0.950 . S
C854 C855 1.386 . S
C854 C856 1.391 . S
C855 C854 1.386 . S
C855 C859 1.393 . S
C856 H845 0.950 . S
C856 C854 1.391 . S
C856 C857 1.400 . S
C857 C851 1.491 . S
C857 C856 1.400 . S
C857 C858 1.398 . S
C858 H846 0.950 . S
C858 C857 1.398 . S
C858 C859 1.391 . S
C859 H847 0.950 . S
C859 C855 1.393 . S
C859 C858 1.391 . S
H860 C868 0.950 . S
H861 C873 0.950 . S
H862 C870 0.950 . S
H863 C872 0.950 . S
H864 C874 0.950 . S
H865 C876 0.950 . S
H866 C878 0.950 . S
H867 C879 0.950 . S
C868 H860 0.950 . S
C868 C869 1.386 . S
C868 C870 1.391 . S
C869 C868 1.386 . S
C869 C873 1.393 . S
C870 H862 0.950 . S
C870 C868 1.391 . S
C870 C871 1.400 . S
C871 C870 1.400 . S
C871 C872 1.398 . S
C871 C877 1.491 . S
C872 H863 0.950 . S
C872 C871 1.398 . S
C872 C873 1.391 . S
C873 H861 0.950 . S
C873 C869 1.393 . S
C873 C872 1.391 . S
C874 H864 0.950 . S
C874 C875 1.386 . S
C874 C876 1.391 . S
C875 C874 1.386 . S
C875 C879 1.393 . S
C876 H865 0.950 . S
C876 C874 1.391 . S
C876 C877 1.400 . S
C877 C871 1.491 . S
C877 C876 1.400 . S
C877 C878 1.398 . S
C878 H866 0.950 . S
C878 C877 1.398 . S
C878 C879 1.391 . S
C879 H867 0.950 . S
C879 C875 1.393 . S
C879 C878 1.391 . S
H880 C888 0.950 . S
H881 C893 0.950 . S
H882 C890 0.950 . S
H883 C892 0.950 . S
H884 C894 0.950 . S
H885 C896 0.950 . S
H886 C898 0.950 . S
H887 C899 0.950 . S
C888 H880 0.950 . S
C888 C889 1.386 . S
C888 C890 1.391 . S
C889 C888 1.386 . S
C889 C893 1.393 . S
C890 H882 0.950 . S
C890 C888 1.391 . S
C890 C891 1.400 . S
C891 C890 1.400 . S
C891 C892 1.398 . S
C891 C897 1.491 . S
C892 H883 0.950 . S
C892 C891 1.398 . S
C892 C893 1.391 . S
C893 H881 0.950 . S
C893 C889 1.393 . S
C893 C892 1.391 . S
C894 H884 0.950 . S
C894 C895 1.386 . S
C894 C896 1.391 . S
C895 C894 1.386 . S
C895 C899 1.393 . S
C896 H885 0.950 . S
C896 C894 1.391 . S
C896 C897 1.400 . S
C897 C891 1.491 . S
C897 C896 1.400 . S
C897 C898 1.398 . S
C898 H886 0.950 . S
C898 C897 1.398 . S
C898 C899 1.391 . S
C899 H887 0.950 . S
C899 C895 1.393 . S
C899 C898 1.391 . S
H900 C908 0.950 . S
H901 C913 0.950 . S
H902 C910 0.950 . S
H903 C912 0.950 . S
H904 C914 0.950 . S
H905 C916 0.950 . S
H906 C918 0.950 . S
H907 C919 0.950 . S
C908 H900 0.950 . S
C908 C909 1.386 . S
C908 C910 1.391 . S
C909 C908 1.386 . S
C909 C913 1.393 . S
C910 H902 0.950 . S
C910 C908 1.391 . S
C910 C911 1.400 . S
C911 C910 1.400 . S
C911 C912 1.398 . S
C911 C917 1.491 . S
C912 H903 0.950 . S
C912 C911 1.398 . S
C912 C913 1.391 . S
C913 H901 0.950 . S
C913 C909 1.393 . S
C913 C912 1.391 . S
C914 H904 0.950 . S
C914 C915 1.386 . S
C914 C916 1.391 . S
C915 C914 1.386 . S
C915 C919 1.393 . S
C916 H905 0.950 . S
C916 C914 1.391 . S
C916 C917 1.400 . S
C917 C911 1.491 . S
C917 C916 1.400 . S
C917 C918 1.398 . S
C918 H906 0.950 . S
C918 C917 1.398 . S
C918 C919 1.391 . S
C919 H907 0.950 . S
C919 C915 1.393 . S
C919 C918 1.391 . S
H920 C928 0.950 . S
H921 C933 0.950 . S
H922 C930 0.950 . S
H923 C932 0.950 . S
H924 C934 0.950 . S
H925 C936 0.950 . S
H926 C938 0.950 . S
H927 C939 0.950 . S
C928 H920 0.950 . S
C928 C929 1.386 . S
C928 C930 1.391 . S
C929 C928 1.386 . S
C929 C933 1.393 . S
C930 H922 0.950 . S
C930 C928 1.391 . S
C930 C931 1.400 . S
C931 C930 1.400 . S
C931 C932 1.398 . S
C931 C937 1.491 . S
C932 H923 0.950 . S
C932 C931 1.398 . S
C932 C933 1.391 . S
C933 H921 0.950 . S
C933 C929 1.393 . S
C933 C932 1.391 . S
C934 H924 0.950 . S
C934 C935 1.386 . S
C934 C936 1.391 . S
C935 C934 1.386 . S
C935 C939 1.393 . S
C936 H925 0.950 . S
C936 C934 1.391 . S
C936 C937 1.400 . S
C937 C931 1.491 . S
C937 C936 1.400 . S
C937 C938 1.398 . S
C938 H926 0.950 . S
C938 C937 1.398 . S
C938 C939 1.391 . S
C939 H927 0.950 . S
C939 C935 1.393 . S
C939 C938 1.391 . S
H940 C948 0.950 . S
H941 C953 0.950 . S
H942 C950 0.950 . S
H943 C952 0.950 . S
H944 C954 0.949 1_655 S
H945 C956 0.950 . S
H946 C958 0.950 . S
H947 C959 0.950 . S
C948 H940 0.950 . S
C948 C949 1.386 . S
C948 C950 1.391 . S
C949 C948 1.386 . S
C949 C953 1.393 . S
C950 H942 0.950 . S
C950 C948 1.391 . S
C950 C951 1.400 . S
C951 C950 1.400 . S
C951 C952 1.398 . S
C951 C957 1.491 . S
C952 H943 0.950 . S
C952 C951 1.398 . S
C952 C953 1.391 . S
C953 H941 0.950 . S
C953 C949 1.393 . S
C953 C952 1.391 . S
C954 H944 0.949 1_455 S
C954 C955 1.386 . S
C954 C956 1.391 . S
C955 C954 1.386 . S
C955 C959 1.393 . S
C956 H945 0.950 . S
C956 C954 1.391 . S
C956 C957 1.400 . S
C957 C951 1.491 . S
C957 C956 1.400 . S
C957 C958 1.398 . S
C958 H946 0.950 . S
C958 C957 1.398 . S
C958 C959 1.391 . S
C959 H947 0.950 . S
C959 C955 1.393 . S
C959 C958 1.391 . S
H960 C968 0.950 . S
H961 C973 0.950 . S
H962 C970 0.950 . S
H963 C972 0.950 . S
H964 C974 0.950 . S
H965 C976 0.950 . S
H966 C978 0.950 . S
H967 C979 0.950 . S
C968 H960 0.950 . S
C968 C969 1.386 . S
C968 C970 1.391 . S
C969 C968 1.386 . S
C969 C973 1.393 . S
C970 H962 0.950 . S
C970 C968 1.391 . S
C970 C971 1.400 . S
C971 C970 1.400 . S
C971 C972 1.398 . S
C971 C977 1.491 . S
C972 H963 0.950 . S
C972 C971 1.398 . S
C972 C973 1.391 . S
C973 H961 0.950 . S
C973 C969 1.393 . S
C973 C972 1.391 . S
C974 H964 0.950 . S
C974 C975 1.386 . S
C974 C976 1.391 . S
C975 C974 1.386 . S
C975 C979 1.393 . S
C976 H965 0.950 . S
C976 C974 1.391 . S
C976 C977 1.400 . S
C977 C971 1.491 . S
C977 C976 1.400 . S
C977 C978 1.398 . S
C978 H966 0.950 . S
C978 C977 1.398 . S
C978 C979 1.391 . S
C979 H967 0.950 . S
C979 C975 1.393 . S
C979 C978 1.391 . S
H980 C988 0.950 . S
H981 C993 0.950 . S
H982 C990 0.950 . S
H983 C992 0.950 . S
H984 C994 0.950 . S
H985 C996 0.950 . S
H986 C998 0.950 . S
H987 C999 0.950 . S
C988 H980 0.950 . S
C988 C989 1.386 . S
C988 C990 1.391 . S
C989 C988 1.386 . S
C989 C993 1.393 . S
C990 H982 0.950 . S
C990 C988 1.391 . S
C990 C991 1.400 . S
C991 C990 1.400 . S
C991 C992 1.398 . S
C991 C997 1.491 . S
C992 H983 0.950 . S
C992 C991 1.398 . S
C992 C993 1.391 . S
C993 H981 0.950 . S
C993 C989 1.393 . S
C993 C992 1.391 . S
C994 H984 0.950 . S
C994 C995 1.386 . S
C994 C996 1.391 1_455 S
C995 C994 1.386 . S
C995 C999 1.393 . S
C996 H985 0.950 . S
C996 C994 1.391 1_655 S
C996 C997 1.400 . S
C997 C991 1.491 . S
C997 C996 1.400 . S
C997 C998 1.398 1_655 S
C998 H986 0.950 . S
C998 C997 1.398 1_455 S
C998 C999 1.391 . S
C999 H987 0.950 . S
C999 C995 1.393 . S
C999 C998 1.391 . S
H1000 C1008 0.950 . S
H1001 C1013 0.950 . S
H1002 C1010 0.950 . S
H1003 C1012 0.950 . S
H1004 C1014 0.950 . S
H1005 C1016 0.950 . S
H1006 C1018 0.950 . S
H1007 C1019 0.950 . S
C1008 H1000 0.950 . S
C1008 C1009 1.386 . S
C1008 C1010 1.391 . S
C1009 C1008 1.386 . S
C1009 C1013 1.393 . S
C1010 H1002 0.950 . S
C1010 C1008 1.391 . S
C1010 C1011 1.400 . S
C1011 C1010 1.400 . S
C1011 C1012 1.398 . S
C1011 C1017 1.491 . S
C1012 H1003 0.950 . S
C1012 C1011 1.398 . S
C1012 C1013 1.391 . S
C1013 H1001 0.950 . S
C1013 C1009 1.393 . S
C1013 C1012 1.391 . S
C1014 H1004 0.950 . S
C1014 C1015 1.386 . S
C1014 C1016 1.391 . S
C1015 C1014 1.386 . S
C1015 C1019 1.393 . S
C1016 H1005 0.950 . S
C1016 C1014 1.391 . S
C1016 C1017 1.400 . S
C1017 C1011 1.491 . S
C1017 C1016 1.400 . S
C1017 C1018 1.398 . S
C1018 H1006 0.950 . S
C1018 C1017 1.398 . S
C1018 C1019 1.391 . S
C1019 H1007 0.950 . S
C1019 C1015 1.393 . S
C1019 C1018 1.391 . S
H1020 C1028 0.950 . S
H1021 C1033 0.950 . S
H1022 C1030 0.950 . S
H1023 C1032 0.950 . S
H1024 C1034 0.950 . S
H1025 C1036 0.950 . S
H1026 C1038 0.950 . S
H1027 C1039 0.950 . S
C1028 H1020 0.950 . S
C1028 C1029 1.386 1_556 S
C1028 C1030 1.391 . S
C1029 C1028 1.386 1_554 S
C1029 C1033 1.393 . S
C1030 H1022 0.950 . S
C1030 C1028 1.391 . S
C1030 C1031 1.400 . S
C1031 C1030 1.400 . S
C1031 C1032 1.398 1_556 S
C1031 C1037 1.491 . S
C1032 H1023 0.950 . S
C1032 C1031 1.398 1_554 S
C1032 C1033 1.391 . S
C1033 H1021 0.950 . S
C1033 C1029 1.393 . S
C1033 C1032 1.391 . S
C1034 H1024 0.950 . S
C1034 C1035 1.386 . S
C1034 C1036 1.391 . S
C1035 C1034 1.386 . S
C1035 C1039 1.393 . S
C1036 H1025 0.950 . S
C1036 C1034 1.391 . S
C1036 C1037 1.400 . S
C1037 C1031 1.491 . S
C1037 C1036 1.400 . S
C1037 C1038 1.398 . S
C1038 H1026 0.950 . S
C1038 C1037 1.398 . S
C1038 C1039 1.391 . S
C1039 H1027 0.950 . S
C1039 C1035 1.393 . S
C1039 C1038 1.391 . S
H1040 C1048 0.950 . S
H1041 C1053 0.950 . S
H1042 C1050 0.950 . S
H1043 C1052 0.950 . S
H1044 C1054 0.950 . S
H1045 C1056 0.950 . S
H1046 C1058 0.950 . S
H1047 C1059 0.950 . S
C1048 H1040 0.950 . S
C1048 C1049 1.386 . S
C1048 C1050 1.391 . S
C1049 C1048 1.386 . S
C1049 C1053 1.393 . S
C1050 H1042 0.950 . S
C1050 C1048 1.391 . S
C1050 C1051 1.400 . S
C1051 C1050 1.400 . S
C1051 C1052 1.398 . S
C1051 C1057 1.491 . S
C1052 H1043 0.950 . S
C1052 C1051 1.398 . S
C1052 C1053 1.391 . S
C1053 H1041 0.950 . S
C1053 C1049 1.393 . S
C1053 C1052 1.391 . S
C1054 H1044 0.950 . S
C1054 C1055 1.386 . S
C1054 C1056 1.391 . S
C1055 C1054 1.386 . S
C1055 C1059 1.393 . S
C1056 H1045 0.950 . S
C1056 C1054 1.391 . S
C1056 C1057 1.400 . S
C1057 C1051 1.491 . S
C1057 C1056 1.400 . S
C1057 C1058 1.398 . S
C1058 H1046 0.950 . S
C1058 C1057 1.398 . S
C1058 C1059 1.391 . S
C1059 H1047 0.950 . S
C1059 C1055 1.393 . S
C1059 C1058 1.391 . S
H1060 C1068 0.950 . S
H1061 C1073 0.950 . S
H1062 C1070 0.950 . S
H1063 C1072 0.950 . S
H1064 C1074 0.950 . S
H1065 C1076 0.950 . S
H1066 C1078 0.950 . S
H1067 C1079 0.950 . S
C1068 H1060 0.950 . S
C1068 C1069 1.386 . S
C1068 C1070 1.391 . S
C1069 C1068 1.386 . S
C1069 C1073 1.393 . S
C1070 H1062 0.950 . S
C1070 C1068 1.391 . S
C1070 C1071 1.400 . S
C1071 C1070 1.400 . S
C1071 C1072 1.398 . S
C1071 C1077 1.491 1_554 S
C1072 H1063 0.950 . S
C1072 C1071 1.398 . S
C1072 C1073 1.391 . S
C1073 H1061 0.950 . S
C1073 C1069 1.393 . S
C1073 C1072 1.391 . S
C1074 H1064 0.950 . S
C1074 C1075 1.386 . S
C1074 C1076 1.391 . S
C1075 C1074 1.386 . S
C1075 C1079 1.393 . S
C1076 H1065 0.950 . S
C1076 C1074 1.391 . S
C1076 C1077 1.400 . S
C1077 C1071 1.491 1_556 S
C1077 C1076 1.400 . S
C1077 C1078 1.398 . S
C1078 H1066 0.950 . S
C1078 C1077 1.398 . S
C1078 C1079 1.391 . S
C1079 H1067 0.950 . S
C1079 C1075 1.393 . S
C1079 C1078 1.391 . S
H1080 C1088 0.950 . S
H1081 C1093 0.950 . S
H1082 C1090 0.950 . S
H1083 C1092 0.950 . S
H1084 C1094 0.950 . S
H1085 C1096 0.950 . S
H1086 C1098 0.950 . S
H1087 C1099 0.950 . S
C1088 H1080 0.950 . S
C1088 C1089 1.386 . S
C1088 C1090 1.391 . S
C1089 C1088 1.386 . S
C1089 C1093 1.393 . S
C1090 H1082 0.950 . S
C1090 C1088 1.391 . S
C1090 C1091 1.400 . S
C1091 C1090 1.400 . S
C1091 C1092 1.398 . S
C1091 C1097 1.491 . S
C1092 H1083 0.950 . S
C1092 C1091 1.398 . S
C1092 C1093 1.391 . S
C1093 H1081 0.950 . S
C1093 C1089 1.393 . S
C1093 C1092 1.391 . S
C1094 H1084 0.950 . S
C1094 C1095 1.386 . S
C1094 C1096 1.391 . S
C1095 C1094 1.386 . S
C1095 C1099 1.393 . S
C1096 H1085 0.950 . S
C1096 C1094 1.391 . S
C1096 C1097 1.400 . S
C1097 C1091 1.491 . S
C1097 C1096 1.400 . S
C1097 C1098 1.398 . S
C1098 H1086 0.950 . S
C1098 C1097 1.398 . S
C1098 C1099 1.391 . S
C1099 H1087 0.950 . S
C1099 C1095 1.393 . S
C1099 C1098 1.391 . S
H1100 C1108 0.950 . S
H1101 C1113 0.950 . S
H1102 C1110 0.950 . S
H1103 C1112 0.950 . S
H1104 C1114 0.950 . S
H1105 C1116 0.950 . S
H1106 C1118 0.950 . S
H1107 C1119 0.950 . S
C1108 H1100 0.950 . S
C1108 C1109 1.386 . S
C1108 C1110 1.391 . S
C1109 C1108 1.386 . S
C1109 C1113 1.393 . S
C1110 H1102 0.950 . S
C1110 C1108 1.391 . S
C1110 C1111 1.400 1_556 S
C1111 C1110 1.400 1_554 S
C1111 C1112 1.398 . S
C1111 C1117 1.491 . S
C1112 H1103 0.950 . S
C1112 C1111 1.398 . S
C1112 C1113 1.391 1_554 S
C1113 H1101 0.950 . S
C1113 C1109 1.393 . S
C1113 C1112 1.391 1_556 S
C1114 H1104 0.950 . S
C1114 C1115 1.386 . S
C1114 C1116 1.391 . S
C1115 C1114 1.386 . S
C1115 C1119 1.393 . S
C1116 H1105 0.950 . S
C1116 C1114 1.391 . S
C1116 C1117 1.400 . S
C1117 C1111 1.491 . S
C1117 C1116 1.400 . S
C1117 C1118 1.398 . S
C1118 H1106 0.950 . S
C1118 C1117 1.398 . S
C1118 C1119 1.391 . S
C1119 H1107 0.950 . S
C1119 C1115 1.393 . S
C1119 C1118 1.391 . S
H1120 C1128 0.950 . S
H1121 C1133 0.950 . S
H1122 C1130 0.950 . S
H1123 C1132 0.950 . S
H1124 C1134 0.950 . S
H1125 C1136 0.950 . S
H1126 C1138 0.950 . S
H1127 C1139 0.950 . S
C1128 H1120 0.950 . S
C1128 C1129 1.386 . S
C1128 C1130 1.391 . S
C1129 C1128 1.386 . S
C1129 C1133 1.393 . S
C1130 H1122 0.950 . S
C1130 C1128 1.391 . S
C1130 C1131 1.400 . S
C1131 C1130 1.400 . S
C1131 C1132 1.398 . S
C1131 C1137 1.491 . S
C1132 H1123 0.950 . S
C1132 C1131 1.398 . S
C1132 C1133 1.391 . S
C1133 H1121 0.950 . S
C1133 C1129 1.393 . S
C1133 C1132 1.391 . S
C1134 H1124 0.950 . S
C1134 C1135 1.386 . S
C1134 C1136 1.391 . S
C1135 C1134 1.386 . S
C1135 C1139 1.393 . S
C1136 H1125 0.950 . S
C1136 C1134 1.391 . S
C1136 C1137 1.400 . S
C1137 C1131 1.491 . S
C1137 C1136 1.400 . S
C1137 C1138 1.398 . S
C1138 H1126 0.950 . S
C1138 C1137 1.398 . S
C1138 C1139 1.391 . S
C1139 H1127 0.950 . S
C1139 C1135 1.393 . S
C1139 C1138 1.391 . S
H1140 C1148 0.950 . S
H1141 C1153 0.950 . S
H1142 C1150 0.950 . S
H1143 C1152 0.948 . S
H1144 C1154 0.950 . S
H1145 C1156 0.950 . S
H1146 C1158 0.950 . S
H1147 C1159 0.950 . S
C1148 H1140 0.950 . S
C1148 C1149 1.386 . S
C1148 C1150 1.391 1_556 S
C1149 C1148 1.386 . S
C1149 C1153 1.393 . S
C1150 H1142 0.950 . S
C1150 C1148 1.391 1_554 S
C1150 C1151 1.400 . S
C1151 C1150 1.400 . S
C1151 C1152 1.398 1_554 S
C1151 C1157 1.491 . S
C1152 H1143 0.948 . S
C1152 C1151 1.398 1_556 S
C1152 C1153 1.391 . S
C1153 H1141 0.950 . S
C1153 C1149 1.393 . S
C1153 C1152 1.391 . S
C1154 H1144 0.950 . S
C1154 C1155 1.386 . S
C1154 C1156 1.391 . S
C1155 C1154 1.386 . S
C1155 C1159 1.393 . S
C1156 H1145 0.950 . S
C1156 C1154 1.391 . S
C1156 C1157 1.400 . S
C1157 C1151 1.491 . S
C1157 C1156 1.400 . S
C1157 C1158 1.398 . S
C1158 H1146 0.950 . S
C1158 C1157 1.398 . S
C1158 C1159 1.391 . S
C1159 H1147 0.950 . S
C1159 C1155 1.393 . S
C1159 C1158 1.391 . S
H1160 C1168 0.950 . S
H1161 C1173 0.950 . S
H1162 C1170 0.950 . S
H1163 C1172 0.950 . S
H1164 C1174 0.950 . S
H1165 C1176 0.950 . S
H1166 C1178 0.950 . S
H1167 C1179 0.950 . S
C1168 H1160 0.950 . S
C1168 C1169 1.386 . S
C1168 C1170 1.391 . S
C1169 C1168 1.386 . S
C1169 C1173 1.393 . S
C1170 H1162 0.950 . S
C1170 C1168 1.391 . S
C1170 C1171 1.400 . S
C1171 C1170 1.400 . S
C1171 C1172 1.398 . S
C1171 C1177 1.491 . S
C1172 H1163 0.950 . S
C1172 C1171 1.398 . S
C1172 C1173 1.391 . S
C1173 H1161 0.950 . S
C1173 C1169 1.393 . S
C1173 C1172 1.391 . S
C1174 H1164 0.950 . S
C1174 C1175 1.386 . S
C1174 C1176 1.391 . S
C1175 C1174 1.386 . S
C1175 C1179 1.393 . S
C1176 H1165 0.950 . S
C1176 C1174 1.391 . S
C1176 C1177 1.400 . S
C1177 C1171 1.491 . S
C1177 C1176 1.400 . S
C1177 C1178 1.398 . S
C1178 H1166 0.950 . S
C1178 C1177 1.398 . S
C1178 C1179 1.391 . S
C1179 H1167 0.950 . S
C1179 C1175 1.393 . S
C1179 C1178 1.391 . S
H1180 C1188 0.950 . S
H1181 C1193 0.950 . S
H1182 C1190 0.950 . S
H1183 C1192 0.950 . S
H1184 C1194 0.950 . S
H1185 C1196 0.950 . S
H1186 C1198 0.950 . S
H1187 C1199 0.950 . S
C1188 H1180 0.950 . S
C1188 C1189 1.386 . S
C1188 C1190 1.391 . S
C1189 C1188 1.386 . S
C1189 C1193 1.393 . S
C1190 H1182 0.950 . S
C1190 C1188 1.391 . S
C1190 C1191 1.400 . S
C1191 C1190 1.400 . S
C1191 C1192 1.398 . S
C1191 C1197 1.491 . S
C1192 H1183 0.950 . S
C1192 C1191 1.398 . S
C1192 C1193 1.391 . S
C1193 H1181 0.950 . S
C1193 C1189 1.393 . S
C1193 C1192 1.391 . S
C1194 H1184 0.950 . S
C1194 C1195 1.386 . S
C1194 C1196 1.391 . S
C1195 C1194 1.386 . S
C1195 C1199 1.393 . S
C1196 H1185 0.950 . S
C1196 C1194 1.391 . S
C1196 C1197 1.400 . S
C1197 C1191 1.491 . S
C1197 C1196 1.400 . S
C1197 C1198 1.398 . S
C1198 H1186 0.950 . S
C1198 C1197 1.398 . S
C1198 C1199 1.391 . S
C1199 H1187 0.950 . S
C1199 C1195 1.393 . S
C1199 C1198 1.391 . S
H1200 C1208 0.950 . S
H1201 C1213 0.950 . S
H1202 C1210 0.950 . S
H1203 C1212 0.950 . S
H1204 C1214 0.950 . S
H1205 C1216 0.950 . S
H1206 C1218 0.950 . S
H1207 C1219 0.950 . S
C1208 H1200 0.950 . S
C1208 C1209 1.386 . S
C1208 C1210 1.391 . S
C1209 C1208 1.386 . S
C1209 C1213 1.393 . S
C1210 H1202 0.950 . S
C1210 C1208 1.391 . S
C1210 C1211 1.400 . S
C1211 C1210 1.400 . S
C1211 C1212 1.398 . S
C1211 C1217 1.491 . S
C1212 H1203 0.950 . S
C1212 C1211 1.398 . S
C1212 C1213 1.391 . S
C1213 H1201 0.950 . S
C1213 C1209 1.393 . S
C1213 C1212 1.391 . S
C1214 H1204 0.950 . S
C1214 C1215 1.386 . S
C1214 C1216 1.391 . S
C1215 C1214 1.386 . S
C1215 C1219 1.393 . S
C1216 H1205 0.950 . S
C1216 C1214 1.391 . S
C1216 C1217 1.400 . S
C1217 C1211 1.491 . S
C1217 C1216 1.400 . S
C1217 C1218 1.398 . S
C1218 H1206 0.950 . S
C1218 C1217 1.398 . S
C1218 C1219 1.391 . S
C1219 H1207 0.950 . S
C1219 C1215 1.393 . S
C1219 C1218 1.391 . S
H1220 C1228 0.950 . S
H1221 C1233 0.950 . S
H1222 C1230 0.950 . S
H1223 C1232 0.950 . S
H1224 C1234 0.950 . S
H1225 C1236 0.950 . S
H1226 C1238 0.950 . S
H1227 C1239 0.950 . S
C1228 H1220 0.950 . S
C1228 C1229 1.386 . S
C1228 C1230 1.391 . S
C1229 C1228 1.386 . S
C1229 C1233 1.393 . S
C1230 H1222 0.950 . S
C1230 C1228 1.391 . S
C1230 C1231 1.400 . S
C1231 C1230 1.400 . S
C1231 C1232 1.398 . S
C1231 C1237 1.491 . S
C1232 H1223 0.950 . S
C1232 C1231 1.398 . S
C1232 C1233 1.391 . S
C1233 H1221 0.950 . S
C1233 C1229 1.393 . S
C1233 C1232 1.391 . S
C1234 H1224 0.950 . S
C1234 C1235 1.386 . S
C1234 C1236 1.391 . S
C1235 C1234 1.386 . S
C1235 C1239 1.393 . S
C1236 H1225 0.950 . S
C1236 C1234 1.391 . S
C1236 C1237 1.400 . S
C1237 C1231 1.491 . S
C1237 C1236 1.400 . S
C1237 C1238 1.398 . S
C1238 H1226 0.950 . S
C1238 C1237 1.398 . S
C1238 C1239 1.391 . S
C1239 H1227 0.950 . S
C1239 C1235 1.393 . S
C1239 C1238 1.391 . S
H1240 C1248 0.950 . S
H1241 C1253 0.950 . S
H1242 C1250 0.950 . S
H1243 C1252 0.950 . S
H1244 C1254 0.950 . S
H1245 C1256 0.950 . S
H1246 C1258 0.950 . S
H1247 C1259 0.950 . S
C1248 H1240 0.950 . S
C1248 C1249 1.386 . S
C1248 C1250 1.391 . S
C1249 C1248 1.386 . S
C1249 C1253 1.393 . S
C1250 H1242 0.950 . S
C1250 C1248 1.391 . S
C1250 C1251 1.400 . S
C1251 C1250 1.400 . S
C1251 C1252 1.398 . S
C1251 C1257 1.491 . S
C1252 H1243 0.950 . S
C1252 C1251 1.398 . S
C1252 C1253 1.391 . S
C1253 H1241 0.950 . S
C1253 C1249 1.393 . S
C1253 C1252 1.391 . S
C1254 H1244 0.950 . S
C1254 C1255 1.386 . S
C1254 C1256 1.391 . S
C1255 C1254 1.386 . S
C1255 C1259 1.393 . S
C1256 H1245 0.950 . S
C1256 C1254 1.391 . S
C1256 C1257 1.400 . S
C1257 C1251 1.491 . S
C1257 C1256 1.400 . S
C1257 C1258 1.398 . S
C1258 H1246 0.950 . S
C1258 C1257 1.398 . S
C1258 C1259 1.391 . S
C1259 H1247 0.950 . S
C1259 C1255 1.393 . S
C1259 C1258 1.391 . S
H1260 C1268 0.950 . S
H1261 C1273 0.950 . S
H1262 C1270 0.950 . S
H1263 C1272 0.950 . S
H1264 C1274 0.950 . S
H1265 C1276 0.950 . S
H1266 C1278 0.950 . S
H1267 C1279 0.950 . S
C1268 H1260 0.950 . S
C1268 C1269 1.386 . S
C1268 C1270 1.391 . S
C1269 C1268 1.386 . S
C1269 C1273 1.393 . S
C1270 H1262 0.950 . S
C1270 C1268 1.391 . S
C1270 C1271 1.400 . S
C1271 C1270 1.400 . S
C1271 C1272 1.398 . S
C1271 C1277 1.491 . S
C1272 H1263 0.950 . S
C1272 C1271 1.398 . S
C1272 C1273 1.391 . S
C1273 H1261 0.950 . S
C1273 C1269 1.393 . S
C1273 C1272 1.391 . S
C1274 H1264 0.950 . S
C1274 C1275 1.386 . S
C1274 C1276 1.391 . S
C1275 C1274 1.386 . S
C1275 C1279 1.393 . S
C1276 H1265 0.950 . S
C1276 C1274 1.391 . S
C1276 C1277 1.400 . S
C1277 C1271 1.491 . S
C1277 C1276 1.400 . S
C1277 C1278 1.398 . S
C1278 H1266 0.950 . S
C1278 C1277 1.398 . S
C1278 C1279 1.391 . S
C1279 H1267 0.950 . S
C1279 C1275 1.393 . S
C1279 C1278 1.391 . S
H1280 C1288 0.950 . S
H1281 C1293 0.950 . S
H1282 C1290 0.950 . S
H1283 C1292 0.950 . S
H1284 C1294 0.950 . S
H1285 C1296 0.950 . S
H1286 C1298 0.950 . S
H1287 C1299 0.950 . S
C1288 H1280 0.950 . S
C1288 C1289 1.386 . S
C1288 C1290 1.391 . S
C1289 C1288 1.386 . S
C1289 C1293 1.393 . S
C1290 H1282 0.950 . S
C1290 C1288 1.391 . S
C1290 C1291 1.400 . S
C1291 C1290 1.400 . S
C1291 C1292 1.398 . S
C1291 C1297 1.491 . S
C1292 H1283 0.950 . S
C1292 C1291 1.398 . S
C1292 C1293 1.391 . S
C1293 H1281 0.950 . S
C1293 C1289 1.393 . S
C1293 C1292 1.391 . S
C1294 H1284 0.950 . S
C1294 C1295 1.386 . S
C1294 C1296 1.391 . S
C1295 C1294 1.386 . S
C1295 C1299 1.393 . S
C1296 H1285 0.950 . S
C1296 C1294 1.391 . S
C1296 C1297 1.400 . S
C1297 C1291 1.491 . S
C1297 C1296 1.400 . S
C1297 C1298 1.398 . S
C1298 H1286 0.950 . S
C1298 C1297 1.398 . S
C1298 C1299 1.391 . S
C1299 H1287 0.950 . S
C1299 C1295 1.393 . S
C1299 C1298 1.391 . S
H1300 C1308 0.950 . S
H1301 C1313 0.950 . S
H1302 C1310 0.950 . S
H1303 C1312 0.950 . S
H1304 C1314 0.950 . S
H1305 C1316 0.950 . S
H1306 C1318 0.950 . S
H1307 C1319 0.950 1_565 S
C1308 H1300 0.950 . S
C1308 C1309 1.386 . S
C1308 C1310 1.391 . S
C1309 C1308 1.386 . S
C1309 C1313 1.393 . S
C1310 H1302 0.950 . S
C1310 C1308 1.391 . S
C1310 C1311 1.400 . S
C1311 C1310 1.400 . S
C1311 C1312 1.398 . S
C1311 C1317 1.491 . S
C1312 H1303 0.950 . S
C1312 C1311 1.398 . S
C1312 C1313 1.391 . S
C1313 H1301 0.950 . S
C1313 C1309 1.393 . S
C1313 C1312 1.391 . S
C1314 H1304 0.950 . S
C1314 C1315 1.386 . S
C1314 C1316 1.391 . S
C1315 C1314 1.386 . S
C1315 C1319 1.393 . S
C1316 H1305 0.950 . S
C1316 C1314 1.391 . S
C1316 C1317 1.400 . S
C1317 C1311 1.491 . S
C1317 C1316 1.400 . S
C1317 C1318 1.398 . S
C1318 H1306 0.950 . S
C1318 C1317 1.398 . S
C1318 C1319 1.391 . S
C1319 H1307 0.950 1_545 S
C1319 C1315 1.393 . S
C1319 C1318 1.391 . S
C375 C200 1.829 1_556 S
C369 C66 1.844 . S
C395 C215 1.426 . S
C389 C76 1.429 . S
C409 C93 2.068 . S
C415 C228 2.061 . S
C435 C242 1.425 . S
C429 C54 1.422 . S
C455 C254 1.668 . S
C449 C126 1.753 . S
C475 C268 1.585 . S
C469 C150 1.589 . S
C489 C136 1.371 . S
C495 C282 1.373 . S
C515 C297 1.652 . S
C509 C117 1.714 . S
C529 C141 1.387 . S
C535 C313 1.360 . S
C555 C326 1.352 . S
C549 C112 1.344 . S
C569 C124 1.655 . S
C575 C311 1.581 . S
C595 C324 1.339 . S
C589 C148 1.329 . S
C609 C88 1.635 . S
C615 C340 1.612 . S
C629 C52 1.588 . S
C635 C339 1.589 . S
C649 C64 1.463 . S
C655 C338 1.432 . S
C669 C78 1.342 . S
C675 C341 1.321 . S
C689 C45 1.950 . S
C695 C243 1.937 . S
C709 C177 1.769 . S
C715 C241 1.739 . S
C735 C201 1.339 . S
C729 C189 1.360 . S
C755 C212 1.800 . S
C749 C102 1.844 . S
C769 C57 1.642 1_545 S
C775 C257 1.631 . S
C795 C298 1.888 . S
C789 C138 1.883 . S
C815 C255 1.822 . S
C809 C114 1.857 . S
C835 C283 1.572 . S
C829 C153 1.584 . S
C855 C284 1.838 . S
C849 C174 1.846 . S
C869 C184 1.430 . S
C875 C299 1.427 . S
C889 C105 2.068 . S
C895 C256 2.052 . S
C915 C270 1.440 . S
C909 C162 1.437 . S
C929 C42 1.752 . S
C935 C226 1.664 . S
C955 C240 1.571 1_455 S
C949 C6 1.593 . S
C975 C198 1.365 . S
C969 C16 1.380 . S
C995 C213 1.654 . S
C989 C33 1.713 . S
C1009 C21 1.377 . S
C1015 C327 1.355 . S
C1029 C28 1.338 . S
C1035 C312 1.363 . S
C1049 C40 1.659 . S
C1055 C325 1.604 . S
C1069 C4 1.330 . S
C1075 C310 1.340 . S
C1095 C354 1.618 . S
C1089 C100 1.633 . S
C1115 C353 1.581 . S
C1109 C160 1.598 . S
C1135 C352 1.431 . S
C1129 C172 1.458 . S
C1149 C186 1.328 . S
C1155 C355 1.302 . S
C1169 C129 1.950 . S
C1175 C271 1.937 . S
C1195 C269 1.733 . S
C1189 C69 1.772 . S
C1215 C285 1.339 . S
C1209 C81 1.375 . S
C1235 C296 1.811 . S
C1229 C90 1.844 . S
C1249 C165 1.641 . S
C1255 C229 1.624 . S
C1275 C214 1.886 . S
C1269 C18 1.884 . S
C1289 C30 1.850 . S
C1295 C227 1.806 . S
C1315 C199 1.590 1_545 S
C1309 C9 1.590 . S
