# Generated by pormake.
# Topology pth, (4,4)-cn, num edge types: 1
# Building blocks:
#     Node 0, Type 0, BuildingBlock: CEKHIL_clean_sbu_0, # of connection points: 4
#     Node 1, Type 0, BuildingBlock: CEKHIL_clean_sbu_0, # of connection points: 4
#     Node 2, Type 0, BuildingBlock: CEKHIL_clean_sbu_0, # of connection points: 4
#     Node 3, Type 1, BuildingBlock: NAWXER_clean_linker_0, # of connection points: 4
#     Node 4, Type 1, BuildingBlock: NAWXER_clean_linker_0, # of connection points: 4
#     Node 5, Type 1, BuildingBlock: NAWXER_clean_linker_0, # of connection points: 4
#     Edge 6, Type (0, 1), BuildingBlock: MIFKUJ_clean_linker_0, # of connection points: 2
#     Edge 7, Type (0, 1), BuildingBlock: MIFKUJ_clean_linker_0, # of connection points: 2
#     Edge 8, Type (0, 1), BuildingBlock: MIFKUJ_clean_linker_0, # of connection points: 2
#     Edge 9, Type (0, 1), BuildingBlock: MIFKUJ_clean_linker_0, # of connection points: 2
#     Edge 10, Type (0, 1), BuildingBlock: MIFKUJ_clean_linker_0, # of connection points: 2
#     Edge 11, Type (0, 1), BuildingBlock: MIFKUJ_clean_linker_0, # of connection points: 2
#     Edge 12, Type (0, 1), BuildingBlock: MIFKUJ_clean_linker_0, # of connection points: 2
#     Edge 13, Type (0, 1), BuildingBlock: MIFKUJ_clean_linker_0, # of connection points: 2
#     Edge 14, Type (0, 1), BuildingBlock: MIFKUJ_clean_linker_0, # of connection points: 2
#     Edge 15, Type (0, 1), BuildingBlock: MIFKUJ_clean_linker_0, # of connection points: 2
#     Edge 16, Type (0, 1), BuildingBlock: MIFKUJ_clean_linker_0, # of connection points: 2
#     Edge 17, Type (0, 1), BuildingBlock: MIFKUJ_clean_linker_0, # of connection points: 2
# Relax obj value: 0.006
# Max RMSD: 0.048
# Mean RMSD: 0.037
data_MOF--net-pth--node1-CEKHIL_clean_sbu_0--node2-NAWXER_clean_linker_0--edge1-MIFKUJ_clean_linker_0
_symmetry_space_group_name_H-M    P1
_symmetry_Int_Tables_number       1
_symmetry_cell_setting            triclinic
loop_
_symmetry_equiv_pos_as_xyz
'x, y, z'
_cell_length_a     35.679364
_cell_length_b     35.780829
_cell_length_c     82.810627
_cell_angle_alpha  90.894507
_cell_angle_beta   90.002685
_cell_angle_gamma 120.31464
loop_
_atom_site_label
_atom_site_type_symbol
_atom_site_fract_x
_atom_site_fract_y
_atom_site_fract_z
_atom_type_partial_charge
Co0 Co 0.01755 0.02921 0.06712 0.0
O1 O 0.99129 0.98486 0.08304 0.0
O2 O 0.04541 0.99461 0.06726 0.0
C3 C 0.02409 0.08357 0.08334 0.0
O4 O 0.05429 0.0726 0.04988 0.0
Co5 Co 0.9711 0.07703 0.05527 0.0
O6 O 0.02772 0.11658 0.0452 0.0
C7 C 0.94068 0.98785 0.04362 0.0
C8 C 0.0189 0.97312 0.07884 0.0
C9 C 0.05675 0.10616 0.04328 0.0
O10 O 0.97383 0.98917 0.05039 0.0
O11 O 0.93199 0.01834 0.04521 0.0
O12 O 0.0529 0.07159 0.0838 0.0
O13 O 0.99071 0.06021 0.07415 0.0
Co14 Co 0.01066 0.03915 0.38767 0.0
O15 O 0.98435 0.05809 0.37199 0.0
O16 O 0.03878 0.10186 0.38823 0.0
C17 C 0.0171 0.99226 0.37093 0.0
O18 O 0.04729 0.03137 0.40484 0.0
Co19 Co 0.96328 0.94343 0.39821 0.0
O20 O 0.01906 0.96027 0.40919 0.0
C21 C 0.93368 0.00182 0.41062 0.0
C22 C 0.01219 0.09737 0.3766 0.0
C23 C 0.04863 0.99965 0.41146 0.0
O24 O 0.96706 0.03428 0.40435 0.0
O25 O 0.92459 0.9626 0.40842 0.0
O26 O 0.04585 0.03327 0.37091 0.0
O27 O 0.98374 0.98157 0.37995 0.0
Co28 Co 0.0038 0.02288 0.72202 0.0
O29 O 0.04864 0.05254 0.70635 0.0
O30 O 0.03829 0.99512 0.71976 0.0
C31 C 0.94993 0.02019 0.70677 0.0
O32 O 0.96006 0.98252 0.73861 0.0
Co33 Co 0.95468 0.06522 0.73704 0.0
O34 O 0.91442 0.00636 0.74491 0.0
C35 C 0.04271 0.09138 0.749 0.0
C36 C 0.06022 0.02414 0.70899 0.0
C37 C 0.92568 0.97784 0.7456 0.0
O38 O 0.04376 0.06283 0.73966 0.0
O39 O 0.01104 0.09862 0.74924 0.0
O40 O 0.96155 0.99137 0.70484 0.0
O41 O 0.97302 0.05126 0.71695 0.0
C42 C 0.01035 0.40844 0.25674 0.0
C43 C 0.04016 0.42275 0.26969 0.0
C44 C 0.01035 0.43804 0.24588 0.0
C45 C 0.04088 0.48248 0.24754 0.0
C46 C 0.07032 0.46722 0.27144 0.0
C47 C 0.07063 0.49672 0.26049 0.0
C48 C 0.04006 0.51483 0.23673 0.0
C49 C 0.06462 0.42839 0.20327 0.0
C50 C 0.03446 0.40889 0.19052 0.0
C51 C 0.06453 0.46068 0.213 0.0
C52 C 0.03365 0.4734 0.21039 0.0
C53 C 0.00371 0.42173 0.18792 0.0
C54 C 0.00337 0.45366 0.19773 0.0
C55 C 0.03465 0.50958 0.21975 0.0
C56 C 0.06446 0.68171 0.19761 0.0
C57 C 0.03316 0.66719 0.18513 0.0
C58 C 0.06456 0.65253 0.20866 0.0
C59 C 0.03305 0.60831 0.20757 0.0
C60 C 0.00155 0.62295 0.18416 0.0
C61 C 0.00167 0.59386 0.1952 0.0
C62 C 0.03446 0.57625 0.21833 0.0
C63 C 0.00855 0.6614 0.25186 0.0
C64 C 0.03964 0.68236 0.26424 0.0
C65 C 0.00903 0.62927 0.24216 0.0
C66 C 0.04097 0.61786 0.24451 0.0
C67 C 0.07167 0.671 0.26648 0.0
C68 C 0.07217 0.63896 0.25678 0.0
C69 C 0.04008 0.58163 0.23526 0.0
H70 H 0.98621 0.37446 0.25526 0.0
H71 H 0.98587 0.42621 0.23642 0.0
H72 H 0.09383 0.47919 0.28125 0.0
H73 H 0.09419 0.53082 0.26217 0.0
H74 H 0.08913 0.41961 0.2054 0.0
H75 H 0.08925 0.47637 0.2223 0.0
H76 H 0.97983 0.40705 0.17829 0.0
H77 H 0.97947 0.46313 0.19536 0.0
H78 H 0.08969 0.71543 0.19855 0.0
H79 H 0.08998 0.66439 0.21776 0.0
H80 H 0.97662 0.61072 0.17486 0.0
H81 H 0.9772 0.55989 0.19403 0.0
H82 H 0.983 0.66886 0.24999 0.0
H83 H 0.98371 0.61255 0.23314 0.0
H84 H 0.09641 0.68686 0.27577 0.0
H85 H 0.09692 0.63051 0.25891 0.0
N86 N 0.04282 0.5508 0.24373 0.0
N87 N 0.03182 0.54039 0.21132 0.0
C88 C 0.656 0.07196 0.53395 0.0
C89 C 0.64385 0.04177 0.52108 0.0
C90 C 0.62448 0.07212 0.54399 0.0
C91 C 0.58024 0.04183 0.54145 0.0
C92 C 0.59948 0.01197 0.51846 0.0
C93 C 0.56809 0.01214 0.52849 0.0
C94 C 0.54605 0.04201 0.55158 0.0
C95 C 0.62475 0.00988 0.58535 0.0
C96 C 0.64217 0.03743 0.599 0.0
C97 C 0.59431 0.01207 0.57536 0.0
C98 C 0.58133 0.04256 0.57856 0.0
C99 C 0.62862 0.0675 0.60227 0.0
C100 C 0.59856 0.06997 0.59219 0.0
C101 C 0.54738 0.04396 0.56866 0.0
C102 C 0.36949 0.00511 0.58732 0.0
C103 C 0.3798 0.03548 0.59999 0.0
C104 C 0.40182 0.00826 0.5769 0.0
C105 C 0.44505 0.0418 0.57899 0.0
C106 C 0.42306 0.06911 0.60198 0.0
C107 C 0.45539 0.07198 0.59168 0.0
C108 C 0.4802 0.04377 0.56888 0.0
C109 C 0.39813 0.07184 0.5351 0.0
C110 C 0.38327 0.04562 0.52107 0.0
C111 C 0.42876 0.07049 0.54529 0.0
C112 C 0.44425 0.04205 0.54186 0.0
C113 C 0.39892 0.01739 0.51762 0.0
C114 C 0.42903 0.01565 0.52789 0.0
C115 C 0.47886 0.04186 0.5518 0.0
H116 H 0.68987 0.0953 0.53632 0.0
H117 H 0.63469 0.09616 0.55364 0.0
H118 H 0.58887 0.98886 0.50848 0.0
H119 H 0.53416 0.98887 0.52613 0.0
H120 H 0.63453 0.98649 0.58236 0.0
H121 H 0.58045 0.98939 0.56529 0.0
H122 H 0.64048 0.08859 0.61285 0.0
H123 H 0.58852 0.09323 0.59512 0.0
H124 H 0.33641 0.97895 0.58546 0.0
H125 H 0.3932 0.98402 0.56741 0.0
H126 H 0.4321 0.09266 0.61176 0.0
H127 H 0.48861 0.09777 0.59365 0.0
H128 H 0.38704 0.09431 0.53794 0.0
H129 H 0.44108 0.09254 0.55559 0.0
H130 H 0.38774 0.99649 0.50698 0.0
H131 H 0.44063 0.99368 0.52485 0.0
N132 N 0.51177 0.04084 0.54391 0.0
N133 N 0.51451 0.04503 0.57657 0.0
C134 C 0.40793 0.36324 0.86925 0.0
C135 C 0.39294 0.37505 0.85568 0.0
C136 C 0.4409 0.39501 0.87909 0.0
C137 C 0.45828 0.43924 0.87586 0.0
C138 C 0.4111 0.41905 0.85218 0.0
C139 C 0.44327 0.45078 0.8622 0.0
C140 C 0.49379 0.47391 0.88588 0.0
C141 C 0.38499 0.40003 0.921 0.0
C142 C 0.39537 0.38109 0.93372 0.0
C143 C 0.41742 0.42976 0.91088 0.0
C144 C 0.46085 0.44069 0.9131 0.0
C145 C 0.43897 0.39243 0.93598 0.0
C146 C 0.47134 0.42206 0.92583 0.0
C147 C 0.4959 0.47361 0.90295 0.0
C148 C 0.63778 0.65316 0.9206 0.0
C149 C 0.65795 0.64406 0.93332 0.0
C150 C 0.6076 0.61993 0.91045 0.0
C151 C 0.59733 0.57694 0.91267 0.0
C152 C 0.64759 0.60098 0.93549 0.0
C153 C 0.61743 0.56778 0.92533 0.0
C154 C 0.5632 0.54094 0.90276 0.0
C155 C 0.66921 0.62447 0.86783 0.0
C156 C 0.65561 0.64119 0.8553 0.0
C157 C 0.63876 0.59225 0.87784 0.0
C158 C 0.59412 0.57644 0.87564 0.0
C159 C 0.61087 0.62472 0.85299 0.0
C160 C 0.58056 0.59268 0.863 0.0
C161 C 0.56094 0.54144 0.88573 0.0
H162 H 0.39476 0.32941 0.87204 0.0
H163 H 0.45305 0.38486 0.88907 0.0
H164 H 0.39996 0.42893 0.84179 0.0
H165 H 0.45633 0.48452 0.85927 0.0
H166 H 0.35176 0.39187 0.91883 0.0
H167 H 0.40856 0.44455 0.90144 0.0
H168 H 0.44828 0.37912 0.94582 0.0
H169 H 0.5047 0.43052 0.92795 0.0
H170 H 0.64516 0.686 0.91852 0.0
H171 H 0.59165 0.62777 0.90107 0.0
H172 H 0.66193 0.59269 0.94532 0.0
H173 H 0.60954 0.53479 0.92744 0.0
H174 H 0.7034 0.63649 0.86998 0.0
H175 H 0.65012 0.57944 0.88719 0.0
H176 H 0.59914 0.63615 0.84328 0.0
H177 H 0.54633 0.58063 0.86089 0.0
N178 N 0.52631 0.50797 0.87805 0.0
N179 N 0.53072 0.50693 0.91065 0.0
H180 H 0.09286 0.14005 0.10224 0.0
H181 H 0.09715 0.19655 0.12052 0.0
H182 H 0.96844 0.16521 0.10574 0.0
H183 H 0.9639 0.10863 0.08743 0.0
H184 H 0.09146 0.26944 0.11565 0.0
H185 H 0.91636 0.17214 0.13964 0.0
H186 H 0.8595 0.09608 0.14367 0.0
H187 H 0.95699 0.06001 0.148 0.0
H188 H 0.01441 0.13592 0.14423 0.0
H189 H 0.02914 0.40425 0.15759 0.0
H190 H 0.03033 0.34991 0.13964 0.0
H191 H 0.0441 0.28539 0.18084 0.0
H192 H 0.04254 0.33956 0.19892 0.0
H193 H 0.9821 0.22851 0.15898 0.0
H194 H 0.12998 0.34437 0.15856 0.0
H195 H 0.18926 0.4198 0.15553 0.0
H196 H 0.15148 0.41762 0.10613 0.0
H197 H 0.09154 0.34233 0.10894 0.0
C198 C 0.06559 0.1454 0.1028 0.0
C199 C 0.02794 0.11975 0.09347 0.0
C200 C 0.06815 0.17775 0.11321 0.0
C201 C 0.03295 0.18474 0.11461 0.0
C202 C 0.99578 0.15998 0.10498 0.0
C203 C 0.99329 0.12779 0.09449 0.0
C204 C 0.03467 0.21709 0.12647 0.0
C205 C 0.06752 0.26053 0.12511 0.0
C206 C 0.00386 0.2053 0.13897 0.0
C207 C 0.96963 0.15964 0.14149 0.0
C208 C 0.92565 0.14799 0.14152 0.0
C209 C 0.89332 0.10491 0.14375 0.0
C210 C 0.90461 0.07321 0.14604 0.0
C211 C 0.94827 0.08456 0.14616 0.0
C212 C 0.98071 0.1276 0.14396 0.0
C213 C 0.03219 0.37835 0.16284 0.0
C214 C 0.03568 0.3761 0.17967 0.0
C215 C 0.03318 0.34753 0.15256 0.0
C216 C 0.03757 0.3138 0.15891 0.0
C217 C 0.04076 0.31123 0.17571 0.0
C218 C 0.04014 0.3423 0.186 0.0
C219 C 0.0384 0.28099 0.14798 0.0
C220 C 0.006 0.23745 0.14951 0.0
C221 C 0.06991 0.29263 0.13575 0.0
C222 C 0.10603 0.33784 0.134 0.0
C223 C 0.13409 0.36009 0.14709 0.0
C224 C 0.16785 0.4028 0.1454 0.0
C225 C 0.17407 0.42353 0.13066 0.0
C226 C 0.1466 0.40154 0.11755 0.0
C227 C 0.11275 0.35883 0.11918 0.0
H228 H 0.20023 0.45659 0.12938 0.0
H229 H 0.87954 0.03987 0.14774 0.0
H230 H 0.94363 0.08005 0.42072 0.0
H231 H 0.89678 0.09226 0.43903 0.0
H232 H 0.81217 0.95431 0.44309 0.0
H233 H 0.85821 0.94174 0.42478 0.0
H234 H 0.76635 0.99425 0.43901 0.0
H235 H 0.88553 0.01377 0.47273 0.0
H236 H 0.96263 0.04674 0.48059 0.0
H237 H 0.97369 0.17179 0.48408 0.0
H238 H 0.89675 0.13962 0.47602 0.0
H239 H 0.6461 0.97142 0.50894 0.0
H240 H 0.69762 0.97044 0.48979 0.0
H241 H 0.76854 0.11004 0.48959 0.0
H242 H 0.7167 0.11133 0.50869 0.0
H243 H 0.82301 0.07655 0.49063 0.0
H244 H 0.70219 0.0559 0.45872 0.0
H245 H 0.62498 0.02256 0.451 0.0
H246 H 0.61704 0.8996 0.444 0.0
H247 H 0.69408 0.93207 0.45191 0.0
C248 C 0.91497 0.05229 0.42546 0.0
C249 C 0.90487 0.00988 0.42128 0.0
C250 C 0.88833 0.05935 0.43599 0.0
C251 C 0.85118 0.02418 0.44256 0.0
C252 C 0.84066 0.98194 0.43818 0.0
C253 C 0.86719 0.97484 0.42771 0.0
C254 C 0.82306 0.03091 0.45406 0.0
C255 C 0.7787 0.01195 0.45035 0.0
C256 C 0.83937 0.05504 0.46866 0.0
C257 C 0.88553 0.07437 0.47359 0.0
C258 C 0.9045 0.04835 0.47505 0.0
C259 C 0.94815 0.06688 0.47956 0.0
C260 C 0.97308 0.11136 0.48278 0.0
C261 C 0.95436 0.13736 0.48155 0.0
C262 C 0.91073 0.119 0.47702 0.0
C263 C 0.6725 0.00196 0.50477 0.0
C264 C 0.67696 0.04145 0.51023 0.0
C265 C 0.70201 0.00134 0.49386 0.0
C266 C 0.73655 0.04016 0.48807 0.0
C267 C 0.74206 0.07971 0.49388 0.0
C268 C 0.71247 0.08037 0.50483 0.0
C269 C 0.76618 0.03909 0.4757 0.0
C270 C 0.81077 0.05918 0.47922 0.0
C271 C 0.75013 0.01598 0.4609 0.0
C272 C 0.70384 0.99637 0.45604 0.0
C273 C 0.6839 0.02168 0.45565 0.0
C274 C 0.64018 0.00295 0.45122 0.0
C275 C 0.61609 0.95897 0.44705 0.0
C276 C 0.63573 0.93365 0.44725 0.0
C277 C 0.67943 0.95222 0.45169 0.0
H278 H 0.58224 0.94453 0.44362 0.0
H279 H 0.00688 0.12564 0.48627 0.0
H280 H 0.94293 0.91381 0.75421 0.0
H281 H 0.90177 0.85454 0.77294 0.0
H282 H 0.8081 0.89605 0.77875 0.0
H283 H 0.84877 0.9551 0.7603 0.0
H284 H 0.83455 0.88336 0.80751 0.0
H285 H 0.7854 0.80591 0.75631 0.0
H286 H 0.79517 0.78027 0.72969 0.0
H287 H 0.85572 0.71673 0.75233 0.0
H288 H 0.8468 0.7425 0.77908 0.0
H289 H 0.65364 0.7115 0.84386 0.0
H290 H 0.7042 0.76622 0.82545 0.0
H291 H 0.78162 0.70474 0.82434 0.0
H292 H 0.72999 0.6486 0.84234 0.0
H293 H 0.77194 0.72713 0.79452 0.0
H294 H 0.81576 0.7988 0.84581 0.0
H295 H 0.8064 0.82405 0.87257 0.0
H296 H 0.75798 0.89892 0.85015 0.0
H297 H 0.76646 0.87363 0.82325 0.0
C298 C 0.91333 0.91004 0.75935 0.0
C299 C 0.89937 0.93947 0.75577 0.0
C300 C 0.88982 0.87611 0.77005 0.0
C301 C 0.85186 0.87089 0.77728 0.0
C302 C 0.83743 0.8996 0.77342 0.0
C303 C 0.86077 0.93336 0.76279 0.0
C304 C 0.82751 0.8366 0.78929 0.0
C305 C 0.82056 0.84918 0.80462 0.0
C306 C 0.81061 0.79208 0.78574 0.0
C307 C 0.8159 0.77656 0.76967 0.0
C308 C 0.80114 0.78679 0.75559 0.0
C309 C 0.80645 0.77217 0.74049 0.0
C310 C 0.82618 0.74701 0.73931 0.0
C311 C 0.84052 0.7363 0.75325 0.0
C312 C 0.83532 0.75088 0.76839 0.0
C313 C 0.68122 0.70933 0.83963 0.0
C314 C 0.68766 0.67554 0.84459 0.0
C315 C 0.71041 0.74097 0.82922 0.0
C316 C 0.74708 0.73997 0.82366 0.0
C317 C 0.75367 0.70629 0.82853 0.0
C318 C 0.72433 0.67446 0.83894 0.0
C319 C 0.77794 0.77389 0.81258 0.0
C320 C 0.78629 0.76131 0.79747 0.0
C321 C 0.79638 0.81853 0.81635 0.0
C322 C 0.79147 0.83406 0.83251 0.0
C323 C 0.80284 0.82042 0.84659 0.0
C324 C 0.79773 0.83477 0.86178 0.0
C325 C 0.78154 0.86301 0.86306 0.0
C326 C 0.77051 0.87703 0.84914 0.0
C327 C 0.77551 0.86274 0.83392 0.0
H328 H 0.7776 0.87408 0.87483 0.0
H329 H 0.83025 0.73571 0.72761 0.0
H330 H 0.07867 0.94666 0.07554 0.0
H331 H 0.08338 0.89152 0.09127 0.0
H332 H 0.96905 0.8668 0.11763 0.0
H333 H 0.96392 0.92118 0.10197 0.0
H334 H 0.09473 0.88849 0.12348 0.0
H335 H 0.91089 0.76132 0.12718 0.0
H336 H 0.84471 0.7341 0.11043 0.0
H337 H 0.9219 0.77255 0.06751 0.0
H338 H 0.98847 0.79941 0.08398 0.0
H339 H 0.04895 0.74995 0.19012 0.0
H340 H 0.0497 0.79968 0.17001 0.0
H341 H 0.01972 0.70343 0.13249 0.0
H342 H 0.01918 0.65367 0.15249 0.0
H343 H 0.97049 0.739 0.12918 0.0
H344 H 0.12172 0.79073 0.13646 0.0
H345 H 0.18989 0.81653 0.15181 0.0
H346 H 0.18206 0.92558 0.16979 0.0
H347 H 0.11349 0.90009 0.15472 0.0
C348 C 0.05432 0.92912 0.08458 0.0
C349 C 0.02087 0.93821 0.08748 0.0
C350 C 0.05716 0.8978 0.0936 0.0
C351 C 0.02637 0.87479 0.10554 0.0
C352 C 0.99281 0.88364 0.10833 0.0
C353 C 0.99002 0.9149 0.09938 0.0
C354 C 0.02973 0.8424 0.11551 0.0
C355 C 0.06766 0.85574 0.12467 0.0
C356 C 0.99467 0.79944 0.11688 0.0
C357 C 0.95471 0.78269 0.10684 0.0
C358 C 0.91373 0.76375 0.11417 0.0
C359 C 0.87615 0.74843 0.10472 0.0
C360 C 0.87911 0.7517 0.08792 0.0
C361 C 0.91966 0.77017 0.08053 0.0
C362 C 0.95733 0.78549 0.08992 0.0
C363 C 0.04296 0.73952 0.17757 0.0
C364 C 0.03396 0.69777 0.17294 0.0
C365 C 0.04337 0.76798 0.16608 0.0
C366 C 0.03513 0.75544 0.1497 0.0
C367 C 0.02604 0.71379 0.14505 0.0
C368 C 0.02559 0.68531 0.15653 0.0
C369 C 0.03508 0.78542 0.13747 0.0
C370 C 0.99771 0.77164 0.12791 0.0
C371 C 0.07092 0.82773 0.13555 0.0
C372 C 0.11228 0.8433 0.14456 0.0
C373 C 0.13437 0.82005 0.14378 0.0
C374 C 0.17311 0.83464 0.15241 0.0
C375 C 0.19025 0.87262 0.16179 0.0
C376 C 0.16873 0.89614 0.16253 0.0
C377 C 0.12995 0.88166 0.15393 0.0
H378 H 0.22025 0.88386 0.16847 0.0
H379 H 0.84998 0.73987 0.08063 0.0
H380 H 0.05528 0.9425 0.43097 0.0
H381 H 0.11384 0.95614 0.44947 0.0
H382 H 0.18396 0.09017 0.43571 0.0
H383 H 0.12449 0.07697 0.4173 0.0
H384 H 0.19369 0.97857 0.44471 0.0
H385 H 0.24764 0.15187 0.46796 0.0
H386 H 0.21656 0.19905 0.47251 0.0
H387 H 0.09003 0.08727 0.4783 0.0
H388 H 0.12046 0.03948 0.474 0.0
H389 H 0.3881 0.05191 0.48827 0.0
H390 H 0.33454 0.05087 0.46957 0.0
H391 H 0.2539 0.04261 0.50977 0.0
H392 H 0.30806 0.0447 0.52856 0.0
H393 H 0.25036 0.09303 0.48752 0.0
H394 H 0.23468 0.95181 0.48777 0.0
H395 H 0.25917 0.89868 0.4854 0.0
H396 H 0.29659 0.93536 0.43629 0.0
H397 H 0.27286 0.98917 0.43845 0.0
C398 C 0.08305 0.97499 0.43182 0.0
C399 C 0.08505 0.00865 0.42259 0.0
C400 C 0.11666 0.9827 0.44243 0.0
C401 C 0.15332 0.0242 0.44408 0.0
C402 C 0.15573 0.05797 0.43483 0.0
C403 C 0.12178 0.05034 0.42425 0.0
C404 C 0.18892 0.03133 0.45537 0.0
C405 C 0.20616 0.00378 0.45401 0.0
C406 C 0.20486 0.06372 0.4677 0.0
C407 C 0.18628 0.09214 0.47047 0.0
C408 C 0.21322 0.13739 0.47025 0.0
C409 C 0.19571 0.16422 0.47278 0.0
C410 C 0.15132 0.14616 0.47563 0.0
C411 C 0.12437 0.10121 0.47603 0.0
C412 C 0.14173 0.07424 0.47352 0.0
C413 C 0.35899 0.05001 0.49311 0.0
C414 C 0.35198 0.04784 0.50986 0.0
C415 C 0.32842 0.04945 0.48242 0.0
C416 C 0.28975 0.04585 0.48823 0.0
C417 C 0.28343 0.04536 0.50499 0.0
C418 C 0.31433 0.04646 0.51572 0.0
C419 C 0.25502 0.04029 0.4768 0.0
C420 C 0.23807 0.06812 0.47812 0.0
C421 C 0.23834 0.00731 0.46469 0.0
C422 C 0.2524 0.97481 0.46332 0.0
C423 C 0.24841 0.94875 0.4765 0.0
C424 C 0.26212 0.91849 0.47519 0.0
C425 C 0.27953 0.91373 0.46072 0.0
C426 C 0.28316 0.93914 0.44751 0.0
C427 C 0.26956 0.9695 0.44876 0.0
H428 H 0.29013 0.89028 0.45973 0.0
H429 H 0.13783 0.16699 0.47758 0.0
H430 H 0.03897 0.11835 0.77946 0.0
H431 H 0.0992 0.16237 0.79794 0.0
H432 H 0.18985 0.16827 0.76208 0.0
H433 H 0.12905 0.12153 0.74395 0.0
H434 H 0.21878 0.16307 0.78922 0.0
H435 H 0.1678 0.25467 0.77027 0.0
H436 H 0.11467 0.27743 0.76419 0.0
H437 H 0.085 0.27381 0.81459 0.0
H438 H 0.13757 0.25048 0.82096 0.0
H439 H 0.39575 0.36415 0.82317 0.0
H440 H 0.33697 0.31146 0.80542 0.0
H441 H 0.25309 0.25975 0.84655 0.0
H442 H 0.31221 0.31162 0.86442 0.0
H443 H 0.22301 0.28938 0.81672 0.0
H444 H 0.27987 0.19842 0.83419 0.0
H445 H 0.3385 0.182 0.83821 0.0
H446 H 0.36394 0.19342 0.78731 0.0
H447 H 0.30586 0.2106 0.78303 0.0
C448 C 0.07177 0.12895 0.77555 0.0
C449 C 0.07944 0.11696 0.76023 0.0
C450 C 0.10627 0.15439 0.78608 0.0
C451 C 0.14937 0.16991 0.78128 0.0
C452 C 0.157 0.15701 0.76608 0.0
C453 C 0.1223 0.13041 0.7557 0.0
C454 C 0.18625 0.19978 0.79209 0.0
C455 C 0.2198 0.19094 0.79504 0.0
C456 C 0.18789 0.23626 0.79984 0.0
C457 C 0.15633 0.25044 0.79607 0.0
C458 C 0.14974 0.25845 0.78004 0.0
C459 C 0.11975 0.27149 0.77655 0.0
C460 C 0.0964 0.27696 0.78899 0.0
C461 C 0.10307 0.26951 0.80496 0.0
C462 C 0.13299 0.25642 0.80853 0.0
C463 C 0.36486 0.34122 0.8284 0.0
C464 C 0.35835 0.34176 0.84512 0.0
C465 C 0.33147 0.31119 0.81829 0.0
C466 C 0.29087 0.28181 0.82472 0.0
C467 C 0.28432 0.28216 0.84142 0.0
C468 C 0.31802 0.31157 0.85158 0.0
C469 C 0.25468 0.25213 0.81387 0.0
C470 C 0.22157 0.26132 0.81087 0.0
C471 C 0.25413 0.21684 0.80576 0.0
C472 C 0.28885 0.20627 0.80832 0.0
C473 C 0.29826 0.19787 0.82388 0.0
C474 C 0.33132 0.18832 0.8262 0.0
C475 C 0.35502 0.18679 0.81303 0.0
C476 C 0.34561 0.19468 0.7975 0.0
C477 C 0.31259 0.20429 0.79512 0.0
H478 H 0.38061 0.17939 0.81485 0.0
H479 H 0.07319 0.28705 0.78625 0.0
H480 H 0.88734 0.95258 0.68894 0.0
H481 H 0.8323 0.95279 0.6714 0.0
H482 H 0.87977 0.08674 0.68436 0.0
H483 H 0.93349 0.086 0.70247 0.0
H484 H 0.79672 0.04779 0.68254 0.0
H485 H 0.90651 0.05282 0.64768 0.0
H486 H 0.95485 0.02863 0.63637 0.0
H487 H 0.84415 0.9074 0.62165 0.0
H488 H 0.79514 0.93067 0.63307 0.0
H489 H 0.71279 0.1034 0.61488 0.0
H490 H 0.76209 0.09771 0.63381 0.0
H491 H 0.69326 0.95914 0.62671 0.0
H492 H 0.64274 0.96418 0.60817 0.0
H493 H 0.78476 0.99813 0.6255 0.0
H494 H 0.67558 0.99758 0.65987 0.0
H495 H 0.62987 0.02583 0.67042 0.0
H496 H 0.74387 0.14438 0.68511 0.0
H497 H 0.7903 0.11707 0.67443 0.0
C498 C 0.88577 0.98195 0.68813 0.0
C499 C 0.91486 0.01935 0.69699 0.0
C500 C 0.85449 0.98215 0.67801 0.0
C501 C 0.85243 0.02009 0.67623 0.0
C502 C 0.88072 0.05709 0.68546 0.0
C503 C 0.91148 0.05667 0.69579 0.0
C504 C 0.82133 0.02154 0.66461 0.0
C505 C 0.79456 0.03738 0.67003 0.0
C506 C 0.8178 0.00733 0.6483 0.0
C507 C 0.84718 0.99332 0.64138 0.0
C508 C 0.89249 0.02088 0.64213 0.0
C509 C 0.92 0.00736 0.63569 0.0
C510 C 0.90258 0.96646 0.62833 0.0
C511 C 0.8576 0.93905 0.62737 0.0
C512 C 0.82994 0.9524 0.63382 0.0
C513 C 0.70771 0.0716 0.61744 0.0
C514 C 0.67349 0.03423 0.61001 0.0
C515 C 0.73611 0.06847 0.62822 0.0
C516 C 0.7311 0.02797 0.63175 0.0
C517 C 0.6977 0.9907 0.62412 0.0
C518 C 0.669 0.99373 0.61345 0.0
C519 C 0.76063 0.02457 0.64347 0.0
C520 C 0.78701 0.00838 0.63804 0.0
C521 C 0.76429 0.03908 0.65969 0.0
C522 C 0.73642 0.05542 0.66622 0.0
C523 C 0.69091 0.02981 0.66524 0.0
C524 C 0.66487 0.04562 0.67126 0.0
C525 C 0.68396 0.08691 0.67839 0.0
C526 C 0.72913 0.11242 0.67956 0.0
C527 C 0.75533 0.09677 0.67354 0.0
H528 H 0.66374 0.0991 0.68305 0.0
H529 H 0.92394 0.95605 0.62335 0.0
H530 H 0.86404 0.96982 0.02929 0.0
H531 H 0.81749 0.90907 0.01138 0.0
H532 H 0.90437 0.85901 0.01605 0.0
H533 H 0.95158 0.92004 0.03399 0.0
H534 H 0.88036 0.85881 0.98448 0.0
H535 H 0.80932 0.81032 0.03521 0.0
H536 H 0.77648 0.8156 0.06071 0.0
H537 H 0.6811 0.82973 0.03417 0.0
H538 H 0.71376 0.82514 0.0085 0.0
H539 H 0.73434 0.6562 0.94611 0.0
H540 H 0.78305 0.71235 0.9654 0.0
H541 H 0.70008 0.76769 0.96515 0.0
H542 H 0.65051 0.71088 0.94629 0.0
H543 H 0.72356 0.76242 0.99533 0.0
H544 H 0.79621 0.81454 0.94478 0.0
H545 H 0.82912 0.81028 0.91914 0.0
H546 H 0.92137 0.79019 0.94519 0.0
H547 H 0.88861 0.79375 0.97099 0.0
C548 C 0.87334 0.94591 0.0266 0.0
C549 C 0.91167 0.94994 0.03314 0.0
C550 C 0.84651 0.91104 0.01638 0.0
C551 C 0.85724 0.87929 0.01248 0.0
C552 C 0.89545 0.88313 0.01892 0.0
C553 C 0.9223 0.91798 0.02923 0.0
C554 C 0.82881 0.84266 1.00142 0.0
C555 C 0.84624 0.83723 0.98698 0.0
C556 C 0.78408 0.81514 0.00451 0.0
C557 C 0.76423 0.81775 0.01993 0.0
C558 C 0.78155 0.81489 0.03481 0.0
C559 C 0.76293 0.8177 0.0493 0.0
C560 C 0.72679 0.8231 0.04906 0.0
C561 C 0.70912 0.82559 0.03433 0.0
C562 C 0.72765 0.82284 0.01981 0.0
C563 C 0.72633 0.68019 0.95023 0.0
C564 C 0.68854 0.67907 0.94461 0.0
C565 C 0.75442 0.7125 0.96115 0.0
C566 C 0.74545 0.7445 0.96662 0.0
C567 C 0.70773 0.74341 0.96107 0.0
C568 C 0.67964 0.71113 0.95015 0.0
C569 C 0.77498 0.77883 0.9783 0.0
C570 C 0.75774 0.78381 0.99287 0.0
C571 C 0.81985 0.80599 0.9753 0.0
C572 C 0.83966 0.80394 0.95981 0.0
C573 C 0.82329 0.80885 0.94503 0.0
C574 C 0.84195 0.80663 0.93047 0.0
C575 C 0.87723 0.79984 0.93053 0.0
C576 C 0.89399 0.79537 0.94516 0.0
C577 C 0.87541 0.79752 0.95976 0.0
H578 H 0.89164 0.79814 0.91925 0.0
H579 H 0.71241 0.82526 0.06029 0.0
H580 H 0.08122 0.00802 0.34947 0.0
H581 H 0.08585 0.95615 0.33123 0.0
H582 H 0.96774 0.85264 0.35109 0.0
H583 H 0.96248 0.90456 0.36917 0.0
H584 H 0.09368 0.88738 0.33544 0.0
H585 H 0.91011 0.77903 0.32136 0.0
H586 H 0.84429 0.7851 0.32008 0.0
H587 H 0.92233 0.92062 0.31014 0.0
H588 H 0.98852 0.91523 0.31114 0.0
H589 H 0.05188 0.69162 0.297 0.0
H590 H 0.04953 0.74538 0.31484 0.0
H591 H 0.02077 0.80047 0.27404 0.0
H592 H 0.02323 0.74678 0.25606 0.0
H593 H 0.97009 0.79308 0.29893 0.0
H594 H 0.12195 0.85054 0.29075 0.0
H595 H 0.1905 0.84948 0.2901 0.0
H596 H 0.18113 0.82522 0.34098 0.0
H597 H 0.11216 0.82553 0.34189 0.0
C598 C 0.05631 0.97418 0.35 0.0
C599 C 0.02131 0.96039 0.36067 0.0
C600 C 0.05906 0.94455 0.33959 0.0
C601 C 0.02686 0.90058 0.33963 0.0
C602 C 0.99256 0.88652 0.35064 0.0
C603 C 0.98969 0.91619 0.36101 0.0
C604 C 0.02887 0.86967 0.32796 0.0
C605 C 0.06661 0.8667 0.32749 0.0
C606 C 0.99392 0.84328 0.31733 0.0
C607 C 0.95427 0.84677 0.31649 0.0
C608 C 0.91319 0.81007 0.31884 0.0
C609 C 0.87582 0.8134 0.31818 0.0
C610 C 0.87914 0.85324 0.31509 0.0
C611 C 0.91981 0.88981 0.31259 0.0
C612 C 0.95727 0.88664 0.31323 0.0
C613 C 0.04551 0.71545 0.29178 0.0
C614 C 0.03805 0.71508 0.27507 0.0
C615 C 0.04407 0.74611 0.30201 0.0
C616 C 0.03545 0.77727 0.29576 0.0
C617 C 0.02744 0.7767 0.27913 0.0
C618 C 0.02878 0.74595 0.26888 0.0
C619 C 0.03462 0.81031 0.3066 0.0
C620 C 0.9971 0.81367 0.30692 0.0
C621 C 0.07013 0.83771 0.31684 0.0
C622 C 0.11168 0.83766 0.31636 0.0
C623 C 0.13433 0.84465 0.30178 0.0
C624 C 0.17329 0.84424 0.30137 0.0
C625 C 0.1901 0.83718 0.31548 0.0
C626 C 0.16804 0.83063 0.33005 0.0
C627 C 0.12903 0.83096 0.33053 0.0
H628 H 0.22027 0.83688 0.31514 0.0
H629 H 0.85018 0.85576 0.31459 0.0
H630 H 0.0786 0.95871 0.7053 0.0
H631 H 0.13258 0.95737 0.68736 0.0
H632 H 0.17549 0.0887 0.67358 0.0
H633 H 0.12083 0.08958 0.69098 0.0
H634 H 0.16558 0.04302 0.64792 0.0
H635 H 0.23579 0.05977 0.69929 0.0
H636 H 0.24211 0.04099 0.72729 0.0
H637 H 0.22207 0.91773 0.71088 0.0
H638 H 0.21508 0.93557 0.68279 0.0
H639 H 0.36579 0.09995 0.61072 0.0
H640 H 0.31082 0.09434 0.62979 0.0
H641 H 0.26225 0.95746 0.63398 0.0
H642 H 0.31743 0.9629 0.61494 0.0
H643 H 0.27268 1.00056 0.66399 0.0
H644 H 0.20615 0.9871 0.61221 0.0
H645 H 0.20252 0.00851 0.58436 0.0
H646 H 0.21841 0.12917 0.60204 0.0
H647 H 0.22278 0.10875 0.63001 0.0
C648 C 0.09991 0.98741 0.69857 0.0
C649 C 0.09542 0.0242 0.69952 0.0
C650 C 0.13085 0.98668 0.68834 0.0
C651 C 0.15838 0.02304 0.67913 0.0
C652 C 0.15455 0.06014 0.68046 0.0
C653 C 0.12335 0.06066 0.69047 0.0
C654 C 0.18996 0.02222 0.66757 0.0
C655 C 0.18931 0.03424 0.65154 0.0
C656 C 0.22024 0.00959 0.67208 0.0
C657 C 0.22443 0.99881 0.68896 0.0
C658 C 0.23238 0.02852 0.70167 0.0
C659 C 0.23615 0.01808 0.71755 0.0
C660 C 0.23237 0.97815 0.72087 0.0
C661 C 0.22492 0.94862 0.7083 0.0
C662 C 0.22108 0.95889 0.69239 0.0
C663 C 0.34349 0.06869 0.61574 0.0
C664 C 0.34583 0.03184 0.6113 0.0
C665 C 0.312 0.06549 0.62657 0.0
C666 C 0.28233 0.02544 0.63323 0.0
C667 C 0.28482 0.98865 0.62896 0.0
C668 C 0.31609 0.99174 0.61799 0.0
C669 C 0.24861 0.02216 0.64456 0.0
C670 C 0.24879 0.00921 0.66046 0.0
C671 C 0.21811 0.03431 0.63999 0.0
C672 C 0.21517 0.04654 0.6232 0.0
C673 C 0.20921 0.01834 0.61016 0.0
C674 C 0.20696 0.03027 0.59435 0.0
C675 C 0.21033 0.07021 0.59143 0.0
C676 C 0.21584 0.09826 0.60432 0.0
C677 C 0.21817 0.0865 0.62015 0.0
H678 H 0.20858 0.07939 0.57918 0.0
H679 H 0.2353 0.97012 0.73318 0.0
H680 H 0.12355 0.09333 0.03385 0.0
H681 H 0.18239 0.13699 0.01518 0.0
H682 H 0.1327 0.22381 0.00976 0.0
H683 H 0.0738 0.18042 0.02813 0.0
H684 H 0.15123 0.20284 0.98106 0.0
H685 H 0.22332 0.25137 0.03281 0.0
H686 H 0.24764 0.24246 0.05961 0.0
H687 H 0.31844 0.1879 0.03741 0.0
H688 H 0.29405 0.19596 0.01047 0.0
H689 H 0.32698 0.38631 0.94619 0.0
H690 H 0.2708 0.33621 0.96438 0.0
H691 H 0.33004 0.25685 0.96499 0.0
H692 H 0.38623 0.30663 0.94658 0.0
H693 H 0.30735 0.26884 0.99521 0.0
H694 H 0.23868 0.22445 0.94333 0.0
H695 H 0.21482 0.23413 0.91656 0.0
H696 H 0.13749 0.2809 0.93901 0.0
H697 H 0.1614 0.27211 0.96593 0.0
C698 C 0.12524 0.12183 0.02874 0.0
C699 C 0.09377 0.13321 0.03251 0.0
C700 C 0.159 0.14683 0.0181 0.0
C701 C 0.16209 0.18382 0.0111 0.0
C702 C 0.13092 0.19534 0.01494 0.0
C703 C 0.09726 0.17046 0.02552 0.0
C704 C 0.19716 0.21035 0.99954 0.0
C705 C 0.18536 0.2176 0.98423 0.0
C706 C 0.24173 0.22862 0.00346 0.0
C707 C 0.25645 0.22381 0.01964 0.0
C708 C 0.24377 0.23713 0.03365 0.0
C709 C 0.25763 0.2323 0.04886 0.0
C710 C 0.28446 0.2145 0.05021 0.0
C711 C 0.29759 0.20161 0.03635 0.0
C712 C 0.28378 0.20632 0.0211 0.0
C713 C 0.32783 0.35793 0.95 0.0
C714 C 0.36104 0.35041 0.94481 0.0
C715 C 0.29573 0.32937 0.96047 0.0
C716 C 0.29593 0.2925 0.96592 0.0
C717 C 0.32926 0.2851 0.96094 0.0
C718 C 0.36141 0.31367 0.95045 0.0
C719 C 0.26134 0.26192 0.97687 0.0
C720 C 0.27321 0.25382 0.99202 0.0
C721 C 0.21678 0.24284 0.97282 0.0
C722 C 0.20213 0.24796 0.95665 0.0
C723 C 0.21685 0.23711 0.94256 0.0
C724 C 0.20327 0.24239 0.92736 0.0
C725 C 0.17473 0.25821 0.92609 0.0
C726 C 0.15963 0.26869 0.94002 0.0
C727 C 0.17314 0.26352 0.95525 0.0
H728 H 0.16426 0.26227 0.91431 0.0
H729 H 0.29516 0.2108 0.062 0.0
H730 H 0.95236 0.09642 0.35601 0.0
H731 H 0.95899 0.15565 0.3397 0.0
H732 H 0.08418 0.24184 0.36136 0.0
H733 H 0.07771 0.1824 0.37784 0.0
H734 H 0.96942 0.2355 0.34666 0.0
H735 H 0.1491 0.30708 0.33022 0.0
H736 H 0.20411 0.28475 0.32835 0.0
H737 H 0.10385 0.15335 0.31873 0.0
H738 H 0.04837 0.17502 0.32032 0.0
H739 H 0.04399 0.43058 0.30264 0.0
H740 H 0.04111 0.37861 0.32223 0.0
H741 H 0.03098 0.29254 0.28326 0.0
H742 H 0.03403 0.34448 0.26359 0.0
H743 H 0.08984 0.301 0.30733 0.0
H744 H 0.94273 0.27147 0.30258 0.0
H745 H 0.88488 0.28999 0.30312 0.0
H746 H 0.91469 0.33044 0.35284 0.0
H747 H 0.97318 0.31272 0.35253 0.0
C748 C 0.98114 0.12809 0.35746 0.0
C749 C 0.01464 0.1347 0.36815 0.0
C750 C 0.98478 0.16195 0.34816 0.0
C751 C 0.02221 0.20304 0.3492 0.0
C752 C 0.05516 0.21025 0.36028 0.0
C753 C 0.05135 0.17635 0.36973 0.0
C754 C 0.02728 0.23736 0.33804 0.0
C755 C 0.99598 0.25013 0.33817 0.0
C756 C 0.06154 0.25596 0.32678 0.0
C757 C 0.09461 0.24261 0.32559 0.0
C758 C 0.13885 0.27345 0.32766 0.0
C759 C 0.17009 0.26091 0.32665 0.0
C760 C 0.15747 0.21763 0.32349 0.0
C761 C 0.11357 0.18683 0.32125 0.0
C762 C 0.08221 0.19922 0.32222 0.0
C763 C 0.04152 0.40073 0.29825 0.0
C764 C 0.03917 0.39156 0.28157 0.0
C765 C 0.03966 0.37101 0.30945 0.0
C766 C 0.03567 0.33166 0.3042 0.0
C767 C 0.0341 0.32274 0.28756 0.0
C768 C 0.03551 0.35226 0.27635 0.0
C769 C 0.03215 0.29933 0.31604 0.0
C770 C 0.06368 0.28689 0.316 0.0
C771 C 0.99782 0.28066 0.32726 0.0
C772 C 0.96263 0.29123 0.32748 0.0
C773 C 0.9372 0.28468 0.31359 0.0
C774 C 0.90425 0.29496 0.31386 0.0
C775 C 0.8962 0.3115 0.32799 0.0
C776 C 0.92102 0.31769 0.34189 0.0
C777 C 0.95405 0.30752 0.34168 0.0
H778 H 0.87066 0.31942 0.32818 0.0
H779 H 0.1817 0.20798 0.32272 0.0
loop_
_geom_bond_atom_site_label_1
_geom_bond_atom_site_label_2
_geom_bond_distance
_geom_bond_site_symmetry_2
_ccdc_geom_bond_type
Co0 O1 2.216 1_445 S
Co0 O2 2.091 1_545 S
Co0 O4 2.004 . S
Co0 O10 2.021 1_445 S
Co0 O12 2.137 . S
Co0 O13 2.244 1_455 S
O1 Co0 2.216 1_665 S
O1 C8 1.247 1_655 S
O2 Co0 2.091 1_565 S
O2 C8 1.261 . S
C3 O12 1.247 . S
C3 O13 1.272 1_455 S
O4 Co0 2.004 . S
O4 C9 1.259 . S
Co5 O6 2.061 1_655 S
Co5 O11 2.052 . S
Co5 O13 2.135 . S
O6 Co5 2.061 1_455 S
O6 C9 1.235 . S
C7 O10 1.238 . S
C7 O11 1.241 1_565 S
C8 O1 1.247 1_455 S
C8 O2 1.261 . S
C9 O4 1.259 . S
C9 O6 1.235 . S
O10 Co0 2.021 1_665 S
O10 C7 1.238 . S
O11 Co5 2.052 . S
O11 C7 1.241 1_545 S
O12 Co0 2.137 . S
O12 C3 1.247 . S
O13 Co0 2.244 1_655 S
O13 C3 1.272 1_655 S
O13 Co5 2.135 . S
Co14 O15 2.216 1_455 S
Co14 O16 2.091 . S
Co14 O18 2.004 . S
Co14 O24 2.021 . S
Co14 O26 2.137 . S
Co14 O27 2.244 1_545 S
O15 Co14 2.216 1_655 S
O15 C22 1.247 1_655 S
O16 Co14 2.091 . S
O16 C22 1.261 . S
C17 O26 1.247 1_565 S
C17 O27 1.272 . S
O18 Co14 2.004 . S
O18 C23 1.259 . S
Co19 O20 2.061 1_655 S
Co19 O25 2.052 . S
Co19 O27 2.135 1_655 S
O20 Co19 2.061 1_455 S
O20 C23 1.235 1_565 S
C21 O24 1.238 1_655 S
C21 O25 1.241 1_545 S
C22 O15 1.247 1_455 S
C22 O16 1.261 . S
C23 O18 1.259 . S
C23 O20 1.235 1_545 S
O24 Co14 2.021 . S
O24 C21 1.238 1_455 S
O25 Co19 2.052 . S
O25 C21 1.241 1_565 S
O26 Co14 2.137 . S
O26 C17 1.247 1_545 S
O27 Co14 2.244 1_565 S
O27 C17 1.272 . S
O27 Co19 2.135 1_455 S
Co28 O29 2.216 . S
Co28 O30 2.091 1_545 S
Co28 O32 2.004 1_445 S
Co28 O38 2.021 . S
Co28 O40 2.137 1_445 S
Co28 O41 2.244 1_455 S
O29 Co28 2.216 . S
O29 C36 1.247 . S
O30 Co28 2.091 1_565 S
O30 C36 1.261 1_565 S
C31 O40 1.247 1_545 S
C31 O41 1.272 . S
O32 Co28 2.004 1_665 S
O32 C37 1.259 . S
Co33 O34 2.086 . S
Co33 O39 2.052 1_655 S
Co33 O41 2.135 . S
O34 Co33 2.086 . S
O34 C37 1.208 1_545 S
C35 O38 1.238 . S
C35 O39 1.241 . S
C36 O29 1.247 . S
C36 O30 1.261 1_545 S
C37 O32 1.259 . S
C37 O34 1.208 1_565 S
O38 Co28 2.021 . S
O38 C35 1.238 . S
O39 Co33 2.052 1_455 S
O39 C35 1.241 . S
O40 Co28 2.137 1_665 S
O40 C31 1.247 1_565 S
O41 Co28 2.244 1_655 S
O41 C31 1.272 . S
O41 Co33 2.135 . S
C42 C43 1.384 1_655 S
C42 C44 1.384 . S
C42 H70 0.931 . S
C43 C42 1.384 1_455 S
C43 C46 1.382 . S
C44 C42 1.384 . S
C44 C45 1.381 1_655 S
C44 H71 0.930 . S
C45 C44 1.381 1_455 S
C45 C47 1.381 . S
C45 C48 1.487 . S
C46 C43 1.382 . S
C46 C47 1.387 . S
C46 H72 0.930 . S
C47 C45 1.381 . S
C47 C46 1.387 . S
C47 H73 0.931 . S
C48 C45 1.487 . S
C48 C55 1.399 . S
C48 N86 1.343 . S
C49 C50 1.384 . S
C49 C51 1.384 . S
C49 H74 0.931 . S
C50 C49 1.384 . S
C50 C53 1.382 1_455 S
C51 C49 1.384 . S
C51 C52 1.381 . S
C51 H75 0.930 . S
C52 C51 1.381 . S
C52 C54 1.381 1_455 S
C52 C55 1.487 . S
C53 C50 1.382 1_655 S
C53 C54 1.387 . S
C53 H76 0.930 . S
C54 C52 1.381 1_655 S
C54 C53 1.387 . S
C54 H77 0.931 . S
C55 C48 1.399 . S
C55 C52 1.487 . S
C55 N87 1.343 . S
C56 C57 1.384 . S
C56 C58 1.384 . S
C56 H78 0.931 . S
C57 C56 1.384 . S
C57 C60 1.382 1_455 S
C58 C56 1.384 . S
C58 C59 1.381 . S
C58 H79 0.930 . S
C59 C58 1.381 . S
C59 C61 1.381 1_455 S
C59 C62 1.487 . S
C60 C57 1.382 1_655 S
C60 C61 1.387 . S
C60 H80 0.930 . S
C61 C59 1.381 1_655 S
C61 C60 1.387 . S
C61 H81 0.931 . S
C62 C59 1.487 . S
C62 C69 1.399 . S
C62 N87 1.343 . S
C63 C64 1.384 1_655 S
C63 C65 1.384 . S
C63 H82 0.931 . S
C64 C63 1.384 1_455 S
C64 C67 1.382 . S
C65 C63 1.384 . S
C65 C66 1.381 1_655 S
C65 H83 0.930 . S
C66 C65 1.381 1_455 S
C66 C68 1.381 . S
C66 C69 1.487 . S
C67 C64 1.382 . S
C67 C68 1.387 . S
C67 H84 0.930 . S
C68 C66 1.381 . S
C68 C67 1.387 . S
C68 H85 0.931 . S
C69 C62 1.399 . S
C69 C66 1.487 . S
C69 N86 1.343 . S
H70 C42 0.931 . S
H71 C44 0.930 . S
H72 C46 0.930 . S
H73 C47 0.931 . S
H74 C49 0.931 . S
H75 C51 0.930 . S
H76 C53 0.930 . S
H77 C54 0.931 . S
H78 C56 0.931 . S
H79 C58 0.930 . S
H80 C60 0.930 . S
H81 C61 0.931 . S
H82 C63 0.931 . S
H83 C65 0.930 . S
H84 C67 0.930 . S
H85 C68 0.931 . S
N86 C48 1.343 . S
N86 C69 1.343 . S
N87 C55 1.343 . S
N87 C62 1.343 . S
C88 C89 1.384 . S
C88 C90 1.384 . S
C88 H116 0.931 . S
C89 C88 1.384 . S
C89 C92 1.382 1_545 S
C90 C88 1.384 . S
C90 C91 1.381 . S
C90 H117 0.930 . S
C91 C90 1.381 . S
C91 C93 1.381 1_545 S
C91 C94 1.487 . S
C92 C89 1.382 1_565 S
C92 C93 1.387 . S
C92 H118 0.930 . S
C93 C91 1.381 1_565 S
C93 C92 1.387 . S
C93 H119 0.931 . S
C94 C91 1.487 . S
C94 C101 1.399 . S
C94 N132 1.343 . S
C95 C96 1.384 1_565 S
C95 C97 1.384 . S
C95 H120 0.931 . S
C96 C95 1.384 1_545 S
C96 C99 1.382 . S
C97 C95 1.384 . S
C97 C98 1.381 1_565 S
C97 H121 0.930 . S
C98 C97 1.381 1_545 S
C98 C100 1.381 . S
C98 C101 1.487 . S
C99 C96 1.382 . S
C99 C100 1.387 . S
C99 H122 0.930 . S
C100 C98 1.381 . S
C100 C99 1.387 . S
C100 H123 0.931 . S
C101 C94 1.399 . S
C101 C98 1.487 . S
C101 N133 1.343 . S
C102 C103 1.384 1_565 S
C102 C104 1.384 . S
C102 H124 0.931 . S
C103 C102 1.384 1_545 S
C103 C106 1.382 . S
C104 C102 1.384 . S
C104 C105 1.381 1_565 S
C104 H125 0.930 . S
C105 C104 1.381 1_545 S
C105 C107 1.381 . S
C105 C108 1.487 . S
C106 C103 1.382 . S
C106 C107 1.387 . S
C106 H126 0.930 . S
C107 C105 1.381 . S
C107 C106 1.387 . S
C107 H127 0.931 . S
C108 C105 1.487 . S
C108 C115 1.399 . S
C108 N133 1.343 . S
C109 C110 1.384 . S
C109 C111 1.384 . S
C109 H128 0.931 . S
C110 C109 1.384 . S
C110 C113 1.382 1_545 S
C111 C109 1.384 . S
C111 C112 1.381 . S
C111 H129 0.930 . S
C112 C111 1.381 . S
C112 C114 1.381 1_545 S
C112 C115 1.487 . S
C113 C110 1.382 1_565 S
C113 C114 1.387 . S
C113 H130 0.930 . S
C114 C112 1.381 1_565 S
C114 C113 1.387 . S
C114 H131 0.931 . S
C115 C108 1.399 . S
C115 C112 1.487 . S
C115 N132 1.343 . S
H116 C88 0.931 . S
H117 C90 0.930 . S
H118 C92 0.930 . S
H119 C93 0.931 . S
H120 C95 0.931 . S
H121 C97 0.930 . S
H122 C99 0.930 . S
H123 C100 0.931 . S
H124 C102 0.931 . S
H125 C104 0.930 . S
H126 C106 0.930 . S
H127 C107 0.931 . S
H128 C109 0.931 . S
H129 C111 0.930 . S
H130 C113 0.930 . S
H131 C114 0.931 . S
N132 C94 1.343 . S
N132 C115 1.343 . S
N133 C101 1.343 . S
N133 C108 1.343 . S
C134 C135 1.384 . S
C134 C136 1.384 . S
C134 H162 0.931 . S
C135 C134 1.384 . S
C135 C138 1.382 . S
C136 C134 1.384 . S
C136 C137 1.381 . S
C136 H163 0.930 . S
C137 C136 1.381 . S
C137 C139 1.381 . S
C137 C140 1.487 . S
C138 C135 1.382 . S
C138 C139 1.387 . S
C138 H164 0.930 . S
C139 C137 1.381 . S
C139 C138 1.387 . S
C139 H165 0.931 . S
C140 C137 1.487 . S
C140 C147 1.399 . S
C140 N178 1.343 . S
C141 C142 1.384 . S
C141 C143 1.384 . S
C141 H166 0.931 . S
C142 C141 1.384 . S
C142 C145 1.382 . S
C143 C141 1.384 . S
C143 C144 1.381 . S
C143 H167 0.930 . S
C144 C143 1.381 . S
C144 C146 1.381 . S
C144 C147 1.487 . S
C145 C142 1.382 . S
C145 C146 1.387 . S
C145 H168 0.930 . S
C146 C144 1.381 . S
C146 C145 1.387 . S
C146 H169 0.931 . S
C147 C140 1.399 . S
C147 C144 1.487 . S
C147 N179 1.343 . S
C148 C149 1.384 . S
C148 C150 1.384 . S
C148 H170 0.931 . S
C149 C148 1.384 . S
C149 C152 1.382 . S
C150 C148 1.384 . S
C150 C151 1.381 . S
C150 H171 0.930 . S
C151 C150 1.381 . S
C151 C153 1.381 . S
C151 C154 1.487 . S
C152 C149 1.382 . S
C152 C153 1.387 . S
C152 H172 0.930 . S
C153 C151 1.381 . S
C153 C152 1.387 . S
C153 H173 0.931 . S
C154 C151 1.487 . S
C154 C161 1.399 . S
C154 N179 1.343 . S
C155 C156 1.384 . S
C155 C157 1.384 . S
C155 H174 0.931 . S
C156 C155 1.384 . S
C156 C159 1.382 . S
C157 C155 1.384 . S
C157 C158 1.381 . S
C157 H175 0.930 . S
C158 C157 1.381 . S
C158 C160 1.381 . S
C158 C161 1.487 . S
C159 C156 1.382 . S
C159 C160 1.387 . S
C159 H176 0.930 . S
C160 C158 1.381 . S
C160 C159 1.387 . S
C160 H177 0.931 . S
C161 C154 1.399 . S
C161 C158 1.487 . S
C161 N178 1.343 . S
H162 C134 0.931 . S
H163 C136 0.930 . S
H164 C138 0.930 . S
H165 C139 0.931 . S
H166 C141 0.931 . S
H167 C143 0.930 . S
H168 C145 0.930 . S
H169 C146 0.931 . S
H170 C148 0.931 . S
H171 C150 0.930 . S
H172 C152 0.930 . S
H173 C153 0.931 . S
H174 C155 0.931 . S
H175 C157 0.930 . S
H176 C159 0.930 . S
H177 C160 0.931 . S
N178 C140 1.343 . S
N178 C161 1.343 . S
N179 C147 1.343 . S
N179 C154 1.343 . S
H180 C198 0.957 1_655 S
H181 C200 0.952 . S
H182 C202 0.950 . S
H183 C203 0.950 . S
H184 C205 0.950 . S
H185 C208 0.950 . S
H186 C209 0.950 . S
H187 C211 0.950 . S
H188 C212 0.950 . S
H189 C213 0.951 . S
H190 C215 0.951 . S
H191 C217 0.951 1_655 S
H192 C218 0.953 . S
H193 C220 0.950 . S
H194 C223 0.950 . S
H195 C224 0.950 . S
H196 C226 0.950 . S
H197 C227 0.950 . S
C198 H180 0.957 1_455 S
C198 C199 1.372 . S
C198 C200 1.373 1_455 S
C199 C198 1.372 . S
C199 C203 1.385 . S
C200 H181 0.952 . S
C200 C198 1.373 1_655 S
C200 C201 1.367 1_655 S
C201 C200 1.367 1_455 S
C201 C202 1.414 . S
C201 C204 1.499 . S
C202 H182 0.950 . S
C202 C201 1.414 . S
C202 C203 1.374 . S
C203 H183 0.950 . S
C203 C199 1.385 . S
C203 C202 1.374 . S
C204 C201 1.499 . S
C204 C205 1.373 . S
C204 C206 1.389 1_455 S
C205 H184 0.950 . S
C205 C204 1.373 . S
C205 C221 1.377 . S
C206 C204 1.389 1_655 S
C206 C207 1.524 . S
C206 C220 1.377 . S
C207 C206 1.524 . S
C207 C208 1.397 . S
C207 C212 1.363 . S
C208 H185 0.950 . S
C208 C207 1.397 . S
C208 C209 1.334 . S
C209 H186 0.950 . S
C209 C208 1.334 . S
C209 C210 1.287 . S
C210 C209 1.287 . S
C210 C211 1.524 . S
C210 H229 0.913 . S
C211 H187 0.950 . S
C211 C210 1.524 . S
C211 C212 1.415 . S
C212 H188 0.950 . S
C212 C207 1.363 . S
C212 C211 1.415 . S
C213 H189 0.951 . S
C213 C214 1.366 . S
C213 C215 1.388 . S
C214 C213 1.366 . S
C214 C218 1.387 1_455 S
C215 H190 0.951 . S
C215 C213 1.388 . S
C215 C216 1.366 . S
C216 C215 1.366 . S
C216 C217 1.415 . S
C216 C219 1.499 . S
C217 H191 0.951 1_455 S
C217 C216 1.415 . S
C217 C218 1.367 1_455 S
C218 H192 0.953 . S
C218 C214 1.387 1_655 S
C218 C217 1.367 1_655 S
C219 C216 1.499 . S
C219 C220 1.373 1_455 S
C219 C221 1.389 . S
C220 H193 0.950 . S
C220 C206 1.377 . S
C220 C219 1.373 1_655 S
C221 C205 1.377 . S
C221 C219 1.389 . S
C221 C222 1.524 . S
C222 C221 1.524 . S
C222 C223 1.397 . S
C222 C227 1.363 . S
C223 H194 0.950 . S
C223 C222 1.397 . S
C223 C224 1.334 . S
C224 H195 0.950 . S
C224 C223 1.334 . S
C224 C225 1.287 . S
C225 C224 1.287 . S
C225 C226 1.524 . S
C225 H228 0.999 . S
C226 H196 0.950 . S
C226 C225 1.524 . S
C226 C227 1.415 . S
C227 H197 0.950 . S
C227 C222 1.363 . S
C227 C226 1.415 . S
H228 C225 0.999 . S
H229 C210 0.913 . S
H230 C248 0.951 . S
H231 C250 0.951 . S
H232 C252 0.950 . S
H233 C253 0.950 . S
H234 C255 0.950 . S
H235 C258 0.950 1_565 S
H236 C259 0.950 . S
H237 C261 0.950 . S
H238 C262 0.950 . S
H239 C263 0.951 . S
H240 C265 0.951 . S
H241 C267 0.950 . S
H242 C268 0.950 . S
H243 C270 0.950 . S
H244 C273 0.950 . S
H245 C274 0.950 . S
H246 C276 0.950 . S
H247 C277 0.950 . S
C248 H230 0.951 . S
C248 C249 1.366 . S
C248 C250 1.388 . S
C249 C248 1.366 . S
C249 C253 1.385 1_545 S
C250 H231 0.951 . S
C250 C248 1.388 . S
C250 C251 1.366 . S
C251 C250 1.366 . S
C251 C252 1.414 1_545 S
C251 C254 1.499 . S
C252 H232 0.950 . S
C252 C251 1.414 1_565 S
C252 C253 1.374 . S
C253 H233 0.950 . S
C253 C249 1.385 1_565 S
C253 C252 1.374 . S
C254 C251 1.499 . S
C254 C255 1.373 . S
C254 C256 1.389 . S
C255 H234 0.950 . S
C255 C254 1.373 . S
C255 C271 1.377 . S
C256 C254 1.389 . S
C256 C257 1.524 . S
C256 C270 1.377 . S
C257 C256 1.524 . S
C257 C258 1.397 . S
C257 C262 1.363 . S
C258 H235 0.950 1_545 S
C258 C257 1.397 . S
C258 C259 1.334 . S
C259 H236 0.950 . S
C259 C258 1.334 . S
C259 C260 1.287 . S
C260 C259 1.287 . S
C260 C261 1.524 . S
C260 H279 0.913 . S
C261 H237 0.950 . S
C261 C260 1.524 . S
C261 C262 1.415 . S
C262 H238 0.950 . S
C262 C257 1.363 . S
C262 C261 1.415 . S
C263 H239 0.951 . S
C263 C264 1.366 1_565 S
C263 C265 1.388 . S
C264 C263 1.366 1_545 S
C264 C268 1.385 . S
C265 H240 0.951 . S
C265 C263 1.388 . S
C265 C266 1.366 1_565 S
C266 C265 1.366 1_545 S
C266 C267 1.414 . S
C266 C269 1.499 . S
C267 H241 0.950 . S
C267 C266 1.414 . S
C267 C268 1.374 . S
C268 H242 0.950 . S
C268 C264 1.385 . S
C268 C267 1.374 . S
C269 C266 1.499 . S
C269 C270 1.373 . S
C269 C271 1.389 . S
C270 H243 0.950 . S
C270 C256 1.377 . S
C270 C269 1.373 . S
C271 C255 1.377 . S
C271 C269 1.389 . S
C271 C272 1.519 . S
C272 C271 1.519 . S
C272 C273 1.423 . S
C272 C277 1.344 1_545 S
C273 H244 0.950 . S
C273 C272 1.423 . S
C273 C274 1.334 . S
C274 H245 0.950 . S
C274 C273 1.334 . S
C274 C275 1.287 1_545 S
C275 C274 1.287 1_565 S
C275 C276 1.524 . S
C275 H278 0.999 . S
C276 H246 0.950 . S
C276 C275 1.524 . S
C276 C277 1.415 . S
C277 H247 0.950 . S
C277 C272 1.344 1_565 S
C277 C276 1.415 . S
H278 C275 0.999 . S
H279 C260 0.913 . S
H280 C298 0.951 . S
H281 C300 0.951 . S
H282 C302 0.950 . S
H283 C303 0.950 . S
H284 C305 0.950 . S
H285 C308 0.950 . S
H286 C309 0.950 . S
H287 C311 0.950 . S
H288 C312 0.950 . S
H289 C313 0.951 . S
H290 C315 0.951 . S
H291 C317 0.950 . S
H292 C318 0.950 . S
H293 C320 0.950 . S
H294 C323 0.950 . S
H295 C324 0.950 . S
H296 C326 0.950 . S
H297 C327 0.950 . S
C298 H280 0.951 . S
C298 C299 1.366 . S
C298 C300 1.388 . S
C299 C298 1.366 . S
C299 C303 1.385 . S
C300 H281 0.951 . S
C300 C298 1.388 . S
C300 C301 1.366 . S
C301 C300 1.366 . S
C301 C302 1.414 . S
C301 C304 1.499 . S
C302 H282 0.950 . S
C302 C301 1.414 . S
C302 C303 1.374 . S
C303 H283 0.950 . S
C303 C299 1.385 . S
C303 C302 1.374 . S
C304 C301 1.499 . S
C304 C305 1.373 . S
C304 C306 1.389 . S
C305 H284 0.950 . S
C305 C304 1.373 . S
C305 C321 1.377 . S
C306 C304 1.389 . S
C306 C307 1.524 . S
C306 C320 1.377 . S
C307 C306 1.524 . S
C307 C308 1.397 . S
C307 C312 1.363 . S
C308 H285 0.950 . S
C308 C307 1.397 . S
C308 C309 1.334 . S
C309 H286 0.950 . S
C309 C308 1.334 . S
C309 C310 1.287 . S
C310 C309 1.287 . S
C310 C311 1.524 . S
C310 H329 0.913 . S
C311 H287 0.950 . S
C311 C310 1.524 . S
C311 C312 1.415 . S
C312 H288 0.950 . S
C312 C307 1.363 . S
C312 C311 1.415 . S
C313 H289 0.951 . S
C313 C314 1.366 . S
C313 C315 1.388 . S
C314 C313 1.366 . S
C314 C318 1.385 . S
C315 H290 0.951 . S
C315 C313 1.388 . S
C315 C316 1.366 . S
C316 C315 1.366 . S
C316 C317 1.414 . S
C316 C319 1.499 . S
C317 H291 0.950 . S
C317 C316 1.414 . S
C317 C318 1.374 . S
C318 H292 0.950 . S
C318 C314 1.385 . S
C318 C317 1.374 . S
C319 C316 1.499 . S
C319 C320 1.373 . S
C319 C321 1.389 . S
C320 H293 0.950 . S
C320 C306 1.377 . S
C320 C319 1.373 . S
C321 C305 1.377 . S
C321 C319 1.389 . S
C321 C322 1.524 . S
C322 C321 1.524 . S
C322 C323 1.397 . S
C322 C327 1.363 . S
C323 H294 0.950 . S
C323 C322 1.397 . S
C323 C324 1.334 . S
C324 H295 0.950 . S
C324 C323 1.334 . S
C324 C325 1.287 . S
C325 C324 1.287 . S
C325 C326 1.524 . S
C325 H328 0.999 . S
C326 H296 0.950 . S
C326 C325 1.524 . S
C326 C327 1.415 . S
C327 H297 0.950 . S
C327 C322 1.363 . S
C327 C326 1.415 . S
H328 C325 0.999 . S
H329 C310 0.913 . S
H330 C348 0.951 1_655 S
H331 C350 0.951 1_655 S
H332 C352 0.950 . S
H333 C353 0.950 . S
H334 C355 0.950 . S
H335 C358 0.950 . S
H336 C359 0.950 . S
H337 C361 0.950 . S
H338 C362 0.950 . S
H339 C363 0.951 . S
H340 C365 0.951 . S
H341 C367 0.949 1_655 S
H342 C368 0.950 . S
H343 C370 0.950 . S
H344 C373 0.950 . S
H345 C374 0.950 . S
H346 C376 0.950 . S
H347 C377 0.950 . S
C348 H330 0.951 1_455 S
C348 C349 1.366 . S
C348 C350 1.388 . S
C349 C348 1.366 . S
C349 C353 1.385 . S
C350 H331 0.951 1_455 S
C350 C348 1.388 . S
C350 C351 1.366 . S
C351 C350 1.366 . S
C351 C352 1.414 . S
C351 C354 1.499 . S
C352 H332 0.950 . S
C352 C351 1.414 . S
C352 C353 1.374 . S
C353 H333 0.950 . S
C353 C349 1.385 . S
C353 C352 1.374 . S
C354 C351 1.499 . S
C354 C355 1.373 . S
C354 C356 1.389 1_455 S
C355 H334 0.950 . S
C355 C354 1.373 . S
C355 C371 1.377 . S
C356 C354 1.389 1_655 S
C356 C357 1.524 . S
C356 C370 1.377 . S
C357 C356 1.524 . S
C357 C358 1.397 . S
C357 C362 1.363 . S
C358 H335 0.950 . S
C358 C357 1.397 . S
C358 C359 1.334 . S
C359 H336 0.950 . S
C359 C358 1.334 . S
C359 C360 1.287 . S
C360 C359 1.287 . S
C360 C361 1.524 . S
C360 H379 0.913 . S
C361 H337 0.950 . S
C361 C360 1.524 . S
C361 C362 1.415 . S
C362 H338 0.950 . S
C362 C357 1.363 . S
C362 C361 1.415 . S
C363 H339 0.951 . S
C363 C364 1.366 . S
C363 C365 1.388 . S
C364 C363 1.366 . S
C364 C368 1.385 1_455 S
C365 H340 0.951 . S
C365 C363 1.388 . S
C365 C366 1.366 . S
C366 C365 1.366 . S
C366 C367 1.413 . S
C366 C369 1.499 . S
C367 H341 0.949 1_455 S
C367 C366 1.413 . S
C367 C368 1.375 1_455 S
C368 H342 0.950 . S
C368 C364 1.385 1_655 S
C368 C367 1.375 1_655 S
C369 C366 1.499 . S
C369 C370 1.373 1_455 S
C369 C371 1.389 . S
C370 H343 0.950 . S
C370 C356 1.377 . S
C370 C369 1.373 1_655 S
C371 C355 1.377 . S
C371 C369 1.389 . S
C371 C372 1.524 . S
C372 C371 1.524 . S
C372 C373 1.397 . S
C372 C377 1.363 . S
C373 H344 0.950 . S
C373 C372 1.397 . S
C373 C374 1.334 . S
C374 H345 0.950 . S
C374 C373 1.334 . S
C374 C375 1.287 . S
C375 C374 1.287 . S
C375 C376 1.524 . S
C375 H378 0.999 . S
C376 H346 0.950 . S
C376 C375 1.524 . S
C376 C377 1.415 . S
C377 H347 0.950 . S
C377 C372 1.363 . S
C377 C376 1.415 . S
H378 C375 0.999 . S
H379 C360 0.913 . S
H380 C398 0.951 . S
H381 C400 0.951 . S
H382 C402 0.950 . S
H383 C403 0.950 . S
H384 C405 0.950 1_565 S
H385 C408 0.950 . S
H386 C409 0.950 . S
H387 C411 0.950 . S
H388 C412 0.950 . S
H389 C413 0.951 . S
H390 C415 0.951 . S
H391 C417 0.950 . S
H392 C418 0.950 . S
H393 C420 0.950 . S
H394 C423 0.950 . S
H395 C424 0.950 . S
H396 C426 0.950 . S
H397 C427 0.950 . S
C398 H380 0.951 . S
C398 C399 1.366 . S
C398 C400 1.388 . S
C399 C398 1.366 . S
C399 C403 1.385 . S
C400 H381 0.951 . S
C400 C398 1.388 . S
C400 C401 1.366 . S
C401 C400 1.366 . S
C401 C402 1.414 . S
C401 C404 1.499 . S
C402 H382 0.950 . S
C402 C401 1.414 . S
C402 C403 1.374 . S
C403 H383 0.950 . S
C403 C399 1.385 . S
C403 C402 1.374 . S
C404 C401 1.499 . S
C404 C405 1.373 . S
C404 C406 1.389 . S
C405 H384 0.950 1_545 S
C405 C404 1.373 . S
C405 C421 1.365 1_545 S
C406 C404 1.389 . S
C406 C407 1.524 . S
C406 C420 1.377 . S
C407 C406 1.524 . S
C407 C408 1.397 . S
C407 C412 1.363 . S
C408 H385 0.950 . S
C408 C407 1.397 . S
C408 C409 1.334 . S
C409 H386 0.950 . S
C409 C408 1.334 . S
C409 C410 1.287 . S
C410 C409 1.287 . S
C410 C411 1.524 . S
C410 H429 0.913 . S
C411 H387 0.950 . S
C411 C410 1.524 . S
C411 C412 1.415 . S
C412 H388 0.950 . S
C412 C407 1.363 . S
C412 C411 1.415 . S
C413 H389 0.951 . S
C413 C414 1.366 . S
C413 C415 1.388 . S
C414 C413 1.366 . S
C414 C418 1.385 . S
C415 H390 0.951 . S
C415 C413 1.388 . S
C415 C416 1.366 . S
C416 C415 1.366 . S
C416 C417 1.414 . S
C416 C419 1.499 . S
C417 H391 0.950 . S
C417 C416 1.414 . S
C417 C418 1.374 . S
C418 H392 0.950 . S
C418 C414 1.385 . S
C418 C417 1.374 . S
C419 C416 1.499 . S
C419 C420 1.373 . S
C419 C421 1.378 1_545 S
C420 H393 0.950 . S
C420 C406 1.377 . S
C420 C419 1.373 . S
C421 C405 1.365 1_565 S
C421 C419 1.378 1_565 S
C421 C422 1.548 . S
C422 C421 1.548 . S
C422 C423 1.397 . S
C422 C427 1.363 . S
C423 H394 0.950 . S
C423 C422 1.397 . S
C423 C424 1.334 . S
C424 H395 0.950 . S
C424 C423 1.334 . S
C424 C425 1.287 . S
C425 C424 1.287 . S
C425 C426 1.524 . S
C425 H428 0.999 . S
C426 H396 0.950 . S
C426 C425 1.524 . S
C426 C427 1.415 . S
C427 H397 0.950 . S
C427 C422 1.363 . S
C427 C426 1.415 . S
H428 C425 0.999 . S
H429 C410 0.913 . S
H430 C448 0.951 . S
H431 C450 0.951 . S
H432 C452 0.950 . S
H433 C453 0.950 . S
H434 C455 0.950 . S
H435 C458 0.950 . S
H436 C459 0.950 . S
H437 C461 0.950 . S
H438 C462 0.950 . S
H439 C463 0.951 . S
H440 C465 0.951 . S
H441 C467 0.950 . S
H442 C468 0.950 . S
H443 C470 0.950 . S
H444 C473 0.950 . S
H445 C474 0.950 . S
H446 C476 0.950 . S
H447 C477 0.950 . S
C448 H430 0.951 . S
C448 C449 1.366 . S
C448 C450 1.388 . S
C449 C448 1.366 . S
C449 C453 1.385 . S
C450 H431 0.951 . S
C450 C448 1.388 . S
C450 C451 1.366 . S
C451 C450 1.366 . S
C451 C452 1.414 . S
C451 C454 1.499 . S
C452 H432 0.950 . S
C452 C451 1.414 . S
C452 C453 1.374 . S
C453 H433 0.950 . S
C453 C449 1.385 . S
C453 C452 1.374 . S
C454 C451 1.499 . S
C454 C455 1.373 . S
C454 C456 1.389 . S
C455 H434 0.950 . S
C455 C454 1.373 . S
C455 C471 1.377 . S
C456 C454 1.389 . S
C456 C457 1.524 . S
C456 C470 1.377 . S
C457 C456 1.524 . S
C457 C458 1.397 . S
C457 C462 1.363 . S
C458 H435 0.950 . S
C458 C457 1.397 . S
C458 C459 1.334 . S
C459 H436 0.950 . S
C459 C458 1.334 . S
C459 C460 1.287 . S
C460 C459 1.287 . S
C460 C461 1.524 . S
C460 H479 0.913 . S
C461 H437 0.950 . S
C461 C460 1.524 . S
C461 C462 1.415 . S
C462 H438 0.950 . S
C462 C457 1.363 . S
C462 C461 1.415 . S
C463 H439 0.951 . S
C463 C464 1.366 . S
C463 C465 1.388 . S
C464 C463 1.366 . S
C464 C468 1.385 . S
C465 H440 0.951 . S
C465 C463 1.388 . S
C465 C466 1.366 . S
C466 C465 1.366 . S
C466 C467 1.414 . S
C466 C469 1.499 . S
C467 H441 0.950 . S
C467 C466 1.414 . S
C467 C468 1.374 . S
C468 H442 0.950 . S
C468 C464 1.385 . S
C468 C467 1.374 . S
C469 C466 1.499 . S
C469 C470 1.373 . S
C469 C471 1.389 . S
C470 H443 0.950 . S
C470 C456 1.377 . S
C470 C469 1.373 . S
C471 C455 1.377 . S
C471 C469 1.389 . S
C471 C472 1.524 . S
C472 C471 1.524 . S
C472 C473 1.397 . S
C472 C477 1.363 . S
C473 H444 0.950 . S
C473 C472 1.397 . S
C473 C474 1.334 . S
C474 H445 0.950 . S
C474 C473 1.334 . S
C474 C475 1.287 . S
C475 C474 1.287 . S
C475 C476 1.524 . S
C475 H478 0.999 . S
C476 H446 0.950 . S
C476 C475 1.524 . S
C476 C477 1.415 . S
C477 H447 0.950 . S
C477 C472 1.363 . S
C477 C476 1.415 . S
H478 C475 0.999 . S
H479 C460 0.913 . S
H480 C498 0.951 . S
H481 C500 0.951 . S
H482 C502 0.950 . S
H483 C503 0.950 . S
H484 C505 0.950 . S
H485 C508 0.950 . S
H486 C509 0.950 . S
H487 C511 0.950 . S
H488 C512 0.950 . S
H489 C513 0.951 . S
H490 C515 0.951 . S
H491 C517 0.950 . S
H492 C518 0.950 . S
H493 C520 0.950 . S
H494 C523 0.950 . S
H495 C524 0.950 . S
H496 C526 0.950 . S
H497 C527 0.950 . S
C498 H480 0.951 . S
C498 C499 1.366 1_565 S
C498 C500 1.388 . S
C499 C498 1.366 1_545 S
C499 C503 1.385 . S
C500 H481 0.951 . S
C500 C498 1.388 . S
C500 C501 1.366 1_565 S
C501 C500 1.366 1_545 S
C501 C502 1.414 . S
C501 C504 1.499 . S
C502 H482 0.950 . S
C502 C501 1.414 . S
C502 C503 1.374 . S
C503 H483 0.950 . S
C503 C499 1.385 . S
C503 C502 1.374 . S
C504 C501 1.499 . S
C504 C505 1.373 . S
C504 C506 1.389 1_545 S
C505 H484 0.950 . S
C505 C504 1.373 . S
C505 C521 1.377 . S
C506 C504 1.389 1_565 S
C506 C507 1.524 . S
C506 C520 1.377 . S
C507 C506 1.524 . S
C507 C508 1.397 . S
C507 C512 1.363 . S
C508 H485 0.950 . S
C508 C507 1.397 . S
C508 C509 1.334 . S
C509 H486 0.950 . S
C509 C508 1.334 . S
C509 C510 1.287 . S
C510 C509 1.287 . S
C510 C511 1.524 . S
C510 H529 0.913 . S
C511 H487 0.950 . S
C511 C510 1.524 . S
C511 C512 1.415 . S
C512 H488 0.950 . S
C512 C507 1.363 . S
C512 C511 1.415 . S
C513 H489 0.951 . S
C513 C514 1.366 . S
C513 C515 1.388 . S
C514 C513 1.366 . S
C514 C518 1.385 1_545 S
C515 H490 0.951 . S
C515 C513 1.388 . S
C515 C516 1.366 . S
C516 C515 1.366 . S
C516 C517 1.414 1_545 S
C516 C519 1.499 . S
C517 H491 0.950 . S
C517 C516 1.414 1_565 S
C517 C518 1.374 . S
C518 H492 0.950 . S
C518 C514 1.385 1_565 S
C518 C517 1.374 . S
C519 C516 1.499 . S
C519 C520 1.373 1_545 S
C519 C521 1.389 . S
C520 H493 0.950 . S
C520 C506 1.377 . S
C520 C519 1.373 1_565 S
C521 C505 1.377 . S
C521 C519 1.389 . S
C521 C522 1.524 . S
C522 C521 1.524 . S
C522 C523 1.397 . S
C522 C527 1.363 . S
C523 H494 0.950 . S
C523 C522 1.397 . S
C523 C524 1.334 . S
C524 H495 0.950 . S
C524 C523 1.334 . S
C524 C525 1.287 . S
C525 C524 1.287 . S
C525 C526 1.524 . S
C525 H528 0.999 . S
C526 H496 0.950 . S
C526 C525 1.524 . S
C526 C527 1.415 . S
C527 H497 0.950 . S
C527 C522 1.363 . S
C527 C526 1.415 . S
H528 C525 0.999 . S
H529 C510 0.913 . S
H530 C548 0.951 . S
H531 C550 0.951 . S
H532 C552 0.950 . S
H533 C553 0.950 . S
H534 C555 0.950 . S
H535 C558 0.950 . S
H536 C559 0.950 . S
H537 C561 0.950 . S
H538 C562 0.938 1_556 S
H539 C563 0.951 . S
H540 C565 0.951 . S
H541 C567 0.950 . S
H542 C568 0.950 . S
H543 C570 0.950 . S
H544 C573 0.950 . S
H545 C574 0.950 . S
H546 C576 0.950 . S
H547 C577 0.950 . S
C548 H530 0.951 . S
C548 C549 1.366 . S
C548 C550 1.388 . S
C549 C548 1.366 . S
C549 C553 1.385 . S
C550 H531 0.951 . S
C550 C548 1.388 . S
C550 C551 1.366 . S
C551 C550 1.366 . S
C551 C552 1.414 . S
C551 C554 1.499 1_554 S
C552 H532 0.950 . S
C552 C551 1.414 . S
C552 C553 1.374 . S
C553 H533 0.950 . S
C553 C549 1.385 . S
C553 C552 1.374 . S
C554 C551 1.499 1_556 S
C554 C555 1.373 . S
C554 C556 1.389 . S
C555 H534 0.950 . S
C555 C554 1.373 . S
C555 C571 1.377 . S
C556 C554 1.389 . S
C556 C557 1.524 1_556 S
C556 C570 1.377 . S
C557 C556 1.524 1_554 S
C557 C558 1.397 . S
C557 C562 1.363 . S
C558 H535 0.950 . S
C558 C557 1.397 . S
C558 C559 1.334 . S
C559 H536 0.950 . S
C559 C558 1.334 . S
C559 C560 1.287 . S
C560 C559 1.287 . S
C560 C561 1.524 . S
C560 H579 0.913 . S
C561 H537 0.950 . S
C561 C560 1.524 . S
C561 C562 1.415 . S
C562 H538 0.938 1_554 S
C562 C557 1.363 . S
C562 C561 1.415 . S
C563 H539 0.951 . S
C563 C564 1.366 . S
C563 C565 1.388 . S
C564 C563 1.366 . S
C564 C568 1.385 . S
C565 H540 0.951 . S
C565 C563 1.388 . S
C565 C566 1.366 . S
C566 C565 1.366 . S
C566 C567 1.414 . S
C566 C569 1.499 . S
C567 H541 0.950 . S
C567 C566 1.414 . S
C567 C568 1.374 . S
C568 H542 0.950 . S
C568 C564 1.385 . S
C568 C567 1.374 . S
C569 C566 1.499 . S
C569 C570 1.373 . S
C569 C571 1.389 . S
C570 H543 0.950 . S
C570 C556 1.377 . S
C570 C569 1.373 . S
C571 C555 1.377 . S
C571 C569 1.389 . S
C571 C572 1.524 . S
C572 C571 1.524 . S
C572 C573 1.397 . S
C572 C577 1.363 . S
C573 H544 0.950 . S
C573 C572 1.397 . S
C573 C574 1.334 . S
C574 H545 0.950 . S
C574 C573 1.334 . S
C574 C575 1.287 . S
C575 C574 1.287 . S
C575 C576 1.524 . S
C575 H578 0.999 . S
C576 H546 0.950 . S
C576 C575 1.524 . S
C576 C577 1.415 . S
C577 H547 0.950 . S
C577 C572 1.363 . S
C577 C576 1.415 . S
H578 C575 0.999 . S
H579 C560 0.913 . S
H580 C598 0.951 . S
H581 C600 0.951 . S
H582 C602 0.950 . S
H583 C603 0.950 . S
H584 C605 0.950 . S
H585 C608 0.950 . S
H586 C609 0.950 . S
H587 C611 0.950 . S
H588 C612 0.950 . S
H589 C613 0.951 . S
H590 C615 0.951 . S
H591 C617 0.950 . S
H592 C618 0.950 . S
H593 C620 0.950 . S
H594 C623 0.950 . S
H595 C624 0.950 . S
H596 C626 0.950 . S
H597 C627 0.950 . S
C598 H580 0.951 . S
C598 C599 1.366 1_655 S
C598 C600 1.388 . S
C599 C598 1.366 1_455 S
C599 C603 1.385 . S
C600 H581 0.951 . S
C600 C598 1.388 . S
C600 C601 1.366 1_655 S
C601 C600 1.366 1_455 S
C601 C602 1.414 . S
C601 C604 1.499 . S
C602 H582 0.950 . S
C602 C601 1.414 . S
C602 C603 1.374 . S
C603 H583 0.950 . S
C603 C599 1.385 . S
C603 C602 1.374 . S
C604 C601 1.499 . S
C604 C605 1.373 . S
C604 C606 1.389 1_455 S
C605 H584 0.950 . S
C605 C604 1.373 . S
C605 C621 1.377 . S
C606 C604 1.389 1_655 S
C606 C607 1.524 . S
C606 C620 1.377 . S
C607 C606 1.524 . S
C607 C608 1.397 . S
C607 C612 1.363 . S
C608 H585 0.950 . S
C608 C607 1.397 . S
C608 C609 1.334 . S
C609 H586 0.950 . S
C609 C608 1.334 . S
C609 C610 1.287 . S
C610 C609 1.287 . S
C610 C611 1.524 . S
C610 H629 0.913 . S
C611 H587 0.950 . S
C611 C610 1.524 . S
C611 C612 1.415 . S
C612 H588 0.950 . S
C612 C607 1.363 . S
C612 C611 1.415 . S
C613 H589 0.951 . S
C613 C614 1.366 . S
C613 C615 1.388 . S
C614 C613 1.366 . S
C614 C618 1.385 1_455 S
C615 H590 0.951 . S
C615 C613 1.388 . S
C615 C616 1.366 . S
C616 C615 1.366 . S
C616 C617 1.414 1_455 S
C616 C619 1.499 . S
C617 H591 0.950 . S
C617 C616 1.414 1_655 S
C617 C618 1.374 . S
C618 H592 0.950 . S
C618 C614 1.385 1_655 S
C618 C617 1.374 . S
C619 C616 1.499 . S
C619 C620 1.373 1_455 S
C619 C621 1.389 . S
C620 H593 0.950 . S
C620 C606 1.377 . S
C620 C619 1.373 1_655 S
C621 C605 1.377 . S
C621 C619 1.389 . S
C621 C622 1.524 . S
C622 C621 1.524 . S
C622 C623 1.397 . S
C622 C627 1.363 . S
C623 H594 0.950 . S
C623 C622 1.397 . S
C623 C624 1.334 . S
C624 H595 0.950 . S
C624 C623 1.334 . S
C624 C625 1.287 . S
C625 C624 1.287 . S
C625 C626 1.524 . S
C625 H628 0.999 . S
C626 H596 0.950 . S
C626 C625 1.524 . S
C626 C627 1.415 . S
C627 H597 0.950 . S
C627 C622 1.363 . S
C627 C626 1.415 . S
H628 C625 0.999 . S
H629 C610 0.913 . S
H630 C648 0.951 . S
H631 C650 0.951 . S
H632 C652 0.950 . S
H633 C653 0.950 . S
H634 C655 0.950 . S
H635 C658 0.950 1_545 S
H636 C659 0.950 . S
H637 C661 0.950 . S
H638 C662 0.950 . S
H639 C663 0.951 . S
H640 C665 0.951 . S
H641 C667 0.950 . S
H642 C668 0.950 . S
H643 C670 0.950 . S
H644 C673 0.950 . S
H645 C674 0.950 . S
H646 C676 0.950 . S
H647 C677 0.950 . S
C648 H630 0.951 . S
C648 C649 1.366 1_565 S
C648 C650 1.388 . S
C649 C648 1.366 1_545 S
C649 C653 1.385 . S
C650 H631 0.951 . S
C650 C648 1.388 . S
C650 C651 1.366 1_565 S
C651 C650 1.366 1_545 S
C651 C652 1.414 . S
C651 C654 1.499 . S
C652 H632 0.950 . S
C652 C651 1.414 . S
C652 C653 1.374 . S
C653 H633 0.950 . S
C653 C649 1.385 . S
C653 C652 1.374 . S
C654 C651 1.499 . S
C654 C655 1.373 . S
C654 C656 1.389 1_545 S
C655 H634 0.950 . S
C655 C654 1.373 . S
C655 C671 1.377 . S
C656 C654 1.389 1_565 S
C656 C657 1.524 . S
C656 C670 1.377 . S
C657 C656 1.524 . S
C657 C658 1.397 . S
C657 C662 1.363 . S
C658 H635 0.950 1_565 S
C658 C657 1.397 . S
C658 C659 1.334 . S
C659 H636 0.950 . S
C659 C658 1.334 . S
C659 C660 1.287 . S
C660 C659 1.287 . S
C660 C661 1.524 . S
C660 H679 0.913 . S
C661 H637 0.950 . S
C661 C660 1.524 . S
C661 C662 1.415 . S
C662 H638 0.950 . S
C662 C657 1.363 . S
C662 C661 1.415 . S
C663 H639 0.951 . S
C663 C664 1.366 . S
C663 C665 1.388 . S
C664 C663 1.366 . S
C664 C668 1.385 1_545 S
C665 H640 0.951 . S
C665 C663 1.388 . S
C665 C666 1.366 . S
C666 C665 1.366 . S
C666 C667 1.414 1_545 S
C666 C669 1.499 . S
C667 H641 0.950 . S
C667 C666 1.414 1_565 S
C667 C668 1.374 . S
C668 H642 0.950 . S
C668 C664 1.385 1_565 S
C668 C667 1.374 . S
C669 C666 1.499 . S
C669 C670 1.373 1_545 S
C669 C671 1.389 . S
C670 H643 0.950 . S
C670 C656 1.377 . S
C670 C669 1.373 1_565 S
C671 C655 1.377 . S
C671 C669 1.389 . S
C671 C672 1.524 . S
C672 C671 1.524 . S
C672 C673 1.397 . S
C672 C677 1.363 . S
C673 H644 0.950 . S
C673 C672 1.397 . S
C673 C674 1.334 . S
C674 H645 0.950 . S
C674 C673 1.334 . S
C674 C675 1.287 . S
C675 C674 1.287 . S
C675 C676 1.524 . S
C675 H678 0.999 . S
C676 H646 0.950 . S
C676 C675 1.524 . S
C676 C677 1.415 . S
C677 H647 0.950 . S
C677 C672 1.363 . S
C677 C676 1.415 . S
H678 C675 0.999 . S
H679 C660 0.913 . S
H680 C698 0.951 . S
H681 C700 0.951 . S
H682 C702 0.950 . S
H683 C703 0.950 . S
H684 C705 0.950 . S
H685 C708 0.950 . S
H686 C709 0.950 . S
H687 C711 0.950 . S
H688 C712 0.950 . S
H689 C713 0.951 . S
H690 C715 0.951 . S
H691 C717 0.950 . S
H692 C718 0.950 . S
H693 C720 0.950 . S
H694 C723 0.950 . S
H695 C724 0.950 . S
H696 C726 0.950 . S
H697 C727 0.950 . S
C698 H680 0.951 . S
C698 C699 1.366 . S
C698 C700 1.388 . S
C699 C698 1.366 . S
C699 C703 1.385 . S
C700 H681 0.951 . S
C700 C698 1.388 . S
C700 C701 1.366 . S
C701 C700 1.366 . S
C701 C702 1.414 . S
C701 C704 1.499 1_554 S
C702 H682 0.950 . S
C702 C701 1.414 . S
C702 C703 1.374 . S
C703 H683 0.950 . S
C703 C699 1.385 . S
C703 C702 1.374 . S
C704 C701 1.499 1_556 S
C704 C705 1.373 . S
C704 C706 1.391 . S
C705 H684 0.950 . S
C705 C704 1.373 . S
C705 C721 1.377 . S
C706 C704 1.391 . S
C706 C707 1.518 1_556 S
C706 C720 1.381 . S
C707 C706 1.518 1_554 S
C707 C708 1.397 . S
C707 C712 1.363 . S
C708 H685 0.950 . S
C708 C707 1.397 . S
C708 C709 1.334 . S
C709 H686 0.950 . S
C709 C708 1.334 . S
C709 C710 1.287 . S
C710 C709 1.287 . S
C710 C711 1.524 . S
C710 H729 0.913 . S
C711 H687 0.950 . S
C711 C710 1.524 . S
C711 C712 1.415 . S
C712 H688 0.950 . S
C712 C707 1.363 . S
C712 C711 1.415 . S
C713 H689 0.951 . S
C713 C714 1.366 . S
C713 C715 1.388 . S
C714 C713 1.366 . S
C714 C718 1.385 . S
C715 H690 0.951 . S
C715 C713 1.388 . S
C715 C716 1.366 . S
C716 C715 1.366 . S
C716 C717 1.414 . S
C716 C719 1.499 . S
C717 H691 0.950 . S
C717 C716 1.414 . S
C717 C718 1.374 . S
C718 H692 0.950 . S
C718 C714 1.385 . S
C718 C717 1.374 . S
C719 C716 1.499 . S
C719 C720 1.373 . S
C719 C721 1.389 . S
C720 H693 0.950 . S
C720 C706 1.381 . S
C720 C719 1.373 . S
C721 C705 1.377 . S
C721 C719 1.389 . S
C721 C722 1.524 . S
C722 C721 1.524 . S
C722 C723 1.397 . S
C722 C727 1.363 . S
C723 H694 0.950 . S
C723 C722 1.397 . S
C723 C724 1.334 . S
C724 H695 0.950 . S
C724 C723 1.334 . S
C724 C725 1.287 . S
C725 C724 1.287 . S
C725 C726 1.524 . S
C725 H728 0.999 . S
C726 H696 0.950 . S
C726 C725 1.524 . S
C726 C727 1.415 . S
C727 H697 0.950 . S
C727 C722 1.363 . S
C727 C726 1.415 . S
H728 C725 0.999 . S
H729 C710 0.913 . S
H730 C748 0.951 . S
H731 C750 0.951 . S
H732 C752 0.950 1_655 S
H733 C753 0.950 1_655 S
H734 C755 0.950 . S
H735 C758 0.950 . S
H736 C759 0.950 . S
H737 C761 0.950 . S
H738 C762 0.950 . S
H739 C763 0.951 . S
H740 C765 0.951 . S
H741 C767 0.950 . S
H742 C768 0.950 . S
H743 C770 0.950 . S
H744 C773 0.950 . S
H745 C774 0.950 . S
H746 C776 0.950 . S
H747 C777 0.950 . S
C748 H730 0.951 . S
C748 C749 1.366 . S
C748 C750 1.388 . S
C749 C748 1.366 . S
C749 C753 1.385 . S
C750 H731 0.951 . S
C750 C748 1.388 . S
C750 C751 1.366 . S
C751 C750 1.366 . S
C751 C752 1.414 . S
C751 C754 1.499 . S
C752 H732 0.950 1_455 S
C752 C751 1.414 . S
C752 C753 1.374 . S
C753 H733 0.950 1_455 S
C753 C749 1.385 . S
C753 C752 1.374 . S
C754 C751 1.499 . S
C754 C755 1.373 1_455 S
C754 C756 1.389 . S
C755 H734 0.950 . S
C755 C754 1.373 1_655 S
C755 C771 1.377 . S
C756 C754 1.389 . S
C756 C757 1.524 . S
C756 C770 1.377 . S
C757 C756 1.524 . S
C757 C758 1.397 . S
C757 C762 1.363 . S
C758 H735 0.950 . S
C758 C757 1.397 . S
C758 C759 1.334 . S
C759 H736 0.950 . S
C759 C758 1.334 . S
C759 C760 1.287 . S
C760 C759 1.287 . S
C760 C761 1.524 . S
C760 H779 0.913 . S
C761 H737 0.950 . S
C761 C760 1.524 . S
C761 C762 1.415 . S
C762 H738 0.950 . S
C762 C757 1.363 . S
C762 C761 1.415 . S
C763 H739 0.951 . S
C763 C764 1.366 1_655 S
C763 C765 1.388 . S
C764 C763 1.366 1_455 S
C764 C768 1.385 . S
C765 H740 0.951 . S
C765 C763 1.388 . S
C765 C766 1.366 1_655 S
C766 C765 1.366 1_455 S
C766 C767 1.414 . S
C766 C769 1.499 . S
C767 H741 0.950 . S
C767 C766 1.414 . S
C767 C768 1.374 . S
C768 H742 0.950 . S
C768 C764 1.385 . S
C768 C767 1.374 . S
C769 C766 1.499 . S
C769 C770 1.373 . S
C769 C771 1.389 1_455 S
C770 H743 0.950 . S
C770 C756 1.377 . S
C770 C769 1.373 . S
C771 C755 1.377 . S
C771 C769 1.389 1_655 S
C771 C772 1.524 . S
C772 C771 1.524 . S
C772 C773 1.397 . S
C772 C777 1.363 . S
C773 H744 0.950 . S
C773 C772 1.397 . S
C773 C774 1.334 . S
C774 H745 0.950 . S
C774 C773 1.334 . S
C774 C775 1.287 . S
C775 C774 1.287 . S
C775 C776 1.524 . S
C775 H778 0.999 . S
C776 H746 0.950 . S
C776 C775 1.524 . S
C776 C777 1.415 . S
C777 H747 0.950 . S
C777 C772 1.363 . S
C777 C776 1.415 . S
H778 C775 0.999 . S
H779 C760 0.913 . S
C214 C50 1.494 . S
C199 C3 1.491 . S
C249 C21 1.511 . S
C264 C89 1.531 . S
C299 C37 1.489 . S
C314 C156 1.510 . S
C349 C8 1.499 . S
C364 C57 1.499 . S
C414 C110 1.516 . S
C399 C23 1.496 . S
C449 C35 1.488 . S
C464 C135 1.511 . S
C514 C96 1.483 . S
C499 C31 1.480 . S
C549 C7 1.488 . S
C564 C149 1.509 . S
C614 C64 1.495 . S
C599 C17 1.492 . S
C664 C103 1.472 . S
C649 C36 1.472 . S
C714 C142 1.509 . S
C699 C9 1.489 . S
C749 C22 1.500 . S
C764 C43 1.499 . S
