# Generated by pormake.
# Topology zzz, (3,6)-cn, num edge types: 1
# Building blocks:
#     Node 0, Type 0, BuildingBlock: ESEHIV_clean_linker_0, # of connection points: 3
#     Node 1, Type 0, BuildingBlock: ESEHIV_clean_linker_0, # of connection points: 3
#     Node 2, Type 0, BuildingBlock: ESEHIV_clean_linker_0, # of connection points: 3
#     Node 3, Type 0, BuildingBlock: ESEHIV_clean_linker_0, # of connection points: 3
#     Node 4, Type 0, BuildingBlock: ESEHIV_clean_linker_0, # of connection points: 3
#     Node 5, Type 0, BuildingBlock: ESEHIV_clean_linker_0, # of connection points: 3
#     Node 6, Type 0, BuildingBlock: ESEHIV_clean_linker_0, # of connection points: 3
#     Node 7, Type 0, BuildingBlock: ESEHIV_clean_linker_0, # of connection points: 3
#     Node 8, Type 1, BuildingBlock: BETDEL_clean_sbu_0, # of connection points: 6
#     Node 9, Type 1, BuildingBlock: BETDEL_clean_sbu_0, # of connection points: 6
#     Node 10, Type 1, BuildingBlock: BETDEL_clean_sbu_0, # of connection points: 6
#     Node 11, Type 1, BuildingBlock: BETDEL_clean_sbu_0, # of connection points: 6
#     Edge 12, Type (0, 1), BuildingBlock: ZUJKAS_clean_linker_0, # of connection points: 2
#     Edge 13, Type (0, 1), BuildingBlock: ZUJKAS_clean_linker_0, # of connection points: 2
#     Edge 14, Type (0, 1), BuildingBlock: ZUJKAS_clean_linker_0, # of connection points: 2
#     Edge 15, Type (0, 1), BuildingBlock: ZUJKAS_clean_linker_0, # of connection points: 2
#     Edge 16, Type (0, 1), BuildingBlock: ZUJKAS_clean_linker_0, # of connection points: 2
#     Edge 17, Type (0, 1), BuildingBlock: ZUJKAS_clean_linker_0, # of connection points: 2
#     Edge 18, Type (0, 1), BuildingBlock: ZUJKAS_clean_linker_0, # of connection points: 2
#     Edge 19, Type (0, 1), BuildingBlock: ZUJKAS_clean_linker_0, # of connection points: 2
#     Edge 20, Type (0, 1), BuildingBlock: ZUJKAS_clean_linker_0, # of connection points: 2
#     Edge 21, Type (0, 1), BuildingBlock: ZUJKAS_clean_linker_0, # of connection points: 2
#     Edge 22, Type (0, 1), BuildingBlock: ZUJKAS_clean_linker_0, # of connection points: 2
#     Edge 23, Type (0, 1), BuildingBlock: ZUJKAS_clean_linker_0, # of connection points: 2
#     Edge 24, Type (0, 1), BuildingBlock: ZUJKAS_clean_linker_0, # of connection points: 2
#     Edge 25, Type (0, 1), BuildingBlock: ZUJKAS_clean_linker_0, # of connection points: 2
#     Edge 26, Type (0, 1), BuildingBlock: ZUJKAS_clean_linker_0, # of connection points: 2
#     Edge 27, Type (0, 1), BuildingBlock: ZUJKAS_clean_linker_0, # of connection points: 2
#     Edge 28, Type (0, 1), BuildingBlock: ZUJKAS_clean_linker_0, # of connection points: 2
#     Edge 29, Type (0, 1), BuildingBlock: ZUJKAS_clean_linker_0, # of connection points: 2
#     Edge 30, Type (0, 1), BuildingBlock: ZUJKAS_clean_linker_0, # of connection points: 2
#     Edge 31, Type (0, 1), BuildingBlock: ZUJKAS_clean_linker_0, # of connection points: 2
#     Edge 32, Type (0, 1), BuildingBlock: ZUJKAS_clean_linker_0, # of connection points: 2
#     Edge 33, Type (0, 1), BuildingBlock: ZUJKAS_clean_linker_0, # of connection points: 2
#     Edge 34, Type (0, 1), BuildingBlock: ZUJKAS_clean_linker_0, # of connection points: 2
#     Edge 35, Type (0, 1), BuildingBlock: ZUJKAS_clean_linker_0, # of connection points: 2
# Relax obj value: 0.334
# Max RMSD: 0.227
# Mean RMSD: 0.209
data_MOF--net-zzz--node1-BETDEL_clean_sbu_0--node2-ESEHIV_clean_linker_0--edge1-ZUJKAS_clean_linker_0
_symmetry_space_group_name_H-M    P1
_symmetry_Int_Tables_number       1
_symmetry_cell_setting            triclinic
loop_
_symmetry_equiv_pos_as_xyz
'x, y, z'
_cell_length_a     57.585117
_cell_length_b     57.330294
_cell_length_c     20.211807
_cell_angle_alpha  91.214799
_cell_angle_beta   89.277853
_cell_angle_gamma 95.854104
loop_
_atom_site_label
_atom_site_type_symbol
_atom_site_fract_x
_atom_site_fract_y
_atom_site_fract_z
_atom_type_partial_charge
H0 H 0.78687 0.44681 0.11412 0.0
H1 H 0.73579 0.43672 0.96096 0.0
H2 H 0.73133 0.49131 0.10986 0.0
C3 C 0.77054 0.45088 0.09307 0.0
C4 C 0.75964 0.46965 0.12012 0.0
C5 C 0.76236 0.43921 0.0352 0.0
C6 C 0.7419 0.44545 0.00655 0.0
C7 C 0.73017 0.46388 0.03372 0.0
C8 C 0.73953 0.47644 0.08996 0.0
H9 H 0.95911 0.77855 0.14288 0.0
H10 H 0.96088 0.72564 0.99075 0.0
H11 H 0.96099 0.70658 0.19664 0.0
C12 C 0.9587 0.76015 0.12844 0.0
C13 C 0.95929 0.74339 0.17743 0.0
C14 C 0.95954 0.75395 0.06148 0.0
C15 C 0.95993 0.73038 0.04288 0.0
C16 C 0.95985 0.713 0.09115 0.0
C17 C 0.96018 0.71964 0.159 0.0
H18 H 0.71993 0.04355 0.08432 0.0
H19 H 0.77899 0.04535 0.9539 0.0
H20 H 0.77949 0.00843 0.13803 0.0
C21 C 0.73756 0.03922 0.07427 0.0
C22 C 0.74842 0.02561 0.11931 0.0
C23 C 0.74848 0.04637 0.01498 0.0
C24 C 0.77075 0.03996 1.00041 0.0
C25 C 0.78241 0.0266 0.04453 0.0
C26 C 0.77088 0.01891 0.10377 0.0
H27 H 0.57964 0.72431 0.1356 0.0
H28 H 0.55302 0.78916 0.19401 0.0
H29 H 0.56887 0.7748 0.98888 0.0
C30 C 0.57554 0.74174 0.12317 0.0
C31 C 0.57575 0.74804 0.05673 0.0
C32 C 0.56745 0.75629 0.17315 0.0
C33 C 0.56006 0.77809 0.15623 0.0
C34 C 0.5609 0.78497 0.08948 0.0
C35 C 0.56884 0.76987 0.04041 0.0
H36 H 0.22792 0.54695 0.02239 0.0
H37 H 0.27526 0.5418 0.18191 0.0
H38 H 0.28017 0.49846 0.00605 0.0
C39 C 0.24323 0.53999 0.04184 0.0
C40 C 0.25349 0.52251 0.00569 0.0
C41 C 0.25073 0.54673 0.10553 0.0
C42 C 0.26953 0.53664 0.13232 0.0
C43 C 0.28059 0.51955 0.09652 0.0
C44 C 0.27238 0.51228 0.03302 0.0
H45 H 0.06319 0.2269 0.98101 0.0
H46 H 0.06128 0.27963 0.13357 0.0
H47 H 0.05786 0.29834 0.92798 0.0
C48 C 0.06308 0.24522 0.99569 0.0
C49 C 0.06109 0.26183 0.94701 0.0
C50 C 0.06298 0.25146 0.06277 0.0
C51 C 0.06188 0.27496 0.08135 0.0
C52 C 0.06055 0.29226 0.03335 0.0
C53 C 0.0597 0.28548 0.96557 0.0
H54 H 0.29948 0.96726 0.02699 0.0
H55 H 0.24104 0.96483 0.16138 0.0
H56 H 0.23827 0.99993 0.97543 0.0
C57 C 0.28192 0.97141 0.03894 0.0
C58 C 0.27015 0.98411 0.99394 0.0
C59 C 0.27174 0.96464 0.09973 0.0
C60 C 0.2489 0.96966 0.11393 0.0
C61 C 0.23653 0.98214 0.06944 0.0
C62 C 0.24741 0.98985 0.00953 0.0
H63 H 0.45073 0.27604 0.95249 0.0
H64 H 0.47376 0.20779 0.91949 0.0
H65 H 0.44577 0.22703 0.1102 0.0
C66 C 0.45222 0.25848 0.96995 0.0
C67 C 0.44662 0.25323 0.03568 0.0
C68 C 0.4621 0.24241 0.92801 0.0
C69 C 0.46571 0.22013 0.9515 0.0
C70 C 0.45889 0.21404 0.01694 0.0
C71 C 0.44966 0.2309 0.05872 0.0
Dy72 Dy 0.02122 0.99262 0.63247 0.0
C73 C 0.99436 0.04107 0.39816 0.0
C74 C 0.01702 0.9684 0.74627 0.0
Dy75 Dy 1.00029 0.01377 0.50388 0.0
O76 O 0.03635 0.98013 0.72622 0.0
O77 O 1.00039 0.97024 0.70466 0.0
O78 O 0.05731 0.98782 0.59039 0.0
O79 O 0.03217 0.00093 0.53362 0.0
C80 C 0.05282 0.99558 0.5322 0.0
C81 C 0.9702 0.00292 0.60392 0.0
O82 O 0.99774 0.97598 0.47201 0.0
O83 O 0.00517 0.96101 0.57542 0.0
O84 O 0.98405 0.04277 0.45528 0.0
O85 O 0.00718 0.02368 0.39798 0.0
O86 O 0.96413 0.00201 0.54196 0.0
O87 O 0.9913 0.01119 0.60857 0.0
O88 O 0.02718 0.03085 0.65906 0.0
O89 O 0.02145 0.04456 0.55286 0.0
C90 C 0.99901 0.95816 0.51239 0.0
C91 C 0.02796 0.04805 0.61559 0.0
Dy92 Dy 0.49235 0.98058 0.52182 0.0
C93 C 0.56506 0.04687 0.61963 0.0
C94 C 0.45441 0.94999 0.49148 0.0
Dy95 Dy 0.52649 0.01715 0.58991 0.0
O96 O 0.47245 0.95471 0.4531 0.0
O97 O 0.4572 0.96187 0.54664 0.0
O98 O 0.51815 0.97694 0.4387 0.0
O99 O 0.53013 0.98471 0.53509 0.0
C100 C 0.5363 0.98259 0.47537 0.0
C101 C 0.4826 0.0146 0.63731 0.0
O102 O 0.51986 0.03475 0.49441 0.0
O103 O 0.48591 0.01212 0.46374 0.0
O104 O 0.54402 0.04958 0.64032 0.0
O105 O 0.5649 0.02802 0.58299 0.0
O106 O 0.50089 0.02013 0.67377 0.0
O107 O 0.48862 0.01281 0.57726 0.0
O108 O 0.50039 0.96172 0.61452 0.0
O109 O 0.53121 0.98712 0.65525 0.0
C110 C 0.50143 0.03061 0.4556 0.0
C111 C 0.51714 0.96736 0.6584 0.0
Dy112 Dy 0.50347 0.51062 0.62234 0.0
C113 C 0.50101 0.46612 0.36652 0.0
C114 C 0.50683 0.53682 0.73616 0.0
Dy115 Dy 0.51605 0.48892 0.47898 0.0
O116 O 0.49274 0.5397 0.68796 0.0
O117 O 0.51823 0.51881 0.72334 0.0
O118 O 0.46526 0.50044 0.60068 0.0
O119 O 0.48934 0.50857 0.52374 0.0
C120 C 0.46845 0.50132 0.53667 0.0
C121 C 0.55219 0.49083 0.56309 0.0
O122 O 0.52263 0.52718 0.45705 0.0
O123 O 0.52136 0.54135 0.56679 0.0
O124 O 0.52242 0.47563 0.37495 0.0
O125 O 0.48841 0.46913 0.41898 0.0
O126 O 0.55349 0.48231 0.50275 0.0
O127 O 0.53211 0.49715 0.5714 0.0
O128 O 0.5023 0.47274 0.64749 0.0
O129 O 0.50304 0.45748 0.53921 0.0
C130 C 0.52519 0.54453 0.5022 0.0
C131 C 0.50084 0.45484 0.60432 0.0
Dy132 Dy 0.99333 0.48331 0.61752 0.0
C133 C 0.04698 0.54254 0.4251 0.0
C134 C 0.96635 0.46673 0.72071 0.0
Dy135 Dy 0.01815 0.51881 0.51397 0.0
O136 O 0.98342 0.45631 0.69467 0.0
O137 O 0.9644 0.48635 0.69116 0.0
O138 O 0.99555 0.44974 0.55725 0.0
O139 O 0.00807 0.48189 0.51989 0.0
C140 C 0.00546 0.46031 0.50639 0.0
C141 C 0.99706 0.53758 0.61861 0.0
O142 O 0.9834 0.51122 0.46604 0.0
O143 O 0.96359 0.4943 0.55753 0.0
O144 O 0.04078 0.55088 0.48207 0.0
O145 O 0.03726 0.52124 0.41634 0.0
O146 O 0.99824 0.5467 0.56012 0.0
O147 O 0.00833 0.51983 0.61888 0.0
O148 O 0.02951 0.4879 0.65876 0.0
O149 O 0.04849 0.50656 0.56845 0.0
C150 C 0.96384 0.5031 0.49703 0.0
C151 C 0.04883 0.49615 0.62664 0.0
H152 H 0.19948 0.95104 0.09932 0.0
H153 H 0.16448 0.95892 0.1618 0.0
H154 H 0.18541 0.03322 0.15333 0.0
H155 H 0.22084 0.02522 0.09107 0.0
H156 H 0.17719 0.01925 0.27881 0.0
H157 H 0.10258 0.98299 0.12689 0.0
H158 H 0.12337 0.96202 0.13513 0.0
H159 H 0.13167 0.98899 0.09279 0.0
C160 C 0.19615 0.96909 0.10863 0.0
C161 C 0.21274 0.98753 0.0898 0.0
C162 C 0.17609 0.9736 0.14432 0.0
C163 C 0.17207 0.99669 0.16193 0.0
C164 C 0.18801 0.01526 0.13996 0.0
H165 H 0.04871 0.01742 0.41376 0.0
H166 H 0.07686 0.02049 0.32123 0.0
C167 C 0.20813 0.01072 0.10385 0.0
C168 C 0.15306 0.00091 0.2103 0.0
H169 H 0.09529 0.98555 0.24513 0.0
C170 C 0.1592 0.01225 0.27084 0.0
C171 C 0.12947 0.99204 0.2001 0.0
C172 C 0.12134 0.98106 0.13488 0.0
C173 C 0.14279 0.01378 0.32246 0.0
C174 C 0.11962 0.00334 0.314 0.0
C175 C 0.11312 0.99322 0.25219 0.0
C176 C 0.10235 0.00166 0.36975 0.0
C177 C 0.15053 0.02637 0.38597 0.0
C178 C 0.10705 0.98982 0.42744 0.0
C179 C 0.09093 0.98799 0.47993 0.0
C180 C 0.0696 0.99776 0.47579 0.0
C181 C 0.06479 0.00947 0.41796 0.0
C182 C 0.08095 0.01131 0.36523 0.0
H183 H 0.16588 0.03939 0.37759 0.0
H184 H 0.13624 0.03553 0.40877 0.0
H185 H 0.15569 0.0134 0.42156 0.0
H186 H 0.12317 0.98176 0.4317 0.0
H187 H 0.09514 0.97875 0.5237 0.0
H188 H 0.42806 0.18551 0.08924 0.0
H189 H 0.43621 0.15172 0.15371 0.0
H190 H 0.50633 0.15666 0.0744 0.0
H191 H 0.49831 0.19077 0.00976 0.0
H192 H 0.48061 0.10773 0.08979 0.0
H193 H 0.48233 0.16524 0.31504 0.0
H194 H 0.45712 0.1656 0.26358 0.0
H195 H 0.48535 0.17675 0.23255 0.0
C196 C 0.44512 0.17919 0.08469 0.0
C197 C 0.46264 0.19095 0.045 0.0
C198 C 0.44973 0.15989 0.12154 0.0
C199 C 0.47196 0.15194 0.11955 0.0
C200 C 0.48907 0.1626 0.07666 0.0
H201 H 0.52867 0.07118 0.42685 0.0
H202 H 0.52249 0.09948 0.34185 0.0
C203 C 0.48444 0.18199 0.03956 0.0
C204 C 0.47771 0.13388 0.16653 0.0
H205 H 0.4841 0.12476 0.33146 0.0
C206 C 0.48148 0.11141 0.1426 0.0
C207 C 0.47906 0.13885 0.23531 0.0
C208 C 0.47595 0.16295 0.26343 0.0
C209 C 0.48608 0.09359 0.18605 0.0
C210 C 0.48673 0.0984 0.25507 0.0
C211 C 0.48344 0.12104 0.27863 0.0
C212 C 0.49095 0.08034 0.30406 0.0
C213 C 0.49046 0.06986 0.15777 0.0
C214 C 0.47519 0.06018 0.31145 0.0
C215 C 0.47862 0.04393 0.3603 0.0
C216 C 0.49785 0.04757 0.40295 0.0
C217 C 0.51365 0.06775 0.39506 0.0
C218 C 0.51018 0.08398 0.34637 0.0
H219 H 0.49507 0.07068 0.10426 0.0
H220 H 0.50475 0.06258 0.1845 0.0
H221 H 0.4744 0.0576 0.16343 0.0
H222 H 0.45997 0.05723 0.28027 0.0
H223 H 0.46607 0.02863 0.36495 0.0
H224 H 0.32581 0.52009 0.05325 0.0
H225 H 0.35943 0.51124 0.11891 0.0
H226 H 0.3129 0.48849 0.27901 0.0
H227 H 0.2795 0.49725 0.21375 0.0
H228 H 0.3692 0.53466 0.24112 0.0
H229 H 0.35912 0.43841 0.2741 0.0
H230 H 0.34487 0.45237 0.20871 0.0
H231 H 0.333 0.45219 0.29141 0.0
C232 C 0.3228 0.51241 0.10151 0.0
C233 C 0.30012 0.50923 0.12841 0.0
C234 C 0.34197 0.50751 0.13914 0.0
C235 C 0.33868 0.49901 0.20374 0.0
C236 C 0.31588 0.49459 0.22897 0.0
H237 H 0.42211 0.48578 0.55358 0.0
H238 H 0.39113 0.48443 0.47049 0.0
C239 C 0.29681 0.49966 0.19172 0.0
C240 C 0.35892 0.49763 0.248 0.0
H241 H 0.38493 0.46094 0.34851 0.0
C242 C 0.37286 0.51848 0.26389 0.0
C243 C 0.36344 0.47659 0.27848 0.0
C244 C 0.34946 0.45356 0.26196 0.0
C245 C 0.39072 0.51902 0.31076 0.0
C246 C 0.39522 0.49799 0.34155 0.0
C247 C 0.38147 0.47705 0.32506 0.0
C248 C 0.4141 0.49753 0.39103 0.0
C249 C 0.40402 0.54233 0.32862 0.0
C250 C 0.43733 0.50489 0.37376 0.0
C251 C 0.45488 0.50594 0.42114 0.0
C252 C 0.44972 0.49914 0.48659 0.0
C253 C 0.42659 0.49112 0.50354 0.0
C254 C 0.40893 0.49027 0.45608 0.0
H255 H 0.39428 0.55727 0.3151 0.0
H256 H 0.40774 0.54369 0.38242 0.0
H257 H 0.4209 0.54407 0.30119 0.0
H258 H 0.44187 0.5101 0.32367 0.0
H259 H 0.47251 0.51232 0.40651 0.0
H260 H 0.08658 0.31725 0.12708 0.0
H261 H 0.07739 0.35293 0.18502 0.0
H262 H 0.02106 0.35912 0.04991 0.0
H263 H 0.02958 0.32256 0.99332 0.0
H264 H 0.07331 0.39836 0.16043 0.0
H265 H 0.98632 0.3523 0.22386 0.0
H266 H 0.00887 0.33743 0.18363 0.0
H267 H 0.99217 0.35615 0.13714 0.0
C268 C 0.07241 0.32636 0.10909 0.0
C269 C 0.05846 0.31679 0.05657 0.0
C270 C 0.06725 0.34687 0.14207 0.0
C271 C 0.04811 0.35841 0.12312 0.0
C272 C 0.03552 0.35017 0.06661 0.0
H273 H 0.01742 0.47902 0.38462 0.0
H274 H 0.02733 0.45745 0.2832 0.0
C275 C 0.04058 0.32944 0.03373 0.0
C276 C 0.04024 0.3773 0.16722 0.0
H277 H 0.99627 0.38887 0.27426 0.0
C278 C 0.05633 0.39651 0.18465 0.0
C279 C 0.01814 0.37476 0.19938 0.0
C280 C 1.00041 0.35399 0.18566 0.0
C281 C 0.05135 0.41257 0.2353 0.0
C282 C 0.02951 0.4096 0.26855 0.0
C283 C 0.013 0.39113 0.24869 0.0
C284 C 0.0243 0.42346 0.32914 0.0
C285 C 0.07002 0.43171 0.25543 0.0
C286 C 0.01904 0.4116 0.38836 0.0
C287 C 0.01324 0.42381 0.44563 0.0
C288 C 0.0127 0.44823 0.44535 0.0
C289 C 0.01815 0.46027 0.38641 0.0
C290 C 0.02381 0.44795 0.32854 0.0
H291 H 0.08731 0.42893 0.23331 0.0
H292 H 0.06512 0.44882 0.23854 0.0
H293 H 0.07169 0.43277 0.31011 0.0
H294 H 0.01932 0.39276 0.39025 0.0
H295 H 0.0091 0.41404 0.49028 0.0
H296 H 0.8014 0.98423 0.04826 0.0
H297 H 0.83827 0.97487 0.99618 0.0
H298 H 0.85296 0.04715 0.94009 0.0
H299 H 0.81768 0.05671 0.99606 0.0
H300 H 0.84989 0.97457 0.87603 0.0
H301 H 0.91606 0.0376 0.98957 0.0
H302 H 0.887 0.03282 0.02411 0.0
H303 H 0.89378 0.05419 0.96031 0.0
C304 C 0.81304 0.99822 0.02712 0.0
C305 C 0.80649 0.02118 0.02593 0.0
C306 C 0.83401 0.99284 0.99663 0.0
C307 C 0.8488 0.01031 0.96445 0.0
C308 C 0.84256 0.03336 0.96602 0.0
H309 H 0.92275 0.99535 0.59895 0.0
H310 H 0.89491 0.99443 0.69091 0.0
C311 C 0.82203 0.03879 0.99737 0.0
C312 C 0.86926 0.00447 0.92301 0.0
H313 H 0.92344 0.02757 0.87269 0.0
C314 C 0.86618 0.98587 0.87645 0.0
C315 C 0.89102 0.0185 0.92415 0.0
C316 C 0.89718 0.03667 0.97792 0.0
C317 C 0.88343 0.98203 0.82854 0.0
C318 C 0.90388 0.99804 0.82429 0.0
C319 C 0.90763 0.01558 0.87386 0.0
C320 C 0.92104 0.99767 0.76785 0.0
C321 C 0.87943 0.96068 0.78359 0.0
C322 C 0.94525 0.00109 0.77916 0.0
C323 C 0.96122 0.00287 0.72612 0.0
C324 C 0.95346 1.00044 0.66044 0.0
C325 C 0.92934 0.99679 0.64899 0.0
C326 C 0.91335 0.99591 0.7019 0.0
H327 H 0.86932 0.94601 0.80965 0.0
H328 H 0.86896 0.96492 0.74055 0.0
H329 H 0.89611 0.95459 0.76552 0.0
H330 H 0.95187 0.00278 0.82913 0.0
H331 H 0.97963 0.00645 0.73666 0.0
H332 H 0.52553 0.78913 0.00513 0.0
H333 H 0.51677 0.82451 0.94892 0.0
H334 H 0.56845 0.86583 0.06636 0.0
H335 H 0.57741 0.83015 0.12266 0.0
H336 H 0.50346 0.86929 0.99002 0.0
H337 H 0.59185 0.8746 0.87294 0.0
H338 H 0.57944 0.84895 0.91603 0.0
H339 H 0.59075 0.8747 0.96187 0.0
C340 C 0.5346 0.80587 0.02008 0.0
C341 C 0.55218 0.80699 0.06798 0.0
C342 C 0.52961 0.82605 0.98791 0.0
C343 C 0.54224 0.84773 0.00259 0.0
C344 C 0.55874 0.84919 0.05365 0.0
H345 H 0.54862 0.97307 0.75958 0.0
H346 H 0.55406 0.94598 0.8485 0.0
C347 C 0.56368 0.82892 0.08623 0.0
C348 C 0.53932 0.86806 0.96016 0.0
H349 H 0.56672 0.90162 0.83896 0.0
C350 C 0.51735 0.87656 0.95748 0.0
C351 C 0.55745 0.87744 0.9175 0.0
C352 C 0.58118 0.86842 0.91653 0.0
C353 C 0.51293 0.89402 0.9128 0.0
C354 C 0.53082 0.90283 0.86859 0.0
C355 C 0.553 0.89483 0.87271 0.0
C356 C 0.52676 0.91968 0.81597 0.0
C357 C 0.48913 0.90287 0.91347 0.0
C358 C 0.50977 0.91382 0.76748 0.0
C359 C 0.50657 0.92929 0.71648 0.0
C360 C 0.52048 0.95088 0.71247 0.0
C361 C 0.53758 0.95662 0.76095 0.0
C362 C 0.54072 0.94116 0.81199 0.0
H363 H 0.48017 0.89999 0.96206 0.0
H364 H 0.49035 0.92185 0.90248 0.0
H365 H 0.47816 0.89316 0.87516 0.0
H366 H 0.49919 0.89709 0.76844 0.0
H367 H 0.49331 0.92421 0.67996 0.0
H368 H 0.72119 0.50758 0.99433 0.0
H369 H 0.68944 0.51707 0.92248 0.0
H370 H 0.66097 0.44453 0.92094 0.0
H371 H 0.69239 0.43505 0.99275 0.0
H372 H 0.68126 0.49734 0.79447 0.0
H373 H 0.60311 0.47961 0.95526 0.0
H374 H 0.63235 0.48425 0.98771 0.0
H375 H 0.62155 0.45616 0.95286 0.0
C376 C 0.70778 0.49382 0.98004 0.0
C377 C 0.70923 0.47059 0.99926 0.0
C378 C 0.68977 0.49921 0.93865 0.0
C379 C 0.6727 0.48155 0.91673 0.0
C380 C 0.67367 0.45853 0.93799 0.0
H381 H 0.58903 0.46464 0.56591 0.0
H382 H 0.61868 0.46469 0.65201 0.0
C383 C 0.69172 0.45311 0.97877 0.0
C384 C 0.65498 0.48653 0.86738 0.0
H385 H 0.59628 0.48107 0.83877 0.0
C386 C 0.66267 0.49407 0.80442 0.0
C387 C 0.63072 0.48245 0.88043 0.0
C388 C 0.62138 0.47539 0.94793 0.0
C389 C 0.64679 0.4967 0.75344 0.0
C390 C 0.62258 0.49142 0.76551 0.0
C391 C 0.61485 0.48485 0.82927 0.0
C392 C 0.60506 0.49197 0.71222 0.0
C393 C 0.65608 0.50503 0.68698 0.0
C394 C 0.58743 0.50714 0.71755 0.0
C395 C 0.57051 0.5071 0.66833 0.0
C396 C 0.57066 0.49165 0.61354 0.0
C397 C 0.58848 0.47672 0.60772 0.0
C398 C 0.60546 0.47679 0.65678 0.0
H399 H 0.67393 0.51431 0.69082 0.0
H400 H 0.65696 0.48966 0.65306 0.0
H401 H 0.64445 0.51696 0.66467 0.0
H402 H 0.58684 0.51911 0.7596 0.0
H403 H 0.55756 0.51942 0.67254 0.0
H404 H 0.99256 0.6831 0.11789 0.0
H405 H 0.99834 0.64638 0.05737 0.0
H406 H 0.93499 0.65153 0.9495 0.0
H407 H 0.92918 0.68797 0.00976 0.0
H408 H 0.94352 0.60386 0.98297 0.0
H409 H 0.01873 0.65518 0.85968 0.0
H410 H 0.01914 0.65414 0.94853 0.0
H411 H 0.99741 0.66907 0.90862 0.0
C412 C 0.97951 0.6759 0.08289 0.0
C413 C 0.9605 0.68835 0.06816 0.0
C414 C 0.9829 0.65507 0.04802 0.0
C415 C 0.96725 0.64643 0.99828 0.0
C416 C 0.94728 0.65787 0.98757 0.0
H417 H 0.97818 0.57907 0.62452 0.0
H418 H 0.97074 0.60278 0.72298 0.0
C419 C 0.94399 0.67868 0.02196 0.0
C420 C 0.97288 0.62744 0.95144 0.0
H421 H 0.00805 0.61714 0.81885 0.0
C422 C 0.95787 0.60653 0.94778 0.0
C423 C 0.9914 0.63116 0.90492 0.0
C424 C 0.00756 0.65362 0.90493 0.0
C425 C 0.96065 0.58947 0.89789 0.0
C426 C 0.97883 0.59352 0.85061 0.0
C427 C 0.99418 0.6141 0.85541 0.0
C428 C 0.9812 0.57771 0.79235 0.0
C429 C 0.94358 0.56774 0.89405 0.0
C430 C 0.98921 0.55554 0.79879 0.0
C431 C 0.99356 0.54192 0.74233 0.0
C432 C 0.98998 0.55034 0.67875 0.0
C433 C 0.98116 0.57214 0.67279 0.0
C434 C 0.97691 0.58572 0.72899 0.0
H435 H 0.92904 0.5683 0.93051 0.0
H436 H 0.93618 0.56552 0.84356 0.0
H437 H 0.95283 0.55212 0.90378 0.0
H438 H 0.99281 0.54913 0.84724 0.0
H439 H 1.00039 0.52519 0.74835 0.0
H440 H 0.089 0.21444 0.07053 0.0
H441 H 0.07853 0.17836 0.13155 0.0
H442 H 0.02101 0.20943 0.2247 0.0
H443 H 0.0313 0.24553 0.16369 0.0
H444 H 0.04663 0.17926 0.30818 0.0
H445 H 0.01763 0.13849 0.06676 0.0
H446 H 0.04719 0.15201 0.06927 0.0
H447 H 0.02342 0.16982 0.07896 0.0
C448 C 0.07449 0.21375 0.10534 0.0
C449 C 0.06078 0.23262 0.11195 0.0
C450 C 0.0685 0.19316 0.13985 0.0
C451 C 0.04872 0.19118 0.18123 0.0
C452 C 0.03626 0.21068 0.19254 0.0
H453 H 0.97113 0.07996 0.39818 0.0
H454 H 0.98321 0.11636 0.34044 0.0
C455 C 0.04226 0.23132 0.15806 0.0
C456 C 0.03966 0.16818 0.20743 0.0
H457 H 0.01439 0.11408 0.1597 0.0
C458 C 0.03957 0.16499 0.27592 0.0
C459 C 0.03043 0.14972 0.16482 0.0
C460 C 0.02944 0.15261 0.09086 0.0
C461 C 0.03073 0.14354 0.3031 0.0
C462 C 0.0213 0.12514 0.26051 0.0
C463 C 0.02152 0.12832 0.19199 0.0
C464 C 0.01152 0.10231 0.28651 0.0
C465 C 0.03198 0.14061 0.377 0.0
C466 C 0.02244 0.08204 0.27149 0.0
C467 C 0.01538 0.06116 0.30369 0.0
C468 C 0.99733 0.06039 0.35123 0.0
C469 C 0.98515 0.08016 0.36189 0.0
C470 C 0.99217 0.10099 0.32954 0.0
H471 H 0.04465 0.15414 0.40034 0.0
H472 H 0.01454 0.14232 0.39947 0.0
H473 H 0.03705 0.123 0.38885 0.0
H474 H 0.03727 0.08274 0.23779 0.0
H475 H 0.02509 0.04616 0.29477 0.0
H476 H 0.31691 0.97805 0.13133 0.0
H477 H 0.33983 0.96314 0.21822 0.0
H478 H 0.28135 0.91417 0.27366 0.0
H479 H 0.25818 0.9286 0.18454 0.0
H480 H 0.32352 0.96297 0.35943 0.0
H481 H 0.34173 0.87595 0.2543 0.0
H482 H 0.33511 0.89908 0.20048 0.0
H483 H 0.31269 0.88517 0.25274 0.0
C484 C 0.30899 0.96373 0.16079 0.0
C485 C 0.28577 0.95437 0.15062 0.0
C486 C 0.32206 0.95538 0.21082 0.0
C487 C 0.31225 0.93756 0.25199 0.0
C488 C 0.2892 0.92785 0.24192 0.0
H489 H 0.41517 0.93876 0.5661 0.0
H490 H 0.37588 0.92691 0.52396 0.0
C491 C 0.276 0.93621 0.19142 0.0
C492 C 0.32638 0.93042 0.30694 0.0
H493 H 0.36573 0.89189 0.34097 0.0
C494 C 0.33233 0.94711 0.35706 0.0
C495 C 0.3376 0.90968 0.30314 0.0
C496 C 0.33158 0.89131 0.24992 0.0
C497 C 0.35098 0.94485 0.39943 0.0
C498 C 0.36356 0.92491 0.39235 0.0
C499 C 0.35604 0.90709 0.34635 0.0
C500 C 0.38703 0.92486 0.42148 0.0
C501 C 0.35844 0.965 0.44646 0.0
C502 C 0.40646 0.92552 0.37863 0.0
C503 C 0.42887 0.9317 0.40271 0.0
C504 C 0.43212 0.93756 0.46988 0.0
C505 C 0.41301 0.9346 0.51386 0.0
C506 C 0.39058 0.92797 0.48984 0.0
H507 H 0.34873 0.98048 0.43857 0.0
H508 H 0.35514 0.95936 0.49818 0.0
H509 H 0.37737 0.97058 0.44057 0.0
H510 H 0.40418 0.92306 0.32571 0.0
H511 H 0.44335 0.93368 0.36787 0.0
H512 H 0.41569 0.28576 0.01974 0.0
H513 H 0.41788 0.32448 0.07433 0.0
H514 H 0.47009 0.30398 0.20636 0.0
H515 H 0.46799 0.26536 0.15221 0.0
H516 H 0.43895 0.33425 0.26493 0.0
H517 H 0.47818 0.36704 0.02694 0.0
H518 H 0.44937 0.35178 0.02231 0.0
H519 H 0.4735 0.33622 0.04496 0.0
C520 C 0.42702 0.28929 0.06193 0.0
C521 C 0.44189 0.27272 0.08131 0.0
C522 C 0.42838 0.31142 0.09264 0.0
C523 C 0.44462 0.31719 0.14293 0.0
C524 C 0.45758 0.29984 0.16716 0.0
H525 H 0.52649 0.43973 0.28462 0.0
H526 H 0.51067 0.40501 0.22023 0.0
C527 C 0.45622 0.27771 0.13657 0.0
C528 C 0.45025 0.34178 0.16517 0.0
H529 H 0.47674 0.39456 0.11463 0.0
C530 C 0.44692 0.34755 0.23204 0.0
C531 C 0.46106 0.35887 0.12201 0.0
C532 C 0.46596 0.35325 0.05015 0.0
C533 C 0.45441 0.36997 0.25733 0.0
C534 C 0.46518 0.38707 0.21418 0.0
C535 C 0.46827 0.38141 0.14714 0.0
C536 C 0.47452 0.41047 0.23936 0.0
C537 C 0.45155 0.37489 0.33053 0.0
C538 C 0.45939 0.42562 0.26756 0.0
C539 C 0.46835 0.44525 0.30427 0.0
C540 C 0.49256 0.4501 0.31255 0.0
C541 C 0.50778 0.43635 0.27855 0.0
C542 C 0.49876 0.41651 0.24217 0.0
H543 H 0.44732 0.35855 0.35872 0.0
H544 H 0.46771 0.38444 0.35106 0.0
H545 H 0.43711 0.38609 0.33846 0.0
H546 H 0.44064 0.42143 0.2648 0.0
H547 H 0.45628 0.45576 0.3298 0.0
H548 H 0.23299 0.53599 0.22688 0.0
H549 H 0.19994 0.55211 0.28042 0.0
H550 H 0.20175 0.60553 0.13257 0.0
H551 H 0.23447 0.58865 0.07685 0.0
H552 H 0.18643 0.59178 0.33239 0.0
H553 H 0.13976 0.56968 0.09554 0.0
H554 H 0.16886 0.56202 0.10882 0.0
H555 H 0.16406 0.59188 0.09259 0.0
C556 C 0.22689 0.55165 0.207 0.0
C557 C 0.236 0.56089 0.14729 0.0
C558 C 0.20793 0.56086 0.23756 0.0
C559 C 0.19791 0.57959 0.20931 0.0
C560 C 0.20874 0.5906 0.15398 0.0
H561 H 0.06621 0.58799 0.43215 0.0
H562 H 0.10109 0.60504 0.37278 0.0
C563 C 0.22751 0.5811 0.12258 0.0
C564 C 0.17448 0.58479 0.2329 0.0
H565 H 0.11717 0.57588 0.18889 0.0
C566 C 0.17124 0.58886 0.30093 0.0
C567 C 0.15472 0.58096 0.19144 0.0
C568 C 0.15686 0.57575 0.11814 0.0
C569 C 0.14885 0.58683 0.32976 0.0
C570 C 0.12917 0.5815 0.28877 0.0
C571 C 0.13234 0.57986 0.21999 0.0
C572 C 0.10591 0.5733 0.31658 0.0
C573 C 0.14671 0.58827 0.40426 0.0
C574 C 0.09618 0.55036 0.30133 0.0
C575 C 0.07603 0.54083 0.3338 0.0
C576 C 0.06544 0.55401 0.38262 0.0
C577 C 0.07428 0.57743 0.39506 0.0
C578 C 0.09427 0.58711 0.36164 0.0
H579 H 0.1639 0.58858 0.42882 0.0
H580 H 0.13898 0.60458 0.41896 0.0
H581 H 0.13513 0.57312 0.42309 0.0
H582 H 0.10482 0.53938 0.26654 0.0
H583 H 0.06953 0.52275 0.32328 0.0
H584 H 0.99497 0.76134 0.97194 0.0
H585 H 0.00734 0.79862 0.91825 0.0
H586 H 0.94519 0.82696 0.99174 0.0
H587 H 0.93287 0.78985 0.0458 0.0
H588 H 0.98653 0.82894 0.82877 0.0
H589 H 1.00027 0.86805 0.08073 0.0
H590 H 0.99592 0.83678 0.06532 0.0
H591 H 0.9714 0.85384 0.06736 0.0
C592 C 0.98356 0.77525 0.97441 0.0
C593 C 0.96308 0.77292 0.01317 0.0
C594 C 0.99073 0.79655 0.94436 0.0
C595 C 0.97746 0.81561 0.95287 0.0
C596 C 0.95588 0.81253 0.98606 0.0
H597 H 0.97756 0.95223 0.81033 0.0
H598 H 0.97114 0.91549 0.87024 0.0
C599 C 0.94876 0.79134 0.01625 0.0
C600 C 0.98692 0.8392 0.93179 0.0
H601 H 0.00284 0.8947 0.99105 0.0
C602 C 0.99039 0.84326 0.86414 0.0
C603 C 0.99217 0.8577 0.97848 0.0
C604 C 0.98998 0.8539 0.05209 0.0
C605 C 0.99798 0.86575 0.84164 0.0
C606 C 1.00226 0.8844 0.88814 0.0
C607 C 0.99954 0.88023 0.95586 0.0
C608 C 0.00737 0.90867 0.86606 0.0
C609 C 1.0006 0.86974 0.76824 0.0
C610 C 0.03009 0.91738 0.84731 0.0
C611 C 0.03387 0.93856 0.8138 0.0
C612 C 0.01485 0.95085 0.79823 0.0
C613 C 0.99247 0.943 0.82195 0.0
C614 C 0.98877 0.92205 0.85593 0.0
H615 H 0.99683 0.85328 0.73856 0.0
H616 H 0.98854 0.88251 0.7529 0.0
H617 H 0.01865 0.87739 0.75674 0.0
H618 H 0.04459 0.90712 0.85489 0.0
H619 H 0.05122 0.94421 0.79528 0.0
H620 H 0.74411 0.03757 0.88245 0.0
H621 H 0.71748 0.05398 0.80748 0.0
H622 H 0.69714 0.10042 0.96368 0.0
H623 H 0.72378 0.08393 0.03922 0.0
H624 H 0.66118 0.07178 0.91606 0.0
H625 H 0.71028 0.11285 0.7053 0.0
H626 H 0.71927 0.08451 0.72167 0.0
H627 H 0.72392 0.10772 0.78302 0.0
C628 C 0.7346 0.05185 0.90016 0.0
C629 C 0.73581 0.05932 0.96677 0.0
C630 C 0.71948 0.06135 0.85711 0.0
C631 C 0.70552 0.07863 0.87976 0.0
C632 C 0.70789 0.08722 0.94511 0.0
H633 H 0.56867 0.08573 0.70087 0.0
H634 H 0.6038 0.10237 0.75934 0.0
C635 C 0.72294 0.07767 0.98827 0.0
C636 C 0.68551 0.08405 0.83969 0.0
H637 H 0.67028 0.0965 0.68274 0.0
C638 C 0.66308 0.07789 0.86565 0.0
C639 C 0.68812 0.09189 0.77396 0.0
C640 C 0.71173 0.09984 0.74463 0.0
C641 C 0.64328 0.07735 0.82603 0.0
C642 C 0.64597 0.08385 0.75893 0.0
C643 C 0.66827 0.0916 0.73419 0.0
C644 C 0.62648 0.07898 0.71206 0.0
C645 C 0.61996 0.0679 0.85504 0.0
C646 C 0.62808 0.06168 0.66253 0.0
C647 C 0.60821 0.05247 0.6285 0.0
C648 C 0.58645 0.06033 0.64393 0.0
C649 C 0.58524 0.07918 0.68887 0.0
C650 C 0.60524 0.08863 0.72235 0.0
H651 H 0.62173 0.05988 0.90405 0.0
H652 H 0.60876 0.08243 0.86175 0.0
H653 H 0.61091 0.05447 0.82138 0.0
H654 H 0.64433 0.05408 0.65355 0.0
H655 H 0.60964 0.0381 0.59346 0.0
H656 H 0.60887 0.71694 0.05017 0.0
H657 H 0.60571 0.67985 0.98697 0.0
H658 H 0.54566 0.70048 0.88632 0.0
H659 H 0.54858 0.73723 0.94919 0.0
H660 H 0.56618 0.65009 0.00716 0.0
H661 H 0.57767 0.66619 0.7397 0.0
H662 H 0.58853 0.68742 0.80218 0.0
H663 H 0.55845 0.68545 0.77734 0.0
C664 C 0.59552 0.71386 0.01281 0.0
C665 C 0.57881 0.72984 0.00513 0.0
C666 C 0.59376 0.69272 0.97678 0.0
C667 C 0.57547 0.68744 0.93203 0.0
C668 C 0.56019 0.70437 0.91967 0.0
H669 H 0.48739 0.57736 0.7599 0.0
H670 H 0.50618 0.61263 0.81472 0.0
C671 C 0.5619 0.72545 0.95571 0.0
C672 C 0.56949 0.66311 0.9078 0.0
H673 H 0.55273 0.63116 0.76935 0.0
C674 C 0.56377 0.64574 0.95503 0.0
C675 C 0.56629 0.65757 0.83992 0.0
C676 C 0.5733 0.67512 0.7869 0.0
C677 C 0.55349 0.62339 0.93636 0.0
C678 C 0.54903 0.61837 0.86883 0.0
C679 C 0.55591 0.63528 0.8213 0.0
C680 C 0.53621 0.59612 0.84622 0.0
C681 C 0.54629 0.60575 0.989 0.0
C682 C 0.5465 0.57503 0.84851 0.0
C683 C 0.53569 0.55479 0.81774 0.0
C684 C 0.51461 0.55556 0.78393 0.0
C685 C 0.50359 0.57629 0.78583 0.0
C686 C 0.51437 0.59646 0.81662 0.0
H687 H 0.54791 0.61359 0.03969 0.0
H688 H 0.52796 0.59817 0.98156 0.0
H689 H 0.55756 0.59117 0.98525 0.0
H690 H 0.56346 0.57453 0.87073 0.0
H691 H 0.54466 0.53906 0.81639 0.0
H692 H 0.78572 0.40385 0.08301 0.0
H693 H 0.8224 0.39209 0.03667 0.0
H694 H 0.81231 0.43105 0.86092 0.0
H695 H 0.77579 0.4426 0.90637 0.0
H696 H 0.83832 0.39226 0.83797 0.0
H697 H 0.87135 0.44942 0.05064 0.0
H698 H 0.85306 0.42304 0.06928 0.0
H699 H 0.84102 0.44642 0.02799 0.0
C700 C 0.79086 0.409 0.03325 0.0
C701 C 0.77821 0.42455 0.99883 0.0
C702 C 0.81184 0.40237 0.00703 0.0
C703 C 0.82037 0.41136 0.94642 0.0
C704 C 0.8061 0.42408 0.90808 0.0
H705 H 0.93141 0.48758 0.78082 0.0
H706 H 0.89901 0.46873 0.84572 0.0
C707 C 0.78511 0.4306 0.93403 0.0
C708 C 0.8454 0.41195 0.92847 0.0
H709 H 0.89773 0.44253 0.96611 0.0
C710 C 0.85155 0.40263 0.86673 0.0
C711 C 0.8625 0.42576 0.96611 0.0
C712 C 0.85678 0.43689 0.03201 0.0
C713 C 0.87393 0.40816 0.83941 0.0
C714 C 0.8905 0.42317 0.87529 0.0
C715 C 0.88492 0.43096 0.93912 0.0
C716 C 0.91176 0.43447 0.84295 0.0
C717 C 0.87907 0.39955 0.77022 0.0
C718 C 0.93002 0.42158 0.82185 0.0
C719 C 0.94865 0.4324 0.78481 0.0
C720 C 0.94911 0.45616 0.76847 0.0
C721 C 0.93142 0.46923 0.79261 0.0
C722 C 0.91293 0.45849 0.82967 0.0
H723 H 0.86358 0.38964 0.747 0.0
H724 H 0.88513 0.41459 0.73846 0.0
H725 H 0.89327 0.38787 0.7717 0.0
H726 H 0.92951 0.40309 0.83238 0.0
H727 H 0.96213 0.42196 0.76667 0.0
H728 H 0.09552 0.25513 0.85784 0.0
H729 H 0.09288 0.22367 0.77354 0.0
H730 H 0.01844 0.21251 0.80675 0.0
H731 H 0.02109 0.24451 0.88838 0.0
H732 H 0.0819 0.18131 0.81043 0.0
H733 H 0.0197 0.19675 0.61535 0.0
H734 H 0.03205 0.22009 0.66952 0.0
H735 H 0.00666 0.2012 0.69491 0.0
C736 C 0.07845 0.24703 0.84355 0.0
C737 C 0.05844 0.25255 0.87851 0.0
C738 C 0.07695 0.22875 0.79621 0.0
C739 C 0.05545 0.21553 0.78353 0.0
C740 C 0.03517 0.22263 0.81398 0.0
H741 H 0.03189 0.06552 0.74282 0.0
H742 H 0.04044 0.10644 0.77861 0.0
C743 C 0.03664 0.2411 0.86057 0.0
C744 C 0.05473 0.19218 0.74906 0.0
H745 H 0.02329 0.15581 0.63931 0.0
C746 C 0.06937 0.17596 0.77201 0.0
C747 C 0.03859 0.18499 0.69851 0.0
C748 C 0.02357 0.20181 0.66774 0.0
C749 C 0.06764 0.15266 0.74815 0.0
C750 C 0.05024 0.145 0.70147 0.0
C751 C 0.03636 0.16146 0.67606 0.0
C752 C 0.04576 0.11993 0.67966 0.0
C753 C 0.08455 0.13655 0.77339 0.0
C754 C 0.0453 0.11379 0.61204 0.0
C755 C 0.04005 0.0904 0.5914 0.0
C756 C 0.03518 0.07256 0.63794 0.0
C757 C 0.03589 0.07871 0.70565 0.0
C758 C 0.04089 0.10215 0.72622 0.0
H759 H 0.10113 0.14657 0.78945 0.0
H760 H 0.07674 0.12716 0.81704 0.0
H761 H 0.08867 0.12338 0.73507 0.0
H762 H 0.04889 0.12713 0.57507 0.0
H763 H 0.03963 0.08636 0.5388 0.0
H764 H 0.29599 0.02565 0.97316 0.0
H765 H 0.32819 0.03224 0.89315 0.0
H766 H 0.30778 0.96475 0.80156 0.0
H767 H 0.27585 0.95807 0.8825 0.0
H768 H 0.35222 0.96831 0.84157 0.0
H769 H 0.33927 0.04737 0.69974 0.0
H770 H 0.3367 0.05214 0.78744 0.0
H771 H 0.31592 0.03145 0.74587 0.0
C772 C 0.29767 0.01281 0.93372 0.0
C773 C 0.2831 0.99161 0.93291 0.0
C774 C 0.31618 0.01651 0.88811 0.0
C775 C 0.32044 0.99907 0.84074 0.0
C776 C 0.30485 0.97855 0.83722 0.0
H777 H 0.44188 0.0083 0.56662 0.0
H778 H 0.40168 0.00386 0.61078 0.0
C779 C 0.2864 0.97484 0.88293 0.0
C780 C 0.34283 1.00065 0.80211 0.0
H781 H 0.37837 0.03594 0.70053 0.0
C782 C 0.35773 0.98297 0.81003 0.0
C783 C 0.35014 0.01967 0.76057 0.0
C784 C 0.33457 0.03862 0.74729 0.0
C785 C 0.37992 0.98419 0.77975 0.0
C786 C 0.38769 0.00378 0.74099 0.0
C787 C 0.37251 0.02104 0.7308 0.0
C788 C 0.41191 0.007 0.71347 0.0
C789 C 0.39501 0.96457 0.78991 0.0
C790 C 0.431 0.01045 0.75638 0.0
C791 C 0.45387 0.01299 0.73137 0.0
C792 C 0.4582 0.01215 0.66282 0.0
C793 C 0.43909 0.00893 0.6197 0.0
C794 C 0.41613 0.00648 0.64483 0.0
H795 H 0.38456 0.94833 0.80653 0.0
H796 H 0.40452 0.96052 0.74361 0.0
H797 H 0.40811 0.97002 0.82849 0.0
H798 H 0.42819 0.01117 0.80945 0.0
H799 H 0.4682 0.0155 0.76587 0.0
H800 H 0.50614 0.25998 0.89726 0.0
H801 H 0.51494 0.29288 0.82265 0.0
H802 H 0.44549 0.28088 0.74362 0.0
H803 H 0.4366 0.24821 0.81893 0.0
H804 H 0.51073 0.30576 0.68352 0.0
H805 H 0.44768 0.34329 0.85587 0.0
H806 H 0.46002 0.31631 0.8718 0.0
H807 H 0.4367 0.31659 0.81372 0.0
C808 C 0.4933 0.26339 0.8609 0.0
C809 C 0.47075 0.25148 0.86347 0.0
C810 C 0.49823 0.28242 0.8189 0.0
C811 C 0.48066 0.28967 0.77887 0.0
C812 C 0.45918 0.27574 0.77479 0.0
H813 H 0.49032 0.41402 0.53301 0.0
H814 H 0.4858 0.37398 0.57349 0.0
C815 C 0.45424 0.2568 0.81697 0.0
C816 C 0.48332 0.3136 0.75113 0.0
H817 H 0.46294 0.36732 0.76932 0.0
C818 C 0.50023 0.31922 0.70187 0.0
C819 C 0.47005 0.33131 0.77666 0.0
C820 C 0.45273 0.32675 0.83284 0.0
C821 C 0.50393 0.34203 0.67663 0.0
C822 C 0.49008 0.35954 0.70059 0.0
C823 C 0.4734 0.3539 0.75046 0.0
C824 C 0.49279 0.38396 0.67572 0.0
C825 C 0.5231 0.3473 0.62593 0.0
C826 C 0.49737 0.40309 0.71996 0.0
C827 C 0.49962 0.42611 0.69712 0.0
C828 C 0.49734 0.43052 0.62943 0.0
C829 C 0.49241 0.41133 0.5854 0.0
C830 C 0.49001 0.38834 0.60837 0.0
H831 H 0.53619 0.33435 0.62711 0.0
H832 H 0.51539 0.34643 0.57579 0.0
H833 H 0.53221 0.36513 0.63404 0.0
H834 H 0.49942 0.40018 0.77226 0.0
H835 H 0.50347 0.4404 0.73245 0.0
H836 H 0.23094 0.4791 0.98207 0.0
H837 H 0.19928 0.46999 0.90257 0.0
H838 H 0.2156 0.53777 0.81541 0.0
H839 H 0.24708 0.5469 0.89493 0.0
H840 H 0.17021 0.5298 0.8709 0.0
H841 H 0.18939 0.45659 0.70078 0.0
H842 H 0.19474 0.45261 0.78713 0.0
H843 H 0.21205 0.47514 0.74303 0.0
C844 C 0.22857 0.49149 0.9436 0.0
C845 C 0.24157 0.51361 0.9442 0.0
C846 C 0.21035 0.48635 0.89844 0.0
C847 C 0.20501 0.50323 0.85308 0.0
C848 C 0.21941 0.52447 0.84983 0.0
H849 H 0.09245 0.50621 0.57185 0.0
H850 H 0.13025 0.50625 0.62591 0.0
C851 C 0.23754 0.52959 0.89484 0.0
C852 C 0.18247 0.50054 0.81716 0.0
H853 H 0.15072 0.46774 0.70006 0.0
C854 C 0.166 0.51627 0.83338 0.0
C855 C 0.17697 0.48287 0.76835 0.0
C856 C 0.19423 0.46589 0.74818 0.0
C857 C 0.14418 0.51475 0.80251 0.0
C858 C 0.13853 0.49691 0.75433 0.0
C859 C 0.15504 0.48128 0.73743 0.0
C860 C 0.11567 0.49478 0.72023 0.0
C861 C 0.12738 0.53242 0.8211 0.0
C862 C 0.09493 0.48793 0.75506 0.0
C863 C 0.07325 0.48783 0.72433 0.0
C864 C 0.07186 0.49469 0.65814 0.0
C865 C 0.09278 0.50095 0.62295 0.0
C866 C 0.11445 0.50089 0.65364 0.0
H867 H 0.13592 0.54748 0.85029 0.0
H868 H 0.1197 0.53918 0.7761 0.0
H869 H 0.11289 0.52378 0.85138 0.0
H870 H 0.09552 0.48305 0.80645 0.0
H871 H 0.05757 0.48287 0.75299 0.0
H872 H 0.92489 0.75919 0.2532 0.0
H873 H 0.93161 0.79261 0.33015 0.0
H874 H 0.00524 0.7846 0.32837 0.0
H875 H 0.99852 0.75135 0.25042 0.0
H876 H 0.95393 0.80748 0.45045 0.0
H877 H 0.99988 0.84608 0.22895 0.0
H878 H 0.98256 0.81805 0.22631 0.0
H879 H 0.01158 0.82051 0.25927 0.0
C880 C 0.94228 0.76363 0.27258 0.0
C881 C 0.96118 0.75266 0.2461 0.0
C882 C 0.94617 0.78297 0.31584 0.0
C883 C 0.96902 0.79154 0.3333 0.0
C884 C 0.98751 0.77853 0.31444 0.0
H885 H 0.00753 0.91769 0.5726 0.0
H886 H 0.99985 0.87753 0.53099 0.0
C887 C 0.98362 0.75921 0.27096 0.0
C888 C 0.97368 0.81572 0.36149 0.0
H889 H 0.99926 0.87038 0.32427 0.0
C890 C 0.96396 0.82123 0.42318 0.0
C891 C 0.98611 0.83384 0.32475 0.0
C892 C 0.99546 0.82948 0.25589 0.0
C893 C 0.96666 0.84426 0.44962 0.0
C894 C 0.97986 0.86219 0.41396 0.0
C895 C 0.98932 0.85667 0.35192 0.0
C896 C 0.98413 0.8868 0.43978 0.0
C897 C 0.95474 0.84922 0.51457 0.0
C898 C 0.97863 0.90567 0.40151 0.0
C899 C 0.9834 0.92887 0.42473 0.0
C900 C 0.99373 0.93368 0.48686 0.0
C901 C 0.99929 0.91473 0.52486 0.0
C902 C 0.99474 0.89162 0.50135 0.0
H903 H 0.93975 0.83592 0.52451 0.0
H904 H 0.96736 0.84859 0.55537 0.0
H905 H 0.94832 0.86685 0.51538 0.0
H906 H 0.97059 0.90244 0.35357 0.0
H907 H 0.97891 0.94299 0.39412 0.0
H908 H 0.73866 0.98138 0.17057 0.0
H909 H 0.70771 0.96951 0.25166 0.0
H910 H 0.69528 0.04198 0.28139 0.0
H911 H 0.72701 0.0538 0.20496 0.0
H912 H 0.68591 0.02147 0.38968 0.0
H913 H 0.64237 0.96446 0.19264 0.0
H914 H 0.66965 0.95538 0.21847 0.0
H915 H 0.669 0.98291 0.17749 0.0
C916 C 0.72988 0.99476 0.19645 0.0
C917 C 0.73499 0.01849 0.18049 0.0
C918 C 0.71183 0.98796 0.24183 0.0
C919 C 0.69829 0.00472 0.27072 0.0
C920 C 0.70505 0.02855 0.25944 0.0
H921 H 0.55118 0.99169 0.3498 0.0
H922 H 0.59123 0.99606 0.30714 0.0
C923 C 0.72326 0.03533 0.21547 0.0
C924 C 0.67601 0.99798 0.308 0.0
H925 H 0.62196 0.96766 0.29253 0.0
C926 C 0.67197 0.00959 0.36852 0.0
C927 C 0.65754 0.98271 0.28032 0.0
C928 C 0.6597 0.97081 0.21344 0.0
C929 C 0.64996 0.00722 0.40039 0.0
C930 C 0.63157 0.99187 0.37276 0.0
C931 C 0.63593 0.97945 0.3139 0.0
C932 C 0.60722 0.98962 0.40066 0.0
C933 C 0.64642 0.02229 0.46114 0.0
C934 C 0.60252 0.98455 0.46769 0.0
C935 C 0.57953 0.98268 0.49254 0.0
C936 C 0.56072 0.98509 0.45043 0.0
C937 C 0.56533 0.98968 0.38336 0.0
C938 C 0.58828 0.99212 0.35893 0.0
H939 H 0.65977 0.03769 0.46422 0.0
H940 H 0.62889 0.02876 0.46165 0.0
H941 H 0.64803 0.0118 0.50604 0.0
H942 H 0.61656 0.98178 0.50078 0.0
H943 H 0.57643 0.97888 0.54436 0.0
H944 H 0.52636 0.74841 0.24137 0.0
H945 H 0.51767 0.71758 0.32278 0.0
H946 H 0.59079 0.70724 0.3286 0.0
H947 H 0.59948 0.73858 0.24999 0.0
H948 H 0.52305 0.67477 0.28917 0.0
H949 H 0.57439 0.69383 0.51538 0.0
H950 H 0.57009 0.7163 0.45684 0.0
H951 H 0.59316 0.69755 0.44429 0.0
C952 C 0.54069 0.74054 0.26325 0.0
C953 C 0.5636 0.7459 0.23951 0.0
C954 C 0.5357 0.72265 0.30908 0.0
C955 C 0.55353 0.70988 0.33192 0.0
C956 C 0.57671 0.71697 0.3132 0.0
H957 H 0.54029 0.55956 0.37919 0.0
H958 H 0.54698 0.59998 0.34151 0.0
C959 C 0.58171 0.73497 0.26808 0.0
C960 C 0.54774 0.68691 0.3648 0.0
H961 H 0.56469 0.65246 0.4877 0.0
C962 C 0.53187 0.6701 0.33335 0.0
C963 C 0.55904 0.68064 0.42269 0.0
C964 C 0.57491 0.69817 0.46203 0.0
C965 C 0.52768 0.64711 0.35647 0.0
C966 C 0.54029 0.64035 0.41139 0.0
C967 C 0.5554 0.6574 0.44466 0.0
C968 C 0.53782 0.61579 0.43531 0.0
C969 C 0.50961 0.63038 0.32182 0.0
C970 C 0.53165 0.61115 0.50148 0.0
C971 C 0.52828 0.58806 0.52351 0.0
C972 C 0.53092 0.56902 0.47978 0.0
C973 C 0.53785 0.57373 0.41404 0.0
C974 C 0.54149 0.59687 0.39227 0.0
H975 H 0.49661 0.63994 0.29614 0.0
H976 H 0.51836 0.61998 0.28385 0.0
H977 H 0.50017 0.61812 0.35713 0.0
H978 H 0.52887 0.62538 0.53585 0.0
H979 H 0.52296 0.58519 0.57452 0.0
H980 H 0.78627 0.51127 0.11151 0.0
H981 H 0.81919 0.5241 0.1841 0.0
H982 H 0.79604 0.46943 0.32008 0.0
H983 H 0.76326 0.45652 0.24737 0.0
H984 H 0.81862 0.51675 0.3778 0.0
H985 H 0.86897 0.47334 0.18186 0.0
H986 H 0.85065 0.49501 0.15601 0.0
H987 H 0.83762 0.46797 0.18936 0.0
C988 C 0.78749 0.50288 0.1587 0.0
C989 C 0.77206 0.48315 0.17445 0.0
C990 C 0.80646 0.51 0.19968 0.0
C991 C 0.81019 0.49751 0.257 0.0
C992 C 0.79345 0.47933 0.27617 0.0
H993 H 0.92037 0.4843 0.53736 0.0
H994 H 0.88335 0.48486 0.48021 0.0
C995 C 0.77458 0.47212 0.23502 0.0
C996 C 0.83299 0.50089 0.29123 0.0
H997 H 0.88966 0.4887 0.27491 0.0
C998 C 0.83422 0.51079 0.35529 0.0
C999 C 0.85327 0.49299 0.26173 0.0
C1000 C 0.85273 0.48158 0.19364 0.0
C1001 C 0.85529 0.51313 0.39061 0.0
C1002 C 0.8755 0.50475 0.36169 0.0
C1003 C 0.87424 0.49514 0.29716 0.0
C1004 C 0.89798 0.50514 0.39776 0.0
C1005 C 0.85573 0.52484 0.45819 0.0
C1006 C 0.91879 0.51574 0.36976 0.0
C1007 C 0.94013 0.51517 0.40193 0.0
C1008 C 0.94117 0.50392 0.46292 0.0
C1009 C 0.92028 0.49329 0.49081 0.0
C1010 C 0.89899 0.49377 0.45839 0.0
H1011 H 0.84164 0.53661 0.46406 0.0
H1012 H 0.85292 0.5112 0.49644 0.0
H1013 H 0.87277 0.53522 0.46746 0.0
H1014 H 0.91853 0.52447 0.32279 0.0
H1015 H 0.9558 0.52354 0.37887 0.0
loop_
_geom_bond_atom_site_label_1
_geom_bond_atom_site_label_2
_geom_bond_distance
_geom_bond_site_symmetry_2
_ccdc_geom_bond_type
H0 C3 0.931 . S
H1 C6 0.928 . S
H2 C8 0.930 . S
C3 H0 0.931 . S
C3 C4 1.413 . S
C3 C5 1.360 1_554 S
C4 C3 1.413 . S
C4 C8 1.429 . S
C5 C3 1.360 1_556 S
C5 C6 1.372 . S
C6 H1 0.928 . S
C6 C5 1.372 . S
C6 C7 1.404 1_556 S
C7 C6 1.404 1_554 S
C7 C8 1.391 . S
C8 H2 0.930 . S
C8 C4 1.429 . S
C8 C7 1.391 . S
H9 C12 0.931 . S
H10 C15 0.928 . S
H11 C17 0.930 . S
C12 H9 0.931 . S
C12 C13 1.413 . S
C12 C14 1.360 1_554 S
C13 C12 1.413 . S
C13 C17 1.429 . S
C14 C12 1.360 1_556 S
C14 C15 1.372 . S
C15 H10 0.928 . S
C15 C14 1.372 . S
C15 C16 1.404 . S
C16 C15 1.404 . S
C16 C17 1.391 1_556 S
C17 H11 0.930 . S
C17 C13 1.429 . S
C17 C16 1.391 1_554 S
H18 C21 0.931 . S
H19 C24 0.928 . S
H20 C26 0.932 . S
C21 H18 0.931 . S
C21 C22 1.414 . S
C21 C23 1.360 1_554 S
C22 C21 1.414 . S
C22 C26 1.430 1_565 S
C23 C21 1.360 1_556 S
C23 C24 1.374 . S
C24 H19 0.928 . S
C24 C23 1.374 . S
C24 C25 1.403 1_556 S
C25 C24 1.403 1_554 S
C25 C26 1.390 1_565 S
C26 H20 0.932 . S
C26 C22 1.430 1_545 S
C26 C25 1.390 1_545 S
H27 C30 0.931 . S
H28 C33 0.928 . S
H29 C35 0.930 . S
C30 H27 0.931 . S
C30 C31 1.413 . S
C30 C32 1.360 . S
C31 C30 1.413 . S
C31 C35 1.429 1_554 S
C32 C30 1.360 . S
C32 C33 1.372 . S
C33 H28 0.928 . S
C33 C32 1.372 . S
C33 C34 1.404 . S
C34 C33 1.404 . S
C34 C35 1.391 1_554 S
C35 H29 0.930 . S
C35 C31 1.429 1_556 S
C35 C34 1.391 1_556 S
H36 C39 0.931 . S
H37 C42 0.928 . S
H38 C44 0.930 . S
C39 H36 0.931 . S
C39 C40 1.413 . S
C39 C41 1.360 . S
C40 C39 1.413 . S
C40 C44 1.429 . S
C41 C39 1.360 . S
C41 C42 1.372 . S
C42 H37 0.928 . S
C42 C41 1.372 . S
C42 C43 1.404 . S
C43 C42 1.404 . S
C43 C44 1.391 . S
C44 H38 0.930 . S
C44 C40 1.429 . S
C44 C43 1.391 . S
H45 C48 0.931 . S
H46 C51 0.928 . S
H47 C53 0.930 . S
C48 H45 0.931 . S
C48 C49 1.413 . S
C48 C50 1.360 . S
C49 C48 1.413 . S
C49 C53 1.429 . S
C50 C48 1.360 . S
C50 C51 1.372 . S
C51 H46 0.928 . S
C51 C50 1.372 . S
C51 C52 1.404 . S
C52 C51 1.404 . S
C52 C53 1.391 . S
C53 H47 0.930 . S
C53 C49 1.429 . S
C53 C52 1.391 . S
H54 C57 0.930 . S
H55 C60 0.928 . S
H56 C62 0.924 1_556 S
C57 H54 0.930 . S
C57 C58 1.413 . S
C57 C59 1.360 . S
C58 C57 1.413 . S
C58 C62 1.428 1_565 S
C59 C57 1.360 . S
C59 C60 1.371 . S
C60 H55 0.928 . S
C60 C59 1.371 . S
C60 C61 1.404 . S
C61 C60 1.404 . S
C61 C62 1.391 1_565 S
C62 H56 0.924 1_554 S
C62 C58 1.428 1_545 S
C62 C61 1.391 1_545 S
H63 C66 0.931 . S
H64 C69 0.928 1_556 S
H65 C71 0.930 . S
C66 H63 0.931 . S
C66 C67 1.413 . S
C66 C68 1.360 1_554 S
C67 C66 1.413 . S
C67 C71 1.429 . S
C68 C66 1.360 1_556 S
C68 C69 1.372 1_556 S
C69 H64 0.928 1_554 S
C69 C68 1.372 1_554 S
C69 C70 1.404 . S
C70 C69 1.404 . S
C70 C71 1.391 . S
C71 H65 0.930 . S
C71 C67 1.429 . S
C71 C70 1.391 . S
Dy72 O76 2.398 . S
Dy72 O77 2.491 1_455 S
Dy72 O78 2.403 . S
Dy72 O79 2.664 1_565 S
Dy72 O83 2.326 . S
Dy72 O87 2.310 1_455 S
Dy72 O88 2.351 1_565 S
C73 O84 1.185 1_455 S
C73 O85 1.355 . S
C74 O76 1.185 . S
C74 O77 1.355 1_455 S
Dy75 O79 2.310 1_655 S
Dy75 O82 2.351 1_545 S
Dy75 O84 2.398 . S
Dy75 O85 2.491 1_655 S
Dy75 O86 2.403 . S
Dy75 O87 2.664 1_545 S
Dy75 O89 2.326 1_655 S
O76 Dy72 2.398 . S
O76 C74 1.185 . S
O77 Dy72 2.491 1_655 S
O77 C74 1.355 1_655 S
O78 Dy72 2.403 . S
O78 C80 1.254 . S
O79 Dy72 2.664 1_545 S
O79 Dy75 2.310 1_455 S
O79 C80 1.268 1_545 S
C80 O78 1.254 . S
C80 O79 1.268 1_565 S
C81 O86 1.254 . S
C81 O87 1.268 1_545 S
O82 Dy75 2.351 1_565 S
O82 C90 1.249 . S
O83 Dy72 2.326 . S
O83 C90 1.267 1_455 S
O84 C73 1.185 1_655 S
O84 Dy75 2.398 . S
O85 C73 1.355 . S
O85 Dy75 2.491 1_455 S
O86 Dy75 2.403 . S
O86 C81 1.254 . S
O87 Dy72 2.310 1_655 S
O87 Dy75 2.664 1_565 S
O87 C81 1.268 1_565 S
O88 Dy72 2.351 1_545 S
O88 C91 1.249 . S
O89 Dy75 2.326 1_455 S
O89 C91 1.267 . S
C90 O82 1.249 . S
C90 O83 1.267 1_655 S
C91 O88 1.249 . S
C91 O89 1.267 . S
Dy92 O96 2.398 . S
Dy92 O97 2.491 . S
Dy92 O98 2.403 . S
Dy92 O99 2.664 . S
Dy92 O103 2.326 1_565 S
Dy92 O107 2.310 1_565 S
Dy92 O108 2.351 . S
C93 O104 1.185 . S
C93 O105 1.355 . S
C94 O96 1.185 . S
C94 O97 1.355 . S
Dy95 O99 2.310 1_545 S
Dy95 O102 2.351 . S
Dy95 O104 2.398 . S
Dy95 O105 2.491 . S
Dy95 O106 2.403 . S
Dy95 O107 2.664 . S
Dy95 O109 2.326 1_545 S
O96 Dy92 2.398 . S
O96 C94 1.185 . S
O97 Dy92 2.491 . S
O97 C94 1.355 . S
O98 Dy92 2.403 . S
O98 C100 1.254 . S
O99 Dy92 2.664 . S
O99 Dy95 2.310 1_565 S
O99 C100 1.268 . S
C100 O98 1.254 . S
C100 O99 1.268 . S
C101 O106 1.254 . S
C101 O107 1.268 . S
O102 Dy95 2.351 . S
O102 C110 1.249 . S
O103 Dy92 2.326 1_545 S
O103 C110 1.267 . S
O104 C93 1.185 . S
O104 Dy95 2.398 . S
O105 C93 1.355 . S
O105 Dy95 2.491 . S
O106 Dy95 2.403 . S
O106 C101 1.254 . S
O107 Dy92 2.310 1_545 S
O107 Dy95 2.664 . S
O107 C101 1.268 . S
O108 Dy92 2.351 . S
O108 C111 1.249 . S
O109 Dy95 2.326 1_565 S
O109 C111 1.267 . S
C110 O102 1.249 . S
C110 O103 1.267 . S
C111 O108 1.249 . S
C111 O109 1.267 . S
Dy112 O116 2.398 . S
Dy112 O117 2.491 . S
Dy112 O118 2.403 . S
Dy112 O119 2.664 . S
Dy112 O123 2.326 . S
Dy112 O127 2.310 . S
Dy112 O128 2.351 . S
C113 O124 1.185 . S
C113 O125 1.355 . S
C114 O116 1.185 . S
C114 O117 1.355 . S
Dy115 O119 2.310 . S
Dy115 O122 2.351 . S
Dy115 O124 2.398 . S
Dy115 O125 2.491 . S
Dy115 O126 2.403 . S
Dy115 O127 2.664 . S
Dy115 O129 2.326 . S
O116 Dy112 2.398 . S
O116 C114 1.185 . S
O117 Dy112 2.491 . S
O117 C114 1.355 . S
O118 Dy112 2.403 . S
O118 C120 1.254 . S
O119 Dy112 2.664 . S
O119 Dy115 2.310 . S
O119 C120 1.268 . S
C120 O118 1.254 . S
C120 O119 1.268 . S
C121 O126 1.254 . S
C121 O127 1.268 . S
O122 Dy115 2.351 . S
O122 C130 1.249 . S
O123 Dy112 2.326 . S
O123 C130 1.267 . S
O124 C113 1.185 . S
O124 Dy115 2.398 . S
O125 C113 1.355 . S
O125 Dy115 2.491 . S
O126 Dy115 2.403 . S
O126 C121 1.254 . S
O127 Dy112 2.310 . S
O127 Dy115 2.664 . S
O127 C121 1.268 . S
O128 Dy112 2.351 . S
O128 C131 1.249 . S
O129 Dy115 2.326 . S
O129 C131 1.267 . S
C130 O122 1.249 . S
C130 O123 1.267 . S
C131 O128 1.249 . S
C131 O129 1.267 . S
Dy132 O136 2.398 . S
Dy132 O137 2.491 . S
Dy132 O138 2.403 1_655 S
Dy132 O139 2.664 1_655 S
Dy132 O143 2.326 . S
Dy132 O147 2.310 . S
Dy132 O148 2.351 1_655 S
C133 O144 1.185 . S
C133 O145 1.355 . S
C134 O136 1.185 . S
C134 O137 1.355 . S
Dy135 O139 2.310 . S
Dy135 O142 2.351 1_455 S
Dy135 O144 2.398 . S
Dy135 O145 2.491 . S
Dy135 O146 2.403 . S
Dy135 O147 2.664 1_455 S
Dy135 O149 2.326 . S
O136 Dy132 2.398 . S
O136 C134 1.185 . S
O137 Dy132 2.491 . S
O137 C134 1.355 . S
O138 Dy132 2.403 1_455 S
O138 C140 1.254 . S
O139 Dy132 2.664 1_455 S
O139 Dy135 2.310 . S
O139 C140 1.268 . S
C140 O138 1.254 . S
C140 O139 1.268 . S
C141 O146 1.254 1_655 S
C141 O147 1.268 . S
O142 Dy135 2.351 1_655 S
O142 C150 1.249 . S
O143 Dy132 2.326 . S
O143 C150 1.267 . S
O144 C133 1.185 . S
O144 Dy135 2.398 . S
O145 C133 1.355 . S
O145 Dy135 2.491 . S
O146 Dy135 2.403 . S
O146 C141 1.254 1_455 S
O147 Dy132 2.310 . S
O147 Dy135 2.664 1_655 S
O147 C141 1.268 . S
O148 Dy132 2.351 1_455 S
O148 C151 1.249 . S
O149 Dy135 2.326 . S
O149 C151 1.267 . S
C150 O142 1.249 . S
C150 O143 1.267 . S
C151 O148 1.249 . S
C151 O149 1.267 . S
H152 C160 0.929 . S
H153 C162 0.930 . S
H154 C164 0.930 . S
H155 C167 0.929 . S
H156 C170 0.930 . S
H157 C172 0.960 . S
H158 C172 0.960 . S
H159 C172 0.960 . S
C160 H152 0.929 . S
C160 C161 1.393 . S
C160 C162 1.384 . S
C161 C160 1.393 . S
C161 C167 1.374 1_565 S
C162 H153 0.930 . S
C162 C160 1.384 . S
C162 C163 1.372 . S
C163 C162 1.372 . S
C163 C164 1.400 1_565 S
C163 C168 1.490 . S
C164 H154 0.930 . S
C164 C163 1.400 1_545 S
C164 C167 1.386 . S
H165 C181 0.930 . S
H166 C182 0.931 . S
C167 H155 0.929 . S
C167 C161 1.374 1_545 S
C167 C164 1.386 . S
C168 C163 1.490 . S
C168 C170 1.395 1_565 S
C168 C171 1.403 . S
H169 C175 0.930 . S
C170 H156 0.930 . S
C170 C168 1.395 1_545 S
C170 C173 1.403 . S
C171 C168 1.403 . S
C171 C172 1.524 . S
C171 C175 1.400 . S
C172 H157 0.960 . S
C172 H158 0.960 . S
C172 H159 0.960 . S
C172 C171 1.524 . S
C173 C170 1.403 . S
C173 C174 1.392 1_545 S
C173 C177 1.495 . S
C174 C173 1.392 1_565 S
C174 C175 1.385 . S
C174 C176 1.478 . S
C175 H169 0.930 . S
C175 C171 1.400 . S
C175 C174 1.385 . S
C176 C174 1.478 . S
C176 C178 1.381 . S
C176 C182 1.383 1_565 S
C177 C173 1.495 . S
C177 H183 0.959 . S
C177 H184 0.961 . S
C177 H185 0.960 1_545 S
C178 C176 1.381 . S
C178 C179 1.394 . S
C178 H186 0.930 . S
C179 C178 1.394 . S
C179 C180 1.383 . S
C179 H187 0.929 . S
C180 C179 1.383 . S
C180 C181 1.377 1_565 S
C181 H165 0.930 . S
C181 C180 1.377 1_545 S
C181 C182 1.379 . S
C182 H166 0.931 . S
C182 C176 1.383 1_545 S
C182 C181 1.379 . S
H183 C177 0.959 . S
H184 C177 0.961 . S
H185 C177 0.960 1_565 S
H186 C178 0.930 . S
H187 C179 0.929 . S
H188 C196 0.929 . S
H189 C198 0.930 . S
H190 C200 0.930 . S
H191 C203 0.929 . S
H192 C206 0.930 . S
H193 C208 0.960 . S
H194 C208 0.960 . S
H195 C208 0.960 . S
C196 H188 0.929 . S
C196 C197 1.377 . S
C196 C198 1.384 . S
C197 C196 1.377 . S
C197 C203 1.390 . S
C198 H189 0.930 . S
C198 C196 1.384 . S
C198 C199 1.372 . S
C199 C198 1.372 . S
C199 C200 1.400 . S
C199 C204 1.490 . S
C200 H190 0.930 . S
C200 C199 1.400 . S
C200 C203 1.386 . S
H201 C217 0.930 . S
H202 C218 0.931 . S
C203 H191 0.929 . S
C203 C197 1.390 . S
C203 C200 1.386 . S
C204 C199 1.490 . S
C204 C206 1.395 . S
C204 C207 1.403 . S
H205 C211 0.930 . S
C206 H192 0.930 . S
C206 C204 1.395 . S
C206 C209 1.403 . S
C207 C204 1.403 . S
C207 C208 1.524 . S
C207 C211 1.400 . S
C208 H193 0.960 . S
C208 H194 0.960 . S
C208 H195 0.960 . S
C208 C207 1.524 . S
C209 C206 1.403 . S
C209 C210 1.392 . S
C209 C213 1.495 . S
C210 C209 1.392 . S
C210 C211 1.385 . S
C210 C212 1.478 . S
C211 H205 0.930 . S
C211 C207 1.400 . S
C211 C210 1.385 . S
C212 C210 1.478 . S
C212 C214 1.381 . S
C212 C218 1.383 . S
C213 C209 1.495 . S
C213 H219 0.959 . S
C213 H220 0.961 . S
C213 H221 0.960 . S
C214 C212 1.381 . S
C214 C215 1.394 . S
C214 H222 0.930 . S
C215 C214 1.394 . S
C215 C216 1.383 . S
C215 H223 0.929 . S
C216 C215 1.383 . S
C216 C217 1.377 . S
C217 H201 0.930 . S
C217 C216 1.377 . S
C217 C218 1.379 . S
C218 H202 0.931 . S
C218 C212 1.383 . S
C218 C217 1.379 . S
H219 C213 0.959 . S
H220 C213 0.961 . S
H221 C213 0.960 . S
H222 C214 0.930 . S
H223 C215 0.929 . S
H224 C232 0.929 . S
H225 C234 0.930 . S
H226 C236 0.930 . S
H227 C239 0.929 . S
H228 C242 0.930 . S
H229 C244 0.960 . S
H230 C244 0.960 . S
H231 C244 0.960 . S
C232 H224 0.929 . S
C232 C233 1.377 . S
C232 C234 1.384 . S
C233 C232 1.377 . S
C233 C239 1.390 . S
C234 H225 0.930 . S
C234 C232 1.384 . S
C234 C235 1.372 . S
C235 C234 1.372 . S
C235 C236 1.400 . S
C235 C240 1.490 . S
C236 H226 0.930 . S
C236 C235 1.400 . S
C236 C239 1.386 . S
H237 C253 0.930 . S
H238 C254 0.931 . S
C239 H227 0.929 . S
C239 C233 1.390 . S
C239 C236 1.386 . S
C240 C235 1.490 . S
C240 C242 1.395 . S
C240 C243 1.403 . S
H241 C247 0.930 . S
C242 H228 0.930 . S
C242 C240 1.395 . S
C242 C245 1.403 . S
C243 C240 1.403 . S
C243 C244 1.524 . S
C243 C247 1.400 . S
C244 H229 0.960 . S
C244 H230 0.960 . S
C244 H231 0.960 . S
C244 C243 1.524 . S
C245 C242 1.403 . S
C245 C246 1.392 . S
C245 C249 1.495 . S
C246 C245 1.392 . S
C246 C247 1.385 . S
C246 C248 1.478 . S
C247 H241 0.930 . S
C247 C243 1.400 . S
C247 C246 1.385 . S
C248 C246 1.478 . S
C248 C250 1.381 . S
C248 C254 1.383 . S
C249 C245 1.495 . S
C249 H255 0.959 . S
C249 H256 0.961 . S
C249 H257 0.960 . S
C250 C248 1.381 . S
C250 C251 1.394 . S
C250 H258 0.930 . S
C251 C250 1.394 . S
C251 C252 1.383 . S
C251 H259 0.929 . S
C252 C251 1.383 . S
C252 C253 1.377 . S
C253 H237 0.930 . S
C253 C252 1.377 . S
C253 C254 1.379 . S
C254 H238 0.931 . S
C254 C248 1.383 . S
C254 C253 1.379 . S
H255 C249 0.959 . S
H256 C249 0.961 . S
H257 C249 0.960 . S
H258 C250 0.930 . S
H259 C251 0.929 . S
H260 C268 0.929 . S
H261 C270 0.930 . S
H262 C272 0.930 . S
H263 C275 0.929 . S
H264 C278 0.930 . S
H265 C280 0.960 . S
H266 C280 0.960 . S
H267 C280 0.960 . S
C268 H260 0.929 . S
C268 C269 1.377 . S
C268 C270 1.384 . S
C269 C268 1.377 . S
C269 C275 1.390 . S
C270 H261 0.930 . S
C270 C268 1.384 . S
C270 C271 1.372 . S
C271 C270 1.372 . S
C271 C272 1.400 . S
C271 C276 1.490 . S
C272 H262 0.930 . S
C272 C271 1.400 . S
C272 C275 1.386 . S
H273 C289 0.930 . S
H274 C290 0.931 . S
C275 H263 0.929 . S
C275 C269 1.390 . S
C275 C272 1.386 . S
C276 C271 1.490 . S
C276 C278 1.395 . S
C276 C279 1.403 . S
H277 C283 0.930 . S
C278 H264 0.930 . S
C278 C276 1.395 . S
C278 C281 1.403 . S
C279 C276 1.403 . S
C279 C280 1.524 . S
C279 C283 1.400 . S
C280 H265 0.960 . S
C280 H266 0.960 . S
C280 H267 0.960 . S
C280 C279 1.524 . S
C281 C278 1.403 . S
C281 C282 1.392 . S
C281 C285 1.495 . S
C282 C281 1.392 . S
C282 C283 1.385 . S
C282 C284 1.478 . S
C283 H277 0.930 . S
C283 C279 1.400 . S
C283 C282 1.385 . S
C284 C282 1.478 . S
C284 C286 1.381 . S
C284 C290 1.383 . S
C285 C281 1.495 . S
C285 H291 0.959 . S
C285 H292 0.961 . S
C285 H293 0.960 . S
C286 C284 1.381 . S
C286 C287 1.394 . S
C286 H294 0.930 . S
C287 C286 1.394 . S
C287 C288 1.383 . S
C287 H295 0.929 . S
C288 C287 1.383 . S
C288 C289 1.377 . S
C289 H273 0.930 . S
C289 C288 1.377 . S
C289 C290 1.379 . S
C290 H274 0.931 . S
C290 C284 1.383 . S
C290 C289 1.379 . S
H291 C285 0.959 . S
H292 C285 0.961 . S
H293 C285 0.960 . S
H294 C286 0.930 . S
H295 C287 0.929 . S
H296 C304 0.929 . S
H297 C306 0.930 . S
H298 C308 0.930 . S
H299 C311 0.929 . S
H300 C314 0.930 . S
H301 C316 0.960 . S
H302 C316 0.960 . S
H303 C316 0.960 . S
C304 H296 0.929 . S
C304 C305 1.368 1_564 S
C304 C306 1.384 1_554 S
C305 C304 1.368 1_546 S
C305 C311 1.398 . S
C306 H297 0.930 . S
C306 C304 1.384 1_556 S
C306 C307 1.372 1_565 S
C307 C306 1.372 1_545 S
C307 C308 1.400 . S
C307 C312 1.493 . S
C308 H298 0.930 . S
C308 C307 1.400 . S
C308 C311 1.386 . S
H309 C325 0.930 . S
H310 C326 0.931 . S
C311 H299 0.929 . S
C311 C305 1.398 . S
C311 C308 1.386 . S
C312 C307 1.493 . S
C312 C314 1.366 1_545 S
C312 C315 1.428 . S
H313 C319 0.930 . S
C314 H300 0.930 . S
C314 C312 1.366 1_565 S
C314 C317 1.403 . S
C315 C312 1.428 . S
C315 C316 1.524 . S
C315 C319 1.400 . S
C316 H301 0.960 . S
C316 H302 0.960 . S
C316 H303 0.960 . S
C316 C315 1.524 . S
C317 C314 1.403 . S
C317 C318 1.392 . S
C317 C321 1.495 . S
C318 C317 1.392 . S
C318 C319 1.385 1_565 S
C318 C320 1.478 . S
C319 H313 0.930 . S
C319 C315 1.400 . S
C319 C318 1.385 1_545 S
C320 C318 1.478 . S
C320 C322 1.381 . S
C320 C326 1.383 1_565 S
C321 C317 1.495 . S
C321 H327 0.959 . S
C321 H328 0.961 . S
C321 H329 0.960 . S
C322 C320 1.381 . S
C322 C323 1.394 . S
C322 H330 0.930 . S
C323 C322 1.394 . S
C323 C324 1.383 1_565 S
C323 H331 0.929 . S
C324 C323 1.383 1_545 S
C324 C325 1.377 . S
C325 H309 0.930 . S
C325 C324 1.377 . S
C325 C326 1.379 . S
C326 H310 0.931 . S
C326 C320 1.383 1_545 S
C326 C325 1.379 . S
H327 C321 0.959 . S
H328 C321 0.961 . S
H329 C321 0.960 . S
H330 C322 0.930 . S
H331 C323 0.929 . S
H332 C340 0.929 . S
H333 C342 0.930 . S
H334 C344 0.930 . S
H335 C347 0.929 . S
H336 C350 0.930 . S
H337 C352 0.960 . S
H338 C352 0.960 . S
H339 C352 0.960 . S
C340 H332 0.929 . S
C340 C341 1.377 1_556 S
C340 C342 1.384 . S
C341 C340 1.377 1_554 S
C341 C347 1.390 . S
C342 H333 0.930 . S
C342 C340 1.384 . S
C342 C343 1.372 . S
C343 C342 1.372 . S
C343 C344 1.400 . S
C343 C348 1.490 . S
C344 H334 0.930 . S
C344 C343 1.400 . S
C344 C347 1.386 1_556 S
H345 C361 0.930 . S
H346 C362 0.931 . S
C347 H335 0.929 . S
C347 C341 1.390 . S
C347 C344 1.386 1_554 S
C348 C343 1.490 . S
C348 C350 1.395 . S
C348 C351 1.403 . S
H349 C355 0.930 . S
C350 H336 0.930 . S
C350 C348 1.395 . S
C350 C353 1.403 . S
C351 C348 1.403 . S
C351 C352 1.524 . S
C351 C355 1.400 . S
C352 H337 0.960 . S
C352 H338 0.960 . S
C352 H339 0.960 . S
C352 C351 1.524 . S
C353 C350 1.403 . S
C353 C354 1.392 . S
C353 C357 1.495 . S
C354 C353 1.392 . S
C354 C355 1.385 . S
C354 C356 1.478 . S
C355 H349 0.930 . S
C355 C351 1.400 . S
C355 C354 1.385 . S
C356 C354 1.478 . S
C356 C358 1.381 . S
C356 C362 1.383 . S
C357 C353 1.495 . S
C357 H363 0.959 . S
C357 H364 0.961 . S
C357 H365 0.960 . S
C358 C356 1.381 . S
C358 C359 1.394 . S
C358 H366 0.930 . S
C359 C358 1.394 . S
C359 C360 1.383 . S
C359 H367 0.929 . S
C360 C359 1.383 . S
C360 C361 1.377 . S
C361 H345 0.930 . S
C361 C360 1.377 . S
C361 C362 1.379 . S
C362 H346 0.931 . S
C362 C356 1.383 . S
C362 C361 1.379 . S
H363 C357 0.959 . S
H364 C357 0.961 . S
H365 C357 0.960 . S
H366 C358 0.930 . S
H367 C359 0.929 . S
H368 C376 0.929 . S
H369 C378 0.930 . S
H370 C380 0.930 . S
H371 C383 0.929 . S
H372 C386 0.930 . S
H373 C388 0.960 . S
H374 C388 0.960 . S
H375 C388 0.960 . S
C376 H368 0.929 . S
C376 C377 1.377 . S
C376 C378 1.384 . S
C377 C376 1.377 . S
C377 C383 1.390 . S
C378 H369 0.930 . S
C378 C376 1.384 . S
C378 C379 1.372 . S
C379 C378 1.372 . S
C379 C380 1.400 . S
C379 C384 1.490 . S
C380 H370 0.930 . S
C380 C379 1.400 . S
C380 C383 1.386 . S
H381 C397 0.930 . S
H382 C398 0.931 . S
C383 H371 0.929 . S
C383 C377 1.390 . S
C383 C380 1.386 . S
C384 C379 1.490 . S
C384 C386 1.395 . S
C384 C387 1.403 . S
H385 C391 0.930 . S
C386 H372 0.930 . S
C386 C384 1.395 . S
C386 C389 1.403 . S
C387 C384 1.403 . S
C387 C388 1.524 . S
C387 C391 1.400 . S
C388 H373 0.960 . S
C388 H374 0.960 . S
C388 H375 0.960 . S
C388 C387 1.524 . S
C389 C386 1.403 . S
C389 C390 1.392 . S
C389 C393 1.495 . S
C390 C389 1.392 . S
C390 C391 1.385 . S
C390 C392 1.478 . S
C391 H385 0.930 . S
C391 C387 1.400 . S
C391 C390 1.385 . S
C392 C390 1.478 . S
C392 C394 1.381 . S
C392 C398 1.383 . S
C393 C389 1.495 . S
C393 H399 0.959 . S
C393 H400 0.961 . S
C393 H401 0.960 . S
C394 C392 1.381 . S
C394 C395 1.394 . S
C394 H402 0.930 . S
C395 C394 1.394 . S
C395 C396 1.383 . S
C395 H403 0.929 . S
C396 C395 1.383 . S
C396 C397 1.377 . S
C397 H381 0.930 . S
C397 C396 1.377 . S
C397 C398 1.379 . S
C398 H382 0.931 . S
C398 C392 1.383 . S
C398 C397 1.379 . S
H399 C393 0.959 . S
H400 C393 0.961 . S
H401 C393 0.960 . S
H402 C394 0.930 . S
H403 C395 0.929 . S
H404 C412 0.929 1_554 S
H405 C414 0.930 . S
H406 C416 0.930 . S
H407 C419 0.929 . S
H408 C422 0.930 . S
H409 C424 0.960 . S
H410 C424 0.960 . S
H411 C424 0.960 . S
C412 H404 0.929 1_556 S
C412 C413 1.377 . S
C412 C414 1.384 . S
C413 C412 1.377 . S
C413 C419 1.390 . S
C414 H405 0.930 . S
C414 C412 1.384 . S
C414 C415 1.372 . S
C415 C414 1.372 . S
C415 C416 1.400 . S
C415 C420 1.490 . S
C416 H406 0.930 . S
C416 C415 1.400 . S
C416 C419 1.386 . S
H417 C433 0.930 . S
H418 C434 0.931 . S
C419 H407 0.929 . S
C419 C413 1.390 . S
C419 C416 1.386 . S
C420 C415 1.490 . S
C420 C422 1.395 . S
C420 C423 1.403 . S
H421 C427 0.930 . S
C422 H408 0.930 . S
C422 C420 1.395 . S
C422 C425 1.403 . S
C423 C420 1.403 . S
C423 C424 1.524 . S
C423 C427 1.400 . S
C424 H409 0.960 . S
C424 H410 0.960 . S
C424 H411 0.960 . S
C424 C423 1.524 . S
C425 C422 1.403 . S
C425 C426 1.392 . S
C425 C429 1.495 . S
C426 C425 1.392 . S
C426 C427 1.385 . S
C426 C428 1.478 . S
C427 H421 0.930 . S
C427 C423 1.400 . S
C427 C426 1.385 . S
C428 C426 1.478 . S
C428 C430 1.381 . S
C428 C434 1.383 . S
C429 C425 1.495 . S
C429 H435 0.959 . S
C429 H436 0.961 . S
C429 H437 0.960 . S
C430 C428 1.381 . S
C430 C431 1.394 1_655 S
C430 H438 0.930 1_655 S
C431 C430 1.394 1_455 S
C431 C432 1.383 1_455 S
C431 H439 0.929 . S
C432 C431 1.383 1_655 S
C432 C433 1.377 . S
C433 H417 0.930 . S
C433 C432 1.377 . S
C433 C434 1.379 . S
C434 H418 0.931 . S
C434 C428 1.383 . S
C434 C433 1.379 . S
H435 C429 0.959 . S
H436 C429 0.961 . S
H437 C429 0.960 . S
H438 C430 0.930 1_455 S
H439 C431 0.929 . S
H440 C448 0.929 . S
H441 C450 0.930 . S
H442 C452 0.930 . S
H443 C455 0.929 . S
H444 C458 0.930 . S
H445 C460 0.960 . S
H446 C460 0.960 . S
H447 C460 0.960 . S
C448 H440 0.929 . S
C448 C449 1.377 . S
C448 C450 1.384 . S
C449 C448 1.377 . S
C449 C455 1.390 . S
C450 H441 0.930 . S
C450 C448 1.384 . S
C450 C451 1.372 . S
C451 C450 1.372 . S
C451 C452 1.400 . S
C451 C456 1.490 . S
C452 H442 0.930 . S
C452 C451 1.400 . S
C452 C455 1.386 . S
H453 C469 0.930 . S
H454 C470 0.931 1_655 S
C455 H443 0.929 . S
C455 C449 1.390 . S
C455 C452 1.386 . S
C456 C451 1.490 . S
C456 C458 1.395 . S
C456 C459 1.403 . S
H457 C463 0.930 . S
C458 H444 0.930 . S
C458 C456 1.395 . S
C458 C461 1.403 . S
C459 C456 1.403 . S
C459 C460 1.524 . S
C459 C463 1.400 . S
C460 H445 0.960 . S
C460 H446 0.960 . S
C460 H447 0.960 . S
C460 C459 1.524 . S
C461 C458 1.403 . S
C461 C462 1.392 . S
C461 C465 1.495 . S
C462 C461 1.392 . S
C462 C463 1.385 . S
C462 C464 1.478 . S
C463 H457 0.930 . S
C463 C459 1.400 . S
C463 C462 1.385 . S
C464 C462 1.478 . S
C464 C466 1.381 . S
C464 C470 1.383 . S
C465 C461 1.495 . S
C465 H471 0.959 . S
C465 H472 0.961 . S
C465 H473 0.960 . S
C466 C464 1.381 . S
C466 C467 1.394 . S
C466 H474 0.930 . S
C467 C466 1.394 . S
C467 C468 1.383 . S
C467 H475 0.929 . S
C468 C467 1.383 . S
C468 C469 1.377 1_455 S
C469 H453 0.930 . S
C469 C468 1.377 1_655 S
C469 C470 1.379 1_655 S
C470 H454 0.931 1_455 S
C470 C464 1.383 . S
C470 C469 1.379 1_455 S
H471 C465 0.959 . S
H472 C465 0.961 . S
H473 C465 0.960 . S
H474 C466 0.930 . S
H475 C467 0.929 . S
H476 C484 0.929 . S
H477 C486 0.930 . S
H478 C488 0.930 . S
H479 C491 0.929 . S
H480 C494 0.945 . S
H481 C496 0.960 . S
H482 C496 0.960 1_545 S
H483 C496 0.960 . S
C484 H476 0.929 . S
C484 C485 1.377 . S
C484 C486 1.384 . S
C485 C484 1.377 . S
C485 C491 1.390 1_545 S
C486 H477 0.930 . S
C486 C484 1.384 . S
C486 C487 1.341 1_545 S
C487 C486 1.341 1_565 S
C487 C488 1.425 . S
C487 C492 1.496 . S
C488 H478 0.930 . S
C488 C487 1.425 . S
C488 C491 1.386 . S
H489 C505 0.930 . S
H490 C506 0.931 . S
C491 H479 0.929 . S
C491 C485 1.390 1_565 S
C491 C488 1.386 . S
C492 C487 1.496 . S
C492 C494 1.390 1_565 S
C492 C495 1.403 . S
H493 C499 0.930 . S
C494 H480 0.945 . S
C494 C492 1.390 1_545 S
C494 C497 1.394 1_545 S
C495 C492 1.403 . S
C495 C496 1.524 . S
C495 C499 1.400 . S
C496 H481 0.960 . S
C496 H482 0.960 1_565 S
C496 H483 0.960 . S
C496 C495 1.524 . S
C497 C494 1.394 1_565 S
C497 C498 1.398 . S
C497 C501 1.493 1_565 S
C498 C497 1.398 . S
C498 C499 1.385 . S
C498 C500 1.478 . S
C499 H493 0.930 . S
C499 C495 1.400 . S
C499 C498 1.385 . S
C500 C498 1.478 . S
C500 C502 1.381 1_565 S
C500 C506 1.383 . S
C501 C497 1.493 1_545 S
C501 H507 0.959 . S
C501 H508 0.961 1_545 S
C501 H509 0.960 . S
C502 C500 1.381 1_545 S
C502 C503 1.394 . S
C502 H510 0.930 . S
C503 C502 1.394 . S
C503 C504 1.383 1_545 S
C503 H511 0.929 . S
C504 C503 1.383 1_565 S
C504 C505 1.377 . S
C505 H489 0.930 . S
C505 C504 1.377 . S
C505 C506 1.379 . S
C506 H490 0.931 . S
C506 C500 1.383 . S
C506 C505 1.379 . S
H507 C501 0.959 . S
H508 C501 0.961 1_565 S
H509 C501 0.960 . S
H510 C502 0.930 . S
H511 C503 0.929 . S
H512 C520 0.929 . S
H513 C522 0.930 . S
H514 C524 0.930 . S
H515 C527 0.929 . S
H516 C530 0.930 . S
H517 C532 0.960 . S
H518 C532 0.960 . S
H519 C532 0.960 . S
C520 H512 0.929 . S
C520 C521 1.377 . S
C520 C522 1.384 . S
C521 C520 1.377 . S
C521 C527 1.390 . S
C522 H513 0.930 . S
C522 C520 1.384 . S
C522 C523 1.372 . S
C523 C522 1.372 . S
C523 C524 1.400 . S
C523 C528 1.490 . S
C524 H514 0.930 . S
C524 C523 1.400 . S
C524 C527 1.386 . S
H525 C541 0.930 . S
H526 C542 0.931 . S
C527 H515 0.929 . S
C527 C521 1.390 . S
C527 C524 1.386 . S
C528 C523 1.490 . S
C528 C530 1.395 . S
C528 C531 1.403 . S
H529 C535 0.930 . S
C530 H516 0.930 . S
C530 C528 1.395 . S
C530 C533 1.403 . S
C531 C528 1.403 . S
C531 C532 1.524 . S
C531 C535 1.400 . S
C532 H517 0.960 . S
C532 H518 0.960 . S
C532 H519 0.960 . S
C532 C531 1.524 . S
C533 C530 1.403 . S
C533 C534 1.392 . S
C533 C537 1.495 . S
C534 C533 1.392 . S
C534 C535 1.385 . S
C534 C536 1.478 . S
C535 H529 0.930 . S
C535 C531 1.400 . S
C535 C534 1.385 . S
C536 C534 1.478 . S
C536 C538 1.381 . S
C536 C542 1.383 . S
C537 C533 1.495 . S
C537 H543 0.959 . S
C537 H544 0.961 . S
C537 H545 0.960 . S
C538 C536 1.381 . S
C538 C539 1.394 . S
C538 H546 0.930 . S
C539 C538 1.394 . S
C539 C540 1.383 . S
C539 H547 0.929 . S
C540 C539 1.383 . S
C540 C541 1.377 . S
C541 H525 0.930 . S
C541 C540 1.377 . S
C541 C542 1.379 . S
C542 H526 0.931 . S
C542 C536 1.383 . S
C542 C541 1.379 . S
H543 C537 0.959 . S
H544 C537 0.961 . S
H545 C537 0.960 . S
H546 C538 0.930 . S
H547 C539 0.929 . S
H548 C556 0.929 . S
H549 C558 0.930 . S
H550 C560 0.930 . S
H551 C563 0.929 . S
H552 C566 0.930 . S
H553 C568 0.960 . S
H554 C568 0.960 . S
H555 C568 0.960 . S
C556 H548 0.929 . S
C556 C557 1.377 . S
C556 C558 1.384 . S
C557 C556 1.377 . S
C557 C563 1.390 . S
C558 H549 0.930 . S
C558 C556 1.384 . S
C558 C559 1.372 . S
C559 C558 1.372 . S
C559 C560 1.400 . S
C559 C564 1.490 . S
C560 H550 0.930 . S
C560 C559 1.400 . S
C560 C563 1.386 . S
H561 C577 0.930 . S
H562 C578 0.931 . S
C563 H551 0.929 . S
C563 C557 1.390 . S
C563 C560 1.386 . S
C564 C559 1.490 . S
C564 C566 1.395 . S
C564 C567 1.403 . S
H565 C571 0.930 . S
C566 H552 0.930 . S
C566 C564 1.395 . S
C566 C569 1.403 . S
C567 C564 1.403 . S
C567 C568 1.524 . S
C567 C571 1.400 . S
C568 H553 0.960 . S
C568 H554 0.960 . S
C568 H555 0.960 . S
C568 C567 1.524 . S
C569 C566 1.403 . S
C569 C570 1.392 . S
C569 C573 1.495 . S
C570 C569 1.392 . S
C570 C571 1.385 . S
C570 C572 1.478 . S
C571 H565 0.930 . S
C571 C567 1.400 . S
C571 C570 1.385 . S
C572 C570 1.478 . S
C572 C574 1.381 . S
C572 C578 1.383 . S
C573 C569 1.495 . S
C573 H579 0.959 . S
C573 H580 0.961 . S
C573 H581 0.960 . S
C574 C572 1.381 . S
C574 C575 1.394 . S
C574 H582 0.930 . S
C575 C574 1.394 . S
C575 C576 1.383 . S
C575 H583 0.929 . S
C576 C575 1.383 . S
C576 C577 1.377 . S
C577 H561 0.930 . S
C577 C576 1.377 . S
C577 C578 1.379 . S
C578 H562 0.931 . S
C578 C572 1.383 . S
C578 C577 1.379 . S
H579 C573 0.959 . S
H580 C573 0.961 . S
H581 C573 0.960 . S
H582 C574 0.930 . S
H583 C575 0.929 . S
H584 C592 0.929 . S
H585 C594 0.930 . S
H586 C596 0.930 . S
H587 C599 0.929 . S
H588 C602 0.930 . S
H589 C604 0.960 . S
H590 C604 0.960 . S
H591 C604 0.960 . S
C592 H584 0.929 . S
C592 C593 1.377 . S
C592 C594 1.384 . S
C593 C592 1.377 . S
C593 C599 1.390 . S
C594 H585 0.930 . S
C594 C592 1.384 . S
C594 C595 1.372 . S
C595 C594 1.372 . S
C595 C596 1.400 . S
C595 C600 1.490 . S
C596 H586 0.930 . S
C596 C595 1.400 . S
C596 C599 1.386 . S
H597 C613 0.930 . S
H598 C614 0.931 . S
C599 H587 0.929 . S
C599 C593 1.390 . S
C599 C596 1.386 . S
C600 C595 1.490 . S
C600 C602 1.395 . S
C600 C603 1.403 . S
H601 C607 0.930 . S
C602 H588 0.930 . S
C602 C600 1.395 . S
C602 C605 1.403 . S
C603 C600 1.403 . S
C603 C604 1.524 . S
C603 C607 1.400 . S
C604 H589 0.960 . S
C604 H590 0.960 . S
C604 H591 0.960 . S
C604 C603 1.524 . S
C605 C602 1.403 . S
C605 C606 1.392 . S
C605 C609 1.495 . S
C606 C605 1.392 . S
C606 C607 1.385 . S
C606 C608 1.478 . S
C607 H601 0.930 . S
C607 C603 1.400 . S
C607 C606 1.385 . S
C608 C606 1.478 . S
C608 C610 1.381 1_655 S
C608 C614 1.383 . S
C609 C605 1.495 . S
C609 H615 0.959 . S
C609 H616 0.961 . S
C609 H617 0.960 . S
C610 C608 1.381 1_455 S
C610 C611 1.394 . S
C610 H618 0.930 . S
C611 C610 1.394 . S
C611 C612 1.383 . S
C611 H619 0.929 . S
C612 C611 1.383 . S
C612 C613 1.377 1_455 S
C613 H597 0.930 . S
C613 C612 1.377 1_655 S
C613 C614 1.379 . S
C614 H598 0.931 . S
C614 C608 1.383 . S
C614 C613 1.379 . S
H615 C609 0.959 . S
H616 C609 0.961 . S
H617 C609 0.960 . S
H618 C610 0.930 . S
H619 C611 0.929 . S
H620 C628 0.929 . S
H621 C630 0.930 . S
H622 C632 0.930 . S
H623 C635 0.929 1_554 S
H624 C638 0.930 . S
H625 C640 0.960 . S
H626 C640 0.960 . S
H627 C640 0.960 . S
C628 H620 0.929 . S
C628 C629 1.411 . S
C628 C630 1.384 . S
C629 C628 1.411 . S
C629 C635 1.350 1_565 S
C630 H621 0.930 . S
C630 C628 1.384 . S
C630 C631 1.372 1_565 S
C631 C630 1.372 1_545 S
C631 C632 1.400 . S
C631 C636 1.490 . S
C632 H622 0.930 . S
C632 C631 1.400 . S
C632 C635 1.386 . S
H633 C649 0.930 . S
H634 C650 0.931 . S
C635 H623 0.929 1_556 S
C635 C629 1.350 1_545 S
C635 C632 1.386 . S
C636 C631 1.490 . S
C636 C638 1.395 1_545 S
C636 C639 1.403 . S
H637 C643 0.930 . S
C638 H624 0.930 . S
C638 C636 1.395 1_565 S
C638 C641 1.403 . S
C639 C636 1.403 . S
C639 C640 1.524 . S
C639 C643 1.400 . S
C640 H625 0.960 . S
C640 H626 0.960 . S
C640 H627 0.960 . S
C640 C639 1.524 . S
C641 C638 1.403 . S
C641 C642 1.392 1_565 S
C641 C645 1.495 . S
C642 C641 1.392 1_545 S
C642 C643 1.385 . S
C642 C644 1.478 . S
C643 H637 0.930 . S
C643 C639 1.400 . S
C643 C642 1.385 . S
C644 C642 1.478 . S
C644 C646 1.381 1_545 S
C644 C650 1.383 . S
C645 C641 1.495 . S
C645 H651 0.959 . S
C645 H652 0.961 . S
C645 H653 0.960 . S
C646 C644 1.381 1_565 S
C646 C647 1.394 . S
C646 H654 0.930 . S
C647 C646 1.394 . S
C647 C648 1.383 1_565 S
C647 H655 0.929 . S
C648 C647 1.383 1_545 S
C648 C649 1.377 . S
C649 H633 0.930 . S
C649 C648 1.377 . S
C649 C650 1.379 . S
C650 H634 0.931 . S
C650 C644 1.383 . S
C650 C649 1.379 . S
H651 C645 0.959 . S
H652 C645 0.961 . S
H653 C645 0.960 . S
H654 C646 0.930 . S
H655 C647 0.929 . S
H656 C664 0.929 1_554 S
H657 C666 0.930 . S
H658 C668 0.930 . S
H659 C671 0.929 . S
H660 C674 0.930 . S
H661 C676 0.960 . S
H662 C676 0.960 . S
H663 C676 0.960 . S
C664 H656 0.929 1_556 S
C664 C665 1.377 . S
C664 C666 1.384 . S
C665 C664 1.377 . S
C665 C671 1.390 . S
C666 H657 0.930 . S
C666 C664 1.384 . S
C666 C667 1.372 . S
C667 C666 1.372 . S
C667 C668 1.400 . S
C667 C672 1.490 . S
C668 H658 0.930 . S
C668 C667 1.400 . S
C668 C671 1.386 . S
H669 C685 0.930 . S
H670 C686 0.931 . S
C671 H659 0.929 . S
C671 C665 1.390 . S
C671 C668 1.386 . S
C672 C667 1.490 . S
C672 C674 1.395 . S
C672 C675 1.403 . S
H673 C679 0.930 . S
C674 H660 0.930 . S
C674 C672 1.395 . S
C674 C677 1.403 . S
C675 C672 1.403 . S
C675 C676 1.524 . S
C675 C679 1.400 . S
C676 H661 0.960 . S
C676 H662 0.960 . S
C676 H663 0.960 . S
C676 C675 1.524 . S
C677 C674 1.403 . S
C677 C678 1.392 . S
C677 C681 1.495 . S
C678 C677 1.392 . S
C678 C679 1.385 . S
C678 C680 1.478 . S
C679 H673 0.930 . S
C679 C675 1.400 . S
C679 C678 1.385 . S
C680 C678 1.478 . S
C680 C682 1.381 . S
C680 C686 1.383 . S
C681 C677 1.495 . S
C681 H687 0.959 . S
C681 H688 0.961 . S
C681 H689 0.960 . S
C682 C680 1.381 . S
C682 C683 1.394 . S
C682 H690 0.930 . S
C683 C682 1.394 . S
C683 C684 1.383 . S
C683 H691 0.929 . S
C684 C683 1.383 . S
C684 C685 1.377 . S
C685 H669 0.930 . S
C685 C684 1.377 . S
C685 C686 1.379 . S
C686 H670 0.931 . S
C686 C680 1.383 . S
C686 C685 1.379 . S
H687 C681 0.959 . S
H688 C681 0.961 . S
H689 C681 0.960 . S
H690 C682 0.930 . S
H691 C683 0.929 . S
H692 C700 0.929 . S
H693 C702 0.930 . S
H694 C704 0.930 . S
H695 C707 0.929 1_554 S
H696 C710 0.930 . S
H697 C712 0.960 . S
H698 C712 0.960 . S
H699 C712 0.960 . S
C700 H692 0.929 . S
C700 C701 1.377 . S
C700 C702 1.384 . S
C701 C700 1.377 . S
C701 C707 1.390 . S
C702 H693 0.930 . S
C702 C700 1.384 . S
C702 C703 1.372 . S
C703 C702 1.372 . S
C703 C704 1.400 . S
C703 C708 1.490 . S
C704 H694 0.930 . S
C704 C703 1.400 . S
C704 C707 1.386 . S
H705 C721 0.930 . S
H706 C722 0.931 . S
C707 H695 0.929 1_556 S
C707 C701 1.390 . S
C707 C704 1.386 . S
C708 C703 1.490 . S
C708 C710 1.395 . S
C708 C711 1.403 . S
H709 C715 0.930 . S
C710 H696 0.930 . S
C710 C708 1.395 . S
C710 C713 1.403 . S
C711 C708 1.403 . S
C711 C712 1.524 . S
C711 C715 1.400 . S
C712 H697 0.960 . S
C712 H698 0.960 . S
C712 H699 0.960 . S
C712 C711 1.524 . S
C713 C710 1.403 . S
C713 C714 1.392 . S
C713 C717 1.495 . S
C714 C713 1.392 . S
C714 C715 1.385 . S
C714 C716 1.478 . S
C715 H709 0.930 . S
C715 C711 1.400 . S
C715 C714 1.385 . S
C716 C714 1.478 . S
C716 C718 1.381 . S
C716 C722 1.383 . S
C717 C713 1.495 . S
C717 H723 0.959 . S
C717 H724 0.961 . S
C717 H725 0.960 . S
C718 C716 1.381 . S
C718 C719 1.394 . S
C718 H726 0.930 . S
C719 C718 1.394 . S
C719 C720 1.383 . S
C719 H727 0.929 . S
C720 C719 1.383 . S
C720 C721 1.377 . S
C721 H705 0.930 . S
C721 C720 1.377 . S
C721 C722 1.379 . S
C722 H706 0.931 . S
C722 C716 1.383 . S
C722 C721 1.379 . S
H723 C717 0.959 . S
H724 C717 0.961 . S
H725 C717 0.960 . S
H726 C718 0.930 . S
H727 C719 0.929 . S
H728 C736 0.929 . S
H729 C738 0.930 . S
H730 C740 0.930 . S
H731 C743 0.929 . S
H732 C746 0.930 . S
H733 C748 0.960 . S
H734 C748 0.960 . S
H735 C748 0.960 . S
C736 H728 0.929 . S
C736 C737 1.377 . S
C736 C738 1.384 . S
C737 C736 1.377 . S
C737 C743 1.390 1_556 S
C738 H729 0.930 . S
C738 C736 1.384 . S
C738 C739 1.372 . S
C739 C738 1.372 . S
C739 C740 1.400 . S
C739 C744 1.490 . S
C740 H730 0.930 . S
C740 C739 1.400 . S
C740 C743 1.386 1_556 S
H741 C757 0.930 . S
H742 C758 0.931 . S
C743 H731 0.929 . S
C743 C737 1.390 1_554 S
C743 C740 1.386 1_554 S
C744 C739 1.490 . S
C744 C746 1.395 . S
C744 C747 1.403 . S
H745 C751 0.930 . S
C746 H732 0.930 . S
C746 C744 1.395 . S
C746 C749 1.403 . S
C747 C744 1.403 . S
C747 C748 1.524 . S
C747 C751 1.400 . S
C748 H733 0.960 . S
C748 H734 0.960 . S
C748 H735 0.960 . S
C748 C747 1.524 . S
C749 C746 1.403 . S
C749 C750 1.392 . S
C749 C753 1.495 . S
C750 C749 1.392 . S
C750 C751 1.385 . S
C750 C752 1.478 . S
C751 H745 0.930 . S
C751 C747 1.400 . S
C751 C750 1.385 . S
C752 C750 1.478 . S
C752 C754 1.381 . S
C752 C758 1.383 . S
C753 C749 1.495 . S
C753 H759 0.959 . S
C753 H760 0.961 . S
C753 H761 0.960 . S
C754 C752 1.381 . S
C754 C755 1.394 . S
C754 H762 0.930 . S
C755 C754 1.394 . S
C755 C756 1.383 . S
C755 H763 0.929 . S
C756 C755 1.383 . S
C756 C757 1.377 . S
C757 H741 0.930 . S
C757 C756 1.377 . S
C757 C758 1.379 . S
C758 H742 0.931 . S
C758 C752 1.383 . S
C758 C757 1.379 . S
H759 C753 0.959 . S
H760 C753 0.961 . S
H761 C753 0.960 . S
H762 C754 0.930 . S
H763 C755 0.929 . S
H764 C772 0.929 1_554 S
H765 C774 0.930 . S
H766 C776 0.930 . S
H767 C779 0.929 . S
H768 C782 0.930 . S
H769 C784 0.960 . S
H770 C784 0.960 . S
H771 C784 0.960 . S
C772 H764 0.929 1_556 S
C772 C773 1.391 . S
C772 C774 1.384 . S
C773 C772 1.391 . S
C773 C779 1.376 1_545 S
C774 H765 0.930 . S
C774 C772 1.384 . S
C774 C775 1.372 . S
C775 C774 1.372 . S
C775 C776 1.400 1_545 S
C775 C780 1.490 . S
C776 H766 0.930 . S
C776 C775 1.400 1_565 S
C776 C779 1.386 . S
H777 C793 0.930 . S
H778 C794 0.931 . S
C779 H767 0.929 . S
C779 C773 1.376 1_565 S
C779 C776 1.386 . S
C780 C775 1.490 . S
C780 C782 1.395 1_545 S
C780 C783 1.403 . S
H781 C787 0.930 . S
C782 H768 0.930 . S
C782 C780 1.395 1_565 S
C782 C785 1.403 . S
C783 C780 1.403 . S
C783 C784 1.524 . S
C783 C787 1.400 . S
C784 H769 0.960 . S
C784 H770 0.960 . S
C784 H771 0.960 . S
C784 C783 1.524 . S
C785 C782 1.403 . S
C785 C786 1.392 1_565 S
C785 C789 1.495 . S
C786 C785 1.392 1_545 S
C786 C787 1.385 . S
C786 C788 1.478 . S
C787 H781 0.930 . S
C787 C783 1.400 . S
C787 C786 1.385 . S
C788 C786 1.478 . S
C788 C790 1.381 . S
C788 C794 1.383 1_545 S
C789 C785 1.495 . S
C789 H795 0.959 . S
C789 H796 0.961 . S
C789 H797 0.960 . S
C790 C788 1.381 . S
C790 C791 1.394 . S
C790 H798 0.930 . S
C791 C790 1.394 . S
C791 C792 1.383 . S
C791 H799 0.929 . S
C792 C791 1.383 . S
C792 C793 1.377 1_545 S
C793 H777 0.930 . S
C793 C792 1.377 1_565 S
C793 C794 1.379 . S
C794 H778 0.931 . S
C794 C788 1.383 1_565 S
C794 C793 1.379 . S
H795 C789 0.959 . S
H796 C789 0.961 . S
H797 C789 0.960 . S
H798 C790 0.930 . S
H799 C791 0.929 . S
H800 C808 0.929 . S
H801 C810 0.930 . S
H802 C812 0.930 . S
H803 C815 0.929 . S
H804 C818 0.930 . S
H805 C820 0.960 . S
H806 C820 0.960 . S
H807 C820 0.960 . S
C808 H800 0.929 . S
C808 C809 1.377 . S
C808 C810 1.384 . S
C809 C808 1.377 . S
C809 C815 1.390 . S
C810 H801 0.930 . S
C810 C808 1.384 . S
C810 C811 1.372 . S
C811 C810 1.372 . S
C811 C812 1.400 . S
C811 C816 1.490 . S
C812 H802 0.930 . S
C812 C811 1.400 . S
C812 C815 1.386 . S
H813 C829 0.930 . S
H814 C830 0.931 . S
C815 H803 0.929 . S
C815 C809 1.390 . S
C815 C812 1.386 . S
C816 C811 1.490 . S
C816 C818 1.395 . S
C816 C819 1.403 . S
H817 C823 0.930 . S
C818 H804 0.930 . S
C818 C816 1.395 . S
C818 C821 1.403 . S
C819 C816 1.403 . S
C819 C820 1.524 . S
C819 C823 1.400 . S
C820 H805 0.960 . S
C820 H806 0.960 . S
C820 H807 0.960 . S
C820 C819 1.524 . S
C821 C818 1.403 . S
C821 C822 1.392 . S
C821 C825 1.495 . S
C822 C821 1.392 . S
C822 C823 1.385 . S
C822 C824 1.478 . S
C823 H817 0.930 . S
C823 C819 1.400 . S
C823 C822 1.385 . S
C824 C822 1.478 . S
C824 C826 1.381 . S
C824 C830 1.383 . S
C825 C821 1.495 . S
C825 H831 0.959 . S
C825 H832 0.961 . S
C825 H833 0.960 . S
C826 C824 1.381 . S
C826 C827 1.394 . S
C826 H834 0.930 . S
C827 C826 1.394 . S
C827 C828 1.383 . S
C827 H835 0.929 . S
C828 C827 1.383 . S
C828 C829 1.377 . S
C829 H813 0.930 . S
C829 C828 1.377 . S
C829 C830 1.379 . S
C830 H814 0.931 . S
C830 C824 1.383 . S
C830 C829 1.379 . S
H831 C825 0.959 . S
H832 C825 0.961 . S
H833 C825 0.960 . S
H834 C826 0.930 . S
H835 C827 0.929 . S
H836 C844 0.929 1_554 S
H837 C846 0.930 . S
H838 C848 0.930 . S
H839 C851 0.929 . S
H840 C854 0.930 . S
H841 C856 0.960 . S
H842 C856 0.960 . S
H843 C856 0.960 . S
C844 H836 0.929 1_556 S
C844 C845 1.377 . S
C844 C846 1.384 . S
C845 C844 1.377 . S
C845 C851 1.390 . S
C846 H837 0.930 . S
C846 C844 1.384 . S
C846 C847 1.372 . S
C847 C846 1.372 . S
C847 C848 1.400 . S
C847 C852 1.490 . S
C848 H838 0.930 . S
C848 C847 1.400 . S
C848 C851 1.386 . S
H849 C865 0.930 . S
H850 C866 0.931 . S
C851 H839 0.929 . S
C851 C845 1.390 . S
C851 C848 1.386 . S
C852 C847 1.490 . S
C852 C854 1.395 . S
C852 C855 1.403 . S
H853 C859 0.930 . S
C854 H840 0.930 . S
C854 C852 1.395 . S
C854 C857 1.403 . S
C855 C852 1.403 . S
C855 C856 1.524 . S
C855 C859 1.400 . S
C856 H841 0.960 . S
C856 H842 0.960 . S
C856 H843 0.960 . S
C856 C855 1.524 . S
C857 C854 1.403 . S
C857 C858 1.392 . S
C857 C861 1.495 . S
C858 C857 1.392 . S
C858 C859 1.385 . S
C858 C860 1.478 . S
C859 H853 0.930 . S
C859 C855 1.400 . S
C859 C858 1.385 . S
C860 C858 1.478 . S
C860 C862 1.381 . S
C860 C866 1.383 . S
C861 C857 1.495 . S
C861 H867 0.959 . S
C861 H868 0.961 . S
C861 H869 0.960 . S
C862 C860 1.381 . S
C862 C863 1.394 . S
C862 H870 0.930 . S
C863 C862 1.394 . S
C863 C864 1.383 . S
C863 H871 0.929 . S
C864 C863 1.383 . S
C864 C865 1.377 . S
C865 H849 0.930 . S
C865 C864 1.377 . S
C865 C866 1.379 . S
C866 H850 0.931 . S
C866 C860 1.383 . S
C866 C865 1.379 . S
H867 C861 0.959 . S
H868 C861 0.961 . S
H869 C861 0.960 . S
H870 C862 0.930 . S
H871 C863 0.929 . S
H872 C880 0.929 . S
H873 C882 0.930 . S
H874 C884 0.930 . S
H875 C887 0.929 . S
H876 C890 0.930 . S
H877 C892 0.960 . S
H878 C892 0.960 . S
H879 C892 0.960 . S
C880 H872 0.929 . S
C880 C881 1.377 . S
C880 C882 1.384 . S
C881 C880 1.377 . S
C881 C887 1.390 . S
C882 H873 0.930 . S
C882 C880 1.384 . S
C882 C883 1.372 . S
C883 C882 1.372 . S
C883 C884 1.400 . S
C883 C888 1.490 . S
C884 H874 0.930 . S
C884 C883 1.400 . S
C884 C887 1.386 . S
H885 C901 0.930 1_455 S
H886 C902 0.931 . S
C887 H875 0.929 . S
C887 C881 1.390 . S
C887 C884 1.386 . S
C888 C883 1.490 . S
C888 C890 1.395 . S
C888 C891 1.403 . S
H889 C895 0.930 . S
C890 H876 0.930 . S
C890 C888 1.395 . S
C890 C893 1.403 . S
C891 C888 1.403 . S
C891 C892 1.524 . S
C891 C895 1.400 . S
C892 H877 0.960 . S
C892 H878 0.960 . S
C892 H879 0.960 . S
C892 C891 1.524 . S
C893 C890 1.403 . S
C893 C894 1.392 . S
C893 C897 1.495 . S
C894 C893 1.392 . S
C894 C895 1.385 . S
C894 C896 1.478 . S
C895 H889 0.930 . S
C895 C891 1.400 . S
C895 C894 1.385 . S
C896 C894 1.478 . S
C896 C898 1.381 . S
C896 C902 1.383 . S
C897 C893 1.495 . S
C897 H903 0.959 . S
C897 H904 0.961 . S
C897 H905 0.960 . S
C898 C896 1.381 . S
C898 C899 1.394 . S
C898 H906 0.930 . S
C899 C898 1.394 . S
C899 C900 1.383 . S
C899 H907 0.929 . S
C900 C899 1.383 . S
C900 C901 1.377 . S
C901 H885 0.930 1_655 S
C901 C900 1.377 . S
C901 C902 1.379 . S
C902 H886 0.931 . S
C902 C896 1.383 . S
C902 C901 1.379 . S
H903 C897 0.959 . S
H904 C897 0.961 . S
H905 C897 0.960 . S
H906 C898 0.930 . S
H907 C899 0.929 . S
H908 C916 0.929 . S
H909 C918 0.930 . S
H910 C920 0.930 . S
H911 C923 0.929 . S
H912 C926 0.930 . S
H913 C928 0.960 . S
H914 C928 0.960 1_565 S
H915 C928 0.960 . S
C916 H908 0.929 . S
C916 C917 1.390 . S
C916 C918 1.384 . S
C917 C916 1.390 . S
C917 C923 1.376 1_565 S
C918 H909 0.930 . S
C918 C916 1.384 . S
C918 C919 1.372 . S
C919 C918 1.372 . S
C919 C920 1.400 1_565 S
C919 C924 1.490 . S
C920 H910 0.930 . S
C920 C919 1.400 1_545 S
C920 C923 1.386 . S
H921 C937 0.930 . S
H922 C938 0.931 . S
C923 H911 0.929 . S
C923 C917 1.376 1_545 S
C923 C920 1.386 . S
C924 C919 1.490 . S
C924 C926 1.395 . S
C924 C927 1.403 1_565 S
H925 C931 0.930 . S
C926 H912 0.930 . S
C926 C924 1.395 . S
C926 C929 1.403 . S
C927 C924 1.403 1_545 S
C927 C928 1.524 . S
C927 C931 1.400 . S
C928 H913 0.960 . S
C928 H914 0.960 1_545 S
C928 H915 0.960 . S
C928 C927 1.524 . S
C929 C926 1.403 . S
C929 C930 1.392 . S
C929 C933 1.495 . S
C930 C929 1.392 . S
C930 C931 1.385 1_565 S
C930 C932 1.478 . S
C931 H925 0.930 . S
C931 C927 1.400 . S
C931 C930 1.385 1_545 S
C932 C930 1.478 . S
C932 C934 1.381 . S
C932 C938 1.383 1_565 S
C933 C929 1.495 . S
C933 H939 0.959 . S
C933 H940 0.961 . S
C933 H941 0.960 . S
C934 C932 1.381 . S
C934 C935 1.394 . S
C934 H942 0.930 . S
C935 C934 1.394 . S
C935 C936 1.383 . S
C935 H943 0.929 . S
C936 C935 1.383 . S
C936 C937 1.377 1_565 S
C937 H921 0.930 . S
C937 C936 1.377 1_545 S
C937 C938 1.379 . S
C938 H922 0.931 . S
C938 C932 1.383 1_545 S
C938 C937 1.379 . S
H939 C933 0.959 . S
H940 C933 0.961 . S
H941 C933 0.960 . S
H942 C934 0.930 . S
H943 C935 0.929 . S
H944 C952 0.929 . S
H945 C954 0.930 . S
H946 C956 0.930 . S
H947 C959 0.929 . S
H948 C962 0.930 . S
H949 C964 0.960 . S
H950 C964 0.960 . S
H951 C964 0.960 . S
C952 H944 0.929 . S
C952 C953 1.377 . S
C952 C954 1.384 . S
C953 C952 1.377 . S
C953 C959 1.390 . S
C954 H945 0.930 . S
C954 C952 1.384 . S
C954 C955 1.372 . S
C955 C954 1.372 . S
C955 C956 1.400 . S
C955 C960 1.490 . S
C956 H946 0.930 . S
C956 C955 1.400 . S
C956 C959 1.386 . S
H957 C973 0.930 . S
H958 C974 0.931 . S
C959 H947 0.929 . S
C959 C953 1.390 . S
C959 C956 1.386 . S
C960 C955 1.490 . S
C960 C962 1.395 . S
C960 C963 1.403 . S
H961 C967 0.930 . S
C962 H948 0.930 . S
C962 C960 1.395 . S
C962 C965 1.403 . S
C963 C960 1.403 . S
C963 C964 1.524 . S
C963 C967 1.400 . S
C964 H949 0.960 . S
C964 H950 0.960 . S
C964 H951 0.960 . S
C964 C963 1.524 . S
C965 C962 1.403 . S
C965 C966 1.392 . S
C965 C969 1.495 . S
C966 C965 1.392 . S
C966 C967 1.385 . S
C966 C968 1.478 . S
C967 H961 0.930 . S
C967 C963 1.400 . S
C967 C966 1.385 . S
C968 C966 1.478 . S
C968 C970 1.381 . S
C968 C974 1.383 . S
C969 C965 1.495 . S
C969 H975 0.959 . S
C969 H976 0.961 . S
C969 H977 0.960 . S
C970 C968 1.381 . S
C970 C971 1.394 . S
C970 H978 0.930 . S
C971 C970 1.394 . S
C971 C972 1.383 . S
C971 H979 0.929 . S
C972 C971 1.383 . S
C972 C973 1.377 . S
C973 H957 0.930 . S
C973 C972 1.377 . S
C973 C974 1.379 . S
C974 H958 0.931 . S
C974 C968 1.383 . S
C974 C973 1.379 . S
H975 C969 0.959 . S
H976 C969 0.961 . S
H977 C969 0.960 . S
H978 C970 0.930 . S
H979 C971 0.929 . S
H980 C988 0.929 . S
H981 C990 0.930 . S
H982 C992 0.930 . S
H983 C995 0.929 . S
H984 C998 0.930 . S
H985 C1000 0.960 . S
H986 C1000 0.960 . S
H987 C1000 0.960 . S
C988 H980 0.929 . S
C988 C989 1.377 . S
C988 C990 1.384 . S
C989 C988 1.377 . S
C989 C995 1.390 . S
C990 H981 0.930 . S
C990 C988 1.384 . S
C990 C991 1.372 . S
C991 C990 1.372 . S
C991 C992 1.400 . S
C991 C996 1.490 . S
C992 H982 0.930 . S
C992 C991 1.400 . S
C992 C995 1.386 . S
H993 C1009 0.930 . S
H994 C1010 0.931 . S
C995 H983 0.929 . S
C995 C989 1.390 . S
C995 C992 1.386 . S
C996 C991 1.490 . S
C996 C998 1.395 . S
C996 C999 1.403 . S
H997 C1003 0.930 . S
C998 H984 0.930 . S
C998 C996 1.395 . S
C998 C1001 1.403 . S
C999 C996 1.403 . S
C999 C1000 1.524 . S
C999 C1003 1.400 . S
C1000 H985 0.960 . S
C1000 H986 0.960 . S
C1000 H987 0.960 . S
C1000 C999 1.524 . S
C1001 C998 1.403 . S
C1001 C1002 1.392 . S
C1001 C1005 1.495 . S
C1002 C1001 1.392 . S
C1002 C1003 1.385 . S
C1002 C1004 1.478 . S
C1003 H997 0.930 . S
C1003 C999 1.400 . S
C1003 C1002 1.385 . S
C1004 C1002 1.478 . S
C1004 C1006 1.381 . S
C1004 C1010 1.383 . S
C1005 C1001 1.495 . S
C1005 H1011 0.959 . S
C1005 H1012 0.961 . S
C1005 H1013 0.960 . S
C1006 C1004 1.381 . S
C1006 C1007 1.394 . S
C1006 H1014 0.930 . S
C1007 C1006 1.394 . S
C1007 C1008 1.383 . S
C1007 H1015 0.929 . S
C1008 C1007 1.383 . S
C1008 C1009 1.377 . S
C1009 H993 0.930 . S
C1009 C1008 1.377 . S
C1009 C1010 1.379 . S
C1010 H994 0.931 . S
C1010 C1004 1.383 . S
C1010 C1009 1.379 . S
H1011 C1005 0.959 . S
H1012 C1005 0.961 . S
H1013 C1005 0.960 . S
H1014 C1006 0.930 . S
H1015 C1007 0.929 . S
C161 C61 1.469 . S
C180 C80 1.493 . S
C216 C110 1.921 . S
C197 C70 1.876 . S
C252 C120 1.461 . S
C233 C43 1.449 . S
C288 C140 1.340 . S
C269 C52 1.289 . S
C324 C81 1.504 . S
C305 C25 1.473 1_546 S
C341 C34 1.872 . S
C360 C111 1.922 . S
C377 C7 1.444 1_556 S
C396 C121 1.478 . S
C413 C16 1.295 . S
C432 C141 1.347 . S
C468 C73 0.534 . S
C449 C50 0.499 . S
C504 C94 0.147 . S
C485 C59 0.247 1_545 S
C540 C113 0.708 . S
C521 C67 0.718 . S
C557 C41 0.385 . S
C576 C133 0.464 . S
C593 C14 0.474 . S
C612 C74 0.545 . S
C648 C93 0.282 . S
C629 C23 0.261 . S
C684 C114 0.694 . S
C665 C31 0.738 1_556 S
C701 C5 0.413 . S
C720 C134 0.439 . S
C737 C49 1.690 1_556 S
C756 C91 1.774 . S
C773 C58 1.191 1_546 S
C792 C101 1.254 . S
C828 C131 1.816 . S
C809 C68 1.736 . S
C864 C151 1.796 . S
C845 C40 1.734 1_556 S
C881 C13 1.688 . S
C900 C90 1.780 . S
C936 C100 1.261 . S
C917 C22 1.185 . S
C972 C130 1.815 . S
C953 C32 1.740 . S
C989 C4 1.728 . S
C1008 C150 1.823 . S
