# Generated by pormake.
# Topology zzz, (3,6)-cn, num edge types: 1
# Building blocks:
#     Node 0, Type 0, BuildingBlock: VETTIZ_charged_linker_0, # of connection points: 3
#     Node 1, Type 0, BuildingBlock: VETTIZ_charged_linker_0, # of connection points: 3
#     Node 2, Type 0, BuildingBlock: VETTIZ_charged_linker_0, # of connection points: 3
#     Node 3, Type 0, BuildingBlock: VETTIZ_charged_linker_0, # of connection points: 3
#     Node 4, Type 0, BuildingBlock: VETTIZ_charged_linker_0, # of connection points: 3
#     Node 5, Type 0, BuildingBlock: VETTIZ_charged_linker_0, # of connection points: 3
#     Node 6, Type 0, BuildingBlock: VETTIZ_charged_linker_0, # of connection points: 3
#     Node 7, Type 0, BuildingBlock: VETTIZ_charged_linker_0, # of connection points: 3
#     Node 8, Type 1, BuildingBlock: KUMBUR_clean_sbu_0, # of connection points: 6
#     Node 9, Type 1, BuildingBlock: KUMBUR_clean_sbu_0, # of connection points: 6
#     Node 10, Type 1, BuildingBlock: KUMBUR_clean_sbu_0, # of connection points: 6
#     Node 11, Type 1, BuildingBlock: KUMBUR_clean_sbu_0, # of connection points: 6
#     Edge 12, Type (0, 1), BuildingBlock: KIFKEQ_clean_linker_1, # of connection points: 2
#     Edge 13, Type (0, 1), BuildingBlock: KIFKEQ_clean_linker_1, # of connection points: 2
#     Edge 14, Type (0, 1), BuildingBlock: KIFKEQ_clean_linker_1, # of connection points: 2
#     Edge 15, Type (0, 1), BuildingBlock: KIFKEQ_clean_linker_1, # of connection points: 2
#     Edge 16, Type (0, 1), BuildingBlock: KIFKEQ_clean_linker_1, # of connection points: 2
#     Edge 17, Type (0, 1), BuildingBlock: KIFKEQ_clean_linker_1, # of connection points: 2
#     Edge 18, Type (0, 1), BuildingBlock: KIFKEQ_clean_linker_1, # of connection points: 2
#     Edge 19, Type (0, 1), BuildingBlock: KIFKEQ_clean_linker_1, # of connection points: 2
#     Edge 20, Type (0, 1), BuildingBlock: KIFKEQ_clean_linker_1, # of connection points: 2
#     Edge 21, Type (0, 1), BuildingBlock: KIFKEQ_clean_linker_1, # of connection points: 2
#     Edge 22, Type (0, 1), BuildingBlock: KIFKEQ_clean_linker_1, # of connection points: 2
#     Edge 23, Type (0, 1), BuildingBlock: KIFKEQ_clean_linker_1, # of connection points: 2
#     Edge 24, Type (0, 1), BuildingBlock: KIFKEQ_clean_linker_1, # of connection points: 2
#     Edge 25, Type (0, 1), BuildingBlock: KIFKEQ_clean_linker_1, # of connection points: 2
#     Edge 26, Type (0, 1), BuildingBlock: KIFKEQ_clean_linker_1, # of connection points: 2
#     Edge 27, Type (0, 1), BuildingBlock: KIFKEQ_clean_linker_1, # of connection points: 2
#     Edge 28, Type (0, 1), BuildingBlock: KIFKEQ_clean_linker_1, # of connection points: 2
#     Edge 29, Type (0, 1), BuildingBlock: KIFKEQ_clean_linker_1, # of connection points: 2
#     Edge 30, Type (0, 1), BuildingBlock: KIFKEQ_clean_linker_1, # of connection points: 2
#     Edge 31, Type (0, 1), BuildingBlock: KIFKEQ_clean_linker_1, # of connection points: 2
#     Edge 32, Type (0, 1), BuildingBlock: KIFKEQ_clean_linker_1, # of connection points: 2
#     Edge 33, Type (0, 1), BuildingBlock: KIFKEQ_clean_linker_1, # of connection points: 2
#     Edge 34, Type (0, 1), BuildingBlock: KIFKEQ_clean_linker_1, # of connection points: 2
#     Edge 35, Type (0, 1), BuildingBlock: KIFKEQ_clean_linker_1, # of connection points: 2
# Relax obj value: 0.302
# Max RMSD: 0.229
# Mean RMSD: 0.215
data_MOF--net-zzz--node1-KUMBUR_clean_sbu_0--node2-VETTIZ_charged_linker_0--edge1-KIFKEQ_clean_linker_1
_symmetry_space_group_name_H-M    P1
_symmetry_Int_Tables_number       1
_symmetry_cell_setting            triclinic
loop_
_symmetry_equiv_pos_as_xyz
'x, y, z'
_cell_length_a     56.887356
_cell_length_b     56.839583
_cell_length_c     19.74023
_cell_angle_alpha  90.953048
_cell_angle_beta   90.193511
_cell_angle_gamma 89.996272
loop_
_atom_site_label
_atom_site_type_symbol
_atom_site_fract_x
_atom_site_fract_y
_atom_site_fract_z
_atom_type_partial_charge
C0 C 0.80757 0.54216 0.29307 0.0
C1 C 0.82901 0.55128 0.32008 0.0
C2 C 0.83781 0.5724 0.29449 0.0
C3 C 0.80645 0.57378 0.2114 0.0
C4 C 0.79624 0.55416 0.23921 0.0
C5 C 0.77273 0.54878 0.2045 0.0
H6 H 0.69742 0.577 0.9415 0.0
C7 C 0.79234 0.58123 0.15263 0.0
C8 C 0.77191 0.56723 0.1484 0.0
H9 H 0.68367 0.52557 0.09474 0.0
H10 H 0.72201 0.53391 0.14662 0.0
H11 H 0.71953 0.61734 0.03723 0.0
H12 H 0.74668 0.56103 0.9139 0.0
H13 H 0.7691 0.58211 0.91354 0.0
H14 H 0.74058 0.58925 0.87906 0.0
H15 H 0.71861 0.61639 0.94628 0.0
H16 H 0.74342 0.62866 0.99145 0.0
C17 C 0.75299 0.55266 0.25675 0.0
C18 C 0.77325 0.52352 0.17507 0.0
C19 C 0.83225 0.63245 0.98041 0.0
C20 C 0.82663 0.63732 0.91263 0.0
C21 C 0.80317 0.63444 0.89086 0.0
C22 C 0.78639 0.62433 0.93347 0.0
C23 C 0.79325 0.61659 0.99804 0.0
C24 C 0.81557 0.62165 1.0215 0.0
C25 C 0.82038 0.61112 0.08952 0.0
C26 C 0.79775 0.59745 0.10095 0.0
C27 C 0.78197 0.60083 0.04753 0.0
C28 C 0.82355 0.63161 0.14183 0.0
C29 C 0.84206 0.59465 0.08226 0.0
C30 C 0.70219 0.56781 0.98718 0.0
C31 C 0.68701 0.55105 1.01455 0.0
C32 C 0.69482 0.53878 0.07248 0.0
C33 C 0.71699 0.54378 0.10298 0.0
C34 C 0.73166 0.56114 0.07526 0.0
C35 C 0.72396 0.57253 1.01774 0.0
C36 C 0.74162 0.5895 0.99135 0.0
C37 C 0.76071 0.58786 0.04452 0.0
C38 C 0.75534 0.57105 0.09417 0.0
C39 C 0.73031 0.61432 0.99095 0.0
C40 C 0.74991 0.58024 0.92075 0.0
H41 H 0.83479 0.59934 0.22338 0.0
H42 H 0.80003 0.52624 0.31305 0.0
H43 H 0.78913 0.52086 0.14316 0.0
H44 H 0.75781 0.51972 0.14267 0.0
H45 H 0.77369 0.51046 0.2163 0.0
H46 H 0.75524 0.56991 0.28343 0.0
H47 H 0.7533 0.53865 0.29536 0.0
H48 H 0.73542 0.55295 0.23311 0.0
H49 H 0.85011 0.6343 0.99885 0.0
H50 H 0.79827 0.63834 0.83917 0.0
H51 H 0.76912 0.62167 0.91287 0.0
H52 H 0.81675 0.64861 0.12257 0.0
H53 H 0.84237 0.63436 0.15491 0.0
H54 H 0.81349 0.62861 0.18898 0.0
H55 H 0.84079 0.58387 0.03482 0.0
H56 H 0.84386 0.5819 0.12323 0.0
H57 H 0.85862 0.60497 0.08029 0.0
H58 H 0.85395 0.57989 0.31471 0.0
C59 C 0.82668 0.58366 0.24106 0.0
C60 C 0.8992 0.81341 0.91192 0.0
C61 C 0.89479 0.83782 0.91393 0.0
C62 C 0.8974 0.84987 0.97668 0.0
C63 C 0.9164 0.81581 0.02435 0.0
C64 C 0.91076 0.80299 0.96671 0.0
C65 C 0.9219 0.77898 0.96654 0.0
H66 H 1.00397 0.70328 0.07918 0.0
C67 C 0.93347 0.80196 0.06418 0.0
C68 C 0.93678 0.78037 0.03095 0.0
H69 H 0.9513 0.69448 0.92183 0.0
H70 H 0.93535 0.73192 0.94906 0.0
H71 H 1.01364 0.76466 0.05826 0.0
H72 H 0.96465 0.73145 0.19618 0.0
H73 H 0.98498 0.75172 0.23385 0.0
H74 H 0.99548 0.7243 0.19902 0.0
H75 H 0.02395 0.74341 0.11818 0.0
H76 H 0.01654 0.77274 0.1457 0.0
C77 C 0.9373 0.77658 0.90186 0.0
C78 C 0.90186 0.76053 0.97182 0.0
C79 C 0.97208 0.84438 0.26043 0.0
C80 C 0.99013 0.83986 0.3069 0.0
C81 C 1.0019 0.81783 0.30031 0.0
C82 C 0.99528 0.8009 0.24935 0.0
C83 C 0.97675 0.80594 0.20398 0.0
C84 C 0.96571 0.82758 0.21109 0.0
C85 C 0.94699 0.83135 0.15958 0.0
C86 C 0.94775 0.80833 0.12045 0.0
C87 C 0.96527 0.79295 0.14508 0.0
C88 C 0.95446 0.85261 0.11567 0.0
C89 C 0.92327 0.83451 0.19746 0.0
C90 C 0.9891 0.70972 0.05062 0.0
C91 C 0.97892 0.69556 0.99768 0.0
C92 C 0.9594 0.70455 0.96278 0.0
C93 C 0.95007 0.72655 0.97871 0.0
C94 C 0.96025 0.74058 0.02998 0.0
C95 C 0.97914 0.73226 0.06663 0.0
C96 C 0.98602 0.75016 0.12234 0.0
C97 C 0.96838 0.77033 0.11128 0.0
C98 C 0.95376 0.76426 0.05566 0.0
C99 C 1.01149 0.75822 0.11077 0.0
C100 C 0.98268 0.73883 0.19191 0.0
H101 H 0.9108 0.84961 0.07635 0.0
H102 H 0.89639 0.80322 0.86579 0.0
H103 H 0.88539 0.76838 0.99243 0.0
H104 H 0.90629 0.7463 1.00744 0.0
H105 H 0.8975 0.75263 0.9215 0.0
H106 H 0.94642 0.79344 0.89134 0.0
H107 H 0.92641 0.77192 0.85678 0.0
H108 H 0.95155 0.76355 0.90604 0.0
H109 H 0.96308 0.86117 0.26089 0.0
H110 H 0.01602 0.81357 0.33486 0.0
H111 H 1.00473 0.78454 0.24677 0.0
H112 H 0.97377 0.85575 0.11782 0.0
H113 H 0.94577 0.86913 0.13302 0.0
H114 H 0.95081 0.84978 0.06109 0.0
H115 H 0.92257 0.82323 0.24297 0.0
H116 H 0.90792 0.82898 0.16657 0.0
H117 H 0.92077 0.85303 0.2148 0.0
H118 H 0.89385 0.86852 0.98157 0.0
C119 C 0.90794 0.83891 0.03191 0.0
C120 C 0.82421 0.98381 0.05646 0.0
C121 C 0.83832 0.97311 1.00501 0.0
C122 C 0.83153 0.95107 0.97845 0.0
C123 C 0.79568 0.9521 0.04394 0.0
C124 C 0.80287 0.97267 0.07589 0.0
C125 C 0.78502 0.98012 0.13 0.0
H126 H 0.67506 0.95842 0.26585 0.0
C127 C 0.77213 0.94567 0.06831 0.0
C128 C 0.76563 0.96142 0.12107 0.0
H129 H 0.72294 1.01237 0.3369 0.0
H130 H 0.75161 0.99982 0.25099 0.0
H131 H 0.679 0.9676 0.12578 0.0
H132 H 0.71265 0.91687 0.24849 0.0
H133 H 0.70517 0.90205 0.17243 0.0
H134 H 0.68243 0.91618 0.222 0.0
H135 H 0.66714 0.93866 0.13224 0.0
H136 H 0.6871 0.94635 0.06517 0.0
C137 C 0.77591 1.00497 0.11455 0.0
C138 C 0.79693 0.9787 0.19998 0.0
C139 C 0.72098 0.89541 0.91411 0.0
C140 C 0.69631 0.893 0.91371 0.0
C141 C 0.68448 0.89457 0.97642 0.0
C142 C 0.69612 0.90287 0.03456 0.0
C143 C 0.71957 0.9103 0.02969 0.0
C144 C 0.73211 0.90504 0.97178 0.0
C145 C 0.75677 0.91467 0.97535 0.0
C146 C 0.75583 0.92893 0.04171 0.0
C147 C 0.73397 0.9263 0.07272 0.0
C148 C 0.76062 0.93051 0.91306 0.0
C149 C 0.77402 0.89353 0.97923 0.0
C150 C 0.69188 0.96732 0.2651 0.0
C151 C 0.69664 0.98606 0.3101 0.0
C152 C 0.7186 0.99772 0.30344 0.0
C153 C 0.73533 0.99033 0.25384 0.0
C154 C 0.7301 0.97116 0.20989 0.0
C155 C 0.70848 0.96027 0.21673 0.0
C156 C 0.70443 0.94114 0.16548 0.0
C157 C 0.72756 0.94114 0.12805 0.0
C158 C 0.74297 0.95883 0.15286 0.0
C159 C 0.68334 0.94859 0.11989 0.0
C160 C 0.70079 0.91777 0.20364 0.0
H161 H 0.80651 0.92383 0.97533 0.0
H162 H 0.82935 1.00046 0.07939 0.0
H163 H 0.80557 0.9613 0.20602 0.0
H164 H 0.78423 0.98066 0.24177 0.0
H165 H 0.81057 0.99257 0.20596 0.0
H166 H 0.76942 1.00573 0.06143 0.0
H167 H 0.79015 0.0182 0.12111 0.0
H168 H 0.76117 1.01013 0.14783 0.0
H169 H 0.73092 0.89282 0.86797 0.0
H170 H 0.66566 0.89213 0.97968 0.0
H171 H 0.68576 0.90508 0.0794 0.0
H172 H 0.74568 0.94296 0.90731 0.0
H173 H 0.76196 0.91976 0.86574 0.0
H174 H 0.77658 0.94138 0.91637 0.0
H175 H 0.76482 0.87653 0.98734 0.0
H176 H 0.78639 0.89546 0.0226 0.0
H177 H 0.78429 0.89141 0.93176 0.0
H178 H 0.84226 0.94221 0.94058 0.0
C179 C 0.81065 0.94045 0.99828 0.0
C180 C 0.55037 0.72776 0.29984 0.0
C181 C 0.5569 0.70488 0.32093 0.0
C182 C 0.57477 0.69291 0.28581 0.0
C183 C 0.57855 0.72498 0.20743 0.0
C184 C 0.56177 0.73766 0.24293 0.0
C185 C 0.55827 0.76184 0.2119 0.0
H186 H 0.58902 0.83608 0.95301 0.0
C187 C 0.58661 0.73894 0.14957 0.0
C188 C 0.57539 0.76104 0.15186 0.0
H189 H 0.53956 0.85217 0.11258 0.0
H190 H 0.54661 0.81352 0.16139 0.0
H191 H 0.62848 0.81154 0.04687 0.0
H192 H 0.57122 0.78876 0.92102 0.0
H193 H 0.59138 0.76563 0.91486 0.0
H194 H 0.59968 0.79446 0.88653 0.0
H195 H 0.62858 0.81247 0.95604 0.0
H196 H 0.63856 0.78683 1.00061 0.0
C197 C 0.56528 0.78081 0.26484 0.0
C198 C 0.53253 0.76397 0.18818 0.0
C199 C 0.63087 0.69701 0.96176 0.0
C200 C 0.63752 0.70393 0.89618 0.0
C201 C 0.63933 0.72829 0.88385 0.0
C202 C 0.63117 0.74494 0.93152 0.0
C203 C 0.62134 0.73726 0.99261 0.0
C204 C 0.62274 0.71382 1.00856 0.0
C205 C 0.61196 0.70875 0.07618 0.0
C206 C 0.60172 0.7327 0.09508 0.0
C207 C 0.60714 0.74921 0.0458 0.0
C208 C 0.63208 0.70147 0.125 0.0
C209 C 0.59252 0.68984 0.06538 0.0
C210 C 0.58001 0.8318 0.99944 0.0
C211 C 0.56405 0.84765 0.02921 0.0
C212 C 0.55204 0.84044 0.0882 0.0
C213 C 0.55621 0.81803 0.11672 0.0
C214 C 0.57244 0.80248 0.08579 0.0
C215 C 0.58389 0.80978 0.02797 0.0
C216 C 0.59968 0.79134 0.99835 0.0
C217 C 0.59652 0.77175 0.04827 0.0
C218 C 0.58055 0.77794 0.10034 0.0
C219 C 0.6252 0.80095 0.99986 0.0
C220 C 0.59026 0.78468 0.92642 0.0
H221 H 0.59871 0.69231 0.2052 0.0
H222 H 0.53683 0.7375 0.32659 0.0
H223 H 0.5274 0.74827 0.15716 0.0
H224 H 0.52966 0.77944 0.15621 0.0
H225 H 0.52048 0.76524 0.23228 0.0
H226 H 0.58276 0.77671 0.28711 0.0
H227 H 0.55227 0.78166 0.30667 0.0
H228 H 0.56674 0.79842 0.24267 0.0
H229 H 0.62952 0.6787 0.97494 0.0
H230 H 0.64552 0.73453 0.83562 0.0
H231 H 0.63156 0.76306 0.91719 0.0
H232 H 0.64971 0.70661 0.10596 0.0
H233 H 0.63242 0.68213 0.13209 0.0
H234 H 0.63065 0.7104 0.17523 0.0
H235 H 0.58212 0.6935 1.01889 0.0
H236 H 0.57956 0.68932 0.10664 0.0
H237 H 0.60028 0.672 0.05949 0.0
H238 H 0.58014 0.67548 0.30119 0.0
C239 C 0.5856 0.70278 0.22989 0.0
C240 C 0.3354 0.48957 0.2373 0.0
C241 C 0.34469 0.48237 0.30067 0.0
C242 C 0.33006 0.46949 0.344 0.0
C243 C 0.29921 0.46823 0.25956 0.0
C244 C 0.31238 0.48233 0.21774 0.0
C245 C 0.29911 0.48702 0.15185 0.0
H246 H 0.20564 0.45372 0.94866 0.0
C247 C 0.27804 0.46032 0.22288 0.0
C248 C 0.27688 0.4719 0.16061 0.0
H249 H 0.22745 0.52579 0.97782 0.0
H250 H 0.25521 0.51345 0.06586 0.0
H251 H 0.25714 0.42267 0.99183 0.0
H252 H 0.19204 0.44469 0.05693 0.0
H253 H 0.20252 0.43889 0.13903 0.0
H254 H 0.19917 0.41556 0.07614 0.0
H255 H 0.22744 0.41319 0.97535 0.0
H256 H 0.24402 0.40156 0.04513 0.0
C257 C 0.31356 0.47824 0.09071 0.0
C258 C 0.29397 0.51356 0.14725 0.0
C259 C 0.21768 0.40554 0.31971 0.0
C260 C 0.19963 0.39241 0.2872 0.0
C261 C 0.20317 0.3851 0.21914 0.0
C262 C 0.22102 0.39523 0.18063 0.0
C263 C 0.23522 0.4125 0.21092 0.0
C264 C 0.23568 0.41506 0.28026 0.0
C265 C 0.25576 0.43065 0.30311 0.0
C266 C 0.26332 0.44075 0.23537 0.0
C267 C 0.25031 0.43066 0.18203 0.0
C268 C 0.27497 0.41479 0.33506 0.0
C269 C 0.2466 0.45013 0.35187 0.0
C270 C 0.21739 0.4668 0.97062 0.0
C271 C 0.21494 0.49055 0.95371 0.0
C272 C 0.22949 0.50722 0.98772 0.0
C273 C 0.24609 0.5001 0.03716 0.0
C274 C 0.24821 0.47617 0.05311 0.0
C275 C 0.23268 0.46031 0.02306 0.0
C276 C 0.23094 0.4378 0.06173 0.0
C277 C 0.24769 0.443 0.12053 0.0
C278 C 0.25937 0.4646 0.11221 0.0
C279 C 0.2403 0.4176 1.01611 0.0
C280 C 0.20501 0.43396 0.08486 0.0
H281 H 0.29723 0.45304 0.3596 0.0
H282 H 0.34602 0.49981 0.20327 0.0
H283 H 0.27835 0.51854 0.178 0.0
H284 H 0.29129 0.51884 0.09403 0.0
H285 H 0.30915 0.52415 0.16596 0.0
H286 H 0.31812 0.45933 0.09595 0.0
H287 H 0.33013 0.48846 0.08629 0.0
H288 H 0.30336 0.48025 0.04304 0.0
H289 H 0.2166 0.41046 0.37272 0.0
H290 H 0.19085 0.37334 0.19393 0.0
H291 H 0.22262 0.39026 0.12816 0.0
H292 H 0.27056 0.39574 0.33136 0.0
H293 H 0.27745 0.4189 0.38984 0.0
H294 H 0.29213 0.41661 0.30906 0.0
H295 H 0.23083 0.4588 0.33011 0.0
H296 H 0.25984 0.46407 0.36122 0.0
H297 H 0.24171 0.44271 0.40157 0.0
H298 H 0.33623 0.46451 0.39375 0.0
C299 C 0.30752 0.46254 0.32399 0.0
C300 C 0.13054 0.22639 0.35775 0.0
C301 C 0.14138 0.20464 0.34181 0.0
C302 C 0.14848 0.20035 0.27416 0.0
C303 C 0.12609 0.234 0.23853 0.0
C304 C 0.12346 0.24104 0.30502 0.0
C305 C 0.11072 0.26418 0.31079 0.0
H306 H 0.02738 0.33555 0.22516 0.0
C307 C 0.11102 0.24883 0.19627 0.0
C308 C 0.10424 0.26816 0.23617 0.0
H309 H 0.09064 0.35397 0.33694 0.0
H310 H 0.11038 0.32005 0.28592 0.0
H311 H 0.06339 0.31615 0.08267 0.0
H312 H 0.02916 0.27281 0.23313 0.0
H313 H 0.02231 0.26624 0.1464 0.0
H314 H 1.0122 0.29331 0.18436 0.0
H315 H 0.03211 0.31819 0.09527 0.0
H316 H 0.04458 0.29342 0.05059 0.0
C317 C 0.12783 0.28254 0.34173 0.0
C318 C 0.08855 0.26156 0.35498 0.0
C319 C 0.07113 0.20315 1.00665 0.0
C320 C 0.05017 0.20511 0.96936 0.0
C321 C 0.03597 0.22525 0.98304 0.0
C322 C 0.0428 0.24273 0.03199 0.0
C323 C 0.06399 0.24016 0.06846 0.0
C324 C 0.07751 0.22034 0.05513 0.0
C325 C 0.09927 0.21933 0.09774 0.0
C326 C 0.09684 0.24179 0.13994 0.0
C327 C 0.07621 0.25449 0.12301 0.0
C328 C 0.1208 0.2206 0.05028 0.0
C329 C 0.09859 0.19655 0.14066 0.0
C330 C 0.04509 0.33162 0.24168 0.0
C331 C 0.05681 0.34661 0.29003 0.0
C332 C 0.08057 0.34192 0.30511 0.0
C333 C 0.09174 0.32192 0.27907 0.0
C334 C 0.0788 0.30555 0.24118 0.0
C335 C 0.05688 0.31106 0.2167 0.0
C336 C 0.04984 0.29305 0.16115 0.0
C337 C 0.07103 0.27598 0.16038 0.0
C338 C 0.08665 0.28331 0.2117 0.0
C339 C 0.04726 0.30584 0.09348 0.0
C340 C 0.02706 0.28063 0.18218 0.0
H341 H 0.14584 0.21082 0.17114 0.0
H342 H 0.12566 0.23097 0.40919 0.0
H343 H 0.07691 0.24745 0.33422 0.0
H344 H 0.07837 0.27822 0.35692 0.0
H345 H 0.09331 0.25718 0.4079 0.0
H346 H 0.13926 0.27464 0.38108 0.0
H347 H 0.11829 0.29687 0.36868 0.0
H348 H 0.13947 0.28993 0.30228 0.0
H349 H 0.0824 0.18795 1.00021 0.0
H350 H 0.01968 0.22767 0.95557 0.0
H351 H 0.0314 0.25757 0.04017 0.0
H352 H 0.11783 0.23358 1.00953 0.0
H353 H 0.1243 0.20321 0.0258 0.0
H354 H 0.13683 0.22658 0.07721 0.0
H355 H 0.0858 0.18332 0.12103 0.0
H356 H 0.09327 0.20035 0.19382 0.0
H357 H 0.1157 0.18726 0.14046 0.0
H358 H 0.15825 0.18463 0.26063 0.0
C359 C 0.14089 0.21509 0.22228 0.0
C360 C 0.31982 0.05076 0.97879 0.0
C361 C 0.3383 0.06397 0.94784 0.0
C362 C 0.33784 0.08875 0.95681 0.0
C363 C 0.30885 0.0854 0.04362 0.0
C364 C 0.30444 0.06248 0.02536 0.0
C365 C 0.28169 0.05452 0.06018 0.0
H366 H 0.19881 0.08679 0.30462 0.0
C367 C 0.29397 0.09246 0.09954 0.0
C368 C 0.27621 0.07571 0.10786 0.0
H369 H 0.19445 0.02531 0.17426 0.0
H370 H 0.23218 0.0358 0.12224 0.0
H371 H 0.24246 0.08053 0.35256 0.0
H372 H 0.22004 0.12521 0.19932 0.0
H373 H 0.24113 0.14009 0.25076 0.0
H374 H 0.21583 0.12697 0.28956 0.0
H375 H 0.24594 0.11116 0.36611 0.0
H376 H 0.26993 0.09329 0.33446 0.0
C377 C 0.28627 0.03194 0.09992 0.0
C378 C 0.26264 0.05116 1.00531 0.0
C379 C 0.33527 0.13164 0.29489 0.0
C380 C 0.32734 0.13769 0.36058 0.0
C381 C 0.30313 0.1425 0.36917 0.0
C382 C 0.28696 0.13701 0.31744 0.0
C383 C 0.29512 0.12665 0.25706 0.0
C384 C 0.31888 0.12629 0.24385 0.0
C385 C 0.32413 0.11657 0.17419 0.0
C386 C 0.29947 0.10879 0.15167 0.0
C387 C 0.28301 0.11329 0.20257 0.0
C388 C 0.34125 0.09549 0.17918 0.0
C389 C 0.33461 0.13649 0.1314 0.0
C390 C 0.20546 0.07584 0.26351 0.0
C391 C 0.19311 0.05568 0.24229 0.0
C392 C 0.20332 0.04124 0.19095 0.0
C393 C 0.225 0.04743 0.16027 0.0
C394 C 0.23679 0.06807 0.18168 0.0
C395 C 0.22706 0.08143 0.23391 0.0
C396 C 0.24264 0.10124 0.25698 0.0
C397 C 0.26243 0.09916 0.20594 0.0
C398 C 0.25923 0.07971 0.16092 0.0
C399 C 0.25072 0.09648 0.33106 0.0
C400 C 0.22922 0.12471 0.24914 0.0
H401 H 0.32267 0.11835 1.00922 0.0
H402 H 0.31784 0.03211 0.96868 0.0
H403 H 0.26108 0.06723 0.97424 0.0
H404 H 0.24517 0.04782 0.02708 0.0
H405 H 0.26717 0.03615 0.97096 0.0
H406 H 0.30102 0.03467 0.13633 0.0
H407 H 0.29097 0.01716 0.06497 0.0
H408 H 0.27061 0.02672 0.12915 0.0
H409 H 0.35368 0.12867 0.28472 0.0
H410 H 0.29644 0.14882 0.4174 0.0
H411 H 0.26866 0.14007 0.32689 0.0
H412 H 0.33381 0.08161 0.21186 0.0
H413 H 0.35849 0.10107 0.20048 0.0
H414 H 0.34496 0.08755 0.12874 0.0
H415 H 0.346 0.14832 0.16268 0.0
H416 H 0.32052 0.14742 0.10868 0.0
H417 H 0.34626 0.12951 0.09099 0.0
H418 H 0.34921 0.10005 0.92786 0.0
C419 C 0.32319 0.09944 1.0045 0.0
C420 C 0.48725 0.31377 0.98643 0.0
C421 C 0.47944 0.33591 0.9628 0.0
C422 C 0.4601 0.34674 0.99436 0.0
C423 C 0.45757 0.31524 0.075 0.0
C424 C 0.47567 0.30351 0.04245 0.0
C425 C 0.48014 0.27975 0.07499 0.0
H426 H 0.45167 0.20586 0.33666 0.0
C427 C 0.44994 0.30141 0.13357 0.0
C428 C 0.46258 0.28009 0.13396 0.0
H429 H 0.50111 0.19033 0.17668 0.0
H430 H 0.49341 0.22882 0.12751 0.0
H431 H 0.46918 0.25439 0.36574 0.0
H432 H 0.41133 0.22935 0.24542 0.0
H433 H 0.40111 0.25366 0.29332 0.0
H434 H 0.41259 0.22836 0.33623 0.0
H435 H 0.44109 0.24877 0.40272 0.0
H436 H 0.44867 0.27731 0.37047 0.0
C437 C 0.50578 0.27892 0.10026 0.0
C438 C 0.47434 0.2602 0.02251 0.0
C439 C 0.4017 0.34293 0.31369 0.0
C440 C 0.39684 0.33717 0.3813 0.0
C441 C 0.3983 0.31339 0.40009 0.0
C442 C 0.40733 0.29635 0.35496 0.0
C443 C 0.41528 0.30321 0.29074 0.0
C444 C 0.41135 0.32592 0.27003 0.0
C445 C 0.42197 0.33062 0.20195 0.0
C446 C 0.43436 0.30739 0.18719 0.0
C447 C 0.43032 0.29146 0.23909 0.0
C448 C 0.4396 0.35136 0.21056 0.0
C449 C 0.40156 0.33513 0.15132 0.0
C450 C 0.46055 0.21029 0.29011 0.0
C451 C 0.47659 0.19461 0.26003 0.0
C452 C 0.48848 0.20193 0.201 0.0
C453 C 0.48389 0.22421 0.17223 0.0
C454 C 0.46737 0.23948 0.20296 0.0
C455 C 0.45624 0.23218 0.26129 0.0
C456 C 0.44013 0.25039 0.29062 0.0
C457 C 0.44221 0.26956 0.2389 0.0
C458 C 0.45834 0.26357 0.18707 0.0
C459 C 0.45003 0.25812 0.36112 0.0
C460 C 0.41493 0.24 0.29211 0.0
H461 H 0.43485 0.34615 0.07161 0.0
H462 H 0.50181 0.3048 0.96206 0.0
H463 H 0.45701 0.26358 0.99827 0.0
H464 H 0.47309 0.24271 0.0455 0.0
H465 H 0.48786 0.25948 0.98202 0.0
H466 H 0.50992 0.29493 0.13122 0.0
H467 H 0.51818 0.27814 0.05692 0.0
H468 H 0.50916 0.26366 0.13266 0.0
H469 H 0.40093 0.36098 0.29722 0.0
H470 H 0.39427 0.30835 0.45143 0.0
H471 H 0.40914 0.27881 0.3735 0.0
H472 H 0.44966 0.34982 0.25875 0.0
H473 H 0.43031 0.36854 0.21187 0.0
H474 H 0.4531 0.35197 0.17081 0.0
H475 H 0.38452 0.32808 0.16969 0.0
H476 H 0.40438 0.32604 0.10185 0.0
H477 H 0.39904 0.35423 0.14283 0.0
H478 H 0.45369 0.36355 0.97683 0.0
C479 C 0.44915 0.33656 0.04961 0.0
Tb480 Tb 0.04099 1.01357 0.71036 0.0
C481 C 0.95243 0.99856 0.53909 0.0
C482 C 0.96353 0.97284 0.44594 0.0
C483 C 0.92364 0.97175 0.48926 0.0
C484 C 0.96932 0.99022 0.49516 0.0
C485 C 0.92922 0.9899 0.53571 0.0
C486 C 0.94079 0.96322 0.44442 0.0
C487 C 0.91835 0.01916 0.61996 0.0
N488 N 0.95853 0.01605 0.58311 0.0
C489 C 0.94161 0.02713 0.62138 0.0
C490 C 0.91219 1.00019 0.57772 0.0
Tb491 Tb 0.99735 0.02738 0.58426 0.0
N492 N 0.99111 0.99994 0.49854 0.0
C493 C 1.00732 0.99432 0.44961 0.0
C494 C 0.98057 0.96609 0.39867 0.0
C495 C 1.00241 0.97718 0.39985 0.0
H496 H 0.94626 0.04158 0.65505 0.0
H497 H 0.01559 0.97244 0.36264 0.0
H498 H 0.93613 0.94963 0.40763 0.0
H499 H 0.90524 0.02754 0.65181 0.0
H500 H 0.02441 1.00237 0.4487 0.0
H501 H 0.01914 0.069 0.92852 0.0
H502 H 0.97687 0.95275 0.36024 0.0
H503 H 0.09472 0.99636 0.66731 0.0
H504 H 1.01332 0.03691 0.84692 0.0
H505 H 0.13515 1.01206 0.67217 0.0
H506 H 0.90598 0.96465 0.48639 0.0
H507 H 0.05556 0.0927 0.92644 0.0
H508 H 0.0961 0.09835 0.87876 0.0
H509 H 0.89417 0.99403 0.57671 0.0
H510 H 0.12819 0.0827 0.80758 0.0
N511 N 0.04558 0.04227 0.79437 0.0
C512 C 0.02922 0.04686 0.84365 0.0
C513 C 0.05305 0.07851 0.88977 0.0
C514 C 0.07061 0.07253 0.84334 0.0
C515 C 0.03253 0.06515 0.89114 0.0
C516 C 0.06636 0.0539 0.79671 0.0
H517 H 0.14319 0.04989 0.73175 0.0
N518 N 0.07965 0.02556 0.7204 0.0
C519 C 0.12094 0.02176 0.69596 0.0
C520 C 0.08416 0.04524 0.75747 0.0
C521 C 0.09798 1.0129 0.69348 0.0
C522 C 0.12538 0.04316 0.72923 0.0
C523 C 0.107 0.05481 0.76252 0.0
O524 O 0.06088 0.98469 0.74302 0.0
O525 O 0.01794 1.00038 0.63089 0.0
O526 O 0.98077 1.00504 0.66018 0.0
O527 O 1.00451 0.01429 0.75239 0.0
O528 O 0.04997 0.98478 0.6386 0.0
O529 O 0.02903 0.99424 0.79377 0.0
O530 O 0.97664 0.05672 0.56112 0.0
O531 O 0.02175 0.04127 0.66068 0.0
O532 O 0.06058 0.0281 0.62397 0.0
O533 O 0.03258 0.02816 0.53678 0.0
O534 O 0.98874 0.0552 0.65886 0.0
O535 O 1.00476 0.04558 0.49489 0.0
C536 C 0.03051 0.98411 0.60556 0.0
C537 C 0.03612 0.95367 0.77173 0.0
C538 C 1.00437 0.92654 0.74089 0.0
C539 C 1.01206 0.94905 0.76119 0.0
C540 C 0.02108 0.90856 0.7313 0.0
C541 C 0.05243 0.93536 0.76281 0.0
C542 C 0.04492 0.91297 0.74253 0.0
C543 C 0.98411 1.00696 0.72641 0.0
C544 C 0.0447 0.97787 0.78424 0.0
C545 C 0.1109 0.07478 0.8039 0.0
C546 C 0.09266 0.08366 0.84444 0.0
C547 C 1.00887 0.05697 0.68776 0.0
C548 C 0.99794 0.08649 0.50969 0.0
C549 C 0.02119 0.09221 0.52797 0.0
C550 C 0.02881 0.1158 0.52869 0.0
C551 C 1.01239 0.13355 0.51332 0.0
C552 C 0.98199 0.10444 0.49473 0.0
C553 C 0.98918 0.12787 0.49703 0.0
C554 C 0.0546 0.02989 0.55904 0.0
C555 C 0.98953 0.06206 0.50945 0.0
H556 H 0.99929 0.96298 0.7676 0.0
H557 H 0.01569 0.89089 0.71688 0.0
H558 H 0.07106 0.93855 0.77003 0.0
H559 H 0.05762 0.89897 0.7354 0.0
H560 H 0.03331 0.07833 0.54121 0.0
H561 H 0.01758 0.15184 0.51138 0.0
H562 H 0.96393 0.10032 0.48157 0.0
H563 H 0.97681 0.14167 0.48501 0.0
Tb564 Tb 0.52513 0.04415 0.70152 0.0
C565 C 0.54402 0.95341 0.54373 0.0
C566 C 0.56735 0.96421 0.44719 0.0
C567 C 0.57336 0.92623 0.49916 0.0
C568 C 0.55003 0.96964 0.49605 0.0
C569 C 0.55505 0.93119 0.54476 0.0
C570 C 0.57952 0.94275 0.45039 0.0
C571 C 0.52741 0.91968 0.63061 0.0
N572 N 0.52622 0.95888 0.5864 0.0
C573 C 0.51703 0.94195 0.62747 0.0
C574 C 0.5468 0.91441 0.58997 0.0
Tb575 Tb 0.51213 0.99683 0.5837 0.0
N576 N 0.53779 0.99013 0.49487 0.0
C577 C 0.54035 1.00472 0.44083 0.0
C578 C 0.5714 0.98016 0.39547 0.0
C579 C 0.55744 1.00024 0.39144 0.0
H580 H 0.50231 0.94602 0.66009 0.0
H581 H 0.55973 1.01226 0.35002 0.0
H582 H 0.59317 0.93845 0.41407 0.0
H583 H 0.52055 0.90667 0.66477 0.0
H584 H 0.52936 0.01983 0.43429 0.0
H585 H 0.47222 0.03029 0.92559 0.0
H586 H 0.58461 0.97673 0.35715 0.0
H587 H 0.53671 0.09315 0.61861 0.0
H588 H 0.5007 0.01962 0.8385 0.0
H589 H 0.52171 0.13379 0.61414 0.0
H590 H 0.58232 0.90941 0.49975 0.0
H591 H 0.45346 0.06946 0.92578 0.0
H592 H 0.44915 0.10895 0.87186 0.0
H593 H 0.55482 0.89715 0.59243 0.0
H594 H 0.46233 0.13706 0.78632 0.0
N595 N 0.49824 0.05209 0.78602 0.0
C596 C 0.49289 0.03675 0.83647 0.0
C597 C 0.46592 0.0648 0.88641 0.0
C598 C 0.47188 0.08076 0.83624 0.0
C599 C 0.47656 0.04274 0.88664 0.0
C600 C 0.48851 0.0739 0.78681 0.0
H601 H 0.48953 0.14655 0.69036 0.0
N602 N 0.51277 0.08259 0.69526 0.0
C603 C 0.51423 0.12155 0.64953 0.0
C604 C 0.49593 0.08967 0.73937 0.0
C605 C 0.52273 0.0985 0.65242 0.0
C606 C 0.49603 0.12866 0.69244 0.0
C607 C 0.48693 0.11279 0.73898 0.0
O608 O 0.55363 0.06644 0.72361 0.0
O609 O 0.53876 0.01912 0.62741 0.0
O610 O 0.53465 0.98329 0.66505 0.0
O611 O 0.52663 1.00967 0.75303 0.0
O612 O 0.55271 0.05195 0.62638 0.0
O613 O 0.54468 0.03818 0.79037 0.0
O614 O 0.4864 0.97225 0.55381 0.0
O615 O 0.49851 0.0213 0.65911 0.0
O616 O 0.50214 0.05746 0.6214 0.0
O617 O 0.51203 0.03167 0.53353 0.0
O618 O 0.48603 0.98796 0.66194 0.0
O619 O 0.48728 1.00641 0.50945 0.0
C620 C 0.55412 0.03145 0.59877 0.0
C621 C 0.58505 0.04537 0.76816 0.0
C622 C 0.61325 1.01391 0.74501 0.0
C623 C 0.5902 0.02136 0.75859 0.0
C624 C 0.63121 0.0308 0.74083 0.0
C625 C 0.60326 0.06193 0.76461 0.0
C626 C 0.62621 0.05465 0.75092 0.0
C627 C 0.53348 0.98861 0.73049 0.0
C628 C 0.56058 0.0536 0.77373 0.0
C629 C 0.46962 0.11945 0.78611 0.0
C630 C 0.46214 0.10346 0.83481 0.0
C631 C 0.48374 1.00853 0.6888 0.0
C632 C 0.45013 0.99181 0.54425 0.0
C633 C 0.43955 1.01414 0.53992 0.0
C634 C 0.41781 0.01876 0.5714 0.0
C635 C 0.4069 1.00077 0.60798 0.0
C636 C 0.43831 0.9739 0.5788 0.0
C637 C 0.41698 0.97847 0.61091 0.0
C638 C 0.50432 0.05249 0.55597 0.0
C639 C 0.47454 0.98783 0.52056 0.0
H640 H 0.57632 1.00843 0.76045 0.0
H641 H 0.64922 0.02553 0.73139 0.0
H642 H 0.5996 0.08055 0.77093 0.0
H643 H 0.64017 0.06753 0.74794 0.0
H644 H 0.44825 0.02789 0.51208 0.0
H645 H 0.39049 1.0039 0.63432 0.0
H646 H 0.44596 0.95654 0.58312 0.0
H647 H 0.40834 0.96473 0.63884 0.0
Tb648 Tb 0.54426 0.51322 0.59347 0.0
C649 C 0.44559 0.49933 0.71312 0.0
C650 C 0.41752 0.51049 0.62715 0.0
C651 C 0.40688 0.48119 0.70989 0.0
C652 C 0.44008 0.51221 0.65675 0.0
C653 C 0.42895 0.48393 0.74116 0.0
C654 C 0.40115 0.4945 0.65304 0.0
C655 C 0.4564 0.47663 0.83191 0.0
N656 N 0.46705 0.50259 0.74199 0.0
C657 C 0.47226 0.49221 0.80244 0.0
C658 C 0.43476 0.47223 0.80069 0.0
Tb659 Tb 0.49201 0.52812 0.68877 0.0
N660 N 0.45646 0.52729 0.63293 0.0
C661 C 0.4506 0.54257 0.58262 0.0
C662 C 0.41187 0.52533 0.5737 0.0
C663 C 0.42838 0.5417 0.55208 0.0
H664 H 0.48896 0.49521 0.82707 0.0
H665 H 0.42409 0.55351 0.51141 0.0
H666 H 0.38384 0.4927 0.63045 0.0
H667 H 0.46092 0.46798 0.87862 0.0
H668 H 0.46316 0.55526 0.5649 0.0
H669 H 0.6107 0.48079 0.76539 0.0
H670 H 0.39474 0.52456 0.54959 0.0
H671 H 0.54888 0.54918 0.46319 0.0
H672 H 0.57197 0.48164 0.71071 0.0
H673 H 0.57797 0.57696 0.41799 0.0
H674 H 0.39392 0.46929 0.73028 0.0
H675 H 0.64109 0.50979 0.73474 0.0
H676 H 0.6533 0.54345 0.66166 0.0
H677 H 0.4225 0.4602 0.82374 0.0
H678 H 0.6443 0.56988 0.56743 0.0
N679 N 0.57963 0.51128 0.64971 0.0
C680 C 0.58486 0.49442 0.69613 0.0
C681 C 0.62404 0.51022 0.71013 0.0
C682 C 0.61908 0.52666 0.66014 0.0
C683 C 0.60695 0.49382 0.72748 0.0
C684 C 0.59657 0.52647 0.62987 0.0
H685 H 0.61635 0.58228 0.47558 0.0
N686 N 0.57023 0.53933 0.54704 0.0
C687 C 0.58202 0.56706 0.46292 0.0
C688 C 0.59163 0.54115 0.57693 0.0
C689 C 0.56561 0.55124 0.48861 0.0
C690 C 0.60363 0.57008 0.49569 0.0
C691 C 0.60885 0.55671 0.55269 0.0
O692 O 0.5525 0.50086 0.49579 0.0
O693 O 0.50627 0.51323 0.59654 0.0
O694 O 0.4933 0.48968 0.67944 0.0
O695 O 0.53357 0.48442 0.66271 0.0
O696 O 0.52107 0.5186 0.50493 0.0
O697 O 0.55629 0.47842 0.5824 0.0
O698 O 0.48967 0.54556 0.78368 0.0
O699 O 0.53007 0.52804 0.68525 0.0
O700 O 0.5427 0.55166 0.60692 0.0
O701 O 0.50231 0.55634 0.61774 0.0
O702 O 0.51519 0.52302 0.77728 0.0
O703 O 0.47343 0.55988 0.69486 0.0
C704 C 0.50129 0.51642 0.53501 0.0
C705 C 0.54465 0.46102 0.4788 0.0
C706 C 0.50881 0.43951 0.45163 0.0
C707 C 0.52097 0.45599 0.49208 0.0
C708 C 0.52075 0.4278 0.39858 0.0
C709 C 0.55632 0.44924 0.42592 0.0
C710 C 0.54439 0.4326 0.3861 0.0
C711 C 0.51252 0.47648 0.68137 0.0
C712 C 0.55686 0.47968 0.51652 0.0
C713 C 0.6309 0.55787 0.58481 0.0
C714 C 0.63603 0.54283 0.63842 0.0
C715 C 0.53498 0.52465 0.74678 0.0
C716 C 0.48772 0.58684 0.77453 0.0
C717 C 0.51075 0.59303 0.75685 0.0
C718 C 0.51849 0.61639 0.76498 0.0
C719 C 0.50305 0.63323 0.79325 0.0
C720 C 0.47259 0.60382 0.80236 0.0
C721 C 0.48032 0.62691 0.81208 0.0
C722 C 0.52343 0.56468 0.60214 0.0
C723 C 0.4785 0.56339 0.75836 0.0
H724 H 0.51191 0.46526 0.53266 0.0
H725 H 0.51187 0.41472 0.36724 0.0
H726 H 0.57455 0.45312 0.41496 0.0
H727 H 0.55343 0.4235 0.34523 0.0
H728 H 0.52239 0.57982 0.73551 0.0
H729 H 0.50865 0.65125 0.80181 0.0
H730 H 0.45471 0.59928 0.81566 0.0
H731 H 0.4686 0.63999 0.83375 0.0
Tb732 Tb 0.02662 0.54267 0.59565 0.0
C733 C 0.03448 0.44775 0.72698 0.0
C734 C 0.01843 0.41969 0.64591 0.0
C735 C 0.04946 0.40768 0.72286 0.0
C736 C 0.01933 0.44264 0.67421 0.0
C737 C 0.04936 0.43022 0.75311 0.0
C738 C 0.034 0.40242 0.6693 0.0
C739 C 0.06122 0.45787 0.84095 0.0
N740 N 0.03376 0.46966 0.75495 0.0
C741 C 0.04609 0.47461 0.81336 0.0
C742 C 0.06314 0.43568 0.81008 0.0
Tb743 Tb 1.00889 0.49617 0.70492 0.0
N744 N 1.00463 0.45986 0.65293 0.0
C745 C 0.98714 0.45449 0.60734 0.0
C746 C 1.00151 0.4146 0.59632 0.0
C747 C 0.98555 0.43199 0.57782 0.0
H748 H 0.0449 0.49182 0.83716 0.0
H749 H 0.97208 0.42813 0.5404 0.0
H750 H 0.0338 0.38479 0.64753 0.0
H751 H 0.07145 0.46214 0.88582 0.0
H752 H 0.97463 0.46751 0.59151 0.0
H753 H 0.07166 0.60898 0.75027 0.0
H754 H 1.00029 0.39723 0.57316 0.0
H755 H 0.99508 0.55518 0.45746 0.0
H756 H 0.06877 0.57224 0.68472 0.0
H757 H 0.96672 0.58571 0.42267 0.0
H758 H 0.06094 0.39404 0.74169 0.0
H759 H 0.03965 0.63834 0.745 0.0
H760 H 1.00218 0.65145 0.68895 0.0
H761 H 0.07483 0.42272 0.83163 0.0
H762 H 0.97307 0.64505 0.59783 0.0
N763 N 0.03371 0.57836 0.65007 0.0
C764 C 0.05387 0.58382 0.68507 0.0
C765 C 0.03793 0.62175 0.71763 0.0
C766 C 0.01879 0.61739 0.67475 0.0
C767 C 0.05597 0.60519 0.72089 0.0
C768 C 0.01745 0.59544 0.64044 0.0
H769 H 0.9602 0.62081 0.49619 0.0
N770 N 1.0031 0.57192 0.55212 0.0
C771 C 0.97611 0.5876 0.47022 0.0
C772 C 1.0013 0.59196 0.58954 0.0
C773 C 0.99216 0.57036 0.49005 0.0
C774 C 0.97239 0.6073 0.51202 0.0
C775 C 0.98574 0.61012 0.57126 0.0
O776 O 0.04043 0.55799 0.50771 0.0
O777 O 0.02364 0.50497 0.60785 0.0
O778 O 0.0473 0.49545 0.69385 0.0
O779 O 0.05379 0.53492 0.67388 0.0
O780 O 0.01573 0.51779 0.51465 0.0
O781 O 0.06124 0.53452 0.56609 0.0
O782 O 0.99872 0.49183 0.80582 0.0
O783 O 1.0097 0.53418 0.69008 0.0
O784 O 0.98834 0.53899 0.58309 0.0
O785 O 0.97813 0.50503 0.64104 0.0
O786 O 0.01714 0.52254 0.78476 0.0
O787 O 0.97424 0.48529 0.72388 0.0
C788 C 0.01775 0.49869 0.54822 0.0
C789 C 0.06318 0.53005 0.44694 0.0
C790 C 0.07549 0.4927 0.39461 0.0
C791 C 0.07321 0.50748 0.45206 0.0
C792 C 0.06752 0.50077 0.3316 0.0
C793 C 0.05568 0.53781 0.38322 0.0
C794 C 0.05776 0.52319 0.32609 0.0
C795 C 0.06101 0.51424 0.69676 0.0
C796 C 0.05901 0.54478 0.50828 0.0
C797 C 0.98523 0.63106 0.61005 0.0
C798 C 1.00181 0.63471 0.66187 0.0
C799 C 0.01466 0.54116 0.74971 0.0
C800 C 0.95943 0.50049 0.82694 0.0
C801 C 0.95425 0.52388 0.81024 0.0
C802 C 0.93885 0.53721 0.85095 0.0
C803 C 0.92839 0.52668 0.90751 0.0
C804 C 0.9489 0.49032 0.88337 0.0
C805 C 0.93336 0.50338 0.92334 0.0
C806 C 0.97304 0.52259 0.6001 0.0
C807 C 0.97709 0.48699 0.78935 0.0
H808 H 0.07891 0.50118 0.50097 0.0
H809 H 0.06939 0.49002 0.28614 0.0
H810 H 0.04787 0.55506 0.37774 0.0
H811 H 0.05185 0.52929 0.27725 0.0
H812 H 0.96251 0.53174 0.76673 0.0
H813 H 0.91607 0.53638 0.93902 0.0
H814 H 0.95292 0.47237 0.89693 0.0
H815 H 0.92521 0.49547 0.9669 0.0
H816 H 0.17866 1.01346 0.29544 0.0
H817 H 0.15615 0.08522 0.2699 0.0
H818 H 0.14418 1.00623 0.36652 0.0
H819 H 0.1219 0.07813 0.34103 0.0
H820 H 0.05233 0.05154 0.43501 0.0
H821 H 0.08389 0.05658 0.35199 0.0
H822 H 0.13133 0.01842 0.48095 0.0
H823 H 0.09994 1.0132 0.56205 0.0
C824 C 0.16615 0.02756 0.30382 0.0
C825 C 0.17032 0.04993 0.27687 0.0
C826 C 0.14647 0.02352 0.34529 0.0
C827 C 0.1302 0.04164 0.36027 0.0
C828 C 0.13383 0.06368 0.33056 0.0
C829 C 0.1536 0.06777 0.2899 0.0
C830 C 0.06954 0.04433 0.44581 0.0
C831 C 0.07371 0.03282 0.50738 0.0
C832 C 0.08769 0.04726 0.39814 0.0
C833 C 0.11038 0.03805 0.40957 0.0
C834 C 0.11422 0.02581 0.46995 0.0
C835 C 0.09623 0.02327 0.51777 0.0
H836 H 0.44379 0.16512 0.31411 0.0
H837 H 0.51849 0.17092 0.28052 0.0
H838 H 0.45016 0.13023 0.3815 0.0
H839 H 0.52488 0.13554 0.34772 0.0
H840 H 0.52485 0.05994 0.43227 0.0
H841 H 0.51815 0.09245 0.355 0.0
H842 H 0.46683 0.12171 0.49323 0.0
H843 H 0.4734 0.08908 0.56993 0.0
C844 C 0.46164 0.15892 0.32086 0.0
C845 C 0.48066 0.1712 0.29245 0.0
C846 C 0.46528 0.13886 0.3598 0.0
C847 C 0.48807 0.13017 0.37122 0.0
C848 C 0.50706 0.14166 0.33996 0.0
C849 C 0.50341 0.16194 0.30114 0.0
C850 C 0.51176 0.07299 0.44549 0.0
C851 C 0.49931 0.07154 0.50679 0.0
C852 C 0.50817 0.09188 0.40157 0.0
C853 C 0.49187 0.10976 0.41742 0.0
C854 C 0.47928 0.10815 0.4786 0.0
C855 C 0.48307 0.08943 0.52278 0.0
H856 H 0.37613 0.45087 0.35009 0.0
H857 H 0.36924 0.5245 0.30523 0.0
H858 H 0.41406 0.45826 0.40272 0.0
H859 H 0.40744 0.53216 0.35931 0.0
H860 H 0.48472 0.53711 0.42171 0.0
H861 H 0.44867 0.5285 0.35829 0.0
H862 H 0.43233 0.47333 0.49878 0.0
H863 H 0.46876 0.48168 0.56037 0.0
C864 C 0.38286 0.4687 0.35104 0.0
C865 C 0.3695 0.48709 0.3234 0.0
C866 C 0.4047 0.47299 0.38186 0.0
C867 C 0.41414 0.49585 0.38635 0.0
C868 C 0.40111 0.51421 0.35647 0.0
C869 C 0.37914 0.50987 0.32521 0.0
C870 C 0.47335 0.52314 0.43886 0.0
C871 C 0.47917 0.51066 0.4975 0.0
C872 C 0.45253 0.51827 0.40271 0.0
C873 C 0.43704 0.50042 0.42336 0.0
C874 C 0.4436 0.48715 0.48045 0.0
C875 C 0.46441 0.49212 0.51669 0.0
H876 H 0.03558 0.38649 0.23801 0.0
H877 H 0.05435 0.35393 0.42607 0.0
H878 H 0.02541 0.42284 0.30029 0.0
H879 H 0.04387 0.38971 0.48845 0.0
H880 H 0.05144 0.46485 0.57368 0.0
H881 H 0.05836 0.42797 0.51104 0.0
H882 H 1.00074 0.44409 0.37649 0.0
H883 H 0.99427 0.48105 0.43882 0.0
C884 C 0.03686 0.38684 0.29276 0.0
C885 C 0.04567 0.36716 0.32685 0.0
C886 C 0.03114 0.40777 0.3288 0.0
C887 C 0.0341 0.40964 0.39998 0.0
C888 C 0.04187 0.38946 0.43387 0.0
C889 C 0.04759 0.36871 0.39802 0.0
C890 C 0.04003 0.46028 0.53145 0.0
C891 C 0.02176 0.47553 0.51283 0.0
C892 C 0.04394 0.43905 0.49525 0.0
C893 C 0.02988 0.4325 0.43871 0.0
C894 C 1.01204 0.44824 0.41926 0.0
C895 C 1.00819 0.46945 0.45539 0.0
H896 H 0.8831 0.97821 0.05752 0.0
H897 H 0.84165 0.99053 0.87873 0.0
H898 H 0.91914 0.9862 0.99329 0.0
H899 H 0.87728 0.99863 0.81463 0.0
H900 H 0.94429 0.98121 0.69812 0.0
H901 H 0.90971 0.97571 0.76879 0.0
H902 H 0.94321 0.01482 0.93154 0.0
H903 H 0.97773 0.02042 0.86057 0.0
C904 C 0.88164 0.98349 1.00521 0.0
C905 C 0.85944 0.98422 0.97368 0.0
C906 C 0.90232 0.98784 0.96801 0.0
C907 C 0.90133 0.99271 0.89807 0.0
C908 C 0.87896 0.99448 0.86778 0.0
C909 C 0.85842 0.99027 0.90489 0.0
C910 C 0.94429 0.98882 0.74878 0.0
C911 C 0.96384 1.00176 0.7726 0.0
C912 C 0.92435 0.98569 0.78952 0.0
C913 C 0.92328 0.99519 0.85594 0.0
C914 C 0.94323 1.00724 0.88086 0.0
C915 C 0.96316 1.01048 0.83984 0.0
H916 H 0.59659 0.87633 0.96942 0.0
H917 H 0.52237 0.87222 1.01294 0.0
H918 H 0.58977 0.91085 0.90098 0.0
H919 H 0.51568 0.90746 0.94547 0.0
H920 H 0.51692 0.9833 0.86019 0.0
H921 H 0.52435 0.95098 0.9376 0.0
H922 H 0.57048 0.91867 0.78998 0.0
H923 H 0.56309 0.95103 0.71279 0.0
C924 C 0.57876 0.88278 0.96467 0.0
C925 C 0.55997 0.87101 0.99614 0.0
C926 C 0.57488 0.90269 0.92523 0.0
C927 C 0.55213 0.91184 0.91666 0.0
C928 C 0.53346 0.90094 0.95099 0.0
C929 C 0.53731 0.88075 0.99003 0.0
C930 C 0.52885 0.96949 0.84445 0.0
C931 C 0.53935 0.96985 0.78 0.0
C932 C 0.53293 0.95078 0.8887 0.0
C933 C 0.54796 0.9321 0.87022 0.0
C934 C 0.55889 0.93277 0.8063 0.0
C935 C 0.55455 0.95129 0.76177 0.0
H936 H 0.65654 0.58366 0.96274 0.0
H937 H 0.66401 0.50881 0.98905 0.0
H938 H 0.62055 0.57721 0.89831 0.0
H939 H 0.62775 0.50227 0.92407 0.0
H940 H 0.54993 0.50084 0.85646 0.0
H941 H 0.58564 0.50692 0.92384 0.0
H942 H 0.6063 0.56285 0.79108 0.0
H943 H 0.5703 0.55674 0.72441 0.0
C944 C 0.65056 0.56574 0.9547 0.0
C945 C 0.6635 0.54675 0.98101 0.0
C946 C 0.62983 0.56203 0.91727 0.0
C947 C 0.62113 0.53918 0.9049 0.0
C948 C 0.63367 0.52017 0.9328 0.0
C949 C 0.65451 0.5239 0.97038 0.0
C950 C 0.56223 0.51433 0.84151 0.0
C951 C 0.5576 0.52791 0.78406 0.0
C952 C 0.5828 0.51778 0.88002 0.0
C953 C 0.59915 0.53534 0.8632 0.0
C954 C 0.59413 0.54933 0.80643 0.0
C955 C 0.57362 0.54568 0.76752 0.0
H956 H 0.02329 0.68106 0.95548 0.0
H957 H 0.9528 0.65554 0.98554 0.0
H958 H 0.03309 0.64416 0.89427 0.0
H959 H 0.96246 0.61925 0.92433 0.0
H960 H 0.97829 0.57277 0.73429 0.0
H961 H 0.97115 0.60907 0.80052 0.0
H962 H 0.03632 0.59883 0.90846 0.0
H963 H 0.04296 0.56222 0.84361 0.0
C964 C 1.01009 0.66739 0.95083 0.0
C965 C 0.98725 0.67139 0.97589 0.0
C966 C 0.01561 0.64631 0.91502 0.0
C967 C 0.99836 0.62883 0.9027 0.0
C968 C 0.97598 0.63244 0.93095 0.0
C969 C 0.97057 0.6532 0.96707 0.0
C970 C 0.99121 0.57846 0.77151 0.0
C971 C 1.01151 0.56491 0.78235 0.0
C972 C 0.98706 0.59917 0.81003 0.0
C973 C 1.00322 0.60708 0.86 0.0
C974 C 0.02362 0.59356 0.87014 0.0
C975 C 0.02744 0.57257 0.83286 0.0
H976 H 0.14528 0.20582 0.48207 0.0
H977 H 0.13315 0.15828 0.31226 0.0
H978 H 0.12714 0.17748 0.55718 0.0
H979 H 0.1154 0.13055 0.38569 0.0
H980 H 0.06738 0.09026 0.48805 0.0
H981 H 0.10677 0.10499 0.47129 0.0
H982 H 0.08675 0.17099 0.56685 0.0
H983 H 0.04817 0.1552 0.58979 0.0
C984 C 0.13941 0.18913 0.4609 0.0
C985 C 0.13982 0.1849 0.39044 0.0
C986 C 0.129 0.17285 0.50405 0.0
C987 C 0.11881 0.15208 0.47741 0.0
C988 C 0.12277 0.14631 0.40879 0.0
C989 C 0.13313 0.16249 0.36594 0.0
C990 C 0.07164 0.10743 0.50859 0.0
C991 C 0.05416 0.12192 0.5373 0.0
C992 C 0.0943 0.11607 0.49816 0.0
C993 C 0.09971 0.13967 0.51423 0.0
C994 C 0.08331 0.15287 0.55234 0.0
C995 C 0.06086 0.14396 0.56436 0.0
H996 H 0.37603 0.14139 0.37146 0.0
H997 H 0.31442 0.12314 0.48758 0.0
H998 H 0.39986 0.11676 0.44387 0.0
H999 H 0.33864 0.10077 0.56323 0.0
H1000 H 0.37115 0.02641 0.55161 0.0
H1001 H 0.35157 0.06281 0.52659 0.0
H1002 H 0.4175 0.10027 0.54487 0.0
H1003 H 0.43733 0.06324 0.57118 0.0
C1004 C 0.36758 0.13284 0.41349 0.0
C1005 C 0.3429 0.1331 0.42027 0.0
C1006 C 0.38142 0.11898 0.4559 0.0
C1007 C 0.37089 0.1058 0.50721 0.0
C1008 C 0.34709 0.10988 0.52213 0.0
C1009 C 0.33318 0.12315 0.47879 0.0
C1010 C 0.38147 0.04243 0.55248 0.0
C1011 C 0.40586 0.04181 0.56321 0.0
C1012 C 0.37017 0.06348 0.53831 0.0
C1013 C 0.38287 0.08464 0.53423 0.0
C1014 C 0.4072 0.08429 0.54739 0.0
C1015 C 0.41856 0.06307 0.562 0.0
H1016 H 0.42047 0.33757 0.5017 0.0
H1017 H 0.37569 0.38089 0.37816 0.0
H1018 H 0.4395 0.37223 0.54713 0.0
H1019 H 0.39513 0.41596 0.42386 0.0
H1020 H 0.48811 0.42961 0.57278 0.0
H1021 H 0.44909 0.41236 0.58912 0.0
H1022 H 0.43509 0.41921 0.37492 0.0
H1023 H 0.47333 0.43704 0.35975 0.0
C1024 C 0.41358 0.35453 0.48717 0.0
C1025 C 0.39747 0.35642 0.43331 0.0
C1026 C 0.42464 0.37461 0.51349 0.0
C1027 C 0.41967 0.39675 0.48623 0.0
C1028 C 0.39989 0.39898 0.44391 0.0
C1029 C 0.38875 0.37886 0.41771 0.0
C1030 C 0.47622 0.42821 0.52997 0.0
C1031 C 0.48384 0.43403 0.4647 0.0
C1032 C 0.45392 0.41837 0.53928 0.0
C1033 C 0.43898 0.41427 0.48336 0.0
C1034 C 0.44591 0.42234 0.41943 0.0
C1035 C 0.46803 0.43219 0.41031 0.0
H1036 H 0.18615 0.39076 0.4224 0.0
H1037 H 0.15759 0.39426 0.21934 0.0
H1038 H 0.14944 0.40677 0.46686 0.0
H1039 H 0.12162 0.40967 0.26324 0.0
H1040 H 0.11478 0.48211 0.4678 0.0
H1041 H 0.13862 0.447 0.45881 0.0
H1042 H 0.08697 0.4151 0.32484 0.0
H1043 H 0.06348 0.45096 0.33192 0.0
C1044 C 0.17197 0.39424 0.38728 0.0
C1045 C 0.17548 0.39216 0.31685 0.0
C1046 C 0.15087 0.40339 0.41287 0.0
C1047 C 0.13288 0.41048 0.3685 0.0
C1048 C 0.13501 0.40469 0.29934 0.0
C1049 C 0.15601 0.39567 0.27385 0.0
C1050 C 0.10814 0.4674 0.43788 0.0
C1051 C 0.08748 0.46955 0.39931 0.0
C1052 C 0.12178 0.44704 0.43313 0.0
C1053 C 0.11501 0.42824 0.39 0.0
C1054 C 0.09307 0.42947 0.35706 0.0
C1055 C 0.07963 0.45003 0.36091 0.0
H1056 H 0.87421 0.88118 0.88719 0.0
H1057 H 0.9163 0.82628 0.79361 0.0
H1058 H 0.89186 0.9097 0.81183 0.0
H1059 H 0.93319 0.85406 0.71955 0.0
H1060 H 0.9822 0.90011 0.64257 0.0
H1061 H 0.94265 0.88395 0.64733 0.0
H1062 H 0.93019 0.92378 0.83244 0.0
H1063 H 0.96893 0.9409 0.82483 0.0
C1064 C 0.88655 0.87495 0.84932 0.0
C1065 C 0.89494 0.85162 0.85009 0.0
C1066 C 0.89665 0.89134 0.80592 0.0
C1067 C 0.91503 0.88453 0.76225 0.0
C1068 C 0.91953 0.86034 0.75329 0.0
C1069 C 0.90961 0.84408 0.79666 0.0
C1070 C 0.97063 0.90604 0.68278 0.0
C1071 C 0.97891 0.92122 0.73437 0.0
C1072 C 0.94794 0.89674 0.68569 0.0
C1073 C 0.93347 0.90166 0.74187 0.0
C1074 C 0.94071 0.91928 0.78851 0.0
C1075 C 0.96318 0.92901 0.78463 0.0
H1076 H 0.65115 0.87795 0.87901 0.0
H1077 H 0.71014 0.91723 0.80141 0.0
H1078 H 0.62482 0.90037 0.80687 0.0
H1079 H 0.6844 0.93878 0.73042 0.0
H1080 H 0.64079 0.9915 0.65067 0.0
H1081 H 0.65583 0.95137 0.65517 0.0
H1082 H 0.61444 0.93972 0.83498 0.0
H1083 H 0.59852 0.97906 0.82759 0.0
C1084 C 0.6587 0.89071 0.84528 0.0
C1085 C 0.68272 0.89667 0.84973 0.0
C1086 C 0.64356 0.90355 0.80373 0.0
C1087 C 0.65229 0.92228 0.76539 0.0
C1088 C 0.67677 0.92484 0.75987 0.0
C1089 C 0.6918 0.91219 0.8014 0.0
C1090 C 0.6344 0.98 0.68975 0.0
C1091 C 0.61888 0.98851 0.73955 0.0
C1092 C 0.643 0.95701 0.69244 0.0
C1093 C 0.6369 0.94237 0.7465 0.0
C1094 C 0.61953 0.95023 0.79225 0.0
C1095 C 0.61055 0.97301 0.78858 0.0
H1096 H 0.64644 0.65576 0.8975 0.0
H1097 H 0.62743 0.71104 0.75999 0.0
H1098 H 0.62357 0.62829 0.83181 0.0
H1099 H 0.60798 0.68276 0.6878 0.0
H1100 H 0.53245 0.65604 0.70049 0.0
H1101 H 0.57144 0.67186 0.69594 0.0
H1102 H 0.59917 0.60646 0.77363 0.0
H1103 H 0.55932 0.59221 0.78605 0.0
C1104 C 0.63791 0.66204 0.85216 0.0
C1105 C 0.63656 0.68626 0.83896 0.0
C1106 C 0.62492 0.64597 0.81301 0.0
C1107 C 0.61137 0.65372 0.75762 0.0
C1108 C 0.61592 0.67653 0.73401 0.0
C1109 C 0.6278 0.69286 0.77519 0.0
C1110 C 0.54694 0.6451 0.71672 0.0
C1111 C 0.54275 0.62327 0.74627 0.0
C1112 C 0.56972 0.65399 0.71291 0.0
C1113 C 0.58908 0.64109 0.73779 0.0
C1114 C 0.58497 0.6177 0.75756 0.0
C1115 C 0.56202 0.60915 0.76331 0.0
H1116 H 0.83019 0.61349 0.79256 0.0
H1117 H 0.86781 0.66286 0.92127 0.0
H1118 H 0.86676 0.59875 0.74841 0.0
H1119 H 0.90495 0.64824 0.87566 0.0
H1120 H 0.93768 0.57495 0.93691 0.0
H1121 H 0.91665 0.61129 0.91976 0.0
H1122 H 0.90581 0.59216 0.70894 0.0
H1123 H 0.92634 0.55501 0.72758 0.0
C1124 C 0.84622 0.62229 0.80851 0.0
C1125 C 0.84616 0.63853 0.86299 0.0
C1126 C 0.86745 0.61374 0.78292 0.0
C1127 C 0.8889 0.62139 0.81136 0.0
C1128 C 0.88868 0.64127 0.85487 0.0
C1129 C 0.86739 0.64973 0.88087 0.0
C1130 C 0.93128 0.57876 0.8865 0.0
C1131 C 0.93273 0.56179 0.83436 0.0
C1132 C 0.9195 0.59987 0.87612 0.0
C1133 C 0.90893 0.60452 0.81316 0.0
C1134 C 0.9133 0.58892 0.75843 0.0
C1135 C 0.92508 0.56765 0.76903 0.0
H1136 H 0.07944 0.1766 0.89139 0.0
H1137 H 1.00579 0.18885 0.93041 0.0
H1138 H 0.06985 0.14191 0.8252 0.0
H1139 H 0.99591 0.15536 0.85743 0.0
H1140 H 0.98355 0.08004 0.78347 0.0
H1141 H 0.99273 0.11617 0.84533 0.0
H1142 H 0.05754 0.12194 0.73251 0.0
H1143 H 0.04873 0.08459 0.67456 0.0
C1144 C 0.06106 0.17207 0.88592 0.0
C1145 C 0.04352 0.18563 0.91899 0.0
C1146 C 0.05545 0.15211 0.846 0.0
C1147 C 0.03196 0.14504 0.83528 0.0
C1148 C 0.01431 0.15937 0.86524 0.0
C1149 C 0.01997 0.17912 0.9066 0.0
C1150 C 0.99992 0.08894 0.7726 0.0
C1151 C 0.01579 0.0789 0.72598 0.0
C1152 C 1.00513 0.11007 0.80756 0.0
C1153 C 0.02609 0.12259 0.79533 0.0
C1154 C 0.04153 0.1129 0.74589 0.0
C1155 C 0.03653 0.09135 0.71213 0.0
H1156 H 0.38339 0.08081 0.93942 0.0
H1157 H 0.34075 0.02243 0.8681 0.0
H1158 H 0.41538 0.06763 0.86915 0.0
H1159 H 0.37456 1.0079 0.80137 0.0
H1160 H 0.45588 0.98223 0.76974 0.0
H1161 H 0.41907 0.99349 0.8262 0.0
H1162 H 0.42387 0.06248 0.7397 0.0
H1163 H 0.4602 0.05091 0.68157 0.0
C1164 C 0.38051 0.06525 0.9082 0.0
C1165 C 0.35864 0.05337 0.90819 0.0
C1166 C 0.39929 0.0575 0.86829 0.0
C1167 C 0.39764 0.03686 0.82889 0.0
C1168 C 0.37637 0.02403 0.83089 0.0
C1169 C 0.35701 0.0323 0.86956 0.0
C1170 C 0.44904 0.99981 0.76281 0.0
C1171 C 0.46156 0.01601 0.72348 0.0
C1172 C 0.42782 1.00617 0.79464 0.0
C1173 C 0.41854 0.02895 0.78812 0.0
C1174 C 0.43063 0.04486 0.74659 0.0
C1175 C 0.45164 0.03836 0.71391 0.0
H1176 H 0.46357 0.34075 0.83371 0.0
H1177 H 0.51887 0.36312 0.96945 0.0
H1178 H 0.47388 0.37209 0.75586 0.0
H1179 H 0.52897 0.39498 0.89292 0.0
H1180 H 0.54757 0.44771 0.73051 0.0
H1181 H 0.54322 0.41013 0.78766 0.0
H1182 H 0.46809 0.41337 0.75665 0.0
H1183 H 0.47258 0.45033 0.69811 0.0
C1184 C 0.47856 0.35185 0.84556 0.0
C1185 C 0.49075 0.34911 0.90699 0.0
C1186 C 0.48421 0.37017 0.8016 0.0
C1187 C 0.50204 0.38654 0.81824 0.0
C1188 C 0.51528 0.38275 0.87768 0.0
C1189 C 0.50964 0.36432 0.92154 0.0
C1190 C 0.53016 0.44026 0.73508 0.0
C1191 C 0.51041 0.45238 0.71033 0.0
C1192 C 0.52762 0.41871 0.76844 0.0
C1193 C 0.50527 0.40851 0.77751 0.0
C1194 C 0.48566 0.4203 0.75036 0.0
C1195 C 0.4882 0.4418 0.7173 0.0
H1196 H 0.20181 0.4704 0.83207 0.0
H1197 H 0.18206 0.5256 0.97306 0.0
H1198 H 0.16608 0.47716 0.76674 0.0
H1199 H 0.14589 0.53204 0.909 0.0
H1200 H 0.088 0.54892 0.75786 0.0
H1201 H 0.12624 0.54528 0.81227 0.0
H1202 H 0.12555 0.4705 0.76923 0.0
H1203 H 0.08797 0.47458 0.71105 0.0
C1204 C 0.1899 0.48416 0.84886 0.0
C1205 C 0.19497 0.49747 0.90797 0.0
C1206 C 0.16917 0.4879 0.81167 0.0
C1207 C 0.15258 0.50495 0.83255 0.0
C1208 C 0.15813 0.51889 0.89035 0.0
C1209 C 0.17902 0.51526 0.92728 0.0
C1210 C 0.09624 0.53182 0.75827 0.0
C1211 C 0.08486 0.51215 0.72884 0.0
C1212 C 0.11815 0.5296 0.79086 0.0
C1213 C 0.1294 0.50757 0.79565 0.0
C1214 C 0.11795 0.4879 0.76592 0.0
C1215 C 0.09613 0.49017 0.73294 0.0
H1216 H 0.03372 0.85245 0.36164 0.0
H1217 H 0.96018 0.8706 0.37347 0.0
H1218 H 0.04306 0.88573 0.43687 0.0
H1219 H 0.96952 0.90475 0.44252 0.0
H1220 H 0.98882 0.95896 0.6052 0.0
H1221 H 0.97944 0.92322 0.54022 0.0
H1222 H 0.04815 0.92537 0.44743 0.0
H1223 H 0.05734 0.96068 0.51377 0.0
C1224 C 0.01949 0.86341 0.38017 0.0
C1225 C 0.99619 0.85871 0.35963 0.0
C1226 C 0.02488 0.88297 0.42272 0.0
C1227 C 1.00721 0.89871 0.44594 0.0
C1228 C 0.98386 0.89338 0.42718 0.0
C1229 C 0.97848 0.87372 0.38588 0.0
C1230 C 1.00174 0.95189 0.57023 0.0
C1231 C 0.02356 0.96315 0.56313 0.0
C1232 C 0.99648 0.93115 0.53286 0.0
C1233 C 1.01297 0.92075 0.48773 0.0
C1234 C 0.03494 0.93209 0.48194 0.0
C1235 C 0.04019 0.95268 0.51953 0.0
H1236 H 0.66691 0.95727 0.38078 0.0
H1237 H 0.68371 0.03067 0.35643 0.0
H1238 H 0.63301 0.96784 0.44825 0.0
H1239 H 0.65055 0.04139 0.42909 0.0
H1240 H 0.57493 0.05531 0.49757 0.0
H1241 H 0.6101 0.04496 0.43335 0.0
H1242 H 0.61641 0.9809 0.5471 0.0
H1243 H 0.58081 0.99127 0.60977 0.0
C1244 C 0.66355 0.97578 0.39024 0.0
C1245 C 0.67807 0.99307 0.36132 0.0
C1246 C 0.64407 0.98189 0.4303 0.0
C1247 C 0.63847 1.00559 0.4445 0.0
C1248 C 0.65368 0.02293 0.41842 0.0
C1249 C 0.67311 0.01678 0.37741 0.0
C1250 C 0.5838 0.0389 0.50827 0.0
C1251 C 0.57464 0.02376 0.55718 0.0
C1252 C 0.60425 0.03305 0.47199 0.0
C1253 C 0.61663 1.01204 0.48453 0.0
C1254 C 0.60753 0.99709 0.53471 0.0
C1255 C 0.58693 1.00292 0.57069 0.0
H1256 H 0.51802 0.67716 0.31414 0.0
H1257 H 0.57222 0.70111 0.45134 0.0
H1258 H 0.5079 0.64569 0.39148 0.0
H1259 H 0.56177 0.67015 0.53052 0.0
H1260 H 0.56301 0.59205 0.59338 0.0
H1261 H 0.56765 0.62927 0.5359 0.0
H1262 H 0.49307 0.63059 0.49383 0.0
H1263 H 0.4887 0.59275 0.54931 0.0
C1264 C 0.52697 0.6764 0.36259 0.0
C1265 C 0.54553 0.69199 0.37728 0.0
C1266 C 0.52131 0.65818 0.40704 0.0
C1267 C 0.53417 0.65493 0.46746 0.0
C1268 C 0.55171 0.67163 0.48412 0.0
C1269 C 0.55742 0.68976 0.43941 0.0
C1270 C 0.54757 0.60024 0.57183 0.0
C1271 C 0.52557 0.58898 0.57464 0.0
C1272 C 0.55017 0.62188 0.53941 0.0
C1273 C 0.53079 0.63314 0.50906 0.0
C1274 C 0.50855 0.6224 0.5151 0.0
C1275 C 0.50597 0.60069 0.54752 0.0
H1276 H 0.83437 0.56294 0.45418 0.0
H1277 H 0.85939 0.51488 0.2998 0.0
H1278 H 0.86771 0.5526 0.52704 0.0
H1279 H 0.89288 0.50462 0.37197 0.0
H1280 H 0.96517 0.52634 0.46525 0.0
H1281 H 0.92788 0.52884 0.4047 0.0
H1282 H 0.89053 0.52115 0.59297 0.0
H1283 H 0.92839 0.51847 0.65385 0.0
C1284 C 0.84643 0.54935 0.43709 0.0
C1285 C 0.84386 0.53929 0.37178 0.0
C1286 C 0.8657 0.54356 0.47864 0.0
C1287 C 0.88324 0.52794 0.45534 0.0
C1288 C 0.87988 0.51687 0.39153 0.0
C1289 C 0.86046 0.52243 0.35046 0.0
C1290 C 0.94904 0.52536 0.49393 0.0
C1291 C 0.9498 0.52276 0.56459 0.0
C1292 C 0.92757 0.52643 0.459 0.0
C1293 C 0.90602 0.52518 0.49362 0.0
C1294 C 0.90673 0.52229 0.56454 0.0
C1295 C 0.92839 0.52072 0.59948 0.0
loop_
_geom_bond_atom_site_label_1
_geom_bond_atom_site_label_2
_geom_bond_distance
_geom_bond_site_symmetry_2
_ccdc_geom_bond_type
C0 C1 1.391 . S
C0 C4 1.391 . S
C0 H42 0.948 . S
C1 C0 1.391 . S
C1 C2 1.391 . S
C2 C1 1.391 . S
C2 H58 0.947 . S
C2 C59 1.392 . S
C3 C4 1.391 . S
C3 C7 1.397 . S
C3 C59 1.419 . S
C4 C0 1.391 . S
C4 C3 1.391 . S
C4 C5 1.399 . S
C5 C4 1.399 . S
C5 C8 1.396 . S
C5 C17 1.453 . S
C5 C18 1.684 . S
H6 C30 0.948 . S
C7 C3 1.397 . S
C7 C8 1.394 . S
C7 C26 1.723 . S
C8 C5 1.396 . S
C8 C7 1.394 . S
C8 C38 1.723 . S
H9 C32 0.947 . S
H10 C33 0.948 . S
H11 C39 0.982 . S
H12 C40 0.979 . S
H13 C40 0.980 . S
H14 C40 0.990 . S
H15 C39 0.979 . S
H16 C39 0.977 . S
C17 C5 1.453 . S
C17 H46 0.982 . S
C17 H47 0.979 . S
C17 H48 0.977 . S
C18 C5 1.684 . S
C18 H43 0.979 . S
C18 H44 0.980 . S
C18 H45 0.983 . S
C19 C20 1.384 1_554 S
C19 C24 1.391 . S
C19 H49 0.948 . S
C20 C19 1.384 1_556 S
C20 C21 1.393 . S
C21 C20 1.393 . S
C21 C22 1.392 1_556 S
C21 H50 0.947 . S
C22 C21 1.392 1_554 S
C22 C23 1.419 . S
C22 H51 0.948 . S
C23 C22 1.419 . S
C23 C24 1.391 . S
C23 C27 1.397 . S
C24 C19 1.391 . S
C24 C23 1.391 . S
C24 C25 1.399 . S
C25 C24 1.399 . S
C25 C26 1.396 . S
C25 C28 1.453 . S
C25 C29 1.684 . S
C26 C7 1.723 . S
C26 C25 1.396 . S
C26 C27 1.394 . S
C27 C23 1.397 . S
C27 C26 1.394 . S
C27 C37 1.723 . S
C28 C25 1.453 . S
C28 H52 0.982 . S
C28 H53 0.979 . S
C28 H54 0.977 . S
C29 C25 1.684 . S
C29 H55 0.979 . S
C29 H56 0.980 . S
C29 H57 0.983 . S
C30 H6 0.948 . S
C30 C31 1.391 . S
C30 C35 1.391 . S
C31 C30 1.391 . S
C31 C32 1.391 . S
C32 H9 0.947 . S
C32 C31 1.391 . S
C32 C33 1.392 . S
C33 H10 0.948 . S
C33 C32 1.392 . S
C33 C34 1.419 . S
C34 C33 1.419 . S
C34 C35 1.391 . S
C34 C38 1.397 . S
C35 C30 1.391 . S
C35 C34 1.391 . S
C35 C36 1.399 . S
C36 C35 1.399 . S
C36 C37 1.396 . S
C36 C39 1.453 . S
C36 C40 1.684 . S
C37 C27 1.723 . S
C37 C36 1.396 . S
C37 C38 1.394 . S
C38 C8 1.723 . S
C38 C34 1.397 . S
C38 C37 1.394 . S
C39 H11 0.982 . S
C39 H15 0.979 . S
C39 H16 0.977 . S
C39 C36 1.453 . S
C40 H12 0.979 . S
C40 H13 0.980 . S
C40 H14 0.990 . S
C40 C36 1.684 . S
H41 C59 0.948 . S
H42 C0 0.948 . S
H43 C18 0.979 . S
H44 C18 0.980 . S
H45 C18 0.983 . S
H46 C17 0.982 . S
H47 C17 0.979 . S
H48 C17 0.977 . S
H49 C19 0.948 . S
H50 C21 0.947 . S
H51 C22 0.948 . S
H52 C28 0.982 . S
H53 C28 0.979 . S
H54 C28 0.977 . S
H55 C29 0.979 . S
H56 C29 0.980 . S
H57 C29 0.983 . S
H58 C2 0.947 . S
C59 C2 1.392 . S
C59 C3 1.419 . S
C59 H41 0.948 . S
C60 C61 1.391 . S
C60 C64 1.391 . S
C60 H102 0.948 1_554 S
C61 C60 1.391 . S
C61 C62 1.391 . S
C62 C61 1.391 . S
C62 H118 0.947 . S
C62 C119 1.392 . S
C63 C64 1.391 . S
C63 C67 1.397 . S
C63 C119 1.419 . S
C64 C60 1.391 . S
C64 C63 1.391 . S
C64 C65 1.399 . S
C65 C64 1.399 . S
C65 C68 1.396 . S
C65 C77 1.453 . S
C65 C78 1.684 . S
H66 C90 0.948 . S
C67 C63 1.397 . S
C67 C68 1.394 . S
C67 C86 1.723 . S
C68 C65 1.396 . S
C68 C67 1.394 . S
C68 C98 1.723 . S
H69 C92 0.947 . S
H70 C93 0.948 . S
H71 C99 0.982 . S
H72 C100 0.979 . S
H73 C100 0.980 . S
H74 C100 0.983 . S
H75 C99 0.979 . S
H76 C99 0.977 . S
C77 C65 1.453 . S
C77 H106 0.982 . S
C77 H107 0.979 1_554 S
C77 H108 0.977 . S
C78 C65 1.684 . S
C78 H103 0.979 . S
C78 H104 0.980 . S
C78 H105 0.983 1_554 S
C79 C80 1.391 . S
C79 C84 1.391 . S
C79 H109 0.948 . S
C80 C79 1.391 . S
C80 C81 1.391 . S
C81 C80 1.391 . S
C81 C82 1.392 . S
C81 H110 0.947 . S
C82 C81 1.392 . S
C82 C83 1.419 . S
C82 H111 0.948 . S
C83 C82 1.419 . S
C83 C84 1.391 . S
C83 C87 1.397 . S
C84 C79 1.391 . S
C84 C83 1.391 . S
C84 C85 1.399 . S
C85 C84 1.399 . S
C85 C86 1.396 . S
C85 C88 1.453 . S
C85 C89 1.684 . S
C86 C67 1.723 . S
C86 C85 1.396 . S
C86 C87 1.394 . S
C87 C83 1.397 . S
C87 C86 1.394 . S
C87 C97 1.723 . S
C88 C85 1.453 . S
C88 H112 0.982 . S
C88 H113 0.979 . S
C88 H114 0.977 . S
C89 C85 1.684 . S
C89 H115 0.979 . S
C89 H116 0.980 . S
C89 H117 0.983 . S
C90 H66 0.948 . S
C90 C91 1.391 . S
C90 C95 1.391 . S
C91 C90 1.391 . S
C91 C92 1.391 . S
C92 H69 0.947 . S
C92 C91 1.391 . S
C92 C93 1.392 . S
C93 H70 0.948 . S
C93 C92 1.392 . S
C93 C94 1.419 . S
C94 C93 1.419 . S
C94 C95 1.391 . S
C94 C98 1.397 . S
C95 C90 1.391 . S
C95 C94 1.391 . S
C95 C96 1.399 . S
C96 C95 1.399 . S
C96 C97 1.396 . S
C96 C99 1.453 . S
C96 C100 1.684 . S
C97 C87 1.723 . S
C97 C96 1.396 . S
C97 C98 1.394 . S
C98 C68 1.723 . S
C98 C94 1.397 . S
C98 C97 1.394 . S
C99 H71 0.982 . S
C99 H75 0.979 . S
C99 H76 0.977 . S
C99 C96 1.453 . S
C100 H72 0.979 . S
C100 H73 0.980 . S
C100 H74 0.983 . S
C100 C96 1.684 . S
H101 C119 0.948 . S
H102 C60 0.948 1_556 S
H103 C78 0.979 . S
H104 C78 0.980 . S
H105 C78 0.983 1_556 S
H106 C77 0.982 . S
H107 C77 0.979 1_556 S
H108 C77 0.977 . S
H109 C79 0.948 . S
H110 C81 0.947 . S
H111 C82 0.948 . S
H112 C88 0.982 . S
H113 C88 0.979 . S
H114 C88 0.977 . S
H115 C89 0.979 . S
H116 C89 0.980 . S
H117 C89 0.983 . S
H118 C62 0.947 . S
C119 C62 1.392 . S
C119 C63 1.419 . S
C119 H101 0.948 . S
C120 C121 1.391 . S
C120 C124 1.391 . S
C120 H162 0.948 . S
C121 C120 1.391 . S
C121 C122 1.391 . S
C122 C121 1.391 . S
C122 H178 0.947 . S
C122 C179 1.392 . S
C123 C124 1.391 . S
C123 C127 1.397 . S
C123 C179 1.419 . S
C124 C120 1.391 . S
C124 C123 1.391 . S
C124 C125 1.399 . S
C125 C124 1.399 . S
C125 C128 1.396 . S
C125 C137 1.453 . S
C125 C138 1.684 . S
H126 C150 0.948 . S
C127 C123 1.397 . S
C127 C128 1.394 . S
C127 C146 1.723 . S
C128 C125 1.396 . S
C128 C127 1.394 . S
C128 C158 1.723 . S
H129 C152 0.947 . S
H130 C153 0.948 . S
H131 C159 0.982 . S
H132 C160 0.979 . S
H133 C160 0.980 . S
H134 C160 0.983 . S
H135 C159 0.979 . S
H136 C159 0.977 . S
C137 C125 1.453 . S
C137 H166 0.982 . S
C137 H167 0.979 . S
C137 H168 0.977 . S
C138 C125 1.684 . S
C138 H163 0.979 . S
C138 H164 0.980 . S
C138 H165 0.983 . S
C139 C140 1.391 . S
C139 C144 1.391 . S
C139 H169 0.948 1_554 S
C140 C139 1.391 . S
C140 C141 1.391 . S
C141 C140 1.391 . S
C141 C142 1.392 . S
C141 H170 0.947 . S
C142 C141 1.392 . S
C142 C143 1.419 . S
C142 H171 0.948 . S
C143 C142 1.419 . S
C143 C144 1.391 . S
C143 C147 1.397 . S
C144 C139 1.391 . S
C144 C143 1.391 . S
C144 C145 1.399 . S
C145 C144 1.399 . S
C145 C146 1.396 . S
C145 C148 1.453 . S
C145 C149 1.684 . S
C146 C127 1.723 . S
C146 C145 1.396 . S
C146 C147 1.394 . S
C147 C143 1.397 . S
C147 C146 1.394 . S
C147 C157 1.723 . S
C148 C145 1.453 . S
C148 H172 0.982 . S
C148 H173 0.979 1_554 S
C148 H174 0.977 . S
C149 C145 1.684 . S
C149 H175 0.979 . S
C149 H176 0.980 . S
C149 H177 0.983 1_554 S
C150 H126 0.948 . S
C150 C151 1.391 . S
C150 C155 1.391 . S
C151 C150 1.391 . S
C151 C152 1.391 . S
C152 H129 0.947 . S
C152 C151 1.391 . S
C152 C153 1.392 . S
C153 H130 0.948 . S
C153 C152 1.392 . S
C153 C154 1.419 . S
C154 C153 1.419 . S
C154 C155 1.391 . S
C154 C158 1.397 . S
C155 C150 1.391 . S
C155 C154 1.391 . S
C155 C156 1.399 . S
C156 C155 1.399 . S
C156 C157 1.396 . S
C156 C159 1.453 . S
C156 C160 1.684 . S
C157 C147 1.723 . S
C157 C156 1.396 . S
C157 C158 1.394 . S
C158 C128 1.723 . S
C158 C154 1.397 . S
C158 C157 1.394 . S
C159 H131 0.982 . S
C159 H135 0.979 . S
C159 H136 0.977 . S
C159 C156 1.453 . S
C160 H132 0.979 . S
C160 H133 0.980 . S
C160 H134 0.983 . S
C160 C156 1.684 . S
H161 C179 0.948 . S
H162 C120 0.948 . S
H163 C138 0.979 . S
H164 C138 0.980 . S
H165 C138 0.983 . S
H166 C137 0.982 . S
H167 C137 0.979 . S
H168 C137 0.977 . S
H169 C139 0.948 1_556 S
H170 C141 0.947 . S
H171 C142 0.948 . S
H172 C148 0.982 . S
H173 C148 0.979 1_556 S
H174 C148 0.977 . S
H175 C149 0.979 . S
H176 C149 0.980 . S
H177 C149 0.983 1_556 S
H178 C122 0.947 . S
C179 C122 1.392 . S
C179 C123 1.419 . S
C179 H161 0.948 . S
C180 C181 1.391 . S
C180 C184 1.391 . S
C180 H222 0.948 . S
C181 C180 1.391 . S
C181 C182 1.391 . S
C182 C181 1.391 . S
C182 H238 0.947 . S
C182 C239 1.392 . S
C183 C184 1.391 . S
C183 C187 1.397 . S
C183 C239 1.419 . S
C184 C180 1.391 . S
C184 C183 1.391 . S
C184 C185 1.399 . S
C185 C184 1.399 . S
C185 C188 1.396 . S
C185 C197 1.453 . S
C185 C198 1.684 . S
H186 C210 0.948 . S
C187 C183 1.397 . S
C187 C188 1.394 . S
C187 C206 1.723 . S
C188 C185 1.396 . S
C188 C187 1.394 . S
C188 C218 1.723 . S
H189 C212 0.947 . S
H190 C213 0.948 . S
H191 C219 0.982 . S
H192 C220 0.979 . S
H193 C220 0.980 . S
H194 C220 0.983 . S
H195 C219 0.979 . S
H196 C219 0.977 . S
C197 C185 1.453 . S
C197 H226 0.982 . S
C197 H227 0.979 . S
C197 H228 0.977 . S
C198 C185 1.684 . S
C198 H223 0.979 . S
C198 H224 0.980 . S
C198 H225 0.983 . S
C199 C200 1.398 . S
C199 C204 1.391 . S
C199 H229 0.948 . S
C200 C199 1.398 . S
C200 C201 1.389 1_554 S
C201 C200 1.389 1_556 S
C201 C202 1.392 1_556 S
C201 H230 0.947 . S
C202 C201 1.392 1_554 S
C202 C203 1.419 . S
C202 H231 0.948 . S
C203 C202 1.419 . S
C203 C204 1.391 . S
C203 C207 1.397 . S
C204 C199 1.391 . S
C204 C203 1.391 . S
C204 C205 1.399 . S
C205 C204 1.399 . S
C205 C206 1.396 . S
C205 C208 1.453 . S
C205 C209 1.684 . S
C206 C187 1.723 . S
C206 C205 1.396 . S
C206 C207 1.394 . S
C207 C203 1.397 . S
C207 C206 1.394 . S
C207 C217 1.723 . S
C208 C205 1.453 . S
C208 H232 0.982 . S
C208 H233 0.979 . S
C208 H234 0.977 . S
C209 C205 1.684 . S
C209 H235 0.979 . S
C209 H236 0.980 . S
C209 H237 0.983 . S
C210 H186 0.948 . S
C210 C211 1.391 . S
C210 C215 1.391 . S
C211 C210 1.391 . S
C211 C212 1.391 . S
C212 H189 0.947 . S
C212 C211 1.391 . S
C212 C213 1.392 . S
C213 H190 0.948 . S
C213 C212 1.392 . S
C213 C214 1.419 . S
C214 C213 1.419 . S
C214 C215 1.391 . S
C214 C218 1.397 . S
C215 C210 1.391 . S
C215 C214 1.391 . S
C215 C216 1.399 . S
C216 C215 1.399 . S
C216 C217 1.396 . S
C216 C219 1.453 . S
C216 C220 1.684 . S
C217 C207 1.723 . S
C217 C216 1.396 . S
C217 C218 1.394 . S
C218 C188 1.723 . S
C218 C214 1.397 . S
C218 C217 1.394 . S
C219 H191 0.982 . S
C219 H195 0.979 . S
C219 H196 0.977 . S
C219 C216 1.453 . S
C220 H192 0.979 . S
C220 H193 0.980 . S
C220 H194 0.983 . S
C220 C216 1.684 . S
H221 C239 0.948 . S
H222 C180 0.948 . S
H223 C198 0.979 . S
H224 C198 0.980 . S
H225 C198 0.983 . S
H226 C197 0.982 . S
H227 C197 0.979 . S
H228 C197 0.977 . S
H229 C199 0.948 . S
H230 C201 0.947 . S
H231 C202 0.948 . S
H232 C208 0.982 . S
H233 C208 0.979 . S
H234 C208 0.977 . S
H235 C209 0.979 . S
H236 C209 0.980 . S
H237 C209 0.983 . S
H238 C182 0.947 . S
C239 C182 1.392 . S
C239 C183 1.419 . S
C239 H221 0.948 . S
C240 C241 1.391 . S
C240 C244 1.391 . S
C240 H282 0.948 1_554 S
C241 C240 1.391 . S
C241 C242 1.391 . S
C242 C241 1.391 . S
C242 H298 0.947 . S
C242 C299 1.392 . S
C243 C244 1.391 . S
C243 C247 1.397 . S
C243 C299 1.419 . S
C244 C240 1.391 . S
C244 C243 1.391 . S
C244 C245 1.399 1_554 S
C245 C244 1.399 1_556 S
C245 C248 1.396 . S
C245 C257 1.453 . S
C245 C258 1.684 . S
H246 C270 0.948 . S
C247 C243 1.397 . S
C247 C248 1.394 1_554 S
C247 C266 1.723 . S
C248 C245 1.396 . S
C248 C247 1.394 1_556 S
C248 C278 1.723 . S
H249 C272 0.947 . S
H250 C273 0.948 . S
H251 C279 0.982 . S
H252 C280 0.979 . S
H253 C280 0.980 . S
H254 C280 0.983 . S
H255 C279 0.979 . S
H256 C279 0.977 . S
C257 C245 1.453 . S
C257 H286 0.982 . S
C257 H287 0.979 . S
C257 H288 0.977 . S
C258 C245 1.684 . S
C258 H283 0.979 . S
C258 H284 0.980 . S
C258 H285 0.983 . S
C259 C260 1.391 . S
C259 C264 1.391 . S
C259 H289 0.948 . S
C260 C259 1.391 . S
C260 C261 1.391 . S
C261 C260 1.391 . S
C261 C262 1.392 . S
C261 H290 0.947 . S
C262 C261 1.392 . S
C262 C263 1.419 . S
C262 H291 0.948 . S
C263 C262 1.419 . S
C263 C264 1.391 . S
C263 C267 1.397 . S
C264 C259 1.391 . S
C264 C263 1.391 . S
C264 C265 1.399 . S
C265 C264 1.399 . S
C265 C266 1.396 . S
C265 C268 1.453 . S
C265 C269 1.684 . S
C266 C247 1.723 . S
C266 C265 1.396 . S
C266 C267 1.394 . S
C267 C263 1.397 . S
C267 C266 1.394 . S
C267 C277 1.723 1_554 S
C268 C265 1.453 . S
C268 H292 0.982 . S
C268 H293 0.979 . S
C268 H294 0.977 . S
C269 C265 1.684 . S
C269 H295 0.979 . S
C269 H296 0.980 . S
C269 H297 0.983 . S
C270 H246 0.948 . S
C270 C271 1.391 . S
C270 C275 1.391 . S
C271 C270 1.391 . S
C271 C272 1.391 . S
C272 H249 0.947 . S
C272 C271 1.391 . S
C272 C273 1.392 . S
C273 H250 0.948 . S
C273 C272 1.392 . S
C273 C274 1.419 . S
C274 C273 1.419 . S
C274 C275 1.391 . S
C274 C278 1.397 . S
C275 C270 1.391 . S
C275 C274 1.391 . S
C275 C276 1.399 . S
C276 C275 1.399 . S
C276 C277 1.396 . S
C276 C279 1.453 . S
C276 C280 1.684 . S
C277 C267 1.723 1_556 S
C277 C276 1.396 . S
C277 C278 1.394 . S
C278 C248 1.723 . S
C278 C274 1.397 . S
C278 C277 1.394 . S
C279 H251 0.982 . S
C279 H255 0.979 . S
C279 H256 0.977 . S
C279 C276 1.453 . S
C280 H252 0.979 . S
C280 H253 0.980 . S
C280 H254 0.983 . S
C280 C276 1.684 . S
H281 C299 0.948 . S
H282 C240 0.948 1_556 S
H283 C258 0.979 . S
H284 C258 0.980 . S
H285 C258 0.983 . S
H286 C257 0.982 . S
H287 C257 0.979 . S
H288 C257 0.977 . S
H289 C259 0.948 . S
H290 C261 0.947 . S
H291 C262 0.948 . S
H292 C268 0.982 . S
H293 C268 0.979 . S
H294 C268 0.977 . S
H295 C269 0.979 . S
H296 C269 0.980 . S
H297 C269 0.983 . S
H298 C242 0.947 . S
C299 C242 1.392 . S
C299 C243 1.419 . S
C299 H281 0.948 . S
C300 C301 1.391 . S
C300 C304 1.391 . S
C300 H342 0.948 . S
C301 C300 1.391 . S
C301 C302 1.391 . S
C302 C301 1.391 . S
C302 H358 0.947 . S
C302 C359 1.392 . S
C303 C304 1.391 . S
C303 C307 1.397 . S
C303 C359 1.419 . S
C304 C300 1.391 . S
C304 C303 1.391 . S
C304 C305 1.399 . S
C305 C304 1.399 . S
C305 C308 1.396 . S
C305 C317 1.453 . S
C305 C318 1.684 . S
H306 C330 0.948 1_556 S
C307 C303 1.397 . S
C307 C308 1.394 . S
C307 C326 1.723 1_554 S
C308 C305 1.396 . S
C308 C307 1.394 . S
C308 C338 1.723 . S
H309 C332 0.947 . S
H310 C333 0.948 . S
H311 C339 0.982 . S
H312 C340 0.979 . S
H313 C340 0.980 . S
H314 C340 0.983 . S
H315 C339 0.979 . S
H316 C339 0.977 . S
C317 C305 1.453 . S
C317 H346 0.982 . S
C317 H347 0.979 . S
C317 H348 0.977 . S
C318 C305 1.684 . S
C318 H343 0.979 . S
C318 H344 0.980 . S
C318 H345 0.983 . S
C319 C320 1.391 . S
C319 C324 1.391 . S
C319 H349 0.948 . S
C320 C319 1.391 . S
C320 C321 1.391 . S
C321 C320 1.391 . S
C321 C322 1.392 . S
C321 H350 0.947 . S
C322 C321 1.392 . S
C322 C323 1.419 . S
C322 H351 0.948 . S
C323 C322 1.419 . S
C323 C324 1.391 . S
C323 C327 1.397 . S
C324 C319 1.391 . S
C324 C323 1.391 . S
C324 C325 1.399 . S
C325 C324 1.399 . S
C325 C326 1.396 . S
C325 C328 1.453 . S
C325 C329 1.684 . S
C326 C307 1.723 1_556 S
C326 C325 1.396 . S
C326 C327 1.394 . S
C327 C323 1.397 . S
C327 C326 1.394 . S
C327 C337 1.723 . S
C328 C325 1.453 . S
C328 H352 0.982 . S
C328 H353 0.979 . S
C328 H354 0.977 . S
C329 C325 1.684 . S
C329 H355 0.979 . S
C329 H356 0.980 . S
C329 H357 0.983 . S
C330 H306 0.948 1_554 S
C330 C331 1.391 . S
C330 C335 1.391 . S
C331 C330 1.391 . S
C331 C332 1.391 . S
C332 H309 0.947 . S
C332 C331 1.391 . S
C332 C333 1.392 . S
C333 H310 0.948 . S
C333 C332 1.392 . S
C333 C334 1.419 . S
C334 C333 1.419 . S
C334 C335 1.391 . S
C334 C338 1.397 . S
C335 C330 1.391 . S
C335 C334 1.391 . S
C335 C336 1.399 1_554 S
C336 C335 1.399 1_556 S
C336 C337 1.396 . S
C336 C339 1.453 . S
C336 C340 1.684 . S
C337 C327 1.723 . S
C337 C336 1.396 . S
C337 C338 1.394 1_556 S
C338 C308 1.723 . S
C338 C334 1.397 . S
C338 C337 1.394 1_554 S
C339 H311 0.982 . S
C339 H315 0.979 . S
C339 H316 0.977 . S
C339 C336 1.453 . S
C340 H312 0.979 . S
C340 H313 0.980 . S
C340 H314 0.983 . S
C340 C336 1.684 . S
H341 C359 0.948 . S
H342 C300 0.948 . S
H343 C318 0.979 . S
H344 C318 0.980 . S
H345 C318 0.983 . S
H346 C317 0.982 . S
H347 C317 0.979 . S
H348 C317 0.977 . S
H349 C319 0.948 . S
H350 C321 0.947 . S
H351 C322 0.948 . S
H352 C328 0.982 . S
H353 C328 0.979 . S
H354 C328 0.977 . S
H355 C329 0.979 . S
H356 C329 0.980 . S
H357 C329 0.983 . S
H358 C302 0.947 . S
C359 C302 1.392 . S
C359 C303 1.419 . S
C359 H341 0.948 . S
C360 C361 1.391 . S
C360 C364 1.391 . S
C360 H402 0.948 . S
C361 C360 1.391 . S
C361 C362 1.391 . S
C362 C361 1.391 . S
C362 H418 0.947 . S
C362 C419 1.392 . S
C363 C364 1.391 . S
C363 C367 1.397 . S
C363 C419 1.419 . S
C364 C360 1.391 . S
C364 C363 1.391 . S
C364 C365 1.399 . S
C365 C364 1.399 . S
C365 C368 1.396 . S
C365 C377 1.453 . S
C365 C378 1.684 . S
H366 C390 0.948 . S
C367 C363 1.397 . S
C367 C368 1.394 . S
C367 C386 1.723 1_556 S
C368 C365 1.396 . S
C368 C367 1.394 . S
C368 C398 1.723 1_556 S
H369 C392 0.943 1_556 S
H370 C393 0.948 . S
H371 C399 0.982 . S
H372 C400 0.979 . S
H373 C400 0.980 . S
H374 C400 0.983 . S
H375 C399 0.979 . S
H376 C399 0.977 . S
C377 C365 1.453 . S
C377 H406 0.982 . S
C377 H407 0.979 . S
C377 H408 0.977 . S
C378 C365 1.684 . S
C378 H403 0.979 . S
C378 H404 0.980 . S
C378 H405 0.983 . S
C379 C380 1.391 . S
C379 C384 1.391 . S
C379 H409 0.948 . S
C380 C379 1.391 . S
C380 C381 1.391 . S
C381 C380 1.391 . S
C381 C382 1.392 . S
C381 H410 0.947 . S
C382 C381 1.392 . S
C382 C383 1.419 . S
C382 H411 0.948 . S
C383 C382 1.419 . S
C383 C384 1.391 . S
C383 C387 1.397 . S
C384 C379 1.391 . S
C384 C383 1.391 . S
C384 C385 1.399 . S
C385 C384 1.399 . S
C385 C386 1.396 . S
C385 C388 1.453 . S
C385 C389 1.684 . S
C386 C367 1.723 1_554 S
C386 C385 1.396 . S
C386 C387 1.394 . S
C387 C383 1.397 . S
C387 C386 1.394 . S
C387 C397 1.723 . S
C388 C385 1.453 . S
C388 H412 0.982 . S
C388 H413 0.979 . S
C388 H414 0.977 1_554 S
C389 C385 1.684 . S
C389 H415 0.979 . S
C389 H416 0.980 1_554 S
C389 H417 0.983 . S
C390 H366 0.948 . S
C390 C391 1.391 . S
C390 C395 1.391 . S
C391 C390 1.391 . S
C391 C392 1.397 . S
C392 H369 0.943 1_554 S
C392 C391 1.397 . S
C392 C393 1.390 1_554 S
C393 H370 0.948 . S
C393 C392 1.390 1_556 S
C393 C394 1.419 1_556 S
C394 C393 1.419 1_554 S
C394 C395 1.391 . S
C394 C398 1.397 . S
C395 C390 1.391 . S
C395 C394 1.391 . S
C395 C396 1.399 . S
C396 C395 1.399 . S
C396 C397 1.396 . S
C396 C399 1.453 . S
C396 C400 1.684 . S
C397 C387 1.723 . S
C397 C396 1.396 . S
C397 C398 1.394 . S
C398 C368 1.723 1_554 S
C398 C394 1.397 . S
C398 C397 1.394 . S
C399 H371 0.982 . S
C399 H375 0.979 . S
C399 H376 0.977 . S
C399 C396 1.453 . S
C400 H372 0.979 . S
C400 H373 0.980 . S
C400 H374 0.983 . S
C400 C396 1.684 . S
H401 C419 0.948 . S
H402 C360 0.948 . S
H403 C378 0.979 . S
H404 C378 0.980 . S
H405 C378 0.983 . S
H406 C377 0.982 . S
H407 C377 0.979 . S
H408 C377 0.977 . S
H409 C379 0.948 . S
H410 C381 0.947 . S
H411 C382 0.948 . S
H412 C388 0.982 . S
H413 C388 0.979 . S
H414 C388 0.977 1_556 S
H415 C389 0.979 . S
H416 C389 0.980 1_556 S
H417 C389 0.983 . S
H418 C362 0.947 . S
C419 C362 1.392 . S
C419 C363 1.419 . S
C419 H401 0.948 . S
C420 C421 1.391 . S
C420 C424 1.391 . S
C420 H462 0.948 . S
C421 C420 1.391 . S
C421 C422 1.391 . S
C422 C421 1.391 . S
C422 H478 0.947 . S
C422 C479 1.392 . S
C423 C424 1.391 . S
C423 C427 1.397 . S
C423 C479 1.419 . S
C424 C420 1.391 . S
C424 C423 1.391 . S
C424 C425 1.399 . S
C425 C424 1.399 . S
C425 C428 1.396 . S
C425 C437 1.453 . S
C425 C438 1.684 . S
H426 C450 0.948 . S
C427 C423 1.397 . S
C427 C428 1.394 . S
C427 C446 1.723 1_556 S
C428 C425 1.396 . S
C428 C427 1.394 . S
C428 C458 1.723 1_556 S
H429 C452 0.947 1_556 S
H430 C453 0.948 . S
H431 C459 0.982 . S
H432 C460 0.979 . S
H433 C460 0.980 . S
H434 C460 0.983 . S
H435 C459 0.979 . S
H436 C459 0.977 . S
C437 C425 1.453 . S
C437 H466 0.982 . S
C437 H467 0.979 . S
C437 H468 0.977 . S
C438 C425 1.684 . S
C438 H463 0.979 . S
C438 H464 0.980 . S
C438 H465 0.983 . S
C439 C440 1.391 . S
C439 C444 1.391 . S
C439 H469 0.948 . S
C440 C439 1.391 . S
C440 C441 1.391 . S
C441 C440 1.391 . S
C441 C442 1.392 . S
C441 H470 0.947 . S
C442 C441 1.392 . S
C442 C443 1.419 . S
C442 H471 0.948 . S
C443 C442 1.419 . S
C443 C444 1.391 . S
C443 C447 1.397 . S
C444 C439 1.391 . S
C444 C443 1.391 . S
C444 C445 1.399 . S
C445 C444 1.399 . S
C445 C446 1.396 . S
C445 C448 1.453 . S
C445 C449 1.684 . S
C446 C427 1.723 1_554 S
C446 C445 1.396 . S
C446 C447 1.394 . S
C447 C443 1.397 . S
C447 C446 1.394 . S
C447 C457 1.723 . S
C448 C445 1.453 . S
C448 H472 0.982 . S
C448 H473 0.979 . S
C448 H474 0.977 1_554 S
C449 C445 1.684 . S
C449 H475 0.979 . S
C449 H476 0.980 1_554 S
C449 H477 0.983 . S
C450 H426 0.948 . S
C450 C451 1.391 . S
C450 C455 1.391 . S
C451 C450 1.391 . S
C451 C452 1.391 . S
C452 H429 0.947 1_554 S
C452 C451 1.391 . S
C452 C453 1.392 1_554 S
C453 H430 0.948 . S
C453 C452 1.392 1_556 S
C453 C454 1.419 1_556 S
C454 C453 1.419 1_554 S
C454 C455 1.391 . S
C454 C458 1.397 . S
C455 C450 1.391 . S
C455 C454 1.391 . S
C455 C456 1.399 . S
C456 C455 1.399 . S
C456 C457 1.396 . S
C456 C459 1.453 . S
C456 C460 1.684 . S
C457 C447 1.723 . S
C457 C456 1.396 . S
C457 C458 1.394 . S
C458 C428 1.723 1_554 S
C458 C454 1.397 . S
C458 C457 1.394 . S
C459 H431 0.982 . S
C459 H435 0.979 . S
C459 H436 0.977 . S
C459 C456 1.453 . S
C460 H432 0.979 . S
C460 H433 0.980 . S
C460 H434 0.983 . S
C460 C456 1.684 . S
H461 C479 0.948 . S
H462 C420 0.948 . S
H463 C438 0.979 . S
H464 C438 0.980 . S
H465 C438 0.983 . S
H466 C437 0.982 . S
H467 C437 0.979 . S
H468 C437 0.977 . S
H469 C439 0.948 . S
H470 C441 0.947 . S
H471 C442 0.948 . S
H472 C448 0.982 . S
H473 C448 0.979 . S
H474 C448 0.977 1_556 S
H475 C449 0.979 . S
H476 C449 0.980 1_556 S
H477 C449 0.983 . S
H478 C422 0.947 . S
C479 C422 1.392 . S
C479 C423 1.419 . S
C479 H461 0.948 . S
Tb480 N511 2.660 1_565 S
Tb480 N518 2.600 . S
Tb480 O524 2.546 . S
Tb480 O525 2.610 1_455 S
Tb480 O527 2.320 1_455 S
Tb480 O528 2.552 . S
Tb480 O529 2.413 . S
Tb480 O531 2.362 1_565 S
Tb480 O532 2.421 . S
Tb480 C544 2.833 . S
C481 C484 1.432 1_545 S
C481 C485 1.414 . S
C481 N488 1.359 . S
C482 C484 1.417 . S
C482 C486 1.432 . S
C482 C494 1.410 . S
C483 C485 1.444 1_565 S
C483 C486 1.317 . S
C483 H506 0.929 . S
C484 C481 1.432 1_565 S
C484 C482 1.417 . S
C484 N492 1.360 . S
C485 C481 1.414 . S
C485 C483 1.444 1_545 S
C485 C490 1.385 . S
C486 C482 1.432 . S
C486 C483 1.317 . S
C486 H498 0.930 . S
C487 C489 1.392 . S
C487 C490 1.370 . S
C487 H499 0.931 . S
N488 C481 1.359 . S
N488 C489 1.327 . S
N488 Tb491 2.600 . S
C489 C487 1.392 . S
C489 N488 1.327 . S
C489 H496 0.930 . S
C490 C485 1.385 . S
C490 C487 1.370 . S
C490 H509 0.930 . S
Tb491 N488 2.600 . S
Tb491 N492 2.659 1_545 S
Tb491 O525 2.362 1_545 S
Tb491 O526 2.421 . S
Tb491 O530 2.546 . S
Tb491 O531 2.610 1_655 S
Tb491 O533 2.320 1_655 S
Tb491 O534 2.552 1_655 S
Tb491 O535 2.413 . S
Tb491 C555 2.833 . S
N492 C484 1.360 . S
N492 Tb491 2.659 1_565 S
N492 C493 1.305 1_655 S
C493 N492 1.305 1_455 S
C493 C495 1.407 1_455 S
C493 H500 0.930 . S
C494 C482 1.410 . S
C494 C495 1.348 . S
C494 H502 0.930 . S
C495 C493 1.407 1_655 S
C495 C494 1.348 . S
C495 H497 0.927 1_655 S
H496 C489 0.930 . S
H497 C495 0.927 1_455 S
H498 C486 0.930 . S
H499 C487 0.931 . S
H500 C493 0.930 . S
H501 C515 0.930 1_655 S
H502 C494 0.930 . S
H503 C521 0.930 . S
H504 C512 0.930 1_655 S
H505 C519 0.931 . S
H506 C483 0.929 . S
H507 C513 0.930 . S
H508 C546 0.930 . S
H509 C490 0.930 . S
H510 C545 0.929 . S
N511 Tb480 2.660 1_545 S
N511 C512 1.305 . S
N511 C516 1.360 . S
C512 H504 0.930 1_455 S
C512 N511 1.305 . S
C512 C515 1.407 . S
C513 H507 0.930 . S
C513 C514 1.410 . S
C513 C515 1.345 . S
C514 C513 1.410 . S
C514 C516 1.417 . S
C514 C546 1.432 . S
C515 H501 0.930 1_455 S
C515 C512 1.407 . S
C515 C513 1.345 . S
C516 N511 1.360 . S
C516 C514 1.417 . S
C516 C520 1.432 . S
H517 C522 0.927 1_545 S
N518 Tb480 2.600 . S
N518 C520 1.359 1_565 S
N518 C521 1.327 . S
C519 H505 0.931 . S
C519 C521 1.392 . S
C519 C522 1.392 . S
C520 C516 1.432 . S
C520 N518 1.359 1_545 S
C520 C523 1.414 . S
C521 H503 0.930 . S
C521 N518 1.327 . S
C521 C519 1.392 . S
C522 H517 0.927 1_565 S
C522 C519 1.392 . S
C522 C523 1.367 1_565 S
C523 C520 1.414 . S
C523 C522 1.367 1_545 S
C523 C545 1.444 . S
O524 Tb480 2.546 . S
O524 C544 1.251 . S
O525 Tb480 2.610 1_655 S
O525 Tb491 2.362 1_565 S
O525 C536 1.283 . S
O526 Tb491 2.421 . S
O526 C543 1.262 . S
O527 Tb480 2.320 1_655 S
O527 C543 1.260 1_565 S
O528 Tb480 2.552 . S
O528 C536 1.243 1_455 S
O529 Tb480 2.413 . S
O529 C544 1.256 . S
O530 Tb491 2.546 . S
O530 C555 1.251 . S
O531 Tb480 2.362 1_545 S
O531 Tb491 2.610 1_455 S
O531 C547 1.283 . S
O532 Tb480 2.421 . S
O532 C554 1.262 1_565 S
O533 Tb491 2.320 1_455 S
O533 C554 1.260 . S
O534 Tb491 2.552 1_455 S
O534 C547 1.243 . S
O535 Tb491 2.413 . S
O535 C555 1.256 . S
C536 O525 1.283 . S
C536 O528 1.243 1_655 S
C537 C539 1.382 . S
C537 C541 1.393 . S
C537 C544 1.500 . S
C538 C539 1.400 . S
C538 C540 1.384 . S
C539 C537 1.382 . S
C539 C538 1.400 . S
C539 H556 0.920 1_455 S
C540 C538 1.384 . S
C540 C542 1.392 . S
C540 H557 0.931 . S
C541 C537 1.393 . S
C541 C542 1.401 . S
C541 H558 0.930 . S
C542 C540 1.392 . S
C542 C541 1.401 . S
C542 H559 0.930 . S
C543 O526 1.262 . S
C543 O527 1.260 1_545 S
C544 Tb480 2.833 . S
C544 O524 1.251 . S
C544 O529 1.256 . S
C544 C537 1.500 . S
C545 H510 0.929 . S
C545 C523 1.444 . S
C545 C546 1.317 . S
C546 H508 0.930 . S
C546 C514 1.432 . S
C546 C545 1.317 . S
C547 O531 1.283 . S
C547 O534 1.243 . S
C548 C549 1.382 . S
C548 C552 1.393 . S
C548 C555 1.500 . S
C549 C548 1.382 . S
C549 C550 1.400 . S
C549 H560 0.930 1_655 S
C550 C549 1.400 . S
C550 C551 1.384 . S
C551 C550 1.384 . S
C551 C553 1.392 . S
C551 H561 0.931 . S
C552 C548 1.393 . S
C552 C553 1.401 . S
C552 H562 0.930 . S
C553 C551 1.392 . S
C553 C552 1.401 . S
C553 H563 0.930 . S
C554 O532 1.262 1_545 S
C554 O533 1.260 . S
C555 Tb491 2.833 . S
C555 O530 1.251 . S
C555 O535 1.256 . S
C555 C548 1.500 . S
H556 C539 0.920 1_655 S
H557 C540 0.931 . S
H558 C541 0.930 . S
H559 C542 0.930 . S
H560 C549 0.930 1_455 S
H561 C551 0.931 . S
H562 C552 0.930 . S
H563 C553 0.930 . S
Tb564 N595 2.660 . S
Tb564 N602 2.600 . S
Tb564 O608 2.546 . S
Tb564 O609 2.610 1_545 S
Tb564 O611 2.320 1_545 S
Tb564 O612 2.552 . S
Tb564 O613 2.413 . S
Tb564 O615 2.362 . S
Tb564 O616 2.421 . S
Tb564 C628 2.833 . S
C565 C568 1.432 . S
C565 C569 1.414 . S
C565 N572 1.359 . S
C566 C568 1.417 . S
C566 C570 1.432 . S
C566 C578 1.410 . S
C567 C569 1.444 . S
C567 C570 1.317 . S
C567 H590 0.929 . S
C568 C565 1.432 . S
C568 C566 1.417 . S
C568 N576 1.360 . S
C569 C565 1.414 . S
C569 C567 1.444 . S
C569 C574 1.385 . S
C570 C566 1.432 . S
C570 C567 1.317 . S
C570 H582 0.930 . S
C571 C573 1.392 . S
C571 C574 1.370 . S
C571 H583 0.931 . S
N572 C565 1.359 . S
N572 C573 1.327 . S
N572 Tb575 2.600 . S
C573 C571 1.392 . S
C573 N572 1.327 . S
C573 H580 0.930 . S
C574 C569 1.385 . S
C574 C571 1.370 . S
C574 H593 0.930 . S
Tb575 N572 2.600 . S
Tb575 N576 2.660 . S
Tb575 O609 2.362 . S
Tb575 O610 2.421 . S
Tb575 O614 2.546 . S
Tb575 O615 2.610 1_565 S
Tb575 O617 2.320 1_565 S
Tb575 O618 2.552 1_565 S
Tb575 O619 2.413 . S
Tb575 C639 2.833 . S
N576 C568 1.360 . S
N576 Tb575 2.660 . S
N576 C577 1.305 1_565 S
C577 N576 1.305 1_545 S
C577 C579 1.407 . S
C577 H584 0.930 . S
C578 C566 1.410 . S
C578 C579 1.345 1_565 S
C578 H586 0.930 . S
C579 C577 1.407 . S
C579 C578 1.345 1_545 S
C579 H581 0.930 . S
H580 C573 0.930 . S
H581 C579 0.930 . S
H582 C570 0.930 . S
H583 C571 0.931 . S
H584 C577 0.930 . S
H585 C599 0.930 1_565 S
H586 C578 0.930 . S
H587 C605 0.930 . S
H588 C596 0.930 1_565 S
H589 C603 0.931 . S
H590 C567 0.929 . S
H591 C597 0.930 . S
H592 C630 0.930 . S
H593 C574 0.930 . S
H594 C629 0.929 . S
N595 Tb564 2.660 . S
N595 C596 1.305 . S
N595 C600 1.360 . S
C596 H588 0.930 1_545 S
C596 N595 1.305 . S
C596 C599 1.407 . S
C597 H591 0.930 . S
C597 C598 1.410 . S
C597 C599 1.345 . S
C598 C597 1.410 . S
C598 C600 1.417 . S
C598 C630 1.432 . S
C599 H585 0.930 1_545 S
C599 C596 1.407 . S
C599 C597 1.345 . S
C600 N595 1.360 . S
C600 C598 1.417 . S
C600 C604 1.432 . S
H601 C606 0.930 . S
N602 Tb564 2.600 . S
N602 C604 1.359 . S
N602 C605 1.327 . S
C603 H589 0.931 . S
C603 C605 1.392 . S
C603 C606 1.370 . S
C604 C600 1.432 . S
C604 N602 1.359 . S
C604 C607 1.414 . S
C605 H587 0.930 . S
C605 N602 1.327 . S
C605 C603 1.392 . S
C606 H601 0.930 . S
C606 C603 1.370 . S
C606 C607 1.385 . S
C607 C604 1.414 . S
C607 C606 1.385 . S
C607 C629 1.444 . S
O608 Tb564 2.546 . S
O608 C628 1.251 . S
O609 Tb564 2.610 1_565 S
O609 Tb575 2.362 . S
O609 C620 1.283 . S
O610 Tb575 2.421 . S
O610 C627 1.262 . S
O611 Tb564 2.320 1_565 S
O611 C627 1.260 . S
O612 Tb564 2.552 . S
O612 C620 1.243 1_545 S
O613 Tb564 2.413 . S
O613 C628 1.256 . S
O614 Tb575 2.546 . S
O614 C639 1.251 . S
O615 Tb564 2.362 . S
O615 Tb575 2.610 1_545 S
O615 C631 1.283 . S
O616 Tb564 2.421 . S
O616 C638 1.262 . S
O617 Tb575 2.320 1_545 S
O617 C638 1.260 . S
O618 Tb575 2.552 1_545 S
O618 C631 1.243 . S
O619 Tb575 2.413 . S
O619 C639 1.256 . S
C620 O609 1.283 . S
C620 O612 1.243 1_565 S
C621 C623 1.382 . S
C621 C625 1.393 . S
C621 C628 1.500 . S
C622 C623 1.400 . S
C622 C624 1.384 . S
C623 C621 1.382 . S
C623 C622 1.400 . S
C623 H640 0.930 . S
C624 C622 1.384 . S
C624 C626 1.392 . S
C624 H641 0.931 . S
C625 C621 1.393 . S
C625 C626 1.401 . S
C625 H642 0.930 . S
C626 C624 1.392 . S
C626 C625 1.401 . S
C626 H643 0.930 . S
C627 O610 1.262 . S
C627 O611 1.260 . S
C628 Tb564 2.833 . S
C628 O608 1.251 . S
C628 O613 1.256 . S
C628 C621 1.500 . S
C629 H594 0.929 . S
C629 C607 1.444 . S
C629 C630 1.317 . S
C630 H592 0.930 . S
C630 C598 1.432 . S
C630 C629 1.317 . S
C631 O615 1.283 . S
C631 O618 1.243 . S
C632 C633 1.382 . S
C632 C636 1.393 . S
C632 C639 1.500 . S
C633 C632 1.382 . S
C633 C634 1.400 . S
C633 H644 0.930 1_565 S
C634 C633 1.400 . S
C634 C635 1.384 . S
C635 C634 1.384 . S
C635 C637 1.392 . S
C635 H645 0.931 . S
C636 C632 1.393 . S
C636 C637 1.401 . S
C636 H646 0.930 . S
C637 C635 1.392 . S
C637 C636 1.401 . S
C637 H647 0.930 . S
C638 O616 1.262 . S
C638 O617 1.260 . S
C639 Tb575 2.833 . S
C639 O614 1.251 . S
C639 O619 1.256 . S
C639 C632 1.500 . S
H640 C623 0.930 . S
H641 C624 0.931 . S
H642 C625 0.930 . S
H643 C626 0.930 . S
H644 C633 0.930 1_545 S
H645 C635 0.931 . S
H646 C636 0.930 . S
H647 C637 0.930 . S
Tb648 N679 2.660 . S
Tb648 N686 2.600 . S
Tb648 O692 2.546 . S
Tb648 O693 2.610 . S
Tb648 O695 2.320 . S
Tb648 O696 2.552 . S
Tb648 O697 2.413 . S
Tb648 O699 2.362 . S
Tb648 O700 2.421 . S
Tb648 C712 2.833 . S
C649 C652 1.432 . S
C649 C653 1.414 . S
C649 N656 1.359 . S
C650 C652 1.417 . S
C650 C654 1.432 . S
C650 C662 1.410 . S
C651 C653 1.444 . S
C651 C654 1.317 . S
C651 H674 0.929 . S
C652 C649 1.432 . S
C652 C650 1.417 . S
C652 N660 1.360 . S
C653 C649 1.414 . S
C653 C651 1.444 . S
C653 C658 1.385 . S
C654 C650 1.432 . S
C654 C651 1.317 . S
C654 H666 0.930 . S
C655 C657 1.392 . S
C655 C658 1.370 . S
C655 H667 0.931 . S
N656 C649 1.359 . S
N656 C657 1.327 . S
N656 Tb659 2.600 . S
C657 C655 1.392 . S
C657 N656 1.327 . S
C657 H664 0.930 . S
C658 C653 1.385 . S
C658 C655 1.370 . S
C658 H677 0.930 . S
Tb659 N656 2.600 . S
Tb659 N660 2.660 . S
Tb659 O693 2.362 . S
Tb659 O694 2.421 . S
Tb659 O698 2.546 . S
Tb659 O699 2.610 . S
Tb659 O701 2.320 . S
Tb659 O702 2.552 . S
Tb659 O703 2.413 . S
Tb659 C723 2.833 . S
N660 C652 1.360 . S
N660 Tb659 2.660 . S
N660 C661 1.305 . S
C661 N660 1.305 . S
C661 C663 1.407 . S
C661 H668 0.930 . S
C662 C650 1.410 . S
C662 C663 1.345 . S
C662 H670 0.930 . S
C663 C661 1.407 . S
C663 C662 1.345 . S
C663 H665 0.930 . S
H664 C657 0.930 . S
H665 C663 0.930 . S
H666 C654 0.930 . S
H667 C655 0.931 . S
H668 C661 0.930 . S
H669 C683 0.930 . S
H670 C662 0.930 . S
H671 C689 0.930 . S
H672 C680 0.930 . S
H673 C687 0.931 . S
H674 C651 0.929 . S
H675 C681 0.930 . S
H676 C714 0.930 . S
H677 C658 0.930 . S
H678 C713 0.929 . S
N679 Tb648 2.660 . S
N679 C680 1.305 . S
N679 C684 1.360 . S
C680 H672 0.930 . S
C680 N679 1.305 . S
C680 C683 1.407 . S
C681 H675 0.930 . S
C681 C682 1.410 . S
C681 C683 1.345 . S
C682 C681 1.410 . S
C682 C684 1.417 . S
C682 C714 1.432 . S
C683 H669 0.930 . S
C683 C680 1.407 . S
C683 C681 1.345 . S
C684 N679 1.360 . S
C684 C682 1.417 . S
C684 C688 1.432 . S
H685 C690 0.930 . S
N686 Tb648 2.600 . S
N686 C688 1.359 . S
N686 C689 1.327 . S
C687 H673 0.931 . S
C687 C689 1.392 . S
C687 C690 1.370 . S
C688 C684 1.432 . S
C688 N686 1.359 . S
C688 C691 1.414 . S
C689 H671 0.930 . S
C689 N686 1.327 . S
C689 C687 1.392 . S
C690 H685 0.930 . S
C690 C687 1.370 . S
C690 C691 1.385 . S
C691 C688 1.414 . S
C691 C690 1.385 . S
C691 C713 1.444 . S
O692 Tb648 2.546 . S
O692 C712 1.251 . S
O693 Tb648 2.610 . S
O693 Tb659 2.362 . S
O693 C704 1.283 . S
O694 Tb659 2.421 . S
O694 C711 1.262 . S
O695 Tb648 2.320 . S
O695 C711 1.260 . S
O696 Tb648 2.552 . S
O696 C704 1.243 . S
O697 Tb648 2.413 . S
O697 C712 1.256 . S
O698 Tb659 2.546 . S
O698 C723 1.251 . S
O699 Tb648 2.362 . S
O699 Tb659 2.610 . S
O699 C715 1.283 . S
O700 Tb648 2.421 . S
O700 C722 1.262 . S
O701 Tb659 2.320 . S
O701 C722 1.260 . S
O702 Tb659 2.552 . S
O702 C715 1.243 . S
O703 Tb659 2.413 . S
O703 C723 1.256 . S
C704 O693 1.283 . S
C704 O696 1.243 . S
C705 C707 1.382 . S
C705 C709 1.393 . S
C705 C712 1.500 . S
C706 C707 1.400 . S
C706 C708 1.384 . S
C707 C705 1.382 . S
C707 C706 1.400 . S
C707 H724 0.930 . S
C708 C706 1.384 . S
C708 C710 1.392 . S
C708 H725 0.931 . S
C709 C705 1.393 . S
C709 C710 1.401 . S
C709 H726 0.930 . S
C710 C708 1.392 . S
C710 C709 1.401 . S
C710 H727 0.930 . S
C711 O694 1.262 . S
C711 O695 1.260 . S
C712 Tb648 2.833 . S
C712 O692 1.251 . S
C712 O697 1.256 . S
C712 C705 1.500 . S
C713 H678 0.929 . S
C713 C691 1.444 . S
C713 C714 1.317 . S
C714 H676 0.930 . S
C714 C682 1.432 . S
C714 C713 1.317 . S
C715 O699 1.283 . S
C715 O702 1.243 . S
C716 C717 1.382 . S
C716 C720 1.393 . S
C716 C723 1.500 . S
C717 C716 1.382 . S
C717 C718 1.400 . S
C717 H728 0.930 . S
C718 C717 1.400 . S
C718 C719 1.384 . S
C719 C718 1.384 . S
C719 C721 1.392 . S
C719 H729 0.931 . S
C720 C716 1.393 . S
C720 C721 1.401 . S
C720 H730 0.930 . S
C721 C719 1.392 . S
C721 C720 1.401 . S
C721 H731 0.930 . S
C722 O700 1.262 . S
C722 O701 1.260 . S
C723 Tb659 2.833 . S
C723 O698 1.251 . S
C723 O703 1.256 . S
C723 C716 1.500 . S
H724 C707 0.930 . S
H725 C708 0.931 . S
H726 C709 0.930 . S
H727 C710 0.930 . S
H728 C717 0.930 . S
H729 C719 0.931 . S
H730 C720 0.930 . S
H731 C721 0.930 . S
Tb732 N763 2.660 . S
Tb732 N770 2.600 . S
Tb732 O776 2.546 . S
Tb732 O777 2.610 . S
Tb732 O779 2.320 . S
Tb732 O780 2.552 . S
Tb732 O781 2.413 . S
Tb732 O783 2.374 . S
Tb732 O784 2.421 1_455 S
Tb732 C796 2.833 . S
C733 C736 1.432 . S
C733 C737 1.414 . S
C733 N740 1.359 . S
C734 C736 1.417 . S
C734 C738 1.432 . S
C734 C746 1.410 . S
C735 C737 1.444 . S
C735 C738 1.317 . S
C735 H758 0.929 . S
C736 C733 1.432 . S
C736 C734 1.417 . S
C736 N744 1.360 . S
C737 C733 1.414 . S
C737 C735 1.444 . S
C737 C742 1.385 . S
C738 C734 1.432 . S
C738 C735 1.317 . S
C738 H750 0.930 . S
C739 C741 1.392 . S
C739 C742 1.370 1_455 S
C739 H751 0.931 . S
N740 C733 1.359 . S
N740 C741 1.327 1_655 S
N740 Tb743 2.600 . S
C741 C739 1.392 . S
C741 N740 1.327 1_455 S
C741 H748 0.930 . S
C742 C737 1.385 . S
C742 C739 1.370 1_655 S
C742 H761 0.930 . S
Tb743 N740 2.600 . S
Tb743 N744 2.660 . S
Tb743 O777 2.362 1_655 S
Tb743 O778 2.421 1_655 S
Tb743 O782 2.546 . S
Tb743 O783 2.602 1_655 S
Tb743 O785 2.320 . S
Tb743 O786 2.552 . S
Tb743 O787 2.413 . S
Tb743 C807 2.833 . S
N744 C736 1.360 . S
N744 Tb743 2.660 . S
N744 C745 1.305 . S
C745 N744 1.305 . S
C745 C747 1.407 . S
C745 H752 0.930 . S
C746 C734 1.410 . S
C746 C747 1.345 . S
C746 H754 0.930 . S
C747 C745 1.407 . S
C747 C746 1.345 . S
C747 H749 0.930 . S
H748 C741 0.930 . S
H749 C747 0.930 . S
H750 C738 0.930 . S
H751 C739 0.931 . S
H752 C745 0.930 . S
H753 C767 0.930 . S
H754 C746 0.930 . S
H755 C773 0.930 1_655 S
H756 C764 0.930 . S
H757 C771 0.919 1_655 S
H758 C735 0.929 . S
H759 C765 0.930 . S
H760 C798 0.930 . S
H761 C742 0.930 . S
H762 C797 0.929 . S
N763 Tb732 2.660 . S
N763 C764 1.305 . S
N763 C768 1.360 . S
C764 H756 0.930 . S
C764 N763 1.305 . S
C764 C767 1.407 . S
C765 H759 0.930 . S
C765 C766 1.410 . S
C765 C767 1.345 . S
C766 C765 1.410 . S
C766 C768 1.417 . S
C766 C798 1.432 . S
C767 H753 0.930 . S
C767 C764 1.407 . S
C767 C765 1.345 . S
C768 N763 1.360 . S
C768 C766 1.417 . S
C768 C772 1.432 . S
H769 C774 0.930 . S
N770 Tb732 2.600 . S
N770 C772 1.359 . S
N770 C773 1.327 . S
C771 H757 0.919 1_455 S
C771 C773 1.395 . S
C771 C774 1.380 . S
C772 C768 1.432 . S
C772 N770 1.359 . S
C772 C775 1.414 . S
C773 H755 0.930 1_455 S
C773 N770 1.327 . S
C773 C771 1.395 . S
C774 H769 0.930 . S
C774 C771 1.380 . S
C774 C775 1.385 . S
C775 C772 1.414 . S
C775 C774 1.385 . S
C775 C797 1.444 . S
O776 Tb732 2.546 . S
O776 C796 1.251 . S
O777 Tb732 2.610 . S
O777 Tb743 2.362 1_455 S
O777 C788 1.283 . S
O778 Tb743 2.421 1_455 S
O778 C795 1.262 . S
O779 Tb732 2.320 . S
O779 C795 1.260 . S
O780 Tb732 2.552 . S
O780 C788 1.243 . S
O781 Tb732 2.413 . S
O781 C796 1.256 . S
O782 Tb743 2.546 . S
O782 C807 1.251 . S
O783 Tb732 2.374 . S
O783 Tb743 2.602 1_455 S
O783 C799 1.274 1_455 S
O784 Tb732 2.421 1_655 S
O784 C806 1.262 . S
O785 Tb743 2.320 . S
O785 C806 1.260 . S
O786 Tb743 2.552 . S
O786 C799 1.243 . S
O787 Tb743 2.413 . S
O787 C807 1.256 . S
C788 O777 1.283 . S
C788 O780 1.243 . S
C789 C791 1.382 . S
C789 C793 1.393 . S
C789 C796 1.500 . S
C790 C791 1.400 . S
C790 C792 1.384 . S
C791 C789 1.382 . S
C791 C790 1.400 . S
C791 H808 0.930 . S
C792 C790 1.384 . S
C792 C794 1.392 . S
C792 H809 0.931 . S
C793 C789 1.393 . S
C793 C794 1.401 . S
C793 H810 0.930 . S
C794 C792 1.392 . S
C794 C793 1.401 . S
C794 H811 0.930 . S
C795 O778 1.262 . S
C795 O779 1.260 . S
C796 Tb732 2.833 . S
C796 O776 1.251 . S
C796 O781 1.256 . S
C796 C789 1.500 . S
C797 H762 0.929 . S
C797 C775 1.444 . S
C797 C798 1.317 . S
C798 H760 0.930 . S
C798 C766 1.432 . S
C798 C797 1.317 . S
C799 O783 1.274 1_655 S
C799 O786 1.243 . S
C800 C801 1.382 . S
C800 C804 1.393 . S
C800 C807 1.500 . S
C801 C800 1.382 . S
C801 C802 1.400 . S
C801 H812 0.930 . S
C802 C801 1.400 . S
C802 C803 1.384 . S
C803 C802 1.384 . S
C803 C805 1.392 . S
C803 H813 0.931 . S
C804 C800 1.393 . S
C804 C805 1.401 . S
C804 H814 0.930 . S
C805 C803 1.392 . S
C805 C804 1.401 . S
C805 H815 0.930 . S
C806 O784 1.262 . S
C806 O785 1.260 . S
C807 Tb743 2.833 . S
C807 O782 1.251 . S
C807 O787 1.256 . S
C807 C800 1.500 . S
H808 C791 0.930 . S
H809 C792 0.931 . S
H810 C793 0.930 . S
H811 C794 0.930 . S
H812 C801 0.930 . S
H813 C803 0.931 . S
H814 C804 0.930 . S
H815 C805 0.930 . S
H816 C824 0.950 . S
H817 C829 0.950 . S
H818 C826 0.950 . S
H819 C828 0.950 . S
H820 C830 0.950 . S
H821 C832 0.950 . S
H822 C834 0.950 . S
H823 C835 0.950 1_565 S
C824 H816 0.950 . S
C824 C825 1.386 . S
C824 C826 1.391 . S
C825 C824 1.386 . S
C825 C829 1.393 . S
C826 H818 0.950 . S
C826 C824 1.391 . S
C826 C827 1.400 . S
C827 C826 1.400 . S
C827 C828 1.398 . S
C827 C833 1.491 . S
C828 H819 0.950 . S
C828 C827 1.398 . S
C828 C829 1.391 . S
C829 H817 0.950 . S
C829 C825 1.393 . S
C829 C828 1.391 . S
C830 H820 0.950 . S
C830 C831 1.386 . S
C830 C832 1.391 . S
C831 C830 1.386 . S
C831 C835 1.393 . S
C832 H821 0.950 . S
C832 C830 1.391 . S
C832 C833 1.400 . S
C833 C827 1.491 . S
C833 C832 1.400 . S
C833 C834 1.398 . S
C834 H822 0.950 . S
C834 C833 1.398 . S
C834 C835 1.391 . S
C835 H823 0.950 1_545 S
C835 C831 1.393 . S
C835 C834 1.391 . S
H836 C844 0.950 . S
H837 C849 0.950 . S
H838 C846 0.950 . S
H839 C848 0.950 . S
H840 C850 0.950 . S
H841 C852 0.950 . S
H842 C854 0.950 . S
H843 C855 0.950 . S
C844 H836 0.950 . S
C844 C845 1.386 . S
C844 C846 1.391 . S
C845 C844 1.386 . S
C845 C849 1.393 . S
C846 H838 0.950 . S
C846 C844 1.391 . S
C846 C847 1.400 . S
C847 C846 1.400 . S
C847 C848 1.398 . S
C847 C853 1.491 . S
C848 H839 0.950 . S
C848 C847 1.398 . S
C848 C849 1.391 . S
C849 H837 0.950 . S
C849 C845 1.393 . S
C849 C848 1.391 . S
C850 H840 0.950 . S
C850 C851 1.386 . S
C850 C852 1.391 . S
C851 C850 1.386 . S
C851 C855 1.393 . S
C852 H841 0.950 . S
C852 C850 1.391 . S
C852 C853 1.400 . S
C853 C847 1.491 . S
C853 C852 1.400 . S
C853 C854 1.398 . S
C854 H842 0.950 . S
C854 C853 1.398 . S
C854 C855 1.391 . S
C855 H843 0.950 . S
C855 C851 1.393 . S
C855 C854 1.391 . S
H856 C864 0.950 . S
H857 C869 0.950 . S
H858 C866 0.950 . S
H859 C868 0.950 . S
H860 C870 0.950 . S
H861 C872 0.950 . S
H862 C874 0.950 . S
H863 C875 0.950 . S
C864 H856 0.950 . S
C864 C865 1.386 . S
C864 C866 1.391 . S
C865 C864 1.386 . S
C865 C869 1.393 . S
C866 H858 0.950 . S
C866 C864 1.391 . S
C866 C867 1.400 . S
C867 C866 1.400 . S
C867 C868 1.398 . S
C867 C873 1.491 . S
C868 H859 0.950 . S
C868 C867 1.398 . S
C868 C869 1.391 . S
C869 H857 0.950 . S
C869 C865 1.393 . S
C869 C868 1.391 . S
C870 H860 0.950 . S
C870 C871 1.386 . S
C870 C872 1.391 . S
C871 C870 1.386 . S
C871 C875 1.393 . S
C872 H861 0.950 . S
C872 C870 1.391 . S
C872 C873 1.400 . S
C873 C867 1.491 . S
C873 C872 1.400 . S
C873 C874 1.398 . S
C874 H862 0.950 . S
C874 C873 1.398 . S
C874 C875 1.391 . S
C875 H863 0.950 . S
C875 C871 1.393 . S
C875 C874 1.391 . S
H876 C884 0.950 . S
H877 C889 0.950 . S
H878 C886 0.950 . S
H879 C888 0.950 . S
H880 C890 0.950 . S
H881 C892 0.950 . S
H882 C894 0.950 . S
H883 C895 0.950 . S
C884 H876 0.950 . S
C884 C885 1.386 . S
C884 C886 1.391 . S
C885 C884 1.386 . S
C885 C889 1.393 . S
C886 H878 0.950 . S
C886 C884 1.391 . S
C886 C887 1.400 . S
C887 C886 1.400 . S
C887 C888 1.398 . S
C887 C893 1.491 . S
C888 H879 0.950 . S
C888 C887 1.398 . S
C888 C889 1.391 . S
C889 H877 0.950 . S
C889 C885 1.393 . S
C889 C888 1.391 . S
C890 H880 0.950 . S
C890 C891 1.386 . S
C890 C892 1.391 . S
C891 C890 1.386 . S
C891 C895 1.393 . S
C892 H881 0.950 . S
C892 C890 1.391 . S
C892 C893 1.400 . S
C893 C887 1.491 . S
C893 C892 1.400 . S
C893 C894 1.398 . S
C894 H882 0.950 . S
C894 C893 1.398 . S
C894 C895 1.391 . S
C895 H883 0.950 . S
C895 C891 1.393 . S
C895 C894 1.391 . S
H896 C904 0.950 . S
H897 C909 0.950 . S
H898 C906 0.950 . S
H899 C908 0.950 . S
H900 C910 0.950 . S
H901 C912 0.950 1_545 S
H902 C914 0.950 . S
H903 C915 0.950 . S
C904 H896 0.950 . S
C904 C905 1.386 . S
C904 C906 1.391 1_554 S
C905 C904 1.386 . S
C905 C909 1.393 . S
C906 H898 0.950 . S
C906 C904 1.391 1_556 S
C906 C907 1.400 . S
C907 C906 1.400 . S
C907 C908 1.398 1_556 S
C907 C913 1.491 . S
C908 H899 0.950 . S
C908 C907 1.398 1_554 S
C908 C909 1.391 . S
C909 H897 0.950 . S
C909 C905 1.393 . S
C909 C908 1.391 . S
C910 H900 0.950 . S
C910 C911 1.385 1_545 S
C910 C912 1.391 1_545 S
C911 C910 1.385 1_565 S
C911 C915 1.393 . S
C912 H901 0.950 1_565 S
C912 C910 1.391 1_565 S
C912 C913 1.400 . S
C913 C907 1.491 . S
C913 C912 1.400 . S
C913 C914 1.398 . S
C914 H902 0.950 . S
C914 C913 1.398 . S
C914 C915 1.391 . S
C915 H903 0.950 . S
C915 C911 1.393 . S
C915 C914 1.391 . S
H916 C924 0.950 . S
H917 C929 0.950 . S
H918 C926 0.950 . S
H919 C928 0.950 . S
H920 C930 0.950 . S
H921 C932 0.950 . S
H922 C934 0.950 . S
H923 C935 0.950 . S
C924 H916 0.950 . S
C924 C925 1.386 . S
C924 C926 1.391 1_554 S
C925 C924 1.386 . S
C925 C929 1.393 . S
C926 H918 0.950 . S
C926 C924 1.391 1_556 S
C926 C927 1.400 . S
C927 C926 1.400 . S
C927 C928 1.398 1_556 S
C927 C933 1.491 . S
C928 H919 0.950 . S
C928 C927 1.398 1_554 S
C928 C929 1.391 . S
C929 H917 0.950 . S
C929 C925 1.393 . S
C929 C928 1.391 . S
C930 H920 0.950 . S
C930 C931 1.386 . S
C930 C932 1.391 . S
C931 C930 1.386 . S
C931 C935 1.393 . S
C932 H921 0.950 . S
C932 C930 1.391 . S
C932 C933 1.400 . S
C933 C927 1.491 . S
C933 C932 1.400 . S
C933 C934 1.398 . S
C934 H922 0.950 . S
C934 C933 1.398 . S
C934 C935 1.391 . S
C935 H923 0.950 . S
C935 C931 1.393 . S
C935 C934 1.391 . S
H936 C944 0.949 1_556 S
H937 C949 0.950 . S
H938 C946 0.950 . S
H939 C948 0.950 . S
H940 C950 0.950 . S
H941 C952 0.950 . S
H942 C954 0.950 . S
H943 C955 0.950 . S
C944 H936 0.949 1_554 S
C944 C945 1.386 . S
C944 C946 1.391 1_554 S
C945 C944 1.386 . S
C945 C949 1.393 . S
C946 H938 0.950 . S
C946 C944 1.391 1_556 S
C946 C947 1.400 . S
C947 C946 1.400 . S
C947 C948 1.398 1_556 S
C947 C953 1.491 . S
C948 H939 0.950 . S
C948 C947 1.398 1_554 S
C948 C949 1.391 . S
C949 H937 0.950 . S
C949 C945 1.393 . S
C949 C948 1.391 . S
C950 H940 0.950 . S
C950 C951 1.386 . S
C950 C952 1.391 . S
C951 C950 1.386 . S
C951 C955 1.393 . S
C952 H941 0.950 . S
C952 C950 1.391 . S
C952 C953 1.400 . S
C953 C947 1.491 . S
C953 C952 1.400 . S
C953 C954 1.398 . S
C954 H942 0.950 . S
C954 C953 1.398 . S
C954 C955 1.391 . S
C955 H943 0.950 . S
C955 C951 1.393 . S
C955 C954 1.391 . S
H956 C964 0.950 . S
H957 C969 0.950 . S
H958 C966 0.950 . S
H959 C968 0.950 . S
H960 C970 0.950 . S
H961 C972 0.950 . S
H962 C974 0.950 . S
H963 C975 0.950 . S
C964 H956 0.950 . S
C964 C965 1.386 . S
C964 C966 1.391 . S
C965 C964 1.386 . S
C965 C969 1.393 . S
C966 H958 0.950 . S
C966 C964 1.391 . S
C966 C967 1.400 1_554 S
C967 C966 1.400 1_556 S
C967 C968 1.398 . S
C967 C973 1.491 . S
C968 H959 0.950 . S
C968 C967 1.398 . S
C968 C969 1.391 1_556 S
C969 H957 0.950 . S
C969 C965 1.393 . S
C969 C968 1.391 1_554 S
C970 H960 0.950 . S
C970 C971 1.386 . S
C970 C972 1.391 . S
C971 C970 1.386 . S
C971 C975 1.393 . S
C972 H961 0.950 . S
C972 C970 1.391 . S
C972 C973 1.400 . S
C973 C967 1.491 . S
C973 C972 1.400 . S
C973 C974 1.398 . S
C974 H962 0.950 . S
C974 C973 1.398 . S
C974 C975 1.391 . S
C975 H963 0.950 . S
C975 C971 1.393 . S
C975 C974 1.391 . S
H976 C984 0.950 . S
H977 C989 0.950 . S
H978 C986 0.950 . S
H979 C988 0.950 . S
H980 C990 0.960 . S
H981 C992 0.950 . S
H982 C994 0.950 . S
H983 C995 0.950 . S
C984 H976 0.950 . S
C984 C985 1.386 . S
C984 C986 1.391 . S
C985 C984 1.386 . S
C985 C989 1.393 . S
C986 H978 0.950 . S
C986 C984 1.391 . S
C986 C987 1.400 . S
C987 C986 1.400 . S
C987 C988 1.398 . S
C987 C993 1.491 . S
C988 H979 0.950 . S
C988 C987 1.398 . S
C988 C989 1.391 . S
C989 H977 0.950 . S
C989 C985 1.393 . S
C989 C988 1.391 . S
C990 H980 0.960 . S
C990 C991 1.386 . S
C990 C992 1.391 . S
C991 C990 1.386 . S
C991 C995 1.393 . S
C992 H981 0.950 . S
C992 C990 1.391 . S
C992 C993 1.400 . S
C993 C987 1.491 . S
C993 C992 1.400 . S
C993 C994 1.398 . S
C994 H982 0.950 . S
C994 C993 1.398 . S
C994 C995 1.391 . S
C995 H983 0.950 . S
C995 C991 1.393 . S
C995 C994 1.391 . S
H996 C1004 0.950 . S
H997 C1009 0.950 . S
H998 C1006 0.950 . S
H999 C1008 0.950 . S
H1000 C1010 0.950 . S
H1001 C1012 0.950 1_565 S
H1002 C1014 0.950 . S
H1003 C1015 0.950 . S
C1004 H996 0.950 . S
C1004 C1005 1.386 . S
C1004 C1006 1.391 . S
C1005 C1004 1.386 . S
C1005 C1009 1.393 . S
C1006 H998 0.950 . S
C1006 C1004 1.391 . S
C1006 C1007 1.400 . S
C1007 C1006 1.400 . S
C1007 C1008 1.398 . S
C1007 C1013 1.491 . S
C1008 H999 0.950 . S
C1008 C1007 1.398 . S
C1008 C1009 1.391 . S
C1009 H997 0.950 . S
C1009 C1005 1.393 . S
C1009 C1008 1.391 . S
C1010 H1000 0.950 . S
C1010 C1011 1.375 1_565 S
C1010 C1012 1.391 1_565 S
C1011 C1010 1.375 1_545 S
C1011 C1015 1.419 . S
C1012 H1001 0.950 1_545 S
C1012 C1010 1.391 1_545 S
C1012 C1013 1.400 . S
C1013 C1007 1.491 . S
C1013 C1012 1.400 . S
C1013 C1014 1.398 . S
C1014 H1002 0.950 . S
C1014 C1013 1.398 . S
C1014 C1015 1.391 . S
C1015 H1003 0.950 . S
C1015 C1011 1.419 . S
C1015 C1014 1.391 . S
H1016 C1024 0.950 . S
H1017 C1029 0.950 . S
H1018 C1026 0.950 . S
H1019 C1028 0.950 . S
H1020 C1030 0.950 . S
H1021 C1032 0.950 . S
H1022 C1034 0.950 . S
H1023 C1035 0.950 . S
C1024 H1016 0.950 . S
C1024 C1025 1.386 . S
C1024 C1026 1.391 . S
C1025 C1024 1.386 . S
C1025 C1029 1.393 . S
C1026 H1018 0.950 . S
C1026 C1024 1.391 . S
C1026 C1027 1.400 . S
C1027 C1026 1.400 . S
C1027 C1028 1.398 . S
C1027 C1033 1.491 . S
C1028 H1019 0.950 . S
C1028 C1027 1.398 . S
C1028 C1029 1.391 . S
C1029 H1017 0.950 . S
C1029 C1025 1.393 . S
C1029 C1028 1.391 . S
C1030 H1020 0.950 . S
C1030 C1031 1.386 . S
C1030 C1032 1.391 . S
C1031 C1030 1.386 . S
C1031 C1035 1.393 . S
C1032 H1021 0.950 . S
C1032 C1030 1.391 . S
C1032 C1033 1.400 . S
C1033 C1027 1.491 . S
C1033 C1032 1.400 . S
C1033 C1034 1.398 . S
C1034 H1022 0.950 . S
C1034 C1033 1.398 . S
C1034 C1035 1.391 . S
C1035 H1023 0.950 . S
C1035 C1031 1.393 . S
C1035 C1034 1.391 . S
H1036 C1044 0.950 . S
H1037 C1049 0.950 . S
H1038 C1046 0.950 . S
H1039 C1048 0.950 . S
H1040 C1050 0.950 . S
H1041 C1052 0.950 . S
H1042 C1054 0.950 . S
H1043 C1055 0.950 . S
C1044 H1036 0.950 . S
C1044 C1045 1.386 . S
C1044 C1046 1.391 . S
C1045 C1044 1.386 . S
C1045 C1049 1.393 . S
C1046 H1038 0.950 . S
C1046 C1044 1.391 . S
C1046 C1047 1.400 . S
C1047 C1046 1.400 . S
C1047 C1048 1.398 . S
C1047 C1053 1.491 . S
C1048 H1039 0.950 . S
C1048 C1047 1.398 . S
C1048 C1049 1.391 . S
C1049 H1037 0.950 . S
C1049 C1045 1.393 . S
C1049 C1048 1.391 . S
C1050 H1040 0.950 . S
C1050 C1051 1.386 . S
C1050 C1052 1.391 . S
C1051 C1050 1.386 . S
C1051 C1055 1.393 . S
C1052 H1041 0.950 . S
C1052 C1050 1.391 . S
C1052 C1053 1.400 . S
C1053 C1047 1.491 . S
C1053 C1052 1.400 . S
C1053 C1054 1.398 . S
C1054 H1042 0.950 . S
C1054 C1053 1.398 . S
C1054 C1055 1.391 . S
C1055 H1043 0.950 . S
C1055 C1051 1.393 . S
C1055 C1054 1.391 . S
H1056 C1064 0.945 1_554 S
H1057 C1069 0.950 . S
H1058 C1066 0.950 . S
H1059 C1068 0.950 . S
H1060 C1070 0.950 . S
H1061 C1072 0.938 1_455 S
H1062 C1074 0.950 . S
H1063 C1075 0.950 . S
C1064 H1056 0.945 1_556 S
C1064 C1065 1.386 . S
C1064 C1066 1.391 . S
C1065 C1064 1.386 . S
C1065 C1069 1.393 . S
C1066 H1058 0.950 . S
C1066 C1064 1.391 . S
C1066 C1067 1.400 . S
C1067 C1066 1.400 . S
C1067 C1068 1.398 . S
C1067 C1073 1.491 . S
C1068 H1059 0.950 . S
C1068 C1067 1.398 . S
C1068 C1069 1.391 . S
C1069 H1057 0.950 . S
C1069 C1065 1.393 . S
C1069 C1068 1.391 . S
C1070 H1060 0.950 . S
C1070 C1071 1.386 . S
C1070 C1072 1.368 1_455 S
C1071 C1070 1.386 . S
C1071 C1075 1.393 1_455 S
C1072 H1061 0.938 1_655 S
C1072 C1070 1.368 1_655 S
C1072 C1073 1.437 . S
C1073 C1067 1.491 . S
C1073 C1072 1.437 . S
C1073 C1074 1.398 . S
C1074 H1062 0.950 . S
C1074 C1073 1.398 . S
C1074 C1075 1.391 . S
C1075 H1063 0.950 . S
C1075 C1071 1.393 1_655 S
C1075 C1074 1.391 . S
H1076 C1084 0.950 . S
H1077 C1089 0.950 . S
H1078 C1086 0.950 . S
H1079 C1088 0.950 . S
H1080 C1090 0.950 . S
H1081 C1092 0.950 . S
H1082 C1094 0.950 . S
H1083 C1095 0.950 . S
C1084 H1076 0.950 . S
C1084 C1085 1.386 . S
C1084 C1086 1.391 . S
C1085 C1084 1.386 . S
C1085 C1089 1.393 . S
C1086 H1078 0.950 . S
C1086 C1084 1.391 . S
C1086 C1087 1.400 . S
C1087 C1086 1.400 . S
C1087 C1088 1.398 . S
C1087 C1093 1.491 . S
C1088 H1079 0.950 . S
C1088 C1087 1.398 . S
C1088 C1089 1.391 . S
C1089 H1077 0.950 . S
C1089 C1085 1.393 . S
C1089 C1088 1.391 . S
C1090 H1080 0.950 . S
C1090 C1091 1.386 . S
C1090 C1092 1.391 . S
C1091 C1090 1.386 . S
C1091 C1095 1.393 1_545 S
C1092 H1081 0.950 . S
C1092 C1090 1.391 . S
C1092 C1093 1.400 1_545 S
C1093 C1087 1.491 . S
C1093 C1092 1.400 1_565 S
C1093 C1094 1.398 . S
C1094 H1082 0.950 . S
C1094 C1093 1.398 . S
C1094 C1095 1.391 . S
C1095 H1083 0.950 . S
C1095 C1091 1.393 1_565 S
C1095 C1094 1.391 . S
H1096 C1104 0.949 1_554 S
H1097 C1109 0.950 . S
H1098 C1106 0.950 . S
H1099 C1108 0.950 . S
H1100 C1110 0.950 . S
H1101 C1112 0.950 . S
H1102 C1114 0.950 . S
H1103 C1115 0.950 . S
C1104 H1096 0.949 1_556 S
C1104 C1105 1.386 . S
C1104 C1106 1.391 . S
C1105 C1104 1.386 . S
C1105 C1109 1.393 . S
C1106 H1098 0.950 . S
C1106 C1104 1.391 . S
C1106 C1107 1.400 . S
C1107 C1106 1.400 . S
C1107 C1108 1.398 . S
C1107 C1113 1.491 . S
C1108 H1099 0.950 . S
C1108 C1107 1.398 . S
C1108 C1109 1.391 . S
C1109 H1097 0.950 . S
C1109 C1105 1.393 . S
C1109 C1108 1.391 . S
C1110 H1100 0.950 . S
C1110 C1111 1.386 . S
C1110 C1112 1.391 . S
C1111 C1110 1.386 . S
C1111 C1115 1.393 . S
C1112 H1101 0.950 . S
C1112 C1110 1.391 . S
C1112 C1113 1.400 . S
C1113 C1107 1.491 . S
C1113 C1112 1.400 . S
C1113 C1114 1.398 . S
C1114 H1102 0.950 . S
C1114 C1113 1.398 . S
C1114 C1115 1.391 . S
C1115 H1103 0.950 . S
C1115 C1111 1.393 . S
C1115 C1114 1.391 . S
H1116 C1124 0.950 . S
H1117 C1129 0.950 . S
H1118 C1126 0.950 . S
H1119 C1128 0.950 . S
H1120 C1130 0.950 . S
H1121 C1132 0.950 . S
H1122 C1134 0.950 . S
H1123 C1135 0.950 . S
C1124 H1116 0.950 . S
C1124 C1125 1.386 . S
C1124 C1126 1.391 . S
C1125 C1124 1.386 . S
C1125 C1129 1.393 1_556 S
C1126 H1118 0.950 . S
C1126 C1124 1.391 . S
C1126 C1127 1.400 . S
C1127 C1126 1.400 . S
C1127 C1128 1.398 1_556 S
C1127 C1133 1.491 . S
C1128 H1119 0.950 . S
C1128 C1127 1.398 1_554 S
C1128 C1129 1.391 . S
C1129 H1117 0.950 . S
C1129 C1125 1.393 1_554 S
C1129 C1128 1.391 . S
C1130 H1120 0.950 . S
C1130 C1131 1.386 . S
C1130 C1132 1.391 . S
C1131 C1130 1.386 . S
C1131 C1135 1.393 . S
C1132 H1121 0.950 . S
C1132 C1130 1.391 . S
C1132 C1133 1.400 . S
C1133 C1127 1.491 . S
C1133 C1132 1.400 . S
C1133 C1134 1.398 . S
C1134 H1122 0.950 . S
C1134 C1133 1.398 . S
C1134 C1135 1.391 . S
C1135 H1123 0.950 . S
C1135 C1131 1.393 . S
C1135 C1134 1.391 . S
H1136 C1144 0.950 . S
H1137 C1149 0.950 . S
H1138 C1146 0.950 . S
H1139 C1148 0.950 . S
H1140 C1150 0.950 . S
H1141 C1152 0.950 . S
H1142 C1154 0.950 . S
H1143 C1155 0.950 . S
C1144 H1136 0.950 . S
C1144 C1145 1.386 . S
C1144 C1146 1.391 . S
C1145 C1144 1.386 . S
C1145 C1149 1.393 . S
C1146 H1138 0.950 . S
C1146 C1144 1.391 . S
C1146 C1147 1.400 . S
C1147 C1146 1.400 . S
C1147 C1148 1.398 . S
C1147 C1153 1.491 . S
C1148 H1139 0.950 . S
C1148 C1147 1.398 . S
C1148 C1149 1.391 . S
C1149 H1137 0.950 . S
C1149 C1145 1.393 . S
C1149 C1148 1.391 . S
C1150 H1140 0.950 . S
C1150 C1151 1.386 . S
C1150 C1152 1.391 . S
C1151 C1150 1.386 . S
C1151 C1155 1.393 . S
C1152 H1141 0.950 . S
C1152 C1150 1.391 . S
C1152 C1153 1.400 . S
C1153 C1147 1.491 . S
C1153 C1152 1.400 . S
C1153 C1154 1.398 . S
C1154 H1142 0.950 . S
C1154 C1153 1.398 . S
C1154 C1155 1.391 . S
C1155 H1143 0.950 . S
C1155 C1151 1.393 . S
C1155 C1154 1.391 . S
H1156 C1164 0.950 . S
H1157 C1169 0.950 . S
H1158 C1166 0.950 . S
H1159 C1168 0.950 . S
H1160 C1170 0.950 . S
H1161 C1172 0.950 . S
H1162 C1174 0.950 . S
H1163 C1175 0.950 . S
C1164 H1156 0.950 . S
C1164 C1165 1.386 . S
C1164 C1166 1.391 . S
C1165 C1164 1.386 . S
C1165 C1169 1.393 . S
C1166 H1158 0.950 . S
C1166 C1164 1.391 . S
C1166 C1167 1.400 . S
C1167 C1166 1.400 . S
C1167 C1168 1.398 . S
C1167 C1173 1.491 . S
C1168 H1159 0.950 . S
C1168 C1167 1.398 . S
C1168 C1169 1.391 . S
C1169 H1157 0.950 . S
C1169 C1165 1.393 . S
C1169 C1168 1.391 . S
C1170 H1160 0.950 . S
C1170 C1171 1.386 . S
C1170 C1172 1.391 . S
C1171 C1170 1.386 . S
C1171 C1175 1.393 . S
C1172 H1161 0.950 . S
C1172 C1170 1.391 . S
C1172 C1173 1.400 . S
C1173 C1167 1.491 . S
C1173 C1172 1.400 . S
C1173 C1174 1.398 . S
C1174 H1162 0.950 . S
C1174 C1173 1.398 . S
C1174 C1175 1.391 . S
C1175 H1163 0.950 . S
C1175 C1171 1.393 . S
C1175 C1174 1.391 . S
H1176 C1184 0.950 . S
H1177 C1189 0.950 . S
H1178 C1186 0.950 . S
H1179 C1188 0.950 . S
H1180 C1190 0.950 . S
H1181 C1192 0.950 . S
H1182 C1194 0.950 . S
H1183 C1195 0.950 . S
C1184 H1176 0.950 . S
C1184 C1185 1.386 . S
C1184 C1186 1.391 . S
C1185 C1184 1.386 . S
C1185 C1189 1.393 . S
C1186 H1178 0.950 . S
C1186 C1184 1.391 . S
C1186 C1187 1.400 . S
C1187 C1186 1.400 . S
C1187 C1188 1.398 . S
C1187 C1193 1.491 . S
C1188 H1179 0.950 . S
C1188 C1187 1.398 . S
C1188 C1189 1.391 . S
C1189 H1177 0.950 . S
C1189 C1185 1.393 . S
C1189 C1188 1.391 . S
C1190 H1180 0.950 . S
C1190 C1191 1.386 . S
C1190 C1192 1.391 . S
C1191 C1190 1.386 . S
C1191 C1195 1.393 . S
C1192 H1181 0.950 . S
C1192 C1190 1.391 . S
C1192 C1193 1.400 . S
C1193 C1187 1.491 . S
C1193 C1192 1.400 . S
C1193 C1194 1.398 . S
C1194 H1182 0.950 . S
C1194 C1193 1.398 . S
C1194 C1195 1.391 . S
C1195 H1183 0.950 . S
C1195 C1191 1.393 . S
C1195 C1194 1.391 . S
H1196 C1204 0.950 . S
H1197 C1209 0.950 . S
H1198 C1206 0.950 . S
H1199 C1208 0.950 . S
H1200 C1210 0.950 . S
H1201 C1212 0.950 . S
H1202 C1214 0.950 . S
H1203 C1215 0.950 . S
C1204 H1196 0.950 . S
C1204 C1205 1.386 . S
C1204 C1206 1.391 . S
C1205 C1204 1.386 . S
C1205 C1209 1.393 . S
C1206 H1198 0.950 . S
C1206 C1204 1.391 . S
C1206 C1207 1.400 . S
C1207 C1206 1.400 . S
C1207 C1208 1.398 . S
C1207 C1213 1.491 . S
C1208 H1199 0.950 . S
C1208 C1207 1.398 . S
C1208 C1209 1.391 . S
C1209 H1197 0.950 . S
C1209 C1205 1.393 . S
C1209 C1208 1.391 . S
C1210 H1200 0.950 . S
C1210 C1211 1.386 . S
C1210 C1212 1.391 . S
C1211 C1210 1.386 . S
C1211 C1215 1.393 . S
C1212 H1201 0.950 . S
C1212 C1210 1.391 . S
C1212 C1213 1.400 . S
C1213 C1207 1.491 . S
C1213 C1212 1.400 . S
C1213 C1214 1.398 . S
C1214 H1202 0.950 . S
C1214 C1213 1.398 . S
C1214 C1215 1.391 . S
C1215 H1203 0.950 . S
C1215 C1211 1.393 . S
C1215 C1214 1.391 . S
H1216 C1224 0.950 . S
H1217 C1229 0.950 . S
H1218 C1226 0.950 . S
H1219 C1228 0.950 . S
H1220 C1230 0.950 . S
H1221 C1232 0.950 . S
H1222 C1234 0.950 . S
H1223 C1235 0.950 . S
C1224 H1216 0.950 . S
C1224 C1225 1.386 . S
C1224 C1226 1.391 . S
C1225 C1224 1.386 . S
C1225 C1229 1.393 . S
C1226 H1218 0.950 . S
C1226 C1224 1.391 . S
C1226 C1227 1.400 . S
C1227 C1226 1.400 . S
C1227 C1228 1.398 . S
C1227 C1233 1.491 . S
C1228 H1219 0.950 . S
C1228 C1227 1.398 . S
C1228 C1229 1.391 . S
C1229 H1217 0.950 . S
C1229 C1225 1.393 . S
C1229 C1228 1.391 . S
C1230 H1220 0.950 . S
C1230 C1231 1.386 . S
C1230 C1232 1.391 . S
C1231 C1230 1.386 . S
C1231 C1235 1.393 . S
C1232 H1221 0.950 . S
C1232 C1230 1.391 . S
C1232 C1233 1.400 . S
C1233 C1227 1.491 . S
C1233 C1232 1.400 . S
C1233 C1234 1.398 . S
C1234 H1222 0.950 . S
C1234 C1233 1.398 . S
C1234 C1235 1.391 . S
C1235 H1223 0.950 . S
C1235 C1231 1.393 . S
C1235 C1234 1.391 . S
H1236 C1244 0.950 . S
H1237 C1249 0.950 . S
H1238 C1246 0.950 . S
H1239 C1248 0.950 . S
H1240 C1250 0.950 . S
H1241 C1252 0.950 . S
H1242 C1254 0.950 . S
H1243 C1255 0.950 . S
C1244 H1236 0.950 . S
C1244 C1245 1.386 . S
C1244 C1246 1.391 . S
C1245 C1244 1.386 . S
C1245 C1249 1.393 . S
C1246 H1238 0.950 . S
C1246 C1244 1.391 . S
C1246 C1247 1.400 . S
C1247 C1246 1.400 . S
C1247 C1248 1.398 . S
C1247 C1253 1.491 . S
C1248 H1239 0.950 . S
C1248 C1247 1.398 . S
C1248 C1249 1.391 . S
C1249 H1237 0.950 . S
C1249 C1245 1.393 . S
C1249 C1248 1.391 . S
C1250 H1240 0.950 . S
C1250 C1251 1.386 . S
C1250 C1252 1.391 . S
C1251 C1250 1.386 . S
C1251 C1255 1.393 . S
C1252 H1241 0.950 . S
C1252 C1250 1.391 . S
C1252 C1253 1.400 . S
C1253 C1247 1.491 . S
C1253 C1252 1.400 . S
C1253 C1254 1.398 . S
C1254 H1242 0.950 . S
C1254 C1253 1.398 . S
C1254 C1255 1.391 . S
C1255 H1243 0.950 . S
C1255 C1251 1.393 . S
C1255 C1254 1.391 . S
H1256 C1264 0.950 . S
H1257 C1269 0.950 . S
H1258 C1266 0.950 . S
H1259 C1268 0.950 . S
H1260 C1270 0.950 . S
H1261 C1272 0.950 . S
H1262 C1274 0.950 . S
H1263 C1275 0.950 . S
C1264 H1256 0.950 . S
C1264 C1265 1.386 . S
C1264 C1266 1.391 . S
C1265 C1264 1.386 . S
C1265 C1269 1.393 . S
C1266 H1258 0.950 . S
C1266 C1264 1.391 . S
C1266 C1267 1.400 . S
C1267 C1266 1.400 . S
C1267 C1268 1.398 . S
C1267 C1273 1.491 . S
C1268 H1259 0.950 . S
C1268 C1267 1.398 . S
C1268 C1269 1.391 . S
C1269 H1257 0.950 . S
C1269 C1265 1.393 . S
C1269 C1268 1.391 . S
C1270 H1260 0.950 . S
C1270 C1271 1.386 . S
C1270 C1272 1.391 . S
C1271 C1270 1.386 . S
C1271 C1275 1.393 . S
C1272 H1261 0.950 . S
C1272 C1270 1.391 . S
C1272 C1273 1.400 . S
C1273 C1267 1.491 . S
C1273 C1272 1.400 . S
C1273 C1274 1.398 . S
C1274 H1262 0.950 . S
C1274 C1273 1.398 . S
C1274 C1275 1.391 . S
C1275 H1263 0.950 . S
C1275 C1271 1.393 . S
C1275 C1274 1.391 . S
H1276 C1284 0.950 . S
H1277 C1289 0.950 . S
H1278 C1286 0.950 . S
H1279 C1288 0.950 . S
H1280 C1290 0.950 . S
H1281 C1292 0.950 . S
H1282 C1294 0.950 . S
H1283 C1295 0.950 . S
C1284 H1276 0.950 . S
C1284 C1285 1.386 . S
C1284 C1286 1.391 . S
C1285 C1284 1.386 . S
C1285 C1289 1.393 . S
C1286 H1278 0.950 . S
C1286 C1284 1.391 . S
C1286 C1287 1.400 . S
C1287 C1286 1.400 . S
C1287 C1288 1.398 . S
C1287 C1293 1.491 . S
C1288 H1279 0.950 . S
C1288 C1287 1.398 . S
C1288 C1289 1.391 . S
C1289 H1277 0.950 . S
C1289 C1285 1.393 . S
C1289 C1288 1.391 . S
C1290 H1280 0.950 . S
C1290 C1291 1.386 . S
C1290 C1292 1.391 . S
C1291 C1290 1.386 . S
C1291 C1295 1.393 . S
C1292 H1281 0.950 . S
C1292 C1290 1.391 . S
C1292 C1293 1.400 . S
C1293 C1287 1.491 . S
C1293 C1292 1.400 . S
C1293 C1294 1.398 . S
C1294 H1282 0.950 . S
C1294 C1293 1.398 . S
C1294 C1295 1.391 . S
C1295 H1283 0.950 . S
C1295 C1291 1.393 . S
C1295 C1294 1.391 . S
C825 C391 2.373 . S
C831 C554 2.324 . S
C851 C638 2.357 . S
C845 C451 2.404 . S
C871 C704 2.273 . S
C865 C241 2.192 . S
C891 C788 2.251 . S
C885 C331 2.166 . S
C911 C543 2.327 1_565 S
C905 C121 2.106 . S
C925 C211 2.324 . S
C931 C627 2.354 . S
C945 C31 2.432 . S
C951 C715 2.253 . S
C965 C91 2.241 . S
C971 C799 2.257 . S
C991 C550 0.652 1_455 S
C985 C301 0.657 . S
C1011 C634 0.549 1_545 S
C1005 C380 0.576 . S
C1031 C706 0.562 . S
C1025 C440 0.578 . S
C1045 C260 0.693 . S
C1051 C790 0.585 . S
C1065 C61 0.623 1_556 S
C1071 C538 0.645 . S
C1091 C622 0.585 . S
C1085 C140 0.574 1_556 S
C1111 C718 0.588 . S
C1105 C200 0.588 1_556 S
C1125 C20 0.691 . S
C1131 C802 0.609 . S
C1145 C320 2.858 . S
C1151 C547 2.898 . S
C1165 C361 2.533 . S
C1171 C631 2.871 . S
C1191 C711 2.929 . S
C1185 C421 2.408 . S
C1211 C795 2.963 . S
C1205 C271 2.731 . S
C1225 C80 2.917 . S
C1231 C536 2.905 . S
C1251 C620 2.874 . S
C1245 C151 2.887 . S
C1271 C722 2.931 . S
C1265 C181 2.346 . S
C1285 C1 2.390 . S
C1291 C806 2.967 . S
