# Generated by pormake.
# Topology zzz, (3,6)-cn, num edge types: 1
# Building blocks:
#     Node 0, Type 0, BuildingBlock: KAKCAD_clean_linker_0, # of connection points: 3
#     Node 1, Type 0, BuildingBlock: KAKCAD_clean_linker_0, # of connection points: 3
#     Node 2, Type 0, BuildingBlock: KAKCAD_clean_linker_0, # of connection points: 3
#     Node 3, Type 0, BuildingBlock: KAKCAD_clean_linker_0, # of connection points: 3
#     Node 4, Type 0, BuildingBlock: KAKCAD_clean_linker_0, # of connection points: 3
#     Node 5, Type 0, BuildingBlock: KAKCAD_clean_linker_0, # of connection points: 3
#     Node 6, Type 0, BuildingBlock: KAKCAD_clean_linker_0, # of connection points: 3
#     Node 7, Type 0, BuildingBlock: KAKCAD_clean_linker_0, # of connection points: 3
#     Node 8, Type 1, BuildingBlock: LEVNOQ01_clean_sbu_1, # of connection points: 6
#     Node 9, Type 1, BuildingBlock: LEVNOQ01_clean_sbu_1, # of connection points: 6
#     Node 10, Type 1, BuildingBlock: LEVNOQ01_clean_sbu_1, # of connection points: 6
#     Node 11, Type 1, BuildingBlock: LEVNOQ01_clean_sbu_1, # of connection points: 6
#     Edge 12, Type (0, 1), BuildingBlock: XIVTED_clean_linker_0, # of connection points: 2
#     Edge 13, Type (0, 1), BuildingBlock: XIVTED_clean_linker_0, # of connection points: 2
#     Edge 14, Type (0, 1), BuildingBlock: XIVTED_clean_linker_0, # of connection points: 2
#     Edge 15, Type (0, 1), BuildingBlock: XIVTED_clean_linker_0, # of connection points: 2
#     Edge 16, Type (0, 1), BuildingBlock: XIVTED_clean_linker_0, # of connection points: 2
#     Edge 17, Type (0, 1), BuildingBlock: XIVTED_clean_linker_0, # of connection points: 2
#     Edge 18, Type (0, 1), BuildingBlock: XIVTED_clean_linker_0, # of connection points: 2
#     Edge 19, Type (0, 1), BuildingBlock: XIVTED_clean_linker_0, # of connection points: 2
#     Edge 20, Type (0, 1), BuildingBlock: XIVTED_clean_linker_0, # of connection points: 2
#     Edge 21, Type (0, 1), BuildingBlock: XIVTED_clean_linker_0, # of connection points: 2
#     Edge 22, Type (0, 1), BuildingBlock: XIVTED_clean_linker_0, # of connection points: 2
#     Edge 23, Type (0, 1), BuildingBlock: XIVTED_clean_linker_0, # of connection points: 2
#     Edge 24, Type (0, 1), BuildingBlock: XIVTED_clean_linker_0, # of connection points: 2
#     Edge 25, Type (0, 1), BuildingBlock: XIVTED_clean_linker_0, # of connection points: 2
#     Edge 26, Type (0, 1), BuildingBlock: XIVTED_clean_linker_0, # of connection points: 2
#     Edge 27, Type (0, 1), BuildingBlock: XIVTED_clean_linker_0, # of connection points: 2
#     Edge 28, Type (0, 1), BuildingBlock: XIVTED_clean_linker_0, # of connection points: 2
#     Edge 29, Type (0, 1), BuildingBlock: XIVTED_clean_linker_0, # of connection points: 2
#     Edge 30, Type (0, 1), BuildingBlock: XIVTED_clean_linker_0, # of connection points: 2
#     Edge 31, Type (0, 1), BuildingBlock: XIVTED_clean_linker_0, # of connection points: 2
#     Edge 32, Type (0, 1), BuildingBlock: XIVTED_clean_linker_0, # of connection points: 2
#     Edge 33, Type (0, 1), BuildingBlock: XIVTED_clean_linker_0, # of connection points: 2
#     Edge 34, Type (0, 1), BuildingBlock: XIVTED_clean_linker_0, # of connection points: 2
#     Edge 35, Type (0, 1), BuildingBlock: XIVTED_clean_linker_0, # of connection points: 2
# Relax obj value: 0.304
# Max RMSD: 0.218
# Mean RMSD: 0.206
data_MOF--net-zzz--node1-LEVNOQ01_clean_sbu_1--node2-KAKCAD_clean_linker_0--edge1-XIVTED_clean_linker_0
_symmetry_space_group_name_H-M    P1
_symmetry_Int_Tables_number       1
_symmetry_cell_setting            triclinic
loop_
_symmetry_equiv_pos_as_xyz
'x, y, z'
_cell_length_a     54.959223
_cell_length_b     58.232139
_cell_length_c     21.006372
_cell_angle_alpha  89.773574
_cell_angle_beta   90.180145
_cell_angle_gamma 88.478392
loop_
_atom_site_label
_atom_site_type_symbol
_atom_site_fract_x
_atom_site_fract_y
_atom_site_fract_z
_atom_type_partial_charge
C0 C 0.81886 0.5955 0.00815 0.0
C1 C 0.84075 0.60549 0.02634 0.0
C2 C 0.79721 0.60166 0.03866 0.0
C3 C 0.79721 0.6178 0.0882 0.0
C4 C 0.81852 0.63001 0.1001 0.0
C5 C 0.84023 0.62386 0.06929 0.0
C6 C 0.77771 0.61704 0.13665 0.0
C7 C 0.75328 0.61475 0.11887 0.0
C8 C 0.73574 0.60755 0.16314 0.0
C9 C 0.74339 0.60235 0.22612 0.0
C10 C 0.76782 0.60492 0.24421 0.0
C11 C 0.78451 0.61298 0.19997 0.0
C12 C 0.77801 0.59497 0.30365 0.0
C13 C 0.78876 0.60929 0.34879 0.0
C14 C 0.78321 0.57125 0.30584 0.0
C15 C 0.80025 0.56221 0.34938 0.0
C16 C 0.81206 0.57671 0.39217 0.0
C17 C 0.71045 0.60301 0.14049 0.0
C18 C 0.70003 0.61595 0.09007 0.0
C19 C 0.69734 0.58449 0.1647 0.0
C20 C 0.67523 0.57838 0.13706 0.0
C21 C 0.66585 0.59015 0.08314 0.0
C22 C 0.67834 0.60943 0.06122 0.0
C23 C 0.80542 0.60017 0.39335 0.0
H24 H 0.8189 0.58146 0.97442 0.0
H25 H 0.78119 0.59188 0.02837 0.0
H26 H 0.81892 0.64271 0.13762 0.0
H27 H 0.85694 0.63186 0.08367 0.0
H28 H 0.74845 0.61701 0.06918 0.0
H29 H 0.80358 0.61339 0.2134 0.0
H30 H 0.73073 0.59576 0.26063 0.0
H31 H 0.78553 0.62772 0.3467 0.0
H32 H 0.77566 0.55999 0.27034 0.0
H33 H 0.80501 0.54405 0.34779 0.0
H34 H 0.70907 0.63078 0.07113 0.0
H35 H 0.70456 0.57395 0.20324 0.0
H36 H 0.81438 0.61169 0.4257 0.0
H37 H 0.67211 0.61905 0.01988 0.0
H38 H 0.66592 0.56394 0.15723 0.0
C39 C 0.00434 0.8123 0.03084 0.0
C40 C 0.02223 0.82728 0.0525 0.0
C41 C 1.00015 0.79186 0.06343 0.0
C42 C 0.01382 0.78617 0.11802 0.0
C43 C 0.03331 0.79992 0.13559 0.0
C44 C 0.03746 0.82034 0.1032 0.0
C45 C 0.00499 0.76878 0.16296 0.0
C46 C 0.99831 0.74701 0.1427 0.0
C47 C 0.98808 0.73143 0.18556 0.0
C48 C 0.98405 0.73802 0.24955 0.0
C49 C 0.9906 0.76013 0.26965 0.0
C50 C 1.00117 0.77509 0.22624 0.0
C51 C 0.98613 0.76948 0.33411 0.0
C52 C 0.96437 0.78196 0.34551 0.0
C53 C 0.00628 0.77324 0.37356 0.0
C54 C 0.0054 0.7905 0.41973 0.0
C55 C 0.9843 0.80448 0.42761 0.0
C56 C 0.9819 0.70861 0.16045 0.0
C57 C 0.96214 0.70684 0.11844 0.0
C58 C 0.99898 0.69034 0.16471 0.0
C59 C 0.9972 0.67124 0.12463 0.0
C60 C 0.97832 0.67013 0.07923 0.0
C61 C 0.96027 0.68775 0.07859 0.0
C62 C 0.96343 0.79922 0.39193 0.0
H63 H 0.99268 0.81701 0.99094 0.0
H64 H 0.98501 0.78151 0.049 0.0
H65 H 0.04423 0.79569 0.17727 0.0
H66 H 0.05137 0.83147 0.12112 0.0
H67 H 1.00112 0.74215 0.09341 0.0
H68 H 0.00557 0.79228 0.24153 0.0
H69 H 0.97581 0.72627 0.28273 0.0
H70 H 0.94879 0.77984 0.31458 0.0
H71 H 0.02349 0.76439 0.36433 0.0
H72 H 0.02198 0.79404 0.44543 0.0
H73 H 0.949 0.72094 0.1135 0.0
H74 H 0.01473 0.69162 0.19554 0.0
H75 H 0.9467 0.80926 0.39738 0.0
H76 H 0.94525 0.68733 0.04517 0.0
H77 H 0.01159 0.65819 0.12621 0.0
C78 C 0.65693 0.87152 0.07153 0.0
C79 C 0.65601 0.88686 0.01969 0.0
C80 C 0.67848 0.86827 0.10645 0.0
C81 C 0.6994 0.88042 0.09035 0.0
C82 C 0.69924 0.89337 0.03381 0.0
C83 C 0.67781 0.89657 0.99894 0.0
C84 C 0.71875 0.88433 0.13843 0.0
C85 C 0.74295 0.88759 0.11996 0.0
C86 C 0.75941 0.89831 0.16097 0.0
C87 C 0.7516 0.90521 0.22201 0.0
C88 C 0.7278 0.9008 0.24233 0.0
C89 C 0.71175 0.89012 0.20053 0.0
C90 C 0.71768 0.91022 0.30247 0.0
C91 C 0.70328 0.89637 0.34127 0.0
C92 C 0.71821 0.93391 0.31448 0.0
C93 C 0.70314 0.94378 0.36116 0.0
C94 C 0.6873 0.93012 0.39672 0.0
C95 C 0.78321 0.90531 0.13521 0.0
C96 C 0.79838 0.8894 0.10297 0.0
C97 C 0.78912 0.92862 0.1345 0.0
C98 C 0.80883 0.93608 0.09872 0.0
C99 C 0.82328 0.92032 0.06406 0.0
C100 C 0.81842 0.89683 0.06816 0.0
C101 C 0.68829 0.9062 0.38792 0.0
H102 H 0.64062 0.8633 0.08782 0.0
H103 H 0.67819 0.85776 0.1491 0.0
H104 H 0.71488 0.90313 0.01998 0.0
H105 H 0.67795 0.90861 0.95955 0.0
H106 H 0.74843 0.88355 0.07165 0.0
H107 H 0.69287 0.88863 0.21442 0.0
H108 H 0.76378 0.91439 0.25292 0.0
H109 H 0.70259 0.87804 0.33301 0.0
H110 H 0.72886 0.94502 0.28463 0.0
H111 H 0.70279 0.96228 0.36648 0.0
H112 H 0.79411 0.87134 0.10255 0.0
H113 H 0.77755 0.94128 0.15815 0.0
H114 H 0.67679 0.89511 0.4155 0.0
H115 H 0.82918 0.88441 0.04131 0.0
H116 H 0.81222 0.95431 0.09595 0.0
C117 C 0.49581 0.72085 0.41539 0.0
C118 C 0.51469 0.70508 0.43257 0.0
C119 C 0.4992 0.73716 0.36707 0.0
C120 C 0.52161 0.73826 0.33559 0.0
C121 C 0.54131 0.72469 0.35858 0.0
C122 C 0.53788 0.7082 0.4061 0.0
C123 C 0.52199 0.74577 0.26804 0.0
C124 C 0.51813 0.76868 0.24708 0.0
C125 C 0.5164 0.77345 0.18102 0.0
C126 C 0.51803 0.75531 0.13717 0.0
C127 C 0.52187 0.73272 0.15802 0.0
C128 C 0.52404 0.7282 0.22303 0.0
C129 C 0.52111 0.71315 0.11387 0.0
C130 C 0.50084 0.71054 0.07405 0.0
C131 C 0.53834 0.69505 0.11999 0.0
C132 C 0.53427 0.67395 0.09151 0.0
C133 C 0.51292 0.67063 0.0562 0.0
C134 C 0.51239 0.7969 0.15479 0.0
C135 C 0.49093 0.80189 0.12046 0.0
C136 C 0.53183 0.81197 0.15012 0.0
C137 C 0.53041 0.83087 0.10835 0.0
C138 C 0.50956 0.83486 0.07028 0.0
C139 C 0.48949 0.82068 0.07892 0.0
C140 C 0.49677 0.6894 0.04539 0.0
H141 H 0.47788 0.7196 0.4361 0.0
H142 H 0.48361 0.74718 0.34988 0.0
H143 H 0.5587 0.72494 0.33445 0.0
H144 H 0.55297 0.69656 0.41747 0.0
H145 H 0.51617 0.78244 0.28138 0.0
H146 H 0.52593 0.7105 0.23916 0.0
H147 H 0.51622 0.75879 0.08657 0.0
H148 H 0.48726 0.72425 0.06887 0.0
H149 H 0.55417 0.69678 0.1503 0.0
H150 H 0.54704 0.65985 0.10085 0.0
H151 H 0.47582 0.79033 0.12264 0.0
H152 H 0.54875 0.80817 0.17505 0.0
H153 H 0.48043 0.68745 0.01718 0.0
H154 H 0.47299 0.8235 0.05133 0.0
H155 H 0.54622 0.8414 0.10273 0.0
C156 C 0.1751 0.39329 0.45417 0.0
C157 C 0.15336 0.38474 0.42927 0.0
C158 C 0.19686 0.3906 0.42093 0.0
C159 C 0.19743 0.3792 0.36211 0.0
C160 C 0.17642 0.36793 0.34178 0.0
C161 C 0.15451 0.37084 0.37482 0.0
C162 C 0.2176 0.38368 0.31699 0.0
C163 C 0.2414 0.38663 0.33897 0.0
C164 C 0.25877 0.39763 0.30114 0.0
C165 C 0.25249 0.40413 0.2382 0.0
C166 C 0.22901 0.4 0.21423 0.0
C167 C 0.21189 0.38985 0.25416 0.0
C168 C 0.22021 0.40891 0.15156 0.0
C169 C 0.22287 0.43208 0.13495 0.0
C170 C 0.20471 0.39547 0.11461 0.0
C171 C 0.1902 0.40546 0.06682 0.0
C172 C 0.19117 0.42912 0.05355 0.0
C173 C 0.28223 0.40427 0.33092 0.0
C174 C 0.28227 0.41256 0.39376 0.0
C175 C 0.30457 0.4021 0.29859 0.0
C176 C 0.32647 0.4073 0.3295 0.0
C177 C 0.32638 0.41463 0.3933 0.0
C178 C 0.30397 0.41751 0.42452 0.0
C179 C 0.20862 0.44205 0.08617 0.0
H180 H 0.17498 0.4042 0.49582 0.0
H181 H 0.21253 0.39962 0.43823 0.0
H182 H 0.17642 0.35847 0.29749 0.0
H183 H 0.13815 0.36361 0.35526 0.0
H184 H 0.24601 0.3815 0.38726 0.0
H185 H 0.19324 0.38876 0.23778 0.0
H186 H 0.26539 0.41314 0.20899 0.0
H187 H 0.23462 0.4429 0.16256 0.0
H188 H 0.20242 0.37749 0.12601 0.0
H189 H 0.17708 0.39477 0.04354 0.0
H190 H 0.2654 0.41526 0.41953 0.0
H191 H 0.30516 0.39585 0.25012 0.0
H192 H 0.21057 0.46014 0.07608 0.0
H193 H 0.30317 0.42381 0.47296 0.0
H194 H 0.34348 0.40506 0.3041 0.0
C195 C 0.01424 0.19462 0.411 0.0
C196 C 0.02835 0.17465 0.39854 0.0
C197 C 0.01894 0.21509 0.37907 0.0
C198 C 0.03779 0.21578 0.33435 0.0
C199 C 0.05338 0.19651 0.32679 0.0
C200 C 0.0487 0.17609 0.3586 0.0
C201 C 0.03811 0.23446 0.28696 0.0
C202 C 0.03765 0.25752 0.30482 0.0
C203 C 0.03583 0.27503 0.25862 0.0
C204 C 0.03368 0.26914 0.19346 0.0
C205 C 0.03451 0.24575 0.17557 0.0
C206 C 0.03675 0.2288 0.22266 0.0
C207 C 0.03218 0.23731 0.10939 0.0
C208 C 0.0089 0.23532 0.0827 0.0
C209 C 0.05146 0.22386 0.08434 0.0
C210 C 0.0471 0.20694 0.03886 0.0
C211 C 0.02333 0.20318 0.01674 0.0
C212 C 0.03632 0.29907 0.28155 0.0
C213 C 0.01505 0.31297 0.28189 0.0
C214 C 0.05669 0.30615 0.31616 0.0
C215 C 0.05535 0.32585 0.35391 0.0
C216 C 0.03355 0.33891 0.35832 0.0
C217 C 0.01369 0.33278 0.31986 0.0
C218 C 0.00455 0.21855 0.0365 0.0
H219 H 0.99874 0.19409 0.44267 0.0
H220 H 0.00666 0.22976 0.38549 0.0
H221 H 0.06811 0.19677 0.29266 0.0
H222 H 0.0599 0.16102 0.34794 0.0
H223 H 0.0386 0.26186 0.35493 0.0
H224 H 0.03646 0.21084 0.20905 0.0
H225 H 0.03187 0.28246 0.15748 0.0
H226 H 0.99363 0.24514 0.10195 0.0
H227 H 0.06948 0.22468 0.10517 0.0
H228 H 0.06211 0.19557 0.02554 0.0
H229 H 0.99897 0.30762 0.2566 0.0
H230 H 0.07322 0.2956 0.31709 0.0
H231 H 0.98612 0.21675 0.01929 0.0
H232 H 0.99657 0.34238 0.32236 0.0
H233 H 0.07112 0.33028 0.38192 0.0
C234 C 0.33075 0.11681 0.44238 0.0
C235 C 0.35139 0.12438 0.41002 0.0
C236 C 0.30796 0.11786 0.41292 0.0
C237 C 0.30541 0.12672 0.3508 0.0
C238 C 0.32549 0.13728 0.32257 0.0
C239 C 0.3484 0.13578 0.3515 0.0
C240 C 0.2843 0.12001 0.31113 0.0
C241 C 0.26099 0.11785 0.33732 0.0
C242 C 0.24279 0.10581 0.30493 0.0
C243 C 0.24806 0.09651 0.24434 0.0
C244 C 0.27104 0.09946 0.21686 0.0
C245 C 0.28876 0.11135 0.25005 0.0
C246 C 0.27898 0.08736 0.15867 0.0
C247 C 0.28749 0.06449 0.16387 0.0
C248 C 0.28476 0.10014 0.10425 0.0
C249 C 0.30003 0.09065 0.05752 0.0
C250 C 0.31018 0.0684 0.06528 0.0
C251 C 0.21926 0.10126 0.33728 0.0
C252 C 0.21896 0.09591 0.40265 0.0
C253 C 0.19708 0.10194 0.30362 0.0
C254 C 0.17515 0.09749 0.33478 0.0
C255 C 0.17493 0.09232 0.40029 0.0
C256 C 0.19714 0.09158 0.43368 0.0
C257 C 0.30307 0.05512 0.11771 0.0
H258 H 0.33259 0.10788 0.48757 0.0
H259 H 0.29301 0.10951 0.43624 0.0
H260 H 0.32398 0.14483 0.27547 0.0
H261 H 0.36404 0.14203 0.3261 0.0
H262 H 0.25735 0.12482 0.38418 0.0
H263 H 0.30692 0.11189 0.23009 0.0
H264 H 0.23482 0.08625 0.21987 0.0
H265 H 0.28377 0.05455 0.20629 0.0
H266 H 0.27893 0.11801 0.10026 0.0
H267 H 0.30532 0.10131 0.0178 0.0
H268 H 0.23571 0.09459 0.42987 0.0
H269 H 0.19663 0.10612 0.25335 0.0
H270 H 0.3105 0.03786 0.12454 0.0
H271 H 0.19778 0.08706 0.48374 0.0
H272 H 0.15835 0.09828 0.30769 0.0
C273 C 0.47225 0.29617 0.0438 0.0
C274 C 0.49382 0.30305 0.01393 0.0
C275 C 0.47295 0.27928 0.09167 0.0
C276 C 0.49516 0.26883 0.11036 0.0
C277 C 0.51629 0.27406 0.07644 0.0
C278 C 0.51566 0.29095 0.02885 0.0
C279 C 0.49788 0.26025 0.17649 0.0
C280 C 0.49103 0.23828 0.19736 0.0
C281 C 0.49291 0.23254 0.26277 0.0
C282 C 0.50129 0.24884 0.30626 0.0
C283 C 0.50832 0.27045 0.28529 0.0
C284 C 0.50665 0.27591 0.22065 0.0
C285 C 0.5154 0.28851 0.33015 0.0
C286 C 0.49984 0.29484 0.38026 0.0
C287 C 0.53536 0.30214 0.31597 0.0
C288 C 0.53829 0.32299 0.34686 0.0
C289 C 0.52137 0.33049 0.39277 0.0
C290 C 0.48644 0.20983 0.28853 0.0
C291 C 0.46634 0.20826 0.32922 0.0
C292 C 0.50329 0.19135 0.28558 0.0
C293 C 0.50095 0.17227 0.32585 0.0
C294 C 0.48172 0.17135 0.36997 0.0
C295 C 0.46389 0.18917 0.36912 0.0
C296 C 0.50282 0.31571 0.41144 0.0
H297 H 0.45501 0.30472 0.03279 0.0
H298 H 0.4565 0.276 0.11814 0.0
H299 H 0.53376 0.26677 0.09122 0.0
H300 H 0.53272 0.29578 0.00772 0.0
H301 H 0.48417 0.22599 0.16361 0.0
H302 H 0.51123 0.29301 0.20466 0.0
H303 H 0.50248 0.24462 0.35655 0.0
H304 H 0.48431 0.28457 0.39199 0.0
H305 H 0.5477 0.29744 0.27778 0.0
H306 H 0.55276 0.33392 0.33123 0.0
H307 H 0.45332 0.22249 0.33299 0.0
H308 H 0.51925 0.19245 0.2557 0.0
H309 H 0.48985 0.32082 0.44779 0.0
H310 H 0.44859 0.1889 0.40145 0.0
H311 H 0.51517 0.15904 0.32544 0.0
O312 O 0.04712 0.98253 0.82846 0.0
Mg313 Mg 0.04898 0.98237 0.72907 0.0
O314 O 0.00744 0.98433 0.81448 0.0
Mg315 Mg 0.99751 0.00456 0.72122 0.0
O316 O 0.03696 0.0122 0.68815 0.0
O317 O 0.07604 0.00041 0.68732 0.0
O318 O 0.98912 0.02416 0.62763 0.0
O319 O 0.99892 0.03959 0.77907 0.0
Mg320 Mg 0.95029 0.02838 0.71192 0.0
O321 O 0.95687 -0.00357 0.75204 0.0
O322 O 0.95075 0.03361 0.61307 0.0
O323 O 0.96206 0.05541 0.76986 0.0
O324 O 0.91984 0.01362 0.74174 0.0
C325 C 0.01252 0.95284 0.65796 0.0
C326 C 0.02596 0.97909 0.84901 0.0
C327 C 0.0594 0.0154 0.67145 0.0
C328 C 0.97229 0.03279 0.59266 0.0
C329 C 0.98362 0.05597 0.79121 0.0
C330 C 0.93335 -0.00341 0.76164 0.0
O331 O 0.03392 0.95397 0.68072 0.0
O332 O 0.99706 0.96953 0.66468 0.0
O333 O 0.43887 -0.00192 0.73799 0.0
Mg334 Mg 0.46029 0.97918 0.66969 0.0
O335 O 0.46798 0.01638 0.79063 0.0
Mg336 Mg 0.50335 0.00814 0.73274 0.0
O337 O 0.49107 0.97117 0.72077 0.0
O338 O 0.46772 0.944 0.68331 0.0
O339 O 0.53867 -0.00011 0.67489 0.0
O340 O 0.52399 0.99538 0.82292 0.0
Mg341 Mg 0.54824 0.04173 0.78522 0.0
O342 O 0.51552 0.04434 0.74318 0.0
O343 O 0.56777 0.02203 0.71436 0.0
O344 O 0.54375 0.02308 0.87153 0.0
O345 O 0.53544 0.07564 0.76205 0.0
C346 C 0.47231 0.01782 0.59325 0.0
C347 C 0.44559 0.01138 0.78251 0.0
C348 C 0.48576 0.94964 0.71887 0.0
C349 C 0.56072 0.0066 0.67584 0.0
C350 C 0.53667 0.00248 0.86951 0.0
C351 C 0.51752 0.06606 0.73402 0.0
O352 O 0.46544 -0.00242 0.58283 0.0
O353 O 0.48375 0.02234 0.64417 0.0
O354 O 0.5397 0.45388 0.75375 0.0
Mg355 Mg 0.55344 0.48378 0.70816 0.0
O356 O 0.50214 0.46738 0.77206 0.0
Mg357 Mg 0.50021 0.50338 0.7206 0.0
O358 O 0.53911 0.51157 0.75431 0.0
O359 O 0.5789 0.50322 0.75354 0.0
O360 O 0.49887 0.53952 0.66829 0.0
O361 O 0.48988 0.52053 0.81533 0.0
Mg362 Mg 0.44745 0.52498 0.72771 0.0
O363 O 0.46086 0.49491 0.68973 0.0
O364 O 0.46061 0.55267 0.6729 0.0
O365 O 0.45071 0.52798 0.82748 0.0
O366 O 0.42127 0.50473 0.68962 0.0
C367 C 0.52888 0.48194 0.58905 0.0
C368 C 0.51853 0.45138 0.77683 0.0
C369 C 0.56099 0.51608 0.77301 0.0
C370 C 0.48252 0.55497 0.65534 0.0
C371 C 0.47218 0.52768 0.84948 0.0
C372 C 0.43862 0.49064 0.67325 0.0
O373 O 0.55014 0.48584 0.60866 0.0
O374 O 0.51068 0.48576 0.62535 0.0
O375 O 0.9662 0.48793 0.85391 0.0
Mg376 Mg 0.96155 0.47204 0.7637 0.0
O377 O 0.98418 0.51651 0.80491 0.0
Mg378 Mg 0.00495 0.50606 0.71422 0.0
O379 O 0.9937 0.46912 0.71752 0.0
O380 O 0.97293 0.43825 0.73789 0.0
O381 O 0.02584 0.49583 0.62344 0.0
O382 O 0.04006 0.4966 0.7734 0.0
Mg383 Mg 0.04987 0.54092 0.6734 0.0
O384 O 0.01629 0.54303 0.71138 0.0
O385 O 0.04865 0.52339 0.58455 0.0
O386 O 0.06871 0.52142 0.74602 0.0
O387 O 0.03667 0.57447 0.69545 0.0
C388 C 0.94749 0.50922 0.66009 0.0
C389 C 0.97231 0.50879 0.85204 0.0
C390 C 0.99098 0.44742 0.70936 0.0
C391 C 0.03992 0.50344 0.58064 0.0
C392 C 0.06157 0.50443 0.77896 0.0
C393 C 0.01832 0.56474 0.72108 0.0
O394 O 0.94085 0.49361 0.69872 0.0
O395 O 0.96969 0.51536 0.65615 0.0
H396 H 0.13728 0.06626 0.35743 0.0
H397 H 0.079 0.05617 0.70294 0.0
H398 H 0.1602 0.10544 0.51986 0.0
H399 H 0.05818 0.01504 0.54301 0.0
H400 H 0.10247 0.08039 0.63116 0.0
H401 H 0.10244 0.05323 0.4186 0.0
C402 C 0.13478 0.07246 0.40556 0.0
C403 C 0.15197 0.08669 0.43381 0.0
C404 C 0.0922 0.06649 0.61132 0.0
C405 C 0.11221 0.07157 0.50455 0.0
C406 C 0.07859 0.05288 0.65222 0.0
C407 C 0.0663 0.034 0.62836 0.0
C408 C 0.09391 0.06078 0.54641 0.0
C409 C 0.06702 0.02982 0.56276 0.0
C410 C 0.11492 0.06491 0.44064 0.0
C411 C 0.14777 0.09403 0.49659 0.0
N412 N 0.08083 0.04293 0.52411 0.0
N413 N 0.12852 0.08619 0.53 0.0
H414 H 0.4947 0.12523 0.36185 0.0
H415 H 0.49095 0.10621 0.73978 0.0
H416 H 0.46926 0.17651 0.49562 0.0
H417 H 0.51825 0.05509 0.60883 0.0
H418 H 0.4778 0.13028 0.64927 0.0
H419 H 0.49873 0.09753 0.44962 0.0
C420 C 0.48981 0.13066 0.40947 0.0
C421 C 0.48173 0.15337 0.42105 0.0
C422 C 0.48625 0.11361 0.64014 0.0
C423 C 0.48635 0.12167 0.522 0.0
C424 C 0.49353 0.09983 0.69183 0.0
C425 C 0.50497 0.07841 0.68154 0.0
C426 C 0.4911 0.10619 0.57764 0.0
C427 C 0.50879 0.07123 0.61859 0.0
C428 C 0.49204 0.11479 0.45958 0.0
C429 C 0.47531 0.15922 0.48384 0.0
N430 N 0.50207 0.08516 0.569 0.0
N431 N 0.47796 0.14358 0.53178 0.0
H432 H 0.36566 0.43914 0.35259 0.0
H433 H 0.41462 0.45246 0.70617 0.0
H434 H 0.33905 0.40147 0.51406 0.0
H435 H 0.44601 0.48701 0.54595 0.0
H436 H 0.39228 0.42812 0.63306 0.0
H437 H 0.39992 0.45175 0.41785 0.0
C438 C 0.36728 0.43317 0.40136 0.0
C439 C 0.34923 0.41959 0.42827 0.0
C440 C 0.40455 0.44055 0.61354 0.0
C441 C 0.38821 0.43404 0.50331 0.0
C442 C 0.41751 0.45423 0.6554 0.0
C443 C 0.43242 0.47139 0.63184 0.0
C444 C 0.40594 0.44456 0.54756 0.0
C445 C 0.43502 0.47359 0.56574 0.0
C446 C 0.38679 0.44044 0.43869 0.0
C447 C 0.35223 0.41239 0.49177 0.0
N448 N 0.42155 0.46061 0.52576 0.0
N449 N 0.3711 0.41991 0.5272 0.0
H450 H 0.01105 0.38179 0.34804 0.0
H451 H 0.01369 0.40545 0.72091 0.0
H452 H 0.04958 0.33759 0.48175 0.0
H453 H 0.99552 0.45854 0.58442 0.0
H454 H 0.02738 0.38042 0.6337 0.0
H455 H 0.00484 0.41019 0.43304 0.0
C456 C 0.01831 0.3781 0.39507 0.0
C457 C 0.03089 0.35724 0.40757 0.0
C458 C 0.02085 0.39769 0.62275 0.0
C459 C 0.02369 0.38958 0.50521 0.0
C460 C 0.01323 0.412 0.67257 0.0
C461 C 0.00411 0.43424 0.65977 0.0
C462 C 0.01847 0.40538 0.55941 0.0
C463 C 0.00312 0.44172 0.59626 0.0
C464 C 0.01488 0.39436 0.44349 0.0
C465 C 0.04003 0.3535 0.46949 0.0
N466 N 0.0098 0.42719 0.54833 0.0
N467 N 0.03605 0.36935 0.51592 0.0
H468 H 0.81397 0.94819 0.96345 0.0
H469 H 0.94845 0.97585 0.87278 0.0
H470 H 0.87273 0.91127 0.05819 0.0
H471 H 0.88965 0.97842 0.73704 0.0
H472 H 0.9231 0.95315 0.94498 0.0
H473 H 0.84273 0.96219 0.88485 0.0
C474 C 0.83303 0.94313 0.96767 0.0
C475 C 0.8411 0.92874 0.01734 0.0
C476 C 0.91607 0.95814 0.89859 0.0
C477 C 0.87419 0.9447 0.92773 0.0
C478 C 0.93069 0.97068 0.85709 0.0
C479 C 0.92131 0.97854 0.79857 0.0
C480 C 0.8918 0.95406 0.88162 0.0
C481 C 0.89759 0.97262 0.78173 0.0
C482 C 0.8494 0.95094 0.92259 0.0
C483 C 0.86592 0.92243 0.02045 0.0
N484 N 0.88356 0.96105 0.82334 0.0
N485 N 0.88176 0.93071 0.97657 0.0
H486 H 0.52652 0.8792 0.07081 0.0
H487 H 0.4875 0.90297 0.70727 0.0
H488 H 0.49277 0.82974 0.9488 0.0
H489 H 0.50522 0.95714 0.83666 0.0
H490 H 0.49643 0.87481 0.79129 0.0
H491 H 0.52536 0.90698 0.98225 0.0
C492 C 0.51893 0.87416 0.02549 0.0
C493 C 0.50937 0.85219 0.01767 0.0
C494 C 0.49885 0.89285 0.80115 0.0
C495 C 0.50822 0.88377 0.91607 0.0
C496 C 0.49393 0.90893 0.75297 0.0
C497 C 0.49609 0.9325 0.76466 0.0
C498 C 0.50583 0.90031 0.86192 0.0
C499 C 0.50417 0.93919 0.82506 0.0
C500 C 0.51824 0.89003 0.97503 0.0
C501 C 0.49983 0.84661 0.9577 0.0
N502 N 0.50854 0.92323 0.87165 0.0
N503 N 0.49948 0.86225 0.9095 0.0
H504 H 0.65082 0.54545 0.07283 0.0
H505 H 0.57385 0.5611 0.76605 0.0
H506 H 0.63174 0.61434 0.00883 0.0
H507 H 0.56156 0.50576 0.89757 0.0
H508 H 0.59458 0.58203 0.85131 0.0
H509 H 0.61847 0.5309 0.00709 0.0
C510 C 0.63966 0.55772 0.04627 0.0
C511 C 0.64442 0.58135 0.04706 0.0
C512 C 0.58663 0.56565 0.86199 0.0
C513 C 0.60756 0.56428 0.96874 0.0
C514 C 0.57466 0.55384 0.81359 0.0
C515 C 0.56572 0.53194 0.82549 0.0
C516 C 0.5903 0.55499 0.92156 0.0
C517 C 0.56793 0.5228 0.88707 0.0
C518 C 0.62117 0.54925 0.00813 0.0
C519 C 0.62943 0.59596 0.00908 0.0
N520 N 0.5804 0.53416 0.93252 0.0
N521 N 0.61199 0.58716 0.97066 0.0
H522 H 0.99184 0.62416 0.08932 0.0
H523 H 0.99192 0.60493 0.71184 0.0
H524 H 0.9668 0.67508 0.95254 0.0
H525 H 0.01708 0.55354 0.84631 0.0
H526 H 0.97777 0.62903 0.80053 0.0
H527 H 0.99685 0.59643 0.00263 0.0
C528 C 0.98723 0.62951 0.04125 0.0
C529 C 0.97896 0.65213 0.02855 0.0
C530 C 0.98593 0.6123 0.81081 0.0
C531 C 0.98467 0.62036 0.92876 0.0
C532 C 0.99379 0.59849 0.76012 0.0
C533 C 0.00495 0.577 0.7719 0.0
C534 C 0.98992 0.60482 0.87389 0.0
C535 C 0.00791 0.56977 0.83533 0.0
C536 C 0.99001 0.61361 0.99174 0.0
C537 C 0.97296 0.65786 0.96517 0.0
N538 N 1.0006 0.58371 0.88397 0.0
N539 N 0.97612 0.6422 0.91784 0.0
H540 H 0.05632 0.13833 0.4437 0.0
H541 H 0.94282 0.06215 0.52272 0.0
H542 H 0.98203 0.15895 0.40028 0.0
H543 H 0.01735 0.0379 0.54171 0.0
H544 H 0.95674 0.0954 0.46377 0.0
H545 H 0.04253 0.10005 0.47143 0.0
C546 C 0.03712 0.1348 0.44007 0.0
C547 C 0.02027 0.15192 0.42039 0.0
C548 C 0.97004 0.08258 0.47973 0.0
C549 C 0.00437 0.10818 0.45154 0.0
C550 C 0.96207 0.06343 0.51286 0.0
C551 C 0.97907 0.04758 0.53879 0.0
C552 C 0.99513 0.08587 0.47301 0.0
C553 C 0.00373 0.05002 0.52386 0.0
C554 C 0.02926 0.11293 0.45556 0.0
C555 C 0.99559 0.14644 0.41673 0.0
N556 N 0.01112 0.06914 0.49327 0.0
N557 N 0.98837 0.12508 0.43242 0.0
H558 H 0.37184 0.12756 0.52855 0.0
H559 H 0.4598 0.02069 0.46593 0.0
H560 H 0.38547 0.10123 0.34009 0.0
H561 H 0.45758 0.05858 0.64199 0.0
H562 H 0.43589 0.05206 0.4149 0.0
H563 H 0.4072 0.10538 0.56772 0.0
C564 C 0.38269 0.11753 0.49523 0.0
C565 C 0.37575 0.11611 0.43124 0.0
C566 C 0.4412 0.05369 0.46432 0.0
C567 C 0.41564 0.09006 0.4757 0.0
C568 C 0.45475 0.0358 0.4933 0.0
C569 C 0.46101 0.03724 0.55781 0.0
C570 C 0.43347 0.07277 0.50077 0.0
C571 C 0.45367 0.05697 0.59168 0.0
C572 C 0.40282 0.1048 0.51747 0.0
C573 C 0.39034 0.10285 0.38982 0.0
N574 N 0.44016 0.07381 0.56296 0.0
N575 N 0.40932 0.08992 0.41301 0.0
H576 H 0.48226 0.35969 0.41124 0.0
H577 H 0.56457 0.4643 0.51121 0.0
H578 H 0.56077 0.35639 0.42291 0.0
H579 H 0.48718 0.46262 0.54536 0.0
H580 H 0.56205 0.42854 0.4521 0.0
H581 H 0.48286 0.40014 0.44076 0.0
C582 C 0.49962 0.36737 0.42074 0.0
C583 C 0.52151 0.35454 0.41525 0.0
C584 C 0.54555 0.43625 0.47152 0.0
C585 C 0.5223 0.40103 0.4467 0.0
C586 C 0.5469 0.45683 0.50468 0.0
C587 C 0.52615 0.46614 0.5349 0.0
C588 C 0.5233 0.42505 0.46838 0.0
C589 C 0.50372 0.45584 0.52389 0.0
C590 C 0.49994 0.39055 0.43664 0.0
C591 C 0.54347 0.36563 0.42624 0.0
N592 N 0.50296 0.43554 0.49262 0.0
N593 N 0.5433 0.38824 0.44155 0.0
H594 H 0.13949 0.3929 0.5527 0.0
H595 H 0.02375 0.47314 0.48978 0.0
H596 H 0.11375 0.3994 0.35884 0.0
H597 H 0.08706 0.49326 0.59531 0.0
H598 H 0.04696 0.43874 0.45202 0.0
H599 H 0.10781 0.42061 0.58547 0.0
C600 C 0.12678 0.39963 0.51733 0.0
C601 C 0.12977 0.39436 0.45268 0.0
C602 C 0.05562 0.45091 0.48303 0.0
C603 C 0.09354 0.42578 0.48996 0.0
C604 C 0.04261 0.47053 0.50374 0.0
C605 C 0.05379 0.4861 0.5445 0.0
C606 C 0.07929 0.44662 0.5062 0.0
C607 C 0.07802 0.48186 0.56274 0.0
C608 C 0.1088 0.41544 0.53603 0.0
C609 C 0.11229 0.40313 0.40913 0.0
N610 N 0.08983 0.46234 0.54434 0.0
N611 N 0.09513 0.41885 0.42836 0.0
H612 H 0.0623 0.85312 0.02795 0.0
H613 H 0.98483 0.95808 0.88844 0.0
H614 H 0.98371 0.85606 0.02468 0.0
H615 H 0.06176 0.96133 0.92739 0.0
H616 H 0.98344 0.92255 0.94884 0.0
H617 H 0.06247 0.89359 0.9964 0.0
C618 C 0.0451 0.86226 0.02051 0.0
C619 C 0.02297 0.85113 0.02824 0.0
C620 C 1.00056 0.93126 0.94544 0.0
C621 C 0.023 0.89736 0.99269 0.0
C622 C 1.00125 0.95182 0.91163 0.0
C623 C 0.02344 0.9626 0.90197 0.0
C624 C 0.02231 0.92127 0.96898 0.0
C625 C 0.04428 0.95341 0.93271 0.0
C626 C 0.0452 0.88537 0.00288 0.0
C627 C 1.00121 0.86376 0.01776 0.0
N628 N 0.04333 0.93295 0.96363 0.0
N629 N 1.00179 0.88616 0.00031 0.0
H630 H 0.61397 0.89654 0.08641 0.0
H631 H 0.58515 -0.00123 0.86928 0.0
H632 H 0.64416 0.89958 0.89697 0.0
H633 H 0.52166 0.96594 0.9431 0.0
H634 H 0.61011 0.96557 0.90212 0.0
H635 H 0.58072 0.92255 0.05201 0.0
C636 C 0.61328 0.90198 0.03708 0.0
C637 C 0.63237 0.89629 0.99491 0.0
C638 C 0.59074 0.96573 0.91164 0.0
C639 C 0.59494 0.9266 0.9568 0.0
C640 C 0.57658 0.9848 0.89415 0.0
C641 C 0.55138 0.98505 0.90396 0.0
C642 C 0.57976 0.94693 0.94033 0.0
C643 C 0.54108 0.96625 0.93484 0.0
C644 C 0.59434 0.91697 0.01785 0.0
C645 C 0.63038 0.90411 0.93177 0.0
N646 N 0.5554 0.94781 0.95254 0.0
N647 N 0.61244 0.91943 0.91515 0.0
H648 H 0.46839 0.65093 0.06171 0.0
H649 H 0.51654 0.5343 0.90438 0.0
H650 H 0.543 0.63679 0.00729 0.0
H651 H 0.44041 0.55335 0.92232 0.0
H652 H 0.52688 0.5673 0.9689 0.0
H653 H 0.45832 0.61186 0.03174 0.0
C654 C 0.48262 0.63967 0.04294 0.0
C655 C 0.50651 0.64724 0.03607 0.0
C656 C 0.50788 0.56398 0.95984 0.0
C657 C 0.49523 0.60234 0.00364 0.0
C658 C 0.50194 0.54501 0.92348 0.0
C659 C 0.47762 0.54148 0.90621 0.0
C660 C 0.48935 0.57942 0.9792 0.0
C661 C 0.45944 0.55568 0.93331 0.0
C662 C 0.47691 0.61729 0.02672 0.0
C663 C 0.52436 0.63168 0.01344 0.0
N664 N 0.46571 0.57438 0.96737 0.0
N665 N 0.51831 0.60999 0.9977 0.0
H666 H 0.88106 0.62325 0.96868 0.0
H667 H 0.95167 0.50116 0.96902 0.0
H668 H 0.85326 0.56129 0.05083 0.0
H669 H 0.96232 0.55382 0.82752 0.0
H670 H 0.92326 0.52737 0.02445 0.0
H671 H 0.91881 0.60184 0.94058 0.0
C672 C 0.88302 0.60521 0.98094 0.0
C673 C 0.86399 0.59376 0.01042 0.0
C674 C 0.93251 0.53335 0.98231 0.0
C675 C 0.90679 0.56955 0.98041 0.0
C676 C 0.94876 0.51846 0.95091 0.0
C677 C 0.95985 0.52548 0.89434 0.0
C678 C 0.92736 0.55529 0.95672 0.0
C679 C 0.95508 0.54798 0.87234 0.0
C680 C 0.90445 0.59307 0.96525 0.0
C681 C 0.86737 0.5705 0.02651 0.0
N682 N 0.93907 0.56202 0.90326 0.0
N683 N 0.88831 0.55912 0.01102 0.0
H684 H 0.05199 0.17971 0.92824 0.0
H685 H 0.95359 0.08438 0.85904 0.0
H686 H 0.98228 0.17714 0.0222 0.0
H687 H 0.02912 0.07443 0.80823 0.0
H688 H 0.96353 0.11992 0.91262 0.0
H689 H 0.04365 0.14299 0.87712 0.0
C690 C 0.03492 0.17159 0.93822 0.0
C691 C 0.01782 0.18189 0.97982 0.0
C692 C 0.97803 0.10997 0.89017 0.0
C693 C 0.00812 0.13976 0.92044 0.0
C694 C 0.97236 0.08961 0.85945 0.0
C695 C 0.99055 0.07635 0.82893 0.0
C696 C 1.00206 0.11752 0.88995 0.0
C697 C 0.01456 0.08404 0.83143 0.0
C698 C 0.03021 0.15057 0.90884 0.0
C699 C 0.9959 0.17043 0.98966 0.0
N700 N 0.0196 0.10425 0.86089 0.0
N701 N 0.99173 0.15014 0.96025 0.0
H702 H 0.311 0.06881 0.93477 0.0
H703 H 0.45016 0.02674 0.90578 0.0
H704 H 0.35448 0.04965 0.09876 0.0
H705 H 0.39755 0.01852 0.75519 0.0
H706 H 0.41724 0.04118 0.97525 0.0
H707 H 0.34465 0.05617 0.86565 0.0
C708 C 0.32761 0.06189 0.95612 0.0
C709 C 0.32988 0.06 0.02244 0.0
C710 C 0.41301 0.03623 0.92691 0.0
C711 C 0.36851 0.04593 0.944 0.0
C712 C 0.43177 0.02813 0.88724 0.0
C713 C 0.42655 0.02128 0.8248 0.0
C714 C 0.38904 0.0379 0.90341 0.0
C715 C 0.40237 0.02338 0.80321 0.0
C716 C 0.34676 0.05467 0.91678 0.0
C717 C 0.35185 0.05101 0.04777 0.0
N718 N 0.38456 0.03157 0.84231 0.0
N719 N 0.37038 0.04442 0.00855 0.0
H720 H 0.46699 0.34352 0.02678 0.0
H721 H 0.54541 0.41134 0.77249 0.0
H722 H 0.522 0.31134 0.90812 0.0
H723 H 0.47951 0.44051 0.85352 0.0
H724 H 0.53749 0.37509 0.82537 0.0
H725 H 0.47106 0.37915 0.96624 0.0
C726 C 0.47963 0.34371 0.98738 0.0
C727 C 0.4942 0.32417 0.97291 0.0
C728 C 0.52466 0.38934 0.83152 0.0
C729 C 0.49938 0.36538 0.90434 0.0
C730 C 0.52922 0.41018 0.80147 0.0
C731 C 0.51315 0.42917 0.80859 0.0
C732 C 0.50396 0.3873 0.86987 0.0
C733 C 0.49241 0.42637 0.84658 0.0
C734 C 0.48207 0.36422 0.95316 0.0
C735 C 0.51063 0.32591 0.92204 0.0
N736 N 0.48849 0.40588 0.87616 0.0
N737 N 0.51288 0.34611 0.89012 0.0
H738 H 0.1683 0.41125 0.94755 0.0
H739 H 0.09658 0.52529 0.8477 0.0
H740 H 0.17093 0.47289 0.06121 0.0
H741 H 0.06699 0.45876 0.81095 0.0
H742 H 0.128 0.50701 0.91502 0.0
H743 H 0.13522 0.42898 0.88509 0.0
C744 C 0.16205 0.42845 0.95972 0.0
C745 C 0.17264 0.44044 0.01043 0.0
C746 C 0.11454 0.49643 0.89255 0.0
C747 C 0.13505 0.461 0.9374 0.0
C748 C 0.09666 0.50682 0.8541 0.0
C749 C 0.07918 0.4935 0.82382 0.0
C750 C 0.11539 0.47246 0.89953 0.0
C751 C 0.08005 0.46964 0.83384 0.0
C752 C 0.14314 0.43854 0.92376 0.0
C753 C 0.16392 0.46298 0.02213 0.0
N754 N 0.0981 0.45981 0.87024 0.0
N755 N 0.14577 0.47252 0.98578 0.0
H756 H 0.00885 0.81091 0.54062 0.0
H757 H 0.97357 0.94483 0.57726 0.0
H758 H 0.96185 0.84688 0.40618 0.0
H759 H 0.03604 0.91119 0.6655 0.0
H760 H 0.96423 0.90837 0.52428 0.0
H761 H 0.01392 0.84679 0.59793 0.0
C762 C 0.99949 0.82627 0.5231 0.0
C763 C 0.98505 0.82568 0.46783 0.0
C764 C 0.97993 0.90908 0.55539 0.0
C765 C 0.99061 0.86709 0.5343 0.0
C766 C 0.98525 0.92984 0.5857 0.0
C767 C 0.00573 0.93119 0.62563 0.0
C768 C 0.99497 0.88948 0.56605 0.0
C769 C 0.02019 0.91115 0.63477 0.0
C770 C 1.00236 0.84681 0.55608 0.0
C771 C 0.97297 0.84626 0.44877 0.0
N772 N 0.01451 0.89125 0.60549 0.0
N773 N 0.9761 0.86611 0.48171 0.0
H774 H 0.63965 0.91828 0.41083 0.0
H775 H 0.60828 0.01815 0.66041 0.0
H776 H 0.69186 0.96678 0.47791 0.0
H777 H 0.55527 0.97043 0.59297 0.0
H778 H 0.63886 -0.00042 0.59317 0.0
H779 H 0.60862 0.93678 0.47748 0.0
C780 C 0.6447 0.93267 0.44012 0.0
C781 C 0.66854 0.94086 0.439 0.0
C782 C 0.62055 0.99316 0.5929 0.0
C783 C 0.63281 0.96244 0.51473 0.0
C784 C 0.60299 0.00379 0.63136 0.0
C785 C 0.57906 0.99585 0.63266 0.0
C786 C 0.6143 0.97435 0.55524 0.0
C787 C 0.57343 0.97717 0.59362 0.0
C788 C 0.62687 0.94335 0.47777 0.0
C789 C 0.67375 0.95994 0.47684 0.0
N790 N 0.59093 0.96703 0.55665 0.0
N791 N 0.65606 0.97004 0.51315 0.0
H792 H 0.47281 0.68024 0.43441 0.0
H793 H 0.52761 0.57413 0.63725 0.0
H794 H 0.54509 0.68051 0.51596 0.0
H795 H 0.45124 0.58497 0.59515 0.0
H796 H 0.53584 0.61119 0.58569 0.0
H797 H 0.46576 0.64405 0.48798 0.0
C798 C 0.48713 0.67303 0.46444 0.0
C799 C 0.50959 0.68387 0.47064 0.0
C800 C 0.51732 0.60537 0.58782 0.0
C801 C 0.50176 0.64142 0.53088 0.0
C802 C 0.51263 0.58416 0.61681 0.0
C803 C 0.48868 0.5764 0.62078 0.0
C804 C 0.49795 0.61873 0.56199 0.0
C805 C 0.46998 0.59023 0.59372 0.0
C806 C 0.48314 0.65206 0.49455 0.0
C807 C 0.52757 0.67287 0.50885 0.0
N808 N 0.47501 0.61058 0.56557 0.0
N809 N 0.52332 0.65224 0.53718 0.0
H810 H 0.85301 0.55389 0.35135 0.0
H811 H 0.90058 0.51829 0.69354 0.0
H812 H 0.81818 0.57954 0.52133 0.0
H813 H 0.95087 0.5268 0.53851 0.0
H814 H 0.86829 0.53624 0.62871 0.0
H815 H 0.88733 0.53926 0.41634 0.0
C816 C 0.85258 0.55632 0.40245 0.0
C817 C 0.83271 0.56773 0.43131 0.0
C818 C 0.88641 0.53429 0.60898 0.0
C819 C 0.87168 0.55101 0.50555 0.0
C820 C 0.90481 0.52394 0.64574 0.0
C821 C 0.92841 0.52098 0.62119 0.0
C822 C 0.89141 0.54126 0.54654 0.0
C823 C 0.93293 0.52883 0.55919 0.0
C824 C 0.87221 0.54816 0.43928 0.0
C825 C 0.83315 0.57076 0.49745 0.0
N826 N 0.91447 0.53835 0.52353 0.0
N827 N 0.8522 0.56219 0.53251 0.0
loop_
_geom_bond_atom_site_label_1
_geom_bond_atom_site_label_2
_geom_bond_distance
_geom_bond_site_symmetry_2
_ccdc_geom_bond_type
C0 C1 1.386 . S
C0 C2 1.397 . S
C0 H24 0.931 . S
C1 C0 1.386 . S
C1 C5 1.397 . S
C2 C0 1.397 . S
C2 C3 1.384 1_556 S
C2 H25 0.930 . S
C3 C2 1.384 1_554 S
C3 C4 1.377 . S
C3 C6 1.481 . S
C4 C3 1.377 . S
C4 C5 1.389 1_554 S
C4 H26 0.929 . S
C5 C1 1.397 . S
C5 C4 1.389 1_556 S
C5 H27 0.931 . S
C6 C3 1.481 . S
C6 C7 1.387 . S
C6 C11 1.390 . S
C7 C6 1.387 . S
C7 C8 1.401 . S
C7 H28 0.947 . S
C8 C7 1.401 . S
C8 C9 1.376 . S
C8 C17 1.511 . S
C9 C8 1.376 . S
C9 C10 1.392 . S
C9 H30 0.931 . S
C10 C9 1.392 . S
C10 C11 1.361 . S
C10 C12 1.500 . S
C11 C6 1.390 . S
C11 C10 1.361 . S
C11 H29 0.931 . S
C12 C10 1.500 . S
C12 C13 1.371 . S
C12 C14 1.365 . S
C13 C12 1.371 . S
C13 C23 1.386 . S
C13 H31 0.931 . S
C14 C12 1.365 . S
C14 C15 1.409 . S
C14 H32 0.929 . S
C15 C14 1.409 . S
C15 C16 1.380 . S
C15 H33 0.930 . S
C16 C15 1.380 . S
C16 C23 1.357 . S
C17 C8 1.511 . S
C17 C18 1.341 . S
C17 C19 1.371 . S
C18 C17 1.341 . S
C18 C22 1.393 1_554 S
C18 H34 0.930 1_554 S
C19 C17 1.371 . S
C19 C20 1.392 . S
C19 H35 0.931 . S
C20 C19 1.392 . S
C20 C21 1.331 . S
C20 H38 0.932 . S
C21 C20 1.331 . S
C21 C22 1.334 1_554 S
C22 C18 1.393 1_556 S
C22 C21 1.334 1_556 S
C22 H37 0.932 . S
C23 C13 1.386 . S
C23 C16 1.357 . S
C23 H36 0.928 . S
H24 C0 0.931 . S
H25 C2 0.930 . S
H26 C4 0.929 . S
H27 C5 0.931 . S
H28 C7 0.947 . S
H29 C11 0.931 . S
H30 C9 0.931 . S
H31 C13 0.931 . S
H32 C14 0.929 . S
H33 C15 0.930 . S
H34 C18 0.930 1_556 S
H35 C19 0.931 . S
H36 C23 0.928 . S
H37 C22 0.932 . S
H38 C20 0.932 . S
C39 C40 1.396 . S
C39 C41 1.397 . S
C39 H63 0.931 . S
C40 C39 1.396 . S
C40 C44 1.388 1_655 S
C41 C39 1.397 . S
C41 C42 1.389 1_556 S
C41 H64 0.930 . S
C42 C41 1.389 1_554 S
C42 C43 1.372 1_655 S
C42 C45 1.480 . S
C43 C42 1.372 1_455 S
C43 C44 1.389 1_554 S
C43 H65 0.929 . S
C44 C40 1.388 1_455 S
C44 C43 1.389 1_556 S
C44 H66 0.931 . S
C45 C42 1.480 . S
C45 C46 1.389 . S
C45 C50 1.390 . S
C46 C45 1.389 . S
C46 C47 1.402 . S
C46 H67 0.930 . S
C47 C46 1.402 . S
C47 C48 1.376 . S
C47 C56 1.514 . S
C48 C47 1.376 . S
C48 C49 1.390 . S
C48 H69 0.935 . S
C49 C48 1.390 . S
C49 C50 1.361 . S
C49 C51 1.499 1_655 S
C50 C45 1.390 . S
C50 C49 1.361 . S
C50 H68 0.931 . S
C51 C49 1.499 1_455 S
C51 C52 1.362 1_455 S
C51 C53 1.375 . S
C52 C51 1.362 1_655 S
C52 C62 1.386 . S
C52 H70 0.931 . S
C53 C51 1.375 . S
C53 C54 1.409 . S
C53 H71 0.929 . S
C54 C53 1.409 . S
C54 C55 1.379 . S
C54 H72 0.930 . S
C55 C54 1.379 . S
C55 C62 1.358 1_455 S
C56 C47 1.514 . S
C56 C57 1.341 . S
C56 C58 1.371 1_655 S
C57 C56 1.341 . S
C57 C61 1.394 . S
C57 H73 0.930 . S
C58 C56 1.371 1_455 S
C58 C59 1.392 . S
C58 H74 0.931 . S
C59 C58 1.392 . S
C59 C60 1.323 1_455 S
C59 H77 0.932 . S
C60 C59 1.323 1_655 S
C60 C61 1.344 . S
C61 C57 1.394 . S
C61 C60 1.344 . S
C61 H76 0.929 1_554 S
C62 C52 1.386 . S
C62 C55 1.358 1_655 S
C62 H75 0.928 . S
H63 C39 0.931 . S
H64 C41 0.930 . S
H65 C43 0.929 . S
H66 C44 0.931 . S
H67 C46 0.930 . S
H68 C50 0.931 . S
H69 C48 0.935 . S
H70 C52 0.931 . S
H71 C53 0.929 . S
H72 C54 0.930 . S
H73 C57 0.930 . S
H74 C58 0.931 . S
H75 C62 0.928 . S
H76 C61 0.929 1_556 S
H77 C59 0.932 . S
C78 C79 1.386 . S
C78 C80 1.397 . S
C78 H102 0.931 . S
C79 C78 1.386 . S
C79 C83 1.397 . S
C80 C78 1.397 . S
C80 C81 1.384 1_556 S
C80 H103 0.930 . S
C81 C80 1.384 1_554 S
C81 C82 1.377 . S
C81 C84 1.481 . S
C82 C81 1.377 . S
C82 C83 1.389 1_554 S
C82 H104 0.929 . S
C83 C79 1.397 . S
C83 C82 1.389 1_556 S
C83 H105 0.931 . S
C84 C81 1.481 . S
C84 C85 1.387 . S
C84 C89 1.390 . S
C85 C84 1.387 . S
C85 C86 1.401 . S
C85 H106 0.930 . S
C86 C85 1.401 . S
C86 C87 1.376 . S
C86 C95 1.511 . S
C87 C86 1.376 . S
C87 C88 1.392 . S
C87 H108 0.931 . S
C88 C87 1.392 . S
C88 C89 1.361 . S
C88 C90 1.500 . S
C89 C84 1.390 . S
C89 C88 1.361 . S
C89 H107 0.931 . S
C90 C88 1.500 . S
C90 C91 1.371 . S
C90 C92 1.365 . S
C91 C90 1.371 . S
C91 C101 1.386 . S
C91 H109 0.931 . S
C92 C90 1.365 . S
C92 C93 1.409 . S
C92 H110 0.929 . S
C93 C92 1.409 . S
C93 C94 1.380 . S
C93 H111 0.930 . S
C94 C93 1.380 . S
C94 C101 1.357 . S
C95 C86 1.511 . S
C95 C96 1.341 . S
C95 C97 1.371 . S
C96 C95 1.341 . S
C96 C100 1.394 . S
C96 H112 0.930 1_554 S
C97 C95 1.371 . S
C97 C98 1.392 . S
C97 H113 0.931 . S
C98 C97 1.392 . S
C98 C99 1.331 . S
C98 H116 0.932 . S
C99 C98 1.331 . S
C99 C100 1.336 . S
C100 C96 1.394 . S
C100 C99 1.336 . S
C100 H115 0.929 1_554 S
C101 C91 1.386 . S
C101 C94 1.357 . S
C101 H114 0.928 . S
H102 C78 0.931 . S
H103 C80 0.930 . S
H104 C82 0.929 . S
H105 C83 0.931 . S
H106 C85 0.930 . S
H107 C89 0.931 . S
H108 C87 0.931 . S
H109 C91 0.931 . S
H110 C92 0.929 . S
H111 C93 0.930 . S
H112 C96 0.930 1_556 S
H113 C97 0.931 . S
H114 C101 0.928 . S
H115 C100 0.929 1_556 S
H116 C98 0.932 . S
C117 C118 1.386 . S
C117 C119 1.397 . S
C117 H141 0.931 . S
C118 C117 1.386 . S
C118 C122 1.397 . S
C119 C117 1.397 . S
C119 C120 1.384 . S
C119 H142 0.930 . S
C120 C119 1.384 . S
C120 C121 1.377 . S
C120 C123 1.481 . S
C121 C120 1.377 . S
C121 C122 1.389 . S
C121 H143 0.929 . S
C122 C118 1.397 . S
C122 C121 1.389 . S
C122 H144 0.931 . S
C123 C120 1.481 . S
C123 C124 1.387 . S
C123 C128 1.390 . S
C124 C123 1.387 . S
C124 C125 1.401 . S
C124 H145 0.930 . S
C125 C124 1.401 . S
C125 C126 1.376 . S
C125 C134 1.511 . S
C126 C125 1.376 . S
C126 C127 1.392 . S
C126 H147 0.931 . S
C127 C126 1.392 . S
C127 C128 1.361 . S
C127 C129 1.500 . S
C128 C123 1.390 . S
C128 C127 1.361 . S
C128 H146 0.931 . S
C129 C127 1.500 . S
C129 C130 1.371 1_554 S
C129 C131 1.365 . S
C130 C129 1.371 1_556 S
C130 C140 1.386 . S
C130 H148 0.931 . S
C131 C129 1.365 . S
C131 C132 1.409 1_554 S
C131 H149 0.929 . S
C132 C131 1.409 1_556 S
C132 C133 1.380 . S
C132 H150 0.933 . S
C133 C132 1.380 . S
C133 C140 1.357 . S
C134 C125 1.511 . S
C134 C135 1.341 . S
C134 C136 1.371 . S
C135 C134 1.341 . S
C135 C139 1.394 . S
C135 H151 0.930 . S
C136 C134 1.371 . S
C136 C137 1.392 . S
C136 H152 0.931 . S
C137 C136 1.392 . S
C137 C138 1.331 . S
C137 H155 0.932 1_554 S
C138 C137 1.331 . S
C138 C139 1.336 . S
C139 C135 1.394 . S
C139 C138 1.336 . S
C139 H154 0.929 . S
C140 C130 1.386 . S
C140 C133 1.357 . S
C140 H153 0.928 . S
H141 C117 0.931 . S
H142 C119 0.930 . S
H143 C121 0.929 . S
H144 C122 0.931 . S
H145 C124 0.930 . S
H146 C128 0.931 . S
H147 C126 0.931 . S
H148 C130 0.931 . S
H149 C131 0.929 . S
H150 C132 0.933 . S
H151 C135 0.930 . S
H152 C136 0.931 . S
H153 C140 0.928 . S
H154 C139 0.929 . S
H155 C137 0.932 1_556 S
C156 C157 1.386 . S
C156 C158 1.397 . S
C156 H180 0.931 . S
C157 C156 1.386 . S
C157 C161 1.397 . S
C158 C156 1.397 . S
C158 C159 1.384 . S
C158 H181 0.930 . S
C159 C158 1.384 . S
C159 C160 1.377 . S
C159 C162 1.481 . S
C160 C159 1.377 . S
C160 C161 1.389 . S
C160 H182 0.929 . S
C161 C157 1.397 . S
C161 C160 1.389 . S
C161 H183 0.931 . S
C162 C159 1.481 . S
C162 C163 1.387 . S
C162 C167 1.390 . S
C163 C162 1.387 . S
C163 C164 1.401 . S
C163 H184 0.930 . S
C164 C163 1.401 . S
C164 C165 1.376 . S
C164 C173 1.511 . S
C165 C164 1.376 . S
C165 C166 1.392 . S
C165 H186 0.931 . S
C166 C165 1.392 . S
C166 C167 1.361 . S
C166 C168 1.500 . S
C167 C162 1.390 . S
C167 C166 1.361 . S
C167 H185 0.931 . S
C168 C166 1.500 . S
C168 C169 1.371 . S
C168 C170 1.365 . S
C169 C168 1.371 . S
C169 C179 1.386 . S
C169 H187 0.931 . S
C170 C168 1.365 . S
C170 C171 1.409 . S
C170 H188 0.929 . S
C171 C170 1.409 . S
C171 C172 1.380 . S
C171 H189 0.930 . S
C172 C171 1.380 . S
C172 C179 1.357 . S
C173 C164 1.511 . S
C173 C174 1.341 . S
C173 C175 1.371 . S
C174 C173 1.341 . S
C174 C178 1.394 . S
C174 H190 0.930 . S
C175 C173 1.371 . S
C175 C176 1.392 . S
C175 H191 0.931 . S
C176 C175 1.392 . S
C176 C177 1.331 . S
C176 H194 0.932 . S
C177 C176 1.331 . S
C177 C178 1.336 . S
C178 C174 1.394 . S
C178 C177 1.336 . S
C178 H193 0.929 . S
C179 C169 1.386 . S
C179 C172 1.357 . S
C179 H192 0.928 . S
H180 C156 0.931 . S
H181 C158 0.930 . S
H182 C160 0.929 . S
H183 C161 0.931 . S
H184 C163 0.930 . S
H185 C167 0.931 . S
H186 C165 0.931 . S
H187 C169 0.931 . S
H188 C170 0.929 . S
H189 C171 0.930 . S
H190 C174 0.930 . S
H191 C175 0.931 . S
H192 C179 0.928 . S
H193 C178 0.929 . S
H194 C176 0.932 . S
C195 C196 1.389 . S
C195 C197 1.397 . S
C195 H219 0.931 . S
C196 C195 1.389 . S
C196 C200 1.394 1_655 S
C197 C195 1.397 . S
C197 C198 1.383 . S
C197 H220 0.930 . S
C198 C197 1.383 . S
C198 C199 1.379 1_655 S
C198 C201 1.481 . S
C199 C198 1.379 1_455 S
C199 C200 1.389 . S
C199 H221 0.929 . S
C200 C196 1.394 1_455 S
C200 C199 1.389 . S
C200 H222 0.931 . S
C201 C198 1.481 . S
C201 C202 1.387 . S
C201 C206 1.390 . S
C202 C201 1.387 . S
C202 C203 1.402 . S
C202 H223 0.930 . S
C203 C202 1.402 . S
C203 C204 1.376 . S
C203 C212 1.511 . S
C204 C203 1.376 . S
C204 C205 1.393 1_655 S
C204 H225 0.933 . S
C205 C204 1.393 1_455 S
C205 C206 1.361 1_455 S
C205 C207 1.499 . S
C206 C201 1.390 . S
C206 C205 1.361 1_655 S
C206 H224 0.931 . S
C207 C205 1.499 . S
C207 C208 1.358 1_455 S
C207 C209 1.379 . S
C208 C207 1.358 1_655 S
C208 C218 1.386 . S
C208 H226 0.931 . S
C209 C207 1.379 . S
C209 C210 1.409 . S
C209 H227 0.929 . S
C210 C209 1.409 . S
C210 C211 1.384 . S
C210 H228 0.930 . S
C211 C210 1.384 . S
C211 C218 1.354 1_455 S
C212 C203 1.511 . S
C212 C213 1.341 . S
C212 C214 1.371 1_655 S
C213 C212 1.341 . S
C213 C217 1.394 . S
C213 H229 0.930 . S
C214 C212 1.371 1_455 S
C214 C215 1.392 . S
C214 H230 0.931 . S
C215 C214 1.392 . S
C215 C216 1.326 1_455 S
C215 H233 0.932 . S
C216 C215 1.326 1_655 S
C216 C217 1.341 . S
C217 C213 1.394 . S
C217 C216 1.341 . S
C217 H232 0.929 . S
C218 C208 1.386 . S
C218 C211 1.354 1_655 S
C218 H231 0.928 . S
H219 C195 0.931 . S
H220 C197 0.930 . S
H221 C199 0.929 . S
H222 C200 0.931 . S
H223 C202 0.930 . S
H224 C206 0.931 . S
H225 C204 0.933 . S
H226 C208 0.931 . S
H227 C209 0.929 . S
H228 C210 0.930 . S
H229 C213 0.930 . S
H230 C214 0.931 . S
H231 C218 0.928 . S
H232 C217 0.929 . S
H233 C215 0.932 . S
C234 C235 1.386 . S
C234 C236 1.397 . S
C234 H258 0.931 . S
C235 C234 1.386 . S
C235 C239 1.397 . S
C236 C234 1.397 . S
C236 C237 1.384 . S
C236 H259 0.930 . S
C237 C236 1.384 . S
C237 C238 1.377 . S
C237 C240 1.481 . S
C238 C237 1.377 . S
C238 C239 1.389 . S
C238 H260 0.929 . S
C239 C235 1.397 . S
C239 C238 1.389 . S
C239 H261 0.931 . S
C240 C237 1.481 . S
C240 C241 1.387 . S
C240 C245 1.390 . S
C241 C240 1.387 . S
C241 C242 1.401 . S
C241 H262 0.930 . S
C242 C241 1.401 . S
C242 C243 1.376 . S
C242 C251 1.511 . S
C243 C242 1.376 . S
C243 C244 1.392 . S
C243 H264 0.931 . S
C244 C243 1.392 . S
C244 C245 1.361 . S
C244 C246 1.500 . S
C245 C240 1.390 . S
C245 C244 1.361 . S
C245 H263 0.931 . S
C246 C244 1.500 . S
C246 C247 1.371 . S
C246 C248 1.365 . S
C247 C246 1.371 . S
C247 C257 1.386 . S
C247 H265 0.931 . S
C248 C246 1.365 . S
C248 C249 1.409 . S
C248 H266 0.929 . S
C249 C248 1.409 . S
C249 C250 1.380 . S
C249 H267 0.930 . S
C250 C249 1.380 . S
C250 C257 1.357 . S
C251 C242 1.511 . S
C251 C252 1.341 . S
C251 C253 1.371 . S
C252 C251 1.341 . S
C252 C256 1.394 . S
C252 H268 0.930 . S
C253 C251 1.371 . S
C253 C254 1.392 . S
C253 H269 0.931 . S
C254 C253 1.392 . S
C254 C255 1.331 . S
C254 H272 0.932 . S
C255 C254 1.331 . S
C255 C256 1.336 . S
C256 C252 1.394 . S
C256 C255 1.336 . S
C256 H271 0.929 . S
C257 C247 1.386 . S
C257 C250 1.357 . S
C257 H270 0.928 . S
H258 C234 0.931 . S
H259 C236 0.930 . S
H260 C238 0.929 . S
H261 C239 0.931 . S
H262 C241 0.930 . S
H263 C245 0.931 . S
H264 C243 0.931 . S
H265 C247 0.931 . S
H266 C248 0.929 . S
H267 C249 0.930 . S
H268 C252 0.930 . S
H269 C253 0.931 . S
H270 C257 0.928 . S
H271 C256 0.929 . S
H272 C254 0.932 . S
C273 C274 1.386 . S
C273 C275 1.397 . S
C273 H297 0.931 . S
C274 C273 1.386 . S
C274 C278 1.397 . S
C275 C273 1.397 . S
C275 C276 1.384 . S
C275 H298 0.930 . S
C276 C275 1.384 . S
C276 C277 1.377 . S
C276 C279 1.481 . S
C277 C276 1.377 . S
C277 C278 1.389 . S
C277 H299 0.929 . S
C278 C274 1.397 . S
C278 C277 1.389 . S
C278 H300 0.931 . S
C279 C276 1.481 . S
C279 C280 1.387 . S
C279 C284 1.390 . S
C280 C279 1.387 . S
C280 C281 1.401 . S
C280 H301 0.930 . S
C281 C280 1.401 . S
C281 C282 1.376 . S
C281 C290 1.511 . S
C282 C281 1.376 . S
C282 C283 1.392 . S
C282 H303 0.931 . S
C283 C282 1.392 . S
C283 C284 1.361 . S
C283 C285 1.500 . S
C284 C279 1.390 . S
C284 C283 1.361 . S
C284 H302 0.931 . S
C285 C283 1.500 . S
C285 C286 1.371 . S
C285 C287 1.365 . S
C286 C285 1.371 . S
C286 C296 1.386 . S
C286 H304 0.931 . S
C287 C285 1.365 . S
C287 C288 1.409 . S
C287 H305 0.929 . S
C288 C287 1.409 . S
C288 C289 1.380 . S
C288 H306 0.930 . S
C289 C288 1.380 . S
C289 C296 1.357 . S
C290 C281 1.511 . S
C290 C291 1.341 . S
C290 C292 1.371 . S
C291 C290 1.341 . S
C291 C295 1.394 . S
C291 H307 0.930 . S
C292 C290 1.371 . S
C292 C293 1.392 . S
C292 H308 0.931 . S
C293 C292 1.392 . S
C293 C294 1.331 . S
C293 H311 0.932 . S
C294 C293 1.331 . S
C294 C295 1.336 . S
C295 C291 1.394 . S
C295 C294 1.336 . S
C295 H310 0.929 . S
C296 C286 1.386 . S
C296 C289 1.357 . S
C296 H309 0.928 . S
H297 C273 0.931 . S
H298 C275 0.930 . S
H299 C277 0.929 . S
H300 C278 0.931 . S
H301 C280 0.930 . S
H302 C284 0.931 . S
H303 C282 0.931 . S
H304 C286 0.931 . S
H305 C287 0.929 . S
H306 C288 0.930 . S
H307 C291 0.930 . S
H308 C292 0.931 . S
H309 C296 0.928 . S
H310 C295 0.929 . S
H311 C293 0.932 . S
O312 Mg313 1.990 . S
O312 C326 1.253 . S
Mg313 O312 1.990 . S
Mg313 O316 2.180 1_565 S
Mg313 O317 2.117 . S
Mg313 O331 2.030 . S
O314 Mg315 2.072 1_465 S
O314 C326 1.260 . S
Mg315 O314 2.072 1_645 S
Mg315 O316 2.099 1_655 S
Mg315 O318 2.079 . S
Mg315 O319 2.072 1_655 S
Mg315 O321 2.099 . S
Mg315 O332 2.079 1_545 S
O316 Mg313 2.180 1_545 S
O316 Mg315 2.099 1_455 S
O316 C327 1.279 . S
O317 Mg313 2.117 . S
O317 C327 1.250 1_565 S
O318 Mg315 2.079 . S
O318 C328 1.264 . S
O319 Mg315 2.072 1_455 S
O319 C329 1.260 . S
Mg320 O321 2.180 . S
Mg320 O322 2.030 . S
Mg320 O323 1.990 . S
Mg320 O324 2.117 . S
O321 Mg315 2.099 . S
O321 Mg320 2.180 . S
O321 C330 1.279 . S
O322 Mg320 2.030 . S
O322 C328 1.248 . S
O323 Mg320 1.990 . S
O323 C329 1.253 1_655 S
O324 Mg320 2.117 . S
O324 C330 1.250 . S
C325 O331 1.248 1_655 S
C325 O332 1.264 . S
C326 O312 1.253 . S
C326 O314 1.260 . S
C327 O316 1.279 . S
C327 O317 1.250 1_545 S
C328 O318 1.264 . S
C328 O322 1.248 . S
C329 O319 1.260 . S
C329 O323 1.253 1_455 S
C330 O321 1.279 . S
C330 O324 1.250 . S
O331 Mg313 2.030 . S
O331 C325 1.248 1_455 S
O332 Mg315 2.079 1_565 S
O332 C325 1.264 . S
O333 Mg334 1.990 1_545 S
O333 C347 1.253 . S
Mg334 O333 1.990 1_565 S
Mg334 O337 2.180 . S
Mg334 O338 2.117 . S
Mg334 O352 2.030 1_565 S
O335 Mg336 2.072 . S
O335 C347 1.260 . S
Mg336 O335 2.072 . S
Mg336 O337 2.099 1_545 S
Mg336 O339 2.079 1_545 S
Mg336 O340 2.072 1_545 S
Mg336 O342 2.099 . S
Mg336 O353 2.079 . S
O337 Mg334 2.180 . S
O337 Mg336 2.099 1_565 S
O337 C348 1.279 . S
O338 Mg334 2.117 . S
O338 C348 1.250 . S
O339 Mg336 2.079 1_565 S
O339 C349 1.264 . S
O340 Mg336 2.072 1_565 S
O340 C350 1.260 1_565 S
Mg341 O342 2.180 . S
Mg341 O343 2.057 . S
Mg341 O344 1.990 . S
Mg341 O345 2.117 . S
O342 Mg336 2.099 . S
O342 Mg341 2.180 . S
O342 C351 1.279 . S
O343 Mg341 2.057 . S
O343 C349 1.230 1_545 S
O344 Mg341 1.990 . S
O344 C350 1.253 . S
O345 Mg341 2.117 . S
O345 C351 1.250 . S
C346 O352 1.248 . S
C346 O353 1.264 . S
C347 O333 1.253 . S
C347 O335 1.260 . S
C348 O337 1.279 . S
C348 O338 1.250 . S
C349 O339 1.264 . S
C349 O343 1.230 1_565 S
C350 O340 1.260 1_545 S
C350 O344 1.253 . S
C351 O342 1.279 . S
C351 O345 1.250 . S
O352 Mg334 2.030 1_545 S
O352 C346 1.248 . S
O353 Mg336 2.079 . S
O353 C346 1.264 . S
O354 Mg355 1.990 . S
O354 C368 1.253 . S
Mg355 O354 1.990 . S
Mg355 O358 2.180 . S
Mg355 O359 2.117 . S
Mg355 O373 2.030 . S
O356 Mg357 2.072 . S
O356 C368 1.260 . S
Mg357 O356 2.072 . S
Mg357 O358 2.099 . S
Mg357 O360 2.079 . S
Mg357 O361 2.072 . S
Mg357 O363 2.099 . S
Mg357 O374 2.079 . S
O358 Mg355 2.180 . S
O358 Mg357 2.099 . S
O358 C369 1.279 . S
O359 Mg355 2.117 . S
O359 C369 1.250 . S
O360 Mg357 2.079 . S
O360 C370 1.264 . S
O361 Mg357 2.072 . S
O361 C371 1.260 . S
Mg362 O363 2.180 . S
Mg362 O364 2.030 . S
Mg362 O365 1.990 . S
Mg362 O366 2.117 . S
O363 Mg357 2.099 . S
O363 Mg362 2.180 . S
O363 C372 1.279 . S
O364 Mg362 2.030 . S
O364 C370 1.248 . S
O365 Mg362 1.990 . S
O365 C371 1.253 . S
O366 Mg362 2.117 . S
O366 C372 1.250 . S
C367 O373 1.248 . S
C367 O374 1.264 . S
C368 O354 1.253 . S
C368 O356 1.260 . S
C369 O358 1.279 . S
C369 O359 1.250 . S
C370 O360 1.264 . S
C370 O364 1.248 . S
C371 O361 1.260 . S
C371 O365 1.253 . S
C372 O363 1.279 . S
C372 O366 1.250 . S
O373 Mg355 2.030 . S
O373 C367 1.248 . S
O374 Mg357 2.079 . S
O374 C367 1.264 . S
O375 Mg376 1.990 . S
O375 C389 1.253 . S
Mg376 O375 1.990 . S
Mg376 O379 2.180 . S
Mg376 O380 2.117 . S
Mg376 O394 2.030 . S
O377 Mg378 2.072 1_655 S
O377 C389 1.260 . S
Mg378 O377 2.072 1_455 S
Mg378 O379 2.099 1_455 S
Mg378 O381 2.079 . S
Mg378 O382 2.072 . S
Mg378 O384 2.099 . S
Mg378 O395 2.079 1_455 S
O379 Mg376 2.180 . S
O379 Mg378 2.099 1_655 S
O379 C390 1.279 . S
O380 Mg376 2.117 . S
O380 C390 1.250 . S
O381 Mg378 2.079 . S
O381 C391 1.264 . S
O382 Mg378 2.072 . S
O382 C392 1.260 . S
Mg383 O384 2.180 . S
Mg383 O385 2.030 . S
Mg383 O386 1.990 . S
Mg383 O387 2.117 . S
O384 Mg378 2.099 . S
O384 Mg383 2.180 . S
O384 C393 1.279 . S
O385 Mg383 2.030 . S
O385 C391 1.248 . S
O386 Mg383 1.990 . S
O386 C392 1.253 . S
O387 Mg383 2.117 . S
O387 C393 1.250 . S
C388 O394 1.248 . S
C388 O395 1.264 . S
C389 O375 1.253 . S
C389 O377 1.260 . S
C390 O379 1.279 . S
C390 O380 1.250 . S
C391 O381 1.264 . S
C391 O385 1.248 . S
C392 O382 1.260 . S
C392 O386 1.253 . S
C393 O384 1.279 . S
C393 O387 1.250 . S
O394 Mg376 2.030 . S
O394 C388 1.248 . S
O395 Mg378 2.079 1_655 S
O395 C388 1.264 . S
H396 C402 0.930 . S
H397 C406 0.930 . S
H398 C411 0.929 . S
H399 C409 0.929 . S
H400 C404 0.929 . S
H401 C410 0.929 . S
C402 H396 0.930 . S
C402 C403 1.367 . S
C402 C410 1.378 . S
C403 C402 1.367 . S
C403 C411 1.433 . S
C404 H400 0.929 . S
C404 C406 1.378 . S
C404 C408 1.350 . S
C405 C408 1.463 . S
C405 C410 1.350 . S
C405 N413 1.427 . S
C406 H397 0.930 . S
C406 C404 1.378 . S
C406 C407 1.367 . S
C407 C406 1.367 . S
C407 C409 1.433 . S
C408 C404 1.350 . S
C408 C405 1.463 . S
C408 N412 1.427 . S
C409 H399 0.929 . S
C409 C407 1.433 . S
C409 N412 1.384 . S
C410 H401 0.929 . S
C410 C402 1.378 . S
C410 C405 1.350 . S
C411 H398 0.929 . S
C411 C403 1.433 . S
C411 N413 1.384 . S
N412 C408 1.427 . S
N412 C409 1.384 . S
N413 C405 1.427 . S
N413 C411 1.384 . S
H414 C420 0.930 . S
H415 C424 0.930 . S
H416 C429 0.929 . S
H417 C427 0.929 . S
H418 C422 0.929 . S
H419 C428 0.929 . S
C420 H414 0.930 . S
C420 C421 1.367 . S
C420 C428 1.378 . S
C421 C420 1.367 . S
C421 C429 1.433 . S
C422 H418 0.929 . S
C422 C424 1.378 . S
C422 C426 1.350 . S
C423 C426 1.463 . S
C423 C428 1.350 . S
C423 N431 1.427 . S
C424 H415 0.930 . S
C424 C422 1.378 . S
C424 C425 1.367 . S
C425 C424 1.367 . S
C425 C427 1.433 . S
C426 C422 1.350 . S
C426 C423 1.463 . S
C426 N430 1.427 . S
C427 H417 0.929 . S
C427 C425 1.433 . S
C427 N430 1.384 . S
C428 H419 0.929 . S
C428 C420 1.378 . S
C428 C423 1.350 . S
C429 H416 0.929 . S
C429 C421 1.433 . S
C429 N431 1.384 . S
N430 C426 1.427 . S
N430 C427 1.384 . S
N431 C423 1.427 . S
N431 C429 1.384 . S
H432 C438 0.930 . S
H433 C442 0.930 . S
H434 C447 0.929 . S
H435 C445 0.929 . S
H436 C440 0.929 . S
H437 C446 0.929 . S
C438 H432 0.930 . S
C438 C439 1.367 . S
C438 C446 1.378 . S
C439 C438 1.367 . S
C439 C447 1.433 . S
C440 H436 0.929 . S
C440 C442 1.378 . S
C440 C444 1.350 . S
C441 C444 1.463 . S
C441 C446 1.350 . S
C441 N449 1.427 . S
C442 H433 0.930 . S
C442 C440 1.378 . S
C442 C443 1.367 . S
C443 C442 1.367 . S
C443 C445 1.433 . S
C444 C440 1.350 . S
C444 C441 1.463 . S
C444 N448 1.427 . S
C445 H435 0.929 . S
C445 C443 1.433 . S
C445 N448 1.384 . S
C446 H437 0.929 . S
C446 C438 1.378 . S
C446 C441 1.350 . S
C447 H434 0.929 . S
C447 C439 1.433 . S
C447 N449 1.384 . S
N448 C444 1.427 . S
N448 C445 1.384 . S
N449 C441 1.427 . S
N449 C447 1.384 . S
H450 C456 0.930 . S
H451 C460 0.930 . S
H452 C465 0.929 . S
H453 C463 0.929 . S
H454 C458 0.929 . S
H455 C464 0.929 . S
C456 H450 0.930 . S
C456 C457 1.367 . S
C456 C464 1.378 . S
C457 C456 1.367 . S
C457 C465 1.433 1_655 S
C458 H454 0.929 . S
C458 C460 1.378 . S
C458 C462 1.350 1_455 S
C459 C462 1.463 . S
C459 C464 1.350 . S
C459 N467 1.427 1_655 S
C460 H451 0.930 . S
C460 C458 1.378 . S
C460 C461 1.367 1_455 S
C461 C460 1.367 1_655 S
C461 C463 1.433 . S
C462 C458 1.350 1_655 S
C462 C459 1.463 . S
C462 N466 1.427 . S
C463 H453 0.929 . S
C463 C461 1.433 . S
C463 N466 1.384 . S
C464 H455 0.929 . S
C464 C456 1.378 . S
C464 C459 1.350 . S
C465 H452 0.929 . S
C465 C457 1.433 1_455 S
C465 N467 1.384 . S
N466 C462 1.427 . S
N466 C463 1.384 . S
N467 C459 1.427 1_455 S
N467 C465 1.384 . S
H468 C474 0.930 . S
H469 C478 0.930 . S
H470 C483 0.929 . S
H471 C481 0.929 1_545 S
H472 C476 0.929 . S
H473 C482 0.929 . S
C474 H468 0.930 . S
C474 C475 1.367 1_556 S
C474 C482 1.378 . S
C475 C474 1.367 1_554 S
C475 C483 1.433 . S
C476 H472 0.929 . S
C476 C478 1.378 . S
C476 C480 1.350 . S
C477 C480 1.463 . S
C477 C482 1.350 . S
C477 N485 1.427 . S
C478 H469 0.930 . S
C478 C476 1.378 . S
C478 C479 1.367 . S
C479 C478 1.367 . S
C479 C481 1.433 . S
C480 C476 1.350 . S
C480 C477 1.463 . S
C480 N484 1.427 . S
C481 H471 0.929 1_565 S
C481 C479 1.433 . S
C481 N484 1.384 . S
C482 H473 0.929 . S
C482 C474 1.378 . S
C482 C477 1.350 . S
C483 H470 0.929 . S
C483 C475 1.433 . S
C483 N485 1.384 1_554 S
N484 C480 1.427 . S
N484 C481 1.384 . S
N485 C477 1.427 . S
N485 C483 1.384 1_556 S
H486 C492 0.930 . S
H487 C496 0.930 . S
H488 C501 0.929 . S
H489 C499 0.929 . S
H490 C494 0.929 . S
H491 C500 0.929 . S
C492 H486 0.930 . S
C492 C493 1.367 . S
C492 C500 1.378 . S
C493 C492 1.367 . S
C493 C501 1.433 1_554 S
C494 H490 0.929 . S
C494 C496 1.378 . S
C494 C498 1.350 . S
C495 C498 1.463 . S
C495 C500 1.350 1_556 S
C495 N503 1.427 . S
C496 H487 0.930 . S
C496 C494 1.378 . S
C496 C497 1.367 . S
C497 C496 1.367 . S
C497 C499 1.433 . S
C498 C494 1.350 . S
C498 C495 1.463 . S
C498 N502 1.427 . S
C499 H489 0.929 . S
C499 C497 1.433 . S
C499 N502 1.384 . S
C500 H491 0.929 . S
C500 C492 1.378 . S
C500 C495 1.350 1_554 S
C501 H488 0.929 . S
C501 C493 1.433 1_556 S
C501 N503 1.384 . S
N502 C498 1.427 . S
N502 C499 1.384 . S
N503 C495 1.427 . S
N503 C501 1.384 . S
H504 C510 0.930 . S
H505 C514 0.930 . S
H506 C519 0.929 . S
H507 C517 0.929 . S
H508 C512 0.929 . S
H509 C518 0.929 1_554 S
C510 H504 0.930 . S
C510 C511 1.371 . S
C510 C518 1.378 1_554 S
C511 C510 1.371 . S
C511 C519 1.422 1_554 S
C512 H508 0.929 . S
C512 C514 1.378 . S
C512 C516 1.350 . S
C513 C516 1.463 . S
C513 C518 1.350 . S
C513 N521 1.427 . S
C514 H505 0.930 . S
C514 C512 1.378 . S
C514 C515 1.367 . S
C515 C514 1.367 . S
C515 C517 1.433 . S
C516 C512 1.350 . S
C516 C513 1.463 . S
C516 N520 1.427 . S
C517 H507 0.929 . S
C517 C515 1.433 . S
C517 N520 1.384 . S
C518 H509 0.929 1_556 S
C518 C510 1.378 1_556 S
C518 C513 1.350 . S
C519 H506 0.929 . S
C519 C511 1.422 1_556 S
C519 N521 1.384 . S
N520 C516 1.427 . S
N520 C517 1.384 . S
N521 C513 1.427 . S
N521 C519 1.384 . S
H522 C528 0.930 . S
H523 C532 0.930 . S
H524 C537 0.929 . S
H525 C535 0.929 . S
H526 C530 0.929 . S
H527 C536 0.929 . S
C528 H522 0.930 . S
C528 C529 1.364 1_655 S
C528 C536 1.378 . S
C529 C528 1.364 1_455 S
C529 C537 1.437 1_554 S
C530 H526 0.929 . S
C530 C532 1.378 . S
C530 C534 1.350 . S
C531 C534 1.463 . S
C531 C536 1.350 1_456 S
C531 N539 1.427 . S
C532 H523 0.930 . S
C532 C530 1.378 . S
C532 C533 1.367 . S
C533 C532 1.367 . S
C533 C535 1.433 1_455 S
C534 C530 1.350 . S
C534 C531 1.463 . S
C534 N538 1.427 1_455 S
C535 H525 0.929 . S
C535 C533 1.433 1_655 S
C535 N538 1.384 . S
C536 H527 0.929 . S
C536 C528 1.378 . S
C536 C531 1.350 1_654 S
C537 H524 0.929 . S
C537 C529 1.437 1_556 S
C537 N539 1.384 . S
N538 C534 1.427 1_655 S
N538 C535 1.384 . S
N539 C531 1.427 . S
N539 C537 1.384 . S
H540 C546 0.930 . S
H541 C550 0.930 . S
H542 C555 0.929 . S
H543 C553 0.921 1_455 S
H544 C548 0.929 . S
H545 C554 0.929 . S
C546 H540 0.930 . S
C546 C547 1.367 . S
C546 C554 1.378 . S
C547 C546 1.367 . S
C547 C555 1.433 1_455 S
C548 H544 0.929 . S
C548 C550 1.378 . S
C548 C552 1.350 . S
C549 C552 1.463 . S
C549 C554 1.350 1_655 S
C549 N557 1.427 . S
C550 H541 0.930 . S
C550 C548 1.378 . S
C550 C551 1.367 . S
C551 C550 1.367 . S
C551 C553 1.444 . S
C552 C548 1.350 . S
C552 C549 1.463 . S
C552 N556 1.427 1_655 S
C553 H543 0.921 1_655 S
C553 C551 1.444 . S
C553 N556 1.381 1_655 S
C554 H545 0.929 . S
C554 C546 1.378 . S
C554 C549 1.350 1_455 S
C555 H542 0.929 . S
C555 C547 1.433 1_655 S
C555 N557 1.384 . S
N556 C552 1.427 1_455 S
N556 C553 1.381 1_455 S
N557 C549 1.427 . S
N557 C555 1.384 . S
H558 C564 0.930 . S
H559 C568 0.930 . S
H560 C573 0.929 . S
H561 C571 0.929 . S
H562 C566 0.929 . S
H563 C572 0.929 . S
C564 H558 0.930 . S
C564 C565 1.367 . S
C564 C572 1.378 . S
C565 C564 1.367 . S
C565 C573 1.433 . S
C566 H562 0.929 . S
C566 C568 1.378 . S
C566 C570 1.350 . S
C567 C570 1.463 . S
C567 C572 1.350 . S
C567 N575 1.427 . S
C568 H559 0.930 . S
C568 C566 1.378 . S
C568 C569 1.367 . S
C569 C568 1.367 . S
C569 C571 1.433 . S
C570 C566 1.350 . S
C570 C567 1.463 . S
C570 N574 1.427 . S
C571 H561 0.929 . S
C571 C569 1.433 . S
C571 N574 1.384 . S
C572 H563 0.929 . S
C572 C564 1.378 . S
C572 C567 1.350 . S
C573 H560 0.929 . S
C573 C565 1.433 . S
C573 N575 1.384 . S
N574 C570 1.427 . S
N574 C571 1.384 . S
N575 C567 1.427 . S
N575 C573 1.384 . S
H576 C582 0.930 . S
H577 C586 0.930 . S
H578 C591 0.929 . S
H579 C589 0.929 . S
H580 C584 0.929 . S
H581 C590 0.929 . S
C582 H576 0.930 . S
C582 C583 1.367 . S
C582 C590 1.378 . S
C583 C582 1.367 . S
C583 C591 1.433 . S
C584 H580 0.929 . S
C584 C586 1.378 . S
C584 C588 1.350 . S
C585 C588 1.463 . S
C585 C590 1.350 . S
C585 N593 1.427 . S
C586 H577 0.930 . S
C586 C584 1.378 . S
C586 C587 1.367 . S
C587 C586 1.367 . S
C587 C589 1.433 . S
C588 C584 1.350 . S
C588 C585 1.463 . S
C588 N592 1.427 . S
C589 H579 0.929 . S
C589 C587 1.433 . S
C589 N592 1.384 . S
C590 H581 0.929 . S
C590 C582 1.378 . S
C590 C585 1.350 . S
C591 H578 0.929 . S
C591 C583 1.433 . S
C591 N593 1.384 . S
N592 C588 1.427 . S
N592 C589 1.384 . S
N593 C585 1.427 . S
N593 C591 1.384 . S
H594 C600 0.930 . S
H595 C604 0.930 . S
H596 C609 0.929 . S
H597 C607 0.929 . S
H598 C602 0.929 . S
H599 C608 0.929 . S
C600 H594 0.930 . S
C600 C601 1.367 . S
C600 C608 1.378 . S
C601 C600 1.367 . S
C601 C609 1.433 . S
C602 H598 0.929 . S
C602 C604 1.378 . S
C602 C606 1.350 . S
C603 C606 1.463 . S
C603 C608 1.350 . S
C603 N611 1.427 . S
C604 H595 0.930 . S
C604 C602 1.378 . S
C604 C605 1.367 . S
C605 C604 1.367 . S
C605 C607 1.433 . S
C606 C602 1.350 . S
C606 C603 1.463 . S
C606 N610 1.427 . S
C607 H597 0.929 . S
C607 C605 1.433 . S
C607 N610 1.384 . S
C608 H599 0.929 . S
C608 C600 1.378 . S
C608 C603 1.350 . S
C609 H596 0.929 . S
C609 C601 1.433 . S
C609 N611 1.384 . S
N610 C606 1.427 . S
N610 C607 1.384 . S
N611 C603 1.427 . S
N611 C609 1.384 . S
H612 C618 0.930 . S
H613 C622 0.930 . S
H614 C627 0.929 . S
H615 C625 0.929 . S
H616 C620 0.929 . S
H617 C626 0.929 . S
C618 H612 0.930 . S
C618 C619 1.347 1_455 S
C618 C626 1.378 . S
C619 C618 1.347 1_655 S
C619 C627 1.450 . S
C620 H616 0.929 . S
C620 C622 1.378 . S
C620 C624 1.350 1_655 S
C621 C624 1.463 . S
C621 C626 1.350 . S
C621 N629 1.427 1_455 S
C622 H613 0.930 . S
C622 C620 1.378 . S
C622 C623 1.367 1_655 S
C623 C622 1.367 1_455 S
C623 C625 1.433 . S
C624 C620 1.350 1_455 S
C624 C621 1.463 . S
C624 N628 1.427 . S
C625 H615 0.929 . S
C625 C623 1.433 . S
C625 N628 1.384 . S
C626 H617 0.929 . S
C626 C618 1.378 . S
C626 C621 1.350 . S
C627 H614 0.929 . S
C627 C619 1.450 . S
C627 N629 1.384 . S
N628 C624 1.427 . S
N628 C625 1.384 . S
N629 C621 1.427 1_655 S
N629 C627 1.384 . S
H630 C636 0.930 . S
H631 C640 0.930 . S
H632 C645 0.929 . S
H633 C643 0.929 1_545 S
H634 C638 0.929 . S
H635 C644 0.929 . S
C636 H630 0.930 . S
C636 C637 1.367 . S
C636 C644 1.378 . S
C637 C636 1.367 . S
C637 C645 1.433 . S
C638 H634 0.929 . S
C638 C640 1.378 . S
C638 C642 1.350 . S
C639 C642 1.463 . S
C639 C644 1.350 . S
C639 N647 1.427 . S
C640 H631 0.930 . S
C640 C638 1.378 . S
C640 C641 1.367 . S
C641 C640 1.367 . S
C641 C643 1.433 . S
C642 C638 1.350 . S
C642 C639 1.463 . S
C642 N646 1.427 . S
C643 H633 0.929 1_565 S
C643 C641 1.433 . S
C643 N646 1.384 . S
C644 H635 0.929 . S
C644 C636 1.378 . S
C644 C639 1.350 . S
C645 H632 0.929 . S
C645 C637 1.433 . S
C645 N647 1.384 . S
N646 C642 1.427 . S
N646 C643 1.384 . S
N647 C639 1.427 . S
N647 C645 1.384 . S
H648 C654 0.930 1_554 S
H649 C658 0.930 . S
H650 C663 0.929 . S
H651 C661 0.929 . S
H652 C656 0.929 . S
H653 C662 0.929 . S
C654 H648 0.930 1_556 S
C654 C655 1.367 . S
C654 C662 1.378 . S
C655 C654 1.367 . S
C655 C663 1.433 . S
C656 H652 0.929 . S
C656 C658 1.378 . S
C656 C660 1.350 . S
C657 C660 1.463 . S
C657 C662 1.350 . S
C657 N665 1.427 . S
C658 H649 0.930 . S
C658 C656 1.378 . S
C658 C659 1.367 . S
C659 C658 1.367 . S
C659 C661 1.433 . S
C660 C656 1.350 . S
C660 C657 1.463 . S
C660 N664 1.427 . S
C661 H651 0.929 . S
C661 C659 1.433 . S
C661 N664 1.384 . S
C662 H653 0.929 . S
C662 C654 1.378 . S
C662 C657 1.350 . S
C663 H650 0.929 . S
C663 C655 1.433 . S
C663 N665 1.384 . S
N664 C660 1.427 . S
N664 C661 1.384 . S
N665 C657 1.427 . S
N665 C663 1.384 . S
H666 C672 0.930 . S
H667 C676 0.930 . S
H668 C681 0.929 . S
H669 C679 0.929 . S
H670 C674 0.929 . S
H671 C680 0.929 . S
C672 H666 0.930 . S
C672 C673 1.367 . S
C672 C680 1.378 . S
C673 C672 1.367 . S
C673 C681 1.433 . S
C674 H670 0.929 . S
C674 C676 1.378 . S
C674 C678 1.350 . S
C675 C678 1.463 . S
C675 C680 1.350 . S
C675 N683 1.427 . S
C676 H667 0.930 . S
C676 C674 1.378 . S
C676 C677 1.367 . S
C677 C676 1.367 . S
C677 C679 1.433 . S
C678 C674 1.350 . S
C678 C675 1.463 . S
C678 N682 1.427 . S
C679 H669 0.929 . S
C679 C677 1.433 . S
C679 N682 1.384 . S
C680 H671 0.929 . S
C680 C672 1.378 . S
C680 C675 1.350 . S
C681 H668 0.929 . S
C681 C673 1.433 . S
C681 N683 1.384 . S
N682 C678 1.427 . S
N682 C679 1.384 . S
N683 C675 1.427 . S
N683 C681 1.384 . S
H684 C690 0.930 . S
H685 C694 0.930 . S
H686 C699 0.929 . S
H687 C697 0.929 . S
H688 C692 0.929 . S
H689 C698 0.929 . S
C690 H684 0.930 . S
C690 C691 1.367 1_556 S
C690 C698 1.378 . S
C691 C690 1.367 1_554 S
C691 C699 1.433 1_455 S
C692 H688 0.929 . S
C692 C694 1.378 . S
C692 C696 1.350 1_655 S
C693 C696 1.463 . S
C693 C698 1.350 . S
C693 N701 1.427 1_455 S
C694 H685 0.930 . S
C694 C692 1.378 . S
C694 C695 1.367 1_655 S
C695 C694 1.367 1_455 S
C695 C697 1.433 . S
C696 C692 1.350 1_455 S
C696 C693 1.463 . S
C696 N700 1.427 . S
C697 H687 0.929 . S
C697 C695 1.433 . S
C697 N700 1.384 . S
C698 H689 0.929 . S
C698 C690 1.378 . S
C698 C693 1.350 . S
C699 H686 0.929 . S
C699 C691 1.433 1_655 S
C699 N701 1.384 1_554 S
N700 C696 1.427 . S
N700 C697 1.384 . S
N701 C693 1.427 1_655 S
N701 C699 1.384 1_556 S
H702 C708 0.930 . S
H703 C712 0.930 . S
H704 C717 0.929 . S
H705 C715 0.929 . S
H706 C710 0.929 . S
H707 C716 0.929 . S
C708 H702 0.930 . S
C708 C709 1.367 1_556 S
C708 C716 1.378 . S
C709 C708 1.367 1_554 S
C709 C717 1.433 . S
C710 H706 0.929 . S
C710 C712 1.378 . S
C710 C714 1.350 . S
C711 C714 1.463 . S
C711 C716 1.350 . S
C711 N719 1.427 1_556 S
C712 H703 0.930 . S
C712 C710 1.378 . S
C712 C713 1.367 . S
C713 C712 1.367 . S
C713 C715 1.433 . S
C714 C710 1.350 . S
C714 C711 1.463 . S
C714 N718 1.427 . S
C715 H705 0.929 . S
C715 C713 1.433 . S
C715 N718 1.384 . S
C716 H707 0.929 . S
C716 C708 1.378 . S
C716 C711 1.350 . S
C717 H704 0.929 . S
C717 C709 1.433 . S
C717 N719 1.384 . S
N718 C714 1.427 . S
N718 C715 1.384 . S
N719 C711 1.427 1_554 S
N719 C717 1.384 . S
H720 C726 0.930 . S
H721 C730 0.930 . S
H722 C735 0.929 . S
H723 C733 0.929 . S
H724 C728 0.929 . S
H725 C734 0.929 . S
C726 H720 0.930 . S
C726 C727 1.367 . S
C726 C734 1.378 . S
C727 C726 1.367 . S
C727 C735 1.433 1_554 S
C728 H724 0.929 . S
C728 C730 1.378 . S
C728 C732 1.350 . S
C729 C732 1.463 . S
C729 C734 1.350 1_556 S
C729 N737 1.427 . S
C730 H721 0.930 . S
C730 C728 1.378 . S
C730 C731 1.367 . S
C731 C730 1.367 . S
C731 C733 1.433 . S
C732 C728 1.350 . S
C732 C729 1.463 . S
C732 N736 1.427 . S
C733 H723 0.929 . S
C733 C731 1.433 . S
C733 N736 1.384 . S
C734 H725 0.929 . S
C734 C726 1.378 . S
C734 C729 1.350 1_554 S
C735 H722 0.929 . S
C735 C727 1.433 1_556 S
C735 N737 1.384 . S
N736 C732 1.427 . S
N736 C733 1.384 . S
N737 C729 1.427 . S
N737 C735 1.384 . S
H738 C744 0.930 . S
H739 C748 0.930 . S
H740 C753 0.929 . S
H741 C751 0.929 . S
H742 C746 0.929 . S
H743 C752 0.929 . S
C744 H738 0.930 . S
C744 C745 1.367 1_556 S
C744 C752 1.378 . S
C745 C744 1.367 1_554 S
C745 C753 1.433 . S
C746 H742 0.929 . S
C746 C748 1.378 . S
C746 C750 1.350 . S
C747 C750 1.463 . S
C747 C752 1.350 . S
C747 N755 1.422 1_556 S
C748 H739 0.930 . S
C748 C746 1.378 . S
C748 C749 1.367 . S
C749 C748 1.367 . S
C749 C751 1.433 . S
C750 C746 1.350 . S
C750 C747 1.463 . S
C750 N754 1.427 . S
C751 H741 0.929 . S
C751 C749 1.433 . S
C751 N754 1.384 . S
C752 H743 0.929 . S
C752 C744 1.378 . S
C752 C747 1.350 . S
C753 H740 0.929 . S
C753 C745 1.433 . S
C753 N755 1.388 . S
N754 C750 1.427 . S
N754 C751 1.384 . S
N755 C747 1.422 1_554 S
N755 C753 1.388 . S
H756 C762 0.930 . S
H757 C766 0.930 . S
H758 C771 0.929 . S
H759 C769 0.929 . S
H760 C764 0.929 . S
H761 C770 0.929 . S
C762 H756 0.930 . S
C762 C763 1.340 1_455 S
C762 C770 1.378 . S
C763 C762 1.340 1_655 S
C763 C771 1.462 . S
C764 H760 0.929 . S
C764 C766 1.378 . S
C764 C768 1.350 . S
C765 C768 1.463 . S
C765 C770 1.350 1_655 S
C765 N773 1.427 . S
C766 H757 0.930 . S
C766 C764 1.378 . S
C766 C767 1.367 . S
C767 C766 1.367 . S
C767 C769 1.433 1_655 S
C768 C764 1.350 . S
C768 C765 1.463 . S
C768 N772 1.427 1_655 S
C769 H759 0.929 . S
C769 C767 1.433 1_455 S
C769 N772 1.384 . S
C770 H761 0.929 . S
C770 C762 1.378 . S
C770 C765 1.350 1_455 S
C771 H758 0.929 . S
C771 C763 1.462 . S
C771 N773 1.384 . S
N772 C768 1.427 1_455 S
N772 C769 1.384 . S
N773 C765 1.427 . S
N773 C771 1.384 . S
H774 C780 0.930 . S
H775 C784 0.930 . S
H776 C789 0.929 . S
H777 C787 0.929 . S
H778 C782 0.929 . S
H779 C788 0.929 . S
C780 H774 0.930 . S
C780 C781 1.367 . S
C780 C788 1.378 . S
C781 C780 1.367 . S
C781 C789 1.433 . S
C782 H778 0.929 . S
C782 C784 1.378 . S
C782 C786 1.350 . S
C783 C786 1.463 . S
C783 C788 1.350 . S
C783 N791 1.427 . S
C784 H775 0.930 . S
C784 C782 1.378 . S
C784 C785 1.367 . S
C785 C784 1.367 . S
C785 C787 1.433 . S
C786 C782 1.350 . S
C786 C783 1.463 . S
C786 N790 1.427 . S
C787 H777 0.929 . S
C787 C785 1.433 . S
C787 N790 1.384 . S
C788 H779 0.929 . S
C788 C780 1.378 . S
C788 C783 1.350 . S
C789 H776 0.929 . S
C789 C781 1.433 . S
C789 N791 1.384 . S
N790 C786 1.427 . S
N790 C787 1.384 . S
N791 C783 1.427 . S
N791 C789 1.384 . S
H792 C798 0.930 . S
H793 C802 0.930 . S
H794 C807 0.929 . S
H795 C805 0.929 . S
H796 C800 0.929 . S
H797 C806 0.929 . S
C798 H792 0.930 . S
C798 C799 1.367 . S
C798 C806 1.378 . S
C799 C798 1.367 . S
C799 C807 1.433 . S
C800 H796 0.929 . S
C800 C802 1.378 . S
C800 C804 1.350 . S
C801 C804 1.463 . S
C801 C806 1.350 . S
C801 N809 1.427 . S
C802 H793 0.930 . S
C802 C800 1.378 . S
C802 C803 1.367 . S
C803 C802 1.367 . S
C803 C805 1.433 . S
C804 C800 1.350 . S
C804 C801 1.463 . S
C804 N808 1.427 . S
C805 H795 0.929 . S
C805 C803 1.433 . S
C805 N808 1.384 . S
C806 H797 0.929 . S
C806 C798 1.378 . S
C806 C801 1.350 . S
C807 H794 0.929 . S
C807 C799 1.433 . S
C807 N809 1.384 . S
N808 C804 1.427 . S
N808 C805 1.384 . S
N809 C801 1.427 . S
N809 C807 1.384 . S
H810 C816 0.930 . S
H811 C820 0.930 . S
H812 C825 0.929 . S
H813 C823 0.929 . S
H814 C818 0.929 . S
H815 C824 0.929 . S
C816 H810 0.930 . S
C816 C817 1.367 . S
C816 C824 1.378 . S
C817 C816 1.367 . S
C817 C825 1.433 . S
C818 H814 0.929 . S
C818 C820 1.378 . S
C818 C822 1.350 . S
C819 C822 1.463 . S
C819 C824 1.350 . S
C819 N827 1.427 . S
C820 H811 0.930 . S
C820 C818 1.378 . S
C820 C821 1.367 . S
C821 C820 1.367 . S
C821 C823 1.433 . S
C822 C818 1.350 . S
C822 C819 1.463 . S
C822 N826 1.427 . S
C823 H813 0.929 . S
C823 C821 1.433 . S
C823 N826 1.384 . S
C824 H815 0.929 . S
C824 C816 1.378 . S
C824 C819 1.350 . S
C825 H812 0.929 . S
C825 C817 1.433 . S
C825 N827 1.384 . S
N826 C822 1.427 . S
N826 C823 1.384 . S
N827 C819 1.427 . S
N827 C825 1.384 . S
C403 C255 1.956 . S
C407 C327 1.926 . S
C425 C351 1.412 . S
C421 C294 1.589 . S
C443 C372 1.894 . S
C439 C177 1.932 . S
C461 C390 1.444 . S
C457 C216 1.613 . S
C479 C330 1.818 1_565 S
C475 C99 1.869 . S
C493 C138 1.477 . S
C497 C348 1.296 . S
C511 C21 1.858 . S
C515 C369 1.790 . S
C529 C60 1.498 1_455 S
C533 C393 1.329 . S
C551 C328 0.440 . S
C547 C196 0.384 1_455 S
C569 C346 0.758 . S
C565 C235 0.753 . S
C587 C367 0.449 . S
C583 C289 0.384 . S
C601 C157 0.755 . S
C605 C391 0.758 . S
C619 C40 0.405 . S
C623 C326 0.425 . S
C641 C350 0.788 1_565 S
C637 C79 0.771 . S
C659 C371 0.432 . S
C655 C133 0.411 . S
C673 C1 0.803 . S
C677 C389 0.802 . S
C691 C211 1.912 . S
C695 C329 1.919 . S
C709 C250 2.131 . S
C713 C347 2.170 . S
C731 C368 1.890 . S
C727 C274 1.880 . S
C749 C392 2.190 . S
C745 C172 2.149 . S
C763 C55 1.783 1_655 S
C767 C325 1.792 . S
C785 C349 2.021 . S
C781 C94 1.992 . S
C803 C370 1.752 . S
C799 C118 1.753 . S
C817 C16 1.999 . S
C821 C388 2.042 . S
