# Generated by pormake.
# Topology ctn, (3,4)-cn, num edge types: 1
# Building blocks:
#     Node 0, Type 0, BuildingBlock: BETDAH_clean_linker_0, # of connection points: 3
#     Node 1, Type 0, BuildingBlock: BETDAH_clean_linker_0, # of connection points: 3
#     Node 2, Type 0, BuildingBlock: BETDAH_clean_linker_0, # of connection points: 3
#     Node 3, Type 0, BuildingBlock: BETDAH_clean_linker_0, # of connection points: 3
#     Node 4, Type 0, BuildingBlock: BETDAH_clean_linker_0, # of connection points: 3
#     Node 5, Type 0, BuildingBlock: BETDAH_clean_linker_0, # of connection points: 3
#     Node 6, Type 0, BuildingBlock: BETDAH_clean_linker_0, # of connection points: 3
#     Node 7, Type 0, BuildingBlock: BETDAH_clean_linker_0, # of connection points: 3
#     Node 8, Type 0, BuildingBlock: BETDAH_clean_linker_0, # of connection points: 3
#     Node 9, Type 0, BuildingBlock: BETDAH_clean_linker_0, # of connection points: 3
#     Node 10, Type 0, BuildingBlock: BETDAH_clean_linker_0, # of connection points: 3
#     Node 11, Type 0, BuildingBlock: BETDAH_clean_linker_0, # of connection points: 3
#     Node 12, Type 0, BuildingBlock: BETDAH_clean_linker_0, # of connection points: 3
#     Node 13, Type 0, BuildingBlock: BETDAH_clean_linker_0, # of connection points: 3
#     Node 14, Type 0, BuildingBlock: BETDAH_clean_linker_0, # of connection points: 3
#     Node 15, Type 0, BuildingBlock: BETDAH_clean_linker_0, # of connection points: 3
#     Node 16, Type 1, BuildingBlock: QUQFOY_clean_sbu_1, # of connection points: 4
#     Node 17, Type 1, BuildingBlock: QUQFOY_clean_sbu_1, # of connection points: 4
#     Node 18, Type 1, BuildingBlock: QUQFOY_clean_sbu_1, # of connection points: 4
#     Node 19, Type 1, BuildingBlock: QUQFOY_clean_sbu_1, # of connection points: 4
#     Node 20, Type 1, BuildingBlock: QUQFOY_clean_sbu_1, # of connection points: 4
#     Node 21, Type 1, BuildingBlock: QUQFOY_clean_sbu_1, # of connection points: 4
#     Node 22, Type 1, BuildingBlock: QUQFOY_clean_sbu_1, # of connection points: 4
#     Node 23, Type 1, BuildingBlock: QUQFOY_clean_sbu_1, # of connection points: 4
#     Node 24, Type 1, BuildingBlock: QUQFOY_clean_sbu_1, # of connection points: 4
#     Node 25, Type 1, BuildingBlock: QUQFOY_clean_sbu_1, # of connection points: 4
#     Node 26, Type 1, BuildingBlock: QUQFOY_clean_sbu_1, # of connection points: 4
#     Node 27, Type 1, BuildingBlock: QUQFOY_clean_sbu_1, # of connection points: 4
#     Edge 28, Type (0, 1), None
#     Edge 29, Type (0, 1), None
#     Edge 30, Type (0, 1), None
#     Edge 31, Type (0, 1), None
#     Edge 32, Type (0, 1), None
#     Edge 33, Type (0, 1), None
#     Edge 34, Type (0, 1), None
#     Edge 35, Type (0, 1), None
#     Edge 36, Type (0, 1), None
#     Edge 37, Type (0, 1), None
#     Edge 38, Type (0, 1), None
#     Edge 39, Type (0, 1), None
#     Edge 40, Type (0, 1), None
#     Edge 41, Type (0, 1), None
#     Edge 42, Type (0, 1), None
#     Edge 43, Type (0, 1), None
#     Edge 44, Type (0, 1), None
#     Edge 45, Type (0, 1), None
#     Edge 46, Type (0, 1), None
#     Edge 47, Type (0, 1), None
#     Edge 48, Type (0, 1), None
#     Edge 49, Type (0, 1), None
#     Edge 50, Type (0, 1), None
#     Edge 51, Type (0, 1), None
#     Edge 52, Type (0, 1), None
#     Edge 53, Type (0, 1), None
#     Edge 54, Type (0, 1), None
#     Edge 55, Type (0, 1), None
#     Edge 56, Type (0, 1), None
#     Edge 57, Type (0, 1), None
#     Edge 58, Type (0, 1), None
#     Edge 59, Type (0, 1), None
#     Edge 60, Type (0, 1), None
#     Edge 61, Type (0, 1), None
#     Edge 62, Type (0, 1), None
#     Edge 63, Type (0, 1), None
#     Edge 64, Type (0, 1), None
#     Edge 65, Type (0, 1), None
#     Edge 66, Type (0, 1), None
#     Edge 67, Type (0, 1), None
#     Edge 68, Type (0, 1), None
#     Edge 69, Type (0, 1), None
#     Edge 70, Type (0, 1), None
#     Edge 71, Type (0, 1), None
#     Edge 72, Type (0, 1), None
#     Edge 73, Type (0, 1), None
#     Edge 74, Type (0, 1), None
#     Edge 75, Type (0, 1), None
# Relax obj value: 0.079
# Max RMSD: 0.184
# Mean RMSD: 0.107
data_MOF--net-ctn--node1-QUQFOY_clean_sbu_1--node2-BETDAH_clean_linker_0--edge1-none
_symmetry_space_group_name_H-M    P1
_symmetry_Int_Tables_number       1
_symmetry_cell_setting            triclinic
loop_
_symmetry_equiv_pos_as_xyz
'x, y, z'
_cell_length_a     23.993583
_cell_length_b     23.667948
_cell_length_c     24.541629
_cell_angle_alpha  105.31935
_cell_angle_beta   90.492791
_cell_angle_gamma 101.91984
loop_
_atom_site_label
_atom_site_type_symbol
_atom_site_fract_x
_atom_site_fract_y
_atom_site_fract_z
_atom_type_partial_charge
H0 H 0.10546 0.99379 0.16321 0.0
H1 H 0.16958 0.08472 0.03911 0.0
H2 H 0.05273 0.15561 0.15555 0.0
C3 C 0.1068 0.03053 0.14429 0.0
C4 C 0.07397 0.07378 0.16492 0.0
C5 C 0.14044 0.03343 0.09831 0.0
C6 C 0.14263 0.08094 0.07378 0.0
C7 C 0.11126 0.12473 0.09436 0.0
C8 C 0.0769 0.12137 0.13993 0.0
N9 N 0.11764 0.17409 0.07113 0.0
C10 C 0.07682 0.17853 0.03301 0.0
H11 H 0.35008 0.61605 0.2942 0.0
H12 H 0.39782 0.80184 0.29235 0.0
H13 H 0.22563 0.70581 0.24829 0.0
C14 C 0.33996 0.65509 0.28457 0.0
C15 C 0.28366 0.6535 0.2671 0.0
C16 C 0.38206 0.70833 0.29343 0.0
C17 C 0.36714 0.75937 0.28307 0.0
C18 C 0.31075 0.75829 0.2674 0.0
C19 C 0.26958 0.70527 0.25837 0.0
N20 N 0.29332 0.81245 0.27031 0.0
C21 C 0.30115 0.83925 0.22644 0.0
H22 H 0.05362 0.40103 0.08538 0.0
H23 H 0.95434 0.53331 0.15039 0.0
H24 H 0.90002 0.39977 0.99254 0.0
C25 C 0.01659 0.4198 0.08174 0.0
C26 C 0.97799 0.39481 0.03438 0.0
C27 C 0.00849 0.46984 0.12351 0.0
C28 C 0.96112 0.49456 0.11809 0.0
C29 C 0.92229 0.46966 0.07094 0.0
C30 C 0.93024 0.4192 0.02911 0.0
N31 N 0.87413 0.49436 0.06747 0.0
C32 C 0.87003 0.53007 0.0316 0.0
H33 H 0.85124 0.89973 0.16249 0.0
H34 H 0.74589 0.73721 0.18278 0.0
H35 H 0.78081 0.89441 0.32329 0.0
C36 C 0.82492 0.87619 0.18874 0.0
C37 C 0.81958 0.90522 0.24599 0.0
C38 C 0.79787 0.81585 0.16589 0.0
C39 C 0.7656 0.78438 0.19992 0.0
C40 C 0.75852 0.81294 0.25605 0.0
C41 C 0.78455 0.87359 0.27889 0.0
N42 N 0.73102 0.77802 0.29067 0.0
C43 C 0.6825 0.78914 0.31795 0.0
H44 H 0.11085 0.11783 0.42975 0.0
H45 H 0.17583 -0.00014 0.50727 0.0
H46 H 0.99648 0.96458 0.45989 0.0
C47 C 0.10311 0.07963 0.44739 0.0
C48 C 0.04802 0.04432 0.44343 0.0
C49 C 0.14886 0.06398 0.47076 0.0
C50 C 0.13986 0.01312 0.49092 0.0
C51 C 0.08478 0.97846 0.48936 0.0
C52 C 0.03841 0.99407 0.46556 0.0
N53 N 0.07946 0.92229 0.50106 0.0
C54 C 0.04785 0.90416 0.54295 0.0
H55 H 0.3129 0.72231 0.96885 0.0
H56 H 0.21913 0.81001 0.87847 0.0
H57 H 0.31911 0.68907 0.78829 0.0
C58 C 0.29898 0.72913 0.92936 0.0
C59 C 0.31894 0.69958 0.87848 0.0
C60 C 0.26401 0.77015 0.93008 0.0
C61 C 0.24537 0.77786 0.87852 0.0
C62 C 0.26572 0.74897 0.8274 0.0
C63 C 0.30352 0.71117 0.82787 0.0
N64 N 0.25159 0.75993 0.77544 0.0
C65 C 0.1984 0.7689 0.76149 0.0
H66 H 0.92392 0.60141 0.62055 0.0
H67 H 0.01834 0.64793 0.4841 0.0
H68 H 0.89458 0.48177 0.45264 0.0
C69 C 0.93483 0.58988 0.57676 0.0
C70 C 0.90535 0.53669 0.53912 0.0
C71 C 0.97466 0.63071 0.5568 0.0
C72 C 0.98788 0.61629 0.4998 0.0
C73 C 0.9597 0.56138 0.46279 0.0
C74 C 0.91745 0.52305 0.48214 0.0
N75 N 0.97078 0.54442 0.40517 0.0
C76 C 0.02541 0.54971 0.38676 0.0
H77 H 0.93141 0.76166 0.84621 0.0
H78 H 0.83809 0.83045 0.73577 0.0
H79 H 0.75196 0.75623 0.86089 0.0
C80 C 0.89257 0.7725 0.83314 0.0
C81 C 0.84249 0.75827 0.86059 0.0
C82 C 0.89205 0.79974 0.78831 0.0
C83 C 0.84038 0.81191 0.77144 0.0
C84 C 0.79008 0.79568 0.79742 0.0
C85 C 0.79146 0.76948 0.84187 0.0
N86 N 0.73674 0.79947 0.77528 0.0
C87 C 0.72111 0.85406 0.78238 0.0
H88 H 0.42874 0.25967 0.34473 0.0
H89 H 0.33538 0.32428 0.23079 0.0
H90 H 0.24954 0.25574 0.35931 0.0
C91 C 0.3899 0.27001 0.33099 0.0
C92 C 0.33996 0.25711 0.35896 0.0
C93 C 0.38928 0.29538 0.28491 0.0
C94 C 0.33765 0.30694 0.26724 0.0
C95 C 0.28748 0.29212 0.29389 0.0
C96 C 0.28892 0.26781 0.33965 0.0
N97 N 0.23432 0.29628 0.27173 0.0
C98 C 0.21927 0.3512 0.2794 0.0
H99 H 0.55335 0.8983 0.58805 0.0
H100 H 0.45552 0.03378 0.64539 0.0
H101 H 0.40017 0.89295 0.49254 0.0
C102 C 0.51637 0.91673 0.5832 0.0
C103 C 0.47781 0.88983 0.53604 0.0
C104 C 0.50861 0.96853 0.62282 0.0
C105 C 0.4618 0.99336 0.61515 0.0
C106 C 0.42271 0.966 0.56843 0.0
C107 C 0.43012 0.9136 0.52919 0.0
N108 N 0.37563 0.99105 0.56136 0.0
C109 C 0.3791 0.03439 0.53218 0.0
H110 H 0.35017 0.40099 0.66368 0.0
H111 H 0.24732 0.23723 0.68398 0.0
H112 H 0.28199 0.394 0.82503 0.0
C113 C 0.32464 0.37697 0.69007 0.0
C114 C 0.31987 0.40552 0.74754 0.0
C115 C 0.2982 0.31647 0.66716 0.0
C116 C 0.2668 0.28443 0.70129 0.0
C117 C 0.2598 0.31268 0.75756 0.0
C118 C 0.28552 0.37341 0.78054 0.0
N119 N 0.23235 0.27754 0.79206 0.0
C120 C 0.18348 0.28818 0.81897 0.0
H121 H 0.84857 0.11602 0.79643 0.0
H122 H 0.89873 0.30129 0.79337 0.0
H123 H 0.72573 0.20761 0.75038 0.0
C124 C 0.83899 0.15524 0.78671 0.0
C125 C 0.78285 0.15445 0.76935 0.0
C126 C 0.88175 0.20789 0.79498 0.0
C127 C 0.86754 0.2592 0.7845 0.0
C128 C 0.81134 0.25898 0.76917 0.0
C129 C 0.76952 0.20649 0.76045 0.0
N130 N 0.79496 0.3136 0.77181 0.0
C131 C 0.80069 0.33831 0.72649 0.0
H132 H 0.60423 0.49381 0.66344 0.0
H133 H 0.66743 0.58368 0.53823 0.0
H134 H 0.55325 0.6567 0.65672 0.0
C135 C 0.60574 0.53056 0.6445 0.0
C136 C 0.57349 0.57427 0.66545 0.0
C137 C 0.63891 0.533 0.59813 0.0
C138 C 0.64104 0.58038 0.57339 0.0
C139 C 0.61058 0.62487 0.59473 0.0
C140 C 0.57695 0.62208 0.64079 0.0
N141 N 0.61617 0.67395 0.57127 0.0
C142 C 0.57832 0.6738 0.52816 0.0
H143 H 0.61493 0.6159 0.92485 0.0
H144 H 0.67454 0.50037 0.00968 0.0
H145 H 0.4956 0.47078 0.96302 0.0
C146 C 0.60583 0.57911 0.94433 0.0
C147 C 0.54973 0.54678 0.94271 0.0
C148 C 0.65052 0.56303 0.9691 0.0
C149 C 0.63953 0.51411 0.99218 0.0
C150 C 0.58359 0.48173 0.99156 0.0
C151 C 0.53836 0.49834 0.96713 0.0
N152 N 0.57541 0.42637 0.00523 0.0
C153 C 0.54894 0.41525 0.05255 0.0
H154 H 0.8162 0.22445 0.47002 0.0
H155 H 0.71907 0.30944 0.38002 0.0
H156 H 0.81784 0.18767 0.28882 0.0
C157 C 0.80136 0.2306 0.43055 0.0
C158 C 0.8202 0.20021 0.37936 0.0
C159 C 0.76578 0.27108 0.4314 0.0
C160 C 0.74592 0.2778 0.37989 0.0
C161 C 0.76521 0.24817 0.32846 0.0
C162 C 0.80335 0.21068 0.32864 0.0
N163 N 0.7486 0.25705 0.27624 0.0
C164 C 0.69593 0.26922 0.26561 0.0
H165 H 0.4305 0.09586 0.11847 0.0
H166 H 0.51567 0.14883 0.97996 0.0
H167 H 0.39281 0.98222 0.94852 0.0
C168 C 0.43932 0.08588 0.07406 0.0
C169 C 0.40802 0.03394 0.03605 0.0
C170 C 0.47731 0.12813 0.05391 0.0
C171 C 0.48707 0.11601 0.996 0.0
C172 C 0.45766 0.06206 0.95855 0.0
C173 C 0.41718 0.0224 0.97837 0.0
N174 N 0.4644 0.04873 0.89995 0.0
C175 C 0.51665 0.04519 0.87756 0.0
O176 O 0.29915 0.82906 0.02188 0.0
Cd177 Cd 0.31368 0.89549 0.09781 0.0
Cd178 Cd 0.23933 0.92885 0.04168 0.0
O179 O 0.21975 0.84413 0.98794 0.0
O180 O 0.35138 0.86141 0.15012 0.0
O181 O 0.26699 0.88617 0.16305 0.0
C182 C 0.3071 0.86403 0.17913 0.0
C183 C 0.17463 0.98827 0.07613 0.0
C184 C 0.25813 0.8137 0.98406 0.0
C185 C 0.3614 0.99429 0.05427 0.0
O186 O 0.31456 0.97698 0.02449 0.0
O187 O 0.36871 0.97396 0.09603 0.0
O188 O 0.18508 0.97519 0.02339 0.0
O189 O 0.19782 0.96382 0.10908 0.0
O190 O 0.23734 0.57276 0.30265 0.0
Cd191 Cd 0.17558 0.49908 0.30936 0.0
Cd192 Cd 0.11711 0.54516 0.24606 0.0
O193 O 0.19338 0.59244 0.23282 0.0
O194 O 0.21584 0.4465 0.33888 0.0
O195 O 0.17329 0.42022 0.25236 0.0
C196 C 0.20248 0.40768 0.29032 0.0
C197 C 0.051 0.49829 0.17109 0.0
C198 C 0.23718 0.60177 0.26574 0.0
C199 C 0.0754 0.5483 0.35599 0.0
O200 O 0.08175 0.57699 0.31916 0.0
O201 O 0.1043 0.50902 0.35609 0.0
O202 O 0.06196 0.55565 0.19158 0.0
O203 O 0.079 0.46712 0.19235 0.0
O204 O 0.80929 0.74469 0.94738 0.0
Cd205 Cd 0.79258 0.7142 0.01837 0.0
Cd206 Cd 0.82632 0.62178 0.94611 0.0
O207 O 0.86156 0.68282 0.90204 0.0
O208 O 0.76237 0.77996 0.06959 0.0
O209 O 0.83866 0.75044 0.09303 0.0
C210 C 0.8021 0.78398 0.10673 0.0
C211 C 0.86498 0.57087 -0.00139 0.0
C212 C 0.8405 0.72893 0.90692 0.0
C213 C 0.70833 0.59853 0.97175 0.0
O214 O 0.74031 0.5862 0.9314 0.0
O215 O 0.72471 0.64377 0.01379 0.0
O216 O 0.86234 0.55275 0.94394 0.0
O217 O 0.85319 0.6222 0.02292 0.0
O218 O 0.01532 0.04555 0.35354 0.0
Cd219 Cd 0.97265 0.04979 0.28149 0.0
Cd220 Cd 0.89614 0.07335 0.36949 0.0
O221 O 0.95963 0.06845 0.42379 0.0
O222 O 0.0266 0.01807 0.22602 0.0
O223 O 0.00881 0.10745 0.23587 0.0
C224 C 0.03555 0.06683 0.21081 0.0
C225 C 0.85414 0.15474 0.37851 0.0
C226 C 0.00502 0.05307 0.40541 0.0
C227 C 0.8564 0.96472 0.27341 0.0
O228 O 0.84826 0.99236 0.32358 0.0
O229 O 0.90004 0.98392 0.24905 0.0
O230 O 0.844 0.12116 0.41262 0.0
O231 O 0.89113 0.14424 0.34115 0.0
O232 O 0.30841 0.24806 0.44747 0.0
Cd233 Cd 0.28942 0.21803 0.51806 0.0
Cd234 Cd 0.32651 0.12465 0.45079 0.0
O235 O 0.35782 0.18285 0.40247 0.0
O236 O 0.26334 0.28586 0.57068 0.0
O237 O 0.33534 0.24899 0.5929 0.0
C238 C 0.30149 0.28548 0.60758 0.0
C239 C 0.37118 0.07555 0.50061 0.0
C240 C 0.33819 0.22975 0.40658 0.0
C241 C 0.20597 0.10102 0.47371 0.0
O242 O 0.24143 0.08425 0.4383 0.0
O243 O 0.21868 0.15068 0.51134 0.0
O244 O 0.36537 0.05739 0.44598 0.0
O245 O 0.35846 0.12602 0.52624 0.0
O246 O 0.51604 0.54815 0.85332 0.0
Cd247 Cd 0.47208 0.55121 0.78181 0.0
Cd248 Cd 0.39633 0.57405 0.87014 0.0
O249 O 0.46093 0.57067 0.92409 0.0
O250 O 0.5257 0.51886 0.72647 0.0
O251 O 0.50815 0.60831 0.73587 0.0
C252 C 0.53492 0.56756 0.71118 0.0
C253 C 0.35327 0.65448 0.87801 0.0
C254 C 0.50656 0.55619 0.90535 0.0
C255 C 0.35647 0.46517 0.77485 0.0
O256 O 0.34884 0.49246 0.82527 0.0
O257 O 0.39949 0.48494 0.75 0.0
O258 O 0.34389 0.62167 0.91286 0.0
O259 O 0.39019 0.64386 0.8406 0.0
O260 O 0.80045 0.33108 0.52307 0.0
Cd261 Cd 0.81232 0.39702 0.59932 0.0
Cd262 Cd 0.73795 0.42871 0.54212 0.0
O263 O 0.71985 0.34358 0.48914 0.0
O264 O 0.85114 0.36383 0.65158 0.0
O265 O 0.76514 0.3848 0.66352 0.0
C266 C 0.80614 0.36396 0.67973 0.0
C267 C 0.67289 0.48762 0.57605 0.0
C268 C 0.75934 0.31452 0.48526 0.0
C269 C 0.85854 0.4969 0.5568 0.0
O270 O 0.81278 0.47766 0.5254 0.0
O271 O 0.86528 0.47725 0.59914 0.0
O272 O 0.68311 0.47412 0.52325 0.0
O273 O 0.69631 0.46361 0.60925 0.0
O274 O 0.73451 0.07444 0.8049 0.0
Cd275 Cd 0.67293 -0.00043 0.80981 0.0
Cd276 Cd 0.61634 0.04688 0.74553 0.0
O277 O 0.69317 0.09336 0.73305 0.0
O278 O 0.71285 0.94805 0.84144 0.0
O279 O 0.67491 0.92165 0.75306 0.0
C280 C 0.70269 0.90966 0.79237 0.0
C281 C 0.55092 -0.00162 0.67039 0.0
C282 C 0.73588 0.10303 0.76744 0.0
C283 C 0.56961 0.0462 0.85148 0.0
O284 O 0.58034 0.0787 0.81809 0.0
O285 O 0.59766 0.00612 0.85132 0.0
O286 O 0.56158 0.0559 0.68974 0.0
O287 O 0.57896 0.96813 0.69287 0.0
O288 O 0.95439 0.29465 0.97803 0.0
Cd289 Cd 0.98117 0.21913 0.93604 0.0
Cd290 Cd 0.04547 0.29377 0.88863 0.0
O291 O 0.03628 0.35115 0.96584 0.0
O292 O 0.98534 0.16778 0.98854 0.0
O293 O 0.06102 0.22057 0.95887 0.0
C294 C 0.03999 0.18751 0.99109 0.0
C295 C 0.13257 0.29272 0.84843 0.0
C296 C 0.98953 0.34483 0.98994 0.0
C297 C 0.93649 0.21478 0.82681 0.0
O298 O 0.97265 0.26431 0.83538 0.0
O299 O 0.94061 0.17935 0.85694 0.0
O300 O 0.10712 0.3359 0.84946 0.0
O301 O 0.10954 0.25114 0.87127 0.0
O302 O 0.45503 0.79021 0.47799 0.0
Cd303 Cd 0.48238 0.71616 0.4333 0.0
Cd304 Cd 0.54516 0.7936 0.38865 0.0
O305 O 0.537 0.84779 0.46779 0.0
O306 O 0.48703 0.6627 0.48348 0.0
O307 O 0.56241 0.71746 0.45535 0.0
C308 C 0.54164 0.68279 0.48622 0.0
C309 C 0.63176 0.79317 0.34768 0.0
C310 C 0.49042 0.84022 0.49196 0.0
C311 C 0.43672 0.71569 0.32562 0.0
O312 O 0.47196 0.76599 0.33593 0.0
O313 O 0.44182 0.67883 0.35391 0.0
O314 O 0.607 0.83729 0.35088 0.0
O315 O 0.60826 0.75028 0.36869 0.0
O316 O 0.98265 0.78095 0.75949 0.0
Cd317 Cd 0.05013 0.76673 0.70902 0.0
Cd318 Cd 0.98849 0.81813 0.64246 0.0
O319 O 0.9401 0.83015 0.71248 0.0
O320 O 0.09891 0.73233 0.75246 0.0
O321 O 0.13196 0.8141 0.72512 0.0
C322 C 0.14137 0.77363 0.74822 0.0
C323 C 0.0245 0.88382 0.58997 0.0
C324 C 0.94219 0.80667 0.75346 0.0
C325 C 0.99602 0.69042 0.5948 0.0
O326 O 0.97222 0.73238 0.59095 0.0
O327 O 0.02956 0.69625 0.63705 0.0
O328 O 0.97013 0.86507 0.59032 0.0
O329 O 0.0578 0.87153 0.62485 0.0
O330 O 0.48113 0.27853 0.25902 0.0
Cd331 Cd 0.5482 0.26318 0.20884 0.0
Cd332 Cd 0.49049 0.3152 0.1412 0.0
O333 O 0.43739 0.32265 0.20775 0.0
O334 O 0.59684 0.23072 0.25407 0.0
O335 O 0.62986 0.3109 0.22418 0.0
C336 C 0.63913 0.27196 0.24934 0.0
C337 C 0.52498 0.38776 0.09516 0.0
C338 C 0.43962 0.30167 0.25035 0.0
C339 C 0.49886 0.18742 0.09287 0.0
O340 O 0.4793 0.23114 0.08628 0.0
O341 O 0.52715 0.19148 0.1381 0.0
O342 O 0.47142 0.36304 0.09053 0.0
O343 O 0.55812 0.37576 0.13034 0.0
loop_
_geom_bond_atom_site_label_1
_geom_bond_atom_site_label_2
_geom_bond_distance
_geom_bond_site_symmetry_2
_ccdc_geom_bond_type
H0 C3 0.929 . S
H1 C6 0.929 . S
H2 C8 0.930 . S
C3 H0 0.929 . S
C3 C4 1.398 . S
C3 C5 1.396 . S
C4 C3 1.398 . S
C4 C8 1.407 . S
C5 C3 1.396 . S
C5 C6 1.394 . S
C6 H1 0.929 . S
C6 C5 1.394 . S
C6 C7 1.382 . S
C7 C6 1.382 . S
C7 C8 1.392 . S
C7 N9 1.420 . S
C8 H2 0.930 . S
C8 C4 1.407 . S
C8 C7 1.392 . S
N9 C7 1.420 . S
N9 C10 1.244 . S
C10 N9 1.244 . S
H11 C14 0.929 . S
H12 C17 0.929 . S
H13 C19 0.930 . S
C14 H11 0.929 . S
C14 C15 1.398 . S
C14 C16 1.396 . S
C15 C14 1.398 . S
C15 C19 1.407 . S
C16 C14 1.396 . S
C16 C17 1.394 . S
C17 H12 0.929 . S
C17 C16 1.394 . S
C17 C18 1.382 . S
C18 C17 1.382 . S
C18 C19 1.392 . S
C18 N20 1.420 . S
C19 H13 0.930 . S
C19 C15 1.407 . S
C19 C18 1.392 . S
N20 C18 1.420 . S
N20 C21 1.244 . S
C21 N20 1.244 . S
H22 C25 0.929 . S
H23 C28 0.929 . S
H24 C30 0.930 1_556 S
C25 H22 0.929 . S
C25 C26 1.398 . S
C25 C27 1.396 . S
C26 C25 1.398 . S
C26 C30 1.407 . S
C27 C25 1.396 . S
C27 C28 1.394 . S
C28 H23 0.929 . S
C28 C27 1.394 . S
C28 C29 1.382 . S
C29 C28 1.382 . S
C29 C30 1.392 . S
C29 N31 1.420 . S
C30 H24 0.930 1_554 S
C30 C26 1.407 . S
C30 C29 1.392 . S
N31 C29 1.420 . S
N31 C32 1.244 . S
C32 N31 1.244 . S
H33 C36 0.929 . S
H34 C39 0.929 . S
H35 C41 0.930 . S
C36 H33 0.929 . S
C36 C37 1.398 . S
C36 C38 1.396 . S
C37 C36 1.398 . S
C37 C41 1.407 . S
C38 C36 1.396 . S
C38 C39 1.394 . S
C39 H34 0.929 . S
C39 C38 1.394 . S
C39 C40 1.382 . S
C40 C39 1.382 . S
C40 C41 1.392 . S
C40 N42 1.420 . S
C41 H35 0.930 . S
C41 C37 1.407 . S
C41 C40 1.392 . S
N42 C40 1.420 . S
N42 C43 1.244 . S
C43 N42 1.244 . S
H44 C47 0.929 . S
H45 C50 0.929 . S
H46 C52 0.930 . S
C47 H44 0.929 . S
C47 C48 1.402 . S
C47 C49 1.396 . S
C48 C47 1.402 . S
C48 C52 1.393 1_545 S
C49 C47 1.396 . S
C49 C50 1.394 1_545 S
C50 H45 0.929 . S
C50 C49 1.394 1_565 S
C50 C51 1.382 . S
C51 C50 1.382 . S
C51 C52 1.392 . S
C51 N53 1.420 . S
C52 H46 0.930 . S
C52 C48 1.393 1_565 S
C52 C51 1.392 . S
N53 C51 1.420 . S
N53 C54 1.244 . S
C54 N53 1.244 . S
H55 C58 0.929 . S
H56 C61 0.929 . S
H57 C63 0.930 . S
C58 H55 0.929 . S
C58 C59 1.398 . S
C58 C60 1.396 . S
C59 C58 1.398 . S
C59 C63 1.407 . S
C60 C58 1.396 . S
C60 C61 1.394 . S
C61 H56 0.929 . S
C61 C60 1.394 . S
C61 C62 1.382 . S
C62 C61 1.382 . S
C62 C63 1.392 . S
C62 N64 1.420 . S
C63 H57 0.930 . S
C63 C59 1.407 . S
C63 C62 1.392 . S
N64 C62 1.420 . S
N64 C65 1.244 . S
C65 N64 1.244 . S
H66 C69 0.929 . S
H67 C72 0.929 1_455 S
H68 C74 0.930 . S
C69 H66 0.929 . S
C69 C70 1.398 . S
C69 C71 1.396 . S
C70 C69 1.398 . S
C70 C74 1.407 . S
C71 C69 1.396 . S
C71 C72 1.394 . S
C72 H67 0.929 1_655 S
C72 C71 1.394 . S
C72 C73 1.382 . S
C73 C72 1.382 . S
C73 C74 1.392 . S
C73 N75 1.420 . S
C74 H68 0.930 . S
C74 C70 1.407 . S
C74 C73 1.392 . S
N75 C73 1.420 . S
N75 C76 1.244 1_655 S
C76 N75 1.244 1_455 S
H77 C80 0.929 . S
H78 C83 0.929 . S
H79 C85 0.930 . S
C80 H77 0.929 . S
C80 C81 1.398 . S
C80 C82 1.396 . S
C81 C80 1.398 . S
C81 C85 1.407 . S
C82 C80 1.396 . S
C82 C83 1.394 . S
C83 H78 0.929 . S
C83 C82 1.394 . S
C83 C84 1.382 . S
C84 C83 1.382 . S
C84 C85 1.392 . S
C84 N86 1.420 . S
C85 H79 0.930 . S
C85 C81 1.407 . S
C85 C84 1.392 . S
N86 C84 1.420 . S
N86 C87 1.244 . S
C87 N86 1.244 . S
H88 C91 0.929 . S
H89 C94 0.929 . S
H90 C96 0.930 . S
C91 H88 0.929 . S
C91 C92 1.398 . S
C91 C93 1.396 . S
C92 C91 1.398 . S
C92 C96 1.407 . S
C93 C91 1.396 . S
C93 C94 1.394 . S
C94 H89 0.929 . S
C94 C93 1.394 . S
C94 C95 1.382 . S
C95 C94 1.382 . S
C95 C96 1.392 . S
C95 N97 1.420 . S
C96 H90 0.930 . S
C96 C92 1.407 . S
C96 C95 1.392 . S
N97 C95 1.420 . S
N97 C98 1.244 . S
C98 N97 1.244 . S
H99 C102 0.929 . S
H100 C105 0.929 . S
H101 C107 0.930 . S
C102 H99 0.929 . S
C102 C103 1.398 . S
C102 C104 1.396 . S
C103 C102 1.398 . S
C103 C107 1.407 . S
C104 C102 1.396 . S
C104 C105 1.394 . S
C105 H100 0.929 . S
C105 C104 1.394 . S
C105 C106 1.382 . S
C106 C105 1.382 . S
C106 C107 1.392 . S
C106 N108 1.420 . S
C107 H101 0.930 . S
C107 C103 1.407 . S
C107 C106 1.392 . S
N108 C106 1.420 . S
N108 C109 1.238 1_565 S
C109 N108 1.238 1_545 S
H110 C113 0.929 . S
H111 C116 0.929 . S
H112 C118 0.930 . S
C113 H110 0.929 . S
C113 C114 1.398 . S
C113 C115 1.396 . S
C114 C113 1.398 . S
C114 C118 1.407 . S
C115 C113 1.396 . S
C115 C116 1.394 . S
C116 H111 0.929 . S
C116 C115 1.394 . S
C116 C117 1.382 . S
C117 C116 1.382 . S
C117 C118 1.392 . S
C117 N119 1.420 . S
C118 H112 0.930 . S
C118 C114 1.407 . S
C118 C117 1.392 . S
N119 C117 1.420 . S
N119 C120 1.244 . S
C120 N119 1.244 . S
H121 C124 0.929 . S
H122 C127 0.929 . S
H123 C129 0.930 . S
C124 H121 0.929 . S
C124 C125 1.398 . S
C124 C126 1.396 . S
C125 C124 1.398 . S
C125 C129 1.407 . S
C126 C124 1.396 . S
C126 C127 1.394 . S
C127 H122 0.929 . S
C127 C126 1.394 . S
C127 C128 1.382 . S
C128 C127 1.382 . S
C128 C129 1.392 . S
C128 N130 1.420 . S
C129 H123 0.930 . S
C129 C125 1.407 . S
C129 C128 1.392 . S
N130 C128 1.420 . S
N130 C131 1.244 . S
C131 N130 1.244 . S
H132 C135 0.929 . S
H133 C138 0.929 . S
H134 C140 0.930 . S
C135 H132 0.929 . S
C135 C136 1.398 . S
C135 C137 1.396 . S
C136 C135 1.398 . S
C136 C140 1.407 . S
C137 C135 1.396 . S
C137 C138 1.394 . S
C138 H133 0.929 . S
C138 C137 1.394 . S
C138 C139 1.382 . S
C139 C138 1.382 . S
C139 C140 1.392 . S
C139 N141 1.420 . S
C140 H134 0.930 . S
C140 C136 1.407 . S
C140 C139 1.392 . S
N141 C139 1.420 . S
N141 C142 1.244 . S
C142 N141 1.244 . S
H143 C146 0.929 . S
H144 C149 0.929 . S
H145 C151 0.930 . S
C146 H143 0.929 . S
C146 C147 1.398 . S
C146 C148 1.396 . S
C147 C146 1.398 . S
C147 C151 1.407 . S
C148 C146 1.396 . S
C148 C149 1.394 . S
C149 H144 0.929 . S
C149 C148 1.394 . S
C149 C150 1.382 . S
C150 C149 1.382 . S
C150 C151 1.392 . S
C150 N152 1.420 . S
C151 H145 0.930 . S
C151 C147 1.407 . S
C151 C150 1.392 . S
N152 C150 1.420 . S
N152 C153 1.244 1_556 S
C153 N152 1.244 1_554 S
H154 C157 0.929 . S
H155 C160 0.929 . S
H156 C162 0.930 . S
C157 H154 0.929 . S
C157 C158 1.398 . S
C157 C159 1.396 . S
C158 C157 1.398 . S
C158 C162 1.407 . S
C159 C157 1.396 . S
C159 C160 1.394 . S
C160 H155 0.929 . S
C160 C159 1.394 . S
C160 C161 1.382 . S
C161 C160 1.382 . S
C161 C162 1.392 . S
C161 N163 1.420 . S
C162 H156 0.930 . S
C162 C158 1.407 . S
C162 C161 1.392 . S
N163 C161 1.420 . S
N163 C164 1.244 . S
C164 N163 1.244 . S
H165 C168 0.929 . S
H166 C171 0.929 . S
H167 C173 0.930 1_565 S
C168 H165 0.929 . S
C168 C169 1.398 . S
C168 C170 1.396 . S
C169 C168 1.398 . S
C169 C173 1.407 1_554 S
C170 C168 1.396 . S
C170 C171 1.394 1_554 S
C171 H166 0.929 . S
C171 C170 1.394 1_556 S
C171 C172 1.382 . S
C172 C171 1.382 . S
C172 C173 1.392 . S
C172 N174 1.420 . S
C173 H167 0.930 1_545 S
C173 C169 1.407 1_556 S
C173 C172 1.392 . S
N174 C172 1.420 . S
N174 C175 1.244 . S
C175 N174 1.244 . S
O176 Cd177 2.223 . S
O176 C184 1.315 . S
Cd177 O176 2.223 . S
Cd177 O180 2.297 . S
Cd177 O181 2.439 . S
Cd177 O187 2.240 1_565 S
Cd178 O179 2.240 . S
Cd178 O186 2.223 1_565 S
Cd178 O188 2.297 1_565 S
Cd178 O189 2.439 1_565 S
O179 Cd178 2.240 . S
O179 C184 1.279 . S
O180 Cd177 2.297 . S
O180 C182 1.247 . S
O181 Cd177 2.439 . S
O181 C182 1.208 . S
C182 O180 1.247 . S
C182 O181 1.208 . S
C183 O188 1.247 . S
C183 O189 1.208 . S
C184 O176 1.315 . S
C184 O179 1.279 . S
C185 O186 1.315 . S
C185 O187 1.279 . S
O186 Cd178 2.223 1_545 S
O186 C185 1.315 . S
O187 Cd177 2.240 1_545 S
O187 C185 1.279 . S
O188 Cd178 2.297 1_545 S
O188 C183 1.247 . S
O189 Cd178 2.439 1_545 S
O189 C183 1.208 . S
O190 Cd191 2.223 . S
O190 C198 1.315 . S
Cd191 O190 2.223 . S
Cd191 O194 2.297 . S
Cd191 O195 2.439 . S
Cd191 O201 2.240 . S
Cd192 O193 2.240 . S
Cd192 O200 2.223 . S
Cd192 O202 2.297 . S
Cd192 O203 2.439 . S
O193 Cd192 2.240 . S
O193 C198 1.279 . S
O194 Cd191 2.297 . S
O194 C196 1.247 . S
O195 Cd191 2.439 . S
O195 C196 1.208 . S
C196 O194 1.247 . S
C196 O195 1.208 . S
C197 O202 1.247 . S
C197 O203 1.208 . S
C198 O190 1.315 . S
C198 O193 1.279 . S
C199 O200 1.315 . S
C199 O201 1.279 . S
O200 Cd192 2.223 . S
O200 C199 1.315 . S
O201 Cd191 2.240 . S
O201 C199 1.279 . S
O202 Cd192 2.297 . S
O202 C197 1.247 . S
O203 Cd192 2.439 . S
O203 C197 1.208 . S
O204 Cd205 2.223 1_556 S
O204 C212 1.315 . S
Cd205 O204 2.223 1_554 S
Cd205 O208 2.297 . S
Cd205 O209 2.439 . S
Cd205 O215 2.240 1_554 S
Cd206 O207 2.240 . S
Cd206 O214 2.223 . S
Cd206 O216 2.297 . S
Cd206 O217 2.439 1_556 S
O207 Cd206 2.240 . S
O207 C212 1.279 . S
O208 Cd205 2.297 . S
O208 C210 1.247 . S
O209 Cd205 2.439 . S
O209 C210 1.208 . S
C210 O208 1.247 . S
C210 O209 1.208 . S
C211 O216 1.247 1_554 S
C211 O217 1.208 . S
C212 O204 1.315 . S
C212 O207 1.279 . S
C213 O214 1.315 . S
C213 O215 1.279 . S
O214 Cd206 2.223 . S
O214 C213 1.315 . S
O215 Cd205 2.240 1_556 S
O215 C213 1.279 . S
O216 Cd206 2.297 . S
O216 C211 1.247 1_556 S
O217 Cd206 2.439 1_554 S
O217 C211 1.208 . S
O218 Cd219 2.223 1_465 S
O218 C226 1.315 1_565 S
Cd219 O218 2.223 1_645 S
Cd219 O222 2.297 1_655 S
Cd219 O223 2.439 1_655 S
Cd219 O229 2.240 . S
Cd220 O221 2.240 1_655 S
Cd220 O228 2.223 . S
Cd220 O230 2.297 . S
Cd220 O231 2.439 . S
O221 Cd220 2.240 1_455 S
O221 C226 1.279 . S
O222 Cd219 2.297 1_455 S
O222 C224 1.247 . S
O223 Cd219 2.439 1_455 S
O223 C224 1.208 . S
C224 O222 1.247 . S
C224 O223 1.208 . S
C225 O230 1.247 . S
C225 O231 1.208 . S
C226 O218 1.315 1_545 S
C226 O221 1.279 . S
C227 O228 1.315 1_565 S
C227 O229 1.279 1_565 S
O228 Cd220 2.223 . S
O228 C227 1.315 1_545 S
O229 Cd219 2.240 . S
O229 C227 1.279 1_545 S
O230 Cd220 2.297 . S
O230 C225 1.247 . S
O231 Cd220 2.439 . S
O231 C225 1.208 . S
O232 Cd233 2.223 . S
O232 C240 1.315 . S
Cd233 O232 2.223 . S
Cd233 O236 2.297 . S
Cd233 O237 2.439 . S
Cd233 O243 2.240 . S
Cd234 O235 2.240 . S
Cd234 O242 2.223 . S
Cd234 O244 2.297 . S
Cd234 O245 2.439 . S
O235 Cd234 2.240 . S
O235 C240 1.279 . S
O236 Cd233 2.297 . S
O236 C238 1.247 . S
O237 Cd233 2.439 . S
O237 C238 1.208 . S
C238 O236 1.247 . S
C238 O237 1.208 . S
C239 O244 1.247 . S
C239 O245 1.208 . S
C240 O232 1.315 . S
C240 O235 1.279 . S
C241 O242 1.315 . S
C241 O243 1.279 . S
O242 Cd234 2.223 . S
O242 C241 1.315 . S
O243 Cd233 2.240 . S
O243 C241 1.279 . S
O244 Cd234 2.297 . S
O244 C239 1.247 . S
O245 Cd234 2.439 . S
O245 C239 1.208 . S
O246 Cd247 2.223 . S
O246 C254 1.315 . S
Cd247 O246 2.223 . S
Cd247 O250 2.297 . S
Cd247 O251 2.439 . S
Cd247 O257 2.240 . S
Cd248 O249 2.240 . S
Cd248 O256 2.223 . S
Cd248 O258 2.297 . S
Cd248 O259 2.439 . S
O249 Cd248 2.240 . S
O249 C254 1.279 . S
O250 Cd247 2.297 . S
O250 C252 1.247 . S
O251 Cd247 2.439 . S
O251 C252 1.208 . S
C252 O250 1.247 . S
C252 O251 1.208 . S
C253 O258 1.247 . S
C253 O259 1.208 . S
C254 O246 1.315 . S
C254 O249 1.279 . S
C255 O256 1.315 . S
C255 O257 1.279 . S
O256 Cd248 2.223 . S
O256 C255 1.315 . S
O257 Cd247 2.240 . S
O257 C255 1.279 . S
O258 Cd248 2.297 . S
O258 C253 1.247 . S
O259 Cd248 2.439 . S
O259 C253 1.208 . S
O260 Cd261 2.223 . S
O260 C268 1.315 . S
Cd261 O260 2.223 . S
Cd261 O264 2.297 . S
Cd261 O265 2.439 . S
Cd261 O271 2.240 . S
Cd262 O263 2.240 . S
Cd262 O270 2.223 . S
Cd262 O272 2.297 . S
Cd262 O273 2.439 . S
O263 Cd262 2.240 . S
O263 C268 1.279 . S
O264 Cd261 2.297 . S
O264 C266 1.247 . S
O265 Cd261 2.439 . S
O265 C266 1.208 . S
C266 O264 1.247 . S
C266 O265 1.208 . S
C267 O272 1.247 . S
C267 O273 1.208 . S
C268 O260 1.315 . S
C268 O263 1.279 . S
C269 O270 1.315 . S
C269 O271 1.279 . S
O270 Cd262 2.223 . S
O270 C269 1.315 . S
O271 Cd261 2.240 . S
O271 C269 1.279 . S
O272 Cd262 2.297 . S
O272 C267 1.247 . S
O273 Cd262 2.439 . S
O273 C267 1.208 . S
O274 Cd275 2.223 1_545 S
O274 C282 1.315 . S
Cd275 O274 2.223 1_565 S
Cd275 O278 2.297 . S
Cd275 O279 2.439 . S
Cd275 O285 2.240 1_565 S
Cd276 O277 2.240 . S
Cd276 O284 2.223 . S
Cd276 O286 2.297 1_545 S
Cd276 O287 2.439 1_545 S
O277 Cd276 2.240 . S
O277 C282 1.279 . S
O278 Cd275 2.297 . S
O278 C280 1.247 . S
O279 Cd275 2.439 . S
O279 C280 1.208 . S
C280 O278 1.247 . S
C280 O279 1.208 . S
C281 O286 1.247 . S
C281 O287 1.208 . S
C282 O274 1.315 . S
C282 O277 1.279 . S
C283 O284 1.315 . S
C283 O285 1.279 . S
O284 Cd276 2.223 . S
O284 C283 1.315 . S
O285 Cd275 2.240 1_545 S
O285 C283 1.279 . S
O286 Cd276 2.297 1_565 S
O286 C281 1.247 . S
O287 Cd276 2.439 1_565 S
O287 C281 1.208 . S
O288 Cd289 2.223 . S
O288 C296 1.315 . S
Cd289 O288 2.223 . S
Cd289 O292 2.297 1_656 S
Cd289 O293 2.439 1_655 S
Cd289 O299 2.240 . S
Cd290 O291 2.240 . S
Cd290 O298 2.223 1_455 S
Cd290 O300 2.297 . S
Cd290 O301 2.439 . S
O291 Cd290 2.240 . S
O291 C296 1.279 1_455 S
O292 Cd289 2.297 1_454 S
O292 C294 1.247 . S
O293 Cd289 2.439 1_455 S
O293 C294 1.208 1_556 S
C294 O292 1.247 . S
C294 O293 1.208 1_554 S
C295 O300 1.247 . S
C295 O301 1.208 . S
C296 O288 1.315 . S
C296 O291 1.279 1_655 S
C297 O298 1.315 . S
C297 O299 1.279 . S
O298 Cd290 2.223 1_655 S
O298 C297 1.315 . S
O299 Cd289 2.240 . S
O299 C297 1.279 . S
O300 Cd290 2.297 . S
O300 C295 1.247 . S
O301 Cd290 2.439 . S
O301 C295 1.208 . S
O302 Cd303 2.223 . S
O302 C310 1.315 . S
Cd303 O302 2.223 . S
Cd303 O306 2.297 . S
Cd303 O307 2.439 . S
Cd303 O313 2.240 . S
Cd304 O305 2.240 . S
Cd304 O312 2.223 . S
Cd304 O314 2.297 . S
Cd304 O315 2.439 . S
O305 Cd304 2.240 . S
O305 C310 1.279 . S
O306 Cd303 2.297 . S
O306 C308 1.247 . S
O307 Cd303 2.439 . S
O307 C308 1.208 . S
C308 O306 1.247 . S
C308 O307 1.208 . S
C309 O314 1.247 . S
C309 O315 1.208 . S
C310 O302 1.315 . S
C310 O305 1.279 . S
C311 O312 1.315 . S
C311 O313 1.279 . S
O312 Cd304 2.223 . S
O312 C311 1.315 . S
O313 Cd303 2.240 . S
O313 C311 1.279 . S
O314 Cd304 2.297 . S
O314 C309 1.247 . S
O315 Cd304 2.439 . S
O315 C309 1.208 . S
O316 Cd317 2.223 1_655 S
O316 C324 1.315 . S
Cd317 O316 2.223 1_455 S
Cd317 O320 2.297 . S
Cd317 O321 2.439 . S
Cd317 O327 2.240 . S
Cd318 O319 2.240 . S
Cd318 O326 2.223 . S
Cd318 O328 2.297 1_655 S
Cd318 O329 2.439 1_655 S
O319 Cd318 2.240 . S
O319 C324 1.279 . S
O320 Cd317 2.297 . S
O320 C322 1.247 . S
O321 Cd317 2.439 . S
O321 C322 1.208 . S
C322 O320 1.247 . S
C322 O321 1.208 . S
C323 O328 1.247 . S
C323 O329 1.208 . S
C324 O316 1.315 . S
C324 O319 1.279 . S
C325 O326 1.315 . S
C325 O327 1.279 1_655 S
O326 Cd318 2.223 . S
O326 C325 1.315 . S
O327 Cd317 2.240 . S
O327 C325 1.279 1_455 S
O328 Cd318 2.297 1_455 S
O328 C323 1.247 . S
O329 Cd318 2.439 1_455 S
O329 C323 1.208 . S
O330 Cd331 2.223 . S
O330 C338 1.315 . S
Cd331 O330 2.223 . S
Cd331 O334 2.297 . S
Cd331 O335 2.439 . S
Cd331 O341 2.240 . S
Cd332 O333 2.240 . S
Cd332 O340 2.223 . S
Cd332 O342 2.297 . S
Cd332 O343 2.439 . S
O333 Cd332 2.240 . S
O333 C338 1.279 . S
O334 Cd331 2.297 . S
O334 C336 1.247 . S
O335 Cd331 2.439 . S
O335 C336 1.208 . S
C336 O334 1.247 . S
C336 O335 1.208 . S
C337 O342 1.247 . S
C337 O343 1.208 . S
C338 O330 1.315 . S
C338 O333 1.279 . S
C339 O340 1.315 . S
C339 O341 1.279 . S
O340 Cd332 2.223 . S
O340 C339 1.315 . S
O341 Cd331 2.240 . S
O341 C339 1.279 . S
O342 Cd332 2.297 . S
O342 C337 1.247 . S
O343 Cd332 2.439 . S
O343 C337 1.208 . S
C184 C60 1.746 1_554 S
C199 C76 1.718 . S
C81 C212 2.112 . S
C226 C48 1.572 . S
C238 C115 1.811 . S
C252 C136 1.380 . S
C131 C266 1.564 . S
C281 C104 1.455 . S
C126 C297 1.785 . S
C310 C103 1.458 . S
C120 C295 1.427 . S
C308 C142 2.176 . S
C82 C324 1.973 . S
C54 C323 1.838 . S
C65 C322 1.549 . S
C71 C325 1.380 . S
C37 C227 2.219 . S
C158 C225 1.813 . S
C185 C169 1.459 . S
C196 C98 1.559 . S
C49 C241 1.932 . S
C282 C125 1.982 . S
C239 C109 2.073 . S
C267 C137 1.689 . S
C268 C159 1.745 . S
C175 C283 1.717 . S
C92 C240 2.111 . S
C254 C147 1.558 . S
C38 C210 1.811 . S
C224 C4 1.381 . S
C182 C21 1.565 . S
C197 C27 1.455 1_455 S
C16 C311 1.785 . S
C26 C296 1.459 1_554 S
C43 C309 1.427 . S
C10 C294 2.176 . S
C338 C93 1.973 . S
C337 C153 1.838 . S
C336 C164 1.549 . S
C170 C339 1.380 . S
C114 C255 2.219 . S
C253 C59 1.813 . S
C269 C70 1.459 . S
C280 C87 1.561 . S
C148 C213 1.932 . S
C198 C15 1.984 . S
C32 C211 2.063 . S
C183 C5 1.689 . S
