# Generated by pormake.
# Topology tsx, (6,3)-cn, num edge types: 1
# Building blocks:
#     Node 0, Type 0, BuildingBlock: LEVNOQ01_clean_sbu_1, # of connection points: 6
#     Node 1, Type 0, BuildingBlock: LEVNOQ01_clean_sbu_1, # of connection points: 6
#     Node 2, Type 1, BuildingBlock: BETDAH_clean_linker_0, # of connection points: 3
#     Node 3, Type 1, BuildingBlock: BETDAH_clean_linker_0, # of connection points: 3
#     Node 4, Type 1, BuildingBlock: BETDAH_clean_linker_0, # of connection points: 3
#     Node 5, Type 1, BuildingBlock: BETDAH_clean_linker_0, # of connection points: 3
#     Edge 6, Type (0, 1), BuildingBlock: TEMPAE_clean_linker_10, # of connection points: 2
#     Edge 7, Type (0, 1), BuildingBlock: TEMPAE_clean_linker_10, # of connection points: 2
#     Edge 8, Type (0, 1), BuildingBlock: TEMPAE_clean_linker_10, # of connection points: 2
#     Edge 9, Type (0, 1), BuildingBlock: TEMPAE_clean_linker_10, # of connection points: 2
#     Edge 10, Type (0, 1), BuildingBlock: TEMPAE_clean_linker_10, # of connection points: 2
#     Edge 11, Type (0, 1), BuildingBlock: TEMPAE_clean_linker_10, # of connection points: 2
#     Edge 12, Type (0, 1), BuildingBlock: TEMPAE_clean_linker_10, # of connection points: 2
#     Edge 13, Type (0, 1), BuildingBlock: TEMPAE_clean_linker_10, # of connection points: 2
#     Edge 14, Type (0, 1), BuildingBlock: TEMPAE_clean_linker_10, # of connection points: 2
#     Edge 15, Type (0, 1), BuildingBlock: TEMPAE_clean_linker_10, # of connection points: 2
#     Edge 16, Type (0, 1), BuildingBlock: TEMPAE_clean_linker_10, # of connection points: 2
#     Edge 17, Type (0, 1), BuildingBlock: TEMPAE_clean_linker_10, # of connection points: 2
# Relax obj value: 0.095
# Max RMSD: 0.146
# Mean RMSD: 0.109
data_MOF--net-tsx--node1-LEVNOQ01_clean_sbu_1--node2-BETDAH_clean_linker_0--edge1-TEMPAE_clean_linker_10
_symmetry_space_group_name_H-M    P1
_symmetry_Int_Tables_number       1
_symmetry_cell_setting            triclinic
loop_
_symmetry_equiv_pos_as_xyz
'x, y, z'
_cell_length_a     19.215684
_cell_length_b     23.280092
_cell_length_c     34.464684
_cell_angle_alpha  97.7061
_cell_angle_beta   100.5995
_cell_angle_gamma 91.042182
loop_
_atom_site_label
_atom_site_type_symbol
_atom_site_fract_x
_atom_site_fract_y
_atom_site_fract_z
_atom_type_partial_charge
O0 O 0.19133 0.02609 0.09764 0.0
Mg1 Mg 0.22467 0.02867 0.04218 0.0
O2 O 0.07697 0.00941 0.07164 0.0
Mg3 Mg 0.05894 0.01 0.00323 0.0
O4 O 0.15281 0.07441 0.0091 0.0
O5 O 0.2655 0.10479 0.02876 0.0
O6 O 0.04265 0.01311 0.93525 0.0
O7 O -0.00067 0.09759 0.01136 0.0
Mg8 Mg 0.91326 0.00933 0.97768 0.0
O9 O 0.96432 0.94042 -0.00053 0.0
O10 O 0.92933 0.03108 0.92188 0.0
O11 O 0.89318 0.07664 0.02072 0.0
O12 O 0.84826 0.93872 0.97199 0.0
C13 C 0.18902 0.91279 -0.0068 0.0
C14 C 0.12783 0.01681 0.10173 0.0
C15 C 0.20225 0.11377 0.01114 0.0
C16 C 0.98879 0.02641 0.91111 0.0
C17 C 0.94155 0.11419 0.02145 0.0
C18 C 0.90168 0.91406 0.99035 0.0
O19 O 0.23926 0.94968 0.00823 0.0
O20 O 0.12422 0.92549 -0.00755 0.0
O21 O 0.66563 0.5255 0.60315 0.0
Mg22 Mg 0.71881 0.52848 0.55536 0.0
O23 O 0.56117 0.49972 0.56406 0.0
Mg24 Mg 0.56899 0.51022 0.49837 0.0
O25 O 0.66202 0.57777 0.51675 0.0
O26 O 0.7699 0.605 0.55153 0.0
O27 O 0.58236 0.52963 0.43496 0.0
O28 O 0.4926 0.58672 0.50168 0.0
Mg29 Mg 0.46546 0.47741 0.43313 0.0
O30 O 0.4735 0.44108 0.48429 0.0
O31 O 0.5369 0.45281 0.39464 0.0
O32 O 0.4332 0.56486 0.43982 0.0
O33 O 0.38623 0.41782 0.43111 0.0
C34 C 0.70463 0.41454 0.50282 0.0
C35 C 0.60078 0.50993 0.59851 0.0
C36 C 0.71422 0.61611 0.52697 0.0
C37 C 0.57512 0.49887 0.40099 0.0
C38 C 0.44751 0.5995 0.47227 0.0
C39 C 0.41621 0.41057 0.46672 0.0
O40 O 0.74856 0.44873 0.52765 0.0
O41 O 0.64144 0.42968 0.49093 0.0
H42 H 0.14957 0.90701 0.38337 0.0
H43 H 0.95517 -0.00228 0.37656 0.0
H44 H 0.0183 0.89331 0.47005 0.0
C45 C 0.10245 0.919 0.39516 0.0
C46 C 0.09073 0.89775 0.4296 0.0
C47 C 0.05272 0.95339 0.3749 0.0
C48 C 0.99363 0.97076 0.39165 0.0
C49 C 0.98165 0.95002 0.42649 0.0
C50 C 0.02876 0.91137 0.4442 0.0
N51 N 0.92178 0.96591 0.44366 0.0
C52 C 0.88931 0.0186 0.44087 0.0
H53 H 0.89507 -0.00863 0.60609 0.0
H54 H 0.1023 0.07719 0.62744 0.0
H55 H 0.0183 0.97891 0.51407 0.0
C56 C 0.94138 0.00502 0.59523 0.0
C57 C 0.94865 0.98336 0.5564 0.0
C58 C -0.00266 0.03745 0.6217 0.0
C59 C 0.05775 0.05386 0.60727 0.0
C60 C 0.06423 0.03353 0.56788 0.0
C61 C 0.01031 -0.00227 0.54313 0.0
N62 N 0.12892 0.03953 0.55448 0.0
C63 C 0.1683 0.09129 0.55908 0.0
H64 H 0.66274 0.41597 0.87903 0.0
H65 H 0.47738 0.51593 0.88773 0.0
H66 H 0.57101 0.4244 0.98321 0.0
C67 C 0.6234 0.43375 0.89556 0.0
C68 C 0.62473 0.41948 0.93382 0.0
C69 C 0.56952 0.46768 0.87799 0.0
C70 C 0.51835 0.48877 0.90023 0.0
C71 C 0.51828 0.47292 0.93812 0.0
C72 C 0.57107 0.43768 0.95436 0.0
N73 N 0.46402 0.48903 0.95977 0.0
C74 C 0.42321 0.53719 0.9554 0.0
H75 H 0.38292 0.51862 0.11334 0.0
H76 H 0.59942 0.57931 0.11757 0.0
H77 H 0.49817 0.44924 0.02504 0.0
C78 C 0.43098 0.51947 0.10131 0.0
C79 C 0.43322 0.48205 0.0663 0.0
C80 C 0.49272 0.55154 0.12266 0.0
C81 C 0.55125 0.55481 0.10318 0.0
C82 C 0.55154 0.52051 0.06646 0.0
C83 C 0.49458 0.48139 0.05007 0.0
N84 N 0.61109 0.5202 0.04739 0.0
C85 C 0.6576 0.56786 0.05073 0.0
C86 C 0.16416 0.21227 0.0286 0.0
C87 C 0.18794 0.17192 0.00058 0.0
C88 C 0.1852 0.27125 0.03287 0.0
C89 C 0.22977 0.28963 0.008 0.0
C90 C 0.24213 0.25064 0.97498 0.0
C91 C 0.22232 0.19167 0.97214 0.0
C92 C 0.16923 0.31154 0.06787 0.0
C93 C 0.28567 0.26926 0.94626 0.0
C94 C 0.3131 0.44383 0.02845 0.0
C95 C 0.37871 0.43477 0.05174 0.0
C96 C 0.26333 0.39718 0.01359 0.0
C97 C 0.27962 0.34092 0.02312 0.0
C98 C 0.34589 0.33237 0.04721 0.0
C99 C 0.39456 0.3793 0.06092 0.0
C100 C 0.19372 0.40841 0.98803 0.0
C101 C 0.36605 0.27339 0.05833 0.0
H102 H 0.1377 0.19679 0.05069 0.0
H103 H 0.2406 0.16033 0.9504 0.0
H104 H 0.21626 0.31608 0.09237 0.0
H105 H 0.15782 0.3553 0.05965 0.0
H106 H 0.12346 0.2947 0.07921 0.0
H107 H 0.27605 0.23925 0.91771 0.0
H108 H 0.27351 0.3139 0.93999 0.0
H109 H 0.34279 0.26922 0.95968 0.0
H110 H 0.30129 0.48705 0.02141 0.0
H111 H 0.44555 0.37275 0.07898 0.0
H112 H 0.15267 0.41393 0.00687 0.0
H113 H 0.17582 0.37157 0.96405 0.0
H114 H 0.19733 0.44862 0.97428 0.0
H115 H 0.32531 0.25547 0.07296 0.0
H116 H 0.41815 0.27495 0.07883 0.0
H117 H 0.36883 0.24286 0.03108 0.0
C118 C 0.17227 0.80424 0.98421 0.0
C119 C 0.20842 0.85398 0.97794 0.0
C120 C 0.19991 0.74901 0.97685 0.0
C121 C 0.26441 0.74375 0.96242 0.0
C122 C 0.29791 0.79352 0.95328 0.0
C123 C 0.26979 0.84795 0.96141 0.0
C124 C 0.16267 0.69696 0.98698 0.0
C125 C 0.3661 0.78996 0.93733 0.0
C126 C 0.39109 0.62709 0.992 0.0
C127 C 0.38174 0.58811 0.95676 0.0
C128 C 0.35157 0.67707 -0.00546 0.0
C129 C 0.30143 0.68799 0.96093 0.0
C130 C 0.29108 0.6478 0.9254 0.0
C131 C 0.33165 0.59812 0.92373 0.0
C132 C 0.36466 0.71882 0.03291 0.0
C133 C 0.2383 0.6579 0.88901 0.0
H134 H 0.12501 0.80883 -0.00284 0.0
H135 H 0.29744 0.88635 0.95613 0.0
H136 H 0.15815 0.66019 0.96247 0.0
H137 H 0.19428 0.68263 0.01403 0.0
H138 H 0.10885 0.70675 -0.0072 0.0
H139 H 0.38104 0.83136 0.92764 0.0
H140 H 0.40969 0.77933 0.96085 0.0
H141 H 0.36139 0.75487 0.9117 0.0
H142 H 0.42979 0.61864 0.01756 0.0
H143 H 0.32453 0.56733 0.8966 0.0
H144 H 0.31411 0.727 0.04348 0.0
H145 H 0.38615 0.76106 0.02764 0.0
H146 H 0.40268 0.70239 0.05687 0.0
H147 H 0.18545 0.66548 0.89687 0.0
H148 H 0.23323 0.62072 0.86468 0.0
H149 H 0.25494 0.6974 0.87771 0.0
C150 C 0.9031 0.84775 0.04174 0.0
C151 C 0.88856 0.85655 0.00168 0.0
C152 C 0.87409 0.79861 0.05392 0.0
C153 C 0.83085 0.75719 0.02515 0.0
C154 C 0.82085 0.76408 0.98431 0.0
C155 C 0.84899 0.81406 0.97319 0.0
C156 C 0.88552 0.79322 0.09775 0.0
C157 C 0.77645 0.72059 0.95249 0.0
C158 C 0.77434 0.60798 0.04514 0.0
C159 C 0.70422 0.61668 0.04955 0.0
C160 C 0.81783 0.65411 0.03927 0.0
C161 C 0.78997 0.70986 0.03751 0.0
C162 C 0.71963 0.71892 0.04349 0.0
C163 C 0.67752 0.67205 0.04937 0.0
C164 C 0.89227 0.64254 0.03302 0.0
C165 C 0.68765 0.7775 0.04175 0.0
H166 H 0.93271 0.88121 0.06385 0.0
H167 H 0.83753 0.82118 0.94223 0.0
H168 H 0.83524 0.80107 0.10871 0.0
H169 H 0.90079 0.74873 0.10283 0.0
H170 H 0.92701 0.82485 0.11569 0.0
H171 H 0.78032 0.72897 0.92196 0.0
H172 H 0.7931 0.6759 0.95595 0.0
H173 H 0.72006 0.72252 0.95564 0.0
H174 H 0.79447 0.56474 0.04505 0.0
H175 H 0.62294 0.67831 0.05256 0.0
H176 H 0.93044 0.67556 0.0522 0.0
H177 H 0.89582 0.64581 0.00162 0.0
H178 H 0.90848 0.59876 0.03958 0.0
H179 H 0.72311 0.81162 0.06173 0.0
H180 H 0.63472 0.77857 0.05041 0.0
H181 H 0.68181 0.78848 0.01099 0.0
C182 C 0.88566 0.20472 0.04533 0.0
C183 C 0.9197 0.17353 0.01722 0.0
C184 C 0.84731 0.25355 0.03614 0.0
C185 C 0.83971 0.26902 -0.00279 0.0
C186 C 0.87762 0.23949 0.96961 0.0
C187 C 0.91844 0.19282 0.98032 0.0
C188 C 0.81062 0.28573 0.06706 0.0
C189 C 0.86916 0.25295 0.92736 0.0
C190 C 0.66207 0.3241 0.95296 0.0
C191 C 0.6796 0.38212 0.95137 0.0
C192 C 0.71369 0.28714 0.96833 0.0
C193 C 0.78418 0.3093 0.98329 0.0
C194 C 0.80149 0.36861 0.98289 0.0
C195 C 0.74897 0.40428 0.96639 0.0
C196 C 0.69308 0.22401 0.96758 0.0
C197 C 0.87539 0.39417 -0.00044 0.0
H198 H 0.88637 0.1894 0.07375 0.0
H199 H 0.9437 0.16781 0.95831 0.0
H200 H 0.81454 0.33322 0.06645 0.0
H201 H 0.75357 0.27213 0.06049 0.0
H202 H 0.83349 0.2767 0.09755 0.0
H203 H 0.90723 0.22983 0.91082 0.0
H204 H 0.81458 0.23965 0.91122 0.0
H205 H 0.87655 0.30019 0.92703 0.0
H206 H 0.60813 0.30743 0.94135 0.0
H207 H 0.76188 0.44953 0.96537 0.0
H208 H 0.70319 0.21262 -0.00171 0.0
H209 H 0.72593 0.19612 0.95011 0.0
H210 H 0.63633 0.21362 0.95431 0.0
H211 H 0.89407 0.38262 0.02985 0.0
H212 H 0.87811 0.44217 0.00118 0.0
H213 H 0.9125 0.37582 0.98052 0.0
C214 C 0.71031 0.72068 0.54642 0.0
C215 C 0.70951 0.67469 0.51578 0.0
C216 C 0.73407 0.7765 0.54276 0.0
C217 C 0.75721 0.7863 0.50738 0.0
C218 C 0.74647 0.74177 0.47422 0.0
C219 C 0.72368 0.68573 0.479 0.0
C220 C 0.74292 0.82279 0.5787 0.0
C221 C 0.7655 0.75179 0.43507 0.0
C222 C 0.82963 0.94155 0.51988 0.0
C223 C 0.90134 0.93431 0.53459 0.0
C224 C 0.78252 0.89309 0.50596 0.0
C225 C 0.80732 0.83664 0.50936 0.0
C226 C 0.88078 0.8295 0.52225 0.0
C227 C 0.92693 0.87847 0.53396 0.0
C228 C 0.70587 0.90304 0.49008 0.0
C229 C 0.90996 0.77057 0.52747 0.0
H230 H 0.69903 0.7117 0.57478 0.0
H231 H 0.72287 0.64993 0.45526 0.0
H232 H 0.80018 0.83273 0.59066 0.0
H233 H 0.71902 0.86331 0.5702 0.0
H234 H 0.71794 0.80923 0.60285 0.0
H235 H 0.73645 0.72014 0.41006 0.0
H236 H 0.75351 0.79649 0.42881 0.0
H237 H 0.82309 0.74649 0.43636 0.0
H238 H 0.81002 0.98494 0.52056 0.0
H239 H 0.98249 0.87324 0.5457 0.0
H240 H 0.67809 0.91454 0.51537 0.0
H241 H 0.67837 0.86411 0.47087 0.0
H242 H 0.70166 0.94006 0.47264 0.0
H243 H 0.88618 0.75181 0.55026 0.0
H244 H 0.96852 0.77263 0.53702 0.0
H245 H 0.896 0.74046 0.49919 0.0
C246 C 0.78145 0.33093 0.51445 0.0
C247 C 0.72712 0.35547 0.48965 0.0
C248 C 0.80419 0.2752 0.50346 0.0
C249 C 0.77311 0.24325 0.46621 0.0
C250 C 0.71855 0.26783 0.44077 0.0
C251 C 0.69551 0.32341 0.45302 0.0
C252 C 0.86126 0.25033 0.532 0.0
C253 C 0.68506 0.23561 0.40052 0.0
C254 C 0.88662 0.1217 0.43083 0.0
C255 C 0.85571 0.07374 0.44271 0.0
C256 C 0.85795 0.17679 0.43631 0.0
C257 C 0.79769 0.1839 0.45463 0.0
C258 C 0.76526 0.13477 0.46548 0.0
C259 C 0.79456 0.08019 0.45916 0.0
C260 C 0.8938 0.22777 0.42396 0.0
C261 C 0.70172 0.14027 0.48556 0.0
H262 H 0.80564 0.35507 0.54303 0.0
H263 H 0.65373 0.3422 0.43365 0.0
H264 H 0.84157 0.2087 0.53925 0.0
H265 H 0.90798 0.24094 0.51787 0.0
H266 H 0.87876 0.28021 0.56025 0.0
H267 H 0.64415 0.26096 0.38396 0.0
H268 H 0.72641 0.22532 0.38233 0.0
H269 H 0.66018 0.19376 0.40412 0.0
H270 H 0.93414 0.11641 0.41814 0.0
H271 H 0.7707 0.04278 0.46814 0.0
H272 H 0.91948 0.25754 0.45087 0.0
H273 H 0.85415 0.25266 0.40618 0.0
H274 H 0.93483 0.21407 0.40616 0.0
H275 H 0.71705 0.16678 0.51531 0.0
H276 H 0.67979 0.0974 0.48953 0.0
H277 H 0.65938 0.16296 0.46794 0.0
C278 C 0.4212 0.34771 0.52095 0.0
C279 C 0.3829 0.3692 0.48763 0.0
C280 C 0.39025 0.30556 0.53898 0.0
C281 C 0.31929 0.2852 0.52352 0.0
C282 C 0.27945 0.30917 0.49126 0.0
C283 C 0.31186 0.35048 0.47358 0.0
C284 C 0.43438 0.28101 0.57333 0.0
C285 C 0.20329 0.28941 0.47423 0.0
C286 C 0.25604 0.13138 0.52631 0.0
C287 C 0.21251 0.13963 0.55468 0.0
C288 C 0.29421 0.17819 0.51749 0.0
C289 C 0.28846 0.23456 0.53765 0.0
C290 C 0.24672 0.24256 0.56774 0.0
C291 C 0.20865 0.1947 0.5758 0.0
C292 C 0.33755 0.16771 0.48502 0.0
C293 C 0.23951 0.30191 0.58993 0.0
H294 H 0.47598 0.36238 0.53213 0.0
H295 H 0.28146 0.36773 0.44833 0.0
H296 H 0.40476 0.28038 0.59803 0.0
H297 H 0.44612 0.23548 0.56338 0.0
H298 H 0.48536 0.30618 0.5849 0.0
H299 H 0.17785 0.31616 0.45163 0.0
H300 H 0.20102 0.24359 0.45995 0.0
H301 H 0.17189 0.29136 0.49831 0.0
H302 H 0.25836 0.08844 0.50998 0.0
H303 H 0.17447 0.20061 0.59767 0.0
H304 H 0.39184 0.18743 0.49567 0.0
H305 H 0.31292 0.18867 0.45907 0.0
H306 H 0.34144 0.12076 0.47475 0.0
H307 H 0.29228 0.32445 0.60063 0.0
H308 H 0.21313 0.2997 0.61583 0.0
H309 H 0.20769 0.32865 0.56948 0.0
C310 C 0.38931 0.68074 0.44138 0.0
C311 C 0.40777 0.65312 0.47529 0.0
C312 C 0.34118 0.72522 0.44041 0.0
C313 C 0.30964 0.74196 0.47402 0.0
C314 C 0.33095 0.71636 0.50918 0.0
C315 C 0.38037 0.67235 0.50951 0.0
C316 C 0.32128 0.75206 0.40255 0.0
C317 C 0.29865 0.73311 0.54559 0.0
C318 C 0.21122 0.88102 0.46644 0.0
C319 C 0.14272 0.85921 0.44863 0.0
C320 C 0.26524 0.84349 0.47802 0.0
C321 C 0.25055 0.78275 0.47059 0.0
C322 C 0.18026 0.76089 0.45457 0.0
C323 C 0.12699 0.79953 0.44401 0.0
C324 C 0.33895 0.86869 0.49563 0.0
C325 C 0.16237 0.69648 0.4458 0.0
H326 H 0.41099 0.66617 0.415 0.0
H327 H 0.39423 0.65067 0.53565 0.0
H328 H 0.26497 0.74044 0.38902 0.0
H329 H 0.32681 0.80006 0.40922 0.0
H330 H 0.35454 0.73727 0.38026 0.0
H331 H 0.32698 0.71477 0.57194 0.0
H332 H 0.2991 0.781 0.55297 0.0
H333 H 0.24249 0.71691 0.53936 0.0
H334 H 0.22309 0.92735 0.46989 0.0
H335 H 0.07403 0.78288 0.42986 0.0
H336 H 0.37301 0.8615 0.47285 0.0
H337 H 0.36308 0.84684 0.52124 0.0
H338 H 0.33905 0.91606 0.50577 0.0
H339 H 0.18769 0.67722 0.42091 0.0
H340 H 0.10433 0.68671 0.4373 0.0
H341 H 0.18348 0.67502 0.47211 0.0
C342 C 0.04527 -0.00309 0.14739 0.0
C343 C 0.11305 0.01381 0.14218 0.0
C344 C 0.03182 -0.00879 0.18542 0.0
C345 C 0.08742 0.00281 0.21901 0.0
C346 C 0.15534 0.02152 0.21411 0.0
C347 C 0.16735 0.02674 0.17579 0.0
C348 C 0.95875 0.97093 0.18947 0.0
C349 C 0.21608 0.03408 0.24917 0.0
C350 C 0.04704 0.02217 0.32398 0.0
C351 C 0.06048 0.96699 0.33496 0.0
C352 C 0.05477 0.0345 0.28611 0.0
C353 C 0.07643 -0.0094 0.25876 0.0
C354 C 0.08934 0.93474 0.2696 0.0
C355 C 0.08088 0.92359 0.30741 0.0
C356 C 0.04046 0.09454 0.27548 0.0
C357 C 0.11259 0.88671 0.24135 0.0
H358 H 0.00293 0.9869 0.12166 0.0
H359 H 0.21979 0.04022 0.17217 0.0
H360 H 0.96112 0.92745 0.19935 0.0
H361 H 0.93907 0.00085 0.21252 0.0
H362 H 0.92002 0.96806 0.16097 0.0
H363 H 0.26421 0.05216 0.24074 0.0
H364 H 0.20046 0.06527 0.273 0.0
H365 H 0.22973 -0.00647 0.26193 0.0
H366 H 0.03151 0.05591 0.34519 0.0
H367 H 0.08974 0.88044 0.31531 0.0
H368 H -0.00019 0.09191 0.24783 0.0
H369 H 0.08942 0.11472 0.26945 0.0
H370 H 0.02188 0.12326 0.2996 0.0
H371 H 0.07273 0.87835 0.21331 0.0
H372 H 0.12 0.84557 0.25434 0.0
H373 H 0.16331 0.89999 0.23339 0.0
C374 C 0.05774 0.02613 0.85589 0.0
C375 C 0.99508 0.03727 0.87046 0.0
C376 C 0.06246 0.0336 0.81667 0.0
C377 C 0.0032 0.05278 0.79151 0.0
C378 C 0.94114 0.06688 0.8067 0.0
C379 C 0.93777 0.05882 0.84591 0.0
C380 C 0.1296 0.01818 0.80155 0.0
C381 C 0.87689 0.08765 0.78091 0.0
C382 C 0.02203 0.09501 0.69063 0.0
C383 C -0.00208 0.04352 0.66524 0.0
C384 C 0.02433 0.09901 0.732 0.0
C385 C 0.00234 0.05028 0.74809 0.0
C386 C 0.97843 -0.00174 0.72254 0.0
C387 C 0.97695 -0.00455 0.68164 0.0
C388 C 0.05014 0.15516 0.75845 0.0
C389 C 0.95457 0.94521 0.73839 0.0
H390 H 0.10254 0.01007 0.87477 0.0
H391 H 0.88949 0.0685 0.85706 0.0
H392 H 0.11948 0.97808 0.77961 0.0
H393 H 0.14676 0.05312 0.78598 0.0
H394 H 0.17355 0.01076 0.82597 0.0
H395 H 0.83632 0.10351 0.79847 0.0
H396 H 0.89234 0.12306 0.76521 0.0
H397 H 0.85247 0.05147 0.75782 0.0
H398 H 0.03864 0.13214 0.67813 0.0
H399 H 0.96041 0.95486 0.66246 0.0
H400 H 0.09641 0.1475 0.78136 0.0
H401 H 0.00804 0.17197 0.77447 0.0
H402 H 0.06569 0.18892 0.74136 0.0
H403 H -0.00156 0.93128 0.76036 0.0
H404 H 0.93715 0.9082 0.7144 0.0
H405 H 0.90991 0.95571 0.75407 0.0
C406 C 0.55749 0.45023 0.64424 0.0
C407 C 0.57199 0.50493 0.63439 0.0
C408 C 0.54749 0.44424 0.68286 0.0
C409 C 0.551 0.49438 0.71162 0.0
C410 C 0.55965 0.55004 0.70048 0.0
C411 C 0.5713 0.55455 0.66207 0.0
C412 C 0.53947 0.3841 0.69372 0.0
C413 C 0.56158 0.6046 0.72988 0.0
C414 C 0.49805 0.47911 0.81072 0.0
C415 C 0.56446 0.47771 0.83576 0.0
C416 C 0.49264 0.48555 0.77038 0.0
C417 C 0.55496 0.48855 0.75432 0.0
C418 C 0.62206 0.48706 0.77924 0.0
C419 C 0.626 0.48291 0.81975 0.0
C420 C 0.42032 0.4889 0.74494 0.0
C421 C 0.68989 0.48934 0.76308 0.0
H422 H 0.55909 0.41199 0.6227 0.0
H423 H 0.58299 0.59676 0.65416 0.0
H424 H 0.5894 0.37367 0.71282 0.0
H425 H 0.49656 0.38172 0.71106 0.0
H426 H 0.52786 0.35059 0.66694 0.0
H427 H 0.55719 0.64414 0.71493 0.0
H428 H 0.51795 0.60295 0.74685 0.0
H429 H 0.61226 0.60839 0.75169 0.0
H430 H 0.44994 0.47404 0.82231 0.0
H431 H 0.67762 0.48342 0.8388 0.0
H432 H 0.41027 0.45147 0.72079 0.0
H433 H 0.41807 0.52885 0.73052 0.0
H434 H 0.37726 0.489 0.76249 0.0
H435 H 0.68798 0.45457 0.73746 0.0
H436 H 0.73747 0.48414 0.78591 0.0
H437 H 0.69595 0.53142 0.75205 0.0
C438 C 0.56159 0.58133 0.36216 0.0
C439 C 0.58682 0.52593 0.36647 0.0
C440 C 0.55203 0.60154 0.32508 0.0
C441 C 0.57046 0.56611 0.29214 0.0
C442 C 0.60416 0.51336 0.29782 0.0
C443 C 0.61028 0.49313 0.33477 0.0
C444 C 0.51442 0.65725 0.32038 0.0
C445 C 0.62731 0.47544 0.26382 0.0
C446 C 0.45938 0.54257 0.18927 0.0
C447 C 0.50142 0.56995 0.16699 0.0
C448 C 0.47757 0.54673 0.23074 0.0
C449 C 0.54134 0.57665 0.25082 0.0
C450 C 0.58047 0.60918 0.22973 0.0
C451 C 0.55881 0.60689 0.18825 0.0
C452 C 0.43169 0.51407 0.25249 0.0
C453 C 0.64871 0.64204 0.25003 0.0
H454 H 0.54276 0.6065 0.38671 0.0
H455 H 0.62999 0.45041 0.33829 0.0
H456 H 0.53415 0.68095 0.29844 0.0
H457 H 0.45701 0.64683 0.3093 0.0
H458 H 0.5205 0.68626 0.34926 0.0
H459 H 0.66432 0.44242 0.27463 0.0
H460 H 0.58016 0.45245 0.24396 0.0
H461 H 0.65355 0.50209 0.24581 0.0
H462 H 0.41473 0.51386 0.17483 0.0
H463 H 0.58987 0.63162 0.1726 0.0
H464 H 0.42529 0.54038 0.28082 0.0
H465 H 0.45735 0.47359 0.2599 0.0
H466 H 0.37824 0.50208 0.23419 0.0
H467 H 0.64588 0.6622 0.2807 0.0
H468 H 0.6625 0.67634 0.23287 0.0
H469 H 0.69223 0.61126 0.2523 0.0
loop_
_geom_bond_atom_site_label_1
_geom_bond_atom_site_label_2
_geom_bond_distance
_geom_bond_site_symmetry_2
_ccdc_geom_bond_type
O0 Mg1 1.990 . S
O0 C14 1.253 . S
Mg1 O0 1.990 . S
Mg1 O4 2.180 . S
Mg1 O5 2.117 . S
Mg1 O19 2.030 1_545 S
O2 Mg3 2.072 . S
O2 C14 1.260 . S
Mg3 O2 2.072 . S
Mg3 O4 2.099 . S
Mg3 O6 2.079 1_554 S
Mg3 O7 2.072 . S
Mg3 O9 2.099 1_444 S
Mg3 O20 2.079 1_544 S
O4 Mg1 2.180 . S
O4 Mg3 2.099 . S
O4 C15 1.279 . S
O5 Mg1 2.117 . S
O5 C15 1.250 . S
O6 Mg3 2.079 1_556 S
O6 C16 1.264 . S
O7 Mg3 2.072 . S
O7 C17 1.260 1_454 S
Mg8 O9 2.180 . S
Mg8 O10 2.030 1_565 S
Mg8 O11 1.990 1_565 S
Mg8 O12 2.117 . S
O9 Mg3 2.099 1_666 S
O9 Mg8 2.180 . S
O9 C18 1.279 . S
O10 Mg8 2.030 1_545 S
O10 C16 1.248 1_655 S
O11 Mg8 1.990 1_545 S
O11 C17 1.253 . S
O12 Mg8 2.117 . S
O12 C18 1.250 . S
C13 O19 1.248 . S
C13 O20 1.264 1_554 S
C14 O0 1.253 . S
C14 O2 1.260 . S
C15 O4 1.279 . S
C15 O5 1.250 . S
C16 O6 1.264 . S
C16 O10 1.248 1_455 S
C17 O7 1.260 1_656 S
C17 O11 1.253 . S
C18 O9 1.279 . S
C18 O12 1.250 . S
O19 Mg1 2.030 1_565 S
O19 C13 1.248 . S
O20 Mg3 2.079 1_566 S
O20 C13 1.264 1_556 S
O21 Mg22 1.990 . S
O21 C35 1.253 . S
Mg22 O21 1.990 . S
Mg22 O25 2.180 . S
Mg22 O26 2.117 . S
Mg22 O40 2.030 . S
O23 Mg24 2.072 . S
O23 C35 1.260 . S
Mg24 O23 2.072 . S
Mg24 O25 2.099 . S
Mg24 O27 2.079 . S
Mg24 O28 2.072 . S
Mg24 O30 2.099 . S
Mg24 O41 2.079 . S
O25 Mg22 2.180 . S
O25 Mg24 2.099 . S
O25 C36 1.279 . S
O26 Mg22 2.117 . S
O26 C36 1.250 . S
O27 Mg24 2.079 . S
O27 C37 1.264 . S
O28 Mg24 2.072 . S
O28 C38 1.260 . S
Mg29 O30 2.180 . S
Mg29 O31 2.030 . S
Mg29 O32 1.990 . S
Mg29 O33 2.117 . S
O30 Mg24 2.099 . S
O30 Mg29 2.180 . S
O30 C39 1.279 . S
O31 Mg29 2.030 . S
O31 C37 1.248 . S
O32 Mg29 1.990 . S
O32 C38 1.253 . S
O33 Mg29 2.117 . S
O33 C39 1.250 . S
C34 O40 1.248 . S
C34 O41 1.264 . S
C35 O21 1.253 . S
C35 O23 1.260 . S
C36 O25 1.279 . S
C36 O26 1.250 . S
C37 O27 1.264 . S
C37 O31 1.248 . S
C38 O28 1.260 . S
C38 O32 1.253 . S
C39 O30 1.279 . S
C39 O33 1.250 . S
O40 Mg22 2.030 . S
O40 C34 1.248 . S
O41 Mg24 2.079 . S
O41 C34 1.264 . S
H42 C45 0.929 . S
H43 C48 0.929 . S
H44 C50 0.930 . S
C45 H42 0.929 . S
C45 C46 1.398 . S
C45 C47 1.396 . S
C46 C45 1.398 . S
C46 C50 1.407 . S
C47 C45 1.396 . S
C47 C48 1.394 1_565 S
C48 H43 0.929 . S
C48 C47 1.394 1_545 S
C48 C49 1.382 . S
C49 C48 1.382 . S
C49 C50 1.392 1_545 S
C49 N51 1.420 1_455 S
C50 H44 0.930 . S
C50 C46 1.407 . S
C50 C49 1.392 1_565 S
N51 C49 1.420 1_655 S
N51 C52 1.244 . S
C52 N51 1.244 . S
H53 C56 0.929 1_565 S
H54 C59 0.929 . S
H55 C61 0.930 . S
C56 H53 0.929 1_545 S
C56 C57 1.398 1_545 S
C56 C58 1.396 . S
C57 C56 1.398 1_565 S
C57 C61 1.407 1_565 S
C58 C56 1.396 . S
C58 C59 1.394 1_655 S
C59 H54 0.929 . S
C59 C58 1.394 1_455 S
C59 C60 1.382 . S
C60 C59 1.382 . S
C60 C61 1.392 1_455 S
C60 N62 1.420 . S
C61 H55 0.930 . S
C61 C57 1.407 1_545 S
C61 C60 1.392 1_655 S
N62 C60 1.420 . S
N62 C63 1.244 . S
C63 N62 1.244 . S
H64 C67 0.929 . S
H65 C70 0.929 . S
H66 C72 0.953 . S
C67 H64 0.929 . S
C67 C68 1.398 . S
C67 C69 1.396 . S
C68 C67 1.398 . S
C68 C72 1.407 . S
C69 C67 1.396 . S
C69 C70 1.394 . S
C70 H65 0.929 . S
C70 C69 1.394 . S
C70 C71 1.382 . S
C71 C70 1.382 . S
C71 C72 1.392 . S
C71 N73 1.420 . S
C72 H66 0.953 . S
C72 C68 1.407 . S
C72 C71 1.392 . S
N73 C71 1.420 . S
N73 C74 1.244 . S
C74 N73 1.244 . S
H75 C78 0.929 . S
H76 C81 0.929 . S
H77 C83 0.930 . S
C78 H75 0.929 . S
C78 C79 1.398 . S
C78 C80 1.396 . S
C79 C78 1.398 . S
C79 C83 1.407 . S
C80 C78 1.396 . S
C80 C81 1.394 . S
C81 H76 0.929 . S
C81 C80 1.394 . S
C81 C82 1.382 . S
C82 C81 1.382 . S
C82 C83 1.392 . S
C82 N84 1.420 . S
C83 H77 0.930 . S
C83 C79 1.407 . S
C83 C82 1.392 . S
N84 C82 1.420 . S
N84 C85 1.244 . S
C85 N84 1.244 . S
C86 C87 1.391 . S
C86 C88 1.394 . S
C86 H102 0.931 . S
C87 C86 1.391 . S
C87 C91 1.376 1_554 S
C88 C86 1.394 . S
C88 C89 1.369 . S
C88 C92 1.531 . S
C89 C88 1.369 . S
C89 C90 1.410 1_554 S
C89 C97 1.503 . S
C90 C89 1.410 1_556 S
C90 C91 1.392 . S
C90 C93 1.511 . S
C91 C87 1.376 1_556 S
C91 C90 1.392 . S
C91 H103 0.929 . S
C92 C88 1.531 . S
C92 H104 0.960 . S
C92 H105 0.962 . S
C92 H106 0.960 . S
C93 C90 1.511 . S
C93 H107 0.961 . S
C93 H108 0.961 . S
C93 H109 0.961 . S
C94 C95 1.370 . S
C94 C96 1.363 . S
C94 H110 0.931 . S
C95 C94 1.370 . S
C95 C99 1.408 . S
C96 C94 1.363 . S
C96 C97 1.370 . S
C96 C100 1.524 . S
C97 C89 1.503 . S
C97 C96 1.370 . S
C97 C98 1.403 . S
C98 C97 1.403 . S
C98 C99 1.404 . S
C98 C101 1.539 . S
C99 C95 1.408 . S
C99 C98 1.404 . S
C99 H111 0.930 . S
C100 C96 1.524 . S
C100 H112 0.956 . S
C100 H113 0.961 . S
C100 H114 0.961 . S
C101 C98 1.539 . S
C101 H115 0.958 . S
C101 H116 0.961 . S
C101 H117 0.960 . S
H102 C86 0.931 . S
H103 C91 0.929 . S
H104 C92 0.960 . S
H105 C92 0.962 . S
H106 C92 0.960 . S
H107 C93 0.961 . S
H108 C93 0.961 . S
H109 C93 0.961 . S
H110 C94 0.931 . S
H111 C99 0.930 . S
H112 C100 0.956 . S
H113 C100 0.961 . S
H114 C100 0.961 . S
H115 C101 0.958 . S
H116 C101 0.961 . S
H117 C101 0.960 . S
C118 C119 1.391 . S
C118 C120 1.394 . S
C118 H134 0.931 . S
C119 C118 1.391 . S
C119 C123 1.376 1_554 S
C120 C118 1.394 . S
C120 C121 1.369 1_554 S
C120 C124 1.531 . S
C121 C120 1.369 1_556 S
C121 C122 1.410 . S
C121 C129 1.503 . S
C122 C121 1.410 . S
C122 C123 1.392 . S
C122 C125 1.511 . S
C123 C119 1.376 1_556 S
C123 C122 1.392 . S
C123 H135 0.929 . S
C124 C120 1.531 . S
C124 H136 0.960 . S
C124 H137 0.962 . S
C124 H138 0.960 . S
C125 C122 1.511 . S
C125 H139 0.961 . S
C125 H140 0.961 . S
C125 H141 0.961 . S
C126 C127 1.370 1_554 S
C126 C128 1.363 . S
C126 H142 0.931 . S
C127 C126 1.370 1_556 S
C127 C131 1.408 . S
C128 C126 1.363 . S
C128 C129 1.370 1_554 S
C128 C132 1.524 . S
C129 C121 1.503 . S
C129 C128 1.370 1_556 S
C129 C130 1.403 . S
C130 C129 1.403 . S
C130 C131 1.404 . S
C130 C133 1.539 . S
C131 C127 1.408 . S
C131 C130 1.404 . S
C131 H143 0.930 . S
C132 C128 1.524 . S
C132 H144 0.956 . S
C132 H145 0.961 . S
C132 H146 0.961 . S
C133 C130 1.539 . S
C133 H147 0.958 . S
C133 H148 0.961 . S
C133 H149 0.960 . S
H134 C118 0.931 . S
H135 C123 0.929 . S
H136 C124 0.960 . S
H137 C124 0.962 . S
H138 C124 0.960 . S
H139 C125 0.961 . S
H140 C125 0.961 . S
H141 C125 0.961 . S
H142 C126 0.931 . S
H143 C131 0.930 . S
H144 C132 0.956 . S
H145 C132 0.961 . S
H146 C132 0.961 . S
H147 C133 0.958 . S
H148 C133 0.961 . S
H149 C133 0.960 . S
C150 C151 1.391 . S
C150 C152 1.394 . S
C150 H166 0.931 . S
C151 C150 1.391 . S
C151 C155 1.376 1_554 S
C152 C150 1.394 . S
C152 C153 1.369 . S
C152 C156 1.531 . S
C153 C152 1.369 . S
C153 C154 1.410 1_554 S
C153 C161 1.503 . S
C154 C153 1.410 1_556 S
C154 C155 1.392 . S
C154 C157 1.511 . S
C155 C151 1.376 1_556 S
C155 C154 1.392 . S
C155 H167 0.929 . S
C156 C152 1.531 . S
C156 H168 0.960 . S
C156 H169 0.962 . S
C156 H170 0.960 . S
C157 C154 1.511 . S
C157 H171 0.961 . S
C157 H172 0.961 . S
C157 H173 0.961 . S
C158 C159 1.370 . S
C158 C160 1.363 . S
C158 H174 0.931 . S
C159 C158 1.370 . S
C159 C163 1.408 . S
C160 C158 1.363 . S
C160 C161 1.370 . S
C160 C164 1.524 . S
C161 C153 1.503 . S
C161 C160 1.370 . S
C161 C162 1.403 . S
C162 C161 1.403 . S
C162 C163 1.404 . S
C162 C165 1.539 1_554 S
C163 C159 1.408 . S
C163 C162 1.404 . S
C163 H175 0.930 . S
C164 C160 1.524 . S
C164 H176 0.956 . S
C164 H177 0.961 . S
C164 H178 0.961 . S
C165 C162 1.539 1_556 S
C165 H179 0.958 1_556 S
C165 H180 0.961 . S
C165 H181 0.960 . S
H166 C150 0.931 . S
H167 C155 0.929 . S
H168 C156 0.960 . S
H169 C156 0.962 . S
H170 C156 0.960 . S
H171 C157 0.961 . S
H172 C157 0.961 . S
H173 C157 0.961 . S
H174 C158 0.931 . S
H175 C163 0.930 . S
H176 C164 0.956 . S
H177 C164 0.961 . S
H178 C164 0.961 . S
H179 C165 0.958 1_554 S
H180 C165 0.961 . S
H181 C165 0.960 . S
C182 C183 1.391 1_554 S
C182 C184 1.394 . S
C182 H198 0.931 . S
C183 C182 1.391 1_556 S
C183 C187 1.376 . S
C184 C182 1.394 . S
C184 C185 1.369 1_554 S
C184 C188 1.531 . S
C185 C184 1.369 1_556 S
C185 C186 1.410 . S
C185 C193 1.503 . S
C186 C185 1.410 . S
C186 C187 1.392 . S
C186 C189 1.511 . S
C187 C183 1.376 . S
C187 C186 1.392 . S
C187 H199 0.929 . S
C188 C184 1.531 . S
C188 H200 0.960 . S
C188 H201 0.962 . S
C188 H202 0.960 . S
C189 C186 1.511 . S
C189 H203 0.961 . S
C189 H204 0.961 . S
C189 H205 0.961 . S
C190 C191 1.370 . S
C190 C192 1.363 . S
C190 H206 0.931 . S
C191 C190 1.370 . S
C191 C195 1.408 . S
C192 C190 1.363 . S
C192 C193 1.370 . S
C192 C196 1.530 . S
C193 C185 1.503 . S
C193 C192 1.370 . S
C193 C194 1.403 . S
C194 C193 1.403 . S
C194 C195 1.404 . S
C194 C197 1.539 . S
C195 C191 1.408 . S
C195 C194 1.404 . S
C195 H207 0.930 . S
C196 C192 1.530 . S
C196 H208 0.946 1_556 S
C196 H209 0.967 . S
C196 H210 0.958 1_556 S
C197 C194 1.539 . S
C197 H211 0.958 . S
C197 H212 0.961 . S
C197 H213 0.960 . S
H198 C182 0.931 . S
H199 C187 0.929 . S
H200 C188 0.960 . S
H201 C188 0.962 . S
H202 C188 0.960 . S
H203 C189 0.961 . S
H204 C189 0.961 . S
H205 C189 0.961 . S
H206 C190 0.931 . S
H207 C195 0.930 . S
H208 C196 0.946 1_554 S
H209 C196 0.967 . S
H210 C196 0.958 1_554 S
H211 C197 0.958 . S
H212 C197 0.961 . S
H213 C197 0.960 . S
C214 C215 1.391 . S
C214 C216 1.394 . S
C214 H230 0.931 . S
C215 C214 1.391 . S
C215 C219 1.376 . S
C216 C214 1.394 . S
C216 C217 1.369 . S
C216 C220 1.531 . S
C217 C216 1.369 . S
C217 C218 1.410 . S
C217 C225 1.503 . S
C218 C217 1.410 . S
C218 C219 1.392 . S
C218 C221 1.511 . S
C219 C215 1.376 . S
C219 C218 1.392 . S
C219 H231 0.929 . S
C220 C216 1.531 . S
C220 H232 0.960 . S
C220 H233 0.962 . S
C220 H234 0.960 . S
C221 C218 1.511 . S
C221 H235 0.961 . S
C221 H236 0.961 . S
C221 H237 0.961 . S
C222 C223 1.370 . S
C222 C224 1.363 . S
C222 H238 0.931 . S
C223 C222 1.370 . S
C223 C227 1.408 . S
C224 C222 1.363 . S
C224 C225 1.370 . S
C224 C228 1.524 . S
C225 C217 1.503 . S
C225 C224 1.370 . S
C225 C226 1.403 . S
C226 C225 1.403 . S
C226 C227 1.404 . S
C226 C229 1.539 . S
C227 C223 1.408 . S
C227 C226 1.404 . S
C227 H239 0.930 . S
C228 C224 1.524 . S
C228 H240 0.956 . S
C228 H241 0.961 . S
C228 H242 0.961 . S
C229 C226 1.539 . S
C229 H243 0.958 . S
C229 H244 0.961 . S
C229 H245 0.960 . S
H230 C214 0.931 . S
H231 C219 0.929 . S
H232 C220 0.960 . S
H233 C220 0.962 . S
H234 C220 0.960 . S
H235 C221 0.961 . S
H236 C221 0.961 . S
H237 C221 0.961 . S
H238 C222 0.931 . S
H239 C227 0.930 . S
H240 C228 0.956 . S
H241 C228 0.961 . S
H242 C228 0.961 . S
H243 C229 0.958 . S
H244 C229 0.961 . S
H245 C229 0.960 . S
C246 C247 1.391 . S
C246 C248 1.394 . S
C246 H262 0.931 . S
C247 C246 1.391 . S
C247 C251 1.376 . S
C248 C246 1.394 . S
C248 C249 1.369 . S
C248 C252 1.531 . S
C249 C248 1.369 . S
C249 C250 1.410 . S
C249 C257 1.503 . S
C250 C249 1.410 . S
C250 C251 1.392 . S
C250 C253 1.511 . S
C251 C247 1.376 . S
C251 C250 1.392 . S
C251 H263 0.929 . S
C252 C248 1.531 . S
C252 H264 0.960 . S
C252 H265 0.962 . S
C252 H266 0.960 . S
C253 C250 1.511 . S
C253 H267 0.961 . S
C253 H268 0.961 . S
C253 H269 0.961 . S
C254 C255 1.370 . S
C254 C256 1.363 . S
C254 H270 0.931 . S
C255 C254 1.370 . S
C255 C259 1.408 . S
C256 C254 1.363 . S
C256 C257 1.370 . S
C256 C260 1.524 . S
C257 C249 1.503 . S
C257 C256 1.370 . S
C257 C258 1.403 . S
C258 C257 1.403 . S
C258 C259 1.404 . S
C258 C261 1.539 . S
C259 C255 1.408 . S
C259 C258 1.404 . S
C259 H271 0.930 . S
C260 C256 1.524 . S
C260 H272 0.956 . S
C260 H273 0.961 . S
C260 H274 0.961 . S
C261 C258 1.539 . S
C261 H275 0.958 . S
C261 H276 0.961 . S
C261 H277 0.960 . S
H262 C246 0.931 . S
H263 C251 0.929 . S
H264 C252 0.960 . S
H265 C252 0.962 . S
H266 C252 0.960 . S
H267 C253 0.961 . S
H268 C253 0.961 . S
H269 C253 0.961 . S
H270 C254 0.931 . S
H271 C259 0.930 . S
H272 C260 0.956 . S
H273 C260 0.961 . S
H274 C260 0.961 . S
H275 C261 0.958 . S
H276 C261 0.961 . S
H277 C261 0.960 . S
C278 C279 1.391 . S
C278 C280 1.394 . S
C278 H294 0.931 . S
C279 C278 1.391 . S
C279 C283 1.376 . S
C280 C278 1.394 . S
C280 C281 1.369 . S
C280 C284 1.531 . S
C281 C280 1.369 . S
C281 C282 1.410 . S
C281 C289 1.503 . S
C282 C281 1.410 . S
C282 C283 1.392 . S
C282 C285 1.511 . S
C283 C279 1.376 . S
C283 C282 1.392 . S
C283 H295 0.929 . S
C284 C280 1.531 . S
C284 H296 0.960 . S
C284 H297 0.962 . S
C284 H298 0.960 . S
C285 C282 1.511 . S
C285 H299 0.961 . S
C285 H300 0.961 . S
C285 H301 0.961 . S
C286 C287 1.370 . S
C286 C288 1.363 . S
C286 H302 0.931 . S
C287 C286 1.370 . S
C287 C291 1.408 . S
C288 C286 1.363 . S
C288 C289 1.370 . S
C288 C292 1.524 . S
C289 C281 1.503 . S
C289 C288 1.370 . S
C289 C290 1.403 . S
C290 C289 1.403 . S
C290 C291 1.404 . S
C290 C293 1.539 . S
C291 C287 1.408 . S
C291 C290 1.404 . S
C291 H303 0.930 . S
C292 C288 1.524 . S
C292 H304 0.956 . S
C292 H305 0.961 . S
C292 H306 0.961 . S
C293 C290 1.539 . S
C293 H307 0.958 . S
C293 H308 0.961 . S
C293 H309 0.960 . S
H294 C278 0.931 . S
H295 C283 0.929 . S
H296 C284 0.960 . S
H297 C284 0.962 . S
H298 C284 0.960 . S
H299 C285 0.961 . S
H300 C285 0.961 . S
H301 C285 0.961 . S
H302 C286 0.931 . S
H303 C291 0.930 . S
H304 C292 0.956 . S
H305 C292 0.961 . S
H306 C292 0.961 . S
H307 C293 0.958 . S
H308 C293 0.961 . S
H309 C293 0.960 . S
C310 C311 1.391 . S
C310 C312 1.394 . S
C310 H326 0.931 . S
C311 C310 1.391 . S
C311 C315 1.376 . S
C312 C310 1.394 . S
C312 C313 1.369 . S
C312 C316 1.531 . S
C313 C312 1.369 . S
C313 C314 1.410 . S
C313 C321 1.503 . S
C314 C313 1.410 . S
C314 C315 1.392 . S
C314 C317 1.511 . S
C315 C311 1.376 . S
C315 C314 1.392 . S
C315 H327 0.929 . S
C316 C312 1.531 . S
C316 H328 0.960 . S
C316 H329 0.962 . S
C316 H330 0.960 . S
C317 C314 1.511 . S
C317 H331 0.961 . S
C317 H332 0.961 . S
C317 H333 0.961 . S
C318 C319 1.370 . S
C318 C320 1.363 . S
C318 H334 0.931 . S
C319 C318 1.370 . S
C319 C323 1.408 . S
C320 C318 1.363 . S
C320 C321 1.370 . S
C320 C324 1.524 . S
C321 C313 1.503 . S
C321 C320 1.370 . S
C321 C322 1.403 . S
C322 C321 1.403 . S
C322 C323 1.404 . S
C322 C325 1.539 . S
C323 C319 1.408 . S
C323 C322 1.404 . S
C323 H335 0.930 . S
C324 C320 1.524 . S
C324 H336 0.956 . S
C324 H337 0.961 . S
C324 H338 0.961 . S
C325 C322 1.539 . S
C325 H339 0.958 . S
C325 H340 0.961 . S
C325 H341 0.960 . S
H326 C310 0.931 . S
H327 C315 0.929 . S
H328 C316 0.960 . S
H329 C316 0.962 . S
H330 C316 0.960 . S
H331 C317 0.961 . S
H332 C317 0.961 . S
H333 C317 0.961 . S
H334 C318 0.931 . S
H335 C323 0.930 . S
H336 C324 0.956 . S
H337 C324 0.961 . S
H338 C324 0.961 . S
H339 C325 0.958 . S
H340 C325 0.961 . S
H341 C325 0.960 . S
C342 C343 1.391 . S
C342 C344 1.394 . S
C342 H358 0.931 . S
C343 C342 1.391 . S
C343 C347 1.376 1_565 S
C344 C342 1.394 . S
C344 C345 1.369 . S
C344 C348 1.522 1_455 S
C345 C344 1.369 . S
C345 C346 1.410 1_565 S
C345 C353 1.503 . S
C346 C345 1.410 1_545 S
C346 C347 1.392 . S
C346 C349 1.511 . S
C347 C343 1.376 1_545 S
C347 C346 1.392 . S
C347 H359 0.929 . S
C348 C344 1.522 1_655 S
C348 H360 0.956 1_655 S
C348 H361 0.974 . S
C348 H362 0.961 . S
C349 C346 1.511 . S
C349 H363 0.961 . S
C349 H364 0.961 . S
C349 H365 0.961 . S
C350 C351 1.370 1_545 S
C350 C352 1.363 . S
C350 H366 0.931 . S
C351 C350 1.370 1_565 S
C351 C355 1.408 . S
C352 C350 1.363 . S
C352 C353 1.370 1_545 S
C352 C356 1.524 1_455 S
C353 C345 1.503 . S
C353 C352 1.370 1_565 S
C353 C354 1.403 . S
C354 C353 1.403 . S
C354 C355 1.404 . S
C354 C357 1.539 . S
C355 C351 1.408 . S
C355 C354 1.404 . S
C355 H367 0.930 . S
C356 C352 1.524 1_655 S
C356 H368 0.956 . S
C356 H369 0.961 1_655 S
C356 H370 0.961 . S
C357 C354 1.539 . S
C357 H371 0.958 . S
C357 H372 0.961 . S
C357 H373 0.960 . S
H358 C342 0.931 . S
H359 C347 0.929 . S
H360 C348 0.956 1_455 S
H361 C348 0.974 . S
H362 C348 0.961 . S
H363 C349 0.961 . S
H364 C349 0.961 . S
H365 C349 0.961 . S
H366 C350 0.931 . S
H367 C355 0.930 . S
H368 C356 0.956 . S
H369 C356 0.961 1_455 S
H370 C356 0.961 . S
H371 C357 0.958 . S
H372 C357 0.961 . S
H373 C357 0.960 . S
C374 C375 1.383 1_565 S
C374 C376 1.388 1_565 S
C374 H390 0.942 . S
C375 C374 1.383 1_545 S
C375 C379 1.376 1_455 S
C376 C374 1.388 1_545 S
C376 C377 1.378 . S
C376 C380 1.524 1_545 S
C377 C376 1.378 . S
C377 C378 1.410 1_455 S
C377 C385 1.503 . S
C378 C377 1.410 1_655 S
C378 C379 1.392 . S
C378 C381 1.511 . S
C379 C375 1.376 1_655 S
C379 C378 1.392 . S
C379 H391 0.929 . S
C380 C376 1.524 1_565 S
C380 H392 0.960 . S
C380 H393 0.962 . S
C380 H394 0.960 . S
C381 C378 1.511 . S
C381 H395 0.961 . S
C381 H396 0.961 . S
C381 H397 0.961 . S
C382 C383 1.370 1_455 S
C382 C384 1.363 . S
C382 H398 0.931 . S
C383 C382 1.370 1_655 S
C383 C387 1.408 . S
C384 C382 1.363 . S
C384 C385 1.370 . S
C384 C388 1.524 . S
C385 C377 1.503 . S
C385 C384 1.370 . S
C385 C386 1.403 1_445 S
C386 C385 1.403 1_665 S
C386 C387 1.404 1_565 S
C386 C389 1.539 . S
C387 C383 1.408 . S
C387 C386 1.404 1_545 S
C387 H399 0.930 1_545 S
C388 C384 1.524 . S
C388 H400 0.956 . S
C388 H401 0.961 . S
C388 H402 0.961 . S
C389 C386 1.539 . S
C389 H403 0.958 . S
C389 H404 0.961 . S
C389 H405 0.960 . S
H390 C374 0.942 . S
H391 C379 0.929 . S
H392 C380 0.960 . S
H393 C380 0.962 . S
H394 C380 0.960 . S
H395 C381 0.961 . S
H396 C381 0.961 . S
H397 C381 0.961 . S
H398 C382 0.931 . S
H399 C387 0.930 1_565 S
H400 C388 0.956 . S
H401 C388 0.961 . S
H402 C388 0.961 . S
H403 C389 0.958 . S
H404 C389 0.961 . S
H405 C389 0.960 . S
C406 C407 1.391 . S
C406 C408 1.394 . S
C406 H422 0.931 . S
C407 C406 1.391 . S
C407 C411 1.376 . S
C408 C406 1.394 . S
C408 C409 1.369 . S
C408 C412 1.531 . S
C409 C408 1.369 . S
C409 C410 1.410 . S
C409 C417 1.503 . S
C410 C409 1.410 . S
C410 C411 1.392 . S
C410 C413 1.511 . S
C411 C407 1.376 . S
C411 C410 1.392 . S
C411 H423 0.929 . S
C412 C408 1.531 . S
C412 H424 0.960 . S
C412 H425 0.962 . S
C412 H426 0.960 . S
C413 C410 1.511 . S
C413 H427 0.961 . S
C413 H428 0.961 . S
C413 H429 0.961 . S
C414 C415 1.370 . S
C414 C416 1.363 . S
C414 H430 0.931 . S
C415 C414 1.370 . S
C415 C419 1.408 . S
C416 C414 1.363 . S
C416 C417 1.370 . S
C416 C420 1.524 . S
C417 C409 1.503 . S
C417 C416 1.370 . S
C417 C418 1.403 . S
C418 C417 1.403 . S
C418 C419 1.404 . S
C418 C421 1.539 . S
C419 C415 1.408 . S
C419 C418 1.404 . S
C419 H431 0.930 . S
C420 C416 1.524 . S
C420 H432 0.956 . S
C420 H433 0.961 . S
C420 H434 0.961 . S
C421 C418 1.539 . S
C421 H435 0.958 . S
C421 H436 0.961 . S
C421 H437 0.960 . S
H422 C406 0.931 . S
H423 C411 0.929 . S
H424 C412 0.960 . S
H425 C412 0.962 . S
H426 C412 0.960 . S
H427 C413 0.961 . S
H428 C413 0.961 . S
H429 C413 0.961 . S
H430 C414 0.931 . S
H431 C419 0.930 . S
H432 C420 0.956 . S
H433 C420 0.961 . S
H434 C420 0.961 . S
H435 C421 0.958 . S
H436 C421 0.961 . S
H437 C421 0.960 . S
C438 C439 1.391 . S
C438 C440 1.394 . S
C438 H454 0.931 . S
C439 C438 1.391 . S
C439 C443 1.376 . S
C440 C438 1.394 . S
C440 C441 1.369 . S
C440 C444 1.531 . S
C441 C440 1.369 . S
C441 C442 1.410 . S
C441 C449 1.503 . S
C442 C441 1.410 . S
C442 C443 1.392 . S
C442 C445 1.511 . S
C443 C439 1.376 . S
C443 C442 1.392 . S
C443 H455 0.929 . S
C444 C440 1.531 . S
C444 H456 0.960 . S
C444 H457 0.962 . S
C444 H458 0.960 . S
C445 C442 1.511 . S
C445 H459 0.961 . S
C445 H460 0.961 . S
C445 H461 0.961 . S
C446 C447 1.370 . S
C446 C448 1.363 . S
C446 H462 0.931 . S
C447 C446 1.370 . S
C447 C451 1.408 . S
C448 C446 1.363 . S
C448 C449 1.370 . S
C448 C452 1.524 . S
C449 C441 1.503 . S
C449 C448 1.370 . S
C449 C450 1.403 . S
C450 C449 1.403 . S
C450 C451 1.404 . S
C450 C453 1.539 . S
C451 C447 1.408 . S
C451 C450 1.404 . S
C451 H463 0.930 . S
C452 C448 1.524 . S
C452 H464 0.956 . S
C452 H465 0.961 . S
C452 H466 0.961 . S
C453 C450 1.539 . S
C453 H467 0.958 . S
C453 H468 0.961 . S
C453 H469 0.960 . S
H454 C438 0.931 . S
H455 C443 0.929 . S
H456 C444 0.960 . S
H457 C444 0.962 . S
H458 C444 0.960 . S
H459 C445 0.961 . S
H460 C445 0.961 . S
H461 C445 0.961 . S
H462 C446 0.931 . S
H463 C451 0.930 . S
H464 C452 0.956 . S
H465 C452 0.961 . S
H466 C452 0.961 . S
H467 C453 0.958 . S
H468 C453 0.961 . S
H469 C453 0.960 . S
C95 C79 1.447 . S
C87 C15 1.278 . S
C119 C13 1.437 . S
C127 C74 1.392 . S
C151 C18 1.209 1_554 S
C159 C85 1.438 . S
C183 C17 1.442 . S
C191 C68 1.455 . S
C215 C36 1.262 . S
C223 C57 1.442 . S
C247 C34 1.437 . S
C255 C52 1.408 . S
C287 C63 1.423 . S
C279 C39 1.280 . S
C319 C46 1.454 . S
C311 C38 1.390 . S
C343 C14 1.565 1_565 S
C351 C47 1.615 . S
C375 C16 1.367 . S
C383 C58 1.412 . S
C415 C69 1.615 . S
C407 C35 1.564 . S
C439 C37 1.412 . S
C447 C80 1.422 . S
