# Generated by pormake.
# Topology tsx, (6,3)-cn, num edge types: 1
# Building blocks:
#     Node 0, Type 0, BuildingBlock: FUNLAD_clean_sbu_0, # of connection points: 6
#     Node 1, Type 0, BuildingBlock: FUNLAD_clean_sbu_0, # of connection points: 6
#     Node 2, Type 1, BuildingBlock: PAMTOO_clean_linker_0, # of connection points: 3
#     Node 3, Type 1, BuildingBlock: PAMTOO_clean_linker_0, # of connection points: 3
#     Node 4, Type 1, BuildingBlock: PAMTOO_clean_linker_0, # of connection points: 3
#     Node 5, Type 1, BuildingBlock: PAMTOO_clean_linker_0, # of connection points: 3
#     Edge 6, Type (0, 1), BuildingBlock: KIFKEQ_clean_linker_1, # of connection points: 2
#     Edge 7, Type (0, 1), BuildingBlock: KIFKEQ_clean_linker_1, # of connection points: 2
#     Edge 8, Type (0, 1), BuildingBlock: KIFKEQ_clean_linker_1, # of connection points: 2
#     Edge 9, Type (0, 1), BuildingBlock: KIFKEQ_clean_linker_1, # of connection points: 2
#     Edge 10, Type (0, 1), BuildingBlock: KIFKEQ_clean_linker_1, # of connection points: 2
#     Edge 11, Type (0, 1), BuildingBlock: KIFKEQ_clean_linker_1, # of connection points: 2
#     Edge 12, Type (0, 1), BuildingBlock: KIFKEQ_clean_linker_1, # of connection points: 2
#     Edge 13, Type (0, 1), BuildingBlock: KIFKEQ_clean_linker_1, # of connection points: 2
#     Edge 14, Type (0, 1), BuildingBlock: KIFKEQ_clean_linker_1, # of connection points: 2
#     Edge 15, Type (0, 1), BuildingBlock: KIFKEQ_clean_linker_1, # of connection points: 2
#     Edge 16, Type (0, 1), BuildingBlock: KIFKEQ_clean_linker_1, # of connection points: 2
#     Edge 17, Type (0, 1), BuildingBlock: KIFKEQ_clean_linker_1, # of connection points: 2
# Relax obj value: 0.125
# Max RMSD: 0.131
# Mean RMSD: 0.119
data_MOF--net-tsx--node1-FUNLAD_clean_sbu_0--node2-PAMTOO_clean_linker_0--edge1-KIFKEQ_clean_linker_1
_symmetry_space_group_name_H-M    P1
_symmetry_Int_Tables_number       1
_symmetry_cell_setting            triclinic
loop_
_symmetry_equiv_pos_as_xyz
'x, y, z'
_cell_length_a     19.590531
_cell_length_b     21.756799
_cell_length_c     40.324935
_cell_angle_alpha  82.279221
_cell_angle_beta   92.05769
_cell_angle_gamma 90.074263
loop_
_atom_site_label
_atom_site_type_symbol
_atom_site_fract_x
_atom_site_fract_y
_atom_site_fract_z
_atom_type_partial_charge
C0 C 0.94027 0.86886 -0.00391 0.0
N1 N 0.01629 0.93833 0.08165 0.0
C2 C 0.95201 0.93509 0.09345 0.0
C3 C 0.94195 0.9333 0.12763 0.0
C4 C 0.99862 0.93448 0.14982 0.0
C5 C 0.06447 0.93486 0.13713 0.0
C6 C 0.07218 0.937 0.10274 0.0
Zn7 Zn 0.02809 0.95318 0.03131 0.0
C8 C 0.13736 0.87655 0.00846 0.0
N9 N 0.049 0.9878 0.92574 0.0
C10 C 0.99295 0.99296 0.90465 0.0
C11 C 0.1131 0.99482 0.91389 0.0
C12 C 0.12268 0.00811 0.87956 0.0
C13 C 0.06574 0.0144 0.8572 0.0
C14 C 1.00019 0.00633 0.87013 0.0
Zn15 Zn 0.03722 0.97134 0.97617 0.0
O16 O 0.95936 0.88136 0.02485 0.0
C17 C 0.92739 0.0482 -0.00211 0.0
O18 O 0.96343 0.90037 0.97004 0.0
H19 H 0.15696 0.99074 0.93111 0.0
H20 H 0.90832 0.93601 0.07622 0.0
H21 H 0.94249 0.98706 0.91462 0.0
O22 O 0.94575 0.01944 0.02637 0.0
O23 O 0.9584 0.03742 0.97217 0.0
H24 H 0.12276 0.93995 0.09275 0.0
O25 O 0.11076 0.04143 0.98323 0.0
O26 O 0.09789 0.0249 0.03749 0.0
O27 O 0.11577 0.90523 0.98057 0.0
O28 O 0.10998 0.88718 0.03527 0.0
C29 C 0.12635 0.0543 0.01238 0.0
H30 H 0.89039 0.93237 0.13652 0.0
H31 H 0.10947 0.93648 0.15339 0.0
H32 H 0.17406 0.01463 0.87068 0.0
H33 H 0.95495 0.00994 0.85373 0.0
C34 C 0.41765 0.51529 0.49343 0.0
N35 N 0.53437 0.57325 0.57122 0.0
C36 C 0.47718 0.57462 0.58927 0.0
C37 C 0.48173 0.56401 0.62417 0.0
C38 C 0.54565 0.55148 0.64053 0.0
C39 C 0.60374 0.55029 0.62128 0.0
C40 C 0.59694 0.56158 0.58648 0.0
Zn41 Zn 0.52733 0.5892 0.5204 0.0
C42 C 0.61684 0.50529 0.48871 0.0
N43 N 0.51543 0.62374 0.41399 0.0
C44 C 0.4548 0.62104 0.3967 0.0
C45 C 0.57548 0.62948 0.39797 0.0
C46 C 0.57643 0.62999 0.36344 0.0
C47 C 0.51512 0.62344 0.34512 0.0
C48 C 0.45346 0.62066 0.36204 0.0
Zn49 Zn 0.52008 0.60945 0.46503 0.0
O50 O 0.44714 0.52734 0.52028 0.0
C51 C 0.43112 0.69412 0.49527 0.0
O52 O 0.43802 0.54188 0.46545 0.0
H53 H 0.62318 0.6311 0.41215 0.0
H54 H 0.42794 0.58376 0.57658 0.0
H55 H 0.40765 0.6165 0.40994 0.0
O56 O 0.45562 0.66344 0.52218 0.0
O57 O 0.44909 0.68055 0.46718 0.0
H58 H 0.64178 0.56114 0.57163 0.0
O59 O 0.60095 0.67662 0.46629 0.0
O60 O 0.60764 0.65163 0.52078 0.0
O61 O 0.59202 0.53865 0.46291 0.0
O62 O 0.5982 0.51506 0.51744 0.0
C63 C 0.62874 0.68357 0.49456 0.0
H64 H 0.43565 0.56464 0.63819 0.0
H65 H 0.65401 0.54142 0.63302 0.0
H66 H 0.62504 0.63365 0.35137 0.0
H67 H 0.40502 0.6152 0.34899 0.0
H68 H 0.07665 0.94642 0.40229 0.0
H69 H 0.93749 0.1012 0.38164 0.0
H70 H 0.04312 0.06441 0.47738 0.0
H71 H 0.88991 0.09665 0.47676 0.0
C72 C 0.88736 0.12738 0.45267 0.0
O73 O 0.95218 0.13592 0.44065 0.0
H74 H 0.85464 0.10373 0.43511 0.0
C75 C 0.05032 0.98547 0.41021 0.0
C76 C 0.06446 1.00079 0.44241 0.0
C77 C 0.00519 0.02159 0.38779 0.0
C78 C 0.97362 0.07329 0.3982 0.0
C79 C 0.98648 0.08831 0.43053 0.0
C80 C 0.03276 0.05259 0.4525 0.0
H81 H 0.14094 0.19088 0.60015 0.0
H82 H 0.01959 0.0251 0.60391 0.0
H83 H 0.0364 0.14506 0.51107 0.0
H84 H 0.88822 0.08963 0.53156 0.0
C85 C 0.91014 0.04731 0.5464 0.0
O86 O 0.97939 0.0437 0.54156 0.0
H87 H 0.90137 0.05112 0.57321 0.0
C88 C 0.10839 0.15983 0.58783 0.0
C89 C 0.09332 0.17337 0.55328 0.0
C90 C 0.08224 0.10638 0.60647 0.0
C91 C 0.04168 0.06593 0.58997 0.0
C92 C 0.02422 0.08026 0.55588 0.0
C93 C 0.05039 0.13376 0.5374 0.0
H94 H 0.61756 0.37053 0.89475 0.0
H95 H 0.50551 0.53924 0.89822 0.0
H96 H 0.53656 0.40959 0.98754 0.0
H97 H 0.38648 0.47964 0.96509 0.0
C98 C 0.41222 0.5242 0.95698 0.0
O99 O 0.48212 0.51731 0.96154 0.0
H100 H 0.39855 0.53754 0.92996 0.0
C101 C 0.58863 0.40036 0.90861 0.0
C102 C 0.58107 0.38353 0.94314 0.0
C103 C 0.56101 0.456 0.89194 0.0
C104 C 0.5274 0.49603 0.9105 0.0
C105 C 0.51761 0.47905 0.9447 0.0
C106 C 0.5442 0.42267 0.96108 0.0
H107 H 0.59688 0.62255 0.08833 0.0
H108 H 0.47872 0.45722 0.11465 0.0
H109 H 0.56637 0.49257 0.01791 0.0
H110 H 0.41934 0.45299 0.0194 0.0
C111 C 0.42057 0.42192 0.04346 0.0
O112 O 0.48662 0.41834 0.05655 0.0
H113 H 0.3866 0.44264 0.06058 0.0
C114 C 0.57451 0.57991 0.08186 0.0
C115 C 0.58554 0.56232 0.05027 0.0
C116 C 0.53692 0.54207 0.10552 0.0
C117 C 0.50819 0.48704 0.09683 0.0
C118 C 0.51783 0.46965 0.06513 0.0
C119 C 0.55766 0.50667 0.0421 0.0
H120 H 0.22683 0.09888 0.97046 0.0
H121 H 0.14102 0.1185 0.06561 0.0
H122 H 0.3109 0.17852 0.97893 0.0
H123 H 0.22178 0.20055 0.07331 0.0
H124 H 0.39399 0.32517 0.09173 0.0
H125 H 0.33304 0.22929 0.08497 0.0
H126 H 0.32107 0.28434 0.9777 0.0
H127 H 0.38608 0.37681 0.98468 0.0
C128 C 0.22564 0.1207 -0.00695 0.0
C129 C 0.1772 0.10276 0.01728 0.0
C130 C 0.27368 0.16657 -0.00208 0.0
C131 C 0.27345 0.19651 0.02682 0.0
C132 C 0.22496 0.17793 0.05109 0.0
C133 C 0.17795 0.13124 0.04653 0.0
C134 C 0.37954 0.31561 0.06675 0.0
C135 C 0.39347 0.35881 0.03879 0.0
C136 C 0.34382 0.26119 0.0628 0.0
C137 C 0.32036 0.24937 0.03081 0.0
C138 C 0.33822 0.2912 0.00275 0.0
C139 C 0.37492 0.34492 0.00671 0.0
H140 H 0.22716 0.86716 0.95984 0.0
H141 H 0.16998 0.77958 0.05741 0.0
H142 H 0.30606 0.78296 0.95574 0.0
H143 H 0.25013 0.69453 0.05336 0.0
H144 H 0.30169 0.5221 -0.00319 0.0
H145 H 0.24747 0.61034 0.01698 0.0
H146 H 0.41109 0.72902 0.97792 0.0
H147 H 0.46439 0.64076 0.95716 0.0
C148 C 0.23234 0.8303 0.98071 0.0
C149 C 0.19183 0.82958 0.00879 0.0
C150 C 0.27817 0.78226 0.9785 0.0
C151 C 0.28435 0.732 0.00422 0.0
C152 C 0.24612 0.73254 0.03307 0.0
C153 C 0.20054 0.78124 0.03545 0.0
C154 C 0.32683 0.56677 -0.00665 0.0
C155 C 0.38702 0.57485 0.97542 0.0
C156 C 0.29608 0.61722 0.00507 0.0
C157 C 0.3247 0.67676 -0.00123 0.0
C158 C 0.38743 0.68383 0.98279 0.0
C159 C 0.41811 0.63339 0.97106 0.0
H160 H 0.93541 0.76105 0.03766 0.0
H161 H 0.83555 0.86189 0.94975 0.0
H162 H 0.84833 0.68084 0.03893 0.0
H163 H 0.74634 0.78172 0.95161 0.0
H164 H 0.56827 0.68335 0.02409 0.0
H165 H 0.65694 0.75344 0.00012 0.0
H166 H 0.7953 0.59833 0.00342 0.0
H167 H 0.70606 0.52815 0.02694 0.0
C168 C 0.89519 0.76549 0.01832 0.0
C169 C 0.89183 0.81763 -0.00628 0.0
C170 C 0.8457 0.71935 0.01887 0.0
C171 C 0.79087 0.72498 -0.00475 0.0
C172 C 0.78841 0.77625 0.96995 0.0
C173 C 0.83926 0.82188 0.96888 0.0
C174 C 0.61684 0.66414 0.01844 0.0
C175 C 0.63086 0.60071 0.02749 0.0
C176 C 0.6674 0.70408 0.00464 0.0
C177 C 0.73302 0.68124 0.00024 0.0
C178 C 0.74509 0.61698 0.00667 0.0
C179 C 0.69412 0.57689 0.01996 0.0
H180 H 0.85896 0.0956 0.04734 0.0
H181 H 0.86558 0.10225 0.93989 0.0
H182 H 0.7643 0.17064 0.03996 0.0
H183 H 0.77226 0.17648 0.9327 0.0
H184 H 0.57224 0.2678 0.92511 0.0
H185 H 0.649 0.18059 0.94316 0.0
H186 H 0.74632 0.28382 0.01595 0.0
H187 H 0.66848 0.3711 -0.00198 0.0
C188 C 0.84015 0.11284 0.02223 0.0
C189 C 0.86986 0.09301 -0.0058 0.0
C190 C 0.78613 0.1558 0.01804 0.0
C191 C 0.76033 0.1789 0.98578 0.0
C192 C 0.78997 0.15866 0.95791 0.0
C193 C 0.84403 0.11645 0.96205 0.0
C194 C 0.60893 0.27118 0.94554 0.0
C195 C 0.61522 0.32635 0.95986 0.0
C196 C 0.65308 0.22147 0.95575 0.0
C197 C 0.70472 0.22595 0.98041 0.0
C198 C 0.70707 0.27904 -0.00313 0.0
C199 C 0.66251 0.32892 0.98667 0.0
H200 H 0.7099 0.6934 0.54942 0.0
H201 H 0.66665 0.78133 0.44822 0.0
H202 H 0.78351 0.77914 0.55967 0.0
H203 H 0.74104 0.86811 0.45878 0.0
H204 H 0.92636 0.98924 0.49034 0.0
H205 H 0.86498 0.89853 0.47465 0.0
H206 H 0.75074 0.889 0.56482 0.0
H207 H 0.81138 0.9794 0.58021 0.0
C208 C 0.71669 0.73076 0.52918 0.0
C209 C 0.68155 0.73107 0.49814 0.0
C210 C 0.75877 0.77996 0.53514 0.0
C211 C 0.76689 0.83073 0.51024 0.0
C212 C 0.73549 0.82946 0.47842 0.0
C213 C 0.69297 0.77991 0.4724 0.0
C214 C 0.88812 0.96762 0.50671 0.0
C215 C 0.87428 0.99073 0.53674 0.0
C216 C 0.85295 0.91594 0.4977 0.0
C217 C 0.80372 0.88639 0.51871 0.0
C218 C 0.78939 0.91015 0.54846 0.0
C219 C 0.82396 0.96192 0.55725 0.0
H220 H 0.67757 0.48451 0.43161 0.0
H221 H 0.66601 0.41211 0.53643 0.0
H222 H 0.75071 0.3984 0.42311 0.0
H223 H 0.73838 0.32453 0.52766 0.0
H224 H 0.91123 0.19668 0.50393 0.0
H225 H 0.85283 0.29206 0.51355 0.0
H226 H 0.73411 0.28949 0.42128 0.0
H227 H 0.79318 0.19533 0.41169 0.0
C228 C 0.69071 0.4502 0.45291 0.0
C229 C 0.66531 0.45484 0.48466 0.0
C230 C 0.73251 0.40062 0.44797 0.0
C231 C 0.74976 0.3541 0.47458 0.0
C232 C 0.72643 0.35981 0.50666 0.0
C233 C 0.68467 0.40978 0.51166 0.0
C234 C 0.87284 0.217 0.48575 0.0
C235 C 0.85576 0.18842 0.45737 0.0
C236 C 0.83922 0.27128 0.49129 0.0
C237 C 0.78848 0.29825 0.4683 0.0
C238 C 0.77336 0.27045 0.43934 0.0
C239 C 0.80684 0.21633 0.43389 0.0
H240 H 0.34793 0.47585 0.54884 0.0
H241 H 0.35656 0.45488 0.44399 0.0
H242 H 0.25851 0.39945 0.5558 0.0
H243 H 0.26465 0.37739 0.45104 0.0
H244 H 0.18161 0.17956 0.5022 0.0
H245 H 0.25108 0.26929 0.48105 0.0
H246 H 0.14003 0.38263 0.54111 0.0
H247 H 0.07301 0.29255 0.56299 0.0
C248 C 0.33025 0.45525 0.52707 0.0
C249 C 0.35979 0.47124 0.49586 0.0
C250 C 0.27816 0.41176 0.53102 0.0
C251 C 0.25376 0.3827 0.50391 0.0
C252 C 0.28242 0.39907 0.47241 0.0
C253 C 0.33475 0.44345 0.46834 0.0
C254 C 0.17114 0.22421 0.51006 0.0
C255 C 0.12297 0.22939 0.5345 0.0
C256 C 0.21063 0.27558 0.49791 0.0
C257 C 0.202 0.33276 0.50995 0.0
C258 C 0.14904 0.33887 0.53196 0.0
C259 C 0.11042 0.28755 0.54437 0.0
H260 H 0.33622 0.70636 0.54236 0.0
H261 H 0.41497 0.79677 0.44969 0.0
H262 H 0.24717 0.78677 0.53956 0.0
H263 H 0.32789 0.87726 0.44743 0.0
H264 H 0.1924 0.03503 0.45991 0.0
H265 H 0.28654 0.96483 0.48136 0.0
H266 H 0.1456 0.81144 0.49335 0.0
H267 H 0.05198 0.88155 0.47132 0.0
C268 C 0.3353 0.74402 0.52183 0.0
C269 C 0.38202 0.74525 0.4961 0.0
C270 C 0.28451 0.78982 0.52024 0.0
C271 C 0.28114 0.83836 0.49343 0.0
C272 C 0.32991 0.84088 0.46862 0.0
C273 C 0.37935 0.79453 0.46976 0.0
C274 C 0.18141 0.98676 0.46836 0.0
C275 C 0.11543 0.96336 0.4641 0.0
C276 C 0.2351 0.94663 0.48041 0.0
C277 C 0.22323 0.88277 0.48879 0.0
C278 C 0.156 0.86052 0.48735 0.0
C279 C 0.10256 0.90046 0.47476 0.0
H280 H 0.91029 0.01083 0.17545 0.0
H281 H 0.06684 0.87248 0.2046 0.0
H282 H 0.90232 0.02837 0.2337 0.0
H283 H 0.05967 0.89084 0.26285 0.0
H284 H 0.98962 0.90651 0.36807 0.0
H285 H 0.98016 0.88098 0.31096 0.0
H286 H 0.98296 0.076 0.27255 0.0
H287 H 0.99388 0.10167 0.32946 0.0
C288 C 0.94217 0.98344 0.19439 0.0
C289 C 0.9893 0.94035 0.18552 0.0
C290 C 0.93804 0.99392 0.22765 0.0
C291 C 0.9806 0.96121 0.25271 0.0
C292 C 0.02589 0.9164 0.24406 0.0
C293 C 0.03041 0.90626 0.21073 0.0
C294 C 0.98837 0.94395 0.34744 0.0
C295 C 0.99309 0.00614 0.35331 0.0
C296 C 0.98274 0.92927 0.31479 0.0
C297 C 0.98102 0.97649 0.28739 0.0
C298 C 0.98332 0.03868 0.29325 0.0
C299 C 0.98947 0.05336 0.32586 0.0
H300 H 0.16064 0.96807 0.81881 0.0
H301 H 0.99092 0.09616 0.81303 0.0
H302 H 0.1742 0.9934 0.75856 0.0
H303 H 1.0029 0.11977 0.75278 0.0
H304 H 0.07549 0.19092 0.65053 0.0
H305 H 0.07948 0.17095 0.71149 0.0
H306 H 0.11173 0.97588 0.70699 0.0
H307 H 0.11036 0.99622 0.64599 0.0
C308 C 0.12645 1.00182 0.8047 0.0
C309 C 0.07455 0.02996 0.82066 0.0
C310 C 0.13385 0.01591 0.77018 0.0
C311 C 0.08968 0.05861 0.75092 0.0
C312 C 0.03833 0.08725 0.76696 0.0
C313 C 0.03085 0.07309 0.80142 0.0
C314 C 0.08506 0.144 0.66255 0.0
C315 C 0.09233 0.09508 0.64344 0.0
C316 C 0.08646 0.13245 0.69746 0.0
C317 C 0.09514 0.07175 0.71404 0.0
C318 C 0.10529 0.02321 0.69498 0.0
C319 C 0.10386 0.03476 0.66004 0.0
H320 H 0.61835 0.45927 0.67855 0.0
H321 H 0.48656 0.61562 0.68572 0.0
H322 H 0.62722 0.43771 0.73958 0.0
H323 H 0.49461 0.59345 0.7468 0.0
H324 H 0.58391 0.56912 0.85499 0.0
H325 H 0.58298 0.59359 0.79404 0.0
H326 H 0.54588 0.4009 0.78466 0.0
H327 H 0.54517 0.3765 0.84533 0.0
C328 C 0.59166 0.48921 0.69321 0.0
C329 C 0.55169 0.53905 0.67748 0.0
C330 C 0.59633 0.47661 0.72806 0.0
C331 C 0.56158 0.51392 0.74783 0.0
C332 C 0.52239 0.5643 0.73212 0.0
C333 C 0.51723 0.57659 0.69724 0.0
C334 C 0.57523 0.53205 0.83992 0.0
C335 C 0.56464 0.47085 0.85504 0.0
C336 C 0.57483 0.54607 0.80508 0.0
C337 C 0.5644 0.4991 0.78473 0.0
C338 C 0.55499 0.43784 0.79979 0.0
C339 C 0.55483 0.4239 0.83456 0.0
H340 H 0.42482 0.66882 0.29375 0.0
H341 H 0.60761 0.55728 0.31528 0.0
H342 H 0.42736 0.65194 0.23497 0.0
H343 H 0.6107 0.54188 0.25686 0.0
H344 H 0.6379 0.58239 0.14525 0.0
H345 H 0.63022 0.60664 0.20222 0.0
H346 H 0.41537 0.56192 0.20066 0.0
H347 H 0.42273 0.53874 0.14307 0.0
C348 C 0.46541 0.64075 0.28602 0.0
C349 C 0.51645 0.61502 0.30919 0.0
C350 C 0.46684 0.63118 0.25241 0.0
C351 C 0.51955 0.59607 0.24137 0.0
C352 C 0.57022 0.57019 0.26453 0.0
C353 C 0.56855 0.57931 0.29802 0.0
C354 C 0.5888 0.57855 0.15686 0.0
C355 C 0.5309 0.55865 0.13975 0.0
C356 C 0.58455 0.59191 0.18957 0.0
C357 C 0.52229 0.58583 0.20588 0.0
C358 C 0.46391 0.56732 0.18857 0.0
C359 C 0.46826 0.55351 0.15581 0.0
loop_
_geom_bond_atom_site_label_1
_geom_bond_atom_site_label_2
_geom_bond_distance
_geom_bond_site_symmetry_2
_ccdc_geom_bond_type
C0 O16 1.251 . S
C0 O18 1.254 1_554 S
N1 C2 1.333 1_445 S
N1 C6 1.307 . S
N1 Zn7 2.020 . S
C2 N1 1.333 1_665 S
C2 C3 1.379 . S
C2 H20 0.952 . S
C3 C2 1.379 . S
C3 C4 1.390 1_665 S
C3 H30 0.949 . S
C4 C3 1.390 1_445 S
C4 C5 1.357 . S
C5 C4 1.357 . S
C5 C6 1.370 . S
C5 H31 0.950 . S
C6 N1 1.307 . S
C6 C5 1.370 . S
C6 H24 0.948 . S
Zn7 N1 2.020 . S
Zn7 O16 2.039 1_445 S
Zn7 O22 2.034 1_455 S
Zn7 O26 2.025 . S
Zn7 O28 2.024 1_545 S
C8 O27 1.246 1_554 S
C8 O28 1.249 . S
N9 C10 1.307 1_455 S
N9 C11 1.333 . S
N9 Zn15 2.020 . S
C10 N9 1.307 1_655 S
C10 C14 1.370 . S
C10 H21 0.948 . S
C11 N9 1.333 . S
C11 C12 1.379 . S
C11 H19 0.952 . S
C12 C11 1.379 . S
C12 C13 1.390 . S
C12 H32 0.949 . S
C13 C12 1.390 . S
C13 C14 1.357 1_455 S
C14 C10 1.370 . S
C14 C13 1.357 1_655 S
C14 H33 0.950 . S
Zn15 N9 2.020 . S
Zn15 O18 2.025 1_445 S
Zn15 O23 2.024 1_455 S
Zn15 O25 2.039 . S
Zn15 O27 2.034 1_545 S
O16 C0 1.251 . S
O16 Zn7 2.039 1_665 S
C17 O22 1.246 . S
C17 O23 1.249 1_554 S
O18 C0 1.254 1_556 S
O18 Zn15 2.025 1_665 S
H19 C11 0.952 . S
H20 C2 0.952 . S
H21 C10 0.948 . S
O22 Zn7 2.034 1_655 S
O22 C17 1.246 . S
O23 Zn15 2.024 1_655 S
O23 C17 1.249 1_556 S
H24 C6 0.948 . S
O25 Zn15 2.039 . S
O25 C29 1.251 1_556 S
O26 Zn7 2.025 . S
O26 C29 1.254 . S
O27 C8 1.246 1_556 S
O27 Zn15 2.034 1_565 S
O28 Zn7 2.024 1_565 S
O28 C8 1.249 . S
C29 O25 1.251 1_554 S
C29 O26 1.254 . S
H30 C3 0.949 . S
H31 C5 0.950 . S
H32 C12 0.949 . S
H33 C14 0.950 . S
C34 O50 1.251 . S
C34 O52 1.254 . S
N35 C36 1.333 . S
N35 C40 1.307 . S
N35 Zn41 2.020 . S
C36 N35 1.333 . S
C36 C37 1.379 . S
C36 H54 0.952 . S
C37 C36 1.379 . S
C37 C38 1.390 . S
C37 H64 0.949 . S
C38 C37 1.390 . S
C38 C39 1.357 . S
C39 C38 1.357 . S
C39 C40 1.370 . S
C39 H65 0.950 . S
C40 N35 1.307 . S
C40 C39 1.370 . S
C40 H58 0.948 . S
Zn41 N35 2.020 . S
Zn41 O50 2.039 . S
Zn41 O56 2.034 . S
Zn41 O60 2.025 . S
Zn41 O62 2.024 . S
C42 O61 1.246 . S
C42 O62 1.249 . S
N43 C44 1.307 . S
N43 C45 1.333 . S
N43 Zn49 2.020 . S
C44 N43 1.307 . S
C44 C48 1.370 . S
C44 H55 0.948 . S
C45 N43 1.333 . S
C45 C46 1.379 . S
C45 H53 0.952 . S
C46 C45 1.379 . S
C46 C47 1.390 . S
C46 H66 0.949 . S
C47 C46 1.390 . S
C47 C48 1.357 . S
C48 C44 1.370 . S
C48 C47 1.357 . S
C48 H67 0.950 . S
Zn49 N43 2.020 . S
Zn49 O52 2.025 . S
Zn49 O57 2.024 . S
Zn49 O59 2.039 . S
Zn49 O61 2.034 . S
O50 C34 1.251 . S
O50 Zn41 2.039 . S
C51 O56 1.246 . S
C51 O57 1.249 . S
O52 C34 1.254 . S
O52 Zn49 2.025 . S
H53 C45 0.952 . S
H54 C36 0.952 . S
H55 C44 0.948 . S
O56 Zn41 2.034 . S
O56 C51 1.246 . S
O57 Zn49 2.024 . S
O57 C51 1.249 . S
H58 C40 0.948 . S
O59 Zn49 2.039 . S
O59 C63 1.251 . S
O60 Zn41 2.025 . S
O60 C63 1.254 . S
O61 C42 1.246 . S
O61 Zn49 2.034 . S
O62 Zn41 2.024 . S
O62 C42 1.249 . S
C63 O59 1.251 . S
C63 O60 1.254 . S
H64 C37 0.949 . S
H65 C39 0.950 . S
H66 C46 0.949 . S
H67 C48 0.950 . S
H68 C75 0.929 . S
H69 C78 0.930 . S
H70 C80 0.929 . S
H71 C72 0.969 . S
C72 H71 0.969 . S
C72 O73 1.550 . S
C72 H74 0.973 . S
O73 C72 1.550 . S
O73 C79 1.412 . S
H74 C72 0.973 . S
C75 H68 0.929 . S
C75 C76 1.400 . S
C75 C77 1.364 . S
C76 C75 1.400 . S
C76 C80 1.377 . S
C77 C75 1.364 . S
C77 C78 1.374 1_465 S
C78 H69 0.930 . S
C78 C77 1.374 1_645 S
C78 C79 1.383 . S
C79 O73 1.412 . S
C79 C78 1.383 . S
C79 C80 1.394 1_645 S
C80 H70 0.929 . S
C80 C76 1.377 . S
C80 C79 1.394 1_465 S
H81 C88 0.929 . S
H82 C91 0.930 1_565 S
H83 C93 0.929 . S
H84 C85 0.969 . S
C85 H84 0.969 . S
C85 O86 1.550 . S
C85 H87 0.973 . S
O86 C85 1.550 . S
O86 C92 1.412 1_565 S
H87 C85 0.973 . S
C88 H81 0.929 . S
C88 C89 1.400 . S
C88 C90 1.364 . S
C89 C88 1.400 . S
C89 C93 1.377 . S
C90 C88 1.364 . S
C90 C91 1.374 1_455 S
C91 H82 0.930 1_545 S
C91 C90 1.374 1_655 S
C91 C92 1.383 . S
C92 O86 1.412 1_545 S
C92 C91 1.383 . S
C92 C93 1.394 1_655 S
C93 H83 0.929 . S
C93 C89 1.377 . S
C93 C92 1.394 1_455 S
H94 C101 0.929 . S
H95 C104 0.930 . S
H96 C106 0.929 1_554 S
H97 C98 0.969 . S
C98 H97 0.969 . S
C98 O99 1.551 . S
C98 H100 0.973 . S
O99 C98 1.551 . S
O99 C105 1.414 . S
H100 C98 0.973 . S
C101 H94 0.929 . S
C101 C102 1.400 . S
C101 C103 1.364 . S
C102 C101 1.400 . S
C102 C106 1.377 . S
C103 C101 1.364 . S
C103 C104 1.374 . S
C104 H95 0.930 . S
C104 C103 1.374 . S
C104 C105 1.383 . S
C105 O99 1.414 . S
C105 C104 1.383 . S
C105 C106 1.394 . S
C106 H96 0.929 1_556 S
C106 C102 1.377 . S
C106 C105 1.394 . S
H107 C114 0.929 . S
H108 C117 0.930 . S
H109 C119 0.929 1_556 S
H110 C111 0.969 . S
C111 H110 0.969 . S
C111 O112 1.550 . S
C111 H113 0.973 . S
O112 C111 1.550 . S
O112 C118 1.412 . S
H113 C111 0.973 . S
C114 H107 0.929 . S
C114 C115 1.400 . S
C114 C116 1.364 . S
C115 C114 1.400 . S
C115 C119 1.377 . S
C116 C114 1.364 . S
C116 C117 1.374 . S
C117 H108 0.930 . S
C117 C116 1.374 . S
C117 C118 1.383 . S
C118 O112 1.412 . S
C118 C117 1.383 . S
C118 C119 1.394 . S
C119 H109 0.929 1_554 S
C119 C115 1.377 . S
C119 C118 1.394 . S
H120 C128 0.950 . S
H121 C133 0.950 . S
H122 C130 0.950 . S
H123 C132 0.950 . S
H124 C134 0.950 . S
H125 C136 0.950 . S
H126 C138 0.950 . S
H127 C139 0.950 . S
C128 H120 0.950 . S
C128 C129 1.386 1_556 S
C128 C130 1.391 . S
C129 C128 1.386 1_554 S
C129 C133 1.393 . S
C130 H122 0.950 . S
C130 C128 1.391 . S
C130 C131 1.400 1_556 S
C131 C130 1.400 1_554 S
C131 C132 1.398 . S
C131 C137 1.491 . S
C132 H123 0.950 . S
C132 C131 1.398 . S
C132 C133 1.391 . S
C133 H121 0.950 . S
C133 C129 1.393 . S
C133 C132 1.391 . S
C134 H124 0.950 . S
C134 C135 1.386 . S
C134 C136 1.391 . S
C135 C134 1.386 . S
C135 C139 1.393 1_554 S
C136 H125 0.950 . S
C136 C134 1.391 . S
C136 C137 1.400 . S
C137 C131 1.491 . S
C137 C136 1.400 . S
C137 C138 1.398 1_554 S
C138 H126 0.950 . S
C138 C137 1.398 1_556 S
C138 C139 1.391 . S
C139 H127 0.950 . S
C139 C135 1.393 1_556 S
C139 C138 1.391 . S
H140 C148 0.950 . S
H141 C153 0.950 . S
H142 C150 0.950 . S
H143 C152 0.950 . S
H144 C154 0.950 . S
H145 C156 0.950 . S
H146 C158 0.950 . S
H147 C159 0.950 . S
C148 H140 0.950 . S
C148 C149 1.386 1_556 S
C148 C150 1.391 . S
C149 C148 1.386 1_554 S
C149 C153 1.393 . S
C150 H142 0.950 . S
C150 C148 1.391 . S
C150 C151 1.400 1_556 S
C151 C150 1.400 1_554 S
C151 C152 1.398 . S
C151 C157 1.491 . S
C152 H143 0.950 . S
C152 C151 1.398 . S
C152 C153 1.391 . S
C153 H141 0.950 . S
C153 C149 1.393 . S
C153 C152 1.391 . S
C154 H144 0.950 . S
C154 C155 1.385 1_554 S
C154 C156 1.391 . S
C155 C154 1.385 1_556 S
C155 C159 1.393 . S
C156 H145 0.950 . S
C156 C154 1.391 . S
C156 C157 1.400 . S
C157 C151 1.491 . S
C157 C156 1.400 . S
C157 C158 1.398 1_554 S
C158 H146 0.950 . S
C158 C157 1.398 1_556 S
C158 C159 1.391 . S
C159 H147 0.950 . S
C159 C155 1.393 . S
C159 C158 1.391 . S
H160 C168 0.950 . S
H161 C173 0.950 . S
H162 C170 0.950 . S
H163 C172 0.950 . S
H164 C174 0.950 1_556 S
H165 C176 0.950 . S
H166 C178 0.950 . S
H167 C179 0.950 . S
C168 H160 0.950 . S
C168 C169 1.386 . S
C168 C170 1.391 . S
C169 C168 1.386 . S
C169 C173 1.393 1_554 S
C170 H162 0.950 . S
C170 C168 1.391 . S
C170 C171 1.400 . S
C171 C170 1.400 . S
C171 C172 1.398 1_554 S
C171 C177 1.491 . S
C172 H163 0.950 . S
C172 C171 1.398 1_556 S
C172 C173 1.391 . S
C173 H161 0.950 . S
C173 C169 1.393 1_556 S
C173 C172 1.391 . S
C174 H164 0.950 1_554 S
C174 C175 1.386 . S
C174 C176 1.391 1_554 S
C175 C174 1.386 . S
C175 C179 1.393 . S
C176 H165 0.950 . S
C176 C174 1.391 1_556 S
C176 C177 1.400 1_556 S
C177 C171 1.491 . S
C177 C176 1.400 1_554 S
C177 C178 1.398 . S
C178 H166 0.950 . S
C178 C177 1.398 . S
C178 C179 1.391 . S
C179 H167 0.950 . S
C179 C175 1.393 . S
C179 C178 1.391 . S
H180 C188 0.950 . S
H181 C193 0.950 . S
H182 C190 0.950 . S
H183 C192 0.950 . S
H184 C194 0.950 . S
H185 C196 0.950 . S
H186 C198 0.950 . S
H187 C199 0.950 . S
C188 H180 0.950 . S
C188 C189 1.386 . S
C188 C190 1.391 . S
C189 C188 1.386 . S
C189 C193 1.393 1_554 S
C190 H182 0.950 . S
C190 C188 1.391 . S
C190 C191 1.400 1_554 S
C191 C190 1.400 1_556 S
C191 C192 1.398 . S
C191 C197 1.491 . S
C192 H183 0.950 . S
C192 C191 1.398 . S
C192 C193 1.391 . S
C193 H181 0.950 . S
C193 C189 1.393 1_556 S
C193 C192 1.391 . S
C194 H184 0.950 . S
C194 C195 1.386 . S
C194 C196 1.391 . S
C195 C194 1.386 . S
C195 C199 1.393 1_556 S
C196 H185 0.950 . S
C196 C194 1.391 . S
C196 C197 1.400 . S
C197 C191 1.491 . S
C197 C196 1.400 . S
C197 C198 1.398 1_556 S
C198 H186 0.950 . S
C198 C197 1.398 1_554 S
C198 C199 1.391 . S
C199 H187 0.950 . S
C199 C195 1.393 1_554 S
C199 C198 1.391 . S
H200 C208 0.950 . S
H201 C213 0.950 . S
H202 C210 0.950 . S
H203 C212 0.950 . S
H204 C214 0.950 . S
H205 C216 0.950 . S
H206 C218 0.950 . S
H207 C219 0.950 . S
C208 H200 0.950 . S
C208 C209 1.386 . S
C208 C210 1.391 . S
C209 C208 1.386 . S
C209 C213 1.393 . S
C210 H202 0.950 . S
C210 C208 1.391 . S
C210 C211 1.400 . S
C211 C210 1.400 . S
C211 C212 1.398 . S
C211 C217 1.491 . S
C212 H203 0.950 . S
C212 C211 1.398 . S
C212 C213 1.391 . S
C213 H201 0.950 . S
C213 C209 1.393 . S
C213 C212 1.391 . S
C214 H204 0.950 . S
C214 C215 1.386 . S
C214 C216 1.391 . S
C215 C214 1.386 . S
C215 C219 1.393 . S
C216 H205 0.950 . S
C216 C214 1.391 . S
C216 C217 1.400 . S
C217 C211 1.491 . S
C217 C216 1.400 . S
C217 C218 1.398 . S
C218 H206 0.950 . S
C218 C217 1.398 . S
C218 C219 1.391 . S
C219 H207 0.950 . S
C219 C215 1.393 . S
C219 C218 1.391 . S
H220 C228 0.950 . S
H221 C233 0.950 . S
H222 C230 0.950 . S
H223 C232 0.950 . S
H224 C234 0.950 . S
H225 C236 0.950 . S
H226 C238 0.950 . S
H227 C239 0.950 . S
C228 H220 0.950 . S
C228 C229 1.386 . S
C228 C230 1.391 . S
C229 C228 1.386 . S
C229 C233 1.393 . S
C230 H222 0.950 . S
C230 C228 1.391 . S
C230 C231 1.400 . S
C231 C230 1.400 . S
C231 C232 1.398 . S
C231 C237 1.491 . S
C232 H223 0.950 . S
C232 C231 1.398 . S
C232 C233 1.391 . S
C233 H221 0.950 . S
C233 C229 1.393 . S
C233 C232 1.391 . S
C234 H224 0.950 . S
C234 C235 1.386 . S
C234 C236 1.391 . S
C235 C234 1.386 . S
C235 C239 1.393 . S
C236 H225 0.950 . S
C236 C234 1.391 . S
C236 C237 1.400 . S
C237 C231 1.491 . S
C237 C236 1.400 . S
C237 C238 1.398 . S
C238 H226 0.950 . S
C238 C237 1.398 . S
C238 C239 1.391 . S
C239 H227 0.950 . S
C239 C235 1.393 . S
C239 C238 1.391 . S
H240 C248 0.950 . S
H241 C253 0.950 . S
H242 C250 0.950 . S
H243 C252 0.950 . S
H244 C254 0.950 . S
H245 C256 0.950 . S
H246 C258 0.950 . S
H247 C259 0.950 . S
C248 H240 0.950 . S
C248 C249 1.386 . S
C248 C250 1.391 . S
C249 C248 1.386 . S
C249 C253 1.393 . S
C250 H242 0.950 . S
C250 C248 1.391 . S
C250 C251 1.400 . S
C251 C250 1.400 . S
C251 C252 1.398 . S
C251 C257 1.491 . S
C252 H243 0.950 . S
C252 C251 1.398 . S
C252 C253 1.391 . S
C253 H241 0.950 . S
C253 C249 1.393 . S
C253 C252 1.391 . S
C254 H244 0.950 . S
C254 C255 1.386 . S
C254 C256 1.391 . S
C255 C254 1.386 . S
C255 C259 1.393 . S
C256 H245 0.950 . S
C256 C254 1.391 . S
C256 C257 1.400 . S
C257 C251 1.491 . S
C257 C256 1.400 . S
C257 C258 1.398 . S
C258 H246 0.950 . S
C258 C257 1.398 . S
C258 C259 1.391 . S
C259 H247 0.950 . S
C259 C255 1.393 . S
C259 C258 1.391 . S
H260 C268 0.950 . S
H261 C273 0.950 . S
H262 C270 0.950 . S
H263 C272 0.950 . S
H264 C274 0.950 . S
H265 C276 0.950 . S
H266 C278 0.950 . S
H267 C279 0.950 . S
C268 H260 0.950 . S
C268 C269 1.386 . S
C268 C270 1.391 . S
C269 C268 1.386 . S
C269 C273 1.393 . S
C270 H262 0.950 . S
C270 C268 1.391 . S
C270 C271 1.400 . S
C271 C270 1.400 . S
C271 C272 1.398 . S
C271 C277 1.491 . S
C272 H263 0.950 . S
C272 C271 1.398 . S
C272 C273 1.391 . S
C273 H261 0.950 . S
C273 C269 1.393 . S
C273 C272 1.391 . S
C274 H264 0.950 . S
C274 C275 1.386 . S
C274 C276 1.391 . S
C275 C274 1.386 . S
C275 C279 1.393 . S
C276 H265 0.950 . S
C276 C274 1.391 . S
C276 C277 1.400 . S
C277 C271 1.491 . S
C277 C276 1.400 . S
C277 C278 1.398 . S
C278 H266 0.950 . S
C278 C277 1.398 . S
C278 C279 1.391 . S
C279 H267 0.950 . S
C279 C275 1.393 . S
C279 C278 1.391 . S
H280 C288 0.950 . S
H281 C293 0.950 . S
H282 C290 0.950 . S
H283 C292 0.950 . S
H284 C294 0.950 . S
H285 C296 0.950 . S
H286 C298 0.950 . S
H287 C299 0.950 . S
C288 H280 0.950 . S
C288 C289 1.386 1_545 S
C288 C290 1.391 . S
C289 C288 1.386 1_565 S
C289 C293 1.393 . S
C290 H282 0.950 . S
C290 C288 1.391 . S
C290 C291 1.400 1_545 S
C291 C290 1.400 1_565 S
C291 C292 1.398 . S
C291 C297 1.491 . S
C292 H283 0.950 . S
C292 C291 1.398 . S
C292 C293 1.391 . S
C293 H281 0.950 . S
C293 C289 1.393 . S
C293 C292 1.391 . S
C294 H284 0.950 . S
C294 C295 1.386 . S
C294 C296 1.391 . S
C295 C294 1.386 . S
C295 C299 1.393 1_565 S
C296 H285 0.950 . S
C296 C294 1.391 . S
C296 C297 1.400 . S
C297 C291 1.491 . S
C297 C296 1.400 . S
C297 C298 1.398 1_565 S
C298 H286 0.950 . S
C298 C297 1.398 1_545 S
C298 C299 1.391 . S
C299 H287 0.950 . S
C299 C295 1.393 1_545 S
C299 C298 1.391 . S
H300 C308 0.950 1_565 S
H301 C313 0.950 . S
H302 C310 0.950 1_565 S
H303 C312 0.950 . S
H304 C314 0.950 . S
H305 C316 0.950 . S
H306 C318 0.950 1_565 S
H307 C319 0.950 1_565 S
C308 H300 0.950 1_545 S
C308 C309 1.386 . S
C308 C310 1.391 . S
C309 C308 1.386 . S
C309 C313 1.393 1_455 S
C310 H302 0.950 1_545 S
C310 C308 1.391 . S
C310 C311 1.400 . S
C311 C310 1.400 . S
C311 C312 1.398 1_455 S
C311 C317 1.491 . S
C312 H303 0.950 . S
C312 C311 1.398 1_655 S
C312 C313 1.391 . S
C313 H301 0.950 . S
C313 C309 1.393 1_655 S
C313 C312 1.391 . S
C314 H304 0.950 . S
C314 C315 1.386 1_655 S
C314 C316 1.391 . S
C315 C314 1.386 1_455 S
C315 C319 1.393 . S
C316 H305 0.950 . S
C316 C314 1.391 . S
C316 C317 1.400 1_655 S
C317 C311 1.491 . S
C317 C316 1.400 1_455 S
C317 C318 1.398 . S
C318 H306 0.950 1_545 S
C318 C317 1.398 . S
C318 C319 1.391 . S
C319 H307 0.950 1_545 S
C319 C315 1.393 . S
C319 C318 1.391 . S
H320 C328 0.950 . S
H321 C333 0.950 . S
H322 C330 0.950 . S
H323 C332 0.950 . S
H324 C334 0.950 . S
H325 C336 0.950 . S
H326 C338 0.950 . S
H327 C339 0.950 . S
C328 H320 0.950 . S
C328 C329 1.386 . S
C328 C330 1.391 . S
C329 C328 1.386 . S
C329 C333 1.393 . S
C330 H322 0.950 . S
C330 C328 1.391 . S
C330 C331 1.400 . S
C331 C330 1.400 . S
C331 C332 1.398 . S
C331 C337 1.491 . S
C332 H323 0.950 . S
C332 C331 1.398 . S
C332 C333 1.391 . S
C333 H321 0.950 . S
C333 C329 1.393 . S
C333 C332 1.391 . S
C334 H324 0.950 . S
C334 C335 1.386 . S
C334 C336 1.391 . S
C335 C334 1.386 . S
C335 C339 1.393 . S
C336 H325 0.950 . S
C336 C334 1.391 . S
C336 C337 1.400 . S
C337 C331 1.491 . S
C337 C336 1.400 . S
C337 C338 1.398 . S
C338 H326 0.950 . S
C338 C337 1.398 . S
C338 C339 1.391 . S
C339 H327 0.950 . S
C339 C335 1.393 . S
C339 C338 1.391 . S
H340 C348 0.950 . S
H341 C353 0.950 . S
H342 C350 0.950 . S
H343 C352 0.950 . S
H344 C354 0.950 . S
H345 C356 0.950 . S
H346 C358 0.950 . S
H347 C359 0.950 . S
C348 H340 0.950 . S
C348 C349 1.386 . S
C348 C350 1.391 . S
C349 C348 1.386 . S
C349 C353 1.393 . S
C350 H342 0.950 . S
C350 C348 1.391 . S
C350 C351 1.400 . S
C351 C350 1.400 . S
C351 C352 1.398 . S
C351 C357 1.491 . S
C352 H343 0.950 . S
C352 C351 1.398 . S
C352 C353 1.391 . S
C353 H341 0.950 . S
C353 C349 1.393 . S
C353 C352 1.391 . S
C354 H344 0.950 . S
C354 C355 1.386 . S
C354 C356 1.391 . S
C355 C354 1.386 . S
C355 C359 1.393 . S
C356 H345 0.950 . S
C356 C354 1.391 . S
C356 C357 1.400 . S
C357 C351 1.491 . S
C357 C356 1.400 . S
C357 C358 1.398 . S
C358 H346 0.950 . S
C358 C357 1.398 . S
C358 C359 1.391 . S
C359 H347 0.950 . S
C359 C355 1.393 . S
C359 C358 1.391 . S
C135 C111 1.286 . S
C129 C29 1.406 . S
C149 C8 1.421 . S
C155 C98 1.280 . S
C169 C0 1.500 . S
C175 C115 1.481 . S
C189 C17 1.496 . S
C195 C102 1.476 . S
C209 C63 1.405 . S
C215 C85 1.288 . S
C229 C42 1.420 . S
C235 C72 1.295 . S
C255 C89 1.474 . S
C249 C34 1.500 . S
C275 C76 1.464 . S
C269 C51 1.494 . S
C289 C4 1.515 1_565 S
C295 C77 1.510 . S
C309 C13 1.519 . S
C315 C90 1.524 . S
C335 C103 1.513 . S
C329 C38 1.509 . S
C349 C47 1.528 . S
C355 C116 1.531 . S
