# Generated by pormake.
# Topology zzz, (3,6)-cn, num edge types: 1
# Building blocks:
#     Node 0, Type 0, BuildingBlock: BETDAH_clean_linker_0, # of connection points: 3
#     Node 1, Type 0, BuildingBlock: BETDAH_clean_linker_0, # of connection points: 3
#     Node 2, Type 0, BuildingBlock: BETDAH_clean_linker_0, # of connection points: 3
#     Node 3, Type 0, BuildingBlock: BETDAH_clean_linker_0, # of connection points: 3
#     Node 4, Type 0, BuildingBlock: BETDAH_clean_linker_0, # of connection points: 3
#     Node 5, Type 0, BuildingBlock: BETDAH_clean_linker_0, # of connection points: 3
#     Node 6, Type 0, BuildingBlock: BETDAH_clean_linker_0, # of connection points: 3
#     Node 7, Type 0, BuildingBlock: BETDAH_clean_linker_0, # of connection points: 3
#     Node 8, Type 1, BuildingBlock: BETDIP_clean_sbu_0, # of connection points: 6
#     Node 9, Type 1, BuildingBlock: BETDIP_clean_sbu_0, # of connection points: 6
#     Node 10, Type 1, BuildingBlock: BETDIP_clean_sbu_0, # of connection points: 6
#     Node 11, Type 1, BuildingBlock: BETDIP_clean_sbu_0, # of connection points: 6
#     Edge 12, Type (0, 1), BuildingBlock: UVAHIK_clean_linker_0, # of connection points: 2
#     Edge 13, Type (0, 1), BuildingBlock: UVAHIK_clean_linker_0, # of connection points: 2
#     Edge 14, Type (0, 1), BuildingBlock: UVAHIK_clean_linker_0, # of connection points: 2
#     Edge 15, Type (0, 1), BuildingBlock: UVAHIK_clean_linker_0, # of connection points: 2
#     Edge 16, Type (0, 1), BuildingBlock: UVAHIK_clean_linker_0, # of connection points: 2
#     Edge 17, Type (0, 1), BuildingBlock: UVAHIK_clean_linker_0, # of connection points: 2
#     Edge 18, Type (0, 1), BuildingBlock: UVAHIK_clean_linker_0, # of connection points: 2
#     Edge 19, Type (0, 1), BuildingBlock: UVAHIK_clean_linker_0, # of connection points: 2
#     Edge 20, Type (0, 1), BuildingBlock: UVAHIK_clean_linker_0, # of connection points: 2
#     Edge 21, Type (0, 1), BuildingBlock: UVAHIK_clean_linker_0, # of connection points: 2
#     Edge 22, Type (0, 1), BuildingBlock: UVAHIK_clean_linker_0, # of connection points: 2
#     Edge 23, Type (0, 1), BuildingBlock: UVAHIK_clean_linker_0, # of connection points: 2
#     Edge 24, Type (0, 1), BuildingBlock: UVAHIK_clean_linker_0, # of connection points: 2
#     Edge 25, Type (0, 1), BuildingBlock: UVAHIK_clean_linker_0, # of connection points: 2
#     Edge 26, Type (0, 1), BuildingBlock: UVAHIK_clean_linker_0, # of connection points: 2
#     Edge 27, Type (0, 1), BuildingBlock: UVAHIK_clean_linker_0, # of connection points: 2
#     Edge 28, Type (0, 1), BuildingBlock: UVAHIK_clean_linker_0, # of connection points: 2
#     Edge 29, Type (0, 1), BuildingBlock: UVAHIK_clean_linker_0, # of connection points: 2
#     Edge 30, Type (0, 1), BuildingBlock: UVAHIK_clean_linker_0, # of connection points: 2
#     Edge 31, Type (0, 1), BuildingBlock: UVAHIK_clean_linker_0, # of connection points: 2
#     Edge 32, Type (0, 1), BuildingBlock: UVAHIK_clean_linker_0, # of connection points: 2
#     Edge 33, Type (0, 1), BuildingBlock: UVAHIK_clean_linker_0, # of connection points: 2
#     Edge 34, Type (0, 1), BuildingBlock: UVAHIK_clean_linker_0, # of connection points: 2
#     Edge 35, Type (0, 1), BuildingBlock: UVAHIK_clean_linker_0, # of connection points: 2
# Relax obj value: 0.222
# Max RMSD: 0.153
# Mean RMSD: 0.146
data_MOF--net-zzz--node1-BETDIP_clean_sbu_0--node2-BETDAH_clean_linker_0--edge1-UVAHIK_clean_linker_0
_symmetry_space_group_name_H-M    P1
_symmetry_Int_Tables_number       1
_symmetry_cell_setting            triclinic
loop_
_symmetry_equiv_pos_as_xyz
'x, y, z'
_cell_length_a     67.968684
_cell_length_b     68.025238
_cell_length_c     17.50246
_cell_angle_alpha  89.878545
_cell_angle_beta   90.000962
_cell_angle_gamma 89.97274
loop_
_atom_site_label
_atom_site_type_symbol
_atom_site_fract_x
_atom_site_fract_y
_atom_site_fract_z
_atom_type_partial_charge
H0 H 0.78994 0.48982 0.26343 0.0
H1 H 0.72982 0.50207 0.20693 0.0
H2 H 0.7516 0.51435 0.43372 0.0
C3 C 0.77541 0.49463 0.28092 0.0
C4 C 0.77266 0.50158 0.3555 0.0
C5 C 0.76009 0.49484 0.22724 0.0
C6 C 0.74157 0.50192 0.24875 0.0
C7 C 0.73829 0.50883 0.32352 0.0
C8 C 0.75399 0.50886 0.37641 0.0
N9 N 0.71945 0.51591 0.34649 0.0
C10 C 0.70303 0.51619 0.29852 0.0
H11 H 0.01633 0.79101 0.25128 0.0
H12 H 0.00962 0.73045 0.19008 0.0
H13 H 0.99513 0.74972 0.41862 0.0
C14 C 0.01229 0.77613 0.26736 0.0
C15 C 1.00585 0.77227 0.34186 0.0
C16 C 0.01352 0.76114 0.21294 0.0
C17 C 0.00848 0.74188 0.23284 0.0
C18 C 1.00169 0.73759 0.30713 0.0
C19 C 1.00026 0.75293 0.36133 0.0
N20 N 0.99626 0.7181 0.32858 0.0
C21 C 0.99695 0.70203 0.27904 0.0
H22 H 0.72125 1.0018 0.24328 0.0
H23 H 0.78306 1.00559 0.19843 0.0
H24 H 0.76245 0.99048 0.42469 0.0
C25 C 0.73628 1.00023 0.26324 0.0
C26 C 0.73981 0.99545 0.3399 0.0
C27 C 0.75178 1.00394 0.21253 0.0
C28 C 0.77122 1.00262 0.23819 0.0
C29 C 0.77524 0.99744 0.31464 0.0
C30 C 0.75944 0.99424 0.36566 0.0
N31 N 0.79494 0.99531 0.3413 0.0
C32 C 0.81136 0.99588 0.29339 0.0
H33 H 0.49659 0.72346 0.26266 0.0
H34 H 0.50378 0.78404 0.20163 0.0
H35 H 0.51841 0.7643 0.42975 0.0
C36 C 0.50074 0.7383 0.27879 0.0
C37 C 0.50736 0.74198 0.35309 0.0
C38 C 0.49958 0.75336 0.22448 0.0
C39 C 0.50484 0.77255 0.24435 0.0
C40 C 0.51174 0.77666 0.31859 0.0
C41 C 0.51314 0.76124 0.37259 0.0
N42 N 0.51738 0.79605 0.34018 0.0
C43 C 0.5168 0.81219 0.29079 0.0
H44 H 0.224 0.51909 0.16726 0.0
H45 H 0.28439 0.51115 0.22982 0.0
H46 H 0.26473 0.49557 0.00287 0.0
C47 C 0.23879 0.51462 0.15161 0.0
C48 C 0.24246 0.50749 0.078 0.0
C49 C 0.25381 0.51583 0.20599 0.0
C50 C 0.27293 0.51008 0.187 0.0
C51 C 0.27704 0.50266 0.11355 0.0
C52 C 0.26166 0.50124 0.05942 0.0
N53 N 0.29637 0.49651 0.09293 0.0
C54 C 0.31245 0.49709 0.14258 0.0
H55 H 0.99082 0.22357 0.16604 0.0
H56 H 1.00276 0.2837 0.22167 0.0
H57 H 0.0155 0.26186 0.99544 0.0
C58 C 0.99562 0.23809 0.14835 0.0
C59 C 1.00267 0.24081 0.07378 0.0
C60 C 0.99568 0.25343 0.20176 0.0
C61 C 1.00274 0.27194 0.18006 0.0
C62 C 0.00979 0.2752 0.10541 0.0
C63 C 0.00993 0.25948 0.05271 0.0
N64 N 0.01687 0.29404 0.08243 0.0
C65 C 0.01711 0.31042 0.13046 0.0
H66 H 0.29079 0.99914 0.16693 0.0
H67 H 0.23004 1.00557 0.22711 0.0
H68 H 0.24947 0.01921 0.99772 0.0
C69 C 0.27587 1.00298 0.15051 0.0
C70 C 0.27202 0.00906 0.07557 0.0
C71 C 0.26083 1.00187 0.20491 0.0
C72 C 0.24152 1.00662 0.1844 0.0
C73 C 0.23726 0.01303 0.10953 0.0
C74 C 0.25265 0.01436 0.05542 0.0
N75 N 0.21774 0.01818 0.0874 0.0
C76 C 0.20163 0.0176 0.1369 0.0
H77 H 0.52622 0.28842 0.16655 0.0
H78 H 0.51275 0.22851 0.22039 0.0
H79 H 0.5006 0.25128 0.99463 0.0
C80 C 0.5211 0.2741 0.1481 0.0
C81 C 0.51389 0.27181 0.07358 0.0
C82 C 0.52068 0.2586 0.20091 0.0
C83 C 0.51314 0.24034 0.1789 0.0
C84 C 0.50608 0.23747 0.10406 0.0
C85 C 0.50626 0.25336 0.05191 0.0
N86 N 0.49863 0.21888 0.0803 0.0
C87 C 0.49821 0.20227 0.12736 0.0
Tb88 Tb 0.01742 0.99966 0.78608 0.0
Tb89 Tb 0.99621 0.01137 0.64806 0.0
C90 C 0.02881 0.98156 0.90298 0.0
C91 C 0.03455 0.96077 0.91281 0.0
C92 C 0.02141 0.94561 0.89374 0.0
C93 C 0.02786 0.92618 0.89087 0.0
C94 C 0.04749 0.92149 0.90747 0.0
C95 C 0.06039 0.93641 0.93082 0.0
C96 C 0.05398 0.95596 0.93307 0.0
C97 C 0.04046 0.01111 0.67305 0.0
C98 C 1.00405 0.9669 0.66198 0.0
C99 C 0.98592 0.03059 0.53288 0.0
C100 C 0.98664 0.05214 0.522 0.0
C101 C 1.0048 0.0619 0.5153 0.0
C102 C 1.00576 0.08234 0.52022 0.0
C103 C 0.98861 0.09348 0.53196 0.0
C104 C 0.97036 0.0838 0.53469 0.0
C105 C 0.96938 0.06334 0.52946 0.0
C106 C 0.97327 0.99988 0.76126 0.0
C107 C 0.00937 0.04395 0.77066 0.0
O108 O 0.01025 0.985 0.88782 0.0
O109 O 0.04055 0.99194 0.85969 0.0
O110 O 0.02522 1.00063 0.66734 0.0
O111 O 0.04361 0.01485 0.74449 0.0
O112 O 0.0101 0.97111 0.73228 0.0
O113 O 0.99927 0.98098 0.61336 0.0
O114 O 1.00289 0.02155 0.53791 0.0
O115 O 0.9735 0.02447 0.58483 0.0
O116 O 0.98847 0.01043 0.76678 0.0
O117 O 0.97006 0.9961 0.68976 0.0
O118 O 1.00559 0.03967 0.69832 0.0
O119 O 0.01202 0.02978 0.82127 0.0
H120 H 1.00632 0.94875 0.87806 0.0
H121 H 0.01754 0.9148 0.8745 0.0
H122 H 0.07554 0.93303 0.94489 0.0
H123 H 0.06437 0.9674 0.94808 0.0
H124 H 0.01843 0.05377 0.50977 0.0
H125 H 0.02007 0.08932 0.51822 0.0
H126 H 0.95683 0.09203 0.54176 0.0
H127 H 0.95518 0.05622 0.53446 0.0
Tb128 Tb 0.51189 0.018 0.77439 0.0
Tb129 Tb 0.50022 0.99569 0.63961 0.0
C130 C 0.53014 0.03007 0.88974 0.0
C131 C 0.55125 0.03416 0.90067 0.0
C132 C 0.5655 0.02062 0.87596 0.0
C133 C 0.58535 0.02569 0.87575 0.0
C134 C 0.59139 0.04432 0.90069 0.0
C135 C 0.57729 0.05757 0.92877 0.0
C136 C 0.55732 0.05255 0.92827 0.0
C137 C 0.50026 0.04009 0.65876 0.0
C138 C 0.54457 1.00419 0.6517 0.0
C139 C 0.48223 0.98306 0.52448 0.0
C140 C 0.46127 0.97823 0.51341 0.0
C141 C 0.44658 0.9921 0.53023 0.0
C142 C 0.42686 0.98651 0.5321 0.0
C143 C 0.42144 0.96703 0.51673 0.0
C144 C 0.43595 0.95339 0.49559 0.0
C145 C 0.45577 0.95895 0.49435 0.0
C146 C 0.51197 0.9737 0.75557 0.0
C147 C 0.46748 0.00956 0.76192 0.0
O148 O 0.52523 0.01164 0.87962 0.0
O149 O 0.52123 0.04175 0.84156 0.0
O150 O 0.51086 0.02488 0.65451 0.0
O151 O 0.49642 0.04366 0.72986 0.0
O152 O 0.54044 0.01001 0.72218 0.0
O153 O 0.5304 0.99981 0.60313 0.0
O154 O 0.48658 1.00164 0.53454 0.0
O155 O 0.49152 0.97168 0.57267 0.0
O156 O 0.50124 0.9888 0.75942 0.0
O157 O 0.51588 0.97017 0.68455 0.0
O158 O 0.47166 1.0039 0.69125 0.0
O159 O 0.48165 0.01384 0.81069 0.0
H160 H 0.56133 1.0063 0.85447 0.0
H161 H 0.59602 0.01508 0.85538 0.0
H162 H 0.58167 0.07196 0.94896 0.0
H163 H 0.54656 0.06323 0.94733 0.0
H164 H 0.4503 0.0071 0.54496 0.0
H165 H 0.41583 0.99737 0.54681 0.0
H166 H 0.43201 0.93834 0.48256 0.0
H167 H 0.46685 0.94802 0.48115 0.0
Tb168 Tb 0.49722 0.5135 0.79019 0.0
Tb169 Tb 0.51825 0.5022 0.65143 0.0
C170 C 0.4859 0.5313 0.90767 0.0
C171 C 0.48048 0.55211 0.91884 0.0
C172 C 0.49374 0.56719 0.8999 0.0
C173 C 0.48755 0.58672 0.89861 0.0
C174 C 0.46806 0.59158 0.91675 0.0
C175 C 0.45505 0.5767 0.93988 0.0
C176 C 0.4612 0.55707 0.94052 0.0
C177 C 0.47408 0.50242 0.67708 0.0
C178 C 0.51013 0.54653 0.6664 0.0
C179 C 0.52846 0.48328 0.5356 0.0
C180 C 0.53103 0.46176 0.52749 0.0
C181 C 0.51511 0.44998 0.50462 0.0
C182 C 0.51625 0.42954 0.50994 0.0
C183 C 0.53339 0.42043 0.53757 0.0
C184 C 0.5497 0.43211 0.55642 0.0
C185 C 0.54855 0.45258 0.55139 0.0
C186 C 0.54139 0.51325 0.7646 0.0
C187 C 0.50587 0.46923 0.7749 0.0
O188 O 0.50443 0.52763 0.89282 0.0
O189 O 0.47407 0.52138 0.86333 0.0
O190 O 0.48929 0.51295 0.67149 0.0
O191 O 0.47105 0.49836 0.7484 0.0
O192 O 0.50479 0.54216 0.73745 0.0
O193 O 0.51424 0.53254 0.61674 0.0
O194 O 0.5104 0.48929 0.54716 0.0
O195 O 0.54099 0.4922 0.58045 0.0
O196 O 0.52615 0.50276 0.77008 0.0
O197 O 0.54457 0.51715 0.69314 0.0
O198 O 0.51033 0.4736 0.70315 0.0
O199 O 0.50239 0.48329 0.82502 0.0
H200 H 0.50873 0.56392 0.88315 0.0
H201 H 0.49796 0.59804 0.88232 0.0
H202 H 0.43999 0.5802 0.95504 0.0
H203 H 0.45072 0.54569 0.95544 0.0
H204 H 0.50147 0.45657 0.48527 0.0
H205 H 0.5036 0.42087 0.49325 0.0
H206 H 0.56311 0.42548 0.57773 0.0
H207 H 0.56114 0.46119 0.56912 0.0
Tb208 Tb 1.00306 0.49566 0.7748 0.0
Tb209 Tb 0.01434 0.5166 0.63592 0.0
C210 C 0.98411 0.48558 0.89089 0.0
C211 C 0.96257 0.48633 0.9025 0.0
C212 C 0.95283 0.50448 0.9097 0.0
C213 C 0.93235 0.50546 0.90588 0.0
C214 C 0.92116 0.48834 0.89477 0.0
C215 C 0.93083 0.4701 0.89138 0.0
C216 C 0.95133 0.4691 0.89552 0.0
C217 C 0.01428 0.47243 0.66241 0.0
C218 C 0.97012 0.5085 0.65293 0.0
C219 C 0.03208 0.5279 0.51806 0.0
C220 C 0.05278 0.53382 0.50727 0.0
C221 C 0.06817 0.52103 0.52761 0.0
C222 C 0.08754 0.52771 0.52915 0.0
C223 C 0.09194 0.54724 0.50989 0.0
C224 C 0.07678 0.55977 0.48545 0.0
C225 C 0.0573 0.55312 0.48455 0.0
C226 C 1.00306 0.53979 0.74872 0.0
C227 C 0.04748 0.50359 0.75947 0.0
O228 O 0.99314 0.50253 0.88501 0.0
O229 O 0.9901 0.47309 0.83918 0.0
O230 O 1.00374 0.48764 0.6562 0.0
O231 O 0.01826 0.46945 0.73396 0.0
O232 O 0.9746 0.50494 0.72527 0.0
O233 O 0.98416 0.51102 0.60175 0.0
O234 O 0.02889 0.50935 0.53415 0.0
O235 O 0.02168 0.53962 0.56117 0.0
O236 O 0.01368 0.52465 0.75432 0.0
O237 O 0.99907 0.54277 0.6773 0.0
O238 O 0.04308 0.50951 0.68911 0.0
O239 O 0.03354 0.49883 0.8086 0.0
H240 H 0.96099 0.51809 0.91488 0.0
H241 H 0.92537 0.51976 0.90836 0.0
H242 H 0.92257 0.45661 0.88472 0.0
H243 H 0.95843 0.45491 0.89015 0.0
H244 H 0.06525 0.50604 0.54519 0.0
H245 H 0.09909 0.51766 0.54646 0.0
H246 H 0.07993 0.57483 0.46939 0.0
H247 H 0.04568 0.56324 0.46857 0.0
C248 C 0.18641 0.026 0.26081 0.0
C249 C 0.18504 0.01711 0.18889 0.0
C250 C 0.1704 0.02557 0.31127 0.0
C251 C 0.11616 0.01779 0.31873 0.0
H252 H 0.1259 0.01045 0.5351 0.0
C253 C 0.05351 1.00456 0.54084 0.0
C254 C 0.05572 0.01329 0.61303 0.0
C255 C 0.06879 1.00542 0.48694 0.0
C256 C 0.12288 0.01276 0.47499 0.0
H257 H 0.16618 1.00075 0.11259 0.0
H258 H 0.13818 0.99974 0.20082 0.0
H259 H 0.15344 0.01093 0.4463 0.0
H260 H 0.07533 0.0304 0.68426 0.0
H261 H 0.10178 0.03212 0.59048 0.0
H262 H 0.08554 0.01955 0.34775 0.0
C263 C 0.15144 0.00731 0.21829 0.0
C264 C 0.13873 0.01304 0.4239 0.0
C265 C 0.16749 0.00776 0.16789 0.0
C266 C 0.07324 0.02338 0.62934 0.0
C267 C 0.08848 0.02424 0.57569 0.0
C268 C 0.10028 0.0175 0.36994 0.0
C269 C 0.15267 0.0162 0.29081 0.0
C270 C 0.13564 0.01565 0.34504 0.0
C271 C 0.08662 0.01502 0.50414 0.0
C272 C 0.10343 0.01509 0.44888 0.0
H273 H 0.19985 0.03333 0.27797 0.0
H274 H 0.17186 0.03282 0.366 0.0
H275 H 0.11318 0.02008 0.2586 0.0
H276 H 0.04017 0.99665 0.52668 0.0
H277 H 0.06685 0.99805 0.43269 0.0
C278 C 0.50708 0.16771 0.15548 0.0
C279 C 0.49787 0.18526 0.17735 0.0
C280 C 0.50681 0.15129 0.20407 0.0
C281 C 0.47997 0.12995 0.36983 0.0
H282 H 0.52678 0.09789 0.39296 0.0
C283 C 0.48813 0.0727 0.61243 0.0
C284 C 0.49824 0.05509 0.59761 0.0
C285 C 0.48736 0.08769 0.55763 0.0
C286 C 0.51347 0.10648 0.3864 0.0
H287 H 0.48133 0.19973 0.26645 0.0
H288 H 0.48088 0.17115 0.35187 0.0
H289 H 0.52708 0.12581 0.30527 0.0
H290 H 0.51506 0.03918 0.51279 0.0
H291 H 0.51356 0.0653 0.41634 0.0
H292 H 0.46638 0.11071 0.45116 0.0
C293 C 0.48809 0.16984 0.29696 0.0
C294 C 0.51365 0.12255 0.33608 0.0
C295 C 0.48842 0.18625 0.24837 0.0
C296 C 0.50718 0.0526 0.5259 0.0
C297 C 0.50645 0.06765 0.47092 0.0
C298 C 0.47978 0.11388 0.42003 0.0
C299 C 0.49728 0.1521 0.2755 0.0
C300 C 0.49695 0.13462 0.32752 0.0
C301 C 0.49667 0.08549 0.48632 0.0
C302 C 0.49657 0.102 0.42958 0.0
H303 H 0.51447 0.16668 0.10076 0.0
H304 H 0.51386 0.13787 0.18518 0.0
H305 H 0.46671 0.13864 0.36376 0.0
H306 H 0.4811 0.07508 0.66719 0.0
H307 H 0.47991 0.10125 0.57217 0.0
C308 C 0.34656 0.50699 0.17359 0.0
C309 C 0.32904 0.49756 0.19458 0.0
C310 C 0.36263 0.50739 0.2239 0.0
C311 C 0.37549 0.50125 0.42936 0.0
H312 H 0.42863 0.495 0.35248 0.0
C313 C 0.44119 0.49038 0.63371 0.0
C314 C 0.45872 0.50048 0.61735 0.0
C315 C 0.42589 0.48971 0.58031 0.0
C316 C 0.41391 0.49697 0.37488 0.0
H317 H 0.3143 0.48116 0.2836 0.0
H318 H 0.34233 0.48158 0.37148 0.0
H319 H 0.40093 0.49463 0.26364 0.0
H320 H 0.47418 0.51736 0.53118 0.0
H321 H 0.44737 0.51628 0.43765 0.0
H322 H 0.3884 0.50358 0.54047 0.0
C323 C 0.34375 0.48893 0.31682 0.0
C324 C 0.39798 0.49678 0.32385 0.0
C325 C 0.32772 0.48855 0.26644 0.0
C326 C 0.46084 0.50944 0.54538 0.0
C327 C 0.44549 0.50876 0.49174 0.0
C328 C 0.39138 0.50142 0.48028 0.0
C329 C 0.36145 0.49837 0.29634 0.0
C330 C 0.37852 0.49883 0.3504 0.0
C331 C 0.42767 0.49912 0.50897 0.0
C332 C 0.41082 0.49919 0.45391 0.0
H333 H 0.34784 0.51409 0.11833 0.0
H334 H 0.37586 0.51502 0.20641 0.0
H335 H 0.3608 0.50328 0.45196 0.0
H336 H 0.43916 0.48321 0.68845 0.0
H337 H 0.41259 0.4818 0.59512 0.0
C338 C 0.02617 0.3256 0.25374 0.0
C339 C 0.01723 0.32712 0.18185 0.0
C340 C 0.02617 0.34164 0.30392 0.0
C341 C 0.01942 0.39604 0.3106 0.0
H342 H 0.01228 0.3866 0.52728 0.0
C343 C 0.00734 0.45912 0.53094 0.0
C344 C 0.01614 0.45695 0.60315 0.0
C345 C 0.0079 0.44373 0.47764 0.0
C346 C 0.01454 0.38953 0.46708 0.0
H347 H 1.0012 0.3463 0.1054 0.0
H348 H 1.00093 0.37435 0.19308 0.0
H349 H 0.01221 0.35901 0.43901 0.0
H350 H 0.03298 0.43719 0.67509 0.0
H351 H 0.03418 0.41053 0.58234 0.0
H352 H 0.02164 0.42662 0.33896 0.0
C353 C 0.00824 0.36095 0.21074 0.0
C354 C 0.01451 0.37365 0.41627 0.0
C355 C 0.00827 0.34487 0.16061 0.0
C356 C 0.02594 0.43929 0.62013 0.0
C357 C 0.0265 0.42392 0.56706 0.0
C358 C 0.01942 0.41195 0.3615 0.0
C359 C 0.01718 0.35956 0.28326 0.0
C360 C 0.01702 0.37663 0.33727 0.0
C361 C 0.01726 0.42579 0.49542 0.0
C362 C 0.01707 0.40892 0.44056 0.0
H363 H 0.03318 0.31199 0.27118 0.0
H364 H 0.03344 0.34004 0.35864 0.0
H365 H 0.02166 0.39895 0.25038 0.0
H366 H 0.99965 0.47256 0.51622 0.0
H367 H 1.00051 0.44569 0.42335 0.0
C368 C 0.84573 1.0053 0.26424 0.0
C369 C 0.82818 0.99607 0.24251 0.0
C370 C 0.86204 1.00529 0.21511 0.0
C371 C 0.88308 0.97903 0.04768 0.0
H372 H 0.91517 0.02583 0.02635 0.0
C373 C 0.94041 0.98788 0.80569 0.0
C374 C 0.95807 0.99778 0.82155 0.0
C375 C 0.92534 0.98701 0.86009 0.0
C376 C 0.90656 0.01252 0.03236 0.0
H377 H 0.81358 0.97974 0.1532 0.0
H378 H 0.84192 0.9798 0.06678 0.0
H379 H 0.88733 0.02587 0.11432 0.0
H380 H 0.974 0.01414 0.90768 0.0
H381 H 0.94774 0.01247 0.00329 0.0
H382 H 0.90221 0.96571 0.96549 0.0
C383 C 0.84334 0.98683 0.12195 0.0
C384 C 0.89054 0.01256 0.08286 0.0
C385 C 0.82706 0.98688 0.17109 0.0
C386 C 0.96052 1.00644 0.89376 0.0
C387 C 0.9454 1.0056 0.94828 0.0
C388 C 0.89909 0.979 0.99726 0.0
C389 C 0.86109 0.996 0.1433 0.0
C390 C 0.87848 0.99585 0.09085 0.0
C391 C 0.92752 0.99602 0.93193 0.0
C392 C 0.91098 0.99578 0.98842 0.0
H393 H 0.84688 0.01244 0.31933 0.0
H394 H 0.87548 0.01231 0.23393 0.0
H395 H 0.87439 0.96577 0.0533 0.0
H396 H 0.93807 0.98109 0.75051 0.0
H397 H 0.91174 0.97971 0.84489 0.0
C398 C 0.5258 0.82779 0.1681 0.0
C399 C 0.51634 0.82885 0.23906 0.0
C400 C 0.52544 0.84388 0.11796 0.0
C401 C 0.51667 0.89794 0.11078 0.0
H402 H 0.51129 0.88848 0.89351 0.0
C403 C 0.50448 0.96067 0.88734 0.0
C404 C 0.51393 0.9586 0.81638 0.0
C405 C 0.50506 0.94538 0.9414 0.0
C406 C 0.51304 0.89142 0.95392 0.0
H407 H 0.49903 0.84722 0.31401 0.0
H408 H 0.49813 0.87536 0.2263 0.0
H409 H 0.51148 0.86082 0.98185 0.0
H410 H 0.53205 0.93928 0.74771 0.0
H411 H 0.5333 0.91287 0.84175 0.0
H412 H 0.51816 0.92861 0.08247 0.0
C413 C 0.50609 0.86229 0.20936 0.0
C414 C 0.51316 0.87551 0.00473 0.0
C415 C 0.50648 0.84616 0.25944 0.0
C416 C 0.52448 0.94126 0.80162 0.0
C417 C 0.52506 0.92603 0.8554 0.0
C418 C 0.51654 0.9139 0.05984 0.0
C419 C 0.51556 0.86138 0.1378 0.0
C420 C 0.51509 0.87849 0.0839 0.0
C421 C 0.5151 0.92771 0.92556 0.0
C422 C 0.51486 0.91085 0.9806 0.0
H423 H 0.53353 0.81454 0.15144 0.0
H424 H 0.53313 0.84268 0.064 0.0
H425 H 0.51842 0.90084 0.17121 0.0
H426 H 0.49622 0.97387 0.90027 0.0
H427 H 0.49714 0.94718 0.9946 0.0
C428 C 0.68757 0.52536 0.17568 0.0
C429 C 0.68621 0.51639 0.24763 0.0
C430 C 0.67134 0.52555 0.12624 0.0
C431 C 0.62388 0.50031 0.08762 0.0
H432 H 0.61284 0.54695 0.96741 0.0
C433 C 0.5541 0.50663 0.89725 0.0
C434 C 0.55663 0.51521 0.82482 0.0
C435 C 0.56922 0.50741 0.95182 0.0
C436 C 0.61579 0.53372 0.99995 0.0
H437 H 0.66714 0.50053 0.32499 0.0
H438 H 0.63865 0.50091 0.23909 0.0
H439 H 0.64058 0.54682 0.05558 0.0
H440 H 0.57678 0.53169 0.75337 0.0
H441 H 0.6031 0.53294 0.84774 0.0
H442 H 0.59917 0.48714 0.03147 0.0
C443 C 0.65222 0.50767 0.22014 0.0
C444 C 0.63175 0.53364 0.05061 0.0
C445 C 0.66846 0.50753 0.26957 0.0
C446 C 0.57437 0.52496 0.80873 0.0
C447 C 0.58945 0.52576 0.86314 0.0
C448 C 0.60792 0.50037 0.03684 0.0
C449 C 0.65341 0.51671 0.14776 0.0
C450 C 0.63611 0.5169 0.09487 0.0
C451 C 0.58719 0.51684 0.93527 0.0
C452 C 0.6037 0.51704 0.99189 0.0
H453 H 0.70121 0.53217 0.15755 0.0
H454 H 0.67294 0.53238 0.07066 0.0
H455 H 0.6269 0.48705 0.11992 0.0
H456 H 0.54057 0.49904 0.91137 0.0
H457 H 0.56681 0.50061 0.00703 0.0
C458 C 0.98842 0.68654 0.15574 0.0
C459 C 0.99753 0.68539 0.22741 0.0
C460 C 0.98887 0.67046 0.10581 0.0
C461 C 0.99721 0.61628 0.10016 0.0
H462 H 1.00353 0.62559 0.88302 0.0
C463 C 0.01009 0.55322 0.88001 0.0
C464 C 1.00104 0.55519 0.80818 0.0
C465 C 0.00933 0.56863 0.93327 0.0
C466 C 1.00151 0.62269 0.94337 0.0
H467 H 0.01432 0.66683 0.30375 0.0
H468 H 0.01538 0.63872 0.21648 0.0
H469 H 1.00311 0.6533 0.97068 0.0
H470 H 0.98351 0.57451 0.737 0.0
H471 H 0.98196 0.60116 0.82964 0.0
H472 H 0.99569 0.58561 0.07253 0.0
C473 C 0.00761 0.65186 0.19878 0.0
C474 C 1.00127 0.63864 0.99382 0.0
C475 C 1.00714 0.66798 0.24864 0.0
C476 C 0.99076 0.5726 0.79163 0.0
C477 C 0.99001 0.58796 0.84464 0.0
C478 C 0.99747 0.60029 0.0496 0.0
C479 C 0.99849 0.65286 0.12654 0.0
C480 C 0.99902 0.63571 0.07296 0.0
C481 C 0.99952 0.58635 0.91581 0.0
C482 C 0.99952 0.60328 0.97039 0.0
H483 H 0.98089 0.69987 0.13838 0.0
H484 H 0.98144 0.67174 0.05131 0.0
H485 H 0.9952 0.61341 0.16053 0.0
H486 H 0.01814 0.53998 0.89437 0.0
H487 H 0.01693 0.56687 0.98723 0.0
C488 C 0.97333 0.23744 0.29618 0.0
C489 C 0.98984 0.24922 0.28167 0.0
C490 C 0.97095 0.22844 0.36712 0.0
C491 C 1.00526 0.20807 0.50399 0.0
H492 H 0.95799 0.17925 0.55654 0.0
C493 C 1.0027 0.12612 0.49579 0.0
C494 C 0.98983 0.1151 0.54155 0.0
C495 C 1.00337 0.1465 0.50206 0.0
C496 C 0.97137 0.18735 0.54479 0.0
H497 H 0.01517 0.26332 0.33303 0.0
H498 H 0.01074 0.248 0.45807 0.0
H499 H 0.95528 0.2123 0.50418 0.0
H500 H 0.96829 0.11675 0.63284 0.0
H501 H 0.96916 0.15264 0.64255 0.0
H502 H 0.02129 0.18283 0.54179 0.0
C503 C 0.99995 0.24517 0.41392 0.0
C504 C 0.96981 0.20626 0.51397 0.0
C505 C 1.00242 0.25408 0.34244 0.0
C506 C 0.97806 0.12491 0.59559 0.0
C507 C 0.97868 0.1454 0.60173 0.0
C508 C 1.00681 0.18933 0.5358 0.0
C509 C 0.98501 0.23112 0.42526 0.0
C510 C 0.98666 0.21607 0.48684 0.0
C511 C 0.99116 0.15643 0.55418 0.0
C512 C 0.98984 0.17817 0.55022 0.0
H513 H 0.96315 0.23384 0.25065 0.0
H514 H 0.9592 0.21781 0.37301 0.0
H515 H 0.01866 0.21514 0.48498 0.0
H516 H 0.01177 0.11908 0.45294 0.0
H517 H 0.01279 0.15454 0.46305 0.0
C518 C 0.26122 0.97701 0.30978 0.0
C519 C 0.26596 0.99588 0.28318 0.0
C520 C 0.27096 0.96924 0.37356 0.0
C521 C 0.30974 0.98139 0.51926 0.0
H522 H 0.33327 0.93317 0.44525 0.0
C523 C 0.38967 0.9657 0.58808 0.0
C524 C 0.40056 0.96129 0.52212 0.0
C525 C 0.36927 0.96328 0.58887 0.0
C526 C 0.32683 0.94657 0.46723 0.0
H527 H 0.28282 0.02219 0.30506 0.0
H528 H 0.29986 0.00888 0.41516 0.0
H529 H 0.30165 0.94358 0.3956 0.0
H530 H 0.39912 0.94966 0.40742 0.0
H531 H 0.36356 0.94616 0.40692 0.0
H532 H 0.33593 0.98565 0.58384 0.0
C533 C 0.28861 0.99993 0.38864 0.0
C534 C 0.30845 0.95241 0.43966 0.0
C535 C 0.27895 0.0076 0.32511 0.0
C536 C 0.39098 0.95313 0.45891 0.0
C537 C 0.37057 0.95098 0.45916 0.0
C538 C 0.32827 0.97574 0.54575 0.0
C539 C 0.28556 0.98028 0.41112 0.0
C540 C 0.3004 0.97064 0.46118 0.0
C541 C 0.35935 0.95673 0.52314 0.0
C542 C 0.33763 0.95898 0.51579 0.0
H543 H 0.25124 0.96775 0.27774 0.0
H544 H 0.26808 0.95416 0.39004 0.0
H545 H 0.30363 0.9952 0.53885 0.0
H546 H 0.3969 0.97167 0.63807 0.0
H547 H 0.36121 0.96743 0.63973 0.0
C548 C 0.54402 0.27269 0.29563 0.0
C549 C 0.52647 0.26257 0.28077 0.0
C550 C 0.54672 0.28221 0.36527 0.0
C551 C 0.51388 0.30902 0.48547 0.0
H552 H 0.56295 0.32904 0.56677 0.0
C553 C 0.51803 0.3887 0.57907 0.0
C554 C 0.53409 0.3988 0.54729 0.0
C555 C 0.5181 0.36821 0.58369 0.0
C556 C 0.54907 0.32357 0.54508 0.0
H557 H 0.49919 0.25206 0.32993 0.0
H558 H 0.50391 0.26868 0.45231 0.0
H559 H 0.56198 0.2963 0.50983 0.0
H560 H 0.5631 0.39546 0.49769 0.0
H561 H 0.56287 0.35975 0.50182 0.0
H562 H 0.50127 0.33667 0.51389 0.0
C563 C 0.51548 0.26948 0.40986 0.0
C564 C 0.5485 0.30477 0.51301 0.0
C565 C 0.51281 0.2599 0.34003 0.0
C566 C 0.55055 0.38806 0.52286 0.0
C567 C 0.55048 0.36756 0.52605 0.0
C568 C 0.51447 0.32779 0.51698 0.0
C569 C 0.53182 0.28185 0.42103 0.0
C570 C 0.53116 0.29781 0.47865 0.0
C571 C 0.53403 0.35734 0.55466 0.0
C572 C 0.53234 0.33576 0.54291 0.0
H573 H 0.55486 0.27473 0.25088 0.0
H574 H 0.55948 0.29159 0.37164 0.0
H575 H 0.50027 0.30426 0.45916 0.0
H576 H 0.50525 0.39664 0.59947 0.0
H577 H 0.50535 0.36088 0.60749 0.0
C578 C 0.23659 0.51087 0.32857 0.0
C579 C 0.24874 0.52266 0.28312 0.0
C580 C 0.22656 0.51897 0.39029 0.0
C581 C 0.20411 0.56616 0.4296 0.0
H582 H 0.17823 0.53369 0.58118 0.0
C583 C 0.12169 0.56201 0.44965 0.0
C584 C 0.1125 0.55411 0.51433 0.0
C585 C 0.14199 0.5651 0.4494 0.0
C586 C 0.18541 0.54342 0.54088 0.0
H587 H 0.26163 0.5515 0.26948 0.0
H588 H 0.24427 0.56582 0.37886 0.0
H589 H 0.21097 0.52513 0.53842 0.0
H590 H 0.11662 0.54518 0.63205 0.0
H591 H 0.15204 0.55118 0.63284 0.0
H592 H 0.17842 0.58428 0.43114 0.0
C593 C 0.24227 0.55036 0.3665 0.0
C594 C 0.2042 0.53832 0.51564 0.0
C595 C 0.25233 0.54218 0.30442 0.0
C596 C 0.12356 0.55096 0.581 0.0
C597 C 0.14382 0.55436 0.58128 0.0
C598 C 0.18548 0.5715 0.45599 0.0
C599 C 0.22841 0.53912 0.40739 0.0
C600 C 0.21304 0.54868 0.45515 0.0
C601 C 0.15346 0.56061 0.51433 0.0
C602 C 0.17526 0.55928 0.50729 0.0
H603 H 0.23357 0.49579 0.31242 0.0
H604 H 0.21591 0.50981 0.41943 0.0
H605 H 0.21048 0.57471 0.3836 0.0
H606 H 0.11343 0.56449 0.39758 0.0
H607 H 0.14877 0.56965 0.39627 0.0
C608 C 0.00837 0.77923 0.09209 0.0
C609 C 0.01993 0.76629 0.13521 0.0
C610 C 0.01636 0.7889 0.02919 0.0
C611 C 0.06406 0.80895 0.98253 0.0
H612 H 0.03143 0.83623 0.83514 0.0
C613 C 0.06217 0.89133 0.96492 0.0
C614 C 0.05408 0.90089 0.90139 0.0
C615 C 0.06484 0.87099 0.96407 0.0
C616 C 0.04119 0.82863 0.87415 0.0
H617 H 0.04813 0.75171 0.14347 0.0
H618 H 0.06227 0.76858 0.0323 0.0
H619 H 0.02189 0.80386 0.87918 0.0
H620 H 0.04444 0.89736 0.78435 0.0
H621 H 0.04962 0.86183 0.78168 0.0
H622 H 0.08313 0.83391 0.97887 0.0
C623 C 0.04708 0.77139 0.04732 0.0
C624 C 0.03554 0.81005 0.90008 0.0
C625 C 0.03899 0.76164 0.11045 0.0
C626 C 0.05036 0.89013 0.83455 0.0
C627 C 0.0533 0.86982 0.83318 0.0
C628 C 0.06992 0.82737 0.95552 0.0
C629 C 0.03617 0.78593 0.00857 0.0
C630 C 0.04602 0.80079 0.95927 0.0
C631 C 0.05968 0.85984 0.8992 0.0
C632 C 0.05769 0.8381 0.90583 0.0
H633 H 0.99365 0.78303 0.11074 0.0
H634 H 0.0075 0.8001 0.00172 0.0
H635 H 0.07269 0.80219 0.02747 0.0
H636 H 0.06511 0.89936 0.01708 0.0
H637 H 0.06952 0.86394 0.0165 0.0
C638 C 0.73399 0.99891 0.09046 0.0
C639 C 0.74699 0.01026 0.13405 0.0
C640 C 0.72439 0.00714 0.02781 0.0
C641 C 0.70476 0.05521 0.98544 0.0
H642 H 0.67663 0.02413 0.83591 0.0
C643 C 0.62204 0.05592 0.96469 0.0
C644 C 0.61248 0.04948 0.89844 0.0
C645 C 0.64252 0.05746 0.96621 0.0
C646 C 0.6845 0.03342 0.8757 0.0
H647 H 0.76209 0.03817 0.14191 0.0
H648 H 0.74538 0.05268 0.03129 0.0
H649 H 0.70888 0.01356 0.87871 0.0
H650 H 0.61636 0.04161 0.77968 0.0
H651 H 0.65218 0.04457 0.7816 0.0
H652 H 0.68011 0.07475 0.98422 0.0
C653 C 0.74237 0.03751 0.04609 0.0
C654 C 0.70298 0.02721 0.90081 0.0
C655 C 0.75204 0.02919 0.10896 0.0
C656 C 0.62353 0.04618 0.8319 0.0
C657 C 0.64401 0.0479 0.83308 0.0
C658 C 0.6864 0.06157 0.95955 0.0
C659 C 0.72756 0.02694 0.00778 0.0
C660 C 0.7126 0.0372 0.96025 0.0
C661 C 0.65382 0.05277 0.90118 0.0
C662 C 0.67544 0.04996 0.9087 0.0
H663 H 0.72997 0.98422 0.10883 0.0
H664 H 0.71304 0.99851 1.00034 0.0
H665 H 0.71174 0.06343 0.03087 0.0
H666 H 0.61382 0.05851 0.01673 0.0
H667 H 0.64948 0.06098 0.0201 0.0
C668 C 0.50521 0.73599 0.1028 0.0
C669 C 0.49323 0.7483 0.1467 0.0
C670 C 0.49743 0.72601 0.04042 0.0
C671 C 0.45031 0.70398 0.99658 0.0
H672 H 0.48346 0.67779 0.8484 0.0
C673 C 0.45368 0.62153 0.97661 0.0
C674 C 0.46168 0.61229 0.91234 0.0
C675 C 0.45092 0.64186 0.97692 0.0
C676 C 0.47357 0.68506 0.88771 0.0
H677 H 0.46441 0.76151 0.15681 0.0
H678 H 0.45065 0.74419 0.04629 0.0
H679 H 0.49208 0.71043 0.8918 0.0
H680 H 0.47116 0.61642 0.79533 0.0
H681 H 0.46581 0.65193 0.79469 0.0
H682 H 0.43198 0.67847 0.99352 0.0
C683 C 0.46602 0.74205 0.0604 0.0
C684 C 0.47869 0.70379 0.91331 0.0
C685 C 0.47388 0.75209 0.12312 0.0
C686 C 0.46532 0.62339 0.84609 0.0
C687 C 0.46227 0.6437 0.84589 0.0
C688 C 0.44497 0.6854 0.96986 0.0
C689 C 0.47741 0.72804 0.02107 0.0
C690 C 0.46803 0.71274 0.97263 0.0
C691 C 0.45587 0.65333 0.91248 0.0
C692 C 0.4574 0.67509 0.91978 0.0
H693 H 0.52015 0.73283 0.12066 0.0
H694 H 0.50669 0.71524 0.0125 0.0
H695 H 0.44155 0.71043 0.04167 0.0
H696 H 0.45082 0.61324 0.02835 0.0
H697 H 0.44624 0.64864 0.02979 0.0
C698 C 0.77613 0.47266 0.13267 0.0
C699 C 0.76439 0.48919 0.14729 0.0
C700 C 0.78538 0.47049 0.06219 0.0
C701 C 0.80644 0.50516 0.92814 0.0
H702 H 0.83504 0.45795 0.87359 0.0
C703 C 0.88865 0.50233 0.93342 0.0
C704 C 0.89947 0.48958 0.88663 0.0
C705 C 0.86822 0.50302 0.92845 0.0
C706 C 0.82701 0.47132 0.88598 0.0
H707 H 0.75063 0.5148 0.09638 0.0
H708 H 0.76639 0.51075 0.97208 0.0
H709 H 0.80193 0.45526 0.92538 0.0
H710 H 0.89741 0.46825 0.79494 0.0
H711 H 0.86145 0.46919 0.78735 0.0
H712 H 0.8318 0.52115 0.89139 0.0
C713 C 0.76899 0.49978 0.01585 0.0
C714 C 0.80807 0.46977 0.91647 0.0
C715 C 0.75983 0.50202 0.08687 0.0
C716 C 0.88941 0.47793 0.83294 0.0
C717 C 0.86887 0.47859 0.82805 0.0
C718 C 0.82523 0.50671 0.8967 0.0
C719 C 0.78301 0.4848 0.00465 0.0
C720 C 0.7983 0.48657 0.94406 0.0
C721 C 0.85805 0.49096 0.87657 0.0
C722 C 0.83629 0.48974 0.88138 0.0
H723 H 0.77952 0.46231 0.17793 0.0
H724 H 0.79598 0.4587 0.05637 0.0
H725 H 0.79943 0.51852 0.94766 0.0
H726 H 0.8959 0.5113 0.97603 0.0
H727 H 0.86035 0.51235 0.96816 0.0
C728 C 0.02006 0.21735 0.9842 0.0
C729 C 1.00275 0.22353 0.02114 0.0
C730 C 0.02089 0.19891 0.94799 0.0
C731 C 0.99715 0.15018 0.96179 0.0
H732 H 0.0247 0.13818 0.7737 0.0
C733 C 0.01273 0.06994 0.87238 0.0
C734 C 0.00988 0.06495 0.79523 0.0
C735 C 0.01248 0.08964 0.89579 0.0
C736 C 0.01687 0.14129 0.82619 0.0
H737 H 0.97235 0.2159 0.04361 0.0
H738 H 0.97372 0.18408 0.98023 0.0
H739 H 0.02254 0.17232 0.81762 0.0
H740 H 1.0048 0.077 0.68226 0.0
H741 H 1.00442 0.11131 0.72293 0.0
H742 H 0.99133 0.11935 0.97064 0.0
C743 C 0.98681 0.19315 0.98064 0.0
C744 C 0.01577 0.16086 0.85165 0.0
C745 C 0.98599 0.21147 0.01654 0.0
C746 C 1.0071 0.08025 0.74201 0.0
C747 C 1.00695 0.09998 0.76535 0.0
C748 C 0.99837 0.13069 0.93679 0.0
C749 C 1.00444 0.18628 0.94812 0.0
C750 C 1.0058 0.16557 0.91971 0.0
C751 C 0.00943 0.10495 0.84276 0.0
C752 C 0.00826 0.12591 0.86873 0.0
H753 H 0.03325 0.22623 0.98722 0.0
H754 H 0.03471 0.19411 0.92355 0.0
H755 H 0.98957 0.15315 0.01497 0.0
H756 H 0.01499 0.05861 0.91506 0.0
H757 H 0.01474 0.09287 0.95571 0.0
C758 C 0.29537 0.02744 0.98956 0.0
C759 C 0.28873 0.0096 0.02068 0.0
C760 C 0.31353 0.02838 0.95125 0.0
C761 C 0.35272 0.99758 0.8616 0.0
H762 H 0.3875 0.03997 0.92174 0.0
C763 C 0.43128 1.0053 0.73651 0.0
C764 C 0.4465 0.01067 0.78672 0.0
C765 C 0.41154 1.00619 0.75915 0.0
C766 C 0.37802 0.02797 0.90454 0.0
H767 H 0.29535 0.97864 0.03335 0.0
H768 H 0.32669 0.98013 0.96581 0.0
H769 H 0.35355 0.03956 0.96733 0.0
H770 H 0.45265 0.02128 0.901 0.0
H771 H 0.41825 0.02254 0.94111 0.0
H772 H 0.37727 0.98567 0.80056 0.0
C773 C 0.31802 0.99344 0.97049 0.0
C774 C 0.35844 0.02789 0.92987 0.0
C775 C 0.30005 0.99256 0.00928 0.0
C776 C 0.44138 0.01704 0.86055 0.0
C777 C 0.42159 0.0179 0.8834 0.0
C778 C 0.37225 0.99771 0.83599 0.0
C779 C 0.32529 0.01144 0.94266 0.0
C780 C 0.34558 0.01255 0.9096 0.0
C781 C 0.40638 0.01241 0.83307 0.0
C782 C 0.38528 0.01278 0.85786 0.0
H783 H 0.28705 0.04083 0.99842 0.0
H784 H 0.31858 0.04245 0.92987 0.0
H785 H 0.34322 0.98561 0.84427 0.0
H786 H 0.43461 1.00032 0.67953 0.0
H787 H 0.4003 1.00214 0.71831 0.0
C788 C 0.53037 0.30177 0.01969 0.0
C789 C 0.51383 0.28934 0.02191 0.0
C790 C 0.52938 0.32027 0.98499 0.0
C791 C 0.50154 0.35231 0.85287 0.0
H792 H 0.52203 0.39404 0.98101 0.0
C793 C 0.51076 0.43316 0.74824 0.0
C794 C 0.50572 0.44825 0.79966 0.0
C795 C 0.51118 0.41347 0.77209 0.0
C796 C 0.51613 0.38262 0.94462 0.0
H797 H 0.48364 0.28617 0.98447 0.0
H798 H 0.48198 0.31854 0.92221 0.0
H799 H 0.52407 0.36003 0.02414 0.0
H800 H 0.49696 0.45423 0.91646 0.0
H801 H 0.49751 0.41992 0.95756 0.0
H802 H 0.49366 0.37505 0.77315 0.0
C803 C 0.4957 0.31391 0.94806 0.0
C804 C 0.51749 0.36306 0.969 0.0
C805 C 0.49667 0.29532 0.98339 0.0
C806 C 0.50095 0.44306 0.87527 0.0
C807 C 0.50135 0.42336 0.89899 0.0
C808 C 0.5004 0.37193 0.82794 0.0
C809 C 0.51186 0.32686 0.9509 0.0
C810 C 0.51024 0.34763 0.92354 0.0
C811 C 0.50654 0.40829 0.84776 0.0
C812 C 0.50762 0.38735 0.87372 0.0
H813 H 0.54393 0.29749 0.04774 0.0
H814 H 0.54223 0.32966 0.98669 0.0
H815 H 0.49588 0.34078 0.8164 0.0
H816 H 0.51464 0.43654 0.68968 0.0
H817 H 0.51565 0.4023 0.73182 0.0
C818 C 0.21392 0.52343 0.01217 0.0
C819 C 0.22574 0.50668 0.02301 0.0
C820 C 0.19611 0.52224 0.97253 0.0
C821 C 0.15704 0.48668 0.92523 0.0
H822 H 0.13696 0.52985 0.80299 0.0
C823 C 0.07391 0.49525 0.85571 0.0
C824 C 0.06852 0.5028 0.78378 0.0
C825 C 0.09371 0.49473 0.87842 0.0
C826 C 0.14232 0.51753 0.83628 0.0
H827 H 0.22846 0.47567 0.99812 0.0
H828 H 0.19726 0.47353 0.92776 0.0
H829 H 0.17087 0.53053 0.84771 0.0
H830 H 0.07993 0.51582 0.68004 0.0
H831 H 0.11432 0.51448 0.71826 0.0
H832 H 0.12849 0.47365 0.91356 0.0
C833 C 0.20176 0.4876 0.95066 0.0
C834 C 0.16179 0.51802 0.86262 0.0
C835 C 0.21975 0.48885 0.99005 0.0
C836 C 0.08349 0.50976 0.73532 0.0
C837 C 0.10327 0.50918 0.75779 0.0
C838 C 0.13754 0.4862 0.89896 0.0
C839 C 0.18949 0.50422 0.94281 0.0
C840 C 0.16937 0.50274 0.90837 0.0
C841 C 0.1087 0.50174 0.82985 0.0
C842 C 0.1298 0.50174 0.85489 0.0
H843 H 0.21814 0.53737 0.03716 0.0
H844 H 0.18706 0.53531 0.96851 0.0
H845 H 0.16224 0.47473 0.96085 0.0
H846 H 0.06283 0.4898 0.89483 0.0
H847 H 0.09722 0.48915 0.9348 0.0
C848 C 0.98748 0.79513 0.43003 0.0
C849 C 1.00526 0.78892 0.39699 0.0
C850 C 0.98644 0.81313 0.46926 0.0
C851 C 0.01728 0.85261 0.55731 0.0
H852 H 0.97343 0.88659 0.50569 0.0
C853 C 0.00965 0.93078 0.68567 0.0
C854 C 1.00308 0.94593 0.6372 0.0
C855 C 0.00888 0.91106 0.66282 0.0
C856 C 0.98584 0.87735 0.52049 0.0
H857 H 0.03603 0.79617 0.38215 0.0
H858 H 0.03435 0.82722 0.45085 0.0
H859 H 0.97413 0.85287 0.4583 0.0
H860 H 0.99051 0.95198 0.52571 0.0
H861 H 0.98951 0.91769 0.48512 0.0
H862 H 0.02932 0.8772 0.61745 0.0
C863 C 0.02117 0.81835 0.44702 0.0
C864 C 0.9861 0.85788 0.49415 0.0
C865 C 0.02215 0.80053 0.40744 0.0
C866 C 0.99568 0.94076 0.56486 0.0
C867 C 0.99495 0.92102 0.54177 0.0
C868 C 0.01699 0.87205 0.58382 0.0
C869 C 1.00321 0.82518 0.47688 0.0
C870 C 1.00196 0.8453 0.51126 0.0
C871 C 1.00161 0.90586 0.59035 0.0
C872 C 1.0014 0.88481 0.56499 0.0
H873 H 0.97419 0.78658 0.42213 0.0
H874 H 0.97241 0.81781 0.49222 0.0
H875 H 0.02965 0.84335 0.57236 0.0
H876 H 0.01555 0.93415 0.74133 0.0
H877 H 0.01388 0.89987 0.70238 0.0
C878 C 0.70686 0.98044 0.366 0.0
C879 C 0.72252 0.9923 0.39098 0.0
C880 C 0.68891 0.98025 0.40496 0.0
C881 C 0.65874 0.01141 0.53277 0.0
H882 H 0.6248 0.96561 0.53497 0.0
C883 C 0.58049 0.01215 0.66809 0.0
C884 C 0.56548 1.00262 0.62712 0.0
C885 C 0.60024 0.0103 0.64607 0.0
C886 C 0.63403 0.97858 0.53434 0.0
H887 H 0.73191 0.0125 0.47904 0.0
H888 H 0.70058 0.01188 0.5487 0.0
H889 H 0.6586 0.96255 0.4901 0.0
H890 H 0.55955 0.98381 0.53001 0.0
H891 H 0.59392 0.98068 0.49127 0.0
H892 H 0.63405 0.02742 0.57695 0.0
C893 C 0.7021 1.00296 0.49787 0.0
C894 C 0.65347 0.97684 0.50861 0.0
C895 C 0.72016 1.00312 0.45867 0.0
C896 C 0.57071 0.99134 0.56301 0.0
C897 C 0.59046 0.9894 0.54119 0.0
C898 C 0.6393 0.01312 0.559 0.0
C899 C 0.68604 0.99189 0.4704 0.0
C900 C 0.66603 0.9933 0.50603 0.0
C901 C 0.60552 0.99882 0.58252 0.0
C902 C 0.62657 0.9968 0.55886 0.0
H903 H 0.70822 0.9719 0.31408 0.0
H904 H 0.67697 0.97168 0.38126 0.0
H905 H 0.66779 0.02449 0.53078 0.0
H906 H 0.57697 0.02123 0.71682 0.0
H907 H 0.61142 0.01765 0.67941 0.0
C908 C 0.52602 0.71888 0.4395 0.0
C909 C 0.50811 0.72523 0.40787 0.0
C910 C 0.52718 0.70077 0.4781 0.0
C911 C 0.49673 0.66114 0.56727 0.0
H912 H 0.53997 0.6271 0.50941 0.0
C913 C 0.50507 0.58258 0.69208 0.0
C914 C 0.51101 0.56756 0.64209 0.0
C915 C 0.50575 0.60236 0.66978 0.0
C916 C 0.52774 0.63637 0.52597 0.0
H917 H 0.47725 0.71815 0.39492 0.0
H918 H 0.47913 0.68688 0.46271 0.0
H919 H 0.53915 0.66101 0.46357 0.0
H920 H 0.52236 0.56176 0.52855 0.0
H921 H 0.52325 0.59619 0.48901 0.0
H922 H 0.48499 0.6364 0.62775 0.0
C923 C 0.49232 0.69574 0.45819 0.0
C924 C 0.52742 0.65594 0.50051 0.0
C925 C 0.49122 0.71366 0.41917 0.0
C926 C 0.51769 0.57289 0.56883 0.0
C927 C 0.51835 0.5927 0.54632 0.0
C928 C 0.49709 0.64162 0.59295 0.0
C929 C 0.5104 0.68876 0.48651 0.0
C930 C 0.51176 0.66853 0.51991 0.0
C931 C 0.51232 0.60773 0.59643 0.0
C932 C 0.51247 0.62885 0.57186 0.0
H933 H 0.53929 0.7274 0.43086 0.0
H934 H 0.5413 0.69596 0.49989 0.0
H935 H 0.48453 0.67043 0.584 0.0
H936 H 0.49975 0.57908 0.74853 0.0
H937 H 0.50126 0.61346 0.71043 0.0
C938 C 0.80191 0.48481 0.41343 0.0
C939 C 0.78992 0.50163 0.40828 0.0
C940 C 0.82028 0.48561 0.44915 0.0
C941 C 0.85295 0.51474 0.57601 0.0
H942 H 0.89415 0.48996 0.45678 0.0
C943 C 0.9339 0.5063 0.68306 0.0
C944 C 0.94905 0.50896 0.62912 0.0
C945 C 0.9141 0.5061 0.66047 0.0
C946 C 0.8829 0.49709 0.49066 0.0
H947 H 0.78738 0.53219 0.44098 0.0
H948 H 0.81961 0.53361 0.50426 0.0
H949 H 0.8602 0.48813 0.41368 0.0
H950 H 0.95504 0.51379 0.50887 0.0
H951 H 0.92063 0.51345 0.46952 0.0
H952 H 0.87587 0.52386 0.65269 0.0
C953 C 0.81471 0.51977 0.48048 0.0
C954 C 0.86333 0.49582 0.4664 0.0
C955 C 0.79621 0.51896 0.44451 0.0
C956 C 0.94383 0.51163 0.55206 0.0
C957 C 0.92405 0.51133 0.5294 0.0
C958 C 0.8726 0.51589 0.60071 0.0
C959 C 0.82727 0.50326 0.48082 0.0
C960 C 0.84806 0.50461 0.5086 0.0
C961 C 0.9089 0.5084 0.58315 0.0
C962 C 0.88787 0.50716 0.55804 0.0
H963 H 0.79739 0.47117 0.38683 0.0
H964 H 0.8293 0.47248 0.44995 0.0
H965 H 0.84158 0.52162 0.61007 0.0
H966 H 0.93734 0.50414 0.7428 0.0
H967 H 0.90289 0.50366 0.70341 0.0
loop_
_geom_bond_atom_site_label_1
_geom_bond_atom_site_label_2
_geom_bond_distance
_geom_bond_site_symmetry_2
_ccdc_geom_bond_type
H0 C3 0.929 . S
H1 C6 0.929 . S
H2 C8 0.930 . S
C3 H0 0.929 . S
C3 C4 1.398 . S
C3 C5 1.396 . S
C4 C3 1.398 . S
C4 C8 1.407 . S
C5 C3 1.396 . S
C5 C6 1.394 . S
C6 H1 0.929 . S
C6 C5 1.394 . S
C6 C7 1.382 . S
C7 C6 1.382 . S
C7 C8 1.392 . S
C7 N9 1.420 . S
C8 H2 0.930 . S
C8 C4 1.407 . S
C8 C7 1.392 . S
N9 C7 1.420 . S
N9 C10 1.244 . S
C10 N9 1.244 . S
H11 C14 0.929 . S
H12 C17 0.929 . S
H13 C19 0.930 . S
C14 H11 0.929 . S
C14 C15 1.395 1_655 S
C14 C16 1.395 1_655 S
C15 C14 1.395 1_455 S
C15 C19 1.413 . S
C16 C14 1.395 1_455 S
C16 C17 1.396 . S
C17 H12 0.929 . S
C17 C16 1.396 . S
C17 C18 1.382 . S
C18 C17 1.382 . S
C18 C19 1.392 . S
C18 N20 1.420 . S
C19 H13 0.930 . S
C19 C15 1.413 . S
C19 C18 1.392 . S
N20 C18 1.420 . S
N20 C21 1.232 1_455 S
C21 N20 1.232 1_655 S
H22 C25 0.929 . S
H23 C28 0.929 . S
H24 C30 0.930 . S
C25 H22 0.929 . S
C25 C26 1.395 1_565 S
C25 C27 1.395 1_565 S
C26 C25 1.395 1_545 S
C26 C30 1.413 . S
C27 C25 1.395 1_545 S
C27 C28 1.396 . S
C28 H23 0.929 . S
C28 C27 1.396 . S
C28 C29 1.382 . S
C29 C28 1.382 . S
C29 C30 1.392 . S
C29 N31 1.420 . S
C30 H24 0.930 . S
C30 C26 1.413 . S
C30 C29 1.392 . S
N31 C29 1.420 . S
N31 C32 1.232 1_545 S
C32 N31 1.232 1_565 S
H33 C36 0.929 . S
H34 C39 0.929 . S
H35 C41 0.930 . S
C36 H33 0.929 . S
C36 C37 1.398 . S
C36 C38 1.396 . S
C37 C36 1.398 . S
C37 C41 1.407 . S
C38 C36 1.396 . S
C38 C39 1.394 . S
C39 H34 0.929 . S
C39 C38 1.394 . S
C39 C40 1.382 . S
C40 C39 1.382 . S
C40 C41 1.392 . S
C40 N42 1.420 . S
C41 H35 0.930 . S
C41 C37 1.407 . S
C41 C40 1.392 . S
N42 C40 1.420 . S
N42 C43 1.244 . S
C43 N42 1.244 . S
H44 C47 0.929 . S
H45 C50 0.929 . S
H46 C52 0.930 . S
C47 H44 0.929 . S
C47 C48 1.398 1_554 S
C47 C49 1.396 . S
C48 C47 1.398 1_556 S
C48 C52 1.407 . S
C49 C47 1.396 . S
C49 C50 1.394 . S
C50 H45 0.929 . S
C50 C49 1.394 . S
C50 C51 1.382 . S
C51 C50 1.382 . S
C51 C52 1.392 1_554 S
C51 N53 1.420 . S
C52 H46 0.930 . S
C52 C48 1.407 . S
C52 C51 1.392 1_556 S
N53 C51 1.420 . S
N53 C54 1.244 . S
C54 N53 1.244 . S
H55 C58 0.929 . S
H56 C61 0.929 . S
H57 C63 0.930 . S
C58 H55 0.929 . S
C58 C59 1.394 1_654 S
C58 C60 1.394 1_655 S
C59 C58 1.394 1_456 S
C59 C63 1.416 . S
C60 C58 1.394 1_455 S
C60 C61 1.398 . S
C61 H56 0.929 . S
C61 C60 1.398 . S
C61 C62 1.382 . S
C62 C61 1.382 . S
C62 C63 1.392 1_554 S
C62 N64 1.420 . S
C63 H57 0.930 . S
C63 C59 1.416 . S
C63 C62 1.392 1_556 S
N64 C62 1.420 . S
N64 C65 1.238 1_455 S
C65 N64 1.238 1_655 S
H66 C69 0.929 . S
H67 C72 0.929 . S
H68 C74 0.930 . S
C69 H66 0.929 . S
C69 C70 1.395 1_564 S
C69 C71 1.394 1_565 S
C70 C69 1.395 1_546 S
C70 C74 1.416 . S
C71 C69 1.394 1_545 S
C71 C72 1.398 . S
C72 H67 0.929 . S
C72 C71 1.398 . S
C72 C73 1.382 . S
C73 C72 1.382 . S
C73 C74 1.392 1_554 S
C73 N75 1.420 . S
C74 H68 0.930 . S
C74 C70 1.416 . S
C74 C73 1.392 1_556 S
N75 C73 1.420 . S
N75 C76 1.238 1_545 S
C76 N75 1.238 1_565 S
H77 C80 0.929 . S
H78 C83 0.929 . S
H79 C85 0.930 . S
C80 H77 0.929 . S
C80 C81 1.398 1_554 S
C80 C82 1.396 . S
C81 C80 1.398 1_556 S
C81 C85 1.407 . S
C82 C80 1.396 . S
C82 C83 1.394 . S
C83 H78 0.929 . S
C83 C82 1.394 . S
C83 C84 1.382 . S
C84 C83 1.382 . S
C84 C85 1.392 1_554 S
C84 N86 1.420 . S
C85 H79 0.930 . S
C85 C81 1.407 . S
C85 C84 1.392 1_556 S
N86 C84 1.420 . S
N86 C87 1.244 . S
C87 N86 1.244 . S
Tb88 C90 2.809 . S
Tb88 O108 2.481 1_455 S
Tb88 O109 2.440 . S
Tb88 O110 2.658 1_565 S
Tb88 O111 2.409 . S
Tb88 O112 2.378 . S
Tb88 O116 2.325 1_455 S
Tb88 O119 2.341 1_565 S
Tb89 C99 2.809 . S
Tb89 O110 2.325 1_655 S
Tb89 O113 2.341 1_545 S
Tb89 O114 2.475 1_655 S
Tb89 O115 2.440 . S
Tb89 O116 2.658 1_545 S
Tb89 O117 2.409 . S
Tb89 O118 2.378 . S
C90 Tb88 2.809 . S
C90 C91 1.514 . S
C90 O108 1.240 1_455 S
C90 O109 1.266 . S
C91 C90 1.514 . S
C91 C92 1.359 . S
C91 C96 1.348 . S
C92 C91 1.359 . S
C92 C93 1.380 . S
C92 H120 0.929 1_455 S
C93 C92 1.380 . S
C93 C94 1.347 . S
C93 H121 0.931 1_455 S
C94 C93 1.347 . S
C94 C95 1.369 . S
C95 C94 1.369 . S
C95 C96 1.408 . S
C95 H122 0.930 . S
C96 C91 1.348 . S
C96 C95 1.408 . S
C96 H123 0.930 . S
C97 O110 1.262 1_565 S
C97 O111 1.281 . S
C98 O112 1.236 1_655 S
C98 O113 1.266 . S
C99 Tb89 2.809 . S
C99 C100 1.514 . S
C99 O114 1.228 1_655 S
C99 O115 1.266 . S
C100 C99 1.514 . S
C100 C101 1.359 . S
C100 C105 1.348 . S
C101 C100 1.359 . S
C101 C102 1.380 . S
C101 H124 0.929 1_655 S
C102 C101 1.380 . S
C102 C103 1.347 . S
C102 H125 0.931 1_655 S
C103 C102 1.347 . S
C103 C104 1.369 . S
C104 C103 1.369 . S
C104 C105 1.408 . S
C104 H126 0.930 . S
C105 C100 1.348 . S
C105 C104 1.408 . S
C105 H127 0.930 . S
C106 O116 1.281 1_545 S
C106 O117 1.254 . S
C107 O118 1.236 1_455 S
C107 O119 1.266 . S
O108 Tb88 2.481 1_655 S
O108 C90 1.240 1_655 S
O109 Tb88 2.440 . S
O109 C90 1.266 . S
O110 Tb88 2.658 1_545 S
O110 Tb89 2.325 1_455 S
O110 C97 1.262 1_545 S
O111 Tb88 2.409 . S
O111 C97 1.281 . S
O112 Tb88 2.378 . S
O112 C98 1.236 1_455 S
O113 Tb89 2.341 1_565 S
O113 C98 1.266 . S
O114 Tb89 2.475 1_455 S
O114 C99 1.228 1_455 S
O115 Tb89 2.440 . S
O115 C99 1.266 . S
O116 Tb88 2.325 1_655 S
O116 Tb89 2.658 1_565 S
O116 C106 1.281 1_565 S
O117 Tb89 2.409 . S
O117 C106 1.254 . S
O118 Tb89 2.378 . S
O118 C107 1.236 1_655 S
O119 Tb88 2.341 1_545 S
O119 C107 1.266 . S
H120 C92 0.929 1_655 S
H121 C93 0.931 1_655 S
H122 C95 0.930 . S
H123 C96 0.930 . S
H124 C101 0.929 1_455 S
H125 C102 0.931 1_455 S
H126 C104 0.930 . S
H127 C105 0.930 . S
Tb128 C130 2.809 . S
Tb128 O148 2.477 1_545 S
Tb128 O149 2.440 . S
Tb128 O150 2.658 . S
Tb128 O151 2.409 . S
Tb128 O152 2.378 . S
Tb128 O156 2.325 1_545 S
Tb128 O159 2.341 . S
Tb129 C139 2.809 . S
Tb129 O150 2.325 1_565 S
Tb129 O153 2.341 . S
Tb129 O154 2.472 1_565 S
Tb129 O155 2.440 . S
Tb129 O156 2.658 . S
Tb129 O157 2.409 . S
Tb129 O158 2.378 . S
C130 Tb128 2.809 . S
C130 C131 1.514 . S
C130 O148 1.232 1_545 S
C130 O149 1.266 . S
C131 C130 1.514 . S
C131 C132 1.359 . S
C131 C136 1.348 . S
C132 C131 1.359 . S
C132 C133 1.380 . S
C132 H160 0.929 1_545 S
C133 C132 1.380 . S
C133 C134 1.347 . S
C133 H161 0.931 1_545 S
C134 C133 1.347 . S
C134 C135 1.369 . S
C135 C134 1.369 . S
C135 C136 1.408 . S
C135 H162 0.930 . S
C136 C131 1.348 . S
C136 C135 1.408 . S
C136 H163 0.930 . S
C137 O150 1.281 . S
C137 O151 1.254 . S
C138 O152 1.236 1_565 S
C138 O153 1.266 . S
C139 Tb129 2.809 . S
C139 C140 1.514 . S
C139 O154 1.219 1_565 S
C139 O155 1.266 . S
C140 C139 1.514 . S
C140 C141 1.359 . S
C140 C145 1.348 . S
C141 C140 1.359 . S
C141 C142 1.380 . S
C141 H164 0.929 1_565 S
C142 C141 1.380 . S
C142 C143 1.347 . S
C142 H165 0.931 1_565 S
C143 C142 1.347 . S
C143 C144 1.369 . S
C144 C143 1.369 . S
C144 C145 1.408 . S
C144 H166 0.930 . S
C145 C140 1.348 . S
C145 C144 1.408 . S
C145 H167 0.930 . S
C146 O156 1.281 . S
C146 O157 1.254 . S
C147 O158 1.236 1_545 S
C147 O159 1.266 . S
O148 Tb128 2.477 1_565 S
O148 C130 1.232 1_565 S
O149 Tb128 2.440 . S
O149 C130 1.266 . S
O150 Tb128 2.658 . S
O150 Tb129 2.325 1_545 S
O150 C137 1.281 . S
O151 Tb128 2.409 . S
O151 C137 1.254 . S
O152 Tb128 2.378 . S
O152 C138 1.236 1_545 S
O153 Tb129 2.341 . S
O153 C138 1.266 . S
O154 Tb129 2.472 1_545 S
O154 C139 1.219 1_545 S
O155 Tb129 2.440 . S
O155 C139 1.266 . S
O156 Tb128 2.325 1_565 S
O156 Tb129 2.658 . S
O156 C146 1.281 . S
O157 Tb129 2.409 . S
O157 C146 1.254 . S
O158 Tb129 2.378 . S
O158 C147 1.236 1_565 S
O159 Tb128 2.341 . S
O159 C147 1.266 . S
H160 C132 0.929 1_565 S
H161 C133 0.931 1_565 S
H162 C135 0.930 . S
H163 C136 0.930 . S
H164 C141 0.929 1_545 S
H165 C142 0.931 1_545 S
H166 C144 0.930 . S
H167 C145 0.930 . S
Tb168 C170 2.809 . S
Tb168 O188 2.484 . S
Tb168 O189 2.440 . S
Tb168 O190 2.658 . S
Tb168 O191 2.409 . S
Tb168 O192 2.378 . S
Tb168 O196 2.325 . S
Tb168 O199 2.341 . S
Tb169 C179 2.809 . S
Tb169 O190 2.325 . S
Tb169 O193 2.341 . S
Tb169 O194 2.484 . S
Tb169 O195 2.440 . S
Tb169 O196 2.658 . S
Tb169 O197 2.409 . S
Tb169 O198 2.378 . S
C170 Tb168 2.809 . S
C170 C171 1.514 . S
C170 O188 1.248 . S
C170 O189 1.266 . S
C171 C170 1.514 . S
C171 C172 1.359 . S
C171 C176 1.348 . S
C172 C171 1.359 . S
C172 C173 1.380 . S
C172 H200 0.929 . S
C173 C172 1.380 . S
C173 C174 1.347 . S
C173 H201 0.931 . S
C174 C173 1.347 . S
C174 C175 1.369 . S
C175 C174 1.369 . S
C175 C176 1.408 . S
C175 H202 0.930 . S
C176 C171 1.348 . S
C176 C175 1.408 . S
C176 H203 0.930 . S
C177 O190 1.281 . S
C177 O191 1.254 . S
C178 O192 1.236 . S
C178 O193 1.266 . S
C179 Tb169 2.809 . S
C179 C180 1.514 . S
C179 O194 1.248 . S
C179 O195 1.266 . S
C180 C179 1.514 . S
C180 C181 1.359 . S
C180 C185 1.348 . S
C181 C180 1.359 . S
C181 C182 1.380 . S
C181 H204 0.929 . S
C182 C181 1.380 . S
C182 C183 1.347 . S
C182 H205 0.931 . S
C183 C182 1.347 . S
C183 C184 1.369 . S
C184 C183 1.369 . S
C184 C185 1.408 . S
C184 H206 0.930 . S
C185 C180 1.348 . S
C185 C184 1.408 . S
C185 H207 0.930 . S
C186 O196 1.281 . S
C186 O197 1.254 . S
C187 O198 1.236 . S
C187 O199 1.266 . S
O188 Tb168 2.484 . S
O188 C170 1.248 . S
O189 Tb168 2.440 . S
O189 C170 1.266 . S
O190 Tb168 2.658 . S
O190 Tb169 2.325 . S
O190 C177 1.281 . S
O191 Tb168 2.409 . S
O191 C177 1.254 . S
O192 Tb168 2.378 . S
O192 C178 1.236 . S
O193 Tb169 2.341 . S
O193 C178 1.266 . S
O194 Tb169 2.484 . S
O194 C179 1.248 . S
O195 Tb169 2.440 . S
O195 C179 1.266 . S
O196 Tb168 2.325 . S
O196 Tb169 2.658 . S
O196 C186 1.281 . S
O197 Tb169 2.409 . S
O197 C186 1.254 . S
O198 Tb169 2.378 . S
O198 C187 1.236 . S
O199 Tb168 2.341 . S
O199 C187 1.266 . S
H200 C172 0.929 . S
H201 C173 0.931 . S
H202 C175 0.930 . S
H203 C176 0.930 . S
H204 C181 0.929 . S
H205 C182 0.931 . S
H206 C184 0.930 . S
H207 C185 0.930 . S
Tb208 C210 2.809 . S
Tb208 O228 2.484 . S
Tb208 O229 2.440 . S
Tb208 O230 2.658 1_655 S
Tb208 O231 2.409 . S
Tb208 O232 2.378 . S
Tb208 O236 2.325 . S
Tb208 O239 2.341 1_655 S
Tb209 C219 2.809 . S
Tb209 O230 2.325 . S
Tb209 O233 2.341 1_455 S
Tb209 O234 2.484 . S
Tb209 O235 2.440 . S
Tb209 O236 2.658 1_455 S
Tb209 O237 2.409 . S
Tb209 O238 2.378 . S
C210 Tb208 2.809 . S
C210 C211 1.514 . S
C210 O228 1.248 . S
C210 O229 1.266 . S
C211 C210 1.514 . S
C211 C212 1.359 . S
C211 C216 1.348 . S
C212 C211 1.359 . S
C212 C213 1.380 . S
C212 H240 0.929 . S
C213 C212 1.380 . S
C213 C214 1.347 . S
C213 H241 0.931 . S
C214 C213 1.347 . S
C214 C215 1.369 . S
C215 C214 1.369 . S
C215 C216 1.408 . S
C215 H242 0.930 . S
C216 C211 1.348 . S
C216 C215 1.408 . S
C216 H243 0.930 . S
C217 O230 1.269 1_655 S
C217 O231 1.270 . S
C218 O232 1.236 . S
C218 O233 1.266 . S
C219 Tb209 2.809 . S
C219 C220 1.514 . S
C219 O234 1.248 . S
C219 O235 1.266 . S
C220 C219 1.514 . S
C220 C221 1.359 . S
C220 C225 1.348 . S
C221 C220 1.359 . S
C221 C222 1.380 . S
C221 H244 0.929 . S
C222 C221 1.380 . S
C222 C223 1.347 . S
C222 H245 0.931 . S
C223 C222 1.347 . S
C223 C224 1.369 . S
C224 C223 1.369 . S
C224 C225 1.408 . S
C224 H246 0.930 . S
C225 C220 1.348 . S
C225 C224 1.408 . S
C225 H247 0.930 . S
C226 O236 1.265 1_455 S
C226 O237 1.277 . S
C227 O238 1.236 . S
C227 O239 1.266 . S
O228 Tb208 2.484 . S
O228 C210 1.248 . S
O229 Tb208 2.440 . S
O229 C210 1.266 . S
O230 Tb208 2.658 1_455 S
O230 Tb209 2.325 . S
O230 C217 1.269 1_455 S
O231 Tb208 2.409 . S
O231 C217 1.270 . S
O232 Tb208 2.378 . S
O232 C218 1.236 . S
O233 Tb209 2.341 1_655 S
O233 C218 1.266 . S
O234 Tb209 2.484 . S
O234 C219 1.248 . S
O235 Tb209 2.440 . S
O235 C219 1.266 . S
O236 Tb208 2.325 . S
O236 Tb209 2.658 1_655 S
O236 C226 1.265 1_655 S
O237 Tb209 2.409 . S
O237 C226 1.277 . S
O238 Tb209 2.378 . S
O238 C227 1.236 . S
O239 Tb208 2.341 1_455 S
O239 C227 1.266 . S
H240 C212 0.929 . S
H241 C213 0.931 . S
H242 C215 0.930 . S
H243 C216 0.930 . S
H244 C221 0.929 . S
H245 C222 0.931 . S
H246 C224 0.930 . S
H247 C225 0.930 . S
C248 C249 1.347 1_565 S
C248 C250 1.327 . S
C248 H273 0.950 . S
C249 C248 1.347 1_545 S
C249 C265 1.350 . S
C250 C248 1.327 . S
C250 C269 1.423 1_565 S
C250 H274 0.950 . S
C251 C268 1.574 . S
C251 C270 1.377 . S
C251 H275 0.949 . S
H252 C256 0.949 . S
C253 C254 1.367 . S
C253 C255 1.327 . S
C253 H276 0.950 . S
C254 C253 1.367 . S
C254 C266 1.331 1_545 S
C255 C253 1.327 . S
C255 C271 1.442 . S
C255 H277 0.950 . S
C256 H252 0.949 . S
C256 C264 1.574 . S
C256 C272 1.356 1_565 S
H257 C265 0.950 . S
H258 C263 0.950 . S
H259 C264 0.949 . S
H260 C266 0.950 . S
H261 C267 0.950 . S
H262 C268 0.949 . S
C263 H258 0.950 . S
C263 C265 1.327 . S
C263 C269 1.434 . S
C264 C256 1.574 . S
C264 H259 0.949 . S
C264 C270 1.360 1_565 S
C265 C249 1.350 . S
C265 H257 0.950 . S
C265 C263 1.327 . S
C266 C254 1.331 1_565 S
C266 H260 0.950 . S
C266 C267 1.327 . S
C267 H261 0.950 . S
C267 C266 1.327 . S
C267 C271 1.415 1_565 S
C268 C251 1.574 . S
C268 H262 0.949 . S
C268 C272 1.381 . S
C269 C250 1.423 1_545 S
C269 C263 1.434 . S
C269 C270 1.523 . S
C270 C251 1.377 . S
C270 C264 1.360 1_545 S
C270 C269 1.523 . S
C271 C255 1.442 . S
C271 C267 1.415 1_545 S
C271 C272 1.523 . S
C272 C256 1.356 1_545 S
C272 C268 1.381 . S
C272 C271 1.523 . S
H273 C248 0.950 . S
H274 C250 0.950 . S
H275 C251 0.949 . S
H276 C253 0.950 . S
H277 C255 0.950 . S
C278 C279 1.349 . S
C278 C280 1.327 . S
C278 H303 0.950 . S
C279 C278 1.349 . S
C279 C295 1.349 . S
C280 C278 1.327 . S
C280 C299 1.429 . S
C280 H304 0.950 . S
C281 C298 1.574 . S
C281 C300 1.368 . S
C281 H305 0.949 . S
H282 C286 0.949 . S
C283 C284 1.349 . S
C283 C285 1.327 . S
C283 H306 0.950 . S
C284 C283 1.349 . S
C284 C296 1.349 . S
C285 C283 1.327 . S
C285 C301 1.429 . S
C285 H307 0.950 . S
C286 H282 0.949 . S
C286 C294 1.574 . S
C286 C302 1.368 . S
H287 C295 0.950 . S
H288 C293 0.950 . S
H289 C294 0.949 . S
H290 C296 0.950 . S
H291 C297 0.950 . S
H292 C298 0.949 . S
C293 H288 0.950 . S
C293 C295 1.327 . S
C293 C299 1.429 . S
C294 C286 1.574 . S
C294 H289 0.949 . S
C294 C300 1.368 . S
C295 C279 1.349 . S
C295 H287 0.950 . S
C295 C293 1.327 . S
C296 C284 1.349 . S
C296 H290 0.950 . S
C296 C297 1.327 . S
C297 H291 0.950 . S
C297 C296 1.327 . S
C297 C301 1.429 . S
C298 C281 1.574 . S
C298 H292 0.949 . S
C298 C302 1.368 . S
C299 C280 1.429 . S
C299 C293 1.429 . S
C299 C300 1.523 . S
C300 C281 1.368 . S
C300 C294 1.368 . S
C300 C299 1.523 . S
C301 C285 1.429 . S
C301 C297 1.429 . S
C301 C302 1.523 . S
C302 C286 1.368 . S
C302 C298 1.368 . S
C302 C301 1.523 . S
H303 C278 0.950 . S
H304 C280 0.950 . S
H305 C281 0.949 . S
H306 C283 0.950 . S
H307 C285 0.950 . S
C308 C309 1.349 . S
C308 C310 1.327 . S
C308 H333 0.950 . S
C309 C308 1.349 . S
C309 C325 1.349 . S
C310 C308 1.327 . S
C310 C329 1.429 . S
C310 H334 0.950 . S
C311 C328 1.574 . S
C311 C330 1.368 . S
C311 H335 0.949 . S
H312 C316 0.949 . S
C313 C314 1.349 . S
C313 C315 1.327 . S
C313 H336 0.950 . S
C314 C313 1.349 . S
C314 C326 1.349 . S
C315 C313 1.327 . S
C315 C331 1.429 . S
C315 H337 0.950 . S
C316 H312 0.949 . S
C316 C324 1.574 . S
C316 C332 1.368 . S
H317 C325 0.950 . S
H318 C323 0.950 . S
H319 C324 0.949 . S
H320 C326 0.950 . S
H321 C327 0.950 . S
H322 C328 0.949 . S
C323 H318 0.950 . S
C323 C325 1.327 . S
C323 C329 1.429 . S
C324 C316 1.574 . S
C324 H319 0.949 . S
C324 C330 1.368 . S
C325 C309 1.349 . S
C325 H317 0.950 . S
C325 C323 1.327 . S
C326 C314 1.349 . S
C326 H320 0.950 . S
C326 C327 1.327 . S
C327 H321 0.950 . S
C327 C326 1.327 . S
C327 C331 1.429 . S
C328 C311 1.574 . S
C328 H322 0.949 . S
C328 C332 1.368 . S
C329 C310 1.429 . S
C329 C323 1.429 . S
C329 C330 1.523 . S
C330 C311 1.368 . S
C330 C324 1.368 . S
C330 C329 1.523 . S
C331 C315 1.429 . S
C331 C327 1.429 . S
C331 C332 1.523 . S
C332 C316 1.368 . S
C332 C328 1.368 . S
C332 C331 1.523 . S
H333 C308 0.950 . S
H334 C310 0.950 . S
H335 C311 0.949 . S
H336 C313 0.950 . S
H337 C315 0.950 . S
C338 C339 1.348 1_655 S
C338 C340 1.327 . S
C338 H363 0.953 . S
C339 C338 1.348 1_455 S
C339 C355 1.349 . S
C340 C338 1.327 . S
C340 C359 1.427 1_655 S
C340 H364 0.952 . S
C341 C358 1.574 . S
C341 C360 1.369 . S
C341 H365 0.949 . S
H342 C346 0.951 . S
C343 C344 1.352 . S
C343 C345 1.327 . S
C343 H366 0.950 . S
C344 C343 1.352 . S
C344 C356 1.347 1_455 S
C345 C343 1.327 . S
C345 C361 1.431 . S
C345 H367 0.950 . S
C346 H342 0.951 . S
C346 C354 1.574 . S
C346 C362 1.367 1_655 S
H347 C355 0.950 . S
H348 C353 0.950 . S
H349 C354 0.951 . S
H350 C356 0.949 . S
H351 C357 0.948 . S
H352 C358 0.949 . S
C353 H348 0.950 . S
C353 C355 1.327 . S
C353 C359 1.429 . S
C354 C346 1.574 . S
C354 H349 0.951 . S
C354 C360 1.367 1_655 S
C355 C339 1.349 . S
C355 H347 0.950 . S
C355 C353 1.327 . S
C356 C344 1.347 1_655 S
C356 H350 0.949 . S
C356 C357 1.327 . S
C357 H351 0.948 . S
C357 C356 1.327 . S
C357 C361 1.427 1_655 S
C358 C341 1.574 . S
C358 H352 0.949 . S
C358 C362 1.370 . S
C359 C340 1.427 1_455 S
C359 C353 1.429 . S
C359 C360 1.523 . S
C360 C341 1.369 . S
C360 C354 1.367 1_455 S
C360 C359 1.523 . S
C361 C345 1.431 . S
C361 C357 1.427 1_455 S
C361 C362 1.523 . S
C362 C346 1.367 1_455 S
C362 C358 1.370 . S
C362 C361 1.523 . S
H363 C338 0.953 . S
H364 C340 0.952 . S
H365 C341 0.949 . S
H366 C343 0.950 . S
H367 C345 0.950 . S
C368 C369 1.347 . S
C368 C370 1.327 . S
C368 H393 0.950 . S
C369 C368 1.347 . S
C369 C385 1.351 1_545 S
C370 C368 1.327 . S
C370 C389 1.433 1_545 S
C370 H394 0.950 . S
C371 C388 1.574 1_554 S
C371 C390 1.366 . S
C371 H395 0.949 . S
H372 C376 0.949 . S
C373 C374 1.357 . S
C373 C375 1.327 . S
C373 H396 0.950 . S
C374 C373 1.357 . S
C374 C386 1.340 1_565 S
C375 C373 1.327 . S
C375 C391 1.433 . S
C375 H397 0.950 . S
C376 H372 0.949 . S
C376 C384 1.574 . S
C376 C392 1.366 1_545 S
H377 C385 0.950 . S
H378 C383 0.950 . S
H379 C384 0.949 . S
H380 C386 0.950 . S
H381 C387 0.950 . S
H382 C388 0.949 . S
C383 H378 0.950 . S
C383 C385 1.327 . S
C383 C389 1.425 . S
C384 C376 1.574 . S
C384 H379 0.949 . S
C384 C390 1.370 1_545 S
C385 C369 1.351 1_565 S
C385 H377 0.950 . S
C385 C383 1.327 . S
C386 C374 1.340 1_545 S
C386 H380 0.950 . S
C386 C387 1.327 . S
C387 H381 0.950 . S
C387 C386 1.327 . S
C387 C391 1.424 1_545 S
C388 C371 1.574 1_556 S
C388 H382 0.949 . S
C388 C392 1.370 1_556 S
C389 C370 1.433 1_565 S
C389 C383 1.425 . S
C389 C390 1.523 . S
C390 C371 1.366 . S
C390 C384 1.370 1_565 S
C390 C389 1.523 . S
C391 C375 1.433 . S
C391 C387 1.424 1_565 S
C391 C392 1.523 1_556 S
C392 C376 1.366 1_565 S
C392 C388 1.370 1_554 S
C392 C391 1.523 1_554 S
H393 C368 0.950 . S
H394 C370 0.950 . S
H395 C371 0.949 . S
H396 C373 0.950 . S
H397 C375 0.950 . S
C398 C399 1.349 . S
C398 C400 1.327 . S
C398 H423 0.950 . S
C399 C398 1.349 . S
C399 C415 1.349 . S
C400 C398 1.327 . S
C400 C419 1.429 . S
C400 H424 0.950 . S
C401 C418 1.574 . S
C401 C420 1.368 . S
C401 H425 0.949 . S
H402 C406 0.949 . S
C403 C404 1.349 . S
C403 C405 1.327 . S
C403 H426 0.950 . S
C404 C403 1.349 . S
C404 C416 1.349 . S
C405 C403 1.327 . S
C405 C421 1.429 . S
C405 H427 0.950 1_556 S
C406 H402 0.949 . S
C406 C414 1.574 1_556 S
C406 C422 1.368 1_556 S
H407 C415 0.950 . S
H408 C413 0.950 . S
H409 C414 0.949 . S
H410 C416 0.950 . S
H411 C417 0.950 . S
H412 C418 0.949 . S
C413 H408 0.950 . S
C413 C415 1.327 . S
C413 C419 1.429 . S
C414 C406 1.574 1_554 S
C414 H409 0.949 . S
C414 C420 1.368 . S
C415 C399 1.349 . S
C415 H407 0.950 . S
C415 C413 1.327 . S
C416 C404 1.349 . S
C416 H410 0.950 . S
C416 C417 1.327 . S
C417 H411 0.950 . S
C417 C416 1.327 . S
C417 C421 1.429 . S
C418 C401 1.574 . S
C418 H412 0.949 . S
C418 C422 1.368 . S
C419 C400 1.429 . S
C419 C413 1.429 . S
C419 C420 1.523 . S
C420 C401 1.368 . S
C420 C414 1.368 . S
C420 C419 1.523 . S
C421 C405 1.429 . S
C421 C417 1.429 . S
C421 C422 1.523 1_556 S
C422 C406 1.368 1_554 S
C422 C418 1.368 . S
C422 C421 1.523 1_554 S
H423 C398 0.950 . S
H424 C400 0.950 . S
H425 C401 0.949 . S
H426 C403 0.950 . S
H427 C405 0.950 1_554 S
C428 C429 1.349 . S
C428 C430 1.327 . S
C428 H453 0.950 . S
C429 C428 1.349 . S
C429 C445 1.349 . S
C430 C428 1.327 . S
C430 C449 1.429 . S
C430 H454 0.950 . S
C431 C448 1.574 . S
C431 C450 1.368 . S
C431 H455 0.949 . S
H432 C436 0.949 1_556 S
C433 C434 1.349 . S
C433 C435 1.327 . S
C433 H456 0.950 . S
C434 C433 1.349 . S
C434 C446 1.349 . S
C435 C433 1.327 . S
C435 C451 1.429 . S
C435 H457 0.950 . S
C436 H432 0.949 1_554 S
C436 C444 1.574 . S
C436 C452 1.368 . S
H437 C445 0.950 . S
H438 C443 0.950 . S
H439 C444 0.949 . S
H440 C446 0.950 . S
H441 C447 0.950 . S
H442 C448 0.949 . S
C443 H438 0.950 . S
C443 C445 1.327 . S
C443 C449 1.429 . S
C444 C436 1.574 . S
C444 H439 0.949 . S
C444 C450 1.368 . S
C445 C429 1.349 . S
C445 H437 0.950 . S
C445 C443 1.327 . S
C446 C434 1.349 . S
C446 H440 0.950 . S
C446 C447 1.327 . S
C447 H441 0.950 . S
C447 C446 1.327 . S
C447 C451 1.429 . S
C448 C431 1.574 . S
C448 H442 0.949 . S
C448 C452 1.368 . S
C449 C430 1.429 . S
C449 C443 1.429 . S
C449 C450 1.523 . S
C450 C431 1.368 . S
C450 C444 1.368 . S
C450 C449 1.523 . S
C451 C435 1.429 . S
C451 C447 1.429 . S
C451 C452 1.523 1_556 S
C452 C436 1.368 . S
C452 C448 1.368 . S
C452 C451 1.523 1_554 S
H453 C428 0.950 . S
H454 C430 0.950 . S
H455 C431 0.949 . S
H456 C433 0.950 . S
H457 C435 0.950 . S
C458 C459 1.347 1_455 S
C458 C460 1.327 . S
C458 H483 0.950 . S
C459 C458 1.347 1_655 S
C459 C475 1.351 . S
C460 C458 1.327 . S
C460 C479 1.421 1_455 S
C460 H484 0.950 . S
C461 C478 1.574 . S
C461 C480 1.380 . S
C461 H485 0.949 . S
H462 C466 0.949 . S
C463 C464 1.375 . S
C463 C465 1.327 . S
C463 H486 0.950 . S
C464 C463 1.375 . S
C464 C476 1.324 1_655 S
C465 C463 1.327 . S
C465 C481 1.448 . S
C465 H487 0.950 . S
C466 H462 0.949 . S
C466 C474 1.574 1_556 S
C466 C482 1.351 1_456 S
H467 C475 0.950 . S
H468 C473 0.950 . S
H469 C474 0.949 . S
H470 C476 0.950 . S
H471 C477 0.950 . S
H472 C478 0.949 . S
C473 H468 0.950 . S
C473 C475 1.327 . S
C473 C479 1.436 . S
C474 C466 1.574 1_554 S
C474 H469 0.949 . S
C474 C480 1.356 1_455 S
C475 C459 1.351 . S
C475 H467 0.950 . S
C475 C473 1.327 . S
C476 C464 1.324 1_455 S
C476 H470 0.950 . S
C476 C477 1.327 . S
C477 H471 0.950 . S
C477 C476 1.327 . S
C477 C481 1.410 1_455 S
C478 C461 1.574 . S
C478 H472 0.949 . S
C478 C482 1.386 . S
C479 C460 1.421 1_655 S
C479 C473 1.436 . S
C479 C480 1.523 . S
C480 C461 1.380 . S
C480 C474 1.356 1_655 S
C480 C479 1.523 . S
C481 C465 1.448 . S
C481 C477 1.410 1_655 S
C481 C482 1.523 1_556 S
C482 C466 1.351 1_654 S
C482 C478 1.386 . S
C482 C481 1.523 1_554 S
H483 C458 0.950 . S
H484 C460 0.950 . S
H485 C461 0.949 . S
H486 C463 0.950 . S
H487 C465 0.950 . S
C488 C489 1.349 1_655 S
C488 C490 1.327 . S
C488 H513 0.950 . S
C489 C488 1.349 1_455 S
C489 C505 1.349 . S
C490 C488 1.327 . S
C490 C509 1.429 . S
C490 H514 0.950 . S
C491 C508 1.574 . S
C491 C510 1.368 1_455 S
C491 H515 0.949 . S
H492 C496 0.949 . S
C493 C494 1.349 . S
C493 C495 1.327 . S
C493 H516 0.950 1_655 S
C494 C493 1.349 . S
C494 C506 1.349 . S
C495 C493 1.327 . S
C495 C511 1.429 . S
C495 H517 0.950 1_655 S
C496 H492 0.949 . S
C496 C504 1.574 . S
C496 C512 1.368 . S
H497 C505 0.950 . S
H498 C503 0.950 . S
H499 C504 0.949 . S
H500 C506 0.950 . S
H501 C507 0.950 . S
H502 C508 0.949 . S
C503 H498 0.950 . S
C503 C505 1.327 . S
C503 C509 1.429 1_455 S
C504 C496 1.574 . S
C504 H499 0.949 . S
C504 C510 1.368 . S
C505 C489 1.349 . S
C505 H497 0.950 . S
C505 C503 1.327 . S
C506 C494 1.349 . S
C506 H500 0.950 . S
C506 C507 1.327 . S
C507 H501 0.950 . S
C507 C506 1.327 . S
C507 C511 1.429 . S
C508 C491 1.574 . S
C508 H502 0.949 . S
C508 C512 1.368 1_455 S
C509 C490 1.429 . S
C509 C503 1.429 1_655 S
C509 C510 1.523 . S
C510 C491 1.368 1_655 S
C510 C504 1.368 . S
C510 C509 1.523 . S
C511 C495 1.429 . S
C511 C507 1.429 . S
C511 C512 1.523 . S
C512 C496 1.368 . S
C512 C508 1.368 1_655 S
C512 C511 1.523 . S
H513 C488 0.950 . S
H514 C490 0.950 . S
H515 C491 0.949 . S
H516 C493 0.950 1_455 S
H517 C495 0.950 1_455 S
C518 C519 1.349 1_565 S
C518 C520 1.327 . S
C518 H543 0.950 . S
C519 C518 1.349 1_545 S
C519 C535 1.349 . S
C520 C518 1.327 . S
C520 C539 1.429 . S
C520 H544 0.950 . S
C521 C538 1.574 1_545 S
C521 C540 1.368 1_545 S
C521 H545 0.949 . S
H522 C526 0.949 . S
C523 C524 1.349 . S
C523 C525 1.327 . S
C523 H546 0.950 . S
C524 C523 1.349 . S
C524 C536 1.349 . S
C525 C523 1.327 . S
C525 C541 1.429 . S
C525 H547 0.950 1_565 S
C526 H522 0.949 . S
C526 C534 1.574 . S
C526 C542 1.368 . S
H527 C535 0.950 . S
H528 C533 0.950 . S
H529 C534 0.949 . S
H530 C536 0.950 . S
H531 C537 0.950 . S
H532 C538 0.950 1_545 S
C533 H528 0.950 . S
C533 C535 1.327 . S
C533 C539 1.429 1_545 S
C534 C526 1.574 . S
C534 H529 0.949 . S
C534 C540 1.368 . S
C535 C519 1.349 . S
C535 H527 0.950 . S
C535 C533 1.327 . S
C536 C524 1.349 . S
C536 H530 0.950 . S
C536 C537 1.327 . S
C537 H531 0.950 . S
C537 C536 1.327 . S
C537 C541 1.429 . S
C538 C521 1.574 1_565 S
C538 H532 0.950 1_565 S
C538 C542 1.367 . S
C539 C520 1.429 . S
C539 C533 1.429 1_565 S
C539 C540 1.523 . S
C540 C521 1.368 1_565 S
C540 C534 1.368 . S
C540 C539 1.523 . S
C541 C525 1.429 . S
C541 C537 1.429 . S
C541 C542 1.523 . S
C542 C526 1.368 . S
C542 C538 1.367 . S
C542 C541 1.523 . S
H543 C518 0.950 . S
H544 C520 0.950 . S
H545 C521 0.949 . S
H546 C523 0.950 . S
H547 C525 0.950 1_545 S
C548 C549 1.349 . S
C548 C550 1.327 . S
C548 H573 0.950 . S
C549 C548 1.349 . S
C549 C565 1.349 . S
C550 C548 1.327 . S
C550 C569 1.429 . S
C550 H574 0.950 . S
C551 C568 1.574 . S
C551 C570 1.368 . S
C551 H575 0.949 . S
H552 C556 0.949 . S
C553 C554 1.349 . S
C553 C555 1.327 . S
C553 H576 0.950 . S
C554 C553 1.349 . S
C554 C566 1.349 . S
C555 C553 1.327 . S
C555 C571 1.429 . S
C555 H577 0.950 . S
C556 H552 0.949 . S
C556 C564 1.574 . S
C556 C572 1.368 . S
H557 C565 0.950 . S
H558 C563 0.950 . S
H559 C564 0.949 . S
H560 C566 0.950 . S
H561 C567 0.950 . S
H562 C568 0.949 . S
C563 H558 0.950 . S
C563 C565 1.327 . S
C563 C569 1.429 . S
C564 C556 1.574 . S
C564 H559 0.949 . S
C564 C570 1.368 . S
C565 C549 1.349 . S
C565 H557 0.950 . S
C565 C563 1.327 . S
C566 C554 1.349 . S
C566 H560 0.950 . S
C566 C567 1.327 . S
C567 H561 0.950 . S
C567 C566 1.327 . S
C567 C571 1.429 . S
C568 C551 1.574 . S
C568 H562 0.949 . S
C568 C572 1.368 . S
C569 C550 1.429 . S
C569 C563 1.429 . S
C569 C570 1.523 . S
C570 C551 1.368 . S
C570 C564 1.368 . S
C570 C569 1.523 . S
C571 C555 1.429 . S
C571 C567 1.429 . S
C571 C572 1.523 . S
C572 C556 1.368 . S
C572 C568 1.368 . S
C572 C571 1.523 . S
H573 C548 0.950 . S
H574 C550 0.950 . S
H575 C551 0.949 . S
H576 C553 0.950 . S
H577 C555 0.950 . S
C578 C579 1.349 . S
C578 C580 1.327 . S
C578 H603 0.950 . S
C579 C578 1.349 . S
C579 C595 1.349 . S
C580 C578 1.327 . S
C580 C599 1.429 . S
C580 H604 0.950 . S
C581 C598 1.574 . S
C581 C600 1.368 . S
C581 H605 0.949 . S
H582 C586 0.949 . S
C583 C584 1.349 . S
C583 C585 1.327 . S
C583 H606 0.950 . S
C584 C583 1.349 . S
C584 C596 1.349 . S
C585 C583 1.327 . S
C585 C601 1.429 . S
C585 H607 0.950 . S
C586 H582 0.949 . S
C586 C594 1.574 . S
C586 C602 1.368 . S
H587 C595 0.950 . S
H588 C593 0.950 . S
H589 C594 0.949 . S
H590 C596 0.950 . S
H591 C597 0.950 . S
H592 C598 0.949 . S
C593 H588 0.950 . S
C593 C595 1.327 . S
C593 C599 1.429 . S
C594 C586 1.574 . S
C594 H589 0.949 . S
C594 C600 1.368 . S
C595 C579 1.349 . S
C595 H587 0.950 . S
C595 C593 1.327 . S
C596 C584 1.349 . S
C596 H590 0.950 . S
C596 C597 1.327 . S
C597 H591 0.950 . S
C597 C596 1.327 . S
C597 C601 1.429 . S
C598 C581 1.574 . S
C598 H592 0.949 . S
C598 C602 1.368 . S
C599 C580 1.429 . S
C599 C593 1.429 . S
C599 C600 1.523 . S
C600 C581 1.368 . S
C600 C594 1.368 . S
C600 C599 1.523 . S
C601 C585 1.429 . S
C601 C597 1.429 . S
C601 C602 1.523 . S
C602 C586 1.368 . S
C602 C598 1.368 . S
C602 C601 1.523 . S
H603 C578 0.950 . S
H604 C580 0.950 . S
H605 C581 0.949 . S
H606 C583 0.950 . S
H607 C585 0.950 . S
C608 C609 1.349 . S
C608 C610 1.327 . S
C608 H633 0.950 . S
C609 C608 1.349 . S
C609 C625 1.349 1_655 S
C610 C608 1.327 . S
C610 C629 1.429 1_655 S
C610 H634 0.950 . S
C611 C628 1.574 . S
C611 C630 1.368 . S
C611 H635 0.949 . S
H612 C616 0.949 1_655 S
C613 C614 1.349 1_554 S
C613 C615 1.327 . S
C613 H636 0.950 . S
C614 C613 1.349 1_556 S
C614 C626 1.349 . S
C615 C613 1.327 . S
C615 C631 1.429 . S
C615 H637 0.950 . S
C616 H612 0.949 1_455 S
C616 C624 1.574 1_455 S
C616 C632 1.368 . S
H617 C625 0.950 . S
H618 C623 0.950 . S
H619 C624 0.949 . S
H620 C626 0.950 . S
H621 C627 0.918 1_655 S
H622 C628 0.949 . S
C623 H618 0.950 . S
C623 C625 1.327 . S
C623 C629 1.429 . S
C624 C616 1.574 1_655 S
C624 H619 0.949 . S
C624 C630 1.368 1_655 S
C625 C609 1.349 1_455 S
C625 H617 0.950 . S
C625 C623 1.327 . S
C626 C614 1.349 . S
C626 H620 0.950 . S
C626 C627 1.327 . S
C627 H621 0.918 1_455 S
C627 C626 1.327 . S
C627 C631 1.429 1_556 S
C628 C611 1.574 . S
C628 H622 0.949 . S
C628 C632 1.368 . S
C629 C610 1.429 1_455 S
C629 C623 1.429 . S
C629 C630 1.523 . S
C630 C611 1.368 . S
C630 C624 1.368 1_455 S
C630 C629 1.523 . S
C631 C615 1.429 . S
C631 C627 1.429 1_554 S
C631 C632 1.523 . S
C632 C616 1.368 . S
C632 C628 1.368 . S
C632 C631 1.523 . S
H633 C608 0.950 . S
H634 C610 0.950 . S
H635 C611 0.949 . S
H636 C613 0.950 . S
H637 C615 0.950 . S
C638 C639 1.370 . S
C638 C640 1.327 . S
C638 H663 0.950 . S
C639 C638 1.370 . S
C639 C655 1.321 1_565 S
C640 C638 1.327 . S
C640 C659 1.429 1_565 S
C640 H664 0.950 . S
C641 C658 1.574 . S
C641 C660 1.368 . S
C641 H665 0.949 . S
H642 C646 0.949 1_565 S
C643 C644 1.349 1_554 S
C643 C645 1.327 . S
C643 H666 0.950 . S
C644 C643 1.349 1_556 S
C644 C656 1.349 . S
C645 C643 1.327 . S
C645 C661 1.429 . S
C645 H667 0.950 . S
C646 H642 0.949 1_545 S
C646 C654 1.573 1_545 S
C646 C662 1.368 . S
H647 C655 0.950 . S
H648 C653 0.950 . S
H649 C654 0.951 . S
H650 C656 0.950 . S
H651 C657 0.950 . S
H652 C658 0.949 . S
C653 H648 0.950 . S
C653 C655 1.327 . S
C653 C659 1.429 . S
C654 C646 1.573 1_565 S
C654 H649 0.951 . S
C654 C660 1.367 1_565 S
C655 C639 1.321 1_545 S
C655 H647 0.950 . S
C655 C653 1.327 . S
C656 C644 1.349 . S
C656 H650 0.950 . S
C656 C657 1.327 . S
C657 H651 0.950 . S
C657 C656 1.327 . S
C657 C661 1.429 1_556 S
C658 C641 1.574 . S
C658 H652 0.949 . S
C658 C662 1.368 . S
C659 C640 1.429 1_545 S
C659 C653 1.429 . S
C659 C660 1.523 . S
C660 C641 1.368 . S
C660 C654 1.367 1_545 S
C660 C659 1.523 . S
C661 C645 1.429 . S
C661 C657 1.429 1_554 S
C661 C662 1.523 . S
C662 C646 1.368 . S
C662 C658 1.368 . S
C662 C661 1.523 . S
H663 C638 0.950 . S
H664 C640 0.950 . S
H665 C641 0.949 . S
H666 C643 0.950 . S
H667 C645 0.950 . S
C668 C669 1.349 . S
C668 C670 1.327 . S
C668 H693 0.950 . S
C669 C668 1.349 . S
C669 C685 1.349 . S
C670 C668 1.327 . S
C670 C689 1.429 . S
C670 H694 0.950 . S
C671 C688 1.574 . S
C671 C690 1.368 . S
C671 H695 0.949 . S
H672 C676 0.949 . S
C673 C674 1.349 1_554 S
C673 C675 1.327 . S
C673 H696 0.950 . S
C674 C673 1.349 1_556 S
C674 C686 1.349 . S
C675 C673 1.327 . S
C675 C691 1.429 . S
C675 H697 0.950 . S
C676 H672 0.949 . S
C676 C684 1.574 . S
C676 C692 1.368 . S
H677 C685 0.950 . S
H678 C683 0.950 . S
H679 C684 0.949 . S
H680 C686 0.950 . S
H681 C687 0.950 . S
H682 C688 0.949 . S
C683 H678 0.950 . S
C683 C685 1.327 . S
C683 C689 1.429 . S
C684 C676 1.574 . S
C684 H679 0.949 . S
C684 C690 1.368 . S
C685 C669 1.349 . S
C685 H677 0.950 . S
C685 C683 1.327 . S
C686 C674 1.349 . S
C686 H680 0.950 . S
C686 C687 1.327 . S
C687 H681 0.950 . S
C687 C686 1.327 . S
C687 C691 1.429 1_556 S
C688 C671 1.574 . S
C688 H682 0.949 . S
C688 C692 1.368 . S
C689 C670 1.429 . S
C689 C683 1.429 . S
C689 C690 1.523 . S
C690 C671 1.368 . S
C690 C684 1.368 . S
C690 C689 1.523 . S
C691 C675 1.429 . S
C691 C687 1.429 1_554 S
C691 C692 1.523 . S
C692 C676 1.368 . S
C692 C688 1.368 . S
C692 C691 1.523 . S
H693 C668 0.950 . S
H694 C670 0.950 . S
H695 C671 0.949 . S
H696 C673 0.950 . S
H697 C675 0.950 . S
C698 C699 1.349 . S
C698 C700 1.327 . S
C698 H723 0.950 . S
C699 C698 1.349 . S
C699 C715 1.349 . S
C700 C698 1.327 . S
C700 C719 1.429 . S
C700 H724 0.950 . S
C701 C718 1.574 . S
C701 C720 1.368 . S
C701 H725 0.949 . S
H702 C706 0.949 . S
C703 C704 1.349 1_554 S
C703 C705 1.327 . S
C703 H726 0.950 . S
C704 C703 1.349 1_556 S
C704 C716 1.349 . S
C705 C703 1.327 . S
C705 C721 1.429 . S
C705 H727 0.950 . S
C706 H702 0.949 . S
C706 C714 1.574 . S
C706 C722 1.368 . S
H707 C715 0.950 . S
H708 C713 0.950 . S
H709 C714 0.949 . S
H710 C716 0.950 . S
H711 C717 0.950 . S
H712 C718 0.949 . S
C713 H708 0.950 . S
C713 C715 1.327 . S
C713 C719 1.429 . S
C714 C706 1.574 . S
C714 H709 0.949 . S
C714 C720 1.368 . S
C715 C699 1.349 . S
C715 H707 0.950 . S
C715 C713 1.327 . S
C716 C704 1.349 . S
C716 H710 0.950 . S
C716 C717 1.327 1_556 S
C717 H711 0.950 . S
C717 C716 1.327 1_554 S
C717 C721 1.429 . S
C718 C701 1.574 . S
C718 H712 0.949 . S
C718 C722 1.368 . S
C719 C700 1.429 . S
C719 C713 1.429 . S
C719 C720 1.523 . S
C720 C701 1.368 . S
C720 C714 1.368 . S
C720 C719 1.523 . S
C721 C705 1.429 . S
C721 C717 1.429 . S
C721 C722 1.523 . S
C722 C706 1.368 . S
C722 C718 1.368 . S
C722 C721 1.523 . S
H723 C698 0.950 . S
H724 C700 0.950 . S
H725 C701 0.949 . S
H726 C703 0.950 . S
H727 C705 0.950 . S
C728 C729 1.375 . S
C728 C730 1.327 . S
C728 H753 0.950 . S
C729 C728 1.375 . S
C729 C745 1.326 1_455 S
C730 C728 1.327 . S
C730 C749 1.429 . S
C730 H754 0.950 . S
C731 C748 1.574 . S
C731 C750 1.368 1_655 S
C731 H755 0.949 . S
H732 C736 0.949 . S
C733 C734 1.349 1_655 S
C733 C735 1.327 . S
C733 H756 0.950 . S
C734 C733 1.349 1_455 S
C734 C746 1.349 . S
C735 C733 1.327 . S
C735 C751 1.429 1_655 S
C735 H757 0.950 . S
C736 H732 0.949 . S
C736 C744 1.574 . S
C736 C752 1.368 . S
H737 C745 0.950 1_554 S
H738 C743 0.950 . S
H739 C744 0.949 . S
H740 C746 0.950 . S
H741 C747 0.950 . S
H742 C748 0.949 . S
C743 H738 0.950 . S
C743 C745 1.327 . S
C743 C749 1.429 1_655 S
C744 C736 1.574 . S
C744 H739 0.949 . S
C744 C750 1.368 . S
C745 C729 1.326 1_655 S
C745 H737 0.950 1_556 S
C745 C743 1.327 . S
C746 C734 1.349 . S
C746 H740 0.950 . S
C746 C747 1.327 . S
C747 H741 0.950 . S
C747 C746 1.327 . S
C747 C751 1.429 . S
C748 C731 1.574 . S
C748 H742 0.949 . S
C748 C752 1.368 1_655 S
C749 C730 1.429 . S
C749 C743 1.429 1_455 S
C749 C750 1.523 . S
C750 C731 1.368 1_455 S
C750 C744 1.368 . S
C750 C749 1.523 . S
C751 C735 1.429 1_455 S
C751 C747 1.429 . S
C751 C752 1.523 . S
C752 C736 1.368 . S
C752 C748 1.368 1_455 S
C752 C751 1.523 . S
H753 C728 0.950 . S
H754 C730 0.950 . S
H755 C731 0.949 . S
H756 C733 0.950 . S
H757 C735 0.950 . S
C758 C759 1.385 . S
C758 C760 1.327 . S
C758 H783 0.950 . S
C759 C758 1.385 . S
C759 C775 1.316 1_545 S
C760 C758 1.327 . S
C760 C779 1.429 . S
C760 H784 0.950 . S
C761 C778 1.574 . S
C761 C780 1.368 1_565 S
C761 H785 0.949 . S
H762 C766 0.949 . S
C763 C764 1.349 1_565 S
C763 C765 1.327 . S
C763 H786 0.950 . S
C764 C763 1.349 1_545 S
C764 C776 1.349 . S
C765 C763 1.327 . S
C765 C781 1.429 1_565 S
C765 H787 0.950 . S
C766 H762 0.949 . S
C766 C774 1.574 . S
C766 C782 1.368 . S
H767 C775 0.950 . S
H768 C773 0.950 . S
H769 C774 0.949 . S
H770 C776 0.950 . S
H771 C777 0.950 . S
H772 C778 0.949 . S
C773 H768 0.950 . S
C773 C775 1.327 . S
C773 C779 1.429 1_565 S
C774 C766 1.574 . S
C774 H769 0.949 . S
C774 C780 1.368 . S
C775 C759 1.316 1_565 S
C775 H767 0.950 . S
C775 C773 1.327 . S
C776 C764 1.349 . S
C776 H770 0.950 . S
C776 C777 1.327 . S
C777 H771 0.950 . S
C777 C776 1.327 . S
C777 C781 1.429 . S
C778 C761 1.574 . S
C778 H772 0.949 . S
C778 C782 1.368 1_565 S
C779 C760 1.429 . S
C779 C773 1.429 1_545 S
C779 C780 1.523 . S
C780 C761 1.368 1_545 S
C780 C774 1.368 . S
C780 C779 1.523 . S
C781 C765 1.429 1_545 S
C781 C777 1.429 . S
C781 C782 1.523 . S
C782 C766 1.368 . S
C782 C778 1.368 1_545 S
C782 C781 1.523 . S
H783 C758 0.950 . S
H784 C760 0.950 . S
H785 C761 0.949 . S
H786 C763 0.950 . S
H787 C765 0.950 . S
C788 C789 1.349 . S
C788 C790 1.327 . S
C788 H813 0.950 . S
C789 C788 1.349 . S
C789 C805 1.349 . S
C790 C788 1.327 . S
C790 C809 1.429 . S
C790 H814 0.950 . S
C791 C808 1.574 . S
C791 C810 1.368 . S
C791 H815 0.949 . S
H792 C796 0.949 . S
C793 C794 1.349 . S
C793 C795 1.327 . S
C793 H816 0.950 . S
C794 C793 1.349 . S
C794 C806 1.349 . S
C795 C793 1.327 . S
C795 C811 1.429 . S
C795 H817 0.950 . S
C796 H792 0.949 . S
C796 C804 1.574 . S
C796 C812 1.368 . S
H797 C805 0.950 . S
H798 C803 0.950 . S
H799 C804 0.949 . S
H800 C806 0.950 . S
H801 C807 0.950 . S
H802 C808 0.949 . S
C803 H798 0.950 . S
C803 C805 1.327 . S
C803 C809 1.429 . S
C804 C796 1.574 . S
C804 H799 0.949 . S
C804 C810 1.368 . S
C805 C789 1.349 . S
C805 H797 0.950 . S
C805 C803 1.327 . S
C806 C794 1.349 . S
C806 H800 0.950 . S
C806 C807 1.327 . S
C807 H801 0.950 . S
C807 C806 1.327 . S
C807 C811 1.429 . S
C808 C791 1.574 . S
C808 H802 0.949 . S
C808 C812 1.368 . S
C809 C790 1.429 . S
C809 C803 1.429 . S
C809 C810 1.523 . S
C810 C791 1.368 . S
C810 C804 1.368 . S
C810 C809 1.523 . S
C811 C795 1.429 . S
C811 C807 1.429 . S
C811 C812 1.523 . S
C812 C796 1.368 . S
C812 C808 1.368 . S
C812 C811 1.523 . S
H813 C788 0.950 . S
H814 C790 0.950 . S
H815 C791 0.949 . S
H816 C793 0.950 . S
H817 C795 0.950 . S
C818 C819 1.349 . S
C818 C820 1.327 . S
C818 H843 0.950 . S
C819 C818 1.349 . S
C819 C835 1.349 . S
C820 C818 1.327 . S
C820 C839 1.429 . S
C820 H844 0.950 . S
C821 C838 1.574 . S
C821 C840 1.368 . S
C821 H845 0.949 . S
H822 C826 0.949 . S
C823 C824 1.349 . S
C823 C825 1.327 . S
C823 H846 0.950 . S
C824 C823 1.349 . S
C824 C836 1.349 . S
C825 C823 1.327 . S
C825 C841 1.429 . S
C825 H847 0.950 . S
C826 H822 0.949 . S
C826 C834 1.574 . S
C826 C842 1.368 . S
H827 C835 0.950 . S
H828 C833 0.950 . S
H829 C834 0.949 . S
H830 C836 0.950 . S
H831 C837 0.950 . S
H832 C838 0.949 . S
C833 H828 0.950 . S
C833 C835 1.327 . S
C833 C839 1.429 . S
C834 C826 1.574 . S
C834 H829 0.949 . S
C834 C840 1.368 . S
C835 C819 1.349 . S
C835 H827 0.950 . S
C835 C833 1.327 . S
C836 C824 1.349 . S
C836 H830 0.950 . S
C836 C837 1.327 . S
C837 H831 0.950 . S
C837 C836 1.327 . S
C837 C841 1.429 . S
C838 C821 1.574 . S
C838 H832 0.949 . S
C838 C842 1.368 . S
C839 C820 1.429 . S
C839 C833 1.429 . S
C839 C840 1.523 . S
C840 C821 1.368 . S
C840 C834 1.368 . S
C840 C839 1.523 . S
C841 C825 1.429 . S
C841 C837 1.429 . S
C841 C842 1.523 . S
C842 C826 1.368 . S
C842 C838 1.368 . S
C842 C841 1.523 . S
H843 C818 0.950 . S
H844 C820 0.950 . S
H845 C821 0.949 . S
H846 C823 0.950 . S
H847 C825 0.950 . S
C848 C849 1.376 . S
C848 C850 1.327 . S
C848 H873 0.950 . S
C849 C848 1.376 . S
C849 C865 1.325 1_655 S
C850 C848 1.327 . S
C850 C869 1.429 . S
C850 H874 0.950 . S
C851 C868 1.574 . S
C851 C870 1.368 1_455 S
C851 H875 0.949 . S
H852 C856 0.949 . S
C853 C854 1.349 1_455 S
C853 C855 1.327 . S
C853 H876 0.950 . S
C854 C853 1.349 1_655 S
C854 C866 1.349 . S
C855 C853 1.327 . S
C855 C871 1.429 1_455 S
C855 H877 0.950 . S
C856 H852 0.949 . S
C856 C864 1.574 . S
C856 C872 1.368 . S
H857 C865 0.950 . S
H858 C863 0.950 . S
H859 C864 0.949 . S
H860 C866 0.950 . S
H861 C867 0.950 . S
H862 C868 0.949 . S
C863 H858 0.950 . S
C863 C865 1.327 . S
C863 C869 1.429 1_455 S
C864 C856 1.574 . S
C864 H859 0.949 . S
C864 C870 1.368 . S
C865 C849 1.325 1_455 S
C865 H857 0.950 . S
C865 C863 1.327 . S
C866 C854 1.349 . S
C866 H860 0.950 . S
C866 C867 1.327 . S
C867 H861 0.950 . S
C867 C866 1.327 . S
C867 C871 1.429 . S
C868 C851 1.574 . S
C868 H862 0.949 . S
C868 C872 1.368 1_455 S
C869 C850 1.429 . S
C869 C863 1.429 1_655 S
C869 C870 1.523 . S
C870 C851 1.368 1_655 S
C870 C864 1.368 . S
C870 C869 1.523 . S
C871 C855 1.429 1_655 S
C871 C867 1.429 . S
C871 C872 1.523 . S
C872 C856 1.368 . S
C872 C868 1.368 1_655 S
C872 C871 1.523 . S
H873 C848 0.950 . S
H874 C850 0.950 . S
H875 C851 0.949 . S
H876 C853 0.950 . S
H877 C855 0.950 . S
C878 C879 1.382 . S
C878 C880 1.327 . S
C878 H903 0.950 . S
C879 C878 1.382 . S
C879 C895 1.318 1_565 S
C880 C878 1.327 . S
C880 C899 1.429 . S
C880 H904 0.950 . S
C881 C898 1.574 . S
C881 C900 1.368 1_545 S
C881 H905 0.949 . S
H882 C886 0.949 . S
C883 C884 1.349 1_545 S
C883 C885 1.327 . S
C883 H906 0.950 . S
C884 C883 1.349 1_565 S
C884 C896 1.349 . S
C885 C883 1.327 . S
C885 C901 1.429 1_545 S
C885 H907 0.950 . S
C886 H882 0.949 . S
C886 C894 1.574 . S
C886 C902 1.368 . S
H887 C895 0.950 . S
H888 C893 0.950 . S
H889 C894 0.949 . S
H890 C896 0.950 . S
H891 C897 0.950 . S
H892 C898 0.949 . S
C893 H888 0.950 . S
C893 C895 1.327 . S
C893 C899 1.429 1_545 S
C894 C886 1.574 . S
C894 H889 0.949 . S
C894 C900 1.368 . S
C895 C879 1.318 1_545 S
C895 H887 0.950 . S
C895 C893 1.327 . S
C896 C884 1.349 . S
C896 H890 0.950 . S
C896 C897 1.327 . S
C897 H891 0.950 . S
C897 C896 1.327 . S
C897 C901 1.429 . S
C898 C881 1.574 . S
C898 H892 0.949 . S
C898 C902 1.368 1_545 S
C899 C880 1.429 . S
C899 C893 1.429 1_565 S
C899 C900 1.523 . S
C900 C881 1.368 1_565 S
C900 C894 1.368 . S
C900 C899 1.523 . S
C901 C885 1.429 1_565 S
C901 C897 1.429 . S
C901 C902 1.523 . S
C902 C886 1.368 . S
C902 C898 1.368 1_565 S
C902 C901 1.523 . S
H903 C878 0.950 . S
H904 C880 0.950 . S
H905 C881 0.949 . S
H906 C883 0.950 . S
H907 C885 0.950 . S
C908 C909 1.349 . S
C908 C910 1.327 . S
C908 H933 0.950 . S
C909 C908 1.349 . S
C909 C925 1.349 . S
C910 C908 1.327 . S
C910 C929 1.429 . S
C910 H934 0.950 . S
C911 C928 1.574 . S
C911 C930 1.368 . S
C911 H935 0.949 . S
H912 C916 0.949 . S
C913 C914 1.349 . S
C913 C915 1.327 . S
C913 H936 0.950 . S
C914 C913 1.349 . S
C914 C926 1.349 . S
C915 C913 1.327 . S
C915 C931 1.429 . S
C915 H937 0.950 . S
C916 H912 0.949 . S
C916 C924 1.574 . S
C916 C932 1.368 . S
H917 C925 0.950 . S
H918 C923 0.950 . S
H919 C924 0.949 . S
H920 C926 0.950 . S
H921 C927 0.950 . S
H922 C928 0.949 . S
C923 H918 0.950 . S
C923 C925 1.327 . S
C923 C929 1.429 . S
C924 C916 1.574 . S
C924 H919 0.949 . S
C924 C930 1.368 . S
C925 C909 1.349 . S
C925 H917 0.950 . S
C925 C923 1.327 . S
C926 C914 1.349 . S
C926 H920 0.950 . S
C926 C927 1.327 . S
C927 H921 0.950 . S
C927 C926 1.327 . S
C927 C931 1.429 . S
C928 C911 1.574 . S
C928 H922 0.949 . S
C928 C932 1.368 . S
C929 C910 1.429 . S
C929 C923 1.429 . S
C929 C930 1.523 . S
C930 C911 1.368 . S
C930 C924 1.368 . S
C930 C929 1.523 . S
C931 C915 1.429 . S
C931 C927 1.429 . S
C931 C932 1.523 . S
C932 C916 1.368 . S
C932 C928 1.368 . S
C932 C931 1.523 . S
H933 C908 0.950 . S
H934 C910 0.950 . S
H935 C911 0.949 . S
H936 C913 0.950 . S
H937 C915 0.950 . S
C938 C939 1.349 . S
C938 C940 1.327 . S
C938 H963 0.950 . S
C939 C938 1.349 . S
C939 C955 1.349 . S
C940 C938 1.327 . S
C940 C959 1.429 . S
C940 H964 0.950 . S
C941 C958 1.574 . S
C941 C960 1.368 . S
C941 H965 0.949 . S
H942 C946 0.949 . S
C943 C944 1.349 . S
C943 C945 1.327 . S
C943 H966 0.950 . S
C944 C943 1.349 . S
C944 C956 1.349 . S
C945 C943 1.327 . S
C945 C961 1.429 . S
C945 H967 0.950 . S
C946 H942 0.949 . S
C946 C954 1.574 . S
C946 C962 1.368 . S
H947 C955 0.950 . S
H948 C953 0.950 . S
H949 C954 0.949 . S
H950 C956 0.950 . S
H951 C957 0.950 . S
H952 C958 0.949 . S
C953 H948 0.950 . S
C953 C955 1.327 . S
C953 C959 1.429 . S
C954 C946 1.574 . S
C954 H949 0.949 . S
C954 C960 1.368 . S
C955 C939 1.349 . S
C955 H947 0.950 . S
C955 C953 1.327 . S
C956 C944 1.349 . S
C956 H950 0.950 . S
C956 C957 1.327 . S
C957 H951 0.950 . S
C957 C956 1.327 . S
C957 C961 1.429 . S
C958 C941 1.574 . S
C958 H952 0.949 . S
C958 C962 1.368 . S
C959 C940 1.429 . S
C959 C953 1.429 . S
C959 C960 1.523 . S
C960 C941 1.368 . S
C960 C954 1.368 . S
C960 C959 1.523 . S
C961 C945 1.429 . S
C961 C957 1.429 . S
C961 C962 1.523 . S
C962 C946 1.368 . S
C962 C958 1.368 . S
C962 C961 1.523 . S
H963 C938 0.950 . S
H964 C940 0.950 . S
H965 C941 0.949 . S
H966 C943 0.950 . S
H967 C945 0.950 . S
C249 C76 1.735 1_545 S
C254 C97 1.813 1_545 S
C284 C137 1.826 . S
C279 C87 1.737 . S
C314 C177 1.830 . S
C309 C54 1.747 . S
C344 C217 1.820 1_455 S
C339 C65 1.739 1_455 S
C374 C106 1.819 1_565 S
C369 C32 1.741 1_545 S
C399 C43 1.742 . S
C404 C146 1.830 . S
C429 C10 1.746 . S
C434 C186 1.830 . S
C459 C21 1.740 . S
C464 C226 1.822 1_655 S
C494 C103 0.321 . S
C489 C60 0.385 . S
C524 C143 0.330 . S
C519 C71 0.392 . S
C554 C183 0.338 . S
C549 C82 0.394 . S
C579 C49 0.387 . S
C584 C223 0.324 . S
C609 C16 0.388 1_655 S
C614 C94 0.321 . S
C644 C134 0.330 . S
C639 C27 0.386 1_565 S
C674 C174 0.338 . S
C669 C38 0.401 . S
C699 C5 0.394 . S
C704 C214 0.333 . S
C729 C59 1.897 . S
C734 C107 2.080 . S
C759 C70 1.877 . S
C764 C147 2.066 . S
C794 C187 2.054 . S
C789 C81 1.865 . S
C824 C227 2.075 . S
C819 C48 1.879 . S
C849 C15 1.897 1_655 S
C854 C98 2.095 . S
C884 C138 2.066 . S
C879 C26 1.877 1_565 S
C914 C178 2.054 . S
C909 C37 1.868 . S
C939 C4 1.888 . S
C944 C218 2.081 . S
