# Generated by pormake.
# Topology anh, (6,3)-cn, num edge types: 1
# Building blocks:
#     Node 0, Type 0, BuildingBlock: INOVEN_clean_sbu_0, # of connection points: 6
#     Node 1, Type 0, BuildingBlock: INOVEN_clean_sbu_0, # of connection points: 6
#     Node 2, Type 0, BuildingBlock: INOVEN_clean_sbu_0, # of connection points: 6
#     Node 3, Type 1, BuildingBlock: KAKCAD_clean_linker_0, # of connection points: 3
#     Node 4, Type 1, BuildingBlock: KAKCAD_clean_linker_0, # of connection points: 3
#     Node 5, Type 1, BuildingBlock: KAKCAD_clean_linker_0, # of connection points: 3
#     Node 6, Type 1, BuildingBlock: KAKCAD_clean_linker_0, # of connection points: 3
#     Node 7, Type 1, BuildingBlock: KAKCAD_clean_linker_0, # of connection points: 3
#     Node 8, Type 1, BuildingBlock: KAKCAD_clean_linker_0, # of connection points: 3
#     Edge 9, Type (0, 1), BuildingBlock: TEMPAE_clean_linker_10, # of connection points: 2
#     Edge 10, Type (0, 1), BuildingBlock: TEMPAE_clean_linker_10, # of connection points: 2
#     Edge 11, Type (0, 1), BuildingBlock: TEMPAE_clean_linker_10, # of connection points: 2
#     Edge 12, Type (0, 1), BuildingBlock: TEMPAE_clean_linker_10, # of connection points: 2
#     Edge 13, Type (0, 1), BuildingBlock: TEMPAE_clean_linker_10, # of connection points: 2
#     Edge 14, Type (0, 1), BuildingBlock: TEMPAE_clean_linker_10, # of connection points: 2
#     Edge 15, Type (0, 1), BuildingBlock: TEMPAE_clean_linker_10, # of connection points: 2
#     Edge 16, Type (0, 1), BuildingBlock: TEMPAE_clean_linker_10, # of connection points: 2
#     Edge 17, Type (0, 1), BuildingBlock: TEMPAE_clean_linker_10, # of connection points: 2
#     Edge 18, Type (0, 1), BuildingBlock: TEMPAE_clean_linker_10, # of connection points: 2
#     Edge 19, Type (0, 1), BuildingBlock: TEMPAE_clean_linker_10, # of connection points: 2
#     Edge 20, Type (0, 1), BuildingBlock: TEMPAE_clean_linker_10, # of connection points: 2
#     Edge 21, Type (0, 1), BuildingBlock: TEMPAE_clean_linker_10, # of connection points: 2
#     Edge 22, Type (0, 1), BuildingBlock: TEMPAE_clean_linker_10, # of connection points: 2
#     Edge 23, Type (0, 1), BuildingBlock: TEMPAE_clean_linker_10, # of connection points: 2
#     Edge 24, Type (0, 1), BuildingBlock: TEMPAE_clean_linker_10, # of connection points: 2
#     Edge 25, Type (0, 1), BuildingBlock: TEMPAE_clean_linker_10, # of connection points: 2
#     Edge 26, Type (0, 1), BuildingBlock: TEMPAE_clean_linker_10, # of connection points: 2
# Relax obj value: 0.177
# Max RMSD: 0.212
# Mean RMSD: 0.157
data_MOF--net-anh--node1-INOVEN_clean_sbu_0--node2-KAKCAD_clean_linker_0--edge1-TEMPAE_clean_linker_10
_symmetry_space_group_name_H-M    P1
_symmetry_Int_Tables_number       1
_symmetry_cell_setting            triclinic
loop_
_symmetry_equiv_pos_as_xyz
'x, y, z'
_cell_length_a     38.847123
_cell_length_b     44.403124
_cell_length_c     67.230406
_cell_angle_alpha  93.07371
_cell_angle_beta   89.483336
_cell_angle_gamma 128.62718
loop_
_atom_site_label
_atom_site_type_symbol
_atom_site_fract_x
_atom_site_fract_y
_atom_site_fract_z
_atom_type_partial_charge
Gd0 Gd 0.08525 0.49911 0.15622 0.0
Gd1 Gd 0.04224 0.53381 0.15885 0.0
C2 C 0.1459 0.59378 0.15871 0.0
C3 C 0.13715 0.48286 0.15207 0.0
C4 C 0.18401 0.50864 0.15748 0.0
C5 C 0.19876 0.50076 0.17381 0.0
C6 C 0.21367 0.54294 0.14776 0.0
C7 C 0.27363 0.5556 0.16733 0.0
C8 C 0.25837 0.56653 0.15279 0.0
C9 C 0.24332 0.52452 0.17895 0.0
C10 C 0.06127 0.50364 0.19333 0.0
C11 C 0.98259 0.44038 0.15297 0.0
C12 C 1.00042 0.55396 0.17634 0.0
C13 C 0.95325 0.52896 0.17966 0.0
C14 C 0.92319 0.51134 0.16339 0.0
C15 C 0.93837 0.5169 0.19891 0.0
C16 C 0.86363 0.47086 0.1857 0.0
C17 C 0.89392 0.48771 0.20188 0.0
C18 C 0.87879 0.48268 0.1664 0.0
C19 C 0.04725 0.52283 0.11888 0.0
O20 O 0.14502 0.56341 0.15697 0.0
O21 O 0.1096 0.58982 0.1599 0.0
O22 O 0.11159 0.47238 0.16724 0.0
O23 O 0.1249 0.49202 0.13699 0.0
O24 O 0.05229 0.4725 0.18497 0.0
O25 O 0.08061 0.53024 0.18127 0.0
O26 O 0.98446 0.4697 0.16018 0.0
O27 O 1.01817 0.44572 0.14687 0.0
O28 O 1.01272 0.56198 0.15789 0.0
O29 O 1.02087 0.54432 0.18601 0.0
O30 O 1.02989 0.5377 0.12671 0.0
O31 O 0.06124 0.51409 0.1326 0.0
H32 H 0.17609 0.4753 0.18205 0.0
H33 H 0.20281 0.55066 0.13567 0.0
H34 H 0.28138 0.59043 0.14369 0.0
H35 H 0.25436 0.51548 0.19024 0.0
H36 H 0.93382 0.51938 0.1483 0.0
H37 H 0.96133 0.52949 0.21159 0.0
H38 H 0.88295 0.47927 0.21689 0.0
H39 H 0.85621 0.47119 0.15364 0.0
Gd40 Gd 0.57196 0.00421 0.48199 0.0
Gd41 Gd 0.51827 0.02885 0.47845 0.0
C42 C 0.46454 0.93894 0.47746 0.0
C43 C 0.60393 0.97057 0.49185 0.0
C44 C 0.58837 0.93054 0.49142 0.0
C45 C 0.5943 0.91423 0.47455 0.0
C46 C 0.56943 0.90893 0.50831 0.0
C47 C 0.56633 0.857 0.49214 0.0
C48 C 0.55833 0.87245 0.50862 0.0
C49 C 0.58324 0.8777 0.47489 0.0
C50 C 0.56166 0.01474 0.44404 0.0
C51 C 0.62575 0.09447 0.48198 0.0
C52 C 0.48637 0.06306 0.46967 0.0
C53 C 0.5008 0.10253 0.47323 0.0
C54 C 0.47789 0.10899 0.48665 0.0
C55 C 0.53732 0.13393 0.46364 0.0
C56 C 0.52738 0.17739 0.48087 0.0
C57 C 0.55039 0.17106 0.46739 0.0
C58 C 0.49114 0.14606 0.4905 0.0
C59 C 0.52903 0.01738 0.51622 0.0
O60 O 0.50209 0.9477 0.48391 0.0
O61 O 0.46346 0.96602 0.47126 0.0
O62 O 0.61051 0.98551 0.47466 0.0
O63 O 0.58565 0.97973 0.50456 0.0
O64 O 0.5977 0.02358 0.45155 0.0
O65 O 0.53155 0.99884 0.45662 0.0
O66 O 0.58749 0.08561 0.47689 0.0
O67 O 0.62816 0.06758 0.48714 0.0
O68 O 0.47523 0.04305 0.4854 0.0
O69 O 0.50922 0.05855 0.4573 0.0
O70 O 0.49227 0.0071 0.50875 0.0
O71 O 0.55897 0.03454 0.50365 0.0
H72 H 0.60876 0.93013 0.46128 0.0
H73 H 0.56425 0.92057 0.52151 0.0
H74 H 0.54462 0.85676 0.522 0.0
H75 H 0.58992 0.86652 0.46201 0.0
H76 H 0.44963 0.08531 0.49419 0.0
H77 H 0.55587 0.12995 0.45327 0.0
H78 H 0.57864 0.19485 0.45989 0.0
H79 H 0.47251 0.15011 0.50079 0.0
Gd80 Gd 0.62907 0.58525 0.83363 0.0
Gd81 Gd 0.56768 0.50033 0.83194 0.0
C82 C 0.519 0.53978 0.83701 0.0
C83 C 0.66539 0.655 0.82526 0.0
C84 C 0.64847 0.67669 0.82367 0.0
C85 C 0.6675 0.71072 0.83568 0.0
C86 C 0.61275 0.66334 0.81068 0.0
C87 C 0.61699 0.71886 0.82105 0.0
C88 C 0.5973 0.68433 0.80934 0.0
C89 C 0.65183 0.73158 0.83444 0.0
C90 C 0.61253 0.55572 0.86885 0.0
C91 C 0.67798 0.54614 0.83521 0.0
C92 C 0.52846 0.42831 0.83693 0.0
C93 C 0.53807 0.40111 0.83308 0.0
C94 C 0.52648 0.38025 0.81458 0.0
C95 C 0.55756 0.39475 0.84808 0.0
C96 C 0.55227 0.34635 0.82632 0.0
C97 C 0.56474 0.36774 0.8447 0.0
C98 C 0.53366 0.3533 0.81121 0.0
C99 C 0.58402 0.53056 0.79622 0.0
O100 O 0.56004 0.57257 0.83462 0.0
O101 O 0.51364 0.50707 0.83791 0.0
O102 O 0.66696 0.64578 0.8432 0.0
O103 O 0.65127 0.62711 0.81159 0.0
O104 O 0.65124 0.58669 0.86454 0.0
O105 O 0.58445 0.54378 0.85502 0.0
O106 O 0.63631 0.51319 0.83526 0.0
O107 O 0.68428 0.5791 0.83337 0.0
O108 O 0.52131 0.44034 0.82135 0.0
O109 O 0.55217 0.45569 0.85096 0.0
O110 O 0.54553 0.50087 0.80137 0.0
O111 O 0.61265 0.54186 0.80977 0.0
H112 H 0.69476 0.72132 0.84594 0.0
H113 H 0.59682 0.6368 0.80146 0.0
H114 H 0.57003 0.67365 0.79907 0.0
H115 H 0.66781 0.75826 0.84353 0.0
H116 H 0.51141 0.38438 0.80269 0.0
H117 H 0.56666 0.41022 0.86254 0.0
H118 H 0.57888 0.36281 0.85666 0.0
H119 H 0.5244 0.33774 0.79678 0.0
C120 C 0.5596 0.0569 0.28548 0.0
C121 C 0.55007 0.02537 0.2953 0.0
C122 C 0.56263 0.05766 0.26472 0.0
C123 C 0.55617 0.02689 0.25335 0.0
C124 C 0.54742 0.99575 0.26322 0.0
C125 C 0.5444 0.99499 0.28391 0.0
C126 C 0.55774 0.02665 0.23122 0.0
C127 C 0.59038 0.05982 0.2216 0.0
C128 C 0.59213 0.05994 0.20059 0.0
C129 C 0.56175 0.02436 0.18924 0.0
C130 C 0.52962 0.99015 0.19896 0.0
C131 C 0.527 0.99258 0.21977 0.0
C132 C 0.49897 0.95067 0.18864 0.0
C133 C 0.47261 0.94246 0.1718 0.0
C134 C 0.49153 0.91948 0.19784 0.0
C135 C 0.45619 0.88142 0.19195 0.0
C136 C 0.42774 0.8723 0.17571 0.0
C137 C 0.62674 0.0977 0.19147 0.0
C138 C 0.64043 0.1325 0.20132 0.0
C139 C 0.64886 0.10025 0.17416 0.0
C140 C 0.68484 0.13651 0.16761 0.0
C141 C 0.70082 0.17153 0.17847 0.0
C142 C 0.67716 0.16828 0.19541 0.0
C143 C 0.43784 0.90381 0.16526 0.0
H144 H 0.56391 0.08067 0.29381 0.0
H145 H 0.56912 0.08193 0.25753 0.0
H146 H 0.54323 0.97198 0.25495 0.0
H147 H 0.53813 0.97073 0.291 0.0
H148 H 0.61521 0.08556 0.23072 0.0
H149 H 0.50089 0.96723 0.22726 0.0
H150 H 0.56324 0.02314 0.17316 0.0
H151 H 0.47753 0.96575 0.16424 0.0
H152 H 0.51171 0.92454 0.21062 0.0
H153 H 0.45084 0.85975 0.20112 0.0
H154 H 0.62347 0.13237 0.21422 0.0
H155 H 0.63933 0.0743 0.16596 0.0
H156 H 0.41856 0.89918 0.15227 0.0
H157 H 0.68699 0.19298 0.20488 0.0
H158 H 0.70006 0.13645 0.15412 0.0
C159 C 0.55107 0.54198 0.63875 0.0
C160 C 0.58583 0.54588 0.64819 0.0
C161 C 0.54753 0.53959 0.61796 0.0
C162 C 0.57818 0.54023 0.60631 0.0
C163 C 0.61288 0.54401 0.61581 0.0
C164 C 0.61692 0.54721 0.63661 0.0
C165 C 0.57353 0.53639 0.5843 0.0
C166 C 0.56859 0.56028 0.57412 0.0
C167 C 0.56306 0.55624 0.55324 0.0
C168 C 0.56268 0.5279 0.54266 0.0
C169 C 0.56813 0.50408 0.5526 0.0
C170 C 0.57351 0.50851 0.57347 0.0
C171 C 0.56812 0.47458 0.54116 0.0
C172 C 0.53892 0.45305 0.5247 0.0
C173 C 0.5974 0.46775 0.54663 0.0
C174 C 0.59682 0.43943 0.53621 0.0
C175 C 0.5673 0.41758 0.51992 0.0
C176 C 0.55771 0.58153 0.54246 0.0
C177 C 0.53506 0.59388 0.55112 0.0
C178 C 0.57527 0.59367 0.52348 0.0
C179 C 0.57039 0.61762 0.51349 0.0
C180 C 0.54876 0.63077 0.52243 0.0
C181 C 0.53118 0.61857 0.54137 0.0
C182 C 0.53868 0.425 0.51413 0.0
H183 H 0.52674 0.54085 0.64748 0.0
H184 H 0.52036 0.53647 0.61095 0.0
H185 H 0.63698 0.54471 0.60713 0.0
H186 H 0.64382 0.55001 0.64368 0.0
H187 H 0.57003 0.58255 0.58255 0.0
H188 H 0.57649 0.48958 0.58139 0.0
H189 H 0.55818 0.52432 0.5266 0.0
H190 H 0.51561 0.45731 0.52019 0.0
H191 H 0.6208 0.48424 0.55901 0.0
H192 H 0.61882 0.43406 0.54128 0.0
H193 H 0.5203 0.5846 0.56551 0.0
H194 H 0.59352 0.5853 0.5164 0.0
H195 H 0.51582 0.40891 0.50154 0.0
H196 H 0.51513 0.62869 0.54899 0.0
H197 H 0.58391 0.62601 0.49883 0.0
C198 C 0.12437 0.54846 0.9585 0.0
C199 C 0.0833 0.52638 0.9678 0.0
C200 C 0.12702 0.55114 0.93769 0.0
C201 C 0.08871 0.53184 0.92537 0.0
C202 C 0.04767 0.50966 0.93463 0.0
C203 C 0.04502 0.50701 0.95543 0.0
C204 C 0.09149 0.53483 0.90302 0.0
C205 C 0.12265 0.53443 0.89254 0.0
C206 C 0.1288 0.53905 0.8718 0.0
C207 C 0.09644 0.54015 0.86108 0.0
C208 C 0.0616 0.53859 0.8715 0.0
C209 C 0.06281 0.53792 0.89251 0.0
C210 C 1.02212 0.53685 0.86297 0.0
C211 C 1.02457 0.55946 0.84786 0.0
C212 C 0.98073 0.51488 0.87262 0.0
C213 C 0.94617 0.51703 0.86871 0.0
C214 C 0.9488 0.54046 0.85426 0.0
C215 C 0.16997 0.54254 0.86386 0.0
C216 C 0.20845 0.5605 0.8765 0.0
C217 C 0.17139 0.52501 0.84578 0.0
C218 C 0.20771 0.52446 0.84131 0.0
C219 C 0.24459 0.54072 0.85474 0.0
C220 C 0.24357 0.55896 0.87235 0.0
C221 C 0.98898 0.5609 0.84354 0.0
H222 H 0.15472 0.56353 0.96728 0.0
H223 H 0.1593 0.56883 0.93127 0.0
H224 H 1.01732 0.49395 0.92577 0.0
H225 H 1.01271 0.49011 0.96181 0.0
H226 H 0.14251 0.52993 0.901 0.0
H227 H 0.04074 0.54006 0.9012 0.0
H228 H 0.09827 0.54211 0.84508 0.0
H229 H 0.05466 0.57724 0.83972 0.0
H230 H 0.97483 0.49582 0.88393 0.0
H231 H 0.91663 0.49955 0.87722 0.0
H232 H 0.2115 0.57575 0.89033 0.0
H233 H 0.14376 0.51054 0.83524 0.0
H234 H 0.9938 0.57932 0.83208 0.0
H235 H 0.27053 0.57249 0.88321 0.0
H236 H 0.20619 0.51018 0.82739 0.0
C237 C 1.00408 0.49832 0.35369 0.0
C238 C 0.04315 0.51169 0.34395 0.0
C239 C 1.0025 0.49809 0.37455 0.0
C240 C 0.04007 0.5116 0.38618 0.0
C241 C 0.07905 0.52489 0.37644 0.0
C242 C 0.08054 0.52483 0.35563 0.0
C243 C 0.03903 0.51248 0.4084 0.0
C244 C 1.00377 0.48088 0.41825 0.0
C245 C 1.00293 0.48117 0.43926 0.0
C246 C 0.03865 0.51428 0.4505 0.0
C247 C 0.07443 0.54634 0.44073 0.0
C248 C 0.0739 0.54495 0.41978 0.0
C249 C 0.11349 0.58193 0.45155 0.0
C250 C 0.10931 0.6052 0.46468 0.0
C251 C 0.15595 0.59617 0.44592 0.0
C252 C 0.19293 0.6337 0.45189 0.0
C253 C 0.18868 0.65823 0.46372 0.0
C254 C 0.9647 0.44592 0.44873 0.0
C255 C 0.9217 0.42674 0.44096 0.0
C256 C 0.97078 0.42864 0.4638 0.0
C257 C 0.93514 0.39191 0.46991 0.0
C258 C 0.8927 0.3717 0.46106 0.0
C259 C 0.88636 0.39027 0.44699 0.0
C260 C 0.14665 0.64305 0.47075 0.0
H261 H 0.97455 0.48766 0.34518 0.0
H262 H 0.97204 0.48789 0.38159 0.0
H263 H 0.10847 0.53515 0.38494 0.0
H264 H 0.11127 0.5356 0.34868 0.0
H265 H 0.97738 0.45533 0.40945 0.0
H266 H 0.1008 0.56977 0.41224 0.0
H267 H 0.03874 0.51504 0.46664 0.0
H268 H 0.077 0.59512 0.46916 0.0
H269 H 0.16029 0.57885 0.43595 0.0
H270 H 0.22485 0.64406 0.44659 0.0
H271 H 0.91555 0.43948 0.42965 0.0
H272 H 1.00343 0.44252 0.47009 0.0
H273 H 0.14225 0.66114 0.47994 0.0
H274 H 0.85402 0.3762 0.44026 0.0
H275 H 0.94126 0.37858 0.48084 0.0
C276 C 0.53125 0.97348 0.67414 0.0
C277 C 0.55729 0.00823 0.66443 0.0
C278 C 0.53194 0.97385 0.69499 0.0
C279 C 0.55891 0.00898 0.70658 0.0
C280 C 0.58588 0.04358 0.69677 0.0
C281 C 0.58491 0.04321 0.676 0.0
C282 C 0.55826 0.00986 0.72878 0.0
C283 C 0.55508 0.98166 0.73925 0.0
C284 C 0.55488 0.98285 0.76025 0.0
C285 C 0.55765 0.01256 0.77075 0.0
C286 C 0.56162 0.04118 0.76053 0.0
C287 C 0.56148 0.03949 0.73965 0.0
C288 C 0.56711 0.0737 0.7715 0.0
C289 C 0.53594 0.06709 0.78521 0.0
C290 C 0.60285 0.11172 0.76753 0.0
C291 C 0.60659 0.14269 0.77655 0.0
C292 C 0.57412 0.13628 0.78942 0.0
C293 C 0.55406 0.95422 0.77116 0.0
C294 C 0.52731 0.91521 0.76419 0.0
C295 C 0.58152 0.96606 0.78817 0.0
C296 C 0.58331 0.93976 0.79755 0.0
C297 C 0.55781 0.90109 0.79011 0.0
C298 C 0.52919 0.88893 0.77355 0.0
C299 C 0.53918 0.0981 0.79397 0.0
H300 H 0.50936 0.94607 0.66564 0.0
H301 H 0.51043 0.94667 0.70201 0.0
H302 H 0.60791 0.07112 0.70513 0.0
H303 H 0.60596 0.07043 0.66896 0.0
H304 H 0.55438 0.95957 0.73109 0.0
H305 H 0.5633 0.0612 0.73189 0.0
H306 H 0.55752 0.01389 0.7869 0.0
H307 H 0.5081 0.03789 0.78847 0.0
H308 H 0.62768 0.11744 0.75724 0.0
H309 H 0.63463 0.17166 0.77313 0.0
H310 H 0.50536 0.90508 0.7513 0.0
H311 H 0.60283 0.99596 0.79384 0.0
H312 H 0.51333 0.09195 0.80366 0.0
H313 H 0.50944 0.8594 0.76734 0.0
H314 H 0.60536 0.94987 0.81041 0.0
C315 C 0.50668 0.42529 0.01063 0.0
C316 C 0.53331 0.46295 0.00417 0.0
C317 C 0.50086 0.41951 0.03091 0.0
C318 C 0.5222 0.45139 0.04468 0.0
C319 C 0.54843 0.48899 0.03822 0.0
C320 C 0.55388 0.49475 0.01803 0.0
C321 C 0.51919 0.44597 0.06592 0.0
C322 C 0.55788 0.46321 0.07719 0.0
C323 C 0.55635 0.46095 0.0978 0.0
C324 C 0.516 0.44258 0.1071 0.0
C325 C 0.47722 0.42688 0.09598 0.0
C326 C 0.47872 0.4269 0.07514 0.0
C327 C 0.44003 0.42106 0.10639 0.0
C328 C 0.43191 0.40998 0.12622 0.0
C329 C 0.42322 0.43874 0.09903 0.0
C330 C 0.40688 0.45193 0.11211 0.0
C331 C 0.40703 0.44739 0.13254 0.0
C332 C 0.59618 0.47567 0.10957 0.0
C333 C 0.62418 0.46798 0.10243 0.0
C334 C 0.60289 0.49212 0.12903 0.0
C335 C 0.63333 0.496 0.14194 0.0
C336 C 0.65815 0.48479 0.13517 0.0
C337 C 0.65525 0.47276 0.11518 0.0
C338 C 0.41619 0.42387 0.13943 0.0
H339 H 0.49059 0.40053 3e-05 0.0
H340 H 0.48075 0.39039 0.03587 0.0
H341 H 0.56503 0.51382 0.04882 0.0
H342 H 0.57492 0.52403 0.01325 0.0
H343 H 0.58919 0.4785 0.06986 0.0
H344 H 0.44924 0.4151 0.06622 0.0
H345 H 0.51535 0.44222 0.12318 0.0
H346 H 0.44306 0.39504 0.13209 0.0
H347 H 0.42823 0.44741 0.08386 0.0
H348 H 0.39852 0.46921 0.10658 0.0
H349 H 0.61965 0.45511 0.08756 0.0
H350 H 0.58261 0.49948 0.13465 0.0
H351 H 0.41533 0.41945 0.15517 0.0
H352 H 0.67419 0.46375 0.10989 0.0
H353 H 0.63571 0.50555 0.1574 0.0
C354 C 0.34193 0.57058 0.18117 0.0
C355 C 0.3157 0.56327 0.16458 0.0
C356 C 0.36843 0.55926 0.1804 0.0
C357 C 0.367 0.5394 0.1629 0.0
C358 C 0.34393 0.53555 0.14552 0.0
C359 C 0.31971 0.54883 0.14645 0.0
C360 C 0.39439 0.56516 0.1988 0.0
C361 C 0.34046 0.51347 0.12662 0.0
C362 C 0.43477 0.51218 0.14501 0.0
C363 C 0.4041 0.4721 0.14634 0.0
C364 C 0.42609 0.53619 0.15326 0.0
C365 C 0.38578 0.51923 0.16274 0.0
C366 C 0.35779 0.47942 0.1665 0.0
C367 C 0.36749 0.45608 0.15816 0.0
C368 C 0.45647 0.57847 0.14904 0.0
C369 C 0.31426 0.46029 0.17647 0.0
H370 H 0.33834 0.58153 0.19518 0.0
H371 H 0.29884 0.54269 0.13369 0.0
H372 H 0.37694 0.53749 0.20611 0.0
H373 H 0.42741 0.57447 0.19482 0.0
H374 H 0.39849 0.58698 0.20969 0.0
H375 H 0.32136 0.51361 0.11448 0.0
H376 H 0.37369 0.52596 0.12116 0.0
H377 H 0.32392 0.48295 0.1297 0.0
H378 H 0.46352 0.52428 0.136 0.0
H379 H 0.34431 0.42501 0.15917 0.0
H380 H 0.45792 0.59639 0.16169 0.0
H381 H 0.44376 0.58282 0.13569 0.0
H382 H 0.49035 0.58884 0.14602 0.0
H383 H 0.31724 0.47882 0.18918 0.0
H384 H 0.30145 0.43188 0.18192 0.0
H385 H 0.28972 0.45542 0.16555 0.0
C386 C 0.70806 0.1445 0.47954 0.0
C387 C 0.6665 0.13538 0.48137 0.0
C388 C 0.74624 0.18279 0.47726 0.0
C389 C 0.74308 0.21295 0.47721 0.0
C390 C 0.70137 0.204 0.47975 0.0
C391 C 0.66367 0.16541 0.48159 0.0
C392 C 0.78975 0.19077 0.47423 0.0
C393 C 0.69635 0.2351 0.48008 0.0
C394 C 0.84704 0.31856 0.48503 0.0
C395 C 0.85544 0.33077 0.46549 0.0
C396 C 0.81092 0.28031 0.4891 0.0
C397 C 0.78269 0.25338 0.47326 0.0
C398 C 0.79164 0.26536 0.45349 0.0
C399 C 0.82766 0.3037 0.44988 0.0
C400 C 0.80242 0.26887 0.51039 0.0
C401 C 0.76289 0.23772 0.43608 0.0
H402 H 0.71057 0.1215 0.4792 0.0
H403 H 0.63179 0.15876 0.48311 0.0
H404 H 0.80227 0.20238 0.45939 0.0
H405 H 0.8146 0.21303 0.48556 0.0
H406 H 0.787 0.16444 0.47519 0.0
H407 H 0.66222 0.22382 0.48337 0.0
H408 H 0.71935 0.25851 0.49145 0.0
H409 H 0.70503 0.24816 0.46543 0.0
H410 H 0.86809 0.33918 0.49721 0.0
H411 H 0.83427 0.31246 0.43468 0.0
H412 H 0.80159 0.24368 0.51194 0.0
H413 H 0.76969 0.25994 0.51463 0.0
H414 H 0.82789 0.29278 0.521 0.0
H415 H 0.76134 0.21189 0.43587 0.0
H416 H 0.77511 0.25112 0.42156 0.0
H417 H 0.72875 0.22759 0.43769 0.0
C418 C 0.59791 0.75039 0.79919 0.0
C419 C 0.60314 0.74282 0.81842 0.0
C420 C 0.58813 0.77532 0.79628 0.0
C421 C 0.5832 0.79291 0.81302 0.0
C422 C 0.58716 0.78455 0.83249 0.0
C423 C 0.59727 0.75964 0.83497 0.0
C424 C 0.58444 0.78376 0.77527 0.0
C425 C 0.58152 0.80246 0.85066 0.0
C426 C 0.60616 0.8867 0.80267 0.0
C427 C 0.56361 0.87425 0.79849 0.0
C428 C 0.61284 0.8608 0.80839 0.0
C429 C 0.57607 0.82149 0.80995 0.0
C430 C 0.53291 0.80907 0.80671 0.0
C431 C 0.52718 0.83563 0.80096 0.0
C432 C 0.65941 0.8751 0.81168 0.0
C433 C 0.49294 0.76741 0.80844 0.0
H434 H 0.60297 0.7378 0.78638 0.0
H435 H 0.60082 0.75344 0.84985 0.0
H436 H 0.552 0.7769 0.77268 0.0
H437 H 0.6102 0.81499 0.7731 0.0
H438 H 0.58819 0.76699 0.76388 0.0
H439 H 0.58433 0.79203 0.86474 0.0
H440 H 0.60687 0.83435 0.85112 0.0
H441 H 0.54885 0.79576 0.84985 0.0
H442 H 0.63448 0.9164 0.80056 0.0
H443 H 0.49421 0.82601 0.79801 0.0
H444 H 0.66717 0.86191 0.79986 0.0
H445 H 0.66282 0.86625 0.82618 0.0
H446 H 0.6841 0.90702 0.81143 0.0
H447 H 0.49209 0.74929 0.79611 0.0
H448 H 0.4617 0.76334 0.80774 0.0
H449 H 0.49473 0.7567 0.82262 0.0
C450 C 0.78597 0.42092 0.17443 0.0
C451 C 0.81637 0.44877 0.18908 0.0
C452 C 0.74897 0.41783 0.16958 0.0
C453 C 0.74249 0.44211 0.18031 0.0
C454 C 0.76725 0.46298 0.19801 0.0
C455 C 0.80413 0.46576 0.20238 0.0
C456 C 0.7224 0.39459 0.1508 0.0
C457 C 0.76067 0.48876 0.20992 0.0
C458 C 0.72581 0.49745 0.14699 0.0
C459 C 0.68114 0.4788 0.14925 0.0
C460 C 0.74637 0.48605 0.15738 0.0
C461 C 0.72102 0.45499 0.17009 0.0
C462 C 0.67608 0.43687 0.17286 0.0
C463 C 0.65649 0.44917 0.16234 0.0
C464 C 0.79472 0.50632 0.15411 0.0
C465 C 0.64828 0.4033 0.18597 0.0
H466 H 0.79489 0.40668 0.16465 0.0
H467 H 0.82704 0.48662 0.21409 0.0
H468 H 0.68726 0.38167 0.15235 0.0
H469 H 0.73535 0.41392 0.13824 0.0
H470 H 0.72468 0.37127 0.1469 0.0
H471 H 0.7756 0.4962 0.22518 0.0
H472 H 0.77677 0.51604 0.20232 0.0
H473 H 0.72517 0.4749 0.21099 0.0
H474 H 0.74408 0.51989 0.1365 0.0
H475 H 0.62143 0.43424 0.16346 0.0
H476 H 0.79886 0.4856 0.14711 0.0
H477 H 0.81346 0.51761 0.16856 0.0
H478 H 0.80954 0.5308 0.14431 0.0
H479 H 0.64127 0.37715 0.17832 0.0
H480 H 0.61636 0.39702 0.18924 0.0
H481 H 0.666 0.40887 0.20025 0.0
C482 C 0.4244 0.86791 0.48065 0.0
C483 C 0.42316 0.89811 0.47707 0.0
C484 C 0.38562 0.82919 0.47988 0.0
C485 C 0.34436 0.82025 0.4756 0.0
C486 C 0.34279 0.85072 0.47254 0.0
C487 C 0.3821 0.88913 0.47321 0.0
C488 C 0.38896 0.79772 0.48318 0.0
C489 C 0.29959 0.84269 0.46821 0.0
C490 C 0.25434 0.72062 0.45109 0.0
C491 C 0.22756 0.70009 0.4671 0.0
C492 C 0.2919 0.7596 0.45367 0.0
C493 C 0.30345 0.77897 0.4728 0.0
C494 C 0.27619 0.75871 0.48903 0.0
C495 C 0.23847 0.71957 0.48598 0.0
C496 C 0.31949 0.77998 0.43587 0.0
C497 C 0.28733 0.77816 0.50968 0.0
H498 H 0.45583 0.87442 0.48374 0.0
H499 H 0.38057 0.91217 0.47066 0.0
H500 H 0.36703 0.77977 0.49527 0.0
H501 H 0.37774 0.77842 0.46947 0.0
H502 H 0.42315 0.80944 0.48715 0.0
H503 H 0.30361 0.86963 0.46724 0.0
H504 H 0.28478 0.8252 0.45391 0.0
H505 H 0.27596 0.82561 0.48002 0.0
H506 H 0.24573 0.70612 0.43636 0.0
H507 H 0.21809 0.70398 0.49844 0.0
H508 H 0.35345 0.79005 0.43852 0.0
H509 H 0.32201 0.80588 0.4337 0.0
H510 H 0.30563 0.76108 0.42193 0.0
H511 H 0.31813 0.78463 0.51544 0.0
H512 H 0.26074 0.75985 0.52026 0.0
H513 H 0.29337 0.80606 0.50928 0.0
C514 C 0.52293 0.28022 0.81345 0.0
C515 C 0.55715 0.31589 0.823 0.0
C516 C 0.52718 0.2514 0.80956 0.0
C517 C 0.56661 0.25838 0.81538 0.0
C518 C 0.60095 0.29396 0.82546 0.0
C519 C 0.59579 0.32236 0.82917 0.0
C520 C 0.48974 0.21374 0.79884 0.0
C521 C 0.64358 0.30247 0.83175 0.0
C522 C 0.56087 0.16988 0.81603 0.0
C523 C 0.57529 0.16908 0.79693 0.0
C524 C 0.55903 0.19943 0.82253 0.0
C525 C 0.57258 0.22914 0.80975 0.0
C526 C 0.58867 0.2293 0.79078 0.0
C527 C 0.5893 0.19908 0.78451 0.0
C528 C 0.54125 0.19818 0.8428 0.0
C529 C 0.60371 0.26064 0.77675 0.0
H530 H 0.49266 0.27479 0.809 0.0
H531 H 0.62245 0.35 0.83644 0.0
H532 H 0.50074 0.21021 0.78424 0.0
H533 H 0.47974 0.18909 0.80761 0.0
H534 H 0.46046 0.21218 0.7962 0.0
H535 H 0.66557 0.33023 0.84082 0.0
H536 H 0.63684 0.27892 0.84051 0.0
H537 H 0.66129 0.3039 0.81833 0.0
H538 H 0.5506 0.14722 0.82586 0.0
H539 H 0.59956 0.19843 0.76957 0.0
H540 H 0.51021 0.19416 0.84104 0.0
H541 H 0.56499 0.22595 0.85156 0.0
H542 H 0.53442 0.17438 0.85139 0.0
H543 H 0.57511 0.25863 0.77183 0.0
H544 H 0.61915 0.25853 0.76333 0.0
H545 H 0.62782 0.28954 0.78449 0.0
C546 C 0.5414 0.79241 0.47818 0.0
C547 C 0.56101 0.82123 0.49375 0.0
C548 C 0.53728 0.75888 0.47977 0.0
C549 C 0.55319 0.7544 0.4973 0.0
C550 C 0.57346 0.78366 0.51291 0.0
C551 C 0.57721 0.81673 0.51091 0.0
C552 C 0.51583 0.72826 0.46281 0.0
C553 C 0.59112 0.78005 0.53181 0.0
C554 C 0.51007 0.65796 0.51544 0.0
C555 C 0.54654 0.65883 0.51271 0.0
C556 C 0.5107 0.68798 0.50944 0.0
C557 C 0.54806 0.71891 0.49984 0.0
C558 C 0.5832 0.71823 0.49535 0.0
C559 C 0.58234 0.68845 0.50209 0.0
C560 C 0.47286 0.68802 0.51475 0.0
C561 C 0.62311 0.75034 0.48468 0.0
H562 H 0.52892 0.79592 0.46489 0.0
H563 H 0.59341 0.83942 0.52274 0.0
H564 H 0.53849 0.72239 0.45775 0.0
H565 H 0.48573 0.70085 0.46797 0.0
H566 H 0.5066 0.73679 0.44992 0.0
H567 H 0.60572 0.80542 0.54255 0.0
H568 H 0.56424 0.75373 0.53919 0.0
H569 H 0.61677 0.77699 0.52822 0.0
H570 H 0.48161 0.63454 0.52301 0.0
H571 H 0.61083 0.68966 0.49993 0.0
H572 H 0.46141 0.69399 0.50159 0.0
H573 H 0.48419 0.71137 0.5264 0.0
H574 H 0.44451 0.66016 0.52047 0.0
H575 H 0.61292 0.75728 0.47145 0.0
H576 H 0.64439 0.74277 0.4798 0.0
H577 H 0.64299 0.77684 0.49478 0.0
C578 C 0.71341 0.51134 0.83659 0.0
C579 C 0.71828 0.54589 0.83751 0.0
C580 C 0.74995 0.51063 0.83874 0.0
C581 C 0.79443 0.54522 0.84245 0.0
C582 C 0.79945 0.58016 0.84365 0.0
C583 C 0.76244 0.5801 0.84102 0.0
C584 C 0.7406 0.47216 0.83695 0.0
C585 C 0.8445 0.61828 0.84794 0.0
C586 C 0.88272 0.53851 0.86675 0.0
C587 C 0.91008 0.54291 0.85099 0.0
C588 C 0.84666 0.53973 0.86429 0.0
C589 C 0.83479 0.54478 0.84537 0.0
C590 C 0.86215 0.54931 0.82937 0.0
C591 C 0.89873 0.54876 0.83232 0.0
C592 C 0.82109 0.53573 0.88233 0.0
C593 C 0.85215 0.55402 0.8087 0.0
H594 H 0.6805 0.48424 0.834 0.0
H595 H 0.7683 0.60741 0.84202 0.0
H596 H 0.76256 0.47291 0.82595 0.0
H597 H 0.74762 0.46605 0.8515 0.0
H598 H 0.70578 0.44813 0.83234 0.0
H599 H 0.84332 0.64257 0.85036 0.0
H600 H 0.85991 0.617 0.86135 0.0
H601 H 0.86607 0.62441 0.83526 0.0
H602 H 0.88987 0.53461 0.88148 0.0
H603 H 0.91794 0.55204 0.81963 0.0
H604 H 0.78668 0.50859 0.88053 0.0
H605 H 0.81967 0.55996 0.88381 0.0
H606 H 0.83578 0.5353 0.89631 0.0
H607 H 0.81848 0.52815 0.80375 0.0
H608 H 0.87603 0.55799 0.79773 0.0
H609 H 0.8526 0.57925 0.80877 0.0
C610 C 0.2229 0.6454 0.14775 0.0
C611 C 0.1882 0.63368 0.16038 0.0
C612 C 0.26139 0.68432 0.14829 0.0
C613 C 0.26608 0.71175 0.16241 0.0
C614 C 0.23131 0.69963 0.17548 0.0
C615 C 0.19258 0.66102 0.17402 0.0
C616 C 0.29688 0.69608 0.13364 0.0
C617 C 0.23529 0.72721 0.1913 0.0
C618 C 0.38288 0.79955 0.17858 0.0
C619 C 0.38724 0.83062 0.17066 0.0
C620 C 0.3436 0.76131 0.17636 0.0
C621 C 0.30827 0.75247 0.16444 0.0
C622 C 0.31294 0.7827 0.15517 0.0
C623 C 0.35154 0.82127 0.15882 0.0
C624 C 0.33952 0.73042 0.18735 0.0
C625 C 0.27687 0.77436 0.14154 0.0
H626 H 0.21933 0.62443 0.13702 0.0
H627 H 0.16578 0.65199 0.18386 0.0
H628 H 0.3082 0.72293 0.12672 0.0
H629 H 0.32573 0.70215 0.14153 0.0
H630 H 0.28532 0.67316 0.12166 0.0
H631 H 0.20578 0.71295 0.20066 0.0
H632 H 0.26469 0.73969 0.20113 0.0
H633 H 0.23999 0.75153 0.1843 0.0
H634 H 0.40981 0.80443 0.18681 0.0
H635 H 0.35288 0.84383 0.15251 0.0
H636 H 0.33538 0.70852 0.17658 0.0
H637 H 0.30982 0.71528 0.1966 0.0
H638 H 0.36872 0.74237 0.19723 0.0
H639 H 0.2666 0.75071 0.13028 0.0
H640 H 0.28737 0.80014 0.13367 0.0
H641 H 0.24751 0.76454 0.15027 0.0
C642 C 0.54709 0.2385 0.46874 0.0
C643 C 0.54009 0.21629 0.48466 0.0
C644 C 0.55466 0.27367 0.47215 0.0
C645 C 0.55538 0.28674 0.49191 0.0
C646 C 0.5501 0.26514 0.50806 0.0
C647 C 0.54248 0.23012 0.50422 0.0
C648 C 0.55998 0.29594 0.45459 0.0
C649 C 0.55098 0.27834 0.52938 0.0
C650 C 0.60314 0.38966 0.50682 0.0
C651 C 0.56472 0.38565 0.50989 0.0
C652 C 0.60079 0.35804 0.49997 0.0
C653 C 0.55904 0.32178 0.49588 0.0
C654 C 0.52029 0.31814 0.49766 0.0
C655 C 0.52357 0.35009 0.50478 0.0
C656 C 0.64279 0.36294 0.49824 0.0
C657 C 0.47518 0.27994 0.49318 0.0
H658 H 0.5449 0.22763 0.45359 0.0
H659 H 0.53767 0.21316 0.51654 0.0
H660 H 0.53095 0.2951 0.45317 0.0
H661 H 0.58948 0.32672 0.45691 0.0
H662 H 0.56305 0.28392 0.44039 0.0
H663 H 0.54893 0.25933 0.54025 0.0
H664 H 0.58166 0.30826 0.53268 0.0
H665 H 0.52283 0.27861 0.53161 0.0
H666 H 0.63509 0.41731 0.51031 0.0
H667 H 0.49369 0.34661 0.50726 0.0
H668 H 0.64326 0.35021 0.48369 0.0
H669 H 0.64447 0.34736 0.51006 0.0
H670 H 0.67263 0.39378 0.49979 0.0
H671 H 0.47429 0.26701 0.47842 0.0
H672 H 0.44882 0.28291 0.49328 0.0
H673 H 0.46778 0.25946 0.50449 0.0
C674 C 0.47968 0.56669 0.85235 0.0
C675 C 0.4786 0.53984 0.83933 0.0
C676 C 0.44231 0.56621 0.85504 0.0
C677 C 0.40152 0.53936 0.8439 0.0
C678 C 0.40066 0.5127 0.83043 0.0
C679 C 0.43784 0.51269 0.8287 0.0
C680 C 0.44654 0.59464 0.87022 0.0
C681 C 0.36016 0.48408 0.81739 0.0
C682 C 0.28943 0.51612 0.8623 0.0
C683 C 0.28359 0.53894 0.85107 0.0
C684 C 0.32612 0.51556 0.85998 0.0
C685 C 0.36047 0.53909 0.84631 0.0
C686 C 0.35494 0.56246 0.83506 0.0
C687 C 0.31744 0.56194 0.83742 0.0
C688 C 0.32824 0.48961 0.87252 0.0
C689 C 0.38943 0.58892 0.8205 0.0
H690 H 0.50985 0.58788 0.861 0.0
H691 H 0.43518 0.4916 0.81845 0.0
H692 H 0.44446 0.61503 0.86261 0.0
H693 H 0.4189 0.57923 0.88064 0.0
H694 H 0.47815 0.61147 0.87898 0.0
H695 H 0.3641 0.46588 0.80725 0.0
H696 H 0.33131 0.465 0.82676 0.0
H697 H 0.35278 0.49965 0.80826 0.0
H698 H 0.26482 0.49826 0.87311 0.0
H699 H 0.31519 0.5805 0.8287 0.0
H700 H 0.35919 0.50711 0.88178 0.0
H701 H 0.32885 0.469 0.86276 0.0
H702 H 0.2998 0.47293 0.88246 0.0
H703 H 0.42088 0.61173 0.82872 0.0
H704 H 0.37966 0.60302 0.81161 0.0
H705 H 0.39576 0.57259 0.8102 0.0
C706 C 0.94169 0.3769 0.16821 0.0
C707 C 0.94187 0.40031 0.15493 0.0
C708 C 0.90301 0.33932 0.17121 0.0
C709 C 0.86386 0.32418 0.16012 0.0
C710 C 0.86447 0.34744 0.14619 0.0
C711 C 0.90322 0.38553 0.14408 0.0
C712 C 0.90369 0.31638 0.18677 0.0
C713 C 0.82403 0.33226 0.13363 0.0
C714 C 0.77243 0.21453 0.15935 0.0
C715 C 0.742 0.21087 0.17279 0.0
C716 C 0.81116 0.25099 0.15451 0.0
C717 C 0.82166 0.28513 0.16408 0.0
C718 C 0.79191 0.28205 0.17774 0.0
C719 C 0.75218 0.24553 0.18132 0.0
C720 C 0.84107 0.25288 0.13922 0.0
C721 C 0.80252 0.31745 0.18905 0.0
H722 H 0.9716 0.38852 0.17673 0.0
H723 H 0.90347 0.40363 0.13378 0.0
H724 H 0.87921 0.30902 0.19825 0.0
H725 H 0.89416 0.28878 0.17988 0.0
H726 H 0.93663 0.3324 0.19427 0.0
H727 H 0.83147 0.35174 0.12169 0.0
H728 H 0.80958 0.30322 0.12668 0.0
H729 H 0.7987 0.32919 0.14318 0.0
H730 H 0.76681 0.18914 0.15258 0.0
H731 H 0.72952 0.24496 0.19098 0.0
H732 H 0.87203 0.26239 0.14666 0.0
H733 H 0.85011 0.27437 0.12823 0.0
H734 H 0.82552 0.22449 0.1311 0.0
H735 H 0.83414 0.33273 0.19763 0.0
H736 H 0.7765 0.31027 0.19958 0.0
H737 H 0.80678 0.33787 0.17853 0.0
C738 C 0.07653 0.50844 0.08887 0.0
C739 C 0.05293 0.52036 0.09687 0.0
C740 C 0.083 0.50798 0.06808 0.0
C741 C 0.06545 0.51964 0.05486 0.0
C742 C 0.04126 0.53126 0.06294 0.0
C743 C 1.03542 0.53152 0.08367 0.0
C744 C 0.10924 0.49559 0.06029 0.0
C745 C 1.02165 0.54377 0.04965 0.0
C746 C 0.11166 0.55586 0.00314 0.0
C747 C 0.0803 0.52389 0.9902 0.0
C748 C 0.10823 0.55438 0.02408 0.0
C749 C 0.07234 0.52019 0.03263 0.0
C750 C 0.04116 0.48754 0.01972 0.0
C751 C 0.04556 0.48973 -0.00117 0.0
C752 C 0.14254 0.58991 0.03708 0.0
C753 C 1.00239 0.4504 0.02796 0.0
H754 H 0.09039 0.4999 0.09888 0.0
H755 H 1.01715 0.5408 0.08958 0.0
H756 H 0.0899 0.472 0.04849 0.0
H757 H 0.13958 0.52015 0.05342 0.0
H758 H 0.11882 0.48552 0.07223 0.0
H759 H 1.00312 0.5514 0.05813 0.0
H760 H 0.04817 0.56922 0.04164 0.0
H761 H 0.999 0.52029 0.03824 0.0
H762 H 0.13846 0.58264 0.99691 0.0
H763 H 1.02153 0.46443 0.98924 0.0
H764 H 0.15627 0.58255 0.04848 0.0
H765 H 0.1271 0.60103 0.04512 0.0
H766 H 0.17005 0.61331 0.02835 0.0
H767 H 1.01405 0.44034 0.03881 0.0
H768 H 0.98197 0.4271 0.01609 0.0
H769 H 0.98126 0.45546 0.03607 0.0
C770 C 0.57835 0.00838 0.40905 0.0
C771 C 0.5544 0.01366 0.42241 0.0
C772 C 0.57393 0.00896 0.38843 0.0
C773 C 0.54618 0.01654 0.38102 0.0
C774 C 0.52167 0.02169 0.39446 0.0
C775 C 0.52534 0.01929 0.41502 0.0
C776 C 0.5994 1.00189 0.3746 0.0
C777 C 0.49258 0.03073 0.38716 0.0
C778 C 0.57667 0.05714 0.32981 0.0
C779 C 0.54655 0.02406 0.31736 0.0
C780 C 0.57562 0.05547 0.35064 0.0
C781 C 0.54389 0.01981 0.35922 0.0
C782 C 0.51243 0.98665 0.34676 0.0
C783 C 0.51404 0.98921 0.32601 0.0
C784 C 0.60958 0.09155 0.36342 0.0
C785 C 0.4782 0.94805 0.35529 0.0
H786 H 0.60041 1.00348 0.41473 0.0
H787 H 0.50659 0.02308 0.42533 0.0
H788 H 0.57668 0.97823 0.36327 0.0
H789 H 0.62358 0.02818 0.36651 0.0
H790 H 0.61741 0.99409 0.38268 0.0
H791 H 0.47571 0.03395 0.39951 0.0
H792 H 0.51265 0.05794 0.37929 0.0
H793 H 0.46729 0.00754 0.37627 0.0
H794 H 0.6021 0.08411 0.32328 0.0
H795 H 0.49008 0.96369 0.31651 0.0
H796 H 0.63241 0.08815 0.37068 0.0
H797 H 0.59332 0.09624 0.37543 0.0
H798 H 0.62927 0.11763 0.35464 0.0
H799 H 0.4947 0.93781 0.36229 0.0
H800 H 0.45404 0.92579 0.34373 0.0
H801 H 0.46008 0.95085 0.3671 0.0
C802 C 0.57136 0.55353 0.76658 0.0
C803 C 0.59335 0.54188 0.77554 0.0
C804 C 0.57393 0.55858 0.74604 0.0
C805 C 0.59765 0.55024 0.73414 0.0
C806 C 0.62102 0.53954 0.74332 0.0
C807 C 0.61906 0.53599 0.76404 0.0
C808 C 0.54955 0.57109 0.73697 0.0
C809 C 0.64582 0.52954 0.73111 0.0
C810 C 0.5567 0.51493 0.68038 0.0
C811 C 0.58889 0.54738 0.67013 0.0
C812 C 0.55951 0.5154 0.7012 0.0
C813 C 0.59485 0.54949 0.71201 0.0
C814 C 0.6271 0.58258 0.70167 0.0
C815 C 0.62402 0.58096 0.68077 0.0
C816 C 0.52484 0.47929 0.7116 0.0
C817 C 0.66451 0.61973 0.71268 0.0
H818 H 0.55134 0.55788 0.77561 0.0
H819 H 0.63542 0.52634 0.77105 0.0
H820 H 0.571 0.59444 0.72673 0.0
H821 H 0.52052 0.5464 0.72807 0.0
H822 H 0.53791 0.58149 0.7485 0.0
H823 H 0.66446 0.52406 0.74058 0.0
H824 H 0.62222 0.50328 0.72126 0.0
H825 H 0.66918 0.55321 0.72137 0.0
H826 H 0.52971 0.48897 0.67202 0.0
H827 H 0.6487 0.60605 0.67271 0.0
H828 H 0.50712 0.48512 0.72206 0.0
H829 H 0.54068 0.47038 0.72052 0.0
H830 H 0.50034 0.45487 0.70095 0.0
H831 H 0.65113 0.62989 0.72327 0.0
H832 H 0.68667 0.64292 0.70244 0.0
H833 H 0.68427 0.61476 0.72159 0.0
C834 C 0.5775 0.03474 0.54628 0.0
C835 C 0.53531 0.01332 0.53731 0.0
C836 C 0.58293 0.03286 0.56675 0.0
C837 C 0.54529 0.00862 0.57838 0.0
C838 C 0.50276 0.98574 0.56912 0.0
C839 C 0.49831 0.98857 0.54876 0.0
C840 C 0.6288 0.05772 0.57608 0.0
C841 C 0.46178 0.9592 0.58087 0.0
C842 C 0.55523 0.98219 0.6299 0.0
C843 C 0.55485 0.00836 0.64236 0.0
C844 C 0.55304 0.98237 0.60903 0.0
C845 C 0.54994 0.00909 0.60043 0.0
C846 C 0.54949 0.0355 0.61298 0.0
C847 C 0.55205 0.03486 0.63374 0.0
C848 C 0.55382 0.95388 0.59618 0.0
C849 C 0.54562 0.06411 0.60448 0.0
H850 H 0.60619 0.05382 0.53745 0.0
H851 H 0.46565 0.97161 0.54181 0.0
H852 H 0.6329 0.07948 0.587 0.0
H853 H 0.63394 0.0398 0.58437 0.0
H854 H 0.6547 0.07309 0.56484 0.0
H855 H 0.43141 0.94136 0.57119 0.0
H856 H 0.46428 0.93965 0.58914 0.0
H857 H 0.4585 0.97652 0.59204 0.0
H858 H 0.55776 0.96186 0.63648 0.0
H859 H 0.55106 0.05476 0.64328 0.0
H860 H 0.58151 0.96948 0.58581 0.0
H861 H 0.52294 0.93476 0.58695 0.0
H862 H 0.55742 0.93564 0.60515 0.0
H863 H 0.57281 0.08239 0.59418 0.0
H864 H 0.54661 0.0832 0.61625 0.0
H865 H 0.51419 0.04847 0.59571 0.0
C866 C 0.56002 0.50183 0.88974 0.0
C867 C 0.60218 0.53667 0.88743 0.0
C868 C 0.5486 0.48389 0.90768 0.0
C869 C 0.5796 0.50237 0.92378 0.0
C870 C 0.62283 0.53679 0.92131 0.0
C871 C 0.63381 0.55346 0.90295 0.0
C872 C 0.50244 0.44677 0.90978 0.0
C873 C 0.65636 0.55743 0.93841 0.0
C874 C 0.53572 0.49472 0.97468 0.0
C875 C 0.54096 0.46962 0.98302 0.0
C876 C 0.54741 0.50492 0.95514 0.0
C877 C 0.56467 0.48951 0.94387 0.0
C878 C 0.56867 0.4631 0.952 0.0
C879 C 0.55659 0.45333 0.97165 0.0
C880 C 0.54246 0.53302 0.94676 0.0
C881 C 0.58675 0.44615 0.94016 0.0
H882 H 0.53547 0.48903 0.87771 0.0
H883 H 0.66646 0.58039 0.90102 0.0
H884 H 0.50278 0.42635 0.9184 0.0
H885 H 0.48256 0.45315 0.918 0.0
H886 H 0.48585 0.43238 0.89504 0.0
H887 H 0.68987 0.58106 0.93338 0.0
H888 H 0.64638 0.57008 0.94938 0.0
H889 H 0.65782 0.53688 0.94624 0.0
H890 H 0.52321 0.50688 0.98363 0.0
H891 H 0.56083 0.43413 0.97837 0.0
H892 H 0.52128 0.51994 0.933 0.0
H893 H 0.57516 0.5594 0.94268 0.0
H894 H 0.52777 0.54171 0.95751 0.0
H895 H 0.5671 0.43136 0.92607 0.0
H896 H 0.58653 0.42518 0.94858 0.0
H897 H 0.62111 0.46958 0.93604 0.0
C898 C 1.02143 0.47601 0.22481 0.0
C899 C 0.0562 0.50804 0.21501 0.0
C900 C 1.01782 0.47776 0.24562 0.0
C901 C 0.05065 0.51202 0.25712 0.0
C902 C 0.08555 0.54474 0.24725 0.0
C903 C 0.08753 0.54255 0.22628 0.0
C904 C 0.97932 0.44255 0.25534 0.0
C905 C 0.12181 0.58151 0.25893 0.0
C906 C 1.02581 0.52442 0.31082 0.0
C907 C 0.04505 0.51194 0.32171 0.0
C908 C 1.02775 0.52503 0.28988 0.0
C909 C 0.04943 0.51282 0.27947 0.0
C910 C 0.06893 0.50022 0.29042 0.0
C911 C 0.0665 0.49993 0.31132 0.0
C912 C 1.00633 0.5385 0.27889 0.0
C913 C 0.09218 0.48675 0.28004 0.0
H914 H 0.99704 0.44931 0.21614 0.0
H915 H 0.11471 0.56726 0.21879 0.0
H916 H 0.9913 0.43109 0.26495 0.0
H917 H 0.96246 0.45042 0.26505 0.0
H918 H 0.95488 0.41923 0.24423 0.0
H919 H 0.14578 0.60481 0.2491 0.0
H920 H 0.10766 0.5919 0.26877 0.0
H921 H 0.1398 0.57576 0.26868 0.0
H922 H 1.00961 0.53418 0.31871 0.0
H923 H 0.08095 0.48974 0.31954 0.0
H924 H 0.98078 0.51518 0.26812 0.0
H925 H 1.03119 0.56356 0.2702 0.0
H926 H 0.99074 0.54703 0.28913 0.0
H927 H 0.06853 0.4609 0.26998 0.0
H928 H 0.10714 0.47932 0.29072 0.0
H929 H 0.1185 0.50958 0.27068 0.0
loop_
_geom_bond_atom_site_label_1
_geom_bond_atom_site_label_2
_geom_bond_distance
_geom_bond_site_symmetry_2
_ccdc_geom_bond_type
Gd0 C3 2.818 . S
Gd0 O20 2.377 . S
Gd0 O22 2.448 . S
Gd0 O23 2.506 . S
Gd0 O24 2.435 . S
Gd0 O25 2.717 . S
Gd0 O27 2.395 1_455 S
Gd0 O31 2.327 . S
Gd1 C12 2.818 1_455 S
Gd1 O21 2.395 . S
Gd1 O25 2.327 . S
Gd1 O26 2.377 1_455 S
Gd1 O28 2.448 1_455 S
Gd1 O29 2.506 1_455 S
Gd1 O30 2.435 . S
Gd1 O31 2.717 . S
C2 O20 1.240 . S
C2 O21 1.240 . S
C3 Gd0 2.818 . S
C3 C4 1.510 . S
C3 O22 1.249 . S
C3 O23 1.252 . S
C4 C3 1.510 . S
C4 C5 1.404 . S
C4 C6 1.352 . S
C5 C4 1.404 . S
C5 C9 1.389 . S
C5 H32 0.930 . S
C6 C4 1.352 . S
C6 C8 1.374 . S
C6 H33 0.931 . S
C7 C8 1.359 . S
C7 C9 1.364 . S
C8 C6 1.374 . S
C8 C7 1.359 . S
C8 H34 0.931 . S
C9 C5 1.389 . S
C9 C7 1.364 . S
C9 H35 0.931 . S
C10 O24 1.256 . S
C10 O25 1.257 . S
C11 O26 1.240 . S
C11 O27 1.240 . S
C12 Gd1 2.818 1_655 S
C12 C13 1.510 . S
C12 O28 1.249 . S
C12 O29 1.252 . S
C13 C12 1.510 . S
C13 C14 1.404 . S
C13 C15 1.352 . S
C14 C13 1.404 . S
C14 C18 1.389 . S
C14 H36 0.930 . S
C15 C13 1.352 . S
C15 C17 1.374 . S
C15 H37 0.931 . S
C16 C17 1.359 . S
C16 C18 1.364 . S
C17 C15 1.374 . S
C17 C16 1.359 . S
C17 H38 0.931 . S
C18 C14 1.389 . S
C18 C16 1.364 . S
C18 H39 0.931 . S
C19 O30 1.256 . S
C19 O31 1.257 . S
O20 Gd0 2.377 . S
O20 C2 1.240 . S
O21 Gd1 2.395 . S
O21 C2 1.240 . S
O22 Gd0 2.448 . S
O22 C3 1.249 . S
O23 Gd0 2.506 . S
O23 C3 1.252 . S
O24 Gd0 2.435 . S
O24 C10 1.256 . S
O25 Gd0 2.717 . S
O25 Gd1 2.327 . S
O25 C10 1.257 . S
O26 Gd1 2.377 1_655 S
O26 C11 1.240 . S
O27 Gd0 2.395 1_655 S
O27 C11 1.240 . S
O28 Gd1 2.448 1_655 S
O28 C12 1.249 . S
O29 Gd1 2.506 1_655 S
O29 C12 1.252 . S
O30 Gd1 2.435 . S
O30 C19 1.256 . S
O31 Gd0 2.327 . S
O31 Gd1 2.717 . S
O31 C19 1.257 . S
H32 C5 0.930 . S
H33 C6 0.931 . S
H34 C8 0.931 . S
H35 C9 0.931 . S
H36 C14 0.930 . S
H37 C15 0.931 . S
H38 C17 0.931 . S
H39 C18 0.931 . S
Gd40 C43 2.818 . S
Gd40 O60 2.377 . S
Gd40 O62 2.448 . S
Gd40 O63 2.506 . S
Gd40 O64 2.435 . S
Gd40 O65 2.717 1_565 S
Gd40 O67 2.395 1_565 S
Gd40 O71 2.327 1_565 S
Gd41 C52 2.818 . S
Gd41 O61 2.395 1_545 S
Gd41 O65 2.327 . S
Gd41 O66 2.377 . S
Gd41 O68 2.448 . S
Gd41 O69 2.506 . S
Gd41 O70 2.435 . S
Gd41 O71 2.717 . S
C42 O60 1.240 . S
C42 O61 1.240 . S
C43 Gd40 2.818 . S
C43 C44 1.510 . S
C43 O62 1.249 . S
C43 O63 1.252 . S
C44 C43 1.510 . S
C44 C45 1.404 . S
C44 C46 1.352 . S
C45 C44 1.404 . S
C45 C49 1.389 . S
C45 H72 0.930 . S
C46 C44 1.352 . S
C46 C48 1.374 . S
C46 H73 0.931 . S
C47 C48 1.359 . S
C47 C49 1.364 . S
C48 C46 1.374 . S
C48 C47 1.359 . S
C48 H74 0.931 . S
C49 C45 1.389 . S
C49 C47 1.364 . S
C49 H75 0.931 . S
C50 O64 1.256 1_545 S
C50 O65 1.257 . S
C51 O66 1.240 . S
C51 O67 1.240 . S
C52 Gd41 2.818 . S
C52 C53 1.510 . S
C52 O68 1.249 . S
C52 O69 1.252 . S
C53 C52 1.510 . S
C53 C54 1.404 . S
C53 C55 1.352 . S
C54 C53 1.404 . S
C54 C58 1.389 . S
C54 H76 0.930 . S
C55 C53 1.352 . S
C55 C57 1.374 . S
C55 H77 0.931 . S
C56 C57 1.359 . S
C56 C58 1.364 . S
C57 C55 1.374 . S
C57 C56 1.359 . S
C57 H78 0.931 . S
C58 C54 1.389 . S
C58 C56 1.364 . S
C58 H79 0.931 . S
C59 O70 1.256 . S
C59 O71 1.257 . S
O60 Gd40 2.377 . S
O60 C42 1.240 . S
O61 Gd41 2.395 1_565 S
O61 C42 1.240 . S
O62 Gd40 2.448 . S
O62 C43 1.249 . S
O63 Gd40 2.506 . S
O63 C43 1.252 . S
O64 Gd40 2.435 . S
O64 C50 1.256 1_565 S
O65 Gd40 2.717 1_545 S
O65 Gd41 2.327 . S
O65 C50 1.257 . S
O66 Gd41 2.377 . S
O66 C51 1.240 . S
O67 Gd40 2.395 1_545 S
O67 C51 1.240 . S
O68 Gd41 2.448 . S
O68 C52 1.249 . S
O69 Gd41 2.506 . S
O69 C52 1.252 . S
O70 Gd41 2.435 . S
O70 C59 1.256 . S
O71 Gd40 2.327 1_545 S
O71 Gd41 2.717 . S
O71 C59 1.257 . S
H72 C45 0.930 . S
H73 C46 0.931 . S
H74 C48 0.931 . S
H75 C49 0.931 . S
H76 C54 0.930 . S
H77 C55 0.931 . S
H78 C57 0.931 . S
H79 C58 0.931 . S
Gd80 C83 2.818 . S
Gd80 O100 2.377 . S
Gd80 O102 2.448 . S
Gd80 O103 2.506 . S
Gd80 O104 2.435 . S
Gd80 O105 2.717 . S
Gd80 O107 2.395 . S
Gd80 O111 2.327 . S
Gd81 C92 2.818 . S
Gd81 O101 2.395 . S
Gd81 O105 2.327 . S
Gd81 O106 2.377 . S
Gd81 O108 2.448 . S
Gd81 O109 2.506 . S
Gd81 O110 2.435 . S
Gd81 O111 2.717 . S
C82 O100 1.240 . S
C82 O101 1.240 . S
C83 Gd80 2.818 . S
C83 C84 1.510 . S
C83 O102 1.249 . S
C83 O103 1.252 . S
C84 C83 1.510 . S
C84 C85 1.404 . S
C84 C86 1.352 . S
C85 C84 1.404 . S
C85 C89 1.389 . S
C85 H112 0.930 . S
C86 C84 1.352 . S
C86 C88 1.374 . S
C86 H113 0.931 . S
C87 C88 1.359 . S
C87 C89 1.364 . S
C88 C86 1.374 . S
C88 C87 1.359 . S
C88 H114 0.931 . S
C89 C85 1.389 . S
C89 C87 1.364 . S
C89 H115 0.931 . S
C90 O104 1.256 . S
C90 O105 1.257 . S
C91 O106 1.240 . S
C91 O107 1.240 . S
C92 Gd81 2.818 . S
C92 C93 1.510 . S
C92 O108 1.249 . S
C92 O109 1.252 . S
C93 C92 1.510 . S
C93 C94 1.404 . S
C93 C95 1.352 . S
C94 C93 1.404 . S
C94 C98 1.389 . S
C94 H116 0.930 . S
C95 C93 1.352 . S
C95 C97 1.374 . S
C95 H117 0.931 . S
C96 C97 1.359 . S
C96 C98 1.364 . S
C97 C95 1.374 . S
C97 C96 1.359 . S
C97 H118 0.931 . S
C98 C94 1.389 . S
C98 C96 1.364 . S
C98 H119 0.931 . S
C99 O110 1.256 . S
C99 O111 1.257 . S
O100 Gd80 2.377 . S
O100 C82 1.240 . S
O101 Gd81 2.395 . S
O101 C82 1.240 . S
O102 Gd80 2.448 . S
O102 C83 1.249 . S
O103 Gd80 2.506 . S
O103 C83 1.252 . S
O104 Gd80 2.435 . S
O104 C90 1.256 . S
O105 Gd80 2.717 . S
O105 Gd81 2.327 . S
O105 C90 1.257 . S
O106 Gd81 2.377 . S
O106 C91 1.240 . S
O107 Gd80 2.395 . S
O107 C91 1.240 . S
O108 Gd81 2.448 . S
O108 C92 1.249 . S
O109 Gd81 2.506 . S
O109 C92 1.252 . S
O110 Gd81 2.435 . S
O110 C99 1.256 . S
O111 Gd80 2.327 . S
O111 Gd81 2.717 . S
O111 C99 1.257 . S
H112 C85 0.930 . S
H113 C86 0.931 . S
H114 C88 0.931 . S
H115 C89 0.931 . S
H116 C94 0.930 . S
H117 C95 0.931 . S
H118 C97 0.931 . S
H119 C98 0.931 . S
C120 C121 1.386 . S
C120 C122 1.397 . S
C120 H144 0.931 . S
C121 C120 1.386 . S
C121 C125 1.397 1_545 S
C122 C120 1.397 . S
C122 C123 1.384 . S
C122 H145 0.930 . S
C123 C122 1.384 . S
C123 C124 1.377 1_545 S
C123 C126 1.481 . S
C124 C123 1.377 1_565 S
C124 C125 1.389 . S
C124 H146 0.929 . S
C125 C121 1.397 1_565 S
C125 C124 1.389 . S
C125 H147 0.931 . S
C126 C123 1.481 . S
C126 C127 1.387 . S
C126 C131 1.390 1_545 S
C127 C126 1.387 . S
C127 C128 1.401 . S
C127 H148 0.930 . S
C128 C127 1.401 . S
C128 C129 1.376 . S
C128 C137 1.511 . S
C129 C128 1.376 . S
C129 C130 1.392 1_545 S
C129 H150 0.931 . S
C130 C129 1.392 1_565 S
C130 C131 1.361 . S
C130 C132 1.500 . S
C131 C126 1.390 1_565 S
C131 C130 1.361 . S
C131 H149 0.931 . S
C132 C130 1.500 . S
C132 C133 1.371 . S
C132 C134 1.365 . S
C133 C132 1.371 . S
C133 C143 1.386 . S
C133 H151 0.931 . S
C134 C132 1.365 . S
C134 C135 1.409 . S
C134 H152 0.929 . S
C135 C134 1.409 . S
C135 C136 1.380 . S
C135 H153 0.930 . S
C136 C135 1.380 . S
C136 C143 1.357 . S
C137 C128 1.511 . S
C137 C138 1.341 . S
C137 C139 1.371 . S
C138 C137 1.341 . S
C138 C142 1.394 . S
C138 H154 0.930 . S
C139 C137 1.371 . S
C139 C140 1.392 . S
C139 H155 0.931 . S
C140 C139 1.392 . S
C140 C141 1.331 . S
C140 H158 0.932 . S
C141 C140 1.331 . S
C141 C142 1.336 . S
C142 C138 1.394 . S
C142 C141 1.336 . S
C142 H157 0.929 . S
C143 C133 1.386 . S
C143 C136 1.357 . S
C143 H156 0.928 . S
H144 C120 0.931 . S
H145 C122 0.930 . S
H146 C124 0.929 . S
H147 C125 0.931 . S
H148 C127 0.930 . S
H149 C131 0.931 . S
H150 C129 0.931 . S
H151 C133 0.931 . S
H152 C134 0.929 . S
H153 C135 0.930 . S
H154 C138 0.930 . S
H155 C139 0.931 . S
H156 C143 0.928 . S
H157 C142 0.929 . S
H158 C140 0.932 . S
C159 C160 1.386 . S
C159 C161 1.397 . S
C159 H183 0.931 . S
C160 C159 1.386 . S
C160 C164 1.397 . S
C161 C159 1.397 . S
C161 C162 1.384 . S
C161 H184 0.930 . S
C162 C161 1.384 . S
C162 C163 1.377 . S
C162 C165 1.481 . S
C163 C162 1.377 . S
C163 C164 1.389 . S
C163 H185 0.929 . S
C164 C160 1.397 . S
C164 C163 1.389 . S
C164 H186 0.931 . S
C165 C162 1.481 . S
C165 C166 1.387 . S
C165 C170 1.390 . S
C166 C165 1.387 . S
C166 C167 1.401 . S
C166 H187 0.930 . S
C167 C166 1.401 . S
C167 C168 1.376 . S
C167 C176 1.511 . S
C168 C167 1.376 . S
C168 C169 1.392 . S
C168 H189 0.931 . S
C169 C168 1.392 . S
C169 C170 1.361 . S
C169 C171 1.500 . S
C170 C165 1.390 . S
C170 C169 1.361 . S
C170 H188 0.931 . S
C171 C169 1.500 . S
C171 C172 1.371 . S
C171 C173 1.365 . S
C172 C171 1.371 . S
C172 C182 1.386 . S
C172 H190 0.931 . S
C173 C171 1.365 . S
C173 C174 1.409 . S
C173 H191 0.929 . S
C174 C173 1.409 . S
C174 C175 1.380 . S
C174 H192 0.930 . S
C175 C174 1.380 . S
C175 C182 1.357 . S
C176 C167 1.511 . S
C176 C177 1.341 . S
C176 C178 1.371 . S
C177 C176 1.341 . S
C177 C181 1.394 . S
C177 H193 0.930 . S
C178 C176 1.371 . S
C178 C179 1.392 . S
C178 H194 0.931 . S
C179 C178 1.392 . S
C179 C180 1.331 . S
C179 H197 0.932 . S
C180 C179 1.331 . S
C180 C181 1.336 . S
C181 C177 1.394 . S
C181 C180 1.336 . S
C181 H196 0.929 . S
C182 C172 1.386 . S
C182 C175 1.357 . S
C182 H195 0.928 . S
H183 C159 0.931 . S
H184 C161 0.930 . S
H185 C163 0.929 . S
H186 C164 0.931 . S
H187 C166 0.930 . S
H188 C170 0.931 . S
H189 C168 0.931 . S
H190 C172 0.931 . S
H191 C173 0.929 . S
H192 C174 0.930 . S
H193 C177 0.930 . S
H194 C178 0.931 . S
H195 C182 0.928 . S
H196 C181 0.929 . S
H197 C179 0.932 . S
C198 C199 1.386 . S
C198 C200 1.397 . S
C198 H222 0.931 . S
C199 C198 1.386 . S
C199 C203 1.397 . S
C200 C198 1.397 . S
C200 C201 1.384 . S
C200 H223 0.930 . S
C201 C200 1.384 . S
C201 C202 1.377 . S
C201 C204 1.481 . S
C202 C201 1.377 . S
C202 C203 1.389 . S
C202 H224 0.929 1_455 S
C203 C199 1.397 . S
C203 C202 1.389 . S
C203 H225 0.931 1_455 S
C204 C201 1.481 . S
C204 C205 1.387 . S
C204 C209 1.390 . S
C205 C204 1.387 . S
C205 C206 1.401 . S
C205 H226 0.930 . S
C206 C205 1.401 . S
C206 C207 1.376 . S
C206 C215 1.511 . S
C207 C206 1.376 . S
C207 C208 1.392 . S
C207 H228 0.931 . S
C208 C207 1.392 . S
C208 C209 1.361 . S
C208 C210 1.522 . S
C209 C204 1.390 . S
C209 C208 1.361 . S
C209 H227 0.931 . S
C210 C208 1.522 . S
C210 C211 1.369 . S
C210 C212 1.344 1_455 S
C211 C210 1.369 . S
C211 C221 1.386 1_455 S
C211 H229 0.931 . S
C212 C210 1.344 1_655 S
C212 C213 1.409 . S
C212 H230 0.929 . S
C213 C212 1.409 . S
C213 C214 1.380 . S
C213 H231 0.930 . S
C214 C213 1.380 . S
C214 C221 1.357 . S
C215 C206 1.511 . S
C215 C216 1.341 . S
C215 C217 1.371 . S
C216 C215 1.341 . S
C216 C220 1.394 . S
C216 H232 0.930 . S
C217 C215 1.371 . S
C217 C218 1.392 . S
C217 H233 0.931 . S
C218 C217 1.392 . S
C218 C219 1.331 . S
C218 H236 0.932 . S
C219 C218 1.331 . S
C219 C220 1.336 . S
C220 C216 1.394 . S
C220 C219 1.336 . S
C220 H235 0.929 . S
C221 C211 1.386 1_655 S
C221 C214 1.357 . S
C221 H234 0.928 . S
H222 C198 0.931 . S
H223 C200 0.930 . S
H224 C202 0.929 1_655 S
H225 C203 0.931 1_655 S
H226 C205 0.930 . S
H227 C209 0.931 . S
H228 C207 0.931 . S
H229 C211 0.931 . S
H230 C212 0.929 . S
H231 C213 0.930 . S
H232 C216 0.930 . S
H233 C217 0.931 . S
H234 C221 0.928 . S
H235 C220 0.929 . S
H236 C218 0.932 . S
C237 C238 1.386 . S
C237 C239 1.397 . S
C237 H261 0.931 . S
C238 C237 1.386 . S
C238 C242 1.397 1_655 S
C239 C237 1.397 . S
C239 C240 1.384 . S
C239 H262 0.930 . S
C240 C239 1.384 . S
C240 C241 1.377 1_655 S
C240 C243 1.481 . S
C241 C240 1.377 1_455 S
C241 C242 1.389 . S
C241 H263 0.929 . S
C242 C238 1.397 1_455 S
C242 C241 1.389 . S
C242 H264 0.931 . S
C243 C240 1.481 . S
C243 C244 1.387 . S
C243 C248 1.390 1_655 S
C244 C243 1.387 . S
C244 C245 1.401 . S
C244 H265 0.930 . S
C245 C244 1.401 . S
C245 C246 1.385 . S
C245 C254 1.511 . S
C246 C245 1.385 . S
C246 C247 1.382 1_655 S
C246 H267 0.931 . S
C247 C246 1.382 1_455 S
C247 C248 1.361 . S
C247 C249 1.500 . S
C248 C243 1.390 1_455 S
C248 C247 1.361 . S
C248 H266 0.931 . S
C249 C247 1.500 . S
C249 C250 1.371 . S
C249 C251 1.365 . S
C250 C249 1.371 . S
C250 C260 1.386 . S
C250 H268 0.931 . S
C251 C249 1.365 . S
C251 C252 1.409 . S
C251 H269 0.929 . S
C252 C251 1.409 . S
C252 C253 1.380 . S
C252 H270 0.930 . S
C253 C252 1.380 . S
C253 C260 1.357 . S
C254 C245 1.511 . S
C254 C255 1.341 . S
C254 C256 1.371 . S
C255 C254 1.341 . S
C255 C259 1.394 . S
C255 H271 0.930 . S
C256 C254 1.371 . S
C256 C257 1.392 . S
C256 H272 0.931 . S
C257 C256 1.392 . S
C257 C258 1.331 . S
C257 H275 0.932 . S
C258 C257 1.331 . S
C258 C259 1.336 . S
C259 C255 1.394 . S
C259 C258 1.336 . S
C259 H274 0.929 . S
C260 C250 1.386 . S
C260 C253 1.357 . S
C260 H273 0.928 . S
H261 C237 0.931 . S
H262 C239 0.930 . S
H263 C241 0.929 . S
H264 C242 0.931 . S
H265 C244 0.930 . S
H266 C248 0.931 . S
H267 C246 0.931 . S
H268 C250 0.931 . S
H269 C251 0.929 . S
H270 C252 0.930 . S
H271 C255 0.930 . S
H272 C256 0.931 . S
H273 C260 0.928 . S
H274 C259 0.929 . S
H275 C257 0.932 . S
C276 C277 1.386 . S
C276 C278 1.397 . S
C276 H300 0.931 . S
C277 C276 1.386 . S
C277 C281 1.397 1_565 S
C278 C276 1.397 . S
C278 C279 1.384 . S
C278 H301 0.930 . S
C279 C278 1.384 . S
C279 C280 1.377 1_565 S
C279 C282 1.481 1_565 S
C280 C279 1.377 1_545 S
C280 C281 1.389 . S
C280 H302 0.929 . S
C281 C277 1.397 1_545 S
C281 C280 1.389 . S
C281 H303 0.931 . S
C282 C279 1.481 1_545 S
C282 C283 1.379 1_545 S
C282 C287 1.398 . S
C283 C282 1.379 1_565 S
C283 C284 1.401 . S
C283 H304 0.930 . S
C284 C283 1.401 . S
C284 C285 1.376 1_565 S
C284 C293 1.511 . S
C285 C284 1.376 1_545 S
C285 C286 1.392 . S
C285 H306 0.931 . S
C286 C285 1.392 . S
C286 C287 1.361 . S
C286 C288 1.500 . S
C287 C282 1.398 . S
C287 C286 1.361 . S
C287 H305 0.931 . S
C288 C286 1.500 . S
C288 C289 1.371 . S
C288 C290 1.365 . S
C289 C288 1.371 . S
C289 C299 1.386 . S
C289 H307 0.931 . S
C290 C288 1.365 . S
C290 C291 1.409 . S
C290 H308 0.929 . S
C291 C290 1.409 . S
C291 C292 1.380 . S
C291 H309 0.930 . S
C292 C291 1.380 . S
C292 C299 1.357 . S
C293 C284 1.511 . S
C293 C294 1.341 . S
C293 C295 1.371 . S
C294 C293 1.341 . S
C294 C298 1.394 . S
C294 H310 0.930 . S
C295 C293 1.371 . S
C295 C296 1.392 . S
C295 H311 0.931 . S
C296 C295 1.392 . S
C296 C297 1.331 . S
C296 H314 0.932 . S
C297 C296 1.331 . S
C297 C298 1.336 . S
C298 C294 1.394 . S
C298 C297 1.336 . S
C298 H313 0.929 . S
C299 C289 1.386 . S
C299 C292 1.357 . S
C299 H312 0.928 . S
H300 C276 0.931 . S
H301 C278 0.930 . S
H302 C280 0.929 . S
H303 C281 0.931 . S
H304 C283 0.930 . S
H305 C287 0.931 . S
H306 C285 0.931 . S
H307 C289 0.931 . S
H308 C290 0.929 . S
H309 C291 0.930 . S
H310 C294 0.930 . S
H311 C295 0.931 . S
H312 C299 0.928 . S
H313 C298 0.929 . S
H314 C296 0.932 . S
C315 C316 1.386 . S
C315 C317 1.397 . S
C315 H339 0.931 . S
C316 C315 1.386 . S
C316 C320 1.397 . S
C317 C315 1.397 . S
C317 C318 1.384 . S
C317 H340 0.930 . S
C318 C317 1.384 . S
C318 C319 1.377 . S
C318 C321 1.481 . S
C319 C318 1.377 . S
C319 C320 1.389 . S
C319 H341 0.929 . S
C320 C316 1.397 . S
C320 C319 1.389 . S
C320 H342 0.931 . S
C321 C318 1.481 . S
C321 C322 1.387 . S
C321 C326 1.390 . S
C322 C321 1.387 . S
C322 C323 1.401 . S
C322 H343 0.930 . S
C323 C322 1.401 . S
C323 C324 1.376 . S
C323 C332 1.511 . S
C324 C323 1.376 . S
C324 C325 1.392 . S
C324 H345 0.931 . S
C325 C324 1.392 . S
C325 C326 1.361 . S
C325 C327 1.500 . S
C326 C321 1.390 . S
C326 C325 1.361 . S
C326 H344 0.931 . S
C327 C325 1.500 . S
C327 C328 1.371 . S
C327 C329 1.365 . S
C328 C327 1.371 . S
C328 C338 1.386 . S
C328 H346 0.931 . S
C329 C327 1.365 . S
C329 C330 1.409 . S
C329 H347 0.929 . S
C330 C329 1.409 . S
C330 C331 1.380 . S
C330 H348 0.930 . S
C331 C330 1.380 . S
C331 C338 1.357 . S
C332 C323 1.511 . S
C332 C333 1.341 . S
C332 C334 1.371 . S
C333 C332 1.341 . S
C333 C337 1.394 . S
C333 H349 0.930 . S
C334 C332 1.371 . S
C334 C335 1.392 . S
C334 H350 0.931 . S
C335 C334 1.392 . S
C335 C336 1.331 . S
C335 H353 0.932 . S
C336 C335 1.331 . S
C336 C337 1.336 . S
C337 C333 1.394 . S
C337 C336 1.336 . S
C337 H352 0.929 . S
C338 C328 1.386 . S
C338 C331 1.357 . S
C338 H351 0.928 . S
H339 C315 0.931 . S
H340 C317 0.930 . S
H341 C319 0.929 . S
H342 C320 0.931 . S
H343 C322 0.930 . S
H344 C326 0.931 . S
H345 C324 0.931 . S
H346 C328 0.931 . S
H347 C329 0.929 . S
H348 C330 0.930 . S
H349 C333 0.930 . S
H350 C334 0.931 . S
H351 C338 0.928 . S
H352 C337 0.929 . S
H353 C335 0.932 . S
C354 C355 1.391 . S
C354 C356 1.394 . S
C354 H370 0.931 . S
C355 C354 1.391 . S
C355 C359 1.376 . S
C356 C354 1.394 . S
C356 C357 1.369 . S
C356 C360 1.531 . S
C357 C356 1.369 . S
C357 C358 1.410 . S
C357 C365 1.503 . S
C358 C357 1.410 . S
C358 C359 1.392 . S
C358 C361 1.511 . S
C359 C355 1.376 . S
C359 C358 1.392 . S
C359 H371 0.929 . S
C360 C356 1.531 . S
C360 H372 0.960 . S
C360 H373 0.962 . S
C360 H374 0.960 . S
C361 C358 1.511 . S
C361 H375 0.961 . S
C361 H376 0.961 . S
C361 H377 0.961 . S
C362 C363 1.370 . S
C362 C364 1.363 . S
C362 H378 0.931 . S
C363 C362 1.370 . S
C363 C367 1.408 . S
C364 C362 1.363 . S
C364 C365 1.370 . S
C364 C368 1.524 . S
C365 C357 1.503 . S
C365 C364 1.370 . S
C365 C366 1.403 . S
C366 C365 1.403 . S
C366 C367 1.404 . S
C366 C369 1.539 . S
C367 C363 1.408 . S
C367 C366 1.404 . S
C367 H379 0.930 . S
C368 C364 1.524 . S
C368 H380 0.956 . S
C368 H381 0.961 . S
C368 H382 0.961 . S
C369 C366 1.539 . S
C369 H383 0.958 . S
C369 H384 0.961 . S
C369 H385 0.960 . S
H370 C354 0.931 . S
H371 C359 0.929 . S
H372 C360 0.960 . S
H373 C360 0.962 . S
H374 C360 0.960 . S
H375 C361 0.961 . S
H376 C361 0.961 . S
H377 C361 0.961 . S
H378 C362 0.931 . S
H379 C367 0.930 . S
H380 C368 0.956 . S
H381 C368 0.961 . S
H382 C368 0.961 . S
H383 C369 0.958 . S
H384 C369 0.961 . S
H385 C369 0.960 . S
C386 C387 1.391 . S
C386 C388 1.394 . S
C386 H402 0.931 . S
C387 C386 1.391 . S
C387 C391 1.376 . S
C388 C386 1.394 . S
C388 C389 1.369 . S
C388 C392 1.531 . S
C389 C388 1.369 . S
C389 C390 1.410 . S
C389 C397 1.503 . S
C390 C389 1.410 . S
C390 C391 1.392 . S
C390 C393 1.511 . S
C391 C387 1.376 . S
C391 C390 1.392 . S
C391 H403 0.929 . S
C392 C388 1.531 . S
C392 H404 0.960 . S
C392 H405 0.962 . S
C392 H406 0.960 . S
C393 C390 1.511 . S
C393 H407 0.961 . S
C393 H408 0.961 . S
C393 H409 0.961 . S
C394 C395 1.370 . S
C394 C396 1.363 . S
C394 H410 0.931 . S
C395 C394 1.370 . S
C395 C399 1.408 . S
C396 C394 1.363 . S
C396 C397 1.370 . S
C396 C400 1.524 . S
C397 C389 1.503 . S
C397 C396 1.370 . S
C397 C398 1.403 . S
C398 C397 1.403 . S
C398 C399 1.404 . S
C398 C401 1.539 . S
C399 C395 1.408 . S
C399 C398 1.404 . S
C399 H411 0.930 . S
C400 C396 1.524 . S
C400 H412 0.956 . S
C400 H413 0.961 . S
C400 H414 0.961 . S
C401 C398 1.539 . S
C401 H415 0.958 . S
C401 H416 0.961 . S
C401 H417 0.960 . S
H402 C386 0.931 . S
H403 C391 0.929 . S
H404 C392 0.960 . S
H405 C392 0.962 . S
H406 C392 0.960 . S
H407 C393 0.961 . S
H408 C393 0.961 . S
H409 C393 0.961 . S
H410 C394 0.931 . S
H411 C399 0.930 . S
H412 C400 0.956 . S
H413 C400 0.961 . S
H414 C400 0.961 . S
H415 C401 0.958 . S
H416 C401 0.961 . S
H417 C401 0.960 . S
C418 C419 1.391 . S
C418 C420 1.394 . S
C418 H434 0.931 . S
C419 C418 1.391 . S
C419 C423 1.376 . S
C420 C418 1.394 . S
C420 C421 1.369 . S
C420 C424 1.531 . S
C421 C420 1.369 . S
C421 C422 1.410 . S
C421 C429 1.503 . S
C422 C421 1.410 . S
C422 C423 1.392 . S
C422 C425 1.511 . S
C423 C419 1.376 . S
C423 C422 1.392 . S
C423 H435 0.929 . S
C424 C420 1.531 . S
C424 H436 0.960 . S
C424 H437 0.962 . S
C424 H438 0.960 . S
C425 C422 1.511 . S
C425 H439 0.961 . S
C425 H440 0.961 . S
C425 H441 0.961 . S
C426 C427 1.370 . S
C426 C428 1.363 . S
C426 H442 0.931 . S
C427 C426 1.370 . S
C427 C431 1.408 . S
C428 C426 1.363 . S
C428 C429 1.370 . S
C428 C432 1.524 . S
C429 C421 1.503 . S
C429 C428 1.370 . S
C429 C430 1.403 . S
C430 C429 1.403 . S
C430 C431 1.404 . S
C430 C433 1.539 . S
C431 C427 1.408 . S
C431 C430 1.404 . S
C431 H443 0.930 . S
C432 C428 1.524 . S
C432 H444 0.956 . S
C432 H445 0.961 . S
C432 H446 0.961 . S
C433 C430 1.539 . S
C433 H447 0.958 . S
C433 H448 0.961 . S
C433 H449 0.960 . S
H434 C418 0.931 . S
H435 C423 0.929 . S
H436 C424 0.960 . S
H437 C424 0.962 . S
H438 C424 0.960 . S
H439 C425 0.961 . S
H440 C425 0.961 . S
H441 C425 0.961 . S
H442 C426 0.931 . S
H443 C431 0.930 . S
H444 C432 0.956 . S
H445 C432 0.961 . S
H446 C432 0.961 . S
H447 C433 0.958 . S
H448 C433 0.961 . S
H449 C433 0.960 . S
C450 C451 1.391 . S
C450 C452 1.394 . S
C450 H466 0.931 . S
C451 C450 1.391 . S
C451 C455 1.376 . S
C452 C450 1.394 . S
C452 C453 1.369 . S
C452 C456 1.531 . S
C453 C452 1.369 . S
C453 C454 1.410 . S
C453 C461 1.503 . S
C454 C453 1.410 . S
C454 C455 1.392 . S
C454 C457 1.511 . S
C455 C451 1.376 . S
C455 C454 1.392 . S
C455 H467 0.929 . S
C456 C452 1.531 . S
C456 H468 0.960 . S
C456 H469 0.962 . S
C456 H470 0.960 . S
C457 C454 1.511 . S
C457 H471 0.961 . S
C457 H472 0.961 . S
C457 H473 0.961 . S
C458 C459 1.370 . S
C458 C460 1.363 . S
C458 H474 0.931 . S
C459 C458 1.370 . S
C459 C463 1.408 . S
C460 C458 1.363 . S
C460 C461 1.370 . S
C460 C464 1.524 . S
C461 C453 1.503 . S
C461 C460 1.370 . S
C461 C462 1.403 . S
C462 C461 1.403 . S
C462 C463 1.404 . S
C462 C465 1.539 . S
C463 C459 1.408 . S
C463 C462 1.404 . S
C463 H475 0.930 . S
C464 C460 1.524 . S
C464 H476 0.956 . S
C464 H477 0.961 . S
C464 H478 0.961 . S
C465 C462 1.539 . S
C465 H479 0.958 . S
C465 H480 0.961 . S
C465 H481 0.960 . S
H466 C450 0.931 . S
H467 C455 0.929 . S
H468 C456 0.960 . S
H469 C456 0.962 . S
H470 C456 0.960 . S
H471 C457 0.961 . S
H472 C457 0.961 . S
H473 C457 0.961 . S
H474 C458 0.931 . S
H475 C463 0.930 . S
H476 C464 0.956 . S
H477 C464 0.961 . S
H478 C464 0.961 . S
H479 C465 0.958 . S
H480 C465 0.961 . S
H481 C465 0.960 . S
C482 C483 1.391 . S
C482 C484 1.394 . S
C482 H498 0.931 . S
C483 C482 1.391 . S
C483 C487 1.376 . S
C484 C482 1.394 . S
C484 C485 1.369 . S
C484 C488 1.531 . S
C485 C484 1.369 . S
C485 C486 1.410 . S
C485 C493 1.503 . S
C486 C485 1.410 . S
C486 C487 1.392 . S
C486 C489 1.511 . S
C487 C483 1.376 . S
C487 C486 1.392 . S
C487 H499 0.929 . S
C488 C484 1.531 . S
C488 H500 0.960 . S
C488 H501 0.962 . S
C488 H502 0.960 . S
C489 C486 1.511 . S
C489 H503 0.961 . S
C489 H504 0.961 . S
C489 H505 0.961 . S
C490 C491 1.370 . S
C490 C492 1.363 . S
C490 H506 0.931 . S
C491 C490 1.370 . S
C491 C495 1.408 . S
C492 C490 1.363 . S
C492 C493 1.370 . S
C492 C496 1.524 . S
C493 C485 1.503 . S
C493 C492 1.370 . S
C493 C494 1.403 . S
C494 C493 1.403 . S
C494 C495 1.404 . S
C494 C497 1.539 . S
C495 C491 1.408 . S
C495 C494 1.404 . S
C495 H507 0.930 . S
C496 C492 1.524 . S
C496 H508 0.956 . S
C496 H509 0.961 . S
C496 H510 0.961 . S
C497 C494 1.539 . S
C497 H511 0.958 . S
C497 H512 0.961 . S
C497 H513 0.960 . S
H498 C482 0.931 . S
H499 C487 0.929 . S
H500 C488 0.960 . S
H501 C488 0.962 . S
H502 C488 0.960 . S
H503 C489 0.961 . S
H504 C489 0.961 . S
H505 C489 0.961 . S
H506 C490 0.931 . S
H507 C495 0.930 . S
H508 C496 0.956 . S
H509 C496 0.961 . S
H510 C496 0.961 . S
H511 C497 0.958 . S
H512 C497 0.961 . S
H513 C497 0.960 . S
C514 C515 1.391 . S
C514 C516 1.394 . S
C514 H530 0.931 . S
C515 C514 1.391 . S
C515 C519 1.376 . S
C516 C514 1.394 . S
C516 C517 1.369 . S
C516 C520 1.531 . S
C517 C516 1.369 . S
C517 C518 1.410 . S
C517 C525 1.503 . S
C518 C517 1.410 . S
C518 C519 1.392 . S
C518 C521 1.511 . S
C519 C515 1.376 . S
C519 C518 1.392 . S
C519 H531 0.929 . S
C520 C516 1.531 . S
C520 H532 0.960 . S
C520 H533 0.962 . S
C520 H534 0.960 . S
C521 C518 1.511 . S
C521 H535 0.961 . S
C521 H536 0.961 . S
C521 H537 0.961 . S
C522 C523 1.370 . S
C522 C524 1.363 . S
C522 H538 0.931 . S
C523 C522 1.370 . S
C523 C527 1.408 . S
C524 C522 1.363 . S
C524 C525 1.370 . S
C524 C528 1.524 . S
C525 C517 1.503 . S
C525 C524 1.370 . S
C525 C526 1.403 . S
C526 C525 1.403 . S
C526 C527 1.404 . S
C526 C529 1.539 . S
C527 C523 1.408 . S
C527 C526 1.404 . S
C527 H539 0.930 . S
C528 C524 1.524 . S
C528 H540 0.956 . S
C528 H541 0.961 . S
C528 H542 0.961 . S
C529 C526 1.539 . S
C529 H543 0.958 . S
C529 H544 0.961 . S
C529 H545 0.960 . S
H530 C514 0.931 . S
H531 C519 0.929 . S
H532 C520 0.960 . S
H533 C520 0.962 . S
H534 C520 0.960 . S
H535 C521 0.961 . S
H536 C521 0.961 . S
H537 C521 0.961 . S
H538 C522 0.931 . S
H539 C527 0.930 . S
H540 C528 0.956 . S
H541 C528 0.961 . S
H542 C528 0.961 . S
H543 C529 0.958 . S
H544 C529 0.961 . S
H545 C529 0.960 . S
C546 C547 1.391 . S
C546 C548 1.394 . S
C546 H562 0.931 . S
C547 C546 1.391 . S
C547 C551 1.376 . S
C548 C546 1.394 . S
C548 C549 1.369 . S
C548 C552 1.531 . S
C549 C548 1.369 . S
C549 C550 1.410 . S
C549 C557 1.503 . S
C550 C549 1.410 . S
C550 C551 1.392 . S
C550 C553 1.511 . S
C551 C547 1.376 . S
C551 C550 1.392 . S
C551 H563 0.929 . S
C552 C548 1.531 . S
C552 H564 0.960 . S
C552 H565 0.962 . S
C552 H566 0.960 . S
C553 C550 1.511 . S
C553 H567 0.961 . S
C553 H568 0.961 . S
C553 H569 0.961 . S
C554 C555 1.370 . S
C554 C556 1.363 . S
C554 H570 0.931 . S
C555 C554 1.370 . S
C555 C559 1.408 . S
C556 C554 1.363 . S
C556 C557 1.370 . S
C556 C560 1.524 . S
C557 C549 1.503 . S
C557 C556 1.370 . S
C557 C558 1.403 . S
C558 C557 1.403 . S
C558 C559 1.404 . S
C558 C561 1.539 . S
C559 C555 1.408 . S
C559 C558 1.404 . S
C559 H571 0.930 . S
C560 C556 1.524 . S
C560 H572 0.956 . S
C560 H573 0.961 . S
C560 H574 0.961 . S
C561 C558 1.539 . S
C561 H575 0.958 . S
C561 H576 0.961 . S
C561 H577 0.960 . S
H562 C546 0.931 . S
H563 C551 0.929 . S
H564 C552 0.960 . S
H565 C552 0.962 . S
H566 C552 0.960 . S
H567 C553 0.961 . S
H568 C553 0.961 . S
H569 C553 0.961 . S
H570 C554 0.931 . S
H571 C559 0.930 . S
H572 C560 0.956 . S
H573 C560 0.961 . S
H574 C560 0.961 . S
H575 C561 0.958 . S
H576 C561 0.961 . S
H577 C561 0.960 . S
C578 C579 1.391 . S
C578 C580 1.394 . S
C578 H594 0.931 . S
C579 C578 1.391 . S
C579 C583 1.376 . S
C580 C578 1.394 . S
C580 C581 1.369 . S
C580 C584 1.531 . S
C581 C580 1.369 . S
C581 C582 1.410 . S
C581 C589 1.503 . S
C582 C581 1.410 . S
C582 C583 1.392 . S
C582 C585 1.511 . S
C583 C579 1.376 . S
C583 C582 1.392 . S
C583 H595 0.929 . S
C584 C580 1.531 . S
C584 H596 0.960 . S
C584 H597 0.962 . S
C584 H598 0.960 . S
C585 C582 1.511 . S
C585 H599 0.961 . S
C585 H600 0.961 . S
C585 H601 0.961 . S
C586 C587 1.370 . S
C586 C588 1.363 . S
C586 H602 0.931 . S
C587 C586 1.370 . S
C587 C591 1.408 . S
C588 C586 1.363 . S
C588 C589 1.370 . S
C588 C592 1.524 . S
C589 C581 1.503 . S
C589 C588 1.370 . S
C589 C590 1.403 . S
C590 C589 1.403 . S
C590 C591 1.404 . S
C590 C593 1.539 . S
C591 C587 1.408 . S
C591 C590 1.404 . S
C591 H603 0.930 . S
C592 C588 1.524 . S
C592 H604 0.956 . S
C592 H605 0.961 . S
C592 H606 0.961 . S
C593 C590 1.539 . S
C593 H607 0.958 . S
C593 H608 0.961 . S
C593 H609 0.960 . S
H594 C578 0.931 . S
H595 C583 0.929 . S
H596 C584 0.960 . S
H597 C584 0.962 . S
H598 C584 0.960 . S
H599 C585 0.961 . S
H600 C585 0.961 . S
H601 C585 0.961 . S
H602 C586 0.931 . S
H603 C591 0.930 . S
H604 C592 0.956 . S
H605 C592 0.961 . S
H606 C592 0.961 . S
H607 C593 0.958 . S
H608 C593 0.961 . S
H609 C593 0.960 . S
C610 C611 1.391 . S
C610 C612 1.394 . S
C610 H626 0.931 . S
C611 C610 1.391 . S
C611 C615 1.376 . S
C612 C610 1.394 . S
C612 C613 1.369 . S
C612 C616 1.531 . S
C613 C612 1.369 . S
C613 C614 1.410 . S
C613 C621 1.503 . S
C614 C613 1.410 . S
C614 C615 1.392 . S
C614 C617 1.511 . S
C615 C611 1.376 . S
C615 C614 1.392 . S
C615 H627 0.929 . S
C616 C612 1.531 . S
C616 H628 0.960 . S
C616 H629 0.962 . S
C616 H630 0.960 . S
C617 C614 1.511 . S
C617 H631 0.961 . S
C617 H632 0.961 . S
C617 H633 0.961 . S
C618 C619 1.370 . S
C618 C620 1.363 . S
C618 H634 0.931 . S
C619 C618 1.370 . S
C619 C623 1.408 . S
C620 C618 1.363 . S
C620 C621 1.370 . S
C620 C624 1.524 . S
C621 C613 1.503 . S
C621 C620 1.370 . S
C621 C622 1.403 . S
C622 C621 1.403 . S
C622 C623 1.404 . S
C622 C625 1.539 . S
C623 C619 1.408 . S
C623 C622 1.404 . S
C623 H635 0.930 . S
C624 C620 1.524 . S
C624 H636 0.956 . S
C624 H637 0.961 . S
C624 H638 0.961 . S
C625 C622 1.539 . S
C625 H639 0.958 . S
C625 H640 0.961 . S
C625 H641 0.960 . S
H626 C610 0.931 . S
H627 C615 0.929 . S
H628 C616 0.960 . S
H629 C616 0.962 . S
H630 C616 0.960 . S
H631 C617 0.961 . S
H632 C617 0.961 . S
H633 C617 0.961 . S
H634 C618 0.931 . S
H635 C623 0.930 . S
H636 C624 0.956 . S
H637 C624 0.961 . S
H638 C624 0.961 . S
H639 C625 0.958 . S
H640 C625 0.961 . S
H641 C625 0.960 . S
C642 C643 1.391 . S
C642 C644 1.394 . S
C642 H658 0.931 . S
C643 C642 1.391 . S
C643 C647 1.376 . S
C644 C642 1.394 . S
C644 C645 1.369 . S
C644 C648 1.531 . S
C645 C644 1.369 . S
C645 C646 1.410 . S
C645 C653 1.503 . S
C646 C645 1.410 . S
C646 C647 1.392 . S
C646 C649 1.511 . S
C647 C643 1.376 . S
C647 C646 1.392 . S
C647 H659 0.929 . S
C648 C644 1.531 . S
C648 H660 0.960 . S
C648 H661 0.962 . S
C648 H662 0.960 . S
C649 C646 1.511 . S
C649 H663 0.961 . S
C649 H664 0.961 . S
C649 H665 0.961 . S
C650 C651 1.370 . S
C650 C652 1.363 . S
C650 H666 0.931 . S
C651 C650 1.370 . S
C651 C655 1.408 . S
C652 C650 1.363 . S
C652 C653 1.370 . S
C652 C656 1.524 . S
C653 C645 1.503 . S
C653 C652 1.370 . S
C653 C654 1.403 . S
C654 C653 1.403 . S
C654 C655 1.404 . S
C654 C657 1.539 . S
C655 C651 1.408 . S
C655 C654 1.404 . S
C655 H667 0.930 . S
C656 C652 1.524 . S
C656 H668 0.956 . S
C656 H669 0.961 . S
C656 H670 0.961 . S
C657 C654 1.539 . S
C657 H671 0.958 . S
C657 H672 0.961 . S
C657 H673 0.960 . S
H658 C642 0.931 . S
H659 C647 0.929 . S
H660 C648 0.960 . S
H661 C648 0.962 . S
H662 C648 0.960 . S
H663 C649 0.961 . S
H664 C649 0.961 . S
H665 C649 0.961 . S
H666 C650 0.931 . S
H667 C655 0.930 . S
H668 C656 0.956 . S
H669 C656 0.961 . S
H670 C656 0.961 . S
H671 C657 0.958 . S
H672 C657 0.961 . S
H673 C657 0.960 . S
C674 C675 1.391 . S
C674 C676 1.394 . S
C674 H690 0.931 . S
C675 C674 1.391 . S
C675 C679 1.376 . S
C676 C674 1.394 . S
C676 C677 1.369 . S
C676 C680 1.531 . S
C677 C676 1.369 . S
C677 C678 1.410 . S
C677 C685 1.503 . S
C678 C677 1.410 . S
C678 C679 1.392 . S
C678 C681 1.511 . S
C679 C675 1.376 . S
C679 C678 1.392 . S
C679 H691 0.929 . S
C680 C676 1.531 . S
C680 H692 0.960 . S
C680 H693 0.962 . S
C680 H694 0.960 . S
C681 C678 1.511 . S
C681 H695 0.961 . S
C681 H696 0.961 . S
C681 H697 0.961 . S
C682 C683 1.370 . S
C682 C684 1.363 . S
C682 H698 0.931 . S
C683 C682 1.370 . S
C683 C687 1.408 . S
C684 C682 1.363 . S
C684 C685 1.370 . S
C684 C688 1.524 . S
C685 C677 1.503 . S
C685 C684 1.370 . S
C685 C686 1.403 . S
C686 C685 1.403 . S
C686 C687 1.404 . S
C686 C689 1.539 . S
C687 C683 1.408 . S
C687 C686 1.404 . S
C687 H699 0.930 . S
C688 C684 1.524 . S
C688 H700 0.956 . S
C688 H701 0.961 . S
C688 H702 0.961 . S
C689 C686 1.539 . S
C689 H703 0.958 . S
C689 H704 0.961 . S
C689 H705 0.960 . S
H690 C674 0.931 . S
H691 C679 0.929 . S
H692 C680 0.960 . S
H693 C680 0.962 . S
H694 C680 0.960 . S
H695 C681 0.961 . S
H696 C681 0.961 . S
H697 C681 0.961 . S
H698 C682 0.931 . S
H699 C687 0.930 . S
H700 C688 0.956 . S
H701 C688 0.961 . S
H702 C688 0.961 . S
H703 C689 0.958 . S
H704 C689 0.961 . S
H705 C689 0.960 . S
C706 C707 1.391 . S
C706 C708 1.394 . S
C706 H722 0.931 . S
C707 C706 1.391 . S
C707 C711 1.376 . S
C708 C706 1.394 . S
C708 C709 1.369 . S
C708 C712 1.531 . S
C709 C708 1.369 . S
C709 C710 1.410 . S
C709 C717 1.503 . S
C710 C709 1.410 . S
C710 C711 1.392 . S
C710 C713 1.511 . S
C711 C707 1.376 . S
C711 C710 1.392 . S
C711 H723 0.929 . S
C712 C708 1.531 . S
C712 H724 0.960 . S
C712 H725 0.962 . S
C712 H726 0.960 . S
C713 C710 1.511 . S
C713 H727 0.961 . S
C713 H728 0.961 . S
C713 H729 0.961 . S
C714 C715 1.370 . S
C714 C716 1.363 . S
C714 H730 0.931 . S
C715 C714 1.370 . S
C715 C719 1.408 . S
C716 C714 1.363 . S
C716 C717 1.370 . S
C716 C720 1.524 . S
C717 C709 1.503 . S
C717 C716 1.370 . S
C717 C718 1.403 . S
C718 C717 1.403 . S
C718 C719 1.404 . S
C718 C721 1.539 . S
C719 C715 1.408 . S
C719 C718 1.404 . S
C719 H731 0.930 . S
C720 C716 1.524 . S
C720 H732 0.956 . S
C720 H733 0.961 . S
C720 H734 0.961 . S
C721 C718 1.539 . S
C721 H735 0.958 . S
C721 H736 0.961 . S
C721 H737 0.960 . S
H722 C706 0.931 . S
H723 C711 0.929 . S
H724 C712 0.960 . S
H725 C712 0.962 . S
H726 C712 0.960 . S
H727 C713 0.961 . S
H728 C713 0.961 . S
H729 C713 0.961 . S
H730 C714 0.931 . S
H731 C719 0.930 . S
H732 C720 0.956 . S
H733 C720 0.961 . S
H734 C720 0.961 . S
H735 C721 0.958 . S
H736 C721 0.961 . S
H737 C721 0.960 . S
C738 C739 1.391 . S
C738 C740 1.394 . S
C738 H754 0.931 . S
C739 C738 1.391 . S
C739 C743 1.376 . S
C740 C738 1.394 . S
C740 C741 1.369 . S
C740 C744 1.531 . S
C741 C740 1.369 . S
C741 C742 1.410 . S
C741 C749 1.503 . S
C742 C741 1.410 . S
C742 C743 1.392 . S
C742 C745 1.511 1_455 S
C743 C739 1.376 . S
C743 C742 1.392 . S
C743 H755 0.929 . S
C744 C740 1.531 . S
C744 H756 0.960 . S
C744 H757 0.962 . S
C744 H758 0.960 . S
C745 C742 1.511 1_655 S
C745 H759 0.961 . S
C745 H760 0.961 1_655 S
C745 H761 0.961 . S
C746 C747 1.370 . S
C746 C748 1.363 . S
C746 H762 0.931 . S
C747 C746 1.370 . S
C747 C751 1.408 . S
C748 C746 1.363 . S
C748 C749 1.370 . S
C748 C752 1.524 . S
C749 C741 1.503 . S
C749 C748 1.370 . S
C749 C750 1.403 . S
C750 C749 1.403 . S
C750 C751 1.404 . S
C750 C753 1.539 1_455 S
C751 C747 1.408 . S
C751 C750 1.404 . S
C751 H763 0.930 1_454 S
C752 C748 1.524 . S
C752 H764 0.956 . S
C752 H765 0.961 . S
C752 H766 0.961 . S
C753 C750 1.539 1_655 S
C753 H767 0.958 . S
C753 H768 0.961 . S
C753 H769 0.960 . S
H754 C738 0.931 . S
H755 C743 0.929 . S
H756 C744 0.960 . S
H757 C744 0.962 . S
H758 C744 0.960 . S
H759 C745 0.961 . S
H760 C745 0.961 1_455 S
H761 C745 0.961 . S
H762 C746 0.931 . S
H763 C751 0.930 1_656 S
H764 C752 0.956 . S
H765 C752 0.961 . S
H766 C752 0.961 . S
H767 C753 0.958 . S
H768 C753 0.961 . S
H769 C753 0.960 . S
C770 C771 1.408 . S
C770 C772 1.394 . S
C770 H786 0.912 1_545 S
C771 C770 1.408 . S
C771 C775 1.376 . S
C772 C770 1.394 . S
C772 C773 1.383 . S
C772 C776 1.517 1_545 S
C773 C772 1.383 . S
C773 C774 1.410 . S
C773 C781 1.503 . S
C774 C773 1.410 . S
C774 C775 1.392 . S
C774 C777 1.511 . S
C775 C771 1.376 . S
C775 C774 1.392 . S
C775 H787 0.929 . S
C776 C772 1.517 1_565 S
C776 H788 0.960 . S
C776 H789 0.962 1_565 S
C776 H790 0.960 . S
C777 C774 1.511 . S
C777 H791 0.961 . S
C777 H792 0.961 . S
C777 H793 0.961 . S
C778 C779 1.370 . S
C778 C780 1.363 . S
C778 H794 0.931 . S
C779 C778 1.370 . S
C779 C783 1.408 1_545 S
C780 C778 1.363 . S
C780 C781 1.370 . S
C780 C784 1.524 . S
C781 C773 1.503 . S
C781 C780 1.370 . S
C781 C782 1.403 1_545 S
C782 C781 1.403 1_565 S
C782 C783 1.404 . S
C782 C785 1.539 . S
C783 C779 1.408 1_565 S
C783 C782 1.404 . S
C783 H795 0.930 . S
C784 C780 1.524 . S
C784 H796 0.956 . S
C784 H797 0.961 . S
C784 H798 0.961 . S
C785 C782 1.539 . S
C785 H799 0.958 . S
C785 H800 0.961 . S
C785 H801 0.960 . S
H786 C770 0.912 1_565 S
H787 C775 0.929 . S
H788 C776 0.960 . S
H789 C776 0.962 1_545 S
H790 C776 0.960 . S
H791 C777 0.961 . S
H792 C777 0.961 . S
H793 C777 0.961 . S
H794 C778 0.931 . S
H795 C783 0.930 . S
H796 C784 0.956 . S
H797 C784 0.961 . S
H798 C784 0.961 . S
H799 C785 0.958 . S
H800 C785 0.961 . S
H801 C785 0.960 . S
C802 C803 1.391 . S
C802 C804 1.394 . S
C802 H818 0.931 . S
C803 C802 1.391 . S
C803 C807 1.376 . S
C804 C802 1.394 . S
C804 C805 1.369 . S
C804 C808 1.531 . S
C805 C804 1.369 . S
C805 C806 1.410 . S
C805 C813 1.503 . S
C806 C805 1.410 . S
C806 C807 1.392 . S
C806 C809 1.511 . S
C807 C803 1.376 . S
C807 C806 1.392 . S
C807 H819 0.929 . S
C808 C804 1.531 . S
C808 H820 0.960 . S
C808 H821 0.962 . S
C808 H822 0.960 . S
C809 C806 1.511 . S
C809 H823 0.961 . S
C809 H824 0.961 . S
C809 H825 0.961 . S
C810 C811 1.370 . S
C810 C812 1.363 . S
C810 H826 0.931 . S
C811 C810 1.370 . S
C811 C815 1.408 . S
C812 C810 1.363 . S
C812 C813 1.370 . S
C812 C816 1.524 . S
C813 C805 1.503 . S
C813 C812 1.370 . S
C813 C814 1.403 . S
C814 C813 1.403 . S
C814 C815 1.404 . S
C814 C817 1.539 . S
C815 C811 1.408 . S
C815 C814 1.404 . S
C815 H827 0.930 . S
C816 C812 1.524 . S
C816 H828 0.956 . S
C816 H829 0.961 . S
C816 H830 0.961 . S
C817 C814 1.539 . S
C817 H831 0.958 . S
C817 H832 0.961 . S
C817 H833 0.960 . S
H818 C802 0.931 . S
H819 C807 0.929 . S
H820 C808 0.960 . S
H821 C808 0.962 . S
H822 C808 0.960 . S
H823 C809 0.961 . S
H824 C809 0.961 . S
H825 C809 0.961 . S
H826 C810 0.931 . S
H827 C815 0.930 . S
H828 C816 0.956 . S
H829 C816 0.961 . S
H830 C816 0.961 . S
H831 C817 0.958 . S
H832 C817 0.961 . S
H833 C817 0.960 . S
C834 C835 1.391 . S
C834 C836 1.394 . S
C834 H850 0.931 . S
C835 C834 1.391 . S
C835 C839 1.376 1_545 S
C836 C834 1.394 . S
C836 C837 1.369 . S
C836 C840 1.531 . S
C837 C836 1.369 . S
C837 C838 1.410 1_545 S
C837 C845 1.503 . S
C838 C837 1.410 1_565 S
C838 C839 1.392 . S
C838 C841 1.511 . S
C839 C835 1.376 1_565 S
C839 C838 1.392 . S
C839 H851 0.929 . S
C840 C836 1.531 . S
C840 H852 0.960 . S
C840 H853 0.962 . S
C840 H854 0.960 . S
C841 C838 1.511 . S
C841 H855 0.961 . S
C841 H856 0.961 . S
C841 H857 0.961 . S
C842 C843 1.370 . S
C842 C844 1.363 . S
C842 H858 0.931 . S
C843 C842 1.370 . S
C843 C847 1.408 1_565 S
C844 C842 1.363 . S
C844 C845 1.370 1_565 S
C844 C848 1.524 . S
C845 C837 1.503 . S
C845 C844 1.370 1_545 S
C845 C846 1.403 . S
C846 C845 1.403 . S
C846 C847 1.404 . S
C846 C849 1.539 . S
C847 C843 1.408 1_545 S
C847 C846 1.404 . S
C847 H859 0.930 . S
C848 C844 1.524 . S
C848 H860 0.956 . S
C848 H861 0.961 . S
C848 H862 0.961 . S
C849 C846 1.539 . S
C849 H863 0.958 . S
C849 H864 0.961 . S
C849 H865 0.960 . S
H850 C834 0.931 . S
H851 C839 0.929 . S
H852 C840 0.960 . S
H853 C840 0.962 . S
H854 C840 0.960 . S
H855 C841 0.961 . S
H856 C841 0.961 . S
H857 C841 0.961 . S
H858 C842 0.931 . S
H859 C847 0.930 . S
H860 C848 0.956 . S
H861 C848 0.961 . S
H862 C848 0.961 . S
H863 C849 0.958 . S
H864 C849 0.961 . S
H865 C849 0.960 . S
C866 C867 1.391 . S
C866 C868 1.394 . S
C866 H882 0.931 . S
C867 C866 1.391 . S
C867 C871 1.376 . S
C868 C866 1.394 . S
C868 C869 1.369 . S
C868 C872 1.531 . S
C869 C868 1.369 . S
C869 C870 1.410 . S
C869 C877 1.503 . S
C870 C869 1.410 . S
C870 C871 1.392 . S
C870 C873 1.511 . S
C871 C867 1.376 . S
C871 C870 1.392 . S
C871 H883 0.929 . S
C872 C868 1.531 . S
C872 H884 0.960 . S
C872 H885 0.962 . S
C872 H886 0.960 . S
C873 C870 1.511 . S
C873 H887 0.961 . S
C873 H888 0.961 . S
C873 H889 0.961 . S
C874 C875 1.370 . S
C874 C876 1.363 . S
C874 H890 0.931 . S
C875 C874 1.370 . S
C875 C879 1.408 . S
C876 C874 1.363 . S
C876 C877 1.370 . S
C876 C880 1.524 . S
C877 C869 1.503 . S
C877 C876 1.370 . S
C877 C878 1.403 . S
C878 C877 1.403 . S
C878 C879 1.404 . S
C878 C881 1.539 . S
C879 C875 1.408 . S
C879 C878 1.404 . S
C879 H891 0.930 . S
C880 C876 1.524 . S
C880 H892 0.956 . S
C880 H893 0.961 . S
C880 H894 0.961 . S
C881 C878 1.539 . S
C881 H895 0.958 . S
C881 H896 0.961 . S
C881 H897 0.960 . S
H882 C866 0.931 . S
H883 C871 0.929 . S
H884 C872 0.960 . S
H885 C872 0.962 . S
H886 C872 0.960 . S
H887 C873 0.961 . S
H888 C873 0.961 . S
H889 C873 0.961 . S
H890 C874 0.931 . S
H891 C879 0.930 . S
H892 C880 0.956 . S
H893 C880 0.961 . S
H894 C880 0.961 . S
H895 C881 0.958 . S
H896 C881 0.961 . S
H897 C881 0.960 . S
C898 C899 1.391 1_655 S
C898 C900 1.394 . S
C898 H914 0.931 . S
C899 C898 1.391 1_455 S
C899 C903 1.376 . S
C900 C898 1.394 . S
C900 C901 1.369 1_655 S
C900 C904 1.531 . S
C901 C900 1.369 1_455 S
C901 C902 1.410 . S
C901 C909 1.503 . S
C902 C901 1.410 . S
C902 C903 1.392 . S
C902 C905 1.511 . S
C903 C899 1.376 . S
C903 C902 1.392 . S
C903 H915 0.929 . S
C904 C900 1.531 . S
C904 H916 0.960 . S
C904 H917 0.962 . S
C904 H918 0.960 . S
C905 C902 1.511 . S
C905 H919 0.961 . S
C905 H920 0.961 . S
C905 H921 0.961 . S
C906 C907 1.370 1_655 S
C906 C908 1.363 . S
C906 H922 0.931 . S
C907 C906 1.370 1_455 S
C907 C911 1.408 . S
C908 C906 1.363 . S
C908 C909 1.370 1_655 S
C908 C912 1.524 . S
C909 C901 1.503 . S
C909 C908 1.370 1_455 S
C909 C910 1.403 . S
C910 C909 1.403 . S
C910 C911 1.404 . S
C910 C913 1.539 . S
C911 C907 1.408 . S
C911 C910 1.404 . S
C911 H923 0.930 . S
C912 C908 1.524 . S
C912 H924 0.956 . S
C912 H925 0.961 1_655 S
C912 H926 0.961 . S
C913 C910 1.539 . S
C913 H927 0.958 . S
C913 H928 0.961 . S
C913 H929 0.960 . S
H914 C898 0.931 . S
H915 C903 0.929 . S
H916 C904 0.960 . S
H917 C904 0.962 . S
H918 C904 0.960 . S
H919 C905 0.961 . S
H920 C905 0.961 . S
H921 C905 0.961 . S
H922 C906 0.931 . S
H923 C911 0.930 . S
H924 C912 0.956 . S
H925 C912 0.961 1_455 S
H926 C912 0.961 . S
H927 C913 0.958 . S
H928 C913 0.961 . S
H929 C913 0.960 . S
C355 C7 0.627 . S
C363 C331 0.680 . S
C387 C51 1.927 . S
C395 C258 1.875 . S
C419 C87 1.212 . S
C427 C297 1.242 . S
C451 C16 0.495 . S
C459 C336 0.322 . S
C491 C253 2.011 . S
C483 C42 2.059 . S
C523 C292 1.329 . S
C515 C96 1.321 . S
C547 C47 1.201 . S
C555 C180 1.219 . S
C579 C91 3.125 . S
C587 C214 3.082 . S
C611 C2 2.082 . S
C619 C136 2.052 . S
C651 C175 1.322 . S
C643 C56 1.304 . S
C683 C219 2.951 . S
C675 C82 2.985 . S
C707 C11 1.922 . S
C715 C141 1.877 . S
C747 C199 1.773 1_554 S
C739 C19 1.703 . S
C771 C50 1.338 . S
C779 C121 1.382 . S
C803 C99 1.487 . S
C811 C160 1.515 . S
C843 C277 1.492 . S
C835 C59 1.424 . S
C875 C316 1.125 1_556 S
C867 C90 1.135 . S
C899 C10 1.305 . S
C907 C238 1.371 1_455 S
