# Generated by pormake.
# Topology nom, (4,4)-cn, num edge types: 1
# Building blocks:
#     Node 0, Type 0, BuildingBlock: MIFKUJ_clean_linker_1, # of connection points: 4
#     Node 1, Type 0, BuildingBlock: MIFKUJ_clean_linker_1, # of connection points: 4
#     Node 2, Type 0, BuildingBlock: MIFKUJ_clean_linker_1, # of connection points: 4
#     Node 3, Type 0, BuildingBlock: MIFKUJ_clean_linker_1, # of connection points: 4
#     Node 4, Type 0, BuildingBlock: MIFKUJ_clean_linker_1, # of connection points: 4
#     Node 5, Type 0, BuildingBlock: MIFKUJ_clean_linker_1, # of connection points: 4
#     Node 6, Type 1, BuildingBlock: QUQFOY_clean_sbu_1, # of connection points: 4
#     Node 7, Type 1, BuildingBlock: QUQFOY_clean_sbu_1, # of connection points: 4
#     Node 8, Type 1, BuildingBlock: QUQFOY_clean_sbu_1, # of connection points: 4
#     Node 9, Type 1, BuildingBlock: QUQFOY_clean_sbu_1, # of connection points: 4
#     Node 10, Type 1, BuildingBlock: QUQFOY_clean_sbu_1, # of connection points: 4
#     Node 11, Type 1, BuildingBlock: QUQFOY_clean_sbu_1, # of connection points: 4
#     Edge 12, Type (0, 1), None
#     Edge 13, Type (0, 1), None
#     Edge 14, Type (0, 1), None
#     Edge 15, Type (0, 1), None
#     Edge 16, Type (0, 1), None
#     Edge 17, Type (0, 1), None
#     Edge 18, Type (0, 1), None
#     Edge 19, Type (0, 1), None
#     Edge 20, Type (0, 1), None
#     Edge 21, Type (0, 1), None
#     Edge 22, Type (0, 1), None
#     Edge 23, Type (0, 1), None
#     Edge 24, Type (0, 1), None
#     Edge 25, Type (0, 1), None
#     Edge 26, Type (0, 1), None
#     Edge 27, Type (0, 1), None
#     Edge 28, Type (0, 1), None
#     Edge 29, Type (0, 1), None
#     Edge 30, Type (0, 1), None
#     Edge 31, Type (0, 1), None
#     Edge 32, Type (0, 1), None
#     Edge 33, Type (0, 1), None
#     Edge 34, Type (0, 1), None
#     Edge 35, Type (0, 1), None
# Relax obj value: 0.014
# Max RMSD: 0.125
# Mean RMSD: 0.113
data_MOF--net-nom--node1-QUQFOY_clean_sbu_1--node2-MIFKUJ_clean_linker_1--edge1-none
_symmetry_space_group_name_H-M    P1
_symmetry_Int_Tables_number       1
_symmetry_cell_setting            triclinic
loop_
_symmetry_equiv_pos_as_xyz
'x, y, z'
_cell_length_a     30.371293
_cell_length_b     30.336746
_cell_length_c     28.988706
_cell_angle_alpha  90.003637
_cell_angle_beta   89.997356
_cell_angle_gamma 120.00774
loop_
_atom_site_label
_atom_site_type_symbol
_atom_site_fract_x
_atom_site_fract_y
_atom_site_fract_z
_atom_type_partial_charge
H0 H 0.94458 0.40563 0.24527 0.0
H1 H 0.87815 0.37259 0.18614 0.0
H2 H 0.85963 0.50389 0.20458 0.0
H3 H 0.92578 0.53615 0.26415 0.0
H4 H 0.03858 0.52389 0.23752 0.0
H5 H 0.88623 0.40025 0.3367 0.0
H6 H 0.80097 0.38183 0.36036 0.0
H7 H 0.8645 0.53666 0.40861 0.0
H8 H 0.94899 0.55455 0.38522 0.0
H9 H 0.12107 0.63497 0.38162 0.0
H10 H 0.18722 0.6693 0.44116 0.0
H11 H 0.17306 0.52092 0.45652 0.0
H12 H 0.10662 0.48708 0.3974 0.0
H13 H 1.01046 0.51095 0.40677 0.0
H14 H 0.09999 0.62985 0.25917 0.0
H15 H 0.18444 0.69651 0.23565 0.0
H16 H 0.24797 0.60518 0.28353 0.0
H17 H 0.16274 0.53827 0.30734 0.0
C18 C 0.94003 0.47331 0.25871 0.0
C19 C 0.92568 0.42686 0.23684 0.0
C20 C 0.88754 0.40796 0.20327 0.0
C21 C 0.86368 0.43569 0.19051 0.0
C22 C 0.87732 0.48165 0.21352 0.0
C23 C 0.9151 0.50022 0.24747 0.0
C24 C 0.98266 0.49457 0.29186 0.0
C25 C 0.0325 0.51985 0.27453 0.0
C26 C 0.97454 0.49312 0.33994 0.0
C27 C 0.92385 0.47882 0.35906 0.0
C28 C 0.88172 0.42988 0.353 0.0
C29 C 0.83313 0.4194 0.36666 0.0
C30 C 0.82603 0.45792 0.38608 0.0
C31 C 0.86865 0.50624 0.39357 0.0
C32 C 0.91704 0.51647 0.38043 0.0
C33 C 0.109 0.55856 0.38554 0.0
C34 C 0.1327 0.61014 0.39764 0.0
C35 C 0.1705 0.62962 0.43156 0.0
C36 C 0.18535 0.5978 0.45373 0.0
C37 C 0.1627 0.54651 0.4401 0.0
C38 C 0.12457 0.52701 0.40652 0.0
C39 C 0.06635 0.53681 0.35245 0.0
C40 C 0.01653 0.51254 0.36977 0.0
C41 C 0.07448 0.54283 0.30435 0.0
C42 C 0.12513 0.57923 0.28515 0.0
C43 C 0.13193 0.62372 0.26386 0.0
C44 C 0.1803 0.66193 0.25064 0.0
C45 C 0.22291 0.65623 0.25799 0.0
C46 C 0.21582 0.61058 0.27735 0.0
C47 C 0.16725 0.57243 0.29109 0.0
H48 H 0.4171 0.94564 0.55241 0.0
H49 H 0.35005 0.86141 0.5761 0.0
H50 H 0.43927 0.79618 0.52668 0.0
H51 H 0.5066 0.8812 0.50272 0.0
H52 H 0.52202 1.00639 0.57308 0.0
H53 H 0.41094 0.92089 0.43152 0.0
H54 H 0.37653 0.85472 0.37192 0.0
H55 H 0.52626 0.87403 0.3515 0.0
H56 H 0.56018 0.94048 0.41069 0.0
H57 H 0.64575 0.15916 0.47418 0.0
H58 H 0.66355 0.24425 0.45026 0.0
H59 H 0.50921 0.17933 0.4008 0.0
H60 H 0.49192 0.09502 0.42443 0.0
H61 H 0.53604 0.03409 0.40379 0.0
H62 H 0.63993 0.10005 0.5661 0.0
H63 H 0.6724 0.16648 0.6253 0.0
H64 H 0.54189 0.18568 0.60502 0.0
H65 H 0.51019 0.11952 0.54541 0.0
C66 C 0.46672 0.91966 0.52564 0.0
C67 C 0.4227 0.91338 0.54743 0.0
C68 C 0.38426 0.86513 0.56074 0.0
C69 C 0.38924 0.82211 0.553 0.0
C70 C 0.43443 0.82866 0.53317 0.0
C71 C 0.47282 0.87711 0.51934 0.0
C72 C 0.50331 0.97025 0.50633 0.0
C73 C 0.52625 0.01237 0.53607 0.0
C74 C 0.5097 0.97826 0.45822 0.0
C75 C 0.48802 0.93552 0.42513 0.0
C76 C 0.43607 0.91037 0.41442 0.0
C77 C 0.41655 0.87258 0.38044 0.0
C78 C 0.44869 0.85917 0.35685 0.0
C79 C 0.50042 0.88325 0.36908 0.0
C80 C 0.51995 0.92138 0.40269 0.0
C81 C 0.56746 0.12085 0.45122 0.0
C82 C 0.6161 0.16333 0.45754 0.0
C83 C 0.62623 0.21182 0.44374 0.0
C84 C 0.58764 0.21848 0.42392 0.0
C85 C 0.53966 0.17553 0.41615 0.0
C86 C 0.52979 0.12724 0.42943 0.0
C87 C 0.55339 0.07023 0.47053 0.0
C88 C 0.53422 0.0281 0.4408 0.0
C89 C 0.55167 0.06221 0.51865 0.0
C90 C 0.57269 0.10495 0.55173 0.0
C91 C 0.61877 0.11911 0.57413 0.0
C92 C 0.63734 0.15725 0.60775 0.0
C93 C 0.60964 0.18129 0.62002 0.0
C94 C 0.56408 0.16785 0.59647 0.0
C95 C 0.54584 0.13007 0.56249 0.0
H96 H 0.55907 0.63491 0.73169 0.0
H97 H 0.52558 0.66782 0.79089 0.0
H98 H 0.37583 0.53675 0.77197 0.0
H99 H 0.40981 0.50462 0.71234 0.0
H100 H 0.53475 0.51666 0.73918 0.0
H101 H 0.50615 0.64056 0.64021 0.0
H102 H 0.43928 0.65897 0.61659 0.0
H103 H 0.34835 0.50429 0.5679 0.0
H104 H 0.41498 0.4864 0.59125 0.0
H105 H 0.50741 0.40557 0.59602 0.0
H106 H 0.53939 0.37129 0.53652 0.0
H107 H 0.67194 0.52043 0.51927 0.0
H108 H 0.63919 0.55421 0.57833 0.0
H109 H 0.52006 0.53009 0.56994 0.0
H110 H 0.49044 0.41096 0.71776 0.0
H111 H 0.50822 0.34426 0.74133 0.0
H112 H 0.66288 0.43524 0.69304 0.0
H113 H 0.64457 0.50218 0.66917 0.0
C114 C 0.48688 0.56736 0.71801 0.0
C115 C 0.51893 0.61371 0.74003 0.0
C116 C 0.49964 0.63253 0.77363 0.0
C117 C 0.44804 0.60482 0.78629 0.0
C118 C 0.41576 0.55897 0.76312 0.0
C119 C 0.43503 0.54048 0.72914 0.0
C120 C 0.5083 0.54614 0.68486 0.0
C121 C 0.53279 0.52078 0.70218 0.0
C122 C 0.50176 0.54773 0.63677 0.0
C123 C 0.46539 0.56206 0.61763 0.0
C124 C 0.47209 0.61097 0.62381 0.0
C125 C 0.43396 0.62143 0.61018 0.0
C126 C 0.38843 0.58295 0.59066 0.0
C127 C 0.38284 0.53468 0.58303 0.0
C128 C 0.42103 0.52446 0.59615 0.0
C129 C 0.57091 0.48235 0.59115 0.0
C130 C 0.54355 0.43058 0.5796 0.0
C131 C 0.56196 0.41114 0.5457 0.0
C132 C 0.60819 0.44317 0.52303 0.0
C133 C 0.63634 0.49467 0.53611 0.0
C134 C 0.61762 0.51414 0.56965 0.0
C135 C 0.54989 0.504 0.62426 0.0
C136 C 0.52442 0.52838 0.60694 0.0
C137 C 0.55185 0.49783 0.67236 0.0
C138 C 0.5661 0.4614 0.69157 0.0
C139 C 0.52847 0.417 0.71299 0.0
C140 C 0.53862 0.37878 0.72624 0.0
C141 C 0.58686 0.38437 0.7188 0.0
C142 C 0.62537 0.42993 0.6993 0.0
C143 C 0.61496 0.46809 0.68553 0.0
H144 H 0.10468 0.63483 0.74529 0.0
H145 H 0.17111 0.66787 0.68615 0.0
H146 H 0.18963 0.53658 0.70456 0.0
H147 H 0.12348 0.50431 0.76413 0.0
H148 H 1.01068 0.51657 0.73752 0.0
H149 H 0.16303 0.64021 0.83671 0.0
H150 H 0.24828 0.65863 0.86038 0.0
H151 H 0.18474 0.5038 0.90862 0.0
H152 H 0.10026 0.48591 0.88522 0.0
H153 H 0.92818 0.40549 0.88161 0.0
H154 H 0.86202 0.37116 0.94115 0.0
H155 H 0.87621 0.51955 0.95654 0.0
H156 H 0.94265 0.55339 0.89742 0.0
H157 H 0.03879 0.52951 0.90677 0.0
H158 H 0.94926 0.41061 0.75916 0.0
H159 H 0.8648 0.34395 0.73565 0.0
H160 H 0.80129 0.4353 0.78355 0.0
H161 H 0.88653 0.5022 0.80735 0.0
C162 C 0.10923 0.56715 0.75871 0.0
C163 C 0.12358 0.6136 0.73685 0.0
C164 C 0.16172 0.6325 0.70328 0.0
C165 C 0.18558 0.60477 0.6905 0.0
C166 C 0.17194 0.55881 0.71351 0.0
C167 C 0.13416 0.54025 0.74746 0.0
C168 C 0.0666 0.54589 0.79186 0.0
C169 C 0.01676 0.52061 0.77453 0.0
C170 C 0.07472 0.54734 0.83993 0.0
C171 C 0.12541 0.56163 0.85905 0.0
C172 C 0.16754 0.61058 0.85301 0.0
C173 C 0.21612 0.62106 0.86667 0.0
C174 C 0.22322 0.58254 0.88609 0.0
C175 C 0.1806 0.53422 0.89358 0.0
C176 C 0.13221 0.52399 0.88043 0.0
C177 C 0.94026 0.4819 0.88554 0.0
C178 C 0.91655 0.43032 0.89763 0.0
C179 C 0.87875 0.41084 0.93155 0.0
C180 C 0.86391 0.44266 0.95373 0.0
C181 C 0.88657 0.49396 0.94011 0.0
C182 C 0.92469 0.51346 0.90653 0.0
C183 C 0.98291 0.50365 0.85245 0.0
C184 C 0.03273 0.52792 0.86977 0.0
C185 C 0.97478 0.49763 0.80435 0.0
C186 C 0.92413 0.46123 0.78515 0.0
C187 C 0.91732 0.41674 0.76385 0.0
C188 C 0.86895 0.37854 0.75064 0.0
C189 C 0.82634 0.38424 0.75799 0.0
C190 C 0.83344 0.42989 0.77736 0.0
C191 C 0.88201 0.46804 0.79109 0.0
H192 H 0.63214 0.09482 0.0524 0.0
H193 H 0.6992 0.17905 0.07609 0.0
H194 H 0.60999 0.24429 0.02669 0.0
H195 H 0.54266 0.15928 0.00272 0.0
H196 H 0.52723 0.03409 0.07308 0.0
H197 H 0.6383 0.11957 0.93152 0.0
H198 H 0.67271 0.18574 0.87192 0.0
H199 H 0.52299 0.16644 0.85152 0.0
H200 H 0.48907 0.09999 0.9107 0.0
H201 H 0.40349 0.88131 0.97418 0.0
H202 H 0.38569 0.79621 0.95028 0.0
H203 H 0.54004 0.86113 0.90081 0.0
H204 H 0.55732 0.94544 0.92443 0.0
H205 H 0.5132 1.00637 0.90379 0.0
H206 H 0.40931 0.94043 0.06611 0.0
H207 H 0.37685 0.87399 0.1253 0.0
H208 H 0.50736 0.85479 0.10501 0.0
H209 H 0.53906 0.92095 0.0454 0.0
C210 C 0.58253 0.12081 0.02564 0.0
C211 C 0.62655 0.12709 0.04742 0.0
C212 C 0.66499 0.17534 0.06073 0.0
C213 C 0.66002 0.21836 0.053 0.0
C214 C 0.61483 0.21181 0.03318 0.0
C215 C 0.57643 0.16336 0.01935 0.0
C216 C 0.54593 0.07022 0.00633 0.0
C217 C 0.52299 0.0281 0.03607 0.0
C218 C 0.53954 0.06221 0.95822 0.0
C219 C 0.56122 0.10495 0.92513 0.0
C220 C 0.61317 0.1301 0.91442 0.0
C221 C 0.63269 0.16789 0.88044 0.0
C222 C 0.60055 0.1813 0.85686 0.0
C223 C 0.54883 0.15722 0.8691 0.0
C224 C 0.52929 0.11908 0.9027 0.0
C225 C 0.48178 0.91962 0.95122 0.0
C226 C 0.43314 0.87714 0.95755 0.0
C227 C 0.42302 0.82864 0.94376 0.0
C228 C 0.4616 0.82198 0.92394 0.0
C229 C 0.50959 0.86493 0.91616 0.0
C230 C 0.51945 0.91322 0.92944 0.0
C231 C 0.49585 0.97024 0.97053 0.0
C232 C 0.51502 0.01236 0.9408 0.0
C233 C 0.49758 0.97826 0.01865 0.0
C234 C 0.47655 0.93552 0.05173 0.0
C235 C 0.43048 0.92136 0.07414 0.0
C236 C 0.41191 0.88323 0.10775 0.0
C237 C 0.43961 0.85919 0.12002 0.0
C238 C 0.48517 0.87262 0.09646 0.0
C239 C 0.5034 0.91041 0.06248 0.0
H240 H 0.49017 0.40555 0.23169 0.0
H241 H 0.52366 0.37264 0.29088 0.0
H242 H 0.67341 0.50371 0.27196 0.0
H243 H 0.63943 0.53584 0.21234 0.0
H244 H 0.51449 0.5238 0.23918 0.0
H245 H 0.54309 0.3999 0.1402 0.0
H246 H 0.60997 0.38149 0.11659 0.0
H247 H 0.7009 0.53617 0.06792 0.0
H248 H 0.63427 0.55405 0.09126 0.0
H249 H 0.54184 0.63489 0.09602 0.0
H250 H 0.50986 0.66916 0.03653 0.0
H251 H 0.3773 0.52003 0.01928 0.0
H252 H 0.41005 0.48624 0.07833 0.0
H253 H 0.52919 0.51036 0.06994 0.0
H254 H 0.5588 0.6295 0.21776 0.0
H255 H 0.54103 0.69621 0.24131 0.0
H256 H 0.38637 0.60522 0.19303 0.0
H257 H 0.40467 0.53827 0.16917 0.0
C258 C 0.56237 0.4731 0.21801 0.0
C259 C 0.53031 0.42675 0.24002 0.0
C260 C 0.54961 0.40793 0.27363 0.0
C261 C 0.60121 0.43564 0.28628 0.0
C262 C 0.63348 0.48149 0.26311 0.0
C263 C 0.61421 0.49998 0.22913 0.0
C264 C 0.54094 0.49431 0.18486 0.0
C265 C 0.51645 0.51968 0.20218 0.0
C266 C 0.54749 0.49273 0.13677 0.0
C267 C 0.58386 0.4784 0.11763 0.0
C268 C 0.57716 0.42949 0.12381 0.0
C269 C 0.61529 0.41903 0.11019 0.0
C270 C 0.66083 0.45751 0.09067 0.0
C271 C 0.66641 0.50578 0.08304 0.0
C272 C 0.62822 0.516 0.09615 0.0
C273 C 0.47834 0.55811 0.09115 0.0
C274 C 0.5057 0.60987 0.0796 0.0
C275 C 0.48729 0.62932 0.04571 0.0
C276 C 0.44105 0.59729 0.02304 0.0
C277 C 0.41291 0.54578 0.03612 0.0
C278 C 0.43163 0.52632 0.06965 0.0
C279 C 0.49936 0.53645 0.12426 0.0
C280 C 0.52482 0.51207 0.10694 0.0
C281 C 0.49739 0.54262 0.17236 0.0
C282 C 0.48314 0.57906 0.19156 0.0
C283 C 0.52078 0.62346 0.21298 0.0
C284 C 0.51062 0.66169 0.22623 0.0
C285 C 0.46238 0.6561 0.21879 0.0
C286 C 0.42387 0.61054 0.19929 0.0
C287 C 0.43428 0.57236 0.18553 0.0
O288 O 0.59318 0.38216 0.46452 0.0
Cd289 Cd 0.60581 0.35108 0.40631 0.0
Cd290 Cd 0.69306 0.43851 0.4033 0.0
O291 O 0.66833 0.45192 0.4655 0.0
O292 O 0.55709 0.2766 0.40991 0.0
O293 O 0.64051 0.30956 0.41328 0.0
C294 C 0.59558 0.26992 0.41464 0.0
C295 C 0.77446 0.44952 0.39523 0.0
C296 C 0.62459 0.42422 0.48322 0.0
C297 C 0.62006 0.41932 0.32619 0.0
O298 O 0.66203 0.45084 0.34491 0.0
O299 O 0.59239 0.37557 0.34399 0.0
O300 O 0.76735 0.48779 0.3998 0.0
O301 O 0.73511 0.40437 0.39662 0.0
O302 O 0.23129 0.58975 0.6318 0.0
Cd303 Cd 0.27478 0.60226 0.57346 0.0
Cd304 Cd 0.27477 0.68962 0.57065 0.0
O305 O 0.23689 0.66503 0.63296 0.0
O306 O 0.2999 0.55303 0.57687 0.0
O307 O 0.35094 0.63645 0.58026 0.0
C308 C 0.34522 0.59131 0.58153 0.0
C309 C 0.34572 0.77072 0.56232 0.0
C310 C 0.22081 0.62121 0.65063 0.0
C311 C 0.22061 0.61668 0.49359 0.0
O312 O 0.23106 0.65862 0.51244 0.0
O313 O 0.23682 0.58904 0.51119 0.0
O314 O 0.3006 0.76414 0.56712 0.0
O315 O 0.35095 0.73102 0.56363 0.0
O316 O 0.66193 0.22719 0.79866 0.0
Cd317 Cd 0.6934 0.27057 0.74034 0.0
Cd318 Cd 0.60605 0.2706 0.73654 0.0
O319 O 0.59211 0.23243 0.7988 0.0
O320 O 0.76764 0.29561 0.74433 0.0
O321 O 0.73548 0.34684 0.74701 0.0
C322 C 0.77478 0.34103 0.74872 0.0
C323 C 0.59518 0.34112 0.72811 0.0
C324 C 0.61972 0.21652 0.81697 0.0
C325 C 0.62567 0.2165 0.65992 0.0
O326 O 0.59414 0.22719 0.67823 0.0
O327 O 0.66918 0.2324 0.67809 0.0
O328 O 0.5569 0.29573 0.73254 0.0
O329 O 0.64027 0.34687 0.72983 0.0
O330 O 0.45607 0.6583 0.96454 0.0
Cd331 Cd 0.44343 0.68938 0.90633 0.0
Cd332 Cd 0.35618 0.60194 0.90332 0.0
O333 O 0.38091 0.58854 0.96552 0.0
O334 O 0.49216 0.76386 0.90993 0.0
O335 O 0.40873 0.73089 0.91331 0.0
C336 C 0.45367 0.77054 0.91466 0.0
C337 C 0.27479 0.59094 0.89525 0.0
C338 C 0.42466 0.61623 0.98323 0.0
C339 C 0.42918 0.62114 0.82621 0.0
O340 O 0.38721 0.58962 0.84492 0.0
O341 O 0.45686 0.66489 0.84401 0.0
O342 O 0.2819 0.55266 0.89981 0.0
O343 O 0.31413 0.63609 0.89665 0.0
O344 O 0.8182 0.38184 0.01244 0.0
Cd345 Cd 0.77449 0.35084 0.07065 0.0
Cd346 Cd 0.77448 0.4382 0.07347 0.0
O347 O 0.81245 0.45143 0.0112 0.0
O348 O 0.74866 0.27633 0.06711 0.0
O349 O 0.69831 0.30946 0.06364 0.0
C350 C 0.70354 0.26975 0.06232 0.0
C351 C 0.70404 0.44915 0.08155 0.0
C352 C 0.82865 0.42379 0.9936 0.0
C353 C 0.82845 0.41925 0.15063 0.0
O354 O 0.81797 0.45072 0.13182 0.0
O355 O 0.81237 0.37543 0.13296 0.0
O356 O 0.74936 0.48744 0.07689 0.0
O357 O 0.69832 0.40401 0.08027 0.0
O358 O 0.45511 0.81328 0.17821 0.0
Cd359 Cd 0.44319 0.76988 0.23652 0.0
Cd360 Cd 0.35585 0.7699 0.24033 0.0
O361 O 0.38007 0.80807 0.17808 0.0
O362 O 0.49234 0.74475 0.23251 0.0
O363 O 0.40898 0.6936 0.22981 0.0
C364 C 0.45407 0.69935 0.22809 0.0
C365 C 0.27447 0.69944 0.24871 0.0
C366 C 0.42358 0.82397 0.15991 0.0
C367 C 0.42952 0.82395 0.31695 0.0
O368 O 0.38732 0.81328 0.29865 0.0
O369 O 0.45713 0.80804 0.29878 0.0
O370 O 0.28161 0.74486 0.24433 0.0
O371 O 0.31377 0.69363 0.24699 0.0
loop_
_geom_bond_atom_site_label_1
_geom_bond_atom_site_label_2
_geom_bond_distance
_geom_bond_site_symmetry_2
_ccdc_geom_bond_type
H0 C19 0.949 . S
H1 C20 0.950 . S
H2 C22 0.950 . S
H3 C23 0.950 . S
H4 C25 0.950 . S
H5 C28 0.950 . S
H6 C29 0.950 . S
H7 C31 0.951 . S
H8 C32 0.949 . S
H9 C34 0.949 . S
H10 C35 0.950 . S
H11 C37 0.950 . S
H12 C38 0.950 . S
H13 C40 0.950 . S
H14 C43 0.950 . S
H15 C44 0.950 . S
H16 C46 0.951 . S
H17 C47 0.949 . S
C18 C19 1.376 . S
C18 C23 1.386 . S
C18 C24 1.483 . S
C19 H0 0.949 . S
C19 C18 1.376 . S
C19 C20 1.397 . S
C20 H1 0.950 . S
C20 C19 1.397 . S
C20 C21 1.391 . S
C21 C20 1.391 . S
C21 C22 1.405 . S
C22 H2 0.950 . S
C22 C21 1.405 . S
C22 C23 1.367 . S
C23 H3 0.950 . S
C23 C18 1.386 . S
C23 C22 1.367 . S
C24 C18 1.483 . S
C24 C25 1.382 1_655 S
C24 C26 1.403 . S
C25 H4 0.950 . S
C25 C24 1.382 1_455 S
C25 C41 1.411 . S
C26 C24 1.403 . S
C26 C27 1.489 . S
C26 C40 1.411 . S
C27 C26 1.489 . S
C27 C28 1.383 . S
C27 C32 1.382 . S
C28 H5 0.950 . S
C28 C27 1.383 . S
C28 C29 1.395 . S
C29 H6 0.950 . S
C29 C28 1.395 . S
C29 C30 1.288 . S
C30 C29 1.288 . S
C30 C31 1.392 . S
C31 H7 0.951 . S
C31 C30 1.392 . S
C31 C32 1.392 . S
C32 H8 0.949 . S
C32 C27 1.382 . S
C32 C31 1.392 . S
C33 C34 1.376 . S
C33 C38 1.386 . S
C33 C39 1.483 . S
C34 H9 0.949 . S
C34 C33 1.376 . S
C34 C35 1.397 . S
C35 H10 0.950 . S
C35 C34 1.397 . S
C35 C36 1.391 . S
C36 C35 1.391 . S
C36 C37 1.405 . S
C37 H11 0.950 . S
C37 C36 1.405 . S
C37 C38 1.367 . S
C38 H12 0.950 . S
C38 C33 1.386 . S
C38 C37 1.367 . S
C39 C33 1.483 . S
C39 C40 1.382 1_455 S
C39 C41 1.403 . S
C40 H13 0.950 . S
C40 C26 1.411 . S
C40 C39 1.382 1_655 S
C41 C25 1.411 . S
C41 C39 1.403 . S
C41 C42 1.489 . S
C42 C41 1.489 . S
C42 C43 1.383 . S
C42 C47 1.382 . S
C43 H14 0.950 . S
C43 C42 1.383 . S
C43 C44 1.395 . S
C44 H15 0.950 . S
C44 C43 1.395 . S
C44 C45 1.288 . S
C45 C44 1.288 . S
C45 C46 1.392 . S
C46 H16 0.951 . S
C46 C45 1.392 . S
C46 C47 1.392 . S
C47 H17 0.949 . S
C47 C42 1.382 . S
C47 C46 1.392 . S
H48 C67 0.949 . S
H49 C68 0.950 . S
H50 C70 0.950 . S
H51 C71 0.950 . S
H52 C73 0.950 . S
H53 C76 0.950 . S
H54 C77 0.950 . S
H55 C79 0.951 . S
H56 C80 0.949 . S
H57 C82 0.949 . S
H58 C83 0.950 . S
H59 C85 0.950 . S
H60 C86 0.950 . S
H61 C88 0.950 . S
H62 C91 0.950 . S
H63 C92 0.950 . S
H64 C94 0.951 . S
H65 C95 0.949 . S
C66 C67 1.376 . S
C66 C71 1.386 . S
C66 C72 1.483 . S
C67 H48 0.949 . S
C67 C66 1.376 . S
C67 C68 1.397 . S
C68 H49 0.950 . S
C68 C67 1.397 . S
C68 C69 1.391 . S
C69 C68 1.391 . S
C69 C70 1.405 . S
C70 H50 0.950 . S
C70 C69 1.405 . S
C70 C71 1.367 . S
C71 H51 0.950 . S
C71 C66 1.386 . S
C71 C70 1.367 . S
C72 C66 1.483 . S
C72 C73 1.382 . S
C72 C74 1.403 . S
C73 H52 0.950 . S
C73 C72 1.382 . S
C73 C89 1.411 1_565 S
C74 C72 1.403 . S
C74 C75 1.489 . S
C74 C88 1.411 1_565 S
C75 C74 1.489 . S
C75 C76 1.383 . S
C75 C80 1.382 . S
C76 H53 0.950 . S
C76 C75 1.383 . S
C76 C77 1.395 . S
C77 H54 0.950 . S
C77 C76 1.395 . S
C77 C78 1.288 . S
C78 C77 1.288 . S
C78 C79 1.392 . S
C79 H55 0.951 . S
C79 C78 1.392 . S
C79 C80 1.392 . S
C80 H56 0.949 . S
C80 C75 1.382 . S
C80 C79 1.392 . S
C81 C82 1.376 . S
C81 C86 1.386 . S
C81 C87 1.483 . S
C82 H57 0.949 . S
C82 C81 1.376 . S
C82 C83 1.397 . S
C83 H58 0.950 . S
C83 C82 1.397 . S
C83 C84 1.391 . S
C84 C83 1.391 . S
C84 C85 1.405 . S
C85 H59 0.950 . S
C85 C84 1.405 . S
C85 C86 1.367 . S
C86 H60 0.950 . S
C86 C81 1.386 . S
C86 C85 1.367 . S
C87 C81 1.483 . S
C87 C88 1.382 . S
C87 C89 1.403 . S
C88 H61 0.950 . S
C88 C74 1.411 1_545 S
C88 C87 1.382 . S
C89 C73 1.411 1_545 S
C89 C87 1.403 . S
C89 C90 1.489 . S
C90 C89 1.489 . S
C90 C91 1.383 . S
C90 C95 1.382 . S
C91 H62 0.950 . S
C91 C90 1.383 . S
C91 C92 1.395 . S
C92 H63 0.950 . S
C92 C91 1.395 . S
C92 C93 1.288 . S
C93 C92 1.288 . S
C93 C94 1.392 . S
C94 H64 0.951 . S
C94 C93 1.392 . S
C94 C95 1.392 . S
C95 H65 0.949 . S
C95 C90 1.382 . S
C95 C94 1.392 . S
H96 C115 0.949 . S
H97 C116 0.950 . S
H98 C118 0.950 . S
H99 C119 0.950 . S
H100 C121 0.950 . S
H101 C124 0.950 . S
H102 C125 0.950 . S
H103 C127 0.951 . S
H104 C128 0.949 . S
H105 C130 0.949 . S
H106 C131 0.950 . S
H107 C133 0.950 . S
H108 C134 0.950 . S
H109 C136 0.950 . S
H110 C139 0.950 . S
H111 C140 0.950 . S
H112 C142 0.951 . S
H113 C143 0.949 . S
C114 C115 1.376 . S
C114 C119 1.386 . S
C114 C120 1.483 . S
C115 H96 0.949 . S
C115 C114 1.376 . S
C115 C116 1.397 . S
C116 H97 0.950 . S
C116 C115 1.397 . S
C116 C117 1.391 . S
C117 C116 1.391 . S
C117 C118 1.405 . S
C118 H98 0.950 . S
C118 C117 1.405 . S
C118 C119 1.367 . S
C119 H99 0.950 . S
C119 C114 1.386 . S
C119 C118 1.367 . S
C120 C114 1.483 . S
C120 C121 1.382 . S
C120 C122 1.403 . S
C121 H100 0.950 . S
C121 C120 1.382 . S
C121 C137 1.411 . S
C122 C120 1.403 . S
C122 C123 1.489 . S
C122 C136 1.411 . S
C123 C122 1.489 . S
C123 C124 1.383 . S
C123 C128 1.382 . S
C124 H101 0.950 . S
C124 C123 1.383 . S
C124 C125 1.395 . S
C125 H102 0.950 . S
C125 C124 1.395 . S
C125 C126 1.288 . S
C126 C125 1.288 . S
C126 C127 1.392 . S
C127 H103 0.951 . S
C127 C126 1.392 . S
C127 C128 1.392 . S
C128 H104 0.949 . S
C128 C123 1.382 . S
C128 C127 1.392 . S
C129 C130 1.376 . S
C129 C134 1.386 . S
C129 C135 1.483 . S
C130 H105 0.949 . S
C130 C129 1.376 . S
C130 C131 1.397 . S
C131 H106 0.950 . S
C131 C130 1.397 . S
C131 C132 1.391 . S
C132 C131 1.391 . S
C132 C133 1.405 . S
C133 H107 0.950 . S
C133 C132 1.405 . S
C133 C134 1.367 . S
C134 H108 0.950 . S
C134 C129 1.386 . S
C134 C133 1.367 . S
C135 C129 1.483 . S
C135 C136 1.382 . S
C135 C137 1.403 . S
C136 H109 0.950 . S
C136 C122 1.411 . S
C136 C135 1.382 . S
C137 C121 1.411 . S
C137 C135 1.403 . S
C137 C138 1.489 . S
C138 C137 1.489 . S
C138 C139 1.383 . S
C138 C143 1.382 . S
C139 H110 0.950 . S
C139 C138 1.383 . S
C139 C140 1.395 . S
C140 H111 0.950 . S
C140 C139 1.395 . S
C140 C141 1.288 . S
C141 C140 1.288 . S
C141 C142 1.392 . S
C142 H112 0.951 . S
C142 C141 1.392 . S
C142 C143 1.392 . S
C143 H113 0.949 . S
C143 C138 1.382 . S
C143 C142 1.392 . S
H144 C163 0.949 . S
H145 C164 0.950 . S
H146 C166 0.950 . S
H147 C167 0.950 . S
H148 C169 0.950 . S
H149 C172 0.950 . S
H150 C173 0.950 . S
H151 C175 0.951 . S
H152 C176 0.949 . S
H153 C178 0.949 . S
H154 C179 0.950 . S
H155 C181 0.950 . S
H156 C182 0.950 . S
H157 C184 0.950 . S
H158 C187 0.950 . S
H159 C188 0.950 . S
H160 C190 0.951 . S
H161 C191 0.949 . S
C162 C163 1.376 . S
C162 C167 1.386 . S
C162 C168 1.483 . S
C163 H144 0.949 . S
C163 C162 1.376 . S
C163 C164 1.397 . S
C164 H145 0.950 . S
C164 C163 1.397 . S
C164 C165 1.391 . S
C165 C164 1.391 . S
C165 C166 1.405 . S
C166 H146 0.950 . S
C166 C165 1.405 . S
C166 C167 1.367 . S
C167 H147 0.950 . S
C167 C162 1.386 . S
C167 C166 1.367 . S
C168 C162 1.483 . S
C168 C169 1.382 1_455 S
C168 C170 1.403 . S
C169 H148 0.950 . S
C169 C168 1.382 1_655 S
C169 C185 1.411 . S
C170 C168 1.403 . S
C170 C171 1.489 . S
C170 C184 1.411 . S
C171 C170 1.489 . S
C171 C172 1.383 . S
C171 C176 1.382 . S
C172 H149 0.950 . S
C172 C171 1.383 . S
C172 C173 1.395 . S
C173 H150 0.950 . S
C173 C172 1.395 . S
C173 C174 1.288 . S
C174 C173 1.288 . S
C174 C175 1.392 . S
C175 H151 0.951 . S
C175 C174 1.392 . S
C175 C176 1.392 . S
C176 H152 0.949 . S
C176 C171 1.382 . S
C176 C175 1.392 . S
C177 C178 1.376 . S
C177 C182 1.386 . S
C177 C183 1.483 . S
C178 H153 0.949 . S
C178 C177 1.376 . S
C178 C179 1.397 . S
C179 H154 0.950 . S
C179 C178 1.397 . S
C179 C180 1.391 . S
C180 C179 1.391 . S
C180 C181 1.405 . S
C181 H155 0.950 . S
C181 C180 1.405 . S
C181 C182 1.367 . S
C182 H156 0.950 . S
C182 C177 1.386 . S
C182 C181 1.367 . S
C183 C177 1.483 . S
C183 C184 1.382 1_655 S
C183 C185 1.403 . S
C184 H157 0.950 . S
C184 C170 1.411 . S
C184 C183 1.382 1_455 S
C185 C169 1.411 . S
C185 C183 1.403 . S
C185 C186 1.489 . S
C186 C185 1.489 . S
C186 C187 1.383 . S
C186 C191 1.382 . S
C187 H158 0.950 . S
C187 C186 1.383 . S
C187 C188 1.395 . S
C188 H159 0.950 . S
C188 C187 1.395 . S
C188 C189 1.288 . S
C189 C188 1.288 . S
C189 C190 1.392 . S
C190 H160 0.951 . S
C190 C189 1.392 . S
C190 C191 1.392 . S
C191 H161 0.949 . S
C191 C186 1.382 . S
C191 C190 1.392 . S
H192 C211 0.949 . S
H193 C212 0.950 . S
H194 C214 0.950 . S
H195 C215 0.950 1_556 S
H196 C217 0.950 . S
H197 C220 0.950 . S
H198 C221 0.950 . S
H199 C223 0.951 . S
H200 C224 0.949 . S
H201 C226 0.949 . S
H202 C227 0.950 . S
H203 C229 0.950 . S
H204 C230 0.941 1_554 S
H205 C232 0.950 . S
H206 C235 0.950 . S
H207 C236 0.950 . S
H208 C238 0.951 . S
H209 C239 0.949 . S
C210 C211 1.376 . S
C210 C215 1.386 . S
C210 C216 1.483 . S
C211 H192 0.949 . S
C211 C210 1.376 . S
C211 C212 1.397 . S
C212 H193 0.950 . S
C212 C211 1.397 . S
C212 C213 1.391 . S
C213 C212 1.391 . S
C213 C214 1.405 . S
C214 H194 0.950 . S
C214 C213 1.405 . S
C214 C215 1.367 . S
C215 H195 0.950 1_554 S
C215 C210 1.386 . S
C215 C214 1.367 . S
C216 C210 1.483 . S
C216 C217 1.382 . S
C216 C218 1.403 1_554 S
C217 H196 0.950 . S
C217 C216 1.382 . S
C217 C233 1.411 1_545 S
C218 C216 1.403 1_556 S
C218 C219 1.489 . S
C218 C232 1.411 1_545 S
C219 C218 1.489 . S
C219 C220 1.383 . S
C219 C224 1.382 . S
C220 H197 0.950 . S
C220 C219 1.383 . S
C220 C221 1.395 . S
C221 H198 0.950 . S
C221 C220 1.395 . S
C221 C222 1.288 . S
C222 C221 1.288 . S
C222 C223 1.392 . S
C223 H199 0.951 . S
C223 C222 1.392 . S
C223 C224 1.392 . S
C224 H200 0.949 . S
C224 C219 1.382 . S
C224 C223 1.392 . S
C225 C226 1.376 . S
C225 C230 1.386 . S
C225 C231 1.483 . S
C226 H201 0.949 . S
C226 C225 1.376 . S
C226 C227 1.397 . S
C227 H202 0.950 . S
C227 C226 1.397 . S
C227 C228 1.391 . S
C228 C227 1.391 . S
C228 C229 1.405 . S
C229 H203 0.950 . S
C229 C228 1.405 . S
C229 C230 1.367 . S
C230 H204 0.941 1_556 S
C230 C225 1.386 . S
C230 C229 1.367 . S
C231 C225 1.483 . S
C231 C232 1.382 . S
C231 C233 1.403 1_556 S
C232 H205 0.950 . S
C232 C218 1.411 1_565 S
C232 C231 1.382 . S
C233 C217 1.411 1_565 S
C233 C231 1.403 1_554 S
C233 C234 1.489 . S
C234 C233 1.489 . S
C234 C235 1.383 . S
C234 C239 1.382 . S
C235 H206 0.950 . S
C235 C234 1.383 . S
C235 C236 1.395 . S
C236 H207 0.950 . S
C236 C235 1.395 . S
C236 C237 1.288 . S
C237 C236 1.288 . S
C237 C238 1.392 . S
C238 H208 0.951 . S
C238 C237 1.392 . S
C238 C239 1.392 . S
C239 H209 0.949 . S
C239 C234 1.382 . S
C239 C238 1.392 . S
H240 C259 0.949 . S
H241 C260 0.950 . S
H242 C262 0.950 . S
H243 C263 0.950 . S
H244 C265 0.950 . S
H245 C268 0.950 . S
H246 C269 0.950 . S
H247 C271 0.951 . S
H248 C272 0.949 . S
H249 C274 0.949 . S
H250 C275 0.950 1_556 S
H251 C277 0.950 . S
H252 C278 0.950 . S
H253 C280 0.950 . S
H254 C283 0.950 . S
H255 C284 0.950 . S
H256 C286 0.951 . S
H257 C287 0.949 . S
C258 C259 1.376 . S
C258 C263 1.386 . S
C258 C264 1.483 . S
C259 H240 0.949 . S
C259 C258 1.376 . S
C259 C260 1.397 . S
C260 H241 0.950 . S
C260 C259 1.397 . S
C260 C261 1.391 . S
C261 C260 1.391 . S
C261 C262 1.405 . S
C262 H242 0.950 . S
C262 C261 1.405 . S
C262 C263 1.367 . S
C263 H243 0.950 . S
C263 C258 1.386 . S
C263 C262 1.367 . S
C264 C258 1.483 . S
C264 C265 1.382 . S
C264 C266 1.403 . S
C265 H244 0.950 . S
C265 C264 1.382 . S
C265 C281 1.411 . S
C266 C264 1.403 . S
C266 C267 1.489 . S
C266 C280 1.411 . S
C267 C266 1.489 . S
C267 C268 1.383 . S
C267 C272 1.382 . S
C268 H245 0.950 . S
C268 C267 1.383 . S
C268 C269 1.395 . S
C269 H246 0.950 . S
C269 C268 1.395 . S
C269 C270 1.288 . S
C270 C269 1.288 . S
C270 C271 1.392 . S
C271 H247 0.951 . S
C271 C270 1.392 . S
C271 C272 1.392 . S
C272 H248 0.949 . S
C272 C267 1.382 . S
C272 C271 1.392 . S
C273 C274 1.376 . S
C273 C278 1.386 . S
C273 C279 1.483 . S
C274 H249 0.949 . S
C274 C273 1.376 . S
C274 C275 1.397 . S
C275 H250 0.950 1_554 S
C275 C274 1.397 . S
C275 C276 1.391 . S
C276 C275 1.391 . S
C276 C277 1.405 . S
C277 H251 0.950 . S
C277 C276 1.405 . S
C277 C278 1.367 . S
C278 H252 0.950 . S
C278 C273 1.386 . S
C278 C277 1.367 . S
C279 C273 1.483 . S
C279 C280 1.382 . S
C279 C281 1.403 . S
C280 H253 0.950 . S
C280 C266 1.411 . S
C280 C279 1.382 . S
C281 C265 1.411 . S
C281 C279 1.403 . S
C281 C282 1.489 . S
C282 C281 1.489 . S
C282 C283 1.383 . S
C282 C287 1.382 . S
C283 H254 0.950 . S
C283 C282 1.383 . S
C283 C284 1.395 . S
C284 H255 0.950 . S
C284 C283 1.395 . S
C284 C285 1.288 . S
C285 C284 1.288 . S
C285 C286 1.392 . S
C286 H256 0.951 . S
C286 C285 1.392 . S
C286 C287 1.392 . S
C287 H257 0.949 . S
C287 C282 1.382 . S
C287 C286 1.392 . S
O288 Cd289 2.223 . S
O288 C296 1.315 . S
Cd289 O288 2.223 . S
Cd289 O292 2.297 . S
Cd289 O293 2.439 . S
Cd289 O299 2.240 . S
Cd290 O291 2.240 . S
Cd290 O298 2.223 . S
Cd290 O300 2.297 . S
Cd290 O301 2.439 . S
O291 Cd290 2.240 . S
O291 C296 1.279 . S
O292 Cd289 2.297 . S
O292 C294 1.247 . S
O293 Cd289 2.439 . S
O293 C294 1.208 . S
C294 O292 1.247 . S
C294 O293 1.208 . S
C295 O300 1.247 . S
C295 O301 1.208 . S
C296 O288 1.315 . S
C296 O291 1.279 . S
C297 O298 1.315 . S
C297 O299 1.279 . S
O298 Cd290 2.223 . S
O298 C297 1.315 . S
O299 Cd289 2.240 . S
O299 C297 1.279 . S
O300 Cd290 2.297 . S
O300 C295 1.247 . S
O301 Cd290 2.439 . S
O301 C295 1.208 . S
O302 Cd303 2.223 . S
O302 C310 1.315 . S
Cd303 O302 2.223 . S
Cd303 O306 2.297 . S
Cd303 O307 2.439 . S
Cd303 O313 2.240 . S
Cd304 O305 2.240 . S
Cd304 O312 2.223 . S
Cd304 O314 2.297 . S
Cd304 O315 2.439 . S
O305 Cd304 2.240 . S
O305 C310 1.279 . S
O306 Cd303 2.297 . S
O306 C308 1.247 . S
O307 Cd303 2.439 . S
O307 C308 1.208 . S
C308 O306 1.247 . S
C308 O307 1.208 . S
C309 O314 1.247 . S
C309 O315 1.208 . S
C310 O302 1.315 . S
C310 O305 1.279 . S
C311 O312 1.315 . S
C311 O313 1.279 . S
O312 Cd304 2.223 . S
O312 C311 1.315 . S
O313 Cd303 2.240 . S
O313 C311 1.279 . S
O314 Cd304 2.297 . S
O314 C309 1.247 . S
O315 Cd304 2.439 . S
O315 C309 1.208 . S
O316 Cd317 2.223 . S
O316 C324 1.315 . S
Cd317 O316 2.223 . S
Cd317 O320 2.297 . S
Cd317 O321 2.439 . S
Cd317 O327 2.240 . S
Cd318 O319 2.240 . S
Cd318 O326 2.223 . S
Cd318 O328 2.297 . S
Cd318 O329 2.439 . S
O319 Cd318 2.240 . S
O319 C324 1.279 . S
O320 Cd317 2.297 . S
O320 C322 1.247 . S
O321 Cd317 2.439 . S
O321 C322 1.208 . S
C322 O320 1.247 . S
C322 O321 1.208 . S
C323 O328 1.247 . S
C323 O329 1.208 . S
C324 O316 1.315 . S
C324 O319 1.279 . S
C325 O326 1.315 . S
C325 O327 1.279 . S
O326 Cd318 2.223 . S
O326 C325 1.315 . S
O327 Cd317 2.240 . S
O327 C325 1.279 . S
O328 Cd318 2.297 . S
O328 C323 1.247 . S
O329 Cd318 2.439 . S
O329 C323 1.208 . S
O330 Cd331 2.223 . S
O330 C338 1.315 . S
Cd331 O330 2.223 . S
Cd331 O334 2.297 . S
Cd331 O335 2.439 . S
Cd331 O341 2.240 . S
Cd332 O333 2.240 . S
Cd332 O340 2.223 . S
Cd332 O342 2.297 . S
Cd332 O343 2.439 . S
O333 Cd332 2.240 . S
O333 C338 1.279 . S
O334 Cd331 2.297 . S
O334 C336 1.247 . S
O335 Cd331 2.439 . S
O335 C336 1.208 . S
C336 O334 1.247 . S
C336 O335 1.208 . S
C337 O342 1.247 . S
C337 O343 1.208 . S
C338 O330 1.315 . S
C338 O333 1.279 . S
C339 O340 1.315 . S
C339 O341 1.279 . S
O340 Cd332 2.223 . S
O340 C339 1.315 . S
O341 Cd331 2.240 . S
O341 C339 1.279 . S
O342 Cd332 2.297 . S
O342 C337 1.247 . S
O343 Cd332 2.439 . S
O343 C337 1.208 . S
O344 Cd345 2.223 . S
O344 C352 1.315 . S
Cd345 O344 2.223 . S
Cd345 O348 2.297 . S
Cd345 O349 2.439 . S
Cd345 O355 2.240 . S
Cd346 O347 2.240 . S
Cd346 O354 2.223 . S
Cd346 O356 2.297 . S
Cd346 O357 2.439 . S
O347 Cd346 2.240 . S
O347 C352 1.279 . S
O348 Cd345 2.297 . S
O348 C350 1.247 . S
O349 Cd345 2.439 . S
O349 C350 1.208 . S
C350 O348 1.247 . S
C350 O349 1.208 . S
C351 O356 1.247 . S
C351 O357 1.208 . S
C352 O344 1.315 . S
C352 O347 1.279 . S
C353 O354 1.315 . S
C353 O355 1.279 . S
O354 Cd346 2.223 . S
O354 C353 1.315 . S
O355 Cd345 2.240 . S
O355 C353 1.279 . S
O356 Cd346 2.297 . S
O356 C351 1.247 . S
O357 Cd346 2.439 . S
O357 C351 1.208 . S
O358 Cd359 2.223 . S
O358 C366 1.315 . S
Cd359 O358 2.223 . S
Cd359 O362 2.297 . S
Cd359 O363 2.439 . S
Cd359 O369 2.240 . S
Cd360 O361 2.240 . S
Cd360 O368 2.223 . S
Cd360 O370 2.297 . S
Cd360 O371 2.439 . S
O361 Cd360 2.240 . S
O361 C366 1.279 . S
O362 Cd359 2.297 . S
O362 C364 1.247 . S
O363 Cd359 2.439 . S
O363 C364 1.208 . S
C364 O362 1.247 . S
C364 O363 1.208 . S
C365 O370 1.247 . S
C365 O371 1.208 . S
C366 O358 1.315 . S
C366 O361 1.279 . S
C367 O368 1.315 . S
C367 O369 1.279 . S
O368 Cd360 2.223 . S
O368 C367 1.315 . S
O369 Cd359 2.240 . S
O369 C367 1.279 . S
O370 Cd360 2.297 . S
O370 C365 1.247 . S
O371 Cd360 2.439 . S
O371 C365 1.208 . S
C365 C45 1.695 . S
C84 C294 1.642 . S
C126 C308 1.575 . S
C189 C322 1.693 . S
C336 C228 1.644 . S
C270 C351 1.574 . S
C69 C309 1.598 . S
C141 C323 1.695 . S
C174 C337 1.574 . S
C350 C213 1.599 . S
C364 C285 1.693 . S
C295 C30 1.576 . S
C36 C311 1.655 . S
C93 C325 1.688 . S
C339 C117 1.615 . S
C180 C352 1.656 1_556 S
C366 C237 1.686 . S
C297 C261 1.618 . S
C367 C78 1.581 . S
C132 C296 1.654 . S
C310 C165 1.617 . S
C222 C324 1.580 . S
C276 C338 1.657 1_554 S
C21 C353 1.616 . S
