# Generated by pormake.
# Topology rtl, (3,6)-cn, num edge types: 1
# Building blocks:
#     Node 0, Type 0, BuildingBlock: MIDCAF_clean_linker_0, # of connection points: 3
#     Node 1, Type 0, BuildingBlock: MIDCAF_clean_linker_0, # of connection points: 3
#     Node 2, Type 0, BuildingBlock: MIDCAF_clean_linker_0, # of connection points: 3
#     Node 3, Type 0, BuildingBlock: MIDCAF_clean_linker_0, # of connection points: 3
#     Node 4, Type 1, BuildingBlock: VOLQOD_clean_sbu_1, # of connection points: 6
#     Node 5, Type 1, BuildingBlock: VOLQOD_clean_sbu_1, # of connection points: 6
#     Edge 6, Type (0, 1), BuildingBlock: CIFDUS_clean_linker_0, # of connection points: 2
#     Edge 7, Type (0, 1), BuildingBlock: CIFDUS_clean_linker_0, # of connection points: 2
#     Edge 8, Type (0, 1), BuildingBlock: CIFDUS_clean_linker_0, # of connection points: 2
#     Edge 9, Type (0, 1), BuildingBlock: CIFDUS_clean_linker_0, # of connection points: 2
#     Edge 10, Type (0, 1), BuildingBlock: CIFDUS_clean_linker_0, # of connection points: 2
#     Edge 11, Type (0, 1), BuildingBlock: CIFDUS_clean_linker_0, # of connection points: 2
#     Edge 12, Type (0, 1), BuildingBlock: CIFDUS_clean_linker_0, # of connection points: 2
#     Edge 13, Type (0, 1), BuildingBlock: CIFDUS_clean_linker_0, # of connection points: 2
#     Edge 14, Type (0, 1), BuildingBlock: CIFDUS_clean_linker_0, # of connection points: 2
#     Edge 15, Type (0, 1), BuildingBlock: CIFDUS_clean_linker_0, # of connection points: 2
#     Edge 16, Type (0, 1), BuildingBlock: CIFDUS_clean_linker_0, # of connection points: 2
#     Edge 17, Type (0, 1), BuildingBlock: CIFDUS_clean_linker_0, # of connection points: 2
# Relax obj value: 0.080
# Max RMSD: 0.156
# Mean RMSD: 0.090
data_MOF--net-rtl--node1-VOLQOD_clean_sbu_1--node2-MIDCAF_clean_linker_0--edge1-CIFDUS_clean_linker_0
_symmetry_space_group_name_H-M    P1
_symmetry_Int_Tables_number       1
_symmetry_cell_setting            triclinic
loop_
_symmetry_equiv_pos_as_xyz
'x, y, z'
_cell_length_a     40.234141
_cell_length_b     34.774295
_cell_length_c     26.047832
_cell_angle_alpha  89.792221
_cell_angle_beta   90.079215
_cell_angle_gamma 90.09249
loop_
_atom_site_label
_atom_site_type_symbol
_atom_site_fract_x
_atom_site_fract_y
_atom_site_fract_z
_atom_type_partial_charge
C0 C 0.03324 0.76008 0.15708 0.0
C1 C 0.05514 0.76172 0.19902 0.0
C2 C 0.08593 0.74296 0.19589 0.0
C3 C 0.09535 0.7244 0.15074 0.0
H4 H 0.15976 0.64047 0.08652 0.0
H5 H 0.21297 0.6072 0.08199 0.0
H6 H 0.21937 0.63414 0.92018 0.0
H7 H 0.16599 0.66602 0.92417 0.0
H8 H 0.11893 0.72209 0.87508 0.0
H9 H 0.10243 0.7593 0.8 0.0
H10 H 0.01089 0.79067 0.8749 0.0
H11 H 0.02745 0.75374 0.95102 0.0
H12 H 0.02606 0.74273 0.07906 0.0
H13 H 0.00943 0.77453 0.15853 0.0
H14 H 0.10315 0.74374 0.22789 0.0
H15 H 0.1198 0.71148 0.14897 0.0
N16 N 0.11396 0.68813 0.05477 0.0
N17 N 0.11378 0.69323 0.96511 0.0
N18 N 0.07319 0.72512 0.01309 0.0
C19 C 0.12746 0.67877 0.00869 0.0
C20 C 0.08665 0.71626 0.96683 0.0
C21 C 0.08668 0.71111 0.05725 0.0
C22 C 0.15858 0.65612 0.00581 0.0
C23 C 0.17237 0.63895 0.04988 0.0
C24 C 0.20299 0.62006 0.04734 0.0
C25 C 0.22059 0.61815 0.00077 0.0
C26 C 0.20635 0.6345 0.95653 0.0
C27 C 0.17571 0.65307 0.95895 0.0
C28 C 0.07459 0.73513 0.91931 0.0
C29 C 0.09506 0.73643 0.87558 0.0
C30 C 0.08575 0.75786 0.83259 0.0
C31 C 0.05557 0.77793 0.83202 0.0
C32 C 0.03428 0.77529 0.87456 0.0
C33 C 0.04383 0.7543 0.91807 0.0
C34 C 0.07439 0.72489 0.10748 0.0
C35 C 0.04287 0.74208 0.11157 0.0
C36 C 0.56445 0.73966 0.36429 0.0
C37 C 0.58667 0.73738 0.3227 0.0
C38 C 0.61747 0.75641 0.32644 0.0
C39 C 0.62634 0.77572 0.37148 0.0
H40 H 0.67712 0.8749 0.43277 0.0
H41 H 0.72721 0.91458 0.43372 0.0
H42 H 0.74011 0.89064 0.5952 0.0
H43 H 0.69012 0.85097 0.59465 0.0
H44 H 0.63244 0.80605 0.65387 0.0
H45 H 0.61573 0.77227 0.73185 0.0
H46 H 0.55463 0.69569 0.64162 0.0
H47 H 0.57049 0.72988 0.56407 0.0
H48 H 0.55623 0.75847 0.44133 0.0
H49 H 0.54011 0.72641 0.36233 0.0
H50 H 0.63533 0.75509 0.29545 0.0
H51 H 0.65069 0.78894 0.37381 0.0
N52 N 0.64014 0.81883 0.4658 0.0
N53 N 0.63921 0.8164 0.55584 0.0
N54 N 0.60332 0.77719 0.50817 0.0
C55 C 0.65178 0.83156 0.51172 0.0
C56 C 0.61489 0.78925 0.55441 0.0
C57 C 0.61577 0.79183 0.46377 0.0
C58 C 0.67979 0.85928 0.51349 0.0
C59 C 0.69035 0.87844 0.46868 0.0
C60 C 0.71889 0.90144 0.46923 0.0
C61 C 0.73759 0.90542 0.51443 0.0
C62 C 0.72625 0.88774 0.55972 0.0
C63 C 0.69757 0.86508 0.55935 0.0
C64 C 0.60296 0.77068 0.60246 0.0
C65 C 0.61518 0.78225 0.65065 0.0
C66 C 0.60576 0.76272 0.69541 0.0
C67 C 0.58394 0.73113 0.69307 0.0
C68 C 0.57112 0.7202 0.64504 0.0
C69 C 0.58043 0.73975 0.60038 0.0
C70 C 0.60483 0.7759 0.41396 0.0
C71 C 0.57356 0.7583 0.40953 0.0
C72 C 0.94551 0.22706 0.8549 0.0
C73 C 0.92424 0.22011 0.81294 0.0
C74 C 0.89085 0.23187 0.81656 0.0
C75 C 0.87881 0.24867 0.86153 0.0
H76 H 0.81378 0.33913 0.92521 0.0
H77 H 0.76 0.37195 0.92852 0.0
H78 H 0.7468 0.33362 0.08493 0.0
H79 H 0.80031 0.30117 0.08214 0.0
H80 H 0.85491 0.25524 0.13704 0.0
H81 H 0.87559 0.22398 0.21405 0.0
H82 H 0.97022 0.20518 0.13979 0.0
H83 H 0.94885 0.23498 0.06166 0.0
H84 H 0.95013 0.24698 0.9323 0.0
H85 H 0.97157 0.21949 0.85321 0.0
H86 H 0.87353 0.22666 0.78551 0.0
H87 H 0.85272 0.25615 0.86357 0.0
N88 N 0.85731 0.28708 0.9556 0.0
N89 N 0.85759 0.28372 0.04551 0.0
N90 N 0.90029 0.25458 0.99868 0.0
C91 C 0.84317 0.29616 0.00134 0.0
C92 C 0.88618 0.2631 0.04461 0.0
C93 C 0.88595 0.26638 0.95402 0.0
C94 C 0.81131 0.31739 0.00332 0.0
C95 C 0.79946 0.33784 0.96036 0.0
C96 C 0.76882 0.35679 0.96229 0.0
C97 C 0.7493 0.35509 0.00689 0.0
C98 C 0.76129 0.33508 0.04994 0.0
C99 C 0.79203 0.31665 0.04832 0.0
C100 C 0.90013 0.24736 0.09296 0.0
C101 C 0.88024 0.24475 0.13718 0.0
C102 C 0.89222 0.22696 0.18163 0.0
C103 C 0.92458 0.21176 0.18331 0.0
C104 C 0.94492 0.21574 0.13964 0.0
C105 C 0.93275 0.23306 0.09487 0.0
C106 C 0.8997 0.2535 0.90431 0.0
C107 C 0.93331 0.24314 0.90021 0.0
C108 C 0.45973 0.29886 0.64908 0.0
C109 C 0.4464 0.28794 0.69671 0.0
C110 C 0.42573 0.25543 0.6995 0.0
C111 C 0.41702 0.23551 0.65485 0.0
H112 H 0.3519 0.15081 0.59497 0.0
H113 H 0.29881 0.11733 0.59996 0.0
H114 H 0.2766 0.15204 0.44408 0.0
H115 H 0.3302 0.18397 0.43843 0.0
H116 H 0.39299 0.21419 0.37004 0.0
H117 H 0.40865 0.24748 0.29072 0.0
H118 H 0.48132 0.31383 0.37432 0.0
H119 H 0.46608 0.28094 0.45326 0.0
H120 H 0.46138 0.28885 0.56841 0.0
H121 H 0.47609 0.32355 0.64606 0.0
H122 H 0.41511 0.24649 0.73584 0.0
H123 H 0.40001 0.21145 0.65795 0.0
N124 N 0.39005 0.20595 0.55931 0.0
N125 N 0.38887 0.20544 0.46917 0.0
N126 N 0.42909 0.24166 0.51262 0.0
C127 C 0.37611 0.19339 0.51483 0.0
C128 C 0.41563 0.22932 0.46777 0.0
C129 C 0.41658 0.23012 0.55853 0.0
C130 C 0.34526 0.17017 0.51636 0.0
C131 C 0.33582 0.15091 0.56158 0.0
C132 C 0.30523 0.13195 0.56456 0.0
C133 C 0.28316 0.13222 0.52262 0.0
C134 C 0.29306 0.15067 0.47695 0.0
C135 C 0.32384 0.16918 0.47374 0.0
C136 C 0.42787 0.24526 0.41835 0.0
C137 C 0.41267 0.23544 0.37143 0.0
C138 C 0.42169 0.25433 0.32593 0.0
C139 C 0.44586 0.28349 0.32668 0.0
C140 C 0.46227 0.2918 0.37291 0.0
C141 C 0.45349 0.27284 0.41815 0.0
C142 C 0.42912 0.24756 0.6067 0.0
C143 C 0.45136 0.27879 0.60463 0.0
O144 O 0.93355 0.00417 0.50804 0.0
Zn145 Zn 0.97633 0.03551 0.50369 0.0
O146 O 0.01554 0.00148 0.50469 0.0
Zn147 Zn 0.04376 0.01354 0.56358 0.0
Zn148 Zn 0.00152 0.9477 0.50886 0.0
Zn149 Zn 0.0414 0.00852 0.44225 0.0
O150 O 0.08857 0.03395 0.54189 0.0
O151 O 0.08696 0.02946 0.45701 0.0
O152 O 0.97668 0.07138 0.56516 0.0
O153 O 0.02188 0.05319 0.60787 0.0
O154 O 0.05128 0.96691 0.60809 0.0
O155 O 0.01938 0.92217 0.57243 0.0
O156 O 0.01664 0.91661 0.44761 0.0
O157 O 0.97496 0.06704 0.43799 0.0
O158 O 0.04762 0.95879 0.40492 0.0
O159 O 0.01838 0.04508 0.39432 0.0
C160 C 0.92837 0.96813 0.51277 0.0
C161 C 0.10225 0.03817 0.49817 0.0
C162 C 0.03921 0.93305 0.60761 0.0
C163 C 0.99601 0.07403 0.60384 0.0
C164 C 0.03585 0.92505 0.4104 0.0
C165 C 0.99297 0.06669 0.39772 0.0
O166 O 0.95223 0.9442 0.51362 0.0
O167 O 0.57836 0.5147 0.00406 0.0
Zn168 Zn 0.53784 0.54909 0.00952 0.0
O169 O 0.49711 0.51745 0.01271 0.0
Zn170 Zn 0.4683 0.52981 0.95467 0.0
Zn171 Zn 0.50764 0.46232 0.01174 0.0
Zn172 Zn 0.47344 0.52855 0.07574 0.0
O173 O 0.42255 0.54596 0.9778 0.0
O174 O 0.42773 0.54923 0.06251 0.0
O175 O 0.53703 0.58451 0.94754 0.0
O176 O 0.48783 0.57267 0.91217 0.0
O177 O 0.46331 0.48428 0.90809 0.0
O178 O 0.48894 0.43651 0.94859 0.0
O179 O 0.49098 0.43403 0.07503 0.0
O180 O 0.54319 0.58216 0.07363 0.0
O181 O 0.46847 0.48162 0.1193 0.0
O182 O 0.49829 0.56614 0.11842 0.0
C183 C 0.58198 0.47827 0.00541 0.0
C184 C 0.41053 0.55339 0.02187 0.0
C185 C 0.47236 0.44925 0.91047 0.0
C186 C 0.51526 0.59102 0.91298 0.0
C187 C 0.4762 0.44636 0.11491 0.0
C188 C 0.52518 0.58504 0.11369 0.0
O189 O 0.55711 0.45572 0.0092 0.0
H190 H 0.24839 0.09312 0.44926 0.0
H191 H 0.24173 0.13235 0.60606 0.0
H192 H 0.18596 0.10546 0.61289 0.0
H193 H 0.13825 0.07274 0.57365 0.0
H194 H 0.14369 0.03708 0.41526 0.0
H195 H 0.20042 0.0615 0.40957 0.0
C196 C 0.23469 0.09617 0.48483 0.0
C197 C 0.24947 0.11471 0.52706 0.0
C198 C 0.20223 0.08153 0.48816 0.0
C199 C 0.23139 0.11764 0.57312 0.0
C200 C 0.19929 0.10258 0.57698 0.0
C201 C 0.15186 0.07021 0.53791 0.0
C202 C 0.13667 0.0531 0.49499 0.0
C203 C 0.18439 0.08467 0.53466 0.0
C204 C 0.15466 0.05028 0.44888 0.0
C205 C 0.18717 0.06415 0.44558 0.0
H206 H 0.27006 0.62387 0.07177 0.0
H207 H 0.24726 0.57394 0.9243 0.0
H208 H 0.30413 0.55035 0.91729 0.0
H209 H 0.36066 0.5449 0.95228 0.0
H210 H 0.38251 0.59204 0.10167 0.0
H211 H 0.32549 0.61518 0.10894 0.0
C212 C 0.27728 0.60723 0.03849 0.0
C213 C 0.25437 0.60095 0.99851 0.0
C214 C 0.30991 0.59335 0.03492 0.0
C215 C 0.26448 0.57982 0.95529 0.0
C216 C 0.29698 0.56615 0.95131 0.0
C217 C 0.35295 0.56031 0.98638 0.0
C218 C 0.37586 0.56698 0.02618 0.0
C219 C 0.32 0.5731 0.99065 0.0
C220 C 0.36537 0.58652 0.07045 0.0
C221 C 0.33277 0.5998 0.07464 0.0
H222 H 0.79521 0.87735 0.55109 0.0
H223 H 0.75363 0.97588 0.47361 0.0
H224 H 0.80902 0.00527 0.46801 0.0
H225 H 0.86978 0.00158 0.48303 0.0
H226 H 0.91035 0.90065 0.55698 0.0
H227 H 0.85487 0.87377 0.56643 0.0
C228 C 0.79822 0.90553 0.53366 0.0
C229 C 0.77046 0.92463 0.51326 0.0
C230 C 0.83 0.92171 0.52972 0.0
C231 C 0.77475 0.96069 0.48962 0.0
C232 C 0.80636 0.97746 0.48645 0.0
C233 C 0.86637 0.97384 0.50145 0.0
C234 C 0.89419 0.95314 0.5191 0.0
C235 C 0.83426 0.95805 0.50602 0.0
C236 C 0.88943 0.91707 0.5426 0.0
C237 C 0.85769 0.90165 0.54819 0.0
H238 H 0.73237 0.42838 0.98079 0.0
H239 H 0.69163 0.32133 0.0365 0.0
H240 H 0.63633 0.34998 0.04055 0.0
H241 H 0.59975 0.4052 0.02884 0.0
H242 H 0.64004 0.51342 0.97595 0.0
H243 H 0.69536 0.48462 0.9703 0.0
C244 C 0.71127 0.41141 0.99351 0.0
C245 C 0.71593 0.37287 0.00831 0.0
C246 C 0.67958 0.42825 0.9964 0.0
C247 C 0.68859 0.35116 0.0253 0.0
C248 C 0.657 0.36747 0.02749 0.0
C249 C 0.62057 0.42255 0.01593 0.0
C250 C 0.6157 0.46138 0.00264 0.0
C251 C 0.65224 0.40598 0.01328 0.0
C252 C 0.64309 0.48347 0.98652 0.0
C253 C 0.67472 0.467 0.98315 0.0
H254 H 0.09326 0.81845 0.23701 0.0
H255 H -0.00065 0.76108 0.25904 0.0
H256 H 0.98572 0.80528 0.32919 0.0
H257 H -0.00014 0.86217 0.38163 0.0
H258 H 0.09234 0.92176 0.35396 0.0
H259 H 0.10734 0.87468 0.28886 0.0
C260 C 0.07003 0.81535 0.25774 0.0
C261 C 0.04746 0.78646 0.24351 0.0
C262 C 0.06209 0.84139 0.29675 0.0
C263 C 0.01709 0.78315 0.26965 0.0
C264 C 0.00933 0.80838 0.30962 0.0
C265 C 0.02339 0.86458 0.36158 0.0
C266 C 0.04497 0.89535 0.37257 0.0
C267 C 0.03152 0.8379 0.32315 0.0
C268 C 0.07522 0.89845 0.34595 0.0
C269 C 0.08386 0.87152 0.30879 0.0
H270 H 0.52385 0.70069 0.7197 0.0
H271 H 0.62534 0.71051 0.77203 0.0
H272 H 0.6126 0.67009 0.84625 0.0
H273 H 0.5735 0.62887 0.89371 0.0
H274 H 0.4726 0.6171 0.83902 0.0
H275 H 0.48447 0.6609 0.76815 0.0
C276 C 0.54326 0.69388 0.74719 0.0
C277 C 0.57554 0.70858 0.74003 0.0
C278 C 0.53595 0.67001 0.7893 0.0
C279 C 0.60016 0.70003 0.77674 0.0
C280 C 0.59298 0.67663 0.81905 0.0
C281 C 0.55401 0.63606 0.86653 0.0
C282 C 0.52224 0.61946 0.87173 0.0
C283 C 0.56106 0.66105 0.82539 0.0
C284 C 0.49735 0.62919 0.83598 0.0
C285 C 0.50409 0.65429 0.79534 0.0
H286 H 0.96369 0.14786 0.18595 0.0
H287 H 0.91172 0.22687 0.28494 0.0
H288 H 0.92752 0.18861 0.35975 0.0
H289 H 0.95548 0.13199 0.39713 0.0
H290 H 0.01028 0.0558 0.29798 0.0
H291 H 0.99452 0.09423 0.22341 0.0
C292 C 0.95631 0.1573 0.22387 0.0
C293 C 0.93633 0.1902 0.22945 0.0
C294 C 0.96596 0.13559 0.26686 0.0
C295 C 0.92656 0.20131 0.27913 0.0
C296 C 0.93574 0.17955 0.32209 0.0
C297 C 0.96395 0.12385 0.35918 0.0
C298 C 0.98386 0.09097 0.35313 0.0
C299 C 0.9552 0.14643 0.31637 0.0
C300 C 0.99499 0.08102 0.30378 0.0
C301 C 0.98594 0.10293 0.26105 0.0
H302 H 0.43835 0.36463 0.70324 0.0
H303 H 0.46676 0.26541 0.79256 0.0
H304 H 0.47695 0.3065 0.86735 0.0
H305 H 0.47873 0.37106 0.90638 0.0
H306 H 0.44862 0.4696 0.81624 0.0
H307 H 0.43815 0.4283 0.74273 0.0
C308 C 0.44698 0.35208 0.73905 0.0
C309 C 0.45222 0.31224 0.74241 0.0
C310 C 0.45241 0.37573 0.78168 0.0
C311 C 0.46264 0.29609 0.78922 0.0
C312 C 0.46851 0.31957 0.83183 0.0
C313 C 0.46982 0.38348 0.8707 0.0
C314 C 0.46463 0.42345 0.86691 0.0
C315 C 0.46361 0.35949 0.82841 0.0
C316 C 0.45281 0.43898 0.82042 0.0
C317 C 0.44688 0.41541 0.77821 0.0
H318 H 0.55411 0.66902 0.32213 0.0
H319 H 0.60131 0.75093 0.22075 0.0
H320 H 0.58842 0.71 0.14713 0.0
H321 H 0.56217 0.65127 0.11127 0.0
H322 H 0.51172 0.57294 0.21395 0.0
H323 H 0.52696 0.61255 0.28709 0.0
C324 C 0.56111 0.67847 0.28392 0.0
C325 C 0.57843 0.71327 0.27721 0.0
C326 C 0.553 0.65535 0.24182 0.0
C327 C 0.58818 0.72417 0.22732 0.0
C328 C 0.58066 0.70086 0.18509 0.0
C329 C 0.55472 0.64291 0.14973 0.0
C330 C 0.53583 0.60927 0.15718 0.0
C331 C 0.56298 0.66638 0.19186 0.0
C332 C 0.52606 0.59886 0.20713 0.0
C333 C 0.53481 0.62144 0.24905 0.0
H334 H 0.96893 0.16131 0.8108 0.0
H335 H 0.90631 0.22973 0.71149 0.0
H336 H 0.92268 0.19062 0.63815 0.0
H337 H 0.95389 0.13574 0.60246 0.0
H338 H 0.01899 0.0707 0.70195 0.0
H339 H 0.00315 0.11053 0.77451 0.0
C340 C 0.95934 0.16844 0.77305 0.0
C341 C 0.93622 0.1985 0.76713 0.0
C342 C 0.96933 0.14637 0.73085 0.0
C343 C 0.92364 0.20639 0.71771 0.0
C344 C 0.93316 0.18416 0.67555 0.0
C345 C 0.96469 0.13042 0.63999 0.0
C346 C 0.98746 0.10011 0.6467 0.0
C347 C 0.95574 0.15379 0.68175 0.0
C348 C 0.00147 0.09385 0.69552 0.0
C349 C 0.99235 0.11655 0.73719 0.0
H350 H 0.44508 0.36064 0.32273 0.0
H351 H 0.45952 0.2607 0.22812 0.0
H352 H 0.47033 0.3022 0.15342 0.0
H353 H 0.4764 0.36745 0.11581 0.0
H354 H 0.45983 0.46646 0.2122 0.0
H355 H 0.44927 0.42475 0.28536 0.0
C356 C 0.45084 0.34797 0.28579 0.0
C357 C 0.45198 0.30782 0.28089 0.0
C358 C 0.45661 0.37184 0.24336 0.0
C359 C 0.45863 0.29163 0.23266 0.0
C360 C 0.46486 0.31533 0.19011 0.0
C361 C 0.47046 0.37983 0.15283 0.0
C362 C 0.469 0.42008 0.15838 0.0
C363 C 0.46404 0.35555 0.19507 0.0
C364 C 0.46101 0.43564 0.20659 0.0
C365 C 0.45504 0.41182 0.24863 0.0
H366 H 0.09369 0.83473 0.79323 0.0
H367 H -0.00088 0.77824 0.77386 0.0
H368 H 0.98619 0.82044 0.70088 0.0
H369 H 0.00187 0.87374 0.64332 0.0
H370 H 0.09511 0.93269 0.66666 0.0
H371 H 0.10868 0.88903 0.73735 0.0
C372 C 0.07035 0.83162 0.77272 0.0
C373 C 0.04745 0.80339 0.78829 0.0
C374 C 0.06294 0.85634 0.73169 0.0
C375 C 0.01703 0.79989 0.76231 0.0
C376 C 0.00972 0.82389 0.72065 0.0
C377 C 0.02525 0.87683 0.6637 0.0
C378 C 0.04759 0.90618 0.64964 0.0
C379 C 0.03251 0.85222 0.70503 0.0
C380 C 0.07753 0.91032 0.67686 0.0
C381 C 0.08531 0.88537 0.7172 0.0
loop_
_geom_bond_atom_site_label_1
_geom_bond_atom_site_label_2
_geom_bond_distance
_geom_bond_site_symmetry_2
_ccdc_geom_bond_type
C0 C1 1.384 . S
C0 H13 0.947 . S
C0 C35 1.382 . S
C1 C0 1.384 . S
C1 C2 1.378 . S
C2 C1 1.378 . S
C2 C3 1.378 . S
C2 H14 0.952 . S
C3 C2 1.378 . S
C3 H15 0.950 . S
C3 C34 1.383 . S
H4 C23 0.947 . S
H5 C24 0.946 . S
H6 C26 0.953 . S
H7 C27 0.945 . S
H8 C29 0.952 . S
H9 C30 0.949 . S
H10 C32 0.950 . S
H11 C33 0.948 . S
H12 C35 0.951 . S
H13 C0 0.947 . S
H14 C2 0.952 . S
H15 C3 0.950 . S
N16 C19 1.382 . S
N16 C21 1.363 . S
N17 C19 1.371 1_556 S
N17 C20 1.372 . S
N18 C20 1.361 1_554 S
N18 C21 1.377 . S
C19 N16 1.382 . S
C19 N17 1.371 1_554 S
C19 C22 1.480 . S
C20 N17 1.372 . S
C20 N18 1.361 1_556 S
C20 C28 1.457 . S
C21 N16 1.363 . S
C21 N18 1.377 . S
C21 C34 1.479 . S
C22 C19 1.480 . S
C22 C23 1.383 . S
C22 C27 1.385 1_554 S
C23 H4 0.947 . S
C23 C22 1.383 . S
C23 C24 1.388 . S
C24 H5 0.946 . S
C24 C23 1.388 . S
C24 C25 1.384 . S
C25 C24 1.384 . S
C25 C26 1.377 1_554 S
C26 H6 0.953 . S
C26 C25 1.377 1_556 S
C26 C27 1.369 . S
C27 H7 0.945 . S
C27 C22 1.385 1_556 S
C27 C26 1.369 . S
C28 C20 1.457 . S
C28 C29 1.372 . S
C28 C33 1.364 . S
C29 H8 0.952 . S
C29 C28 1.372 . S
C29 C30 1.389 . S
C30 H9 0.949 . S
C30 C29 1.389 . S
C30 C31 1.387 . S
C31 C30 1.387 . S
C31 C32 1.372 . S
C32 H10 0.950 . S
C32 C31 1.372 . S
C32 C33 1.379 . S
C33 H11 0.948 . S
C33 C28 1.364 . S
C33 C32 1.379 . S
C34 C3 1.383 . S
C34 C21 1.479 . S
C34 C35 1.398 . S
C35 C0 1.382 . S
C35 H12 0.951 . S
C35 C34 1.398 . S
C36 C37 1.384 . S
C36 H49 0.947 . S
C36 C71 1.382 . S
C37 C36 1.384 . S
C37 C38 1.378 . S
C38 C37 1.378 . S
C38 C39 1.378 . S
C38 H50 0.952 . S
C39 C38 1.378 . S
C39 H51 0.950 . S
C39 C70 1.383 . S
H40 C59 0.947 . S
H41 C60 0.946 . S
H42 C62 0.953 . S
H43 C63 0.945 . S
H44 C65 0.952 . S
H45 C66 0.949 . S
H46 C68 0.950 . S
H47 C69 0.948 . S
H48 C71 0.951 . S
H49 C36 0.947 . S
H50 C38 0.952 . S
H51 C39 0.950 . S
N52 C55 1.382 . S
N52 C57 1.363 . S
N53 C55 1.371 . S
N53 C56 1.372 . S
N54 C56 1.361 . S
N54 C57 1.377 . S
C55 N52 1.382 . S
C55 N53 1.371 . S
C55 C58 1.480 . S
C56 N53 1.372 . S
C56 N54 1.361 . S
C56 C64 1.457 . S
C57 N52 1.363 . S
C57 N54 1.377 . S
C57 C70 1.479 . S
C58 C55 1.480 . S
C58 C59 1.383 . S
C58 C63 1.385 . S
C59 H40 0.947 . S
C59 C58 1.383 . S
C59 C60 1.388 . S
C60 H41 0.946 . S
C60 C59 1.388 . S
C60 C61 1.384 . S
C61 C60 1.384 . S
C61 C62 1.377 . S
C62 H42 0.953 . S
C62 C61 1.377 . S
C62 C63 1.369 . S
C63 H43 0.945 . S
C63 C58 1.385 . S
C63 C62 1.369 . S
C64 C56 1.457 . S
C64 C65 1.372 . S
C64 C69 1.364 . S
C65 H44 0.952 . S
C65 C64 1.372 . S
C65 C66 1.389 . S
C66 H45 0.949 . S
C66 C65 1.389 . S
C66 C67 1.387 . S
C67 C66 1.387 . S
C67 C68 1.372 . S
C68 H46 0.950 . S
C68 C67 1.372 . S
C68 C69 1.379 . S
C69 H47 0.948 . S
C69 C64 1.364 . S
C69 C68 1.379 . S
C70 C39 1.383 . S
C70 C57 1.479 . S
C70 C71 1.398 . S
C71 C36 1.382 . S
C71 H48 0.951 . S
C71 C70 1.398 . S
C72 C73 1.384 . S
C72 H85 0.947 . S
C72 C107 1.382 . S
C73 C72 1.384 . S
C73 C74 1.378 . S
C74 C73 1.378 . S
C74 C75 1.378 . S
C74 H86 0.952 . S
C75 C74 1.378 . S
C75 H87 0.950 . S
C75 C106 1.383 . S
H76 C95 0.947 . S
H77 C96 0.946 . S
H78 C98 0.953 . S
H79 C99 0.945 . S
H80 C101 0.952 . S
H81 C102 0.949 . S
H82 C104 0.950 . S
H83 C105 0.948 . S
H84 C107 0.951 . S
H85 C72 0.947 . S
H86 C74 0.952 . S
H87 C75 0.950 . S
N88 C91 1.382 1_556 S
N88 C93 1.363 . S
N89 C91 1.371 . S
N89 C92 1.372 . S
N90 C92 1.361 . S
N90 C93 1.377 1_554 S
C91 N88 1.382 1_554 S
C91 N89 1.371 . S
C91 C94 1.480 . S
C92 N89 1.372 . S
C92 N90 1.361 . S
C92 C100 1.457 . S
C93 N88 1.363 . S
C93 N90 1.377 1_556 S
C93 C106 1.479 . S
C94 C91 1.480 . S
C94 C95 1.383 1_554 S
C94 C99 1.385 . S
C95 H76 0.947 . S
C95 C94 1.383 1_556 S
C95 C96 1.388 . S
C96 H77 0.946 . S
C96 C95 1.388 . S
C96 C97 1.384 1_556 S
C97 C96 1.384 1_554 S
C97 C98 1.377 . S
C98 H78 0.953 . S
C98 C97 1.377 . S
C98 C99 1.369 . S
C99 H79 0.945 . S
C99 C94 1.385 . S
C99 C98 1.369 . S
C100 C92 1.457 . S
C100 C101 1.372 . S
C100 C105 1.364 . S
C101 H80 0.952 . S
C101 C100 1.372 . S
C101 C102 1.389 . S
C102 H81 0.949 . S
C102 C101 1.389 . S
C102 C103 1.387 . S
C103 C102 1.387 . S
C103 C104 1.372 . S
C104 H82 0.950 . S
C104 C103 1.372 . S
C104 C105 1.379 . S
C105 H83 0.948 . S
C105 C100 1.364 . S
C105 C104 1.379 . S
C106 C75 1.383 . S
C106 C93 1.479 . S
C106 C107 1.398 . S
C107 C72 1.382 . S
C107 H84 0.951 . S
C107 C106 1.398 . S
C108 C109 1.384 . S
C108 H121 0.947 . S
C108 C143 1.382 . S
C109 C108 1.384 . S
C109 C110 1.378 . S
C110 C109 1.378 . S
C110 C111 1.378 . S
C110 H122 0.952 . S
C111 C110 1.378 . S
C111 H123 0.950 . S
C111 C142 1.383 . S
H112 C131 0.947 . S
H113 C132 0.946 . S
H114 C134 0.953 . S
H115 C135 0.945 . S
H116 C137 0.952 . S
H117 C138 0.949 . S
H118 C140 0.950 . S
H119 C141 0.948 . S
H120 C143 0.951 . S
H121 C108 0.947 . S
H122 C110 0.952 . S
H123 C111 0.950 . S
N124 C127 1.382 . S
N124 C129 1.363 . S
N125 C127 1.371 . S
N125 C128 1.372 . S
N126 C128 1.361 . S
N126 C129 1.377 . S
C127 N124 1.382 . S
C127 N125 1.371 . S
C127 C130 1.480 . S
C128 N125 1.372 . S
C128 N126 1.361 . S
C128 C136 1.457 . S
C129 N124 1.363 . S
C129 N126 1.377 . S
C129 C142 1.479 . S
C130 C127 1.480 . S
C130 C131 1.383 . S
C130 C135 1.385 . S
C131 H112 0.947 . S
C131 C130 1.383 . S
C131 C132 1.388 . S
C132 H113 0.946 . S
C132 C131 1.388 . S
C132 C133 1.384 . S
C133 C132 1.384 . S
C133 C134 1.377 . S
C134 H114 0.953 . S
C134 C133 1.377 . S
C134 C135 1.369 . S
C135 H115 0.945 . S
C135 C130 1.385 . S
C135 C134 1.369 . S
C136 C128 1.457 . S
C136 C137 1.372 . S
C136 C141 1.364 . S
C137 H116 0.952 . S
C137 C136 1.372 . S
C137 C138 1.389 . S
C138 H117 0.949 . S
C138 C137 1.389 . S
C138 C139 1.387 . S
C139 C138 1.387 . S
C139 C140 1.372 . S
C140 H118 0.950 . S
C140 C139 1.372 . S
C140 C141 1.379 . S
C141 H119 0.948 . S
C141 C136 1.364 . S
C141 C140 1.379 . S
C142 C111 1.383 . S
C142 C129 1.479 . S
C142 C143 1.398 . S
C143 C108 1.382 . S
C143 H120 0.951 . S
C143 C142 1.398 . S
O144 Zn145 1.953 1_565 S
O144 C160 1.225 . S
Zn145 O144 1.953 1_545 S
Zn145 O146 1.949 1_655 S
Zn145 O152 1.919 . S
Zn145 O157 1.924 . S
O146 Zn145 1.949 1_455 S
O146 Zn147 1.923 . S
O146 Zn148 1.950 1_445 S
O146 Zn149 1.945 . S
Zn147 O146 1.923 . S
Zn147 O150 1.933 . S
Zn147 O153 1.941 . S
Zn147 O154 1.965 1_545 S
Zn148 O146 1.950 1_665 S
Zn148 O155 1.938 1_655 S
Zn148 O156 1.906 1_655 S
Zn148 O166 1.953 . S
Zn149 O146 1.945 . S
Zn149 O151 1.932 . S
Zn149 O158 1.977 1_545 S
Zn149 O159 1.910 1_455 S
O150 Zn147 1.933 . S
O150 C161 1.226 . S
O151 Zn149 1.932 . S
O151 C161 1.307 . S
O152 Zn145 1.919 . S
O152 C163 1.253 . S
O153 Zn147 1.941 . S
O153 C163 1.283 1_455 S
O154 Zn147 1.965 1_565 S
O154 C162 1.303 . S
O155 Zn148 1.938 1_455 S
O155 C162 1.247 . S
O156 Zn148 1.906 1_455 S
O156 C164 1.304 . S
O157 Zn145 1.924 . S
O157 C165 1.311 . S
O158 Zn149 1.977 1_565 S
O158 C164 1.272 . S
O159 Zn149 1.910 1_655 S
O159 C165 1.231 . S
C160 O144 1.225 . S
C160 O166 1.298 . S
C161 O150 1.226 . S
C161 O151 1.307 . S
C162 O154 1.303 . S
C162 O155 1.247 . S
C163 O152 1.253 . S
C163 O153 1.283 1_655 S
C164 O156 1.304 . S
C164 O158 1.272 . S
C165 O157 1.311 . S
C165 O159 1.231 . S
O166 Zn148 1.953 . S
O166 C160 1.298 . S
O167 Zn168 1.953 . S
O167 C183 1.225 1_556 S
Zn168 O167 1.953 . S
Zn168 O169 1.949 1_556 S
Zn168 O175 1.919 . S
Zn168 O180 1.924 1_556 S
O169 Zn168 1.949 1_554 S
O169 Zn170 1.923 1_554 S
O169 Zn171 1.950 . S
O169 Zn172 1.945 . S
Zn170 O169 1.923 1_556 S
Zn170 O173 1.933 . S
Zn170 O176 1.941 . S
Zn170 O177 1.965 . S
Zn171 O169 1.950 . S
Zn171 O178 1.938 1_554 S
Zn171 O179 1.906 . S
Zn171 O189 1.953 . S
Zn172 O169 1.945 . S
Zn172 O174 1.932 . S
Zn172 O181 1.977 . S
Zn172 O182 1.910 . S
O173 Zn170 1.933 . S
O173 C184 1.226 1_556 S
O174 Zn172 1.932 . S
O174 C184 1.307 . S
O175 Zn168 1.919 . S
O175 C186 1.253 . S
O176 Zn170 1.941 . S
O176 C186 1.283 . S
O177 Zn170 1.965 . S
O177 C185 1.303 . S
O178 Zn171 1.938 1_556 S
O178 C185 1.247 . S
O179 Zn171 1.906 . S
O179 C187 1.304 . S
O180 Zn168 1.924 1_554 S
O180 C188 1.311 . S
O181 Zn172 1.977 . S
O181 C187 1.272 . S
O182 Zn172 1.910 . S
O182 C188 1.231 . S
C183 O167 1.225 1_554 S
C183 O189 1.298 . S
C184 O173 1.226 1_554 S
C184 O174 1.307 . S
C185 O177 1.303 . S
C185 O178 1.247 . S
C186 O175 1.253 . S
C186 O176 1.283 . S
C187 O179 1.304 . S
C187 O181 1.272 . S
C188 O180 1.311 . S
C188 O182 1.231 . S
O189 Zn171 1.953 . S
O189 C183 1.298 . S
H190 C196 0.930 . S
H191 C199 0.930 . S
H192 C200 0.930 . S
H193 C201 0.930 . S
H194 C204 0.930 . S
H195 C205 0.930 . S
C196 H190 0.930 . S
C196 C197 1.355 . S
C196 C198 1.415 . S
C197 C196 1.355 . S
C197 C199 1.419 . S
C198 C196 1.415 . S
C198 C203 1.425 . S
C198 C205 1.409 . S
C199 H191 0.930 . S
C199 C197 1.419 . S
C199 C200 1.362 . S
C200 H192 0.930 . S
C200 C199 1.362 . S
C200 C203 1.409 . S
C201 H193 0.930 . S
C201 C202 1.355 . S
C201 C203 1.415 . S
C202 C201 1.355 . S
C202 C204 1.419 . S
C203 C198 1.425 . S
C203 C200 1.409 . S
C203 C201 1.415 . S
C204 H194 0.930 . S
C204 C202 1.419 . S
C204 C205 1.362 . S
C205 H195 0.930 . S
C205 C198 1.409 . S
C205 C204 1.362 . S
H206 C212 0.930 . S
H207 C215 0.930 . S
H208 C216 0.930 . S
H209 C217 0.929 1_556 S
H210 C220 0.930 . S
H211 C221 0.930 . S
C212 H206 0.930 . S
C212 C213 1.355 . S
C212 C214 1.415 . S
C213 C212 1.355 . S
C213 C215 1.419 1_554 S
C214 C212 1.415 . S
C214 C219 1.425 . S
C214 C221 1.409 . S
C215 H207 0.930 . S
C215 C213 1.419 1_556 S
C215 C216 1.362 . S
C216 H208 0.930 . S
C216 C215 1.362 . S
C216 C219 1.409 1_556 S
C217 H209 0.929 1_554 S
C217 C218 1.355 . S
C217 C219 1.415 . S
C218 C217 1.355 . S
C218 C220 1.419 . S
C219 C214 1.425 . S
C219 C216 1.409 1_554 S
C219 C217 1.415 . S
C220 H210 0.930 . S
C220 C218 1.419 . S
C220 C221 1.362 . S
C221 H211 0.930 . S
C221 C214 1.409 . S
C221 C220 1.362 . S
H222 C228 0.930 . S
H223 C231 0.930 . S
H224 C232 0.930 . S
H225 C233 0.930 . S
H226 C236 0.930 . S
H227 C237 0.930 . S
C228 H222 0.930 . S
C228 C229 1.355 . S
C228 C230 1.415 . S
C229 C228 1.355 . S
C229 C231 1.419 . S
C230 C228 1.415 . S
C230 C235 1.425 . S
C230 C237 1.409 . S
C231 H223 0.930 . S
C231 C229 1.419 . S
C231 C232 1.362 . S
C232 H224 0.930 . S
C232 C231 1.362 . S
C232 C235 1.409 . S
C233 H225 0.930 . S
C233 C234 1.355 . S
C233 C235 1.415 . S
C234 C233 1.355 . S
C234 C236 1.419 . S
C235 C230 1.425 . S
C235 C232 1.409 . S
C235 C233 1.415 . S
C236 H226 0.930 . S
C236 C234 1.419 . S
C236 C237 1.362 . S
C237 H227 0.930 . S
C237 C230 1.409 . S
C237 C236 1.362 . S
H238 C244 0.930 . S
H239 C247 0.930 . S
H240 C248 0.930 . S
H241 C249 0.930 . S
H242 C252 0.930 . S
H243 C253 0.930 . S
C244 H238 0.930 . S
C244 C245 1.355 1_556 S
C244 C246 1.415 . S
C245 C244 1.355 1_554 S
C245 C247 1.419 . S
C246 C244 1.415 . S
C246 C251 1.425 1_556 S
C246 C253 1.409 . S
C247 H239 0.930 . S
C247 C245 1.419 . S
C247 C248 1.362 . S
C248 H240 0.930 . S
C248 C247 1.362 . S
C248 C251 1.409 . S
C249 H241 0.930 . S
C249 C250 1.355 . S
C249 C251 1.415 . S
C250 C249 1.355 . S
C250 C252 1.419 1_554 S
C251 C246 1.425 1_554 S
C251 C248 1.409 . S
C251 C249 1.415 . S
C252 H242 0.930 . S
C252 C250 1.419 1_556 S
C252 C253 1.362 . S
C253 H243 0.930 . S
C253 C246 1.409 . S
C253 C252 1.362 . S
H254 C260 0.930 . S
H255 C263 0.930 . S
H256 C264 0.930 1_655 S
H257 C265 0.930 . S
H258 C268 0.930 . S
H259 C269 0.930 . S
C260 H254 0.930 . S
C260 C261 1.355 . S
C260 C262 1.415 . S
C261 C260 1.355 . S
C261 C263 1.419 . S
C262 C260 1.415 . S
C262 C267 1.425 . S
C262 C269 1.409 . S
C263 H255 0.930 . S
C263 C261 1.419 . S
C263 C264 1.362 . S
C264 H256 0.930 1_455 S
C264 C263 1.362 . S
C264 C267 1.409 . S
C265 H257 0.930 . S
C265 C266 1.355 . S
C265 C267 1.415 . S
C266 C265 1.355 . S
C266 C268 1.419 . S
C267 C262 1.425 . S
C267 C264 1.409 . S
C267 C265 1.415 . S
C268 H258 0.930 . S
C268 C266 1.419 . S
C268 C269 1.362 . S
C269 H259 0.930 . S
C269 C262 1.409 . S
C269 C268 1.362 . S
H270 C276 0.930 . S
H271 C279 0.930 . S
H272 C280 0.930 . S
H273 C281 0.930 . S
H274 C284 0.930 . S
H275 C285 0.930 . S
C276 H270 0.930 . S
C276 C277 1.355 . S
C276 C278 1.415 . S
C277 C276 1.355 . S
C277 C279 1.419 . S
C278 C276 1.415 . S
C278 C283 1.425 . S
C278 C285 1.409 . S
C279 H271 0.930 . S
C279 C277 1.419 . S
C279 C280 1.362 . S
C280 H272 0.930 . S
C280 C279 1.362 . S
C280 C283 1.409 . S
C281 H273 0.930 . S
C281 C282 1.355 . S
C281 C283 1.415 . S
C282 C281 1.355 . S
C282 C284 1.419 . S
C283 C278 1.425 . S
C283 C280 1.409 . S
C283 C281 1.415 . S
C284 H274 0.930 . S
C284 C282 1.419 . S
C284 C285 1.362 . S
C285 H275 0.930 . S
C285 C278 1.409 . S
C285 C284 1.362 . S
H286 C292 0.930 . S
H287 C295 0.930 . S
H288 C296 0.930 . S
H289 C297 0.930 . S
H290 C300 0.930 . S
H291 C301 0.932 1_455 S
C292 H286 0.930 . S
C292 C293 1.355 . S
C292 C294 1.415 . S
C293 C292 1.355 . S
C293 C295 1.419 . S
C294 C292 1.415 . S
C294 C299 1.425 . S
C294 C301 1.409 . S
C295 H287 0.930 . S
C295 C293 1.419 . S
C295 C296 1.362 . S
C296 H288 0.930 . S
C296 C295 1.362 . S
C296 C299 1.409 . S
C297 H289 0.930 . S
C297 C298 1.355 . S
C297 C299 1.415 . S
C298 C297 1.355 . S
C298 C300 1.419 . S
C299 C294 1.425 . S
C299 C296 1.409 . S
C299 C297 1.415 . S
C300 H290 0.930 . S
C300 C298 1.419 . S
C300 C301 1.362 . S
C301 H291 0.932 1_655 S
C301 C294 1.409 . S
C301 C300 1.362 . S
H302 C308 0.930 . S
H303 C311 0.930 . S
H304 C312 0.930 . S
H305 C313 0.930 . S
H306 C316 0.930 . S
H307 C317 0.930 . S
C308 H302 0.930 . S
C308 C309 1.355 . S
C308 C310 1.415 . S
C309 C308 1.355 . S
C309 C311 1.419 . S
C310 C308 1.415 . S
C310 C315 1.425 . S
C310 C317 1.409 . S
C311 H303 0.930 . S
C311 C309 1.419 . S
C311 C312 1.362 . S
C312 H304 0.930 . S
C312 C311 1.362 . S
C312 C315 1.409 . S
C313 H305 0.930 . S
C313 C314 1.355 . S
C313 C315 1.415 . S
C314 C313 1.355 . S
C314 C316 1.419 . S
C315 C310 1.425 . S
C315 C312 1.409 . S
C315 C313 1.415 . S
C316 H306 0.930 . S
C316 C314 1.419 . S
C316 C317 1.362 . S
C317 H307 0.930 . S
C317 C310 1.409 . S
C317 C316 1.362 . S
H318 C324 0.930 . S
H319 C327 0.930 . S
H320 C328 0.930 . S
H321 C329 0.930 . S
H322 C332 0.930 . S
H323 C333 0.930 . S
C324 H318 0.930 . S
C324 C325 1.355 . S
C324 C326 1.415 . S
C325 C324 1.355 . S
C325 C327 1.419 . S
C326 C324 1.415 . S
C326 C331 1.425 . S
C326 C333 1.409 . S
C327 H319 0.930 . S
C327 C325 1.419 . S
C327 C328 1.362 . S
C328 H320 0.930 . S
C328 C327 1.362 . S
C328 C331 1.409 . S
C329 H321 0.930 . S
C329 C330 1.355 . S
C329 C331 1.415 . S
C330 C329 1.355 . S
C330 C332 1.419 . S
C331 C326 1.425 . S
C331 C328 1.409 . S
C331 C329 1.415 . S
C332 H322 0.930 . S
C332 C330 1.419 . S
C332 C333 1.362 . S
C333 H323 0.930 . S
C333 C326 1.409 . S
C333 C332 1.362 . S
H334 C340 0.930 . S
H335 C343 0.930 . S
H336 C344 0.930 . S
H337 C345 0.930 . S
H338 C348 0.930 . S
H339 C349 0.930 . S
C340 H334 0.930 . S
C340 C341 1.355 . S
C340 C342 1.415 . S
C341 C340 1.355 . S
C341 C343 1.419 . S
C342 C340 1.415 . S
C342 C347 1.425 . S
C342 C349 1.409 . S
C343 H335 0.930 . S
C343 C341 1.419 . S
C343 C344 1.362 . S
C344 H336 0.930 . S
C344 C343 1.362 . S
C344 C347 1.409 . S
C345 H337 0.930 . S
C345 C346 1.355 . S
C345 C347 1.415 . S
C346 C345 1.355 . S
C346 C348 1.419 . S
C347 C342 1.425 . S
C347 C344 1.409 . S
C347 C345 1.415 . S
C348 H338 0.930 . S
C348 C346 1.419 . S
C348 C349 1.362 . S
C349 H339 0.930 . S
C349 C342 1.409 . S
C349 C348 1.362 . S
H350 C356 0.930 . S
H351 C359 0.930 . S
H352 C360 0.930 . S
H353 C361 0.930 . S
H354 C364 0.930 . S
H355 C365 0.930 . S
C356 H350 0.930 . S
C356 C357 1.355 . S
C356 C358 1.415 . S
C357 C356 1.355 . S
C357 C359 1.419 . S
C358 C356 1.415 . S
C358 C363 1.425 . S
C358 C365 1.409 . S
C359 H351 0.930 . S
C359 C357 1.419 . S
C359 C360 1.362 . S
C360 H352 0.930 . S
C360 C359 1.362 . S
C360 C363 1.409 . S
C361 H353 0.930 . S
C361 C362 1.355 . S
C361 C363 1.415 . S
C362 C361 1.355 . S
C362 C364 1.419 . S
C363 C358 1.425 . S
C363 C360 1.409 . S
C363 C361 1.415 . S
C364 H354 0.930 . S
C364 C362 1.419 . S
C364 C365 1.362 . S
C365 H355 0.930 . S
C365 C358 1.409 . S
C365 C364 1.362 . S
H366 C372 0.930 . S
H367 C375 0.930 . S
H368 C376 0.930 1_655 S
H369 C377 0.930 1_655 S
H370 C380 0.930 . S
H371 C381 0.930 . S
C372 H366 0.930 . S
C372 C373 1.355 . S
C372 C374 1.415 . S
C373 C372 1.355 . S
C373 C375 1.419 . S
C374 C372 1.415 . S
C374 C379 1.425 . S
C374 C381 1.409 . S
C375 H367 0.930 . S
C375 C373 1.419 . S
C375 C376 1.362 . S
C376 H368 0.930 1_455 S
C376 C375 1.362 . S
C376 C379 1.409 . S
C377 H369 0.930 1_455 S
C377 C378 1.355 . S
C377 C379 1.415 . S
C378 C377 1.355 . S
C378 C380 1.419 . S
C379 C374 1.425 . S
C379 C376 1.409 . S
C379 C377 1.415 . S
C380 H370 0.930 . S
C380 C378 1.419 . S
C380 C381 1.362 . S
C381 H371 0.930 . S
C381 C374 1.409 . S
C381 C380 1.362 . S
C202 C161 1.640 . S
C197 C133 1.632 . S
C213 C25 1.625 . S
C218 C184 1.674 . S
C229 C61 1.638 . S
C234 C160 1.685 . S
C245 C97 1.647 . S
C250 C183 1.661 . S
C266 C164 1.683 . S
C261 C1 1.688 . S
C282 C186 1.653 . S
C277 C67 1.618 . S
C293 C103 1.709 . S
C298 C165 1.620 . S
C309 C109 1.650 . S
C314 C185 1.594 . S
C330 C188 1.657 . S
C325 C37 1.682 . S
C346 C163 1.623 . S
C341 C73 1.674 . S
C362 C187 1.621 . S
C357 C139 1.703 . S
C373 C31 1.591 . S
C378 C162 1.581 . S
