# Generated by pormake.
# Topology dag, (6,3)-cn, num edge types: 1
# Building blocks:
#     Node 0, Type 0, BuildingBlock: MIDCAF_clean_sbu_0, # of connection points: 6
#     Node 1, Type 0, BuildingBlock: MIDCAF_clean_sbu_0, # of connection points: 6
#     Node 2, Type 0, BuildingBlock: MIDCAF_clean_sbu_0, # of connection points: 6
#     Node 3, Type 0, BuildingBlock: MIDCAF_clean_sbu_0, # of connection points: 6
#     Node 4, Type 1, BuildingBlock: QEWDON_clean_linker_0, # of connection points: 3
#     Node 5, Type 1, BuildingBlock: QEWDON_clean_linker_0, # of connection points: 3
#     Node 6, Type 1, BuildingBlock: QEWDON_clean_linker_0, # of connection points: 3
#     Node 7, Type 1, BuildingBlock: QEWDON_clean_linker_0, # of connection points: 3
#     Node 8, Type 1, BuildingBlock: QEWDON_clean_linker_0, # of connection points: 3
#     Node 9, Type 1, BuildingBlock: QEWDON_clean_linker_0, # of connection points: 3
#     Node 10, Type 1, BuildingBlock: QEWDON_clean_linker_0, # of connection points: 3
#     Node 11, Type 1, BuildingBlock: QEWDON_clean_linker_0, # of connection points: 3
#     Edge 12, Type (0, 1), BuildingBlock: TEMPAE_clean_linker_10, # of connection points: 2
#     Edge 13, Type (0, 1), BuildingBlock: TEMPAE_clean_linker_10, # of connection points: 2
#     Edge 14, Type (0, 1), BuildingBlock: TEMPAE_clean_linker_10, # of connection points: 2
#     Edge 15, Type (0, 1), BuildingBlock: TEMPAE_clean_linker_10, # of connection points: 2
#     Edge 16, Type (0, 1), BuildingBlock: TEMPAE_clean_linker_10, # of connection points: 2
#     Edge 17, Type (0, 1), BuildingBlock: TEMPAE_clean_linker_10, # of connection points: 2
#     Edge 18, Type (0, 1), BuildingBlock: TEMPAE_clean_linker_10, # of connection points: 2
#     Edge 19, Type (0, 1), BuildingBlock: TEMPAE_clean_linker_10, # of connection points: 2
#     Edge 20, Type (0, 1), BuildingBlock: TEMPAE_clean_linker_10, # of connection points: 2
#     Edge 21, Type (0, 1), BuildingBlock: TEMPAE_clean_linker_10, # of connection points: 2
#     Edge 22, Type (0, 1), BuildingBlock: TEMPAE_clean_linker_10, # of connection points: 2
#     Edge 23, Type (0, 1), BuildingBlock: TEMPAE_clean_linker_10, # of connection points: 2
#     Edge 24, Type (0, 1), BuildingBlock: TEMPAE_clean_linker_10, # of connection points: 2
#     Edge 25, Type (0, 1), BuildingBlock: TEMPAE_clean_linker_10, # of connection points: 2
#     Edge 26, Type (0, 1), BuildingBlock: TEMPAE_clean_linker_10, # of connection points: 2
#     Edge 27, Type (0, 1), BuildingBlock: TEMPAE_clean_linker_10, # of connection points: 2
#     Edge 28, Type (0, 1), BuildingBlock: TEMPAE_clean_linker_10, # of connection points: 2
#     Edge 29, Type (0, 1), BuildingBlock: TEMPAE_clean_linker_10, # of connection points: 2
#     Edge 30, Type (0, 1), BuildingBlock: TEMPAE_clean_linker_10, # of connection points: 2
#     Edge 31, Type (0, 1), BuildingBlock: TEMPAE_clean_linker_10, # of connection points: 2
#     Edge 32, Type (0, 1), BuildingBlock: TEMPAE_clean_linker_10, # of connection points: 2
#     Edge 33, Type (0, 1), BuildingBlock: TEMPAE_clean_linker_10, # of connection points: 2
#     Edge 34, Type (0, 1), BuildingBlock: TEMPAE_clean_linker_10, # of connection points: 2
#     Edge 35, Type (0, 1), BuildingBlock: TEMPAE_clean_linker_10, # of connection points: 2
# Relax obj value: 0.076
# Max RMSD: 0.115
# Mean RMSD: 0.082
data_MOF--net-dag--node1-MIDCAF_clean_sbu_0--node2-QEWDON_clean_linker_0--edge1-TEMPAE_clean_linker_10
_symmetry_space_group_name_H-M    P1
_symmetry_Int_Tables_number       1
_symmetry_cell_setting            triclinic
loop_
_symmetry_equiv_pos_as_xyz
'x, y, z'
_cell_length_a     44.107667
_cell_length_b     43.888115
_cell_length_c     32.566677
_cell_angle_alpha  89.524856
_cell_angle_beta   90.087938
_cell_angle_gamma 90.404541
loop_
_atom_site_label
_atom_site_type_symbol
_atom_site_fract_x
_atom_site_fract_y
_atom_site_fract_z
_atom_type_partial_charge
Zn0 Zn 0.1164 0.84989 0.10828 0.0
Zn1 Zn 0.10532 0.85315 0.94984 0.0
Zn2 Zn 0.11087 0.8509 0.02763 0.0
C3 C 0.11001 0.91236 0.97266 0.0
C4 C 0.05492 0.82246 0.97954 0.0
O5 O 0.14445 0.81505 0.04298 0.0
O6 O 0.14135 0.81285 0.11076 0.0
C7 C 0.1381 0.90643 0.08063 0.0
O8 O 0.11891 0.89827 1.00537 0.0
O9 O 0.09808 0.89763 0.94363 0.0
O10 O 0.07029 0.82434 0.94696 0.0
O11 O 0.06478 0.83453 1.01294 0.0
O12 O 0.13708 0.89029 0.11287 0.0
O13 O 0.12754 0.89625 0.04647 0.0
O14 O 0.06579 0.83975 0.05509 0.0
O15 O 0.07291 0.84433 0.12209 0.0
C16 C 0.05549 0.83896 0.09216 0.0
O17 O 0.14462 0.82033 1.00109 0.0
O18 O 0.14667 0.83758 0.93716 0.0
C19 C 0.15172 0.80268 0.07755 0.0
C20 C 0.15728 0.821 0.9655 0.0
Zn21 Zn 0.61301 0.60238 0.46322 0.0
Zn22 Zn 0.60474 0.60746 0.61262 0.0
Zn23 Zn 0.61193 0.60621 0.53651 0.0
C24 C 0.61383 0.54736 0.5971 0.0
C25 C 0.55409 0.6348 0.58323 0.0
O26 O 0.6453 0.641 0.51513 0.0
O27 O 0.62643 0.64476 0.45255 0.0
C28 C 0.64354 0.55252 0.48811 0.0
O29 O 0.62082 0.55975 0.56225 0.0
O30 O 0.60239 0.56333 0.62506 0.0
O31 O 0.568 0.63242 0.61687 0.0
O32 O 0.56555 0.62375 0.55014 0.0
O33 O 0.6442 0.57032 0.45757 0.0
O34 O 0.62868 0.56 0.52054 0.0
O35 O 0.56543 0.61428 0.50981 0.0
O36 O 0.57024 0.59207 0.44974 0.0
C37 C 0.55349 0.60431 0.47617 0.0
O38 O 0.64673 0.63904 0.55902 0.0
O39 O 0.64283 0.62895 0.62533 0.0
C40 C 0.64397 0.65471 0.48004 0.0
C41 C 0.65596 0.64286 0.59624 0.0
Zn42 Zn 0.84865 0.1022 0.95156 0.0
Zn43 Zn 0.87766 0.14671 0.14296 0.0
Zn44 Zn 0.85909 0.10931 1.02176 0.0
C45 C 0.91453 0.13053 0.06347 0.0
C46 C 0.85148 0.08656 0.12379 0.0
O47 O 0.81995 0.13794 1.00137 0.0
O48 O 0.80511 0.11199 0.94745 0.0
C49 C 0.90097 0.13376 0.94969 0.0
O50 O 0.9086 0.12012 0.0277 0.0
O51 O 0.8918 0.13968 0.08351 0.0
O52 O 0.85882 0.1041 0.15362 0.0
O53 O 0.85432 0.09502 0.08616 0.0
O54 O 0.87787 0.13171 0.927 0.0
O55 O 0.90012 0.12302 0.98665 0.0
O56 O 0.84709 0.06061 1.01482 0.0
O57 O 0.85795 0.0586 0.9492 0.0
C58 C 0.8507 0.04505 0.98209 0.0
O59 O 0.82879 0.14584 0.03978 0.0
O60 O 0.86412 0.15605 0.0838 0.0
C61 C 0.80014 0.13264 0.97316 0.0
C62 C 0.83738 0.16097 0.07113 0.0
Zn63 Zn 0.34536 0.33883 0.64562 0.0
Zn64 Zn 0.37457 0.37606 0.46778 0.0
Zn65 Zn 0.35814 0.3533 0.52653 0.0
C66 C 0.42428 0.3518 0.49226 0.0
C67 C 0.31873 0.39776 0.48783 0.0
O68 O 0.31206 0.33437 0.52463 0.0
O69 O 0.33052 0.33544 0.58591 0.0
C70 C 0.38442 0.30944 0.57566 0.0
O71 O 0.40227 0.33505 0.50527 0.0
O72 O 0.419 0.37878 0.48077 0.0
O73 O 0.34488 0.40927 0.48291 0.0
O74 O 0.3166 0.36918 0.49592 0.0
O75 O 0.36326 0.32402 0.59242 0.0
O76 O 0.38832 0.31522 0.53771 0.0
O77 O 0.35862 0.3899 0.57283 0.0
O78 O 0.35239 0.38468 0.64141 0.0
C79 C 0.35685 0.40123 0.60924 0.0
O80 O 0.32434 0.33708 0.48326 0.0
O81 O 0.35873 0.33812 0.43442 0.0
C82 C 0.30792 0.32992 0.56299 0.0
C83 C 0.33392 0.32745 0.44828 0.0
H84 H 0.19914 0.10372 0.24663 0.0
C85 C 0.1779 0.10972 0.23193 0.0
C86 C 0.17087 0.09793 0.19317 0.0
C87 C 0.15656 0.12742 0.25294 0.0
H88 H 0.13683 0.09437 0.14596 0.0
C89 C 0.14272 0.1044 0.1753 0.0
C90 C 0.12086 0.12098 0.19642 0.0
C91 C 0.12801 0.13295 0.23508 0.0
C92 C 0.16305 0.13762 0.29514 0.0
H93 H 0.11104 0.14546 0.25194 0.0
C94 C 0.18864 0.1558 0.30337 0.0
C95 C 0.19474 0.16562 0.34357 0.0
C96 C 0.14374 0.1289 0.32745 0.0
H97 H 0.124 0.11471 0.32172 0.0
C98 C 0.15002 0.13805 0.3675 0.0
H99 H 0.20352 0.1626 0.2784 0.0
C100 C 0.17531 0.15633 0.37561 0.0
H101 H 0.17923 0.16384 0.40678 0.0
H102 H 0.13509 0.13119 0.3923 0.0
H103 H 0.35683 0.69145 0.7448 0.0
C104 C 0.34897 0.67297 0.72552 0.0
C105 C 0.35979 0.67079 0.68505 0.0
C106 C 0.33109 0.64938 0.74258 0.0
H107 H 0.36131 0.64268 0.63113 0.0
C108 C 0.35134 0.64562 0.66129 0.0
C109 C 0.33504 0.62135 0.67854 0.0
C110 C 0.32407 0.62368 0.71871 0.0
C111 C 0.32437 0.64896 0.78714 0.0
H112 H 0.31235 0.60439 0.73258 0.0
C113 C 0.3096 0.67347 0.80585 0.0
C114 C 0.30325 0.67271 0.84827 0.0
C115 C 0.33325 0.62388 0.81132 0.0
H116 H 0.345 0.60487 0.7977 0.0
C117 C 0.32747 0.62326 0.8534 0.0
H118 H 0.30276 0.69288 0.78733 0.0
C119 C 0.31253 0.64745 0.87183 0.0
H120 H 0.30759 0.64607 0.90437 0.0
H121 H 0.33439 0.60383 0.87175 0.0
H122 H 0.8253 0.79153 0.19729 0.0
C123 C 0.81881 0.81529 0.19628 0.0
C124 C 0.84045 0.83797 0.18643 0.0
C125 C 0.78848 0.82339 0.20404 0.0
H126 H 0.84725 0.88622 0.17593 0.0
C127 C 0.83124 0.86847 0.18482 0.0
C128 C 0.80131 0.87661 0.19279 0.0
C129 C 0.77982 0.85412 0.20201 0.0
C130 C 0.76496 0.79998 0.21124 0.0
H131 H 0.75643 0.86044 0.20732 0.0
C132 C 0.76203 0.78538 0.24967 0.0
C133 C 0.73738 0.76547 0.25741 0.0
C134 C 0.74363 0.79427 0.18027 0.0
H135 H 0.74545 0.80562 0.15069 0.0
C136 C 0.71946 0.77438 0.18747 0.0
H137 H 0.77857 0.79 0.2735 0.0
C138 C 0.71615 0.76031 0.22574 0.0
H139 H 0.69642 0.74593 0.23071 0.0
H140 H 0.70288 0.77032 0.16356 0.0
H141 H 0.66768 0.3169 0.70029 0.0
C142 C 0.64437 0.3092 0.69737 0.0
C143 C 0.62251 0.32858 0.68003 0.0
C144 C 0.63654 0.27897 0.70795 0.0
H145 H 0.57548 0.33289 0.66333 0.0
C146 C 0.59271 0.31783 0.67567 0.0
C147 C 0.58504 0.28746 0.68429 0.0
C148 C 0.60689 0.26813 0.70117 0.0
C149 C 0.6602 0.2572 0.71988 0.0
H150 H 0.60134 0.24437 0.70699 0.0
C151 C 0.67247 0.25699 0.75972 0.0
C152 C 0.69417 0.23504 0.77087 0.0
C153 C 0.66973 0.23568 0.69115 0.0
H154 H 0.66031 0.23556 0.6604 0.0
C155 C 0.69132 0.21406 0.70192 0.0
H156 H 0.66494 0.27359 0.78189 0.0
C157 C 0.70337 0.21359 0.74148 0.0
H158 H 0.71947 0.19593 0.74931 0.0
H159 H 0.69847 0.19738 0.67971 0.0
H160 H 0.69806 0.35844 0.31066 0.0
C161 C 0.6796 0.34867 0.32846 0.0
C162 C 0.67467 0.35849 0.3689 0.0
C163 C 0.65887 0.32858 0.30975 0.0
H164 H 0.64441 0.35633 0.42081 0.0
C165 C 0.64956 0.34723 0.39073 0.0
C166 C 0.62832 0.3282 0.37187 0.0
C167 C 0.63318 0.31856 0.33161 0.0
C168 C 0.66118 0.32187 0.26552 0.0
H169 H 0.61598 0.30492 0.31639 0.0
C170 C 0.68572 0.30538 0.24991 0.0
C171 C 0.68687 0.298 0.20789 0.0
C172 C 0.63805 0.3315 0.23884 0.0
H173 H 0.61898 0.3443 0.25034 0.0
C174 C 0.63934 0.32474 0.19715 0.0
H175 H 0.70357 0.29796 0.27054 0.0
C176 C 0.66348 0.30801 0.18172 0.0
H177 H 0.66347 0.30231 0.14942 0.0
H178 H 0.62138 0.33217 0.1768 0.0
H179 H 0.18384 0.13469 0.86482 0.0
C180 C 0.161 0.14287 0.85966 0.0
C181 C 0.13627 0.12541 0.87338 0.0
C182 C 0.15627 0.17124 0.84017 0.0
H183 H 0.08771 0.1226 0.87769 0.0
C184 C 0.10689 0.136 0.86671 0.0
C185 C 0.10186 0.16401 0.8471 0.0
C186 C 0.12654 0.18176 0.83391 0.0
C187 C 0.18248 0.19057 0.82866 0.0
H188 H 0.12267 0.20392 0.81997 0.0
C189 C 0.18548 0.20229 0.78851 0.0
C190 C 0.21116 0.2197 0.77764 0.0
C191 C 0.20486 0.19709 0.85809 0.0
H192 H 0.20277 0.18853 0.88927 0.0
C193 C 0.22991 0.21503 0.8477 0.0
H194 H 0.16847 0.19698 0.76555 0.0
C195 C 0.23314 0.22621 0.80776 0.0
H196 H 0.25284 0.2401 0.80042 0.0
H197 H 0.24695 0.22019 0.87062 0.0
H198 H 0.33088 0.65796 0.35452 0.0
C199 C 0.32304 0.63454 0.3527 0.0
C200 C 0.34038 0.61108 0.37035 0.0
C201 C 0.2945 0.62797 0.33541 0.0
H202 H 0.3423 0.56322 0.38403 0.0
C203 C 0.32918 0.58111 0.36949 0.0
C204 C 0.30078 0.57416 0.3521 0.0
C205 C 0.28359 0.59782 0.33496 0.0
C206 C 0.27341 0.65277 0.32524 0.0
H207 H 0.26117 0.59308 0.32277 0.0
C208 C 0.27188 0.6656 0.28552 0.0
C209 C 0.24988 0.68785 0.27627 0.0
C210 C 0.25312 0.66216 0.3556 0.0
H211 H 0.25389 0.65221 0.38615 0.0
C212 C 0.23126 0.68391 0.34662 0.0
H213 H 0.28761 0.65822 0.26216 0.0
C214 C 0.22946 0.69651 0.30731 0.0
H215 H 0.21159 0.71272 0.30111 0.0
H216 H 0.21538 0.69075 0.37006 0.0
H217 H 0.8624 0.76611 0.81139 0.0
C218 C 0.8538 0.78404 0.8308 0.0
C219 C 0.86279 0.78533 0.87228 0.0
C220 C 0.83682 0.80784 0.81324 0.0
H221 H 0.86129 0.81212 0.92766 0.0
C222 C 0.85291 0.80967 0.8965 0.0
C223 C 0.83659 0.83369 0.87926 0.0
C224 C 0.82835 0.83266 0.83773 0.0
C225 C 0.83249 0.80956 0.76815 0.0
H226 H 0.8171 0.85208 0.82384 0.0
C227 C 0.81664 0.78666 0.74683 0.0
C228 C 0.8115 0.78962 0.70423 0.0
C229 C 0.84417 0.83475 0.74628 0.0
H230 H 0.85677 0.85245 0.762 0.0
C231 C 0.83984 0.83728 0.70397 0.0
H232 H 0.80722 0.76737 0.76358 0.0
C233 C 0.8234 0.81502 0.68305 0.0
H234 H 0.81982 0.81768 0.6503 0.0
H235 H 0.84896 0.85675 0.6874 0.0
C236 C 0.18357 0.93961 0.08627 0.0
C237 C 0.15202 0.93679 0.08303 0.0
C238 C 0.19707 0.96738 0.09755 0.0
C239 C 0.17836 -0.00763 0.10712 0.0
C240 C 0.14655 -0.00985 0.10063 0.0
C241 C 0.13377 0.96228 0.08844 0.0
C242 C 0.23108 0.96901 0.10197 0.0
C243 C 0.12565 0.01632 0.11012 0.0
C244 C 0.18872 0.04505 0.1958 0.0
C245 C 0.18844 0.07303 0.17493 0.0
C246 C 0.1895 0.01772 0.1739 0.0
C247 C 0.19054 0.01879 0.13042 0.0
C248 C 0.19619 0.04692 0.11024 0.0
C249 C 0.19484 0.07393 0.13282 0.0
C250 C 0.18464 -0.01188 0.19696 0.0
C251 C 0.19965 0.04893 0.06435 0.0
H252 H 0.1976 0.91972 0.08177 0.0
H253 H 0.10936 0.95986 0.08583 0.0
H254 H 0.23987 -0.00744 0.09758 0.0
H255 H 0.23757 0.96109 0.13318 0.0
H256 H 0.24226 0.95385 0.0795 0.0
H257 H 0.10191 0.01164 0.1005 0.0
H258 H 0.12585 0.02069 0.14365 0.0
H259 H 0.13354 0.03745 0.09447 0.0
H260 H 0.18403 0.04438 0.22848 0.0
H261 H 0.19508 0.09571 0.11683 0.0
H262 H 0.20015 0.97036 0.18551 0.0
H263 H 0.16104 0.97997 0.19192 0.0
H264 H 0.18832 -0.00928 0.23051 0.0
H265 H 0.2133 0.02967 0.05288 0.0
H266 H 0.21063 0.0707 0.05472 0.0
H267 H 0.1769 0.04781 0.04993 0.0
C268 C 0.52361 0.68131 0.59231 0.0
C269 C 0.52469 0.65018 0.58336 0.0
C270 C 0.49626 0.69506 0.60359 0.0
C271 C 0.4698 0.67689 0.60723 0.0
C272 C 0.47037 0.64597 0.59473 0.0
C273 C 0.49795 0.63295 0.58289 0.0
C274 C 0.49626 0.72835 0.61475 0.0
C275 C 0.44244 0.62594 0.59728 0.0
C276 C 0.41396 0.6824 0.69358 0.0
C277 C 0.38722 0.68756 0.67147 0.0
C278 C 0.44202 0.68214 0.67355 0.0
C279 C 0.44323 0.688 0.63071 0.0
C280 C 0.41703 0.69863 0.61011 0.0
C281 C 0.38913 0.69817 0.63081 0.0
C282 C 0.46946 0.67121 0.6971 0.0
C283 C 0.41731 0.70686 0.56512 0.0
H284 H 0.54448 0.69452 0.59268 0.0
H285 H 0.49901 0.60883 0.57609 0.0
H286 H 0.47526 0.73955 0.60367 0.0
H287 H 0.497 0.73058 0.64864 0.0
H288 H 0.51622 0.74058 0.6017 0.0
H289 H 0.4462 0.60308 0.58387 0.0
H290 H 0.43567 0.6229 0.62988 0.0
H291 H 0.42326 0.63691 0.58092 0.0
H292 H 0.41259 0.67427 0.72508 0.0
H293 H 0.36844 0.70249 0.61376 0.0
H294 H 0.4896 0.68549 0.68985 0.0
H295 H 0.47464 0.64748 0.68801 0.0
H296 H 0.46571 0.67151 0.73082 0.0
H297 H 0.4403 0.71325 0.55411 0.0
H298 H 0.40166 0.72608 0.5589 0.0
H299 H 0.40899 0.68707 0.54729 0.0
C300 C 0.85273 0.03039 0.12452 0.0
C301 C 0.83726 0.0572 0.13301 0.0
C302 C 0.84041 0.00211 0.13599 0.0
C303 C 0.8115 0.00081 0.15497 0.0
C304 C 0.79522 0.02795 0.16185 0.0
C305 C 0.80863 0.05602 0.1514 0.0
C306 C 0.85897 0.97377 0.12952 0.0
C307 C 0.76409 0.02737 0.18099 0.0
C308 C 0.78192 0.92015 0.1521 0.0
C309 C 0.79344 0.90898 0.18927 0.0
C310 C 0.78477 0.95116 0.14194 0.0
C311 C 0.79963 0.971 0.16969 0.0
C312 C 0.80828 0.96022 0.20907 0.0
C313 C 0.80512 0.92917 0.21835 0.0
C314 C 0.77507 0.96187 0.0998 0.0
C315 C 0.82422 0.98059 0.23952 0.0
H316 H 0.87494 0.03167 0.11032 0.0
H317 H 0.79678 0.07707 0.15752 0.0
H318 H 0.86506 0.96362 0.15972 0.0
H319 H 0.84551 0.95649 0.11267 0.0
H320 H 0.8802 0.97856 0.11227 0.0
H321 H 0.75311 0.05006 0.17977 0.0
H322 H 0.74931 0.01061 0.16513 0.0
H323 H 0.7658 0.02005 0.21358 0.0
H324 H 0.77329 0.90426 0.1295 0.0
H325 H 0.81431 0.92021 0.24687 0.0
H326 H 0.79525 0.96356 0.07954 0.0
H327 H 0.76474 0.98482 0.10122 0.0
H328 H 0.75861 0.94583 0.08558 0.0
H329 H 0.8478 0.98492 0.22903 0.0
H330 H 0.82512 0.97008 0.27065 0.0
H331 H 0.81279 0.00293 0.24162 0.0
C332 C 0.42208 0.31224 0.63134 0.0
C333 C 0.40844 0.29527 0.60017 0.0
C334 C 0.44905 0.30246 0.64967 0.0
C335 C 0.46182 0.27436 0.63764 0.0
C336 C 0.44593 0.25543 0.60979 0.0
C337 C 0.41985 0.26662 0.59016 0.0
C338 C 0.46536 0.32369 0.67872 0.0
C339 C 0.45757 0.22434 0.5987 0.0
C340 C 0.54619 0.28306 0.63008 0.0
C341 C 0.5552 0.27608 0.67026 0.0
C342 C 0.51598 0.28016 0.61801 0.0
C343 C 0.49436 0.26889 0.64649 0.0
C344 C 0.50408 0.25795 0.68541 0.0
C345 C 0.53456 0.26208 0.6972 0.0
C346 C 0.5069 0.29254 0.57637 0.0
C347 C 0.48215 0.24392 0.71572 0.0
H348 H 0.41302 0.3344 0.63895 0.0
H349 H 0.40883 0.25335 0.56641 0.0
H350 H 0.47058 0.3117 0.70793 0.0
H351 H 0.48721 0.33119 0.66494 0.0
H352 H 0.45184 0.34424 0.68581 0.0
H353 H 0.43905 0.20953 0.58684 0.0
H354 H 0.47504 0.22658 0.5744 0.0
H355 H 0.46818 0.21305 0.6257 0.0
H356 H 0.56251 0.29308 0.60893 0.0
H357 H 0.54169 0.25612 0.72809 0.0
H358 H 0.49289 0.31321 0.58038 0.0
H359 H 0.49312 0.27567 0.5593 0.0
H360 H 0.52687 0.29869 0.55732 0.0
H361 H 0.47378 0.2618 0.73665 0.0
H362 H 0.49358 0.22636 0.73489 0.0
H363 H 0.46236 0.23335 0.70012 0.0
C364 C 0.64021 0.49613 0.48493 0.0
C365 C 0.65797 0.52261 0.48391 0.0
C366 C 0.65162 0.46859 0.46989 0.0
C367 C 0.68162 0.46763 0.45423 0.0
C368 C 0.70057 0.49361 0.45735 0.0
C369 C 0.68829 0.52106 0.47135 0.0
C370 C 0.63077 0.44122 0.4676 0.0
C371 C 0.73314 0.493 0.44336 0.0
C372 C 0.70015 0.38672 0.42544 0.0
C373 C 0.68931 0.38633 0.38497 0.0
C374 C 0.70144 0.41403 0.44754 0.0
C375 C 0.69089 0.44121 0.42885 0.0
C376 C 0.68378 0.44142 0.38636 0.0
C377 C 0.68343 0.41393 0.36479 0.0
C378 C 0.71103 0.41269 0.49192 0.0
C379 C 0.67266 0.46987 0.36487 0.0
H380 H 0.61674 0.49748 0.49456 0.0
H381 H 0.70201 0.54167 0.47077 0.0
H382 H 0.62676 0.43517 0.43499 0.0
H383 H 0.6415 0.42131 0.48279 0.0
H384 H 0.6085 0.44539 0.48233 0.0
H385 H 0.74637 0.5125 0.45575 0.0
H386 H 0.74412 0.47142 0.45308 0.0
H387 H 0.734 0.49422 0.40935 0.0
H388 H 0.70486 0.36533 0.44102 0.0
H389 H 0.6749 0.41362 0.33353 0.0
H390 H 0.69222 0.40283 0.51043 0.0
H391 H 0.71712 0.43543 0.50418 0.0
H392 H 0.73077 0.39733 0.49567 0.0
H393 H 0.64971 0.47551 0.37638 0.0
H394 H 0.67131 0.46701 0.33105 0.0
H395 H 0.68776 0.48951 0.37151 0.0
C396 C 0.95681 0.13327 0.94128 0.0
C397 C 0.92898 0.14674 0.93233 0.0
C398 C -0.01665 0.14329 0.92174 0.0
C399 C 0.98186 0.16736 0.89245 0.0
C400 C 0.95382 0.1815 0.88392 0.0
C401 C 0.92758 0.1708 0.9038 0.0
C402 C 0.01279 0.12725 0.93128 0.0
C403 C 0.95123 0.20696 0.85271 0.0
C404 C 0.0611 0.19588 0.87496 0.0
C405 C 0.07052 0.17506 0.84538 0.0
C406 C 0.0307 0.19657 0.88742 0.0
C407 C 0.0097 0.17602 0.86959 0.0
C408 C 0.01838 0.15847 0.83534 0.0
C409 C 0.04893 0.15804 0.82376 0.0
C410 C 0.02213 0.21613 0.9234 0.0
C411 C -0.00353 0.13689 0.81471 0.0
H412 H 0.95757 0.11389 0.96209 0.0
H413 H 0.90586 0.18098 0.89662 0.0
H414 H 0.02139 0.11598 0.90328 0.0
H415 H 0.03024 0.14401 0.94111 0.0
H416 H 0.01016 0.10967 0.95578 0.0
H417 H 0.9295 0.2194 0.8557 0.0
H418 H 0.97028 0.22344 0.85575 0.0
H419 H 0.95231 0.19733 0.82137 0.0
H420 H 0.07797 0.20893 0.89169 0.0
H421 H 0.05643 0.14195 0.80088 0.0
H422 H 0.02199 0.20192 0.95177 0.0
H423 H -0.00092 0.22565 0.91935 0.0
H424 H 0.03851 0.23518 0.92775 0.0
H425 H -0.00636 0.11615 0.83411 0.0
H426 H 0.00479 0.12981 0.78408 0.0
H427 H 0.97386 0.14745 0.81103 0.0
C428 C 0.27669 0.40858 0.43962 0.0
C429 C 0.2929 0.41638 0.47506 0.0
C430 C 0.26434 0.43153 0.41438 0.0
C431 C 0.26918 0.46246 0.42483 0.0
C432 C 0.28048 0.46966 0.4644 0.0
C433 C 0.29216 0.44635 0.48915 0.0
C434 C 0.24973 0.4227 0.37432 0.0
C435 C 0.28511 0.50219 0.47796 0.0
C436 C 0.30774 0.51784 0.35407 0.0
C437 C 0.28826 0.54279 0.35712 0.0
C438 C 0.30017 0.48976 0.37207 0.0
C439 C 0.27183 0.48626 0.39218 0.0
C440 C 0.24999 0.50958 0.38856 0.0
C441 C 0.25865 0.53795 0.37177 0.0
C442 C 0.32411 0.4653 0.37388 0.0
C443 C 0.21852 0.50585 0.40594 0.0
H444 H 0.27691 0.38523 0.42897 0.0
H445 H 0.30435 0.45213 0.51701 0.0
H446 H 0.23473 0.44093 0.36232 0.0
H447 H 0.26756 0.41824 0.35119 0.0
H448 H 0.2363 0.40137 0.37821 0.0
H449 H 0.28956 0.50362 0.51146 0.0
H450 H 0.30478 0.5123 0.46137 0.0
H451 H 0.26495 0.51615 0.47081 0.0
H452 H 0.33012 0.52111 0.34095 0.0
H453 H 0.24301 0.55684 0.37335 0.0
H454 H 0.31469 0.44335 0.36293 0.0
H455 H 0.33168 0.4619 0.40611 0.0
H456 H 0.34428 0.47115 0.35493 0.0
H457 H 0.21187 0.4815 0.40914 0.0
H458 H 0.20176 0.5176 0.38596 0.0
H459 H 0.21748 0.51661 0.4366 0.0
C460 C -0.00084 0.82438 0.97329 0.0
C461 C 0.02538 0.80705 0.97779 0.0
C462 C 0.97189 0.81073 0.96077 0.0
C463 C 0.97107 0.77901 0.95254 0.0
C464 C -0.00308 0.76105 0.96069 0.0
C465 C 0.02404 0.77543 0.97265 0.0
C466 C 0.94462 0.8307 0.95318 0.0
C467 C -0.00334 0.72708 0.954 0.0
C468 C 0.89018 0.7588 0.92908 0.0
C469 C 0.88921 0.76792 0.88769 0.0
C470 C 0.91782 0.75815 0.95044 0.0
C471 C 0.94478 0.76633 0.92952 0.0
C472 C 0.94433 0.76958 0.8862 0.0
C473 C 0.91641 0.77021 0.86567 0.0
C474 C 0.91718 0.75328 0.99626 0.0
C475 C 0.97271 0.77734 0.86232 0.0
H476 H 0.00052 0.84891 0.9767 0.0
H477 H 0.04456 0.76216 0.97599 0.0
H478 H 0.9385 0.8304 0.92012 0.0
H479 H 0.92484 0.82183 0.97067 0.0
H480 H 0.94879 0.85472 0.9622 0.0
H481 H 0.01502 0.71571 0.97165 0.0
H482 H 0.97455 0.71686 0.96304 0.0
H483 H 0.00023 0.72239 0.92096 0.0
H484 H 0.86915 0.75625 0.94601 0.0
H485 H 0.91592 0.77683 0.83353 0.0
H486 H 0.91093 0.77503 1.011 0.0
H487 H 0.93946 0.7459 1.00852 0.0
H488 H 0.89967 0.73606 1.00481 0.0
H489 H 0.97889 0.80156 0.86765 0.0
H490 H 0.96947 0.77411 0.82879 0.0
H491 H -0.00803 0.76314 0.8727 0.0
C492 C 0.82742 0.0034 0.94265 0.0
C493 C 0.84232 0.01245 0.97868 0.0
C494 C 0.82382 0.97271 0.93272 0.0
C495 C 0.83531 0.95014 0.95959 0.0
C496 C 0.8486 0.9589 0.99754 0.0
C497 C 0.85171 -0.00982 1.00693 0.0
C498 C 0.80984 0.96465 0.89175 0.0
C499 C 0.86041 0.93539 0.02748 0.0
C500 C 0.81136 0.87058 0.92652 0.0
C501 C 0.83588 0.86273 0.90164 0.0
C502 C 0.81163 0.8982 0.94826 0.0
C503 C 0.83688 0.91821 0.94453 0.0
C504 C 0.86223 0.90942 0.92084 0.0
C505 C 0.86137 0.8818 0.8997 0.0
C506 C 0.78473 0.90638 0.97435 0.0
C507 C 0.88985 0.92973 0.91656 0.0
H508 H 0.81965 0.0206 0.92102 0.0
H509 H 0.86301 -0.00288 0.03495 0.0
H510 H 0.82741 0.9548 0.87153 0.0
H511 H 0.79175 0.94722 0.8958 0.0
H512 H 0.79997 0.98478 0.87586 0.0
H513 H 0.8769 0.94545 0.04938 0.0
H514 H 0.84107 0.92573 0.04518 0.0
H515 H 0.87159 0.91628 1.01151 0.0
H516 H 0.79202 0.85527 0.92871 0.0
H517 H 0.88059 0.87512 0.88115 0.0
H518 H 0.77276 0.92607 0.96039 0.0
H519 H 0.79244 0.91338 1.00536 0.0
H520 H 0.7684 0.88713 0.97756 0.0
H521 H 0.88365 0.95097 0.89993 0.0
H522 H 0.90848 0.91852 0.89957 0.0
H523 H 0.8984 0.9363 0.94732 0.0
C524 C 0.45706 0.32056 0.44847 0.0
C525 C 0.45403 0.33885 0.48314 0.0
C526 C 0.48578 0.31438 0.43222 0.0
C527 C 0.51195 0.32613 0.45196 0.0
C528 C 0.50896 0.34259 0.48899 0.0
C529 C 0.47988 0.34931 0.50371 0.0
C530 C 0.48788 0.29782 0.39188 0.0
C531 C 0.53631 0.35506 0.5114 0.0
C532 C 0.58983 0.301 0.41538 0.0
C533 C 0.59799 0.32569 0.39026 0.0
C534 C 0.56167 0.30055 0.43563 0.0
C535 C 0.54166 0.32546 0.43053 0.0
C536 C 0.54995 0.35023 0.40465 0.0
C537 C 0.57807 0.35003 0.38492 0.0
C538 C 0.55377 0.274 0.46338 0.0
C539 C 0.52931 0.37719 0.39811 0.0
H540 H 0.43687 0.31313 0.4322 0.0
H541 H 0.47732 0.36374 0.53034 0.0
H542 H 0.49483 0.31417 0.3674 0.0
H543 H 0.50536 0.27982 0.39348 0.0
H544 H 0.46591 0.28728 0.38287 0.0
H545 H 0.5308 0.36105 0.54361 0.0
H546 H 0.55506 0.33833 0.51163 0.0
H547 H 0.54461 0.37594 0.4955 0.0
H548 H 0.60565 0.28247 0.41974 0.0
H549 H 0.58484 0.36921 0.36572 0.0
H550 H 0.53079 0.26507 0.45618 0.0
H551 H 0.55347 0.28177 0.49568 0.0
H552 H 0.57031 0.25514 0.46078 0.0
H553 H 0.50677 0.36936 0.38711 0.0
H554 H 0.53867 0.39387 0.37552 0.0
H555 H 0.52579 0.3891 0.4276 0.0
C556 C 0.1427 0.95868 0.9794 0.0
C557 C 0.11527 0.94534 0.96712 0.0
C558 C 0.14975 -0.01102 0.96872 0.0
C559 C 0.1287 0.00629 0.94554 0.0
C560 C 0.10042 -0.00683 0.93454 0.0
C561 C 0.09417 0.96277 0.94521 0.0
C562 C 0.18055 0.00136 0.98013 0.0
C563 C 0.07728 0.0108 0.90988 0.0
C564 C 0.12852 0.0922 0.93477 0.0
C565 C 0.14029 0.09609 0.89512 0.0
C566 C 0.12683 0.06321 0.95308 0.0
C567 C 0.13636 0.03753 0.93062 0.0
C568 C 0.15004 0.04168 0.89158 0.0
C569 C 0.15202 0.07105 0.87434 0.0
C570 C 0.11319 0.05989 0.99538 0.0
C571 C 0.16074 0.01487 0.86692 0.0
H572 H 0.15939 0.94495 0.99533 0.0
H573 H 0.07296 0.95237 0.93563 0.0
H574 H 0.19714 -0.00539 0.95637 0.0
H575 H 0.18084 0.02656 0.98209 0.0
H576 H 0.18825 -0.00851 1.00984 0.0
H577 H 0.05604 -0.00244 0.90493 0.0
H578 H 0.07155 0.03227 0.92575 0.0
H579 H 0.08691 0.0171 0.87949 0.0
H580 H 0.11957 0.11174 0.9508 0.0
H581 H 0.16098 0.0742 0.8436 0.0
H582 H 0.12618 0.04326 1.01414 0.0
H583 H 0.08963 0.05112 0.99269 0.0
H584 H 0.1126 0.08198 1.01177 0.0
H585 H 0.17622 0.00058 0.88566 0.0
H586 H 0.17273 0.02208 0.83843 0.0
H587 H 0.141 0.00044 0.85831 0.0
C588 C 0.50441 0.63292 0.48 0.0
C589 C 0.5207 0.60741 0.46721 0.0
C590 C 0.47392 0.63694 0.46836 0.0
C591 C 0.45959 0.61513 0.44281 0.0
C592 C 0.47588 0.58905 0.4305 0.0
C593 C 0.50617 0.58558 0.44274 0.0
C594 C 0.45736 0.6649 0.48243 0.0
C595 C 0.46148 0.56503 0.40367 0.0
C596 C 0.37454 0.60499 0.43118 0.0
C597 C 0.36954 0.61726 0.39182 0.0
C598 C 0.40335 0.60602 0.4495 0.0
C599 C 0.42788 0.61947 0.42782 0.0
C600 C 0.42247 0.63373 0.38925 0.0
C601 C 0.39329 0.63255 0.37174 0.0
C602 C 0.40785 0.591 0.49092 0.0
C603 C 0.44794 0.64848 0.36524 0.0
H604 H 0.51582 0.65031 0.49779 0.0
H605 H 0.51868 0.56581 0.43274 0.0
H606 H 0.45373 0.68047 0.4559 0.0
H607 H 0.43472 0.65853 0.49465 0.0
H608 H 0.47016 0.6774 0.50646 0.0
H609 H 0.477 0.54577 0.39759 0.0
H610 H 0.44065 0.55587 0.41847 0.0
H611 H 0.45466 0.57531 0.37384 0.0
H612 H 0.35605 0.59357 0.44709 0.0
H613 H 0.38947 0.64206 0.34135 0.0
H614 H 0.42175 0.60575 0.51115 0.0
H615 H 0.42027 0.56932 0.48702 0.0
H616 H 0.38597 0.58586 0.50645 0.0
H617 H 0.46113 0.66416 0.38509 0.0
H618 H 0.43953 0.66142 0.33812 0.0
H619 H 0.4637 0.63066 0.35444 0.0
C620 C 0.35685 0.45458 0.58009 0.0
C621 C 0.35587 0.43479 0.6142 0.0
C622 C 0.35265 0.48611 0.58471 0.0
C623 C 0.34762 0.49803 0.62438 0.0
C624 C 0.3471 0.47826 0.65888 0.0
C625 C 0.35129 0.44701 0.65339 0.0
C626 C 0.35383 0.50657 0.54723 0.0
C627 C 0.34203 0.49009 0.70179 0.0
C628 C 0.36641 0.57893 0.65365 0.0
C629 C 0.33746 0.59117 0.65928 0.0
C630 C 0.3701 0.54914 0.63979 0.0
C631 C 0.34417 0.53127 0.63088 0.0
C632 C 0.31487 0.54419 0.63402 0.0
C633 C 0.3118 0.57398 0.64896 0.0
C634 C 0.40169 0.5362 0.6375 0.0
C635 C 0.28679 0.52609 0.62329 0.0
H636 H 0.36044 0.44545 0.5497 0.0
H637 H 0.35045 0.43207 0.68004 0.0
H638 H 0.33574 0.52398 0.54824 0.0
H639 H 0.37589 0.51885 0.54645 0.0
H640 H 0.35152 0.49346 0.51834 0.0
H641 H 0.3423 0.47164 0.72535 0.0
H642 H 0.35986 0.50704 0.70961 0.0
H643 H 0.31988 0.50182 0.70344 0.0
H644 H 0.38624 0.59228 0.66202 0.0
H645 H 0.28948 0.58365 0.65313 0.0
H646 H 0.40525 0.52482 0.60765 0.0
H647 H 0.40459 0.51873 0.662 0.0
H648 H 0.41948 0.554 0.64139 0.0
H649 H 0.28977 0.51458 0.59336 0.0
H650 H 0.26632 0.54065 0.62164 0.0
H651 H 0.28295 0.5081 0.64689 0.0
C652 C 6e-05 0.84421 0.07743 0.0
C653 C 0.02345 0.83143 0.10081 0.0
C654 C 0.96963 0.84069 0.08959 0.0
C655 C 0.96264 0.82371 0.12566 0.0
C656 C -0.01388 0.80891 0.14749 0.0
C657 C 0.01628 0.8133 0.13512 0.0
C658 C 0.94514 0.85647 0.0652 0.0
C659 C 0.97954 0.78977 0.18519 0.0
C660 C 0.89578 0.85038 0.18835 0.0
C661 C 0.87237 0.83083 0.17546 0.0
C662 C 0.92509 0.84815 0.17235 0.0
C663 C 0.93166 0.82504 0.14373 0.0
C664 C 0.9087 0.80393 0.1325 0.0
C665 C 0.87922 0.80714 0.14841 0.0
C666 C 0.94874 0.87135 0.18498 0.0
C667 C 0.91512 0.77802 0.10373 0.0
H668 H 0.00568 0.85846 0.05117 0.0
H669 H 0.03441 0.80309 0.15293 0.0
H670 H 0.92785 0.83958 0.0552 0.0
H671 H 0.9335 0.87333 0.08478 0.0
H672 H 0.95426 0.86847 0.03767 0.0
H673 H -0.00037 0.77655 0.19534 0.0
H674 H 0.9725 0.80471 0.21073 0.0
H675 H 0.96056 0.7737 0.17913 0.0
H676 H 0.89086 0.86828 0.21004 0.0
H677 H 0.86132 0.79186 0.13837 0.0
H678 H 0.95713 0.88391 0.15748 0.0
H679 H 0.96845 0.85974 0.19917 0.0
H680 H 0.9398 0.88813 0.20718 0.0
H681 H 0.93082 0.78518 0.07885 0.0
H682 H 0.894 0.76876 0.08984 0.0
H683 H 0.92623 0.75937 0.12121 0.0
C684 C 0.64405 0.4996 0.58882 0.0
C685 C 0.61912 0.51469 0.6055 0.0
C686 C 0.64971 0.46888 0.59859 0.0
C687 C 0.63007 0.4531 0.62595 0.0
C688 C 0.60497 0.4684 0.64303 0.0
C689 C 0.5999 0.49898 0.63272 0.0
C690 C 0.67658 0.45332 0.57967 0.0
C691 C 0.58319 0.45236 0.6719 0.0
C692 C 0.61782 0.36795 0.62486 0.0
C693 C 0.63022 0.35915 0.66287 0.0
C694 C 0.6193 0.39818 0.61113 0.0
C695 C 0.63435 0.42016 0.63541 0.0
C696 C 0.64963 0.41086 0.67173 0.0
C697 C 0.6472 0.38038 0.68528 0.0
C698 C 0.60236 0.4069 0.57249 0.0
C699 C 0.66675 0.43349 0.69773 0.0
H700 H 0.65955 0.51203 0.569 0.0
H701 H 0.58066 0.51064 0.64586 0.0
H702 H 0.69207 0.44509 0.60416 0.0
H703 H 0.6688 0.4331 0.56233 0.0
H704 H 0.68942 0.46864 0.55854 0.0
H705 H 0.56488 0.46758 0.68266 0.0
H706 H 0.57265 0.43253 0.65633 0.0
H707 H 0.59559 0.44352 0.69911 0.0
H708 H 0.60548 0.35137 0.60668 0.0
H709 H 0.65713 0.37364 0.7144 0.0
H710 H 0.61544 0.42369 0.55402 0.0
H711 H 0.5806 0.41769 0.581 0.0
H712 H 0.59721 0.38679 0.5531 0.0
H713 H 0.68096 0.4487 0.67818 0.0
H714 H 0.6815 0.42202 0.72073 0.0
H715 H 0.6504 0.44802 0.71429 0.0
C716 C 0.94708 0.12528 0.12559 0.0
C717 C 0.94479 0.12847 0.08282 0.0
C718 C 0.97539 0.12401 0.14512 0.0
C719 C 0.00211 0.12632 0.12132 0.0
C720 C -1e-05 0.12953 0.07808 0.0
C721 C 0.97128 0.13032 0.05931 0.0
C722 C 0.97668 0.12012 0.19121 0.0
C723 C 0.02799 0.13203 0.05161 0.0
C724 C 0.07501 0.15055 0.17487 0.0
C725 C 0.08978 0.12262 0.17939 0.0
C726 C 0.04641 0.15212 0.15591 0.0
C727 C 0.03226 0.12505 0.14175 0.0
C728 C 0.04685 0.09672 0.1472 0.0
C729 C 0.07543 0.09586 0.16592 0.0
C730 C 0.03163 0.18277 0.15016 0.0
C731 C 0.03245 0.06731 0.13296 0.0
H732 H 0.92667 0.12338 0.14389 0.0
H733 H 0.96959 0.13318 1.02642 0.0
H734 H -0.01051 0.09924 0.19929 0.0
H735 H -0.01109 0.13968 0.20508 0.0
H736 H 0.95377 0.11843 0.2052 0.0
H737 H 0.02255 0.13987 1.01999 0.0
H738 H 0.04469 0.14812 0.06509 0.0
H739 H 0.03897 0.10942 0.04979 0.0
H740 H 0.08621 0.17121 0.18511 0.0
H741 H 0.08672 0.07416 0.16994 0.0
H742 H 0.00903 0.18276 0.16507 0.0
H743 H 0.02801 0.18732 0.11694 0.0
H744 H 0.04549 0.20161 0.16313 0.0
H745 H 0.0465 0.04711 0.14059 0.0
H746 H 0.02902 0.06816 0.09923 0.0
H747 H 0.00982 0.06429 0.14729 0.0
C748 C 0.15979 0.75024 0.10081 0.0
C749 C 0.17132 0.77588 0.08028 0.0
C750 C 0.17915 0.73017 0.12143 0.0
C751 C 0.21076 0.73613 0.12132 0.0
C752 C 0.22264 0.75866 0.09424 0.0
C753 C 0.20262 0.77881 0.07432 0.0
C754 C 0.16535 0.70563 0.14841 0.0
C755 C 0.2563 0.7639 0.09031 0.0
C756 C 0.23861 0.73235 0.23057 0.0
C757 C 0.24688 0.70167 0.23446 0.0
C758 C 0.22894 0.74447 0.19295 0.0
C759 C 0.22873 0.72582 0.15759 0.0
C760 C 0.24069 0.69599 0.16018 0.0
C761 C 0.24919 0.68404 0.19878 0.0
C762 C 0.21647 0.7765 0.1921 0.0
C763 C 0.24282 0.67586 0.12302 0.0
H764 H 0.13546 0.7479 0.10477 0.0
H765 H 0.21152 0.7985 0.05786 0.0
H766 H 0.17753 0.68385 0.14455 0.0
H767 H 0.16741 0.71233 0.1811 0.0
H768 H 0.14097 0.70177 0.14138 0.0
H769 H 0.26199 0.77442 0.06011 0.0
H770 H 0.26406 0.77964 0.1147 0.0
H771 H 0.26887 0.7422 0.09385 0.0
H772 H 0.23805 0.74655 0.25763 0.0
H773 H 0.25601 0.66042 0.20115 0.0
H774 H 0.19208 0.77592 0.18366 0.0
H775 H 0.22848 0.79049 0.16868 0.0
H776 H 0.21873 0.78803 0.22221 0.0
H777 H 0.22314 0.65999 0.12249 0.0
H778 H 0.26362 0.66177 0.12466 0.0
H779 H 0.24311 0.68918 0.0939 0.0
C780 C 0.70329 0.67282 0.57885 0.0
C781 C 0.68073 0.66433 0.60695 0.0
C782 C 0.72707 0.69258 0.59038 0.0
C783 C 0.72801 0.70416 0.63089 0.0
C784 C 0.70522 0.69561 0.65929 0.0
C785 C 0.68201 0.67582 0.64702 0.0
C786 C 0.75111 0.70103 0.55933 0.0
C787 C 0.70511 0.70757 0.7027 0.0
C788 C 0.79744 0.73618 0.68472 0.0
C789 C 0.79195 0.76754 0.6822 0.0
C790 C 0.77799 0.71522 0.66539 0.0
C791 C 0.75208 0.72593 0.64404 0.0
C792 C 0.74704 0.75765 0.6404 0.0
C793 C 0.76718 0.77806 0.65926 0.0
C794 C 0.78445 0.68159 0.66922 0.0
C795 C 0.71937 0.77 0.61874 0.0
H796 H 0.70269 0.6635 0.54831 0.0
H797 H 0.66458 0.66952 0.669 0.0
H798 H 0.74959 0.72565 0.55172 0.0
H799 H 0.77402 0.69702 0.57235 0.0
H800 H 0.74872 0.68789 0.53051 0.0
H801 H 0.68558 0.69878 0.72088 0.0
H802 H 0.72633 0.70099 0.71869 0.0
H803 H 0.70422 0.73283 0.7022 0.0
H804 H 0.81683 0.72809 0.70205 0.0
H805 H 0.76285 0.80233 0.65749 0.0
H806 H 0.78239 0.67046 0.63886 0.0
H807 H 0.76752 0.6707 0.68991 0.0
H808 H 0.80744 0.6772 0.6818 0.0
H809 H 0.71701 0.75979 0.58786 0.0
H810 H 0.72022 0.7952 0.61532 0.0
H811 H 0.69875 0.76372 0.63647 0.0
C812 C 0.78471 0.17633 0.08914 0.0
C813 C 0.81603 0.17951 0.09488 0.0
C814 C 0.76435 0.1951 0.10996 0.0
C815 C 0.7757 0.2179 0.13654 0.0
C816 C 0.80733 0.22092 0.14283 0.0
C817 C 0.82713 0.20146 0.12216 0.0
C818 C 0.73075 0.1909 0.10291 0.0
C819 C 0.8203 0.2453 0.17034 0.0
C820 C 0.72448 0.2857 0.15302 0.0
C821 C 0.71153 0.27879 0.19133 0.0
C822 C 0.74583 0.26635 0.13522 0.0
C823 C 0.75449 0.23945 0.15627 0.0
C824 C 0.74221 0.23276 0.19548 0.0
C825 C 0.72086 0.25254 0.21257 0.0
C826 C 0.7586 0.27435 0.09345 0.0
C827 C 0.75089 0.20423 0.21877 0.0
H828 H 0.77608 0.15923 0.06823 0.0
H829 H 0.85139 0.20407 0.1264 0.0
H830 H 0.71885 0.18805 0.13271 0.0
H831 H 0.7214 0.2115 0.08767 0.0
H832 H 0.7256 0.17083 0.08347 0.0
H833 H 0.84534 0.24377 0.17329 0.0
H834 H 0.81456 0.26812 0.15778 0.0
H835 H 0.81013 0.24356 0.2014 0.0
H836 H 0.71767 0.30619 0.13673 0.0
H837 H 0.71069 0.24687 0.24196 0.0
H838 H 0.75166 0.25681 0.07092 0.0
H839 H 0.78374 0.27455 0.09456 0.0
H840 H 0.75076 0.29692 0.08215 0.0
H841 H 0.74366 0.18387 0.2012 0.0
H842 H 0.7404 0.20307 0.24974 0.0
H843 H 0.77588 0.20307 0.22228 0.0
C844 C 0.27171 0.32878 0.62006 0.0
C845 C 0.27959 0.31848 0.58104 0.0
C846 C 0.25162 0.31216 0.64477 0.0
C847 C 0.23937 0.28441 0.62998 0.0
C848 C 0.24394 0.27627 0.5884 0.0
C849 C 0.26424 0.29353 0.56416 0.0
C850 C 0.24695 0.32223 0.68854 0.0
C851 C 0.23019 0.24765 0.57089 0.0
C852 C 0.24434 0.228 0.71688 0.0
C853 C 0.21578 0.23095 0.73505 0.0
C854 C 0.25133 0.24304 0.68006 0.0
C855 C 0.22909 0.26139 0.66072 0.0
C856 C 0.19922 0.26184 0.67659 0.0
C857 C 0.19291 0.24668 0.71389 0.0
C858 C 0.28345 0.24153 0.66409 0.0
C859 C 0.17458 0.28017 0.65612 0.0
H860 H 0.28329 0.34852 0.63263 0.0
H861 H 0.27019 0.28579 0.53369 0.0
H862 H 0.22271 0.32041 0.69719 0.0
H863 H 0.25999 0.30719 0.70957 0.0
H864 H 0.25464 0.3461 0.69337 0.0
H865 H 0.2281 0.2493 0.53693 0.0
H866 H 0.24502 0.22803 0.57826 0.0
H867 H 0.2075 0.24292 0.58428 0.0
H868 H 0.26176 0.21506 0.73262 0.0
H869 H 0.17064 0.24868 0.72761 0.0
H870 H 0.29476 0.26401 0.66791 0.0
H871 H 0.28349 0.23619 0.63088 0.0
H872 H 0.29711 0.22408 0.68052 0.0
H873 H 0.17568 0.30399 0.66717 0.0
H874 H 0.15177 0.27084 0.66373 0.0
H875 H 0.17734 0.28064 0.62226 0.0
C876 C 0.69562 0.67407 0.46415 0.0
C877 C 0.66457 0.67971 0.46817 0.0
C878 C 0.71366 0.69211 0.43782 0.0
C879 C 0.6999 0.71538 0.41401 0.0
C880 C 0.6693 0.72315 0.42153 0.0
C881 C 0.65205 0.70525 0.44873 0.0
C882 C 0.74658 0.68415 0.43208 0.0
C883 C 0.65358 0.7477 0.39689 0.0
C884 C 0.73824 0.76708 0.33501 0.0
C885 C 0.73254 0.75101 0.29858 0.0
C886 C 0.72984 0.75486 0.3735 0.0
C887 C 0.71458 0.72641 0.37543 0.0
C888 C 0.71029 0.70943 0.33903 0.0
C889 C 0.71985 0.72167 0.30134 0.0
C890 C 0.73594 0.77321 0.41164 0.0
C891 C 0.69393 0.67902 0.33938 0.0
H892 H 0.70516 0.65377 0.47809 0.0
H893 H 0.62791 0.70931 0.45151 0.0
H894 H 0.74951 0.67215 0.40253 0.0
H895 H 0.76072 0.70516 0.43084 0.0
H896 H 0.75502 0.66912 0.45715 0.0
H897 H 0.63109 0.75346 0.40991 0.0
H898 H 0.66767 0.76869 0.39553 0.0
H899 H 0.65021 0.73975 0.36491 0.0
H900 H 0.74804 0.78976 0.33347 0.0
H901 H 0.71634 0.70856 0.27366 0.0
H902 H 0.74081 0.75825 0.43845 0.0
H903 H 0.71566 0.78692 0.41898 0.0
H904 H 0.75532 0.78918 0.40707 0.0
H905 H 0.70545 0.66287 0.36048 0.0
H906 H 0.69279 0.66861 0.30844 0.0
H907 H 0.67043 0.68196 0.35078 0.0
C908 C 0.74973 0.14204 0.94279 0.0
C909 C 0.774 0.15276 0.96645 0.0
C910 C 0.73054 0.16239 0.92247 0.0
C911 C 0.73587 0.1941 0.92628 0.0
C912 C 0.75646 0.20473 0.95641 0.0
C913 C 0.77576 0.1838 0.97603 0.0
C914 C 0.70771 0.14985 0.89228 0.0
C915 C 0.76068 0.23827 0.96423 0.0
C916 C 0.73701 0.22579 0.81914 0.0
C917 C 0.70641 0.23291 0.81329 0.0
C918 C 0.7477 0.21594 0.85739 0.0
C919 C 0.72738 0.21399 0.89105 0.0
C920 C 0.69753 0.22521 0.88669 0.0
C921 C 0.68719 0.2342 0.84758 0.0
C922 C 0.77994 0.20459 0.8604 0.0
C923 C 0.67565 0.22555 0.92221 0.0
H924 H 0.74763 0.11785 0.93677 0.0
H925 H 0.79397 0.19213 0.9954 0.0
H926 H 0.68557 0.16125 0.89597 0.0
H927 H 0.7157 0.15431 0.86046 0.0
H928 H 0.70423 0.12489 0.8962 0.0
H929 H 0.76963 0.24227 0.99566 0.0
H930 H 0.77725 0.2479 0.94197 0.0
H931 H 0.739 0.25066 0.96034 0.0
H932 H 0.7522 0.22593 0.79299 0.0
H933 H 0.66358 0.24021 0.84352 0.0
H934 H 0.77985 0.17966 0.86644 0.0
H935 H 0.79194 0.21571 0.88623 0.0
H936 H 0.79305 0.20903 0.83185 0.0
H937 H 0.66019 0.20557 0.92019 0.0
H938 H 0.66138 0.24628 0.92067 0.0
H939 H 0.68741 0.22485 0.95235 0.0
C940 C 0.2847 0.30194 0.43445 0.0
C941 C 0.31558 0.30514 0.42534 0.0
C942 C 0.26726 0.2787 0.41694 0.0
C943 C 0.28111 0.25794 0.38988 0.0
C944 C 0.31213 0.26155 0.37958 0.0
C945 C 0.32903 0.28534 0.3973 0.0
C946 C 0.23418 0.27584 0.42849 0.0
C947 C 0.32771 0.2396 0.35126 0.0
C948 C 0.23853 0.18289 0.38674 0.0
C949 C 0.22016 0.18699 0.35199 0.0
C950 C 0.26003 0.205 0.39796 0.0
C951 C 0.26304 0.23191 0.37398 0.0
C952 C 0.24578 0.23536 0.33759 0.0
C953 C 0.22455 0.21281 0.32698 0.0
C954 C 0.27826 0.20035 0.43678 0.0
C955 C 0.24826 0.2638 0.31136 0.0
H956 H 0.27417 0.31737 0.45591 0.0
H957 H 0.35301 0.28766 0.39055 0.0
H958 H 0.21988 0.27523 0.40044 0.0
H959 H 0.23028 0.25417 0.44551 0.0
H960 H 0.22652 0.29494 0.44803 0.0
H961 H 0.35124 0.24695 0.34379 0.0
H962 H 0.32855 0.21673 0.36598 0.0
H963 H 0.31473 0.23721 0.32226 0.0
H964 H 0.23553 0.16271 0.40576 0.0
H965 H 0.21026 0.21619 0.30025 0.0
H966 H 0.27035 0.21633 0.46066 0.0
H967 H 0.30259 0.20538 0.43114 0.0
H968 H 0.27607 0.17674 0.44903 0.0
H969 H 0.23833 0.28327 0.32807 0.0
H970 H 0.23618 0.26135 0.2816 0.0
H971 H 0.27236 0.26952 0.30517 0.0
C972 C 0.20734 0.81282 0.93295 0.0
C973 C 0.18329 0.80147 0.95666 0.0
C974 C 0.23035 0.7935 0.91942 0.0
C975 C 0.22845 0.76196 0.92855 0.0
C976 C 0.20492 0.75071 0.95425 0.0
C977 C 0.18277 0.77078 0.96851 0.0
C978 C 0.25574 0.80658 0.89356 0.0
C979 C 0.20183 0.71718 0.9642 0.0
C980 C 0.25908 0.70799 0.84872 0.0
C981 C 0.28549 0.69727 0.86773 0.0
C982 C 0.24056 0.72931 0.8681 0.0
C983 C 0.24878 0.74037 0.90734 0.0
C984 C 0.27586 0.73033 0.92625 0.0
C985 C 0.29385 0.70875 0.90628 0.0
C986 C 0.21173 0.73937 0.84701 0.0
C987 C 0.28561 0.74214 0.96769 0.0
H988 H 0.20779 0.83674 0.92428 0.0
H989 H 0.16399 0.76211 0.98672 0.0
H990 H 0.27791 0.79739 0.90372 0.0
H991 H 0.2524 0.79993 0.86108 0.0
H992 H 0.25667 0.83186 0.895 0.0
H993 H 0.1841 0.71261 0.98772 0.0
H994 H 0.19573 0.70464 0.93587 0.0
H995 H 0.22365 0.70791 0.97547 0.0
H996 H 0.25233 0.69891 0.81921 0.0
H997 H 0.31445 0.70075 0.92087 0.0
H998 H 0.21198 0.76445 0.84255 0.0
H999 H 0.19189 0.73362 0.86658 0.0
H1000 H 0.20858 0.7285 0.8166 0.0
H1001 H 0.28653 0.76741 0.96712 0.0
H1002 H 0.30816 0.73337 0.97713 0.0
H1003 H 0.26876 0.73534 0.99136 0.0
loop_
_geom_bond_atom_site_label_1
_geom_bond_atom_site_label_2
_geom_bond_distance
_geom_bond_site_symmetry_2
_ccdc_geom_bond_type
Zn0 O6 1.920 . S
Zn0 O12 1.898 . S
Zn0 O15 1.905 . S
Zn1 O9 1.905 . S
Zn1 O10 1.898 . S
Zn1 O18 1.920 . S
Zn2 O5 2.080 . S
Zn2 O8 2.114 1_554 S
Zn2 O11 2.120 1_554 S
Zn2 O13 2.120 . S
Zn2 O14 2.114 . S
Zn2 O17 2.080 1_554 S
C3 O8 1.166 . S
C3 O9 1.182 . S
C4 O10 1.167 . S
C4 O11 1.299 . S
O5 Zn2 2.080 . S
O5 C19 1.305 . S
O6 Zn0 1.920 . S
O6 C19 1.234 . S
C7 O12 1.167 . S
C7 O13 1.299 . S
O8 Zn2 2.114 1_556 S
O8 C3 1.166 . S
O9 Zn1 1.905 . S
O9 C3 1.182 . S
O10 Zn1 1.898 . S
O10 C4 1.167 . S
O11 Zn2 2.120 1_556 S
O11 C4 1.299 . S
O12 Zn0 1.898 . S
O12 C7 1.167 . S
O13 Zn2 2.120 . S
O13 C7 1.299 . S
O14 Zn2 2.114 . S
O14 C16 1.166 . S
O15 Zn0 1.905 . S
O15 C16 1.182 . S
C16 O14 1.166 . S
C16 O15 1.182 . S
O17 Zn2 2.080 1_556 S
O17 C20 1.305 . S
O18 Zn1 1.920 . S
O18 C20 1.234 . S
C19 O5 1.305 . S
C19 O6 1.234 . S
C20 O17 1.305 . S
C20 O18 1.234 . S
Zn21 O27 1.920 . S
Zn21 O33 1.898 . S
Zn21 O36 1.905 . S
Zn22 O30 1.905 . S
Zn22 O31 1.898 . S
Zn22 O39 1.920 . S
Zn23 O26 2.080 . S
Zn23 O29 2.114 . S
Zn23 O32 2.120 . S
Zn23 O34 2.120 . S
Zn23 O35 2.114 . S
Zn23 O38 2.080 . S
C24 O29 1.166 . S
C24 O30 1.182 . S
C25 O31 1.167 . S
C25 O32 1.299 . S
O26 Zn23 2.080 . S
O26 C40 1.305 . S
O27 Zn21 1.920 . S
O27 C40 1.234 . S
C28 O33 1.167 . S
C28 O34 1.299 . S
O29 Zn23 2.114 . S
O29 C24 1.166 . S
O30 Zn22 1.905 . S
O30 C24 1.182 . S
O31 Zn22 1.898 . S
O31 C25 1.167 . S
O32 Zn23 2.120 . S
O32 C25 1.299 . S
O33 Zn21 1.898 . S
O33 C28 1.167 . S
O34 Zn23 2.120 . S
O34 C28 1.299 . S
O35 Zn23 2.114 . S
O35 C37 1.166 . S
O36 Zn21 1.905 . S
O36 C37 1.182 . S
C37 O35 1.166 . S
C37 O36 1.182 . S
O38 Zn23 2.080 . S
O38 C41 1.305 . S
O39 Zn22 1.920 . S
O39 C41 1.234 . S
C40 O26 1.305 . S
C40 O27 1.234 . S
C41 O38 1.305 . S
C41 O39 1.234 . S
Zn42 O48 1.920 . S
Zn42 O54 1.898 . S
Zn42 O57 1.905 . S
Zn43 O51 1.905 . S
Zn43 O52 1.898 . S
Zn43 O60 1.920 . S
Zn44 O47 2.080 1_554 S
Zn44 O50 2.114 . S
Zn44 O53 2.120 . S
Zn44 O55 2.120 1_554 S
Zn44 O56 2.114 1_554 S
Zn44 O59 2.080 . S
C45 O50 1.166 . S
C45 O51 1.182 . S
C46 O52 1.167 . S
C46 O53 1.299 . S
O47 Zn44 2.080 1_556 S
O47 C61 1.305 . S
O48 Zn42 1.920 . S
O48 C61 1.234 . S
C49 O54 1.167 . S
C49 O55 1.299 . S
O50 Zn44 2.114 . S
O50 C45 1.166 . S
O51 Zn43 1.905 . S
O51 C45 1.182 . S
O52 Zn43 1.898 . S
O52 C46 1.167 . S
O53 Zn44 2.120 . S
O53 C46 1.299 . S
O54 Zn42 1.898 . S
O54 C49 1.167 . S
O55 Zn44 2.120 1_556 S
O55 C49 1.299 . S
O56 Zn44 2.114 1_556 S
O56 C58 1.166 . S
O57 Zn42 1.905 . S
O57 C58 1.182 . S
C58 O56 1.166 . S
C58 O57 1.182 . S
O59 Zn44 2.080 . S
O59 C62 1.305 . S
O60 Zn43 1.920 . S
O60 C62 1.234 . S
C61 O47 1.305 . S
C61 O48 1.234 . S
C62 O59 1.305 . S
C62 O60 1.234 . S
Zn63 O69 1.920 . S
Zn63 O75 1.898 . S
Zn63 O78 1.905 . S
Zn64 O72 1.905 . S
Zn64 O73 1.898 . S
Zn64 O81 1.920 . S
Zn65 O68 2.080 . S
Zn65 O71 2.114 . S
Zn65 O74 2.120 . S
Zn65 O76 2.120 . S
Zn65 O77 2.114 . S
Zn65 O80 2.080 . S
C66 O71 1.166 . S
C66 O72 1.182 . S
C67 O73 1.167 . S
C67 O74 1.299 . S
O68 Zn65 2.080 . S
O68 C82 1.305 . S
O69 Zn63 1.920 . S
O69 C82 1.234 . S
C70 O75 1.167 . S
C70 O76 1.299 . S
O71 Zn65 2.114 . S
O71 C66 1.166 . S
O72 Zn64 1.905 . S
O72 C66 1.182 . S
O73 Zn64 1.898 . S
O73 C67 1.167 . S
O74 Zn65 2.120 . S
O74 C67 1.299 . S
O75 Zn63 1.898 . S
O75 C70 1.167 . S
O76 Zn65 2.120 . S
O76 C70 1.299 . S
O77 Zn65 2.114 . S
O77 C79 1.166 . S
O78 Zn63 1.905 . S
O78 C79 1.182 . S
C79 O77 1.166 . S
C79 O78 1.182 . S
O80 Zn65 2.080 . S
O80 C83 1.305 . S
O81 Zn64 1.920 . S
O81 C83 1.234 . S
C82 O68 1.305 . S
C82 O69 1.234 . S
C83 O80 1.305 . S
C83 O81 1.234 . S
H84 C85 0.949 . S
C85 H84 0.949 . S
C85 C86 1.395 . S
C85 C87 1.391 . S
C86 C85 1.395 . S
C86 C89 1.390 . S
C87 C85 1.391 . S
C87 C91 1.387 . S
C87 C92 1.491 . S
H88 C89 0.950 . S
C89 C86 1.390 . S
C89 H88 0.950 . S
C89 C90 1.378 . S
C90 C89 1.378 . S
C90 C91 1.409 . S
C91 C87 1.387 . S
C91 C90 1.409 . S
C91 H93 0.951 . S
C92 C87 1.491 . S
C92 C94 1.382 . S
C92 C96 1.404 . S
H93 C91 0.951 . S
C94 C92 1.382 . S
C94 C95 1.390 . S
C94 H99 0.949 . S
C95 C94 1.390 . S
C95 C100 1.399 . S
C96 C92 1.404 . S
C96 H97 0.950 . S
C96 C98 1.375 . S
H97 C96 0.950 . S
C98 C96 1.375 . S
C98 C100 1.382 . S
C98 H102 0.950 . S
H99 C94 0.949 . S
C100 C95 1.399 . S
C100 C98 1.382 . S
C100 H101 0.952 . S
H101 C100 0.952 . S
H102 C98 0.950 . S
H103 C104 0.949 . S
C104 H103 0.949 . S
C104 C105 1.395 . S
C104 C106 1.391 . S
C105 C104 1.395 . S
C105 C108 1.390 . S
C106 C104 1.391 . S
C106 C110 1.387 . S
C106 C111 1.491 . S
H107 C108 0.950 . S
C108 C105 1.390 . S
C108 H107 0.950 . S
C108 C109 1.378 . S
C109 C108 1.378 . S
C109 C110 1.409 . S
C110 C106 1.387 . S
C110 C109 1.409 . S
C110 H112 0.951 . S
C111 C106 1.491 . S
C111 C113 1.382 . S
C111 C115 1.404 . S
H112 C110 0.951 . S
C113 C111 1.382 . S
C113 C114 1.390 . S
C113 H118 0.949 . S
C114 C113 1.390 . S
C114 C119 1.399 . S
C115 C111 1.404 . S
C115 H116 0.950 . S
C115 C117 1.375 . S
H116 C115 0.950 . S
C117 C115 1.375 . S
C117 C119 1.382 . S
C117 H121 0.950 . S
H118 C113 0.949 . S
C119 C114 1.399 . S
C119 C117 1.382 . S
C119 H120 0.952 . S
H120 C119 0.952 . S
H121 C117 0.950 . S
H122 C123 0.949 . S
C123 H122 0.949 . S
C123 C124 1.395 . S
C123 C125 1.391 . S
C124 C123 1.395 . S
C124 C127 1.390 . S
C125 C123 1.391 . S
C125 C129 1.387 . S
C125 C130 1.491 . S
H126 C127 0.950 . S
C127 C124 1.390 . S
C127 H126 0.950 . S
C127 C128 1.378 . S
C128 C127 1.378 . S
C128 C129 1.409 . S
C129 C125 1.387 . S
C129 C128 1.409 . S
C129 H131 0.951 . S
C130 C125 1.491 . S
C130 C132 1.382 . S
C130 C134 1.404 . S
H131 C129 0.951 . S
C132 C130 1.382 . S
C132 C133 1.390 . S
C132 H137 0.949 . S
C133 C132 1.390 . S
C133 C138 1.399 . S
C134 C130 1.404 . S
C134 H135 0.950 . S
C134 C136 1.375 . S
H135 C134 0.950 . S
C136 C134 1.375 . S
C136 C138 1.382 . S
C136 H140 0.950 . S
H137 C132 0.949 . S
C138 C133 1.399 . S
C138 C136 1.382 . S
C138 H139 0.952 . S
H139 C138 0.952 . S
H140 C136 0.950 . S
H141 C142 0.949 . S
C142 H141 0.949 . S
C142 C143 1.395 . S
C142 C144 1.391 . S
C143 C142 1.395 . S
C143 C146 1.390 . S
C144 C142 1.391 . S
C144 C148 1.387 . S
C144 C149 1.491 . S
H145 C146 0.950 . S
C146 C143 1.390 . S
C146 H145 0.950 . S
C146 C147 1.378 . S
C147 C146 1.378 . S
C147 C148 1.409 . S
C148 C144 1.387 . S
C148 C147 1.409 . S
C148 H150 0.951 . S
C149 C144 1.491 . S
C149 C151 1.382 . S
C149 C153 1.404 . S
H150 C148 0.951 . S
C151 C149 1.382 . S
C151 C152 1.390 . S
C151 H156 0.949 . S
C152 C151 1.390 . S
C152 C157 1.399 . S
C153 C149 1.404 . S
C153 H154 0.950 . S
C153 C155 1.375 . S
H154 C153 0.950 . S
C155 C153 1.375 . S
C155 C157 1.382 . S
C155 H159 0.950 . S
H156 C151 0.949 . S
C157 C152 1.399 . S
C157 C155 1.382 . S
C157 H158 0.952 . S
H158 C157 0.952 . S
H159 C155 0.950 . S
H160 C161 0.949 . S
C161 H160 0.949 . S
C161 C162 1.395 . S
C161 C163 1.391 . S
C162 C161 1.395 . S
C162 C165 1.390 . S
C163 C161 1.391 . S
C163 C167 1.387 . S
C163 C168 1.491 . S
H164 C165 0.950 . S
C165 C162 1.390 . S
C165 H164 0.950 . S
C165 C166 1.378 . S
C166 C165 1.378 . S
C166 C167 1.409 . S
C167 C163 1.387 . S
C167 C166 1.409 . S
C167 H169 0.951 . S
C168 C163 1.491 . S
C168 C170 1.382 . S
C168 C172 1.404 . S
H169 C167 0.951 . S
C170 C168 1.382 . S
C170 C171 1.390 . S
C170 H175 0.949 . S
C171 C170 1.390 . S
C171 C176 1.399 . S
C172 C168 1.404 . S
C172 H173 0.950 . S
C172 C174 1.375 . S
H173 C172 0.950 . S
C174 C172 1.375 . S
C174 C176 1.382 . S
C174 H178 0.950 . S
H175 C170 0.949 . S
C176 C171 1.399 . S
C176 C174 1.382 . S
C176 H177 0.952 . S
H177 C176 0.952 . S
H178 C174 0.950 . S
H179 C180 0.949 . S
C180 H179 0.949 . S
C180 C181 1.395 . S
C180 C182 1.391 . S
C181 C180 1.395 . S
C181 C184 1.390 . S
C182 C180 1.391 . S
C182 C186 1.387 . S
C182 C187 1.491 . S
H183 C184 0.950 . S
C184 C181 1.390 . S
C184 H183 0.950 . S
C184 C185 1.378 . S
C185 C184 1.378 . S
C185 C186 1.409 . S
C186 C182 1.387 . S
C186 C185 1.409 . S
C186 H188 0.951 . S
C187 C182 1.491 . S
C187 C189 1.382 . S
C187 C191 1.404 . S
H188 C186 0.951 . S
C189 C187 1.382 . S
C189 C190 1.390 . S
C189 H194 0.949 . S
C190 C189 1.390 . S
C190 C195 1.399 . S
C191 C187 1.404 . S
C191 H192 0.950 . S
C191 C193 1.375 . S
H192 C191 0.950 . S
C193 C191 1.375 . S
C193 C195 1.382 . S
C193 H197 0.950 . S
H194 C189 0.949 . S
C195 C190 1.399 . S
C195 C193 1.382 . S
C195 H196 0.952 . S
H196 C195 0.952 . S
H197 C193 0.950 . S
H198 C199 0.949 . S
C199 H198 0.949 . S
C199 C200 1.395 . S
C199 C201 1.391 . S
C200 C199 1.395 . S
C200 C203 1.390 . S
C201 C199 1.391 . S
C201 C205 1.387 . S
C201 C206 1.491 . S
H202 C203 0.950 . S
C203 C200 1.390 . S
C203 H202 0.950 . S
C203 C204 1.378 . S
C204 C203 1.378 . S
C204 C205 1.409 . S
C205 C201 1.387 . S
C205 C204 1.409 . S
C205 H207 0.951 . S
C206 C201 1.491 . S
C206 C208 1.382 . S
C206 C210 1.404 . S
H207 C205 0.951 . S
C208 C206 1.382 . S
C208 C209 1.390 . S
C208 H213 0.949 . S
C209 C208 1.390 . S
C209 C214 1.399 . S
C210 C206 1.404 . S
C210 H211 0.950 . S
C210 C212 1.375 . S
H211 C210 0.950 . S
C212 C210 1.375 . S
C212 C214 1.382 . S
C212 H216 0.950 . S
H213 C208 0.949 . S
C214 C209 1.399 . S
C214 C212 1.382 . S
C214 H215 0.952 . S
H215 C214 0.952 . S
H216 C212 0.950 . S
H217 C218 0.949 . S
C218 H217 0.949 . S
C218 C219 1.395 . S
C218 C220 1.391 . S
C219 C218 1.395 . S
C219 C222 1.390 . S
C220 C218 1.391 . S
C220 C224 1.387 . S
C220 C225 1.491 . S
H221 C222 0.950 . S
C222 C219 1.390 . S
C222 H221 0.950 . S
C222 C223 1.378 . S
C223 C222 1.378 . S
C223 C224 1.409 . S
C224 C220 1.387 . S
C224 C223 1.409 . S
C224 H226 0.951 . S
C225 C220 1.491 . S
C225 C227 1.382 . S
C225 C229 1.404 . S
H226 C224 0.951 . S
C227 C225 1.382 . S
C227 C228 1.390 . S
C227 H232 0.949 . S
C228 C227 1.390 . S
C228 C233 1.399 . S
C229 C225 1.404 . S
C229 H230 0.950 . S
C229 C231 1.375 . S
H230 C229 0.950 . S
C231 C229 1.375 . S
C231 C233 1.382 . S
C231 H235 0.950 . S
H232 C227 0.949 . S
C233 C228 1.399 . S
C233 C231 1.382 . S
C233 H234 0.952 . S
H234 C233 0.952 . S
H235 C231 0.950 . S
C236 C237 1.391 . S
C236 C238 1.394 . S
C236 H252 0.931 . S
C237 C236 1.391 . S
C237 C241 1.376 . S
C238 C236 1.394 . S
C238 C239 1.369 . S
C238 C242 1.531 . S
C239 C238 1.369 . S
C239 C240 1.410 . S
C239 C247 1.503 1_565 S
C240 C239 1.410 . S
C240 C241 1.392 . S
C240 C243 1.511 1_565 S
C241 C237 1.376 . S
C241 C240 1.392 . S
C241 H253 0.929 . S
C242 C238 1.531 . S
C242 H254 0.960 1_565 S
C242 H255 0.962 . S
C242 H256 0.960 . S
C243 C240 1.511 1_545 S
C243 H257 0.961 1_545 S
C243 H258 0.961 . S
C243 H259 0.961 . S
C244 C245 1.370 . S
C244 C246 1.363 . S
C244 H260 0.931 . S
C245 C244 1.370 . S
C245 C249 1.408 . S
C246 C244 1.363 . S
C246 C247 1.370 . S
C246 C250 1.524 1_545 S
C247 C239 1.503 1_545 S
C247 C246 1.370 . S
C247 C248 1.403 . S
C248 C247 1.403 . S
C248 C249 1.404 . S
C248 C251 1.539 . S
C249 C245 1.408 . S
C249 C248 1.404 . S
C249 H261 0.930 . S
C250 C246 1.524 1_565 S
C250 H262 0.956 . S
C250 H263 0.961 . S
C250 H264 0.961 . S
C251 C248 1.539 . S
C251 H265 0.958 . S
C251 H266 0.961 . S
C251 H267 0.960 . S
H252 C236 0.931 . S
H253 C241 0.929 . S
H254 C242 0.960 1_545 S
H255 C242 0.962 . S
H256 C242 0.960 . S
H257 C243 0.961 1_565 S
H258 C243 0.961 . S
H259 C243 0.961 . S
H260 C244 0.931 . S
H261 C249 0.930 . S
H262 C250 0.956 . S
H263 C250 0.961 . S
H264 C250 0.961 . S
H265 C251 0.958 . S
H266 C251 0.961 . S
H267 C251 0.960 . S
C268 C269 1.391 . S
C268 C270 1.394 . S
C268 H284 0.931 . S
C269 C268 1.391 . S
C269 C273 1.376 . S
C270 C268 1.394 . S
C270 C271 1.369 . S
C270 C274 1.531 . S
C271 C270 1.369 . S
C271 C272 1.410 . S
C271 C279 1.503 . S
C272 C271 1.410 . S
C272 C273 1.392 . S
C272 C275 1.511 . S
C273 C269 1.376 . S
C273 C272 1.392 . S
C273 H285 0.929 . S
C274 C270 1.531 . S
C274 H286 0.960 . S
C274 H287 0.962 . S
C274 H288 0.960 . S
C275 C272 1.511 . S
C275 H289 0.961 . S
C275 H290 0.961 . S
C275 H291 0.961 . S
C276 C277 1.370 . S
C276 C278 1.363 . S
C276 H292 0.931 . S
C277 C276 1.370 . S
C277 C281 1.408 . S
C278 C276 1.363 . S
C278 C279 1.370 . S
C278 C282 1.524 . S
C279 C271 1.503 . S
C279 C278 1.370 . S
C279 C280 1.403 . S
C280 C279 1.403 . S
C280 C281 1.404 . S
C280 C283 1.539 . S
C281 C277 1.408 . S
C281 C280 1.404 . S
C281 H293 0.930 . S
C282 C278 1.524 . S
C282 H294 0.956 . S
C282 H295 0.961 . S
C282 H296 0.961 . S
C283 C280 1.539 . S
C283 H297 0.958 . S
C283 H298 0.961 . S
C283 H299 0.960 . S
H284 C268 0.931 . S
H285 C273 0.929 . S
H286 C274 0.960 . S
H287 C274 0.962 . S
H288 C274 0.960 . S
H289 C275 0.961 . S
H290 C275 0.961 . S
H291 C275 0.961 . S
H292 C276 0.931 . S
H293 C281 0.930 . S
H294 C282 0.956 . S
H295 C282 0.961 . S
H296 C282 0.961 . S
H297 C283 0.958 . S
H298 C283 0.961 . S
H299 C283 0.960 . S
C300 C301 1.391 . S
C300 C302 1.394 . S
C300 H316 0.931 . S
C301 C300 1.391 . S
C301 C305 1.376 . S
C302 C300 1.394 . S
C302 C303 1.369 . S
C302 C306 1.531 1_545 S
C303 C302 1.369 . S
C303 C304 1.410 . S
C303 C311 1.503 1_545 S
C304 C303 1.410 . S
C304 C305 1.392 . S
C304 C307 1.511 . S
C305 C301 1.376 . S
C305 C304 1.392 . S
C305 H317 0.929 . S
C306 C302 1.531 1_565 S
C306 H318 0.960 . S
C306 H319 0.962 . S
C306 H320 0.960 . S
C307 C304 1.511 . S
C307 H321 0.961 . S
C307 H322 0.961 . S
C307 H323 0.961 . S
C308 C309 1.370 . S
C308 C310 1.363 . S
C308 H324 0.931 . S
C309 C308 1.370 . S
C309 C313 1.408 . S
C310 C308 1.363 . S
C310 C311 1.370 . S
C310 C314 1.524 . S
C311 C303 1.503 1_565 S
C311 C310 1.370 . S
C311 C312 1.403 . S
C312 C311 1.403 . S
C312 C313 1.404 . S
C312 C315 1.539 1_565 S
C313 C309 1.408 . S
C313 C312 1.404 . S
C313 H325 0.930 . S
C314 C310 1.524 . S
C314 H326 0.956 . S
C314 H327 0.961 . S
C314 H328 0.961 . S
C315 C312 1.539 1_545 S
C315 H329 0.958 . S
C315 H330 0.961 . S
C315 H331 0.960 . S
H316 C300 0.931 . S
H317 C305 0.929 . S
H318 C306 0.960 . S
H319 C306 0.962 . S
H320 C306 0.960 . S
H321 C307 0.961 . S
H322 C307 0.961 . S
H323 C307 0.961 . S
H324 C308 0.931 . S
H325 C313 0.930 . S
H326 C314 0.956 . S
H327 C314 0.961 . S
H328 C314 0.961 . S
H329 C315 0.958 . S
H330 C315 0.961 . S
H331 C315 0.960 . S
C332 C333 1.391 . S
C332 C334 1.394 . S
C332 H348 0.931 . S
C333 C332 1.391 . S
C333 C337 1.376 . S
C334 C332 1.394 . S
C334 C335 1.369 . S
C334 C338 1.531 . S
C335 C334 1.369 . S
C335 C336 1.410 . S
C335 C343 1.503 . S
C336 C335 1.410 . S
C336 C337 1.392 . S
C336 C339 1.511 . S
C337 C333 1.376 . S
C337 C336 1.392 . S
C337 H349 0.929 . S
C338 C334 1.531 . S
C338 H350 0.960 . S
C338 H351 0.962 . S
C338 H352 0.960 . S
C339 C336 1.511 . S
C339 H353 0.961 . S
C339 H354 0.961 . S
C339 H355 0.961 . S
C340 C341 1.370 . S
C340 C342 1.363 . S
C340 H356 0.931 . S
C341 C340 1.370 . S
C341 C345 1.408 . S
C342 C340 1.363 . S
C342 C343 1.370 . S
C342 C346 1.524 . S
C343 C335 1.503 . S
C343 C342 1.370 . S
C343 C344 1.403 . S
C344 C343 1.403 . S
C344 C345 1.404 . S
C344 C347 1.539 . S
C345 C341 1.408 . S
C345 C344 1.404 . S
C345 H357 0.930 . S
C346 C342 1.524 . S
C346 H358 0.956 . S
C346 H359 0.961 . S
C346 H360 0.961 . S
C347 C344 1.539 . S
C347 H361 0.958 . S
C347 H362 0.961 . S
C347 H363 0.960 . S
H348 C332 0.931 . S
H349 C337 0.929 . S
H350 C338 0.960 . S
H351 C338 0.962 . S
H352 C338 0.960 . S
H353 C339 0.961 . S
H354 C339 0.961 . S
H355 C339 0.961 . S
H356 C340 0.931 . S
H357 C345 0.930 . S
H358 C346 0.956 . S
H359 C346 0.961 . S
H360 C346 0.961 . S
H361 C347 0.958 . S
H362 C347 0.961 . S
H363 C347 0.960 . S
C364 C365 1.391 . S
C364 C366 1.394 . S
C364 H380 0.931 . S
C365 C364 1.391 . S
C365 C369 1.376 . S
C366 C364 1.394 . S
C366 C367 1.369 . S
C366 C370 1.531 . S
C367 C366 1.369 . S
C367 C368 1.410 . S
C367 C375 1.503 . S
C368 C367 1.410 . S
C368 C369 1.392 . S
C368 C371 1.511 . S
C369 C365 1.376 . S
C369 C368 1.392 . S
C369 H381 0.929 . S
C370 C366 1.531 . S
C370 H382 0.960 . S
C370 H383 0.962 . S
C370 H384 0.960 . S
C371 C368 1.511 . S
C371 H385 0.961 . S
C371 H386 0.961 . S
C371 H387 0.961 . S
C372 C373 1.370 . S
C372 C374 1.363 . S
C372 H388 0.931 . S
C373 C372 1.370 . S
C373 C377 1.408 . S
C374 C372 1.363 . S
C374 C375 1.370 . S
C374 C378 1.524 . S
C375 C367 1.503 . S
C375 C374 1.370 . S
C375 C376 1.403 . S
C376 C375 1.403 . S
C376 C377 1.404 . S
C376 C379 1.539 . S
C377 C373 1.408 . S
C377 C376 1.404 . S
C377 H389 0.930 . S
C378 C374 1.524 . S
C378 H390 0.956 . S
C378 H391 0.961 . S
C378 H392 0.961 . S
C379 C376 1.539 . S
C379 H393 0.958 . S
C379 H394 0.961 . S
C379 H395 0.960 . S
H380 C364 0.931 . S
H381 C369 0.929 . S
H382 C370 0.960 . S
H383 C370 0.962 . S
H384 C370 0.960 . S
H385 C371 0.961 . S
H386 C371 0.961 . S
H387 C371 0.961 . S
H388 C372 0.931 . S
H389 C377 0.930 . S
H390 C378 0.956 . S
H391 C378 0.961 . S
H392 C378 0.961 . S
H393 C379 0.958 . S
H394 C379 0.961 . S
H395 C379 0.960 . S
C396 C397 1.391 . S
C396 C398 1.421 . S
C396 H412 0.931 . S
C397 C396 1.391 . S
C397 C401 1.376 . S
C398 C396 1.421 . S
C398 C399 1.377 . S
C398 C402 1.496 1_655 S
C399 C398 1.377 . S
C399 C400 1.410 . S
C399 C407 1.503 1_655 S
C400 C399 1.410 . S
C400 C401 1.392 . S
C400 C403 1.511 . S
C401 C397 1.376 . S
C401 C400 1.392 . S
C401 H413 0.929 . S
C402 C398 1.496 1_455 S
C402 H414 0.960 . S
C402 H415 0.962 . S
C402 H416 0.960 . S
C403 C400 1.511 . S
C403 H417 0.961 . S
C403 H418 0.961 . S
C403 H419 0.961 . S
C404 C405 1.370 . S
C404 C406 1.363 . S
C404 H420 0.931 . S
C405 C404 1.370 . S
C405 C409 1.408 . S
C406 C404 1.363 . S
C406 C407 1.370 . S
C406 C410 1.524 . S
C407 C399 1.503 1_455 S
C407 C406 1.370 . S
C407 C408 1.403 . S
C408 C407 1.403 . S
C408 C409 1.404 . S
C408 C411 1.539 . S
C409 C405 1.408 . S
C409 C408 1.404 . S
C409 H421 0.930 . S
C410 C406 1.524 . S
C410 H422 0.956 . S
C410 H423 0.961 1_455 S
C410 H424 0.961 . S
C411 C408 1.539 . S
C411 H425 0.958 . S
C411 H426 0.961 . S
C411 H427 0.960 1_455 S
H412 C396 0.931 . S
H413 C401 0.929 . S
H414 C402 0.960 . S
H415 C402 0.962 . S
H416 C402 0.960 . S
H417 C403 0.961 . S
H418 C403 0.961 . S
H419 C403 0.961 . S
H420 C404 0.931 . S
H421 C409 0.930 . S
H422 C410 0.956 . S
H423 C410 0.961 1_655 S
H424 C410 0.961 . S
H425 C411 0.958 . S
H426 C411 0.961 . S
H427 C411 0.960 1_655 S
C428 C429 1.391 . S
C428 C430 1.394 . S
C428 H444 0.931 . S
C429 C428 1.391 . S
C429 C433 1.376 . S
C430 C428 1.394 . S
C430 C431 1.369 . S
C430 C434 1.531 . S
C431 C430 1.369 . S
C431 C432 1.410 . S
C431 C439 1.503 . S
C432 C431 1.410 . S
C432 C433 1.392 . S
C432 C435 1.511 . S
C433 C429 1.376 . S
C433 C432 1.392 . S
C433 H445 0.929 . S
C434 C430 1.531 . S
C434 H446 0.960 . S
C434 H447 0.962 . S
C434 H448 0.960 . S
C435 C432 1.511 . S
C435 H449 0.961 . S
C435 H450 0.961 . S
C435 H451 0.961 . S
C436 C437 1.370 . S
C436 C438 1.363 . S
C436 H452 0.931 . S
C437 C436 1.370 . S
C437 C441 1.408 . S
C438 C436 1.363 . S
C438 C439 1.370 . S
C438 C442 1.524 . S
C439 C431 1.503 . S
C439 C438 1.370 . S
C439 C440 1.403 . S
C440 C439 1.403 . S
C440 C441 1.404 . S
C440 C443 1.539 . S
C441 C437 1.408 . S
C441 C440 1.404 . S
C441 H453 0.930 . S
C442 C438 1.524 . S
C442 H454 0.956 . S
C442 H455 0.961 . S
C442 H456 0.961 . S
C443 C440 1.539 . S
C443 H457 0.958 . S
C443 H458 0.961 . S
C443 H459 0.960 . S
H444 C428 0.931 . S
H445 C433 0.929 . S
H446 C434 0.960 . S
H447 C434 0.962 . S
H448 C434 0.960 . S
H449 C435 0.961 . S
H450 C435 0.961 . S
H451 C435 0.961 . S
H452 C436 0.931 . S
H453 C441 0.930 . S
H454 C442 0.956 . S
H455 C442 0.961 . S
H456 C442 0.961 . S
H457 C443 0.958 . S
H458 C443 0.961 . S
H459 C443 0.960 . S
C460 C461 1.391 . S
C460 C462 1.394 . S
C460 H476 0.931 . S
C461 C460 1.391 . S
C461 C465 1.376 . S
C462 C460 1.394 . S
C462 C463 1.369 . S
C462 C466 1.531 . S
C463 C462 1.369 . S
C463 C464 1.410 . S
C463 C471 1.503 1_455 S
C464 C463 1.410 . S
C464 C465 1.392 . S
C464 C467 1.511 . S
C465 C461 1.376 . S
C465 C464 1.392 . S
C465 H477 0.929 . S
C466 C462 1.531 . S
C466 H478 0.960 1_455 S
C466 H479 0.962 1_455 S
C466 H480 0.960 . S
C467 C464 1.511 . S
C467 H481 0.961 . S
C467 H482 0.961 1_455 S
C467 H483 0.961 . S
C468 C469 1.370 . S
C468 C470 1.363 . S
C468 H484 0.931 . S
C469 C468 1.370 . S
C469 C473 1.408 . S
C470 C468 1.363 . S
C470 C471 1.370 . S
C470 C474 1.524 . S
C471 C463 1.503 1_655 S
C471 C470 1.370 . S
C471 C472 1.403 . S
C472 C471 1.403 . S
C472 C473 1.404 . S
C472 C475 1.539 1_655 S
C473 C469 1.408 . S
C473 C472 1.404 . S
C473 H485 0.930 . S
C474 C470 1.524 . S
C474 H486 0.956 . S
C474 H487 0.961 . S
C474 H488 0.961 . S
C475 C472 1.539 1_455 S
C475 H489 0.958 . S
C475 H490 0.961 . S
C475 H491 0.960 . S
H476 C460 0.931 . S
H477 C465 0.929 . S
H478 C466 0.960 1_655 S
H479 C466 0.962 1_655 S
H480 C466 0.960 . S
H481 C467 0.961 . S
H482 C467 0.961 1_655 S
H483 C467 0.961 . S
H484 C468 0.931 . S
H485 C473 0.930 . S
H486 C474 0.956 . S
H487 C474 0.961 . S
H488 C474 0.961 . S
H489 C475 0.958 . S
H490 C475 0.961 . S
H491 C475 0.960 . S
C492 C493 1.391 . S
C492 C494 1.394 1_545 S
C492 H508 0.931 . S
C493 C492 1.391 . S
C493 C497 1.376 1_545 S
C494 C492 1.394 1_565 S
C494 C495 1.369 . S
C494 C498 1.531 . S
C495 C494 1.369 . S
C495 C496 1.410 . S
C495 C503 1.503 . S
C496 C495 1.410 . S
C496 C497 1.392 . S
C496 C499 1.511 . S
C497 C493 1.376 1_565 S
C497 C496 1.392 . S
C497 H509 0.929 . S
C498 C494 1.531 . S
C498 H510 0.960 . S
C498 H511 0.962 . S
C498 H512 0.960 1_565 S
C499 C496 1.511 . S
C499 H513 0.961 . S
C499 H514 0.961 . S
C499 H515 0.961 . S
C500 C501 1.370 . S
C500 C502 1.363 . S
C500 H516 0.931 . S
C501 C500 1.370 . S
C501 C505 1.408 . S
C502 C500 1.363 . S
C502 C503 1.370 . S
C502 C506 1.524 . S
C503 C495 1.503 . S
C503 C502 1.370 . S
C503 C504 1.403 . S
C504 C503 1.403 . S
C504 C505 1.404 . S
C504 C507 1.539 . S
C505 C501 1.408 . S
C505 C504 1.404 . S
C505 H517 0.930 . S
C506 C502 1.524 . S
C506 H518 0.956 . S
C506 H519 0.961 . S
C506 H520 0.961 . S
C507 C504 1.539 . S
C507 H521 0.958 . S
C507 H522 0.961 . S
C507 H523 0.960 . S
H508 C492 0.931 . S
H509 C497 0.929 . S
H510 C498 0.960 . S
H511 C498 0.962 . S
H512 C498 0.960 1_545 S
H513 C499 0.961 . S
H514 C499 0.961 . S
H515 C499 0.961 . S
H516 C500 0.931 . S
H517 C505 0.930 . S
H518 C506 0.956 . S
H519 C506 0.961 . S
H520 C506 0.961 . S
H521 C507 0.958 . S
H522 C507 0.961 . S
H523 C507 0.960 . S
C524 C525 1.391 . S
C524 C526 1.394 . S
C524 H540 0.931 . S
C525 C524 1.391 . S
C525 C529 1.376 . S
C526 C524 1.394 . S
C526 C527 1.369 . S
C526 C530 1.531 . S
C527 C526 1.369 . S
C527 C528 1.410 . S
C527 C535 1.503 . S
C528 C527 1.410 . S
C528 C529 1.392 . S
C528 C531 1.511 . S
C529 C525 1.376 . S
C529 C528 1.392 . S
C529 H541 0.929 . S
C530 C526 1.531 . S
C530 H542 0.960 . S
C530 H543 0.962 . S
C530 H544 0.960 . S
C531 C528 1.511 . S
C531 H545 0.961 . S
C531 H546 0.961 . S
C531 H547 0.961 . S
C532 C533 1.370 . S
C532 C534 1.363 . S
C532 H548 0.931 . S
C533 C532 1.370 . S
C533 C537 1.408 . S
C534 C532 1.363 . S
C534 C535 1.370 . S
C534 C538 1.524 . S
C535 C527 1.503 . S
C535 C534 1.370 . S
C535 C536 1.403 . S
C536 C535 1.403 . S
C536 C537 1.404 . S
C536 C539 1.539 . S
C537 C533 1.408 . S
C537 C536 1.404 . S
C537 H549 0.930 . S
C538 C534 1.524 . S
C538 H550 0.956 . S
C538 H551 0.961 . S
C538 H552 0.961 . S
C539 C536 1.539 . S
C539 H553 0.958 . S
C539 H554 0.961 . S
C539 H555 0.960 . S
H540 C524 0.931 . S
H541 C529 0.929 . S
H542 C530 0.960 . S
H543 C530 0.962 . S
H544 C530 0.960 . S
H545 C531 0.961 . S
H546 C531 0.961 . S
H547 C531 0.961 . S
H548 C532 0.931 . S
H549 C537 0.930 . S
H550 C538 0.956 . S
H551 C538 0.961 . S
H552 C538 0.961 . S
H553 C539 0.958 . S
H554 C539 0.961 . S
H555 C539 0.960 . S
C556 C557 1.391 . S
C556 C558 1.394 1_565 S
C556 H572 0.931 . S
C557 C556 1.391 . S
C557 C561 1.376 . S
C558 C556 1.394 1_545 S
C558 C559 1.369 . S
C558 C562 1.531 . S
C559 C558 1.369 . S
C559 C560 1.410 . S
C559 C567 1.503 . S
C560 C559 1.410 . S
C560 C561 1.392 1_545 S
C560 C563 1.511 . S
C561 C557 1.376 . S
C561 C560 1.392 1_565 S
C561 H573 0.929 . S
C562 C558 1.531 . S
C562 H574 0.960 . S
C562 H575 0.962 . S
C562 H576 0.960 . S
C563 C560 1.511 . S
C563 H577 0.961 . S
C563 H578 0.961 . S
C563 H579 0.961 . S
C564 C565 1.370 . S
C564 C566 1.363 . S
C564 H580 0.931 . S
C565 C564 1.370 . S
C565 C569 1.408 . S
C566 C564 1.363 . S
C566 C567 1.370 . S
C566 C570 1.524 . S
C567 C559 1.503 . S
C567 C566 1.370 . S
C567 C568 1.403 . S
C568 C567 1.403 . S
C568 C569 1.404 . S
C568 C571 1.539 . S
C569 C565 1.408 . S
C569 C568 1.404 . S
C569 H581 0.930 . S
C570 C566 1.524 . S
C570 H582 0.956 . S
C570 H583 0.961 . S
C570 H584 0.961 . S
C571 C568 1.539 . S
C571 H585 0.958 . S
C571 H586 0.961 . S
C571 H587 0.960 . S
H572 C556 0.931 . S
H573 C561 0.929 . S
H574 C562 0.960 . S
H575 C562 0.962 . S
H576 C562 0.960 . S
H577 C563 0.961 . S
H578 C563 0.961 . S
H579 C563 0.961 . S
H580 C564 0.931 . S
H581 C569 0.930 . S
H582 C570 0.956 . S
H583 C570 0.961 . S
H584 C570 0.961 . S
H585 C571 0.958 . S
H586 C571 0.961 . S
H587 C571 0.960 . S
C588 C589 1.391 . S
C588 C590 1.394 . S
C588 H604 0.931 . S
C589 C588 1.391 . S
C589 C593 1.376 . S
C590 C588 1.394 . S
C590 C591 1.369 . S
C590 C594 1.531 . S
C591 C590 1.369 . S
C591 C592 1.410 . S
C591 C599 1.503 . S
C592 C591 1.410 . S
C592 C593 1.392 . S
C592 C595 1.511 . S
C593 C589 1.376 . S
C593 C592 1.392 . S
C593 H605 0.929 . S
C594 C590 1.531 . S
C594 H606 0.960 . S
C594 H607 0.962 . S
C594 H608 0.960 . S
C595 C592 1.511 . S
C595 H609 0.961 . S
C595 H610 0.961 . S
C595 H611 0.961 . S
C596 C597 1.370 . S
C596 C598 1.363 . S
C596 H612 0.931 . S
C597 C596 1.370 . S
C597 C601 1.408 . S
C598 C596 1.363 . S
C598 C599 1.370 . S
C598 C602 1.524 . S
C599 C591 1.503 . S
C599 C598 1.370 . S
C599 C600 1.403 . S
C600 C599 1.403 . S
C600 C601 1.404 . S
C600 C603 1.539 . S
C601 C597 1.408 . S
C601 C600 1.404 . S
C601 H613 0.930 . S
C602 C598 1.524 . S
C602 H614 0.956 . S
C602 H615 0.961 . S
C602 H616 0.961 . S
C603 C600 1.539 . S
C603 H617 0.958 . S
C603 H618 0.961 . S
C603 H619 0.960 . S
H604 C588 0.931 . S
H605 C593 0.929 . S
H606 C594 0.960 . S
H607 C594 0.962 . S
H608 C594 0.960 . S
H609 C595 0.961 . S
H610 C595 0.961 . S
H611 C595 0.961 . S
H612 C596 0.931 . S
H613 C601 0.930 . S
H614 C602 0.956 . S
H615 C602 0.961 . S
H616 C602 0.961 . S
H617 C603 0.958 . S
H618 C603 0.961 . S
H619 C603 0.960 . S
C620 C621 1.391 . S
C620 C622 1.394 . S
C620 H636 0.931 . S
C621 C620 1.391 . S
C621 C625 1.376 . S
C622 C620 1.394 . S
C622 C623 1.369 . S
C622 C626 1.531 . S
C623 C622 1.369 . S
C623 C624 1.410 . S
C623 C631 1.503 . S
C624 C623 1.410 . S
C624 C625 1.392 . S
C624 C627 1.511 . S
C625 C621 1.376 . S
C625 C624 1.392 . S
C625 H637 0.929 . S
C626 C622 1.531 . S
C626 H638 0.960 . S
C626 H639 0.962 . S
C626 H640 0.960 . S
C627 C624 1.511 . S
C627 H641 0.961 . S
C627 H642 0.961 . S
C627 H643 0.961 . S
C628 C629 1.370 . S
C628 C630 1.363 . S
C628 H644 0.931 . S
C629 C628 1.370 . S
C629 C633 1.408 . S
C630 C628 1.363 . S
C630 C631 1.370 . S
C630 C634 1.524 . S
C631 C623 1.503 . S
C631 C630 1.370 . S
C631 C632 1.403 . S
C632 C631 1.403 . S
C632 C633 1.404 . S
C632 C635 1.539 . S
C633 C629 1.408 . S
C633 C632 1.404 . S
C633 H645 0.930 . S
C634 C630 1.524 . S
C634 H646 0.956 . S
C634 H647 0.961 . S
C634 H648 0.961 . S
C635 C632 1.539 . S
C635 H649 0.958 . S
C635 H650 0.961 . S
C635 H651 0.960 . S
H636 C620 0.931 . S
H637 C625 0.929 . S
H638 C626 0.960 . S
H639 C626 0.962 . S
H640 C626 0.960 . S
H641 C627 0.961 . S
H642 C627 0.961 . S
H643 C627 0.961 . S
H644 C628 0.931 . S
H645 C633 0.930 . S
H646 C634 0.956 . S
H647 C634 0.961 . S
H648 C634 0.961 . S
H649 C635 0.958 . S
H650 C635 0.961 . S
H651 C635 0.960 . S
C652 C653 1.391 1_655 S
C652 C654 1.394 . S
C652 H668 0.931 . S
C653 C652 1.391 1_455 S
C653 C657 1.376 . S
C654 C652 1.394 . S
C654 C655 1.369 . S
C654 C658 1.531 . S
C655 C654 1.369 . S
C655 C656 1.410 . S
C655 C663 1.503 . S
C656 C655 1.410 . S
C656 C657 1.392 1_655 S
C656 C659 1.511 . S
C657 C653 1.376 . S
C657 C656 1.392 1_455 S
C657 H669 0.929 . S
C658 C654 1.531 . S
C658 H670 0.960 . S
C658 H671 0.962 . S
C658 H672 0.960 . S
C659 C656 1.511 . S
C659 H673 0.961 1_655 S
C659 H674 0.961 . S
C659 H675 0.961 . S
C660 C661 1.370 . S
C660 C662 1.363 . S
C660 H676 0.931 . S
C661 C660 1.370 . S
C661 C665 1.408 . S
C662 C660 1.363 . S
C662 C663 1.370 . S
C662 C666 1.524 . S
C663 C655 1.503 . S
C663 C662 1.370 . S
C663 C664 1.403 . S
C664 C663 1.403 . S
C664 C665 1.404 . S
C664 C667 1.539 . S
C665 C661 1.408 . S
C665 C664 1.404 . S
C665 H677 0.930 . S
C666 C662 1.524 . S
C666 H678 0.956 . S
C666 H679 0.961 . S
C666 H680 0.961 . S
C667 C664 1.539 . S
C667 H681 0.958 . S
C667 H682 0.961 . S
C667 H683 0.960 . S
H668 C652 0.931 . S
H669 C657 0.929 . S
H670 C658 0.960 . S
H671 C658 0.962 . S
H672 C658 0.960 . S
H673 C659 0.961 1_455 S
H674 C659 0.961 . S
H675 C659 0.961 . S
H676 C660 0.931 . S
H677 C665 0.930 . S
H678 C666 0.956 . S
H679 C666 0.961 . S
H680 C666 0.961 . S
H681 C667 0.958 . S
H682 C667 0.961 . S
H683 C667 0.960 . S
C684 C685 1.391 . S
C684 C686 1.394 . S
C684 H700 0.931 . S
C685 C684 1.391 . S
C685 C689 1.376 . S
C686 C684 1.394 . S
C686 C687 1.369 . S
C686 C690 1.531 . S
C687 C686 1.369 . S
C687 C688 1.410 . S
C687 C695 1.503 . S
C688 C687 1.410 . S
C688 C689 1.392 . S
C688 C691 1.511 . S
C689 C685 1.376 . S
C689 C688 1.392 . S
C689 H701 0.929 . S
C690 C686 1.531 . S
C690 H702 0.960 . S
C690 H703 0.962 . S
C690 H704 0.960 . S
C691 C688 1.511 . S
C691 H705 0.961 . S
C691 H706 0.961 . S
C691 H707 0.961 . S
C692 C693 1.370 . S
C692 C694 1.363 . S
C692 H708 0.931 . S
C693 C692 1.370 . S
C693 C697 1.408 . S
C694 C692 1.363 . S
C694 C695 1.370 . S
C694 C698 1.524 . S
C695 C687 1.503 . S
C695 C694 1.370 . S
C695 C696 1.403 . S
C696 C695 1.403 . S
C696 C697 1.404 . S
C696 C699 1.539 . S
C697 C693 1.408 . S
C697 C696 1.404 . S
C697 H709 0.930 . S
C698 C694 1.524 . S
C698 H710 0.956 . S
C698 H711 0.961 . S
C698 H712 0.961 . S
C699 C696 1.539 . S
C699 H713 0.958 . S
C699 H714 0.961 . S
C699 H715 0.960 . S
H700 C684 0.931 . S
H701 C689 0.929 . S
H702 C690 0.960 . S
H703 C690 0.962 . S
H704 C690 0.960 . S
H705 C691 0.961 . S
H706 C691 0.961 . S
H707 C691 0.961 . S
H708 C692 0.931 . S
H709 C697 0.930 . S
H710 C698 0.956 . S
H711 C698 0.961 . S
H712 C698 0.961 . S
H713 C699 0.958 . S
H714 C699 0.961 . S
H715 C699 0.960 . S
C716 C717 1.391 . S
C716 C718 1.394 1_655 S
C716 H732 0.931 . S
C717 C716 1.391 . S
C717 C721 1.376 1_655 S
C718 C716 1.394 1_455 S
C718 C719 1.369 . S
C718 C722 1.531 . S
C719 C718 1.369 . S
C719 C720 1.410 . S
C719 C727 1.503 . S
C720 C719 1.410 . S
C720 C721 1.392 . S
C720 C723 1.511 . S
C721 C717 1.376 1_455 S
C721 C720 1.392 . S
C721 H733 0.929 . S
C722 C718 1.531 . S
C722 H734 0.960 . S
C722 H735 0.962 . S
C722 H736 0.960 1_455 S
C723 C720 1.511 . S
C723 H737 0.961 . S
C723 H738 0.961 . S
C723 H739 0.961 . S
C724 C725 1.370 . S
C724 C726 1.363 . S
C724 H740 0.931 . S
C725 C724 1.370 . S
C725 C729 1.408 . S
C726 C724 1.363 . S
C726 C727 1.370 . S
C726 C730 1.524 . S
C727 C719 1.503 . S
C727 C726 1.370 . S
C727 C728 1.403 . S
C728 C727 1.403 . S
C728 C729 1.404 . S
C728 C731 1.539 . S
C729 C725 1.408 . S
C729 C728 1.404 . S
C729 H741 0.930 . S
C730 C726 1.524 . S
C730 H742 0.956 . S
C730 H743 0.961 . S
C730 H744 0.961 . S
C731 C728 1.539 . S
C731 H745 0.958 . S
C731 H746 0.961 . S
C731 H747 0.960 . S
H732 C716 0.931 . S
H733 C721 0.929 . S
H734 C722 0.960 . S
H735 C722 0.962 . S
H736 C722 0.960 1_655 S
H737 C723 0.961 . S
H738 C723 0.961 . S
H739 C723 0.961 . S
H740 C724 0.931 . S
H741 C729 0.930 . S
H742 C730 0.956 . S
H743 C730 0.961 . S
H744 C730 0.961 . S
H745 C731 0.958 . S
H746 C731 0.961 . S
H747 C731 0.960 . S
C748 C749 1.391 . S
C748 C750 1.394 . S
C748 H764 0.931 . S
C749 C748 1.391 . S
C749 C753 1.376 . S
C750 C748 1.394 . S
C750 C751 1.369 . S
C750 C754 1.531 . S
C751 C750 1.369 . S
C751 C752 1.410 . S
C751 C759 1.503 . S
C752 C751 1.410 . S
C752 C753 1.392 . S
C752 C755 1.511 . S
C753 C749 1.376 . S
C753 C752 1.392 . S
C753 H765 0.929 . S
C754 C750 1.531 . S
C754 H766 0.960 . S
C754 H767 0.962 . S
C754 H768 0.960 . S
C755 C752 1.511 . S
C755 H769 0.961 . S
C755 H770 0.961 . S
C755 H771 0.961 . S
C756 C757 1.370 . S
C756 C758 1.363 . S
C756 H772 0.931 . S
C757 C756 1.370 . S
C757 C761 1.408 . S
C758 C756 1.363 . S
C758 C759 1.370 . S
C758 C762 1.524 . S
C759 C751 1.503 . S
C759 C758 1.370 . S
C759 C760 1.403 . S
C760 C759 1.403 . S
C760 C761 1.404 . S
C760 C763 1.539 . S
C761 C757 1.408 . S
C761 C760 1.404 . S
C761 H773 0.930 . S
C762 C758 1.524 . S
C762 H774 0.956 . S
C762 H775 0.961 . S
C762 H776 0.961 . S
C763 C760 1.539 . S
C763 H777 0.958 . S
C763 H778 0.961 . S
C763 H779 0.960 . S
H764 C748 0.931 . S
H765 C753 0.929 . S
H766 C754 0.960 . S
H767 C754 0.962 . S
H768 C754 0.960 . S
H769 C755 0.961 . S
H770 C755 0.961 . S
H771 C755 0.961 . S
H772 C756 0.931 . S
H773 C761 0.930 . S
H774 C762 0.956 . S
H775 C762 0.961 . S
H776 C762 0.961 . S
H777 C763 0.958 . S
H778 C763 0.961 . S
H779 C763 0.960 . S
C780 C781 1.391 . S
C780 C782 1.394 . S
C780 H796 0.931 . S
C781 C780 1.391 . S
C781 C785 1.376 . S
C782 C780 1.394 . S
C782 C783 1.369 . S
C782 C786 1.531 . S
C783 C782 1.369 . S
C783 C784 1.410 . S
C783 C791 1.503 . S
C784 C783 1.410 . S
C784 C785 1.392 . S
C784 C787 1.511 . S
C785 C781 1.376 . S
C785 C784 1.392 . S
C785 H797 0.929 . S
C786 C782 1.531 . S
C786 H798 0.960 . S
C786 H799 0.962 . S
C786 H800 0.960 . S
C787 C784 1.511 . S
C787 H801 0.961 . S
C787 H802 0.961 . S
C787 H803 0.961 . S
C788 C789 1.370 . S
C788 C790 1.363 . S
C788 H804 0.931 . S
C789 C788 1.370 . S
C789 C793 1.408 . S
C790 C788 1.363 . S
C790 C791 1.370 . S
C790 C794 1.524 . S
C791 C783 1.503 . S
C791 C790 1.370 . S
C791 C792 1.403 . S
C792 C791 1.403 . S
C792 C793 1.404 . S
C792 C795 1.539 . S
C793 C789 1.408 . S
C793 C792 1.404 . S
C793 H805 0.930 . S
C794 C790 1.524 . S
C794 H806 0.956 . S
C794 H807 0.961 . S
C794 H808 0.961 . S
C795 C792 1.539 . S
C795 H809 0.958 . S
C795 H810 0.961 . S
C795 H811 0.960 . S
H796 C780 0.931 . S
H797 C785 0.929 . S
H798 C786 0.960 . S
H799 C786 0.962 . S
H800 C786 0.960 . S
H801 C787 0.961 . S
H802 C787 0.961 . S
H803 C787 0.961 . S
H804 C788 0.931 . S
H805 C793 0.930 . S
H806 C794 0.956 . S
H807 C794 0.961 . S
H808 C794 0.961 . S
H809 C795 0.958 . S
H810 C795 0.961 . S
H811 C795 0.960 . S
C812 C813 1.391 . S
C812 C814 1.394 . S
C812 H828 0.931 . S
C813 C812 1.391 . S
C813 C817 1.376 . S
C814 C812 1.394 . S
C814 C815 1.369 . S
C814 C818 1.531 . S
C815 C814 1.369 . S
C815 C816 1.410 . S
C815 C823 1.503 . S
C816 C815 1.410 . S
C816 C817 1.392 . S
C816 C819 1.511 . S
C817 C813 1.376 . S
C817 C816 1.392 . S
C817 H829 0.929 . S
C818 C814 1.531 . S
C818 H830 0.960 . S
C818 H831 0.962 . S
C818 H832 0.960 . S
C819 C816 1.511 . S
C819 H833 0.961 . S
C819 H834 0.961 . S
C819 H835 0.961 . S
C820 C821 1.370 . S
C820 C822 1.363 . S
C820 H836 0.931 . S
C821 C820 1.370 . S
C821 C825 1.408 . S
C822 C820 1.363 . S
C822 C823 1.370 . S
C822 C826 1.524 . S
C823 C815 1.503 . S
C823 C822 1.370 . S
C823 C824 1.403 . S
C824 C823 1.403 . S
C824 C825 1.404 . S
C824 C827 1.539 . S
C825 C821 1.408 . S
C825 C824 1.404 . S
C825 H837 0.930 . S
C826 C822 1.524 . S
C826 H838 0.956 . S
C826 H839 0.961 . S
C826 H840 0.961 . S
C827 C824 1.539 . S
C827 H841 0.958 . S
C827 H842 0.961 . S
C827 H843 0.960 . S
H828 C812 0.931 . S
H829 C817 0.929 . S
H830 C818 0.960 . S
H831 C818 0.962 . S
H832 C818 0.960 . S
H833 C819 0.961 . S
H834 C819 0.961 . S
H835 C819 0.961 . S
H836 C820 0.931 . S
H837 C825 0.930 . S
H838 C826 0.956 . S
H839 C826 0.961 . S
H840 C826 0.961 . S
H841 C827 0.958 . S
H842 C827 0.961 . S
H843 C827 0.960 . S
C844 C845 1.391 . S
C844 C846 1.394 . S
C844 H860 0.931 . S
C845 C844 1.391 . S
C845 C849 1.376 . S
C846 C844 1.394 . S
C846 C847 1.369 . S
C846 C850 1.531 . S
C847 C846 1.369 . S
C847 C848 1.410 . S
C847 C855 1.503 . S
C848 C847 1.410 . S
C848 C849 1.392 . S
C848 C851 1.511 . S
C849 C845 1.376 . S
C849 C848 1.392 . S
C849 H861 0.929 . S
C850 C846 1.531 . S
C850 H862 0.960 . S
C850 H863 0.962 . S
C850 H864 0.960 . S
C851 C848 1.511 . S
C851 H865 0.961 . S
C851 H866 0.961 . S
C851 H867 0.961 . S
C852 C853 1.370 . S
C852 C854 1.363 . S
C852 H868 0.931 . S
C853 C852 1.370 . S
C853 C857 1.408 . S
C854 C852 1.363 . S
C854 C855 1.370 . S
C854 C858 1.524 . S
C855 C847 1.503 . S
C855 C854 1.370 . S
C855 C856 1.403 . S
C856 C855 1.403 . S
C856 C857 1.404 . S
C856 C859 1.539 . S
C857 C853 1.408 . S
C857 C856 1.404 . S
C857 H869 0.930 . S
C858 C854 1.524 . S
C858 H870 0.956 . S
C858 H871 0.961 . S
C858 H872 0.961 . S
C859 C856 1.539 . S
C859 H873 0.958 . S
C859 H874 0.961 . S
C859 H875 0.960 . S
H860 C844 0.931 . S
H861 C849 0.929 . S
H862 C850 0.960 . S
H863 C850 0.962 . S
H864 C850 0.960 . S
H865 C851 0.961 . S
H866 C851 0.961 . S
H867 C851 0.961 . S
H868 C852 0.931 . S
H869 C857 0.930 . S
H870 C858 0.956 . S
H871 C858 0.961 . S
H872 C858 0.961 . S
H873 C859 0.958 . S
H874 C859 0.961 . S
H875 C859 0.960 . S
C876 C877 1.391 . S
C876 C878 1.394 . S
C876 H892 0.931 . S
C877 C876 1.391 . S
C877 C881 1.376 . S
C878 C876 1.394 . S
C878 C879 1.369 . S
C878 C882 1.531 . S
C879 C878 1.369 . S
C879 C880 1.410 . S
C879 C887 1.503 . S
C880 C879 1.410 . S
C880 C881 1.392 . S
C880 C883 1.511 . S
C881 C877 1.376 . S
C881 C880 1.392 . S
C881 H893 0.929 . S
C882 C878 1.531 . S
C882 H894 0.960 . S
C882 H895 0.962 . S
C882 H896 0.960 . S
C883 C880 1.511 . S
C883 H897 0.961 . S
C883 H898 0.961 . S
C883 H899 0.961 . S
C884 C885 1.370 . S
C884 C886 1.363 . S
C884 H900 0.931 . S
C885 C884 1.370 . S
C885 C889 1.408 . S
C886 C884 1.363 . S
C886 C887 1.370 . S
C886 C890 1.524 . S
C887 C879 1.503 . S
C887 C886 1.370 . S
C887 C888 1.403 . S
C888 C887 1.403 . S
C888 C889 1.404 . S
C888 C891 1.539 . S
C889 C885 1.408 . S
C889 C888 1.404 . S
C889 H901 0.930 . S
C890 C886 1.524 . S
C890 H902 0.956 . S
C890 H903 0.961 . S
C890 H904 0.961 . S
C891 C888 1.539 . S
C891 H905 0.958 . S
C891 H906 0.961 . S
C891 H907 0.960 . S
H892 C876 0.931 . S
H893 C881 0.929 . S
H894 C882 0.960 . S
H895 C882 0.962 . S
H896 C882 0.960 . S
H897 C883 0.961 . S
H898 C883 0.961 . S
H899 C883 0.961 . S
H900 C884 0.931 . S
H901 C889 0.930 . S
H902 C890 0.956 . S
H903 C890 0.961 . S
H904 C890 0.961 . S
H905 C891 0.958 . S
H906 C891 0.961 . S
H907 C891 0.960 . S
C908 C909 1.391 . S
C908 C910 1.394 . S
C908 H924 0.931 . S
C909 C908 1.391 . S
C909 C913 1.376 . S
C910 C908 1.394 . S
C910 C911 1.369 . S
C910 C914 1.531 . S
C911 C910 1.369 . S
C911 C912 1.410 . S
C911 C919 1.503 . S
C912 C911 1.410 . S
C912 C913 1.392 . S
C912 C915 1.511 . S
C913 C909 1.376 . S
C913 C912 1.392 . S
C913 H925 0.929 . S
C914 C910 1.531 . S
C914 H926 0.960 . S
C914 H927 0.962 . S
C914 H928 0.960 . S
C915 C912 1.511 . S
C915 H929 0.961 . S
C915 H930 0.961 . S
C915 H931 0.961 . S
C916 C917 1.370 . S
C916 C918 1.363 . S
C916 H932 0.931 . S
C917 C916 1.370 . S
C917 C921 1.408 . S
C918 C916 1.363 . S
C918 C919 1.370 . S
C918 C922 1.524 . S
C919 C911 1.503 . S
C919 C918 1.370 . S
C919 C920 1.403 . S
C920 C919 1.403 . S
C920 C921 1.404 . S
C920 C923 1.539 . S
C921 C917 1.408 . S
C921 C920 1.404 . S
C921 H933 0.930 . S
C922 C918 1.524 . S
C922 H934 0.956 . S
C922 H935 0.961 . S
C922 H936 0.961 . S
C923 C920 1.539 . S
C923 H937 0.958 . S
C923 H938 0.961 . S
C923 H939 0.960 . S
H924 C908 0.931 . S
H925 C913 0.929 . S
H926 C914 0.960 . S
H927 C914 0.962 . S
H928 C914 0.960 . S
H929 C915 0.961 . S
H930 C915 0.961 . S
H931 C915 0.961 . S
H932 C916 0.931 . S
H933 C921 0.930 . S
H934 C922 0.956 . S
H935 C922 0.961 . S
H936 C922 0.961 . S
H937 C923 0.958 . S
H938 C923 0.961 . S
H939 C923 0.960 . S
C940 C941 1.391 . S
C940 C942 1.394 . S
C940 H956 0.931 . S
C941 C940 1.391 . S
C941 C945 1.376 . S
C942 C940 1.394 . S
C942 C943 1.369 . S
C942 C946 1.531 . S
C943 C942 1.369 . S
C943 C944 1.410 . S
C943 C951 1.503 . S
C944 C943 1.410 . S
C944 C945 1.392 . S
C944 C947 1.511 . S
C945 C941 1.376 . S
C945 C944 1.392 . S
C945 H957 0.929 . S
C946 C942 1.531 . S
C946 H958 0.960 . S
C946 H959 0.962 . S
C946 H960 0.960 . S
C947 C944 1.511 . S
C947 H961 0.961 . S
C947 H962 0.961 . S
C947 H963 0.961 . S
C948 C949 1.370 . S
C948 C950 1.363 . S
C948 H964 0.931 . S
C949 C948 1.370 . S
C949 C953 1.408 . S
C950 C948 1.363 . S
C950 C951 1.370 . S
C950 C954 1.524 . S
C951 C943 1.503 . S
C951 C950 1.370 . S
C951 C952 1.403 . S
C952 C951 1.403 . S
C952 C953 1.404 . S
C952 C955 1.539 . S
C953 C949 1.408 . S
C953 C952 1.404 . S
C953 H965 0.930 . S
C954 C950 1.524 . S
C954 H966 0.956 . S
C954 H967 0.961 . S
C954 H968 0.961 . S
C955 C952 1.539 . S
C955 H969 0.958 . S
C955 H970 0.961 . S
C955 H971 0.960 . S
H956 C940 0.931 . S
H957 C945 0.929 . S
H958 C946 0.960 . S
H959 C946 0.962 . S
H960 C946 0.960 . S
H961 C947 0.961 . S
H962 C947 0.961 . S
H963 C947 0.961 . S
H964 C948 0.931 . S
H965 C953 0.930 . S
H966 C954 0.956 . S
H967 C954 0.961 . S
H968 C954 0.961 . S
H969 C955 0.958 . S
H970 C955 0.961 . S
H971 C955 0.960 . S
C972 C973 1.391 . S
C972 C974 1.394 . S
C972 H988 0.931 . S
C973 C972 1.391 . S
C973 C977 1.376 . S
C974 C972 1.394 . S
C974 C975 1.369 . S
C974 C978 1.531 . S
C975 C974 1.369 . S
C975 C976 1.410 . S
C975 C983 1.503 . S
C976 C975 1.410 . S
C976 C977 1.392 . S
C976 C979 1.511 . S
C977 C973 1.376 . S
C977 C976 1.392 . S
C977 H989 0.929 . S
C978 C974 1.531 . S
C978 H990 0.960 . S
C978 H991 0.962 . S
C978 H992 0.960 . S
C979 C976 1.511 . S
C979 H993 0.961 . S
C979 H994 0.961 . S
C979 H995 0.961 . S
C980 C981 1.370 . S
C980 C982 1.363 . S
C980 H996 0.931 . S
C981 C980 1.370 . S
C981 C985 1.408 . S
C982 C980 1.363 . S
C982 C983 1.370 . S
C982 C986 1.524 . S
C983 C975 1.503 . S
C983 C982 1.370 . S
C983 C984 1.403 . S
C984 C983 1.403 . S
C984 C985 1.404 . S
C984 C987 1.539 . S
C985 C981 1.408 . S
C985 C984 1.404 . S
C985 H997 0.930 . S
C986 C982 1.524 . S
C986 H998 0.956 . S
C986 H999 0.961 . S
C986 H1000 0.961 . S
C987 C984 1.539 . S
C987 H1001 0.958 . S
C987 H1002 0.961 . S
C987 H1003 0.960 . S
H988 C972 0.931 . S
H989 C977 0.929 . S
H990 C978 0.960 . S
H991 C978 0.962 . S
H992 C978 0.960 . S
H993 C979 0.961 . S
H994 C979 0.961 . S
H995 C979 0.961 . S
H996 C980 0.931 . S
H997 C985 0.930 . S
H998 C986 0.956 . S
H999 C986 0.961 . S
H1000 C986 0.961 . S
H1001 C987 0.958 . S
H1002 C987 0.961 . S
H1003 C987 0.960 . S
C237 C7 0.919 . S
C245 C86 0.823 . S
C269 C25 0.961 . S
C277 C105 0.907 . S
C301 C46 0.634 . S
C309 C128 0.737 . S
C341 C147 0.699 . S
C333 C70 0.676 . S
C373 C162 0.882 . S
C365 C28 0.797 . S
C397 C49 0.619 . S
C405 C185 0.659 . S
C429 C67 0.784 . S
C437 C204 0.737 . S
C461 C4 0.837 . S
C469 C219 0.923 . S
C493 C58 1.565 . S
C501 C223 1.676 . S
C533 C166 1.643 . S
C525 C66 1.540 . S
C565 C181 1.834 . S
C557 C3 1.735 . S
C589 C37 1.769 . S
C597 C200 1.862 . S
C629 C109 1.686 . S
C621 C79 1.598 . S
C653 C16 1.805 . S
C661 C124 1.869 . S
C693 C143 1.838 . S
C685 C24 1.759 . S
C725 C90 1.643 . S
C717 C45 1.543 . S
C757 C209 1.369 . S
C749 C19 1.362 . S
C789 C228 1.324 . S
C781 C41 1.371 . S
C813 C62 1.251 . S
C821 C171 1.293 . S
C853 C190 1.279 . S
C845 C82 1.271 . S
C885 C133 1.336 . S
C877 C40 1.266 . S
C909 C61 1.286 . S
C917 C152 1.289 . S
C949 C95 1.287 . S
C941 C83 1.242 . S
C981 C114 1.322 . S
C973 C20 1.404 . S
