# Generated by pormake.
# Topology ptr, (4,4)-cn, num edge types: 1
# Building blocks:
#     Node 0, Type 0, BuildingBlock: GALJAG_clean_sbu_0, # of connection points: 4
#     Node 1, Type 0, BuildingBlock: GALJAG_clean_sbu_0, # of connection points: 4
#     Node 2, Type 0, BuildingBlock: GALJAG_clean_sbu_0, # of connection points: 4
#     Node 3, Type 0, BuildingBlock: GALJAG_clean_sbu_0, # of connection points: 4
#     Node 4, Type 0, BuildingBlock: GALJAG_clean_sbu_0, # of connection points: 4
#     Node 5, Type 0, BuildingBlock: GALJAG_clean_sbu_0, # of connection points: 4
#     Node 6, Type 0, BuildingBlock: GALJAG_clean_sbu_0, # of connection points: 4
#     Node 7, Type 0, BuildingBlock: GALJAG_clean_sbu_0, # of connection points: 4
#     Node 8, Type 0, BuildingBlock: GALJAG_clean_sbu_0, # of connection points: 4
#     Node 9, Type 0, BuildingBlock: GALJAG_clean_sbu_0, # of connection points: 4
#     Node 10, Type 0, BuildingBlock: GALJAG_clean_sbu_0, # of connection points: 4
#     Node 11, Type 0, BuildingBlock: GALJAG_clean_sbu_0, # of connection points: 4
#     Node 12, Type 0, BuildingBlock: GALJAG_clean_sbu_0, # of connection points: 4
#     Node 13, Type 0, BuildingBlock: GALJAG_clean_sbu_0, # of connection points: 4
#     Node 14, Type 0, BuildingBlock: GALJAG_clean_sbu_0, # of connection points: 4
#     Node 15, Type 0, BuildingBlock: GALJAG_clean_sbu_0, # of connection points: 4
#     Node 16, Type 0, BuildingBlock: GALJAG_clean_sbu_0, # of connection points: 4
#     Node 17, Type 0, BuildingBlock: GALJAG_clean_sbu_0, # of connection points: 4
#     Node 18, Type 1, BuildingBlock: AZAVOO_clean_linker_0, # of connection points: 4
#     Node 19, Type 1, BuildingBlock: AZAVOO_clean_linker_0, # of connection points: 4
#     Node 20, Type 1, BuildingBlock: AZAVOO_clean_linker_0, # of connection points: 4
#     Node 21, Type 1, BuildingBlock: AZAVOO_clean_linker_0, # of connection points: 4
#     Node 22, Type 1, BuildingBlock: AZAVOO_clean_linker_0, # of connection points: 4
#     Node 23, Type 1, BuildingBlock: AZAVOO_clean_linker_0, # of connection points: 4
#     Node 24, Type 1, BuildingBlock: AZAVOO_clean_linker_0, # of connection points: 4
#     Node 25, Type 1, BuildingBlock: AZAVOO_clean_linker_0, # of connection points: 4
#     Node 26, Type 1, BuildingBlock: AZAVOO_clean_linker_0, # of connection points: 4
#     Node 27, Type 1, BuildingBlock: AZAVOO_clean_linker_0, # of connection points: 4
#     Node 28, Type 1, BuildingBlock: AZAVOO_clean_linker_0, # of connection points: 4
#     Node 29, Type 1, BuildingBlock: AZAVOO_clean_linker_0, # of connection points: 4
#     Node 30, Type 1, BuildingBlock: AZAVOO_clean_linker_0, # of connection points: 4
#     Node 31, Type 1, BuildingBlock: AZAVOO_clean_linker_0, # of connection points: 4
#     Node 32, Type 1, BuildingBlock: AZAVOO_clean_linker_0, # of connection points: 4
#     Node 33, Type 1, BuildingBlock: AZAVOO_clean_linker_0, # of connection points: 4
#     Node 34, Type 1, BuildingBlock: AZAVOO_clean_linker_0, # of connection points: 4
#     Node 35, Type 1, BuildingBlock: AZAVOO_clean_linker_0, # of connection points: 4
#     Edge 36, Type (0, 1), BuildingBlock: MIFKUJ_clean_linker_0, # of connection points: 2
#     Edge 37, Type (0, 1), BuildingBlock: MIFKUJ_clean_linker_0, # of connection points: 2
#     Edge 38, Type (0, 1), BuildingBlock: MIFKUJ_clean_linker_0, # of connection points: 2
#     Edge 39, Type (0, 1), BuildingBlock: MIFKUJ_clean_linker_0, # of connection points: 2
#     Edge 40, Type (0, 1), BuildingBlock: MIFKUJ_clean_linker_0, # of connection points: 2
#     Edge 41, Type (0, 1), BuildingBlock: MIFKUJ_clean_linker_0, # of connection points: 2
#     Edge 42, Type (0, 1), BuildingBlock: MIFKUJ_clean_linker_0, # of connection points: 2
#     Edge 43, Type (0, 1), BuildingBlock: MIFKUJ_clean_linker_0, # of connection points: 2
#     Edge 44, Type (0, 1), BuildingBlock: MIFKUJ_clean_linker_0, # of connection points: 2
#     Edge 45, Type (0, 1), BuildingBlock: MIFKUJ_clean_linker_0, # of connection points: 2
#     Edge 46, Type (0, 1), BuildingBlock: MIFKUJ_clean_linker_0, # of connection points: 2
#     Edge 47, Type (0, 1), BuildingBlock: MIFKUJ_clean_linker_0, # of connection points: 2
#     Edge 48, Type (0, 1), BuildingBlock: MIFKUJ_clean_linker_0, # of connection points: 2
#     Edge 49, Type (0, 1), BuildingBlock: MIFKUJ_clean_linker_0, # of connection points: 2
#     Edge 50, Type (0, 1), BuildingBlock: MIFKUJ_clean_linker_0, # of connection points: 2
#     Edge 51, Type (0, 1), BuildingBlock: MIFKUJ_clean_linker_0, # of connection points: 2
#     Edge 52, Type (0, 1), BuildingBlock: MIFKUJ_clean_linker_0, # of connection points: 2
#     Edge 53, Type (0, 1), BuildingBlock: MIFKUJ_clean_linker_0, # of connection points: 2
#     Edge 54, Type (0, 1), BuildingBlock: MIFKUJ_clean_linker_0, # of connection points: 2
#     Edge 55, Type (0, 1), BuildingBlock: MIFKUJ_clean_linker_0, # of connection points: 2
#     Edge 56, Type (0, 1), BuildingBlock: MIFKUJ_clean_linker_0, # of connection points: 2
#     Edge 57, Type (0, 1), BuildingBlock: MIFKUJ_clean_linker_0, # of connection points: 2
#     Edge 58, Type (0, 1), BuildingBlock: MIFKUJ_clean_linker_0, # of connection points: 2
#     Edge 59, Type (0, 1), BuildingBlock: MIFKUJ_clean_linker_0, # of connection points: 2
#     Edge 60, Type (0, 1), BuildingBlock: MIFKUJ_clean_linker_0, # of connection points: 2
#     Edge 61, Type (0, 1), BuildingBlock: MIFKUJ_clean_linker_0, # of connection points: 2
#     Edge 62, Type (0, 1), BuildingBlock: MIFKUJ_clean_linker_0, # of connection points: 2
#     Edge 63, Type (0, 1), BuildingBlock: MIFKUJ_clean_linker_0, # of connection points: 2
#     Edge 64, Type (0, 1), BuildingBlock: MIFKUJ_clean_linker_0, # of connection points: 2
#     Edge 65, Type (0, 1), BuildingBlock: MIFKUJ_clean_linker_0, # of connection points: 2
#     Edge 66, Type (0, 1), BuildingBlock: MIFKUJ_clean_linker_0, # of connection points: 2
#     Edge 67, Type (0, 1), BuildingBlock: MIFKUJ_clean_linker_0, # of connection points: 2
#     Edge 68, Type (0, 1), BuildingBlock: MIFKUJ_clean_linker_0, # of connection points: 2
#     Edge 69, Type (0, 1), BuildingBlock: MIFKUJ_clean_linker_0, # of connection points: 2
#     Edge 70, Type (0, 1), BuildingBlock: MIFKUJ_clean_linker_0, # of connection points: 2
#     Edge 71, Type (0, 1), BuildingBlock: MIFKUJ_clean_linker_0, # of connection points: 2
#     Edge 72, Type (0, 1), BuildingBlock: MIFKUJ_clean_linker_0, # of connection points: 2
#     Edge 73, Type (0, 1), BuildingBlock: MIFKUJ_clean_linker_0, # of connection points: 2
#     Edge 74, Type (0, 1), BuildingBlock: MIFKUJ_clean_linker_0, # of connection points: 2
#     Edge 75, Type (0, 1), BuildingBlock: MIFKUJ_clean_linker_0, # of connection points: 2
#     Edge 76, Type (0, 1), BuildingBlock: MIFKUJ_clean_linker_0, # of connection points: 2
#     Edge 77, Type (0, 1), BuildingBlock: MIFKUJ_clean_linker_0, # of connection points: 2
#     Edge 78, Type (0, 1), BuildingBlock: MIFKUJ_clean_linker_0, # of connection points: 2
#     Edge 79, Type (0, 1), BuildingBlock: MIFKUJ_clean_linker_0, # of connection points: 2
#     Edge 80, Type (0, 1), BuildingBlock: MIFKUJ_clean_linker_0, # of connection points: 2
#     Edge 81, Type (0, 1), BuildingBlock: MIFKUJ_clean_linker_0, # of connection points: 2
#     Edge 82, Type (0, 1), BuildingBlock: MIFKUJ_clean_linker_0, # of connection points: 2
#     Edge 83, Type (0, 1), BuildingBlock: MIFKUJ_clean_linker_0, # of connection points: 2
#     Edge 84, Type (0, 1), BuildingBlock: MIFKUJ_clean_linker_0, # of connection points: 2
#     Edge 85, Type (0, 1), BuildingBlock: MIFKUJ_clean_linker_0, # of connection points: 2
#     Edge 86, Type (0, 1), BuildingBlock: MIFKUJ_clean_linker_0, # of connection points: 2
#     Edge 87, Type (0, 1), BuildingBlock: MIFKUJ_clean_linker_0, # of connection points: 2
#     Edge 88, Type (0, 1), BuildingBlock: MIFKUJ_clean_linker_0, # of connection points: 2
#     Edge 89, Type (0, 1), BuildingBlock: MIFKUJ_clean_linker_0, # of connection points: 2
#     Edge 90, Type (0, 1), BuildingBlock: MIFKUJ_clean_linker_0, # of connection points: 2
#     Edge 91, Type (0, 1), BuildingBlock: MIFKUJ_clean_linker_0, # of connection points: 2
#     Edge 92, Type (0, 1), BuildingBlock: MIFKUJ_clean_linker_0, # of connection points: 2
#     Edge 93, Type (0, 1), BuildingBlock: MIFKUJ_clean_linker_0, # of connection points: 2
#     Edge 94, Type (0, 1), BuildingBlock: MIFKUJ_clean_linker_0, # of connection points: 2
#     Edge 95, Type (0, 1), BuildingBlock: MIFKUJ_clean_linker_0, # of connection points: 2
#     Edge 96, Type (0, 1), BuildingBlock: MIFKUJ_clean_linker_0, # of connection points: 2
#     Edge 97, Type (0, 1), BuildingBlock: MIFKUJ_clean_linker_0, # of connection points: 2
#     Edge 98, Type (0, 1), BuildingBlock: MIFKUJ_clean_linker_0, # of connection points: 2
#     Edge 99, Type (0, 1), BuildingBlock: MIFKUJ_clean_linker_0, # of connection points: 2
#     Edge 100, Type (0, 1), BuildingBlock: MIFKUJ_clean_linker_0, # of connection points: 2
#     Edge 101, Type (0, 1), BuildingBlock: MIFKUJ_clean_linker_0, # of connection points: 2
#     Edge 102, Type (0, 1), BuildingBlock: MIFKUJ_clean_linker_0, # of connection points: 2
#     Edge 103, Type (0, 1), BuildingBlock: MIFKUJ_clean_linker_0, # of connection points: 2
#     Edge 104, Type (0, 1), BuildingBlock: MIFKUJ_clean_linker_0, # of connection points: 2
#     Edge 105, Type (0, 1), BuildingBlock: MIFKUJ_clean_linker_0, # of connection points: 2
#     Edge 106, Type (0, 1), BuildingBlock: MIFKUJ_clean_linker_0, # of connection points: 2
#     Edge 107, Type (0, 1), BuildingBlock: MIFKUJ_clean_linker_0, # of connection points: 2
# Relax obj value: 0.030
# Max RMSD: 0.165
# Mean RMSD: 0.100
data_MOF--net-ptr--node1-GALJAG_clean_sbu_0--node2-AZAVOO_clean_linker_0--edge1-MIFKUJ_clean_linker_0
_symmetry_space_group_name_H-M    P1
_symmetry_Int_Tables_number       1
_symmetry_cell_setting            triclinic
loop_
_symmetry_equiv_pos_as_xyz
'x, y, z'
_cell_length_a     100.56256
_cell_length_b     98.738321
_cell_length_c     90.634969
_cell_angle_alpha  92.366914
_cell_angle_beta   92.18281
_cell_angle_gamma 120.22124
loop_
_atom_site_label
_atom_site_type_symbol
_atom_site_fract_x
_atom_site_fract_y
_atom_site_fract_z
_atom_type_partial_charge
In0 In 0.00459 0.36078 0.01404 0.0
O1 O 0.98939 0.36261 0.03121 0.0
O2 O 0.01118 0.38284 0.02855 0.0
C3 C 0.98486 0.33246 0.00024 0.0
C4 C 0.02465 0.35544 0.02974 0.0
C5 C 0.00878 0.37865 0.99105 0.0
O6 O 0.98078 0.33893 0.00993 0.0
O7 O 0.99891 0.34023 0.99759 0.0
O8 O 0.01938 0.37657 0.99638 0.0
O9 O 0.99628 0.37172 0.9973 0.0
C10 C 0.9989 0.37682 0.03522 0.0
O11 O 0.02891 0.36504 0.01973 0.0
O12 O 0.01042 0.34855 0.0316 0.0
In13 In 0.6302 0.61862 0.05169 0.0
O14 O 0.63151 0.60456 0.07081 0.0
O15 O 0.60967 0.60118 0.06351 0.0
C16 C 0.65533 0.62436 0.03739 0.0
C17 C 0.63748 0.64569 0.0672 0.0
C18 C 0.61044 0.60683 0.02748 0.0
O19 O 0.64991 0.61407 0.04677 0.0
O20 O 0.64814 0.63162 0.03543 0.0
O21 O 0.61488 0.62035 0.03348 0.0
O22 O 0.61588 0.59932 0.03377 0.0
C23 C 0.61718 0.5976 0.07237 0.0
O24 O 0.62421 0.63664 0.06107 0.0
O25 O 0.64699 0.6411 0.06551 0.0
In26 In 0.38079 0.99587 0.01509 0.0
O27 O 0.39004 0.02044 0.00665 0.0
O28 O 0.36664 0.00772 0.01199 0.0
C29 C 0.40267 0.00293 0.03697 0.0
C30 C 0.38813 0.98644 0.98972 0.0
C31 C 0.35536 0.97489 0.02805 0.0
O32 O 0.39953 0.01304 0.03254 0.0
O33 O 0.39505 0.98956 0.03015 0.0
O34 O 0.35883 0.97153 0.01571 0.0
O35 O 0.36461 0.98857 0.03357 0.0
C36 C 0.37733 0.02006 0.00725 0.0
O37 O 0.37627 0.98767 0.99037 0.0
O38 O 0.39589 0.98945 0.00188 0.0
In39 In 0.99529 0.63651 0.03823 0.0
O40 O 0.01312 0.63707 0.02303 0.0
O41 O 0.99265 0.61512 0.02508 0.0
C42 C 0.01355 0.66587 0.05086 0.0
C43 C 0.97358 0.63931 0.02224 0.0
C44 C 0.99078 0.61786 0.06063 0.0
O45 O 0.0169 0.661 0.03929 0.0
O46 O 0.00104 0.65603 0.05592 0.0
O47 O 0.9797 0.61632 0.05223 0.0
O48 O 0.00393 0.62872 0.05768 0.0
C49 C 0.00534 0.62254 0.01919 0.0
O50 O 0.97278 0.63732 0.0359 0.0
O51 O 0.98503 0.63962 0.01679 0.0
In52 In 0.36942 0.38039 0.00028 0.0
O53 O 0.36693 0.38977 0.97818 0.0
O54 O 0.38776 0.40323 0.99149 0.0
C55 C 0.34249 0.37403 0.01117 0.0
C56 C 0.3652 0.35385 0.98596 0.0
C57 C 0.3874 0.38918 0.02585 0.0
O58 O 0.35124 0.38698 0.00576 0.0
O59 O 0.34726 0.3644 0.01085 0.0
O60 O 0.3879 0.38014 0.01592 0.0
O61 O 0.37801 0.3937 0.02283 0.0
C62 C 0.38021 0.40181 0.97956 0.0
O63 O 0.37844 0.36575 0.98876 0.0
O64 O 0.35429 0.35536 0.99044 0.0
In65 In 0.62162 0.00555 0.03812 0.0
O66 O 0.62032 0.021 0.05709 0.0
O67 O 0.60272 0.99697 0.05412 0.0
C68 C 0.64804 0.02462 0.02568 0.0
C69 C 0.63037 0.98652 0.04995 0.0
C70 C 0.60155 4e-05 0.01489 0.0
O71 O 0.64228 0.02991 0.03485 0.0
O72 O 0.64046 0.00993 0.02292 0.0
O73 O 0.60323 0.98926 0.02005 0.0
O74 O 0.60977 0.0134 0.0216 0.0
C75 C 0.60808 0.0099 0.0616 0.0
O76 O 0.6194 0.98154 0.04009 0.0
O77 O 0.63679 0.00099 0.0538 0.0
In78 In 0.66864 0.69658 0.34911 0.0
O79 O 0.65309 0.69916 0.36537 0.0
O80 O 0.67592 0.71835 0.36434 0.0
C81 C 0.64872 0.66858 0.33477 0.0
C82 C 0.6874 0.68994 0.36536 0.0
C83 C 0.67507 0.71518 0.32633 0.0
O84 O 0.64436 0.67583 0.34328 0.0
O85 O 0.66308 0.6754 0.33361 0.0
O86 O 0.68489 0.71228 0.3322 0.0
O87 O 0.6622 0.70873 0.33196 0.0
C88 C 0.66318 0.71293 0.37017 0.0
O89 O 0.69212 0.6991 0.355 0.0
O90 O 0.67328 0.68415 0.36743 0.0
In91 In 0.29485 0.95249 0.38489 0.0
O92 O 0.29319 0.9353 0.402 0.0
O93 O 0.27532 0.9408 0.40008 0.0
C94 C 0.32042 0.95862 0.37109 0.0
C95 C 0.30393 0.98051 0.39938 0.0
C96 C 0.27411 0.93821 0.36153 0.0
O97 O 0.31536 0.94892 0.381 0.0
O98 O 0.31271 0.9652 0.3684 0.0
O99 O 0.27781 0.95172 0.36699 0.0
O100 O 0.28066 0.93184 0.36801 0.0
C101 C 0.28061 0.93326 0.40652 0.0
O102 O 0.29325 0.97454 0.3892 0.0
O103 O 0.31001 0.97235 0.40223 0.0
In104 In 0.05331 0.32911 0.34987 0.0
O105 O 0.05575 0.35323 0.34816 0.0
O106 O 0.03791 0.33398 0.33469 0.0
C107 C 0.07586 0.33661 0.37119 0.0
C108 C 0.06474 0.3225 0.32591 0.0
C109 C 0.02766 0.31059 0.36384 0.0
O110 O 0.07288 0.34661 0.36623 0.0
O111 O 0.06762 0.32287 0.36523 0.0
O112 O 0.03099 0.30573 0.35222 0.0
O113 O 0.03727 0.32459 0.36832 0.0
C114 C 0.04466 0.34848 0.3385 0.0
O115 O 0.05459 0.3118 0.33304 0.0
O116 O 0.06914 0.33628 0.331 0.0
In117 In 0.66169 0.96601 0.37125 0.0
O118 O 0.67886 0.96481 0.35619 0.0
O119 O 0.65527 0.94683 0.35308 0.0
C120 C 0.68149 0.99351 0.38651 0.0
C121 C 0.64247 0.97215 0.35512 0.0
C122 C 0.65452 0.94569 0.39276 0.0
O123 O 0.68589 0.98667 0.37755 0.0
O124 O 0.66713 0.98651 0.38773 0.0
O125 O 0.6464 0.95171 0.38948 0.0
O126 O 0.66608 0.94993 0.38525 0.0
C127 C 0.6688 0.9523 0.34904 0.0
O128 O 0.63761 0.96087 0.36343 0.0
O129 O 0.65696 0.98041 0.35516 0.0
In130 In 0.03821 0.71384 0.33557 0.0
O131 O 0.0394 0.73245 0.3205 0.0
O132 O 0.05817 0.72823 0.32153 0.0
C133 C 0.0122 0.70622 0.34945 0.0
C134 C 0.03102 0.68675 0.32006 0.0
C135 C 0.05949 0.72721 0.35848 0.0
O136 O 0.01493 0.7129 0.33745 0.0
O137 O 0.02244 0.70348 0.35424 0.0
O138 O 0.05579 0.71402 0.35216 0.0
O139 O 0.05261 0.73381 0.35307 0.0
C140 C 0.05243 0.73586 0.31609 0.0
O141 O 0.03931 0.69139 0.33203 0.0
O142 O 0.02633 0.69573 0.3159 0.0
In143 In 0.28421 0.3392 0.37013 0.0
O144 O 0.28966 0.31937 0.36726 0.0
O145 O 0.2859 0.32542 0.38885 0.0
C146 C 0.26314 0.32804 0.34674 0.0
C147 C 0.27252 0.3476 0.39273 0.0
C148 C 0.31111 0.36223 0.36061 0.0
O149 O 0.26975 0.32081 0.35115 0.0
O150 O 0.26703 0.34068 0.35421 0.0
O151 O 0.2982 0.36064 0.35682 0.0
O152 O 0.31054 0.35263 0.36962 0.0
C153 C 0.28924 0.31694 0.38086 0.0
O154 O 0.28641 0.35589 0.38965 0.0
O155 O 0.26462 0.33529 0.38435 0.0
In156 In 0.3378 0.03166 0.67827 0.0
O157 O 0.36185 0.03558 0.68432 0.0
O158 O 0.34277 0.01756 0.69445 0.0
C159 C 0.34421 0.05164 0.65664 0.0
C160 C 0.33105 0.04602 0.70026 0.0
C161 C 0.31832 0.00373 0.66361 0.0
O162 O 0.35398 0.04834 0.66187 0.0
O163 O 0.33143 0.04503 0.66244 0.0
O164 O 0.31486 0.00858 0.67512 0.0
O165 O 0.33163 0.01292 0.65956 0.0
C166 C 0.35716 0.02491 0.69332 0.0
O167 O 0.32072 0.03482 0.69188 0.0
O168 O 0.34468 0.05004 0.69742 0.0
In169 In 0.96592 0.28682 0.71736 0.0
O170 O 0.96175 0.30733 0.72129 0.0
O171 O 0.97734 0.3056 0.73647 0.0
C172 C 0.94797 0.27383 0.6921 0.0
C173 C 0.95146 0.2647 0.73681 0.0
C174 C 0.99331 0.29644 0.7058 0.0
O175 O 0.94736 0.28416 0.70026 0.0
O176 O 0.95742 0.26988 0.69681 0.0
O177 O 0.98747 0.28505 0.714 0.0
O178 O 0.98548 0.30303 0.70377 0.0
C179 C 0.97076 0.31307 0.73278 0.0
O180 O 0.9657 0.27075 0.73511 0.0
O181 O 0.94465 0.26963 0.72859 0.0
In182 In 0.71669 0.66206 0.68149 0.0
O183 O 0.71858 0.68584 0.67914 0.0
O184 O 0.7023 0.66644 0.66461 0.0
C185 C 0.73703 0.66963 0.70507 0.0
C186 C 0.7299 0.65712 0.65809 0.0
C187 C 0.69014 0.64203 0.69346 0.0
O188 O 0.73297 0.67902 0.70057 0.0
O189 O 0.73106 0.65667 0.69755 0.0
O190 O 0.69799 0.63726 0.68682 0.0
O191 O 0.69563 0.65666 0.69395 0.0
C192 C 0.70825 0.68085 0.66862 0.0
O193 O 0.71785 0.64618 0.663 0.0
O194 O 0.73533 0.67031 0.66513 0.0
In195 In 0.32978 0.30096 0.70248 0.0
O196 O 0.3471 0.29747 0.68964 0.0
O197 O 0.32339 0.27986 0.68656 0.0
C198 C 0.35035 0.32988 0.7145 0.0
C199 C 0.31161 0.3083 0.68616 0.0
C200 C 0.32192 0.2827 0.72571 0.0
O201 O 0.35427 0.32175 0.70667 0.0
O202 O 0.33606 0.32349 0.71606 0.0
O203 O 0.31221 0.28053 0.7153 0.0
O204 O 0.33531 0.29398 0.72438 0.0
C205 C 0.33701 0.2845 0.6832 0.0
O206 O 0.30849 0.30348 0.69897 0.0
O207 O 0.32375 0.3093 0.68164 0.0
In208 In 0.70348 0.0473 0.66794 0.0
O209 O 0.70944 0.06919 0.65521 0.0
O210 O 0.71721 0.05395 0.64753 0.0
C211 C 0.67946 0.04515 0.68236 0.0
C212 C 0.69267 0.01803 0.65548 0.0
C213 C 0.72612 0.05811 0.68976 0.0
O214 O 0.68062 0.0474 0.66873 0.0
O215 O 0.69035 0.04417 0.6885 0.0
O216 O 0.71766 0.04369 0.68583 0.0
O217 O 0.72337 0.06716 0.68247 0.0
C218 C 0.71675 0.06629 0.64576 0.0
O219 O 0.70558 0.02576 0.66267 0.0
O220 O 0.68506 0.025 0.6547 0.0
In221 In 0.94823 0.67101 0.70482 0.0
O222 O 0.94145 0.64537 0.70749 0.0
O223 O 0.96219 0.66329 0.71877 0.0
C224 C 0.92776 0.66692 0.68254 0.0
C225 C 0.93836 0.68053 0.72829 0.0
C226 C 0.97412 0.68742 0.69053 0.0
O227 O 0.92783 0.65553 0.68835 0.0
O228 O 0.9379 0.68035 0.6881 0.0
O229 O 0.9714 0.69316 0.70196 0.0
O230 O 0.96379 0.67354 0.68637 0.0
C231 C 0.95314 0.64879 0.71593 0.0
O232 O 0.95196 0.68843 0.72437 0.0
O233 O 0.92984 0.6681 0.72032 0.0
H234 H 0.15168 0.3446 0.05927 0.0
H235 H 0.25198 0.30817 0.17705 0.0
H236 H 0.1559 0.34521 0.1491 0.0
H237 H 0.13644 0.35009 0.13742 0.0
H238 H 0.11296 0.30305 0.11648 0.0
H239 H 0.13259 0.29832 0.12804 0.0
H240 H 0.17061 0.34789 0.12171 0.0
H241 H 0.16351 0.35094 0.09649 0.0
H242 H 0.15419 0.30421 0.08327 0.0
H243 H 0.16111 0.30123 0.10865 0.0
H244 H 0.19959 0.34971 0.12341 0.0
H245 H 0.21885 0.35642 0.10528 0.0
H246 H 0.21405 0.31048 0.10742 0.0
H247 H 0.19394 0.30353 0.12483 0.0
H248 H 0.21571 0.34502 0.15333 0.0
H249 H 0.23968 0.34582 0.16114 0.0
H250 H 0.21388 0.29593 0.16682 0.0
H251 H 0.19004 0.29527 0.1588 0.0
H252 H 0.19677 0.3398 0.18214 0.0
H253 H 0.20297 0.33653 0.20766 0.0
H254 H 0.169 0.28704 0.20189 0.0
H255 H 0.16285 0.29045 0.1763 0.0
H256 H 0.16759 0.34012 0.17951 0.0
H257 H 0.15169 0.33784 0.20004 0.0
H258 H 0.11795 0.29059 0.18318 0.0
H259 H 0.13421 0.29291 0.16278 0.0
O260 O 0.15443 0.34312 0.06918 0.0
O261 O 0.14961 0.31896 0.06296 0.0
O262 O 0.25551 0.33367 0.17014 0.0
O263 O 0.24271 0.30815 0.17371 0.0
C264 C 0.15926 0.32003 0.14339 0.0
C265 C 0.16975 0.32213 0.13253 0.0
C266 C 0.18356 0.32227 0.13643 0.0
C267 C 0.18659 0.31972 0.15111 0.0
C268 C 0.17597 0.31739 0.16188 0.0
C269 C 0.16243 0.31779 0.15807 0.0
C270 C 0.14561 0.32142 0.13939 0.0
C271 C 0.14628 0.33581 0.14237 0.0
C272 C 0.13528 0.33862 0.13561 0.0
C273 C 0.12332 0.32698 0.12599 0.0
C274 C 0.12202 0.31216 0.12392 0.0
C275 C 0.13316 0.30943 0.13053 0.0
C276 C 0.16625 0.32429 0.11701 0.0
C277 C 0.16699 0.33831 0.11336 0.0
C278 C 0.16296 0.34003 0.09893 0.0
C279 C 0.15823 0.3278 0.08786 0.0
C280 C 0.15775 0.31385 0.09154 0.0
C281 C 0.16174 0.31213 0.106 0.0
C282 C 0.19527 0.3261 0.12536 0.0
C283 C 0.20253 0.34101 0.11978 0.0
C284 C 0.21371 0.34489 0.10956 0.0
C285 C 0.21813 0.33404 0.10491 0.0
C286 C 0.21081 0.31906 0.11056 0.0
C287 C 0.19942 0.31511 0.12063 0.0
C288 C 0.20117 0.32008 0.15545 0.0
C289 C 0.21529 0.33427 0.15615 0.0
C290 C 0.22895 0.33469 0.16066 0.0
C291 C 0.22869 0.32094 0.16463 0.0
C292 C 0.2145 0.30674 0.16386 0.0
C293 C 0.20086 0.30632 0.15929 0.0
C294 C 0.17943 0.31535 0.17741 0.0
C295 C 0.19064 0.32828 0.18642 0.0
C296 C 0.19408 0.32641 0.20099 0.0
C297 C 0.18642 0.31154 0.20674 0.0
C298 C 0.17512 0.29861 0.19769 0.0
C299 C 0.17158 0.30053 0.18314 0.0
C300 C 0.15204 0.31668 0.16972 0.0
C301 C 0.15671 0.32933 0.18021 0.0
C302 C 0.14757 0.32802 0.19187 0.0
C303 C 0.13355 0.31403 0.19324 0.0
C304 C 0.12877 0.30145 0.18251 0.0
C305 C 0.13795 0.30279 0.17081 0.0
C306 C 0.15382 0.32962 0.07258 0.0
C307 C 0.24314 0.32137 0.16964 0.0
H308 H 0.6658 0.8244 0.06876 0.0
H309 H 0.70255 0.9457 0.19956 0.0
H310 H 0.66047 0.81465 0.14764 0.0
H311 H 0.65519 0.789 0.13779 0.0
H312 H 0.70204 0.80157 0.15093 0.0
H313 H 0.70742 0.8277 0.16011 0.0
H314 H 0.66035 0.83682 0.13122 0.0
H315 H 0.65806 0.83026 0.10459 0.0
H316 H 0.70656 0.84499 0.10608 0.0
H317 H 0.70871 0.85168 0.13272 0.0
H318 H 0.65823 0.85758 0.1481 0.0
H319 H 0.65111 0.87264 0.13234 0.0
H320 H 0.6993 0.90388 0.1254 0.0
H321 H 0.70613 0.88794 0.14049 0.0
H322 H 0.66598 0.86803 0.18447 0.0
H323 H 0.66615 0.89126 0.19527 0.0
H324 H 0.71185 0.92079 0.18054 0.0
H325 H 0.71157 0.89744 0.16991 0.0
H326 H 0.66965 0.84159 0.20079 0.0
H327 H 0.66966 0.85063 0.22624 0.0
H328 H 0.71403 0.89212 0.22179 0.0
H329 H 0.71442 0.88228 0.19678 0.0
H330 H 0.66625 0.81415 0.18116 0.0
H331 H 0.66649 0.79674 0.19939 0.0
H332 H 0.71418 0.83066 0.2125 0.0
H333 H 0.71398 0.84775 0.19374 0.0
O334 O 0.66698 0.82717 0.07929 0.0
O335 O 0.69195 0.83488 0.08065 0.0
O336 O 0.67831 0.92072 0.20194 0.0
O337 O 0.70204 0.93636 0.19509 0.0
C338 C 0.68729 0.83876 0.16003 0.0
C339 C 0.68619 0.84883 0.15003 0.0
C340 C 0.68662 0.86264 0.15543 0.0
C341 C 0.689 0.86689 0.17074 0.0
C342 C 0.69072 0.85717 0.18076 0.0
C343 C 0.68966 0.84297 0.17542 0.0
C344 C 0.68437 0.8231 0.1544 0.0
C345 C 0.66964 0.81193 0.14824 0.0
C346 C 0.66659 0.79717 0.14282 0.0
C347 C 0.67816 0.79315 0.14363 0.0
C348 C 0.69292 0.80434 0.14997 0.0
C349 C 0.696 0.81923 0.1553 0.0
C350 C 0.68474 0.84493 0.13384 0.0
C351 C 0.6705 0.83881 0.12574 0.0
C352 C 0.66921 0.83498 0.11054 0.0
C353 C 0.68214 0.83714 0.10319 0.0
C354 C 0.69638 0.84322 0.11139 0.0
C355 C 0.69765 0.84705 0.12659 0.0
C356 C 0.68265 0.87165 0.14532 0.0
C357 C 0.6672 0.86756 0.14298 0.0
C358 C 0.6632 0.87631 0.13411 0.0
C359 C 0.67463 0.88964 0.1277 0.0
C360 C 0.69016 0.89361 0.12998 0.0
C361 C 0.69412 0.88461 0.13867 0.0
C362 C 0.68875 0.88109 0.17641 0.0
C363 C 0.67597 0.87955 0.18352 0.0
C364 C 0.67611 0.89282 0.18969 0.0
C365 C 0.68904 0.90789 0.18881 0.0
C366 C 0.70173 0.90937 0.18144 0.0
C367 C 0.70157 0.89608 0.17529 0.0
C368 C 0.69202 0.86128 0.19692 0.0
C369 C 0.67962 0.85234 0.20551 0.0
C370 C 0.67954 0.85769 0.21999 0.0
C371 C 0.6917 0.87229 0.22603 0.0
C372 C 0.70451 0.88077 0.21763 0.0
C373 C 0.70473 0.87523 0.20326 0.0
C374 C 0.69013 0.83215 0.18605 0.0
C375 C 0.67682 0.8177 0.18779 0.0
C376 C 0.67694 0.80785 0.19834 0.0
C377 C 0.69033 0.81235 0.20747 0.0
C378 C 0.70373 0.82677 0.20554 0.0
C379 C 0.70362 0.83658 0.19491 0.0
C380 C 0.68072 0.83302 0.08704 0.0
C381 C 0.68941 0.922 0.19567 0.0
H382 H 0.15376 0.8407 0.05881 0.0
H383 H 0.27891 0.92878 0.18208 0.0
H384 H 0.14251 0.84951 0.13485 0.0
H385 H 0.11869 0.82753 0.1228 0.0
H386 H 0.12833 0.79483 0.14421 0.0
H387 H 0.15229 0.8168 0.15589 0.0
H388 H 0.17272 0.87152 0.11856 0.0
H389 H 0.16518 0.86275 0.09237 0.0
H390 H 0.16171 0.81836 0.10098 0.0
H391 H 0.1695 0.82737 0.12708 0.0
H392 H 0.20441 0.89746 0.13672 0.0
H393 H 0.22453 0.90961 0.11922 0.0
H394 H 0.22383 0.86573 0.11182 0.0
H395 H 0.20375 0.85371 0.12932 0.0
H396 H 0.20326 0.90149 0.17235 0.0
H397 H 0.22917 0.92281 0.18072 0.0
H398 H 0.24782 0.89333 0.16797 0.0
H399 H 0.22183 0.87206 0.1598 0.0
H400 H 0.17394 0.87916 0.19014 0.0
H401 H 0.18157 0.88662 0.21655 0.0
H402 H 0.21231 0.86804 0.21407 0.0
H403 H 0.20418 0.86015 0.18787 0.0
H404 H 0.14403 0.85434 0.1741 0.0
H405 H 0.12705 0.84132 0.19393 0.0
H406 H 0.15232 0.81752 0.20336 0.0
H407 H 0.16951 0.83109 0.184 0.0
O408 O 0.15687 0.84399 0.06918 0.0
O409 O 0.15502 0.82128 0.07425 0.0
O410 O 0.25837 0.93521 0.18528 0.0
O411 O 0.26854 0.92055 0.17886 0.0
C412 C 0.1648 0.8478 0.15126 0.0
C413 C 0.1758 0.85527 0.14068 0.0
C414 C 0.19087 0.86748 0.14531 0.0
C415 C 0.19491 0.87234 0.1605 0.0
C416 C 0.18401 0.86469 0.17108 0.0
C417 C 0.16899 0.85235 0.16646 0.0
C418 C 0.14911 0.83475 0.14626 0.0
C419 C 0.13931 0.83761 0.13716 0.0
C420 C 0.12578 0.82508 0.13025 0.0
C421 C 0.12173 0.80952 0.13256 0.0
C422 C 0.1311 0.80672 0.14237 0.0
C423 C 0.14475 0.81925 0.1491 0.0
C424 C 0.17161 0.85006 0.12471 0.0
C425 C 0.17042 0.85995 0.11473 0.0
C426 C 0.16607 0.85489 0.0998 0.0
C427 C 0.1628 0.83983 0.09458 0.0
C428 C 0.16412 0.83001 0.10462 0.0
C429 C 0.16854 0.83511 0.11954 0.0
C430 C 0.20264 0.87472 0.13428 0.0
C431 C 0.20859 0.89049 0.13128 0.0
C432 C 0.2201 0.8974 0.12133 0.0
C433 C 0.22577 0.88862 0.11416 0.0
C434 C 0.21957 0.87274 0.11702 0.0
C435 C 0.20814 0.86587 0.12704 0.0
C436 C 0.21069 0.88527 0.16542 0.0
C437 C 0.21296 0.89967 0.17139 0.0
C438 C 0.22777 0.91182 0.17615 0.0
C439 C 0.24057 0.90978 0.17499 0.0
C440 C 0.23822 0.89531 0.169 0.0
C441 C 0.22341 0.88316 0.16428 0.0
C442 C 0.18854 0.86916 0.18711 0.0
C443 C 0.18223 0.87662 0.19537 0.0
C444 C 0.18668 0.88096 0.21041 0.0
C445 C 0.19754 0.87792 0.21743 0.0
C446 C 0.20375 0.87034 0.20908 0.0
C447 C 0.19925 0.86596 0.19408 0.0
C448 C 0.15799 0.84368 0.1777 0.0
C449 C 0.1458 0.84625 0.18045 0.0
C450 C 0.13609 0.83875 0.19173 0.0
C451 C 0.13837 0.82844 0.20035 0.0
C452 C 0.15041 0.82564 0.19721 0.0
C453 C 0.16017 0.83326 0.18607 0.0
C454 C 0.158 0.83442 0.07874 0.0
C455 C 0.25633 0.92264 0.18003 0.0
H456 H 0.32539 0.18777 0.97901 0.0
H457 H 0.33432 0.0715 0.85634 0.0
H458 H 0.30095 0.17437 0.89232 0.0
H459 H 0.30564 0.20047 0.90061 0.0
H460 H 0.3545 0.21717 0.90653 0.0
H461 H 0.34972 0.19138 0.89762 0.0
H462 H 0.3033 0.15461 0.92039 0.0
H463 H 0.30795 0.16647 0.94569 0.0
H464 H 0.35688 0.1848 0.94308 0.0
H465 H 0.35206 0.17299 0.91776 0.0
H466 H 0.30458 0.11711 0.91297 0.0
H467 H 0.31194 0.10278 0.92971 0.0
H468 H 0.36007 0.13594 0.92442 0.0
H469 H 0.35249 0.14942 0.907 0.0
H470 H 0.29713 0.10584 0.8841 0.0
H471 H 0.29732 0.08188 0.8763 0.0
H472 H 0.34425 0.11019 0.86398 0.0
H473 H 0.34389 0.13401 0.87187 0.0
H474 H 0.29246 0.11902 0.85768 0.0
H475 H 0.29094 0.10688 0.83307 0.0
H476 H 0.33679 0.1448 0.82624 0.0
H477 H 0.3384 0.15645 0.85102 0.0
H478 H 0.29205 0.15388 0.86169 0.0
H479 H 0.2891 0.16942 0.84281 0.0
H480 H 0.33871 0.1996 0.84457 0.0
H481 H 0.34138 0.18438 0.8638 0.0
O482 O 0.32377 0.18286 0.96913 0.0
O483 O 0.34879 0.19177 0.96733 0.0
O484 O 0.3095 0.06675 0.86522 0.0
O485 O 0.3339 0.08075 0.85947 0.0
C486 C 0.32227 0.16507 0.89059 0.0
C487 C 0.32445 0.15656 0.90165 0.0
C488 C 0.3237 0.14222 0.89774 0.0
C489 C 0.32023 0.1361 0.88286 0.0
C490 C 0.31763 0.14439 0.87185 0.0
C491 C 0.31871 0.15891 0.87572 0.0
C492 C 0.32499 0.18102 0.89453 0.0
C493 C 0.31266 0.18378 0.89522 0.0
C494 C 0.31536 0.19865 0.90005 0.0
C495 C 0.33045 0.21093 0.90431 0.0
C496 C 0.34278 0.20812 0.90314 0.0
C497 C 0.34007 0.19334 0.89821 0.0
C498 C 0.32732 0.16274 0.91736 0.0
C499 C 0.31499 0.16103 0.92539 0.0
C500 C 0.31769 0.16788 0.9398 0.0
C501 C 0.33279 0.17659 0.94642 0.0
C502 C 0.34511 0.17812 0.93834 0.0
C503 C 0.34238 0.17129 0.92392 0.0
C504 C 0.32802 0.13433 0.9089 0.0
C505 C 0.3167 0.12125 0.91552 0.0
C506 C 0.32095 0.11317 0.92516 0.0
C507 C 0.33663 0.11816 0.92843 0.0
C508 C 0.3479 0.13155 0.92198 0.0
C509 C 0.34362 0.13943 0.91218 0.0
C510 C 0.32051 0.12159 0.87858 0.0
C511 C 0.30746 0.1068 0.8798 0.0
C512 C 0.30759 0.09316 0.87529 0.0
C513 C 0.32081 0.09412 0.8695 0.0
C514 C 0.33389 0.10902 0.86839 0.0
C515 C 0.33374 0.12263 0.8729 0.0
C516 C 0.31553 0.13859 0.8561 0.0
C517 C 0.30204 0.12482 0.85072 0.0
C518 C 0.30118 0.11795 0.83665 0.0
C519 C 0.31381 0.12481 0.82776 0.0
C520 C 0.32697 0.1391 0.83291 0.0
C521 C 0.32784 0.14588 0.84699 0.0
C522 C 0.31691 0.16809 0.8641 0.0
C523 C 0.30223 0.16389 0.85798 0.0
C524 C 0.3006 0.17273 0.84715 0.0
C525 C 0.31366 0.18584 0.84219 0.0
C526 C 0.32837 0.18983 0.84832 0.0
C527 C 0.32996 0.18109 0.85922 0.0
C528 C 0.33566 0.1842 0.96159 0.0
C529 C 0.32099 0.07969 0.86461 0.0
H530 H 0.82961 0.17345 0.98571 0.0
H531 H 0.73785 0.04146 0.86393 0.0
H532 H 0.83944 0.17717 0.89947 0.0
H533 H 0.86188 0.20106 0.91093 0.0
H534 H 0.88362 0.17425 0.92199 0.0
H535 H 0.8611 0.15038 0.91036 0.0
H536 H 0.81296 0.15636 0.92237 0.0
H537 H 0.81742 0.16572 0.94853 0.0
H538 H 0.84401 0.14296 0.95613 0.0
H539 H 0.83937 0.13363 0.92995 0.0
H540 H 0.78312 0.12708 0.90471 0.0
H541 H 0.76323 0.11522 0.92242 0.0
H542 H 0.78789 0.0946 0.94259 0.0
H543 H 0.80762 0.10631 0.92461 0.0
H544 H 0.78245 0.11955 0.87191 0.0
H545 H 0.75852 0.0962 0.86201 0.0
H546 H 0.77359 0.06669 0.8819 0.0
H547 H 0.79756 0.09016 0.89158 0.0
H548 H 0.80729 0.14127 0.85717 0.0
H549 H 0.80041 0.13252 0.83099 0.0
H550 H 0.81486 0.09842 0.83671 0.0
H551 H 0.82115 0.10696 0.86309 0.0
H552 H 0.83386 0.16801 0.87027 0.0
H553 H 0.85152 0.18321 0.85172 0.0
H554 H 0.87227 0.15413 0.85375 0.0
H555 H 0.8546 0.13908 0.87252 0.0
O556 O 0.82795 0.16959 0.97543 0.0
O557 O 0.84151 0.15768 0.97875 0.0
O558 O 0.74009 0.06659 0.85756 0.0
O559 O 0.74717 0.05089 0.86779 0.0
C560 C 0.83449 0.14755 0.89852 0.0
C561 C 0.82324 0.13886 0.90846 0.0
C562 C 0.80915 0.12552 0.90315 0.0
C563 C 0.80646 0.12066 0.88793 0.0
C564 C 0.81774 0.12938 0.87801 0.0
C565 C 0.8317 0.14289 0.88329 0.0
C566 C 0.84874 0.16213 0.90406 0.0
C567 C 0.84919 0.17654 0.90412 0.0
C568 C 0.86199 0.19015 0.91064 0.0
C569 C 0.87448 0.18949 0.91735 0.0
C570 C 0.87411 0.17505 0.91698 0.0
C571 C 0.86134 0.16147 0.9103 0.0
C572 C 0.82586 0.14435 0.92433 0.0
C573 C 0.81971 0.1534 0.92973 0.0
C574 C 0.8223 0.15873 0.94466 0.0
C575 C 0.83109 0.1551 0.95442 0.0
C576 C 0.8372 0.14597 0.94892 0.0
C577 C 0.83459 0.14064 0.93399 0.0
C578 C 0.79674 0.11749 0.91337 0.0
C579 C 0.78412 0.11986 0.91287 0.0
C580 C 0.77287 0.11322 0.92307 0.0
C581 C 0.77405 0.10406 0.93396 0.0
C582 C 0.78661 0.1015 0.93426 0.0
C583 C 0.79789 0.1082 0.92406 0.0
C584 C 0.79176 0.10651 0.88234 0.0
C585 C 0.78057 0.10802 0.87405 0.0
C586 C 0.76691 0.09467 0.86845 0.0
C587 C 0.76417 0.07956 0.87112 0.0
C588 C 0.77535 0.07813 0.87961 0.0
C589 C 0.78903 0.0915 0.88517 0.0
C590 C 0.81466 0.1247 0.86195 0.0
C591 C 0.80907 0.132 0.8527 0.0
C592 C 0.80526 0.12704 0.83772 0.0
C593 C 0.8071 0.11476 0.83169 0.0
C594 C 0.81309 0.10775 0.841 0.0
C595 C 0.81678 0.11266 0.85604 0.0
C596 C 0.84303 0.15252 0.87272 0.0
C597 C 0.84232 0.16503 0.86679 0.0
C598 C 0.85232 0.1736 0.85613 0.0
C599 C 0.86321 0.16979 0.8512 0.0
C600 C 0.86408 0.1574 0.85741 0.0
C601 C 0.85401 0.14879 0.86807 0.0
C602 C 0.83386 0.16083 0.97027 0.0
C603 C 0.74973 0.06534 0.86507 0.0
H604 H 0.85947 0.6836 0.00154 0.0
H605 H 0.73357 0.66053 0.88597 0.0
H606 H 0.86851 0.70572 0.92734 0.0
H607 H 0.88944 0.70387 0.93994 0.0
H608 H 0.87328 0.65875 0.91649 0.0
H609 H 0.85238 0.6607 0.90398 0.0
H610 H 0.8405 0.69939 0.94608 0.0
H611 H 0.84861 0.69676 0.9711 0.0
H612 H 0.84358 0.65205 0.95653 0.0
H613 H 0.83524 0.65471 0.93165 0.0
H614 H 0.81023 0.69746 0.93099 0.0
H615 H 0.79054 0.69071 0.94888 0.0
H616 H 0.78262 0.64337 0.94783 0.0
H617 H 0.80255 0.65038 0.93024 0.0
H618 H 0.81037 0.70337 0.89536 0.0
H619 H 0.78565 0.70158 0.88888 0.0
H620 H 0.76194 0.65199 0.89602 0.0
H621 H 0.78674 0.65391 0.90229 0.0
H622 H 0.83759 0.70799 0.87561 0.0
H623 H 0.82992 0.70899 0.84982 0.0
H624 H 0.79594 0.65948 0.84835 0.0
H625 H 0.80394 0.65854 0.87391 0.0
H626 H 0.86688 0.70979 0.88996 0.0
H627 H 0.88252 0.71304 0.86882 0.0
H628 H 0.85203 0.66413 0.85435 0.0
H629 H 0.83636 0.66119 0.87525 0.0
O630 O 0.85592 0.68425 0.99167 0.0
O631 O 0.85333 0.66143 0.98355 0.0
O632 O 0.75626 0.68705 0.88468 0.0
O633 O 0.7435 0.66156 0.88842 0.0
C634 C 0.84406 0.68237 0.91066 0.0
C635 C 0.83347 0.67941 0.92167 0.0
C636 C 0.81914 0.67821 0.91797 0.0
C637 C 0.81536 0.67996 0.90327 0.0
C638 C 0.82577 0.68252 0.89222 0.0
C639 C 0.84009 0.68363 0.8959 0.0
C640 C 0.85892 0.68332 0.9148 0.0
C641 C 0.86983 0.6957 0.92456 0.0
C642 C 0.88166 0.69455 0.93185 0.0
C643 C 0.88283 0.68106 0.92936 0.0
C644 C 0.87271 0.66932 0.91857 0.0
C645 C 0.8608 0.67044 0.91136 0.0
C646 C 0.83734 0.67727 0.93707 0.0
C647 C 0.84099 0.68896 0.94837 0.0
C648 C 0.84569 0.68746 0.96263 0.0
C649 C 0.84682 0.67423 0.9658 0.0
C650 C 0.84288 0.6624 0.95447 0.0
C651 C 0.83811 0.66389 0.94025 0.0
C652 C 0.80779 0.67441 0.92936 0.0
C653 C 0.8043 0.68568 0.93474 0.0
C654 C 0.793 0.68177 0.94489 0.0
C655 C 0.78496 0.66648 0.94977 0.0
C656 C 0.78873 0.65531 0.9445 0.0
C657 C 0.80006 0.65925 0.9344 0.0
C658 C 0.80032 0.67879 0.89936 0.0
C659 C 0.79982 0.69213 0.89549 0.0
C660 C 0.78569 0.69108 0.89181 0.0
C661 C 0.77181 0.67664 0.89196 0.0
C662 C 0.7724 0.66329 0.89582 0.0
C663 C 0.78654 0.66436 0.89945 0.0
C664 C 0.82128 0.6832 0.8766 0.0
C665 C 0.82856 0.69737 0.86964 0.0
C666 C 0.82411 0.69793 0.85498 0.0
C667 C 0.81235 0.68431 0.84704 0.0
C668 C 0.80519 0.67013 0.85407 0.0
C669 C 0.80963 0.66959 0.8687 0.0
C670 C 0.85049 0.68528 0.88406 0.0
C671 C 0.86373 0.69978 0.88228 0.0
C672 C 0.87264 0.70158 0.87022 0.0
C673 C 0.86844 0.68888 0.85979 0.0
C674 C 0.85542 0.67424 0.86197 0.0
C675 C 0.84652 0.67248 0.87397 0.0
C676 C 0.85219 0.67285 0.98085 0.0
C677 C 0.75676 0.67546 0.88812 0.0
H678 H 0.83872 0.68263 0.38812 0.0
H679 H 0.91275 0.63284 0.50672 0.0
H680 H 0.82899 0.68326 0.46854 0.0
H681 H 0.80925 0.68715 0.45615 0.0
H682 H 0.77651 0.63744 0.45648 0.0
H683 H 0.79637 0.63371 0.46907 0.0
H684 H 0.85511 0.68292 0.4508 0.0
H685 H 0.85197 0.68726 0.42482 0.0
H686 H 0.81257 0.64018 0.41829 0.0
H687 H 0.81597 0.63595 0.44424 0.0
H688 H 0.88018 0.67925 0.47158 0.0
H689 H 0.89979 0.68354 0.45426 0.0
H690 H 0.86703 0.64085 0.42861 0.0
H691 H 0.84751 0.63639 0.44626 0.0
H692 H 0.87718 0.67446 0.50364 0.0
H693 H 0.89887 0.67182 0.51295 0.0
H694 H 0.87885 0.62642 0.48881 0.0
H695 H 0.85713 0.62913 0.47973 0.0
H696 H 0.85092 0.67669 0.51643 0.0
H697 H 0.85664 0.67682 0.54284 0.0
H698 H 0.84519 0.62836 0.53694 0.0
H699 H 0.83869 0.62815 0.51053 0.0
H700 H 0.82767 0.67777 0.5047 0.0
H701 H 0.81179 0.67612 0.52497 0.0
H702 H 0.78729 0.62535 0.5185 0.0
H703 H 0.80418 0.62729 0.49902 0.0
O704 O 0.8398 0.68064 0.39833 0.0
O705 O 0.81957 0.65638 0.39558 0.0
O706 O 0.91408 0.65756 0.51546 0.0
O707 O 0.9043 0.63419 0.50322 0.0
C708 C 0.82672 0.65574 0.47506 0.0
C709 C 0.83762 0.65657 0.46518 0.0
C710 C 0.85042 0.65543 0.47044 0.0
C711 C 0.85227 0.65342 0.48559 0.0
C712 C 0.84146 0.6528 0.49547 0.0
C713 C 0.82856 0.65369 0.49013 0.0
C714 C 0.81407 0.65821 0.46964 0.0
C715 C 0.81747 0.67327 0.46616 0.0
C716 C 0.80623 0.67544 0.45898 0.0
C717 C 0.79139 0.66257 0.45516 0.0
C718 C 0.78781 0.64759 0.45934 0.0
C719 C 0.7991 0.64543 0.46653 0.0
C720 C 0.8358 0.65911 0.44937 0.0
C721 C 0.84587 0.67354 0.44371 0.0
C722 C 0.84402 0.676 0.42888 0.0
C723 C 0.83202 0.66407 0.41947 0.0
C724 C 0.82194 0.64962 0.42522 0.0
C725 C 0.82383 0.64717 0.44004 0.0
C726 C 0.86244 0.65746 0.46024 0.0
C727 C 0.8773 0.67068 0.46237 0.0
C728 C 0.88847 0.67313 0.45246 0.0
C729 C 0.8849 0.66253 0.4401 0.0
C730 C 0.87003 0.64926 0.43799 0.0
C731 C 0.85891 0.64668 0.44806 0.0
C732 C 0.86554 0.65193 0.49111 0.0
C733 C 0.87746 0.66391 0.50046 0.0
C734 C 0.88986 0.6624 0.50571 0.0
C735 C 0.89058 0.64889 0.50164 0.0
C736 C 0.87865 0.63696 0.49218 0.0
C737 C 0.86624 0.63848 0.48696 0.0
C738 C 0.84425 0.65237 0.5116 0.0
C739 C 0.84934 0.666 0.5209 0.0
C740 C 0.85278 0.66611 0.53596 0.0
C741 C 0.85148 0.65263 0.54201 0.0
C742 C 0.84613 0.63888 0.53268 0.0
C743 C 0.84253 0.63875 0.51759 0.0
C744 C 0.81713 0.65266 0.50054 0.0
C745 C 0.81875 0.66632 0.50761 0.0
C746 C 0.80954 0.66531 0.51915 0.0
C747 C 0.79825 0.65057 0.52359 0.0
C748 C 0.7961 0.6369 0.51575 0.0
C749 C 0.80559 0.63795 0.50446 0.0
C750 C 0.83004 0.66674 0.40374 0.0
C751 C 0.90371 0.6472 0.50722 0.0
H752 H 0.31934 0.15475 0.40145 0.0
H753 H 0.36744 0.28284 0.52264 0.0
H754 H 0.3233 0.14745 0.48118 0.0
H755 H 0.31908 0.12235 0.4706 0.0
H756 H 0.36795 0.1394 0.47715 0.0
H757 H 0.37196 0.16444 0.48813 0.0
H758 H 0.32148 0.17238 0.46428 0.0
H759 H 0.31614 0.16407 0.43787 0.0
H760 H 0.36293 0.17366 0.43528 0.0
H761 H 0.36815 0.18209 0.46168 0.0
H762 H 0.32356 0.19928 0.4855 0.0
H763 H 0.3171 0.21473 0.46947 0.0
H764 H 0.35955 0.23009 0.44798 0.0
H765 H 0.36594 0.21451 0.46416 0.0
H766 H 0.33188 0.2045 0.5183 0.0
H767 H 0.33303 0.22878 0.5274 0.0
H768 H 0.3753 0.25582 0.50571 0.0
H769 H 0.37411 0.23146 0.49685 0.0
H770 H 0.33415 0.17647 0.5322 0.0
H771 H 0.33527 0.18527 0.558 0.0
H772 H 0.37922 0.22686 0.55253 0.0
H773 H 0.37841 0.21741 0.52698 0.0
H774 H 0.33083 0.14867 0.51256 0.0
H775 H 0.33233 0.13183 0.53068 0.0
H776 H 0.37982 0.16721 0.5428 0.0
H777 H 0.37842 0.18362 0.52396 0.0
O778 O 0.32173 0.15816 0.41187 0.0
O779 O 0.34588 0.16323 0.41114 0.0
O780 O 0.34506 0.25862 0.53031 0.0
O781 O 0.36673 0.27306 0.51923 0.0
C782 C 0.35032 0.1732 0.4909 0.0
C783 C 0.34842 0.18281 0.48091 0.0
C784 C 0.34915 0.19681 0.48625 0.0
C785 C 0.3523 0.20149 0.50151 0.0
C786 C 0.35435 0.19197 0.51153 0.0
C787 C 0.35331 0.17776 0.50622 0.0
C788 C 0.34794 0.15775 0.48531 0.0
C789 C 0.33307 0.14571 0.48039 0.0
C790 C 0.33072 0.13143 0.47426 0.0
C791 C 0.34321 0.12893 0.47285 0.0
C792 C 0.35807 0.14091 0.47817 0.0
C793 C 0.36041 0.15522 0.48438 0.0
C794 C 0.34523 0.17793 0.46484 0.0
C795 C 0.33059 0.17278 0.45796 0.0
C796 C 0.32756 0.16799 0.44289 0.0
C797 C 0.33911 0.16821 0.43446 0.0
C798 C 0.35378 0.17336 0.44144 0.0
C799 C 0.35679 0.17817 0.45651 0.0
C800 C 0.34527 0.20591 0.47608 0.0
C801 C 0.33148 0.20602 0.47736 0.0
C802 C 0.32784 0.21486 0.46822 0.0
C803 C 0.33789 0.22372 0.45755 0.0
C804 C 0.35156 0.22331 0.45605 0.0
C805 C 0.35525 0.21449 0.46529 0.0
C806 C 0.35298 0.21624 0.50702 0.0
C807 C 0.34143 0.21569 0.51561 0.0
C808 C 0.34209 0.22957 0.52075 0.0
C809 C 0.35428 0.24425 0.51729 0.0
C810 C 0.36577 0.24473 0.50859 0.0
C811 C 0.36512 0.23084 0.5035 0.0
C812 C 0.35619 0.1963 0.5277 0.0
C813 C 0.34423 0.18724 0.53671 0.0
C814 C 0.3448 0.19243 0.5514 0.0
C815 C 0.35722 0.20692 0.55731 0.0
C816 C 0.36954 0.21559 0.54843 0.0
C817 C 0.36907 0.21027 0.53378 0.0
C818 C 0.35456 0.1673 0.51682 0.0
C819 C 0.34166 0.15264 0.51891 0.0
C820 C 0.34248 0.14314 0.52944 0.0
C821 C 0.35617 0.14821 0.53831 0.0
C822 C 0.36916 0.16285 0.53606 0.0
C823 C 0.36836 0.17229 0.52538 0.0
C824 C 0.33584 0.16307 0.41846 0.0
C825 C 0.35502 0.25903 0.52269 0.0
H826 H 0.82035 0.17474 0.39067 0.0
H827 H 0.9462 0.26704 0.51199 0.0
H828 H 0.8078 0.17721 0.4682 0.0
H829 H 0.78548 0.15248 0.45775 0.0
H830 H 0.80497 0.12667 0.4775 0.0
H831 H 0.8273 0.15137 0.4876 0.0
H832 H 0.83726 0.20407 0.45101 0.0
H833 H 0.82983 0.1956 0.42476 0.0
H834 H 0.83319 0.1543 0.43157 0.0
H835 H 0.8408 0.16301 0.45775 0.0
H836 H 0.86969 0.2322 0.46749 0.0
H837 H 0.89002 0.24577 0.45046 0.0
H838 H 0.89328 0.20399 0.44358 0.0
H839 H 0.87301 0.19057 0.46059 0.0
H840 H 0.87016 0.23706 0.5013 0.0
H841 H 0.89578 0.25936 0.50898 0.0
H842 H 0.9158 0.23035 0.49966 0.0
H843 H 0.8901 0.20813 0.49214 0.0
H844 H 0.84805 0.21893 0.52074 0.0
H845 H 0.85891 0.22854 0.54619 0.0
H846 H 0.879 0.19872 0.54505 0.0
H847 H 0.86889 0.19005 0.5194 0.0
H848 H 0.81197 0.18578 0.50563 0.0
H849 H 0.79455 0.17097 0.52461 0.0
H850 H 0.82338 0.15141 0.53554 0.0
H851 H 0.84039 0.16589 0.51634 0.0
O852 O 0.82335 0.1779 0.40107 0.0
O853 O 0.82516 0.15681 0.40517 0.0
O854 O 0.92506 0.27281 0.51374 0.0
O855 O 0.93594 0.25842 0.50905 0.0
C856 C 0.83369 0.18091 0.48311 0.0
C857 C 0.84389 0.18931 0.47221 0.0
C858 C 0.85849 0.20253 0.47647 0.0
C859 C 0.86277 0.20752 0.4916 0.0
C860 C 0.85255 0.19921 0.50246 0.0
C861 C 0.83801 0.18591 0.49824 0.0
C862 C 0.81913 0.16606 0.47866 0.0
C863 C 0.80708 0.16618 0.47046 0.0
C864 C 0.79436 0.15207 0.46455 0.0
C865 C 0.79357 0.13766 0.46671 0.0
C866 C 0.80537 0.1376 0.47548 0.0
C867 C 0.81803 0.15167 0.4814 0.0
C868 C 0.83945 0.1841 0.45628 0.0
C869 C 0.8364 0.19321 0.44679 0.0
C870 C 0.83215 0.18833 0.43181 0.0
C871 C 0.83088 0.17425 0.42607 0.0
C872 C 0.83402 0.16518 0.43563 0.0
C873 C 0.83832 0.1701 0.4506 0.0
C874 C 0.86986 0.2104 0.46524 0.0
C875 C 0.87473 0.22597 0.4622 0.0
C876 C 0.88637 0.2337 0.45253 0.0
C877 C 0.89327 0.22595 0.44569 0.0
C878 C 0.88806 0.21021 0.4485 0.0
C879 C 0.8765 0.20254 0.45823 0.0
C880 C 0.87832 0.22103 0.49619 0.0
C881 C 0.88011 0.23556 0.50098 0.0
C882 C 0.89474 0.24827 0.50533 0.0
C883 C 0.90785 0.24664 0.50493 0.0
C884 C 0.90597 0.23202 0.5001 0.0
C885 C 0.89132 0.21931 0.49579 0.0
C886 C 0.8577 0.20382 0.51831 0.0
C887 C 0.85473 0.21446 0.52609 0.0
C888 C 0.86088 0.21984 0.54065 0.0
C889 C 0.86996 0.21451 0.54771 0.0
C890 C 0.87241 0.2034 0.53992 0.0
C891 C 0.86648 0.19826 0.52532 0.0
C892 C 0.82748 0.17697 0.50971 0.0
C893 C 0.81446 0.17827 0.51214 0.0
C894 C 0.8046 0.16988 0.52303 0.0
C895 C 0.80758 0.16001 0.5316 0.0
C896 C 0.82064 0.15875 0.52903 0.0
C897 C 0.83046 0.16712 0.51817 0.0
C898 C 0.8263 0.16907 0.41016 0.0
C899 C 0.92343 0.26011 0.50952 0.0
H900 H 0.00123 0.51041 0.3179 0.0
H901 H 0.00874 0.40585 0.1959 0.0
H902 H 0.97486 0.50306 0.2424 0.0
H903 H 0.97716 0.52753 0.25283 0.0
H904 H 0.01761 0.55429 0.22872 0.0
H905 H 0.01565 0.52982 0.2188 0.0
H906 H 0.97916 0.47834 0.25885 0.0
H907 H 0.98439 0.48814 0.28489 0.0
H908 H 0.0281 0.52746 0.27454 0.0
H909 H 0.0228 0.51742 0.24857 0.0
H910 H 0.97635 0.44933 0.24179 0.0
H911 H 0.98152 0.43336 0.25843 0.0
H912 H 0.02986 0.46913 0.26248 0.0
H913 H 0.02443 0.48515 0.24618 0.0
H914 H 0.97019 0.44377 0.2066 0.0
H915 H 0.97021 0.41974 0.19877 0.0
H916 H 0.01958 0.44377 0.20862 0.0
H917 H 0.01941 0.46774 0.21625 0.0
H918 H 0.96667 0.46561 0.18726 0.0
H919 H 0.96427 0.45422 0.16199 0.0
H920 H 0.01354 0.47291 0.16402 0.0
H921 H 0.01578 0.48421 0.18913 0.0
H922 H 0.96816 0.49881 0.20423 0.0
H923 H 0.96548 0.5146 0.18538 0.0
H924 H 0.01061 0.52715 0.17124 0.0
H925 H 0.01332 0.51175 0.1903 0.0
O926 O 0.99943 0.5067 0.30757 0.0
O927 O 0.02172 0.52676 0.30163 0.0
O928 O 0.98303 0.40339 0.19398 0.0
O929 O 0.0084 0.41518 0.19892 0.0
C930 C 0.99487 0.49993 0.22519 0.0
C931 C 0.99732 0.4913 0.236 0.0
C932 C 0.99712 0.4773 0.23168 0.0
C933 C 0.99474 0.47204 0.21659 0.0
C934 C 0.99272 0.48085 0.20578 0.0
C935 C 0.99269 0.49474 0.21004 0.0
C936 C 0.99509 0.51465 0.22985 0.0
C937 C 0.98413 0.5142 0.23927 0.0
C938 C 0.98546 0.52813 0.24521 0.0
C939 C 0.99756 0.54271 0.24155 0.0
C940 C 0.0081 0.54316 0.23158 0.0
C941 C 0.00696 0.52922 0.22588 0.0
C942 C 0.00059 0.49717 0.25184 0.0
C943 C 0.98989 0.48902 0.26225 0.0
C944 C 0.99289 0.49467 0.27711 0.0
C945 C 0.00666 0.5086 0.2818 0.0
C946 C 0.01738 0.51671 0.2713 0.0
C947 C 0.01438 0.51102 0.25647 0.0
C948 C 2e-05 0.46836 0.24283 0.0
C949 C 0.988 0.45376 0.24646 0.0
C950 C 0.99101 0.44463 0.25586 0.0
C951 C 0.00613 0.44991 0.2617 0.0
C952 C 0.01806 0.46479 0.25834 0.0
C953 C 0.01501 0.47394 0.249 0.0
C954 C 0.99479 0.45744 0.21201 0.0
C955 C 0.98099 0.4438 0.20703 0.0
C956 C 0.98104 0.4301 0.20259 0.0
C957 C 0.9949 0.42983 0.20309 0.0
C958 C 0.00871 0.44356 0.20811 0.0
C959 C 0.00864 0.45726 0.21251 0.0
C960 C 0.99139 0.47572 0.18994 0.0
C961 C 0.97693 0.46745 0.18209 0.0
C962 C 0.97559 0.46089 0.16775 0.0
C963 C 0.98872 0.46268 0.16105 0.0
C964 C 0.00325 0.47151 0.1688 0.0
C965 C 0.00455 0.47793 0.18314 0.0
C966 C 0.9909 0.50411 0.19857 0.0
C967 C 0.97745 0.50501 0.19705 0.0
C968 C 0.97591 0.51394 0.18625 0.0
C969 C 0.98785 0.52215 0.17685 0.0
C970 C 0.0013 0.52116 0.17844 0.0
C971 C 0.00281 0.51225 0.18921 0.0
C972 C 0.00978 0.51461 0.29757 0.0
C973 C 0.99502 0.41531 0.19838 0.0
H974 H 0.50775 0.51604 0.32041 0.0
H975 H 0.40089 0.37841 0.19883 0.0
H976 H 0.50654 0.51186 0.22831 0.0
H977 H 0.52829 0.53669 0.23911 0.0
H978 H 0.54719 0.5112 0.26055 0.0
H979 H 0.5254 0.48636 0.2496 0.0
H980 H 0.49139 0.5013 0.25683 0.0
H981 H 0.49795 0.51138 0.28278 0.0
H982 H 0.50175 0.47109 0.29335 0.0
H983 H 0.49538 0.46126 0.26731 0.0
H984 H 0.45933 0.4741 0.25263 0.0
H985 H 0.43909 0.46254 0.27 0.0
H986 H 0.44301 0.42088 0.2689 0.0
H987 H 0.46354 0.43274 0.25169 0.0
H988 H 0.44334 0.45393 0.22319 0.0
H989 H 0.41815 0.43109 0.21529 0.0
H990 H 0.43982 0.40323 0.20825 0.0
H991 H 0.4649 0.42613 0.21632 0.0
H992 H 0.46349 0.46914 0.19649 0.0
H993 H 0.45448 0.45949 0.17077 0.0
H994 H 0.48039 0.43535 0.17125 0.0
H995 H 0.48988 0.44574 0.19692 0.0
H996 H 0.49345 0.49502 0.19861 0.0
H997 H 0.51124 0.50951 0.17993 0.0
H998 H 0.54139 0.49272 0.19478 0.0
H999 H 0.5235 0.47835 0.21361 0.0
O1000 O 0.5052 0.51185 0.3102 0.0
O1001 O 0.50686 0.49084 0.31508 0.0
O1002 O 0.4001 0.40241 0.20595 0.0
O1003 O 0.41069 0.38761 0.20207 0.0
C1004 C 0.49999 0.48244 0.23369 0.0
C1005 C 0.48928 0.47463 0.2444 0.0
C1006 C 0.47481 0.4613 0.24005 0.0
C1007 C 0.47117 0.45553 0.22506 0.0
C1008 C 0.48186 0.46334 0.21437 0.0
C1009 C 0.49626 0.47682 0.21866 0.0
C1010 C 0.51444 0.49735 0.23817 0.0
C1011 C 0.51559 0.51167 0.23503 0.0
C1012 C 0.52791 0.5258 0.24131 0.0
C1013 C 0.53933 0.52583 0.25076 0.0
C1014 C 0.5386 0.51151 0.25323 0.0
C1015 C 0.52619 0.49735 0.24702 0.0
C1016 C 0.49306 0.48064 0.26019 0.0
C1017 C 0.49375 0.49473 0.26476 0.0
C1018 C 0.49744 0.50043 0.2796 0.0
C1019 C 0.50041 0.49206 0.29014 0.0
C1020 C 0.49956 0.47784 0.28552 0.0
C1021 C 0.49591 0.47219 0.27066 0.0
C1022 C 0.46291 0.45427 0.25096 0.0
C1023 C 0.45591 0.46254 0.25625 0.0
C1024 C 0.44427 0.45587 0.26606 0.0
C1025 C 0.43941 0.44077 0.27076 0.0
C1026 C 0.44661 0.43259 0.26558 0.0
C1027 C 0.45826 0.43928 0.25572 0.0
C1028 C 0.45589 0.44163 0.2204 0.0
C1029 C 0.44259 0.44285 0.22002 0.0
C1030 C 0.42824 0.4298 0.21547 0.0
C1031 C 0.42697 0.41532 0.21115 0.0
C1032 C 0.44037 0.41419 0.21151 0.0
C1033 C 0.45471 0.42724 0.21611 0.0
C1034 C 0.47729 0.45811 0.1985 0.0
C1035 C 0.46732 0.46189 0.19096 0.0
C1036 C 0.46208 0.45622 0.17631 0.0
C1037 C 0.46652 0.44643 0.16897 0.0
C1038 C 0.47683 0.44295 0.17651 0.0
C1039 C 0.48222 0.4488 0.19117 0.0
C1040 C 0.50712 0.48551 0.20733 0.0
C1041 C 0.50384 0.49438 0.19774 0.0
C1042 C 0.514 0.50261 0.18706 0.0
C1043 C 0.52767 0.50216 0.18578 0.0
C1044 C 0.531 0.49338 0.19554 0.0
C1045 C 0.52079 0.48511 0.20624 0.0
C1046 C 0.50435 0.49815 0.3059 0.0
C1047 C 0.41176 0.40144 0.20624 0.0
H1048 H 0.51261 0.00181 0.33329 0.0
H1049 H 0.39641 0.98751 0.21354 0.0
H1050 H 0.52898 0.02345 0.25725 0.0
H1051 H 0.54962 0.02027 0.26865 0.0
H1052 H 0.52913 0.97381 0.24668 0.0
H1053 H 0.50847 0.9771 0.23535 0.0
H1054 H 0.50077 0.02001 0.27583 0.0
H1055 H 0.50651 0.01669 0.30147 0.0
H1056 H 0.49789 0.97019 0.28837 0.0
H1057 H 0.49197 0.97359 0.26283 0.0
H1058 H 0.47164 0.02012 0.26005 0.0
H1059 H 0.45236 0.0152 0.278 0.0
H1060 H 0.44155 0.96695 0.2785 0.0
H1061 H 0.46097 0.97206 0.26071 0.0
H1062 H 0.47312 0.02614 0.2251 0.0
H1063 H 0.44941 0.02616 0.21792 0.0
H1064 H 0.42275 0.97654 0.22461 0.0
H1065 H 0.44655 0.97665 0.2316 0.0
H1066 H 0.50064 0.02947 0.20679 0.0
H1067 H 0.49417 0.03235 0.18113 0.0
H1068 H 0.45747 0.9838 0.17755 0.0
H1069 H 0.4641 0.98101 0.20305 0.0
H1070 H 0.52962 0.02665 0.2236 0.0
H1071 H 0.5464 0.0292 0.20373 0.0
H1072 H 0.51026 0.98498 0.18268 0.0
H1073 H 0.49411 0.98213 0.20302 0.0
O1074 O 0.51021 0.00285 0.32311 0.0
O1075 O 0.50575 0.97906 0.31578 0.0
O1076 O 0.42021 0.01331 0.21291 0.0
O1077 O 0.40596 0.98783 0.21631 0.0
C1078 C 0.50327 0.00118 0.24113 0.0
C1079 C 0.49275 0.99925 0.25192 0.0
C1080 C 0.47906 0.99926 0.24791 0.0
C1081 C 0.47595 0.00142 0.23315 0.0
C1082 C 0.48643 0.00332 0.22234 0.0
C1083 C 0.50005 0.00305 0.22629 0.0
C1084 C 0.51727 0.0005 0.24549 0.0
C1085 C 0.5292 0.01277 0.2546 0.0
C1086 C 0.54096 0.01093 0.26109 0.0
C1087 C 0.54089 0.99674 0.25864 0.0
C1088 C 0.52936 0.9848 0.24887 0.0
C1089 C 0.51767 0.98671 0.24229 0.0
C1090 C 0.49604 0.99708 0.26749 0.0
C1091 C 0.50008 0.00911 0.27855 0.0
C1092 C 0.50338 0.00718 0.29317 0.0
C1093 C 0.5027 0.99318 0.29697 0.0
C1094 C 0.49856 0.98112 0.28582 0.0
C1095 C 0.49521 0.98305 0.27123 0.0
C1096 C 0.46769 0.99645 0.25911 0.0
C1097 C 0.46512 0.00852 0.2641 0.0
C1098 C 0.45407 0.00566 0.2743 0.0
C1099 C 0.44541 0.99067 0.27969 0.0
C1100 C 0.44817 0.97867 0.27476 0.0
C1101 C 0.45921 0.98154 0.26455 0.0
C1102 C 0.46153 0.00141 0.2289 0.0
C1103 C 0.46214 0.01529 0.22498 0.0
C1104 C 0.44859 0.01527 0.2209 0.0
C1105 C 0.43417 0.00134 0.22071 0.0
C1106 C 0.43364 0.98746 0.22466 0.0
C1107 C 0.4472 0.98749 0.22869 0.0
C1108 C 0.4828 0.00505 0.20675 0.0
C1109 C 0.49126 0.01947 0.2004 0.0
C1110 C 0.48751 0.0211 0.18581 0.0
C1111 C 0.47535 0.00828 0.17734 0.0
C1112 C 0.46703 0.99382 0.18373 0.0
C1113 C 0.47071 0.99223 0.19831 0.0
C1114 C 0.51062 0.00424 0.21473 0.0
C1115 C 0.52548 0.01741 0.2148 0.0
C1116 C 0.53497 0.01893 0.20333 0.0
C1117 C 0.52971 0.00734 0.1915 0.0
C1118 C 0.51487 0.99403 0.19167 0.0
C1119 C 0.50551 0.99244 0.20322 0.0
C1120 C 0.5063 0.99121 0.31249 0.0
C1121 C 0.41974 0.00126 0.2164 0.0
H1122 H 0.50226 0.03546 0.72939 0.0
H1123 H 0.5903 0.9867 0.8349 0.0
H1124 H 0.49699 0.02843 0.80916 0.0
H1125 H 0.47681 0.03147 0.79659 0.0
H1126 H 0.44715 0.98097 0.79227 0.0
H1127 H 0.46736 0.97811 0.80522 0.0
H1128 H 0.52312 0.03172 0.78945 0.0
H1129 H 0.51805 0.03782 0.76469 0.0
H1130 H 0.48152 0.98954 0.7557 0.0
H1131 H 0.48685 0.98357 0.78042 0.0
H1132 H 0.55027 0.02844 0.80662 0.0
H1133 H 0.56979 0.03388 0.78883 0.0
H1134 H 0.53793 0.99073 0.76324 0.0
H1135 H 0.51851 0.98531 0.7812 0.0
H1136 H 0.54783 0.02109 0.83962 0.0
H1137 H 0.57122 0.02056 0.84697 0.0
H1138 H 0.55487 0.97799 0.81883 0.0
H1139 H 0.53145 0.97857 0.81172 0.0
H1140 H 0.51783 0.01689 0.85571 0.0
H1141 H 0.52483 0.01421 0.88107 0.0
H1142 H 0.52247 0.97063 0.86694 0.0
H1143 H 0.51465 0.97303 0.84175 0.0
H1144 H 0.49085 0.01848 0.8385 0.0
H1145 H 0.47287 0.01404 0.85773 0.0
H1146 H 0.4641 0.96668 0.86014 0.0
H1147 H 0.48176 0.97103 0.8406 0.0
O1148 O 0.50427 0.03274 0.73903 0.0
O1149 O 0.48577 0.00773 0.7349 0.0
O1150 O 0.589 0.00903 0.84656 0.0
O1151 O 0.58115 0.98718 0.83221 0.0
C1152 C 0.49699 0.00137 0.81252 0.0
C1153 C 0.50788 0.00374 0.80202 0.0
C1154 C 0.52125 0.00319 0.80615 0.0
C1155 C 0.5237 0.00014 0.8208 0.0
C1156 C 0.5127 0.99755 0.83129 0.0
C1157 C 0.49923 0.99803 0.82711 0.0
C1158 C 0.4836 0.00306 0.80806 0.0
C1159 C 0.48595 0.01806 0.80588 0.0
C1160 C 0.47449 0.01975 0.79855 0.0
C1161 C 0.46049 0.00645 0.7932 0.0
C1162 C 0.45777 0.99144 0.79632 0.0
C1163 C 0.46927 0.98977 0.80373 0.0
C1164 C 0.50536 0.00721 0.7867 0.0
C1165 C 0.51414 0.02246 0.78205 0.0
C1166 C 0.51117 0.02592 0.76793 0.0
C1167 C 0.49934 0.01418 0.75823 0.0
C1168 C 0.4907 0.99886 0.7629 0.0
C1169 C 0.49371 0.99541 0.777 0.0
C1170 C 0.53301 0.00644 0.79525 0.0
C1171 C 0.54755 0.02013 0.79722 0.0
C1172 C 0.55867 0.0232 0.78706 0.0
C1173 C 0.55539 0.01271 0.77465 0.0
C1174 C 0.54073 0.9991 0.77261 0.0
C1175 C 0.52966 0.99596 0.78287 0.0
C1176 C 0.53793 -0.00016 0.82519 0.0
C1177 C 0.5493 0.01163 0.83512 0.0
C1178 C 0.56266 0.01131 0.83926 0.0
C1179 C 0.56491 0.99922 0.83349 0.0
C1180 C 0.5535 0.98746 0.82349 0.0
C1181 C 0.54013 0.98777 0.81939 0.0
C1182 C 0.51578 0.99518 0.84687 0.0
C1183 C 0.51855 0.00662 0.85816 0.0
C1184 C 0.52272 0.00515 0.87261 0.0
C1185 C 0.5244 0.99229 0.87604 0.0
C1186 C 0.52116 0.9806 0.86475 0.0
C1187 C 0.51681 0.98201 0.85032 0.0
C1188 C 0.48755 0.99505 0.83805 0.0
C1189 C 0.48478 0.00704 0.84293 0.0
C1190 C 0.47455 0.0045 0.85393 0.0
C1191 C 0.46711 0.99002 0.86042 0.0
C1192 C 0.46976 0.97798 0.85539 0.0
C1193 C 0.4798 0.98044 0.84423 0.0
C1194 C 0.49601 0.01795 0.74335 0.0
C1195 C 0.57909 0.99883 0.83785 0.0
H1196 H 0.96178 0.47065 0.74294 0.0
H1197 H 0.02562 0.61065 0.8571 0.0
H1198 H 0.97356 0.47074 0.82217 0.0
H1199 H 0.9695 0.44552 0.812 0.0
H1200 H 0.01876 0.46404 0.81581 0.0
H1201 H 0.02264 0.48915 0.82631 0.0
H1202 H 0.97 0.49485 0.80464 0.0
H1203 H 0.96218 0.48396 0.77897 0.0
H1204 H 0.00815 0.49231 0.77323 0.0
H1205 H 0.01586 0.50335 0.79887 0.0
H1206 H 0.97427 0.52362 0.82293 0.0
H1207 H 0.96745 0.53799 0.80574 0.0
H1208 H 0.00924 0.55144 0.78364 0.0
H1209 H 0.01603 0.5371 0.80103 0.0
H1210 H 0.98561 0.53233 0.85564 0.0
H1211 H 0.98879 0.55776 0.86397 0.0
H1212 H 0.03021 0.58128 0.84028 0.0
H1213 H 0.02697 0.55577 0.83218 0.0
H1214 H 0.98875 0.50866 0.87194 0.0
H1215 H 0.99401 0.52182 0.89664 0.0
H1216 H 0.04055 0.5548 0.88589 0.0
H1217 H 0.03486 0.54186 0.86097 0.0
H1218 H 0.98329 0.47555 0.85396 0.0
H1219 H 0.9864 0.45953 0.87199 0.0
H1220 H 0.03495 0.49422 0.87891 0.0
H1221 H 0.03182 0.50974 0.86015 0.0
O1222 O 0.96516 0.47515 0.75301 0.0
O1223 O 0.98892 0.47953 0.75069 0.0
O1224 O 0.0024 0.58775 0.86546 0.0
O1225 O 0.02408 0.60044 0.85394 0.0
C1226 C 0.0008 0.4974 0.82967 0.0
C1227 C 0.99813 0.50619 0.81925 0.0
C1228 C 0.99968 0.52078 0.82381 0.0
C1229 C 0.00436 0.52682 0.83865 0.0
C1230 C 0.00722 0.51814 0.84903 0.0
C1231 C 0.00529 0.50333 0.8446 0.0
C1232 C 0.99839 0.48174 0.82488 0.0
C1233 C 0.98344 0.46926 0.82095 0.0
C1234 C 0.98117 0.45491 0.81506 0.0
C1235 C 0.99382 0.45282 0.81294 0.0
C1236 C 0.00876 0.46522 0.81742 0.0
C1237 C 0.01102 0.47957 0.82336 0.0
C1238 C 0.9935 0.49995 0.80356 0.0
C1239 C 0.97839 0.49444 0.79777 0.0
C1240 C 0.97394 0.48817 0.78313 0.0
C1241 C 0.98454 0.48725 0.77405 0.0
C1242 C 0.9997 0.49284 0.77992 0.0
C1243 C 0.00414 0.49915 0.79455 0.0
C1244 C 0.99565 0.52939 0.81322 0.0
C1245 C 0.98193 0.52968 0.81437 0.0
C1246 C 0.97801 0.53777 0.80449 0.0
C1247 C 0.9878 0.54579 0.79333 0.0
C1248 C 0.00155 0.54545 0.7922 0.0
C1249 C 0.00541 0.53726 0.80205 0.0
C1250 C 0.0061 0.54225 0.84338 0.0
C1251 C 0.99538 0.543 0.85231 0.0
C1252 C 0.99721 0.55753 0.85702 0.0
C1253 C 0.00978 0.57156 0.8528 0.0
C1254 C 0.02042 0.57072 0.84374 0.0
C1255 C 0.01859 0.55617 0.83907 0.0
C1256 C 0.01141 0.52435 0.86471 0.0
C1257 C 0.00017 0.51852 0.87507 0.0
C1258 C 0.00324 0.52606 0.8892 0.0
C1259 C 0.01769 0.53949 0.89326 0.0
C1260 C 0.02921 0.5447 0.88306 0.0
C1261 C 0.02606 0.53724 0.86888 0.0
C1262 C 0.00734 0.49377 0.85569 0.0
C1263 C 0.99462 0.4796 0.85926 0.0
C1264 C 0.99641 0.47056 0.86971 0.0
C1265 C 0.01092 0.47562 0.87701 0.0
C1266 C 0.02365 0.48987 0.87339 0.0
C1267 C 0.02187 0.49883 0.86279 0.0
C1268 C 0.97974 0.48043 0.75854 0.0
C1269 C 0.01181 0.58703 0.85781 0.0
H1270 H 0.49419 0.50793 0.72577 0.0
H1271 H 0.61206 0.59957 0.85341 0.0
H1272 H 0.47671 0.51059 0.80175 0.0
H1273 H 0.45484 0.48646 0.78976 0.0
H1274 H 0.47152 0.45902 0.81114 0.0
H1275 H 0.49337 0.48316 0.82297 0.0
H1276 H 0.50775 0.53677 0.78622 0.0
H1277 H 0.50195 0.52859 0.75979 0.0
H1278 H 0.50331 0.48645 0.76802 0.0
H1279 H 0.50932 0.49488 0.79438 0.0
H1280 H 0.53996 0.56453 0.8051 0.0
H1281 H 0.56068 0.57748 0.78842 0.0
H1282 H 0.56096 0.53411 0.78055 0.0
H1283 H 0.54101 0.52165 0.79796 0.0
H1284 H 0.53611 0.56801 0.83974 0.0
H1285 H 0.5611 0.59035 0.849 0.0
H1286 H 0.58291 0.56327 0.83857 0.0
H1287 H 0.55783 0.54097 0.8295 0.0
H1288 H 0.50719 0.54513 0.85653 0.0
H1289 H 0.51435 0.55379 0.88291 0.0
H1290 H 0.54613 0.53641 0.88287 0.0
H1291 H 0.5388 0.52769 0.8567 0.0
H1292 H 0.47587 0.51456 0.83606 0.0
H1293 H 0.45696 0.49985 0.85402 0.0
H1294 H 0.48816 0.48645 0.87346 0.0
H1295 H 0.50682 0.50083 0.8553 0.0
O1296 O 0.49655 0.51096 0.73625 0.0
O1297 O 0.4973 0.48945 0.74109 0.0
O1298 O 0.59025 0.60433 0.855 0.0
O1299 O 0.60203 0.59093 0.84981 0.0
C1300 C 0.50111 0.51311 0.81846 0.0
C1301 C 0.51228 0.52138 0.80825 0.0
C1302 C 0.52678 0.53435 0.8133 0.0
C1303 C 0.52995 0.53931 0.82852 0.0
C1304 C 0.51873 0.53111 0.8387 0.0
C1305 C 0.50433 0.51794 0.8337 0.0
C1306 C 0.4866 0.49858 0.81318 0.0
C1307 C 0.47544 0.49933 0.80406 0.0
C1308 C 0.46297 0.48557 0.79726 0.0
C1309 C 0.4616 0.47091 0.79943 0.0
C1310 C 0.47242 0.47019 0.80914 0.0
C1311 C 0.4848 0.48392 0.816 0.0
C1312 C 0.50885 0.51637 0.79221 0.0
C1313 C 0.50682 0.52579 0.78227 0.0
C1314 C 0.50348 0.52108 0.76719 0.0
C1315 C 0.50212 0.50684 0.76179 0.0
C1316 C 0.50424 0.49746 0.77181 0.0
C1317 C 0.50762 0.50222 0.78687 0.0
C1318 C 0.53896 0.54215 0.80273 0.0
C1319 C 0.54458 0.55788 0.79981 0.0
C1320 C 0.55632 0.56521 0.79015 0.0
C1321 C 0.56252 0.55685 0.78308 0.0
C1322 C 0.55668 0.54101 0.78594 0.0
C1323 C 0.54512 0.53379 0.79576 0.0
C1324 C 0.54518 0.55291 0.83391 0.0
C1325 C 0.54631 0.56693 0.83948 0.0
C1326 C 0.56059 0.57967 0.84475 0.0
C1327 C 0.57402 0.5786 0.84451 0.0
C1328 C 0.57282 0.5645 0.8389 0.0
C1329 C 0.55852 0.55176 0.83367 0.0
C1330 C 0.52252 0.53584 0.85475 0.0
C1331 C 0.5156 0.54312 0.8623 0.0
C1332 C 0.51975 0.5481 0.8773 0.0
C1333 C 0.53075 0.54572 0.88495 0.0
C1334 C 0.53746 0.53821 0.87734 0.0
C1335 C 0.53338 0.53333 0.86238 0.0
C1336 C 0.49278 0.5089 0.84446 0.0
C1337 C 0.47856 0.50837 0.84415 0.0
C1338 C 0.46779 0.49996 0.85437 0.0
C1339 C 0.47115 0.49211 0.86517 0.0
C1340 C 0.48536 0.49258 0.86538 0.0
C1341 C 0.49602 0.50079 0.85504 0.0
C1342 C 0.49852 0.50184 0.74577 0.0
C1343 C 0.58922 0.59209 0.8501 0.0
H1344 H 0.64467 0.83418 0.65318 0.0
H1345 H 0.66183 0.7327 0.53509 0.0
H1346 H 0.62794 0.83298 0.57505 0.0
H1347 H 0.63165 0.8581 0.58536 0.0
H1348 H 0.67653 0.88233 0.56763 0.0
H1349 H 0.67289 0.85719 0.55773 0.0
H1350 H 0.62897 0.80526 0.59268 0.0
H1351 H 0.6313 0.81376 0.61887 0.0
H1352 H 0.67714 0.85255 0.61349 0.0
H1353 H 0.67472 0.84381 0.58737 0.0
H1354 H 0.62942 0.77591 0.57669 0.0
H1355 H 0.63478 0.75978 0.59296 0.0
H1356 H 0.68213 0.79757 0.60037 0.0
H1357 H 0.67652 0.81363 0.58439 0.0
H1358 H 0.62478 0.77275 0.54043 0.0
H1359 H 0.62459 0.74852 0.53306 0.0
H1360 H 0.67276 0.77054 0.54815 0.0
H1361 H 0.67283 0.79475 0.55528 0.0
H1362 H 0.62441 0.7979 0.52032 0.0
H1363 H 0.62467 0.78887 0.49475 0.0
H1364 H 0.67238 0.80175 0.50312 0.0
H1365 H 0.67209 0.81118 0.52832 0.0
H1366 H 0.6231 0.82587 0.53724 0.0
H1367 H 0.62124 0.84089 0.51724 0.0
H1368 H 0.66915 0.85807 0.50946 0.0
H1369 H 0.67064 0.84252 0.52907 0.0
O1370 O 0.64402 0.83098 0.64281 0.0
O1371 O 0.66751 0.85075 0.63945 0.0
O1372 O 0.63688 0.73142 0.53012 0.0
O1373 O 0.6616 0.74215 0.53785 0.0
C1374 C 0.64893 0.82806 0.56121 0.0
C1375 C 0.65006 0.81885 0.57221 0.0
C1376 C 0.65002 0.8049 0.56804 0.0
C1377 C 0.6488 0.80011 0.5529 0.0
C1378 C 0.64789 0.80942 0.54194 0.0
C1379 C 0.64782 0.82332 0.54608 0.0
C1380 C 0.65013 0.84329 0.56564 0.0
C1381 C 0.63846 0.84376 0.57322 0.0
C1382 C 0.64058 0.8581 0.57905 0.0
C1383 C 0.65443 0.87217 0.57739 0.0
C1384 C 0.66583 0.87167 0.56926 0.0
C1385 C 0.6637 0.85735 0.56345 0.0
C1386 C 0.65163 0.82397 0.58813 0.0
C1387 C 0.63951 0.81556 0.5972 0.0
C1388 C 0.64087 0.82046 0.61215 0.0
C1389 C 0.6544 0.83386 0.61827 0.0
C1390 C 0.66656 0.8422 0.60913 0.0
C1391 C 0.66519 0.83726 0.5942 0.0
C1392 C 0.65258 0.79592 0.5794 0.0
C1393 C 0.64085 0.78076 0.58208 0.0
C1394 C 0.64399 0.77154 0.59126 0.0
C1395 C 0.65892 0.77733 0.59789 0.0
C1396 C 0.67046 0.79279 0.59563 0.0
C1397 C 0.6673 0.802 0.58648 0.0
C1398 C 0.64878 0.78544 0.54847 0.0
C1399 C 0.63528 0.77231 0.54211 0.0
C1400 C 0.6352 0.75849 0.53793 0.0
C1401 C 0.64866 0.75758 0.54005 0.0
C1402 C 0.66219 0.77082 0.54639 0.0
C1403 C 0.66226 0.78465 0.55052 0.0
C1404 C 0.64821 0.80512 0.52614 0.0
C1405 C 0.63495 0.79897 0.51649 0.0
C1406 C 0.6351 0.79373 0.50196 0.0
C1407 C 0.64854 0.79455 0.49689 0.0
C1408 C 0.66191 0.80116 0.50654 0.0
C1409 C 0.66175 0.80643 0.521 0.0
C1410 C 0.64697 0.83309 0.53452 0.0
C1411 C 0.63317 0.83293 0.53121 0.0
C1412 C 0.63218 0.84159 0.51984 0.0
C1413 C 0.64503 0.85066 0.51167 0.0
C1414 C 0.65894 0.85099 0.51529 0.0
C1415 C 0.65986 0.84222 0.52656 0.0
C1416 C 0.65577 0.83909 0.63413 0.0
C1417 C 0.64863 0.74291 0.53569 0.0
H1418 H 0.15435 0.83572 0.65718 0.0
H1419 H 0.07484 0.70376 0.53746 0.0
H1420 H 0.16507 0.84217 0.57765 0.0
H1421 H 0.18724 0.86719 0.58753 0.0
H1422 H 0.21679 0.84741 0.58321 0.0
H1423 H 0.19448 0.82235 0.57326 0.0
H1424 H 0.13727 0.81654 0.59419 0.0
H1425 H 0.14089 0.82549 0.62038 0.0
H1426 H 0.17878 0.81675 0.62579 0.0
H1427 H 0.17491 0.80767 0.59961 0.0
H1428 H 0.11104 0.78659 0.57253 0.0
H1429 H 0.09074 0.77201 0.58923 0.0
H1430 H 0.12183 0.76262 0.61502 0.0
H1431 H 0.142 0.77676 0.5979 0.0
H1432 H 0.11333 0.78217 0.54107 0.0
H1433 H 0.09084 0.75712 0.53184 0.0
H1434 H 0.10962 0.73234 0.55491 0.0
H1435 H 0.13215 0.75748 0.56391 0.0
H1436 H 0.13949 0.80955 0.52853 0.0
H1437 H 0.1321 0.80149 0.50233 0.0
H1438 H 0.14454 0.76568 0.50642 0.0
H1439 H 0.15122 0.77346 0.53289 0.0
H1440 H 0.16842 0.83929 0.54622 0.0
H1441 H 0.18621 0.85558 0.52832 0.0
H1442 H 0.19844 0.81999 0.51942 0.0
H1443 H 0.18118 0.80416 0.53797 0.0
O1444 O 0.1531 0.83211 0.64685 0.0
O1445 O 0.17255 0.8275 0.64902 0.0
O1446 O 0.07453 0.72713 0.52918 0.0
O1447 O 0.08363 0.71383 0.54091 0.0
C1448 C 0.16463 0.81529 0.56924 0.0
C1449 C 0.15357 0.80599 0.57913 0.0
C1450 C 0.14025 0.79177 0.57379 0.0
C1451 C 0.13813 0.78681 0.55859 0.0
C1452 C 0.14904 0.79632 0.54869 0.0
C1453 C 0.16235 0.8105 0.55402 0.0
C1454 C 0.17822 0.8305 0.57479 0.0
C1455 C 0.17635 0.84328 0.57878 0.0
C1456 C 0.18901 0.85755 0.58433 0.0
C1457 C 0.20371 0.85921 0.5861 0.0
C1458 C 0.20556 0.84639 0.58203 0.0
C1459 C 0.19289 0.83215 0.57631 0.0
C1460 C 0.15579 0.81142 0.59503 0.0
C1461 C 0.14629 0.81651 0.60107 0.0
C1462 C 0.14841 0.82164 0.61603 0.0
C1463 C 0.16012 0.82183 0.62519 0.0
C1464 C 0.16965 0.81675 0.61905 0.0
C1465 C 0.16749 0.81159 0.6041 0.0
C1466 C 0.12797 0.78263 0.58391 0.0
C1467 C 0.11341 0.78118 0.58164 0.0
C1468 C 0.10186 0.7729 0.59119 0.0
C1469 C 0.10475 0.7662 0.60337 0.0
C1470 C 0.11937 0.76776 0.60573 0.0
C1471 C 0.13085 0.77579 0.59598 0.0
C1472 C 0.12442 0.77162 0.55304 0.0
C1473 C 0.11262 0.77132 0.54401 0.0
C1474 C 0.09976 0.75699 0.53881 0.0
C1475 C 0.09844 0.74272 0.54262 0.0
C1476 C 0.11027 0.7431 0.55175 0.0
C1477 C 0.12314 0.75744 0.55691 0.0
C1478 C 0.14584 0.79206 0.53256 0.0
C1479 C 0.14073 0.80005 0.5237 0.0
C1480 C 0.13661 0.79547 0.50869 0.0
C1481 C 0.13771 0.78291 0.50218 0.0
C1482 C 0.14329 0.77522 0.51108 0.0
C1483 C 0.14723 0.7797 0.52617 0.0
C1484 C 0.17359 0.8206 0.54348 0.0
C1485 C 0.17514 0.83514 0.54058 0.0
C1486 C 0.18517 0.84434 0.53019 0.0
C1487 C 0.19371 0.83907 0.52233 0.0
C1488 C 0.19221 0.82451 0.52538 0.0
C1489 C 0.18227 0.8154 0.53589 0.0
C1490 C 0.16235 0.8273 0.64107 0.0
C1491 C 0.0848 0.72747 0.53714 0.0
H1492 H 0.19186 0.3513 0.66871 0.0
H1493 H 0.06933 0.32721 0.54894 0.0
H1494 H 0.203 0.37282 0.59384 0.0
H1495 H 0.22497 0.37254 0.60612 0.0
H1496 H 0.21063 0.3276 0.58318 0.0
H1497 H 0.18862 0.3279 0.57106 0.0
H1498 H 0.17446 0.36634 0.61199 0.0
H1499 H 0.18186 0.36403 0.6374 0.0
H1500 H 0.17849 0.31984 0.62383 0.0
H1501 H 0.17085 0.32215 0.59855 0.0
H1502 H 0.14505 0.36485 0.59491 0.0
H1503 H 0.12547 0.35927 0.61269 0.0
H1504 H 0.11808 0.31236 0.61523 0.0
H1505 H 0.13778 0.31814 0.59759 0.0
H1506 H 0.14605 0.36965 0.55956 0.0
H1507 H 0.12156 0.3679 0.55208 0.0
H1508 H 0.09725 0.31875 0.56096 0.0
H1509 H 0.12183 0.32062 0.56825 0.0
H1510 H 0.17354 0.37362 0.54102 0.0
H1511 H 0.16638 0.37431 0.51502 0.0
H1512 H 0.13221 0.32489 0.51379 0.0
H1513 H 0.13944 0.32433 0.53975 0.0
H1514 H 0.20145 0.37584 0.55491 0.0
H1515 H 0.2164 0.37842 0.53338 0.0
H1516 H 0.18743 0.32857 0.52189 0.0
H1517 H 0.17231 0.3263 0.54308 0.0
O1518 O 0.18864 0.35185 0.65866 0.0
O1519 O 0.18715 0.3294 0.65099 0.0
O1520 O 0.09223 0.35351 0.54733 0.0
O1521 O 0.07917 0.32823 0.55183 0.0
C1522 C 0.1792 0.34888 0.57705 0.0
C1523 C 0.16848 0.34625 0.58785 0.0
C1524 C 0.15422 0.34505 0.58376 0.0
C1525 C 0.15062 0.34639 0.56886 0.0
C1526 C 0.16113 0.34853 0.55804 0.0
C1527 C 0.17537 0.34966 0.56212 0.0
C1528 C 0.19423 0.35037 0.5816 0.0
C1529 C 0.20487 0.36313 0.59117 0.0
C1530 C 0.21732 0.36291 0.59824 0.0
C1531 C 0.2194 0.34998 0.5957 0.0
C1532 C 0.20937 0.33777 0.58524 0.0
C1533 C 0.19683 0.33794 0.57828 0.0
C1534 C 0.17216 0.34444 0.60343 0.0
C1535 C 0.17518 0.3561 0.61457 0.0
C1536 C 0.17947 0.35478 0.62906 0.0
C1537 C 0.18083 0.34178 0.63264 0.0
C1538 C 0.17759 0.33002 0.62145 0.0
C1539 C 0.17323 0.33131 0.607 0.0
C1540 C 0.14282 0.34191 0.59499 0.0
C1541 C 0.13923 0.35341 0.59938 0.0
C1542 C 0.128 0.35016 0.60947 0.0
C1543 C 0.12019 0.33535 0.61536 0.0
C1544 C 0.12402 0.32394 0.61107 0.0
C1545 C 0.13522 0.3272 0.60096 0.0
C1546 C 0.1357 0.34528 0.56449 0.0
C1547 C 0.13542 0.35852 0.55986 0.0
C1548 C 0.12142 0.35748 0.55561 0.0
C1549 C 0.10744 0.34318 0.55594 0.0
C1550 C 0.10779 0.32994 0.5606 0.0
C1551 C 0.12181 0.33099 0.56481 0.0
C1552 C 0.15694 0.34895 0.54225 0.0
C1553 C 0.16458 0.36294 0.53508 0.0
C1554 C 0.16053 0.3633 0.52024 0.0
C1555 C 0.14871 0.34966 0.51238 0.0
C1556 C 0.14122 0.33562 0.5196 0.0
C1557 C 0.14533 0.33527 0.5344 0.0
C1558 C 0.18582 0.3509 0.55049 0.0
C1559 C 0.19853 0.36548 0.54783 0.0
C1560 C 0.20705 0.3669 0.53554 0.0
C1561 C 0.20301 0.35373 0.52579 0.0
C1562 C 0.19065 0.33902 0.52896 0.0
C1563 C 0.18211 0.33765 0.54114 0.0
C1564 C 0.18571 0.34057 0.64796 0.0
C1565 C 0.09253 0.34202 0.55143 0.0
H1566 H 0.01576 0.40821 0.04272 0.0
H1567 H 0.01203 0.42284 0.06291 0.0
H1568 H 0.97234 0.38014 0.07477 0.0
H1569 H 0.97578 0.36547 0.05424 0.0
H1570 H 0.96709 0.40409 0.07717 0.0
H1571 H 0.00704 0.3947 0.09417 0.0
H1572 H 0.03133 0.39441 0.09306 0.0
H1573 H 0.05666 0.44467 0.09219 0.0
H1574 H 0.03244 0.44524 0.09312 0.0
H1575 H 0.96782 0.43229 0.15163 0.0
H1576 H 0.96759 0.41792 0.12889 0.0
H1577 H 0.00642 0.46013 0.11502 0.0
H1578 H 0.00674 0.47454 0.13778 0.0
H1579 H 0.01143 0.4359 0.11368 0.0
H1580 H 0.96999 0.44439 0.09781 0.0
H1581 H 0.9451 0.44329 0.09993 0.0
H1582 H 0.9219 0.39301 0.10011 0.0
H1583 H 0.9467 0.39383 0.09819 0.0
C1584 C 0.00618 0.40195 0.04958 0.0
C1585 C 0.99613 0.38568 0.047 0.0
C1586 C 0.00409 0.41031 0.06114 0.0
C1587 C 0.99207 0.40254 0.07052 0.0
C1588 C 0.98171 0.38636 0.06769 0.0
C1589 C 0.98372 0.378 0.05601 0.0
C1590 C 0.99069 0.41124 0.08354 0.0
C1591 C 0.97672 0.41091 0.08525 0.0
C1592 C 0.0033 0.42025 0.09402 0.0
C1593 C 0.01791 0.42 0.09358 0.0
C1594 C 0.01778 0.40569 0.09364 0.0
C1595 C 0.03154 0.40547 0.09306 0.0
C1596 C 0.04554 0.41951 0.09251 0.0
C1597 C 0.0458 0.4338 0.0926 0.0
C1598 C 0.03206 0.43408 0.09317 0.0
C1599 C 0.97607 0.43859 0.14356 0.0
C1600 C 0.98732 0.45452 0.14648 0.0
C1601 C 0.97594 0.43036 0.13058 0.0
C1602 C 0.98695 0.43797 0.12023 0.0
C1603 C 0.99785 0.45402 0.12289 0.0
C1604 C 0.99803 0.46223 0.13588 0.0
C1605 C 0.9879 0.42899 0.1072 0.0
C1606 C 0.00181 0.42917 0.10555 0.0
C1607 C 0.97515 0.41969 0.09695 0.0
C1608 C 0.96023 0.41919 0.09798 0.0
C1609 C 0.9596 0.43311 0.09841 0.0
C1610 C 0.9455 0.43253 0.09955 0.0
C1611 C 0.93193 0.41809 0.10019 0.0
C1612 C 0.93243 0.40419 0.09963 0.0
C1613 C 0.94649 0.4047 0.0985 0.0
H1614 H 0.92103 0.41767 0.10108 0.0
H1615 H 0.05618 0.41931 0.09206 0.0
H1616 H 0.63064 0.59274 0.09695 0.0
H1617 H 0.6174 0.57612 0.11709 0.0
H1618 H 0.57345 0.56093 0.0937 0.0
H1619 H 0.58653 0.57775 0.07391 0.0
H1620 H 0.5729 0.56956 0.12111 0.0
H1621 H 0.58977 0.53692 0.09668 0.0
H1622 H 0.60892 0.53101 0.08673 0.0
H1623 H 0.63219 0.541 0.12993 0.0
H1624 H 0.61328 0.54717 0.1401 0.0
H1625 H 0.52023 0.50442 0.15705 0.0
H1626 H 0.53755 0.5204 0.13871 0.0
H1627 H 0.57664 0.53551 0.16995 0.0
H1628 H 0.55931 0.51966 0.18852 0.0
H1629 H 0.58195 0.52858 0.14093 0.0
H1630 H 0.56392 0.55961 0.16545 0.0
H1631 H 0.54433 0.56491 0.17527 0.0
H1632 H 0.52303 0.55768 0.13147 0.0
H1633 H 0.54236 0.55209 0.12141 0.0
C1634 C 0.61816 0.58571 0.09608 0.0
C1635 C 0.6096 0.58658 0.08392 0.0
C1636 C 0.61061 0.57619 0.10756 0.0
C1637 C 0.59441 0.56724 0.10691 0.0
C1638 C 0.58594 0.5678 0.09452 0.0
C1639 C 0.59344 0.57739 0.08318 0.0
C1640 C 0.58605 0.55787 0.11934 0.0
C1641 C 0.5748 0.5605 0.12531 0.0
C1642 C 0.58887 0.5464 0.12522 0.0
C1643 C 0.60022 0.54268 0.11911 0.0
C1644 C 0.59905 0.53798 0.10403 0.0
C1645 C 0.60984 0.53456 0.09836 0.0
C1646 C 0.62179 0.53568 0.10768 0.0
C1647 C 0.62295 0.54017 0.12271 0.0
C1648 C 0.61219 0.54362 0.12844 0.0
C1649 C 0.53251 0.51117 0.16006 0.0
C1650 C 0.53837 0.51093 0.17432 0.0
C1651 C 0.54239 0.52023 0.14954 0.0
C1652 C 0.55835 0.52928 0.15305 0.0
C1653 C 0.56435 0.5286 0.16704 0.0
C1654 C 0.55444 0.51953 0.17762 0.0
C1655 C 0.56854 0.54 0.14226 0.0
C1656 C 0.58016 0.53771 0.13673 0.0
C1657 C 0.56607 0.55178 0.13671 0.0
C1658 C 0.55452 0.55531 0.1427 0.0
C1659 C 0.55499 0.55904 0.15793 0.0
C1660 C 0.54395 0.56211 0.16353 0.0
C1661 C 0.53242 0.5616 0.15401 0.0
C1662 C 0.53195 0.55806 0.13884 0.0
C1663 C 0.54296 0.55495 0.13318 0.0
H1664 H 0.52388 0.56398 0.15837 0.0
H1665 H 0.63014 0.53302 0.10327 0.0
H1666 H 0.41651 0.02867 0.05683 0.0
H1667 H 0.43166 0.0318 0.07988 0.0
H1668 H 0.4282 0.98709 0.06921 0.0
H1669 H 0.41286 0.98377 0.04641 0.0
H1670 H 0.41983 0.98841 0.09627 0.0
H1671 H 0.46249 0.02236 0.06817 0.0
H1672 H 0.47713 0.04455 0.05277 0.0
H1673 H 0.47936 0.07681 0.08739 0.0
H1674 H 0.46454 0.05477 0.10293 0.0
H1675 H 0.46877 0.98816 0.15304 0.0
H1676 H 0.4591 0.98954 0.12832 0.0
H1677 H 0.46225 0.03343 0.14224 0.0
H1678 H 0.47203 0.03216 0.16702 0.0
H1679 H 0.47098 0.03361 0.11393 0.0
H1680 H 0.42833 7e-05 0.14182 0.0
H1681 H 0.41354 0.97811 0.15742 0.0
H1682 H 0.41084 0.94532 0.12312 0.0
H1683 H 0.42583 0.96712 0.10739 0.0
C1684 C 0.41921 0.01964 0.05931 0.0
C1685 C 0.41344 0.00594 0.04988 0.0
C1686 C 0.4279 0.02146 0.07246 0.0
C1687 C 0.43109 0.00968 0.07627 0.0
C1688 C 0.42583 0.99629 0.06654 0.0
C1689 C 0.41709 0.99443 0.05349 0.0
C1690 C 0.43884 0.01062 0.09085 0.0
C1691 C 0.43113 0.99819 0.1 0.0
C1692 C 0.45333 0.02364 0.09597 0.0
C1693 C 0.46227 0.0369 0.08665 0.0
C1694 C 0.46599 0.03417 0.07245 0.0
C1695 C 0.47435 0.04672 0.06371 0.0
C1696 C 0.47914 0.06208 0.06908 0.0
C1697 C 0.47562 0.06491 0.08323 0.0
C1698 C 0.46726 0.05239 0.09202 0.0
C1699 C 0.46746 0.99814 0.15081 0.0
C1700 C 0.47097 0.00995 0.162 0.0
C1701 C 0.46198 0.99893 0.13669 0.0
C1702 C 0.45971 0.01146 0.13353 0.0
C1703 C 0.46389 0.02366 0.14446 0.0
C1704 C 0.46948 0.02292 0.15859 0.0
C1705 C 0.45208 0.01125 0.11912 0.0
C1706 C 0.45972 0.02383 0.1101 0.0
C1707 C 0.43746 0.9984 0.11409 0.0
C1708 C 0.42833 0.98525 0.12349 0.0
C1709 C 0.42468 0.98819 0.13764 0.0
C1710 C 0.41625 0.97577 0.14651 0.0
C1711 C 0.41128 0.96033 0.14128 0.0
C1712 C 0.41471 0.95729 0.12716 0.0
C1713 C 0.42317 0.96967 0.11827 0.0
H1714 H 0.40475 0.95073 0.14816 0.0
H1715 H 0.48561 0.07178 0.06229 0.0
H1716 H 0.3782 0.98735 0.96146 0.0
H1717 H 0.38971 0.98584 0.93858 0.0
H1718 H 0.42158 0.97689 0.96353 0.0
H1719 H 0.41046 0.97892 0.98642 0.0
H1720 H 0.43661 0.99909 0.94622 0.0
H1721 H 0.39089 0.94815 0.93953 0.0
H1722 H 0.36292 0.92921 0.93778 0.0
H1723 H 0.35678 0.95204 0.901 0.0
H1724 H 0.38471 0.97125 0.90265 0.0
H1725 H 0.46804 0.97827 0.88686 0.0
H1726 H 0.45267 0.97583 0.90798 0.0
H1727 H 0.42849 0.99422 0.88325 0.0
H1728 H 0.44394 0.99679 0.86206 0.0
H1729 H 0.40906 0.96738 0.89962 0.0
H1730 H 0.45511 0.01786 0.90624 0.0
H1731 H 0.48311 0.03656 0.90815 0.0
H1732 H 0.48849 0.01427 0.94576 0.0
H1733 H 0.4606 0.99509 0.94377 0.0
C1734 C 0.38748 0.98479 0.96201 0.0
C1735 C 0.39347 0.9833 0.97571 0.0
C1736 C 0.39403 0.98388 0.94892 0.0
C1737 C 0.40649 0.98118 0.94929 0.0
C1738 C 0.41203 0.97905 0.96295 0.0
C1739 C 0.40563 0.98016 0.97602 0.0
C1740 C 0.41455 0.98171 0.9357 0.0
C1741 C 0.43058 0.99193 0.93613 0.0
C1742 C 0.40666 0.97278 0.92234 0.0
C1743 C 0.38987 0.96123 0.92131 0.0
C1744 C 0.38356 0.94921 0.93114 0.0
C1745 C 0.36772 0.93841 0.93015 0.0
C1746 C 0.35808 0.93944 0.91931 0.0
C1747 C 0.36426 0.95126 0.9094 0.0
C1748 C 0.3801 0.9621 0.91035 0.0
C1749 C 0.45932 0.98161 0.88587 0.0
C1750 C 0.45718 0.98774 0.87285 0.0
C1751 C 0.4506 0.98027 0.89794 0.0
C1752 C 0.4395 0.9849 0.89717 0.0
C1753 C 0.437 0.99057 0.88403 0.0
C1754 C 0.44587 0.99213 0.87201 0.0
C1755 C 0.43106 0.98448 0.91035 0.0
C1756 C 0.41501 0.97442 0.90978 0.0
C1757 C 0.43892 0.99348 0.92364 0.0
C1758 C 0.45577 0.00488 0.92472 0.0
C1759 C 0.46229 0.01678 0.91478 0.0
C1760 C 0.47815 0.02748 0.91588 0.0
C1761 C 0.4876 0.02655 0.927 0.0
C1762 C 0.4812 0.01491 0.93707 0.0
C1763 C 0.46536 0.0041 0.93594 0.0
H1764 H 0.49987 0.03489 0.92787 0.0
H1765 H 0.34581 0.93107 0.91856 0.0
H1766 H 0.03438 0.39493 0.97537 0.0
H1767 H 0.03717 0.41135 0.95476 0.0
H1768 H 0.99036 0.40109 0.95824 0.0
H1769 H 0.98744 0.38458 0.97854 0.0
H1770 H 0.99592 0.39871 0.93009 0.0
H1771 H 0.02142 0.43606 0.97229 0.0
H1772 H 0.04058 0.44894 0.99353 0.0
H1773 H 0.07735 0.46222 0.96453 0.0
H1774 H 0.05838 0.44923 0.94314 0.0
H1775 H 0.99077 0.45934 0.89776 0.0
H1776 H 0.99292 0.44265 0.91565 0.0
H1777 H 0.03729 0.454 0.90061 0.0
H1778 H 0.03504 0.47036 0.8822 0.0
H1779 H 0.03583 0.45529 0.93237 0.0
H1780 H 0.00963 0.4202 0.8897 0.0
H1781 H 0.98999 0.40797 0.86878 0.0
H1782 H 0.95404 0.39077 0.89905 0.0
H1783 H 0.97347 0.40311 0.92015 0.0
C1784 C 0.0247 0.39618 0.97169 0.0
C1785 C 0.0107 0.3885 0.97857 0.0
C1786 C 0.02632 0.40559 0.95997 0.0
C1787 C 0.014 0.40752 0.95502 0.0
C1788 C 0.0 0.39973 0.96183 0.0
C1789 C 0.99837 0.39034 0.97348 0.0
C1790 C 0.01548 0.41765 0.94281 0.0
C1791 C 0.00461 0.41109 0.93063 0.0
C1792 C 0.02709 0.43371 0.94331 0.0
C1793 C 0.03849 0.44151 0.95615 0.0
C1794 C 0.03359 0.44161 0.97047 0.0
C1795 C 0.04442 0.44895 0.98253 0.0
C1796 C 0.06017 0.45634 0.98039 0.0
C1797 C 0.06514 0.45645 0.96618 0.0
C1798 C 0.05436 0.44911 0.95408 0.0
C1799 C 0.00093 0.45818 0.89808 0.0
C1800 C 0.01265 0.46607 0.88839 0.0
C1801 C 0.00217 0.44871 0.9084 0.0
C1802 C 0.01519 0.447 0.90933 0.0
C1803 C 0.02715 0.45519 0.90003 0.0
C1804 C 0.02586 0.46458 0.88957 0.0
C1805 C 0.01602 0.4364 0.91992 0.0
C1806 C 0.02731 0.44285 0.93174 0.0
C1807 C 0.00475 0.42025 0.91916 0.0
C1808 C 0.99301 0.41269 0.90651 0.0
C1809 C 0.99753 0.41391 0.89189 0.0
C1810 C 0.98644 0.40694 0.88 0.0
C1811 C 0.97077 0.39862 0.88258 0.0
C1812 C 0.96618 0.39722 0.89707 0.0
C1813 C 0.97723 0.40419 0.909 0.0
H1814 H 0.9622 0.39323 0.87336 0.0
H1815 H 0.06854 0.46202 0.98974 0.0
H1816 H 0.59974 0.62175 0.01001 0.0
H1817 H 0.58407 0.61144 0.98652 0.0
H1818 H 0.58214 0.56713 0.99081 0.0
H1819 H 0.59801 0.57745 0.01407 0.0
H1820 H 0.5899 0.57698 0.96415 0.0
H1821 H 0.55066 0.57175 0.99617 0.0
H1822 H 0.53895 0.58105 0.01444 0.0
H1823 H 0.53955 0.61388 0.98445 0.0
H1824 H 0.55146 0.60491 0.96608 0.0
H1825 H 0.53489 0.53019 0.90724 0.0
H1826 H 0.54624 0.5408 0.93233 0.0
H1827 H 0.54936 0.58483 0.92333 0.0
H1828 H 0.53799 0.57427 0.89814 0.0
H1829 H 0.54105 0.57635 0.95196 0.0
H1830 H 0.58012 0.58168 0.92006 0.0
H1831 H 0.59167 0.57242 0.90159 0.0
H1832 H 0.59163 0.53976 0.93146 0.0
H1833 H 0.57983 0.54865 0.95003 0.0
C1834 C 0.59585 0.60977 0.00599 0.0
C1835 C 0.60013 0.60042 0.01384 0.0
C1836 C 0.58684 0.60387 0.9926 0.0
C1837 C 0.58185 0.58847 0.98695 0.0
C1838 C 0.58589 0.57905 0.99495 0.0
C1839 C 0.59494 0.58496 0.00825 0.0
C1840 C 0.57312 0.58236 0.97233 0.0
C1841 C 0.57911 0.57665 0.96159 0.0
C1842 C 0.5593 0.5824 0.96879 0.0
C1843 C 0.5521 0.58777 0.97981 0.0
C1844 C 0.54841 0.58104 0.99352 0.0
C1845 C 0.54172 0.58623 0.00388 0.0
C1846 C 0.53855 0.59808 0.00062 0.0
C1847 C 0.54203 0.60472 0.98697 0.0
C1848 C 0.54874 0.59958 0.97657 0.0
C1849 C 0.53789 0.5421 0.91064 0.0
C1850 C 0.53575 0.55148 0.90068 0.0
C1851 C 0.54433 0.54812 0.92497 0.0
C1852 C 0.54887 0.56368 0.92958 0.0
C1853 C 0.54595 0.5728 0.91996 0.0
C1854 C 0.53944 0.56675 0.9056 0.0
C1855 C 0.5577 0.5707 0.944 0.0
C1856 C 0.55182 0.57667 0.95461 0.0
C1857 C 0.57168 0.57097 0.94745 0.0
C1858 C 0.57897 0.56574 0.93638 0.0
C1859 C 0.58248 0.57245 0.92265 0.0
C1860 C 0.58908 0.56728 0.91217 0.0
C1861 C 0.59235 0.55549 0.91534 0.0
C1862 C 0.58907 0.54888 0.92902 0.0
C1863 C 0.58243 0.55399 0.93953 0.0
H1864 H 0.59746 0.55149 0.90721 0.0
H1865 H 0.53337 0.60208 0.00866 0.0
H1866 H 0.99377 0.5912 0.01329 0.0
H1867 H 5e-05 0.57845 0.99321 0.0
H1868 H 0.03358 0.62382 0.97936 0.0
H1869 H 0.02753 0.63669 0.99959 0.0
H1870 H 0.01131 0.60288 0.9567 0.0
H1871 H 0.04678 0.60344 0.99391 0.0
H1872 H 0.05465 0.59872 0.01837 0.0
H1873 H 0.02298 0.54921 0.01028 0.0
H1874 H 0.01474 0.55365 0.98585 0.0
H1875 H 0.03371 0.5715 0.89858 0.0
H1876 H 0.0357 0.58669 0.92126 0.0
H1877 H 0.00847 0.54383 0.94271 0.0
H1878 H 0.00727 0.52849 0.92032 0.0
H1879 H 0.02984 0.56516 0.96187 0.0
H1880 H 0.99231 0.56384 0.92668 0.0
H1881 H 0.98246 0.5674 0.90269 0.0
H1882 H 0.01548 0.61683 0.90746 0.0
H1883 H 0.0257 0.61353 0.93138 0.0
C1884 C 0.00264 0.59846 0.00609 0.0
C1885 C 0.01015 0.61492 0.00796 0.0
C1886 C 0.00624 0.59116 0.99467 0.0
C1887 C 0.01731 0.60021 0.98486 0.0
C1888 C 0.02504 0.61666 0.98687 0.0
C1889 C 0.02161 0.62397 0.99843 0.0
C1890 C 0.01991 0.59244 0.9719 0.0
C1891 C 0.01567 0.59488 0.95778 0.0
C1892 C 0.02509 0.58162 0.97343 0.0
C1893 C 0.03005 0.5789 0.9881 0.0
C1894 C 0.04139 0.59156 0.9974 0.0
C1895 C 0.04594 0.58893 0.01124 0.0
C1896 C 0.0393 0.57368 0.01589 0.0
C1897 C 0.02811 0.56102 0.00667 0.0
C1898 C 0.02351 0.56358 0.99282 0.0
C1899 C 0.02851 0.56525 0.90822 0.0
C1900 C 0.02022 0.54872 0.90755 0.0
C1901 C 0.02949 0.57399 0.92115 0.0
C1902 C 0.02193 0.5664 0.93358 0.0
C1903 C 0.0143 0.54994 0.93321 0.0
C1904 C 0.01348 0.54118 0.92034 0.0
C1905 C 0.02121 0.57556 0.94662 0.0
C1906 C 0.02569 0.57332 0.96075 0.0
C1907 C 0.01598 0.58639 0.94515 0.0
C1908 C 0.00988 0.58841 0.93075 0.0
C1909 C 0.99756 0.57545 0.92255 0.0
C1910 C 0.9919 0.57742 0.90898 0.0
C1911 C 0.99835 0.59233 0.90355 0.0
C1912 C 0.0105 0.60529 0.91167 0.0
C1913 C 0.01623 0.60338 0.92524 0.0
H1914 H 0.9939 0.59385 0.89307 0.0
H1915 H 0.04284 0.57167 0.02661 0.0
H1916 H 0.36781 0.39911 0.95144 0.0
H1917 H 0.38061 0.41539 0.93102 0.0
H1918 H 0.42092 0.44478 0.96033 0.0
H1919 H 0.40817 0.42871 0.98075 0.0
H1920 H 0.41509 0.46218 0.94186 0.0
H1921 H 0.41941 0.41583 0.93815 0.0
H1922 H 0.40973 0.38735 0.93635 0.0
H1923 H 0.38371 0.38213 0.89571 0.0
H1924 H 0.39309 0.4106 0.89737 0.0
H1925 H 0.47694 0.49359 0.89499 0.0
H1926 H 0.4587 0.47901 0.91338 0.0
H1927 H 0.42193 0.45669 0.87897 0.0
H1928 H 0.44019 0.47127 0.86046 0.0
H1929 H 0.42318 0.43566 0.89831 0.0
H1930 H 0.42235 0.48372 0.9012 0.0
H1931 H 0.43366 0.51246 0.90352 0.0
H1932 H 0.45472 0.5147 0.94635 0.0
H1933 H 0.44373 0.48597 0.9442 0.0
C1934 C 0.37931 0.40919 0.95356 0.0
C1935 C 0.38704 0.41259 0.96766 0.0
C1936 C 0.38662 0.41843 0.94188 0.0
C1937 C 0.40179 0.43118 0.94412 0.0
C1938 C 0.40922 0.43501 0.95836 0.0
C1939 C 0.40194 0.42578 0.97001 0.0
C1940 C 0.41033 0.44001 0.93154 0.0
C1941 C 0.4169 0.4564 0.93236 0.0
C1942 C 0.41248 0.43242 0.91902 0.0
C1943 C 0.4068 0.41531 0.91798 0.0
C1944 C 0.41152 0.40859 0.9289 0.0
C1945 C 0.40611 0.39246 0.92789 0.0
C1946 C 0.39609 0.38293 0.91594 0.0
C1947 C 0.39146 0.38953 0.90497 0.0
C1948 C 0.39682 0.40566 0.90593 0.0
C1949 C 0.46497 0.48557 0.89135 0.0
C1950 C 0.45997 0.48354 0.87631 0.0
C1951 C 0.45455 0.47733 0.90186 0.0
C1952 C 0.43895 0.46687 0.89754 0.0
C1953 C 0.43391 0.46476 0.88252 0.0
C1954 C 0.44431 0.47314 0.872 0.0
C1955 C 0.42808 0.45784 0.90873 0.0
C1956 C 0.42112 0.44142 0.90767 0.0
C1957 C 0.42573 0.46541 0.9211 0.0
C1958 C 0.4323 0.48269 0.92248 0.0
C1959 C 0.42949 0.49035 0.91107 0.0
C1960 C 0.43583 0.50664 0.91236 0.0
C1961 C 0.44493 0.5154 0.92506 0.0
C1962 C 0.44768 0.50789 0.93651 0.0
C1963 C 0.44138 0.4916 0.93527 0.0
H1964 H 0.44983 0.52802 0.92604 0.0
H1965 H 0.39197 0.37046 0.91516 0.0
H1966 H 0.57959 0.97208 0.00072 0.0
H1967 H 0.56347 0.96825 0.9782 0.0
H1968 H 0.58497 0.01854 0.9764 0.0
H1969 H 0.60058 0.02236 0.99912 0.0
H1970 H 0.55585 0.006 0.96968 0.0
H1971 H 0.59516 0.99496 0.95453 0.0
H1972 H 0.61001 0.98128 0.95495 0.0
H1973 H 0.56851 0.93722 0.94349 0.0
H1974 H 0.55339 0.95063 0.94318 0.0
H1975 H 0.54686 0.01645 0.89422 0.0
H1976 H 0.55678 0.01522 0.91878 0.0
H1977 H 0.52571 0.96511 0.9165 0.0
H1978 H 0.51534 0.96626 0.89197 0.0
H1979 H 0.55618 0.97427 0.92595 0.0
H1980 H 0.51786 0.98743 0.9378 0.0
H1981 H 0.50451 0.00254 0.93634 0.0
H1982 H 0.54592 0.04438 0.9533 0.0
H1983 H 0.55964 0.02958 0.95455 0.0
C1984 C 0.58078 0.98228 0.99554 0.0
C1985 C 0.59136 0.99751 0.00163 0.0
C1986 C 0.57162 0.9801 0.98263 0.0
C1987 C 0.57315 0.99311 0.97545 0.0
C1988 C 0.58354 0.0083 0.98172 0.0
C1989 C 0.5925 0.01048 0.9947 0.0
C1990 C 0.56419 0.9911 0.96128 0.0
C1991 C 0.55602 0.99914 0.9601 0.0
C1992 C 0.56405 0.98183 0.94886 0.0
C1993 C 0.57313 0.97377 0.94901 0.0
C1994 C 0.58919 0.98234 0.95221 0.0
C1995 C 0.59766 0.97464 0.95241 0.0
C1996 C 0.5902 0.95838 0.94929 0.0
C1997 C 0.57426 0.9498 0.94593 0.0
C1998 C 0.56574 0.95745 0.94573 0.0
C1999 C 0.54189 0.00519 0.89901 0.0
C2000 C 0.53019 0.99147 0.89114 0.0
C2001 C 0.54766 0.0045 0.91303 0.0
C2002 C 0.54188 0.99009 0.9195 0.0
C2003 C 0.53031 0.97634 0.91168 0.0
C2004 C 0.52444 0.97702 0.89765 0.0
C2005 C 0.54824 0.9895 0.93431 0.0
C2006 C 0.55586 0.98095 0.93561 0.0
C2007 C 0.54809 0.9985 0.94679 0.0
C2008 C 0.53981 0.0074 0.94618 0.0
C2009 C 0.52416 -0.00012 0.94111 0.0
C2010 C 0.51652 0.00839 0.94034 0.0
C2011 C 0.52436 0.02442 0.94473 0.0
C2012 C 0.53986 0.03196 0.94991 0.0
C2013 C 0.54758 0.02351 0.95065 0.0
H2014 H 0.51845 0.031 0.94416 0.0
H2015 H 0.59677 0.95244 0.94945 0.0
H2016 H 0.58483 0.98646 0.07521 0.0
H2017 H 0.57271 0.98856 0.09722 0.0
H2018 H 0.60221 0.03899 0.1 0.0
H2019 H 0.61484 0.03688 0.07805 0.0
H2020 H 0.59991 0.0286 0.12665 0.0
H2021 H 0.5637 0.0212 0.08751 0.0
H2022 H 0.54707 0.00911 0.06453 0.0
H2023 H 0.52125 0.96562 0.08504 0.0
H2024 H 0.53786 0.97738 0.10809 0.0
H2025 H 0.54929 0.03451 0.17851 0.0
H2026 H 0.56403 0.03723 0.15686 0.0
H2027 H 0.54624 0.98728 0.15353 0.0
H2028 H 0.53207 0.98447 0.17554 0.0
H2029 H 0.54282 0.0006 0.12668 0.0
H2030 H 0.5812 0.00885 0.16551 0.0
H2031 H 0.59776 0.02213 0.18831 0.0
H2032 H 0.61914 0.06602 0.16783 0.0
H2033 H 0.60253 0.05303 0.14496 0.0
C2034 C 0.58872 0.99803 0.08044 0.0
C2035 C 0.60071 0.01153 0.07483 0.0
C2036 C 0.58172 0.99922 0.09302 0.0
C2037 C 0.5863 0.01396 0.10012 0.0
C2038 C 0.59841 0.0275 0.09466 0.0
C2039 C 0.60558 0.02629 0.0821 0.0
C2040 C 0.57849 0.01501 0.11336 0.0
C2041 C 0.58743 0.02273 0.12657 0.0
C2042 C 0.56219 0.00728 0.11333 0.0
C2043 C 0.55211 0.00015 0.0995 0.0
C2044 C 0.55454 0.00902 0.08709 0.0
C2045 C 0.54511 0.00223 0.07406 0.0
C2046 C 0.53313 0.9866 0.07332 0.0
C2047 C 0.53054 0.97773 0.08563 0.0
C2048 C 0.53995 0.98446 0.09869 0.0
C2049 C 0.54875 0.02413 0.1734 0.0
C2050 C 0.53938 0.00924 0.1788 0.0
C2051 C 0.55711 0.02571 0.16095 0.0
C2052 C 0.55615 0.01244 0.15359 0.0
C2053 C 0.54702 0.99764 0.15902 0.0
C2054 C 0.53885 0.99606 0.17156 0.0
C2055 C 0.56423 0.01382 0.13993 0.0
C2056 C 0.5553 0.0066 0.12666 0.0
C2057 C 0.58049 0.02221 0.13987 0.0
C2058 C 0.59049 0.03001 0.15359 0.0
C2059 C 0.58932 0.02136 0.16592 0.0
C2060 C 0.59874 0.02883 0.17884 0.0
C2061 C 0.60946 0.04492 0.17953 0.0
C2062 C 0.61081 0.05356 0.16729 0.0
C2063 C 0.6014 0.04615 0.15434 0.0
H2064 H 0.61675 0.05068 0.18955 0.0
H2065 H 0.52584 0.98136 0.06321 0.0
H2066 H 0.96444 0.59132 0.06737 0.0
H2067 H 0.96183 0.57391 0.087 0.0
H2068 H 0.00996 0.60414 0.10101 0.0
H2069 H 0.0127 0.62127 0.08131 0.0
H2070 H 0.003 0.57462 0.09912 0.0
H2071 H 0.98042 0.6034 0.12044 0.0
H2072 H 0.96213 0.6131 0.12117 0.0
H2073 H 0.92407 0.56565 0.1183 0.0
H2074 H 0.94214 0.55566 0.11736 0.0
H2075 H 0.00981 0.55125 0.16953 0.0
H2076 H 0.0081 0.56629 0.14959 0.0
H2077 H 0.96092 0.53001 0.13833 0.0
H2078 H 0.96259 0.51476 0.15826 0.0
H2079 H 0.96515 0.56003 0.13758 0.0
H2080 H 0.98803 0.53141 0.1179 0.0
H2081 H 0.00647 0.52189 0.11764 0.0
H2082 H 0.04415 0.56933 0.11753 0.0
H2083 H 0.02594 0.57915 0.11802 0.0
C2084 C 0.97442 0.59426 0.0747 0.0
C2085 C 0.98878 0.60762 0.0728 0.0
C2086 C 0.97291 0.58435 0.08594 0.0
C2087 C 0.98569 0.58777 0.09554 0.0
C2088 C -4e-05 0.60122 0.09371 0.0
C2089 C 0.0015 0.61103 0.08246 0.0
C2090 C 0.98449 0.57721 0.10726 0.0
C2091 C 0.99482 0.57158 0.1076 0.0
C2092 C 0.97348 0.5728 0.11807 0.0
C2093 C 0.96262 0.57879 0.11866 0.0
C2094 C 0.96814 0.59504 0.11984 0.0
C2095 C 0.95782 0.60059 0.12032 0.0
C2096 C 0.94195 0.59 0.11974 0.0
C2097 C 0.93637 0.57384 0.11872 0.0
C2098 C 0.94665 0.56823 0.11823 0.0
C2099 C 0.99908 0.54643 0.16279 0.0
C2100 C 0.98639 0.53172 0.16536 0.0
C2101 C 0.9981 0.55506 0.15143 0.0
C2102 C 0.98446 0.54915 0.14235 0.0
C2103 C 0.97157 0.53476 0.14521 0.0
C2104 C 0.97253 0.52608 0.15661 0.0
C2105 C 0.98394 0.55785 0.12961 0.0
C2106 C 0.97326 0.56303 0.12903 0.0
C2107 C 0.99464 0.5619 0.11857 0.0
C2108 C 0.00562 0.55602 0.11811 0.0
C2109 C 0.00025 0.53982 0.11793 0.0
C2110 C 0.01067 0.53437 0.11772 0.0
C2111 C 0.02648 0.545 0.1176 0.0
C2112 C 0.0319 0.56111 0.11764 0.0
C2113 C 0.02154 0.56662 0.11786 0.0
H2114 H 0.03452 0.54076 0.11744 0.0
H2115 H 0.93397 0.59432 0.12011 0.0
H2116 H 0.41369 0.38816 0.03263 0.0
H2117 H 0.42996 0.39791 0.05588 0.0
H2118 H 0.39842 0.41069 0.07412 0.0
H2119 H 0.38264 0.40167 0.05085 0.0
H2120 H 0.4259 0.43332 0.08039 0.0
H2121 H 0.40067 0.37694 0.08326 0.0
H2122 H 0.39347 0.34992 0.07472 0.0
H2123 H 0.4413 0.36332 0.07572 0.0
H2124 H 0.44878 0.39049 0.0841 0.0
H2125 H 0.43713 0.43554 0.15736 0.0
H2126 H 0.4268 0.42598 0.13193 0.0
H2127 H 0.47034 0.43141 0.12045 0.0
H2128 H 0.48111 0.44169 0.14588 0.0
H2129 H 0.44131 0.40129 0.10939 0.0
H2130 H 0.46557 0.45753 0.10959 0.0
H2131 H 0.47134 0.4837 0.1195 0.0
H2132 H 0.42335 0.46939 0.11377 0.0
H2133 H 0.41726 0.44303 0.10405 0.0
C2134 C 0.41026 0.39301 0.04166 0.0
C2135 C 0.39695 0.39421 0.03996 0.0
C2136 C 0.41951 0.39852 0.05495 0.0
C2137 C 0.41538 0.40495 0.06683 0.0
C2138 C 0.40194 0.40589 0.06512 0.0
C2139 C 0.39289 0.40068 0.05182 0.0
C2140 C 0.42506 0.41108 0.081 0.0
C2141 C 0.42917 0.42623 0.08672 0.0
C2142 C 0.42978 0.40209 0.08914 0.0
C2143 C 0.42529 0.38577 0.08413 0.0
C2144 C 0.40965 0.37415 0.08154 0.0
C2145 C 0.40552 0.3588 0.07676 0.0
C2146 C 0.41692 0.35492 0.07463 0.0
C2147 C 0.43248 0.36636 0.07734 0.0
C2148 C 0.43667 0.38172 0.08212 0.0
C2149 C 0.44462 0.4349 0.14945 0.0
C2150 C 0.46005 0.43965 0.15365 0.0
C2151 C 0.43863 0.42928 0.13494 0.0
C2152 C 0.44786 0.42811 0.12435 0.0
C2153 C 0.46307 0.43223 0.12853 0.0
C2154 C 0.46916 0.43805 0.14306 0.0
C2155 C 0.44158 0.42319 0.10881 0.0
C2156 C 0.43819 0.40837 0.10287 0.0
C2157 C 0.4373 0.43236 0.10052 0.0
C2158 C 0.44095 0.44827 0.10619 0.0
C2159 C 0.45623 0.45992 0.11055 0.0
C2160 C 0.45956 0.4748 0.11611 0.0
C2161 C 0.44772 0.4782 0.11728 0.0
C2162 C 0.43252 0.46674 0.11286 0.0
C2163 C 0.42912 0.45183 0.1073 0.0
H2164 H 0.45032 0.48972 0.1216 0.0
H2165 H 0.4137 0.34303 0.07093 0.0
H2166 H 0.68329 0.74261 0.38181 0.0
H2167 H 0.67945 0.75719 0.40199 0.0
H2168 H 0.63336 0.71829 0.40538 0.0
H2169 H 0.63707 0.70364 0.38501 0.0
H2170 H 0.63457 0.74681 0.40795 0.0
H2171 H 0.66151 0.72305 0.42932 0.0
H2172 H 0.68207 0.71645 0.43173 0.0
H2173 H 0.7161 0.76541 0.43913 0.0
H2174 H 0.69575 0.77233 0.43654 0.0
H2175 H 0.62575 0.76714 0.48253 0.0
H2176 H 0.62702 0.75453 0.45927 0.0
H2177 H 0.67267 0.79354 0.45445 0.0
H2178 H 0.67137 0.80644 0.4775 0.0
H2179 H 0.6712 0.76488 0.45239 0.0
H2180 H 0.64394 0.78855 0.43163 0.0
H2181 H 0.62321 0.79491 0.4295 0.0
H2182 H 0.58952 0.74591 0.42148 0.0
H2183 H 0.61005 0.73922 0.42377 0.0
C2184 C 0.6723 0.73717 0.38679 0.0
C2185 C 0.66051 0.72193 0.38192 0.0
C2186 C 0.67013 0.74552 0.39833 0.0
C2187 C 0.65619 0.73874 0.40529 0.0
C2188 C 0.64422 0.72371 0.40016 0.0
C2189 C 0.64637 0.71534 0.38858 0.0
C2190 C 0.65441 0.74716 0.41829 0.0
C2191 C 0.64245 0.7506 0.41775 0.0
C2192 C 0.66486 0.75233 0.43095 0.0
C2193 C 0.67712 0.74821 0.43258 0.0
C2194 C 0.67339 0.73242 0.43134 0.0
C2195 C 0.685 0.72862 0.43276 0.0
C2196 C 0.70038 0.74051 0.43554 0.0
C2197 C 0.70418 0.75622 0.43695 0.0
C2198 C 0.69261 0.76008 0.43552 0.0
C2199 C 0.63591 0.77324 0.47634 0.0
C2200 C 0.64851 0.78776 0.48194 0.0
C2201 C 0.63663 0.76598 0.46307 0.0
C2202 C 0.64995 0.7731 0.45517 0.0
C2203 C 0.66232 0.78782 0.46044 0.0
C2204 C 0.66158 0.79513 0.47364 0.0
C2205 C 0.65146 0.76468 0.44202 0.0
C2206 C 0.66334 0.76115 0.44257 0.0
C2207 C 0.6409 0.7594 0.42944 0.0
C2208 C 0.62852 0.76337 0.42802 0.0
C2209 C 0.6321 0.77911 0.42955 0.0
C2210 C 0.62039 0.78278 0.42828 0.0
C2211 C 0.60505 0.77082 0.4254 0.0
C2212 C 0.6014 0.75516 0.42373 0.0
C2213 C 0.61307 0.75142 0.425 0.0
H2214 H 0.596 0.77368 0.42442 0.0
H2215 H 0.70936 0.73754 0.43664 0.0
H2216 H 0.28967 0.91606 0.4227 0.0
H2217 H 0.27658 0.89982 0.44308 0.0
H2218 H 0.24067 0.91135 0.43782 0.0
H2219 H 0.25372 0.92766 0.41766 0.0
H2220 H 0.25007 0.91418 0.46633 0.0
H2221 H 0.23505 0.87562 0.42522 0.0
H2222 H 0.2395 0.86173 0.40448 0.0
H2223 H 0.2642 0.84817 0.43437 0.0
H2224 H 0.26007 0.86217 0.45527 0.0
H2225 H 0.18817 0.85595 0.5023 0.0
H2226 H 0.20493 0.87197 0.48367 0.0
H2227 H 0.23868 0.85936 0.49695 0.0
H2228 H 0.22215 0.84359 0.516 0.0
H2229 H 0.23298 0.85745 0.46601 0.0
H2230 H 0.24596 0.89435 0.50747 0.0
H2231 H 0.24079 0.90778 0.52807 0.0
H2232 H 0.21949 0.92428 0.49734 0.0
H2233 H 0.22432 0.91074 0.47656 0.0
C2234 C 0.27896 0.91507 0.42588 0.0
C2235 C 0.27271 0.92311 0.41859 0.0
C2236 C 0.27147 0.90577 0.43749 0.0
C2237 C 0.2576 0.90431 0.44192 0.0
C2238 C 0.25138 0.91234 0.43462 0.0
C2239 C 0.25883 0.92161 0.42306 0.0
C2240 C 0.24953 0.89462 0.45428 0.0
C2241 C 0.24623 0.90175 0.46619 0.0
C2242 C 0.24491 0.8785 0.45432 0.0
C2243 C 0.24741 0.8701 0.44177 0.0
C2244 C 0.24155 0.8698 0.42735 0.0
C2245 C 0.24399 0.86188 0.41557 0.0
C2246 C 0.25218 0.85412 0.4181 0.0
C2247 C 0.2579 0.85422 0.43243 0.0
C2248 C 0.2555 0.86213 0.44424 0.0
C2249 C 0.19924 0.85672 0.50144 0.0
C2250 C 0.20386 0.84858 0.51078 0.0
C2251 C 0.20877 0.86582 0.49071 0.0
C2252 C 0.2231 0.86696 0.48904 0.0
C2253 C 0.22765 0.85862 0.49808 0.0
C2254 C 0.21816 0.84957 0.50892 0.0
C2255 C 0.23326 0.87697 0.47784 0.0
C2256 C 0.23697 0.86992 0.4662 0.0
C2257 C 0.23824 0.89316 0.47801 0.0
C2258 C 0.2354 0.90142 0.49046 0.0
C2259 C 0.24007 0.90074 0.50511 0.0
C2260 C 0.23722 0.90839 0.51682 0.0
C2261 C 0.22979 0.91685 0.51402 0.0
C2262 C 0.22523 0.91771 0.49949 0.0
C2263 C 0.22804 0.91006 0.48774 0.0
H2264 H 0.22759 0.92277 0.5231 0.0
H2265 H 0.25405 0.84799 0.40897 0.0
H2266 H 0.09504 0.36531 0.38556 0.0
H2267 H 0.11218 0.37112 0.40775 0.0
H2268 H 0.09923 0.32228 0.40748 0.0
H2269 H 0.08236 0.31648 0.38517 0.0
H2270 H 0.10408 0.36095 0.43378 0.0
H2271 H 0.12754 0.31817 0.42397 0.0
H2272 H 0.13619 0.30809 0.40335 0.0
H2273 H 0.14662 0.34873 0.37972 0.0
H2274 H 0.13826 0.35918 0.40028 0.0
H2275 H 0.11933 0.33648 0.50011 0.0
H2276 H 0.11103 0.33751 0.47474 0.0
H2277 H 0.15851 0.36534 0.46427 0.0
H2278 H 0.16697 0.36401 0.48966 0.0
H2279 H 0.14133 0.34265 0.4424 0.0
H2280 H 0.13839 0.38319 0.46932 0.0
H2281 H 0.13149 0.39528 0.48974 0.0
H2282 H 0.08339 0.36319 0.47827 0.0
H2283 H 0.08999 0.35075 0.45791 0.0
C2284 C 0.09605 0.35587 0.3901 0.0
C2285 C 0.08733 0.34043 0.38367 0.0
C2286 C 0.10583 0.3592 0.40279 0.0
C2287 C 0.10708 0.34717 0.40924 0.0
C2288 C 0.09869 0.33182 0.40257 0.0
C2289 C 0.08897 0.32849 0.38986 0.0
C2290 C 0.11597 0.3503 0.42367 0.0
C2291 C 0.11231 0.35706 0.43561 0.0
C2292 C 0.12697 0.34554 0.42602 0.0
C2293 C 0.13215 0.3394 0.41364 0.0
C2294 C 0.13175 0.325 0.41441 0.0
C2295 C 0.13659 0.31921 0.40272 0.0
C2296 C 0.14191 0.32774 0.39022 0.0
C2297 C 0.14245 0.34211 0.38939 0.0
C2298 C 0.13763 0.34795 0.40105 0.0
C2299 C 0.12802 0.34268 0.49238 0.0
C2300 C 0.1438 0.35017 0.49688 0.0
C2301 C 0.12327 0.34338 0.47792 0.0
C2302 C 0.13417 0.35167 0.46769 0.0
C2303 C 0.14994 0.35895 0.47204 0.0
C2304 C 0.15473 0.35827 0.48655 0.0
C2305 C 0.12892 0.35269 0.4525 0.0
C2306 C 0.13325 0.34672 0.44046 0.0
C2307 C 0.11876 0.35846 0.44997 0.0
C2308 C 0.1147 0.36597 0.46214 0.0
C2309 C 0.12634 0.37864 0.47121 0.0
C2310 C 0.12248 0.38557 0.48277 0.0
C2311 C 0.10701 0.37999 0.48531 0.0
C2312 C 0.09537 0.3675 0.47628 0.0
C2313 C 0.09916 0.36052 0.46472 0.0
H2314 H 0.10405 0.38537 0.49427 0.0
H2315 H 0.14565 0.32324 0.38118 0.0
H2316 H 0.08187 0.34357 0.30638 0.0
H2317 H 0.09117 0.33866 0.28343 0.0
H2318 H 0.0706 0.28965 0.29165 0.0
H2319 H 0.06098 0.29444 0.3147 0.0
H2320 H 0.10254 0.30519 0.28251 0.0
H2321 H 0.05263 0.29694 0.26734 0.0
H2322 H 0.03207 0.30359 0.26601 0.0
H2323 H 0.06176 0.34567 0.24492 0.0
H2324 H 0.08262 0.33942 0.24636 0.0
H2325 H 0.11878 0.28884 0.21016 0.0
H2326 H 0.10474 0.2871 0.23215 0.0
H2327 H 0.11374 0.33426 0.22756 0.0
H2328 H 0.1273 0.33586 0.20533 0.0
H2329 H 0.08498 0.3158 0.23471 0.0
H2330 H 0.13538 0.32651 0.25199 0.0
H2331 H 0.15723 0.32181 0.25401 0.0
H2332 H 0.1282 0.27728 0.27169 0.0
H2333 H 0.1061 0.28162 0.26956 0.0
C2334 C 0.07934 0.33174 0.30335 0.0
C2335 C 0.07067 0.31937 0.31231 0.0
C2336 C 0.08463 0.32896 0.29022 0.0
C2337 C 0.08147 0.31379 0.28584 0.0
C2338 C 0.07311 0.30143 0.29488 0.0
C2339 C 0.06761 0.30417 0.30798 0.0
C2340 C 0.08686 0.31104 0.27166 0.0
C2341 C 0.09849 0.30715 0.27199 0.0
C2342 C 0.0818 0.31402 0.25805 0.0
C2343 C 0.06923 0.31776 0.25706 0.0
C2344 C 0.05483 0.30768 0.26253 0.0
C2345 C 0.04311 0.31137 0.26174 0.0
C2346 C 0.04562 0.32506 0.25541 0.0
C2347 C 0.05984 0.33508 0.24983 0.0
C2348 C 0.07161 0.33146 0.25062 0.0
C2349 C 0.11755 0.29874 0.2137 0.0
C2350 C 0.12423 0.31253 0.20605 0.0
C2351 C 0.10965 0.29778 0.22635 0.0
C2352 C 0.10837 0.31063 0.23161 0.0
C2353 C 0.11463 0.32422 0.22373 0.0
C2354 C 0.12249 0.32517 0.2111 0.0
C2355 C 0.10088 0.31018 0.24552 0.0
C2356 C 0.08887 0.31354 0.24516 0.0
C2357 C 0.10575 0.30692 0.25912 0.0
C2358 C 0.11903 0.3043 0.26044 0.0
C2359 C 0.13361 0.31565 0.25618 0.0
C2360 C 0.14605 0.31307 0.25737 0.0
C2361 C 0.14409 0.29923 0.26293 0.0
C2362 C 0.1297 0.28798 0.26735 0.0
C2363 C 0.11721 0.29049 0.26616 0.0
H2364 H 0.15374 0.29726 0.26385 0.0
H2365 H 0.03652 0.32789 0.2548 0.0
H2366 H 0.65594 0.72379 0.31331 0.0
H2367 H 0.66061 0.73995 0.29235 0.0
H2368 H 0.70577 0.74534 0.2898 0.0
H2369 H 0.70124 0.72929 0.31108 0.0
H2370 H 0.70653 0.77294 0.28656 0.0
H2371 H 0.67686 0.7205 0.26499 0.0
H2372 H 0.65532 0.69309 0.26245 0.0
H2373 H 0.62311 0.7091 0.25583 0.0
H2374 H 0.64444 0.73662 0.25854 0.0
H2375 H 0.71279 0.8056 0.21582 0.0
H2376 H 0.71219 0.78892 0.23538 0.0
H2377 H 0.6668 0.77955 0.24519 0.0
H2378 H 0.6674 0.79632 0.22591 0.0
H2379 H 0.66845 0.75285 0.24318 0.0
H2380 H 0.6981 0.80525 0.2671 0.0
H2381 H 0.71968 0.83265 0.26982 0.0
H2382 H 0.7521 0.81646 0.27176 0.0
H2383 H 0.7307 0.78895 0.26884 0.0
C2384 C 0.66687 0.7284 0.30831 0.0
C2385 C 0.67819 0.7252 0.31377 0.0
C2386 C 0.66951 0.73759 0.29629 0.0
C2387 C 0.68343 0.74363 0.28935 0.0
C2388 C 0.69491 0.74072 0.29495 0.0
C2389 C 0.6923 0.73153 0.30706 0.0
C2390 C 0.68586 0.753 0.27631 0.0
C2391 C 0.69838 0.76845 0.27694 0.0
C2392 C 0.67512 0.74719 0.26383 0.0
C2393 C 0.66225 0.73064 0.26207 0.0
C2394 C 0.66517 0.71818 0.26309 0.0
C2395 C 0.653 0.70262 0.2616 0.0
C2396 C 0.63785 0.69935 0.259 0.0
C2397 C 0.63485 0.71164 0.25785 0.0
C2398 C 0.64698 0.72723 0.25934 0.0
C2399 C 0.70275 0.80009 0.22223 0.0
C2400 C 0.69012 0.80224 0.21926 0.0
C2401 C 0.7024 0.79054 0.23337 0.0
C2402 C 0.68946 0.78304 0.24175 0.0
C2403 C 0.67686 0.78515 0.23879 0.0
C2404 C 0.6772 0.79469 0.22771 0.0
C2405 C 0.68887 0.7729 0.25361 0.0
C2406 C 0.67671 0.75726 0.25272 0.0
C2407 C 0.69996 0.77853 0.26579 0.0
C2408 C 0.71281 0.79506 0.26758 0.0
C2409 C 0.70984 0.80754 0.26798 0.0
C2410 C 0.72204 0.82308 0.26958 0.0
C2411 C 0.73726 0.82629 0.27091 0.0
C2412 C 0.74031 0.81396 0.27069 0.0
C2413 C 0.72815 0.79839 0.26907 0.0
H2414 H 0.74668 0.83834 0.27216 0.0
H2415 H 0.62844 0.6873 0.25786 0.0
H2416 H 0.26063 0.95061 0.3442 0.0
H2417 H 0.24517 0.93909 0.32077 0.0
H2418 H 0.24851 0.89752 0.32506 0.0
H2419 H 0.26419 0.90909 0.34833 0.0
H2420 H 0.25547 0.90782 0.29839 0.0
H2421 H 0.21452 0.89726 0.32974 0.0
H2422 H 0.20066 0.90355 0.34817 0.0
H2423 H 0.1976 0.93545 0.31935 0.0
H2424 H 0.21163 0.92952 0.30082 0.0
H2425 H 0.20295 0.86179 0.23842 0.0
H2426 H 0.21372 0.87108 0.26388 0.0
H2427 H 0.21446 0.91455 0.25795 0.0
H2428 H 0.20394 0.90548 0.23236 0.0
H2429 H 0.2047 0.90284 0.28558 0.0
H2430 H 0.24648 0.91404 0.2548 0.0
H2431 H 0.26014 0.90759 0.23629 0.0
H2432 H 0.26153 0.87428 0.26435 0.0
H2433 H 0.24765 0.88036 0.28295 0.0
C2434 C 0.25791 0.93894 0.34023 0.0
C2435 C 0.26364 0.93076 0.34807 0.0
C2436 C 0.24902 0.93234 0.32687 0.0
C2437 C 0.24559 0.91739 0.3212 0.0
C2438 C 0.25103 0.90908 0.32921 0.0
C2439 C 0.25995 0.91569 0.34253 0.0
C2440 C 0.23716 0.91081 0.30649 0.0
C2441 C 0.24424 0.90649 0.2957 0.0
C2442 C 0.22271 0.90947 0.30283 0.0
C2443 C 0.21426 0.91306 0.31395 0.0
C2444 C 0.21101 0.90572 0.32738 0.0
C2445 C 0.2031 0.9092 0.33783 0.0
C2446 C 0.19829 0.91992 0.33495 0.0
C2447 C 0.20135 0.92716 0.32158 0.0
C2448 C 0.20927 0.92373 0.31109 0.0
C2449 C 0.20542 0.87334 0.24251 0.0
C2450 C 0.20275 0.88297 0.23329 0.0
C2451 C 0.21149 0.87859 0.25709 0.0
C2452 C 0.21504 0.89357 0.26273 0.0
C2453 C 0.21177 0.90294 0.2538 0.0
C2454 C 0.20573 0.89772 0.23919 0.0
C2455 C 0.22299 0.89978 0.27763 0.0
C2456 C 0.21587 0.90409 0.28838 0.0
C2457 C 0.23742 0.90112 0.2813 0.0
C2458 C 0.24588 0.89754 0.27019 0.0
C2459 C 0.24959 0.90525 0.25697 0.0
C2460 C 0.25739 0.90167 0.24647 0.0
C2461 C 0.26167 0.8905 0.24912 0.0
C2462 C 0.25819 0.88291 0.26231 0.0
C2463 C 0.25036 0.88642 0.27283 0.0
H2464 H 0.26771 0.88775 0.24098 0.0
H2465 H 0.19217 0.9226 0.34306 0.0
H2466 H 0.64858 0.92755 0.33027 0.0
H2467 H 0.65446 0.91398 0.31077 0.0
H2468 H 0.70317 0.94529 0.32135 0.0
H2469 H 0.69732 0.95925 0.3407 0.0
H2470 H 0.69716 0.94071 0.29224 0.0
H2471 H 0.68474 0.90739 0.33225 0.0
H2472 H 0.66938 0.892 0.35231 0.0
H2473 H 0.63164 0.86245 0.32074 0.0
H2474 H 0.6467 0.87779 0.30051 0.0
H2475 H 0.71475 0.89069 0.24756 0.0
H2476 H 0.7127 0.90428 0.26981 0.0
H2477 H 0.66377 0.88304 0.25955 0.0
H2478 H 0.66573 0.87007 0.237 0.0
H2479 H 0.67264 0.88263 0.29007 0.0
H2480 H 0.6846 0.91791 0.25066 0.0
H2481 H 0.70023 0.93313 0.23066 0.0
H2482 H 0.73953 0.95885 0.26169 0.0
H2483 H 0.72418 0.94358 0.28185 0.0
C2484 C 0.66055 0.93156 0.32845 0.0
C2485 C 0.6725 0.9444 0.33705 0.0
C2486 C 0.6639 0.92374 0.31735 0.0
C2487 C 0.67926 0.92841 0.31479 0.0
C2488 C 0.69124 0.94143 0.32319 0.0
C2489 C 0.68788 0.94937 0.33424 0.0
C2490 C 0.68269 0.91973 0.30324 0.0
C2491 C 0.69204 0.92805 0.29195 0.0
C2492 C 0.67588 0.90317 0.30274 0.0
C2493 C 0.66682 0.89382 0.31487 0.0
C2494 C 0.67313 0.89767 0.32959 0.0
C2495 C 0.66448 0.88895 0.34099 0.0
C2496 C 0.64954 0.87627 0.33781 0.0
C2497 C 0.64322 0.87227 0.3232 0.0
C2498 C 0.65181 0.88097 0.31175 0.0
C2499 C 0.70355 0.88893 0.24999 0.0
C2500 C 0.69041 0.87926 0.24041 0.0
C2501 C 0.7024 0.89663 0.26276 0.0
C2502 C 0.68809 0.89465 0.26625 0.0
C2503 C 0.6749 0.8846 0.25706 0.0
C2504 C 0.67605 0.8771 0.24421 0.0
C2505 C 0.68686 0.90361 0.27907 0.0
C2506 C 0.67793 0.89532 0.29056 0.0
C2507 C 0.69412 0.92018 0.2798 0.0
C2508 C 0.7033 0.92947 0.26773 0.0
C2509 C 0.69661 0.92671 0.2532 0.0
C2510 C 0.70541 0.93536 0.24183 0.0
C2511 C 0.72088 0.94691 0.24489 0.0
C2512 C 0.72756 0.94987 0.25933 0.0
C2513 C 0.71882 0.94123 0.27073 0.0
H2514 H 0.72767 0.9536 0.23608 0.0
H2515 H 0.64286 0.86954 0.34665 0.0
H2516 H 0.0401 0.74838 0.29738 0.0
H2517 H 0.05313 0.76649 0.27811 0.0
H2518 H 0.09552 0.76783 0.29102 0.0
H2519 H 0.08258 0.74963 0.31007 0.0
H2520 H 0.09892 0.79791 0.28592 0.0
H2521 H 0.07514 0.74473 0.26294 0.0
H2522 H 0.05304 0.71827 0.25588 0.0
H2523 H 0.03048 0.73848 0.23178 0.0
H2524 H 0.05237 0.76509 0.23889 0.0
H2525 H 0.14708 0.82275 0.22731 0.0
H2526 H 0.13081 0.80913 0.24708 0.0
H2527 H 0.09108 0.80405 0.22189 0.0
H2528 H 0.10718 0.8168 0.20152 0.0
H2529 H 0.08366 0.77782 0.23331 0.0
H2530 H 0.10845 0.83075 0.25311 0.0
H2531 H 0.1301 0.85749 0.26008 0.0
H2532 H 0.14989 0.83893 0.29019 0.0
H2533 H 0.12848 0.81205 0.28326 0.0
C2534 C 0.05222 0.75266 0.29617 0.0
C2535 C 0.06032 0.74756 0.30515 0.0
C2536 C 0.05963 0.76296 0.28517 0.0
C2537 C 0.07526 0.76844 0.28315 0.0
C2538 C 0.08346 0.76376 0.29245 0.0
C2539 C 0.07603 0.75331 0.30326 0.0
C2540 C 0.08303 0.77842 0.27093 0.0
C2541 C 0.09566 0.79356 0.27441 0.0
C2542 C 0.07839 0.77287 0.25593 0.0
C2543 C 0.06529 0.75689 0.2516 0.0
C2544 C 0.0654 0.74353 0.25625 0.0
C2545 C 0.05293 0.72851 0.25221 0.0
C2546 C 0.04034 0.72669 0.24342 0.0
C2547 C 0.04022 0.7399 0.23861 0.0
C2548 C 0.05266 0.75495 0.24264 0.0
C2549 C 0.13486 0.81861 0.22585 0.0
C2550 C 0.12846 0.82081 0.21273 0.0
C2551 C 0.12559 0.81104 0.23732 0.0
C2552 C 0.10974 0.8058 0.23614 0.0
C2553 C 0.1033 0.80808 0.22312 0.0
C2554 C 0.11255 0.8155 0.21152 0.0
C2555 C 0.09988 0.79731 0.24824 0.0
C2556 C 0.08683 0.78241 0.24478 0.0
C2557 C 0.10403 0.80318 0.26326 0.0
C2558 C 0.11689 0.81936 0.26759 0.0
C2559 C 0.11746 0.83235 0.26116 0.0
C2560 C 0.12969 0.84754 0.26511 0.0
C2561 C 0.14137 0.8499 0.27555 0.0
C2562 C 0.14083 0.83709 0.2821 0.0
C2563 C 0.12864 0.82187 0.27818 0.0
H2564 H 0.15083 0.86167 0.27859 0.0
H2565 H 0.03069 0.71505 0.24031 0.0
H2566 H 0.24656 0.341 0.33654 0.0
H2567 H 0.2302 0.33357 0.31364 0.0
H2568 H 0.23892 0.29571 0.30387 0.0
H2569 H 0.25548 0.30319 0.32683 0.0
H2570 H 0.24327 0.31314 0.28047 0.0
H2571 H 0.20367 0.28769 0.31346 0.0
H2572 H 0.18928 0.28495 0.33563 0.0
H2573 H 0.17987 0.32058 0.32195 0.0
H2574 H 0.19441 0.32372 0.2998 0.0
H2575 H 0.19246 0.28906 0.21591 0.0
H2576 H 0.20208 0.28744 0.24064 0.0
H2577 H 0.19989 0.328 0.25655 0.0
H2578 H 0.19011 0.32958 0.2319 0.0
H2579 H 0.19034 0.30504 0.27688 0.0
H2580 H 0.23291 0.33275 0.24598 0.0
H2581 H 0.24722 0.33559 0.22372 0.0
H2582 H 0.25091 0.29543 0.23372 0.0
H2583 H 0.23639 0.2922 0.25593 0.0
C2584 C 0.24487 0.33098 0.32961 0.0
C2585 C 0.25231 0.32268 0.33346 0.0
C2586 C 0.23544 0.32669 0.31655 0.0
C2587 C 0.23321 0.31398 0.30711 0.0
C2588 C 0.24044 0.30551 0.31104 0.0
C2589 C 0.24985 0.30977 0.32415 0.0
C2590 C 0.22417 0.31033 0.2927 0.0
C2591 C 0.23156 0.311 0.2797 0.0
C2592 C 0.20901 0.30785 0.29169 0.0
C2593 C 0.20025 0.30603 0.30502 0.0
C2594 C 0.19865 0.29504 0.31524 0.0
C2595 C 0.19044 0.2934 0.32779 0.0
C2596 C 0.18369 0.30261 0.33021 0.0
C2597 C 0.18512 0.31346 0.32007 0.0
C2598 C 0.19333 0.31517 0.3075 0.0
C2599 C 0.19376 0.29744 0.22476 0.0
C2600 C 0.19069 0.30954 0.22199 0.0
C2601 C 0.19932 0.29655 0.23884 0.0
C2602 C 0.20186 0.30771 0.25036 0.0
C2603 C 0.19804 0.3193 0.24779 0.0
C2604 C 0.19259 0.32027 0.23371 0.0
C2605 C 0.20955 0.30809 0.26476 0.0
C2606 C 0.20193 0.30687 0.27772 0.0
C2607 C 0.22451 0.31008 0.26575 0.0
C2608 C 0.2334 0.31212 0.25251 0.0
C2609 C 0.23667 0.32445 0.24337 0.0
C2610 C 0.24483 0.32614 0.23077 0.0
C2611 C 0.24993 0.31567 0.22728 0.0
C2612 C 0.24692 0.30351 0.23642 0.0
C2613 C 0.23873 0.30175 0.24902 0.0
H2614 H 0.25624 0.31699 0.21752 0.0
H2615 H 0.17734 0.30132 0.33994 0.0
H2616 H 0.28812 0.37036 0.41521 0.0
H2617 H 0.27762 0.37476 0.43771 0.0
H2618 H 0.23213 0.33756 0.42198 0.0
H2619 H 0.24251 0.33311 0.39954 0.0
H2620 H 0.23193 0.36341 0.43482 0.0
H2621 H 0.25293 0.33008 0.44586 0.0
H2622 H 0.27345 0.32335 0.44746 0.0
H2623 H 0.3012 0.36411 0.47712 0.0
H2624 H 0.28092 0.3712 0.47552 0.0
H2625 H 0.19045 0.33918 0.49836 0.0
H2626 H 0.20369 0.34125 0.47592 0.0
H2627 H 0.24712 0.37468 0.49915 0.0
H2628 H 0.23401 0.37201 0.52198 0.0
H2629 H 0.25047 0.35419 0.48279 0.0
H2630 H 0.22822 0.38609 0.47392 0.0
H2631 H 0.20766 0.39274 0.47234 0.0
H2632 H 0.18235 0.35524 0.43878 0.0
H2633 H 0.20266 0.34821 0.44029 0.0
C2634 C 0.27586 0.36326 0.41649 0.0
C2635 C 0.26615 0.35133 0.40567 0.0
C2636 C 0.26989 0.36575 0.42935 0.0
C2637 C 0.25412 0.35639 0.43156 0.0
C2638 C 0.24433 0.34491 0.42049 0.0
C2639 C 0.25029 0.34235 0.40771 0.0
C2640 C 0.24786 0.3579 0.44568 0.0
C2641 C 0.23591 0.36133 0.44532 0.0
C2642 C 0.25334 0.35557 0.4594 0.0
C2643 C 0.2655 0.35127 0.46043 0.0
C2644 C 0.26347 0.33768 0.45262 0.0
C2645 C 0.27504 0.33379 0.45355 0.0
C2646 C 0.28864 0.34333 0.46235 0.0
C2647 C 0.29067 0.35675 0.47028 0.0
C2648 C 0.27914 0.36071 0.46937 0.0
C2649 C 0.20285 0.34684 0.49879 0.0
C2650 C 0.21117 0.35536 0.51204 0.0
C2651 C 0.21038 0.3482 0.48585 0.0
C2652 C 0.22638 0.35833 0.48575 0.0
C2653 C 0.23475 0.36687 0.49893 0.0
C2654 C 0.22722 0.36541 0.51195 0.0
C2655 C 0.23435 0.35952 0.47198 0.0
C2656 C 0.24661 0.35655 0.47237 0.0
C2657 C 0.22916 0.36232 0.4583 0.0
C2658 C 0.21694 0.36656 0.45729 0.0
C2659 C 0.21823 0.37919 0.46627 0.0
C2660 C 0.20662 0.38304 0.46537 0.0
C2661 C 0.19371 0.37441 0.45547 0.0
C2662 C 0.19237 0.36192 0.44644 0.0
C2663 C 0.20394 0.35801 0.44729 0.0
H2664 H 0.18478 0.37746 0.45476 0.0
H2665 H 0.29759 0.34029 0.46306 0.0
H2666 H 0.63331 0.93825 0.41364 0.0
H2667 H 0.62862 0.92077 0.43376 0.0
H2668 H 0.66318 0.91093 0.41845 0.0
H2669 H 0.66796 0.92835 0.39846 0.0
H2670 H 0.63641 0.88409 0.4256 0.0
H2671 H 0.67227 0.93688 0.44673 0.0
H2672 H 0.68053 0.96463 0.45323 0.0
H2673 H 0.64124 0.95035 0.47904 0.0
H2674 H 0.63263 0.92249 0.47251 0.0
H2675 H 0.65823 0.85477 0.4851 0.0
H2676 H 0.65701 0.86984 0.46506 0.0
H2677 H 0.62739 0.88104 0.4895 0.0
H2678 H 0.62933 0.86674 0.51007 0.0
H2679 H 0.648 0.90609 0.47777 0.0
H2680 H 0.61329 0.85343 0.45912 0.0
H2681 H 0.60449 0.82553 0.45274 0.0
H2682 H 0.64005 0.83884 0.42232 0.0
H2683 H 0.64921 0.86683 0.42867 0.0
C2684 C 0.63983 0.93228 0.41454 0.0
C2685 C 0.65105 0.93471 0.40454 0.0
C2686 C 0.63716 0.92234 0.42603 0.0
C2687 C 0.64561 0.91463 0.42761 0.0
C2688 C 0.65652 0.91674 0.4174 0.0
C2689 C 0.65929 0.92676 0.40603 0.0
C2690 C 0.64356 0.90471 0.44013 0.0
C2691 C 0.639 0.88888 0.43702 0.0
C2692 C 0.64649 0.91089 0.45502 0.0
C2693 C 0.65171 0.92762 0.45899 0.0
C2694 C 0.66532 0.93966 0.45368 0.0
C2695 C 0.67008 0.95541 0.45739 0.0
C2696 C 0.66139 0.95925 0.4665 0.0
C2697 C 0.64794 0.94735 0.47196 0.0
C2698 C 0.64312 0.93159 0.46826 0.0
C2699 C 0.65159 0.86057 0.48634 0.0
C2700 C 0.64391 0.85954 0.49926 0.0
C2701 C 0.6507 0.869 0.47473 0.0
C2702 C 0.64186 0.87635 0.47563 0.0
C2703 C 0.63419 0.87538 0.48851 0.0
C2704 C 0.6352 0.86707 0.50021 0.0
C2705 C 0.6411 0.88544 0.46328 0.0
C2706 C 0.64514 0.90115 0.46641 0.0
C2707 C 0.63754 0.87909 0.4484 0.0
C2708 C 0.632 0.86225 0.44445 0.0
C2709 C 0.6193 0.85042 0.45114 0.0
C2710 C 0.61424 0.83458 0.44752 0.0
C2711 C 0.62172 0.83042 0.43715 0.0
C2712 C 0.63427 0.84208 0.43036 0.0
C2713 C 0.63938 0.85794 0.43394 0.0
H2714 H 0.61778 0.81815 0.43437 0.0
H2715 H 0.6651 0.97145 0.46936 0.0
H2716 H 0.0698 0.71213 0.37589 0.0
H2717 H 0.08549 0.72227 0.39935 0.0
H2718 H 0.08917 0.76729 0.39462 0.0
H2719 H 0.07318 0.75713 0.37124 0.0
H2720 H 0.11804 0.76725 0.40499 0.0
H2721 H 0.06446 0.74692 0.41507 0.0
H2722 H 0.0369 0.72657 0.41336 0.0
H2723 H 0.04776 0.69487 0.43451 0.0
H2724 H 0.07544 0.71497 0.43611 0.0
H2725 H 0.14046 0.80075 0.47875 0.0
H2726 H 0.1292 0.79154 0.45353 0.0
H2727 H 0.1124 0.74362 0.46419 0.0
H2728 H 0.12259 0.75265 0.48973 0.0
H2729 H 0.0907 0.7448 0.45007 0.0
H2730 H 0.14369 0.76448 0.4415 0.0
H2731 H 0.17157 0.78374 0.44271 0.0
H2732 H 0.1628 0.81524 0.41852 0.0
H2733 H 0.13484 0.79625 0.41733 0.0
C2734 C 0.07411 0.72425 0.37975 0.0
C2735 C 0.07021 0.73383 0.3718 0.0
C2736 C 0.08305 0.73 0.39313 0.0
C2737 C 0.08841 0.74548 0.39867 0.0
C2738 C 0.08514 0.75532 0.39045 0.0
C2739 C 0.07598 0.74949 0.37717 0.0
C2740 C 0.09642 0.75098 0.41356 0.0
C2741 C 0.1121 0.76252 0.4149 0.0
C2742 C 0.08868 0.74441 0.42636 0.0
C2743 C 0.07203 0.73239 0.42555 0.0
C2744 C 0.06099 0.73556 0.41923 0.0
C2745 C 0.04534 0.72408 0.4183 0.0
C2746 C 0.04058 0.70942 0.42378 0.0
C2747 C 0.05146 0.70623 0.43024 0.0
C2748 C 0.06713 0.71766 0.43117 0.0
C2749 C 0.1343 0.78823 0.47578 0.0
C2750 C 0.13237 0.77746 0.48637 0.0
C2751 C 0.12807 0.78299 0.46125 0.0
C2752 C 0.12009 0.76688 0.45686 0.0
C2753 C 0.11853 0.75612 0.46728 0.0
C2754 C 0.12454 0.76133 0.48188 0.0
C2755 C 0.11252 0.76116 0.44169 0.0
C2756 C 0.09682 0.74956 0.44024 0.0
C2757 C 0.12034 0.76755 0.42881 0.0
C2758 C 0.13715 0.77899 0.42945 0.0
C2759 C 0.1477 0.77556 0.43654 0.0
C2760 C 0.16352 0.78642 0.4372 0.0
C2761 C 0.16895 0.80072 0.43073 0.0
C2762 C 0.15857 0.80417 0.42354 0.0
C2763 C 0.14274 0.79335 0.42285 0.0
H2764 H 0.1812 0.80912 0.43125 0.0
H2765 H 0.02846 0.70055 0.42306 0.0
H2766 H 0.30331 0.0433 0.70596 0.0
H2767 H 0.29773 0.05561 0.72708 0.0
H2768 H 0.34527 0.07768 0.74386 0.0
H2769 H 0.35096 0.06565 0.72277 0.0
H2770 H 0.3234 0.06204 0.76516 0.0
H2771 H 0.33417 0.09912 0.72751 0.0
H2772 H 0.33009 0.1069 0.70301 0.0
H2773 H 0.28322 0.09223 0.71169 0.0
H2774 H 0.28696 0.08414 0.73618 0.0
H2775 H 0.33738 0.12154 0.81797 0.0
H2776 H 0.3374 0.10694 0.79567 0.0
H2777 H 0.29026 0.09383 0.78386 0.0
H2778 H 0.29031 0.10895 0.80609 0.0
H2779 H 0.30781 0.10205 0.75985 0.0
H2780 H 0.29733 0.06763 0.79831 0.0
H2781 H 0.30073 0.05944 0.82283 0.0
H2782 H 0.34549 0.06775 0.81273 0.0
H2783 H 0.3425 0.07629 0.78825 0.0
C2784 C 0.31256 0.05082 0.71414 0.0
C2785 C 0.32757 0.05356 0.71273 0.0
C2786 C 0.30936 0.05784 0.72616 0.0
C2787 C 0.3211 0.06754 0.73698 0.0
C2788 C 0.33606 0.07021 0.73561 0.0
C2789 C 0.3393 0.06338 0.72354 0.0
C2790 C 0.31792 0.0749 0.74987 0.0
C2791 C 0.32009 0.07086 0.76404 0.0
C2792 C 0.31303 0.08596 0.74829 0.0
C2793 C 0.31079 0.09084 0.73359 0.0
C2794 C 0.32295 0.0974 0.72414 0.0
C2795 C 0.32071 0.10191 0.71027 0.0
C2796 C 0.30639 0.10001 0.70577 0.0
C2797 C 0.29429 0.09365 0.71517 0.0
C2798 C 0.29647 0.08912 0.72905 0.0
C2799 C 0.32708 0.1158 0.81053 0.0
C2800 C 0.31385 0.11645 0.81378 0.0
C2801 C 0.32705 0.1073 0.79786 0.0
C2802 C 0.31376 0.09911 0.78824 0.0
C2803 C 0.30061 0.10001 0.79121 0.0
C2804 C 0.30063 0.10855 0.80393 0.0
C2805 C 0.31373 0.08953 0.77521 0.0
C2806 C 0.31091 0.09308 0.76101 0.0
C2807 C 0.31787 0.07788 0.77674 0.0
C2808 C 0.31973 0.07271 0.79146 0.0
C2809 C 0.30796 0.06784 0.80135 0.0
C2810 C 0.3098 0.06312 0.81525 0.0
C2811 C 0.32332 0.06309 0.81933 0.0
C2812 C 0.33503 0.06779 0.80954 0.0
C2813 C 0.33326 0.07256 0.79565 0.0
H2814 H 0.3247 0.05937 0.83006 0.0
H2815 H 0.30468 0.10351 0.69503 0.0
H2816 H 0.96395 0.25497 0.75844 0.0
H2817 H 0.9505 0.23806 0.77831 0.0
H2818 H 0.90742 0.23221 0.76033 0.0
H2819 H 0.92076 0.2492 0.7407 0.0
H2820 H 0.91159 0.24019 0.78928 0.0
H2821 H 0.91604 0.20263 0.75701 0.0
H2822 H 0.93007 0.19269 0.74263 0.0
H2823 H 0.9559 0.19451 0.78225 0.0
H2824 H 0.94216 0.20467 0.79684 0.0
H2825 H 0.85503 0.17829 0.82573 0.0
H2826 H 0.87176 0.19385 0.80684 0.0
H2827 H 0.91097 0.19654 0.83089 0.0
H2828 H 0.89421 0.1809 0.84993 0.0
H2829 H 0.91131 0.19138 0.80088 0.0
H2830 H 0.90589 0.22738 0.83336 0.0
H2831 H 0.89185 0.2372 0.84789 0.0
H2832 H 0.86825 0.23867 0.80805 0.0
H2833 H 0.88198 0.22864 0.79328 0.0
C2834 C 0.95158 0.24992 0.75866 0.0
C2835 C 0.9434 0.25344 0.74806 0.0
C2836 C 0.94391 0.24024 0.76999 0.0
C2837 C 0.92794 0.23385 0.77079 0.0
C2838 C 0.91975 0.23707 0.75997 0.0
C2839 C 0.92739 0.24675 0.74873 0.0
C2840 C 0.91973 0.22443 0.78322 0.0
C2841 C 0.91141 0.22943 0.7917 0.0
C2842 C 0.91996 0.21071 0.78675 0.0
C2843 C 0.9282 0.20458 0.77798 0.0
C2844 C 0.92481 0.20104 0.76263 0.0
C2845 C 0.93269 0.19534 0.75445 0.0
C2846 C 0.9439 0.19302 0.76151 0.0
C2847 C 0.94723 0.19635 0.77678 0.0
C2848 C 0.93939 0.20206 0.78502 0.0
C2849 C 0.86723 0.18225 0.82705 0.0
C2850 C 0.87335 0.17856 0.83941 0.0
C2851 C 0.87677 0.1911 0.81623 0.0
C2852 C 0.89265 0.19657 0.8176 0.0
C2853 C 0.89875 0.19246 0.82965 0.0
C2854 C 0.88917 0.18353 0.8405 0.0
C2855 C 0.90283 0.20694 0.80659 0.0
C2856 C 0.91158 0.20219 0.79848 0.0
C2857 C 0.90306 0.22096 0.80339 0.0
C2858 C 0.89488 0.22714 0.81222 0.0
C2859 C 0.89763 0.22969 0.8277 0.0
C2860 C 0.88974 0.23531 0.83598 0.0
C2861 C 0.87915 0.23853 0.8289 0.0
C2862 C 0.87645 0.23617 0.81352 0.0
C2863 C 0.8843 0.23053 0.80519 0.0
H2864 H 0.87305 0.24288 0.83533 0.0
H2865 H 0.94999 0.1886 0.75516 0.0
H2866 H 0.74976 0.69579 0.72437 0.0
H2867 H 0.76478 0.70017 0.74781 0.0
H2868 H 0.76224 0.65554 0.73965 0.0
H2869 H 0.74711 0.65102 0.71636 0.0
H2870 H 0.75412 0.65842 0.76681 0.0
H2871 H 0.79584 0.69018 0.73688 0.0
H2872 H 0.80995 0.71103 0.72001 0.0
H2873 H 0.81274 0.74563 0.75225 0.0
H2874 H 0.79844 0.72494 0.76925 0.0
H2875 H 0.80572 0.66301 0.82368 0.0
H2876 H 0.79496 0.6625 0.7989 0.0
H2877 H 0.79676 0.70622 0.81056 0.0
H2878 H 0.80744 0.70675 0.83548 0.0
H2879 H 0.80538 0.70483 0.78198 0.0
H2880 H 0.76372 0.67329 0.81177 0.0
H2881 H 0.74966 0.65259 0.82881 0.0
H2882 H 0.74652 0.6177 0.79671 0.0
H2883 H 0.76079 0.63825 0.77956 0.0
C2884 C 0.75256 0.68701 0.72751 0.0
C2885 C 0.74722 0.67305 0.71857 0.0
C2886 C 0.76118 0.68955 0.74087 0.0
C2887 C 0.76468 0.6782 0.74545 0.0
C2888 C 0.75965 0.66443 0.73635 0.0
C2889 C 0.75103 0.66189 0.72303 0.0
C2890 C 0.77278 0.68017 0.76009 0.0
C2891 C 0.76542 0.66846 0.77002 0.0
C2892 C 0.78731 0.69352 0.76448 0.0
C2893 C 0.79593 0.70598 0.75428 0.0
C2894 C 0.79934 0.70221 0.74033 0.0
C2895 C 0.8074 0.71401 0.73075 0.0
C2896 C 0.8122 0.72964 0.73503 0.0
C2897 C 0.80899 0.73351 0.74893 0.0
C2898 C 0.80092 0.72176 0.75855 0.0
C2899 C 0.80384 0.67253 0.82098 0.0
C2900 C 0.80724 0.68482 0.83159 0.0
C2901 C 0.79776 0.67226 0.8068 0.0
C2902 C 0.79487 0.68421 0.80298 0.0
C2903 C 0.79891 0.69688 0.8133 0.0
C2904 C 0.80502 0.69717 0.82752 0.0
C2905 C 0.7868 0.68294 0.78851 0.0
C2906 C 0.79409 0.69479 0.7787 0.0
C2907 C 0.77216 0.66974 0.7842 0.0
C2908 C 0.76345 0.65733 0.79444 0.0
C2909 C 0.76014 0.66122 0.80839 0.0
C2910 C 0.75212 0.64951 0.81806 0.0
C2911 C 0.74724 0.63385 0.81386 0.0
C2912 C 0.75033 0.62985 0.79995 0.0
C2913 C 0.75837 0.64152 0.79025 0.0
H2914 H 0.74103 0.6248 0.82136 0.0
H2915 H 0.81844 0.73876 0.7276 0.0
H2916 H 0.7501 0.67993 0.64147 0.0
H2917 H 0.76048 0.67662 0.61849 0.0
H2918 H 0.73586 0.62642 0.6215 0.0
H2919 H 0.72502 0.62959 0.64439 0.0
H2920 H 0.77158 0.64514 0.61466 0.0
H2921 H 0.71973 0.634 0.59928 0.0
H2922 H 0.69899 0.64042 0.5988 0.0
H2923 H 0.72872 0.68398 0.57984 0.0
H2924 H 0.74972 0.67793 0.58048 0.0
H2925 H 0.78788 0.62795 0.54384 0.0
H2926 H 0.77462 0.62686 0.56598 0.0
H2927 H 0.77669 0.67035 0.55658 0.0
H2928 H 0.78855 0.6707 0.53358 0.0
H2929 H 0.75125 0.65333 0.56718 0.0
H2930 H 0.80284 0.66725 0.58249 0.0
H2931 H 0.82588 0.66444 0.58391 0.0
H2932 H 0.80031 0.62066 0.60401 0.0
H2933 H 0.77704 0.62308 0.6025 0.0
C2934 C 0.74696 0.66818 0.6373 0.0
C2935 C 0.73674 0.655 0.64469 0.0
C2936 C 0.75289 0.66633 0.62419 0.0
C2937 C 0.74891 0.6513 0.61837 0.0
C2938 C 0.73906 0.63811 0.62589 0.0
C2939 C 0.73286 0.63994 0.6389 0.0
C2940 C 0.75469 0.64948 0.60411 0.0
C2941 C 0.767 0.64662 0.6042 0.0
C2942 C 0.74906 0.65207 0.59065 0.0
C2943 C 0.73634 0.65558 0.59007 0.0
C2944 C 0.72189 0.64501 0.59515 0.0
C2945 C 0.71008 0.64858 0.59483 0.0
C2946 C 0.71254 0.66263 0.58935 0.0
C2947 C 0.72682 0.67312 0.58412 0.0
C2948 C 0.73868 0.66962 0.58445 0.0
C2949 C 0.78519 0.6371 0.54619 0.0
C2950 C 0.78945 0.64949 0.53682 0.0
C2951 C 0.77782 0.6366 0.55909 0.0
C2952 C 0.77501 0.64875 0.56323 0.0
C2953 C 0.77884 0.66089 0.55373 0.0
C2954 C 0.78585 0.66119 0.54063 0.0
C2955 C 0.76828 0.64896 0.57754 0.0
C2956 C 0.75582 0.65163 0.57753 0.0
C2957 C 0.77411 0.64666 0.59114 0.0
C2958 C 0.78815 0.64527 0.59224 0.0
C2959 C 0.8021 0.65697 0.58713 0.0
C2960 C 0.8152 0.65545 0.58796 0.0
C2961 C 0.81455 0.64236 0.59401 0.0
C2962 C 0.80079 0.63078 0.5993 0.0
C2963 C 0.78765 0.63222 0.59847 0.0
H2964 H 0.8247 0.64121 0.59463 0.0
H2965 H 0.70338 0.66536 0.58911 0.0
H2966 H 0.3709 0.06788 0.6425 0.0
H2967 H 0.37522 0.08441 0.62166 0.0
H2968 H 0.3285 0.07517 0.62232 0.0
H2969 H 0.3241 0.05866 0.643 0.0
H2970 H 0.33592 0.07168 0.59445 0.0
H2971 H 0.35838 0.1098 0.6365 0.0
H2972 H 0.37604 0.12305 0.65868 0.0
H2973 H 0.41501 0.13589 0.63274 0.0
H2974 H 0.39755 0.12252 0.61041 0.0
H2975 H 0.33359 0.13107 0.55677 0.0
H2976 H 0.33398 0.11449 0.57576 0.0
H2977 H 0.38035 0.12704 0.56633 0.0
H2978 H 0.37993 0.14337 0.54687 0.0
H2979 H 0.37589 0.12825 0.59694 0.0
H2980 H 0.35345 0.09243 0.55437 0.0
H2981 H 0.33576 0.07964 0.53213 0.0
H2982 H 0.29687 0.0625 0.55888 0.0
H2983 H 0.31432 0.07541 0.58127 0.0
C2984 C 0.36159 0.06944 0.63821 0.0
C2985 C 0.34717 0.062 0.64438 0.0
C2986 C 0.36407 0.07889 0.62634 0.0
C2987 C 0.35219 0.08105 0.62048 0.0
C2988 C 0.33781 0.07362 0.62664 0.0
C2989 C 0.33534 0.06424 0.6385 0.0
C2990 C 0.35453 0.09091 0.60784 0.0
C2991 C 0.3446 0.08407 0.59503 0.0
C2992 C 0.36617 0.10696 0.60843 0.0
C2993 C 0.37666 0.11499 0.62183 0.0
C2994 C 0.37071 0.11532 0.63555 0.0
C2995 C 0.38068 0.12288 0.64814 0.0
C2996 C 0.39664 0.13026 0.64713 0.0
C2997 C 0.40265 0.13014 0.63351 0.0
C2998 C 0.39272 0.12258 0.62088 0.0
C2999 C 0.34382 0.13016 0.55853 0.0
C3000 C 0.35666 0.13843 0.55014 0.0
C3001 C 0.34405 0.12075 0.56947 0.0
C3002 C 0.35713 0.11943 0.57232 0.0
C3003 C 0.37014 0.12791 0.56426 0.0
C3004 C 0.36988 0.13727 0.55319 0.0
C3005 C 0.35702 0.10908 0.58375 0.0
C3006 C 0.36736 0.11581 0.59629 0.0
C3007 C 0.34577 0.09292 0.58292 0.0
C3008 C 0.3352 0.085 0.5695 0.0
C3009 C 0.34112 0.08604 0.55551 0.0
C3010 C 0.33114 0.07875 0.54287 0.0
C3011 C 0.3152 0.07028 0.54409 0.0
C3012 C 0.30922 0.06907 0.55796 0.0
C3013 C 0.31915 0.07636 0.57063 0.0
H3014 H 0.30749 0.06465 0.53429 0.0
H3015 H 0.40434 0.13611 0.65689 0.0
H3016 H 0.95274 0.25789 0.66968 0.0
H3017 H 0.9385 0.24837 0.64544 0.0
H3018 H 0.90837 0.26547 0.65804 0.0
H3019 H 0.92277 0.27533 0.68226 0.0
H3020 H 0.8933 0.23354 0.64367 0.0
H3021 H 0.93396 0.2863 0.63758 0.0
H3022 H 0.96088 0.30816 0.63902 0.0
H3023 H 0.97303 0.28148 0.60965 0.0
H3024 H 0.94627 0.25926 0.60837 0.0
H3025 H 0.85828 0.22279 0.5712 0.0
H3026 H 0.87074 0.23366 0.59587 0.0
H3027 H 0.91023 0.23054 0.58367 0.0
H3028 H 0.89843 0.22087 0.55872 0.0
H3029 H 0.91992 0.25665 0.59846 0.0
H3030 H 0.88125 0.20341 0.60575 0.0
H3031 H 0.85498 0.18031 0.60453 0.0
H3032 H 0.83983 0.20616 0.63137 0.0
H3033 H 0.86597 0.2295 0.63259 0.0
C3034 C 0.94302 0.25954 0.66732 0.0
C3035 C 0.93885 0.26736 0.67782 0.0
C3036 C 0.93495 0.25414 0.65348 0.0
C3037 C 0.92247 0.25631 0.64998 0.0
C3038 C 0.91799 0.26372 0.66057 0.0
C3039 C 0.92623 0.26936 0.67435 0.0
C3040 C 0.91434 0.25111 0.6351 0.0
C3041 C 0.899 0.23871 0.63376 0.0
C3042 C 0.92198 0.25766 0.62224 0.0
C3043 C 0.93812 0.27102 0.62303 0.0
C3044 C 0.9424 0.285 0.63158 0.0
C3045 C 0.95764 0.29747 0.63236 0.0
C3046 C 0.96868 0.29618 0.62449 0.0
C3047 C 0.96449 0.28244 0.61579 0.0
C3048 C 0.94929 0.26989 0.61505 0.0
C3049 C 0.8697 0.2246 0.57368 0.0
C3050 C 0.87727 0.22081 0.56293 0.0
C3051 C 0.87673 0.23063 0.58789 0.0
C3052 C 0.89133 0.23268 0.59175 0.0
C3053 C 0.89893 0.22901 0.58101 0.0
C3054 C 0.89204 0.22325 0.56677 0.0
C3055 C 0.89886 0.2388 0.60688 0.0
C3056 C 0.91412 0.25145 0.60831 0.0
C3057 C 0.89123 0.23228 0.61981 0.0
C3058 C 0.87552 0.21825 0.61913 0.0
C3059 C 0.87228 0.20421 0.6113 0.0
C3060 C 0.85743 0.19107 0.61063 0.0
C3061 C 0.84574 0.19178 0.61783 0.0
C3062 C 0.84889 0.20563 0.62577 0.0
C3063 C 0.86373 0.21881 0.62647 0.0
H3064 H 0.83424 0.1816 0.6173 0.0
H3065 H 0.98047 0.30585 0.62509 0.0
H3066 H 0.36547 0.28948 0.67693 0.0
H3067 H 0.37139 0.27527 0.65794 0.0
H3068 H 0.3228 0.24585 0.6453 0.0
H3069 H 0.31684 0.25958 0.66457 0.0
H3070 H 0.3356 0.22866 0.64498 0.0
H3071 H 0.34804 0.27846 0.62591 0.0
H3072 H 0.36139 0.30737 0.62627 0.0
H3073 H 0.40522 0.30967 0.6278 0.0
H3074 H 0.39212 0.28076 0.62763 0.0
H3075 H 0.33216 0.20518 0.56986 0.0
H3076 H 0.33135 0.21706 0.59362 0.0
H3077 H 0.38028 0.23632 0.6021 0.0
H3078 H 0.38117 0.22399 0.5784 0.0
H3079 H 0.37081 0.25834 0.60652 0.0
H3080 H 0.35694 0.20736 0.62165 0.0
H3081 H 0.34253 0.17839 0.62003 0.0
H3082 H 0.30013 0.17824 0.62471 0.0
H3083 H 0.31425 0.20722 0.62614 0.0
C3084 C 0.35607 0.27991 0.67014 0.0
C3085 C 0.3407 0.27568 0.67216 0.0
C3086 C 0.35946 0.27185 0.65926 0.0
C3087 C 0.34755 0.25963 0.65002 0.0
C3088 C 0.33219 0.2552 0.65228 0.0
C3089 C 0.32879 0.2631 0.66327 0.0
C3090 C 0.35095 0.25165 0.63771 0.0
C3091 C 0.34324 0.23516 0.63654 0.0
C3092 C 0.36124 0.26012 0.62688 0.0
C3093 C 0.36912 0.27748 0.62694 0.0
C3094 C 0.36053 0.28514 0.62644 0.0
C3095 C 0.36805 0.30152 0.62659 0.0
C3096 C 0.38415 0.31036 0.62711 0.0
C3097 C 0.39276 0.30282 0.62743 0.0
C3098 C 0.38529 0.28644 0.6273 0.0
C3099 C 0.34272 0.21158 0.57689 0.0
C3100 C 0.35672 0.2135 0.57222 0.0
C3101 C 0.34223 0.21845 0.59046 0.0
C3102 C 0.35573 0.22744 0.59966 0.0
C3103 C 0.36974 0.22939 0.59514 0.0
C3104 C 0.37022 0.22239 0.58157 0.0
C3105 C 0.35515 0.2354 0.61364 0.0
C3106 C 0.36338 0.25187 0.61512 0.0
C3107 C 0.34519 0.22692 0.62464 0.0
C3108 C 0.33666 0.20948 0.62391 0.0
C3109 C 0.34453 0.20115 0.62223 0.0
C3110 C 0.33641 0.18473 0.62136 0.0
C3111 C 0.32042 0.17648 0.62224 0.0
C3112 C 0.31252 0.18465 0.62403 0.0
C3113 C 0.32058 0.20107 0.62489 0.0
H3114 H 0.31416 0.16377 0.62156 0.0
H3115 H 0.38995 0.32304 0.62722 0.0
H3116 H 0.73007 0.06015 0.62296 0.0
H3117 H 0.74464 0.07751 0.60402 0.0
H3118 H 0.73632 0.11329 0.62263 0.0
H3119 H 0.72135 0.09571 0.64158 0.0
H3120 H 0.7338 0.11149 0.59244 0.0
H3121 H 0.77078 0.11609 0.62986 0.0
H3122 H 0.78312 0.10665 0.64741 0.0
H3123 H 0.7931 0.08435 0.61132 0.0
H3124 H 0.78062 0.09347 0.59356 0.0
H3125 H 0.79405 0.17005 0.55165 0.0
H3126 H 0.77771 0.15541 0.57128 0.0
H3127 H 0.78138 0.11515 0.55744 0.0
H3128 H 0.79755 0.12962 0.53776 0.0
H3129 H 0.78698 0.12183 0.58699 0.0
H3130 H 0.74848 0.1162 0.54976 0.0
H3131 H 0.73614 0.12587 0.53245 0.0
H3132 H 0.72948 0.15086 0.5686 0.0
H3133 H 0.74197 0.1415 0.58612 0.0
C3134 C 0.73126 0.07168 0.623 0.0
C3135 C 0.72469 0.07663 0.63383 0.0
C3136 C 0.73964 0.08162 0.61219 0.0
C3137 C 0.74183 0.09682 0.61208 0.0
C3138 C 0.73484 0.10164 0.62257 0.0
C3139 C 0.72633 0.09161 0.63339 0.0
C3140 C 0.75177 0.10766 0.60119 0.0
C3141 C 0.74552 0.11399 0.5914 0.0
C3142 C 0.76701 0.11078 0.59974 0.0
C3143 C 0.77466 0.10538 0.61038 0.0
C3144 C 0.77551 0.10909 0.62567 0.0
C3145 C 0.78255 0.1038 0.63566 0.0
C3146 C 0.78887 0.09488 0.63049 0.0
C3147 C 0.7882 0.09126 0.61531 0.0
C3148 C 0.78116 0.0965 0.60528 0.0
C3149 C 0.7912 0.15801 0.55267 0.0
C3150 C 0.79716 0.15102 0.54317 0.0
C3151 C 0.78189 0.14967 0.56391 0.0
C3152 C 0.77829 0.13417 0.5658 0.0
C3153 C 0.78408 0.12713 0.55624 0.0
C3154 C 0.79337 0.13544 0.54502 0.0
C3155 C 0.76889 0.12533 0.57798 0.0
C3156 C 0.7753 0.11944 0.58809 0.0
C3157 C 0.75386 0.12271 0.57974 0.0
C3158 C 0.74631 0.1283 0.56922 0.0
C3159 C 0.7445 0.12387 0.55401 0.0
C3160 C 0.73746 0.12927 0.54416 0.0
C3161 C 0.73207 0.13901 0.54942 0.0
C3162 C 0.73368 0.14334 0.56454 0.0
C3163 C 0.74073 0.13798 0.57443 0.0
H3164 H 0.72662 0.14319 0.54178 0.0
H3165 H 0.7943 0.09079 0.63824 0.0
H3166 H 0.93008 0.68891 0.66403 0.0
H3167 H 0.91363 0.68496 0.64189 0.0
H3168 H 0.88475 0.6361 0.65024 0.0
H3169 H 0.90167 0.63989 0.67209 0.0
H3170 H 0.88981 0.6378 0.6228 0.0
H3171 H 0.87295 0.66437 0.65523 0.0
H3172 H 0.87543 0.68498 0.67334 0.0
H3173 H 0.89706 0.71967 0.64177 0.0
H3174 H 0.8949 0.69931 0.62353 0.0
H3175 H 0.83797 0.62998 0.56195 0.0
H3176 H 0.84733 0.63087 0.58756 0.0
H3177 H 0.88544 0.67763 0.58339 0.0
H3178 H 0.87649 0.67673 0.55782 0.0
H3179 H 0.8715 0.67438 0.61018 0.0
H3180 H 0.8909 0.64745 0.57932 0.0
H3181 H 0.88781 0.62642 0.56137 0.0
H3182 H 0.8599 0.59161 0.59083 0.0
H3183 H 0.86266 0.61245 0.60887 0.0
C3184 C 0.92014 0.67736 0.66123 0.0
C3185 C 0.91713 0.66471 0.66978 0.0
C3186 C 0.91066 0.67513 0.64861 0.0
C3187 C 0.89774 0.66028 0.64449 0.0
C3188 C 0.8946 0.64767 0.65318 0.0
C3189 C 0.90425 0.64985 0.66568 0.0
C3190 C 0.88812 0.65777 0.63064 0.0
C3191 C 0.88552 0.64561 0.62022 0.0
C3192 C 0.88261 0.66802 0.62712 0.0
C3193 C 0.88384 0.68031 0.63803 0.0
C3194 C 0.87832 0.67641 0.65217 0.0
C3195 C 0.87966 0.68805 0.66246 0.0
C3196 C 0.88642 0.70363 0.65872 0.0
C3197 C 0.89183 0.7076 0.64466 0.0
C3198 C 0.89052 0.696 0.63433 0.0
C3199 C 0.84838 0.64042 0.56648 0.0
C3200 C 0.85649 0.65327 0.55781 0.0
C3201 C 0.85364 0.64094 0.58113 0.0
C3202 C 0.8671 0.65431 0.58733 0.0
C3203 C 0.87497 0.66726 0.57884 0.0
C3204 C 0.86979 0.66673 0.56422 0.0
C3205 C 0.87356 0.65467 0.6024 0.0
C3206 C 0.87556 0.66643 0.61298 0.0
C3207 C 0.87838 0.64397 0.60614 0.0
C3208 C 0.87683 0.63148 0.59535 0.0
C3209 C 0.88401 0.6353 0.58191 0.0
C3210 C 0.88233 0.62343 0.57174 0.0
C3211 C 0.87362 0.60769 0.57494 0.0
C3212 C 0.86661 0.6038 0.58835 0.0
C3213 C 0.86823 0.61564 0.59855 0.0
H3214 H 0.87234 0.59851 0.56705 0.0
H3215 H 0.88746 0.71262 0.6667 0.0
H3216 H 0.90869 0.66834 0.73553 0.0
H3217 H 0.89946 0.67423 0.75807 0.0
H3218 H 0.94622 0.70826 0.77368 0.0
H3219 H 0.95559 0.7025 0.75096 0.0
H3220 H 0.92914 0.68659 0.79459 0.0
H3221 H 0.92404 0.72174 0.76349 0.0
H3222 H 0.91628 0.7297 0.74081 0.0
H3223 H 0.8687 0.69651 0.74645 0.0
H3224 H 0.87618 0.68817 0.76905 0.0
H3225 H 0.89986 0.70575 0.85775 0.0
H3226 H 0.91411 0.70856 0.83568 0.0
H3227 H 0.87125 0.67901 0.80975 0.0
H3228 H 0.85695 0.67676 0.83151 0.0
H3229 H 0.88979 0.70282 0.79467 0.0
H3230 H 0.89463 0.66501 0.82306 0.0
H3231 H 0.90165 0.65562 0.84518 0.0
H3232 H 0.94886 0.69239 0.84413 0.0
H3233 H 0.94207 0.70212 0.82209 0.0
C3234 C 0.91701 0.67719 0.74369 0.0
C3235 C 0.93286 0.68497 0.7415 0.0
C3236 C 0.91171 0.68058 0.75653 0.0
C3237 C 0.92215 0.69175 0.76749 0.0
C3238 C 0.93799 0.69964 0.76531 0.0
C3239 C 0.94331 0.69639 0.75234 0.0
C3240 C 0.91639 0.69449 0.78145 0.0
C3241 C 0.9208 0.69049 0.7947 0.0
C3242 C 0.90526 0.69923 0.78148 0.0
C3243 C 0.90069 0.70425 0.76792 0.0
C3244 C 0.91193 0.71605 0.75984 0.0
C3245 C 0.90758 0.72064 0.747 0.0
C3246 C 0.89201 0.71359 0.74218 0.0
C3247 C 0.88076 0.70195 0.7502 0.0
C3248 C 0.88504 0.6973 0.76303 0.0
C3249 C 0.89347 0.70001 0.84731 0.0
C3250 C 0.87726 0.69089 0.84644 0.0
C3251 C 0.90164 0.70151 0.83473 0.0
C3252 C 0.89377 0.69382 0.82109 0.0
C3253 C 0.87759 0.68502 0.82015 0.0
C3254 C 0.86943 0.68358 0.83266 0.0
C3255 C 0.90224 0.69456 0.80778 0.0
C3256 C 0.89834 0.6992 0.79465 0.0
C3257 C 0.91372 0.69025 0.80782 0.0
C3258 C 0.91781 0.68441 0.82105 0.0
C3259 C 0.90648 0.67117 0.82762 0.0
C3260 C 0.91042 0.66577 0.84013 0.0
C3261 C 0.92568 0.67344 0.84609 0.0
C3262 C 0.93704 0.68649 0.83952 0.0
C3263 C 0.93315 0.69195 0.82702 0.0
H3264 H 0.92871 0.66924 0.85577 0.0
H3265 H 0.88867 0.71717 0.73224 0.0
H3266 H 0.33907 0.28908 0.75156 0.0
H3267 H 0.33484 0.27156 0.77127 0.0
H3268 H 0.29285 0.23559 0.74762 0.0
H3269 H 0.29681 0.2534 0.72794 0.0
H3270 H 0.28952 0.23563 0.77698 0.0
H3271 H 0.32581 0.23435 0.74565 0.0
H3272 H 0.34894 0.24517 0.73133 0.0
H3273 H 0.37784 0.26692 0.77127 0.0
H3274 H 0.35487 0.25643 0.78582 0.0
H3275 H 0.29326 0.17542 0.81761 0.0
H3276 H 0.29179 0.19103 0.79799 0.0
H3277 H 0.3293 0.23304 0.82057 0.0
H3278 H 0.33047 0.21773 0.84051 0.0
H3279 H 0.33323 0.22748 0.79017 0.0
H3280 H 0.29555 0.22864 0.82109 0.0
H3281 H 0.27187 0.21663 0.83461 0.0
H3282 H 0.24485 0.19302 0.79413 0.0
H3283 H 0.26842 0.20471 0.78039 0.0
C3284 C 0.32884 0.2775 0.75061 0.0
C3285 C 0.31835 0.27252 0.73816 0.0
C3286 C 0.32647 0.26747 0.76186 0.0
C3287 C 0.31373 0.25213 0.76074 0.0
C3288 C 0.30281 0.24735 0.74865 0.0
C3289 C 0.30509 0.2575 0.73743 0.0
C3290 C 0.31237 0.24101 0.77192 0.0
C3291 C 0.29897 0.23365 0.77971 0.0
C3292 C 0.32472 0.23844 0.7755 0.0
C3293 C 0.3386 0.2447 0.76681 0.0
C3294 C 0.33709 0.24153 0.75137 0.0
C3295 C 0.35018 0.2476 0.74321 0.0
C3296 C 0.36485 0.25675 0.75038 0.0
C3297 C 0.36647 0.25983 0.76573 0.0
C3298 C 0.35342 0.25382 0.77394 0.0
C3299 C 0.30099 0.18802 0.81858 0.0
C3300 C 0.31208 0.19529 0.83061 0.0
C3301 C 0.30016 0.1969 0.80732 0.0
C3302 C 0.31046 0.21315 0.80786 0.0
C3303 C 0.32132 0.22048 0.81994 0.0
C3304 C 0.32204 0.21167 0.83127 0.0
C3305 C 0.31058 0.22248 0.79547 0.0
C3306 C 0.32375 0.22941 0.78737 0.0
C3307 C 0.29793 0.22441 0.79149 0.0
C3308 C 0.28377 0.2174 0.79974 0.0
C3309 C 0.28458 0.22076 0.81509 0.0
C3310 C 0.27118 0.21404 0.82279 0.0
C3311 C 0.25687 0.20403 0.81524 0.0
C3312 C 0.25594 0.20075 0.79997 0.0
C3313 C 0.26932 0.20743 0.79222 0.0
H3314 H 0.2465 0.19884 0.82122 0.0
H3315 H 0.37496 0.26144 0.74404 0.0
H3316 H 0.746 0.0885 0.70012 0.0
H3317 H 0.76262 0.09761 0.72307 0.0
H3318 H 0.7481 0.04964 0.7317 0.0
H3319 H 0.73145 0.04045 0.7088 0.0
H3320 H 0.74509 0.0659 0.75522 0.0
H3321 H 0.78408 0.07347 0.72225 0.0
H3322 H 0.79921 0.08334 0.70041 0.0
H3323 H 0.81505 0.13083 0.71671 0.0
H3324 H 0.79982 0.12123 0.73855 0.0
H3325 H 0.79265 0.08422 0.82012 0.0
H3326 H 0.78211 0.07424 0.79479 0.0
H3327 H 0.79841 0.12154 0.78245 0.0
H3328 H 0.80985 0.13172 0.80757 0.0
H3329 H 0.80119 0.10473 0.76044 0.0
H3330 H 0.76113 0.09783 0.79191 0.0
H3331 H 0.74581 0.08877 0.81375 0.0
H3332 H 0.73144 0.04095 0.80002 0.0
H3333 H 0.74688 0.04976 0.77821 0.0
C3334 C 0.74652 0.07992 0.7068 0.0
C3335 C 0.7374 0.06377 0.7027 0.0
C3336 C 0.75606 0.08514 0.71988 0.0
C3337 C 0.75662 0.07429 0.72905 0.0
C3338 C 0.74783 0.05819 0.72476 0.0
C3339 C 0.73836 0.05297 0.71167 0.0
C3340 C 0.76549 0.07966 0.74361 0.0
C3341 C 0.75741 0.07417 0.75635 0.0
C3342 C 0.78147 0.0908 0.74507 0.0
C3343 C 0.79069 0.09662 0.73198 0.0
C3344 C 0.79068 0.08601 0.72112 0.0
C3345 C 0.7993 0.09156 0.70875 0.0
C3346 C 0.80806 0.1077 0.70716 0.0
C3347 C 0.80825 0.11833 0.71795 0.0
C3348 C 0.79964 0.11284 0.73034 0.0
C3349 C 0.79437 0.09256 0.81196 0.0
C3350 C 0.80196 0.10879 0.81596 0.0
C3351 C 0.78817 0.08681 0.7975 0.0
C3352 C 0.78916 0.09712 0.78681 0.0
C3353 C 0.7974 0.11335 0.79055 0.0
C3354 C 0.80377 0.11914 0.80497 0.0
C3355 C 0.78078 0.09094 0.77204 0.0
C3356 C 0.7889 0.09634 0.75928 0.0
C3357 C 0.76477 0.07982 0.77053 0.0
C3358 C 0.75528 0.07447 0.78351 0.0
C3359 C 0.75477 0.08539 0.7936 0.0
C3360 C 0.74607 0.0803 0.80597 0.0
C3361 C 0.73769 0.0643 0.8083 0.0
C3362 C 0.73796 0.05335 0.79822 0.0
C3363 C 0.74668 0.05838 0.78585 0.0
H3364 H 0.73097 0.06038 0.81789 0.0
H3365 H 0.81472 0.11197 0.69758 0.0
H3366 H 0.0174 0.33488 0.05121 0.0
H3367 H 0.03496 0.33105 0.06742 0.0
H3368 H 0.07376 0.36612 0.04575 0.0
H3369 H 0.05612 0.36988 0.02926 0.0
H3370 H 0.07695 0.34102 0.05084 0.0
H3371 H 0.06634 0.37559 0.07911 0.0
H3372 H 0.05043 0.38536 0.09003 0.0
H3373 H 0.02802 0.34437 0.11478 0.0
H3374 H 0.04374 0.33427 0.10388 0.0
H3375 H 0.13224 0.35152 0.10874 0.0
H3376 H 0.11583 0.35702 0.09234 0.0
H3377 H 0.07539 0.31644 0.1063 0.0
H3378 H 0.09182 0.31075 0.12262 0.0
H3379 H 0.0742 0.34576 0.10525 0.0
H3380 H 0.08596 0.31168 0.07566 0.0
H3381 H 0.10357 0.30394 0.06504 0.0
H3382 H 0.12582 0.34684 0.04301 0.0
H3383 H 0.1085 0.35497 0.05372 0.0
C3384 C 0.02966 0.34175 0.04983 0.0
C3385 C 0.0354 0.35275 0.03901 0.0
C3386 C 0.03969 0.33959 0.05916 0.0
C3387 C 0.05568 0.34847 0.05795 0.0
C3388 C 0.06145 0.35919 0.0469 0.0
C3389 C 0.05138 0.36134 0.03751 0.0
C3390 C 0.06626 0.34659 0.0684 0.0
C3391 C 0.07651 0.34229 0.06273 0.0
C3392 C 0.0656 0.34812 0.08392 0.0
C3393 C 0.05612 0.35411 0.09057 0.0
C3394 C 0.05794 0.3686 0.0868 0.0
C3395 C 0.04897 0.3742 0.093 0.0
C3396 C 0.03817 0.36546 0.10306 0.0
C3397 C 0.03637 0.35112 0.10697 0.0
C3398 C 0.04534 0.34546 0.1008 0.0
C3399 C 0.11983 0.34391 0.10844 0.0
C3400 C 0.11323 0.33077 0.11697 0.0
C3401 C 0.11051 0.347 0.09904 0.0
C3402 C 0.09445 0.3371 0.09812 0.0
C3403 C 0.08778 0.3242 0.10691 0.0
C3404 C 0.09713 0.32095 0.11615 0.0
C3405 C 0.08466 0.33999 0.08766 0.0
C3406 C 0.07462 0.34453 0.09335 0.0
C3407 C 0.08571 0.33894 0.07218 0.0
C3408 C 0.09603 0.334 0.06561 0.0
C3409 C 0.0947 0.31953 0.06866 0.0
C3410 C 0.10461 0.31506 0.0626 0.0
C3411 C 0.11581 0.3249 0.05336 0.0
C3412 C 0.11713 0.33923 0.05017 0.0
C3413 C 0.10727 0.34377 0.05622 0.0
H3414 H 0.12345 0.3214 0.04865 0.0
H3415 H 0.03122 0.36982 0.10785 0.0
H3416 H 0.61823 0.6539 0.08005 0.0
H3417 H 0.62539 0.67846 0.09433 0.0
H3418 H 0.67333 0.69575 0.08694 0.0
H3419 H 0.66625 0.67085 0.07342 0.0
H3420 H 0.67198 0.70387 0.11346 0.0
H3421 H 0.64963 0.70755 0.06726 0.0
H3422 H 0.62978 0.69911 0.04664 0.0
H3423 H 0.59778 0.69911 0.0767 0.0
H3424 H 0.61739 0.70736 0.09753 0.0
H3425 H 0.69688 0.78577 0.12814 0.0
H3426 H 0.69036 0.76012 0.11664 0.0
H3427 H 0.64514 0.73945 0.13339 0.0
H3428 H 0.65169 0.76485 0.14537 0.0
H3429 H 0.64523 0.73333 0.10251 0.0
H3430 H 0.66947 0.73107 0.1486 0.0
H3431 H 0.6906 0.74086 0.16811 0.0
H3432 H 0.72084 0.73998 0.13637 0.0
H3433 H 0.69994 0.73039 0.11662 0.0
C3434 C 0.63028 0.66297 0.08149 0.0
C3435 C 0.64169 0.66055 0.0756 0.0
C3436 C 0.63438 0.67703 0.08958 0.0
C3437 C 0.6499 0.68913 0.09149 0.0
C3438 C 0.66129 0.68663 0.08564 0.0
C3439 C 0.65723 0.67243 0.07787 0.0
C3440 C 0.65431 0.70436 0.09962 0.0
C3441 C 0.66625 0.71038 0.1109 0.0
C3442 C 0.64673 0.71283 0.09648 0.0
C3443 C 0.63493 0.70792 0.08397 0.0
C3444 C 0.63832 0.70564 0.06948 0.0
C3445 C 0.62712 0.70091 0.05776 0.0
C3446 C 0.61252 0.69854 0.06036 0.0
C3447 C 0.60909 0.70093 0.0747 0.0
C3448 C 0.62025 0.70565 0.08646 0.0
C3449 C 0.68567 0.77572 0.12966 0.0
C3450 C 0.67477 0.77742 0.13759 0.0
C3451 C 0.68194 0.76109 0.12302 0.0
C3452 C 0.66726 0.74795 0.12415 0.0
C3453 C 0.65649 0.7495 0.13232 0.0
C3454 C 0.66025 0.76405 0.13908 0.0
C3455 C 0.66283 0.73271 0.11624 0.0
C3456 C 0.65092 0.72674 0.10501 0.0
C3457 C 0.67063 0.72447 0.11922 0.0
C3458 C 0.68317 0.73016 0.13111 0.0
C3459 C 0.68066 0.73309 0.14575 0.0
C3460 C 0.69259 0.73858 0.15686 0.0
C3461 C 0.70706 0.74108 0.15347 0.0
C3462 C 0.70962 0.73805 0.13898 0.0
C3463 C 0.69774 0.73258 0.12783 0.0
H3464 H 0.71628 0.74532 0.16209 0.0
H3465 H 0.60386 0.69487 0.05127 0.0
H3466 H 0.34717 0.98027 0.05483 0.0
H3467 H 0.32467 0.96275 0.06775 0.0
H3468 H 0.30979 0.92724 0.0317 0.0
H3469 H 0.33247 0.94495 0.01849 0.0
H3470 H 0.28594 0.93092 0.04151 0.0
H3471 H 0.32487 0.92244 0.06295 0.0
H3472 H 0.35047 0.92987 0.0744 0.0
H3473 H 0.34314 0.9533 0.11145 0.0
H3474 H 0.31758 0.94621 0.10012 0.0
H3475 H 0.2284 0.8767 0.08728 0.0
H3476 H 0.24989 0.88883 0.0712 0.0
H3477 H 0.27317 0.92955 0.10216 0.0
H3478 H 0.25194 0.91737 0.1184 0.0
H3479 H 0.29238 0.91943 0.09323 0.0
H3480 H 0.25493 0.93044 0.07041 0.0
H3481 H 0.22949 0.92349 0.05887 0.0
H3482 H 0.23416 0.89529 0.02442 0.0
H3483 H 0.25956 0.9019 0.03588 0.0
C3484 C 0.33916 0.96872 0.04961 0.0
C3485 C 0.34162 0.96395 0.03566 0.0
C3486 C 0.32632 0.95869 0.05706 0.0
C3487 C 0.31568 0.94361 0.05079 0.0
C3488 C 0.31793 0.93882 0.03675 0.0
C3489 C 0.33088 0.9489 0.02926 0.0
C3490 C 0.30216 0.93313 0.05901 0.0
C3491 C 0.28731 0.92809 0.0527 0.0
C3492 C 0.30399 0.92967 0.0737 0.0
C3493 C 0.31933 0.93386 0.08063 0.0
C3494 C 0.32875 0.92927 0.07349 0.0
C3495 C 0.34326 0.9334 0.07997 0.0
C3496 C 0.34844 0.94207 0.09364 0.0
C3497 C 0.33911 0.94658 0.10087 0.0
C3498 C 0.3246 0.94249 0.09443 0.0
C3499 C 0.23813 0.88822 0.09066 0.0
C3500 C 0.23847 0.89611 0.10409 0.0
C3501 C 0.25034 0.89517 0.08143 0.0
C3502 C 0.26308 0.91012 0.08545 0.0
C3503 C 0.26344 0.918 0.09884 0.0
C3504 C 0.25124 0.9111 0.10805 0.0
C3505 C 0.27621 0.91759 0.07588 0.0
C3506 C 0.29099 0.92203 0.08196 0.0
C3507 C 0.2743 0.92047 0.061 0.0
C3508 C 0.25905 0.91651 0.0541 0.0
C3509 C 0.25047 0.92264 0.06045 0.0
C3510 C 0.23607 0.91879 0.05391 0.0
C3511 C 0.23018 0.90891 0.04095 0.0
C3512 C 0.23871 0.90291 0.03448 0.0
C3513 C 0.25311 0.90671 0.04099 0.0
H3514 H 0.21904 0.90595 0.0359 0.0
H3515 H 0.35968 0.94527 0.09863 0.0
H3516 H 0.35314 0.02425 0.01232 0.0
H3517 H 0.34703 0.04272 0.00114 0.0
H3518 H 0.38892 0.06176 0.97819 0.0
H3519 H 0.39536 0.04361 0.98979 0.0
H3520 H 0.3839 0.08458 0.98687 0.0
H3521 H 0.35372 0.03385 0.96111 0.0
H3522 H 0.3357 0.00523 0.95853 0.0
H3523 H 0.30021 0.01175 0.97638 0.0
H3524 H 0.31809 0.04041 0.97926 0.0
H3525 H 0.36056 0.11262 0.92556 0.0
H3526 H 0.36815 0.09795 0.94139 0.0
H3527 H 0.33043 0.08786 0.9686 0.0
H3528 H 0.3231 0.10317 0.95323 0.0
H3529 H 0.333 0.06117 0.95876 0.0
H3530 H 0.36394 0.11294 0.98264 0.0
H3531 H 0.38243 0.14143 0.98362 0.0
H3532 H 0.41709 0.13264 0.96723 0.0
H3533 H 0.39872 0.10409 0.96594 0.0
C3534 C 0.36115 0.03251 0.00504 0.0
C3535 C 0.37465 0.03242 0.0018 0.0
C3536 C 0.35761 0.04301 0.9986 0.0
C3537 C 0.36733 0.05337 0.98855 0.0
C3538 C 0.38121 0.05382 0.98585 0.0
C3539 C 0.38487 0.04344 0.99247 0.0
C3540 C 0.36264 0.06315 0.98032 0.0
C3541 C 0.37283 0.07943 0.98062 0.0
C3542 C 0.3481 0.05648 0.97231 0.0
C3543 C 0.33729 0.03926 0.97054 0.0
C3544 C 0.3421 0.02917 0.96459 0.0
C3545 C 0.33191 0.01294 0.96306 0.0
C3546 C 0.31683 0.00667 0.96733 0.0
C3547 C 0.3119 0.01662 0.9731 0.0
C3548 C 0.32206 0.03286 0.97468 0.0
C3549 C 0.35403 0.10759 0.93508 0.0
C3550 C 0.34125 0.1092 0.93814 0.0
C3551 C 0.35835 0.09912 0.94406 0.0
C3552 C 0.34991 0.09194 0.95619 0.0
C3553 C 0.33708 0.09335 0.95926 0.0
C3554 C 0.33286 0.10202 0.9504 0.0
C3555 C 0.35424 0.08252 0.96534 0.0
C3556 C 0.344 0.06629 0.96514 0.0
C3557 C 0.36881 0.08921 0.97322 0.0
C3558 C 0.3799 0.10637 0.97406 0.0
C3559 C 0.37546 0.11708 0.97912 0.0
C3560 C 0.38593 0.13324 0.97976 0.0
C3561 C 0.40091 0.13884 0.97545 0.0
C3562 C 0.40547 0.12829 0.97054 0.0
C3563 C 0.39504 0.11211 0.96987 0.0
H3564 H 0.409 0.15136 0.97596 0.0
H3565 H 0.30896 0.99411 0.96613 0.0
H3566 H 0.95446 0.31316 0.0048 0.0
H3567 H 0.93632 0.28806 0.99136 0.0
H3568 H 0.9724 0.29233 0.96421 0.0
H3569 H 0.99066 0.31727 0.9778 0.0
H3570 H 0.92611 0.28143 0.96337 0.0
H3571 H 0.96633 0.25599 0.95407 0.0
H3572 H 0.98893 0.25673 0.96662 0.0
H3573 H 0.97608 0.26668 0.00857 0.0
H3574 H 0.95331 0.26578 0.99632 0.0
H3575 H 0.89022 0.21927 0.90816 0.0
H3576 H 0.9099 0.24306 0.92249 0.0
H3577 H 0.90713 0.21551 0.95924 0.0
H3578 H 0.88763 0.19168 0.94487 0.0
H3579 H 0.93617 0.23733 0.95653 0.0
H3580 H 0.88793 0.23589 0.95833 0.0
H3581 H 0.86396 0.23393 0.94793 0.0
H3582 H 0.89039 0.27579 0.92523 0.0
H3583 H 0.91454 0.27787 0.93533 0.0
C3584 C 0.95854 0.3087 0.99602 0.0
C3585 C 0.97398 0.31714 0.99236 0.0
C3586 C 0.94816 0.29439 0.98833 0.0
C3587 C 0.95303 0.28826 0.97686 0.0
C3588 C 0.96845 0.2967 0.97318 0.0
C3589 C 0.97885 0.31098 0.98091 0.0
C3590 C 0.94187 0.27324 0.96849 0.0
C3591 C 0.92832 0.27179 0.96188 0.0
C3592 C 0.94462 0.26057 0.96674 0.0
C3593 C 0.95821 0.26098 0.97424 0.0
C3594 C 0.9683 0.25828 0.96598 0.0
C3595 C 0.98114 0.25873 0.97304 0.0
C3596 C 0.98397 0.2618 0.98838 0.0
C3597 C 0.97392 0.26437 0.99669 0.0
C3598 C 0.96106 0.26391 0.98969 0.0
C3599 C 0.8939 0.21831 0.91927 0.0
C3600 C 0.88736 0.20367 0.92545 0.0
C3601 C 0.90511 0.23188 0.92744 0.0
C3602 C 0.9098 0.23109 0.94202 0.0
C3603 C 0.90369 0.21639 0.94801 0.0
C3604 C 0.89258 0.20279 0.93979 0.0
C3605 C 0.92055 0.24563 0.95125 0.0
C3606 C 0.934 0.24699 0.958 0.0
C3607 C 0.91754 0.25809 0.95346 0.0
C3608 C 0.90304 0.25695 0.94748 0.0
C3609 C 0.88863 0.24462 0.95104 0.0
C3610 C 0.87501 0.2435 0.94521 0.0
C3611 C 0.87565 0.25471 0.9359 0.0
C3612 C 0.88992 0.2671 0.93243 0.0
C3613 C 0.90357 0.26827 0.93821 0.0
H3614 H 0.86509 0.25382 0.9314 0.0
H3615 H 0.99392 0.26216 0.99382 0.0
H3616 H 0.67442 0.61215 0.04059 0.0
H3617 H 0.69688 0.61802 0.02646 0.0
H3618 H 0.68919 0.64999 0.00146 0.0
H3619 H 0.66688 0.6442 0.0154 0.0
H3620 H 0.69436 0.63038 0.98369 0.0
H3621 H 0.71724 0.6638 0.02875 0.0
H3622 H 0.72251 0.66932 0.05579 0.0
H3623 H 0.74227 0.63962 0.05693 0.0
H3624 H 0.73693 0.63376 0.02991 0.0
H3625 H 0.76301 0.6751 0.94929 0.0
H3626 H 0.74158 0.66691 0.96516 0.0
H3627 H 0.75618 0.63889 0.98848 0.0
H3628 H 0.77813 0.64763 0.97306 0.0
H3629 H 0.74729 0.65385 0.00741 0.0
H3630 H 0.72613 0.62178 0.96222 0.0
H3631 H 0.72108 0.61629 0.93518 0.0
H3632 H 0.69789 0.64279 0.93421 0.0
H3633 H 0.703 0.64864 0.96124 0.0
C3634 C 0.67756 0.62043 0.03208 0.0
C3635 C 0.66892 0.62773 0.02911 0.0
C3636 C 0.69039 0.6238 0.02406 0.0
C3637 C 0.69472 0.63449 0.01296 0.0
C3638 C 0.68603 0.64168 0.00995 0.0
C3639 C 0.67331 0.63839 0.01798 0.0
C3640 C 0.70824 0.63826 0.00432 0.0
C3641 C 0.70595 0.63562 0.98886 0.0
C3642 C 0.72329 0.64466 0.01112 0.0
C3643 C 0.72652 0.64819 0.02734 0.0
C3644 C 0.72258 0.65834 0.03479 0.0
C3645 C 0.72561 0.66155 0.0501 0.0
C3646 C 0.73268 0.65478 0.05808 0.0
C3647 C 0.73677 0.64482 0.05075 0.0
C3648 C 0.73376 0.64156 0.03543 0.0
C3649 C 0.76185 0.66741 0.95795 0.0
C3650 C 0.77228 0.66198 0.95985 0.0
C3651 C 0.74947 0.66258 0.9669 0.0
C3652 C 0.74711 0.65205 0.97782 0.0
C3653 C 0.75771 0.64693 0.98005 0.0
C3654 C 0.77017 0.65183 0.97113 0.0
C3655 C 0.73344 0.64627 0.98675 0.0
C3656 C 0.73569 0.64848 0.00224 0.0
C3657 C 0.71831 0.63939 0.97999 0.0
C3658 C 0.71506 0.63575 0.96375 0.0
C3659 C 0.72004 0.62652 0.95623 0.0
C3660 C 0.71716 0.62334 0.94091 0.0
C3661 C 0.7092 0.62921 0.93298 0.0
C3662 C 0.70406 0.63825 0.94037 0.0
C3663 C 0.70693 0.64149 0.95569 0.0
H3664 H 0.70698 0.62674 0.92111 0.0
H3665 H 0.73501 0.65728 0.06994 0.0
H3666 H 0.96988 0.63759 0.9923 0.0
H3667 H 0.95397 0.6447 0.97728 0.0
H3668 H 0.9373 0.6551 0.01687 0.0
H3669 H 0.95291 0.64745 0.032 0.0
H3670 H 0.91461 0.64135 0.99575 0.0
H3671 H 0.96627 0.68456 0.99878 0.0
H3672 H 0.99446 0.69792 0.99718 0.0
H3673 H 0.98816 0.68417 0.95072 0.0
H3674 H 0.95991 0.67053 0.95208 0.0
H3675 H 0.88731 0.68584 0.95938 0.0
H3676 H 0.90287 0.67938 0.97577 0.0
H3677 H 0.91706 0.66308 0.93794 0.0
H3678 H 0.9017 0.66982 0.9214 0.0
H3679 H 0.94113 0.68101 0.9592 0.0
H3680 H 0.88878 0.6372 0.95711 0.0
H3681 H 0.86078 0.62534 0.95931 0.0
H3682 H 0.86884 0.64208 0.00509 0.0
H3683 H 0.89692 0.65425 0.0031 0.0
C3684 C 0.9627 0.64124 0.99781 0.0
C3685 C 0.96272 0.64211 0.01331 0.0
C3686 C 0.95368 0.64538 0.98922 0.0
C3687 C 0.94474 0.65082 0.99596 0.0
C3688 C 0.9442 0.65104 0.01143 0.0
C3689 C 0.9531 0.64668 0.02006 0.0
C3690 C 0.93639 0.65668 0.9868 0.0
C3691 C 0.92046 0.65018 0.98792 0.0
C3692 C 0.94398 0.66813 0.97646 0.0
C3693 C 0.96097 0.6764 0.97557 0.0
C3694 C 0.97089 0.68429 0.98824 0.0
C3695 C 0.98688 0.69192 0.98737 0.0
C3696 C 0.99309 0.69186 0.97386 0.0
C3697 C 0.98333 0.68419 0.96118 0.0
C3698 C 0.96733 0.67652 0.96199 0.0
C3699 C 0.894 0.68119 0.95452 0.0
C3700 C 0.89336 0.6784 0.93909 0.0
C3701 C 0.90275 0.67735 0.96392 0.0
C3702 C 0.91096 0.67059 0.95807 0.0
C3703 C 0.91075 0.66825 0.94266 0.0
C3704 C 0.90195 0.67204 0.93324 0.0
C3705 C 0.91939 0.66551 0.96803 0.0
C3706 C 0.93533 0.6722 0.96707 0.0
C3707 C 0.91185 0.65441 0.97862 0.0
C3708 C 0.89495 0.64674 0.97993 0.0
C3709 C 0.88458 0.63842 0.96763 0.0
C3710 C 0.8687 0.63164 0.96883 0.0
C3711 C 0.86303 0.63297 0.98232 0.0
C3712 C 0.87324 0.64106 0.99465 0.0
C3713 C 0.88914 0.64789 0.99349 0.0
H3714 H 0.85073 0.62774 0.98323 0.0
H3715 H 0.00548 0.69778 0.97321 0.0
H3716 H 0.38516 0.34971 0.96929 0.0
H3717 H 0.37978 0.32575 0.95472 0.0
H3718 H 0.33377 0.30145 0.96977 0.0
H3719 H 0.33896 0.32532 0.98414 0.0
H3720 H 0.3496 0.28427 0.97108 0.0
H3721 H 0.33728 0.31352 0.93712 0.0
H3722 H 0.34285 0.33689 0.92379 0.0
H3723 H 0.38033 0.33569 0.90385 0.0
H3724 H 0.3751 0.3124 0.91723 0.0
H3725 H 0.31286 0.21636 0.92334 0.0
H3726 H 0.31899 0.24126 0.93608 0.0
H3727 H 0.36114 0.26507 0.91372 0.0
H3728 H 0.35464 0.24035 0.90024 0.0
H3729 H 0.34875 0.2831 0.91623 0.0
H3730 H 0.36091 0.25352 0.94894 0.0
H3731 H 0.35578 0.23012 0.96203 0.0
H3732 H 0.32011 0.23234 0.98466 0.0
H3733 H 0.32484 0.25559 0.9715 0.0
C3734 C 0.37394 0.33922 0.96954 0.0
C3735 C 0.36246 0.33935 0.97779 0.0
C3736 C 0.37088 0.32559 0.9612 0.0
C3737 C 0.35636 0.3119 0.96115 0.0
C3738 C 0.34504 0.31192 0.96969 0.0
C3739 C 0.34801 0.32556 0.97784 0.0
C3740 C 0.35277 0.29758 0.95198 0.0
C3741 C 0.34928 0.28394 0.95908 0.0
C3742 C 0.35276 0.29735 0.93637 0.0
C3743 C 0.3559 0.31132 0.9283 0.0
C3744 C 0.3468 0.31832 0.93 0.0
C3745 C 0.34987 0.33153 0.92241 0.0
C3746 C 0.36195 0.33778 0.913 0.0
C3747 C 0.37098 0.33083 0.91115 0.0
C3748 C 0.36796 0.31762 0.91873 0.0
C3749 C 0.32325 0.22693 0.92082 0.0
C3750 C 0.33334 0.2263 0.91087 0.0
C3751 C 0.32684 0.24114 0.92827 0.0
C3752 C 0.34072 0.25495 0.92614 0.0
C3753 C 0.35044 0.25453 0.91566 0.0
C3754 C 0.34678 0.24035 0.90807 0.0
C3755 C 0.3454 0.26965 0.9353 0.0
C3756 C 0.34914 0.2834 0.92822 0.0
C3757 C 0.34582 0.27002 0.95096 0.0
C3758 C 0.34315 0.25623 0.95913 0.0
C3759 C 0.35191 0.24897 0.95664 0.0
C3760 C 0.34908 0.23573 0.96408 0.0
C3761 C 0.3376 0.22973 0.97414 0.0
C3762 C 0.32898 0.23699 0.97684 0.0
C3763 C 0.33174 0.25021 0.9694 0.0
H3764 H 0.33542 0.21948 0.97988 0.0
H3765 H 0.36428 0.34798 0.9071 0.0
H3766 H 0.66496 0.01513 0.01046 0.0
H3767 H 0.68803 0.03122 0.99743 0.0
H3768 H 0.68657 0.07277 0.01119 0.0
H3769 H 0.6634 0.05665 0.02446 0.0
H3770 H 0.68991 0.06963 0.98054 0.0
H3771 H 0.71375 0.06853 0.02668 0.0
H3772 H 0.71807 0.05634 0.04815 0.0
H3773 H 0.73041 0.02932 0.01944 0.0
H3774 H 0.72594 0.04117 0.99776 0.0
H3775 H 0.76115 0.11851 0.94923 0.0
H3776 H 0.74114 0.10717 0.96686 0.0
H3777 H 0.7403 0.06313 0.9613 0.0
H3778 H 0.76036 0.07443 0.94369 0.0
H3779 H 0.73915 0.07021 0.98984 0.0
H3780 H 0.71279 0.06864 0.94382 0.0
H3781 H 0.70776 0.07967 0.92181 0.0
H3782 H 0.69939 0.11046 0.94969 0.0
H3783 H 0.7046 0.09976 0.97189 0.0
C3784 C 0.6696 0.02771 0.01082 0.0
C3785 C 0.66239 0.03465 0.01847 0.0
C3786 C 0.68281 0.03689 0.00342 0.0
C3787 C 0.68905 0.05318 0.00344 0.0
C3788 C 0.68194 0.0602 0.0111 0.0
C3789 C 0.66877 0.05101 0.01869 0.0
C3790 C 0.70261 0.06262 0.99486 0.0
C3791 C 0.70081 0.07007 0.98275 0.0
C3792 C 0.71664 0.06279 0.99755 0.0
C3793 C 0.71939 0.05566 0.01057 0.0
C3794 C 0.71726 0.05989 0.02492 0.0
C3795 C 0.71976 0.05306 0.03714 0.0
C3796 C 0.72448 0.04204 0.03515 0.0
C3797 C 0.72674 0.03785 0.02095 0.0
C3798 C 0.72425 0.04464 0.0087 0.0
C3799 C 0.75664 0.10638 0.95171 0.0
C3800 C 0.76224 0.09731 0.94499 0.0
C3801 C 0.74524 0.09994 0.96181 0.0
C3802 C 0.73909 0.08425 0.96526 0.0
C3803 C 0.74489 0.07527 0.95881 0.0
C3804 C 0.75636 0.08174 0.94876 0.0
C3805 C 0.72639 0.07705 0.97537 0.0
C3806 C 0.72834 0.06998 0.98774 0.0
C3807 C 0.71243 0.0771 0.97284 0.0
C3808 C 0.70926 0.08353 0.95952 0.0
C3809 C 0.71001 0.07785 0.94526 0.0
C3810 C 0.7071 0.08403 0.93275 0.0
C3811 C 0.7033 0.09579 0.93435 0.0
C3812 C 0.70236 0.10137 0.94847 0.0
C3813 C 0.70529 0.09525 0.96102 0.0
H3814 H 0.70105 0.10055 0.92466 0.0
H3815 H 0.72641 0.03677 0.04462 0.0
H3816 H 0.61593 0.95446 0.04692 0.0
H3817 H 0.62353 0.93757 0.05935 0.0
H3818 H 0.66377 0.97863 0.08011 0.0
H3819 H 0.65601 0.99549 0.0681 0.0
H3820 H 0.64752 0.93342 0.05932 0.0
H3821 H 0.67101 0.97197 0.11469 0.0
H3822 H 0.66652 0.99056 0.12967 0.0
H3823 H 0.62012 0.96875 0.1103 0.0
H3824 H 0.62426 0.94991 0.09536 0.0
H3825 H 0.68751 0.90528 0.10294 0.0
H3826 H 0.68039 0.92169 0.08916 0.0
H3827 H 0.64426 0.91195 0.1185 0.0
H3828 H 0.65206 0.89664 0.13298 0.0
H3829 H 0.65741 0.94071 0.11393 0.0
H3830 H 0.63755 0.89371 0.08214 0.0
H3831 H 0.63864 0.87272 0.06749 0.0
H3832 H 0.67154 0.90687 0.04036 0.0
H3833 H 0.6708 0.9281 0.05498 0.0
C3834 C 0.62641 0.95985 0.05411 0.0
C3835 C 0.63529 0.97626 0.05669 0.0
C3836 C 0.63077 0.95021 0.06115 0.0
C3837 C 0.6441 0.95683 0.07083 0.0
C3838 C 0.65328 0.97325 0.07293 0.0
C3839 C 0.64885 0.98287 0.06604 0.0
C3840 C 0.64815 0.94663 0.07912 0.0
C3841 C 0.64969 0.935 0.07126 0.0
C3842 C 0.65067 0.94847 0.09473 0.0
C3843 C 0.64801 0.95965 0.1038 0.0
C3844 C 0.65983 0.97111 0.11367 0.0
C3845 C 0.65735 0.9817 0.12215 0.0
C3846 C 0.64306 0.98087 0.1209 0.0
C3847 C 0.6312 0.96942 0.11121 0.0
C3848 C 0.63362 0.9588 0.10273 0.0
C3849 C 0.67819 0.90679 0.10659 0.0
C3850 C 0.6703 0.8995 0.11904 0.0
C3851 C 0.67398 0.91601 0.09856 0.0
C3852 C 0.6616 0.91785 0.10262 0.0
C3853 C 0.65381 0.91067 0.11508 0.0
C3854 C 0.65816 0.90171 0.12325 0.0
C3855 C 0.65688 0.92749 0.09415 0.0
C3856 C 0.65527 0.93909 0.10198 0.0
C3857 C 0.6538 0.92524 0.07858 0.0
C3858 C 0.65423 0.9125 0.06974 0.0
C3859 C 0.6451 0.89675 0.07311 0.0
C3860 C 0.64564 0.88481 0.06481 0.0
C3861 C 0.65519 0.88846 0.05303 0.0
C3862 C 0.66417 0.90406 0.0495 0.0
C3863 C 0.66368 0.91605 0.05778 0.0
H3864 H 0.65559 0.8792 0.04661 0.0
H3865 H 0.64117 0.98908 0.12746 0.0
H3866 H 0.01323 0.67554 0.07927 0.0
H3867 H 0.03048 0.70121 0.09198 0.0
H3868 H 0.05354 0.7177 0.05176 0.0
H3869 H 0.03674 0.69164 0.03921 0.0
H3870 H 0.07397 0.72741 0.07299 0.0
H3871 H 0.02771 0.72909 0.06626 0.0
H3872 H -1e-05 0.71997 0.06709 0.0
H3873 H 0.00388 0.72064 0.11449 0.0
H3874 H 0.03159 0.72957 0.11394 0.0
H3875 H 0.11537 0.80667 0.10278 0.0
H3876 H 0.09543 0.78355 0.08782 0.0
H3877 H 0.07883 0.75917 0.12744 0.0
H3878 H 0.0988 0.78229 0.14249 0.0
H3879 H 0.055 0.75515 0.1051 0.0
H3880 H 0.10178 0.75212 0.11025 0.0
H3881 H 0.12967 0.76286 0.10831 0.0
H3882 H 0.12441 0.76654 0.06165 0.0
H3883 H 0.0965 0.75603 0.06338 0.0
C3884 C 0.02193 0.68467 0.07312 0.0
C3885 C 0.02364 0.68164 0.05825 0.0
C3886 C 0.03172 0.6994 0.08037 0.0
C3887 C 0.04315 0.71156 0.07278 0.0
C3888 C 0.0448 0.70855 0.05786 0.0
C3889 C 0.03519 0.69368 0.05069 0.0
C3890 C 0.05378 0.72715 0.08063 0.0
C3891 C 0.06974 0.73357 0.07976 0.0
C3892 C 0.04837 0.73521 0.08965 0.0
C3893 C 0.03171 0.72989 0.09005 0.0
C3894 C 0.02264 0.72719 0.07686 0.0
C3895 C 0.00693 0.72207 0.07728 0.0
C3896 C 0.00017 0.7197 0.09083 0.0
C3897 C 0.00913 0.72248 0.104 0.0
C3898 C 0.02484 0.72759 0.10364 0.0
C3899 C 0.10725 0.7965 0.10831 0.0
C3900 C 0.10859 0.79623 0.12378 0.0
C3901 C 0.09595 0.7833 0.09976 0.0
C3902 C 0.08575 0.76968 0.10655 0.0
C3903 C 0.0866 0.76961 0.12203 0.0
C3904 C 0.09803 0.78275 0.13058 0.0
C3905 C 0.07496 0.75512 0.09746 0.0
C3906 C 0.05906 0.74896 0.09815 0.0
C3907 C 0.08038 0.74744 0.08805 0.0
C3908 C 0.09709 0.75344 0.08697 0.0
C3909 C 0.10659 0.75532 0.0996 0.0
C3910 C 0.1224 0.76135 0.09853 0.0
C3911 C 0.12882 0.76542 0.08487 0.0
C3912 C 0.11943 0.7634 0.07223 0.0
C3913 C 0.10361 0.7574 0.07324 0.0
H3914 H 0.14106 0.77011 0.08407 0.0
H3915 H 0.98801 0.71573 0.09113 0.0
H3916 H 0.31815 0.34533 0.01564 0.0
H3917 H 0.29588 0.33953 0.02987 0.0
H3918 H 0.31295 0.38912 0.03777 0.0
H3919 H 0.33511 0.39503 0.02315 0.0
H3920 H 0.30601 0.36932 0.06403 0.0
H3921 H 0.28377 0.37251 0.01711 0.0
H3922 H 0.27628 0.36588 0.99043 0.0
H3923 H 0.24743 0.31728 0.9986 0.0
H3924 H 0.25494 0.32359 0.02532 0.0
H3925 H 0.24438 0.36266 0.10341 0.0
H3926 H 0.26435 0.37006 0.086 0.0
H3927 H 0.24061 0.32275 0.06577 0.0
H3928 H 0.21993 0.3155 0.0825 0.0
H3929 H 0.25108 0.34216 0.04515 0.0
H3930 H 0.27308 0.33698 0.09055 0.0
H3931 H 0.2808 0.34141 0.11725 0.0
H3932 H 0.31041 0.39068 0.11229 0.0
H3933 H 0.3027 0.38658 0.08557 0.0
C3934 C 0.31702 0.35499 0.02021 0.0
C3935 C 0.32831 0.37063 0.01832 0.0
C3936 C 0.3043 0.35166 0.0283 0.0
C3937 C 0.30283 0.36391 0.03483 0.0
C3938 C 0.31392 0.37954 0.03274 0.0
C3939 C 0.32649 0.38288 0.02437 0.0
C3940 C 0.29024 0.36031 0.04467 0.0
C3941 C 0.294 0.36366 0.05993 0.0
C3942 C 0.2746 0.35232 0.03926 0.0
C3943 C 0.27005 0.3485 0.0232 0.0
C3944 C 0.27595 0.36039 0.01321 0.0
C3945 C 0.27167 0.35669 0.99808 0.0
C3946 C 0.26142 0.34116 0.99282 0.0
C3947 C 0.25539 0.3293 0.00269 0.0
C3948 C 0.25964 0.33293 0.01783 0.0
C3949 C 0.24321 0.35385 0.09512 0.0
C3950 C 0.23048 0.33845 0.0944 0.0
C3951 C 0.2548 0.35807 0.08528 0.0
C3952 C 0.25415 0.34691 0.07472 0.0
C3953 C 0.24141 0.33156 0.07386 0.0
C3954 C 0.22968 0.32738 0.08357 0.0
C3955 C 0.2668 0.35125 0.06464 0.0
C3956 C 0.26307 0.34795 0.04932 0.0
C3957 C 0.28249 0.35897 0.07002 0.0
C3958 C 0.28718 0.36149 0.08608 0.0
C3959 C 0.28114 0.34878 0.09517 0.0
C3960 C 0.28553 0.35123 0.1103 0.0
C3961 C 0.29605 0.36632 0.11647 0.0
C3962 C 0.30224 0.379 0.1075 0.0
C3963 C 0.29787 0.37662 0.09236 0.0
H3964 H 0.29944 0.36819 0.12819 0.0
H3965 H 0.25811 0.33832 0.9811 0.0
H3966 H 0.71803 0.70055 0.36281 0.0
H3967 H 0.73482 0.69468 0.37816 0.0
H3968 H 0.69652 0.66531 0.40375 0.0
H3969 H 0.67972 0.67126 0.38855 0.0
H3970 H 0.72202 0.68432 0.42139 0.0
H3971 H 0.70915 0.64895 0.37859 0.0
H3972 H 0.70635 0.64117 0.35194 0.0
H3973 H 0.75515 0.67094 0.34898 0.0
H3974 H 0.75822 0.67908 0.37558 0.0
H3975 H 0.76045 0.64989 0.45861 0.0
H3976 H 0.74188 0.65337 0.44334 0.0
H3977 H 0.77818 0.68356 0.41617 0.0
H3978 H 0.79665 0.67981 0.4311 0.0
H3979 H 0.75255 0.66272 0.39951 0.0
H3980 H 0.7651 0.69883 0.44218 0.0
H3981 H 0.7678 0.7065 0.46885 0.0
H3982 H 0.71932 0.675 0.47205 0.0
H3983 H 0.71638 0.66698 0.44542 0.0
C3984 C 0.71319 0.69282 0.37169 0.0
C3985 C 0.69756 0.68633 0.37447 0.0
C3986 C 0.72277 0.68943 0.38041 0.0
C3987 C 0.71687 0.67943 0.392 0.0
C3988 C 0.7013 0.67303 0.39485 0.0
C3989 C 0.69171 0.67641 0.38613 0.0
C3990 C 0.72702 0.67584 0.40129 0.0
C3991 C 0.72852 0.67937 0.41664 0.0
C3992 C 0.73569 0.66963 0.39505 0.0
C3993 C 0.73389 0.66474 0.37905 0.0
C3994 C 0.71927 0.65394 0.37223 0.0
C3995 C 0.71764 0.64945 0.35714 0.0
C3996 C 0.73056 0.65559 0.34876 0.0
C3997 C 0.74515 0.66621 0.35547 0.0
C3998 C 0.74684 0.67076 0.37056 0.0
C3999 C 0.76443 0.6572 0.44934 0.0
C4000 C 0.78003 0.6647 0.44614 0.0
C4001 C 0.75385 0.65926 0.44069 0.0
C4002 C 0.75869 0.66886 0.42871 0.0
C4003 C 0.77421 0.67616 0.42539 0.0
C4004 C 0.78478 0.67413 0.43402 0.0
C4005 C 0.74766 0.67135 0.41958 0.0
C4006 C 0.74599 0.6676 0.40427 0.0
C4007 C 0.73882 0.67733 0.42586 0.0
C4008 C 0.74056 0.68218 0.44185 0.0
C4009 C 0.75504 0.69344 0.4486 0.0
C4010 C 0.75661 0.69787 0.4637 0.0
C4011 C 0.74375 0.6912 0.47215 0.0
C4012 C 0.72928 0.68013 0.4655 0.0
C4013 C 0.72765 0.67565 0.4504 0.0
H4014 H 0.74498 0.69465 0.48384 0.0
H4015 H 0.72927 0.65209 0.33708 0.0
H4016 H 0.29314 0.00048 0.39457 0.0
H4017 H 0.30167 0.02602 0.40754 0.0
H4018 H 0.33466 0.02088 0.43496 0.0
H4019 H 0.32608 0.99522 0.4221 0.0
H4020 H 0.31913 0.03168 0.45112 0.0
H4021 H 0.34684 0.04488 0.40726 0.0
H4022 H 0.35 0.04425 0.38044 0.0
H4023 H 0.32068 0.06367 0.37326 0.0
H4024 H 0.31717 0.0642 0.40002 0.0
H4025 H 0.35643 0.11149 0.48062 0.0
H4026 H 0.3518 0.08676 0.46843 0.0
H4027 H 0.3193 0.08771 0.43661 0.0
H4028 H 0.3244 0.1127 0.44825 0.0
H4029 H 0.33703 0.07935 0.42318 0.0
H4030 H 0.30784 0.06442 0.46673 0.0
H4031 H 0.30441 0.06485 0.49351 0.0
H4032 H 0.33631 0.04865 0.50127 0.0
H4033 H 0.34009 0.04832 0.47453 0.0
C4034 C 0.30221 0.00478 0.40336 0.0
C4035 C 0.30899 0.99589 0.40729 0.0
C4036 C 0.30711 0.0194 0.41072 0.0
C4037 C 0.31892 0.02542 0.4221 0.0
C4038 C 0.32555 0.01646 0.42619 0.0
C4039 C 0.32067 0.00184 0.41881 0.0
C4040 C 0.32428 0.04107 0.4297 0.0
C4041 C 0.32328 0.04217 0.44506 0.0
C4042 C 0.32949 0.05469 0.42175 0.0
C4043 C 0.33164 0.05446 0.40564 0.0
C4044 C 0.34097 0.0489 0.39995 0.0
C4045 C 0.34284 0.04858 0.38476 0.0
C4046 C 0.33552 0.05388 0.37515 0.0
C4047 C 0.32634 0.05955 0.38072 0.0
C4048 C 0.32442 0.05989 0.3959 0.0
C4049 C 0.34843 0.10651 0.47092 0.0
C4050 C 0.34068 0.11401 0.46549 0.0
C4051 C 0.34568 0.0923 0.46406 0.0
C4052 C 0.33503 0.08526 0.45173 0.0
C4053 C 0.32751 0.09287 0.44615 0.0
C4054 C 0.33032 0.10709 0.45292 0.0
C4055 C 0.33157 0.06994 0.44457 0.0
C4056 C 0.33298 0.0689 0.42927 0.0
C4057 C 0.32671 0.05639 0.45259 0.0
C4058 C 0.32438 0.05651 0.46865 0.0
C4059 C 0.31421 0.06106 0.47416 0.0
C4060 C 0.31219 0.06127 0.48933 0.0
C4061 C 0.32017 0.05682 0.49909 0.0
C4062 C 0.33016 0.05212 0.49369 0.0
C4063 C 0.33224 0.05191 0.47854 0.0
H4064 H 0.31857 0.05696 0.51082 0.0
H4065 H 0.33698 0.05363 0.36339 0.0
H4066 H 0.01926 0.31879 0.38932 0.0
H4067 H 0.99601 0.30314 0.40223 0.0
H4068 H 0.98089 0.26482 0.36902 0.0
H4069 H 0.00422 0.28057 0.35588 0.0
H4070 H 0.95751 0.27018 0.37601 0.0
H4071 H 0.99517 0.26263 0.40218 0.0
H4072 H 0.02015 0.27066 0.41547 0.0
H4073 H 0.0111 0.29644 0.44897 0.0
H4074 H 0.98615 0.28876 0.43577 0.0
H4075 H 0.89827 0.21523 0.4193 0.0
H4076 H 0.92067 0.22869 0.40454 0.0
H4077 H 0.94011 0.26921 0.43578 0.0
H4078 H 0.91796 0.25569 0.45077 0.0
H4079 H 0.96114 0.26098 0.42904 0.0
H4080 H 0.92411 0.26956 0.40231 0.0
H4081 H 0.8992 0.26176 0.38898 0.0
H4082 H 0.90708 0.23405 0.35657 0.0
H4083 H 0.93196 0.24152 0.36984 0.0
C4084 C 0.01102 0.30702 0.38475 0.0
C4085 C 0.01359 0.30087 0.37162 0.0
C4086 C 0.99776 0.29807 0.39218 0.0
C4087 C 0.98681 0.28274 0.38668 0.0
C4088 C 0.98923 0.2766 0.37347 0.0
C4089 C 0.00257 0.28558 0.36602 0.0
C4090 C 0.97282 0.27329 0.39477 0.0
C4091 C 0.95827 0.26792 0.38753 0.0
C4092 C 0.97386 0.27063 0.40989 0.0
C4093 C 0.98883 0.27522 0.41791 0.0
C4094 C 0.99855 0.27011 0.41232 0.0
C4095 C 0.0127 0.27458 0.41985 0.0
C4096 C 0.01723 0.28408 0.43304 0.0
C4097 C 0.00759 0.2891 0.43875 0.0
C4098 C 0.99343 0.28467 0.43125 0.0
C4099 C 0.90733 0.22701 0.42302 0.0
C4100 C 0.90634 0.23441 0.43619 0.0
C4101 C 0.92006 0.23472 0.41452 0.0
C4102 C 0.93202 0.24999 0.41902 0.0
C4103 C 0.931 0.25744 0.4321 0.0
C4104 C 0.91827 0.24975 0.44058 0.0
C4105 C 0.94583 0.25806 0.41035 0.0
C4106 C 0.96036 0.26315 0.41749 0.0
C4107 C 0.94476 0.26045 0.39516 0.0
C4108 C 0.92981 0.25596 0.38716 0.0
C4109 C 0.92047 0.26169 0.39241 0.0
C4110 C 0.90637 0.25735 0.38486 0.0
C4111 C 0.90153 0.24738 0.37196 0.0
C4112 C 0.91082 0.24175 0.36658 0.0
C4113 C 0.92493 0.24604 0.37411 0.0
H4114 H 0.89061 0.24403 0.36612 0.0
H4115 H 0.02819 0.28753 0.43885 0.0
H4116 H 0.02184 0.34086 0.31703 0.0
H4117 H 0.01527 0.35861 0.30499 0.0
H4118 H 0.05093 0.39784 0.33248 0.0
H4119 H 0.0575 0.38009 0.3447 0.0
H4120 H 0.02417 0.39892 0.32973 0.0
H4121 H 0.05751 0.39204 0.29771 0.0
H4122 H 0.0663 0.37691 0.28286 0.0
H4123 H 0.02397 0.35553 0.25553 0.0
H4124 H 0.01481 0.37037 0.27036 0.0
H4125 H 0.02623 0.45839 0.28626 0.0
H4126 H 0.0328 0.44156 0.30005 0.0
H4127 H 9e-05 0.40134 0.27155 0.0
H4128 H 0.99403 0.41818 0.25727 0.0
H4129 H 0.0262 0.40142 0.27524 0.0
H4130 H 0.99263 0.408 0.30746 0.0
H4131 H 0.98376 0.42299 0.32242 0.0
H4132 H 0.02634 0.44483 0.34939 0.0
H4133 H 0.03556 0.43012 0.33446 0.0
C4134 C 0.02824 0.35325 0.32057 0.0
C4135 C 0.04024 0.35912 0.33174 0.0
C4136 C 0.0245 0.36338 0.31365 0.0
C4137 C 0.03275 0.37956 0.31772 0.0
C4138 C 0.04446 0.38539 0.32916 0.0
C4139 C 0.04822 0.37526 0.33609 0.0
C4140 C 0.02933 0.39039 0.30978 0.0
C4141 C 0.0248 0.39964 0.31784 0.0
C4142 C 0.02991 0.39108 0.29424 0.0
C4143 C 0.03542 0.38222 0.28523 0.0
C4144 C 0.05002 0.38403 0.2886 0.0
C4145 C 0.05508 0.37552 0.28018 0.0
C4146 C 0.04569 0.36525 0.26828 0.0
C4147 C 0.03123 0.36348 0.26476 0.0
C4148 C 0.0261 0.37195 0.27316 0.0
C4149 C 0.02049 0.44597 0.28288 0.0
C4150 C 0.00956 0.43964 0.27068 0.0
C4151 C 0.02414 0.43634 0.29087 0.0
C4152 C 0.0168 0.42015 0.28694 0.0
C4153 C 0.00585 0.41379 0.27482 0.0
C4154 C 0.00228 0.42342 0.26677 0.0
C4155 C 0.02082 0.40986 0.29515 0.0
C4156 C 0.02554 0.40072 0.28713 0.0
C4157 C 0.0204 0.40928 0.31072 0.0
C4158 C 0.01484 0.41807 0.31975 0.0
C4159 C 0.00015 0.41609 0.31651 0.0
C4160 C 0.99505 0.42452 0.325 0.0
C4161 C 0.0045 0.43489 0.33682 0.0
C4162 C 0.01905 0.43681 0.34021 0.0
C4163 C 0.02421 0.42842 0.33175 0.0
H4164 H 0.00053 0.44141 0.34338 0.0
H4165 H 0.04964 0.35871 0.26175 0.0
H4166 H 0.61725 0.65333 0.33295 0.0
H4167 H 0.59939 0.62868 0.31872 0.0
H4168 H 0.63781 0.62495 0.304 0.0
H4169 H 0.65574 0.64982 0.3179 0.0
H4170 H 0.61762 0.61815 0.28161 0.0
H4171 H 0.61503 0.60199 0.33085 0.0
H4172 H 0.6118 0.6026 0.35765 0.0
H4173 H 0.56557 0.59329 0.34901 0.0
H4174 H 0.56859 0.59284 0.32214 0.0
H4175 H 0.57044 0.53728 0.25431 0.0
H4176 H 0.58982 0.56139 0.26864 0.0
H4177 H 0.5543 0.57147 0.2801 0.0
H4178 H 0.53495 0.54745 0.26589 0.0
H4179 H 0.57383 0.57427 0.30431 0.0
H4180 H 0.57735 0.59134 0.25474 0.0
H4181 H 0.58095 0.59022 0.22805 0.0
H4182 H 0.62614 0.59705 0.23773 0.0
H4183 H 0.62271 0.59799 0.2645 0.0
C4184 C 0.62188 0.64722 0.32673 0.0
C4185 C 0.63788 0.65346 0.32656 0.0
C4186 C 0.61166 0.6331 0.31865 0.0
C4187 C 0.61725 0.62485 0.31045 0.0
C4188 C 0.63323 0.6311 0.31026 0.0
C4189 C 0.64346 0.64528 0.31824 0.0
C4190 C 0.60641 0.60986 0.30183 0.0
C4191 C 0.6082 0.60847 0.28664 0.0
C4192 C 0.59397 0.59729 0.30832 0.0
C4193 C 0.59209 0.59752 0.32448 0.0
C4194 C 0.60422 0.60019 0.33466 0.0
C4195 C 0.60242 0.60049 0.34987 0.0
C4196 C 0.5885 0.59802 0.35503 0.0
C4197 C 0.57635 0.59522 0.345 0.0
C4198 C 0.57809 0.59492 0.32977 0.0
C4199 C 0.56682 0.54468 0.25988 0.0
C4200 C 0.55124 0.54059 0.25891 0.0
C4201 C 0.57787 0.55844 0.26799 0.0
C4202 C 0.57346 0.56821 0.27536 0.0
C4203 C 0.55791 0.56408 0.27447 0.0
C4204 C 0.54691 0.55045 0.26626 0.0
C4205 C 0.585 0.58268 0.28415 0.0
C4206 C 0.58333 0.58395 0.29935 0.0
C4207 C 0.59761 0.59506 0.2777 0.0
C4208 C 0.5997 0.59455 0.26162 0.0
C4209 C 0.588 0.59246 0.25118 0.0
C4210 C 0.59002 0.59189 0.23603 0.0
C4211 C 0.60374 0.59351 0.2312 0.0
C4212 C 0.6155 0.59577 0.2415 0.0
C4213 C 0.61353 0.59633 0.25665 0.0
H4214 H 0.60529 0.59307 0.21947 0.0
H4215 H 0.58713 0.59825 0.36681 0.0
H4216 H 0.33985 0.94692 0.37509 0.0
H4217 H 0.36174 0.95178 0.36052 0.0
H4218 H 0.35327 0.9822 0.33386 0.0
H4219 H 0.33149 0.97741 0.34826 0.0
H4220 H 0.3572 0.96116 0.31701 0.0
H4221 H 0.38276 0.99747 0.35975 0.0
H4222 H 0.38951 0.00507 0.38642 0.0
H4223 H 0.40847 0.97474 0.38914 0.0
H4224 H 0.40163 0.96678 0.36251 0.0
H4225 H 0.42452 0.0007 0.2789 0.0
H4226 H 0.40398 0.99469 0.2955 0.0
H4227 H 0.4177 0.96683 0.32027 0.0
H4228 H 0.43868 0.97326 0.30399 0.0
H4229 H 0.41096 0.98453 0.33852 0.0
H4230 H 0.38667 0.94914 0.29568 0.0
H4231 H 0.38002 0.94142 0.26901 0.0
H4232 H 0.35848 0.96943 0.26651 0.0
H4233 H 0.36521 0.97751 0.29313 0.0
C4234 C 0.34273 0.95469 0.36616 0.0
C4235 C 0.33397 0.96179 0.36281 0.0
C4236 C 0.35524 0.95748 0.35788 0.0
C4237 C 0.35915 0.96739 0.34613 0.0
C4238 C 0.35043 0.97449 0.34284 0.0
C4239 C 0.33802 0.97178 0.35113 0.0
C4240 C 0.37211 0.97021 0.337 0.0
C4241 C 0.36898 0.96641 0.32169 0.0
C4242 C 0.38739 0.97661 0.34318 0.0
C4243 C 0.39151 0.98139 0.35918 0.0
C4244 C 0.38824 0.99231 0.36607 0.0
C4245 C 0.39211 0.99671 0.38117 0.0
C4246 C 0.39937 0.99036 0.38948 0.0
C4247 C 0.40282 0.97963 0.3827 0.0
C4248 C 0.39895 0.97517 0.3676 0.0
C4249 C 0.42333 0.99347 0.288 0.0
C4250 C 0.43322 0.98741 0.29009 0.0
C4251 C 0.41147 0.98991 0.29739 0.0
C4252 C 0.40916 0.98011 0.30899 0.0
C4253 C 0.41923 0.97434 0.31134 0.0
C4254 C 0.43112 0.97792 0.30195 0.0
C4255 C 0.39609 0.97574 0.31849 0.0
C4256 C 0.39917 0.97919 0.33385 0.0
C4257 C 0.38073 0.96894 0.31238 0.0
C4258 C 0.37657 0.96403 0.29638 0.0
C4259 C 0.38062 0.95374 0.28942 0.0
C4260 C 0.37682 0.94929 0.27432 0.0
C4261 C 0.36886 0.95496 0.26607 0.0
C4262 C 0.36466 0.96506 0.27291 0.0
C4263 C 0.36845 0.96957 0.28801 0.0
H4264 H 0.36594 0.95151 0.25437 0.0
H4265 H 0.40237 0.99378 0.40117 0.0
H4266 H 0.65041 0.99679 0.33794 0.0
H4267 H 0.63339 0.00111 0.32128 0.0
H4268 H 0.59415 0.95851 0.3339 0.0
H4269 H 0.61113 0.95408 0.3506 0.0
H4270 H 0.59468 0.96071 0.30359 0.0
H4271 H 0.59981 0.99318 0.34702 0.0
H4272 H 0.6141 0.01379 0.36713 0.0
H4273 H 0.63554 0.04811 0.33519 0.0
H4274 H 0.62153 0.02764 0.31487 0.0
H4275 H 0.53466 0.97093 0.27337 0.0
H4276 H 0.55245 0.96693 0.28912 0.0
H4277 H 0.58997 0.01226 0.27936 0.0
H4278 H 0.57207 0.01642 0.26375 0.0
H4279 H 0.59096 0.00894 0.30784 0.0
H4280 H 0.58602 0.97723 0.26439 0.0
H4281 H 0.57239 0.95692 0.2439 0.0
H4282 H 0.55157 0.92163 0.27509 0.0
H4283 H 0.56491 0.94177 0.29579 0.0
C4284 C 0.63814 0.98839 0.33723 0.0
C4285 C 0.63208 0.97511 0.34559 0.0
C4286 C 0.62844 0.99089 0.32774 0.0
C4287 C 0.61251 0.98017 0.32642 0.0
C4288 C 0.60642 0.96691 0.33477 0.0
C4289 C 0.61612 0.96444 0.34434 0.0
C4290 C 0.60224 0.98265 0.31613 0.0
C4291 C 0.59369 0.97115 0.30462 0.0
C4292 C 0.60136 0.99651 0.31722 0.0
C4293 C 0.60973 0.00884 0.32942 0.0
C4294 C 0.60766 0.00509 0.34428 0.0
C4295 C 0.6157 0.01676 0.35572 0.0
C4296 C 0.62575 0.03224 0.35244 0.0
C4297 C 0.62776 0.0361 0.33772 0.0
C4298 C 0.61977 0.02448 0.32623 0.0
C4299 C 0.54675 0.97992 0.27437 0.0
C4300 C 0.55201 0.99393 0.26724 0.0
C4301 C 0.55692 0.97763 0.28339 0.0
C4302 C 0.57261 0.9892 0.28529 0.0
C4303 C 0.57792 0.00316 0.27806 0.0
C4304 C 0.56771 0.00552 0.26914 0.0
C4305 C 0.58331 0.98696 0.29527 0.0
C4306 C 0.59196 0.99851 0.30674 0.0
C4307 C 0.58438 0.9732 0.29407 0.0
C4308 C 0.57637 0.96104 0.28164 0.0
C4309 C 0.57844 0.96515 0.26689 0.0
C4310 C 0.57078 0.95367 0.25523 0.0
C4311 C 0.56109 0.938 0.2582 0.0
C4312 C 0.55907 0.93377 0.27282 0.0
C4313 C 0.56669 0.94522 0.28451 0.0
H4314 H 0.55517 0.92913 0.24916 0.0
H4315 H 0.63196 0.04125 0.36131 0.0
H4316 H 0.01885 0.67749 0.29158 0.0
H4317 H 0.01277 0.65319 0.27747 0.0
H4318 H 0.02784 0.63823 0.31552 0.0
H4319 H 0.03455 0.66282 0.32943 0.0
H4320 H 0.03822 0.6319 0.29247 0.0
H4321 H 0.98859 0.62301 0.30415 0.0
H4322 H 0.96735 0.6286 0.30545 0.0
H4323 H 0.96331 0.62754 0.25803 0.0
H4324 H 0.98467 0.62215 0.25645 0.0
H4325 H 0.99969 0.54992 0.27107 0.0
H4326 H 0.00499 0.57483 0.28352 0.0
H4327 H 0.0058 0.59347 0.24115 0.0
H4328 H 0.00082 0.56861 0.2286 0.0
H4329 H 0.98729 0.59787 0.26527 0.0
H4330 H 0.03761 0.60601 0.25484 0.0
H4331 H 0.05775 0.59873 0.25504 0.0
H4332 H 0.05894 0.59936 0.30248 0.0
H4333 H 0.03862 0.6064 0.30254 0.0
C4334 C 0.02084 0.66899 0.29692 0.0
C4335 C 0.02713 0.67199 0.3116 0.0
C4336 C 0.01729 0.65506 0.28888 0.0
C4337 C 0.01962 0.64373 0.29549 0.0
C4338 C 0.02594 0.64677 0.31016 0.0
C4339 C 0.02973 0.6608 0.31812 0.0
C4340 C 0.01573 0.62882 0.28707 0.0
C4341 C 0.02701 0.62442 0.28668 0.0
C4342 C 0.00119 0.6191 0.27928 0.0
C4343 C 0.98834 0.62234 0.28019 0.0
C4344 C 0.98325 0.62409 0.294 0.0
C4345 C 0.97118 0.62721 0.29479 0.0
C4346 C 0.96401 0.62847 0.28183 0.0
C4347 C 0.96888 0.62659 0.26805 0.0
C4348 C 0.98097 0.62349 0.26721 0.0
C4349 C 0.00085 0.55929 0.26443 0.0
C4350 C 0.99983 0.55742 0.24891 0.0
C4351 C 0.00392 0.57347 0.27153 0.0
C4352 C 0.00578 0.5859 0.26321 0.0
C4353 C 0.00435 0.58394 0.24771 0.0
C4354 C 0.00158 0.56983 0.24058 0.0
C4355 C 0.00973 0.6011 0.27081 0.0
C4356 C 0.99848 0.60549 0.27104 0.0
C4357 C 0.02417 0.61067 0.27868 0.0
C4358 C 0.03648 0.60657 0.27868 0.0
C4359 C 0.04206 0.60445 0.2653 0.0
C4360 C 0.05353 0.6004 0.26537 0.0
C4361 C 0.05959 0.59854 0.27876 0.0
C4362 C 0.05422 0.60078 0.29211 0.0
C4363 C 0.04274 0.60481 0.2921 0.0
H4364 H 0.06847 0.59541 0.27879 0.0
H4365 H 0.95467 0.63088 0.28246 0.0
H4366 H 0.31469 0.38284 0.33983 0.0
H4367 H 0.33742 0.39802 0.32594 0.0
H4368 H 0.36238 0.38106 0.35156 0.0
H4369 H 0.33975 0.36601 0.36564 0.0
H4370 H 0.38085 0.41183 0.34596 0.0
H4371 H 0.34542 0.36327 0.3184 0.0
H4372 H 0.32021 0.34309 0.30657 0.0
H4373 H 0.32034 0.3768 0.27804 0.0
H4374 H 0.34546 0.39726 0.28987 0.0
H4375 H 0.43768 0.42431 0.29493 0.0
H4376 H 0.4165 0.4124 0.31136 0.0
H4377 H 0.39134 0.42919 0.28581 0.0
H4378 H 0.41226 0.44079 0.26918 0.0
H4379 H 0.37318 0.39883 0.29169 0.0
H4380 H 0.40928 0.44731 0.31902 0.0
H4381 H 0.43462 0.46716 0.33087 0.0
H4382 H 0.43352 0.43324 0.35972 0.0
H4383 H 0.40825 0.41311 0.34789 0.0
C4384 C 0.3251 0.38256 0.34268 0.0
C4385 C 0.32541 0.37313 0.35373 0.0
C4386 C 0.33805 0.39118 0.33469 0.0
C4387 C 0.35149 0.39043 0.33755 0.0
C4388 C 0.35211 0.38175 0.34915 0.0
C4389 C 0.33917 0.37314 0.35716 0.0
C4390 C 0.36448 0.39785 0.32782 0.0
C4391 C 0.37923 0.40888 0.33412 0.0
C4392 C 0.3623 0.39414 0.31234 0.0
C4393 C 0.34724 0.38184 0.30513 0.0
C4394 C 0.34002 0.36641 0.30969 0.0
C4395 C 0.32575 0.35492 0.30297 0.0
C4396 C 0.31866 0.35867 0.29159 0.0
C4397 C 0.32583 0.37392 0.28687 0.0
C4398 C 0.34009 0.38547 0.29358 0.0
C4399 C 0.42759 0.42538 0.29278 0.0
C4400 C 0.42666 0.43354 0.2808 0.0
C4401 C 0.41557 0.4187 0.30224 0.0
C4402 C 0.40243 0.42007 0.2999 0.0
C4403 C 0.40141 0.42806 0.28786 0.0
C4404 C 0.41342 0.43477 0.27843 0.0
C4405 C 0.38956 0.41291 0.30979 0.0
C4406 C 0.37482 0.40185 0.30352 0.0
C4407 C 0.39179 0.41656 0.32529 0.0
C4408 C 0.40694 0.42866 0.33247 0.0
C4409 C 0.4145 0.44404 0.32781 0.0
C4410 C 0.42884 0.45535 0.33454 0.0
C4411 C 0.4357 0.45145 0.34601 0.0
C4412 C 0.42821 0.43624 0.35081 0.0
C4413 C 0.41387 0.42488 0.34411 0.0
H4414 H 0.4468 0.46022 0.35121 0.0
H4415 H 0.30761 0.34976 0.2864 0.0
H4416 H 0.29904 0.29896 0.36642 0.0
H4417 H 0.30821 0.28267 0.37757 0.0
H4418 H 0.29828 0.29407 0.4207 0.0
H4419 H 0.28928 0.31042 0.4097 0.0
H4420 H 0.3269 0.29817 0.42086 0.0
H4421 H 0.2754 0.25809 0.40269 0.0
H4422 H 0.25402 0.24337 0.38363 0.0
H4423 H 0.28224 0.23051 0.3592 0.0
H4424 H 0.30386 0.24534 0.37803 0.0
H4425 H 0.32712 0.24285 0.4666 0.0
H4426 H 0.32008 0.25844 0.45146 0.0
H4427 H 0.33341 0.24281 0.41255 0.0
H4428 H 0.34019 0.2268 0.42768 0.0
H4429 H 0.30556 0.24136 0.40776 0.0
H4430 H 0.35627 0.27936 0.42706 0.0
H4431 H 0.37758 0.29383 0.44621 0.0
H4432 H 0.35116 0.31069 0.46835 0.0
H4433 H 0.32958 0.29613 0.44945 0.0
C4434 C 0.29867 0.29784 0.37826 0.0
C4435 C 0.29346 0.30597 0.3872 0.0
C4436 C 0.30389 0.28853 0.3846 0.0
C4437 C 0.30391 0.28716 0.39997 0.0
C4438 C 0.29842 0.29502 0.40884 0.0
C4439 C 0.29322 0.30431 0.40252 0.0
C4440 C 0.31011 0.278 0.407 0.0
C4441 C 0.32214 0.28571 0.41809 0.0
C4442 C 0.30429 0.2619 0.40299 0.0
C4443 C 0.2913 0.25298 0.39167 0.0
C4444 C 0.27709 0.25224 0.39319 0.0
C4445 C 0.26492 0.24385 0.38244 0.0
C4446 C 0.26678 0.23605 0.37019 0.0
C4447 C 0.28082 0.23658 0.36868 0.0
C4448 C 0.29303 0.24497 0.37939 0.0
C4449 C 0.32849 0.24266 0.45481 0.0
C4450 C 0.33416 0.23357 0.44831 0.0
C4451 C 0.32459 0.25168 0.44619 0.0
C4452 C 0.32637 0.2519 0.43091 0.0
C4453 C 0.33201 0.24283 0.42434 0.0
C4454 C 0.33597 0.2338 0.433 0.0
C4455 C 0.32204 0.26144 0.4219 0.0
C4456 C 0.31043 0.25385 0.41042 0.0
C4457 C 0.32826 0.27768 0.42551 0.0
C4458 C 0.34126 0.28655 0.43688 0.0
C4459 C 0.35495 0.28606 0.43607 0.0
C4460 C 0.36709 0.2943 0.44688 0.0
C4461 C 0.36571 0.30315 0.45851 0.0
C4462 C 0.35221 0.30382 0.45934 0.0
C4463 C 0.34003 0.29559 0.44857 0.0
H4464 H 0.37512 0.30952 0.46686 0.0
H4465 H 0.25735 0.22956 0.36189 0.0
H4466 H 0.67448 0.01234 0.40334 0.0
H4467 H 0.69247 0.03702 0.41761 0.0
H4468 H 0.73081 0.03297 0.40326 0.0
H4469 H 0.71291 0.00837 0.38889 0.0
H4470 H 0.7324 0.04006 0.43388 0.0
H4471 H 0.72322 0.05797 0.38781 0.0
H4472 H 0.70696 0.05981 0.36785 0.0
H4473 H 0.68907 0.07922 0.39927 0.0
H4474 H 0.70507 0.07729 0.41947 0.0
H4475 H 0.79645 0.11493 0.45175 0.0
H4476 H 0.77612 0.09049 0.43911 0.0
H4477 H 0.74206 0.10239 0.45156 0.0
H4478 H 0.76252 0.12709 0.46419 0.0
H4479 H 0.73649 0.09093 0.42344 0.0
H4480 H 0.74612 0.07466 0.4693 0.0
H4481 H 0.7617 0.07265 0.48983 0.0
H4482 H 0.77756 0.04973 0.45998 0.0
H4483 H 0.76225 0.05181 0.43922 0.0
C4484 C 0.68674 0.01674 0.40321 0.0
C4485 C 0.69231 0.00846 0.395 0.0
C4486 C 0.69699 0.03083 0.41132 0.0
C4487 C 0.71295 0.03682 0.41142 0.0
C4488 C 0.71852 0.02852 0.40331 0.0
C4489 C 0.7083 0.01452 0.39508 0.0
C4490 C 0.72389 0.05167 0.42008 0.0
C4491 C 0.73342 0.05123 0.43152 0.0
C4492 C 0.72478 0.06609 0.41731 0.0
C4493 C 0.71521 0.06732 0.40517 0.0
C4494 C 0.71572 0.0625 0.39048 0.0
C4495 C 0.70657 0.06359 0.37912 0.0
C4496 C 0.69695 0.06958 0.38229 0.0
C4497 C 0.6965 0.07455 0.39683 0.0
C4498 C 0.70562 0.07348 0.40824 0.0
C4499 C 0.78462 0.11227 0.45195 0.0
C4500 C 0.78105 0.12282 0.45912 0.0
C4501 C 0.773 0.0983 0.4447 0.0
C4502 C 0.75753 0.09446 0.44462 0.0
C4503 C 0.75392 0.10509 0.45155 0.0
C4504 C 0.7656 0.11917 0.45874 0.0
C4505 C 0.74524 0.07941 0.4371 0.0
C4506 C 0.73541 0.07978 0.42591 0.0
C4507 C 0.74395 0.06486 0.4402 0.0
C4508 C 0.75312 0.0635 0.45268 0.0
C4509 C 0.75302 0.06929 0.46709 0.0
C4510 C 0.76179 0.06812 0.47878 0.0
C4511 C 0.77064 0.06109 0.47621 0.0
C4512 C 0.77071 0.05518 0.46195 0.0
C4513 C 0.76197 0.05634 0.45022 0.0
H4514 H 0.77742 0.0602 0.48527 0.0
H4515 H 0.68988 0.07041 0.37348 0.0
H4516 H 0.98476 0.70295 0.33879 0.0
H4517 H 0.96128 0.69414 0.35211 0.0
H4518 H 0.98501 0.69128 0.39152 0.0
H4519 H 0.0081 0.69936 0.37812 0.0
H4520 H 0.95826 0.66662 0.3883 0.0
H4521 H 0.97698 0.72212 0.38589 0.0
H4522 H 0.98528 0.74661 0.37344 0.0
H4523 H 0.94103 0.72582 0.34945 0.0
H4524 H 0.93253 0.70113 0.36164 0.0
H4525 H 0.91479 0.67042 0.44612 0.0
H4526 H 0.93458 0.67638 0.42853 0.0
H4527 H 0.9015 0.66755 0.39233 0.0
H4528 H 0.8816 0.66155 0.40994 0.0
H4529 H 0.93023 0.69594 0.39128 0.0
H4530 H 0.91109 0.64121 0.39653 0.0
H4531 H 0.90331 0.61759 0.41027 0.0
H4532 H 0.94932 0.63808 0.43032 0.0
H4533 H 0.95733 0.66193 0.41687 0.0
C4534 C 0.98492 0.70049 0.35031 0.0
C4535 C 0.99821 0.7018 0.35743 0.0
C4536 C 0.97153 0.69551 0.35793 0.0
C4537 C 0.97137 0.69214 0.37288 0.0
C4538 C 0.98477 0.69369 0.37998 0.0
C4539 C 0.998 0.69837 0.37233 0.0
C4540 C 0.9573 0.68672 0.38122 0.0
C4541 C 0.95224 0.67314 0.38903 0.0
C4542 C 0.9491 0.6949 0.38186 0.0
C4543 C 0.95419 0.70973 0.37454 0.0
C4544 C 0.96906 0.72274 0.37787 0.0
C4545 C 0.97379 0.73666 0.37088 0.0
C4546 C 0.9637 0.73776 0.36062 0.0
C4547 C 0.94884 0.72495 0.35737 0.0
C4548 C 0.94406 0.71099 0.36432 0.0
C4549 C 0.91175 0.66973 0.43441 0.0
C4550 C 0.89668 0.66551 0.42938 0.0
C4551 C 0.92302 0.67307 0.42438 0.0
C4552 C 0.91946 0.67232 0.40914 0.0
C4553 C 0.90444 0.66815 0.40405 0.0
C4554 C 0.89309 0.66463 0.41409 0.0
C4555 C 0.9316 0.67619 0.39862 0.0
C4556 C 0.93621 0.68939 0.39039 0.0
C4557 C 0.93953 0.66779 0.39773 0.0
C4558 C 0.93478 0.65341 0.40577 0.0
C4559 C 0.91952 0.64073 0.40396 0.0
C4560 C 0.91507 0.62729 0.41168 0.0
C4561 C 0.9258 0.62635 0.42119 0.0
C4562 C 0.94101 0.63883 0.42296 0.0
C4563 C 0.94552 0.65231 0.41528 0.0
H4564 H 0.92233 0.61593 0.42716 0.0
H4565 H 0.96738 0.74855 0.35522 0.0
H4566 H 0.34939 0.00331 0.71394 0.0
H4567 H 0.36674 0.99948 0.73054 0.0
H4568 H 0.40598 0.03585 0.71043 0.0
H4569 H 0.38862 0.03968 0.69365 0.0
H4570 H 0.40924 0.01042 0.71548 0.0
H4571 H 0.39581 0.04404 0.7427 0.0
H4572 H 0.37811 0.05186 0.75297 0.0
H4573 H 0.35819 0.01105 0.77815 0.0
H4574 H 0.37562 0.00285 0.76784 0.0
H4575 H 0.46715 0.02606 0.77084 0.0
H4576 H 0.44918 0.02852 0.75392 0.0
H4577 H 0.41084 0.99278 0.77555 0.0
H4578 H 0.42886 0.99064 0.79296 0.0
H4579 H 0.40672 0.01723 0.76968 0.0
H4580 H 0.42079 0.98399 0.74282 0.0
H4581 H 0.43886 0.97659 0.73273 0.0
H4582 H 0.4579 0.01701 0.70703 0.0
H4583 H 0.44009 0.02478 0.71713 0.0
C4584 C 0.3617 0.01042 0.71296 0.0
C4585 C 0.36766 0.02186 0.70255 0.0
C4586 C 0.3716 0.00825 0.7225 0.0
C4587 C 0.38764 0.01753 0.72185 0.0
C4588 C 0.39363 0.0286 0.71113 0.0
C4589 C 0.38371 0.03079 0.70158 0.0
C4590 C 0.39815 0.01596 0.73264 0.0
C4591 C 0.40882 0.01208 0.72733 0.0
C4592 C 0.39735 0.0178 0.7481 0.0
C4593 C 0.38691 0.02275 0.75438 0.0
C4594 C 0.38757 0.03666 0.75033 0.0
C4595 C 0.3776 0.04118 0.75618 0.0
C4596 C 0.36701 0.03194 0.76618 0.0
C4597 C 0.36639 0.01819 0.77038 0.0
C4598 C 0.37631 0.0136 0.76455 0.0
C4599 C 0.4549 0.0189 0.77219 0.0
C4600 C 0.44943 0.0082 0.78331 0.0
C4601 C 0.44464 0.02019 0.76238 0.0
C4602 C 0.42867 0.01068 0.76334 0.0
C4603 C 0.42313 0.00018 0.77458 0.0
C4604 C 0.43342 0.9989 0.78445 0.0
C4605 C 0.41782 0.0117 0.75254 0.0
C4606 C 0.40709 0.01549 0.75784 0.0
C4607 C 0.41859 0.00979 0.73707 0.0
C4608 C 0.42918 0.00503 0.73082 0.0
C4609 C 0.42889 0.99136 0.73508 0.0
C4610 C 0.43908 0.98709 0.72936 0.0
C4611 C 0.44953 0.99633 0.71926 0.0
C4612 C 0.4498 0.00986 0.71485 0.0
C4613 C 0.43965 0.01419 0.72056 0.0
H4614 H 0.4574 0.993 0.71482 0.0
H4615 H 0.3593 0.03546 0.77069 0.0
H4616 H 0.99056 0.32817 0.75708 0.0
H4617 H 0.99492 0.3519 0.77113 0.0
H4618 H 0.96117 0.3539 0.74188 0.0
H4619 H 0.95697 0.33033 0.72761 0.0
H4620 H 0.98633 0.38226 0.74701 0.0
H4621 H 0.95273 0.34063 0.77661 0.0
H4622 H 0.94456 0.31707 0.79056 0.0
H4623 H 0.9854 0.3422 0.81985 0.0
H4624 H 0.99392 0.36586 0.80595 0.0
H4625 H 0.97409 0.43597 0.78902 0.0
H4626 H 0.97054 0.41208 0.77619 0.0
H4627 H 0.00508 0.41267 0.80638 0.0
H4628 H 0.00826 0.43632 0.81972 0.0
H4629 H 0.98057 0.38332 0.80112 0.0
H4630 H 0.01379 0.42521 0.77184 0.0
H4631 H 0.02168 0.44883 0.75806 0.0
H4632 H 0.98139 0.4232 0.72817 0.0
H4633 H 0.97314 0.39948 0.7419 0.0
C4634 C 0.98407 0.33367 0.75365 0.0
C4635 C 0.9734 0.32739 0.74128 0.0
C4636 C 0.98652 0.34718 0.76173 0.0
C4637 C 0.97823 0.35456 0.75766 0.0
C4638 C 0.96767 0.34838 0.74522 0.0
C4639 C 0.96526 0.3349 0.73711 0.0
C4640 C 0.98065 0.36881 0.76627 0.0
C4641 C 0.98488 0.38244 0.75881 0.0
C4642 C 0.97917 0.36916 0.78174 0.0
C4643 C 0.97404 0.35496 0.79015 0.0
C4644 C 0.96003 0.34109 0.78596 0.0
C4645 C 0.95533 0.32773 0.79386 0.0
C4646 C 0.96448 0.32812 0.80605 0.0
C4647 C 0.97834 0.3419 0.81039 0.0
C4648 C 0.9831 0.3553 0.80251 0.0
C4649 C 0.98078 0.43091 0.7931 0.0
C4650 C 0.99146 0.43806 0.80541 0.0
C4651 C 0.97885 0.41734 0.78564 0.0
C4652 C 0.98772 0.41074 0.79019 0.0
C4653 C 0.99819 0.41764 0.80264 0.0
C4654 C 8e-05 0.43121 0.81017 0.0
C4655 C 0.9861 0.39671 0.78182 0.0
C4656 C 0.98206 0.38315 0.78933 0.0
C4657 C 0.98775 0.39641 0.76639 0.0
C4658 C 0.99279 0.4106 0.75798 0.0
C4659 C 0.00657 0.42464 0.76239 0.0
C4660 C 0.01111 0.43804 0.75458 0.0
C4661 C 0.00202 0.43753 0.74227 0.0
C4662 C 0.98841 0.42359 0.73771 0.0
C4663 C 0.9838 0.41015 0.7455 0.0
H4664 H 0.00555 0.44792 0.73624 0.0
H4665 H 0.96082 0.31776 0.81216 0.0
H4666 H 0.68135 0.61326 0.70379 0.0
H4667 H 0.65899 0.59753 0.71803 0.0
H4668 H 0.64431 0.63144 0.71299 0.0
H4669 H 0.66704 0.64753 0.69953 0.0
H4670 H 0.64236 0.62503 0.73967 0.0
H4671 H 0.62563 0.5929 0.69408 0.0
H4672 H 0.62735 0.57743 0.67295 0.0
H4673 H 0.63056 0.54624 0.70263 0.0
H4674 H 0.62905 0.56165 0.72396 0.0
H4675 H 0.56645 0.57875 0.76333 0.0
H4676 H 0.58767 0.59212 0.74727 0.0
H4677 H 0.60804 0.56563 0.7631 0.0
H4678 H 0.58727 0.55267 0.77968 0.0
H4679 H 0.60678 0.56753 0.73119 0.0
H4680 H 0.6232 0.60066 0.77669 0.0
H4681 H 0.62013 0.61603 0.79703 0.0
H4682 H 0.6159 0.64545 0.76584 0.0
H4683 H 0.61871 0.63009 0.74528 0.0
C4684 C 0.67323 0.61722 0.70561 0.0
C4685 C 0.6759 0.63159 0.70062 0.0
C4686 C 0.66041 0.60819 0.71369 0.0
C4687 C 0.64982 0.61319 0.71651 0.0
C4688 C 0.65231 0.62734 0.71107 0.0
C4689 C 0.66527 0.63651 0.70332 0.0
C4690 C 0.63664 0.60425 0.72581 0.0
C4691 C 0.63447 0.61249 0.73761 0.0
C4692 C 0.62648 0.58781 0.72343 0.0
C4693 C 0.62739 0.57853 0.71063 0.0
C4694 C 0.62682 0.58282 0.69611 0.0
C4695 C 0.62774 0.57404 0.68409 0.0
C4696 C 0.62911 0.56089 0.68645 0.0
C4697 C 0.62952 0.55645 0.70082 0.0
C4698 C 0.62862 0.56519 0.71288 0.0
C4699 C 0.57551 0.57586 0.76355 0.0
C4700 C 0.57514 0.56465 0.77289 0.0
C4701 C 0.58755 0.58343 0.75426 0.0
C4702 C 0.59939 0.57985 0.75404 0.0
C4703 C 0.59893 0.56846 0.76306 0.0
C4704 C 0.587 0.56102 0.77249 0.0
C4705 C 0.61253 0.5884 0.74475 0.0
C4706 C 0.6147 0.58008 0.73308 0.0
C4707 C 0.62256 0.6048 0.74707 0.0
C4708 C 0.62102 0.61413 0.75944 0.0
C4709 C 0.62149 0.61033 0.77416 0.0
C4710 C 0.61982 0.61905 0.78573 0.0
C4711 C 0.61778 0.63168 0.78272 0.0
C4712 C 0.61746 0.63564 0.76814 0.0
C4713 C 0.6191 0.62694 0.75653 0.0
H4714 H 0.61649 0.63842 0.7917 0.0
H4715 H 0.62981 0.55411 0.67713 0.0
H4716 H 0.68659 0.67258 0.64579 0.0
H4717 H 0.67803 0.68913 0.6344 0.0
H4718 H 0.71 0.72846 0.6642 0.0
H4719 H 0.71853 0.71187 0.67579 0.0
H4720 H 0.68156 0.72569 0.66178 0.0
H4721 H 0.71812 0.72629 0.62879 0.0
H4722 H 0.72937 0.71447 0.61271 0.0
H4723 H 0.68736 0.69095 0.58489 0.0
H4724 H 0.67576 0.70246 0.60092 0.0
H4725 H 0.67776 0.78512 0.62328 0.0
H4726 H 0.68582 0.76871 0.63575 0.0
H4727 H 0.65661 0.72973 0.60435 0.0
H4728 H 0.64909 0.74628 0.59139 0.0
H4729 H 0.68394 0.73251 0.60783 0.0
H4730 H 0.64713 0.73144 0.64056 0.0
H4731 H 0.63537 0.74268 0.65667 0.0
H4732 H 0.67708 0.7664 0.68494 0.0
H4733 H 0.68916 0.75547 0.66888 0.0
C4734 C 0.69182 0.68476 0.64991 0.0
C4735 C 0.70327 0.69096 0.66164 0.0
C4736 C 0.68695 0.69421 0.64336 0.0
C4737 C 0.6935 0.71006 0.64836 0.0
C4738 C 0.70483 0.71625 0.66017 0.0
C4739 C 0.70972 0.70679 0.66673 0.0
C4740 C 0.68845 0.72013 0.64127 0.0
C4741 C 0.68227 0.72738 0.65002 0.0
C4742 C 0.68903 0.72197 0.62586 0.0
C4743 C 0.69603 0.71514 0.61614 0.0
C4744 C 0.71124 0.71851 0.61931 0.0
C4745 C 0.71768 0.71188 0.61019 0.0
C4746 C 0.70907 0.70194 0.59781 0.0
C4747 C 0.69401 0.69864 0.59449 0.0
C4748 C 0.6875 0.70523 0.60358 0.0
C4749 C 0.67306 0.77306 0.61902 0.0
C4750 C 0.66276 0.76702 0.60634 0.0
C4751 C 0.67756 0.76364 0.62625 0.0
C4752 C 0.67171 0.74793 0.62108 0.0
C4753 C 0.66125 0.7418 0.60857 0.0
C4754 C 0.65682 0.75124 0.60127 0.0
C4755 C 0.67694 0.73806 0.62832 0.0
C4756 C 0.6832 0.73084 0.6196 0.0
C4757 C 0.67635 0.73619 0.64374 0.0
C4758 C 0.6691 0.74275 0.65343 0.0
C4759 C 0.65383 0.73915 0.65015 0.0
C4760 C 0.6471 0.74545 0.65928 0.0
C4761 C 0.65548 0.75528 0.6718 0.0
C4762 C 0.6706 0.7588 0.67523 0.0
C4763 C 0.6774 0.75255 0.66612 0.0
H4764 H 0.65025 0.76015 0.67885 0.0
H4765 H 0.71409 0.69685 0.59075 0.0
H4766 H 0.3218 0.99281 0.63675 0.0
H4767 H 0.30327 0.96849 0.62239 0.0
H4768 H 0.27218 0.9562 0.65749 0.0
H4769 H 0.29047 0.9807 0.6717 0.0
H4770 H 0.291 0.93847 0.62634 0.0
H4771 H 0.23543 0.93741 0.64336 0.0
H4772 H 0.22708 0.95613 0.65088 0.0
H4773 H 0.26333 0.99198 0.6277 0.0
H4774 H 0.27176 0.97342 0.61988 0.0
H4775 H 0.22484 0.86338 0.60826 0.0
H4776 H 0.24557 0.88826 0.62008 0.0
H4777 H 0.23321 0.91369 0.59019 0.0
H4778 H 0.21226 0.88882 0.57857 0.0
H4779 H 0.23694 0.92595 0.61677 0.0
H4780 H 0.26642 0.91128 0.58714 0.0
H4781 H 0.27552 0.89402 0.57708 0.0
H4782 H 0.29274 0.8922 0.62059 0.0
H4783 H 0.28355 0.90928 0.63095 0.0
C4784 C 0.31102 0.9849 0.64141 0.0
C4785 C 0.30751 0.98869 0.65528 0.0
C4786 C 0.30047 0.97099 0.63322 0.0
C4787 C 0.28625 0.96063 0.63877 0.0
C4788 C 0.28295 0.96417 0.65285 0.0
C4789 C 0.29342 0.97814 0.66098 0.0
C4790 C 0.27474 0.94626 0.62973 0.0
C4791 C 0.27917 0.93572 0.62424 0.0
C4792 C 0.25942 0.94286 0.62667 0.0
C4793 C 0.25431 0.95406 0.63116 0.0
C4794 C 0.24158 0.94927 0.63982 0.0
C4795 C 0.23684 0.95985 0.64414 0.0
C4796 C 0.2447 0.97525 0.63981 0.0
C4797 C 0.25728 0.98007 0.6311 0.0
C4798 C 0.26206 0.96953 0.62673 0.0
C4799 C 0.2267 0.87429 0.6041 0.0
C4800 C 0.21696 0.87421 0.59252 0.0
C4801 C 0.23856 0.8885 0.61084 0.0
C4802 C 0.24104 0.90286 0.60595 0.0
C4803 C 0.23148 0.90276 0.59419 0.0
C4804 C 0.21953 0.88857 0.58756 0.0
C4805 C 0.2531 0.91799 0.61355 0.0
C4806 C 0.24876 0.92868 0.61882 0.0
C4807 C 0.2686 0.92171 0.61603 0.0
C4808 C 0.27418 0.91145 0.60984 0.0
C4809 C 0.27204 0.9071 0.59458 0.0
C4810 C 0.27724 0.89736 0.58882 0.0
C4811 C 0.28467 0.89198 0.59819 0.0
C4812 C 0.28696 0.89636 0.61335 0.0
C4813 C 0.28178 0.90609 0.61917 0.0
H4814 H 0.28868 0.88445 0.59371 0.0
H4815 H 0.24102 0.98343 0.64318 0.0
H4816 H 0.00513 0.31742 0.68471 0.0
H4817 H 0.02754 0.32372 0.67067 0.0
H4818 H 0.03631 0.29246 0.69566 0.0
H4819 H 0.01367 0.28593 0.70975 0.0
H4820 H 0.06344 0.32248 0.69079 0.0
H4821 H 0.02012 0.27879 0.66402 0.0
H4822 H 0.99358 0.26412 0.65254 0.0
H4823 H 0.00451 0.30052 0.62281 0.0
H4824 H 0.03108 0.31556 0.6343 0.0
H4825 H 0.1147 0.31915 0.64038 0.0
H4826 H 0.09378 0.31234 0.65676 0.0
H4827 H 0.07706 0.33667 0.63023 0.0
H4828 H 0.09761 0.34304 0.61352 0.0
H4829 H 0.05386 0.30875 0.63662 0.0
H4830 H 0.09701 0.3528 0.66377 0.0
H4831 H 0.12336 0.36784 0.67568 0.0
H4832 H 0.11277 0.33104 0.70485 0.0
H4833 H 0.0864 0.31567 0.69296 0.0
C4834 C 0.01189 0.31198 0.68734 0.0
C4835 C 0.00761 0.30112 0.69828 0.0
C4836 C 0.02467 0.31558 0.67929 0.0
C4837 C 0.03347 0.30845 0.68208 0.0
C4838 C 0.02962 0.29806 0.69337 0.0
C4839 C 0.0167 0.29431 0.70136 0.0
C4840 C 0.04621 0.31141 0.67264 0.0
C4841 C 0.06138 0.31927 0.67898 0.0
C4842 C 0.04345 0.30745 0.65722 0.0
C4843 C 0.02756 0.29837 0.65011 0.0
C4844 C 0.01684 0.28374 0.65511 0.0
C4845 C 0.00179 0.27535 0.6486 0.0
C4846 C 0.99735 0.2814 0.63699 0.0
C4847 C 0.00796 0.29586 0.63183 0.0
C4848 C 0.02303 0.30431 0.63833 0.0
C4849 C 0.10652 0.32297 0.63799 0.0
C4850 C 0.10784 0.33167 0.62565 0.0
C4851 C 0.09465 0.3192 0.64744 0.0
C4852 C 0.08395 0.32412 0.64481 0.0
C4853 C 0.08522 0.33278 0.6325 0.0
C4854 C 0.09707 0.33654 0.62304 0.0
C4855 C 0.07122 0.32004 0.6547 0.0
C4856 C 0.05599 0.31192 0.64843 0.0
C4857 C 0.07396 0.32378 0.67018 0.0
C4858 C 0.08979 0.33302 0.67737 0.0
C4859 C 0.10034 0.34786 0.67264 0.0
C4860 C 0.11527 0.35645 0.6794 0.0
C4861 C 0.11975 0.35038 0.69098 0.0
C4862 C 0.10929 0.33572 0.69586 0.0
C4863 C 0.09435 0.32707 0.68912 0.0
H4864 H 0.13131 0.35705 0.69621 0.0
H4865 H 0.9857 0.27486 0.63197 0.0
H4866 H 0.31234 0.31248 0.65669 0.0
H4867 H 0.29726 0.32075 0.64188 0.0
H4868 H 0.27484 0.32337 0.68069 0.0
H4869 H 0.28948 0.31439 0.69545 0.0
H4870 H 0.25457 0.31128 0.65865 0.0
H4871 H 0.3044 0.35692 0.66583 0.0
H4872 H 0.33275 0.37275 0.66596 0.0
H4873 H 0.33023 0.36384 0.61887 0.0
H4874 H 0.30187 0.34776 0.61849 0.0
H4875 H 0.2245 0.35489 0.62563 0.0
H4876 H 0.24139 0.34962 0.64147 0.0
H4877 H 0.2566 0.33565 0.6029 0.0
H4878 H 0.23977 0.34103 0.58692 0.0
H4879 H 0.28069 0.35484 0.62563 0.0
H4880 H 0.22967 0.30811 0.62 0.0
H4881 H 0.2014 0.29458 0.62108 0.0
H4882 H 0.20674 0.30842 0.66745 0.0
H4883 H 0.23507 0.32223 0.6666 0.0
C4884 C 0.30416 0.31478 0.66205 0.0
C4885 C 0.30212 0.31287 0.67722 0.0
C4886 C 0.29562 0.31961 0.6536 0.0
C4887 C 0.28515 0.32304 0.66022 0.0
C4888 C 0.28289 0.32087 0.67534 0.0
C4889 C 0.29127 0.31576 0.68376 0.0
C4890 C 0.27648 0.32874 0.65129 0.0
C4891 C 0.26035 0.32096 0.65162 0.0
C4892 C 0.28395 0.34132 0.64199 0.0
C4893 C 0.30101 0.35101 0.64215 0.0
C4894 C 0.3099 0.35824 0.65552 0.0
C4895 C 0.32597 0.36727 0.65564 0.0
C4896 C 0.33329 0.36927 0.64244 0.0
C4897 C 0.32455 0.36227 0.62909 0.0
C4898 C 0.30847 0.35321 0.62891 0.0
C4899 C 0.2317 0.35103 0.6205 0.0
C4900 C 0.23087 0.34839 0.60504 0.0
C4901 C 0.24125 0.34793 0.62957 0.0
C4902 C 0.25012 0.34214 0.62333 0.0
C4903 C 0.24982 0.34011 0.60788 0.0
C4904 C 0.24017 0.3431 0.5988 0.0
C4905 C 0.25893 0.33727 0.63296 0.0
C4906 C 0.27503 0.34521 0.63274 0.0
C4907 C 0.25149 0.32507 0.64258 0.0
C4908 C 0.23448 0.3163 0.64321 0.0
C4909 C 0.22481 0.30831 0.63041 0.0
C4910 C 0.20878 0.3006 0.63098 0.0
C4911 C 0.20228 0.30067 0.64432 0.0
C4912 C 0.2118 0.30838 0.65713 0.0
C4913 C 0.22784 0.31614 0.65661 0.0
H4914 H 0.18987 0.29473 0.64473 0.0
H4915 H 0.34573 0.37627 0.64255 0.0
H4916 H 0.70818 0.00207 0.65404 0.0
H4917 H 0.70009 0.97705 0.64027 0.0
H4918 H 0.65707 0.97372 0.62601 0.0
H4919 H 0.66509 0.99882 0.63985 0.0
H4920 H 0.65348 0.94528 0.63469 0.0
H4921 H 0.68419 0.98531 0.60258 0.0
H4922 H 0.70709 0.00958 0.59592 0.0
H4923 H 0.73538 0.98919 0.60414 0.0
H4924 H 0.71268 0.96487 0.61107 0.0
H4925 H 0.63479 0.88379 0.5789 0.0
H4926 H 0.63986 0.90845 0.59171 0.0
H4927 H 0.68576 0.91889 0.60565 0.0
H4928 H 0.68079 0.89439 0.59288 0.0
H4929 H 0.68644 0.94416 0.59582 0.0
H4930 H 0.65653 0.90495 0.6293 0.0
H4931 H 0.63401 0.88072 0.63661 0.0
H4932 H 0.60463 0.89943 0.62636 0.0
H4933 H 0.62695 0.9237 0.61879 0.0
C4934 C 0.69696 0.99597 0.64806 0.0
C4935 C 0.6873 0.00243 0.64794 0.0
C4936 C 0.69237 0.98171 0.64016 0.0
C4937 C 0.67807 0.97366 0.63198 0.0
C4938 C 0.66817 0.9798 0.63223 0.0
C4939 C 0.67278 0.99413 0.6401 0.0
C4940 C 0.67372 0.95904 0.62288 0.0
C4941 C 0.66053 0.94504 0.62602 0.0
C4942 C 0.68309 0.95875 0.61176 0.0
C4943 C 0.69675 0.97331 0.60746 0.0
C4944 C 0.69531 0.98604 0.60307 0.0
C4945 C 0.70825 0.9998 0.59924 0.0
C4946 C 0.72268 0.00094 0.59964 0.0
C4947 C 0.72419 0.98829 0.60385 0.0
C4948 C 0.71129 0.97451 0.60772 0.0
C4949 C 0.64593 0.89134 0.58474 0.0
C4950 C 0.65742 0.88719 0.58483 0.0
C4951 C 0.64881 0.90541 0.59206 0.0
C4952 C 0.66315 0.91546 0.59973 0.0
C4953 C 0.67464 0.91136 0.59974 0.0
C4954 C 0.6718 0.89738 0.59239 0.0
C4955 C 0.66632 0.93028 0.60777 0.0
C4956 C 0.6793 0.94437 0.60441 0.0
C4957 C 0.6568 0.93062 0.61873 0.0
C4958 C 0.64338 0.91606 0.62332 0.0
C4959 C 0.64524 0.90384 0.62849 0.0
C4960 C 0.63252 0.89011 0.63271 0.0
C4961 C 0.61789 0.88852 0.63191 0.0
C4962 C 0.61596 0.90067 0.62695 0.0
C4963 C 0.62865 0.91442 0.6227 0.0
H4964 H 0.60805 0.87788 0.63518 0.0
H4965 H 0.73269 0.0116 0.59667 0.0
H4966 H 0.0012 0.7137 0.70057 0.0
H4967 H 0.02488 0.72733 0.68751 0.0
H4968 H 0.00234 0.69453 0.64941 0.0
H4969 H 0.97899 0.68051 0.66266 0.0
H4970 H 0.02949 0.69889 0.65353 0.0
H4971 H 0.00909 0.73371 0.65191 0.0
H4972 H 0.99947 0.75042 0.66225 0.0
H4973 H 0.04278 0.77936 0.68721 0.0
H4974 H 0.0526 0.7627 0.67716 0.0
H4975 H 0.07518 0.74289 0.59621 0.0
H4976 H 0.05451 0.72966 0.61296 0.0
H4977 H 0.0859 0.75743 0.65022 0.0
H4978 H 0.10673 0.77061 0.63348 0.0
H4979 H 0.05642 0.7564 0.64853 0.0
H4980 H 0.07704 0.72185 0.64738 0.0
H4981 H 0.08598 0.7053 0.63532 0.0
H4982 H 0.04098 0.67584 0.61352 0.0
H4983 H 0.03183 0.69236 0.62527 0.0
C4984 C 0.00133 0.70946 0.68939 0.0
C4985 C 0.98828 0.69608 0.68261 0.0
C4986 C 0.01484 0.71728 0.68191 0.0
C4987 C 0.01538 0.7121 0.66738 0.0
C4988 C 0.00227 0.69875 0.66061 0.0
C4989 C 0.9889 0.69077 0.66818 0.0
C4990 C 0.02957 0.72037 0.65916 0.0
C4991 C 0.03526 0.71145 0.65234 0.0
C4992 C 0.03739 0.73683 0.65787 0.0
C4993 C 0.03151 0.74686 0.66392 0.0
C4994 C 0.01652 0.74357 0.65969 0.0
C4995 C 0.01104 0.75304 0.66548 0.0
C4996 C 0.02049 0.76591 0.67541 0.0
C4997 C 0.03546 0.76937 0.67954 0.0
C4998 C 0.04099 0.75992 0.67379 0.0
C4999 C 0.07767 0.74611 0.60798 0.0
C5000 C 0.09251 0.75773 0.61359 0.0
C5001 C 0.0659 0.73853 0.61752 0.0
C5002 C 0.06873 0.74256 0.6328 0.0
C5003 C 0.08354 0.75417 0.63845 0.0
C5004 C 0.0954 0.76159 0.62892 0.0
C5005 C 0.05603 0.73484 0.64275 0.0
C5006 C 0.05067 0.74387 0.64988 0.0
C5007 C 0.04835 0.71846 0.64412 0.0
C5008 C 0.05379 0.70843 0.63711 0.0
C5009 C 0.06909 0.71192 0.63992 0.0
C5010 C 0.07418 0.70253 0.63316 0.0
C5011 C 0.06406 0.68954 0.62363 0.0
C5012 C 0.04881 0.6859 0.62088 0.0
C5013 C 0.04366 0.69527 0.62761 0.0
H5014 H 0.06803 0.68228 0.61841 0.0
H5015 H 0.01622 0.77323 0.67988 0.0
H5016 H 0.93341 0.61704 0.71542 0.0
H5017 H 0.93834 0.59756 0.72644 0.0
H5018 H 0.98444 0.6342 0.74114 0.0
H5019 H 0.97958 0.6537 0.7303 0.0
H5020 H 0.98297 0.60698 0.7281 0.0
H5021 H 0.9582 0.62178 0.76509 0.0
H5022 H 0.93732 0.62537 0.77425 0.0
H5023 H 0.90498 0.57619 0.76475 0.0
H5024 H 0.92565 0.57235 0.75533 0.0
H5025 H 0.0067 0.57541 0.78492 0.0
H5026 H 0.99977 0.59083 0.76934 0.0
H5027 H 0.95297 0.55197 0.76326 0.0
H5028 H 0.95983 0.53655 0.77901 0.0
H5029 H 0.95297 0.57808 0.7698 0.0
H5030 H 0.97771 0.56236 0.73499 0.0
H5031 H 0.99818 0.55832 0.72548 0.0
H5032 H 0.02989 0.60808 0.72995 0.0
H5033 H 0.00966 0.61242 0.73969 0.0
C5034 C 0.94461 0.62091 0.72096 0.0
C5035 C 0.95609 0.63688 0.72208 0.0
C5036 C 0.94739 0.60979 0.72724 0.0
C5037 C 0.96174 0.61449 0.73463 0.0
C5038 C 0.97332 0.63036 0.73545 0.0
C5039 C 0.97049 0.64148 0.72933 0.0
C5040 C 0.96461 0.603 0.74196 0.0
C5041 C 0.9765 0.60071 0.73728 0.0
C5042 C 0.95583 0.59453 0.75363 0.0
C5043 C 0.94343 0.59682 0.75934 0.0
C5044 C 0.94661 0.61176 0.76483 0.0
C5045 C 0.93482 0.61383 0.77009 0.0
C5046 C 0.91983 0.60102 0.77004 0.0
C5047 C 0.9166 0.58611 0.76476 0.0
C5048 C 0.92834 0.58397 0.75946 0.0
C5049 C 0.99499 0.57008 0.78008 0.0
C5050 C 0.9838 0.55478 0.78316 0.0
C5051 C 0.99104 0.57889 0.77116 0.0
C5052 C 0.97588 0.5725 0.76498 0.0
C5053 C 0.96473 0.55714 0.76791 0.0
C5054 C 0.96865 0.54837 0.77692 0.0
C5055 C 0.97153 0.58214 0.7561 0.0
C5056 C 0.95935 0.58414 0.7605 0.0
C5057 C 0.97998 0.59024 0.74408 0.0
C5058 C 0.99219 0.5877 0.73819 0.0
C5059 C 0.98908 0.57244 0.73405 0.0
C5060 C 0.00064 0.57009 0.7286 0.0
C5061 C 0.01534 0.58293 0.72714 0.0
C5062 C 0.0185 0.59814 0.7311 0.0
C5063 C 0.00698 0.60056 0.73657 0.0
H5064 H 0.02427 0.58109 0.72292 0.0
H5065 H 0.91071 0.60265 0.77412 0.0
H5066 H 0.34439 0.35033 0.7299 0.0
H5067 H 0.36302 0.37497 0.74379 0.0
H5068 H 0.4003 0.36868 0.73014 0.0
H5069 H 0.38174 0.34403 0.7162 0.0
H5070 H 0.40172 0.37538 0.7604 0.0
H5071 H 0.39471 0.39562 0.71512 0.0
H5072 H 0.37952 0.3989 0.69504 0.0
H5073 H 0.36192 0.41851 0.72659 0.0
H5074 H 0.37683 0.41514 0.74689 0.0
H5075 H 0.46547 0.449 0.78421 0.0
H5076 H 0.44599 0.4255 0.76959 0.0
H5077 H 0.41116 0.43688 0.78041 0.0
H5078 H 0.43079 0.46069 0.79489 0.0
H5079 H 0.40756 0.42742 0.75209 0.0
H5080 H 0.41409 0.40766 0.7973 0.0
H5081 H 0.42839 0.40402 0.81797 0.0
H5082 H 0.44562 0.38291 0.78761 0.0
H5083 H 0.43159 0.38664 0.76672 0.0
C5084 C 0.35657 0.35428 0.72975 0.0
C5085 C 0.36163 0.34527 0.72198 0.0
C5086 C 0.36718 0.36836 0.73765 0.0
C5087 C 0.38302 0.37365 0.73793 0.0
C5088 C 0.38811 0.36477 0.73004 0.0
C5089 C 0.37751 0.35075 0.72205 0.0
C5090 C 0.39424 0.3881 0.74696 0.0
C5091 C 0.40317 0.38681 0.75847 0.0
C5092 C 0.39567 0.40286 0.74475 0.0
C5093 C 0.38677 0.40498 0.73254 0.0
C5094 C 0.3875 0.40051 0.71779 0.0
C5095 C 0.37896 0.40241 0.70637 0.0
C5096 C 0.36973 0.40887 0.70954 0.0
C5097 C 0.36905 0.41349 0.72415 0.0
C5098 C 0.37756 0.4116 0.73562 0.0
C5099 C 0.45363 0.4464 0.7836 0.0
C5100 C 0.44959 0.45654 0.79083 0.0
C5101 C 0.44251 0.43297 0.77524 0.0
C5102 C 0.42705 0.42926 0.77412 0.0
C5103 C 0.423 0.43949 0.78117 0.0
C5104 C 0.43419 0.45305 0.78944 0.0
C5105 C 0.41522 0.41476 0.76547 0.0
C5106 C 0.40612 0.416 0.75406 0.0
C5107 C 0.41349 0.39989 0.76788 0.0
C5108 C 0.42189 0.39755 0.78043 0.0
C5109 C 0.42102 0.40235 0.79502 0.0
C5110 C 0.42906 0.40025 0.80678 0.0
C5111 C 0.43794 0.39327 0.8041 0.0
C5112 C 0.43875 0.38833 0.78967 0.0
C5113 C 0.43074 0.39042 0.77786 0.0
H5114 H 0.44416 0.39166 0.81322 0.0
H5115 H 0.36312 0.41033 0.70069 0.0
H5116 H 0.67778 0.04594 0.71212 0.0
H5117 H 0.65548 0.04034 0.72595 0.0
H5118 H 0.62863 0.03343 0.68513 0.0
H5119 H 0.65125 0.03953 0.67115 0.0
H5120 H 0.62197 0.04861 0.70618 0.0
H5121 H 0.62481 0.00191 0.70284 0.0
H5122 H 0.63712 0.98579 0.70455 0.0
H5123 H 0.64686 0.99797 0.7513 0.0
H5124 H 0.63481 0.01436 0.74984 0.0
H5125 H 0.552 0.01004 0.74435 0.0
H5126 H 0.57189 0.01525 0.72696 0.0
H5127 H 0.60554 0.0278 0.76361 0.0
H5128 H 0.58573 0.02243 0.78101 0.0
H5129 H 0.60653 0.00767 0.7423 0.0
H5130 H 0.60479 0.05585 0.74465 0.0
H5131 H 0.59194 0.07142 0.74241 0.0
H5132 H 0.57898 0.05513 0.69661 0.0
H5133 H 0.59159 0.03929 0.69864 0.0
C5134 C 0.66717 0.04334 0.70607 0.0
C5135 C 0.6662 0.04302 0.69054 0.0
C5136 C 0.6544 0.04007 0.71399 0.0
C5137 C 0.64026 0.03608 0.70657 0.0
C5138 C 0.6394 0.03636 0.69108 0.0
C5139 C 0.65229 0.03983 0.68311 0.0
C5140 C 0.62643 0.03129 0.7151 0.0
C5141 C 0.61842 0.03947 0.71388 0.0
C5142 C 0.62184 0.01941 0.72524 0.0
C5143 C 0.629 0.00946 0.7262 0.0
C5144 C 0.62966 0.00123 0.71347 0.0
C5145 C 0.63659 0.99204 0.7144 0.0
C5146 C 0.64279 0.99088 0.72802 0.0
C5147 C 0.64205 0.99889 0.74075 0.0
C5148 C 0.63516 0.00812 0.73988 0.0
C5149 C 0.56363 0.01384 0.74868 0.0
C5150 C 0.56734 0.01588 0.76404 0.0
C5151 C 0.57498 0.01691 0.73874 0.0
C5152 C 0.5902 0.02202 0.74401 0.0
C5153 C 0.59387 0.02391 0.75933 0.0
C5154 C 0.58257 0.02094 0.76925 0.0
C5155 C 0.60236 0.02526 0.73365 0.0
C5156 C 0.61 0.01671 0.73449 0.0
C5157 C 0.60647 0.03666 0.72308 0.0
C5158 C 0.59898 0.04625 0.72184 0.0
C5159 C 0.59909 0.05549 0.73414 0.0
C5160 C 0.59187 0.06438 0.7329 0.0
C5161 C 0.58461 0.06423 0.71939 0.0
C5162 C 0.58459 0.05522 0.70708 0.0
C5163 C 0.59178 0.04629 0.70826 0.0
H5164 H 0.57902 0.07112 0.71845 0.0
H5165 H 0.64815 0.98376 0.72872 0.0
loop_
_geom_bond_atom_site_label_1
_geom_bond_atom_site_label_2
_geom_bond_distance
_geom_bond_site_symmetry_2
_ccdc_geom_bond_type
In0 O1 2.294 1_455 S
In0 O2 2.326 . S
In0 O6 2.266 1_455 S
In0 O7 2.326 1_454 S
In0 O8 2.266 1_554 S
In0 O9 2.326 1_455 S
In0 O11 2.294 . S
In0 O12 2.326 . S
O1 In0 2.294 1_655 S
O1 C10 1.211 1_655 S
O2 In0 2.326 . S
O2 C10 1.313 . S
C3 O6 1.252 . S
C3 O7 1.260 1_554 S
C4 O11 1.240 . S
C4 O12 1.252 . S
C5 O8 1.252 . S
C5 O9 1.260 1_456 S
O6 In0 2.266 1_655 S
O6 C3 1.252 . S
O7 In0 2.326 1_656 S
O7 C3 1.260 1_556 S
O8 In0 2.266 1_556 S
O8 C5 1.252 . S
O9 In0 2.326 1_655 S
O9 C5 1.260 1_654 S
C10 O1 1.211 1_455 S
C10 O2 1.313 . S
O11 In0 2.294 . S
O11 C4 1.240 . S
O12 In0 2.326 . S
O12 C4 1.252 . S
In13 O14 2.294 . S
In13 O15 2.326 . S
In13 O19 2.266 . S
In13 O20 2.326 . S
In13 O21 2.266 . S
In13 O22 2.326 . S
In13 O24 2.294 . S
In13 O25 2.326 . S
O14 In13 2.294 . S
O14 C23 1.240 . S
O15 In13 2.326 . S
O15 C23 1.252 . S
C16 O19 1.252 . S
C16 O20 1.260 . S
C17 O24 1.240 . S
C17 O25 1.252 . S
C18 O21 1.252 . S
C18 O22 1.260 . S
O19 In13 2.266 . S
O19 C16 1.252 . S
O20 In13 2.326 . S
O20 C16 1.260 . S
O21 In13 2.266 . S
O21 C18 1.252 . S
O22 In13 2.326 . S
O22 C18 1.260 . S
C23 O14 1.240 . S
C23 O15 1.252 . S
O24 In13 2.294 . S
O24 C17 1.240 . S
O25 In13 2.326 . S
O25 C17 1.252 . S
In26 O27 2.304 . S
In26 O28 2.332 1_554 S
In26 O32 2.268 . S
In26 O33 2.318 1_545 S
In26 O34 2.260 1_545 S
In26 O35 2.327 1_545 S
In26 O37 2.288 1_544 S
In26 O38 2.327 . S
O27 In26 2.304 . S
O27 C36 1.240 . S
O28 In26 2.332 1_556 S
O28 C36 1.252 1_556 S
C29 O32 1.252 . S
C29 O33 1.260 1_545 S
C30 O37 1.240 . S
C30 O38 1.252 1_566 S
C31 O34 1.252 . S
C31 O35 1.260 . S
O32 In26 2.268 . S
O32 C29 1.252 . S
O33 In26 2.318 1_565 S
O33 C29 1.260 1_565 S
O34 In26 2.260 1_565 S
O34 C31 1.252 . S
O35 In26 2.327 1_565 S
O35 C31 1.260 . S
C36 O27 1.240 . S
C36 O28 1.252 1_554 S
O37 In26 2.288 1_566 S
O37 C30 1.240 . S
O38 In26 2.327 . S
O38 C30 1.252 1_544 S
In39 O40 2.292 . S
In39 O41 2.326 1_455 S
In39 O45 2.265 . S
In39 O46 2.326 . S
In39 O47 2.267 1_455 S
In39 O48 2.324 . S
In39 O50 2.296 1_455 S
In39 O51 2.327 1_455 S
O40 In39 2.292 . S
O40 C49 1.260 . S
O41 In39 2.326 1_655 S
O41 C49 1.215 1_655 S
C42 O45 1.252 . S
C42 O46 1.260 . S
C43 O50 1.240 . S
C43 O51 1.252 . S
C44 O47 1.308 . S
C44 O48 1.218 1_655 S
O45 In39 2.265 . S
O45 C42 1.252 . S
O46 In39 2.326 . S
O46 C42 1.260 . S
O47 In39 2.267 1_655 S
O47 C44 1.308 . S
O48 In39 2.324 . S
O48 C44 1.218 1_455 S
C49 O40 1.260 . S
C49 O41 1.215 1_455 S
O50 In39 2.296 1_655 S
O50 C43 1.240 . S
O51 In39 2.327 1_655 S
O51 C43 1.252 . S
In52 O53 2.294 1_554 S
In52 O54 2.326 1_554 S
In52 O58 2.266 . S
In52 O59 2.326 . S
In52 O60 2.266 . S
In52 O61 2.326 . S
In52 O63 2.294 1_554 S
In52 O64 2.326 1_554 S
O53 In52 2.294 1_556 S
O53 C62 1.240 . S
O54 In52 2.326 1_556 S
O54 C62 1.252 . S
C55 O58 1.252 . S
C55 O59 1.260 . S
C56 O63 1.240 . S
C56 O64 1.252 . S
C57 O60 1.252 . S
C57 O61 1.260 . S
O58 In52 2.266 . S
O58 C55 1.252 . S
O59 In52 2.326 . S
O59 C55 1.260 . S
O60 In52 2.266 . S
O60 C57 1.252 . S
O61 In52 2.326 . S
O61 C57 1.260 . S
C62 O53 1.240 . S
C62 O54 1.252 . S
O63 In52 2.294 1_556 S
O63 C56 1.240 . S
O64 In52 2.326 1_556 S
O64 C56 1.252 . S
In65 O66 2.293 . S
In65 O67 2.326 1_545 S
In65 O71 2.265 . S
In65 O72 2.326 . S
In65 O73 2.267 1_545 S
In65 O74 2.324 . S
In65 O76 2.296 1_545 S
In65 O77 2.327 1_545 S
O66 In65 2.293 . S
O66 C75 1.240 . S
O67 In65 2.326 1_565 S
O67 C75 1.252 1_565 S
C68 O71 1.252 . S
C68 O72 1.260 . S
C69 O76 1.240 . S
C69 O77 1.252 . S
C70 O73 1.252 . S
C70 O74 1.260 1_565 S
O71 In65 2.265 . S
O71 C68 1.252 . S
O72 In65 2.326 . S
O72 C68 1.260 . S
O73 In65 2.267 1_565 S
O73 C70 1.252 . S
O74 In65 2.324 . S
O74 C70 1.260 1_545 S
C75 O66 1.240 . S
C75 O67 1.252 1_545 S
O76 In65 2.296 1_565 S
O76 C69 1.240 . S
O77 In65 2.327 1_565 S
O77 C69 1.252 . S
In78 O79 2.294 . S
In78 O80 2.326 . S
In78 O84 2.266 . S
In78 O85 2.326 . S
In78 O86 2.266 . S
In78 O87 2.326 . S
In78 O89 2.294 . S
In78 O90 2.326 . S
O79 In78 2.294 . S
O79 C88 1.240 . S
O80 In78 2.326 . S
O80 C88 1.252 . S
C81 O84 1.252 . S
C81 O85 1.260 . S
C82 O89 1.240 . S
C82 O90 1.252 . S
C83 O86 1.252 . S
C83 O87 1.260 . S
O84 In78 2.266 . S
O84 C81 1.252 . S
O85 In78 2.326 . S
O85 C81 1.260 . S
O86 In78 2.266 . S
O86 C83 1.252 . S
O87 In78 2.326 . S
O87 C83 1.260 . S
C88 O79 1.240 . S
C88 O80 1.252 . S
O89 In78 2.294 . S
O89 C82 1.240 . S
O90 In78 2.326 . S
O90 C82 1.252 . S
In91 O92 2.294 . S
In91 O93 2.326 . S
In91 O97 2.266 . S
In91 O98 2.326 . S
In91 O99 2.266 . S
In91 O100 2.326 . S
In91 O102 2.294 . S
In91 O103 2.326 . S
O92 In91 2.294 . S
O92 C101 1.240 . S
O93 In91 2.326 . S
O93 C101 1.252 . S
C94 O97 1.252 . S
C94 O98 1.260 . S
C95 O102 1.240 . S
C95 O103 1.252 . S
C96 O99 1.252 . S
C96 O100 1.260 . S
O97 In91 2.266 . S
O97 C94 1.252 . S
O98 In91 2.326 . S
O98 C94 1.260 . S
O99 In91 2.266 . S
O99 C96 1.252 . S
O100 In91 2.326 . S
O100 C96 1.260 . S
C101 O92 1.240 . S
C101 O93 1.252 . S
O102 In91 2.294 . S
O102 C95 1.240 . S
O103 In91 2.326 . S
O103 C95 1.252 . S
In104 O105 2.294 . S
In104 O106 2.326 . S
In104 O110 2.266 . S
In104 O111 2.326 . S
In104 O112 2.266 . S
In104 O113 2.326 . S
In104 O115 2.294 . S
In104 O116 2.326 . S
O105 In104 2.294 . S
O105 C114 1.240 . S
O106 In104 2.326 . S
O106 C114 1.252 . S
C107 O110 1.252 . S
C107 O111 1.260 . S
C108 O115 1.240 . S
C108 O116 1.252 . S
C109 O112 1.252 . S
C109 O113 1.260 . S
O110 In104 2.266 . S
O110 C107 1.252 . S
O111 In104 2.326 . S
O111 C107 1.260 . S
O112 In104 2.266 . S
O112 C109 1.252 . S
O113 In104 2.326 . S
O113 C109 1.260 . S
C114 O105 1.240 . S
C114 O106 1.252 . S
O115 In104 2.294 . S
O115 C108 1.240 . S
O116 In104 2.326 . S
O116 C108 1.252 . S
In117 O118 2.294 . S
In117 O119 2.326 . S
In117 O123 2.266 . S
In117 O124 2.326 . S
In117 O125 2.266 . S
In117 O126 2.326 . S
In117 O128 2.294 . S
In117 O129 2.326 . S
O118 In117 2.294 . S
O118 C127 1.240 . S
O119 In117 2.326 . S
O119 C127 1.252 . S
C120 O123 1.252 . S
C120 O124 1.260 . S
C121 O128 1.240 . S
C121 O129 1.252 . S
C122 O125 1.252 . S
C122 O126 1.260 . S
O123 In117 2.266 . S
O123 C120 1.252 . S
O124 In117 2.326 . S
O124 C120 1.260 . S
O125 In117 2.266 . S
O125 C122 1.252 . S
O126 In117 2.326 . S
O126 C122 1.260 . S
C127 O118 1.240 . S
C127 O119 1.252 . S
O128 In117 2.294 . S
O128 C121 1.240 . S
O129 In117 2.326 . S
O129 C121 1.252 . S
In130 O131 2.294 . S
In130 O132 2.326 . S
In130 O136 2.266 . S
In130 O137 2.326 . S
In130 O138 2.266 . S
In130 O139 2.326 . S
In130 O141 2.294 . S
In130 O142 2.326 . S
O131 In130 2.294 . S
O131 C140 1.240 . S
O132 In130 2.326 . S
O132 C140 1.252 . S
C133 O136 1.252 . S
C133 O137 1.260 . S
C134 O141 1.240 . S
C134 O142 1.252 . S
C135 O138 1.252 . S
C135 O139 1.260 . S
O136 In130 2.266 . S
O136 C133 1.252 . S
O137 In130 2.326 . S
O137 C133 1.260 . S
O138 In130 2.266 . S
O138 C135 1.252 . S
O139 In130 2.326 . S
O139 C135 1.260 . S
C140 O131 1.240 . S
C140 O132 1.252 . S
O141 In130 2.294 . S
O141 C134 1.240 . S
O142 In130 2.326 . S
O142 C134 1.252 . S
In143 O144 2.294 . S
In143 O145 2.326 . S
In143 O149 2.266 . S
In143 O150 2.326 . S
In143 O151 2.266 . S
In143 O152 2.326 . S
In143 O154 2.294 . S
In143 O155 2.326 . S
O144 In143 2.294 . S
O144 C153 1.240 . S
O145 In143 2.326 . S
O145 C153 1.252 . S
C146 O149 1.252 . S
C146 O150 1.260 . S
C147 O154 1.240 . S
C147 O155 1.252 . S
C148 O151 1.252 . S
C148 O152 1.260 . S
O149 In143 2.266 . S
O149 C146 1.252 . S
O150 In143 2.326 . S
O150 C146 1.260 . S
O151 In143 2.266 . S
O151 C148 1.252 . S
O152 In143 2.326 . S
O152 C148 1.260 . S
C153 O144 1.240 . S
C153 O145 1.252 . S
O154 In143 2.294 . S
O154 C147 1.240 . S
O155 In143 2.326 . S
O155 C147 1.252 . S
In156 O157 2.294 . S
In156 O158 2.326 . S
In156 O162 2.266 . S
In156 O163 2.326 . S
In156 O164 2.266 . S
In156 O165 2.326 . S
In156 O167 2.294 . S
In156 O168 2.326 . S
O157 In156 2.294 . S
O157 C166 1.240 . S
O158 In156 2.326 . S
O158 C166 1.252 . S
C159 O162 1.252 . S
C159 O163 1.260 . S
C160 O167 1.240 . S
C160 O168 1.252 . S
C161 O164 1.252 . S
C161 O165 1.260 . S
O162 In156 2.266 . S
O162 C159 1.252 . S
O163 In156 2.326 . S
O163 C159 1.260 . S
O164 In156 2.266 . S
O164 C161 1.252 . S
O165 In156 2.326 . S
O165 C161 1.260 . S
C166 O157 1.240 . S
C166 O158 1.252 . S
O167 In156 2.294 . S
O167 C160 1.240 . S
O168 In156 2.326 . S
O168 C160 1.252 . S
In169 O170 2.294 . S
In169 O171 2.326 . S
In169 O175 2.266 . S
In169 O176 2.326 . S
In169 O177 2.266 . S
In169 O178 2.326 . S
In169 O180 2.294 . S
In169 O181 2.326 . S
O170 In169 2.294 . S
O170 C179 1.240 . S
O171 In169 2.326 . S
O171 C179 1.252 . S
C172 O175 1.252 . S
C172 O176 1.260 . S
C173 O180 1.240 . S
C173 O181 1.252 . S
C174 O177 1.252 . S
C174 O178 1.260 . S
O175 In169 2.266 . S
O175 C172 1.252 . S
O176 In169 2.326 . S
O176 C172 1.260 . S
O177 In169 2.266 . S
O177 C174 1.252 . S
O178 In169 2.326 . S
O178 C174 1.260 . S
C179 O170 1.240 . S
C179 O171 1.252 . S
O180 In169 2.294 . S
O180 C173 1.240 . S
O181 In169 2.326 . S
O181 C173 1.252 . S
In182 O183 2.294 . S
In182 O184 2.326 . S
In182 O188 2.266 . S
In182 O189 2.326 . S
In182 O190 2.266 . S
In182 O191 2.326 . S
In182 O193 2.294 . S
In182 O194 2.326 . S
O183 In182 2.294 . S
O183 C192 1.240 . S
O184 In182 2.326 . S
O184 C192 1.252 . S
C185 O188 1.252 . S
C185 O189 1.260 . S
C186 O193 1.240 . S
C186 O194 1.252 . S
C187 O190 1.252 . S
C187 O191 1.260 . S
O188 In182 2.266 . S
O188 C185 1.252 . S
O189 In182 2.326 . S
O189 C185 1.260 . S
O190 In182 2.266 . S
O190 C187 1.252 . S
O191 In182 2.326 . S
O191 C187 1.260 . S
C192 O183 1.240 . S
C192 O184 1.252 . S
O193 In182 2.294 . S
O193 C186 1.240 . S
O194 In182 2.326 . S
O194 C186 1.252 . S
In195 O196 2.294 . S
In195 O197 2.326 . S
In195 O201 2.266 . S
In195 O202 2.326 . S
In195 O203 2.266 . S
In195 O204 2.326 . S
In195 O206 2.294 . S
In195 O207 2.326 . S
O196 In195 2.294 . S
O196 C205 1.240 . S
O197 In195 2.326 . S
O197 C205 1.252 . S
C198 O201 1.252 . S
C198 O202 1.260 . S
C199 O206 1.240 . S
C199 O207 1.252 . S
C200 O203 1.252 . S
C200 O204 1.260 . S
O201 In195 2.266 . S
O201 C198 1.252 . S
O202 In195 2.326 . S
O202 C198 1.260 . S
O203 In195 2.266 . S
O203 C200 1.252 . S
O204 In195 2.326 . S
O204 C200 1.260 . S
C205 O196 1.240 . S
C205 O197 1.252 . S
O206 In195 2.294 . S
O206 C199 1.240 . S
O207 In195 2.326 . S
O207 C199 1.252 . S
In208 O209 2.294 . S
In208 O210 2.326 . S
In208 O214 2.266 . S
In208 O215 2.326 . S
In208 O216 2.266 . S
In208 O217 2.326 . S
In208 O219 2.294 . S
In208 O220 2.326 . S
O209 In208 2.294 . S
O209 C218 1.240 . S
O210 In208 2.326 . S
O210 C218 1.252 . S
C211 O214 1.252 . S
C211 O215 1.260 . S
C212 O219 1.240 . S
C212 O220 1.252 . S
C213 O216 1.252 . S
C213 O217 1.260 . S
O214 In208 2.266 . S
O214 C211 1.252 . S
O215 In208 2.326 . S
O215 C211 1.260 . S
O216 In208 2.266 . S
O216 C213 1.252 . S
O217 In208 2.326 . S
O217 C213 1.260 . S
C218 O209 1.240 . S
C218 O210 1.252 . S
O219 In208 2.294 . S
O219 C212 1.240 . S
O220 In208 2.326 . S
O220 C212 1.252 . S
In221 O222 2.294 . S
In221 O223 2.326 . S
In221 O227 2.266 . S
In221 O228 2.326 . S
In221 O229 2.266 . S
In221 O230 2.326 . S
In221 O232 2.294 . S
In221 O233 2.326 . S
O222 In221 2.294 . S
O222 C231 1.240 . S
O223 In221 2.326 . S
O223 C231 1.252 . S
C224 O227 1.252 . S
C224 O228 1.260 . S
C225 O232 1.240 . S
C225 O233 1.252 . S
C226 O229 1.252 . S
C226 O230 1.260 . S
O227 In221 2.266 . S
O227 C224 1.252 . S
O228 In221 2.326 . S
O228 C224 1.260 . S
O229 In221 2.266 . S
O229 C226 1.252 . S
O230 In221 2.326 . S
O230 C226 1.260 . S
C231 O222 1.240 . S
C231 O223 1.252 . S
O232 In221 2.294 . S
O232 C225 1.240 . S
O233 In221 2.326 . S
O233 C225 1.252 . S
H234 O260 0.856 . S
H235 O263 0.854 . S
H236 C271 0.930 . S
H237 C272 0.930 . S
H238 C274 0.930 . S
H239 C275 0.930 . S
H240 C277 0.931 . S
H241 C278 0.930 . S
H242 C280 0.930 . S
H243 C281 0.929 . S
H244 C283 0.930 . S
H245 C284 0.931 . S
H246 C286 0.930 . S
H247 C287 0.929 . S
H248 C289 0.931 . S
H249 C290 0.930 . S
H250 C292 0.930 . S
H251 C293 0.932 . S
H252 C295 0.930 . S
H253 C296 0.929 . S
H254 C298 0.931 . S
H255 C299 0.930 . S
H256 C301 0.929 . S
H257 C302 0.931 . S
H258 C304 0.930 . S
H259 C305 0.929 . S
O260 H234 0.856 . S
O260 C306 1.300 . S
O261 C306 1.209 . S
O262 C307 1.199 . S
O263 H235 0.854 . S
O263 C307 1.297 . S
C264 C265 1.404 . S
C264 C269 1.397 . S
C264 C270 1.492 . S
C265 C264 1.404 . S
C265 C266 1.396 . S
C265 C276 1.492 . S
C266 C265 1.396 . S
C266 C267 1.397 . S
C266 C282 1.509 . S
C267 C266 1.397 . S
C267 C268 1.412 . S
C267 C288 1.485 . S
C268 C267 1.412 . S
C268 C269 1.388 . S
C268 C294 1.490 . S
C269 C264 1.397 . S
C269 C268 1.388 . S
C269 C300 1.519 . S
C270 C264 1.492 . S
C270 C271 1.363 . S
C270 C275 1.390 . S
C271 H236 0.930 . S
C271 C270 1.363 . S
C271 C272 1.372 . S
C272 H237 0.930 . S
C272 C271 1.372 . S
C272 C273 1.383 . S
C273 C272 1.383 . S
C273 C274 1.395 . S
C274 H238 0.930 . S
C274 C273 1.395 . S
C274 C275 1.362 . S
C275 H239 0.930 . S
C275 C270 1.390 . S
C275 C274 1.362 . S
C276 C265 1.492 . S
C276 C277 1.377 . S
C276 C281 1.397 . S
C277 H240 0.931 . S
C277 C276 1.377 . S
C277 C278 1.376 . S
C278 H241 0.930 . S
C278 C277 1.376 . S
C278 C279 1.376 . S
C279 C278 1.376 . S
C279 C280 1.378 . S
C279 C306 1.486 . S
C280 H242 0.930 . S
C280 C279 1.378 . S
C280 C281 1.376 . S
C281 H243 0.929 . S
C281 C276 1.397 . S
C281 C280 1.376 . S
C282 C266 1.509 . S
C282 C283 1.391 . S
C282 C287 1.386 . S
C283 H244 0.930 . S
C283 C282 1.391 . S
C283 C284 1.375 . S
C284 H245 0.931 . S
C284 C283 1.375 . S
C284 C285 1.375 . S
C285 C284 1.375 . S
C285 C286 1.361 . S
C286 H246 0.930 . S
C286 C285 1.361 . S
C286 C287 1.399 . S
C287 H247 0.929 . S
C287 C282 1.386 . S
C287 C286 1.399 . S
C288 C267 1.485 . S
C288 C289 1.394 . S
C288 C293 1.360 . S
C289 H248 0.931 . S
C289 C288 1.394 . S
C289 C290 1.372 . S
C290 H249 0.930 . S
C290 C289 1.372 . S
C290 C291 1.397 . S
C291 C290 1.397 . S
C291 C292 1.390 . S
C291 C307 1.476 . S
C292 H250 0.930 . S
C292 C291 1.390 . S
C292 C293 1.366 . S
C293 H251 0.932 . S
C293 C288 1.360 . S
C293 C292 1.366 . S
C294 C268 1.490 . S
C294 C295 1.380 . S
C294 C299 1.386 . S
C295 H252 0.930 . S
C295 C294 1.380 . S
C295 C296 1.381 . S
C296 H253 0.929 . S
C296 C295 1.381 . S
C296 C297 1.371 . S
C297 C296 1.371 . S
C297 C298 1.380 . S
C298 H254 0.931 . S
C298 C297 1.380 . S
C298 C299 1.387 . S
C299 H255 0.930 . S
C299 C294 1.386 . S
C299 C298 1.387 . S
C300 C269 1.519 . S
C300 C301 1.377 . S
C300 C305 1.361 . S
C301 H256 0.929 . S
C301 C300 1.377 . S
C301 C302 1.386 . S
C302 H257 0.931 . S
C302 C301 1.386 . S
C302 C303 1.363 . S
C303 C302 1.363 . S
C303 C304 1.385 . S
C304 H258 0.930 . S
C304 C303 1.385 . S
C304 C305 1.396 . S
C305 H259 0.929 . S
C305 C300 1.361 . S
C305 C304 1.396 . S
C306 O260 1.300 . S
C306 O261 1.209 . S
C306 C279 1.486 . S
C307 O262 1.199 . S
C307 O263 1.297 . S
C307 C291 1.476 . S
H308 O334 0.856 . S
H309 O337 0.854 . S
H310 C345 0.930 . S
H311 C346 0.930 . S
H312 C348 0.930 . S
H313 C349 0.930 . S
H314 C351 0.931 . S
H315 C352 0.930 . S
H316 C354 0.930 . S
H317 C355 0.929 . S
H318 C357 0.930 . S
H319 C358 0.931 . S
H320 C360 0.930 . S
H321 C361 0.929 . S
H322 C363 0.931 . S
H323 C364 0.930 . S
H324 C366 0.930 . S
H325 C367 0.932 . S
H326 C369 0.930 . S
H327 C370 0.929 . S
H328 C372 0.931 . S
H329 C373 0.930 . S
H330 C375 0.929 . S
H331 C376 0.931 . S
H332 C378 0.930 . S
H333 C379 0.929 . S
O334 H308 0.856 . S
O334 C380 1.300 . S
O335 C380 1.209 . S
O336 C381 1.199 . S
O337 H309 0.854 . S
O337 C381 1.297 . S
C338 C339 1.404 . S
C338 C343 1.397 . S
C338 C344 1.492 . S
C339 C338 1.404 . S
C339 C340 1.396 . S
C339 C350 1.492 . S
C340 C339 1.396 . S
C340 C341 1.397 . S
C340 C356 1.509 . S
C341 C340 1.397 . S
C341 C342 1.412 . S
C341 C362 1.485 . S
C342 C341 1.412 . S
C342 C343 1.388 . S
C342 C368 1.490 . S
C343 C338 1.397 . S
C343 C342 1.388 . S
C343 C374 1.519 . S
C344 C338 1.492 . S
C344 C345 1.363 . S
C344 C349 1.390 . S
C345 H310 0.930 . S
C345 C344 1.363 . S
C345 C346 1.372 . S
C346 H311 0.930 . S
C346 C345 1.372 . S
C346 C347 1.383 . S
C347 C346 1.383 . S
C347 C348 1.395 . S
C348 H312 0.930 . S
C348 C347 1.395 . S
C348 C349 1.362 . S
C349 H313 0.930 . S
C349 C344 1.390 . S
C349 C348 1.362 . S
C350 C339 1.492 . S
C350 C351 1.377 . S
C350 C355 1.397 . S
C351 H314 0.931 . S
C351 C350 1.377 . S
C351 C352 1.376 . S
C352 H315 0.930 . S
C352 C351 1.376 . S
C352 C353 1.376 . S
C353 C352 1.376 . S
C353 C354 1.378 . S
C353 C380 1.486 . S
C354 H316 0.930 . S
C354 C353 1.378 . S
C354 C355 1.376 . S
C355 H317 0.929 . S
C355 C350 1.397 . S
C355 C354 1.376 . S
C356 C340 1.509 . S
C356 C357 1.391 . S
C356 C361 1.386 . S
C357 H318 0.930 . S
C357 C356 1.391 . S
C357 C358 1.375 . S
C358 H319 0.931 . S
C358 C357 1.375 . S
C358 C359 1.375 . S
C359 C358 1.375 . S
C359 C360 1.361 . S
C360 H320 0.930 . S
C360 C359 1.361 . S
C360 C361 1.399 . S
C361 H321 0.929 . S
C361 C356 1.386 . S
C361 C360 1.399 . S
C362 C341 1.485 . S
C362 C363 1.394 . S
C362 C367 1.360 . S
C363 H322 0.931 . S
C363 C362 1.394 . S
C363 C364 1.372 . S
C364 H323 0.930 . S
C364 C363 1.372 . S
C364 C365 1.397 . S
C365 C364 1.397 . S
C365 C366 1.390 . S
C365 C381 1.476 . S
C366 H324 0.930 . S
C366 C365 1.390 . S
C366 C367 1.366 . S
C367 H325 0.932 . S
C367 C362 1.360 . S
C367 C366 1.366 . S
C368 C342 1.490 . S
C368 C369 1.380 . S
C368 C373 1.386 . S
C369 H326 0.930 . S
C369 C368 1.380 . S
C369 C370 1.381 . S
C370 H327 0.929 . S
C370 C369 1.381 . S
C370 C371 1.371 . S
C371 C370 1.371 . S
C371 C372 1.380 . S
C372 H328 0.931 . S
C372 C371 1.380 . S
C372 C373 1.387 . S
C373 H329 0.930 . S
C373 C368 1.386 . S
C373 C372 1.387 . S
C374 C343 1.519 . S
C374 C375 1.377 . S
C374 C379 1.361 . S
C375 H330 0.929 . S
C375 C374 1.377 . S
C375 C376 1.386 . S
C376 H331 0.931 . S
C376 C375 1.386 . S
C376 C377 1.363 . S
C377 C376 1.363 . S
C377 C378 1.385 . S
C378 H332 0.930 . S
C378 C377 1.385 . S
C378 C379 1.396 . S
C379 H333 0.929 . S
C379 C374 1.361 . S
C379 C378 1.396 . S
C380 O334 1.300 . S
C380 O335 1.209 . S
C380 C353 1.486 . S
C381 O336 1.199 . S
C381 O337 1.297 . S
C381 C365 1.476 . S
H382 O408 0.856 . S
H383 O411 0.854 . S
H384 C419 0.930 . S
H385 C420 0.930 . S
H386 C422 0.930 . S
H387 C423 0.930 . S
H388 C425 0.931 . S
H389 C426 0.930 . S
H390 C428 0.930 . S
H391 C429 0.929 . S
H392 C431 0.930 . S
H393 C432 0.931 . S
H394 C434 0.930 . S
H395 C435 0.929 . S
H396 C437 0.931 . S
H397 C438 0.930 . S
H398 C440 0.930 . S
H399 C441 0.932 . S
H400 C443 0.930 . S
H401 C444 0.929 . S
H402 C446 0.931 . S
H403 C447 0.930 . S
H404 C449 0.929 . S
H405 C450 0.931 . S
H406 C452 0.930 . S
H407 C453 0.929 . S
O408 H382 0.856 . S
O408 C454 1.300 . S
O409 C454 1.209 . S
O410 C455 1.199 . S
O411 H383 0.854 . S
O411 C455 1.297 . S
C412 C413 1.404 . S
C412 C417 1.397 . S
C412 C418 1.492 . S
C413 C412 1.404 . S
C413 C414 1.396 . S
C413 C424 1.492 . S
C414 C413 1.396 . S
C414 C415 1.397 . S
C414 C430 1.509 . S
C415 C414 1.397 . S
C415 C416 1.412 . S
C415 C436 1.485 . S
C416 C415 1.412 . S
C416 C417 1.388 . S
C416 C442 1.490 . S
C417 C412 1.397 . S
C417 C416 1.388 . S
C417 C448 1.519 . S
C418 C412 1.492 . S
C418 C419 1.363 . S
C418 C423 1.390 . S
C419 H384 0.930 . S
C419 C418 1.363 . S
C419 C420 1.372 . S
C420 H385 0.930 . S
C420 C419 1.372 . S
C420 C421 1.383 . S
C421 C420 1.383 . S
C421 C422 1.395 . S
C422 H386 0.930 . S
C422 C421 1.395 . S
C422 C423 1.362 . S
C423 H387 0.930 . S
C423 C418 1.390 . S
C423 C422 1.362 . S
C424 C413 1.492 . S
C424 C425 1.377 . S
C424 C429 1.397 . S
C425 H388 0.931 . S
C425 C424 1.377 . S
C425 C426 1.376 . S
C426 H389 0.930 . S
C426 C425 1.376 . S
C426 C427 1.376 . S
C427 C426 1.376 . S
C427 C428 1.378 . S
C427 C454 1.486 . S
C428 H390 0.930 . S
C428 C427 1.378 . S
C428 C429 1.376 . S
C429 H391 0.929 . S
C429 C424 1.397 . S
C429 C428 1.376 . S
C430 C414 1.509 . S
C430 C431 1.391 . S
C430 C435 1.386 . S
C431 H392 0.930 . S
C431 C430 1.391 . S
C431 C432 1.375 . S
C432 H393 0.931 . S
C432 C431 1.375 . S
C432 C433 1.375 . S
C433 C432 1.375 . S
C433 C434 1.361 . S
C434 H394 0.930 . S
C434 C433 1.361 . S
C434 C435 1.399 . S
C435 H395 0.929 . S
C435 C430 1.386 . S
C435 C434 1.399 . S
C436 C415 1.485 . S
C436 C437 1.394 . S
C436 C441 1.360 . S
C437 H396 0.931 . S
C437 C436 1.394 . S
C437 C438 1.372 . S
C438 H397 0.930 . S
C438 C437 1.372 . S
C438 C439 1.397 . S
C439 C438 1.397 . S
C439 C440 1.390 . S
C439 C455 1.476 . S
C440 H398 0.930 . S
C440 C439 1.390 . S
C440 C441 1.366 . S
C441 H399 0.932 . S
C441 C436 1.360 . S
C441 C440 1.366 . S
C442 C416 1.490 . S
C442 C443 1.380 . S
C442 C447 1.386 . S
C443 H400 0.930 . S
C443 C442 1.380 . S
C443 C444 1.381 . S
C444 H401 0.929 . S
C444 C443 1.381 . S
C444 C445 1.371 . S
C445 C444 1.371 . S
C445 C446 1.380 . S
C446 H402 0.931 . S
C446 C445 1.380 . S
C446 C447 1.387 . S
C447 H403 0.930 . S
C447 C442 1.386 . S
C447 C446 1.387 . S
C448 C417 1.519 . S
C448 C449 1.377 . S
C448 C453 1.361 . S
C449 H404 0.929 . S
C449 C448 1.377 . S
C449 C450 1.386 . S
C450 H405 0.931 . S
C450 C449 1.386 . S
C450 C451 1.363 . S
C451 C450 1.363 . S
C451 C452 1.385 . S
C452 H406 0.930 . S
C452 C451 1.385 . S
C452 C453 1.396 . S
C453 H407 0.929 . S
C453 C448 1.361 . S
C453 C452 1.396 . S
C454 O408 1.300 . S
C454 O409 1.209 . S
C454 C427 1.486 . S
C455 O410 1.199 . S
C455 O411 1.297 . S
C455 C439 1.476 . S
H456 O482 0.856 . S
H457 O485 0.854 . S
H458 C493 0.930 . S
H459 C494 0.930 . S
H460 C496 0.930 . S
H461 C497 0.930 . S
H462 C499 0.931 . S
H463 C500 0.930 . S
H464 C502 0.930 . S
H465 C503 0.929 . S
H466 C505 0.930 . S
H467 C506 0.931 . S
H468 C508 0.930 . S
H469 C509 0.929 . S
H470 C511 0.931 . S
H471 C512 0.930 . S
H472 C514 0.930 . S
H473 C515 0.932 . S
H474 C517 0.930 . S
H475 C518 0.929 . S
H476 C520 0.931 . S
H477 C521 0.930 . S
H478 C523 0.929 . S
H479 C524 0.931 . S
H480 C526 0.930 . S
H481 C527 0.929 . S
O482 H456 0.856 . S
O482 C528 1.300 . S
O483 C528 1.209 . S
O484 C529 1.199 . S
O485 H457 0.854 . S
O485 C529 1.297 . S
C486 C487 1.404 . S
C486 C491 1.397 . S
C486 C492 1.492 . S
C487 C486 1.404 . S
C487 C488 1.396 . S
C487 C498 1.492 . S
C488 C487 1.396 . S
C488 C489 1.397 . S
C488 C504 1.509 . S
C489 C488 1.397 . S
C489 C490 1.412 . S
C489 C510 1.485 . S
C490 C489 1.412 . S
C490 C491 1.388 . S
C490 C516 1.490 . S
C491 C486 1.397 . S
C491 C490 1.388 . S
C491 C522 1.519 . S
C492 C486 1.492 . S
C492 C493 1.363 . S
C492 C497 1.390 . S
C493 H458 0.930 . S
C493 C492 1.363 . S
C493 C494 1.372 . S
C494 H459 0.930 . S
C494 C493 1.372 . S
C494 C495 1.383 . S
C495 C494 1.383 . S
C495 C496 1.395 . S
C496 H460 0.930 . S
C496 C495 1.395 . S
C496 C497 1.362 . S
C497 H461 0.930 . S
C497 C492 1.390 . S
C497 C496 1.362 . S
C498 C487 1.492 . S
C498 C499 1.377 . S
C498 C503 1.397 . S
C499 H462 0.931 . S
C499 C498 1.377 . S
C499 C500 1.376 . S
C500 H463 0.930 . S
C500 C499 1.376 . S
C500 C501 1.376 . S
C501 C500 1.376 . S
C501 C502 1.378 . S
C501 C528 1.486 . S
C502 H464 0.930 . S
C502 C501 1.378 . S
C502 C503 1.376 . S
C503 H465 0.929 . S
C503 C498 1.397 . S
C503 C502 1.376 . S
C504 C488 1.509 . S
C504 C505 1.391 . S
C504 C509 1.386 . S
C505 H466 0.930 . S
C505 C504 1.391 . S
C505 C506 1.375 . S
C506 H467 0.931 . S
C506 C505 1.375 . S
C506 C507 1.375 . S
C507 C506 1.375 . S
C507 C508 1.361 . S
C508 H468 0.930 . S
C508 C507 1.361 . S
C508 C509 1.399 . S
C509 H469 0.929 . S
C509 C504 1.386 . S
C509 C508 1.399 . S
C510 C489 1.485 . S
C510 C511 1.394 . S
C510 C515 1.360 . S
C511 H470 0.931 . S
C511 C510 1.394 . S
C511 C512 1.372 . S
C512 H471 0.930 . S
C512 C511 1.372 . S
C512 C513 1.397 . S
C513 C512 1.397 . S
C513 C514 1.390 . S
C513 C529 1.476 . S
C514 H472 0.930 . S
C514 C513 1.390 . S
C514 C515 1.366 . S
C515 H473 0.932 . S
C515 C510 1.360 . S
C515 C514 1.366 . S
C516 C490 1.490 . S
C516 C517 1.380 . S
C516 C521 1.386 . S
C517 H474 0.930 . S
C517 C516 1.380 . S
C517 C518 1.381 . S
C518 H475 0.929 . S
C518 C517 1.381 . S
C518 C519 1.371 . S
C519 C518 1.371 . S
C519 C520 1.380 . S
C520 H476 0.931 . S
C520 C519 1.380 . S
C520 C521 1.387 . S
C521 H477 0.930 . S
C521 C516 1.386 . S
C521 C520 1.387 . S
C522 C491 1.519 . S
C522 C523 1.377 . S
C522 C527 1.361 . S
C523 H478 0.929 . S
C523 C522 1.377 . S
C523 C524 1.386 . S
C524 H479 0.931 . S
C524 C523 1.386 . S
C524 C525 1.363 . S
C525 C524 1.363 . S
C525 C526 1.385 . S
C526 H480 0.930 . S
C526 C525 1.385 . S
C526 C527 1.396 . S
C527 H481 0.929 . S
C527 C522 1.361 . S
C527 C526 1.396 . S
C528 O482 1.300 . S
C528 O483 1.209 . S
C528 C501 1.486 . S
C529 O484 1.199 . S
C529 O485 1.297 . S
C529 C513 1.476 . S
H530 O556 0.856 . S
H531 O559 0.854 . S
H532 C567 0.930 . S
H533 C568 0.930 . S
H534 C570 0.930 . S
H535 C571 0.930 . S
H536 C573 0.931 . S
H537 C574 0.930 . S
H538 C576 0.930 . S
H539 C577 0.929 . S
H540 C579 0.930 . S
H541 C580 0.931 . S
H542 C582 0.930 . S
H543 C583 0.929 . S
H544 C585 0.931 . S
H545 C586 0.930 . S
H546 C588 0.930 . S
H547 C589 0.932 . S
H548 C591 0.930 . S
H549 C592 0.929 . S
H550 C594 0.931 . S
H551 C595 0.930 . S
H552 C597 0.929 . S
H553 C598 0.931 . S
H554 C600 0.930 . S
H555 C601 0.929 . S
O556 H530 0.856 . S
O556 C602 1.300 . S
O557 C602 1.209 . S
O558 C603 1.199 . S
O559 H531 0.854 . S
O559 C603 1.297 . S
C560 C561 1.404 . S
C560 C565 1.397 . S
C560 C566 1.492 . S
C561 C560 1.404 . S
C561 C562 1.396 . S
C561 C572 1.492 . S
C562 C561 1.396 . S
C562 C563 1.397 . S
C562 C578 1.509 . S
C563 C562 1.397 . S
C563 C564 1.412 . S
C563 C584 1.485 . S
C564 C563 1.412 . S
C564 C565 1.388 . S
C564 C590 1.490 . S
C565 C560 1.397 . S
C565 C564 1.388 . S
C565 C596 1.519 . S
C566 C560 1.492 . S
C566 C567 1.363 . S
C566 C571 1.390 . S
C567 H532 0.930 . S
C567 C566 1.363 . S
C567 C568 1.372 . S
C568 H533 0.930 . S
C568 C567 1.372 . S
C568 C569 1.383 . S
C569 C568 1.383 . S
C569 C570 1.395 . S
C570 H534 0.930 . S
C570 C569 1.395 . S
C570 C571 1.362 . S
C571 H535 0.930 . S
C571 C566 1.390 . S
C571 C570 1.362 . S
C572 C561 1.492 . S
C572 C573 1.377 . S
C572 C577 1.397 . S
C573 H536 0.931 . S
C573 C572 1.377 . S
C573 C574 1.376 . S
C574 H537 0.930 . S
C574 C573 1.376 . S
C574 C575 1.376 . S
C575 C574 1.376 . S
C575 C576 1.378 . S
C575 C602 1.486 . S
C576 H538 0.930 . S
C576 C575 1.378 . S
C576 C577 1.376 . S
C577 H539 0.929 . S
C577 C572 1.397 . S
C577 C576 1.376 . S
C578 C562 1.509 . S
C578 C579 1.391 . S
C578 C583 1.386 . S
C579 H540 0.930 . S
C579 C578 1.391 . S
C579 C580 1.375 . S
C580 H541 0.931 . S
C580 C579 1.375 . S
C580 C581 1.375 . S
C581 C580 1.375 . S
C581 C582 1.361 . S
C582 H542 0.930 . S
C582 C581 1.361 . S
C582 C583 1.399 . S
C583 H543 0.929 . S
C583 C578 1.386 . S
C583 C582 1.399 . S
C584 C563 1.485 . S
C584 C585 1.394 . S
C584 C589 1.360 . S
C585 H544 0.931 . S
C585 C584 1.394 . S
C585 C586 1.372 . S
C586 H545 0.930 . S
C586 C585 1.372 . S
C586 C587 1.397 . S
C587 C586 1.397 . S
C587 C588 1.390 . S
C587 C603 1.476 . S
C588 H546 0.930 . S
C588 C587 1.390 . S
C588 C589 1.366 . S
C589 H547 0.932 . S
C589 C584 1.360 . S
C589 C588 1.366 . S
C590 C564 1.490 . S
C590 C591 1.380 . S
C590 C595 1.386 . S
C591 H548 0.930 . S
C591 C590 1.380 . S
C591 C592 1.381 . S
C592 H549 0.929 . S
C592 C591 1.381 . S
C592 C593 1.371 . S
C593 C592 1.371 . S
C593 C594 1.380 . S
C594 H550 0.931 . S
C594 C593 1.380 . S
C594 C595 1.387 . S
C595 H551 0.930 . S
C595 C590 1.386 . S
C595 C594 1.387 . S
C596 C565 1.519 . S
C596 C597 1.377 . S
C596 C601 1.361 . S
C597 H552 0.929 . S
C597 C596 1.377 . S
C597 C598 1.386 . S
C598 H553 0.931 . S
C598 C597 1.386 . S
C598 C599 1.363 . S
C599 C598 1.363 . S
C599 C600 1.385 . S
C600 H554 0.930 . S
C600 C599 1.385 . S
C600 C601 1.396 . S
C601 H555 0.929 . S
C601 C596 1.361 . S
C601 C600 1.396 . S
C602 O556 1.300 . S
C602 O557 1.209 . S
C602 C575 1.486 . S
C603 O558 1.199 . S
C603 O559 1.297 . S
C603 C587 1.476 . S
H604 O630 0.856 . S
H605 O633 0.854 . S
H606 C641 0.930 . S
H607 C642 0.930 . S
H608 C644 0.930 . S
H609 C645 0.930 . S
H610 C647 0.931 . S
H611 C648 0.930 . S
H612 C650 0.930 . S
H613 C651 0.929 . S
H614 C653 0.930 . S
H615 C654 0.931 . S
H616 C656 0.930 . S
H617 C657 0.929 . S
H618 C659 0.931 . S
H619 C660 0.930 . S
H620 C662 0.930 . S
H621 C663 0.932 . S
H622 C665 0.930 . S
H623 C666 0.929 . S
H624 C668 0.931 . S
H625 C669 0.930 . S
H626 C671 0.929 . S
H627 C672 0.931 . S
H628 C674 0.930 . S
H629 C675 0.929 . S
O630 H604 0.856 . S
O630 C676 1.300 . S
O631 C676 1.209 . S
O632 C677 1.199 . S
O633 H605 0.854 . S
O633 C677 1.297 . S
C634 C635 1.404 . S
C634 C639 1.397 . S
C634 C640 1.492 . S
C635 C634 1.404 . S
C635 C636 1.396 . S
C635 C646 1.492 . S
C636 C635 1.396 . S
C636 C637 1.397 . S
C636 C652 1.509 . S
C637 C636 1.397 . S
C637 C638 1.412 . S
C637 C658 1.485 . S
C638 C637 1.412 . S
C638 C639 1.388 . S
C638 C664 1.490 . S
C639 C634 1.397 . S
C639 C638 1.388 . S
C639 C670 1.519 . S
C640 C634 1.492 . S
C640 C641 1.363 . S
C640 C645 1.390 . S
C641 H606 0.930 . S
C641 C640 1.363 . S
C641 C642 1.372 . S
C642 H607 0.930 . S
C642 C641 1.372 . S
C642 C643 1.383 . S
C643 C642 1.383 . S
C643 C644 1.395 . S
C644 H608 0.930 . S
C644 C643 1.395 . S
C644 C645 1.362 . S
C645 H609 0.930 . S
C645 C640 1.390 . S
C645 C644 1.362 . S
C646 C635 1.492 . S
C646 C647 1.377 . S
C646 C651 1.397 . S
C647 H610 0.931 . S
C647 C646 1.377 . S
C647 C648 1.376 . S
C648 H611 0.930 . S
C648 C647 1.376 . S
C648 C649 1.376 . S
C649 C648 1.376 . S
C649 C650 1.378 . S
C649 C676 1.486 . S
C650 H612 0.930 . S
C650 C649 1.378 . S
C650 C651 1.376 . S
C651 H613 0.929 . S
C651 C646 1.397 . S
C651 C650 1.376 . S
C652 C636 1.509 . S
C652 C653 1.391 . S
C652 C657 1.386 . S
C653 H614 0.930 . S
C653 C652 1.391 . S
C653 C654 1.375 . S
C654 H615 0.931 . S
C654 C653 1.375 . S
C654 C655 1.375 . S
C655 C654 1.375 . S
C655 C656 1.361 . S
C656 H616 0.930 . S
C656 C655 1.361 . S
C656 C657 1.399 . S
C657 H617 0.929 . S
C657 C652 1.386 . S
C657 C656 1.399 . S
C658 C637 1.485 . S
C658 C659 1.394 . S
C658 C663 1.360 . S
C659 H618 0.931 . S
C659 C658 1.394 . S
C659 C660 1.372 . S
C660 H619 0.930 . S
C660 C659 1.372 . S
C660 C661 1.397 . S
C661 C660 1.397 . S
C661 C662 1.390 . S
C661 C677 1.476 . S
C662 H620 0.930 . S
C662 C661 1.390 . S
C662 C663 1.366 . S
C663 H621 0.932 . S
C663 C658 1.360 . S
C663 C662 1.366 . S
C664 C638 1.490 . S
C664 C665 1.380 . S
C664 C669 1.386 . S
C665 H622 0.930 . S
C665 C664 1.380 . S
C665 C666 1.381 . S
C666 H623 0.929 . S
C666 C665 1.381 . S
C666 C667 1.371 . S
C667 C666 1.371 . S
C667 C668 1.380 . S
C668 H624 0.931 . S
C668 C667 1.380 . S
C668 C669 1.387 . S
C669 H625 0.930 . S
C669 C664 1.386 . S
C669 C668 1.387 . S
C670 C639 1.519 . S
C670 C671 1.377 . S
C670 C675 1.361 . S
C671 H626 0.929 . S
C671 C670 1.377 . S
C671 C672 1.386 . S
C672 H627 0.931 . S
C672 C671 1.386 . S
C672 C673 1.363 . S
C673 C672 1.363 . S
C673 C674 1.385 . S
C674 H628 0.930 . S
C674 C673 1.385 . S
C674 C675 1.396 . S
C675 H629 0.929 . S
C675 C670 1.361 . S
C675 C674 1.396 . S
C676 O630 1.300 . S
C676 O631 1.209 . S
C676 C649 1.486 . S
C677 O632 1.199 . S
C677 O633 1.297 . S
C677 C661 1.476 . S
H678 O704 0.856 . S
H679 O707 0.854 . S
H680 C715 0.930 . S
H681 C716 0.930 . S
H682 C718 0.930 . S
H683 C719 0.930 . S
H684 C721 0.931 . S
H685 C722 0.930 . S
H686 C724 0.930 . S
H687 C725 0.929 . S
H688 C727 0.930 . S
H689 C728 0.931 . S
H690 C730 0.930 . S
H691 C731 0.929 . S
H692 C733 0.931 . S
H693 C734 0.930 . S
H694 C736 0.930 . S
H695 C737 0.932 . S
H696 C739 0.930 . S
H697 C740 0.929 . S
H698 C742 0.931 . S
H699 C743 0.930 . S
H700 C745 0.929 . S
H701 C746 0.931 . S
H702 C748 0.930 . S
H703 C749 0.929 . S
O704 H678 0.856 . S
O704 C750 1.300 . S
O705 C750 1.209 . S
O706 C751 1.199 . S
O707 H679 0.854 . S
O707 C751 1.297 . S
C708 C709 1.404 . S
C708 C713 1.397 . S
C708 C714 1.492 . S
C709 C708 1.404 . S
C709 C710 1.396 . S
C709 C720 1.492 . S
C710 C709 1.396 . S
C710 C711 1.397 . S
C710 C726 1.509 . S
C711 C710 1.397 . S
C711 C712 1.412 . S
C711 C732 1.485 . S
C712 C711 1.412 . S
C712 C713 1.388 . S
C712 C738 1.490 . S
C713 C708 1.397 . S
C713 C712 1.388 . S
C713 C744 1.519 . S
C714 C708 1.492 . S
C714 C715 1.363 . S
C714 C719 1.390 . S
C715 H680 0.930 . S
C715 C714 1.363 . S
C715 C716 1.372 . S
C716 H681 0.930 . S
C716 C715 1.372 . S
C716 C717 1.383 . S
C717 C716 1.383 . S
C717 C718 1.395 . S
C718 H682 0.930 . S
C718 C717 1.395 . S
C718 C719 1.362 . S
C719 H683 0.930 . S
C719 C714 1.390 . S
C719 C718 1.362 . S
C720 C709 1.492 . S
C720 C721 1.377 . S
C720 C725 1.397 . S
C721 H684 0.931 . S
C721 C720 1.377 . S
C721 C722 1.376 . S
C722 H685 0.930 . S
C722 C721 1.376 . S
C722 C723 1.376 . S
C723 C722 1.376 . S
C723 C724 1.378 . S
C723 C750 1.486 . S
C724 H686 0.930 . S
C724 C723 1.378 . S
C724 C725 1.376 . S
C725 H687 0.929 . S
C725 C720 1.397 . S
C725 C724 1.376 . S
C726 C710 1.509 . S
C726 C727 1.391 . S
C726 C731 1.386 . S
C727 H688 0.930 . S
C727 C726 1.391 . S
C727 C728 1.375 . S
C728 H689 0.931 . S
C728 C727 1.375 . S
C728 C729 1.375 . S
C729 C728 1.375 . S
C729 C730 1.361 . S
C730 H690 0.930 . S
C730 C729 1.361 . S
C730 C731 1.399 . S
C731 H691 0.929 . S
C731 C726 1.386 . S
C731 C730 1.399 . S
C732 C711 1.485 . S
C732 C733 1.394 . S
C732 C737 1.360 . S
C733 H692 0.931 . S
C733 C732 1.394 . S
C733 C734 1.372 . S
C734 H693 0.930 . S
C734 C733 1.372 . S
C734 C735 1.397 . S
C735 C734 1.397 . S
C735 C736 1.390 . S
C735 C751 1.476 . S
C736 H694 0.930 . S
C736 C735 1.390 . S
C736 C737 1.366 . S
C737 H695 0.932 . S
C737 C732 1.360 . S
C737 C736 1.366 . S
C738 C712 1.490 . S
C738 C739 1.380 . S
C738 C743 1.386 . S
C739 H696 0.930 . S
C739 C738 1.380 . S
C739 C740 1.381 . S
C740 H697 0.929 . S
C740 C739 1.381 . S
C740 C741 1.371 . S
C741 C740 1.371 . S
C741 C742 1.380 . S
C742 H698 0.931 . S
C742 C741 1.380 . S
C742 C743 1.387 . S
C743 H699 0.930 . S
C743 C738 1.386 . S
C743 C742 1.387 . S
C744 C713 1.519 . S
C744 C745 1.377 . S
C744 C749 1.361 . S
C745 H700 0.929 . S
C745 C744 1.377 . S
C745 C746 1.386 . S
C746 H701 0.931 . S
C746 C745 1.386 . S
C746 C747 1.363 . S
C747 C746 1.363 . S
C747 C748 1.385 . S
C748 H702 0.930 . S
C748 C747 1.385 . S
C748 C749 1.396 . S
C749 H703 0.929 . S
C749 C744 1.361 . S
C749 C748 1.396 . S
C750 O704 1.300 . S
C750 O705 1.209 . S
C750 C723 1.486 . S
C751 O706 1.199 . S
C751 O707 1.297 . S
C751 C735 1.476 . S
H752 O778 0.856 . S
H753 O781 0.854 . S
H754 C789 0.930 . S
H755 C790 0.930 . S
H756 C792 0.930 . S
H757 C793 0.930 . S
H758 C795 0.931 . S
H759 C796 0.930 . S
H760 C798 0.930 . S
H761 C799 0.929 . S
H762 C801 0.930 . S
H763 C802 0.931 . S
H764 C804 0.930 . S
H765 C805 0.929 . S
H766 C807 0.931 . S
H767 C808 0.930 . S
H768 C810 0.930 . S
H769 C811 0.932 . S
H770 C813 0.930 . S
H771 C814 0.929 . S
H772 C816 0.931 . S
H773 C817 0.930 . S
H774 C819 0.929 . S
H775 C820 0.931 . S
H776 C822 0.930 . S
H777 C823 0.929 . S
O778 H752 0.856 . S
O778 C824 1.300 . S
O779 C824 1.209 . S
O780 C825 1.199 . S
O781 H753 0.854 . S
O781 C825 1.297 . S
C782 C783 1.404 . S
C782 C787 1.397 . S
C782 C788 1.492 . S
C783 C782 1.404 . S
C783 C784 1.396 . S
C783 C794 1.492 . S
C784 C783 1.396 . S
C784 C785 1.397 . S
C784 C800 1.509 . S
C785 C784 1.397 . S
C785 C786 1.412 . S
C785 C806 1.485 . S
C786 C785 1.412 . S
C786 C787 1.388 . S
C786 C812 1.490 . S
C787 C782 1.397 . S
C787 C786 1.388 . S
C787 C818 1.519 . S
C788 C782 1.492 . S
C788 C789 1.363 . S
C788 C793 1.390 . S
C789 H754 0.930 . S
C789 C788 1.363 . S
C789 C790 1.372 . S
C790 H755 0.930 . S
C790 C789 1.372 . S
C790 C791 1.383 . S
C791 C790 1.383 . S
C791 C792 1.395 . S
C792 H756 0.930 . S
C792 C791 1.395 . S
C792 C793 1.362 . S
C793 H757 0.930 . S
C793 C788 1.390 . S
C793 C792 1.362 . S
C794 C783 1.492 . S
C794 C795 1.377 . S
C794 C799 1.397 . S
C795 H758 0.931 . S
C795 C794 1.377 . S
C795 C796 1.376 . S
C796 H759 0.930 . S
C796 C795 1.376 . S
C796 C797 1.376 . S
C797 C796 1.376 . S
C797 C798 1.378 . S
C797 C824 1.486 . S
C798 H760 0.930 . S
C798 C797 1.378 . S
C798 C799 1.376 . S
C799 H761 0.929 . S
C799 C794 1.397 . S
C799 C798 1.376 . S
C800 C784 1.509 . S
C800 C801 1.391 . S
C800 C805 1.386 . S
C801 H762 0.930 . S
C801 C800 1.391 . S
C801 C802 1.375 . S
C802 H763 0.931 . S
C802 C801 1.375 . S
C802 C803 1.375 . S
C803 C802 1.375 . S
C803 C804 1.361 . S
C804 H764 0.930 . S
C804 C803 1.361 . S
C804 C805 1.399 . S
C805 H765 0.929 . S
C805 C800 1.386 . S
C805 C804 1.399 . S
C806 C785 1.485 . S
C806 C807 1.394 . S
C806 C811 1.360 . S
C807 H766 0.931 . S
C807 C806 1.394 . S
C807 C808 1.372 . S
C808 H767 0.930 . S
C808 C807 1.372 . S
C808 C809 1.397 . S
C809 C808 1.397 . S
C809 C810 1.390 . S
C809 C825 1.476 . S
C810 H768 0.930 . S
C810 C809 1.390 . S
C810 C811 1.366 . S
C811 H769 0.932 . S
C811 C806 1.360 . S
C811 C810 1.366 . S
C812 C786 1.490 . S
C812 C813 1.380 . S
C812 C817 1.386 . S
C813 H770 0.930 . S
C813 C812 1.380 . S
C813 C814 1.381 . S
C814 H771 0.929 . S
C814 C813 1.381 . S
C814 C815 1.371 . S
C815 C814 1.371 . S
C815 C816 1.380 . S
C816 H772 0.931 . S
C816 C815 1.380 . S
C816 C817 1.387 . S
C817 H773 0.930 . S
C817 C812 1.386 . S
C817 C816 1.387 . S
C818 C787 1.519 . S
C818 C819 1.377 . S
C818 C823 1.361 . S
C819 H774 0.929 . S
C819 C818 1.377 . S
C819 C820 1.386 . S
C820 H775 0.931 . S
C820 C819 1.386 . S
C820 C821 1.363 . S
C821 C820 1.363 . S
C821 C822 1.385 . S
C822 H776 0.930 . S
C822 C821 1.385 . S
C822 C823 1.396 . S
C823 H777 0.929 . S
C823 C818 1.361 . S
C823 C822 1.396 . S
C824 O778 1.300 . S
C824 O779 1.209 . S
C824 C797 1.486 . S
C825 O780 1.199 . S
C825 O781 1.297 . S
C825 C809 1.476 . S
H826 O852 0.856 . S
H827 O855 0.854 . S
H828 C863 0.930 . S
H829 C864 0.930 . S
H830 C866 0.930 . S
H831 C867 0.930 . S
H832 C869 0.931 . S
H833 C870 0.930 . S
H834 C872 0.930 . S
H835 C873 0.929 . S
H836 C875 0.930 . S
H837 C876 0.931 . S
H838 C878 0.930 . S
H839 C879 0.929 . S
H840 C881 0.931 . S
H841 C882 0.930 . S
H842 C884 0.930 . S
H843 C885 0.932 . S
H844 C887 0.930 . S
H845 C888 0.929 . S
H846 C890 0.931 . S
H847 C891 0.930 . S
H848 C893 0.929 . S
H849 C894 0.931 . S
H850 C896 0.930 . S
H851 C897 0.929 . S
O852 H826 0.856 . S
O852 C898 1.300 . S
O853 C898 1.209 . S
O854 C899 1.199 . S
O855 H827 0.854 . S
O855 C899 1.297 . S
C856 C857 1.404 . S
C856 C861 1.397 . S
C856 C862 1.492 . S
C857 C856 1.404 . S
C857 C858 1.396 . S
C857 C868 1.492 . S
C858 C857 1.396 . S
C858 C859 1.397 . S
C858 C874 1.509 . S
C859 C858 1.397 . S
C859 C860 1.412 . S
C859 C880 1.485 . S
C860 C859 1.412 . S
C860 C861 1.388 . S
C860 C886 1.490 . S
C861 C856 1.397 . S
C861 C860 1.388 . S
C861 C892 1.519 . S
C862 C856 1.492 . S
C862 C863 1.363 . S
C862 C867 1.390 . S
C863 H828 0.930 . S
C863 C862 1.363 . S
C863 C864 1.372 . S
C864 H829 0.930 . S
C864 C863 1.372 . S
C864 C865 1.383 . S
C865 C864 1.383 . S
C865 C866 1.395 . S
C866 H830 0.930 . S
C866 C865 1.395 . S
C866 C867 1.362 . S
C867 H831 0.930 . S
C867 C862 1.390 . S
C867 C866 1.362 . S
C868 C857 1.492 . S
C868 C869 1.377 . S
C868 C873 1.397 . S
C869 H832 0.931 . S
C869 C868 1.377 . S
C869 C870 1.376 . S
C870 H833 0.930 . S
C870 C869 1.376 . S
C870 C871 1.376 . S
C871 C870 1.376 . S
C871 C872 1.378 . S
C871 C898 1.486 . S
C872 H834 0.930 . S
C872 C871 1.378 . S
C872 C873 1.376 . S
C873 H835 0.929 . S
C873 C868 1.397 . S
C873 C872 1.376 . S
C874 C858 1.509 . S
C874 C875 1.391 . S
C874 C879 1.386 . S
C875 H836 0.930 . S
C875 C874 1.391 . S
C875 C876 1.375 . S
C876 H837 0.931 . S
C876 C875 1.375 . S
C876 C877 1.375 . S
C877 C876 1.375 . S
C877 C878 1.361 . S
C878 H838 0.930 . S
C878 C877 1.361 . S
C878 C879 1.399 . S
C879 H839 0.929 . S
C879 C874 1.386 . S
C879 C878 1.399 . S
C880 C859 1.485 . S
C880 C881 1.394 . S
C880 C885 1.360 . S
C881 H840 0.931 . S
C881 C880 1.394 . S
C881 C882 1.372 . S
C882 H841 0.930 . S
C882 C881 1.372 . S
C882 C883 1.397 . S
C883 C882 1.397 . S
C883 C884 1.390 . S
C883 C899 1.476 . S
C884 H842 0.930 . S
C884 C883 1.390 . S
C884 C885 1.366 . S
C885 H843 0.932 . S
C885 C880 1.360 . S
C885 C884 1.366 . S
C886 C860 1.490 . S
C886 C887 1.380 . S
C886 C891 1.386 . S
C887 H844 0.930 . S
C887 C886 1.380 . S
C887 C888 1.381 . S
C888 H845 0.929 . S
C888 C887 1.381 . S
C888 C889 1.371 . S
C889 C888 1.371 . S
C889 C890 1.380 . S
C890 H846 0.931 . S
C890 C889 1.380 . S
C890 C891 1.387 . S
C891 H847 0.930 . S
C891 C886 1.386 . S
C891 C890 1.387 . S
C892 C861 1.519 . S
C892 C893 1.377 . S
C892 C897 1.361 . S
C893 H848 0.929 . S
C893 C892 1.377 . S
C893 C894 1.386 . S
C894 H849 0.931 . S
C894 C893 1.386 . S
C894 C895 1.363 . S
C895 C894 1.363 . S
C895 C896 1.385 . S
C896 H850 0.930 . S
C896 C895 1.385 . S
C896 C897 1.396 . S
C897 H851 0.929 . S
C897 C892 1.361 . S
C897 C896 1.396 . S
C898 O852 1.300 . S
C898 O853 1.209 . S
C898 C871 1.486 . S
C899 O854 1.199 . S
C899 O855 1.297 . S
C899 C883 1.476 . S
H900 O926 0.856 . S
H901 O929 0.854 . S
H902 C937 0.930 . S
H903 C938 0.930 . S
H904 C940 0.930 . S
H905 C941 0.930 . S
H906 C943 0.931 . S
H907 C944 0.901 1_655 S
H908 C946 0.930 . S
H909 C947 0.929 . S
H910 C949 0.930 . S
H911 C950 0.926 1_655 S
H912 C952 0.930 . S
H913 C953 0.929 . S
H914 C955 0.931 . S
H915 C956 0.930 . S
H916 C958 0.930 . S
H917 C959 0.932 . S
H918 C961 0.930 . S
H919 C962 0.929 . S
H920 C964 0.931 . S
H921 C965 0.930 . S
H922 C967 0.929 . S
H923 C968 0.931 . S
H924 C970 0.930 . S
H925 C971 0.929 . S
O926 H900 0.856 . S
O926 C972 1.300 . S
O927 C972 1.209 . S
O928 C973 1.199 1_655 S
O929 H901 0.854 . S
O929 C973 1.297 . S
C930 C931 1.404 . S
C930 C935 1.394 . S
C930 C936 1.492 . S
C931 C930 1.404 . S
C931 C932 1.396 . S
C931 C942 1.492 . S
C932 C931 1.396 . S
C932 C933 1.397 . S
C932 C948 1.509 . S
C933 C932 1.397 . S
C933 C934 1.423 . S
C933 C954 1.485 . S
C934 C933 1.423 . S
C934 C935 1.404 . S
C934 C960 1.490 1_455 S
C935 C930 1.394 . S
C935 C934 1.404 . S
C935 C966 1.493 1_455 S
C936 C930 1.492 . S
C936 C937 1.363 1_455 S
C936 C941 1.390 . S
C937 H902 0.930 . S
C937 C936 1.363 1_655 S
C937 C938 1.372 . S
C938 H903 0.930 . S
C938 C937 1.372 . S
C938 C939 1.383 . S
C939 C938 1.383 . S
C939 C940 1.395 1_655 S
C940 H904 0.930 . S
C940 C939 1.395 1_455 S
C940 C941 1.362 . S
C941 H905 0.930 . S
C941 C936 1.390 . S
C941 C940 1.362 . S
C942 C931 1.492 . S
C942 C943 1.377 1_455 S
C942 C947 1.397 . S
C943 H906 0.931 . S
C943 C942 1.377 1_655 S
C943 C944 1.381 1_655 S
C944 H907 0.901 1_455 S
C944 C943 1.381 1_455 S
C944 C945 1.404 . S
C945 C944 1.404 . S
C945 C946 1.378 . S
C945 C972 1.486 . S
C946 H908 0.930 . S
C946 C945 1.378 . S
C946 C947 1.376 . S
C947 H909 0.929 . S
C947 C942 1.397 . S
C947 C946 1.376 . S
C948 C932 1.509 . S
C948 C949 1.391 1_455 S
C948 C953 1.386 . S
C949 H910 0.930 . S
C949 C948 1.391 1_655 S
C949 C950 1.368 1_655 S
C950 H911 0.926 1_455 S
C950 C949 1.368 1_455 S
C950 C951 1.386 . S
C951 C950 1.386 . S
C951 C952 1.361 . S
C952 H912 0.930 . S
C952 C951 1.361 . S
C952 C953 1.399 . S
C953 H913 0.929 . S
C953 C948 1.386 . S
C953 C952 1.399 . S
C954 C933 1.485 . S
C954 C955 1.394 1_455 S
C954 C959 1.360 . S
C955 H914 0.931 . S
C955 C954 1.394 1_655 S
C955 C956 1.372 . S
C956 H915 0.930 . S
C956 C955 1.372 . S
C956 C957 1.397 1_655 S
C957 C956 1.397 1_455 S
C957 C958 1.390 . S
C957 C973 1.476 . S
C958 H916 0.930 . S
C958 C957 1.390 . S
C958 C959 1.366 . S
C959 H917 0.932 . S
C959 C954 1.360 . S
C959 C958 1.366 . S
C960 C934 1.490 1_655 S
C960 C961 1.380 . S
C960 C965 1.386 1_655 S
C961 H918 0.930 . S
C961 C960 1.380 . S
C961 C962 1.381 . S
C962 H919 0.929 . S
C962 C961 1.381 . S
C962 C963 1.371 . S
C963 C962 1.371 . S
C963 C964 1.380 1_655 S
C964 H920 0.931 . S
C964 C963 1.380 1_455 S
C964 C965 1.387 . S
C965 H921 0.930 . S
C965 C960 1.386 1_455 S
C965 C964 1.387 . S
C966 C935 1.493 1_655 S
C966 C967 1.397 . S
C966 C971 1.348 1_655 S
C967 H922 0.929 . S
C967 C966 1.397 . S
C967 C968 1.386 . S
C968 H923 0.931 . S
C968 C967 1.386 . S
C968 C969 1.361 . S
C969 C968 1.361 . S
C969 C970 1.388 1_655 S
C970 H924 0.930 . S
C970 C969 1.388 1_455 S
C970 C971 1.396 . S
C971 H925 0.929 . S
C971 C966 1.348 1_455 S
C971 C970 1.396 . S
C972 O926 1.300 . S
C972 O927 1.209 . S
C972 C945 1.486 . S
C973 O928 1.199 1_455 S
C973 O929 1.297 . S
C973 C957 1.476 . S
H974 O1000 0.856 . S
H975 O1003 0.854 . S
H976 C1011 0.930 . S
H977 C1012 0.930 . S
H978 C1014 0.930 . S
H979 C1015 0.930 . S
H980 C1017 0.931 . S
H981 C1018 0.930 . S
H982 C1020 0.930 . S
H983 C1021 0.929 . S
H984 C1023 0.930 . S
H985 C1024 0.931 . S
H986 C1026 0.930 . S
H987 C1027 0.929 . S
H988 C1029 0.931 . S
H989 C1030 0.930 . S
H990 C1032 0.930 . S
H991 C1033 0.932 . S
H992 C1035 0.930 . S
H993 C1036 0.929 . S
H994 C1038 0.931 . S
H995 C1039 0.930 . S
H996 C1041 0.929 . S
H997 C1042 0.931 . S
H998 C1044 0.930 . S
H999 C1045 0.929 . S
O1000 H974 0.856 . S
O1000 C1046 1.300 . S
O1001 C1046 1.209 . S
O1002 C1047 1.199 . S
O1003 H975 0.854 . S
O1003 C1047 1.297 . S
C1004 C1005 1.404 . S
C1004 C1009 1.397 . S
C1004 C1010 1.492 . S
C1005 C1004 1.404 . S
C1005 C1006 1.396 . S
C1005 C1016 1.492 . S
C1006 C1005 1.396 . S
C1006 C1007 1.397 . S
C1006 C1022 1.509 . S
C1007 C1006 1.397 . S
C1007 C1008 1.412 . S
C1007 C1028 1.485 . S
C1008 C1007 1.412 . S
C1008 C1009 1.388 . S
C1008 C1034 1.490 . S
C1009 C1004 1.397 . S
C1009 C1008 1.388 . S
C1009 C1040 1.519 . S
C1010 C1004 1.492 . S
C1010 C1011 1.363 . S
C1010 C1015 1.390 . S
C1011 H976 0.930 . S
C1011 C1010 1.363 . S
C1011 C1012 1.372 . S
C1012 H977 0.930 . S
C1012 C1011 1.372 . S
C1012 C1013 1.383 . S
C1013 C1012 1.383 . S
C1013 C1014 1.395 . S
C1014 H978 0.930 . S
C1014 C1013 1.395 . S
C1014 C1015 1.362 . S
C1015 H979 0.930 . S
C1015 C1010 1.390 . S
C1015 C1014 1.362 . S
C1016 C1005 1.492 . S
C1016 C1017 1.377 . S
C1016 C1021 1.397 . S
C1017 H980 0.931 . S
C1017 C1016 1.377 . S
C1017 C1018 1.376 . S
C1018 H981 0.930 . S
C1018 C1017 1.376 . S
C1018 C1019 1.376 . S
C1019 C1018 1.376 . S
C1019 C1020 1.378 . S
C1019 C1046 1.486 . S
C1020 H982 0.930 . S
C1020 C1019 1.378 . S
C1020 C1021 1.376 . S
C1021 H983 0.929 . S
C1021 C1016 1.397 . S
C1021 C1020 1.376 . S
C1022 C1006 1.509 . S
C1022 C1023 1.391 . S
C1022 C1027 1.386 . S
C1023 H984 0.930 . S
C1023 C1022 1.391 . S
C1023 C1024 1.375 . S
C1024 H985 0.931 . S
C1024 C1023 1.375 . S
C1024 C1025 1.375 . S
C1025 C1024 1.375 . S
C1025 C1026 1.361 . S
C1026 H986 0.930 . S
C1026 C1025 1.361 . S
C1026 C1027 1.399 . S
C1027 H987 0.929 . S
C1027 C1022 1.386 . S
C1027 C1026 1.399 . S
C1028 C1007 1.485 . S
C1028 C1029 1.394 . S
C1028 C1033 1.360 . S
C1029 H988 0.931 . S
C1029 C1028 1.394 . S
C1029 C1030 1.372 . S
C1030 H989 0.930 . S
C1030 C1029 1.372 . S
C1030 C1031 1.397 . S
C1031 C1030 1.397 . S
C1031 C1032 1.390 . S
C1031 C1047 1.476 . S
C1032 H990 0.930 . S
C1032 C1031 1.390 . S
C1032 C1033 1.366 . S
C1033 H991 0.932 . S
C1033 C1028 1.360 . S
C1033 C1032 1.366 . S
C1034 C1008 1.490 . S
C1034 C1035 1.380 . S
C1034 C1039 1.386 . S
C1035 H992 0.930 . S
C1035 C1034 1.380 . S
C1035 C1036 1.381 . S
C1036 H993 0.929 . S
C1036 C1035 1.381 . S
C1036 C1037 1.371 . S
C1037 C1036 1.371 . S
C1037 C1038 1.380 . S
C1038 H994 0.931 . S
C1038 C1037 1.380 . S
C1038 C1039 1.387 . S
C1039 H995 0.930 . S
C1039 C1034 1.386 . S
C1039 C1038 1.387 . S
C1040 C1009 1.519 . S
C1040 C1041 1.377 . S
C1040 C1045 1.361 . S
C1041 H996 0.929 . S
C1041 C1040 1.377 . S
C1041 C1042 1.386 . S
C1042 H997 0.931 . S
C1042 C1041 1.386 . S
C1042 C1043 1.363 . S
C1043 C1042 1.363 . S
C1043 C1044 1.385 . S
C1044 H998 0.930 . S
C1044 C1043 1.385 . S
C1044 C1045 1.396 . S
C1045 H999 0.929 . S
C1045 C1040 1.361 . S
C1045 C1044 1.396 . S
C1046 O1000 1.300 . S
C1046 O1001 1.209 . S
C1046 C1019 1.486 . S
C1047 O1002 1.199 . S
C1047 O1003 1.297 . S
C1047 C1031 1.476 . S
H1048 O1074 0.856 . S
H1049 O1077 0.854 . S
H1050 C1085 0.930 . S
H1051 C1086 0.930 . S
H1052 C1088 0.930 . S
H1053 C1089 0.930 . S
H1054 C1091 0.931 . S
H1055 C1092 0.983 . S
H1056 C1094 0.930 . S
H1057 C1095 0.929 . S
H1058 C1097 0.930 . S
H1059 C1098 0.931 . S
H1060 C1100 0.930 . S
H1061 C1101 0.929 . S
H1062 C1103 0.931 . S
H1063 C1104 0.930 . S
H1064 C1106 0.930 . S
H1065 C1107 0.932 . S
H1066 C1109 0.930 . S
H1067 C1110 0.929 . S
H1068 C1112 0.931 . S
H1069 C1113 0.930 . S
H1070 C1115 0.929 . S
H1071 C1116 0.931 . S
H1072 C1118 0.930 . S
H1073 C1119 0.929 . S
O1074 H1048 0.856 . S
O1074 C1120 1.300 . S
O1075 C1120 1.209 . S
O1076 C1121 1.199 1_545 S
O1077 H1049 0.854 . S
O1077 C1121 1.297 . S
C1078 C1079 1.404 . S
C1078 C1083 1.412 . S
C1078 C1084 1.492 . S
C1079 C1078 1.404 . S
C1079 C1080 1.396 . S
C1079 C1090 1.492 . S
C1080 C1079 1.396 . S
C1080 C1081 1.397 . S
C1080 C1096 1.509 . S
C1081 C1080 1.397 . S
C1081 C1082 1.410 . S
C1081 C1102 1.485 . S
C1082 C1081 1.410 . S
C1082 C1083 1.370 . S
C1082 C1108 1.486 1_565 S
C1083 C1078 1.412 . S
C1083 C1082 1.370 . S
C1083 C1114 1.536 . S
C1084 C1078 1.492 . S
C1084 C1085 1.363 1_565 S
C1084 C1089 1.390 . S
C1085 H1050 0.930 . S
C1085 C1084 1.363 1_545 S
C1085 C1086 1.372 . S
C1086 H1051 0.930 . S
C1086 C1085 1.372 . S
C1086 C1087 1.383 . S
C1087 C1086 1.383 . S
C1087 C1088 1.395 1_545 S
C1088 H1052 0.930 . S
C1088 C1087 1.395 1_565 S
C1088 C1089 1.362 . S
C1089 H1053 0.930 . S
C1089 C1084 1.390 . S
C1089 C1088 1.362 . S
C1090 C1079 1.492 . S
C1090 C1091 1.377 1_565 S
C1090 C1095 1.397 . S
C1091 H1054 0.931 . S
C1091 C1090 1.377 1_545 S
C1091 C1092 1.402 . S
C1092 H1055 0.983 . S
C1092 C1091 1.402 . S
C1092 C1093 1.300 1_545 S
C1093 C1092 1.300 1_565 S
C1093 C1094 1.378 . S
C1093 C1120 1.486 . S
C1094 H1056 0.930 . S
C1094 C1093 1.378 . S
C1094 C1095 1.376 . S
C1095 H1057 0.929 . S
C1095 C1090 1.397 . S
C1095 C1094 1.376 . S
C1096 C1080 1.509 . S
C1096 C1097 1.391 1_565 S
C1096 C1101 1.386 . S
C1097 H1058 0.930 . S
C1097 C1096 1.391 1_545 S
C1097 C1098 1.375 . S
C1098 H1059 0.931 . S
C1098 C1097 1.375 . S
C1098 C1099 1.375 1_545 S
C1099 C1098 1.375 1_565 S
C1099 C1100 1.361 . S
C1100 H1060 0.930 . S
C1100 C1099 1.361 . S
C1100 C1101 1.399 . S
C1101 H1061 0.929 . S
C1101 C1096 1.386 . S
C1101 C1100 1.399 . S
C1102 C1081 1.485 . S
C1102 C1103 1.394 1_565 S
C1102 C1107 1.360 . S
C1103 H1062 0.931 . S
C1103 C1102 1.394 1_545 S
C1103 C1104 1.372 . S
C1104 H1063 0.930 . S
C1104 C1103 1.372 . S
C1104 C1105 1.397 1_545 S
C1105 C1104 1.397 1_565 S
C1105 C1106 1.390 . S
C1105 C1121 1.476 . S
C1106 H1064 0.930 . S
C1106 C1105 1.390 . S
C1106 C1107 1.366 . S
C1107 H1065 0.932 . S
C1107 C1102 1.360 . S
C1107 C1106 1.366 . S
C1108 C1082 1.486 1_545 S
C1108 C1109 1.380 . S
C1108 C1113 1.386 1_545 S
C1109 H1066 0.930 . S
C1109 C1108 1.380 . S
C1109 C1110 1.381 . S
C1110 H1067 0.929 . S
C1110 C1109 1.381 . S
C1110 C1111 1.371 . S
C1111 C1110 1.371 . S
C1111 C1112 1.380 1_545 S
C1112 H1068 0.931 . S
C1112 C1111 1.380 1_565 S
C1112 C1113 1.387 . S
C1113 H1069 0.930 . S
C1113 C1108 1.386 1_565 S
C1113 C1112 1.387 . S
C1114 C1083 1.536 . S
C1114 C1115 1.379 1_565 S
C1114 C1119 1.356 . S
C1115 H1070 0.929 . S
C1115 C1114 1.379 1_545 S
C1115 C1116 1.386 . S
C1116 H1071 0.931 . S
C1116 C1115 1.386 . S
C1116 C1117 1.301 1_545 S
C1117 C1116 1.301 1_565 S
C1117 C1118 1.419 . S
C1118 H1072 0.930 . S
C1118 C1117 1.419 . S
C1118 C1119 1.396 . S
C1119 H1073 0.929 . S
C1119 C1114 1.356 . S
C1119 C1118 1.396 . S
C1120 O1074 1.300 . S
C1120 O1075 1.209 . S
C1120 C1093 1.486 . S
C1121 O1076 1.199 1_565 S
C1121 O1077 1.297 . S
C1121 C1105 1.476 . S
H1122 O1148 0.856 . S
H1123 O1151 0.854 . S
H1124 C1159 0.930 . S
H1125 C1160 0.930 . S
H1126 C1162 0.930 . S
H1127 C1163 0.930 . S
H1128 C1165 0.931 . S
H1129 C1166 0.930 . S
H1130 C1168 0.930 . S
H1131 C1169 0.929 . S
H1132 C1171 0.930 . S
H1133 C1172 0.931 . S
H1134 C1174 0.930 . S
H1135 C1175 0.929 . S
H1136 C1177 0.931 . S
H1137 C1178 0.930 . S
H1138 C1180 0.930 . S
H1139 C1181 0.932 . S
H1140 C1183 0.930 . S
H1141 C1184 0.929 . S
H1142 C1186 0.931 . S
H1143 C1187 0.930 . S
H1144 C1189 0.929 . S
H1145 C1190 0.931 . S
H1146 C1192 0.930 . S
H1147 C1193 0.929 . S
O1148 H1122 0.856 . S
O1148 C1194 1.300 . S
O1149 C1194 1.209 1_565 S
O1150 C1195 1.199 1_545 S
O1151 H1123 0.854 . S
O1151 C1195 1.297 . S
C1152 C1153 1.404 . S
C1152 C1157 1.398 1_545 S
C1152 C1158 1.492 . S
C1153 C1152 1.404 . S
C1153 C1154 1.431 . S
C1153 C1164 1.492 . S
C1154 C1153 1.431 . S
C1154 C1155 1.381 1_545 S
C1154 C1170 1.505 . S
C1155 C1154 1.381 1_565 S
C1155 C1156 1.417 . S
C1155 C1176 1.492 . S
C1156 C1155 1.417 . S
C1156 C1157 1.371 . S
C1156 C1182 1.489 . S
C1157 C1152 1.398 1_565 S
C1157 C1156 1.371 . S
C1157 C1188 1.520 . S
C1158 C1152 1.492 . S
C1158 C1159 1.363 . S
C1158 C1163 1.390 1_545 S
C1159 H1124 0.930 . S
C1159 C1158 1.363 . S
C1159 C1160 1.372 . S
C1160 H1125 0.930 . S
C1160 C1159 1.372 . S
C1160 C1161 1.383 . S
C1161 C1160 1.383 . S
C1161 C1162 1.395 1_545 S
C1162 H1126 0.930 . S
C1162 C1161 1.395 1_565 S
C1162 C1163 1.362 . S
C1163 H1127 0.930 . S
C1163 C1158 1.390 1_565 S
C1163 C1162 1.362 . S
C1164 C1153 1.492 . S
C1164 C1165 1.377 . S
C1164 C1169 1.397 1_545 S
C1165 H1128 0.931 . S
C1165 C1164 1.377 . S
C1165 C1166 1.376 . S
C1166 H1129 0.930 . S
C1166 C1165 1.376 . S
C1166 C1167 1.376 . S
C1167 C1166 1.376 . S
C1167 C1168 1.378 1_545 S
C1167 C1194 1.486 . S
C1168 H1130 0.930 . S
C1168 C1167 1.378 1_565 S
C1168 C1169 1.376 . S
C1169 H1131 0.929 . S
C1169 C1164 1.397 1_565 S
C1169 C1168 1.376 . S
C1170 C1154 1.505 . S
C1170 C1171 1.414 . S
C1170 C1175 1.349 1_545 S
C1171 H1132 0.930 . S
C1171 C1170 1.414 . S
C1171 C1172 1.375 . S
C1172 H1133 0.931 . S
C1172 C1171 1.375 . S
C1172 C1173 1.392 . S
C1173 C1172 1.392 . S
C1173 C1174 1.352 1_545 S
C1174 H1134 0.930 . S
C1174 C1173 1.352 1_565 S
C1174 C1175 1.399 . S
C1175 H1135 0.929 . S
C1175 C1170 1.349 1_565 S
C1175 C1174 1.399 . S
C1176 C1155 1.492 . S
C1176 C1177 1.394 1_565 S
C1176 C1181 1.360 . S
C1177 H1136 0.931 . S
C1177 C1176 1.394 1_545 S
C1177 C1178 1.372 . S
C1178 H1137 0.930 . S
C1178 C1177 1.372 . S
C1178 C1179 1.397 1_545 S
C1179 C1178 1.397 1_565 S
C1179 C1180 1.390 . S
C1179 C1195 1.476 . S
C1180 H1138 0.930 . S
C1180 C1179 1.390 . S
C1180 C1181 1.366 . S
C1181 H1139 0.932 . S
C1181 C1176 1.360 . S
C1181 C1180 1.366 . S
C1182 C1156 1.489 . S
C1182 C1183 1.354 1_565 S
C1182 C1187 1.417 . S
C1183 H1140 0.930 . S
C1183 C1182 1.354 1_545 S
C1183 C1184 1.381 . S
C1184 H1141 0.929 . S
C1184 C1183 1.381 . S
C1184 C1185 1.410 . S
C1185 C1184 1.410 . S
C1185 C1186 1.347 1_545 S
C1186 H1142 0.931 . S
C1186 C1185 1.347 1_565 S
C1186 C1187 1.387 . S
C1187 H1143 0.930 . S
C1187 C1182 1.417 . S
C1187 C1186 1.387 . S
C1188 C1157 1.520 . S
C1188 C1189 1.377 1_565 S
C1188 C1193 1.361 . S
C1189 H1144 0.929 . S
C1189 C1188 1.377 1_545 S
C1189 C1190 1.386 . S
C1190 H1145 0.931 . S
C1190 C1189 1.386 . S
C1190 C1191 1.363 1_545 S
C1191 C1190 1.363 1_565 S
C1191 C1192 1.385 . S
C1192 H1146 0.930 . S
C1192 C1191 1.385 . S
C1192 C1193 1.396 . S
C1193 H1147 0.929 . S
C1193 C1188 1.361 . S
C1193 C1192 1.396 . S
C1194 O1148 1.300 . S
C1194 O1149 1.209 1_545 S
C1194 C1167 1.486 . S
C1195 O1150 1.199 1_565 S
C1195 O1151 1.297 . S
C1195 C1179 1.476 . S
H1196 O1222 0.856 . S
H1197 O1225 0.854 . S
H1198 C1233 0.930 . S
H1199 C1234 0.930 . S
H1200 C1236 0.930 . S
H1201 C1237 0.930 . S
H1202 C1239 0.931 . S
H1203 C1240 0.930 . S
H1204 C1242 0.930 . S
H1205 C1243 0.929 . S
H1206 C1245 0.930 . S
H1207 C1246 0.931 . S
H1208 C1248 0.930 . S
H1209 C1249 0.929 . S
H1210 C1251 0.931 . S
H1211 C1252 0.930 . S
H1212 C1254 0.930 . S
H1213 C1255 0.932 . S
H1214 C1257 0.930 . S
H1215 C1258 0.929 . S
H1216 C1260 0.931 . S
H1217 C1261 0.930 . S
H1218 C1263 0.929 . S
H1219 C1264 0.931 . S
H1220 C1266 0.930 . S
H1221 C1267 0.929 . S
O1222 H1196 0.856 . S
O1222 C1268 1.300 . S
O1223 C1268 1.209 1_455 S
O1224 C1269 1.199 1_655 S
O1225 H1197 0.854 . S
O1225 C1269 1.297 . S
C1226 C1227 1.404 . S
C1226 C1231 1.396 1_655 S
C1226 C1232 1.492 . S
C1227 C1226 1.404 . S
C1227 C1228 1.396 . S
C1227 C1238 1.492 . S
C1228 C1227 1.396 . S
C1228 C1229 1.398 . S
C1228 C1244 1.509 . S
C1229 C1228 1.398 . S
C1229 C1230 1.403 1_655 S
C1229 C1250 1.519 1_655 S
C1230 C1229 1.403 1_455 S
C1230 C1231 1.409 . S
C1230 C1256 1.498 . S
C1231 C1226 1.396 1_455 S
C1231 C1230 1.409 . S
C1231 C1262 1.514 . S
C1232 C1226 1.492 . S
C1232 C1233 1.363 . S
C1232 C1237 1.390 1_655 S
C1233 H1198 0.930 . S
C1233 C1232 1.363 . S
C1233 C1234 1.372 . S
C1234 H1199 0.930 . S
C1234 C1233 1.372 . S
C1234 C1235 1.383 . S
C1235 C1234 1.383 . S
C1235 C1236 1.395 1_655 S
C1236 H1200 0.930 . S
C1236 C1235 1.395 1_455 S
C1236 C1237 1.362 . S
C1237 H1201 0.930 . S
C1237 C1232 1.390 1_455 S
C1237 C1236 1.362 . S
C1238 C1227 1.492 . S
C1238 C1239 1.377 . S
C1238 C1243 1.397 1_655 S
C1239 H1202 0.931 . S
C1239 C1238 1.377 . S
C1239 C1240 1.376 . S
C1240 H1203 0.930 . S
C1240 C1239 1.376 . S
C1240 C1241 1.376 . S
C1241 C1240 1.376 . S
C1241 C1242 1.378 1_655 S
C1241 C1268 1.486 . S
C1242 H1204 0.930 . S
C1242 C1241 1.378 1_455 S
C1242 C1243 1.376 . S
C1243 H1205 0.929 . S
C1243 C1238 1.397 1_455 S
C1243 C1242 1.376 . S
C1244 C1228 1.509 . S
C1244 C1245 1.391 . S
C1244 C1249 1.386 1_655 S
C1245 H1206 0.930 . S
C1245 C1244 1.391 . S
C1245 C1246 1.375 . S
C1246 H1207 0.931 . S
C1246 C1245 1.375 . S
C1246 C1247 1.375 . S
C1247 C1246 1.375 . S
C1247 C1248 1.361 1_655 S
C1248 H1208 0.930 . S
C1248 C1247 1.361 1_455 S
C1248 C1249 1.399 . S
C1249 H1209 0.929 . S
C1249 C1244 1.386 1_455 S
C1249 C1248 1.399 . S
C1250 C1229 1.519 1_455 S
C1250 C1251 1.329 1_455 S
C1250 C1255 1.391 . S
C1251 H1210 0.931 . S
C1251 C1250 1.329 1_655 S
C1251 C1252 1.372 . S
C1252 H1211 0.930 . S
C1252 C1251 1.372 . S
C1252 C1253 1.397 1_655 S
C1253 C1252 1.397 1_455 S
C1253 C1254 1.390 . S
C1253 C1269 1.476 . S
C1254 H1212 0.930 . S
C1254 C1253 1.390 . S
C1254 C1255 1.366 . S
C1255 H1213 0.932 . S
C1255 C1250 1.391 . S
C1255 C1254 1.366 . S
C1256 C1230 1.498 . S
C1256 C1257 1.335 1_455 S
C1256 C1261 1.421 . S
C1257 H1214 0.930 . S
C1257 C1256 1.335 1_655 S
C1257 C1258 1.381 . S
C1258 H1215 0.929 . S
C1258 C1257 1.381 . S
C1258 C1259 1.347 1_655 S
C1259 C1258 1.347 1_455 S
C1259 C1260 1.418 . S
C1260 H1216 0.931 . S
C1260 C1259 1.418 . S
C1260 C1261 1.387 . S
C1261 H1217 0.930 . S
C1261 C1256 1.421 . S
C1261 C1260 1.387 . S
C1262 C1231 1.514 . S
C1262 C1263 1.377 1_455 S
C1262 C1267 1.361 . S
C1263 H1218 0.929 . S
C1263 C1262 1.377 1_655 S
C1263 C1264 1.386 . S
C1264 H1219 0.931 . S
C1264 C1263 1.386 . S
C1264 C1265 1.363 1_655 S
C1265 C1264 1.363 1_455 S
C1265 C1266 1.385 . S
C1266 H1220 0.930 . S
C1266 C1265 1.385 . S
C1266 C1267 1.396 . S
C1267 H1221 0.929 . S
C1267 C1262 1.361 . S
C1267 C1266 1.396 . S
C1268 O1222 1.300 . S
C1268 O1223 1.209 1_655 S
C1268 C1241 1.486 . S
C1269 O1224 1.199 1_455 S
C1269 O1225 1.297 . S
C1269 C1253 1.476 . S
H1270 O1296 0.856 . S
H1271 O1299 0.854 . S
H1272 C1307 0.930 . S
H1273 C1308 0.930 . S
H1274 C1310 0.930 . S
H1275 C1311 0.930 . S
H1276 C1313 0.931 . S
H1277 C1314 0.930 . S
H1278 C1316 0.930 . S
H1279 C1317 0.929 . S
H1280 C1319 0.930 . S
H1281 C1320 0.931 . S
H1282 C1322 0.930 . S
H1283 C1323 0.929 . S
H1284 C1325 0.931 . S
H1285 C1326 0.930 . S
H1286 C1328 0.930 . S
H1287 C1329 0.932 . S
H1288 C1331 0.930 . S
H1289 C1332 0.929 . S
H1290 C1334 0.931 . S
H1291 C1335 0.930 . S
H1292 C1337 0.929 . S
H1293 C1338 0.931 . S
H1294 C1340 0.930 . S
H1295 C1341 0.929 . S
O1296 H1270 0.856 . S
O1296 C1342 1.300 . S
O1297 C1342 1.209 . S
O1298 C1343 1.199 . S
O1299 H1271 0.854 . S
O1299 C1343 1.297 . S
C1300 C1301 1.404 . S
C1300 C1305 1.397 . S
C1300 C1306 1.492 . S
C1301 C1300 1.404 . S
C1301 C1302 1.396 . S
C1301 C1312 1.492 . S
C1302 C1301 1.396 . S
C1302 C1303 1.397 . S
C1302 C1318 1.509 . S
C1303 C1302 1.397 . S
C1303 C1304 1.412 . S
C1303 C1324 1.485 . S
C1304 C1303 1.412 . S
C1304 C1305 1.388 . S
C1304 C1330 1.490 . S
C1305 C1300 1.397 . S
C1305 C1304 1.388 . S
C1305 C1336 1.519 . S
C1306 C1300 1.492 . S
C1306 C1307 1.363 . S
C1306 C1311 1.390 . S
C1307 H1272 0.930 . S
C1307 C1306 1.363 . S
C1307 C1308 1.372 . S
C1308 H1273 0.930 . S
C1308 C1307 1.372 . S
C1308 C1309 1.383 . S
C1309 C1308 1.383 . S
C1309 C1310 1.395 . S
C1310 H1274 0.930 . S
C1310 C1309 1.395 . S
C1310 C1311 1.362 . S
C1311 H1275 0.930 . S
C1311 C1306 1.390 . S
C1311 C1310 1.362 . S
C1312 C1301 1.492 . S
C1312 C1313 1.377 . S
C1312 C1317 1.397 . S
C1313 H1276 0.931 . S
C1313 C1312 1.377 . S
C1313 C1314 1.376 . S
C1314 H1277 0.930 . S
C1314 C1313 1.376 . S
C1314 C1315 1.376 . S
C1315 C1314 1.376 . S
C1315 C1316 1.378 . S
C1315 C1342 1.486 . S
C1316 H1278 0.930 . S
C1316 C1315 1.378 . S
C1316 C1317 1.376 . S
C1317 H1279 0.929 . S
C1317 C1312 1.397 . S
C1317 C1316 1.376 . S
C1318 C1302 1.509 . S
C1318 C1319 1.391 . S
C1318 C1323 1.386 . S
C1319 H1280 0.930 . S
C1319 C1318 1.391 . S
C1319 C1320 1.375 . S
C1320 H1281 0.931 . S
C1320 C1319 1.375 . S
C1320 C1321 1.375 . S
C1321 C1320 1.375 . S
C1321 C1322 1.361 . S
C1322 H1282 0.930 . S
C1322 C1321 1.361 . S
C1322 C1323 1.399 . S
C1323 H1283 0.929 . S
C1323 C1318 1.386 . S
C1323 C1322 1.399 . S
C1324 C1303 1.485 . S
C1324 C1325 1.394 . S
C1324 C1329 1.360 . S
C1325 H1284 0.931 . S
C1325 C1324 1.394 . S
C1325 C1326 1.372 . S
C1326 H1285 0.930 . S
C1326 C1325 1.372 . S
C1326 C1327 1.397 . S
C1327 C1326 1.397 . S
C1327 C1328 1.390 . S
C1327 C1343 1.476 . S
C1328 H1286 0.930 . S
C1328 C1327 1.390 . S
C1328 C1329 1.366 . S
C1329 H1287 0.932 . S
C1329 C1324 1.360 . S
C1329 C1328 1.366 . S
C1330 C1304 1.490 . S
C1330 C1331 1.380 . S
C1330 C1335 1.386 . S
C1331 H1288 0.930 . S
C1331 C1330 1.380 . S
C1331 C1332 1.381 . S
C1332 H1289 0.929 . S
C1332 C1331 1.381 . S
C1332 C1333 1.371 . S
C1333 C1332 1.371 . S
C1333 C1334 1.380 . S
C1334 H1290 0.931 . S
C1334 C1333 1.380 . S
C1334 C1335 1.387 . S
C1335 H1291 0.930 . S
C1335 C1330 1.386 . S
C1335 C1334 1.387 . S
C1336 C1305 1.519 . S
C1336 C1337 1.377 . S
C1336 C1341 1.361 . S
C1337 H1292 0.929 . S
C1337 C1336 1.377 . S
C1337 C1338 1.386 . S
C1338 H1293 0.931 . S
C1338 C1337 1.386 . S
C1338 C1339 1.363 . S
C1339 C1338 1.363 . S
C1339 C1340 1.385 . S
C1340 H1294 0.930 . S
C1340 C1339 1.385 . S
C1340 C1341 1.396 . S
C1341 H1295 0.929 . S
C1341 C1336 1.361 . S
C1341 C1340 1.396 . S
C1342 O1296 1.300 . S
C1342 O1297 1.209 . S
C1342 C1315 1.486 . S
C1343 O1298 1.199 . S
C1343 O1299 1.297 . S
C1343 C1327 1.476 . S
H1344 O1370 0.856 . S
H1345 O1373 0.854 . S
H1346 C1381 0.930 . S
H1347 C1382 0.930 . S
H1348 C1384 0.930 . S
H1349 C1385 0.930 . S
H1350 C1387 0.931 . S
H1351 C1388 0.930 . S
H1352 C1390 0.930 . S
H1353 C1391 0.929 . S
H1354 C1393 0.930 . S
H1355 C1394 0.931 . S
H1356 C1396 0.930 . S
H1357 C1397 0.929 . S
H1358 C1399 0.931 . S
H1359 C1400 0.930 . S
H1360 C1402 0.930 . S
H1361 C1403 0.932 . S
H1362 C1405 0.930 . S
H1363 C1406 0.929 . S
H1364 C1408 0.931 . S
H1365 C1409 0.930 . S
H1366 C1411 0.929 . S
H1367 C1412 0.931 . S
H1368 C1414 0.930 . S
H1369 C1415 0.929 . S
O1370 H1344 0.856 . S
O1370 C1416 1.300 . S
O1371 C1416 1.209 . S
O1372 C1417 1.199 . S
O1373 H1345 0.854 . S
O1373 C1417 1.297 . S
C1374 C1375 1.404 . S
C1374 C1379 1.397 . S
C1374 C1380 1.492 . S
C1375 C1374 1.404 . S
C1375 C1376 1.396 . S
C1375 C1386 1.492 . S
C1376 C1375 1.396 . S
C1376 C1377 1.397 . S
C1376 C1392 1.509 . S
C1377 C1376 1.397 . S
C1377 C1378 1.412 . S
C1377 C1398 1.485 . S
C1378 C1377 1.412 . S
C1378 C1379 1.388 . S
C1378 C1404 1.490 . S
C1379 C1374 1.397 . S
C1379 C1378 1.388 . S
C1379 C1410 1.519 . S
C1380 C1374 1.492 . S
C1380 C1381 1.363 . S
C1380 C1385 1.390 . S
C1381 H1346 0.930 . S
C1381 C1380 1.363 . S
C1381 C1382 1.372 . S
C1382 H1347 0.930 . S
C1382 C1381 1.372 . S
C1382 C1383 1.383 . S
C1383 C1382 1.383 . S
C1383 C1384 1.395 . S
C1384 H1348 0.930 . S
C1384 C1383 1.395 . S
C1384 C1385 1.362 . S
C1385 H1349 0.930 . S
C1385 C1380 1.390 . S
C1385 C1384 1.362 . S
C1386 C1375 1.492 . S
C1386 C1387 1.377 . S
C1386 C1391 1.397 . S
C1387 H1350 0.931 . S
C1387 C1386 1.377 . S
C1387 C1388 1.376 . S
C1388 H1351 0.930 . S
C1388 C1387 1.376 . S
C1388 C1389 1.376 . S
C1389 C1388 1.376 . S
C1389 C1390 1.378 . S
C1389 C1416 1.486 . S
C1390 H1352 0.930 . S
C1390 C1389 1.378 . S
C1390 C1391 1.376 . S
C1391 H1353 0.929 . S
C1391 C1386 1.397 . S
C1391 C1390 1.376 . S
C1392 C1376 1.509 . S
C1392 C1393 1.391 . S
C1392 C1397 1.386 . S
C1393 H1354 0.930 . S
C1393 C1392 1.391 . S
C1393 C1394 1.375 . S
C1394 H1355 0.931 . S
C1394 C1393 1.375 . S
C1394 C1395 1.375 . S
C1395 C1394 1.375 . S
C1395 C1396 1.361 . S
C1396 H1356 0.930 . S
C1396 C1395 1.361 . S
C1396 C1397 1.399 . S
C1397 H1357 0.929 . S
C1397 C1392 1.386 . S
C1397 C1396 1.399 . S
C1398 C1377 1.485 . S
C1398 C1399 1.394 . S
C1398 C1403 1.360 . S
C1399 H1358 0.931 . S
C1399 C1398 1.394 . S
C1399 C1400 1.372 . S
C1400 H1359 0.930 . S
C1400 C1399 1.372 . S
C1400 C1401 1.397 . S
C1401 C1400 1.397 . S
C1401 C1402 1.390 . S
C1401 C1417 1.476 . S
C1402 H1360 0.930 . S
C1402 C1401 1.390 . S
C1402 C1403 1.366 . S
C1403 H1361 0.932 . S
C1403 C1398 1.360 . S
C1403 C1402 1.366 . S
C1404 C1378 1.490 . S
C1404 C1405 1.380 . S
C1404 C1409 1.386 . S
C1405 H1362 0.930 . S
C1405 C1404 1.380 . S
C1405 C1406 1.381 . S
C1406 H1363 0.929 . S
C1406 C1405 1.381 . S
C1406 C1407 1.371 . S
C1407 C1406 1.371 . S
C1407 C1408 1.380 . S
C1408 H1364 0.931 . S
C1408 C1407 1.380 . S
C1408 C1409 1.387 . S
C1409 H1365 0.930 . S
C1409 C1404 1.386 . S
C1409 C1408 1.387 . S
C1410 C1379 1.519 . S
C1410 C1411 1.377 . S
C1410 C1415 1.361 . S
C1411 H1366 0.929 . S
C1411 C1410 1.377 . S
C1411 C1412 1.386 . S
C1412 H1367 0.931 . S
C1412 C1411 1.386 . S
C1412 C1413 1.363 . S
C1413 C1412 1.363 . S
C1413 C1414 1.385 . S
C1414 H1368 0.930 . S
C1414 C1413 1.385 . S
C1414 C1415 1.396 . S
C1415 H1369 0.929 . S
C1415 C1410 1.361 . S
C1415 C1414 1.396 . S
C1416 O1370 1.300 . S
C1416 O1371 1.209 . S
C1416 C1389 1.486 . S
C1417 O1372 1.199 . S
C1417 O1373 1.297 . S
C1417 C1401 1.476 . S
H1418 O1444 0.856 . S
H1419 O1447 0.854 . S
H1420 C1455 0.930 . S
H1421 C1456 0.930 . S
H1422 C1458 0.930 . S
H1423 C1459 0.930 . S
H1424 C1461 0.931 . S
H1425 C1462 0.930 . S
H1426 C1464 0.930 . S
H1427 C1465 0.929 . S
H1428 C1467 0.930 . S
H1429 C1468 0.931 . S
H1430 C1470 0.930 . S
H1431 C1471 0.929 . S
H1432 C1473 0.931 . S
H1433 C1474 0.930 . S
H1434 C1476 0.930 . S
H1435 C1477 0.932 . S
H1436 C1479 0.930 . S
H1437 C1480 0.929 . S
H1438 C1482 0.931 . S
H1439 C1483 0.930 . S
H1440 C1485 0.929 . S
H1441 C1486 0.931 . S
H1442 C1488 0.930 . S
H1443 C1489 0.929 . S
O1444 H1418 0.856 . S
O1444 C1490 1.300 . S
O1445 C1490 1.209 . S
O1446 C1491 1.199 . S
O1447 H1419 0.854 . S
O1447 C1491 1.297 . S
C1448 C1449 1.404 . S
C1448 C1453 1.397 . S
C1448 C1454 1.492 . S
C1449 C1448 1.404 . S
C1449 C1450 1.396 . S
C1449 C1460 1.492 . S
C1450 C1449 1.396 . S
C1450 C1451 1.397 . S
C1450 C1466 1.509 . S
C1451 C1450 1.397 . S
C1451 C1452 1.412 . S
C1451 C1472 1.485 . S
C1452 C1451 1.412 . S
C1452 C1453 1.388 . S
C1452 C1478 1.490 . S
C1453 C1448 1.397 . S
C1453 C1452 1.388 . S
C1453 C1484 1.519 . S
C1454 C1448 1.492 . S
C1454 C1455 1.363 . S
C1454 C1459 1.390 . S
C1455 H1420 0.930 . S
C1455 C1454 1.363 . S
C1455 C1456 1.372 . S
C1456 H1421 0.930 . S
C1456 C1455 1.372 . S
C1456 C1457 1.383 . S
C1457 C1456 1.383 . S
C1457 C1458 1.395 . S
C1458 H1422 0.930 . S
C1458 C1457 1.395 . S
C1458 C1459 1.362 . S
C1459 H1423 0.930 . S
C1459 C1454 1.390 . S
C1459 C1458 1.362 . S
C1460 C1449 1.492 . S
C1460 C1461 1.377 . S
C1460 C1465 1.397 . S
C1461 H1424 0.931 . S
C1461 C1460 1.377 . S
C1461 C1462 1.376 . S
C1462 H1425 0.930 . S
C1462 C1461 1.376 . S
C1462 C1463 1.376 . S
C1463 C1462 1.376 . S
C1463 C1464 1.378 . S
C1463 C1490 1.486 . S
C1464 H1426 0.930 . S
C1464 C1463 1.378 . S
C1464 C1465 1.376 . S
C1465 H1427 0.929 . S
C1465 C1460 1.397 . S
C1465 C1464 1.376 . S
C1466 C1450 1.509 . S
C1466 C1467 1.391 . S
C1466 C1471 1.386 . S
C1467 H1428 0.930 . S
C1467 C1466 1.391 . S
C1467 C1468 1.375 . S
C1468 H1429 0.931 . S
C1468 C1467 1.375 . S
C1468 C1469 1.375 . S
C1469 C1468 1.375 . S
C1469 C1470 1.361 . S
C1470 H1430 0.930 . S
C1470 C1469 1.361 . S
C1470 C1471 1.399 . S
C1471 H1431 0.929 . S
C1471 C1466 1.386 . S
C1471 C1470 1.399 . S
C1472 C1451 1.485 . S
C1472 C1473 1.394 . S
C1472 C1477 1.360 . S
C1473 H1432 0.931 . S
C1473 C1472 1.394 . S
C1473 C1474 1.372 . S
C1474 H1433 0.930 . S
C1474 C1473 1.372 . S
C1474 C1475 1.397 . S
C1475 C1474 1.397 . S
C1475 C1476 1.390 . S
C1475 C1491 1.476 . S
C1476 H1434 0.930 . S
C1476 C1475 1.390 . S
C1476 C1477 1.366 . S
C1477 H1435 0.932 . S
C1477 C1472 1.360 . S
C1477 C1476 1.366 . S
C1478 C1452 1.490 . S
C1478 C1479 1.380 . S
C1478 C1483 1.386 . S
C1479 H1436 0.930 . S
C1479 C1478 1.380 . S
C1479 C1480 1.381 . S
C1480 H1437 0.929 . S
C1480 C1479 1.381 . S
C1480 C1481 1.371 . S
C1481 C1480 1.371 . S
C1481 C1482 1.380 . S
C1482 H1438 0.931 . S
C1482 C1481 1.380 . S
C1482 C1483 1.387 . S
C1483 H1439 0.930 . S
C1483 C1478 1.386 . S
C1483 C1482 1.387 . S
C1484 C1453 1.519 . S
C1484 C1485 1.377 . S
C1484 C1489 1.361 . S
C1485 H1440 0.929 . S
C1485 C1484 1.377 . S
C1485 C1486 1.386 . S
C1486 H1441 0.931 . S
C1486 C1485 1.386 . S
C1486 C1487 1.363 . S
C1487 C1486 1.363 . S
C1487 C1488 1.385 . S
C1488 H1442 0.930 . S
C1488 C1487 1.385 . S
C1488 C1489 1.396 . S
C1489 H1443 0.929 . S
C1489 C1484 1.361 . S
C1489 C1488 1.396 . S
C1490 O1444 1.300 . S
C1490 O1445 1.209 . S
C1490 C1463 1.486 . S
C1491 O1446 1.199 . S
C1491 O1447 1.297 . S
C1491 C1475 1.476 . S
H1492 O1518 0.856 . S
H1493 O1521 0.854 . S
H1494 C1529 0.930 . S
H1495 C1530 0.930 . S
H1496 C1532 0.930 . S
H1497 C1533 0.930 . S
H1498 C1535 0.931 . S
H1499 C1536 0.930 . S
H1500 C1538 0.930 . S
H1501 C1539 0.929 . S
H1502 C1541 0.930 . S
H1503 C1542 0.931 . S
H1504 C1544 0.930 . S
H1505 C1545 0.929 . S
H1506 C1547 0.931 . S
H1507 C1548 0.930 . S
H1508 C1550 0.930 . S
H1509 C1551 0.932 . S
H1510 C1553 0.930 . S
H1511 C1554 0.929 . S
H1512 C1556 0.931 . S
H1513 C1557 0.930 . S
H1514 C1559 0.929 . S
H1515 C1560 0.931 . S
H1516 C1562 0.930 . S
H1517 C1563 0.929 . S
O1518 H1492 0.856 . S
O1518 C1564 1.300 . S
O1519 C1564 1.209 . S
O1520 C1565 1.199 . S
O1521 H1493 0.854 . S
O1521 C1565 1.297 . S
C1522 C1523 1.404 . S
C1522 C1527 1.397 . S
C1522 C1528 1.492 . S
C1523 C1522 1.404 . S
C1523 C1524 1.396 . S
C1523 C1534 1.492 . S
C1524 C1523 1.396 . S
C1524 C1525 1.397 . S
C1524 C1540 1.509 . S
C1525 C1524 1.397 . S
C1525 C1526 1.412 . S
C1525 C1546 1.485 . S
C1526 C1525 1.412 . S
C1526 C1527 1.388 . S
C1526 C1552 1.490 . S
C1527 C1522 1.397 . S
C1527 C1526 1.388 . S
C1527 C1558 1.519 . S
C1528 C1522 1.492 . S
C1528 C1529 1.363 . S
C1528 C1533 1.390 . S
C1529 H1494 0.930 . S
C1529 C1528 1.363 . S
C1529 C1530 1.372 . S
C1530 H1495 0.930 . S
C1530 C1529 1.372 . S
C1530 C1531 1.383 . S
C1531 C1530 1.383 . S
C1531 C1532 1.395 . S
C1532 H1496 0.930 . S
C1532 C1531 1.395 . S
C1532 C1533 1.362 . S
C1533 H1497 0.930 . S
C1533 C1528 1.390 . S
C1533 C1532 1.362 . S
C1534 C1523 1.492 . S
C1534 C1535 1.377 . S
C1534 C1539 1.397 . S
C1535 H1498 0.931 . S
C1535 C1534 1.377 . S
C1535 C1536 1.376 . S
C1536 H1499 0.930 . S
C1536 C1535 1.376 . S
C1536 C1537 1.376 . S
C1537 C1536 1.376 . S
C1537 C1538 1.378 . S
C1537 C1564 1.486 . S
C1538 H1500 0.930 . S
C1538 C1537 1.378 . S
C1538 C1539 1.376 . S
C1539 H1501 0.929 . S
C1539 C1534 1.397 . S
C1539 C1538 1.376 . S
C1540 C1524 1.509 . S
C1540 C1541 1.391 . S
C1540 C1545 1.386 . S
C1541 H1502 0.930 . S
C1541 C1540 1.391 . S
C1541 C1542 1.375 . S
C1542 H1503 0.931 . S
C1542 C1541 1.375 . S
C1542 C1543 1.375 . S
C1543 C1542 1.375 . S
C1543 C1544 1.361 . S
C1544 H1504 0.930 . S
C1544 C1543 1.361 . S
C1544 C1545 1.399 . S
C1545 H1505 0.929 . S
C1545 C1540 1.386 . S
C1545 C1544 1.399 . S
C1546 C1525 1.485 . S
C1546 C1547 1.394 . S
C1546 C1551 1.360 . S
C1547 H1506 0.931 . S
C1547 C1546 1.394 . S
C1547 C1548 1.372 . S
C1548 H1507 0.930 . S
C1548 C1547 1.372 . S
C1548 C1549 1.397 . S
C1549 C1548 1.397 . S
C1549 C1550 1.390 . S
C1549 C1565 1.476 . S
C1550 H1508 0.930 . S
C1550 C1549 1.390 . S
C1550 C1551 1.366 . S
C1551 H1509 0.932 . S
C1551 C1546 1.360 . S
C1551 C1550 1.366 . S
C1552 C1526 1.490 . S
C1552 C1553 1.380 . S
C1552 C1557 1.386 . S
C1553 H1510 0.930 . S
C1553 C1552 1.380 . S
C1553 C1554 1.381 . S
C1554 H1511 0.929 . S
C1554 C1553 1.381 . S
C1554 C1555 1.371 . S
C1555 C1554 1.371 . S
C1555 C1556 1.380 . S
C1556 H1512 0.931 . S
C1556 C1555 1.380 . S
C1556 C1557 1.387 . S
C1557 H1513 0.930 . S
C1557 C1552 1.386 . S
C1557 C1556 1.387 . S
C1558 C1527 1.519 . S
C1558 C1559 1.377 . S
C1558 C1563 1.361 . S
C1559 H1514 0.929 . S
C1559 C1558 1.377 . S
C1559 C1560 1.386 . S
C1560 H1515 0.931 . S
C1560 C1559 1.386 . S
C1560 C1561 1.363 . S
C1561 C1560 1.363 . S
C1561 C1562 1.385 . S
C1562 H1516 0.930 . S
C1562 C1561 1.385 . S
C1562 C1563 1.396 . S
C1563 H1517 0.929 . S
C1563 C1558 1.361 . S
C1563 C1562 1.396 . S
C1564 O1518 1.300 . S
C1564 O1519 1.209 . S
C1564 C1537 1.486 . S
C1565 O1520 1.199 . S
C1565 O1521 1.297 . S
C1565 C1549 1.476 . S
H1566 C1584 0.958 1_455 S
H1567 C1586 0.951 . S
H1568 C1588 0.950 . S
H1569 C1589 0.950 . S
H1570 C1591 0.950 . S
H1571 C1594 0.950 . S
H1572 C1595 0.950 . S
H1573 C1597 0.950 . S
H1574 C1598 0.950 . S
H1575 C1599 0.951 . S
H1576 C1601 0.951 . S
H1577 C1603 0.950 . S
H1578 C1604 0.950 . S
H1579 C1606 0.950 . S
H1580 C1609 0.950 . S
H1581 C1610 0.950 . S
H1582 C1612 0.950 . S
H1583 C1613 0.950 . S
C1584 H1566 0.958 1_655 S
C1584 C1585 1.369 . S
C1584 C1586 1.386 . S
C1585 C1584 1.369 . S
C1585 C1589 1.384 . S
C1586 H1567 0.951 . S
C1586 C1584 1.386 . S
C1586 C1587 1.366 . S
C1587 C1586 1.366 . S
C1587 C1588 1.414 . S
C1587 C1590 1.499 . S
C1588 H1568 0.950 . S
C1588 C1587 1.414 . S
C1588 C1589 1.374 . S
C1589 H1569 0.950 . S
C1589 C1585 1.384 . S
C1589 C1588 1.374 . S
C1590 C1587 1.499 . S
C1590 C1591 1.373 . S
C1590 C1592 1.389 1_655 S
C1591 H1570 0.950 . S
C1591 C1590 1.373 . S
C1591 C1607 1.377 . S
C1592 C1590 1.389 1_455 S
C1592 C1593 1.524 . S
C1592 C1606 1.377 . S
C1593 C1592 1.524 . S
C1593 C1594 1.397 . S
C1593 C1598 1.363 . S
C1594 H1571 0.950 . S
C1594 C1593 1.397 . S
C1594 C1595 1.334 . S
C1595 H1572 0.950 . S
C1595 C1594 1.334 . S
C1595 C1596 1.287 . S
C1596 C1595 1.287 . S
C1596 C1597 1.524 . S
C1596 H1615 0.913 . S
C1597 H1573 0.950 . S
C1597 C1596 1.524 . S
C1597 C1598 1.415 . S
C1598 H1574 0.950 . S
C1598 C1593 1.363 . S
C1598 C1597 1.415 . S
C1599 H1575 0.951 . S
C1599 C1600 1.366 . S
C1599 C1601 1.388 . S
C1600 C1599 1.366 . S
C1600 C1604 1.385 . S
C1601 H1576 0.951 . S
C1601 C1599 1.388 . S
C1601 C1602 1.366 . S
C1602 C1601 1.366 . S
C1602 C1603 1.414 . S
C1602 C1605 1.499 . S
C1603 H1577 0.950 . S
C1603 C1602 1.414 . S
C1603 C1604 1.374 . S
C1604 H1578 0.950 . S
C1604 C1600 1.385 . S
C1604 C1603 1.374 . S
C1605 C1602 1.499 . S
C1605 C1606 1.373 1_655 S
C1605 C1607 1.389 . S
C1606 H1579 0.950 . S
C1606 C1592 1.377 . S
C1606 C1605 1.373 1_455 S
C1607 C1591 1.377 . S
C1607 C1605 1.389 . S
C1607 C1608 1.524 . S
C1608 C1607 1.524 . S
C1608 C1609 1.397 . S
C1608 C1613 1.363 . S
C1609 H1580 0.950 . S
C1609 C1608 1.397 . S
C1609 C1610 1.334 . S
C1610 H1581 0.950 . S
C1610 C1609 1.334 . S
C1610 C1611 1.287 . S
C1611 C1610 1.287 . S
C1611 C1612 1.524 . S
C1611 H1614 0.999 . S
C1612 H1582 0.950 . S
C1612 C1611 1.524 . S
C1612 C1613 1.415 . S
C1613 H1583 0.950 . S
C1613 C1608 1.363 . S
C1613 C1612 1.415 . S
H1614 C1611 0.999 . S
H1615 C1596 0.913 . S
H1616 C1634 0.951 . S
H1617 C1636 0.951 . S
H1618 C1638 0.950 . S
H1619 C1639 0.950 . S
H1620 C1641 0.950 . S
H1621 C1644 0.950 . S
H1622 C1645 0.950 . S
H1623 C1647 0.950 . S
H1624 C1648 0.950 . S
H1625 C1649 0.951 . S
H1626 C1651 0.951 . S
H1627 C1653 0.950 . S
H1628 C1654 0.950 . S
H1629 C1656 0.950 . S
H1630 C1659 0.950 . S
H1631 C1660 0.950 . S
H1632 C1662 0.950 . S
H1633 C1663 0.950 . S
C1634 H1616 0.951 . S
C1634 C1635 1.366 . S
C1634 C1636 1.388 . S
C1635 C1634 1.366 . S
C1635 C1639 1.385 . S
C1636 H1617 0.951 . S
C1636 C1634 1.388 . S
C1636 C1637 1.366 . S
C1637 C1636 1.366 . S
C1637 C1638 1.414 . S
C1637 C1640 1.499 . S
C1638 H1618 0.950 . S
C1638 C1637 1.414 . S
C1638 C1639 1.374 . S
C1639 H1619 0.950 . S
C1639 C1635 1.385 . S
C1639 C1638 1.374 . S
C1640 C1637 1.499 . S
C1640 C1641 1.373 . S
C1640 C1642 1.389 . S
C1641 H1620 0.950 . S
C1641 C1640 1.373 . S
C1641 C1657 1.377 . S
C1642 C1640 1.389 . S
C1642 C1643 1.524 . S
C1642 C1656 1.377 . S
C1643 C1642 1.524 . S
C1643 C1644 1.397 . S
C1643 C1648 1.363 . S
C1644 H1621 0.950 . S
C1644 C1643 1.397 . S
C1644 C1645 1.334 . S
C1645 H1622 0.950 . S
C1645 C1644 1.334 . S
C1645 C1646 1.287 . S
C1646 C1645 1.287 . S
C1646 C1647 1.524 . S
C1646 H1665 0.913 . S
C1647 H1623 0.950 . S
C1647 C1646 1.524 . S
C1647 C1648 1.415 . S
C1648 H1624 0.950 . S
C1648 C1643 1.363 . S
C1648 C1647 1.415 . S
C1649 H1625 0.951 . S
C1649 C1650 1.366 . S
C1649 C1651 1.388 . S
C1650 C1649 1.366 . S
C1650 C1654 1.385 . S
C1651 H1626 0.951 . S
C1651 C1649 1.388 . S
C1651 C1652 1.366 . S
C1652 C1651 1.366 . S
C1652 C1653 1.414 . S
C1652 C1655 1.499 . S
C1653 H1627 0.950 . S
C1653 C1652 1.414 . S
C1653 C1654 1.374 . S
C1654 H1628 0.950 . S
C1654 C1650 1.385 . S
C1654 C1653 1.374 . S
C1655 C1652 1.499 . S
C1655 C1656 1.373 . S
C1655 C1657 1.389 . S
C1656 H1629 0.950 . S
C1656 C1642 1.377 . S
C1656 C1655 1.373 . S
C1657 C1641 1.377 . S
C1657 C1655 1.389 . S
C1657 C1658 1.524 . S
C1658 C1657 1.524 . S
C1658 C1659 1.397 . S
C1658 C1663 1.363 . S
C1659 H1630 0.950 . S
C1659 C1658 1.397 . S
C1659 C1660 1.334 . S
C1660 H1631 0.950 . S
C1660 C1659 1.334 . S
C1660 C1661 1.287 . S
C1661 C1660 1.287 . S
C1661 C1662 1.524 . S
C1661 H1664 0.999 . S
C1662 H1632 0.950 . S
C1662 C1661 1.524 . S
C1662 C1663 1.415 . S
C1663 H1633 0.950 . S
C1663 C1658 1.363 . S
C1663 C1662 1.415 . S
H1664 C1661 0.999 . S
H1665 C1646 0.913 . S
H1666 C1684 0.951 . S
H1667 C1686 0.951 . S
H1668 C1688 0.950 . S
H1669 C1689 0.950 . S
H1670 C1691 0.950 . S
H1671 C1694 0.950 . S
H1672 C1695 0.950 . S
H1673 C1697 0.950 . S
H1674 C1698 0.950 . S
H1675 C1699 0.925 1_565 S
H1676 C1701 0.951 1_565 S
H1677 C1703 0.950 . S
H1678 C1704 0.950 . S
H1679 C1706 0.950 . S
H1680 C1709 0.950 . S
H1681 C1710 0.950 . S
H1682 C1712 0.950 . S
H1683 C1713 0.950 . S
C1684 H1666 0.951 . S
C1684 C1685 1.366 . S
C1684 C1686 1.388 . S
C1685 C1684 1.366 . S
C1685 C1689 1.385 1_545 S
C1686 H1667 0.951 . S
C1686 C1684 1.388 . S
C1686 C1687 1.366 . S
C1687 C1686 1.366 . S
C1687 C1688 1.414 1_545 S
C1687 C1690 1.499 . S
C1688 H1668 0.950 . S
C1688 C1687 1.414 1_565 S
C1688 C1689 1.374 . S
C1689 H1669 0.950 . S
C1689 C1685 1.385 1_565 S
C1689 C1688 1.374 . S
C1690 C1687 1.499 . S
C1690 C1691 1.373 1_545 S
C1690 C1692 1.389 . S
C1691 H1670 0.950 . S
C1691 C1690 1.373 1_565 S
C1691 C1707 1.377 . S
C1692 C1690 1.389 . S
C1692 C1693 1.524 . S
C1692 C1706 1.377 . S
C1693 C1692 1.524 . S
C1693 C1694 1.397 . S
C1693 C1698 1.363 . S
C1694 H1671 0.950 . S
C1694 C1693 1.397 . S
C1694 C1695 1.334 . S
C1695 H1672 0.950 . S
C1695 C1694 1.334 . S
C1695 C1696 1.287 . S
C1696 C1695 1.287 . S
C1696 C1697 1.524 . S
C1696 H1715 0.913 . S
C1697 H1673 0.950 . S
C1697 C1696 1.524 . S
C1697 C1698 1.415 . S
C1698 H1674 0.950 . S
C1698 C1693 1.363 . S
C1698 C1697 1.415 . S
C1699 H1675 0.925 1_545 S
C1699 C1700 1.366 . S
C1699 C1701 1.388 . S
C1700 C1699 1.366 . S
C1700 C1704 1.385 . S
C1701 H1676 0.951 1_545 S
C1701 C1699 1.388 . S
C1701 C1702 1.366 . S
C1702 C1701 1.366 . S
C1702 C1703 1.414 . S
C1702 C1705 1.499 . S
C1703 H1677 0.950 . S
C1703 C1702 1.414 . S
C1703 C1704 1.374 . S
C1704 H1678 0.950 . S
C1704 C1700 1.385 . S
C1704 C1703 1.374 . S
C1705 C1702 1.499 . S
C1705 C1706 1.373 . S
C1705 C1707 1.389 1_545 S
C1706 H1679 0.950 . S
C1706 C1692 1.377 . S
C1706 C1705 1.373 . S
C1707 C1691 1.377 . S
C1707 C1705 1.389 1_565 S
C1707 C1708 1.524 . S
C1708 C1707 1.524 . S
C1708 C1709 1.397 . S
C1708 C1713 1.363 . S
C1709 H1680 0.950 . S
C1709 C1708 1.397 . S
C1709 C1710 1.334 . S
C1710 H1681 0.950 . S
C1710 C1709 1.334 . S
C1710 C1711 1.287 . S
C1711 C1710 1.287 . S
C1711 C1712 1.524 . S
C1711 H1714 0.999 . S
C1712 H1682 0.950 . S
C1712 C1711 1.524 . S
C1712 C1713 1.415 . S
C1713 H1683 0.950 . S
C1713 C1708 1.363 . S
C1713 C1712 1.415 . S
H1714 C1711 0.999 . S
H1715 C1696 0.913 . S
H1716 C1734 0.951 . S
H1717 C1736 0.951 . S
H1718 C1738 0.950 . S
H1719 C1739 0.950 . S
H1720 C1741 0.950 . S
H1721 C1744 0.950 . S
H1722 C1745 0.950 . S
H1723 C1747 0.950 . S
H1724 C1748 0.950 . S
H1725 C1749 0.951 . S
H1726 C1751 0.951 . S
H1727 C1753 0.950 . S
H1728 C1754 0.950 . S
H1729 C1756 0.950 . S
H1730 C1759 0.950 . S
H1731 C1760 0.950 . S
H1732 C1762 0.950 . S
H1733 C1763 0.950 . S
C1734 H1716 0.951 . S
C1734 C1735 1.366 . S
C1734 C1736 1.388 . S
C1735 C1734 1.366 . S
C1735 C1739 1.385 . S
C1736 H1717 0.951 . S
C1736 C1734 1.388 . S
C1736 C1737 1.366 . S
C1737 C1736 1.366 . S
C1737 C1738 1.414 . S
C1737 C1740 1.499 . S
C1738 H1718 0.950 . S
C1738 C1737 1.414 . S
C1738 C1739 1.374 . S
C1739 H1719 0.950 . S
C1739 C1735 1.385 . S
C1739 C1738 1.374 . S
C1740 C1737 1.499 . S
C1740 C1741 1.373 1_565 S
C1740 C1742 1.389 . S
C1741 H1720 0.950 . S
C1741 C1740 1.373 1_545 S
C1741 C1757 1.377 . S
C1742 C1740 1.389 . S
C1742 C1743 1.524 . S
C1742 C1756 1.377 . S
C1743 C1742 1.524 . S
C1743 C1744 1.397 . S
C1743 C1748 1.363 . S
C1744 H1721 0.950 . S
C1744 C1743 1.397 . S
C1744 C1745 1.334 . S
C1745 H1722 0.950 . S
C1745 C1744 1.334 . S
C1745 C1746 1.287 . S
C1746 C1745 1.287 . S
C1746 C1747 1.524 . S
C1746 H1765 0.913 . S
C1747 H1723 0.950 . S
C1747 C1746 1.524 . S
C1747 C1748 1.415 . S
C1748 H1724 0.950 . S
C1748 C1743 1.363 . S
C1748 C1747 1.415 . S
C1749 H1725 0.951 . S
C1749 C1750 1.366 . S
C1749 C1751 1.388 . S
C1750 C1749 1.366 . S
C1750 C1754 1.385 . S
C1751 H1726 0.951 . S
C1751 C1749 1.388 . S
C1751 C1752 1.366 . S
C1752 C1751 1.366 . S
C1752 C1753 1.414 . S
C1752 C1755 1.499 . S
C1753 H1727 0.950 . S
C1753 C1752 1.414 . S
C1753 C1754 1.374 . S
C1754 H1728 0.950 . S
C1754 C1750 1.385 . S
C1754 C1753 1.374 . S
C1755 C1752 1.499 . S
C1755 C1756 1.373 . S
C1755 C1757 1.389 1_565 S
C1756 H1729 0.950 . S
C1756 C1742 1.377 . S
C1756 C1755 1.373 . S
C1757 C1741 1.377 . S
C1757 C1755 1.389 1_545 S
C1757 C1758 1.524 . S
C1758 C1757 1.524 . S
C1758 C1759 1.397 . S
C1758 C1763 1.363 . S
C1759 H1730 0.950 . S
C1759 C1758 1.397 . S
C1759 C1760 1.334 . S
C1760 H1731 0.950 . S
C1760 C1759 1.334 . S
C1760 C1761 1.287 . S
C1761 C1760 1.287 . S
C1761 C1762 1.524 . S
C1761 H1764 0.999 . S
C1762 H1732 0.950 . S
C1762 C1761 1.524 . S
C1762 C1763 1.415 . S
C1763 H1733 0.950 . S
C1763 C1758 1.363 . S
C1763 C1762 1.415 . S
H1764 C1761 0.999 . S
H1765 C1746 0.913 . S
H1766 C1784 0.951 . S
H1767 C1786 0.951 . S
H1768 C1788 0.950 . S
H1769 C1789 0.950 . S
H1770 C1791 0.950 . S
H1771 C1794 0.950 . S
H1772 C1795 0.950 . S
H1773 C1797 0.950 . S
H1774 C1798 0.950 . S
H1775 C1799 0.951 . S
H1776 C1801 0.951 . S
H1777 C1803 0.950 . S
H1778 C1804 0.950 . S
H1779 C1806 0.950 . S
H1780 C1809 0.950 1_455 S
H1781 C1810 0.950 . S
H1782 C1812 0.950 . S
H1783 C1813 0.950 . S
C1784 H1766 0.951 . S
C1784 C1785 1.366 . S
C1784 C1786 1.388 . S
C1785 C1784 1.366 . S
C1785 C1789 1.385 1_455 S
C1786 H1767 0.951 . S
C1786 C1784 1.388 . S
C1786 C1787 1.366 . S
C1787 C1786 1.366 . S
C1787 C1788 1.414 1_455 S
C1787 C1790 1.499 . S
C1788 H1768 0.950 . S
C1788 C1787 1.414 1_655 S
C1788 C1789 1.374 . S
C1789 H1769 0.950 . S
C1789 C1785 1.385 1_655 S
C1789 C1788 1.374 . S
C1790 C1787 1.499 . S
C1790 C1791 1.373 1_455 S
C1790 C1792 1.389 . S
C1791 H1770 0.950 . S
C1791 C1790 1.373 1_655 S
C1791 C1807 1.377 . S
C1792 C1790 1.389 . S
C1792 C1793 1.524 . S
C1792 C1806 1.377 . S
C1793 C1792 1.524 . S
C1793 C1794 1.397 . S
C1793 C1798 1.363 . S
C1794 H1771 0.950 . S
C1794 C1793 1.397 . S
C1794 C1795 1.334 . S
C1795 H1772 0.950 . S
C1795 C1794 1.334 . S
C1795 C1796 1.287 . S
C1796 C1795 1.287 . S
C1796 C1797 1.524 . S
C1796 H1815 0.913 . S
C1797 H1773 0.950 . S
C1797 C1796 1.524 . S
C1797 C1798 1.415 . S
C1798 H1774 0.950 . S
C1798 C1793 1.363 . S
C1798 C1797 1.415 . S
C1799 H1775 0.951 . S
C1799 C1800 1.366 1_655 S
C1799 C1801 1.388 . S
C1800 C1799 1.366 1_455 S
C1800 C1804 1.385 . S
C1801 H1776 0.951 . S
C1801 C1799 1.388 . S
C1801 C1802 1.366 1_655 S
C1802 C1801 1.366 1_455 S
C1802 C1803 1.414 . S
C1802 C1805 1.499 . S
C1803 H1777 0.950 . S
C1803 C1802 1.414 . S
C1803 C1804 1.374 . S
C1804 H1778 0.950 . S
C1804 C1800 1.385 . S
C1804 C1803 1.374 . S
C1805 C1802 1.499 . S
C1805 C1806 1.373 . S
C1805 C1807 1.389 1_455 S
C1806 H1779 0.950 . S
C1806 C1792 1.377 . S
C1806 C1805 1.373 . S
C1807 C1791 1.377 . S
C1807 C1805 1.389 1_655 S
C1807 C1808 1.524 . S
C1808 C1807 1.524 . S
C1808 C1809 1.397 . S
C1808 C1813 1.363 . S
C1809 H1780 0.950 1_655 S
C1809 C1808 1.397 . S
C1809 C1810 1.334 . S
C1810 H1781 0.950 . S
C1810 C1809 1.334 . S
C1810 C1811 1.287 . S
C1811 C1810 1.287 . S
C1811 C1812 1.524 . S
C1811 H1814 0.999 . S
C1812 H1782 0.950 . S
C1812 C1811 1.524 . S
C1812 C1813 1.415 . S
C1813 H1783 0.950 . S
C1813 C1808 1.363 . S
C1813 C1812 1.415 . S
H1814 C1811 0.999 . S
H1815 C1796 0.913 . S
H1816 C1834 0.951 1_554 S
H1817 C1836 0.951 . S
H1818 C1838 0.950 . S
H1819 C1839 0.950 . S
H1820 C1841 0.950 . S
H1821 C1844 0.950 . S
H1822 C1845 0.950 1_554 S
H1823 C1847 0.950 . S
H1824 C1848 0.950 . S
H1825 C1849 0.951 . S
H1826 C1851 0.951 . S
H1827 C1853 0.950 . S
H1828 C1854 0.950 . S
H1829 C1856 0.950 . S
H1830 C1859 0.950 . S
H1831 C1860 0.950 . S
H1832 C1862 0.950 . S
H1833 C1863 0.950 . S
C1834 H1816 0.951 1_556 S
C1834 C1835 1.336 1_556 S
C1834 C1836 1.420 . S
C1835 C1834 1.336 1_554 S
C1835 C1839 1.385 . S
C1836 H1817 0.951 . S
C1836 C1834 1.420 . S
C1836 C1837 1.366 . S
C1837 C1836 1.366 . S
C1837 C1838 1.414 . S
C1837 C1840 1.499 . S
C1838 H1818 0.950 . S
C1838 C1837 1.414 . S
C1838 C1839 1.374 1_556 S
C1839 H1819 0.950 . S
C1839 C1835 1.385 . S
C1839 C1838 1.374 1_554 S
C1840 C1837 1.499 . S
C1840 C1841 1.373 . S
C1840 C1842 1.389 . S
C1841 H1820 0.950 . S
C1841 C1840 1.373 . S
C1841 C1857 1.377 . S
C1842 C1840 1.389 . S
C1842 C1843 1.524 . S
C1842 C1856 1.377 . S
C1843 C1842 1.524 . S
C1843 C1844 1.397 . S
C1843 C1848 1.363 . S
C1844 H1821 0.950 . S
C1844 C1843 1.397 . S
C1844 C1845 1.334 . S
C1845 H1822 0.950 1_556 S
C1845 C1844 1.334 . S
C1845 C1846 1.287 . S
C1846 C1845 1.287 . S
C1846 C1847 1.524 . S
C1846 H1865 0.913 . S
C1847 H1823 0.950 . S
C1847 C1846 1.524 . S
C1847 C1848 1.415 . S
C1848 H1824 0.950 . S
C1848 C1843 1.363 . S
C1848 C1847 1.415 . S
C1849 H1825 0.951 . S
C1849 C1850 1.366 . S
C1849 C1851 1.388 . S
C1850 C1849 1.366 . S
C1850 C1854 1.385 . S
C1851 H1826 0.951 . S
C1851 C1849 1.388 . S
C1851 C1852 1.366 . S
C1852 C1851 1.366 . S
C1852 C1853 1.414 . S
C1852 C1855 1.499 . S
C1853 H1827 0.950 . S
C1853 C1852 1.414 . S
C1853 C1854 1.374 . S
C1854 H1828 0.950 . S
C1854 C1850 1.385 . S
C1854 C1853 1.374 . S
C1855 C1852 1.499 . S
C1855 C1856 1.373 . S
C1855 C1857 1.389 . S
C1856 H1829 0.950 . S
C1856 C1842 1.377 . S
C1856 C1855 1.373 . S
C1857 C1841 1.377 . S
C1857 C1855 1.389 . S
C1857 C1858 1.524 . S
C1858 C1857 1.524 . S
C1858 C1859 1.397 . S
C1858 C1863 1.363 . S
C1859 H1830 0.950 . S
C1859 C1858 1.397 . S
C1859 C1860 1.334 . S
C1860 H1831 0.950 . S
C1860 C1859 1.334 . S
C1860 C1861 1.287 . S
C1861 C1860 1.287 . S
C1861 C1862 1.524 . S
C1861 H1864 0.999 . S
C1862 H1832 0.950 . S
C1862 C1861 1.524 . S
C1862 C1863 1.415 . S
C1863 H1833 0.950 . S
C1863 C1858 1.363 . S
C1863 C1862 1.415 . S
H1864 C1861 0.999 . S
H1865 C1846 0.913 . S
H1866 C1884 0.956 1_655 S
H1867 C1886 0.971 1_655 S
H1868 C1888 0.950 . S
H1869 C1889 0.950 . S
H1870 C1891 0.950 . S
H1871 C1894 0.950 . S
H1872 C1895 0.950 . S
H1873 C1897 0.970 . S
H1874 C1898 0.950 . S
H1875 C1899 0.951 . S
H1876 C1901 0.951 . S
H1877 C1903 0.947 . S
H1878 C1904 0.929 . S
H1879 C1906 0.950 . S
H1880 C1909 0.950 . S
H1881 C1910 0.950 . S
H1882 C1912 0.950 . S
H1883 C1913 0.950 . S
C1884 H1866 0.956 1_455 S
C1884 C1885 1.370 . S
C1884 C1886 1.376 1_554 S
C1885 C1884 1.370 . S
C1885 C1889 1.342 1_554 S
C1886 H1867 0.971 1_455 S
C1886 C1884 1.376 1_556 S
C1886 C1887 1.365 . S
C1887 C1886 1.365 . S
C1887 C1888 1.414 . S
C1887 C1890 1.499 . S
C1888 H1868 0.950 . S
C1888 C1887 1.414 . S
C1888 C1889 1.374 . S
C1889 H1869 0.950 . S
C1889 C1885 1.342 1_556 S
C1889 C1888 1.374 . S
C1890 C1887 1.499 . S
C1890 C1891 1.373 1_455 S
C1890 C1892 1.389 . S
C1891 H1870 0.950 . S
C1891 C1890 1.373 1_655 S
C1891 C1907 1.377 . S
C1892 C1890 1.389 . S
C1892 C1893 1.524 . S
C1892 C1906 1.377 . S
C1893 C1892 1.524 . S
C1893 C1894 1.397 . S
C1893 C1898 1.363 . S
C1894 H1871 0.950 . S
C1894 C1893 1.397 . S
C1894 C1895 1.334 . S
C1895 H1872 0.950 . S
C1895 C1894 1.334 . S
C1895 C1896 1.287 . S
C1896 C1895 1.287 . S
C1896 C1897 1.524 . S
C1896 H1915 0.913 1_556 S
C1897 H1873 0.970 . S
C1897 C1896 1.524 . S
C1897 C1898 1.415 . S
C1898 H1874 0.950 . S
C1898 C1893 1.363 . S
C1898 C1897 1.415 . S
C1899 H1875 0.951 . S
C1899 C1900 1.349 . S
C1899 C1901 1.388 . S
C1900 C1899 1.349 . S
C1900 C1904 1.393 1_455 S
C1901 H1876 0.951 . S
C1901 C1899 1.388 . S
C1901 C1902 1.366 1_455 S
C1902 C1901 1.366 1_655 S
C1902 C1903 1.441 . S
C1902 C1905 1.498 . S
C1903 H1877 0.947 . S
C1903 C1902 1.441 . S
C1903 C1904 1.368 . S
C1904 H1878 0.929 . S
C1904 C1900 1.393 1_655 S
C1904 C1903 1.368 . S
C1905 C1902 1.498 . S
C1905 C1906 1.366 1_655 S
C1905 C1907 1.401 . S
C1906 H1879 0.950 . S
C1906 C1892 1.377 . S
C1906 C1905 1.366 1_455 S
C1907 C1891 1.377 . S
C1907 C1905 1.401 . S
C1907 C1908 1.524 . S
C1908 C1907 1.524 . S
C1908 C1909 1.397 . S
C1908 C1913 1.363 . S
C1909 H1880 0.950 . S
C1909 C1908 1.397 . S
C1909 C1910 1.334 . S
C1910 H1881 0.950 . S
C1910 C1909 1.334 . S
C1910 C1911 1.287 . S
C1911 C1910 1.287 . S
C1911 C1912 1.524 . S
C1911 H1914 0.999 . S
C1912 H1882 0.950 . S
C1912 C1911 1.524 . S
C1912 C1913 1.415 . S
C1913 H1883 0.950 . S
C1913 C1908 1.363 . S
C1913 C1912 1.415 . S
H1914 C1911 0.999 . S
H1915 C1896 0.913 1_554 S
H1916 C1934 0.951 . S
H1917 C1936 0.951 . S
H1918 C1938 0.950 . S
H1919 C1939 0.950 . S
H1920 C1941 0.950 . S
H1921 C1944 0.950 . S
H1922 C1945 0.950 . S
H1923 C1947 0.950 . S
H1924 C1948 0.950 . S
H1925 C1949 0.951 . S
H1926 C1951 0.951 . S
H1927 C1953 0.950 . S
H1928 C1954 0.950 . S
H1929 C1956 0.950 . S
H1930 C1959 0.950 . S
H1931 C1960 0.950 . S
H1932 C1962 0.950 . S
H1933 C1963 0.950 . S
C1934 H1916 0.951 . S
C1934 C1935 1.366 . S
C1934 C1936 1.388 . S
C1935 C1934 1.366 . S
C1935 C1939 1.385 . S
C1936 H1917 0.951 . S
C1936 C1934 1.388 . S
C1936 C1937 1.366 . S
C1937 C1936 1.366 . S
C1937 C1938 1.414 . S
C1937 C1940 1.499 . S
C1938 H1918 0.950 . S
C1938 C1937 1.414 . S
C1938 C1939 1.374 . S
C1939 H1919 0.950 . S
C1939 C1935 1.385 . S
C1939 C1938 1.374 . S
C1940 C1937 1.499 . S
C1940 C1941 1.373 . S
C1940 C1942 1.389 . S
C1941 H1920 0.950 . S
C1941 C1940 1.373 . S
C1941 C1957 1.377 . S
C1942 C1940 1.389 . S
C1942 C1943 1.524 . S
C1942 C1956 1.377 . S
C1943 C1942 1.524 . S
C1943 C1944 1.397 . S
C1943 C1948 1.363 . S
C1944 H1921 0.950 . S
C1944 C1943 1.397 . S
C1944 C1945 1.334 . S
C1945 H1922 0.950 . S
C1945 C1944 1.334 . S
C1945 C1946 1.287 . S
C1946 C1945 1.287 . S
C1946 C1947 1.524 . S
C1946 H1965 0.913 . S
C1947 H1923 0.950 . S
C1947 C1946 1.524 . S
C1947 C1948 1.415 . S
C1948 H1924 0.950 . S
C1948 C1943 1.363 . S
C1948 C1947 1.415 . S
C1949 H1925 0.951 . S
C1949 C1950 1.366 . S
C1949 C1951 1.388 . S
C1950 C1949 1.366 . S
C1950 C1954 1.385 . S
C1951 H1926 0.951 . S
C1951 C1949 1.388 . S
C1951 C1952 1.366 . S
C1952 C1951 1.366 . S
C1952 C1953 1.414 . S
C1952 C1955 1.499 . S
C1953 H1927 0.950 . S
C1953 C1952 1.414 . S
C1953 C1954 1.374 . S
C1954 H1928 0.950 . S
C1954 C1950 1.385 . S
C1954 C1953 1.374 . S
C1955 C1952 1.499 . S
C1955 C1956 1.373 . S
C1955 C1957 1.389 . S
C1956 H1929 0.950 . S
C1956 C1942 1.377 . S
C1956 C1955 1.373 . S
C1957 C1941 1.377 . S
C1957 C1955 1.389 . S
C1957 C1958 1.524 . S
C1958 C1957 1.524 . S
C1958 C1959 1.397 . S
C1958 C1963 1.363 . S
C1959 H1930 0.950 . S
C1959 C1958 1.397 . S
C1959 C1960 1.334 . S
C1960 H1931 0.950 . S
C1960 C1959 1.334 . S
C1960 C1961 1.287 . S
C1961 C1960 1.287 . S
C1961 C1962 1.524 . S
C1961 H1964 0.999 . S
C1962 H1932 0.950 . S
C1962 C1961 1.524 . S
C1962 C1963 1.415 . S
C1963 H1933 0.950 . S
C1963 C1958 1.363 . S
C1963 C1962 1.415 . S
H1964 C1961 0.999 . S
H1965 C1946 0.913 . S
H1966 C1984 0.951 1_554 S
H1967 C1986 0.951 . S
H1968 C1988 0.950 . S
H1969 C1989 0.950 . S
H1970 C1991 0.950 . S
H1971 C1994 0.950 . S
H1972 C1995 0.950 . S
H1973 C1997 0.950 . S
H1974 C1998 0.950 . S
H1975 C1999 0.951 . S
H1976 C2001 0.951 . S
H1977 C2003 0.950 . S
H1978 C2004 0.950 . S
H1979 C2006 0.950 . S
H1980 C2009 0.950 . S
H1981 C2010 0.950 . S
H1982 C2012 0.950 . S
H1983 C2013 0.950 . S
C1984 H1966 0.951 1_556 S
C1984 C1985 1.366 . S
C1984 C1986 1.388 . S
C1985 C1984 1.366 . S
C1985 C1989 1.385 1_565 S
C1986 H1967 0.951 . S
C1986 C1984 1.388 . S
C1986 C1987 1.366 . S
C1987 C1986 1.366 . S
C1987 C1988 1.414 1_565 S
C1987 C1990 1.499 . S
C1988 H1968 0.950 . S
C1988 C1987 1.414 1_545 S
C1988 C1989 1.374 . S
C1989 H1969 0.950 . S
C1989 C1985 1.385 1_545 S
C1989 C1988 1.374 . S
C1990 C1987 1.499 . S
C1990 C1991 1.373 1_565 S
C1990 C1992 1.389 . S
C1991 H1970 0.950 . S
C1991 C1990 1.373 1_545 S
C1991 C2007 1.377 . S
C1992 C1990 1.389 . S
C1992 C1993 1.524 . S
C1992 C2006 1.377 . S
C1993 C1992 1.524 . S
C1993 C1994 1.397 . S
C1993 C1998 1.363 . S
C1994 H1971 0.950 . S
C1994 C1993 1.397 . S
C1994 C1995 1.334 . S
C1995 H1972 0.950 . S
C1995 C1994 1.334 . S
C1995 C1996 1.287 . S
C1996 C1995 1.287 . S
C1996 C1997 1.524 . S
C1996 H2015 0.913 . S
C1997 H1973 0.950 . S
C1997 C1996 1.524 . S
C1997 C1998 1.415 . S
C1998 H1974 0.950 . S
C1998 C1993 1.363 . S
C1998 C1997 1.415 . S
C1999 H1975 0.951 . S
C1999 C2000 1.360 . S
C1999 C2001 1.388 . S
C2000 C1999 1.360 . S
C2000 C2004 1.366 1_545 S
C2001 H1976 0.951 . S
C2001 C1999 1.388 . S
C2001 C2002 1.382 . S
C2002 C2001 1.382 . S
C2002 C2003 1.420 1_545 S
C2002 C2005 1.476 . S
C2003 H1977 0.950 . S
C2003 C2002 1.420 1_565 S
C2003 C2004 1.374 . S
C2004 H1978 0.950 . S
C2004 C2000 1.366 1_565 S
C2004 C2003 1.374 . S
C2005 C2002 1.476 . S
C2005 C2006 1.379 1_545 S
C2005 C2007 1.386 . S
C2006 H1979 0.950 . S
C2006 C1992 1.377 . S
C2006 C2005 1.379 1_565 S
C2007 C1991 1.377 . S
C2007 C2005 1.386 . S
C2007 C2008 1.524 . S
C2008 C2007 1.524 . S
C2008 C2009 1.397 . S
C2008 C2013 1.363 . S
C2009 H1980 0.950 . S
C2009 C2008 1.397 . S
C2009 C2010 1.334 . S
C2010 H1981 0.950 . S
C2010 C2009 1.334 . S
C2010 C2011 1.287 . S
C2011 C2010 1.287 . S
C2011 C2012 1.524 . S
C2011 H2014 0.999 . S
C2012 H1982 0.950 . S
C2012 C2011 1.524 . S
C2012 C2013 1.415 . S
C2013 H1983 0.950 . S
C2013 C2008 1.363 . S
C2013 C2012 1.415 . S
H2014 C2011 0.999 . S
H2015 C1996 0.913 . S
H2016 C2034 0.951 . S
H2017 C2036 0.951 . S
H2018 C2038 0.950 . S
H2019 C2039 0.950 . S
H2020 C2041 0.950 . S
H2021 C2044 0.950 1_545 S
H2022 C2045 0.969 . S
H2023 C2047 0.950 . S
H2024 C2048 0.950 . S
H2025 C2049 0.951 . S
H2026 C2051 0.951 . S
H2027 C2053 0.950 . S
H2028 C2054 0.950 . S
H2029 C2056 0.950 . S
H2030 C2059 0.950 1_565 S
H2031 C2060 0.950 . S
H2032 C2062 0.950 . S
H2033 C2063 0.950 . S
C2034 H2016 0.951 . S
C2034 C2035 1.366 1_565 S
C2034 C2036 1.388 . S
C2035 C2034 1.366 1_545 S
C2035 C2039 1.385 . S
C2036 H2017 0.951 . S
C2036 C2034 1.388 . S
C2036 C2037 1.366 1_565 S
C2037 C2036 1.366 1_545 S
C2037 C2038 1.414 . S
C2037 C2040 1.499 . S
C2038 H2018 0.950 . S
C2038 C2037 1.414 . S
C2038 C2039 1.374 . S
C2039 H2019 0.950 . S
C2039 C2035 1.385 . S
C2039 C2038 1.374 . S
C2040 C2037 1.499 . S
C2040 C2041 1.373 . S
C2040 C2042 1.389 1_545 S
C2041 H2020 0.950 . S
C2041 C2040 1.373 . S
C2041 C2057 1.377 . S
C2042 C2040 1.389 1_565 S
C2042 C2043 1.524 . S
C2042 C2056 1.377 . S
C2043 C2042 1.524 . S
C2043 C2044 1.397 . S
C2043 C2048 1.363 . S
C2044 H2021 0.950 1_565 S
C2044 C2043 1.397 . S
C2044 C2045 1.334 . S
C2045 H2022 0.969 . S
C2045 C2044 1.334 . S
C2045 C2046 1.287 . S
C2046 C2045 1.287 . S
C2046 C2047 1.524 . S
C2046 H2065 0.913 . S
C2047 H2023 0.950 . S
C2047 C2046 1.524 . S
C2047 C2048 1.415 . S
C2048 H2024 0.950 . S
C2048 C2043 1.363 . S
C2048 C2047 1.415 . S
C2049 H2025 0.951 . S
C2049 C2050 1.323 1_545 S
C2049 C2051 1.388 . S
C2050 C2049 1.323 1_565 S
C2050 C2054 1.448 . S
C2051 H2026 0.951 . S
C2051 C2049 1.388 . S
C2051 C2052 1.362 . S
C2052 C2051 1.362 . S
C2052 C2053 1.416 1_545 S
C2052 C2055 1.501 . S
C2053 H2027 0.950 . S
C2053 C2052 1.416 1_565 S
C2053 C2054 1.374 . S
C2054 H2028 0.950 . S
C2054 C2050 1.448 . S
C2054 C2053 1.374 . S
C2055 C2052 1.501 . S
C2055 C2056 1.372 1_545 S
C2055 C2057 1.389 . S
C2056 H2029 0.950 . S
C2056 C2042 1.377 . S
C2056 C2055 1.372 1_565 S
C2057 C2041 1.377 . S
C2057 C2055 1.389 . S
C2057 C2058 1.524 . S
C2058 C2057 1.524 . S
C2058 C2059 1.397 . S
C2058 C2063 1.363 . S
C2059 H2030 0.950 1_545 S
C2059 C2058 1.397 . S
C2059 C2060 1.334 . S
C2060 H2031 0.950 . S
C2060 C2059 1.334 . S
C2060 C2061 1.287 . S
C2061 C2060 1.287 . S
C2061 C2062 1.524 . S
C2061 H2064 0.999 . S
C2062 H2032 0.950 . S
C2062 C2061 1.524 . S
C2062 C2063 1.415 . S
C2063 H2033 0.950 . S
C2063 C2058 1.363 . S
C2063 C2062 1.415 . S
H2064 C2061 0.999 . S
H2065 C2046 0.913 . S
H2066 C2084 0.951 . S
H2067 C2086 0.951 . S
H2068 C2088 0.950 . S
H2069 C2089 0.950 . S
H2070 C2091 0.950 . S
H2071 C2094 0.950 . S
H2072 C2095 0.950 . S
H2073 C2097 0.950 . S
H2074 C2098 0.950 . S
H2075 C2099 0.951 . S
H2076 C2101 0.951 . S
H2077 C2103 0.950 . S
H2078 C2104 0.950 . S
H2079 C2106 0.950 . S
H2080 C2109 0.950 . S
H2081 C2110 0.950 . S
H2082 C2112 0.950 . S
H2083 C2113 0.950 . S
C2084 H2066 0.951 . S
C2084 C2085 1.366 . S
C2084 C2086 1.388 . S
C2085 C2084 1.366 . S
C2085 C2089 1.385 1_655 S
C2086 H2067 0.951 . S
C2086 C2084 1.388 . S
C2086 C2087 1.366 . S
C2087 C2086 1.366 . S
C2087 C2088 1.414 1_655 S
C2087 C2090 1.499 . S
C2088 H2068 0.950 . S
C2088 C2087 1.414 1_455 S
C2088 C2089 1.374 . S
C2089 H2069 0.950 . S
C2089 C2085 1.385 1_455 S
C2089 C2088 1.374 . S
C2090 C2087 1.499 . S
C2090 C2091 1.373 1_655 S
C2090 C2092 1.389 . S
C2091 H2070 0.950 . S
C2091 C2090 1.373 1_455 S
C2091 C2107 1.377 . S
C2092 C2090 1.389 . S
C2092 C2093 1.524 . S
C2092 C2106 1.377 . S
C2093 C2092 1.524 . S
C2093 C2094 1.397 . S
C2093 C2098 1.363 . S
C2094 H2071 0.950 . S
C2094 C2093 1.397 . S
C2094 C2095 1.334 . S
C2095 H2072 0.950 . S
C2095 C2094 1.334 . S
C2095 C2096 1.287 . S
C2096 C2095 1.287 . S
C2096 C2097 1.524 . S
C2096 H2115 0.913 . S
C2097 H2073 0.950 . S
C2097 C2096 1.524 . S
C2097 C2098 1.415 . S
C2098 H2074 0.950 . S
C2098 C2093 1.363 . S
C2098 C2097 1.415 . S
C2099 H2075 0.951 . S
C2099 C2100 1.366 . S
C2099 C2101 1.388 . S
C2100 C2099 1.366 . S
C2100 C2104 1.383 1_455 S
C2101 H2076 0.951 . S
C2101 C2099 1.388 . S
C2101 C2102 1.376 . S
C2102 C2101 1.376 . S
C2102 C2103 1.410 1_455 S
C2102 C2105 1.490 1_455 S
C2103 H2077 0.950 . S
C2103 C2102 1.410 1_655 S
C2103 C2104 1.374 . S
C2104 H2078 0.950 . S
C2104 C2100 1.383 1_655 S
C2104 C2103 1.374 . S
C2105 C2102 1.490 1_655 S
C2105 C2106 1.375 . S
C2105 C2107 1.388 1_655 S
C2106 H2079 0.950 . S
C2106 C2092 1.377 . S
C2106 C2105 1.375 . S
C2107 C2091 1.377 . S
C2107 C2105 1.388 1_455 S
C2107 C2108 1.524 . S
C2108 C2107 1.524 . S
C2108 C2109 1.397 . S
C2108 C2113 1.363 . S
C2109 H2080 0.950 . S
C2109 C2108 1.397 . S
C2109 C2110 1.334 . S
C2110 H2081 0.950 . S
C2110 C2109 1.334 . S
C2110 C2111 1.287 . S
C2111 C2110 1.287 . S
C2111 C2112 1.524 . S
C2111 H2114 0.999 . S
C2112 H2082 0.950 . S
C2112 C2111 1.524 . S
C2112 C2113 1.415 . S
C2113 H2083 0.950 . S
C2113 C2108 1.363 . S
C2113 C2112 1.415 . S
H2114 C2111 0.999 . S
H2115 C2096 0.913 . S
H2116 C2134 0.951 . S
H2117 C2136 0.951 . S
H2118 C2138 0.950 . S
H2119 C2139 0.950 . S
H2120 C2141 0.950 . S
H2121 C2144 0.950 . S
H2122 C2145 0.950 . S
H2123 C2147 0.950 . S
H2124 C2148 0.950 . S
H2125 C2149 0.951 . S
H2126 C2151 0.951 . S
H2127 C2153 0.950 . S
H2128 C2154 0.950 . S
H2129 C2156 0.950 . S
H2130 C2159 0.950 . S
H2131 C2160 0.950 . S
H2132 C2162 0.950 . S
H2133 C2163 0.950 . S
C2134 H2116 0.951 . S
C2134 C2135 1.366 . S
C2134 C2136 1.388 . S
C2135 C2134 1.366 . S
C2135 C2139 1.385 . S
C2136 H2117 0.951 . S
C2136 C2134 1.388 . S
C2136 C2137 1.366 . S
C2137 C2136 1.366 . S
C2137 C2138 1.414 . S
C2137 C2140 1.499 . S
C2138 H2118 0.950 . S
C2138 C2137 1.414 . S
C2138 C2139 1.374 . S
C2139 H2119 0.950 . S
C2139 C2135 1.385 . S
C2139 C2138 1.374 . S
C2140 C2137 1.499 . S
C2140 C2141 1.373 . S
C2140 C2142 1.389 . S
C2141 H2120 0.950 . S
C2141 C2140 1.373 . S
C2141 C2157 1.377 . S
C2142 C2140 1.389 . S
C2142 C2143 1.524 . S
C2142 C2156 1.377 . S
C2143 C2142 1.524 . S
C2143 C2144 1.397 . S
C2143 C2148 1.363 . S
C2144 H2121 0.950 . S
C2144 C2143 1.397 . S
C2144 C2145 1.334 . S
C2145 H2122 0.950 . S
C2145 C2144 1.334 . S
C2145 C2146 1.287 . S
C2146 C2145 1.287 . S
C2146 C2147 1.524 . S
C2146 H2165 0.913 . S
C2147 H2123 0.950 . S
C2147 C2146 1.524 . S
C2147 C2148 1.415 . S
C2148 H2124 0.950 . S
C2148 C2143 1.363 . S
C2148 C2147 1.415 . S
C2149 H2125 0.951 . S
C2149 C2150 1.366 . S
C2149 C2151 1.388 . S
C2150 C2149 1.366 . S
C2150 C2154 1.385 . S
C2151 H2126 0.951 . S
C2151 C2149 1.388 . S
C2151 C2152 1.366 . S
C2152 C2151 1.366 . S
C2152 C2153 1.414 . S
C2152 C2155 1.499 . S
C2153 H2127 0.950 . S
C2153 C2152 1.414 . S
C2153 C2154 1.374 . S
C2154 H2128 0.950 . S
C2154 C2150 1.385 . S
C2154 C2153 1.374 . S
C2155 C2152 1.499 . S
C2155 C2156 1.373 . S
C2155 C2157 1.389 . S
C2156 H2129 0.950 . S
C2156 C2142 1.377 . S
C2156 C2155 1.373 . S
C2157 C2141 1.377 . S
C2157 C2155 1.389 . S
C2157 C2158 1.524 . S
C2158 C2157 1.524 . S
C2158 C2159 1.397 . S
C2158 C2163 1.363 . S
C2159 H2130 0.950 . S
C2159 C2158 1.397 . S
C2159 C2160 1.334 . S
C2160 H2131 0.950 . S
C2160 C2159 1.334 . S
C2160 C2161 1.287 . S
C2161 C2160 1.287 . S
C2161 C2162 1.524 . S
C2161 H2164 0.999 . S
C2162 H2132 0.950 . S
C2162 C2161 1.524 . S
C2162 C2163 1.415 . S
C2163 H2133 0.950 . S
C2163 C2158 1.363 . S
C2163 C2162 1.415 . S
H2164 C2161 0.999 . S
H2165 C2146 0.913 . S
H2166 C2184 0.951 . S
H2167 C2186 0.951 . S
H2168 C2188 0.950 . S
H2169 C2189 0.950 . S
H2170 C2191 0.950 . S
H2171 C2194 0.950 . S
H2172 C2195 0.950 . S
H2173 C2197 0.950 . S
H2174 C2198 0.950 . S
H2175 C2199 0.951 . S
H2176 C2201 0.951 . S
H2177 C2203 0.950 . S
H2178 C2204 0.950 . S
H2179 C2206 0.950 . S
H2180 C2209 0.950 . S
H2181 C2210 0.950 . S
H2182 C2212 0.950 . S
H2183 C2213 0.950 . S
C2184 H2166 0.951 . S
C2184 C2185 1.366 . S
C2184 C2186 1.388 . S
C2185 C2184 1.366 . S
C2185 C2189 1.385 . S
C2186 H2167 0.951 . S
C2186 C2184 1.388 . S
C2186 C2187 1.366 . S
C2187 C2186 1.366 . S
C2187 C2188 1.414 . S
C2187 C2190 1.499 . S
C2188 H2168 0.950 . S
C2188 C2187 1.414 . S
C2188 C2189 1.374 . S
C2189 H2169 0.950 . S
C2189 C2185 1.385 . S
C2189 C2188 1.374 . S
C2190 C2187 1.499 . S
C2190 C2191 1.373 . S
C2190 C2192 1.389 . S
C2191 H2170 0.950 . S
C2191 C2190 1.373 . S
C2191 C2207 1.377 . S
C2192 C2190 1.389 . S
C2192 C2193 1.524 . S
C2192 C2206 1.377 . S
C2193 C2192 1.524 . S
C2193 C2194 1.397 . S
C2193 C2198 1.363 . S
C2194 H2171 0.950 . S
C2194 C2193 1.397 . S
C2194 C2195 1.334 . S
C2195 H2172 0.950 . S
C2195 C2194 1.334 . S
C2195 C2196 1.287 . S
C2196 C2195 1.287 . S
C2196 C2197 1.524 . S
C2196 H2215 0.913 . S
C2197 H2173 0.950 . S
C2197 C2196 1.524 . S
C2197 C2198 1.415 . S
C2198 H2174 0.950 . S
C2198 C2193 1.363 . S
C2198 C2197 1.415 . S
C2199 H2175 0.951 . S
C2199 C2200 1.366 . S
C2199 C2201 1.388 . S
C2200 C2199 1.366 . S
C2200 C2204 1.385 . S
C2201 H2176 0.951 . S
C2201 C2199 1.388 . S
C2201 C2202 1.366 . S
C2202 C2201 1.366 . S
C2202 C2203 1.414 . S
C2202 C2205 1.499 . S
C2203 H2177 0.950 . S
C2203 C2202 1.414 . S
C2203 C2204 1.374 . S
C2204 H2178 0.950 . S
C2204 C2200 1.385 . S
C2204 C2203 1.374 . S
C2205 C2202 1.499 . S
C2205 C2206 1.373 . S
C2205 C2207 1.389 . S
C2206 H2179 0.950 . S
C2206 C2192 1.377 . S
C2206 C2205 1.373 . S
C2207 C2191 1.377 . S
C2207 C2205 1.389 . S
C2207 C2208 1.524 . S
C2208 C2207 1.524 . S
C2208 C2209 1.397 . S
C2208 C2213 1.363 . S
C2209 H2180 0.950 . S
C2209 C2208 1.397 . S
C2209 C2210 1.334 . S
C2210 H2181 0.950 . S
C2210 C2209 1.334 . S
C2210 C2211 1.287 . S
C2211 C2210 1.287 . S
C2211 C2212 1.524 . S
C2211 H2214 0.999 . S
C2212 H2182 0.950 . S
C2212 C2211 1.524 . S
C2212 C2213 1.415 . S
C2213 H2183 0.950 . S
C2213 C2208 1.363 . S
C2213 C2212 1.415 . S
H2214 C2211 0.999 . S
H2215 C2196 0.913 . S
H2216 C2234 0.951 . S
H2217 C2236 0.951 . S
H2218 C2238 0.950 . S
H2219 C2239 0.950 . S
H2220 C2241 0.950 . S
H2221 C2244 0.950 . S
H2222 C2245 0.950 . S
H2223 C2247 0.950 . S
H2224 C2248 0.950 . S
H2225 C2249 0.951 . S
H2226 C2251 0.951 . S
H2227 C2253 0.950 . S
H2228 C2254 0.950 . S
H2229 C2256 0.950 . S
H2230 C2259 0.950 . S
H2231 C2260 0.950 . S
H2232 C2262 0.950 . S
H2233 C2263 0.950 . S
C2234 H2216 0.951 . S
C2234 C2235 1.366 . S
C2234 C2236 1.388 . S
C2235 C2234 1.366 . S
C2235 C2239 1.385 . S
C2236 H2217 0.951 . S
C2236 C2234 1.388 . S
C2236 C2237 1.366 . S
C2237 C2236 1.366 . S
C2237 C2238 1.414 . S
C2237 C2240 1.499 . S
C2238 H2218 0.950 . S
C2238 C2237 1.414 . S
C2238 C2239 1.374 . S
C2239 H2219 0.950 . S
C2239 C2235 1.385 . S
C2239 C2238 1.374 . S
C2240 C2237 1.499 . S
C2240 C2241 1.373 . S
C2240 C2242 1.389 . S
C2241 H2220 0.950 . S
C2241 C2240 1.373 . S
C2241 C2257 1.377 . S
C2242 C2240 1.389 . S
C2242 C2243 1.524 . S
C2242 C2256 1.377 . S
C2243 C2242 1.524 . S
C2243 C2244 1.397 . S
C2243 C2248 1.363 . S
C2244 H2221 0.950 . S
C2244 C2243 1.397 . S
C2244 C2245 1.334 . S
C2245 H2222 0.950 . S
C2245 C2244 1.334 . S
C2245 C2246 1.287 . S
C2246 C2245 1.287 . S
C2246 C2247 1.524 . S
C2246 H2265 0.913 . S
C2247 H2223 0.950 . S
C2247 C2246 1.524 . S
C2247 C2248 1.415 . S
C2248 H2224 0.950 . S
C2248 C2243 1.363 . S
C2248 C2247 1.415 . S
C2249 H2225 0.951 . S
C2249 C2250 1.366 . S
C2249 C2251 1.388 . S
C2250 C2249 1.366 . S
C2250 C2254 1.385 . S
C2251 H2226 0.951 . S
C2251 C2249 1.388 . S
C2251 C2252 1.366 . S
C2252 C2251 1.366 . S
C2252 C2253 1.414 . S
C2252 C2255 1.499 . S
C2253 H2227 0.950 . S
C2253 C2252 1.414 . S
C2253 C2254 1.374 . S
C2254 H2228 0.950 . S
C2254 C2250 1.385 . S
C2254 C2253 1.374 . S
C2255 C2252 1.499 . S
C2255 C2256 1.373 . S
C2255 C2257 1.389 . S
C2256 H2229 0.950 . S
C2256 C2242 1.377 . S
C2256 C2255 1.373 . S
C2257 C2241 1.377 . S
C2257 C2255 1.389 . S
C2257 C2258 1.524 . S
C2258 C2257 1.524 . S
C2258 C2259 1.397 . S
C2258 C2263 1.363 . S
C2259 H2230 0.950 . S
C2259 C2258 1.397 . S
C2259 C2260 1.334 . S
C2260 H2231 0.950 . S
C2260 C2259 1.334 . S
C2260 C2261 1.287 . S
C2261 C2260 1.287 . S
C2261 C2262 1.524 . S
C2261 H2264 0.999 . S
C2262 H2232 0.950 . S
C2262 C2261 1.524 . S
C2262 C2263 1.415 . S
C2263 H2233 0.950 . S
C2263 C2258 1.363 . S
C2263 C2262 1.415 . S
H2264 C2261 0.999 . S
H2265 C2246 0.913 . S
H2266 C2284 0.951 . S
H2267 C2286 0.951 . S
H2268 C2288 0.950 . S
H2269 C2289 0.950 . S
H2270 C2291 0.950 . S
H2271 C2294 0.950 . S
H2272 C2295 0.950 . S
H2273 C2297 0.950 . S
H2274 C2298 0.950 . S
H2275 C2299 0.951 . S
H2276 C2301 0.951 . S
H2277 C2303 0.950 . S
H2278 C2304 0.950 . S
H2279 C2306 0.950 . S
H2280 C2309 0.950 . S
H2281 C2310 0.950 . S
H2282 C2312 0.950 . S
H2283 C2313 0.950 . S
C2284 H2266 0.951 . S
C2284 C2285 1.366 . S
C2284 C2286 1.388 . S
C2285 C2284 1.366 . S
C2285 C2289 1.385 . S
C2286 H2267 0.951 . S
C2286 C2284 1.388 . S
C2286 C2287 1.366 . S
C2287 C2286 1.366 . S
C2287 C2288 1.414 . S
C2287 C2290 1.499 . S
C2288 H2268 0.950 . S
C2288 C2287 1.414 . S
C2288 C2289 1.374 . S
C2289 H2269 0.950 . S
C2289 C2285 1.385 . S
C2289 C2288 1.374 . S
C2290 C2287 1.499 . S
C2290 C2291 1.373 . S
C2290 C2292 1.389 . S
C2291 H2270 0.950 . S
C2291 C2290 1.373 . S
C2291 C2307 1.377 . S
C2292 C2290 1.389 . S
C2292 C2293 1.524 . S
C2292 C2306 1.377 . S
C2293 C2292 1.524 . S
C2293 C2294 1.397 . S
C2293 C2298 1.363 . S
C2294 H2271 0.950 . S
C2294 C2293 1.397 . S
C2294 C2295 1.334 . S
C2295 H2272 0.950 . S
C2295 C2294 1.334 . S
C2295 C2296 1.287 . S
C2296 C2295 1.287 . S
C2296 C2297 1.524 . S
C2296 H2315 0.913 . S
C2297 H2273 0.950 . S
C2297 C2296 1.524 . S
C2297 C2298 1.415 . S
C2298 H2274 0.950 . S
C2298 C2293 1.363 . S
C2298 C2297 1.415 . S
C2299 H2275 0.951 . S
C2299 C2300 1.366 . S
C2299 C2301 1.388 . S
C2300 C2299 1.366 . S
C2300 C2304 1.385 . S
C2301 H2276 0.951 . S
C2301 C2299 1.388 . S
C2301 C2302 1.366 . S
C2302 C2301 1.366 . S
C2302 C2303 1.414 . S
C2302 C2305 1.499 . S
C2303 H2277 0.950 . S
C2303 C2302 1.414 . S
C2303 C2304 1.374 . S
C2304 H2278 0.950 . S
C2304 C2300 1.385 . S
C2304 C2303 1.374 . S
C2305 C2302 1.499 . S
C2305 C2306 1.373 . S
C2305 C2307 1.389 . S
C2306 H2279 0.950 . S
C2306 C2292 1.377 . S
C2306 C2305 1.373 . S
C2307 C2291 1.377 . S
C2307 C2305 1.389 . S
C2307 C2308 1.524 . S
C2308 C2307 1.524 . S
C2308 C2309 1.397 . S
C2308 C2313 1.363 . S
C2309 H2280 0.950 . S
C2309 C2308 1.397 . S
C2309 C2310 1.334 . S
C2310 H2281 0.950 . S
C2310 C2309 1.334 . S
C2310 C2311 1.287 . S
C2311 C2310 1.287 . S
C2311 C2312 1.524 . S
C2311 H2314 0.999 . S
C2312 H2282 0.950 . S
C2312 C2311 1.524 . S
C2312 C2313 1.415 . S
C2313 H2283 0.950 . S
C2313 C2308 1.363 . S
C2313 C2312 1.415 . S
H2314 C2311 0.999 . S
H2315 C2296 0.913 . S
H2316 C2334 0.951 . S
H2317 C2336 0.951 . S
H2318 C2338 0.950 . S
H2319 C2339 0.950 . S
H2320 C2341 0.950 . S
H2321 C2344 0.950 . S
H2322 C2345 0.950 . S
H2323 C2347 0.950 . S
H2324 C2348 0.950 . S
H2325 C2349 0.951 . S
H2326 C2351 0.951 . S
H2327 C2353 0.950 . S
H2328 C2354 0.950 . S
H2329 C2356 0.950 . S
H2330 C2359 0.950 . S
H2331 C2360 0.950 . S
H2332 C2362 0.950 . S
H2333 C2363 0.950 . S
C2334 H2316 0.951 . S
C2334 C2335 1.366 . S
C2334 C2336 1.388 . S
C2335 C2334 1.366 . S
C2335 C2339 1.385 . S
C2336 H2317 0.951 . S
C2336 C2334 1.388 . S
C2336 C2337 1.366 . S
C2337 C2336 1.366 . S
C2337 C2338 1.414 . S
C2337 C2340 1.499 . S
C2338 H2318 0.950 . S
C2338 C2337 1.414 . S
C2338 C2339 1.374 . S
C2339 H2319 0.950 . S
C2339 C2335 1.385 . S
C2339 C2338 1.374 . S
C2340 C2337 1.499 . S
C2340 C2341 1.373 . S
C2340 C2342 1.389 . S
C2341 H2320 0.950 . S
C2341 C2340 1.373 . S
C2341 C2357 1.377 . S
C2342 C2340 1.389 . S
C2342 C2343 1.524 . S
C2342 C2356 1.377 . S
C2343 C2342 1.524 . S
C2343 C2344 1.397 . S
C2343 C2348 1.363 . S
C2344 H2321 0.950 . S
C2344 C2343 1.397 . S
C2344 C2345 1.334 . S
C2345 H2322 0.950 . S
C2345 C2344 1.334 . S
C2345 C2346 1.287 . S
C2346 C2345 1.287 . S
C2346 C2347 1.524 . S
C2346 H2365 0.913 . S
C2347 H2323 0.950 . S
C2347 C2346 1.524 . S
C2347 C2348 1.415 . S
C2348 H2324 0.950 . S
C2348 C2343 1.363 . S
C2348 C2347 1.415 . S
C2349 H2325 0.951 . S
C2349 C2350 1.366 . S
C2349 C2351 1.388 . S
C2350 C2349 1.366 . S
C2350 C2354 1.385 . S
C2351 H2326 0.951 . S
C2351 C2349 1.388 . S
C2351 C2352 1.366 . S
C2352 C2351 1.366 . S
C2352 C2353 1.414 . S
C2352 C2355 1.499 . S
C2353 H2327 0.950 . S
C2353 C2352 1.414 . S
C2353 C2354 1.374 . S
C2354 H2328 0.950 . S
C2354 C2350 1.385 . S
C2354 C2353 1.374 . S
C2355 C2352 1.499 . S
C2355 C2356 1.373 . S
C2355 C2357 1.389 . S
C2356 H2329 0.950 . S
C2356 C2342 1.377 . S
C2356 C2355 1.373 . S
C2357 C2341 1.377 . S
C2357 C2355 1.389 . S
C2357 C2358 1.524 . S
C2358 C2357 1.524 . S
C2358 C2359 1.397 . S
C2358 C2363 1.363 . S
C2359 H2330 0.950 . S
C2359 C2358 1.397 . S
C2359 C2360 1.334 . S
C2360 H2331 0.950 . S
C2360 C2359 1.334 . S
C2360 C2361 1.287 . S
C2361 C2360 1.287 . S
C2361 C2362 1.524 . S
C2361 H2364 0.999 . S
C2362 H2332 0.950 . S
C2362 C2361 1.524 . S
C2362 C2363 1.415 . S
C2363 H2333 0.950 . S
C2363 C2358 1.363 . S
C2363 C2362 1.415 . S
H2364 C2361 0.999 . S
H2365 C2346 0.913 . S
H2366 C2384 0.951 . S
H2367 C2386 0.951 . S
H2368 C2388 0.950 . S
H2369 C2389 0.950 . S
H2370 C2391 0.950 . S
H2371 C2394 0.950 . S
H2372 C2395 0.950 . S
H2373 C2397 0.950 . S
H2374 C2398 0.950 . S
H2375 C2399 0.951 . S
H2376 C2401 0.951 . S
H2377 C2403 0.950 . S
H2378 C2404 0.950 . S
H2379 C2406 0.950 . S
H2380 C2409 0.950 . S
H2381 C2410 0.950 . S
H2382 C2412 0.950 . S
H2383 C2413 0.950 . S
C2384 H2366 0.951 . S
C2384 C2385 1.366 . S
C2384 C2386 1.388 . S
C2385 C2384 1.366 . S
C2385 C2389 1.385 . S
C2386 H2367 0.951 . S
C2386 C2384 1.388 . S
C2386 C2387 1.366 . S
C2387 C2386 1.366 . S
C2387 C2388 1.414 . S
C2387 C2390 1.499 . S
C2388 H2368 0.950 . S
C2388 C2387 1.414 . S
C2388 C2389 1.374 . S
C2389 H2369 0.950 . S
C2389 C2385 1.385 . S
C2389 C2388 1.374 . S
C2390 C2387 1.499 . S
C2390 C2391 1.373 . S
C2390 C2392 1.389 . S
C2391 H2370 0.950 . S
C2391 C2390 1.373 . S
C2391 C2407 1.377 . S
C2392 C2390 1.389 . S
C2392 C2393 1.524 . S
C2392 C2406 1.377 . S
C2393 C2392 1.524 . S
C2393 C2394 1.397 . S
C2393 C2398 1.363 . S
C2394 H2371 0.950 . S
C2394 C2393 1.397 . S
C2394 C2395 1.334 . S
C2395 H2372 0.950 . S
C2395 C2394 1.334 . S
C2395 C2396 1.287 . S
C2396 C2395 1.287 . S
C2396 C2397 1.524 . S
C2396 H2415 0.913 . S
C2397 H2373 0.950 . S
C2397 C2396 1.524 . S
C2397 C2398 1.415 . S
C2398 H2374 0.950 . S
C2398 C2393 1.363 . S
C2398 C2397 1.415 . S
C2399 H2375 0.951 . S
C2399 C2400 1.366 . S
C2399 C2401 1.388 . S
C2400 C2399 1.366 . S
C2400 C2404 1.385 . S
C2401 H2376 0.951 . S
C2401 C2399 1.388 . S
C2401 C2402 1.366 . S
C2402 C2401 1.366 . S
C2402 C2403 1.414 . S
C2402 C2405 1.499 . S
C2403 H2377 0.950 . S
C2403 C2402 1.414 . S
C2403 C2404 1.374 . S
C2404 H2378 0.950 . S
C2404 C2400 1.385 . S
C2404 C2403 1.374 . S
C2405 C2402 1.499 . S
C2405 C2406 1.373 . S
C2405 C2407 1.389 . S
C2406 H2379 0.950 . S
C2406 C2392 1.377 . S
C2406 C2405 1.373 . S
C2407 C2391 1.377 . S
C2407 C2405 1.389 . S
C2407 C2408 1.524 . S
C2408 C2407 1.524 . S
C2408 C2409 1.397 . S
C2408 C2413 1.363 . S
C2409 H2380 0.950 . S
C2409 C2408 1.397 . S
C2409 C2410 1.334 . S
C2410 H2381 0.950 . S
C2410 C2409 1.334 . S
C2410 C2411 1.287 . S
C2411 C2410 1.287 . S
C2411 C2412 1.524 . S
C2411 H2414 0.999 . S
C2412 H2382 0.950 . S
C2412 C2411 1.524 . S
C2412 C2413 1.415 . S
C2413 H2383 0.950 . S
C2413 C2408 1.363 . S
C2413 C2412 1.415 . S
H2414 C2411 0.999 . S
H2415 C2396 0.913 . S
H2416 C2434 0.951 . S
H2417 C2436 0.951 . S
H2418 C2438 0.950 . S
H2419 C2439 0.950 . S
H2420 C2441 0.950 . S
H2421 C2444 0.950 . S
H2422 C2445 0.950 . S
H2423 C2447 0.950 . S
H2424 C2448 0.950 . S
H2425 C2449 0.951 . S
H2426 C2451 0.951 . S
H2427 C2453 0.950 . S
H2428 C2454 0.950 . S
H2429 C2456 0.950 . S
H2430 C2459 0.950 . S
H2431 C2460 0.950 . S
H2432 C2462 0.950 . S
H2433 C2463 0.950 . S
C2434 H2416 0.951 . S
C2434 C2435 1.366 . S
C2434 C2436 1.388 . S
C2435 C2434 1.366 . S
C2435 C2439 1.385 . S
C2436 H2417 0.951 . S
C2436 C2434 1.388 . S
C2436 C2437 1.366 . S
C2437 C2436 1.366 . S
C2437 C2438 1.414 . S
C2437 C2440 1.499 . S
C2438 H2418 0.950 . S
C2438 C2437 1.414 . S
C2438 C2439 1.374 . S
C2439 H2419 0.950 . S
C2439 C2435 1.385 . S
C2439 C2438 1.374 . S
C2440 C2437 1.499 . S
C2440 C2441 1.373 . S
C2440 C2442 1.389 . S
C2441 H2420 0.950 . S
C2441 C2440 1.373 . S
C2441 C2457 1.377 . S
C2442 C2440 1.389 . S
C2442 C2443 1.524 . S
C2442 C2456 1.377 . S
C2443 C2442 1.524 . S
C2443 C2444 1.397 . S
C2443 C2448 1.363 . S
C2444 H2421 0.950 . S
C2444 C2443 1.397 . S
C2444 C2445 1.334 . S
C2445 H2422 0.950 . S
C2445 C2444 1.334 . S
C2445 C2446 1.287 . S
C2446 C2445 1.287 . S
C2446 C2447 1.524 . S
C2446 H2465 0.913 . S
C2447 H2423 0.950 . S
C2447 C2446 1.524 . S
C2447 C2448 1.415 . S
C2448 H2424 0.950 . S
C2448 C2443 1.363 . S
C2448 C2447 1.415 . S
C2449 H2425 0.951 . S
C2449 C2450 1.366 . S
C2449 C2451 1.388 . S
C2450 C2449 1.366 . S
C2450 C2454 1.385 . S
C2451 H2426 0.951 . S
C2451 C2449 1.388 . S
C2451 C2452 1.366 . S
C2452 C2451 1.366 . S
C2452 C2453 1.414 . S
C2452 C2455 1.499 . S
C2453 H2427 0.950 . S
C2453 C2452 1.414 . S
C2453 C2454 1.374 . S
C2454 H2428 0.950 . S
C2454 C2450 1.385 . S
C2454 C2453 1.374 . S
C2455 C2452 1.499 . S
C2455 C2456 1.373 . S
C2455 C2457 1.389 . S
C2456 H2429 0.950 . S
C2456 C2442 1.377 . S
C2456 C2455 1.373 . S
C2457 C2441 1.377 . S
C2457 C2455 1.389 . S
C2457 C2458 1.524 . S
C2458 C2457 1.524 . S
C2458 C2459 1.397 . S
C2458 C2463 1.363 . S
C2459 H2430 0.950 . S
C2459 C2458 1.397 . S
C2459 C2460 1.334 . S
C2460 H2431 0.950 . S
C2460 C2459 1.334 . S
C2460 C2461 1.287 . S
C2461 C2460 1.287 . S
C2461 C2462 1.524 . S
C2461 H2464 0.999 . S
C2462 H2432 0.950 . S
C2462 C2461 1.524 . S
C2462 C2463 1.415 . S
C2463 H2433 0.950 . S
C2463 C2458 1.363 . S
C2463 C2462 1.415 . S
H2464 C2461 0.999 . S
H2465 C2446 0.913 . S
H2466 C2484 0.951 . S
H2467 C2486 0.951 . S
H2468 C2488 0.950 . S
H2469 C2489 0.950 . S
H2470 C2491 0.950 . S
H2471 C2494 0.950 . S
H2472 C2495 0.950 . S
H2473 C2497 0.950 . S
H2474 C2498 0.950 . S
H2475 C2499 0.951 . S
H2476 C2501 0.951 . S
H2477 C2503 0.950 . S
H2478 C2504 0.950 . S
H2479 C2506 0.950 . S
H2480 C2509 0.950 . S
H2481 C2510 0.950 . S
H2482 C2512 0.950 . S
H2483 C2513 0.950 . S
C2484 H2466 0.951 . S
C2484 C2485 1.366 . S
C2484 C2486 1.388 . S
C2485 C2484 1.366 . S
C2485 C2489 1.385 . S
C2486 H2467 0.951 . S
C2486 C2484 1.388 . S
C2486 C2487 1.366 . S
C2487 C2486 1.366 . S
C2487 C2488 1.414 . S
C2487 C2490 1.499 . S
C2488 H2468 0.950 . S
C2488 C2487 1.414 . S
C2488 C2489 1.374 . S
C2489 H2469 0.950 . S
C2489 C2485 1.385 . S
C2489 C2488 1.374 . S
C2490 C2487 1.499 . S
C2490 C2491 1.373 . S
C2490 C2492 1.389 . S
C2491 H2470 0.950 . S
C2491 C2490 1.373 . S
C2491 C2507 1.377 . S
C2492 C2490 1.389 . S
C2492 C2493 1.524 . S
C2492 C2506 1.377 . S
C2493 C2492 1.524 . S
C2493 C2494 1.397 . S
C2493 C2498 1.363 . S
C2494 H2471 0.950 . S
C2494 C2493 1.397 . S
C2494 C2495 1.334 . S
C2495 H2472 0.950 . S
C2495 C2494 1.334 . S
C2495 C2496 1.287 . S
C2496 C2495 1.287 . S
C2496 C2497 1.524 . S
C2496 H2515 0.913 . S
C2497 H2473 0.950 . S
C2497 C2496 1.524 . S
C2497 C2498 1.415 . S
C2498 H2474 0.950 . S
C2498 C2493 1.363 . S
C2498 C2497 1.415 . S
C2499 H2475 0.951 . S
C2499 C2500 1.366 . S
C2499 C2501 1.388 . S
C2500 C2499 1.366 . S
C2500 C2504 1.385 . S
C2501 H2476 0.951 . S
C2501 C2499 1.388 . S
C2501 C2502 1.366 . S
C2502 C2501 1.366 . S
C2502 C2503 1.414 . S
C2502 C2505 1.499 . S
C2503 H2477 0.950 . S
C2503 C2502 1.414 . S
C2503 C2504 1.374 . S
C2504 H2478 0.950 . S
C2504 C2500 1.385 . S
C2504 C2503 1.374 . S
C2505 C2502 1.499 . S
C2505 C2506 1.373 . S
C2505 C2507 1.389 . S
C2506 H2479 0.950 . S
C2506 C2492 1.377 . S
C2506 C2505 1.373 . S
C2507 C2491 1.377 . S
C2507 C2505 1.389 . S
C2507 C2508 1.524 . S
C2508 C2507 1.524 . S
C2508 C2509 1.397 . S
C2508 C2513 1.363 . S
C2509 H2480 0.950 . S
C2509 C2508 1.397 . S
C2509 C2510 1.334 . S
C2510 H2481 0.950 . S
C2510 C2509 1.334 . S
C2510 C2511 1.287 . S
C2511 C2510 1.287 . S
C2511 C2512 1.524 . S
C2511 H2514 0.999 . S
C2512 H2482 0.950 . S
C2512 C2511 1.524 . S
C2512 C2513 1.415 . S
C2513 H2483 0.950 . S
C2513 C2508 1.363 . S
C2513 C2512 1.415 . S
H2514 C2511 0.999 . S
H2515 C2496 0.913 . S
H2516 C2534 0.951 . S
H2517 C2536 0.951 . S
H2518 C2538 0.950 . S
H2519 C2539 0.950 . S
H2520 C2541 0.950 . S
H2521 C2544 0.950 . S
H2522 C2545 0.950 . S
H2523 C2547 0.950 . S
H2524 C2548 0.950 . S
H2525 C2549 0.951 . S
H2526 C2551 0.951 . S
H2527 C2553 0.950 . S
H2528 C2554 0.950 . S
H2529 C2556 0.950 . S
H2530 C2559 0.950 . S
H2531 C2560 0.950 . S
H2532 C2562 0.950 . S
H2533 C2563 0.950 . S
C2534 H2516 0.951 . S
C2534 C2535 1.366 . S
C2534 C2536 1.388 . S
C2535 C2534 1.366 . S
C2535 C2539 1.385 . S
C2536 H2517 0.951 . S
C2536 C2534 1.388 . S
C2536 C2537 1.366 . S
C2537 C2536 1.366 . S
C2537 C2538 1.414 . S
C2537 C2540 1.499 . S
C2538 H2518 0.950 . S
C2538 C2537 1.414 . S
C2538 C2539 1.374 . S
C2539 H2519 0.950 . S
C2539 C2535 1.385 . S
C2539 C2538 1.374 . S
C2540 C2537 1.499 . S
C2540 C2541 1.373 . S
C2540 C2542 1.389 . S
C2541 H2520 0.950 . S
C2541 C2540 1.373 . S
C2541 C2557 1.377 . S
C2542 C2540 1.389 . S
C2542 C2543 1.524 . S
C2542 C2556 1.377 . S
C2543 C2542 1.524 . S
C2543 C2544 1.397 . S
C2543 C2548 1.363 . S
C2544 H2521 0.950 . S
C2544 C2543 1.397 . S
C2544 C2545 1.334 . S
C2545 H2522 0.950 . S
C2545 C2544 1.334 . S
C2545 C2546 1.287 . S
C2546 C2545 1.287 . S
C2546 C2547 1.524 . S
C2546 H2565 0.913 . S
C2547 H2523 0.950 . S
C2547 C2546 1.524 . S
C2547 C2548 1.415 . S
C2548 H2524 0.950 . S
C2548 C2543 1.363 . S
C2548 C2547 1.415 . S
C2549 H2525 0.951 . S
C2549 C2550 1.366 . S
C2549 C2551 1.388 . S
C2550 C2549 1.366 . S
C2550 C2554 1.385 . S
C2551 H2526 0.951 . S
C2551 C2549 1.388 . S
C2551 C2552 1.366 . S
C2552 C2551 1.366 . S
C2552 C2553 1.414 . S
C2552 C2555 1.499 . S
C2553 H2527 0.950 . S
C2553 C2552 1.414 . S
C2553 C2554 1.374 . S
C2554 H2528 0.950 . S
C2554 C2550 1.385 . S
C2554 C2553 1.374 . S
C2555 C2552 1.499 . S
C2555 C2556 1.373 . S
C2555 C2557 1.389 . S
C2556 H2529 0.950 . S
C2556 C2542 1.377 . S
C2556 C2555 1.373 . S
C2557 C2541 1.377 . S
C2557 C2555 1.389 . S
C2557 C2558 1.524 . S
C2558 C2557 1.524 . S
C2558 C2559 1.397 . S
C2558 C2563 1.363 . S
C2559 H2530 0.950 . S
C2559 C2558 1.397 . S
C2559 C2560 1.334 . S
C2560 H2531 0.950 . S
C2560 C2559 1.334 . S
C2560 C2561 1.287 . S
C2561 C2560 1.287 . S
C2561 C2562 1.524 . S
C2561 H2564 0.999 . S
C2562 H2532 0.950 . S
C2562 C2561 1.524 . S
C2562 C2563 1.415 . S
C2563 H2533 0.950 . S
C2563 C2558 1.363 . S
C2563 C2562 1.415 . S
H2564 C2561 0.999 . S
H2565 C2546 0.913 . S
H2566 C2584 0.951 . S
H2567 C2586 0.951 . S
H2568 C2588 0.950 . S
H2569 C2589 0.950 . S
H2570 C2591 0.950 . S
H2571 C2594 0.950 . S
H2572 C2595 0.950 . S
H2573 C2597 0.950 . S
H2574 C2598 0.950 . S
H2575 C2599 0.951 . S
H2576 C2601 0.951 . S
H2577 C2603 0.950 . S
H2578 C2604 0.950 . S
H2579 C2606 0.950 . S
H2580 C2609 0.950 . S
H2581 C2610 0.950 . S
H2582 C2612 0.950 . S
H2583 C2613 0.950 . S
C2584 H2566 0.951 . S
C2584 C2585 1.366 . S
C2584 C2586 1.388 . S
C2585 C2584 1.366 . S
C2585 C2589 1.385 . S
C2586 H2567 0.951 . S
C2586 C2584 1.388 . S
C2586 C2587 1.366 . S
C2587 C2586 1.366 . S
C2587 C2588 1.414 . S
C2587 C2590 1.499 . S
C2588 H2568 0.950 . S
C2588 C2587 1.414 . S
C2588 C2589 1.374 . S
C2589 H2569 0.950 . S
C2589 C2585 1.385 . S
C2589 C2588 1.374 . S
C2590 C2587 1.499 . S
C2590 C2591 1.373 . S
C2590 C2592 1.389 . S
C2591 H2570 0.950 . S
C2591 C2590 1.373 . S
C2591 C2607 1.377 . S
C2592 C2590 1.389 . S
C2592 C2593 1.524 . S
C2592 C2606 1.377 . S
C2593 C2592 1.524 . S
C2593 C2594 1.397 . S
C2593 C2598 1.363 . S
C2594 H2571 0.950 . S
C2594 C2593 1.397 . S
C2594 C2595 1.334 . S
C2595 H2572 0.950 . S
C2595 C2594 1.334 . S
C2595 C2596 1.287 . S
C2596 C2595 1.287 . S
C2596 C2597 1.524 . S
C2596 H2615 0.913 . S
C2597 H2573 0.950 . S
C2597 C2596 1.524 . S
C2597 C2598 1.415 . S
C2598 H2574 0.950 . S
C2598 C2593 1.363 . S
C2598 C2597 1.415 . S
C2599 H2575 0.951 . S
C2599 C2600 1.366 . S
C2599 C2601 1.388 . S
C2600 C2599 1.366 . S
C2600 C2604 1.385 . S
C2601 H2576 0.951 . S
C2601 C2599 1.388 . S
C2601 C2602 1.366 . S
C2602 C2601 1.366 . S
C2602 C2603 1.414 . S
C2602 C2605 1.499 . S
C2603 H2577 0.950 . S
C2603 C2602 1.414 . S
C2603 C2604 1.374 . S
C2604 H2578 0.950 . S
C2604 C2600 1.385 . S
C2604 C2603 1.374 . S
C2605 C2602 1.499 . S
C2605 C2606 1.373 . S
C2605 C2607 1.389 . S
C2606 H2579 0.950 . S
C2606 C2592 1.377 . S
C2606 C2605 1.373 . S
C2607 C2591 1.377 . S
C2607 C2605 1.389 . S
C2607 C2608 1.524 . S
C2608 C2607 1.524 . S
C2608 C2609 1.397 . S
C2608 C2613 1.363 . S
C2609 H2580 0.950 . S
C2609 C2608 1.397 . S
C2609 C2610 1.334 . S
C2610 H2581 0.950 . S
C2610 C2609 1.334 . S
C2610 C2611 1.287 . S
C2611 C2610 1.287 . S
C2611 C2612 1.524 . S
C2611 H2614 0.999 . S
C2612 H2582 0.950 . S
C2612 C2611 1.524 . S
C2612 C2613 1.415 . S
C2613 H2583 0.950 . S
C2613 C2608 1.363 . S
C2613 C2612 1.415 . S
H2614 C2611 0.999 . S
H2615 C2596 0.913 . S
H2616 C2634 0.951 . S
H2617 C2636 0.951 . S
H2618 C2638 0.950 . S
H2619 C2639 0.950 . S
H2620 C2641 0.950 . S
H2621 C2644 0.950 . S
H2622 C2645 0.950 . S
H2623 C2647 0.950 . S
H2624 C2648 0.950 . S
H2625 C2649 0.951 . S
H2626 C2651 0.951 . S
H2627 C2653 0.950 . S
H2628 C2654 0.950 . S
H2629 C2656 0.950 . S
H2630 C2659 0.950 . S
H2631 C2660 0.950 . S
H2632 C2662 0.950 . S
H2633 C2663 0.950 . S
C2634 H2616 0.951 . S
C2634 C2635 1.366 . S
C2634 C2636 1.388 . S
C2635 C2634 1.366 . S
C2635 C2639 1.385 . S
C2636 H2617 0.951 . S
C2636 C2634 1.388 . S
C2636 C2637 1.366 . S
C2637 C2636 1.366 . S
C2637 C2638 1.414 . S
C2637 C2640 1.499 . S
C2638 H2618 0.950 . S
C2638 C2637 1.414 . S
C2638 C2639 1.374 . S
C2639 H2619 0.950 . S
C2639 C2635 1.385 . S
C2639 C2638 1.374 . S
C2640 C2637 1.499 . S
C2640 C2641 1.373 . S
C2640 C2642 1.389 . S
C2641 H2620 0.950 . S
C2641 C2640 1.373 . S
C2641 C2657 1.377 . S
C2642 C2640 1.389 . S
C2642 C2643 1.524 . S
C2642 C2656 1.377 . S
C2643 C2642 1.524 . S
C2643 C2644 1.397 . S
C2643 C2648 1.363 . S
C2644 H2621 0.950 . S
C2644 C2643 1.397 . S
C2644 C2645 1.334 . S
C2645 H2622 0.950 . S
C2645 C2644 1.334 . S
C2645 C2646 1.287 . S
C2646 C2645 1.287 . S
C2646 C2647 1.524 . S
C2646 H2665 0.913 . S
C2647 H2623 0.950 . S
C2647 C2646 1.524 . S
C2647 C2648 1.415 . S
C2648 H2624 0.950 . S
C2648 C2643 1.363 . S
C2648 C2647 1.415 . S
C2649 H2625 0.951 . S
C2649 C2650 1.366 . S
C2649 C2651 1.388 . S
C2650 C2649 1.366 . S
C2650 C2654 1.385 . S
C2651 H2626 0.951 . S
C2651 C2649 1.388 . S
C2651 C2652 1.366 . S
C2652 C2651 1.366 . S
C2652 C2653 1.414 . S
C2652 C2655 1.499 . S
C2653 H2627 0.950 . S
C2653 C2652 1.414 . S
C2653 C2654 1.374 . S
C2654 H2628 0.950 . S
C2654 C2650 1.385 . S
C2654 C2653 1.374 . S
C2655 C2652 1.499 . S
C2655 C2656 1.373 . S
C2655 C2657 1.389 . S
C2656 H2629 0.950 . S
C2656 C2642 1.377 . S
C2656 C2655 1.373 . S
C2657 C2641 1.377 . S
C2657 C2655 1.389 . S
C2657 C2658 1.524 . S
C2658 C2657 1.524 . S
C2658 C2659 1.397 . S
C2658 C2663 1.363 . S
C2659 H2630 0.950 . S
C2659 C2658 1.397 . S
C2659 C2660 1.334 . S
C2660 H2631 0.950 . S
C2660 C2659 1.334 . S
C2660 C2661 1.287 . S
C2661 C2660 1.287 . S
C2661 C2662 1.524 . S
C2661 H2664 0.999 . S
C2662 H2632 0.950 . S
C2662 C2661 1.524 . S
C2662 C2663 1.415 . S
C2663 H2633 0.950 . S
C2663 C2658 1.363 . S
C2663 C2662 1.415 . S
H2664 C2661 0.999 . S
H2665 C2646 0.913 . S
H2666 C2684 0.951 . S
H2667 C2686 0.951 . S
H2668 C2688 0.950 . S
H2669 C2689 0.950 . S
H2670 C2691 0.950 . S
H2671 C2694 0.950 . S
H2672 C2695 0.950 . S
H2673 C2697 0.950 . S
H2674 C2698 0.950 . S
H2675 C2699 0.951 . S
H2676 C2701 0.951 . S
H2677 C2703 0.950 . S
H2678 C2704 0.950 . S
H2679 C2706 0.950 . S
H2680 C2709 0.950 . S
H2681 C2710 0.950 . S
H2682 C2712 0.950 . S
H2683 C2713 0.950 . S
C2684 H2666 0.951 . S
C2684 C2685 1.366 . S
C2684 C2686 1.388 . S
C2685 C2684 1.366 . S
C2685 C2689 1.385 . S
C2686 H2667 0.951 . S
C2686 C2684 1.388 . S
C2686 C2687 1.366 . S
C2687 C2686 1.366 . S
C2687 C2688 1.414 . S
C2687 C2690 1.499 . S
C2688 H2668 0.950 . S
C2688 C2687 1.414 . S
C2688 C2689 1.374 . S
C2689 H2669 0.950 . S
C2689 C2685 1.385 . S
C2689 C2688 1.374 . S
C2690 C2687 1.499 . S
C2690 C2691 1.373 . S
C2690 C2692 1.389 . S
C2691 H2670 0.950 . S
C2691 C2690 1.373 . S
C2691 C2707 1.377 . S
C2692 C2690 1.389 . S
C2692 C2693 1.524 . S
C2692 C2706 1.377 . S
C2693 C2692 1.524 . S
C2693 C2694 1.397 . S
C2693 C2698 1.363 . S
C2694 H2671 0.950 . S
C2694 C2693 1.397 . S
C2694 C2695 1.334 . S
C2695 H2672 0.950 . S
C2695 C2694 1.334 . S
C2695 C2696 1.287 . S
C2696 C2695 1.287 . S
C2696 C2697 1.524 . S
C2696 H2715 0.913 . S
C2697 H2673 0.950 . S
C2697 C2696 1.524 . S
C2697 C2698 1.415 . S
C2698 H2674 0.950 . S
C2698 C2693 1.363 . S
C2698 C2697 1.415 . S
C2699 H2675 0.951 . S
C2699 C2700 1.366 . S
C2699 C2701 1.388 . S
C2700 C2699 1.366 . S
C2700 C2704 1.385 . S
C2701 H2676 0.951 . S
C2701 C2699 1.388 . S
C2701 C2702 1.366 . S
C2702 C2701 1.366 . S
C2702 C2703 1.414 . S
C2702 C2705 1.499 . S
C2703 H2677 0.950 . S
C2703 C2702 1.414 . S
C2703 C2704 1.374 . S
C2704 H2678 0.950 . S
C2704 C2700 1.385 . S
C2704 C2703 1.374 . S
C2705 C2702 1.499 . S
C2705 C2706 1.373 . S
C2705 C2707 1.389 . S
C2706 H2679 0.950 . S
C2706 C2692 1.377 . S
C2706 C2705 1.373 . S
C2707 C2691 1.377 . S
C2707 C2705 1.389 . S
C2707 C2708 1.524 . S
C2708 C2707 1.524 . S
C2708 C2709 1.397 . S
C2708 C2713 1.363 . S
C2709 H2680 0.950 . S
C2709 C2708 1.397 . S
C2709 C2710 1.334 . S
C2710 H2681 0.950 . S
C2710 C2709 1.334 . S
C2710 C2711 1.287 . S
C2711 C2710 1.287 . S
C2711 C2712 1.524 . S
C2711 H2714 0.999 . S
C2712 H2682 0.950 . S
C2712 C2711 1.524 . S
C2712 C2713 1.415 . S
C2713 H2683 0.950 . S
C2713 C2708 1.363 . S
C2713 C2712 1.415 . S
H2714 C2711 0.999 . S
H2715 C2696 0.913 . S
H2716 C2734 0.951 . S
H2717 C2736 0.951 . S
H2718 C2738 0.950 . S
H2719 C2739 0.950 . S
H2720 C2741 0.950 . S
H2721 C2744 0.950 . S
H2722 C2745 0.950 . S
H2723 C2747 0.950 . S
H2724 C2748 0.950 . S
H2725 C2749 0.951 . S
H2726 C2751 0.951 . S
H2727 C2753 0.950 . S
H2728 C2754 0.950 . S
H2729 C2756 0.950 . S
H2730 C2759 0.950 . S
H2731 C2760 0.950 . S
H2732 C2762 0.950 . S
H2733 C2763 0.950 . S
C2734 H2716 0.951 . S
C2734 C2735 1.366 . S
C2734 C2736 1.388 . S
C2735 C2734 1.366 . S
C2735 C2739 1.385 . S
C2736 H2717 0.951 . S
C2736 C2734 1.388 . S
C2736 C2737 1.366 . S
C2737 C2736 1.366 . S
C2737 C2738 1.414 . S
C2737 C2740 1.499 . S
C2738 H2718 0.950 . S
C2738 C2737 1.414 . S
C2738 C2739 1.374 . S
C2739 H2719 0.950 . S
C2739 C2735 1.385 . S
C2739 C2738 1.374 . S
C2740 C2737 1.499 . S
C2740 C2741 1.373 . S
C2740 C2742 1.389 . S
C2741 H2720 0.950 . S
C2741 C2740 1.373 . S
C2741 C2757 1.377 . S
C2742 C2740 1.389 . S
C2742 C2743 1.524 . S
C2742 C2756 1.377 . S
C2743 C2742 1.524 . S
C2743 C2744 1.397 . S
C2743 C2748 1.363 . S
C2744 H2721 0.950 . S
C2744 C2743 1.397 . S
C2744 C2745 1.334 . S
C2745 H2722 0.950 . S
C2745 C2744 1.334 . S
C2745 C2746 1.287 . S
C2746 C2745 1.287 . S
C2746 C2747 1.524 . S
C2746 H2765 0.913 . S
C2747 H2723 0.950 . S
C2747 C2746 1.524 . S
C2747 C2748 1.415 . S
C2748 H2724 0.950 . S
C2748 C2743 1.363 . S
C2748 C2747 1.415 . S
C2749 H2725 0.951 . S
C2749 C2750 1.366 . S
C2749 C2751 1.388 . S
C2750 C2749 1.366 . S
C2750 C2754 1.385 . S
C2751 H2726 0.951 . S
C2751 C2749 1.388 . S
C2751 C2752 1.366 . S
C2752 C2751 1.366 . S
C2752 C2753 1.414 . S
C2752 C2755 1.499 . S
C2753 H2727 0.950 . S
C2753 C2752 1.414 . S
C2753 C2754 1.374 . S
C2754 H2728 0.950 . S
C2754 C2750 1.385 . S
C2754 C2753 1.374 . S
C2755 C2752 1.499 . S
C2755 C2756 1.373 . S
C2755 C2757 1.389 . S
C2756 H2729 0.950 . S
C2756 C2742 1.377 . S
C2756 C2755 1.373 . S
C2757 C2741 1.377 . S
C2757 C2755 1.389 . S
C2757 C2758 1.524 . S
C2758 C2757 1.524 . S
C2758 C2759 1.397 . S
C2758 C2763 1.363 . S
C2759 H2730 0.950 . S
C2759 C2758 1.397 . S
C2759 C2760 1.334 . S
C2760 H2731 0.950 . S
C2760 C2759 1.334 . S
C2760 C2761 1.287 . S
C2761 C2760 1.287 . S
C2761 C2762 1.524 . S
C2761 H2764 0.999 . S
C2762 H2732 0.950 . S
C2762 C2761 1.524 . S
C2762 C2763 1.415 . S
C2763 H2733 0.950 . S
C2763 C2758 1.363 . S
C2763 C2762 1.415 . S
H2764 C2761 0.999 . S
H2765 C2746 0.913 . S
H2766 C2784 0.951 . S
H2767 C2786 0.951 . S
H2768 C2788 0.950 . S
H2769 C2789 0.950 . S
H2770 C2791 0.950 . S
H2771 C2794 0.950 . S
H2772 C2795 0.950 . S
H2773 C2797 0.950 . S
H2774 C2798 0.950 . S
H2775 C2799 0.951 . S
H2776 C2801 0.951 . S
H2777 C2803 0.950 . S
H2778 C2804 0.950 . S
H2779 C2806 0.950 . S
H2780 C2809 0.950 . S
H2781 C2810 0.950 . S
H2782 C2812 0.950 . S
H2783 C2813 0.950 . S
C2784 H2766 0.951 . S
C2784 C2785 1.366 . S
C2784 C2786 1.388 . S
C2785 C2784 1.366 . S
C2785 C2789 1.385 . S
C2786 H2767 0.951 . S
C2786 C2784 1.388 . S
C2786 C2787 1.366 . S
C2787 C2786 1.366 . S
C2787 C2788 1.414 . S
C2787 C2790 1.499 . S
C2788 H2768 0.950 . S
C2788 C2787 1.414 . S
C2788 C2789 1.374 . S
C2789 H2769 0.950 . S
C2789 C2785 1.385 . S
C2789 C2788 1.374 . S
C2790 C2787 1.499 . S
C2790 C2791 1.373 . S
C2790 C2792 1.389 . S
C2791 H2770 0.950 . S
C2791 C2790 1.373 . S
C2791 C2807 1.377 . S
C2792 C2790 1.389 . S
C2792 C2793 1.524 . S
C2792 C2806 1.377 . S
C2793 C2792 1.524 . S
C2793 C2794 1.397 . S
C2793 C2798 1.363 . S
C2794 H2771 0.950 . S
C2794 C2793 1.397 . S
C2794 C2795 1.334 . S
C2795 H2772 0.950 . S
C2795 C2794 1.334 . S
C2795 C2796 1.287 . S
C2796 C2795 1.287 . S
C2796 C2797 1.524 . S
C2796 H2815 0.913 . S
C2797 H2773 0.950 . S
C2797 C2796 1.524 . S
C2797 C2798 1.415 . S
C2798 H2774 0.950 . S
C2798 C2793 1.363 . S
C2798 C2797 1.415 . S
C2799 H2775 0.951 . S
C2799 C2800 1.366 . S
C2799 C2801 1.388 . S
C2800 C2799 1.366 . S
C2800 C2804 1.385 . S
C2801 H2776 0.951 . S
C2801 C2799 1.388 . S
C2801 C2802 1.366 . S
C2802 C2801 1.366 . S
C2802 C2803 1.414 . S
C2802 C2805 1.499 . S
C2803 H2777 0.950 . S
C2803 C2802 1.414 . S
C2803 C2804 1.374 . S
C2804 H2778 0.950 . S
C2804 C2800 1.385 . S
C2804 C2803 1.374 . S
C2805 C2802 1.499 . S
C2805 C2806 1.373 . S
C2805 C2807 1.389 . S
C2806 H2779 0.950 . S
C2806 C2792 1.377 . S
C2806 C2805 1.373 . S
C2807 C2791 1.377 . S
C2807 C2805 1.389 . S
C2807 C2808 1.524 . S
C2808 C2807 1.524 . S
C2808 C2809 1.397 . S
C2808 C2813 1.363 . S
C2809 H2780 0.950 . S
C2809 C2808 1.397 . S
C2809 C2810 1.334 . S
C2810 H2781 0.950 . S
C2810 C2809 1.334 . S
C2810 C2811 1.287 . S
C2811 C2810 1.287 . S
C2811 C2812 1.524 . S
C2811 H2814 0.999 . S
C2812 H2782 0.950 . S
C2812 C2811 1.524 . S
C2812 C2813 1.415 . S
C2813 H2783 0.950 . S
C2813 C2808 1.363 . S
C2813 C2812 1.415 . S
H2814 C2811 0.999 . S
H2815 C2796 0.913 . S
H2816 C2834 0.951 . S
H2817 C2836 0.951 . S
H2818 C2838 0.950 . S
H2819 C2839 0.950 . S
H2820 C2841 0.950 . S
H2821 C2844 0.950 . S
H2822 C2845 0.950 . S
H2823 C2847 0.950 . S
H2824 C2848 0.950 . S
H2825 C2849 0.951 . S
H2826 C2851 0.951 . S
H2827 C2853 0.950 . S
H2828 C2854 0.950 . S
H2829 C2856 0.950 . S
H2830 C2859 0.950 . S
H2831 C2860 0.950 . S
H2832 C2862 0.950 . S
H2833 C2863 0.950 . S
C2834 H2816 0.951 . S
C2834 C2835 1.366 . S
C2834 C2836 1.388 . S
C2835 C2834 1.366 . S
C2835 C2839 1.385 . S
C2836 H2817 0.951 . S
C2836 C2834 1.388 . S
C2836 C2837 1.366 . S
C2837 C2836 1.366 . S
C2837 C2838 1.414 . S
C2837 C2840 1.499 . S
C2838 H2818 0.950 . S
C2838 C2837 1.414 . S
C2838 C2839 1.374 . S
C2839 H2819 0.950 . S
C2839 C2835 1.385 . S
C2839 C2838 1.374 . S
C2840 C2837 1.499 . S
C2840 C2841 1.373 . S
C2840 C2842 1.389 . S
C2841 H2820 0.950 . S
C2841 C2840 1.373 . S
C2841 C2857 1.377 . S
C2842 C2840 1.389 . S
C2842 C2843 1.524 . S
C2842 C2856 1.377 . S
C2843 C2842 1.524 . S
C2843 C2844 1.397 . S
C2843 C2848 1.363 . S
C2844 H2821 0.950 . S
C2844 C2843 1.397 . S
C2844 C2845 1.334 . S
C2845 H2822 0.950 . S
C2845 C2844 1.334 . S
C2845 C2846 1.287 . S
C2846 C2845 1.287 . S
C2846 C2847 1.524 . S
C2846 H2865 0.913 . S
C2847 H2823 0.950 . S
C2847 C2846 1.524 . S
C2847 C2848 1.415 . S
C2848 H2824 0.950 . S
C2848 C2843 1.363 . S
C2848 C2847 1.415 . S
C2849 H2825 0.951 . S
C2849 C2850 1.366 . S
C2849 C2851 1.388 . S
C2850 C2849 1.366 . S
C2850 C2854 1.385 . S
C2851 H2826 0.951 . S
C2851 C2849 1.388 . S
C2851 C2852 1.366 . S
C2852 C2851 1.366 . S
C2852 C2853 1.414 . S
C2852 C2855 1.499 . S
C2853 H2827 0.950 . S
C2853 C2852 1.414 . S
C2853 C2854 1.374 . S
C2854 H2828 0.950 . S
C2854 C2850 1.385 . S
C2854 C2853 1.374 . S
C2855 C2852 1.499 . S
C2855 C2856 1.373 . S
C2855 C2857 1.389 . S
C2856 H2829 0.950 . S
C2856 C2842 1.377 . S
C2856 C2855 1.373 . S
C2857 C2841 1.377 . S
C2857 C2855 1.389 . S
C2857 C2858 1.524 . S
C2858 C2857 1.524 . S
C2858 C2859 1.397 . S
C2858 C2863 1.363 . S
C2859 H2830 0.950 . S
C2859 C2858 1.397 . S
C2859 C2860 1.334 . S
C2860 H2831 0.950 . S
C2860 C2859 1.334 . S
C2860 C2861 1.287 . S
C2861 C2860 1.287 . S
C2861 C2862 1.524 . S
C2861 H2864 0.999 . S
C2862 H2832 0.950 . S
C2862 C2861 1.524 . S
C2862 C2863 1.415 . S
C2863 H2833 0.950 . S
C2863 C2858 1.363 . S
C2863 C2862 1.415 . S
H2864 C2861 0.999 . S
H2865 C2846 0.913 . S
H2866 C2884 0.951 . S
H2867 C2886 0.951 . S
H2868 C2888 0.950 . S
H2869 C2889 0.950 . S
H2870 C2891 0.950 . S
H2871 C2894 0.950 . S
H2872 C2895 0.950 . S
H2873 C2897 0.950 . S
H2874 C2898 0.950 . S
H2875 C2899 0.951 . S
H2876 C2901 0.951 . S
H2877 C2903 0.950 . S
H2878 C2904 0.950 . S
H2879 C2906 0.950 . S
H2880 C2909 0.950 . S
H2881 C2910 0.950 . S
H2882 C2912 0.950 . S
H2883 C2913 0.950 . S
C2884 H2866 0.951 . S
C2884 C2885 1.366 . S
C2884 C2886 1.388 . S
C2885 C2884 1.366 . S
C2885 C2889 1.385 . S
C2886 H2867 0.951 . S
C2886 C2884 1.388 . S
C2886 C2887 1.366 . S
C2887 C2886 1.366 . S
C2887 C2888 1.414 . S
C2887 C2890 1.499 . S
C2888 H2868 0.950 . S
C2888 C2887 1.414 . S
C2888 C2889 1.374 . S
C2889 H2869 0.950 . S
C2889 C2885 1.385 . S
C2889 C2888 1.374 . S
C2890 C2887 1.499 . S
C2890 C2891 1.373 . S
C2890 C2892 1.389 . S
C2891 H2870 0.950 . S
C2891 C2890 1.373 . S
C2891 C2907 1.377 . S
C2892 C2890 1.389 . S
C2892 C2893 1.524 . S
C2892 C2906 1.377 . S
C2893 C2892 1.524 . S
C2893 C2894 1.397 . S
C2893 C2898 1.363 . S
C2894 H2871 0.950 . S
C2894 C2893 1.397 . S
C2894 C2895 1.334 . S
C2895 H2872 0.950 . S
C2895 C2894 1.334 . S
C2895 C2896 1.287 . S
C2896 C2895 1.287 . S
C2896 C2897 1.524 . S
C2896 H2915 0.913 . S
C2897 H2873 0.950 . S
C2897 C2896 1.524 . S
C2897 C2898 1.415 . S
C2898 H2874 0.950 . S
C2898 C2893 1.363 . S
C2898 C2897 1.415 . S
C2899 H2875 0.951 . S
C2899 C2900 1.366 . S
C2899 C2901 1.388 . S
C2900 C2899 1.366 . S
C2900 C2904 1.385 . S
C2901 H2876 0.951 . S
C2901 C2899 1.388 . S
C2901 C2902 1.366 . S
C2902 C2901 1.366 . S
C2902 C2903 1.414 . S
C2902 C2905 1.499 . S
C2903 H2877 0.950 . S
C2903 C2902 1.414 . S
C2903 C2904 1.374 . S
C2904 H2878 0.950 . S
C2904 C2900 1.385 . S
C2904 C2903 1.374 . S
C2905 C2902 1.499 . S
C2905 C2906 1.373 . S
C2905 C2907 1.389 . S
C2906 H2879 0.950 . S
C2906 C2892 1.377 . S
C2906 C2905 1.373 . S
C2907 C2891 1.377 . S
C2907 C2905 1.389 . S
C2907 C2908 1.524 . S
C2908 C2907 1.524 . S
C2908 C2909 1.397 . S
C2908 C2913 1.363 . S
C2909 H2880 0.950 . S
C2909 C2908 1.397 . S
C2909 C2910 1.334 . S
C2910 H2881 0.950 . S
C2910 C2909 1.334 . S
C2910 C2911 1.287 . S
C2911 C2910 1.287 . S
C2911 C2912 1.524 . S
C2911 H2914 0.999 . S
C2912 H2882 0.950 . S
C2912 C2911 1.524 . S
C2912 C2913 1.415 . S
C2913 H2883 0.950 . S
C2913 C2908 1.363 . S
C2913 C2912 1.415 . S
H2914 C2911 0.999 . S
H2915 C2896 0.913 . S
H2916 C2934 0.951 . S
H2917 C2936 0.951 . S
H2918 C2938 0.950 . S
H2919 C2939 0.950 . S
H2920 C2941 0.950 . S
H2921 C2944 0.950 . S
H2922 C2945 0.950 . S
H2923 C2947 0.950 . S
H2924 C2948 0.950 . S
H2925 C2949 0.951 . S
H2926 C2951 0.951 . S
H2927 C2953 0.950 . S
H2928 C2954 0.950 . S
H2929 C2956 0.950 . S
H2930 C2959 0.950 . S
H2931 C2960 0.950 . S
H2932 C2962 0.950 . S
H2933 C2963 0.950 . S
C2934 H2916 0.951 . S
C2934 C2935 1.366 . S
C2934 C2936 1.388 . S
C2935 C2934 1.366 . S
C2935 C2939 1.385 . S
C2936 H2917 0.951 . S
C2936 C2934 1.388 . S
C2936 C2937 1.366 . S
C2937 C2936 1.366 . S
C2937 C2938 1.414 . S
C2937 C2940 1.499 . S
C2938 H2918 0.950 . S
C2938 C2937 1.414 . S
C2938 C2939 1.374 . S
C2939 H2919 0.950 . S
C2939 C2935 1.385 . S
C2939 C2938 1.374 . S
C2940 C2937 1.499 . S
C2940 C2941 1.373 . S
C2940 C2942 1.389 . S
C2941 H2920 0.950 . S
C2941 C2940 1.373 . S
C2941 C2957 1.377 . S
C2942 C2940 1.389 . S
C2942 C2943 1.524 . S
C2942 C2956 1.377 . S
C2943 C2942 1.524 . S
C2943 C2944 1.397 . S
C2943 C2948 1.363 . S
C2944 H2921 0.950 . S
C2944 C2943 1.397 . S
C2944 C2945 1.334 . S
C2945 H2922 0.950 . S
C2945 C2944 1.334 . S
C2945 C2946 1.287 . S
C2946 C2945 1.287 . S
C2946 C2947 1.524 . S
C2946 H2965 0.913 . S
C2947 H2923 0.950 . S
C2947 C2946 1.524 . S
C2947 C2948 1.415 . S
C2948 H2924 0.950 . S
C2948 C2943 1.363 . S
C2948 C2947 1.415 . S
C2949 H2925 0.951 . S
C2949 C2950 1.366 . S
C2949 C2951 1.388 . S
C2950 C2949 1.366 . S
C2950 C2954 1.385 . S
C2951 H2926 0.951 . S
C2951 C2949 1.388 . S
C2951 C2952 1.366 . S
C2952 C2951 1.366 . S
C2952 C2953 1.414 . S
C2952 C2955 1.499 . S
C2953 H2927 0.950 . S
C2953 C2952 1.414 . S
C2953 C2954 1.374 . S
C2954 H2928 0.950 . S
C2954 C2950 1.385 . S
C2954 C2953 1.374 . S
C2955 C2952 1.499 . S
C2955 C2956 1.373 . S
C2955 C2957 1.389 . S
C2956 H2929 0.950 . S
C2956 C2942 1.377 . S
C2956 C2955 1.373 . S
C2957 C2941 1.377 . S
C2957 C2955 1.389 . S
C2957 C2958 1.524 . S
C2958 C2957 1.524 . S
C2958 C2959 1.397 . S
C2958 C2963 1.363 . S
C2959 H2930 0.950 . S
C2959 C2958 1.397 . S
C2959 C2960 1.334 . S
C2960 H2931 0.950 . S
C2960 C2959 1.334 . S
C2960 C2961 1.287 . S
C2961 C2960 1.287 . S
C2961 C2962 1.524 . S
C2961 H2964 0.999 . S
C2962 H2932 0.950 . S
C2962 C2961 1.524 . S
C2962 C2963 1.415 . S
C2963 H2933 0.950 . S
C2963 C2958 1.363 . S
C2963 C2962 1.415 . S
H2964 C2961 0.999 . S
H2965 C2946 0.913 . S
H2966 C2984 0.951 . S
H2967 C2986 0.951 . S
H2968 C2988 0.950 . S
H2969 C2989 0.950 . S
H2970 C2991 0.950 . S
H2971 C2994 0.950 . S
H2972 C2995 0.950 . S
H2973 C2997 0.950 . S
H2974 C2998 0.950 . S
H2975 C2999 0.951 . S
H2976 C3001 0.951 . S
H2977 C3003 0.950 . S
H2978 C3004 0.950 . S
H2979 C3006 0.950 . S
H2980 C3009 0.950 . S
H2981 C3010 0.950 . S
H2982 C3012 0.950 . S
H2983 C3013 0.950 . S
C2984 H2966 0.951 . S
C2984 C2985 1.366 . S
C2984 C2986 1.388 . S
C2985 C2984 1.366 . S
C2985 C2989 1.385 . S
C2986 H2967 0.951 . S
C2986 C2984 1.388 . S
C2986 C2987 1.366 . S
C2987 C2986 1.366 . S
C2987 C2988 1.414 . S
C2987 C2990 1.499 . S
C2988 H2968 0.950 . S
C2988 C2987 1.414 . S
C2988 C2989 1.374 . S
C2989 H2969 0.950 . S
C2989 C2985 1.385 . S
C2989 C2988 1.374 . S
C2990 C2987 1.499 . S
C2990 C2991 1.373 . S
C2990 C2992 1.389 . S
C2991 H2970 0.950 . S
C2991 C2990 1.373 . S
C2991 C3007 1.377 . S
C2992 C2990 1.389 . S
C2992 C2993 1.524 . S
C2992 C3006 1.377 . S
C2993 C2992 1.524 . S
C2993 C2994 1.397 . S
C2993 C2998 1.363 . S
C2994 H2971 0.950 . S
C2994 C2993 1.397 . S
C2994 C2995 1.334 . S
C2995 H2972 0.950 . S
C2995 C2994 1.334 . S
C2995 C2996 1.287 . S
C2996 C2995 1.287 . S
C2996 C2997 1.524 . S
C2996 H3015 0.913 . S
C2997 H2973 0.950 . S
C2997 C2996 1.524 . S
C2997 C2998 1.415 . S
C2998 H2974 0.950 . S
C2998 C2993 1.363 . S
C2998 C2997 1.415 . S
C2999 H2975 0.951 . S
C2999 C3000 1.366 . S
C2999 C3001 1.388 . S
C3000 C2999 1.366 . S
C3000 C3004 1.385 . S
C3001 H2976 0.951 . S
C3001 C2999 1.388 . S
C3001 C3002 1.366 . S
C3002 C3001 1.366 . S
C3002 C3003 1.414 . S
C3002 C3005 1.499 . S
C3003 H2977 0.950 . S
C3003 C3002 1.414 . S
C3003 C3004 1.374 . S
C3004 H2978 0.950 . S
C3004 C3000 1.385 . S
C3004 C3003 1.374 . S
C3005 C3002 1.499 . S
C3005 C3006 1.373 . S
C3005 C3007 1.389 . S
C3006 H2979 0.950 . S
C3006 C2992 1.377 . S
C3006 C3005 1.373 . S
C3007 C2991 1.377 . S
C3007 C3005 1.389 . S
C3007 C3008 1.524 . S
C3008 C3007 1.524 . S
C3008 C3009 1.397 . S
C3008 C3013 1.363 . S
C3009 H2980 0.950 . S
C3009 C3008 1.397 . S
C3009 C3010 1.334 . S
C3010 H2981 0.950 . S
C3010 C3009 1.334 . S
C3010 C3011 1.287 . S
C3011 C3010 1.287 . S
C3011 C3012 1.524 . S
C3011 H3014 0.999 . S
C3012 H2982 0.950 . S
C3012 C3011 1.524 . S
C3012 C3013 1.415 . S
C3013 H2983 0.950 . S
C3013 C3008 1.363 . S
C3013 C3012 1.415 . S
H3014 C3011 0.999 . S
H3015 C2996 0.913 . S
H3016 C3034 0.951 . S
H3017 C3036 0.951 . S
H3018 C3038 0.950 . S
H3019 C3039 0.950 . S
H3020 C3041 0.950 . S
H3021 C3044 0.950 . S
H3022 C3045 0.950 . S
H3023 C3047 0.950 . S
H3024 C3048 0.950 . S
H3025 C3049 0.951 . S
H3026 C3051 0.951 . S
H3027 C3053 0.950 . S
H3028 C3054 0.950 . S
H3029 C3056 0.950 . S
H3030 C3059 0.950 . S
H3031 C3060 0.950 . S
H3032 C3062 0.950 . S
H3033 C3063 0.950 . S
C3034 H3016 0.951 . S
C3034 C3035 1.366 . S
C3034 C3036 1.388 . S
C3035 C3034 1.366 . S
C3035 C3039 1.385 . S
C3036 H3017 0.951 . S
C3036 C3034 1.388 . S
C3036 C3037 1.366 . S
C3037 C3036 1.366 . S
C3037 C3038 1.414 . S
C3037 C3040 1.499 . S
C3038 H3018 0.950 . S
C3038 C3037 1.414 . S
C3038 C3039 1.374 . S
C3039 H3019 0.950 . S
C3039 C3035 1.385 . S
C3039 C3038 1.374 . S
C3040 C3037 1.499 . S
C3040 C3041 1.373 . S
C3040 C3042 1.389 . S
C3041 H3020 0.950 . S
C3041 C3040 1.373 . S
C3041 C3057 1.377 . S
C3042 C3040 1.389 . S
C3042 C3043 1.524 . S
C3042 C3056 1.377 . S
C3043 C3042 1.524 . S
C3043 C3044 1.397 . S
C3043 C3048 1.363 . S
C3044 H3021 0.950 . S
C3044 C3043 1.397 . S
C3044 C3045 1.334 . S
C3045 H3022 0.950 . S
C3045 C3044 1.334 . S
C3045 C3046 1.287 . S
C3046 C3045 1.287 . S
C3046 C3047 1.524 . S
C3046 H3065 0.913 . S
C3047 H3023 0.950 . S
C3047 C3046 1.524 . S
C3047 C3048 1.415 . S
C3048 H3024 0.950 . S
C3048 C3043 1.363 . S
C3048 C3047 1.415 . S
C3049 H3025 0.951 . S
C3049 C3050 1.366 . S
C3049 C3051 1.388 . S
C3050 C3049 1.366 . S
C3050 C3054 1.385 . S
C3051 H3026 0.951 . S
C3051 C3049 1.388 . S
C3051 C3052 1.366 . S
C3052 C3051 1.366 . S
C3052 C3053 1.414 . S
C3052 C3055 1.499 . S
C3053 H3027 0.950 . S
C3053 C3052 1.414 . S
C3053 C3054 1.374 . S
C3054 H3028 0.950 . S
C3054 C3050 1.385 . S
C3054 C3053 1.374 . S
C3055 C3052 1.499 . S
C3055 C3056 1.373 . S
C3055 C3057 1.389 . S
C3056 H3029 0.950 . S
C3056 C3042 1.377 . S
C3056 C3055 1.373 . S
C3057 C3041 1.377 . S
C3057 C3055 1.389 . S
C3057 C3058 1.524 . S
C3058 C3057 1.524 . S
C3058 C3059 1.397 . S
C3058 C3063 1.363 . S
C3059 H3030 0.950 . S
C3059 C3058 1.397 . S
C3059 C3060 1.334 . S
C3060 H3031 0.950 . S
C3060 C3059 1.334 . S
C3060 C3061 1.287 . S
C3061 C3060 1.287 . S
C3061 C3062 1.524 . S
C3061 H3064 0.999 . S
C3062 H3032 0.950 . S
C3062 C3061 1.524 . S
C3062 C3063 1.415 . S
C3063 H3033 0.950 . S
C3063 C3058 1.363 . S
C3063 C3062 1.415 . S
H3064 C3061 0.999 . S
H3065 C3046 0.913 . S
H3066 C3084 0.951 . S
H3067 C3086 0.951 . S
H3068 C3088 0.950 . S
H3069 C3089 0.950 . S
H3070 C3091 0.950 . S
H3071 C3094 0.950 . S
H3072 C3095 0.950 . S
H3073 C3097 0.950 . S
H3074 C3098 0.950 . S
H3075 C3099 0.951 . S
H3076 C3101 0.951 . S
H3077 C3103 0.950 . S
H3078 C3104 0.950 . S
H3079 C3106 0.950 . S
H3080 C3109 0.950 . S
H3081 C3110 0.950 . S
H3082 C3112 0.950 . S
H3083 C3113 0.950 . S
C3084 H3066 0.951 . S
C3084 C3085 1.366 . S
C3084 C3086 1.388 . S
C3085 C3084 1.366 . S
C3085 C3089 1.385 . S
C3086 H3067 0.951 . S
C3086 C3084 1.388 . S
C3086 C3087 1.366 . S
C3087 C3086 1.366 . S
C3087 C3088 1.414 . S
C3087 C3090 1.499 . S
C3088 H3068 0.950 . S
C3088 C3087 1.414 . S
C3088 C3089 1.374 . S
C3089 H3069 0.950 . S
C3089 C3085 1.385 . S
C3089 C3088 1.374 . S
C3090 C3087 1.499 . S
C3090 C3091 1.373 . S
C3090 C3092 1.389 . S
C3091 H3070 0.950 . S
C3091 C3090 1.373 . S
C3091 C3107 1.377 . S
C3092 C3090 1.389 . S
C3092 C3093 1.524 . S
C3092 C3106 1.377 . S
C3093 C3092 1.524 . S
C3093 C3094 1.397 . S
C3093 C3098 1.363 . S
C3094 H3071 0.950 . S
C3094 C3093 1.397 . S
C3094 C3095 1.334 . S
C3095 H3072 0.950 . S
C3095 C3094 1.334 . S
C3095 C3096 1.287 . S
C3096 C3095 1.287 . S
C3096 C3097 1.524 . S
C3096 H3115 0.913 . S
C3097 H3073 0.950 . S
C3097 C3096 1.524 . S
C3097 C3098 1.415 . S
C3098 H3074 0.950 . S
C3098 C3093 1.363 . S
C3098 C3097 1.415 . S
C3099 H3075 0.951 . S
C3099 C3100 1.366 . S
C3099 C3101 1.388 . S
C3100 C3099 1.366 . S
C3100 C3104 1.385 . S
C3101 H3076 0.951 . S
C3101 C3099 1.388 . S
C3101 C3102 1.366 . S
C3102 C3101 1.366 . S
C3102 C3103 1.414 . S
C3102 C3105 1.499 . S
C3103 H3077 0.950 . S
C3103 C3102 1.414 . S
C3103 C3104 1.374 . S
C3104 H3078 0.950 . S
C3104 C3100 1.385 . S
C3104 C3103 1.374 . S
C3105 C3102 1.499 . S
C3105 C3106 1.373 . S
C3105 C3107 1.389 . S
C3106 H3079 0.950 . S
C3106 C3092 1.377 . S
C3106 C3105 1.373 . S
C3107 C3091 1.377 . S
C3107 C3105 1.389 . S
C3107 C3108 1.524 . S
C3108 C3107 1.524 . S
C3108 C3109 1.397 . S
C3108 C3113 1.363 . S
C3109 H3080 0.950 . S
C3109 C3108 1.397 . S
C3109 C3110 1.334 . S
C3110 H3081 0.950 . S
C3110 C3109 1.334 . S
C3110 C3111 1.287 . S
C3111 C3110 1.287 . S
C3111 C3112 1.524 . S
C3111 H3114 0.999 . S
C3112 H3082 0.950 . S
C3112 C3111 1.524 . S
C3112 C3113 1.415 . S
C3113 H3083 0.950 . S
C3113 C3108 1.363 . S
C3113 C3112 1.415 . S
H3114 C3111 0.999 . S
H3115 C3096 0.913 . S
H3116 C3134 0.951 . S
H3117 C3136 0.951 . S
H3118 C3138 0.950 . S
H3119 C3139 0.950 . S
H3120 C3141 0.950 . S
H3121 C3144 0.950 . S
H3122 C3145 0.950 . S
H3123 C3147 0.950 . S
H3124 C3148 0.950 . S
H3125 C3149 0.951 . S
H3126 C3151 0.951 . S
H3127 C3153 0.950 . S
H3128 C3154 0.950 . S
H3129 C3156 0.950 . S
H3130 C3159 0.950 . S
H3131 C3160 0.950 . S
H3132 C3162 0.950 . S
H3133 C3163 0.950 . S
C3134 H3116 0.951 . S
C3134 C3135 1.366 . S
C3134 C3136 1.388 . S
C3135 C3134 1.366 . S
C3135 C3139 1.385 . S
C3136 H3117 0.951 . S
C3136 C3134 1.388 . S
C3136 C3137 1.366 . S
C3137 C3136 1.366 . S
C3137 C3138 1.414 . S
C3137 C3140 1.499 . S
C3138 H3118 0.950 . S
C3138 C3137 1.414 . S
C3138 C3139 1.374 . S
C3139 H3119 0.950 . S
C3139 C3135 1.385 . S
C3139 C3138 1.374 . S
C3140 C3137 1.499 . S
C3140 C3141 1.373 . S
C3140 C3142 1.389 . S
C3141 H3120 0.950 . S
C3141 C3140 1.373 . S
C3141 C3157 1.377 . S
C3142 C3140 1.389 . S
C3142 C3143 1.524 . S
C3142 C3156 1.377 . S
C3143 C3142 1.524 . S
C3143 C3144 1.397 . S
C3143 C3148 1.363 . S
C3144 H3121 0.950 . S
C3144 C3143 1.397 . S
C3144 C3145 1.334 . S
C3145 H3122 0.950 . S
C3145 C3144 1.334 . S
C3145 C3146 1.287 . S
C3146 C3145 1.287 . S
C3146 C3147 1.524 . S
C3146 H3165 0.913 . S
C3147 H3123 0.950 . S
C3147 C3146 1.524 . S
C3147 C3148 1.415 . S
C3148 H3124 0.950 . S
C3148 C3143 1.363 . S
C3148 C3147 1.415 . S
C3149 H3125 0.951 . S
C3149 C3150 1.366 . S
C3149 C3151 1.388 . S
C3150 C3149 1.366 . S
C3150 C3154 1.385 . S
C3151 H3126 0.951 . S
C3151 C3149 1.388 . S
C3151 C3152 1.366 . S
C3152 C3151 1.366 . S
C3152 C3153 1.414 . S
C3152 C3155 1.499 . S
C3153 H3127 0.950 . S
C3153 C3152 1.414 . S
C3153 C3154 1.374 . S
C3154 H3128 0.950 . S
C3154 C3150 1.385 . S
C3154 C3153 1.374 . S
C3155 C3152 1.499 . S
C3155 C3156 1.373 . S
C3155 C3157 1.389 . S
C3156 H3129 0.950 . S
C3156 C3142 1.377 . S
C3156 C3155 1.373 . S
C3157 C3141 1.377 . S
C3157 C3155 1.389 . S
C3157 C3158 1.524 . S
C3158 C3157 1.524 . S
C3158 C3159 1.397 . S
C3158 C3163 1.363 . S
C3159 H3130 0.950 . S
C3159 C3158 1.397 . S
C3159 C3160 1.334 . S
C3160 H3131 0.950 . S
C3160 C3159 1.334 . S
C3160 C3161 1.287 . S
C3161 C3160 1.287 . S
C3161 C3162 1.524 . S
C3161 H3164 0.999 . S
C3162 H3132 0.950 . S
C3162 C3161 1.524 . S
C3162 C3163 1.415 . S
C3163 H3133 0.950 . S
C3163 C3158 1.363 . S
C3163 C3162 1.415 . S
H3164 C3161 0.999 . S
H3165 C3146 0.913 . S
H3166 C3184 0.951 . S
H3167 C3186 0.951 . S
H3168 C3188 0.950 . S
H3169 C3189 0.950 . S
H3170 C3191 0.950 . S
H3171 C3194 0.950 . S
H3172 C3195 0.950 . S
H3173 C3197 0.950 . S
H3174 C3198 0.950 . S
H3175 C3199 0.951 . S
H3176 C3201 0.951 . S
H3177 C3203 0.950 . S
H3178 C3204 0.950 . S
H3179 C3206 0.950 . S
H3180 C3209 0.950 . S
H3181 C3210 0.950 . S
H3182 C3212 0.950 . S
H3183 C3213 0.950 . S
C3184 H3166 0.951 . S
C3184 C3185 1.366 . S
C3184 C3186 1.388 . S
C3185 C3184 1.366 . S
C3185 C3189 1.385 . S
C3186 H3167 0.951 . S
C3186 C3184 1.388 . S
C3186 C3187 1.366 . S
C3187 C3186 1.366 . S
C3187 C3188 1.414 . S
C3187 C3190 1.499 . S
C3188 H3168 0.950 . S
C3188 C3187 1.414 . S
C3188 C3189 1.374 . S
C3189 H3169 0.950 . S
C3189 C3185 1.385 . S
C3189 C3188 1.374 . S
C3190 C3187 1.499 . S
C3190 C3191 1.373 . S
C3190 C3192 1.389 . S
C3191 H3170 0.950 . S
C3191 C3190 1.373 . S
C3191 C3207 1.377 . S
C3192 C3190 1.389 . S
C3192 C3193 1.524 . S
C3192 C3206 1.377 . S
C3193 C3192 1.524 . S
C3193 C3194 1.397 . S
C3193 C3198 1.363 . S
C3194 H3171 0.950 . S
C3194 C3193 1.397 . S
C3194 C3195 1.334 . S
C3195 H3172 0.950 . S
C3195 C3194 1.334 . S
C3195 C3196 1.287 . S
C3196 C3195 1.287 . S
C3196 C3197 1.524 . S
C3196 H3215 0.913 . S
C3197 H3173 0.950 . S
C3197 C3196 1.524 . S
C3197 C3198 1.415 . S
C3198 H3174 0.950 . S
C3198 C3193 1.363 . S
C3198 C3197 1.415 . S
C3199 H3175 0.951 . S
C3199 C3200 1.366 . S
C3199 C3201 1.388 . S
C3200 C3199 1.366 . S
C3200 C3204 1.385 . S
C3201 H3176 0.951 . S
C3201 C3199 1.388 . S
C3201 C3202 1.366 . S
C3202 C3201 1.366 . S
C3202 C3203 1.414 . S
C3202 C3205 1.499 . S
C3203 H3177 0.950 . S
C3203 C3202 1.414 . S
C3203 C3204 1.374 . S
C3204 H3178 0.950 . S
C3204 C3200 1.385 . S
C3204 C3203 1.374 . S
C3205 C3202 1.499 . S
C3205 C3206 1.373 . S
C3205 C3207 1.389 . S
C3206 H3179 0.950 . S
C3206 C3192 1.377 . S
C3206 C3205 1.373 . S
C3207 C3191 1.377 . S
C3207 C3205 1.389 . S
C3207 C3208 1.524 . S
C3208 C3207 1.524 . S
C3208 C3209 1.397 . S
C3208 C3213 1.363 . S
C3209 H3180 0.950 . S
C3209 C3208 1.397 . S
C3209 C3210 1.334 . S
C3210 H3181 0.950 . S
C3210 C3209 1.334 . S
C3210 C3211 1.287 . S
C3211 C3210 1.287 . S
C3211 C3212 1.524 . S
C3211 H3214 0.999 . S
C3212 H3182 0.950 . S
C3212 C3211 1.524 . S
C3212 C3213 1.415 . S
C3213 H3183 0.950 . S
C3213 C3208 1.363 . S
C3213 C3212 1.415 . S
H3214 C3211 0.999 . S
H3215 C3196 0.913 . S
H3216 C3234 0.951 . S
H3217 C3236 0.951 . S
H3218 C3238 0.950 . S
H3219 C3239 0.950 . S
H3220 C3241 0.950 . S
H3221 C3244 0.950 . S
H3222 C3245 0.950 . S
H3223 C3247 0.950 . S
H3224 C3248 0.950 . S
H3225 C3249 0.951 . S
H3226 C3251 0.951 . S
H3227 C3253 0.950 . S
H3228 C3254 0.950 . S
H3229 C3256 0.950 . S
H3230 C3259 0.950 . S
H3231 C3260 0.950 . S
H3232 C3262 0.950 . S
H3233 C3263 0.950 . S
C3234 H3216 0.951 . S
C3234 C3235 1.366 . S
C3234 C3236 1.388 . S
C3235 C3234 1.366 . S
C3235 C3239 1.385 . S
C3236 H3217 0.951 . S
C3236 C3234 1.388 . S
C3236 C3237 1.366 . S
C3237 C3236 1.366 . S
C3237 C3238 1.414 . S
C3237 C3240 1.499 . S
C3238 H3218 0.950 . S
C3238 C3237 1.414 . S
C3238 C3239 1.374 . S
C3239 H3219 0.950 . S
C3239 C3235 1.385 . S
C3239 C3238 1.374 . S
C3240 C3237 1.499 . S
C3240 C3241 1.373 . S
C3240 C3242 1.389 . S
C3241 H3220 0.950 . S
C3241 C3240 1.373 . S
C3241 C3257 1.377 . S
C3242 C3240 1.389 . S
C3242 C3243 1.524 . S
C3242 C3256 1.377 . S
C3243 C3242 1.524 . S
C3243 C3244 1.397 . S
C3243 C3248 1.363 . S
C3244 H3221 0.950 . S
C3244 C3243 1.397 . S
C3244 C3245 1.334 . S
C3245 H3222 0.950 . S
C3245 C3244 1.334 . S
C3245 C3246 1.287 . S
C3246 C3245 1.287 . S
C3246 C3247 1.524 . S
C3246 H3265 0.913 . S
C3247 H3223 0.950 . S
C3247 C3246 1.524 . S
C3247 C3248 1.415 . S
C3248 H3224 0.950 . S
C3248 C3243 1.363 . S
C3248 C3247 1.415 . S
C3249 H3225 0.951 . S
C3249 C3250 1.366 . S
C3249 C3251 1.388 . S
C3250 C3249 1.366 . S
C3250 C3254 1.385 . S
C3251 H3226 0.951 . S
C3251 C3249 1.388 . S
C3251 C3252 1.366 . S
C3252 C3251 1.366 . S
C3252 C3253 1.414 . S
C3252 C3255 1.499 . S
C3253 H3227 0.950 . S
C3253 C3252 1.414 . S
C3253 C3254 1.374 . S
C3254 H3228 0.950 . S
C3254 C3250 1.385 . S
C3254 C3253 1.374 . S
C3255 C3252 1.499 . S
C3255 C3256 1.373 . S
C3255 C3257 1.389 . S
C3256 H3229 0.950 . S
C3256 C3242 1.377 . S
C3256 C3255 1.373 . S
C3257 C3241 1.377 . S
C3257 C3255 1.389 . S
C3257 C3258 1.524 . S
C3258 C3257 1.524 . S
C3258 C3259 1.397 . S
C3258 C3263 1.363 . S
C3259 H3230 0.950 . S
C3259 C3258 1.397 . S
C3259 C3260 1.334 . S
C3260 H3231 0.950 . S
C3260 C3259 1.334 . S
C3260 C3261 1.287 . S
C3261 C3260 1.287 . S
C3261 C3262 1.524 . S
C3261 H3264 0.999 . S
C3262 H3232 0.950 . S
C3262 C3261 1.524 . S
C3262 C3263 1.415 . S
C3263 H3233 0.950 . S
C3263 C3258 1.363 . S
C3263 C3262 1.415 . S
H3264 C3261 0.999 . S
H3265 C3246 0.913 . S
H3266 C3284 0.951 . S
H3267 C3286 0.951 . S
H3268 C3288 0.950 . S
H3269 C3289 0.950 . S
H3270 C3291 0.950 . S
H3271 C3294 0.950 . S
H3272 C3295 0.950 . S
H3273 C3297 0.950 . S
H3274 C3298 0.950 . S
H3275 C3299 0.951 . S
H3276 C3301 0.951 . S
H3277 C3303 0.950 . S
H3278 C3304 0.950 . S
H3279 C3306 0.950 . S
H3280 C3309 0.950 . S
H3281 C3310 0.950 . S
H3282 C3312 0.950 . S
H3283 C3313 0.950 . S
C3284 H3266 0.951 . S
C3284 C3285 1.366 . S
C3284 C3286 1.388 . S
C3285 C3284 1.366 . S
C3285 C3289 1.385 . S
C3286 H3267 0.951 . S
C3286 C3284 1.388 . S
C3286 C3287 1.366 . S
C3287 C3286 1.366 . S
C3287 C3288 1.414 . S
C3287 C3290 1.499 . S
C3288 H3268 0.950 . S
C3288 C3287 1.414 . S
C3288 C3289 1.374 . S
C3289 H3269 0.950 . S
C3289 C3285 1.385 . S
C3289 C3288 1.374 . S
C3290 C3287 1.499 . S
C3290 C3291 1.373 . S
C3290 C3292 1.389 . S
C3291 H3270 0.950 . S
C3291 C3290 1.373 . S
C3291 C3307 1.377 . S
C3292 C3290 1.389 . S
C3292 C3293 1.524 . S
C3292 C3306 1.377 . S
C3293 C3292 1.524 . S
C3293 C3294 1.397 . S
C3293 C3298 1.363 . S
C3294 H3271 0.950 . S
C3294 C3293 1.397 . S
C3294 C3295 1.334 . S
C3295 H3272 0.950 . S
C3295 C3294 1.334 . S
C3295 C3296 1.287 . S
C3296 C3295 1.287 . S
C3296 C3297 1.524 . S
C3296 H3315 0.913 . S
C3297 H3273 0.950 . S
C3297 C3296 1.524 . S
C3297 C3298 1.415 . S
C3298 H3274 0.950 . S
C3298 C3293 1.363 . S
C3298 C3297 1.415 . S
C3299 H3275 0.951 . S
C3299 C3300 1.366 . S
C3299 C3301 1.388 . S
C3300 C3299 1.366 . S
C3300 C3304 1.385 . S
C3301 H3276 0.951 . S
C3301 C3299 1.388 . S
C3301 C3302 1.366 . S
C3302 C3301 1.366 . S
C3302 C3303 1.414 . S
C3302 C3305 1.499 . S
C3303 H3277 0.950 . S
C3303 C3302 1.414 . S
C3303 C3304 1.374 . S
C3304 H3278 0.950 . S
C3304 C3300 1.385 . S
C3304 C3303 1.374 . S
C3305 C3302 1.499 . S
C3305 C3306 1.373 . S
C3305 C3307 1.389 . S
C3306 H3279 0.950 . S
C3306 C3292 1.377 . S
C3306 C3305 1.373 . S
C3307 C3291 1.377 . S
C3307 C3305 1.389 . S
C3307 C3308 1.524 . S
C3308 C3307 1.524 . S
C3308 C3309 1.397 . S
C3308 C3313 1.363 . S
C3309 H3280 0.950 . S
C3309 C3308 1.397 . S
C3309 C3310 1.334 . S
C3310 H3281 0.950 . S
C3310 C3309 1.334 . S
C3310 C3311 1.287 . S
C3311 C3310 1.287 . S
C3311 C3312 1.524 . S
C3311 H3314 0.999 . S
C3312 H3282 0.950 . S
C3312 C3311 1.524 . S
C3312 C3313 1.415 . S
C3313 H3283 0.950 . S
C3313 C3308 1.363 . S
C3313 C3312 1.415 . S
H3314 C3311 0.999 . S
H3315 C3296 0.913 . S
H3316 C3334 0.951 . S
H3317 C3336 0.951 . S
H3318 C3338 0.950 . S
H3319 C3339 0.950 . S
H3320 C3341 0.950 . S
H3321 C3344 0.950 . S
H3322 C3345 0.950 . S
H3323 C3347 0.950 . S
H3324 C3348 0.950 . S
H3325 C3349 0.951 . S
H3326 C3351 0.951 . S
H3327 C3353 0.950 . S
H3328 C3354 0.950 . S
H3329 C3356 0.950 . S
H3330 C3359 0.950 . S
H3331 C3360 0.950 . S
H3332 C3362 0.950 . S
H3333 C3363 0.950 . S
C3334 H3316 0.951 . S
C3334 C3335 1.366 . S
C3334 C3336 1.388 . S
C3335 C3334 1.366 . S
C3335 C3339 1.385 . S
C3336 H3317 0.951 . S
C3336 C3334 1.388 . S
C3336 C3337 1.366 . S
C3337 C3336 1.366 . S
C3337 C3338 1.414 . S
C3337 C3340 1.499 . S
C3338 H3318 0.950 . S
C3338 C3337 1.414 . S
C3338 C3339 1.374 . S
C3339 H3319 0.950 . S
C3339 C3335 1.385 . S
C3339 C3338 1.374 . S
C3340 C3337 1.499 . S
C3340 C3341 1.373 . S
C3340 C3342 1.389 . S
C3341 H3320 0.950 . S
C3341 C3340 1.373 . S
C3341 C3357 1.377 . S
C3342 C3340 1.389 . S
C3342 C3343 1.524 . S
C3342 C3356 1.377 . S
C3343 C3342 1.524 . S
C3343 C3344 1.397 . S
C3343 C3348 1.363 . S
C3344 H3321 0.950 . S
C3344 C3343 1.397 . S
C3344 C3345 1.334 . S
C3345 H3322 0.950 . S
C3345 C3344 1.334 . S
C3345 C3346 1.287 . S
C3346 C3345 1.287 . S
C3346 C3347 1.524 . S
C3346 H3365 0.913 . S
C3347 H3323 0.950 . S
C3347 C3346 1.524 . S
C3347 C3348 1.415 . S
C3348 H3324 0.950 . S
C3348 C3343 1.363 . S
C3348 C3347 1.415 . S
C3349 H3325 0.951 . S
C3349 C3350 1.366 . S
C3349 C3351 1.388 . S
C3350 C3349 1.366 . S
C3350 C3354 1.385 . S
C3351 H3326 0.951 . S
C3351 C3349 1.388 . S
C3351 C3352 1.366 . S
C3352 C3351 1.366 . S
C3352 C3353 1.414 . S
C3352 C3355 1.499 . S
C3353 H3327 0.950 . S
C3353 C3352 1.414 . S
C3353 C3354 1.374 . S
C3354 H3328 0.950 . S
C3354 C3350 1.385 . S
C3354 C3353 1.374 . S
C3355 C3352 1.499 . S
C3355 C3356 1.373 . S
C3355 C3357 1.389 . S
C3356 H3329 0.950 . S
C3356 C3342 1.377 . S
C3356 C3355 1.373 . S
C3357 C3341 1.377 . S
C3357 C3355 1.389 . S
C3357 C3358 1.524 . S
C3358 C3357 1.524 . S
C3358 C3359 1.397 . S
C3358 C3363 1.363 . S
C3359 H3330 0.950 . S
C3359 C3358 1.397 . S
C3359 C3360 1.334 . S
C3360 H3331 0.950 . S
C3360 C3359 1.334 . S
C3360 C3361 1.287 . S
C3361 C3360 1.287 . S
C3361 C3362 1.524 . S
C3361 H3364 0.999 . S
C3362 H3332 0.950 . S
C3362 C3361 1.524 . S
C3362 C3363 1.415 . S
C3363 H3333 0.950 . S
C3363 C3358 1.363 . S
C3363 C3362 1.415 . S
H3364 C3361 0.999 . S
H3365 C3346 0.913 . S
H3366 C3384 0.951 . S
H3367 C3386 0.951 . S
H3368 C3388 0.950 . S
H3369 C3389 0.950 . S
H3370 C3391 0.950 . S
H3371 C3394 0.950 . S
H3372 C3395 0.950 . S
H3373 C3397 0.950 . S
H3374 C3398 0.950 . S
H3375 C3399 0.951 . S
H3376 C3401 0.951 . S
H3377 C3403 0.950 . S
H3378 C3404 0.950 . S
H3379 C3406 0.950 . S
H3380 C3409 0.950 . S
H3381 C3410 0.950 . S
H3382 C3412 0.950 . S
H3383 C3413 0.950 . S
C3384 H3366 0.951 . S
C3384 C3385 1.366 . S
C3384 C3386 1.388 . S
C3385 C3384 1.366 . S
C3385 C3389 1.385 . S
C3386 H3367 0.951 . S
C3386 C3384 1.388 . S
C3386 C3387 1.366 . S
C3387 C3386 1.366 . S
C3387 C3388 1.414 . S
C3387 C3390 1.499 . S
C3388 H3368 0.950 . S
C3388 C3387 1.414 . S
C3388 C3389 1.374 . S
C3389 H3369 0.950 . S
C3389 C3385 1.385 . S
C3389 C3388 1.374 . S
C3390 C3387 1.499 . S
C3390 C3391 1.373 . S
C3390 C3392 1.389 . S
C3391 H3370 0.950 . S
C3391 C3390 1.373 . S
C3391 C3407 1.377 . S
C3392 C3390 1.389 . S
C3392 C3393 1.524 . S
C3392 C3406 1.377 . S
C3393 C3392 1.524 . S
C3393 C3394 1.397 . S
C3393 C3398 1.363 . S
C3394 H3371 0.950 . S
C3394 C3393 1.397 . S
C3394 C3395 1.334 . S
C3395 H3372 0.950 . S
C3395 C3394 1.334 . S
C3395 C3396 1.287 . S
C3396 C3395 1.287 . S
C3396 C3397 1.524 . S
C3396 H3415 0.913 . S
C3397 H3373 0.950 . S
C3397 C3396 1.524 . S
C3397 C3398 1.415 . S
C3398 H3374 0.950 . S
C3398 C3393 1.363 . S
C3398 C3397 1.415 . S
C3399 H3375 0.951 . S
C3399 C3400 1.366 . S
C3399 C3401 1.388 . S
C3400 C3399 1.366 . S
C3400 C3404 1.385 . S
C3401 H3376 0.951 . S
C3401 C3399 1.388 . S
C3401 C3402 1.366 . S
C3402 C3401 1.366 . S
C3402 C3403 1.414 . S
C3402 C3405 1.499 . S
C3403 H3377 0.950 . S
C3403 C3402 1.414 . S
C3403 C3404 1.374 . S
C3404 H3378 0.950 . S
C3404 C3400 1.385 . S
C3404 C3403 1.374 . S
C3405 C3402 1.499 . S
C3405 C3406 1.373 . S
C3405 C3407 1.389 . S
C3406 H3379 0.950 . S
C3406 C3392 1.377 . S
C3406 C3405 1.373 . S
C3407 C3391 1.377 . S
C3407 C3405 1.389 . S
C3407 C3408 1.524 . S
C3408 C3407 1.524 . S
C3408 C3409 1.397 . S
C3408 C3413 1.363 . S
C3409 H3380 0.950 . S
C3409 C3408 1.397 . S
C3409 C3410 1.334 . S
C3410 H3381 0.950 . S
C3410 C3409 1.334 . S
C3410 C3411 1.287 . S
C3411 C3410 1.287 . S
C3411 C3412 1.524 . S
C3411 H3414 0.999 . S
C3412 H3382 0.950 . S
C3412 C3411 1.524 . S
C3412 C3413 1.415 . S
C3413 H3383 0.950 . S
C3413 C3408 1.363 . S
C3413 C3412 1.415 . S
H3414 C3411 0.999 . S
H3415 C3396 0.913 . S
H3416 C3434 0.951 . S
H3417 C3436 0.951 . S
H3418 C3438 0.950 . S
H3419 C3439 0.950 . S
H3420 C3441 0.950 . S
H3421 C3444 0.950 . S
H3422 C3445 0.950 . S
H3423 C3447 0.950 . S
H3424 C3448 0.950 . S
H3425 C3449 0.951 . S
H3426 C3451 0.951 . S
H3427 C3453 0.950 . S
H3428 C3454 0.950 . S
H3429 C3456 0.950 . S
H3430 C3459 0.950 . S
H3431 C3460 0.950 . S
H3432 C3462 0.950 . S
H3433 C3463 0.950 . S
C3434 H3416 0.951 . S
C3434 C3435 1.366 . S
C3434 C3436 1.388 . S
C3435 C3434 1.366 . S
C3435 C3439 1.385 . S
C3436 H3417 0.951 . S
C3436 C3434 1.388 . S
C3436 C3437 1.366 . S
C3437 C3436 1.366 . S
C3437 C3438 1.414 . S
C3437 C3440 1.499 . S
C3438 H3418 0.950 . S
C3438 C3437 1.414 . S
C3438 C3439 1.374 . S
C3439 H3419 0.950 . S
C3439 C3435 1.385 . S
C3439 C3438 1.374 . S
C3440 C3437 1.499 . S
C3440 C3441 1.373 . S
C3440 C3442 1.389 . S
C3441 H3420 0.950 . S
C3441 C3440 1.373 . S
C3441 C3457 1.377 . S
C3442 C3440 1.389 . S
C3442 C3443 1.524 . S
C3442 C3456 1.377 . S
C3443 C3442 1.524 . S
C3443 C3444 1.397 . S
C3443 C3448 1.363 . S
C3444 H3421 0.950 . S
C3444 C3443 1.397 . S
C3444 C3445 1.334 . S
C3445 H3422 0.950 . S
C3445 C3444 1.334 . S
C3445 C3446 1.287 . S
C3446 C3445 1.287 . S
C3446 C3447 1.524 . S
C3446 H3465 0.913 . S
C3447 H3423 0.950 . S
C3447 C3446 1.524 . S
C3447 C3448 1.415 . S
C3448 H3424 0.950 . S
C3448 C3443 1.363 . S
C3448 C3447 1.415 . S
C3449 H3425 0.951 . S
C3449 C3450 1.366 . S
C3449 C3451 1.388 . S
C3450 C3449 1.366 . S
C3450 C3454 1.385 . S
C3451 H3426 0.951 . S
C3451 C3449 1.388 . S
C3451 C3452 1.366 . S
C3452 C3451 1.366 . S
C3452 C3453 1.414 . S
C3452 C3455 1.499 . S
C3453 H3427 0.950 . S
C3453 C3452 1.414 . S
C3453 C3454 1.374 . S
C3454 H3428 0.950 . S
C3454 C3450 1.385 . S
C3454 C3453 1.374 . S
C3455 C3452 1.499 . S
C3455 C3456 1.373 . S
C3455 C3457 1.389 . S
C3456 H3429 0.950 . S
C3456 C3442 1.377 . S
C3456 C3455 1.373 . S
C3457 C3441 1.377 . S
C3457 C3455 1.389 . S
C3457 C3458 1.524 . S
C3458 C3457 1.524 . S
C3458 C3459 1.397 . S
C3458 C3463 1.363 . S
C3459 H3430 0.950 . S
C3459 C3458 1.397 . S
C3459 C3460 1.334 . S
C3460 H3431 0.950 . S
C3460 C3459 1.334 . S
C3460 C3461 1.287 . S
C3461 C3460 1.287 . S
C3461 C3462 1.524 . S
C3461 H3464 0.999 . S
C3462 H3432 0.950 . S
C3462 C3461 1.524 . S
C3462 C3463 1.415 . S
C3463 H3433 0.950 . S
C3463 C3458 1.363 . S
C3463 C3462 1.415 . S
H3464 C3461 0.999 . S
H3465 C3446 0.913 . S
H3466 C3484 0.951 . S
H3467 C3486 0.951 . S
H3468 C3488 0.950 . S
H3469 C3489 0.950 . S
H3470 C3491 0.950 . S
H3471 C3494 0.950 . S
H3472 C3495 0.950 . S
H3473 C3497 0.950 . S
H3474 C3498 0.950 . S
H3475 C3499 0.951 . S
H3476 C3501 0.951 . S
H3477 C3503 0.950 . S
H3478 C3504 0.950 . S
H3479 C3506 0.950 . S
H3480 C3509 0.950 . S
H3481 C3510 0.950 . S
H3482 C3512 0.950 . S
H3483 C3513 0.950 . S
C3484 H3466 0.951 . S
C3484 C3485 1.366 . S
C3484 C3486 1.388 . S
C3485 C3484 1.366 . S
C3485 C3489 1.385 . S
C3486 H3467 0.951 . S
C3486 C3484 1.388 . S
C3486 C3487 1.366 . S
C3487 C3486 1.366 . S
C3487 C3488 1.414 . S
C3487 C3490 1.499 . S
C3488 H3468 0.950 . S
C3488 C3487 1.414 . S
C3488 C3489 1.374 . S
C3489 H3469 0.950 . S
C3489 C3485 1.385 . S
C3489 C3488 1.374 . S
C3490 C3487 1.499 . S
C3490 C3491 1.373 . S
C3490 C3492 1.389 . S
C3491 H3470 0.950 . S
C3491 C3490 1.373 . S
C3491 C3507 1.377 . S
C3492 C3490 1.389 . S
C3492 C3493 1.524 . S
C3492 C3506 1.377 . S
C3493 C3492 1.524 . S
C3493 C3494 1.397 . S
C3493 C3498 1.363 . S
C3494 H3471 0.950 . S
C3494 C3493 1.397 . S
C3494 C3495 1.334 . S
C3495 H3472 0.950 . S
C3495 C3494 1.334 . S
C3495 C3496 1.287 . S
C3496 C3495 1.287 . S
C3496 C3497 1.524 . S
C3496 H3515 0.913 . S
C3497 H3473 0.950 . S
C3497 C3496 1.524 . S
C3497 C3498 1.415 . S
C3498 H3474 0.950 . S
C3498 C3493 1.363 . S
C3498 C3497 1.415 . S
C3499 H3475 0.951 . S
C3499 C3500 1.366 . S
C3499 C3501 1.388 . S
C3500 C3499 1.366 . S
C3500 C3504 1.385 . S
C3501 H3476 0.951 . S
C3501 C3499 1.388 . S
C3501 C3502 1.366 . S
C3502 C3501 1.366 . S
C3502 C3503 1.414 . S
C3502 C3505 1.499 . S
C3503 H3477 0.950 . S
C3503 C3502 1.414 . S
C3503 C3504 1.374 . S
C3504 H3478 0.950 . S
C3504 C3500 1.385 . S
C3504 C3503 1.374 . S
C3505 C3502 1.499 . S
C3505 C3506 1.373 . S
C3505 C3507 1.389 . S
C3506 H3479 0.950 . S
C3506 C3492 1.377 . S
C3506 C3505 1.373 . S
C3507 C3491 1.377 . S
C3507 C3505 1.389 . S
C3507 C3508 1.524 . S
C3508 C3507 1.524 . S
C3508 C3509 1.397 . S
C3508 C3513 1.363 . S
C3509 H3480 0.950 . S
C3509 C3508 1.397 . S
C3509 C3510 1.334 . S
C3510 H3481 0.950 . S
C3510 C3509 1.334 . S
C3510 C3511 1.287 . S
C3511 C3510 1.287 . S
C3511 C3512 1.524 . S
C3511 H3514 0.999 . S
C3512 H3482 0.950 . S
C3512 C3511 1.524 . S
C3512 C3513 1.415 . S
C3513 H3483 0.950 . S
C3513 C3508 1.363 . S
C3513 C3512 1.415 . S
H3514 C3511 0.999 . S
H3515 C3496 0.913 . S
H3516 C3534 0.949 . S
H3517 C3536 0.951 . S
H3518 C3538 0.950 . S
H3519 C3539 0.950 . S
H3520 C3541 0.950 . S
H3521 C3544 0.950 . S
H3522 C3545 0.960 . S
H3523 C3547 0.950 . S
H3524 C3548 0.950 . S
H3525 C3549 0.951 . S
H3526 C3551 0.951 . S
H3527 C3553 0.950 . S
H3528 C3554 0.950 . S
H3529 C3556 0.950 . S
H3530 C3559 0.950 . S
H3531 C3560 0.950 . S
H3532 C3562 0.950 . S
H3533 C3563 0.950 . S
C3534 H3516 0.949 . S
C3534 C3535 1.366 1_554 S
C3534 C3536 1.389 1_554 S
C3535 C3534 1.366 1_556 S
C3535 C3539 1.385 . S
C3536 H3517 0.951 . S
C3536 C3534 1.389 1_556 S
C3536 C3537 1.366 . S
C3537 C3536 1.366 . S
C3537 C3538 1.414 . S
C3537 C3540 1.499 . S
C3538 H3518 0.950 . S
C3538 C3537 1.414 . S
C3538 C3539 1.374 . S
C3539 H3519 0.950 . S
C3539 C3535 1.385 . S
C3539 C3538 1.374 . S
C3540 C3537 1.499 . S
C3540 C3541 1.373 . S
C3540 C3542 1.389 . S
C3541 H3520 0.950 . S
C3541 C3540 1.373 . S
C3541 C3557 1.377 . S
C3542 C3540 1.389 . S
C3542 C3543 1.524 . S
C3542 C3556 1.377 . S
C3543 C3542 1.524 . S
C3543 C3544 1.397 . S
C3543 C3548 1.363 . S
C3544 H3521 0.950 . S
C3544 C3543 1.397 . S
C3544 C3545 1.334 . S
C3545 H3522 0.960 . S
C3545 C3544 1.334 . S
C3545 C3546 1.287 . S
C3546 C3545 1.287 . S
C3546 C3547 1.524 . S
C3546 H3565 0.913 1_545 S
C3547 H3523 0.950 . S
C3547 C3546 1.524 . S
C3547 C3548 1.415 . S
C3548 H3524 0.950 . S
C3548 C3543 1.363 . S
C3548 C3547 1.415 . S
C3549 H3525 0.951 . S
C3549 C3550 1.366 . S
C3549 C3551 1.388 . S
C3550 C3549 1.366 . S
C3550 C3554 1.385 . S
C3551 H3526 0.951 . S
C3551 C3549 1.388 . S
C3551 C3552 1.366 . S
C3552 C3551 1.366 . S
C3552 C3553 1.414 . S
C3552 C3555 1.499 . S
C3553 H3527 0.950 . S
C3553 C3552 1.414 . S
C3553 C3554 1.374 . S
C3554 H3528 0.950 . S
C3554 C3550 1.385 . S
C3554 C3553 1.374 . S
C3555 C3552 1.499 . S
C3555 C3556 1.373 . S
C3555 C3557 1.389 . S
C3556 H3529 0.950 . S
C3556 C3542 1.377 . S
C3556 C3555 1.373 . S
C3557 C3541 1.377 . S
C3557 C3555 1.389 . S
C3557 C3558 1.524 . S
C3558 C3557 1.524 . S
C3558 C3559 1.397 . S
C3558 C3563 1.363 . S
C3559 H3530 0.950 . S
C3559 C3558 1.397 . S
C3559 C3560 1.334 . S
C3560 H3531 0.950 . S
C3560 C3559 1.334 . S
C3560 C3561 1.287 . S
C3561 C3560 1.287 . S
C3561 C3562 1.524 . S
C3561 H3564 0.999 . S
C3562 H3532 0.950 . S
C3562 C3561 1.524 . S
C3562 C3563 1.415 . S
C3563 H3533 0.950 . S
C3563 C3558 1.363 . S
C3563 C3562 1.415 . S
H3564 C3561 0.999 . S
H3565 C3546 0.913 1_565 S
H3566 C3584 0.951 1_554 S
H3567 C3586 0.951 . S
H3568 C3588 0.950 . S
H3569 C3589 0.950 . S
H3570 C3591 0.950 . S
H3571 C3594 0.950 . S
H3572 C3595 0.950 . S
H3573 C3597 0.956 . S
H3574 C3598 0.950 . S
H3575 C3599 0.951 . S
H3576 C3601 0.951 . S
H3577 C3603 0.950 . S
H3578 C3604 0.950 . S
H3579 C3606 0.950 . S
H3580 C3609 0.950 . S
H3581 C3610 0.950 . S
H3582 C3612 0.950 . S
H3583 C3613 0.950 . S
C3584 H3566 0.951 1_556 S
C3584 C3585 1.366 . S
C3584 C3586 1.388 . S
C3585 C3584 1.366 . S
C3585 C3589 1.385 . S
C3586 H3567 0.951 . S
C3586 C3584 1.388 . S
C3586 C3587 1.366 . S
C3587 C3586 1.366 . S
C3587 C3588 1.414 . S
C3587 C3590 1.499 . S
C3588 H3568 0.950 . S
C3588 C3587 1.414 . S
C3588 C3589 1.374 . S
C3589 H3569 0.950 . S
C3589 C3585 1.385 . S
C3589 C3588 1.374 . S
C3590 C3587 1.499 . S
C3590 C3591 1.373 . S
C3590 C3592 1.389 . S
C3591 H3570 0.950 . S
C3591 C3590 1.373 . S
C3591 C3607 1.377 . S
C3592 C3590 1.389 . S
C3592 C3593 1.524 . S
C3592 C3606 1.377 . S
C3593 C3592 1.524 . S
C3593 C3594 1.397 . S
C3593 C3598 1.363 . S
C3594 H3571 0.950 . S
C3594 C3593 1.397 . S
C3594 C3595 1.334 . S
C3595 H3572 0.950 . S
C3595 C3594 1.334 . S
C3595 C3596 1.287 . S
C3596 C3595 1.287 . S
C3596 C3597 1.524 . S
C3596 H3615 0.913 . S
C3597 H3573 0.956 . S
C3597 C3596 1.524 . S
C3597 C3598 1.415 . S
C3598 H3574 0.950 . S
C3598 C3593 1.363 . S
C3598 C3597 1.415 . S
C3599 H3575 0.951 . S
C3599 C3600 1.366 . S
C3599 C3601 1.388 . S
C3600 C3599 1.366 . S
C3600 C3604 1.385 . S
C3601 H3576 0.951 . S
C3601 C3599 1.388 . S
C3601 C3602 1.366 . S
C3602 C3601 1.366 . S
C3602 C3603 1.414 . S
C3602 C3605 1.499 . S
C3603 H3577 0.950 . S
C3603 C3602 1.414 . S
C3603 C3604 1.374 . S
C3604 H3578 0.950 . S
C3604 C3600 1.385 . S
C3604 C3603 1.374 . S
C3605 C3602 1.499 . S
C3605 C3606 1.373 . S
C3605 C3607 1.389 . S
C3606 H3579 0.950 . S
C3606 C3592 1.377 . S
C3606 C3605 1.373 . S
C3607 C3591 1.377 . S
C3607 C3605 1.389 . S
C3607 C3608 1.524 . S
C3608 C3607 1.524 . S
C3608 C3609 1.397 . S
C3608 C3613 1.363 . S
C3609 H3580 0.950 . S
C3609 C3608 1.397 . S
C3609 C3610 1.334 . S
C3610 H3581 0.950 . S
C3610 C3609 1.334 . S
C3610 C3611 1.287 . S
C3611 C3610 1.287 . S
C3611 C3612 1.524 . S
C3611 H3614 0.999 . S
C3612 H3582 0.950 . S
C3612 C3611 1.524 . S
C3612 C3613 1.415 . S
C3613 H3583 0.950 . S
C3613 C3608 1.363 . S
C3613 C3612 1.415 . S
H3614 C3611 0.999 . S
H3615 C3596 0.913 . S
H3616 C3634 0.951 . S
H3617 C3636 0.951 . S
H3618 C3638 0.964 . S
H3619 C3639 0.950 . S
H3620 C3641 0.950 . S
H3621 C3644 0.950 . S
H3622 C3645 0.950 . S
H3623 C3647 0.950 . S
H3624 C3648 0.950 . S
H3625 C3649 0.951 . S
H3626 C3651 0.951 . S
H3627 C3653 0.950 . S
H3628 C3654 0.950 . S
H3629 C3656 0.950 1_554 S
H3630 C3659 0.950 . S
H3631 C3660 0.950 . S
H3632 C3662 0.950 . S
H3633 C3663 0.950 . S
C3634 H3616 0.951 . S
C3634 C3635 1.366 . S
C3634 C3636 1.388 . S
C3635 C3634 1.366 . S
C3635 C3639 1.385 . S
C3636 H3617 0.951 . S
C3636 C3634 1.388 . S
C3636 C3637 1.366 . S
C3637 C3636 1.366 . S
C3637 C3638 1.414 . S
C3637 C3640 1.545 . S
C3638 H3618 0.964 . S
C3638 C3637 1.414 . S
C3638 C3639 1.374 . S
C3639 H3619 0.950 . S
C3639 C3635 1.385 . S
C3639 C3638 1.374 . S
C3640 C3637 1.545 . S
C3640 C3641 1.301 1_554 S
C3640 C3642 1.416 . S
C3641 H3620 0.950 . S
C3641 C3640 1.301 1_556 S
C3641 C3657 1.377 . S
C3642 C3640 1.416 . S
C3642 C3643 1.524 . S
C3642 C3656 1.377 1_554 S
C3643 C3642 1.524 . S
C3643 C3644 1.397 . S
C3643 C3648 1.363 . S
C3644 H3621 0.950 . S
C3644 C3643 1.397 . S
C3644 C3645 1.334 . S
C3645 H3622 0.950 . S
C3645 C3644 1.334 . S
C3645 C3646 1.287 . S
C3646 C3645 1.287 . S
C3646 C3647 1.524 . S
C3646 H3665 0.913 . S
C3647 H3623 0.950 . S
C3647 C3646 1.524 . S
C3647 C3648 1.415 . S
C3648 H3624 0.950 . S
C3648 C3643 1.363 . S
C3648 C3647 1.415 . S
C3649 H3625 0.951 . S
C3649 C3650 1.366 . S
C3649 C3651 1.388 . S
C3650 C3649 1.366 . S
C3650 C3654 1.385 . S
C3651 H3626 0.951 . S
C3651 C3649 1.388 . S
C3651 C3652 1.366 . S
C3652 C3651 1.366 . S
C3652 C3653 1.414 . S
C3652 C3655 1.499 . S
C3653 H3627 0.950 . S
C3653 C3652 1.414 . S
C3653 C3654 1.374 . S
C3654 H3628 0.950 . S
C3654 C3650 1.385 . S
C3654 C3653 1.374 . S
C3655 C3652 1.499 . S
C3655 C3656 1.373 . S
C3655 C3657 1.389 . S
C3656 H3629 0.950 1_556 S
C3656 C3642 1.377 1_556 S
C3656 C3655 1.373 . S
C3657 C3641 1.377 . S
C3657 C3655 1.389 . S
C3657 C3658 1.524 . S
C3658 C3657 1.524 . S
C3658 C3659 1.397 . S
C3658 C3663 1.363 . S
C3659 H3630 0.950 . S
C3659 C3658 1.397 . S
C3659 C3660 1.334 . S
C3660 H3631 0.950 . S
C3660 C3659 1.334 . S
C3660 C3661 1.287 . S
C3661 C3660 1.287 . S
C3661 C3662 1.524 . S
C3661 H3664 0.999 . S
C3662 H3632 0.950 . S
C3662 C3661 1.524 . S
C3662 C3663 1.415 . S
C3663 H3633 0.950 . S
C3663 C3658 1.363 . S
C3663 C3662 1.415 . S
H3664 C3661 0.999 . S
H3665 C3646 0.913 . S
H3666 C3684 0.951 . S
H3667 C3686 0.951 . S
H3668 C3688 0.950 . S
H3669 C3689 0.950 . S
H3670 C3691 0.950 . S
H3671 C3694 0.950 . S
H3672 C3695 0.951 . S
H3673 C3697 0.950 . S
H3674 C3698 0.950 . S
H3675 C3699 0.951 . S
H3676 C3701 0.951 . S
H3677 C3703 0.950 . S
H3678 C3704 0.950 . S
H3679 C3706 0.950 . S
H3680 C3709 0.950 . S
H3681 C3710 0.950 . S
H3682 C3712 0.950 1_554 S
H3683 C3713 0.950 . S
C3684 H3666 0.951 . S
C3684 C3685 1.366 1_556 S
C3684 C3686 1.388 . S
C3685 C3684 1.366 1_554 S
C3685 C3689 1.385 . S
C3686 H3667 0.951 . S
C3686 C3684 1.388 . S
C3686 C3687 1.366 . S
C3687 C3686 1.366 . S
C3687 C3688 1.414 1_556 S
C3687 C3690 1.499 . S
C3688 H3668 0.950 . S
C3688 C3687 1.414 1_554 S
C3688 C3689 1.374 . S
C3689 H3669 0.950 . S
C3689 C3685 1.385 . S
C3689 C3688 1.374 . S
C3690 C3687 1.499 . S
C3690 C3691 1.373 . S
C3690 C3692 1.389 . S
C3691 H3670 0.950 . S
C3691 C3690 1.373 . S
C3691 C3707 1.377 . S
C3692 C3690 1.389 . S
C3692 C3693 1.524 . S
C3692 C3706 1.377 . S
C3693 C3692 1.524 . S
C3693 C3694 1.397 . S
C3693 C3698 1.363 . S
C3694 H3671 0.950 . S
C3694 C3693 1.397 . S
C3694 C3695 1.334 . S
C3695 H3672 0.951 . S
C3695 C3694 1.334 . S
C3695 C3696 1.287 . S
C3696 C3695 1.287 . S
C3696 C3697 1.524 . S
C3696 H3715 0.913 1_655 S
C3697 H3673 0.950 . S
C3697 C3696 1.524 . S
C3697 C3698 1.415 . S
C3698 H3674 0.950 . S
C3698 C3693 1.363 . S
C3698 C3697 1.415 . S
C3699 H3675 0.951 . S
C3699 C3700 1.366 . S
C3699 C3701 1.388 . S
C3700 C3699 1.366 . S
C3700 C3704 1.385 . S
C3701 H3676 0.951 . S
C3701 C3699 1.388 . S
C3701 C3702 1.366 . S
C3702 C3701 1.366 . S
C3702 C3703 1.414 . S
C3702 C3705 1.499 . S
C3703 H3677 0.950 . S
C3703 C3702 1.414 . S
C3703 C3704 1.374 . S
C3704 H3678 0.950 . S
C3704 C3700 1.385 . S
C3704 C3703 1.374 . S
C3705 C3702 1.499 . S
C3705 C3706 1.373 . S
C3705 C3707 1.389 . S
C3706 H3679 0.950 . S
C3706 C3692 1.377 . S
C3706 C3705 1.373 . S
C3707 C3691 1.377 . S
C3707 C3705 1.389 . S
C3707 C3708 1.524 . S
C3708 C3707 1.524 . S
C3708 C3709 1.397 . S
C3708 C3713 1.363 . S
C3709 H3680 0.950 . S
C3709 C3708 1.397 . S
C3709 C3710 1.334 . S
C3710 H3681 0.950 . S
C3710 C3709 1.334 . S
C3710 C3711 1.287 . S
C3711 C3710 1.287 . S
C3711 C3712 1.524 . S
C3711 H3714 0.999 . S
C3712 H3682 0.950 1_556 S
C3712 C3711 1.524 . S
C3712 C3713 1.415 . S
C3713 H3683 0.950 . S
C3713 C3708 1.363 . S
C3713 C3712 1.415 . S
H3714 C3711 0.999 . S
H3715 C3696 0.913 1_455 S
H3716 C3734 0.951 . S
H3717 C3736 0.951 . S
H3718 C3738 0.950 . S
H3719 C3739 0.950 . S
H3720 C3741 0.950 . S
H3721 C3744 0.950 . S
H3722 C3745 0.950 . S
H3723 C3747 0.950 . S
H3724 C3748 0.950 . S
H3725 C3749 0.951 . S
H3726 C3751 0.951 . S
H3727 C3753 0.950 . S
H3728 C3754 0.950 . S
H3729 C3756 0.950 . S
H3730 C3759 0.950 . S
H3731 C3760 0.950 . S
H3732 C3762 0.950 . S
H3733 C3763 0.950 . S
C3734 H3716 0.951 . S
C3734 C3735 1.366 . S
C3734 C3736 1.388 . S
C3735 C3734 1.366 . S
C3735 C3739 1.385 . S
C3736 H3717 0.951 . S
C3736 C3734 1.388 . S
C3736 C3737 1.366 . S
C3737 C3736 1.366 . S
C3737 C3738 1.414 . S
C3737 C3740 1.499 . S
C3738 H3718 0.950 . S
C3738 C3737 1.414 . S
C3738 C3739 1.374 . S
C3739 H3719 0.950 . S
C3739 C3735 1.385 . S
C3739 C3738 1.374 . S
C3740 C3737 1.499 . S
C3740 C3741 1.373 . S
C3740 C3742 1.389 . S
C3741 H3720 0.950 . S
C3741 C3740 1.373 . S
C3741 C3757 1.377 . S
C3742 C3740 1.389 . S
C3742 C3743 1.524 . S
C3742 C3756 1.377 . S
C3743 C3742 1.524 . S
C3743 C3744 1.397 . S
C3743 C3748 1.363 . S
C3744 H3721 0.950 . S
C3744 C3743 1.397 . S
C3744 C3745 1.334 . S
C3745 H3722 0.950 . S
C3745 C3744 1.334 . S
C3745 C3746 1.287 . S
C3746 C3745 1.287 . S
C3746 C3747 1.524 . S
C3746 H3765 0.913 . S
C3747 H3723 0.950 . S
C3747 C3746 1.524 . S
C3747 C3748 1.415 . S
C3748 H3724 0.950 . S
C3748 C3743 1.363 . S
C3748 C3747 1.415 . S
C3749 H3725 0.951 . S
C3749 C3750 1.366 . S
C3749 C3751 1.388 . S
C3750 C3749 1.366 . S
C3750 C3754 1.385 . S
C3751 H3726 0.951 . S
C3751 C3749 1.388 . S
C3751 C3752 1.366 . S
C3752 C3751 1.366 . S
C3752 C3753 1.414 . S
C3752 C3755 1.499 . S
C3753 H3727 0.950 . S
C3753 C3752 1.414 . S
C3753 C3754 1.374 . S
C3754 H3728 0.950 . S
C3754 C3750 1.385 . S
C3754 C3753 1.374 . S
C3755 C3752 1.499 . S
C3755 C3756 1.373 . S
C3755 C3757 1.389 . S
C3756 H3729 0.950 . S
C3756 C3742 1.377 . S
C3756 C3755 1.373 . S
C3757 C3741 1.377 . S
C3757 C3755 1.389 . S
C3757 C3758 1.524 . S
C3758 C3757 1.524 . S
C3758 C3759 1.397 . S
C3758 C3763 1.363 . S
C3759 H3730 0.950 . S
C3759 C3758 1.397 . S
C3759 C3760 1.334 . S
C3760 H3731 0.950 . S
C3760 C3759 1.334 . S
C3760 C3761 1.287 . S
C3761 C3760 1.287 . S
C3761 C3762 1.524 . S
C3761 H3764 0.999 . S
C3762 H3732 0.950 . S
C3762 C3761 1.524 . S
C3762 C3763 1.415 . S
C3763 H3733 0.950 . S
C3763 C3758 1.363 . S
C3763 C3762 1.415 . S
H3764 C3761 0.999 . S
H3765 C3746 0.913 . S
H3766 C3784 0.951 . S
H3767 C3786 0.951 . S
H3768 C3788 0.950 . S
H3769 C3789 0.952 . S
H3770 C3791 0.950 . S
H3771 C3794 0.950 . S
H3772 C3795 0.950 . S
H3773 C3797 0.950 . S
H3774 C3798 0.950 . S
H3775 C3799 0.951 . S
H3776 C3801 0.951 . S
H3777 C3803 0.950 . S
H3778 C3804 0.950 . S
H3779 C3806 0.950 . S
H3780 C3809 0.950 . S
H3781 C3810 0.950 . S
H3782 C3812 0.950 . S
H3783 C3813 0.950 . S
C3784 H3766 0.951 . S
C3784 C3785 1.366 . S
C3784 C3786 1.388 . S
C3785 C3784 1.366 . S
C3785 C3789 1.385 . S
C3786 H3767 0.951 . S
C3786 C3784 1.388 . S
C3786 C3787 1.366 1_554 S
C3787 C3786 1.366 1_556 S
C3787 C3788 1.414 . S
C3787 C3790 1.499 . S
C3788 H3768 0.950 . S
C3788 C3787 1.414 . S
C3788 C3789 1.374 1_556 S
C3789 H3769 0.952 . S
C3789 C3785 1.385 . S
C3789 C3788 1.374 1_554 S
C3790 C3787 1.499 . S
C3790 C3791 1.373 . S
C3790 C3792 1.389 . S
C3791 H3770 0.950 . S
C3791 C3790 1.373 . S
C3791 C3807 1.377 . S
C3792 C3790 1.389 . S
C3792 C3793 1.524 1_556 S
C3792 C3806 1.377 . S
C3793 C3792 1.524 1_554 S
C3793 C3794 1.397 . S
C3793 C3798 1.363 . S
C3794 H3771 0.950 . S
C3794 C3793 1.397 . S
C3794 C3795 1.334 . S
C3795 H3772 0.950 . S
C3795 C3794 1.334 . S
C3795 C3796 1.287 . S
C3796 C3795 1.287 . S
C3796 C3797 1.524 . S
C3796 H3815 0.913 . S
C3797 H3773 0.950 . S
C3797 C3796 1.524 . S
C3797 C3798 1.415 . S
C3798 H3774 0.950 . S
C3798 C3793 1.363 . S
C3798 C3797 1.415 . S
C3799 H3775 0.951 . S
C3799 C3800 1.366 . S
C3799 C3801 1.388 . S
C3800 C3799 1.366 . S
C3800 C3804 1.385 . S
C3801 H3776 0.951 . S
C3801 C3799 1.388 . S
C3801 C3802 1.366 . S
C3802 C3801 1.366 . S
C3802 C3803 1.414 . S
C3802 C3805 1.499 . S
C3803 H3777 0.950 . S
C3803 C3802 1.414 . S
C3803 C3804 1.374 . S
C3804 H3778 0.950 . S
C3804 C3800 1.385 . S
C3804 C3803 1.374 . S
C3805 C3802 1.499 . S
C3805 C3806 1.373 . S
C3805 C3807 1.389 . S
C3806 H3779 0.950 . S
C3806 C3792 1.377 . S
C3806 C3805 1.373 . S
C3807 C3791 1.377 . S
C3807 C3805 1.389 . S
C3807 C3808 1.524 . S
C3808 C3807 1.524 . S
C3808 C3809 1.397 . S
C3808 C3813 1.363 . S
C3809 H3780 0.950 . S
C3809 C3808 1.397 . S
C3809 C3810 1.334 . S
C3810 H3781 0.950 . S
C3810 C3809 1.334 . S
C3810 C3811 1.287 . S
C3811 C3810 1.287 . S
C3811 C3812 1.524 . S
C3811 H3814 0.999 . S
C3812 H3782 0.950 . S
C3812 C3811 1.524 . S
C3812 C3813 1.415 . S
C3813 H3783 0.950 . S
C3813 C3808 1.363 . S
C3813 C3812 1.415 . S
H3814 C3811 0.999 . S
H3815 C3796 0.913 . S
H3816 C3834 0.951 . S
H3817 C3836 0.951 . S
H3818 C3838 0.950 . S
H3819 C3839 0.950 . S
H3820 C3841 0.950 . S
H3821 C3844 0.950 . S
H3822 C3845 0.950 . S
H3823 C3847 0.950 . S
H3824 C3848 0.950 . S
H3825 C3849 0.951 . S
H3826 C3851 0.951 . S
H3827 C3853 0.950 . S
H3828 C3854 0.950 . S
H3829 C3856 0.950 . S
H3830 C3859 0.950 . S
H3831 C3860 0.950 . S
H3832 C3862 0.950 . S
H3833 C3863 0.950 . S
C3834 H3816 0.951 . S
C3834 C3835 1.366 . S
C3834 C3836 1.388 . S
C3835 C3834 1.366 . S
C3835 C3839 1.385 . S
C3836 H3817 0.951 . S
C3836 C3834 1.388 . S
C3836 C3837 1.366 . S
C3837 C3836 1.366 . S
C3837 C3838 1.414 . S
C3837 C3840 1.499 . S
C3838 H3818 0.950 . S
C3838 C3837 1.414 . S
C3838 C3839 1.374 . S
C3839 H3819 0.950 . S
C3839 C3835 1.385 . S
C3839 C3838 1.374 . S
C3840 C3837 1.499 . S
C3840 C3841 1.373 . S
C3840 C3842 1.389 . S
C3841 H3820 0.950 . S
C3841 C3840 1.373 . S
C3841 C3857 1.377 . S
C3842 C3840 1.389 . S
C3842 C3843 1.524 . S
C3842 C3856 1.377 . S
C3843 C3842 1.524 . S
C3843 C3844 1.397 . S
C3843 C3848 1.363 . S
C3844 H3821 0.950 . S
C3844 C3843 1.397 . S
C3844 C3845 1.334 . S
C3845 H3822 0.950 . S
C3845 C3844 1.334 . S
C3845 C3846 1.287 . S
C3846 C3845 1.287 . S
C3846 C3847 1.524 . S
C3846 H3865 0.913 . S
C3847 H3823 0.950 . S
C3847 C3846 1.524 . S
C3847 C3848 1.415 . S
C3848 H3824 0.950 . S
C3848 C3843 1.363 . S
C3848 C3847 1.415 . S
C3849 H3825 0.951 . S
C3849 C3850 1.366 . S
C3849 C3851 1.388 . S
C3850 C3849 1.366 . S
C3850 C3854 1.385 . S
C3851 H3826 0.951 . S
C3851 C3849 1.388 . S
C3851 C3852 1.366 . S
C3852 C3851 1.366 . S
C3852 C3853 1.414 . S
C3852 C3855 1.499 . S
C3853 H3827 0.950 . S
C3853 C3852 1.414 . S
C3853 C3854 1.374 . S
C3854 H3828 0.950 . S
C3854 C3850 1.385 . S
C3854 C3853 1.374 . S
C3855 C3852 1.499 . S
C3855 C3856 1.373 . S
C3855 C3857 1.389 . S
C3856 H3829 0.950 . S
C3856 C3842 1.377 . S
C3856 C3855 1.373 . S
C3857 C3841 1.377 . S
C3857 C3855 1.389 . S
C3857 C3858 1.524 . S
C3858 C3857 1.524 . S
C3858 C3859 1.397 . S
C3858 C3863 1.363 . S
C3859 H3830 0.950 . S
C3859 C3858 1.397 . S
C3859 C3860 1.334 . S
C3860 H3831 0.950 . S
C3860 C3859 1.334 . S
C3860 C3861 1.287 . S
C3861 C3860 1.287 . S
C3861 C3862 1.524 . S
C3861 H3864 0.999 . S
C3862 H3832 0.950 . S
C3862 C3861 1.524 . S
C3862 C3863 1.415 . S
C3863 H3833 0.950 . S
C3863 C3858 1.363 . S
C3863 C3862 1.415 . S
H3864 C3861 0.999 . S
H3865 C3846 0.913 . S
H3866 C3884 0.951 . S
H3867 C3886 0.951 . S
H3868 C3888 0.950 . S
H3869 C3889 0.950 . S
H3870 C3891 0.950 . S
H3871 C3894 0.950 . S
H3872 C3895 0.950 . S
H3873 C3897 0.950 . S
H3874 C3898 0.950 . S
H3875 C3899 0.951 . S
H3876 C3901 0.951 . S
H3877 C3903 0.950 . S
H3878 C3904 0.950 . S
H3879 C3906 0.950 . S
H3880 C3909 0.950 . S
H3881 C3910 0.950 . S
H3882 C3912 0.950 . S
H3883 C3913 0.950 . S
C3884 H3866 0.951 . S
C3884 C3885 1.366 . S
C3884 C3886 1.388 . S
C3885 C3884 1.366 . S
C3885 C3889 1.385 . S
C3886 H3867 0.951 . S
C3886 C3884 1.388 . S
C3886 C3887 1.366 . S
C3887 C3886 1.366 . S
C3887 C3888 1.414 . S
C3887 C3890 1.499 . S
C3888 H3868 0.950 . S
C3888 C3887 1.414 . S
C3888 C3889 1.374 . S
C3889 H3869 0.950 . S
C3889 C3885 1.385 . S
C3889 C3888 1.374 . S
C3890 C3887 1.499 . S
C3890 C3891 1.373 . S
C3890 C3892 1.389 . S
C3891 H3870 0.950 . S
C3891 C3890 1.373 . S
C3891 C3907 1.377 . S
C3892 C3890 1.389 . S
C3892 C3893 1.524 . S
C3892 C3906 1.377 . S
C3893 C3892 1.524 . S
C3893 C3894 1.397 . S
C3893 C3898 1.363 . S
C3894 H3871 0.950 . S
C3894 C3893 1.397 . S
C3894 C3895 1.334 . S
C3895 H3872 0.950 . S
C3895 C3894 1.334 . S
C3895 C3896 1.287 . S
C3896 C3895 1.287 . S
C3896 C3897 1.524 . S
C3896 H3915 0.907 1_455 S
C3897 H3873 0.950 . S
C3897 C3896 1.524 . S
C3897 C3898 1.415 . S
C3898 H3874 0.950 . S
C3898 C3893 1.363 . S
C3898 C3897 1.415 . S
C3899 H3875 0.951 . S
C3899 C3900 1.366 . S
C3899 C3901 1.388 . S
C3900 C3899 1.366 . S
C3900 C3904 1.385 . S
C3901 H3876 0.951 . S
C3901 C3899 1.388 . S
C3901 C3902 1.366 . S
C3902 C3901 1.366 . S
C3902 C3903 1.414 . S
C3902 C3905 1.499 . S
C3903 H3877 0.950 . S
C3903 C3902 1.414 . S
C3903 C3904 1.374 . S
C3904 H3878 0.950 . S
C3904 C3900 1.385 . S
C3904 C3903 1.374 . S
C3905 C3902 1.499 . S
C3905 C3906 1.373 . S
C3905 C3907 1.389 . S
C3906 H3879 0.950 . S
C3906 C3892 1.377 . S
C3906 C3905 1.373 . S
C3907 C3891 1.377 . S
C3907 C3905 1.389 . S
C3907 C3908 1.524 . S
C3908 C3907 1.524 . S
C3908 C3909 1.397 . S
C3908 C3913 1.363 . S
C3909 H3880 0.950 . S
C3909 C3908 1.397 . S
C3909 C3910 1.334 . S
C3910 H3881 0.950 . S
C3910 C3909 1.334 . S
C3910 C3911 1.287 . S
C3911 C3910 1.287 . S
C3911 C3912 1.524 . S
C3911 H3914 0.999 . S
C3912 H3882 0.950 . S
C3912 C3911 1.524 . S
C3912 C3913 1.415 . S
C3913 H3883 0.950 . S
C3913 C3908 1.363 . S
C3913 C3912 1.415 . S
H3914 C3911 0.999 . S
H3915 C3896 0.907 1_655 S
H3916 C3934 0.951 . S
H3917 C3936 0.951 . S
H3918 C3938 0.950 . S
H3919 C3939 0.950 . S
H3920 C3941 0.950 . S
H3921 C3944 0.950 . S
H3922 C3945 0.950 . S
H3923 C3947 0.950 1_556 S
H3924 C3948 0.950 . S
H3925 C3949 0.951 . S
H3926 C3951 0.951 . S
H3927 C3953 0.950 . S
H3928 C3954 0.950 . S
H3929 C3956 0.950 . S
H3930 C3959 0.950 . S
H3931 C3960 0.950 . S
H3932 C3962 0.950 . S
H3933 C3963 0.950 . S
C3934 H3916 0.951 . S
C3934 C3935 1.366 . S
C3934 C3936 1.388 . S
C3935 C3934 1.366 . S
C3935 C3939 1.385 . S
C3936 H3917 0.951 . S
C3936 C3934 1.388 . S
C3936 C3937 1.366 . S
C3937 C3936 1.366 . S
C3937 C3938 1.414 . S
C3937 C3940 1.499 . S
C3938 H3918 0.950 . S
C3938 C3937 1.414 . S
C3938 C3939 1.374 . S
C3939 H3919 0.950 . S
C3939 C3935 1.385 . S
C3939 C3938 1.374 . S
C3940 C3937 1.499 . S
C3940 C3941 1.373 . S
C3940 C3942 1.389 . S
C3941 H3920 0.950 . S
C3941 C3940 1.373 . S
C3941 C3957 1.377 . S
C3942 C3940 1.389 . S
C3942 C3943 1.524 . S
C3942 C3956 1.377 . S
C3943 C3942 1.524 . S
C3943 C3944 1.397 . S
C3943 C3948 1.363 . S
C3944 H3921 0.950 . S
C3944 C3943 1.397 . S
C3944 C3945 1.334 . S
C3945 H3922 0.950 . S
C3945 C3944 1.334 . S
C3945 C3946 1.262 1_554 S
C3946 C3945 1.262 1_556 S
C3946 C3947 1.506 1_556 S
C3946 H3965 0.966 . S
C3947 H3923 0.950 1_554 S
C3947 C3946 1.506 1_554 S
C3947 C3948 1.415 . S
C3948 H3924 0.950 . S
C3948 C3943 1.363 . S
C3948 C3947 1.415 . S
C3949 H3925 0.951 . S
C3949 C3950 1.366 . S
C3949 C3951 1.388 . S
C3950 C3949 1.366 . S
C3950 C3954 1.385 . S
C3951 H3926 0.951 . S
C3951 C3949 1.388 . S
C3951 C3952 1.366 . S
C3952 C3951 1.366 . S
C3952 C3953 1.414 . S
C3952 C3955 1.499 . S
C3953 H3927 0.950 . S
C3953 C3952 1.414 . S
C3953 C3954 1.374 . S
C3954 H3928 0.950 . S
C3954 C3950 1.385 . S
C3954 C3953 1.374 . S
C3955 C3952 1.499 . S
C3955 C3956 1.373 . S
C3955 C3957 1.389 . S
C3956 H3929 0.950 . S
C3956 C3942 1.377 . S
C3956 C3955 1.373 . S
C3957 C3941 1.377 . S
C3957 C3955 1.389 . S
C3957 C3958 1.524 . S
C3958 C3957 1.524 . S
C3958 C3959 1.397 . S
C3958 C3963 1.363 . S
C3959 H3930 0.950 . S
C3959 C3958 1.397 . S
C3959 C3960 1.334 . S
C3960 H3931 0.950 . S
C3960 C3959 1.334 . S
C3960 C3961 1.287 . S
C3961 C3960 1.287 . S
C3961 C3962 1.524 . S
C3961 H3964 0.999 . S
C3962 H3932 0.950 . S
C3962 C3961 1.524 . S
C3962 C3963 1.415 . S
C3963 H3933 0.950 . S
C3963 C3958 1.363 . S
C3963 C3962 1.415 . S
H3964 C3961 0.999 . S
H3965 C3946 0.966 . S
H3966 C3984 0.951 . S
H3967 C3986 0.951 . S
H3968 C3988 0.950 . S
H3969 C3989 0.950 . S
H3970 C3991 0.950 . S
H3971 C3994 0.950 . S
H3972 C3995 0.950 . S
H3973 C3997 0.950 . S
H3974 C3998 0.950 . S
H3975 C3999 0.951 . S
H3976 C4001 0.951 . S
H3977 C4003 0.950 . S
H3978 C4004 0.950 . S
H3979 C4006 0.950 . S
H3980 C4009 0.950 . S
H3981 C4010 0.950 . S
H3982 C4012 0.950 . S
H3983 C4013 0.950 . S
C3984 H3966 0.951 . S
C3984 C3985 1.366 . S
C3984 C3986 1.388 . S
C3985 C3984 1.366 . S
C3985 C3989 1.385 . S
C3986 H3967 0.951 . S
C3986 C3984 1.388 . S
C3986 C3987 1.366 . S
C3987 C3986 1.366 . S
C3987 C3988 1.414 . S
C3987 C3990 1.499 . S
C3988 H3968 0.950 . S
C3988 C3987 1.414 . S
C3988 C3989 1.374 . S
C3989 H3969 0.950 . S
C3989 C3985 1.385 . S
C3989 C3988 1.374 . S
C3990 C3987 1.499 . S
C3990 C3991 1.373 . S
C3990 C3992 1.389 . S
C3991 H3970 0.950 . S
C3991 C3990 1.373 . S
C3991 C4007 1.377 . S
C3992 C3990 1.389 . S
C3992 C3993 1.524 . S
C3992 C4006 1.377 . S
C3993 C3992 1.524 . S
C3993 C3994 1.397 . S
C3993 C3998 1.363 . S
C3994 H3971 0.950 . S
C3994 C3993 1.397 . S
C3994 C3995 1.334 . S
C3995 H3972 0.950 . S
C3995 C3994 1.334 . S
C3995 C3996 1.287 . S
C3996 C3995 1.287 . S
C3996 C3997 1.524 . S
C3996 H4015 0.913 . S
C3997 H3973 0.950 . S
C3997 C3996 1.524 . S
C3997 C3998 1.415 . S
C3998 H3974 0.950 . S
C3998 C3993 1.363 . S
C3998 C3997 1.415 . S
C3999 H3975 0.951 . S
C3999 C4000 1.366 . S
C3999 C4001 1.388 . S
C4000 C3999 1.366 . S
C4000 C4004 1.385 . S
C4001 H3976 0.951 . S
C4001 C3999 1.388 . S
C4001 C4002 1.366 . S
C4002 C4001 1.366 . S
C4002 C4003 1.414 . S
C4002 C4005 1.499 . S
C4003 H3977 0.950 . S
C4003 C4002 1.414 . S
C4003 C4004 1.374 . S
C4004 H3978 0.950 . S
C4004 C4000 1.385 . S
C4004 C4003 1.374 . S
C4005 C4002 1.499 . S
C4005 C4006 1.373 . S
C4005 C4007 1.389 . S
C4006 H3979 0.950 . S
C4006 C3992 1.377 . S
C4006 C4005 1.373 . S
C4007 C3991 1.377 . S
C4007 C4005 1.389 . S
C4007 C4008 1.524 . S
C4008 C4007 1.524 . S
C4008 C4009 1.397 . S
C4008 C4013 1.363 . S
C4009 H3980 0.950 . S
C4009 C4008 1.397 . S
C4009 C4010 1.334 . S
C4010 H3981 0.950 . S
C4010 C4009 1.334 . S
C4010 C4011 1.287 . S
C4011 C4010 1.287 . S
C4011 C4012 1.524 . S
C4011 H4014 0.999 . S
C4012 H3982 0.950 . S
C4012 C4011 1.524 . S
C4012 C4013 1.415 . S
C4013 H3983 0.950 . S
C4013 C4008 1.363 . S
C4013 C4012 1.415 . S
H4014 C4011 0.999 . S
H4015 C3996 0.913 . S
H4016 C4034 0.951 1_565 S
H4017 C4036 0.951 . S
H4018 C4038 0.950 . S
H4019 C4039 0.950 . S
H4020 C4041 0.950 . S
H4021 C4044 0.950 . S
H4022 C4045 0.950 . S
H4023 C4047 0.950 . S
H4024 C4048 0.950 . S
H4025 C4049 0.951 . S
H4026 C4051 0.951 . S
H4027 C4053 0.950 . S
H4028 C4054 0.950 . S
H4029 C4056 0.950 . S
H4030 C4059 0.950 . S
H4031 C4060 0.950 . S
H4032 C4062 0.950 . S
H4033 C4063 0.950 . S
C4034 H4016 0.951 1_545 S
C4034 C4035 1.366 1_545 S
C4034 C4036 1.388 . S
C4035 C4034 1.366 1_565 S
C4035 C4039 1.385 1_565 S
C4036 H4017 0.951 . S
C4036 C4034 1.388 . S
C4036 C4037 1.366 . S
C4037 C4036 1.366 . S
C4037 C4038 1.414 . S
C4037 C4040 1.499 . S
C4038 H4018 0.950 . S
C4038 C4037 1.414 . S
C4038 C4039 1.374 . S
C4039 H4019 0.950 . S
C4039 C4035 1.385 1_545 S
C4039 C4038 1.374 . S
C4040 C4037 1.499 . S
C4040 C4041 1.373 . S
C4040 C4042 1.389 . S
C4041 H4020 0.950 . S
C4041 C4040 1.373 . S
C4041 C4057 1.377 . S
C4042 C4040 1.389 . S
C4042 C4043 1.524 . S
C4042 C4056 1.377 . S
C4043 C4042 1.524 . S
C4043 C4044 1.397 . S
C4043 C4048 1.363 . S
C4044 H4021 0.950 . S
C4044 C4043 1.397 . S
C4044 C4045 1.334 . S
C4045 H4022 0.950 . S
C4045 C4044 1.334 . S
C4045 C4046 1.287 . S
C4046 C4045 1.287 . S
C4046 C4047 1.524 . S
C4046 H4065 0.913 . S
C4047 H4023 0.950 . S
C4047 C4046 1.524 . S
C4047 C4048 1.415 . S
C4048 H4024 0.950 . S
C4048 C4043 1.363 . S
C4048 C4047 1.415 . S
C4049 H4025 0.951 . S
C4049 C4050 1.366 . S
C4049 C4051 1.388 . S
C4050 C4049 1.366 . S
C4050 C4054 1.385 . S
C4051 H4026 0.951 . S
C4051 C4049 1.388 . S
C4051 C4052 1.366 . S
C4052 C4051 1.366 . S
C4052 C4053 1.414 . S
C4052 C4055 1.499 . S
C4053 H4027 0.950 . S
C4053 C4052 1.414 . S
C4053 C4054 1.374 . S
C4054 H4028 0.950 . S
C4054 C4050 1.385 . S
C4054 C4053 1.374 . S
C4055 C4052 1.499 . S
C4055 C4056 1.373 . S
C4055 C4057 1.389 . S
C4056 H4029 0.950 . S
C4056 C4042 1.377 . S
C4056 C4055 1.373 . S
C4057 C4041 1.377 . S
C4057 C4055 1.389 . S
C4057 C4058 1.524 . S
C4058 C4057 1.524 . S
C4058 C4059 1.397 . S
C4058 C4063 1.363 . S
C4059 H4030 0.950 . S
C4059 C4058 1.397 . S
C4059 C4060 1.334 . S
C4060 H4031 0.950 . S
C4060 C4059 1.334 . S
C4060 C4061 1.287 . S
C4061 C4060 1.287 . S
C4061 C4062 1.524 . S
C4061 H4064 0.999 . S
C4062 H4032 0.950 . S
C4062 C4061 1.524 . S
C4062 C4063 1.415 . S
C4063 H4033 0.950 . S
C4063 C4058 1.363 . S
C4063 C4062 1.415 . S
H4064 C4061 0.999 . S
H4065 C4046 0.913 . S
H4066 C4084 0.951 . S
H4067 C4086 0.951 . S
H4068 C4088 0.950 . S
H4069 C4089 0.950 . S
H4070 C4091 0.950 . S
H4071 C4094 0.950 . S
H4072 C4095 0.950 . S
H4073 C4097 0.950 . S
H4074 C4098 0.950 . S
H4075 C4099 0.951 . S
H4076 C4101 0.951 . S
H4077 C4103 0.950 . S
H4078 C4104 0.950 . S
H4079 C4106 0.950 . S
H4080 C4109 0.950 . S
H4081 C4110 0.950 . S
H4082 C4112 0.950 . S
H4083 C4113 0.950 . S
C4084 H4066 0.951 . S
C4084 C4085 1.366 . S
C4084 C4086 1.388 1_455 S
C4085 C4084 1.366 . S
C4085 C4089 1.385 1_455 S
C4086 H4067 0.951 . S
C4086 C4084 1.388 1_655 S
C4086 C4087 1.366 . S
C4087 C4086 1.366 . S
C4087 C4088 1.414 . S
C4087 C4090 1.499 . S
C4088 H4068 0.950 . S
C4088 C4087 1.414 . S
C4088 C4089 1.374 . S
C4089 H4069 0.950 . S
C4089 C4085 1.385 1_655 S
C4089 C4088 1.374 . S
C4090 C4087 1.499 . S
C4090 C4091 1.373 . S
C4090 C4092 1.389 . S
C4091 H4070 0.950 . S
C4091 C4090 1.373 . S
C4091 C4107 1.377 . S
C4092 C4090 1.389 . S
C4092 C4093 1.524 . S
C4092 C4106 1.377 . S
C4093 C4092 1.524 . S
C4093 C4094 1.397 . S
C4093 C4098 1.363 . S
C4094 H4071 0.950 . S
C4094 C4093 1.397 . S
C4094 C4095 1.334 1_655 S
C4095 H4072 0.950 . S
C4095 C4094 1.334 1_455 S
C4095 C4096 1.287 . S
C4096 C4095 1.287 . S
C4096 C4097 1.524 . S
C4096 H4115 0.913 . S
C4097 H4073 0.950 . S
C4097 C4096 1.524 . S
C4097 C4098 1.415 1_455 S
C4098 H4074 0.950 . S
C4098 C4093 1.363 . S
C4098 C4097 1.415 1_655 S
C4099 H4075 0.951 . S
C4099 C4100 1.366 . S
C4099 C4101 1.388 . S
C4100 C4099 1.366 . S
C4100 C4104 1.385 . S
C4101 H4076 0.951 . S
C4101 C4099 1.388 . S
C4101 C4102 1.366 . S
C4102 C4101 1.366 . S
C4102 C4103 1.414 . S
C4102 C4105 1.499 . S
C4103 H4077 0.950 . S
C4103 C4102 1.414 . S
C4103 C4104 1.374 . S
C4104 H4078 0.950 . S
C4104 C4100 1.385 . S
C4104 C4103 1.374 . S
C4105 C4102 1.499 . S
C4105 C4106 1.373 . S
C4105 C4107 1.389 . S
C4106 H4079 0.950 . S
C4106 C4092 1.377 . S
C4106 C4105 1.373 . S
C4107 C4091 1.377 . S
C4107 C4105 1.389 . S
C4107 C4108 1.524 . S
C4108 C4107 1.524 . S
C4108 C4109 1.397 . S
C4108 C4113 1.363 . S
C4109 H4080 0.950 . S
C4109 C4108 1.397 . S
C4109 C4110 1.334 . S
C4110 H4081 0.950 . S
C4110 C4109 1.334 . S
C4110 C4111 1.287 . S
C4111 C4110 1.287 . S
C4111 C4112 1.524 . S
C4111 H4114 0.999 . S
C4112 H4082 0.950 . S
C4112 C4111 1.524 . S
C4112 C4113 1.415 . S
C4113 H4083 0.950 . S
C4113 C4108 1.363 . S
C4113 C4112 1.415 . S
H4114 C4111 0.999 . S
H4115 C4096 0.913 . S
H4116 C4134 0.951 . S
H4117 C4136 0.951 . S
H4118 C4138 0.950 . S
H4119 C4139 0.950 . S
H4120 C4141 0.950 . S
H4121 C4144 0.950 . S
H4122 C4145 0.950 . S
H4123 C4147 0.915 1_655 S
H4124 C4148 0.950 . S
H4125 C4149 0.951 . S
H4126 C4151 0.951 . S
H4127 C4153 0.961 . S
H4128 C4154 0.950 1_655 S
H4129 C4156 0.950 . S
H4130 C4159 0.950 . S
H4131 C4160 0.950 . S
H4132 C4162 0.950 . S
H4133 C4163 0.950 . S
C4134 H4116 0.951 . S
C4134 C4135 1.366 . S
C4134 C4136 1.388 . S
C4135 C4134 1.366 . S
C4135 C4139 1.385 . S
C4136 H4117 0.951 . S
C4136 C4134 1.388 . S
C4136 C4137 1.366 . S
C4137 C4136 1.366 . S
C4137 C4138 1.414 . S
C4137 C4140 1.499 . S
C4138 H4118 0.950 . S
C4138 C4137 1.414 . S
C4138 C4139 1.374 . S
C4139 H4119 0.950 . S
C4139 C4135 1.385 . S
C4139 C4138 1.374 . S
C4140 C4137 1.499 . S
C4140 C4141 1.373 . S
C4140 C4142 1.389 . S
C4141 H4120 0.950 . S
C4141 C4140 1.373 . S
C4141 C4157 1.377 . S
C4142 C4140 1.389 . S
C4142 C4143 1.524 . S
C4142 C4156 1.377 . S
C4143 C4142 1.524 . S
C4143 C4144 1.397 . S
C4143 C4148 1.363 . S
C4144 H4121 0.950 . S
C4144 C4143 1.397 . S
C4144 C4145 1.334 . S
C4145 H4122 0.950 . S
C4145 C4144 1.334 . S
C4145 C4146 1.287 . S
C4146 C4145 1.287 . S
C4146 C4147 1.524 . S
C4146 H4165 0.913 . S
C4147 H4123 0.915 1_455 S
C4147 C4146 1.524 . S
C4147 C4148 1.415 . S
C4148 H4124 0.950 . S
C4148 C4143 1.363 . S
C4148 C4147 1.415 . S
C4149 H4125 0.951 . S
C4149 C4150 1.366 . S
C4149 C4151 1.388 . S
C4150 C4149 1.366 . S
C4150 C4154 1.385 . S
C4151 H4126 0.951 . S
C4151 C4149 1.388 . S
C4151 C4152 1.366 . S
C4152 C4151 1.366 . S
C4152 C4153 1.414 . S
C4152 C4155 1.499 . S
C4153 H4127 0.961 . S
C4153 C4152 1.414 . S
C4153 C4154 1.374 . S
C4154 H4128 0.950 1_455 S
C4154 C4150 1.385 . S
C4154 C4153 1.374 . S
C4155 C4152 1.499 . S
C4155 C4156 1.373 . S
C4155 C4157 1.389 . S
C4156 H4129 0.950 . S
C4156 C4142 1.377 . S
C4156 C4155 1.373 . S
C4157 C4141 1.377 . S
C4157 C4155 1.389 . S
C4157 C4158 1.524 . S
C4158 C4157 1.524 . S
C4158 C4159 1.397 . S
C4158 C4163 1.363 . S
C4159 H4130 0.950 . S
C4159 C4158 1.397 . S
C4159 C4160 1.334 . S
C4160 H4131 0.950 . S
C4160 C4159 1.334 . S
C4160 C4161 1.287 . S
C4161 C4160 1.287 . S
C4161 C4162 1.524 . S
C4161 H4164 0.999 . S
C4162 H4132 0.950 . S
C4162 C4161 1.524 . S
C4162 C4163 1.415 . S
C4163 H4133 0.950 . S
C4163 C4158 1.363 . S
C4163 C4162 1.415 . S
H4164 C4161 0.999 . S
H4165 C4146 0.913 . S
H4166 C4184 0.951 . S
H4167 C4186 0.951 . S
H4168 C4188 0.950 . S
H4169 C4189 0.950 . S
H4170 C4191 0.950 . S
H4171 C4194 0.950 . S
H4172 C4195 0.950 . S
H4173 C4197 0.950 . S
H4174 C4198 0.950 . S
H4175 C4199 0.951 . S
H4176 C4201 0.951 . S
H4177 C4203 0.950 . S
H4178 C4204 0.950 . S
H4179 C4206 0.950 . S
H4180 C4209 0.950 . S
H4181 C4210 0.950 . S
H4182 C4212 0.950 . S
H4183 C4213 0.950 . S
C4184 H4166 0.951 . S
C4184 C4185 1.366 . S
C4184 C4186 1.388 . S
C4185 C4184 1.366 . S
C4185 C4189 1.385 . S
C4186 H4167 0.951 . S
C4186 C4184 1.388 . S
C4186 C4187 1.366 . S
C4187 C4186 1.366 . S
C4187 C4188 1.414 . S
C4187 C4190 1.499 . S
C4188 H4168 0.950 . S
C4188 C4187 1.414 . S
C4188 C4189 1.374 . S
C4189 H4169 0.950 . S
C4189 C4185 1.385 . S
C4189 C4188 1.374 . S
C4190 C4187 1.499 . S
C4190 C4191 1.373 . S
C4190 C4192 1.389 . S
C4191 H4170 0.950 . S
C4191 C4190 1.373 . S
C4191 C4207 1.377 . S
C4192 C4190 1.389 . S
C4192 C4193 1.524 . S
C4192 C4206 1.377 . S
C4193 C4192 1.524 . S
C4193 C4194 1.397 . S
C4193 C4198 1.363 . S
C4194 H4171 0.950 . S
C4194 C4193 1.397 . S
C4194 C4195 1.334 . S
C4195 H4172 0.950 . S
C4195 C4194 1.334 . S
C4195 C4196 1.287 . S
C4196 C4195 1.287 . S
C4196 C4197 1.524 . S
C4196 H4215 0.913 . S
C4197 H4173 0.950 . S
C4197 C4196 1.524 . S
C4197 C4198 1.415 . S
C4198 H4174 0.950 . S
C4198 C4193 1.363 . S
C4198 C4197 1.415 . S
C4199 H4175 0.951 . S
C4199 C4200 1.366 . S
C4199 C4201 1.388 . S
C4200 C4199 1.366 . S
C4200 C4204 1.385 . S
C4201 H4176 0.951 . S
C4201 C4199 1.388 . S
C4201 C4202 1.366 . S
C4202 C4201 1.366 . S
C4202 C4203 1.414 . S
C4202 C4205 1.499 . S
C4203 H4177 0.950 . S
C4203 C4202 1.414 . S
C4203 C4204 1.374 . S
C4204 H4178 0.950 . S
C4204 C4200 1.385 . S
C4204 C4203 1.374 . S
C4205 C4202 1.499 . S
C4205 C4206 1.373 . S
C4205 C4207 1.389 . S
C4206 H4179 0.950 . S
C4206 C4192 1.377 . S
C4206 C4205 1.373 . S
C4207 C4191 1.377 . S
C4207 C4205 1.389 . S
C4207 C4208 1.524 . S
C4208 C4207 1.524 . S
C4208 C4209 1.397 . S
C4208 C4213 1.363 . S
C4209 H4180 0.950 . S
C4209 C4208 1.397 . S
C4209 C4210 1.334 . S
C4210 H4181 0.950 . S
C4210 C4209 1.334 . S
C4210 C4211 1.287 . S
C4211 C4210 1.287 . S
C4211 C4212 1.524 . S
C4211 H4214 0.999 . S
C4212 H4182 0.950 . S
C4212 C4211 1.524 . S
C4212 C4213 1.415 . S
C4213 H4183 0.950 . S
C4213 C4208 1.363 . S
C4213 C4212 1.415 . S
H4214 C4211 0.999 . S
H4215 C4196 0.913 . S
H4216 C4234 0.951 . S
H4217 C4236 0.951 . S
H4218 C4238 0.950 . S
H4219 C4239 0.950 . S
H4220 C4241 0.950 . S
H4221 C4244 0.950 . S
H4222 C4245 0.950 . S
H4223 C4247 0.925 . S
H4224 C4248 0.950 . S
H4225 C4249 0.951 . S
H4226 C4251 0.951 . S
H4227 C4253 0.950 . S
H4228 C4254 0.950 . S
H4229 C4256 0.950 . S
H4230 C4259 0.950 . S
H4231 C4260 0.950 . S
H4232 C4262 0.950 . S
H4233 C4263 0.950 . S
C4234 H4216 0.951 . S
C4234 C4235 1.366 . S
C4234 C4236 1.388 . S
C4235 C4234 1.366 . S
C4235 C4239 1.385 . S
C4236 H4217 0.951 . S
C4236 C4234 1.388 . S
C4236 C4237 1.366 . S
C4237 C4236 1.366 . S
C4237 C4238 1.414 . S
C4237 C4240 1.499 . S
C4238 H4218 0.950 . S
C4238 C4237 1.414 . S
C4238 C4239 1.374 . S
C4239 H4219 0.950 . S
C4239 C4235 1.385 . S
C4239 C4238 1.374 . S
C4240 C4237 1.499 . S
C4240 C4241 1.373 . S
C4240 C4242 1.389 . S
C4241 H4220 0.950 . S
C4241 C4240 1.373 . S
C4241 C4257 1.377 . S
C4242 C4240 1.389 . S
C4242 C4243 1.524 . S
C4242 C4256 1.377 . S
C4243 C4242 1.524 . S
C4243 C4244 1.397 1_565 S
C4243 C4248 1.363 . S
C4244 H4221 0.950 . S
C4244 C4243 1.397 1_545 S
C4244 C4245 1.334 . S
C4245 H4222 0.950 . S
C4245 C4244 1.334 . S
C4245 C4246 1.287 . S
C4246 C4245 1.287 . S
C4246 C4247 1.528 1_545 S
C4246 H4265 0.913 . S
C4247 H4223 0.925 . S
C4247 C4246 1.528 1_565 S
C4247 C4248 1.413 . S
C4248 H4224 0.950 . S
C4248 C4243 1.363 . S
C4248 C4247 1.413 . S
C4249 H4225 0.951 . S
C4249 C4250 1.366 . S
C4249 C4251 1.388 . S
C4250 C4249 1.366 . S
C4250 C4254 1.385 . S
C4251 H4226 0.951 . S
C4251 C4249 1.388 . S
C4251 C4252 1.366 . S
C4252 C4251 1.366 . S
C4252 C4253 1.414 . S
C4252 C4255 1.499 . S
C4253 H4227 0.950 . S
C4253 C4252 1.414 . S
C4253 C4254 1.374 . S
C4254 H4228 0.950 . S
C4254 C4250 1.385 . S
C4254 C4253 1.374 . S
C4255 C4252 1.499 . S
C4255 C4256 1.373 . S
C4255 C4257 1.389 . S
C4256 H4229 0.950 . S
C4256 C4242 1.377 . S
C4256 C4255 1.373 . S
C4257 C4241 1.377 . S
C4257 C4255 1.389 . S
C4257 C4258 1.524 . S
C4258 C4257 1.524 . S
C4258 C4259 1.397 . S
C4258 C4263 1.363 . S
C4259 H4230 0.950 . S
C4259 C4258 1.397 . S
C4259 C4260 1.334 . S
C4260 H4231 0.950 . S
C4260 C4259 1.334 . S
C4260 C4261 1.287 . S
C4261 C4260 1.287 . S
C4261 C4262 1.524 . S
C4261 H4264 0.999 . S
C4262 H4232 0.950 . S
C4262 C4261 1.524 . S
C4262 C4263 1.415 . S
C4263 H4233 0.950 . S
C4263 C4258 1.363 . S
C4263 C4262 1.415 . S
H4264 C4261 0.999 . S
H4265 C4246 0.913 . S
H4266 C4284 0.951 . S
H4267 C4286 0.988 . S
H4268 C4288 0.950 . S
H4269 C4289 0.950 . S
H4270 C4291 0.950 . S
H4271 C4294 0.905 1_565 S
H4272 C4295 0.950 . S
H4273 C4297 0.950 . S
H4274 C4298 0.950 . S
H4275 C4299 0.951 . S
H4276 C4301 0.951 . S
H4277 C4303 0.950 . S
H4278 C4304 0.950 . S
H4279 C4306 0.950 . S
H4280 C4309 0.950 . S
H4281 C4310 0.950 . S
H4282 C4312 0.950 . S
H4283 C4313 0.950 . S
C4284 H4266 0.951 . S
C4284 C4285 1.366 . S
C4284 C4286 1.388 . S
C4285 C4284 1.366 . S
C4285 C4289 1.385 . S
C4286 H4267 0.988 . S
C4286 C4284 1.388 . S
C4286 C4287 1.366 . S
C4287 C4286 1.366 . S
C4287 C4288 1.414 . S
C4287 C4290 1.499 . S
C4288 H4268 0.950 . S
C4288 C4287 1.414 . S
C4288 C4289 1.374 . S
C4289 H4269 0.950 . S
C4289 C4285 1.385 . S
C4289 C4288 1.374 . S
C4290 C4287 1.499 . S
C4290 C4291 1.373 . S
C4290 C4292 1.389 . S
C4291 H4270 0.950 . S
C4291 C4290 1.373 . S
C4291 C4307 1.377 . S
C4292 C4290 1.389 . S
C4292 C4293 1.524 1_565 S
C4292 C4306 1.377 1_565 S
C4293 C4292 1.524 1_545 S
C4293 C4294 1.397 . S
C4293 C4298 1.363 . S
C4294 H4271 0.905 1_545 S
C4294 C4293 1.397 . S
C4294 C4295 1.334 . S
C4295 H4272 0.950 . S
C4295 C4294 1.334 . S
C4295 C4296 1.287 . S
C4296 C4295 1.287 . S
C4296 C4297 1.524 . S
C4296 H4315 0.913 . S
C4297 H4273 0.950 . S
C4297 C4296 1.524 . S
C4297 C4298 1.415 . S
C4298 H4274 0.950 . S
C4298 C4293 1.363 . S
C4298 C4297 1.415 . S
C4299 H4275 0.951 . S
C4299 C4300 1.353 1_565 S
C4299 C4301 1.388 . S
C4300 C4299 1.353 1_545 S
C4300 C4304 1.387 . S
C4301 H4276 0.951 . S
C4301 C4299 1.388 . S
C4301 C4302 1.366 . S
C4302 C4301 1.366 . S
C4302 C4303 1.414 1_565 S
C4302 C4305 1.499 . S
C4303 H4277 0.950 . S
C4303 C4302 1.414 1_545 S
C4303 C4304 1.374 . S
C4304 H4278 0.950 . S
C4304 C4300 1.387 . S
C4304 C4303 1.374 . S
C4305 C4302 1.499 . S
C4305 C4306 1.373 1_565 S
C4305 C4307 1.389 . S
C4306 H4279 0.950 . S
C4306 C4292 1.377 1_545 S
C4306 C4305 1.373 1_545 S
C4307 C4291 1.377 . S
C4307 C4305 1.389 . S
C4307 C4308 1.524 . S
C4308 C4307 1.524 . S
C4308 C4309 1.397 . S
C4308 C4313 1.363 . S
C4309 H4280 0.950 . S
C4309 C4308 1.397 . S
C4309 C4310 1.334 . S
C4310 H4281 0.950 . S
C4310 C4309 1.334 . S
C4310 C4311 1.287 . S
C4311 C4310 1.287 . S
C4311 C4312 1.524 . S
C4311 H4314 0.999 . S
C4312 H4282 0.950 . S
C4312 C4311 1.524 . S
C4312 C4313 1.415 . S
C4313 H4283 0.950 . S
C4313 C4308 1.363 . S
C4313 C4312 1.415 . S
H4314 C4311 0.999 . S
H4315 C4296 0.913 . S
H4316 C4334 0.951 . S
H4317 C4336 0.951 . S
H4318 C4338 0.950 . S
H4319 C4339 0.950 . S
H4320 C4341 0.950 . S
H4321 C4344 0.950 . S
H4322 C4345 0.950 . S
H4323 C4347 0.950 . S
H4324 C4348 0.950 . S
H4325 C4349 0.951 . S
H4326 C4351 0.951 . S
H4327 C4353 0.950 . S
H4328 C4354 0.950 . S
H4329 C4356 1.001 . S
H4330 C4359 0.950 . S
H4331 C4360 0.950 . S
H4332 C4362 0.950 . S
H4333 C4363 0.950 . S
C4334 H4316 0.951 . S
C4334 C4335 1.366 . S
C4334 C4336 1.388 . S
C4335 C4334 1.366 . S
C4335 C4339 1.385 . S
C4336 H4317 0.951 . S
C4336 C4334 1.388 . S
C4336 C4337 1.366 . S
C4337 C4336 1.366 . S
C4337 C4338 1.414 . S
C4337 C4340 1.499 . S
C4338 H4318 0.950 . S
C4338 C4337 1.414 . S
C4338 C4339 1.374 . S
C4339 H4319 0.950 . S
C4339 C4335 1.385 . S
C4339 C4338 1.374 . S
C4340 C4337 1.499 . S
C4340 C4341 1.373 . S
C4340 C4342 1.389 . S
C4341 H4320 0.950 . S
C4341 C4340 1.373 . S
C4341 C4357 1.377 . S
C4342 C4340 1.389 . S
C4342 C4343 1.524 1_455 S
C4342 C4356 1.398 1_455 S
C4343 C4342 1.524 1_655 S
C4343 C4344 1.397 . S
C4343 C4348 1.363 . S
C4344 H4321 0.950 . S
C4344 C4343 1.397 . S
C4344 C4345 1.334 . S
C4345 H4322 0.950 . S
C4345 C4344 1.334 . S
C4345 C4346 1.287 . S
C4346 C4345 1.287 . S
C4346 C4347 1.524 . S
C4346 H4365 0.913 . S
C4347 H4323 0.950 . S
C4347 C4346 1.524 . S
C4347 C4348 1.415 . S
C4348 H4324 0.950 . S
C4348 C4343 1.363 . S
C4348 C4347 1.415 . S
C4349 H4325 0.951 . S
C4349 C4350 1.332 1_455 S
C4349 C4351 1.388 . S
C4350 C4349 1.332 1_655 S
C4350 C4354 1.443 . S
C4351 H4326 0.951 . S
C4351 C4349 1.388 . S
C4351 C4352 1.366 . S
C4352 C4351 1.366 . S
C4352 C4353 1.414 1_455 S
C4352 C4355 1.499 . S
C4353 H4327 0.950 . S
C4353 C4352 1.414 1_655 S
C4353 C4354 1.374 . S
C4354 H4328 0.950 . S
C4354 C4350 1.443 . S
C4354 C4353 1.374 . S
C4355 C4352 1.499 . S
C4355 C4356 1.305 1_455 S
C4355 C4357 1.389 . S
C4356 H4329 1.001 . S
C4356 C4342 1.398 1_655 S
C4356 C4355 1.305 1_655 S
C4357 C4341 1.377 . S
C4357 C4355 1.389 . S
C4357 C4358 1.524 . S
C4358 C4357 1.524 . S
C4358 C4359 1.397 . S
C4358 C4363 1.363 . S
C4359 H4330 0.950 . S
C4359 C4358 1.397 . S
C4359 C4360 1.334 . S
C4360 H4331 0.950 . S
C4360 C4359 1.334 . S
C4360 C4361 1.287 . S
C4361 C4360 1.287 . S
C4361 C4362 1.524 . S
C4361 H4364 0.999 . S
C4362 H4332 0.950 . S
C4362 C4361 1.524 . S
C4362 C4363 1.415 . S
C4363 H4333 0.950 . S
C4363 C4358 1.363 . S
C4363 C4362 1.415 . S
H4364 C4361 0.999 . S
H4365 C4346 0.913 . S
H4366 C4384 0.951 . S
H4367 C4386 0.951 . S
H4368 C4388 0.950 . S
H4369 C4389 0.950 . S
H4370 C4391 0.950 . S
H4371 C4394 0.950 . S
H4372 C4395 0.950 . S
H4373 C4397 0.950 . S
H4374 C4398 0.950 . S
H4375 C4399 0.951 . S
H4376 C4401 0.951 . S
H4377 C4403 0.950 . S
H4378 C4404 0.950 . S
H4379 C4406 0.950 . S
H4380 C4409 0.950 . S
H4381 C4410 0.950 . S
H4382 C4412 0.950 . S
H4383 C4413 0.950 . S
C4384 H4366 0.951 . S
C4384 C4385 1.366 . S
C4384 C4386 1.388 . S
C4385 C4384 1.366 . S
C4385 C4389 1.385 . S
C4386 H4367 0.951 . S
C4386 C4384 1.388 . S
C4386 C4387 1.366 . S
C4387 C4386 1.366 . S
C4387 C4388 1.414 . S
C4387 C4390 1.499 . S
C4388 H4368 0.950 . S
C4388 C4387 1.414 . S
C4388 C4389 1.374 . S
C4389 H4369 0.950 . S
C4389 C4385 1.385 . S
C4389 C4388 1.374 . S
C4390 C4387 1.499 . S
C4390 C4391 1.373 . S
C4390 C4392 1.389 . S
C4391 H4370 0.950 . S
C4391 C4390 1.373 . S
C4391 C4407 1.377 . S
C4392 C4390 1.389 . S
C4392 C4393 1.524 . S
C4392 C4406 1.377 . S
C4393 C4392 1.524 . S
C4393 C4394 1.397 . S
C4393 C4398 1.363 . S
C4394 H4371 0.950 . S
C4394 C4393 1.397 . S
C4394 C4395 1.334 . S
C4395 H4372 0.950 . S
C4395 C4394 1.334 . S
C4395 C4396 1.287 . S
C4396 C4395 1.287 . S
C4396 C4397 1.524 . S
C4396 H4415 0.913 . S
C4397 H4373 0.950 . S
C4397 C4396 1.524 . S
C4397 C4398 1.415 . S
C4398 H4374 0.950 . S
C4398 C4393 1.363 . S
C4398 C4397 1.415 . S
C4399 H4375 0.951 . S
C4399 C4400 1.366 . S
C4399 C4401 1.388 . S
C4400 C4399 1.366 . S
C4400 C4404 1.385 . S
C4401 H4376 0.951 . S
C4401 C4399 1.388 . S
C4401 C4402 1.366 . S
C4402 C4401 1.366 . S
C4402 C4403 1.414 . S
C4402 C4405 1.499 . S
C4403 H4377 0.950 . S
C4403 C4402 1.414 . S
C4403 C4404 1.374 . S
C4404 H4378 0.950 . S
C4404 C4400 1.385 . S
C4404 C4403 1.374 . S
C4405 C4402 1.499 . S
C4405 C4406 1.373 . S
C4405 C4407 1.389 . S
C4406 H4379 0.950 . S
C4406 C4392 1.377 . S
C4406 C4405 1.373 . S
C4407 C4391 1.377 . S
C4407 C4405 1.389 . S
C4407 C4408 1.524 . S
C4408 C4407 1.524 . S
C4408 C4409 1.397 . S
C4408 C4413 1.363 . S
C4409 H4380 0.950 . S
C4409 C4408 1.397 . S
C4409 C4410 1.334 . S
C4410 H4381 0.950 . S
C4410 C4409 1.334 . S
C4410 C4411 1.287 . S
C4411 C4410 1.287 . S
C4411 C4412 1.524 . S
C4411 H4414 0.999 . S
C4412 H4382 0.950 . S
C4412 C4411 1.524 . S
C4412 C4413 1.415 . S
C4413 H4383 0.950 . S
C4413 C4408 1.363 . S
C4413 C4412 1.415 . S
H4414 C4411 0.999 . S
H4415 C4396 0.913 . S
H4416 C4434 0.951 . S
H4417 C4436 0.951 . S
H4418 C4438 0.950 . S
H4419 C4439 0.950 . S
H4420 C4441 0.950 . S
H4421 C4444 0.950 . S
H4422 C4445 0.950 . S
H4423 C4447 0.950 . S
H4424 C4448 0.950 . S
H4425 C4449 0.951 . S
H4426 C4451 0.951 . S
H4427 C4453 0.950 . S
H4428 C4454 0.950 . S
H4429 C4456 0.950 . S
H4430 C4459 0.950 . S
H4431 C4460 0.950 . S
H4432 C4462 0.950 . S
H4433 C4463 0.950 . S
C4434 H4416 0.951 . S
C4434 C4435 1.366 . S
C4434 C4436 1.388 . S
C4435 C4434 1.366 . S
C4435 C4439 1.385 . S
C4436 H4417 0.951 . S
C4436 C4434 1.388 . S
C4436 C4437 1.366 . S
C4437 C4436 1.366 . S
C4437 C4438 1.414 . S
C4437 C4440 1.499 . S
C4438 H4418 0.950 . S
C4438 C4437 1.414 . S
C4438 C4439 1.374 . S
C4439 H4419 0.950 . S
C4439 C4435 1.385 . S
C4439 C4438 1.374 . S
C4440 C4437 1.499 . S
C4440 C4441 1.373 . S
C4440 C4442 1.389 . S
C4441 H4420 0.950 . S
C4441 C4440 1.373 . S
C4441 C4457 1.377 . S
C4442 C4440 1.389 . S
C4442 C4443 1.524 . S
C4442 C4456 1.377 . S
C4443 C4442 1.524 . S
C4443 C4444 1.397 . S
C4443 C4448 1.363 . S
C4444 H4421 0.950 . S
C4444 C4443 1.397 . S
C4444 C4445 1.334 . S
C4445 H4422 0.950 . S
C4445 C4444 1.334 . S
C4445 C4446 1.287 . S
C4446 C4445 1.287 . S
C4446 C4447 1.524 . S
C4446 H4465 0.913 . S
C4447 H4423 0.950 . S
C4447 C4446 1.524 . S
C4447 C4448 1.415 . S
C4448 H4424 0.950 . S
C4448 C4443 1.363 . S
C4448 C4447 1.415 . S
C4449 H4425 0.951 . S
C4449 C4450 1.366 . S
C4449 C4451 1.388 . S
C4450 C4449 1.366 . S
C4450 C4454 1.385 . S
C4451 H4426 0.951 . S
C4451 C4449 1.388 . S
C4451 C4452 1.366 . S
C4452 C4451 1.366 . S
C4452 C4453 1.414 . S
C4452 C4455 1.499 . S
C4453 H4427 0.950 . S
C4453 C4452 1.414 . S
C4453 C4454 1.374 . S
C4454 H4428 0.950 . S
C4454 C4450 1.385 . S
C4454 C4453 1.374 . S
C4455 C4452 1.499 . S
C4455 C4456 1.373 . S
C4455 C4457 1.389 . S
C4456 H4429 0.950 . S
C4456 C4442 1.377 . S
C4456 C4455 1.373 . S
C4457 C4441 1.377 . S
C4457 C4455 1.389 . S
C4457 C4458 1.524 . S
C4458 C4457 1.524 . S
C4458 C4459 1.397 . S
C4458 C4463 1.363 . S
C4459 H4430 0.950 . S
C4459 C4458 1.397 . S
C4459 C4460 1.334 . S
C4460 H4431 0.950 . S
C4460 C4459 1.334 . S
C4460 C4461 1.287 . S
C4461 C4460 1.287 . S
C4461 C4462 1.524 . S
C4461 H4464 0.999 . S
C4462 H4432 0.950 . S
C4462 C4461 1.524 . S
C4462 C4463 1.415 . S
C4463 H4433 0.950 . S
C4463 C4458 1.363 . S
C4463 C4462 1.415 . S
H4464 C4461 0.999 . S
H4465 C4446 0.913 . S
H4466 C4484 0.951 . S
H4467 C4486 0.951 . S
H4468 C4488 0.950 . S
H4469 C4489 0.950 . S
H4470 C4491 0.950 . S
H4471 C4494 0.950 . S
H4472 C4495 0.950 . S
H4473 C4497 0.950 . S
H4474 C4498 0.950 . S
H4475 C4499 0.951 . S
H4476 C4501 0.951 . S
H4477 C4503 0.950 . S
H4478 C4504 0.950 . S
H4479 C4506 0.950 . S
H4480 C4509 0.950 . S
H4481 C4510 0.950 . S
H4482 C4512 0.950 . S
H4483 C4513 0.950 . S
C4484 H4466 0.951 . S
C4484 C4485 1.366 . S
C4484 C4486 1.388 . S
C4485 C4484 1.366 . S
C4485 C4489 1.385 . S
C4486 H4467 0.951 . S
C4486 C4484 1.388 . S
C4486 C4487 1.366 . S
C4487 C4486 1.366 . S
C4487 C4488 1.414 . S
C4487 C4490 1.499 . S
C4488 H4468 0.950 . S
C4488 C4487 1.414 . S
C4488 C4489 1.374 . S
C4489 H4469 0.950 . S
C4489 C4485 1.385 . S
C4489 C4488 1.374 . S
C4490 C4487 1.499 . S
C4490 C4491 1.373 . S
C4490 C4492 1.389 . S
C4491 H4470 0.950 . S
C4491 C4490 1.373 . S
C4491 C4507 1.377 . S
C4492 C4490 1.389 . S
C4492 C4493 1.524 . S
C4492 C4506 1.377 . S
C4493 C4492 1.524 . S
C4493 C4494 1.397 . S
C4493 C4498 1.363 . S
C4494 H4471 0.950 . S
C4494 C4493 1.397 . S
C4494 C4495 1.334 . S
C4495 H4472 0.950 . S
C4495 C4494 1.334 . S
C4495 C4496 1.287 . S
C4496 C4495 1.287 . S
C4496 C4497 1.524 . S
C4496 H4515 0.913 . S
C4497 H4473 0.950 . S
C4497 C4496 1.524 . S
C4497 C4498 1.415 . S
C4498 H4474 0.950 . S
C4498 C4493 1.363 . S
C4498 C4497 1.415 . S
C4499 H4475 0.951 . S
C4499 C4500 1.366 . S
C4499 C4501 1.388 . S
C4500 C4499 1.366 . S
C4500 C4504 1.385 . S
C4501 H4476 0.951 . S
C4501 C4499 1.388 . S
C4501 C4502 1.366 . S
C4502 C4501 1.366 . S
C4502 C4503 1.414 . S
C4502 C4505 1.499 . S
C4503 H4477 0.950 . S
C4503 C4502 1.414 . S
C4503 C4504 1.374 . S
C4504 H4478 0.950 . S
C4504 C4500 1.385 . S
C4504 C4503 1.374 . S
C4505 C4502 1.499 . S
C4505 C4506 1.373 . S
C4505 C4507 1.389 . S
C4506 H4479 0.950 . S
C4506 C4492 1.377 . S
C4506 C4505 1.373 . S
C4507 C4491 1.377 . S
C4507 C4505 1.389 . S
C4507 C4508 1.524 . S
C4508 C4507 1.524 . S
C4508 C4509 1.397 . S
C4508 C4513 1.363 . S
C4509 H4480 0.950 . S
C4509 C4508 1.397 . S
C4509 C4510 1.334 . S
C4510 H4481 0.950 . S
C4510 C4509 1.334 . S
C4510 C4511 1.287 . S
C4511 C4510 1.287 . S
C4511 C4512 1.524 . S
C4511 H4514 0.999 . S
C4512 H4482 0.950 . S
C4512 C4511 1.524 . S
C4512 C4513 1.415 . S
C4513 H4483 0.950 . S
C4513 C4508 1.363 . S
C4513 C4512 1.415 . S
H4514 C4511 0.999 . S
H4515 C4496 0.913 . S
H4516 C4534 0.951 . S
H4517 C4536 0.951 . S
H4518 C4538 0.950 . S
H4519 C4539 0.950 1_455 S
H4520 C4541 0.950 . S
H4521 C4544 0.950 . S
H4522 C4545 0.950 . S
H4523 C4547 0.950 . S
H4524 C4548 0.950 . S
H4525 C4549 0.951 . S
H4526 C4551 0.951 . S
H4527 C4553 0.950 . S
H4528 C4554 0.950 . S
H4529 C4556 0.950 . S
H4530 C4559 0.950 . S
H4531 C4560 0.950 . S
H4532 C4562 0.950 . S
H4533 C4563 0.950 . S
C4534 H4516 0.951 . S
C4534 C4535 1.366 . S
C4534 C4536 1.388 . S
C4535 C4534 1.366 . S
C4535 C4539 1.385 . S
C4536 H4517 0.951 . S
C4536 C4534 1.388 . S
C4536 C4537 1.366 . S
C4537 C4536 1.366 . S
C4537 C4538 1.414 . S
C4537 C4540 1.499 . S
C4538 H4518 0.950 . S
C4538 C4537 1.414 . S
C4538 C4539 1.374 . S
C4539 H4519 0.950 1_655 S
C4539 C4535 1.385 . S
C4539 C4538 1.374 . S
C4540 C4537 1.499 . S
C4540 C4541 1.373 . S
C4540 C4542 1.389 . S
C4541 H4520 0.950 . S
C4541 C4540 1.373 . S
C4541 C4557 1.377 . S
C4542 C4540 1.389 . S
C4542 C4543 1.524 . S
C4542 C4556 1.377 . S
C4543 C4542 1.524 . S
C4543 C4544 1.397 . S
C4543 C4548 1.363 . S
C4544 H4521 0.950 . S
C4544 C4543 1.397 . S
C4544 C4545 1.334 . S
C4545 H4522 0.950 . S
C4545 C4544 1.334 . S
C4545 C4546 1.287 . S
C4546 C4545 1.287 . S
C4546 C4547 1.524 . S
C4546 H4565 0.913 . S
C4547 H4523 0.950 . S
C4547 C4546 1.524 . S
C4547 C4548 1.415 . S
C4548 H4524 0.950 . S
C4548 C4543 1.363 . S
C4548 C4547 1.415 . S
C4549 H4525 0.951 . S
C4549 C4550 1.366 . S
C4549 C4551 1.388 . S
C4550 C4549 1.366 . S
C4550 C4554 1.385 . S
C4551 H4526 0.951 . S
C4551 C4549 1.388 . S
C4551 C4552 1.366 . S
C4552 C4551 1.366 . S
C4552 C4553 1.414 . S
C4552 C4555 1.499 . S
C4553 H4527 0.950 . S
C4553 C4552 1.414 . S
C4553 C4554 1.374 . S
C4554 H4528 0.950 . S
C4554 C4550 1.385 . S
C4554 C4553 1.374 . S
C4555 C4552 1.499 . S
C4555 C4556 1.373 . S
C4555 C4557 1.389 . S
C4556 H4529 0.950 . S
C4556 C4542 1.377 . S
C4556 C4555 1.373 . S
C4557 C4541 1.377 . S
C4557 C4555 1.389 . S
C4557 C4558 1.524 . S
C4558 C4557 1.524 . S
C4558 C4559 1.397 . S
C4558 C4563 1.363 . S
C4559 H4530 0.950 . S
C4559 C4558 1.397 . S
C4559 C4560 1.334 . S
C4560 H4531 0.950 . S
C4560 C4559 1.334 . S
C4560 C4561 1.287 . S
C4561 C4560 1.287 . S
C4561 C4562 1.524 . S
C4561 H4564 0.999 . S
C4562 H4532 0.950 . S
C4562 C4561 1.524 . S
C4562 C4563 1.415 . S
C4563 H4533 0.950 . S
C4563 C4558 1.363 . S
C4563 C4562 1.415 . S
H4564 C4561 0.999 . S
H4565 C4546 0.913 . S
H4566 C4584 0.951 . S
H4567 C4586 0.951 . S
H4568 C4588 0.950 . S
H4569 C4589 0.950 . S
H4570 C4591 0.950 . S
H4571 C4594 0.950 . S
H4572 C4595 0.950 . S
H4573 C4597 0.950 . S
H4574 C4598 0.950 . S
H4575 C4599 0.951 . S
H4576 C4601 0.951 . S
H4577 C4603 0.950 . S
H4578 C4604 0.950 . S
H4579 C4606 0.950 . S
H4580 C4609 0.950 . S
H4581 C4610 0.950 . S
H4582 C4612 0.950 . S
H4583 C4613 0.950 . S
C4584 H4566 0.951 . S
C4584 C4585 1.366 . S
C4584 C4586 1.388 . S
C4585 C4584 1.366 . S
C4585 C4589 1.385 . S
C4586 H4567 0.951 . S
C4586 C4584 1.388 . S
C4586 C4587 1.366 . S
C4587 C4586 1.366 . S
C4587 C4588 1.414 . S
C4587 C4590 1.499 . S
C4588 H4568 0.950 . S
C4588 C4587 1.414 . S
C4588 C4589 1.374 . S
C4589 H4569 0.950 . S
C4589 C4585 1.385 . S
C4589 C4588 1.374 . S
C4590 C4587 1.499 . S
C4590 C4591 1.373 . S
C4590 C4592 1.389 . S
C4591 H4570 0.950 . S
C4591 C4590 1.373 . S
C4591 C4607 1.377 . S
C4592 C4590 1.389 . S
C4592 C4593 1.524 . S
C4592 C4606 1.377 . S
C4593 C4592 1.524 . S
C4593 C4594 1.397 . S
C4593 C4598 1.363 . S
C4594 H4571 0.950 . S
C4594 C4593 1.397 . S
C4594 C4595 1.334 . S
C4595 H4572 0.950 . S
C4595 C4594 1.334 . S
C4595 C4596 1.287 . S
C4596 C4595 1.287 . S
C4596 C4597 1.524 . S
C4596 H4615 0.913 . S
C4597 H4573 0.950 . S
C4597 C4596 1.524 . S
C4597 C4598 1.415 . S
C4598 H4574 0.950 . S
C4598 C4593 1.363 . S
C4598 C4597 1.415 . S
C4599 H4575 0.951 . S
C4599 C4600 1.366 . S
C4599 C4601 1.388 . S
C4600 C4599 1.366 . S
C4600 C4604 1.385 . S
C4601 H4576 0.951 . S
C4601 C4599 1.388 . S
C4601 C4602 1.366 . S
C4602 C4601 1.366 . S
C4602 C4603 1.414 . S
C4602 C4605 1.499 . S
C4603 H4577 0.950 . S
C4603 C4602 1.414 . S
C4603 C4604 1.374 . S
C4604 H4578 0.950 . S
C4604 C4600 1.385 . S
C4604 C4603 1.374 . S
C4605 C4602 1.499 . S
C4605 C4606 1.373 . S
C4605 C4607 1.389 . S
C4606 H4579 0.950 . S
C4606 C4592 1.377 . S
C4606 C4605 1.373 . S
C4607 C4591 1.377 . S
C4607 C4605 1.389 . S
C4607 C4608 1.476 1_545 S
C4608 C4607 1.476 1_565 S
C4608 C4609 1.444 . S
C4608 C4613 1.365 1_565 S
C4609 H4580 0.950 . S
C4609 C4608 1.444 . S
C4609 C4610 1.334 . S
C4610 H4581 0.950 . S
C4610 C4609 1.334 . S
C4610 C4611 1.287 . S
C4611 C4610 1.287 . S
C4611 C4612 1.524 . S
C4611 H4614 0.999 . S
C4612 H4582 0.950 . S
C4612 C4611 1.524 . S
C4612 C4613 1.415 1_565 S
C4613 H4583 0.950 . S
C4613 C4608 1.365 1_545 S
C4613 C4612 1.415 1_545 S
H4614 C4611 0.999 . S
H4615 C4596 0.913 . S
H4616 C4634 0.951 . S
H4617 C4636 0.951 . S
H4618 C4638 0.950 . S
H4619 C4639 0.950 . S
H4620 C4641 0.950 . S
H4621 C4644 0.950 . S
H4622 C4645 0.950 . S
H4623 C4647 0.950 . S
H4624 C4648 0.950 1_455 S
H4625 C4649 0.951 . S
H4626 C4651 0.951 . S
H4627 C4653 0.902 1_455 S
H4628 C4654 0.950 . S
H4629 C4656 0.950 . S
H4630 C4659 0.950 . S
H4631 C4660 0.950 . S
H4632 C4662 0.950 . S
H4633 C4663 0.950 . S
C4634 H4616 0.951 . S
C4634 C4635 1.366 . S
C4634 C4636 1.388 . S
C4635 C4634 1.366 . S
C4635 C4639 1.385 . S
C4636 H4617 0.951 . S
C4636 C4634 1.388 . S
C4636 C4637 1.366 . S
C4637 C4636 1.366 . S
C4637 C4638 1.414 . S
C4637 C4640 1.499 . S
C4638 H4618 0.950 . S
C4638 C4637 1.414 . S
C4638 C4639 1.374 . S
C4639 H4619 0.950 . S
C4639 C4635 1.385 . S
C4639 C4638 1.374 . S
C4640 C4637 1.499 . S
C4640 C4641 1.373 . S
C4640 C4642 1.389 . S
C4641 H4620 0.950 . S
C4641 C4640 1.373 . S
C4641 C4657 1.377 . S
C4642 C4640 1.389 . S
C4642 C4643 1.524 . S
C4642 C4656 1.377 . S
C4643 C4642 1.524 . S
C4643 C4644 1.397 . S
C4643 C4648 1.364 . S
C4644 H4621 0.950 . S
C4644 C4643 1.397 . S
C4644 C4645 1.334 . S
C4645 H4622 0.950 . S
C4645 C4644 1.334 . S
C4645 C4646 1.287 . S
C4646 C4645 1.287 . S
C4646 C4647 1.524 1_655 S
C4646 H4665 0.913 . S
C4647 H4623 0.950 . S
C4647 C4646 1.524 1_455 S
C4647 C4648 1.414 1_455 S
C4648 H4624 0.950 1_655 S
C4648 C4643 1.364 . S
C4648 C4647 1.414 1_655 S
C4649 H4625 0.951 . S
C4649 C4650 1.366 . S
C4649 C4651 1.388 . S
C4650 C4649 1.366 . S
C4650 C4654 1.385 1_655 S
C4651 H4626 0.951 . S
C4651 C4649 1.388 . S
C4651 C4652 1.366 . S
C4652 C4651 1.366 . S
C4652 C4653 1.446 . S
C4652 C4655 1.499 . S
C4653 H4627 0.902 1_655 S
C4653 C4652 1.446 . S
C4653 C4654 1.392 1_655 S
C4654 H4628 0.950 . S
C4654 C4650 1.385 1_455 S
C4654 C4653 1.392 1_455 S
C4655 C4652 1.499 . S
C4655 C4656 1.373 . S
C4655 C4657 1.389 . S
C4656 H4629 0.950 . S
C4656 C4642 1.377 . S
C4656 C4655 1.373 . S
C4657 C4641 1.377 . S
C4657 C4655 1.389 . S
C4657 C4658 1.524 . S
C4658 C4657 1.524 . S
C4658 C4659 1.397 . S
C4658 C4663 1.363 . S
C4659 H4630 0.950 . S
C4659 C4658 1.397 . S
C4659 C4660 1.334 . S
C4660 H4631 0.950 . S
C4660 C4659 1.334 . S
C4660 C4661 1.287 . S
C4661 C4660 1.287 . S
C4661 C4662 1.524 . S
C4661 H4664 0.999 . S
C4662 H4632 0.950 . S
C4662 C4661 1.524 . S
C4662 C4663 1.415 . S
C4663 H4633 0.950 . S
C4663 C4658 1.363 . S
C4663 C4662 1.415 . S
H4664 C4661 0.999 . S
H4665 C4646 0.913 . S
H4666 C4684 0.951 . S
H4667 C4686 0.951 . S
H4668 C4688 0.950 . S
H4669 C4689 0.950 . S
H4670 C4691 0.950 . S
H4671 C4694 0.950 . S
H4672 C4695 0.950 . S
H4673 C4697 0.950 . S
H4674 C4698 0.950 . S
H4675 C4699 0.951 . S
H4676 C4701 0.951 . S
H4677 C4703 0.950 . S
H4678 C4704 0.950 . S
H4679 C4706 0.950 . S
H4680 C4709 0.950 . S
H4681 C4710 0.950 . S
H4682 C4712 0.950 . S
H4683 C4713 0.950 . S
C4684 H4666 0.951 . S
C4684 C4685 1.366 . S
C4684 C4686 1.388 . S
C4685 C4684 1.366 . S
C4685 C4689 1.385 . S
C4686 H4667 0.951 . S
C4686 C4684 1.388 . S
C4686 C4687 1.366 . S
C4687 C4686 1.366 . S
C4687 C4688 1.414 . S
C4687 C4690 1.499 . S
C4688 H4668 0.950 . S
C4688 C4687 1.414 . S
C4688 C4689 1.374 . S
C4689 H4669 0.950 . S
C4689 C4685 1.385 . S
C4689 C4688 1.374 . S
C4690 C4687 1.499 . S
C4690 C4691 1.373 . S
C4690 C4692 1.389 . S
C4691 H4670 0.950 . S
C4691 C4690 1.373 . S
C4691 C4707 1.377 . S
C4692 C4690 1.389 . S
C4692 C4693 1.524 . S
C4692 C4706 1.377 . S
C4693 C4692 1.524 . S
C4693 C4694 1.397 . S
C4693 C4698 1.363 . S
C4694 H4671 0.950 . S
C4694 C4693 1.397 . S
C4694 C4695 1.334 . S
C4695 H4672 0.950 . S
C4695 C4694 1.334 . S
C4695 C4696 1.287 . S
C4696 C4695 1.287 . S
C4696 C4697 1.524 . S
C4696 H4715 0.913 . S
C4697 H4673 0.950 . S
C4697 C4696 1.524 . S
C4697 C4698 1.415 . S
C4698 H4674 0.950 . S
C4698 C4693 1.363 . S
C4698 C4697 1.415 . S
C4699 H4675 0.951 . S
C4699 C4700 1.366 . S
C4699 C4701 1.388 . S
C4700 C4699 1.366 . S
C4700 C4704 1.385 . S
C4701 H4676 0.951 . S
C4701 C4699 1.388 . S
C4701 C4702 1.366 . S
C4702 C4701 1.366 . S
C4702 C4703 1.414 . S
C4702 C4705 1.499 . S
C4703 H4677 0.950 . S
C4703 C4702 1.414 . S
C4703 C4704 1.374 . S
C4704 H4678 0.950 . S
C4704 C4700 1.385 . S
C4704 C4703 1.374 . S
C4705 C4702 1.499 . S
C4705 C4706 1.373 . S
C4705 C4707 1.389 . S
C4706 H4679 0.950 . S
C4706 C4692 1.377 . S
C4706 C4705 1.373 . S
C4707 C4691 1.377 . S
C4707 C4705 1.389 . S
C4707 C4708 1.524 . S
C4708 C4707 1.524 . S
C4708 C4709 1.397 . S
C4708 C4713 1.363 . S
C4709 H4680 0.950 . S
C4709 C4708 1.397 . S
C4709 C4710 1.334 . S
C4710 H4681 0.950 . S
C4710 C4709 1.334 . S
C4710 C4711 1.287 . S
C4711 C4710 1.287 . S
C4711 C4712 1.524 . S
C4711 H4714 0.999 . S
C4712 H4682 0.950 . S
C4712 C4711 1.524 . S
C4712 C4713 1.415 . S
C4713 H4683 0.950 . S
C4713 C4708 1.363 . S
C4713 C4712 1.415 . S
H4714 C4711 0.999 . S
H4715 C4696 0.913 . S
H4716 C4734 0.951 . S
H4717 C4736 0.951 . S
H4718 C4738 0.950 . S
H4719 C4739 0.950 . S
H4720 C4741 0.950 . S
H4721 C4744 0.950 . S
H4722 C4745 0.950 . S
H4723 C4747 0.950 . S
H4724 C4748 0.950 . S
H4725 C4749 0.951 . S
H4726 C4751 0.951 . S
H4727 C4753 0.950 . S
H4728 C4754 0.950 . S
H4729 C4756 0.950 . S
H4730 C4759 0.950 . S
H4731 C4760 0.950 . S
H4732 C4762 0.950 . S
H4733 C4763 0.950 . S
C4734 H4716 0.951 . S
C4734 C4735 1.366 . S
C4734 C4736 1.388 . S
C4735 C4734 1.366 . S
C4735 C4739 1.385 . S
C4736 H4717 0.951 . S
C4736 C4734 1.388 . S
C4736 C4737 1.366 . S
C4737 C4736 1.366 . S
C4737 C4738 1.414 . S
C4737 C4740 1.499 . S
C4738 H4718 0.950 . S
C4738 C4737 1.414 . S
C4738 C4739 1.374 . S
C4739 H4719 0.950 . S
C4739 C4735 1.385 . S
C4739 C4738 1.374 . S
C4740 C4737 1.499 . S
C4740 C4741 1.373 . S
C4740 C4742 1.389 . S
C4741 H4720 0.950 . S
C4741 C4740 1.373 . S
C4741 C4757 1.377 . S
C4742 C4740 1.389 . S
C4742 C4743 1.524 . S
C4742 C4756 1.377 . S
C4743 C4742 1.524 . S
C4743 C4744 1.397 . S
C4743 C4748 1.363 . S
C4744 H4721 0.950 . S
C4744 C4743 1.397 . S
C4744 C4745 1.334 . S
C4745 H4722 0.950 . S
C4745 C4744 1.334 . S
C4745 C4746 1.287 . S
C4746 C4745 1.287 . S
C4746 C4747 1.524 . S
C4746 H4765 0.913 . S
C4747 H4723 0.950 . S
C4747 C4746 1.524 . S
C4747 C4748 1.415 . S
C4748 H4724 0.950 . S
C4748 C4743 1.363 . S
C4748 C4747 1.415 . S
C4749 H4725 0.951 . S
C4749 C4750 1.366 . S
C4749 C4751 1.388 . S
C4750 C4749 1.366 . S
C4750 C4754 1.385 . S
C4751 H4726 0.951 . S
C4751 C4749 1.388 . S
C4751 C4752 1.366 . S
C4752 C4751 1.366 . S
C4752 C4753 1.414 . S
C4752 C4755 1.499 . S
C4753 H4727 0.950 . S
C4753 C4752 1.414 . S
C4753 C4754 1.374 . S
C4754 H4728 0.950 . S
C4754 C4750 1.385 . S
C4754 C4753 1.374 . S
C4755 C4752 1.499 . S
C4755 C4756 1.373 . S
C4755 C4757 1.389 . S
C4756 H4729 0.950 . S
C4756 C4742 1.377 . S
C4756 C4755 1.373 . S
C4757 C4741 1.377 . S
C4757 C4755 1.389 . S
C4757 C4758 1.524 . S
C4758 C4757 1.524 . S
C4758 C4759 1.397 . S
C4758 C4763 1.363 . S
C4759 H4730 0.950 . S
C4759 C4758 1.397 . S
C4759 C4760 1.334 . S
C4760 H4731 0.950 . S
C4760 C4759 1.334 . S
C4760 C4761 1.287 . S
C4761 C4760 1.287 . S
C4761 C4762 1.524 . S
C4761 H4764 0.999 . S
C4762 H4732 0.950 . S
C4762 C4761 1.524 . S
C4762 C4763 1.415 . S
C4763 H4733 0.950 . S
C4763 C4758 1.363 . S
C4763 C4762 1.415 . S
H4764 C4761 0.999 . S
H4765 C4746 0.913 . S
H4766 C4784 0.951 1_545 S
H4767 C4786 0.951 . S
H4768 C4788 0.950 . S
H4769 C4789 0.950 . S
H4770 C4791 0.950 . S
H4771 C4794 0.950 . S
H4772 C4795 0.950 . S
H4773 C4797 0.950 . S
H4774 C4798 0.950 . S
H4775 C4799 0.951 . S
H4776 C4801 0.951 . S
H4777 C4803 0.950 . S
H4778 C4804 0.950 . S
H4779 C4806 0.950 . S
H4780 C4809 0.950 . S
H4781 C4810 0.950 . S
H4782 C4812 0.950 . S
H4783 C4813 0.950 . S
C4784 H4766 0.951 1_565 S
C4784 C4785 1.366 . S
C4784 C4786 1.388 . S
C4785 C4784 1.366 . S
C4785 C4789 1.385 . S
C4786 H4767 0.951 . S
C4786 C4784 1.388 . S
C4786 C4787 1.366 . S
C4787 C4786 1.366 . S
C4787 C4788 1.414 . S
C4787 C4790 1.499 . S
C4788 H4768 0.950 . S
C4788 C4787 1.414 . S
C4788 C4789 1.374 . S
C4789 H4769 0.950 . S
C4789 C4785 1.385 . S
C4789 C4788 1.374 . S
C4790 C4787 1.499 . S
C4790 C4791 1.373 . S
C4790 C4792 1.389 . S
C4791 H4770 0.950 . S
C4791 C4790 1.373 . S
C4791 C4807 1.377 . S
C4792 C4790 1.389 . S
C4792 C4793 1.524 . S
C4792 C4806 1.377 . S
C4793 C4792 1.524 . S
C4793 C4794 1.397 . S
C4793 C4798 1.363 . S
C4794 H4771 0.950 . S
C4794 C4793 1.397 . S
C4794 C4795 1.334 . S
C4795 H4772 0.950 . S
C4795 C4794 1.334 . S
C4795 C4796 1.287 . S
C4796 C4795 1.287 . S
C4796 C4797 1.524 . S
C4796 H4815 0.913 . S
C4797 H4773 0.950 . S
C4797 C4796 1.524 . S
C4797 C4798 1.415 . S
C4798 H4774 0.950 . S
C4798 C4793 1.363 . S
C4798 C4797 1.415 . S
C4799 H4775 0.951 . S
C4799 C4800 1.366 . S
C4799 C4801 1.388 . S
C4800 C4799 1.366 . S
C4800 C4804 1.385 . S
C4801 H4776 0.951 . S
C4801 C4799 1.388 . S
C4801 C4802 1.366 . S
C4802 C4801 1.366 . S
C4802 C4803 1.414 . S
C4802 C4805 1.499 . S
C4803 H4777 0.950 . S
C4803 C4802 1.414 . S
C4803 C4804 1.374 . S
C4804 H4778 0.950 . S
C4804 C4800 1.385 . S
C4804 C4803 1.374 . S
C4805 C4802 1.499 . S
C4805 C4806 1.373 . S
C4805 C4807 1.389 . S
C4806 H4779 0.950 . S
C4806 C4792 1.377 . S
C4806 C4805 1.373 . S
C4807 C4791 1.377 . S
C4807 C4805 1.389 . S
C4807 C4808 1.524 . S
C4808 C4807 1.524 . S
C4808 C4809 1.397 . S
C4808 C4813 1.363 . S
C4809 H4780 0.950 . S
C4809 C4808 1.397 . S
C4809 C4810 1.334 . S
C4810 H4781 0.950 . S
C4810 C4809 1.334 . S
C4810 C4811 1.287 . S
C4811 C4810 1.287 . S
C4811 C4812 1.524 . S
C4811 H4814 0.999 . S
C4812 H4782 0.950 . S
C4812 C4811 1.524 . S
C4812 C4813 1.415 . S
C4813 H4783 0.950 . S
C4813 C4808 1.363 . S
C4813 C4812 1.415 . S
H4814 C4811 0.999 . S
H4815 C4796 0.913 . S
H4816 C4834 0.951 1_655 S
H4817 C4836 0.951 . S
H4818 C4838 0.950 . S
H4819 C4839 0.950 . S
H4820 C4841 0.950 . S
H4821 C4844 0.950 . S
H4822 C4845 0.950 1_655 S
H4823 C4847 0.950 . S
H4824 C4848 0.950 . S
H4825 C4849 0.951 . S
H4826 C4851 0.951 . S
H4827 C4853 0.950 . S
H4828 C4854 0.950 . S
H4829 C4856 0.950 . S
H4830 C4859 0.950 . S
H4831 C4860 0.950 . S
H4832 C4862 0.950 . S
H4833 C4863 0.950 . S
C4834 H4816 0.951 1_455 S
C4834 C4835 1.366 . S
C4834 C4836 1.388 . S
C4835 C4834 1.366 . S
C4835 C4839 1.385 . S
C4836 H4817 0.951 . S
C4836 C4834 1.388 . S
C4836 C4837 1.366 . S
C4837 C4836 1.366 . S
C4837 C4838 1.414 . S
C4837 C4840 1.499 . S
C4838 H4818 0.950 . S
C4838 C4837 1.414 . S
C4838 C4839 1.374 . S
C4839 H4819 0.950 . S
C4839 C4835 1.385 . S
C4839 C4838 1.374 . S
C4840 C4837 1.499 . S
C4840 C4841 1.373 . S
C4840 C4842 1.389 . S
C4841 H4820 0.950 . S
C4841 C4840 1.373 . S
C4841 C4857 1.377 . S
C4842 C4840 1.389 . S
C4842 C4843 1.524 . S
C4842 C4856 1.377 . S
C4843 C4842 1.524 . S
C4843 C4844 1.397 . S
C4843 C4848 1.363 . S
C4844 H4821 0.950 . S
C4844 C4843 1.397 . S
C4844 C4845 1.334 . S
C4845 H4822 0.950 1_455 S
C4845 C4844 1.334 . S
C4845 C4846 1.287 1_455 S
C4846 C4845 1.287 1_655 S
C4846 C4847 1.524 1_655 S
C4846 H4865 0.913 . S
C4847 H4823 0.950 . S
C4847 C4846 1.524 1_455 S
C4847 C4848 1.415 . S
C4848 H4824 0.950 . S
C4848 C4843 1.363 . S
C4848 C4847 1.415 . S
C4849 H4825 0.951 . S
C4849 C4850 1.366 . S
C4849 C4851 1.388 . S
C4850 C4849 1.366 . S
C4850 C4854 1.385 . S
C4851 H4826 0.951 . S
C4851 C4849 1.388 . S
C4851 C4852 1.366 . S
C4852 C4851 1.366 . S
C4852 C4853 1.414 . S
C4852 C4855 1.499 . S
C4853 H4827 0.950 . S
C4853 C4852 1.414 . S
C4853 C4854 1.374 . S
C4854 H4828 0.950 . S
C4854 C4850 1.385 . S
C4854 C4853 1.374 . S
C4855 C4852 1.499 . S
C4855 C4856 1.373 . S
C4855 C4857 1.389 . S
C4856 H4829 0.950 . S
C4856 C4842 1.377 . S
C4856 C4855 1.373 . S
C4857 C4841 1.377 . S
C4857 C4855 1.389 . S
C4857 C4858 1.524 . S
C4858 C4857 1.524 . S
C4858 C4859 1.397 . S
C4858 C4863 1.363 . S
C4859 H4830 0.950 . S
C4859 C4858 1.397 . S
C4859 C4860 1.334 . S
C4860 H4831 0.950 . S
C4860 C4859 1.334 . S
C4860 C4861 1.287 . S
C4861 C4860 1.287 . S
C4861 C4862 1.524 . S
C4861 H4864 0.999 . S
C4862 H4832 0.950 . S
C4862 C4861 1.524 . S
C4862 C4863 1.415 . S
C4863 H4833 0.950 . S
C4863 C4858 1.363 . S
C4863 C4862 1.415 . S
H4864 C4861 0.999 . S
H4865 C4846 0.913 . S
H4866 C4884 0.951 . S
H4867 C4886 0.951 . S
H4868 C4888 0.950 . S
H4869 C4889 0.950 . S
H4870 C4891 0.950 . S
H4871 C4894 0.950 . S
H4872 C4895 0.950 . S
H4873 C4897 0.950 . S
H4874 C4898 0.950 . S
H4875 C4899 0.951 . S
H4876 C4901 0.951 . S
H4877 C4903 0.950 . S
H4878 C4904 0.950 . S
H4879 C4906 0.950 . S
H4880 C4909 0.950 . S
H4881 C4910 0.950 . S
H4882 C4912 0.950 . S
H4883 C4913 0.950 . S
C4884 H4866 0.951 . S
C4884 C4885 1.366 . S
C4884 C4886 1.388 . S
C4885 C4884 1.366 . S
C4885 C4889 1.385 . S
C4886 H4867 0.951 . S
C4886 C4884 1.388 . S
C4886 C4887 1.366 . S
C4887 C4886 1.366 . S
C4887 C4888 1.414 . S
C4887 C4890 1.499 . S
C4888 H4868 0.950 . S
C4888 C4887 1.414 . S
C4888 C4889 1.374 . S
C4889 H4869 0.950 . S
C4889 C4885 1.385 . S
C4889 C4888 1.374 . S
C4890 C4887 1.499 . S
C4890 C4891 1.373 . S
C4890 C4892 1.389 . S
C4891 H4870 0.950 . S
C4891 C4890 1.373 . S
C4891 C4907 1.377 . S
C4892 C4890 1.389 . S
C4892 C4893 1.524 . S
C4892 C4906 1.377 . S
C4893 C4892 1.524 . S
C4893 C4894 1.397 . S
C4893 C4898 1.363 . S
C4894 H4871 0.950 . S
C4894 C4893 1.397 . S
C4894 C4895 1.334 . S
C4895 H4872 0.950 . S
C4895 C4894 1.334 . S
C4895 C4896 1.287 . S
C4896 C4895 1.287 . S
C4896 C4897 1.524 . S
C4896 H4915 0.913 . S
C4897 H4873 0.950 . S
C4897 C4896 1.524 . S
C4897 C4898 1.415 . S
C4898 H4874 0.950 . S
C4898 C4893 1.363 . S
C4898 C4897 1.415 . S
C4899 H4875 0.951 . S
C4899 C4900 1.366 . S
C4899 C4901 1.388 . S
C4900 C4899 1.366 . S
C4900 C4904 1.385 . S
C4901 H4876 0.951 . S
C4901 C4899 1.388 . S
C4901 C4902 1.366 . S
C4902 C4901 1.366 . S
C4902 C4903 1.414 . S
C4902 C4905 1.499 . S
C4903 H4877 0.950 . S
C4903 C4902 1.414 . S
C4903 C4904 1.374 . S
C4904 H4878 0.950 . S
C4904 C4900 1.385 . S
C4904 C4903 1.374 . S
C4905 C4902 1.499 . S
C4905 C4906 1.373 . S
C4905 C4907 1.389 . S
C4906 H4879 0.950 . S
C4906 C4892 1.377 . S
C4906 C4905 1.373 . S
C4907 C4891 1.377 . S
C4907 C4905 1.389 . S
C4907 C4908 1.524 . S
C4908 C4907 1.524 . S
C4908 C4909 1.397 . S
C4908 C4913 1.363 . S
C4909 H4880 0.950 . S
C4909 C4908 1.397 . S
C4909 C4910 1.334 . S
C4910 H4881 0.950 . S
C4910 C4909 1.334 . S
C4910 C4911 1.287 . S
C4911 C4910 1.287 . S
C4911 C4912 1.524 . S
C4911 H4914 0.999 . S
C4912 H4882 0.950 . S
C4912 C4911 1.524 . S
C4912 C4913 1.415 . S
C4913 H4883 0.950 . S
C4913 C4908 1.363 . S
C4913 C4912 1.415 . S
H4914 C4911 0.999 . S
H4915 C4896 0.913 . S
H4916 C4934 0.951 . S
H4917 C4936 0.951 . S
H4918 C4938 0.950 . S
H4919 C4939 0.950 . S
H4920 C4941 0.950 . S
H4921 C4944 0.950 . S
H4922 C4945 0.955 . S
H4923 C4947 0.950 . S
H4924 C4948 0.950 . S
H4925 C4949 0.951 . S
H4926 C4951 0.951 . S
H4927 C4953 0.950 . S
H4928 C4954 0.950 . S
H4929 C4956 0.950 . S
H4930 C4959 0.950 . S
H4931 C4960 0.950 . S
H4932 C4962 0.950 . S
H4933 C4963 0.950 . S
C4934 H4916 0.951 . S
C4934 C4935 1.403 . S
C4934 C4936 1.388 . S
C4935 C4934 1.403 . S
C4935 C4939 1.385 . S
C4936 H4917 0.951 . S
C4936 C4934 1.388 . S
C4936 C4937 1.366 . S
C4937 C4936 1.366 . S
C4937 C4938 1.414 . S
C4937 C4940 1.499 . S
C4938 H4918 0.950 . S
C4938 C4937 1.414 . S
C4938 C4939 1.374 . S
C4939 H4919 0.950 . S
C4939 C4935 1.385 . S
C4939 C4938 1.374 . S
C4940 C4937 1.499 . S
C4940 C4941 1.373 . S
C4940 C4942 1.389 . S
C4941 H4920 0.950 . S
C4941 C4940 1.373 . S
C4941 C4957 1.377 . S
C4942 C4940 1.389 . S
C4942 C4943 1.524 . S
C4942 C4956 1.377 . S
C4943 C4942 1.524 . S
C4943 C4944 1.397 . S
C4943 C4948 1.363 . S
C4944 H4921 0.950 . S
C4944 C4943 1.397 . S
C4944 C4945 1.334 . S
C4945 H4922 0.955 . S
C4945 C4944 1.334 . S
C4945 C4946 1.287 . S
C4946 C4945 1.287 . S
C4946 C4947 1.524 . S
C4946 H4965 0.913 . S
C4947 H4923 0.950 . S
C4947 C4946 1.524 . S
C4947 C4948 1.415 . S
C4948 H4924 0.950 . S
C4948 C4943 1.363 . S
C4948 C4947 1.415 . S
C4949 H4925 0.951 . S
C4949 C4950 1.366 . S
C4949 C4951 1.388 . S
C4950 C4949 1.366 . S
C4950 C4954 1.385 . S
C4951 H4926 0.951 . S
C4951 C4949 1.388 . S
C4951 C4952 1.366 . S
C4952 C4951 1.366 . S
C4952 C4953 1.414 . S
C4952 C4955 1.499 . S
C4953 H4927 0.950 . S
C4953 C4952 1.414 . S
C4953 C4954 1.374 . S
C4954 H4928 0.950 . S
C4954 C4950 1.385 . S
C4954 C4953 1.374 . S
C4955 C4952 1.499 . S
C4955 C4956 1.373 . S
C4955 C4957 1.389 . S
C4956 H4929 0.950 . S
C4956 C4942 1.377 . S
C4956 C4955 1.373 . S
C4957 C4941 1.377 . S
C4957 C4955 1.389 . S
C4957 C4958 1.524 . S
C4958 C4957 1.524 . S
C4958 C4959 1.397 . S
C4958 C4963 1.363 . S
C4959 H4930 0.950 . S
C4959 C4958 1.397 . S
C4959 C4960 1.334 . S
C4960 H4931 0.950 . S
C4960 C4959 1.334 . S
C4960 C4961 1.287 . S
C4961 C4960 1.287 . S
C4961 C4962 1.524 . S
C4961 H4964 0.999 . S
C4962 H4932 0.950 . S
C4962 C4961 1.524 . S
C4962 C4963 1.415 . S
C4963 H4933 0.950 . S
C4963 C4958 1.363 . S
C4963 C4962 1.415 . S
H4964 C4961 0.999 . S
H4965 C4946 0.913 . S
H4966 C4984 0.951 . S
H4967 C4986 0.951 . S
H4968 C4988 0.950 . S
H4969 C4989 0.950 . S
H4970 C4991 0.950 . S
H4971 C4994 0.950 . S
H4972 C4995 0.950 . S
H4973 C4997 0.950 . S
H4974 C4998 0.950 . S
H4975 C4999 0.951 . S
H4976 C5001 0.951 . S
H4977 C5003 0.950 . S
H4978 C5004 0.950 . S
H4979 C5006 0.950 . S
H4980 C5009 0.950 . S
H4981 C5010 0.950 . S
H4982 C5012 0.950 . S
H4983 C5013 0.950 . S
C4984 H4966 0.951 . S
C4984 C4985 1.366 1_455 S
C4984 C4986 1.388 . S
C4985 C4984 1.366 1_655 S
C4985 C4989 1.385 . S
C4986 H4967 0.951 . S
C4986 C4984 1.388 . S
C4986 C4987 1.366 . S
C4987 C4986 1.366 . S
C4987 C4988 1.414 . S
C4987 C4990 1.499 . S
C4988 H4968 0.950 . S
C4988 C4987 1.414 . S
C4988 C4989 1.374 1_455 S
C4989 H4969 0.950 . S
C4989 C4985 1.385 . S
C4989 C4988 1.374 1_655 S
C4990 C4987 1.499 . S
C4990 C4991 1.373 . S
C4990 C4992 1.389 . S
C4991 H4970 0.950 . S
C4991 C4990 1.373 . S
C4991 C5007 1.377 . S
C4992 C4990 1.389 . S
C4992 C4993 1.524 . S
C4992 C5006 1.377 . S
C4993 C4992 1.524 . S
C4993 C4994 1.397 . S
C4993 C4998 1.363 . S
C4994 H4971 0.950 . S
C4994 C4993 1.397 . S
C4994 C4995 1.334 . S
C4995 H4972 0.950 . S
C4995 C4994 1.334 . S
C4995 C4996 1.287 . S
C4996 C4995 1.287 . S
C4996 C4997 1.524 . S
C4996 H5015 0.913 . S
C4997 H4973 0.950 . S
C4997 C4996 1.524 . S
C4997 C4998 1.415 . S
C4998 H4974 0.950 . S
C4998 C4993 1.363 . S
C4998 C4997 1.415 . S
C4999 H4975 0.951 . S
C4999 C5000 1.366 . S
C4999 C5001 1.388 . S
C5000 C4999 1.366 . S
C5000 C5004 1.385 . S
C5001 H4976 0.951 . S
C5001 C4999 1.388 . S
C5001 C5002 1.366 . S
C5002 C5001 1.366 . S
C5002 C5003 1.414 . S
C5002 C5005 1.499 . S
C5003 H4977 0.950 . S
C5003 C5002 1.414 . S
C5003 C5004 1.374 . S
C5004 H4978 0.950 . S
C5004 C5000 1.385 . S
C5004 C5003 1.374 . S
C5005 C5002 1.499 . S
C5005 C5006 1.373 . S
C5005 C5007 1.389 . S
C5006 H4979 0.950 . S
C5006 C4992 1.377 . S
C5006 C5005 1.373 . S
C5007 C4991 1.377 . S
C5007 C5005 1.389 . S
C5007 C5008 1.524 . S
C5008 C5007 1.524 . S
C5008 C5009 1.397 . S
C5008 C5013 1.363 . S
C5009 H4980 0.950 . S
C5009 C5008 1.397 . S
C5009 C5010 1.334 . S
C5010 H4981 0.950 . S
C5010 C5009 1.334 . S
C5010 C5011 1.287 . S
C5011 C5010 1.287 . S
C5011 C5012 1.524 . S
C5011 H5014 0.999 . S
C5012 H4982 0.950 . S
C5012 C5011 1.524 . S
C5012 C5013 1.415 . S
C5013 H4983 0.950 . S
C5013 C5008 1.363 . S
C5013 C5012 1.415 . S
H5014 C5011 0.999 . S
H5015 C4996 0.913 . S
H5016 C5034 0.951 . S
H5017 C5036 0.951 . S
H5018 C5038 0.950 . S
H5019 C5039 0.950 . S
H5020 C5041 0.950 . S
H5021 C5044 0.950 . S
H5022 C5045 0.950 . S
H5023 C5047 0.950 . S
H5024 C5048 0.950 . S
H5025 C5049 0.951 . S
H5026 C5051 0.951 . S
H5027 C5053 0.950 . S
H5028 C5054 0.950 . S
H5029 C5056 0.950 . S
H5030 C5059 0.950 . S
H5031 C5060 0.950 . S
H5032 C5062 0.950 . S
H5033 C5063 0.950 . S
C5034 H5016 0.951 . S
C5034 C5035 1.366 . S
C5034 C5036 1.388 . S
C5035 C5034 1.366 . S
C5035 C5039 1.385 . S
C5036 H5017 0.951 . S
C5036 C5034 1.388 . S
C5036 C5037 1.366 . S
C5037 C5036 1.366 . S
C5037 C5038 1.414 . S
C5037 C5040 1.499 . S
C5038 H5018 0.950 . S
C5038 C5037 1.414 . S
C5038 C5039 1.374 . S
C5039 H5019 0.950 . S
C5039 C5035 1.385 . S
C5039 C5038 1.374 . S
C5040 C5037 1.499 . S
C5040 C5041 1.373 . S
C5040 C5042 1.389 . S
C5041 H5020 0.950 . S
C5041 C5040 1.373 . S
C5041 C5057 1.377 . S
C5042 C5040 1.389 . S
C5042 C5043 1.524 . S
C5042 C5056 1.377 . S
C5043 C5042 1.524 . S
C5043 C5044 1.397 . S
C5043 C5048 1.363 . S
C5044 H5021 0.950 . S
C5044 C5043 1.397 . S
C5044 C5045 1.334 . S
C5045 H5022 0.950 . S
C5045 C5044 1.334 . S
C5045 C5046 1.287 . S
C5046 C5045 1.287 . S
C5046 C5047 1.524 . S
C5046 H5065 0.913 . S
C5047 H5023 0.950 . S
C5047 C5046 1.524 . S
C5047 C5048 1.415 . S
C5048 H5024 0.950 . S
C5048 C5043 1.363 . S
C5048 C5047 1.415 . S
C5049 H5025 0.951 . S
C5049 C5050 1.366 1_455 S
C5049 C5051 1.388 . S
C5050 C5049 1.366 1_655 S
C5050 C5054 1.385 . S
C5051 H5026 0.951 . S
C5051 C5049 1.388 . S
C5051 C5052 1.366 1_455 S
C5052 C5051 1.366 1_655 S
C5052 C5053 1.414 . S
C5052 C5055 1.499 . S
C5053 H5027 0.950 . S
C5053 C5052 1.414 . S
C5053 C5054 1.374 . S
C5054 H5028 0.950 . S
C5054 C5050 1.385 . S
C5054 C5053 1.374 . S
C5055 C5052 1.499 . S
C5055 C5056 1.373 . S
C5055 C5057 1.389 . S
C5056 H5029 0.950 . S
C5056 C5042 1.377 . S
C5056 C5055 1.373 . S
C5057 C5041 1.377 . S
C5057 C5055 1.389 . S
C5057 C5058 1.524 . S
C5058 C5057 1.524 . S
C5058 C5059 1.397 . S
C5058 C5063 1.363 1_655 S
C5059 H5030 0.950 . S
C5059 C5058 1.397 . S
C5059 C5060 1.334 . S
C5060 H5031 0.950 . S
C5060 C5059 1.334 . S
C5060 C5061 1.287 . S
C5061 C5060 1.287 . S
C5061 C5062 1.524 1_655 S
C5061 H5064 0.992 1_655 S
C5062 H5032 0.950 . S
C5062 C5061 1.524 1_455 S
C5062 C5063 1.415 . S
C5063 H5033 0.950 . S
C5063 C5058 1.363 1_455 S
C5063 C5062 1.415 . S
H5064 C5061 0.992 1_455 S
H5065 C5046 0.913 . S
H5066 C5084 0.951 . S
H5067 C5086 0.951 . S
H5068 C5088 0.950 . S
H5069 C5089 0.950 . S
H5070 C5091 0.950 . S
H5071 C5094 0.950 . S
H5072 C5095 0.950 . S
H5073 C5097 0.950 . S
H5074 C5098 0.950 . S
H5075 C5099 0.951 . S
H5076 C5101 0.951 . S
H5077 C5103 0.950 . S
H5078 C5104 0.950 . S
H5079 C5106 0.950 . S
H5080 C5109 0.950 . S
H5081 C5110 0.950 . S
H5082 C5112 0.950 . S
H5083 C5113 0.950 . S
C5084 H5066 0.951 . S
C5084 C5085 1.366 . S
C5084 C5086 1.388 . S
C5085 C5084 1.366 . S
C5085 C5089 1.385 . S
C5086 H5067 0.951 . S
C5086 C5084 1.388 . S
C5086 C5087 1.366 . S
C5087 C5086 1.366 . S
C5087 C5088 1.414 . S
C5087 C5090 1.499 . S
C5088 H5068 0.950 . S
C5088 C5087 1.414 . S
C5088 C5089 1.374 . S
C5089 H5069 0.950 . S
C5089 C5085 1.385 . S
C5089 C5088 1.374 . S
C5090 C5087 1.499 . S
C5090 C5091 1.373 . S
C5090 C5092 1.389 . S
C5091 H5070 0.950 . S
C5091 C5090 1.373 . S
C5091 C5107 1.377 . S
C5092 C5090 1.389 . S
C5092 C5093 1.524 . S
C5092 C5106 1.377 . S
C5093 C5092 1.524 . S
C5093 C5094 1.397 . S
C5093 C5098 1.363 . S
C5094 H5071 0.950 . S
C5094 C5093 1.397 . S
C5094 C5095 1.334 . S
C5095 H5072 0.950 . S
C5095 C5094 1.334 . S
C5095 C5096 1.287 . S
C5096 C5095 1.287 . S
C5096 C5097 1.524 . S
C5096 H5115 0.913 . S
C5097 H5073 0.950 . S
C5097 C5096 1.524 . S
C5097 C5098 1.415 . S
C5098 H5074 0.950 . S
C5098 C5093 1.363 . S
C5098 C5097 1.415 . S
C5099 H5075 0.951 . S
C5099 C5100 1.366 . S
C5099 C5101 1.388 . S
C5100 C5099 1.366 . S
C5100 C5104 1.385 . S
C5101 H5076 0.951 . S
C5101 C5099 1.388 . S
C5101 C5102 1.366 . S
C5102 C5101 1.366 . S
C5102 C5103 1.414 . S
C5102 C5105 1.499 . S
C5103 H5077 0.950 . S
C5103 C5102 1.414 . S
C5103 C5104 1.374 . S
C5104 H5078 0.950 . S
C5104 C5100 1.385 . S
C5104 C5103 1.374 . S
C5105 C5102 1.499 . S
C5105 C5106 1.373 . S
C5105 C5107 1.389 . S
C5106 H5079 0.950 . S
C5106 C5092 1.377 . S
C5106 C5105 1.373 . S
C5107 C5091 1.377 . S
C5107 C5105 1.389 . S
C5107 C5108 1.524 . S
C5108 C5107 1.524 . S
C5108 C5109 1.397 . S
C5108 C5113 1.363 . S
C5109 H5080 0.950 . S
C5109 C5108 1.397 . S
C5109 C5110 1.334 . S
C5110 H5081 0.950 . S
C5110 C5109 1.334 . S
C5110 C5111 1.287 . S
C5111 C5110 1.287 . S
C5111 C5112 1.524 . S
C5111 H5114 0.999 . S
C5112 H5082 0.950 . S
C5112 C5111 1.524 . S
C5112 C5113 1.415 . S
C5113 H5083 0.950 . S
C5113 C5108 1.363 . S
C5113 C5112 1.415 . S
H5114 C5111 0.999 . S
H5115 C5096 0.913 . S
H5116 C5134 0.951 . S
H5117 C5136 0.951 . S
H5118 C5138 0.950 . S
H5119 C5139 0.950 . S
H5120 C5141 0.950 . S
H5121 C5144 0.950 . S
H5122 C5145 0.950 . S
H5123 C5147 0.950 . S
H5124 C5148 0.950 . S
H5125 C5149 0.951 . S
H5126 C5151 0.951 1_565 S
H5127 C5153 0.950 . S
H5128 C5154 0.950 . S
H5129 C5156 0.950 . S
H5130 C5159 0.950 . S
H5131 C5160 0.950 . S
H5132 C5162 0.950 . S
H5133 C5163 0.950 . S
C5134 H5116 0.951 . S
C5134 C5135 1.366 . S
C5134 C5136 1.388 . S
C5135 C5134 1.366 . S
C5135 C5139 1.385 . S
C5136 H5117 0.951 . S
C5136 C5134 1.388 . S
C5136 C5137 1.366 . S
C5137 C5136 1.366 . S
C5137 C5138 1.414 . S
C5137 C5140 1.499 . S
C5138 H5118 0.950 . S
C5138 C5137 1.414 . S
C5138 C5139 1.374 . S
C5139 H5119 0.950 . S
C5139 C5135 1.385 . S
C5139 C5138 1.374 . S
C5140 C5137 1.499 . S
C5140 C5141 1.373 . S
C5140 C5142 1.389 . S
C5141 H5120 0.950 . S
C5141 C5140 1.373 . S
C5141 C5157 1.377 . S
C5142 C5140 1.389 . S
C5142 C5143 1.524 . S
C5142 C5156 1.377 . S
C5143 C5142 1.524 . S
C5143 C5144 1.397 1_545 S
C5143 C5148 1.363 . S
C5144 H5121 0.950 . S
C5144 C5143 1.397 1_565 S
C5144 C5145 1.334 . S
C5145 H5122 0.950 . S
C5145 C5144 1.334 . S
C5145 C5146 1.287 . S
C5146 C5145 1.287 . S
C5146 C5147 1.524 1_565 S
C5146 H5165 0.913 . S
C5147 H5123 0.950 . S
C5147 C5146 1.524 1_545 S
C5147 C5148 1.415 . S
C5148 H5124 0.950 . S
C5148 C5143 1.363 . S
C5148 C5147 1.415 . S
C5149 H5125 0.951 . S
C5149 C5150 1.366 1_565 S
C5149 C5151 1.388 1_565 S
C5150 C5149 1.366 1_545 S
C5150 C5154 1.385 . S
C5151 H5126 0.951 1_545 S
C5151 C5149 1.388 1_545 S
C5151 C5152 1.366 . S
C5152 C5151 1.366 . S
C5152 C5153 1.414 . S
C5152 C5155 1.499 . S
C5153 H5127 0.950 . S
C5153 C5152 1.414 . S
C5153 C5154 1.374 . S
C5154 H5128 0.950 . S
C5154 C5150 1.385 . S
C5154 C5153 1.374 . S
C5155 C5152 1.499 . S
C5155 C5156 1.373 . S
C5155 C5157 1.389 . S
C5156 H5129 0.950 . S
C5156 C5142 1.377 . S
C5156 C5155 1.373 . S
C5157 C5141 1.377 . S
C5157 C5155 1.389 . S
C5157 C5158 1.524 . S
C5158 C5157 1.524 . S
C5158 C5159 1.397 . S
C5158 C5163 1.363 . S
C5159 H5130 0.950 . S
C5159 C5158 1.397 . S
C5159 C5160 1.334 . S
C5160 H5131 0.950 . S
C5160 C5159 1.334 . S
C5160 C5161 1.287 . S
C5161 C5160 1.287 . S
C5161 C5162 1.524 . S
C5161 H5164 0.999 . S
C5162 H5132 0.950 . S
C5162 C5161 1.524 . S
C5162 C5163 1.415 . S
C5163 H5133 0.950 . S
C5163 C5158 1.363 . S
C5163 C5162 1.415 . S
H5164 C5161 0.999 . S
H5165 C5146 0.913 . S
C1585 C10 1.082 1_655 S
C1600 C963 1.075 . S
C1635 C23 1.591 . S
C1650 C1043 1.561 . S
C1700 C1111 1.348 . S
C1685 C29 1.381 . S
C1735 C30 1.856 . S
C1750 C1191 1.829 . S
C1785 C5 1.594 . S
C1800 C1265 1.578 . S
C1835 C18 1.583 . S
C1850 C1333 1.530 . S
C1885 C49 1.079 . S
C1900 C1259 0.996 . S
C1950 C1339 1.490 . S
C1935 C62 1.492 . S
C2000 C1185 1.317 . S
C1985 C70 1.317 1_556 S
C2035 C75 1.806 . S
C2050 C1117 1.796 . S
C2100 C969 1.537 1_455 S
C2085 C44 1.525 . S
C2135 C57 1.451 . S
C2150 C1037 1.436 . S
C2185 C88 1.267 . S
C2200 C1407 1.211 . S
C2235 C101 1.625 . S
C2250 C1487 1.590 . S
C2300 C1555 1.465 . S
C2285 C107 1.517 . S
C2335 C108 1.969 . S
C2350 C303 1.923 . S
C2385 C83 1.709 . S
C2400 C377 1.672 . S
C2435 C96 1.601 . S
C2450 C445 1.546 . S
C2485 C127 1.051 . S
C2500 C371 1.035 . S
C2535 C140 1.525 . S
C2550 C451 1.522 . S
C2600 C297 1.369 . S
C2585 C146 1.380 . S
C2650 C1561 1.910 . S
C2635 C147 1.922 . S
C2700 C1413 1.581 . S
C2685 C122 1.586 . S
C2750 C1481 1.485 . S
C2735 C135 1.499 . S
C2785 C160 1.195 . S
C2800 C519 1.144 . S
C2835 C173 1.632 . S
C2850 C599 1.597 . S
C2885 C185 1.520 . S
C2900 C667 1.469 . S
C2935 C186 2.029 . S
C2950 C747 1.981 . S
C3000 C821 1.662 . S
C2985 C159 1.699 . S
C3050 C889 1.584 . S
C3035 C172 1.641 . S
C3100 C815 1.104 . S
C3085 C205 1.123 . S
C3150 C895 1.511 . S
C3135 C218 1.515 . S
C3185 C224 1.371 . S
C3200 C741 1.359 . S
C3250 C673 1.849 . S
C3235 C225 1.860 . S
C3285 C200 1.602 . S
C3300 C525 1.597 . S
C3350 C593 1.448 . S
C3335 C213 1.459 . S
C3400 C273 1.964 . S
C3385 C4 1.998 . S
C3435 C17 1.446 . S
C3450 C347 1.431 . S
C3500 C433 1.437 . S
C3485 C31 1.438 . S
C3550 C507 1.119 . S
C3535 C36 1.131 1_556 S
C3600 C569 1.604 . S
C3585 C3 1.622 1_556 S
C3650 C655 1.522 . S
C3635 C16 1.524 . S
C3685 C43 2.114 . S
C3700 C643 2.048 . S
C3735 C56 1.569 . S
C3750 C495 1.519 . S
C3785 C68 1.582 . S
C3800 C581 1.557 . S
C3835 C69 1.291 . S
C3850 C359 1.263 . S
C3900 C421 1.688 . S
C3885 C42 1.743 . S
C3935 C55 1.670 . S
C3950 C285 1.643 . S
C4000 C717 1.956 . S
C3985 C82 1.991 . S
C4035 C95 1.552 . S
C4050 C791 1.537 . S
C4085 C109 1.478 . S
C4100 C877 1.473 . S
C4150 C951 1.027 . S
C4135 C114 1.030 . S
C4185 C81 1.600 . S
C4200 C1013 1.583 . S
C4235 C94 1.462 . S
C4250 C1099 1.464 . S
C4285 C121 1.961 . S
C4300 C1087 1.911 . S
C4335 C134 1.479 . S
C4350 C939 1.412 . S
C4400 C1025 1.532 . S
C4385 C148 1.556 . S
C4435 C153 1.282 . S
C4450 C803 1.246 . S
C4485 C120 1.794 1_545 S
C4500 C865 1.737 . S
C4550 C729 1.710 . S
C4535 C133 1.739 1_655 S
C4600 C1161 1.876 . S
C4585 C166 1.905 . S
C4635 C179 1.404 . S
C4650 C1235 1.394 . S
C4685 C187 1.425 . S
C4700 C1321 1.422 . S
C4750 C1395 1.109 . S
C4735 C192 1.122 . S
C4800 C1457 1.655 . S
C4785 C161 1.672 1_565 S
C4835 C174 1.595 1_455 S
C4850 C1543 1.591 . S
C4885 C199 2.106 . S
C4900 C1531 2.031 . S
C4935 C212 1.635 1_565 S
C4950 C1383 1.619 . S
C5000 C1469 1.588 . S
C4985 C226 1.616 . S
C5050 C1247 1.101 . S
C5035 C231 1.117 . S
C5100 C1309 1.666 . S
C5085 C198 1.720 . S
C5135 C211 1.534 . S
C5150 C1173 1.518 . S
