# Generated by pormake.
# Topology zzz, (3,6)-cn, num edge types: 1
# Building blocks:
#     Node 0, Type 0, BuildingBlock: MIDCAF_clean_linker_0, # of connection points: 3
#     Node 1, Type 0, BuildingBlock: MIDCAF_clean_linker_0, # of connection points: 3
#     Node 2, Type 0, BuildingBlock: MIDCAF_clean_linker_0, # of connection points: 3
#     Node 3, Type 0, BuildingBlock: MIDCAF_clean_linker_0, # of connection points: 3
#     Node 4, Type 0, BuildingBlock: MIDCAF_clean_linker_0, # of connection points: 3
#     Node 5, Type 0, BuildingBlock: MIDCAF_clean_linker_0, # of connection points: 3
#     Node 6, Type 0, BuildingBlock: MIDCAF_clean_linker_0, # of connection points: 3
#     Node 7, Type 0, BuildingBlock: MIDCAF_clean_linker_0, # of connection points: 3
#     Node 8, Type 1, BuildingBlock: KUMJIN_clean_sbu_1, # of connection points: 6
#     Node 9, Type 1, BuildingBlock: KUMJIN_clean_sbu_1, # of connection points: 6
#     Node 10, Type 1, BuildingBlock: KUMJIN_clean_sbu_1, # of connection points: 6
#     Node 11, Type 1, BuildingBlock: KUMJIN_clean_sbu_1, # of connection points: 6
#     Edge 12, Type (0, 1), BuildingBlock: TEMPAE_clean_linker_10, # of connection points: 2
#     Edge 13, Type (0, 1), BuildingBlock: TEMPAE_clean_linker_10, # of connection points: 2
#     Edge 14, Type (0, 1), BuildingBlock: TEMPAE_clean_linker_10, # of connection points: 2
#     Edge 15, Type (0, 1), BuildingBlock: TEMPAE_clean_linker_10, # of connection points: 2
#     Edge 16, Type (0, 1), BuildingBlock: TEMPAE_clean_linker_10, # of connection points: 2
#     Edge 17, Type (0, 1), BuildingBlock: TEMPAE_clean_linker_10, # of connection points: 2
#     Edge 18, Type (0, 1), BuildingBlock: TEMPAE_clean_linker_10, # of connection points: 2
#     Edge 19, Type (0, 1), BuildingBlock: TEMPAE_clean_linker_10, # of connection points: 2
#     Edge 20, Type (0, 1), BuildingBlock: TEMPAE_clean_linker_10, # of connection points: 2
#     Edge 21, Type (0, 1), BuildingBlock: TEMPAE_clean_linker_10, # of connection points: 2
#     Edge 22, Type (0, 1), BuildingBlock: TEMPAE_clean_linker_10, # of connection points: 2
#     Edge 23, Type (0, 1), BuildingBlock: TEMPAE_clean_linker_10, # of connection points: 2
#     Edge 24, Type (0, 1), BuildingBlock: TEMPAE_clean_linker_10, # of connection points: 2
#     Edge 25, Type (0, 1), BuildingBlock: TEMPAE_clean_linker_10, # of connection points: 2
#     Edge 26, Type (0, 1), BuildingBlock: TEMPAE_clean_linker_10, # of connection points: 2
#     Edge 27, Type (0, 1), BuildingBlock: TEMPAE_clean_linker_10, # of connection points: 2
#     Edge 28, Type (0, 1), BuildingBlock: TEMPAE_clean_linker_10, # of connection points: 2
#     Edge 29, Type (0, 1), BuildingBlock: TEMPAE_clean_linker_10, # of connection points: 2
#     Edge 30, Type (0, 1), BuildingBlock: TEMPAE_clean_linker_10, # of connection points: 2
#     Edge 31, Type (0, 1), BuildingBlock: TEMPAE_clean_linker_10, # of connection points: 2
#     Edge 32, Type (0, 1), BuildingBlock: TEMPAE_clean_linker_10, # of connection points: 2
#     Edge 33, Type (0, 1), BuildingBlock: TEMPAE_clean_linker_10, # of connection points: 2
#     Edge 34, Type (0, 1), BuildingBlock: TEMPAE_clean_linker_10, # of connection points: 2
#     Edge 35, Type (0, 1), BuildingBlock: TEMPAE_clean_linker_10, # of connection points: 2
# Relax obj value: 0.314
# Max RMSD: 0.210
# Mean RMSD: 0.182
data_MOF--net-zzz--node1-KUMJIN_clean_sbu_1--node2-MIDCAF_clean_linker_0--edge1-TEMPAE_clean_linker_10
_symmetry_space_group_name_H-M    P1
_symmetry_Int_Tables_number       1
_symmetry_cell_setting            triclinic
loop_
_symmetry_equiv_pos_as_xyz
'x, y, z'
_cell_length_a     56.814534
_cell_length_b     56.717264
_cell_length_c     21.138785
_cell_angle_alpha  89.72888
_cell_angle_beta   90.01679
_cell_angle_gamma 90.32633
loop_
_atom_site_label
_atom_site_type_symbol
_atom_site_fract_x
_atom_site_fract_y
_atom_site_fract_z
_atom_type_partial_charge
C0 C 0.78889 0.56674 0.43326 0.0
C1 C 0.79685 0.54488 0.45614 0.0
C2 C 0.78211 0.52509 0.44732 0.0
C3 C 0.76088 0.52681 0.41259 0.0
H4 H 0.67785 0.51296 0.24357 0.0
H5 H 0.64619 0.50957 0.16454 0.0
H6 H 0.65656 0.58231 0.11209 0.0
H7 H 0.68825 0.58559 0.19021 0.0
H8 H 0.7446 0.56912 0.09717 0.0
H9 H 0.77593 0.57522 0.01925 0.0
H10 H 0.82427 0.53745 0.14065 0.0
H11 H 0.79352 0.53192 0.21817 0.0
H12 H 0.76365 0.58512 0.37604 0.0
H13 H 0.79989 0.58229 0.43825 0.0
H14 H 0.78772 0.50794 0.46405 0.0
H15 H 0.7514 0.51075 0.40128 0.0
N16 N 0.71773 0.54829 0.31023 0.0
N17 N 0.72626 0.54956 0.20068 0.0
N18 N 0.75684 0.54799 0.27363 0.0
C19 C 0.71015 0.5491 0.2478 0.0
C20 C 0.74944 0.54879 0.21343 0.0
C21 C 0.7417 0.54786 0.32241 0.0
C22 C 0.68513 0.54982 0.22561 0.0
C23 C 0.67247 0.5286 0.21793 0.0
C24 C 0.65462 0.52653 0.17155 0.0
C25 C 0.6488 0.54567 0.13178 0.0
C26 C 0.66028 0.56731 0.14236 0.0
C27 C 0.67822 0.5693 0.18815 0.0
C28 C 0.76688 0.55028 0.16343 0.0
C29 C 0.76196 0.56212 0.10667 0.0
C30 C 0.77983 0.56583 0.06271 0.0
C31 C 0.80259 0.55753 0.07521 0.0
C32 C 0.80713 0.54497 0.13116 0.0
C33 C 0.78945 0.54146 0.17501 0.0
C34 C 0.75369 0.54836 0.38544 0.0
C35 C 0.76769 0.56845 0.39872 0.0
C36 C 0.96737 0.79711 0.44181 0.0
C37 C 0.9896 0.80815 0.4453 0.0
C38 C 0.00872 0.79655 0.41626 0.0
C39 C 1.00537 0.77566 0.38107 0.0
H40 H 0.95923 0.67575 0.26315 0.0
H41 H 0.9622 0.6427 0.18849 0.0
H42 H 0.01802 0.67906 0.09006 0.0
H43 H 0.01531 0.71179 0.16495 0.0
H44 H 0.95708 0.74375 0.09014 0.0
H45 H 0.9604 0.77351 1.00749 0.0
H46 H 0.94623 0.82801 0.14359 0.0
H47 H 0.94257 0.79852 0.22672 0.0
H48 H 0.94628 0.76971 0.4006 0.0
H49 H 0.95206 0.80538 0.46235 0.0
H50 H 0.02622 0.80417 0.4184 0.0
H51 H 0.02006 0.76856 0.35484 0.0
N52 N 0.98532 0.72937 0.30273 0.0
N53 N 0.96639 0.73166 0.20346 0.0
N54 N 0.96385 0.76308 0.2732 0.0
C55 C 0.97929 0.71922 0.24561 0.0
C56 C 0.95865 0.75351 0.21665 0.0
C57 C 0.97689 0.75154 0.3167 0.0
C58 C 0.9878 0.69604 0.22218 0.0
C59 C 0.97314 0.67602 0.22809 0.0
C60 C 0.97451 0.65728 0.18449 0.0
C61 C 0.99037 0.65827 0.13336 0.0
C62 C 1.00581 0.67765 0.12927 0.0
C63 C 1.00456 0.69622 0.17304 0.0
C64 C 0.9504 0.76891 0.16534 0.0
C65 C 0.95341 0.76191 0.10211 0.0
C66 C 0.95523 0.77887 0.05462 0.0
C67 C 0.95382 0.80276 0.0702 0.0
C68 C 0.94733 0.80952 0.13126 0.0
C69 C 0.94537 0.79261 0.17865 0.0
C70 C 0.98281 0.76565 0.37413 0.0
C71 C 0.96407 0.77632 0.40681 0.0
C72 C 0.73456 0.97038 0.42479 0.0
C73 C 0.72757 0.99154 0.45368 0.0
C74 C 0.74318 0.01097 0.44956 0.0
C75 C 0.76398 1.00985 0.41295 0.0
H76 H 0.85261 0.02284 0.25732 0.0
H77 H 0.88523 0.0246 0.18298 0.0
H78 H 0.86524 0.95547 0.11388 0.0
H79 H 0.83522 0.95315 0.1929 0.0
H80 H 0.7909 0.97612 0.09128 0.0
H81 H 0.76458 0.96692 1.00368 0.0
H82 H 0.70514 0.98832 0.11711 0.0
H83 H 0.7311 0.99706 0.20473 0.0
H84 H 0.75896 0.95318 0.36319 0.0
H85 H 0.7233 0.95493 0.42714 0.0
H86 H 0.73846 0.02764 0.47065 0.0
H87 H 0.77408 0.02585 0.40519 0.0
N88 N 0.80735 0.99022 0.3119 0.0
N89 N 0.80165 0.99033 0.20141 0.0
N90 N 0.76918 0.99079 0.26787 0.0
C91 C 0.81646 0.99026 0.2512 0.0
C92 C 0.77825 0.99052 0.20915 0.0
C93 C 0.78315 0.99081 0.31952 0.0
C94 C 0.84163 0.98756 0.23302 0.0
C95 C 0.85641 1.00744 0.22911 0.0
C96 C 0.8747 1.00871 0.18385 0.0
C97 C 0.87822 0.99053 0.13883 0.0
C98 C 0.86422 0.97002 0.14642 0.0
C99 C 0.84677 0.96844 0.1932 0.0
C100 C 0.76291 0.98717 0.15476 0.0
C101 C 0.77219 0.97889 0.09738 0.0
C102 C 0.75726 0.97338 0.04757 0.0
C103 C 0.73299 0.97612 0.05479 0.0
C104 C 0.72381 0.98509 0.11149 0.0
C105 C 0.73866 0.99046 0.16125 0.0
C106 C 0.77008 0.98912 0.38061 0.0
C107 C 0.75546 0.96918 0.38932 0.0
C108 C 0.58153 0.72879 0.13164 0.0
C109 C 0.57397 0.73443 0.07036 0.0
C110 C 0.57142 0.75807 0.05232 0.0
C111 C 0.57298 0.77565 0.09771 0.0
H112 H 0.58328 0.85023 0.18154 0.0
H113 H 0.57532 0.8824 0.10811 0.0
H114 H 0.50228 0.8811 0.16212 0.0
H115 H 0.51008 0.84778 0.23513 0.0
H116 H 0.50827 0.7728 0.35195 0.0
H117 H 0.5026 0.73706 0.41582 0.0
H118 H 0.57693 0.73634 0.45809 0.0
H119 H 0.5821 0.77238 0.39686 0.0
H120 H 0.58648 0.74121 0.22563 0.0
H121 H 0.58381 0.71056 0.14594 0.0
H122 H 0.56553 0.76273 1.00514 0.0
H123 H 0.56845 0.79349 0.084 0.0
N124 N 0.56335 0.80791 0.19725 0.0
N125 N 0.54511 0.81241 0.29676 0.0
N126 N 0.563 0.77655 0.2681 0.0
C127 C 0.55184 0.82178 0.23882 0.0
C128 C 0.55131 0.78942 0.31135 0.0
C129 C 0.56897 0.78549 0.21126 0.0
C130 C 0.5474 0.8464 0.21539 0.0
C131 C 0.5656 0.85728 0.17993 0.0
C132 C 0.56106 0.87566 0.13717 0.0
C133 C 0.53821 0.88428 0.12897 0.0
C134 C 0.52013 0.87481 0.16751 0.0
C135 C 0.52464 0.85596 0.21017 0.0
C136 C 0.5455 0.77618 0.37076 0.0
C137 C 0.52309 0.76585 0.37815 0.0
C138 C 0.52003 0.74478 0.4134 0.0
C139 C 0.53935 0.73313 0.44179 0.0
C140 C 0.56143 0.74454 0.43815 0.0
C141 C 0.56439 0.76561 0.40349 0.0
C142 C 0.57683 0.76955 0.16136 0.0
C143 C 0.58297 0.74631 0.17709 0.0
C144 C 0.23627 0.47669 0.8512 0.0
C145 C 0.22471 0.49855 0.85332 0.0
C146 C 0.23569 0.51693 0.88749 0.0
C147 C 0.25661 0.51306 0.9221 0.0
H148 H 0.35793 0.4753 0.02567 0.0
H149 H 0.39176 0.47856 0.09873 0.0
H150 H 0.34796 0.51457 0.23308 0.0
H151 H 0.31479 0.51214 0.16002 0.0
H152 H 0.28581 0.45498 0.20425 0.0
H153 H 0.25626 0.45673 0.287 0.0
H154 H 0.20138 0.45499 0.14523 0.0
H155 H 0.23058 0.45173 0.06335 0.0
H156 H 0.26392 0.45505 0.88841 0.0
H157 H 0.22836 0.462 0.82628 0.0
H158 H 0.22746 0.53407 0.88992 0.0
H159 H 0.26325 0.52698 0.95223 0.0
N160 N 0.30236 0.49182 0.99945 0.0
N161 N 0.29846 0.47093 0.09574 0.0
N162 N 0.26845 0.4691 0.02128 0.0
C163 C 0.31156 0.48485 0.05706 0.0
C164 C 0.27696 0.46305 0.07855 0.0
C165 C 0.28062 0.48318 0.98117 0.0
C166 C 0.33375 0.49417 0.08584 0.0
C167 C 0.35593 0.4851 0.06916 0.0
C168 C 0.3752 0.4866 0.11155 0.0
C169 C 0.37247 0.49668 0.172 0.0
C170 C 0.35068 0.50673 0.18704 0.0
C171 C 0.33174 0.50565 0.14457 0.0
C172 C 0.26054 0.4542 0.12709 0.0
C173 C 0.26743 0.45382 0.19092 0.0
C174 C 0.2505 0.45506 0.23836 0.0
C175 C 0.22657 0.45696 0.22244 0.0
C176 C 0.21966 0.45371 0.1593 0.0
C177 C 0.23653 0.45201 0.11204 0.0
C178 C 0.26711 0.49065 0.92391 0.0
C179 C 0.25698 0.47279 0.88619 0.0
C180 C 0.01769 0.23992 0.90139 0.0
C181 C 0.03615 0.23226 0.86193 0.0
C182 C 0.05636 0.24672 0.8577 0.0
C183 C 0.05866 0.26717 0.89476 0.0
H184 H 0.00915 0.34521 0.0724 0.0
H185 H 1.00225 0.37899 0.14209 0.0
H186 H 0.07613 0.37945 0.19188 0.0
H187 H 0.0829 0.34783 0.11904 0.0
H188 H 0.07323 0.29317 0.21772 0.0
H189 H 0.07177 0.26426 0.30257 0.0
H190 H 0.07975 0.20815 0.16735 0.0
H191 H 0.08103 0.23688 0.08155 0.0
H192 H 1.00658 0.26421 0.97325 0.0
H193 H 1.00197 0.22922 0.90691 0.0
H194 H 0.07091 0.2417 0.82765 0.0
H195 H 0.07533 0.27655 0.8943 0.0
N196 N 0.04273 0.30998 1.00959 0.0
N197 N 0.06299 0.30551 0.10616 0.0
N198 N 0.06049 0.27382 0.03736 0.0
C199 C 0.05078 0.31938 0.06582 0.0
C200 C 0.06787 0.2829 0.0927 0.0
C201 C 0.04821 0.28688 0.9953 0.0
C202 C 0.04665 0.34394 0.08897 0.0
C203 C 0.024 0.35345 0.09581 0.0
C204 C 0.02003 0.3725 0.13754 0.0
C205 C 0.0385 0.38224 0.17461 0.0
C206 C 0.06127 0.37332 0.16442 0.0
C207 C 0.06524 0.35489 0.12204 0.0
C208 C 0.07642 0.26717 0.1428 0.0
C209 C 0.07579 0.27479 0.20597 0.0
C210 C 0.07505 0.25833 0.25471 0.0
C211 C 0.07542 0.23427 0.24065 0.0
C212 C 0.07959 0.22677 0.17871 0.0
C213 C 0.08012 0.24321 0.12976 0.0
C214 C 0.04089 0.27397 0.93727 0.0
C215 C 0.02011 0.26033 0.9388 0.0
C216 C 0.2947 0.03021 0.90906 0.0
C217 C 0.29949 0.04612 0.85947 0.0
C218 C 0.28255 0.06339 0.84534 0.0
C219 C 0.2622 0.06575 0.88309 0.0
H220 H 0.19208 0.01849 0.08822 0.0
H221 H 0.16018 0.01185 0.16522 0.0
H222 H 0.14594 0.08638 0.16684 0.0
H223 H 0.17776 0.09297 0.09095 0.0
H224 H 0.23706 0.08132 0.21281 0.0
H225 H 0.26602 0.07797 0.29687 0.0
H226 H 0.32181 0.09102 0.1629 0.0
H227 H 0.29311 0.09405 0.07774 0.0
H228 H 0.27221 0.02099 0.98705 0.0
H229 H 0.30745 0.01682 0.92142 0.0
H230 H 0.28585 0.07611 0.80795 0.0
H231 H 0.25079 0.08071 0.87507 0.0
N232 N 0.22125 0.0535 1.00362 0.0
N233 N 0.22464 0.07443 0.09932 0.0
N234 N 0.25696 0.07197 0.03228 0.0
C235 C 0.21128 0.06181 0.05865 0.0
C236 C 0.24739 0.07946 0.08695 0.0
C237 C 0.24432 0.05936 0.98998 0.0
C238 C 0.18706 0.05618 0.08162 0.0
C239 C 0.18133 0.03326 0.10244 0.0
C240 C 0.16336 0.02954 0.14761 0.0
C241 C 0.15055 0.04862 0.17253 0.0
C242 C 0.15518 0.07127 0.14824 0.0
C243 C 0.17326 0.07499 0.10394 0.0
C244 C 0.26291 0.08732 0.13834 0.0
C245 C 0.25535 0.08471 0.20141 0.0
C246 C 0.27183 0.0829 0.24976 0.0
C247 C 0.2958 0.08434 0.23553 0.0
C248 C 0.30322 0.09025 0.17436 0.0
C249 C 0.2868 0.09179 0.12577 0.0
C250 C 0.258 0.05056 0.93491 0.0
C251 C 0.27422 0.03231 0.94594 0.0
C252 C 0.45075 0.31561 0.16602 0.0
C253 C 0.45626 0.30946 0.22846 0.0
C254 C 0.45808 0.28568 0.24591 0.0
C255 C 0.45746 0.26836 0.19976 0.0
H256 H 0.44606 0.1949 0.11672 0.0
H257 H 0.45169 0.16355 0.19054 0.0
H258 H 0.52496 0.15927 0.13485 0.0
H259 H 0.5193 0.19336 0.06517 0.0
H260 H 0.45144 0.26556 0.89295 0.0
H261 H 0.45497 0.30118 0.82811 0.0
H262 H 0.5269 0.30963 0.88937 0.0
H263 H 0.52309 0.27405 0.95495 0.0
H264 H 0.44808 0.3037 0.07084 0.0
H265 H 0.44935 0.33395 0.15191 0.0
H266 H 0.46221 0.28074 0.29424 0.0
H267 H 0.46111 0.25035 0.21374 0.0
N268 N 0.46791 0.23598 0.1014 0.0
N269 N 0.48612 0.23036 1.00235 0.0
N270 N 0.46983 0.26711 0.02998 0.0
C271 C 0.47896 0.22152 0.06042 0.0
C272 C 0.48106 0.25357 0.98734 0.0
C273 C 0.46326 0.25858 0.08677 0.0
C274 C 0.48213 0.19677 0.0841 0.0
C275 C 0.46334 0.18691 0.11888 0.0
C276 C 0.4667 0.16846 0.16201 0.0
C277 C 0.48898 0.15809 0.17107 0.0
C278 C 0.50754 0.16674 0.13198 0.0
C279 C 0.50425 0.18601 0.08991 0.0
C280 C 0.48727 0.26615 0.92744 0.0
C281 C 0.46847 0.2742 0.88968 0.0
C282 C 0.47031 0.29509 0.85371 0.0
C283 C 0.49115 0.30869 0.85369 0.0
C284 C 0.5106 0.29967 0.88745 0.0
C285 C 0.50861 0.27887 0.92422 0.0
C286 C 0.4553 0.27483 0.13581 0.0
C287 C 0.45023 0.29832 0.11974 0.0
Eu288 Eu 0.9849 0.03237 0.59404 0.0
C289 C 0.08195 0.03339 0.75818 0.0
N290 N 0.07604 0.02394 0.70133 0.0
C291 C 0.11617 0.02624 0.6672 0.0
C292 C 0.10556 0.03894 0.77245 0.0
C293 C 0.09256 0.0208 0.65529 0.0
C294 C 0.12275 0.03505 0.72628 0.0
C295 C 0.06989 0.04812 0.86085 0.0
C296 C 0.06427 0.0379 0.80196 0.0
C297 C 0.09348 0.05283 0.87604 0.0
C298 C 0.11127 0.04826 0.83199 0.0
Eu299 Eu 0.03712 1.00984 0.69406 0.0
N300 N 0.04156 0.03306 0.78614 0.0
C301 C 0.05161 0.05351 0.90259 0.0
C302 C 0.02369 0.0391 0.82586 0.0
C303 C 0.02839 0.04925 0.88461 0.0
H304 H 0.08774 0.01295 0.61064 0.0
H305 H 0.01405 0.05396 0.9157 0.0
H306 H 0.93186 0.02843 0.66083 0.0
H307 H 0.01325 1.00186 0.36056 0.0
H308 H 1.00574 0.03702 0.81218 0.0
H309 H 0.0552 0.0614 0.94818 0.0
H310 H 0.01495 0.02602 0.45585 0.0
H311 H 0.12936 0.02322 0.63125 0.0
H312 H 0.09813 0.06036 0.92141 0.0
H313 H 0.12937 0.05229 0.84414 0.0
H314 H 0.89447 1.00699 0.64605 0.0
H315 H 0.1411 0.039 0.73559 0.0
H316 H 0.97836 0.97668 0.34123 0.0
N317 N 0.94892 0.01216 0.58372 0.0
C318 C 0.9461 0.9994 0.53007 0.0
C319 C 0.90899 1.00421 0.61383 0.0
C320 C 0.92461 0.98772 0.51756 0.0
C321 C 0.93047 0.01566 0.62367 0.0
C322 C 0.90613 0.9899 0.56091 0.0
N323 N 0.98473 1.01075 0.49842 0.0
C324 C 1.00133 0.01308 0.45225 0.0
C325 C 0.96158 0.98596 0.42953 0.0
C326 C 0.96446 0.99861 0.48641 0.0
C327 C 0.97987 0.98625 0.38529 0.0
C328 C 0.99968 1.00022 0.39627 0.0
H329 H 0.88934 0.9813 0.55277 0.0
H330 H 0.90558 0.96577 0.45121 0.0
H331 H 0.93792 0.96419 0.37426 0.0
O332 O 0.97674 0.05428 0.51253 0.0
O333 O 0.98591 0.99218 0.61077 0.0
O334 O 0.02551 0.98715 0.61138 0.0
O335 O 0.95619 0.05763 0.59771 0.0
O336 O 0.02255 0.04281 0.56088 0.0
O337 O 0.04391 1.01042 0.5891 0.0
O338 O 0.03204 0.98024 0.75739 0.0
O339 O 0.0367 0.05021 0.68705 0.0
O340 O 0.99782 0.05922 0.66656 0.0
O341 O 0.06625 0.98535 0.71007 0.0
O342 O 1.00117 1.00262 0.73873 0.0
O343 O 0.97351 0.02807 0.69704 0.0
C344 C 1.00426 0.97825 0.60572 0.0
C345 C 0.95998 0.09124 0.53427 0.0
C346 C 0.97837 0.12738 0.49849 0.0
C347 C 0.95884 0.1402 0.51929 0.0
C348 C 0.94036 0.10404 0.55465 0.0
C349 C 0.93986 0.12849 0.54732 0.0
C350 C 0.97903 0.10301 0.50636 0.0
C351 C 0.04123 0.02923 0.55392 0.0
C352 C 0.96004 0.06566 0.54112 0.0
C353 C 0.92196 0.97484 0.46153 0.0
C354 C 0.94038 0.97397 0.41768 0.0
C355 C 0.01913 0.06527 0.68496 0.0
C356 C 0.062 0.95156 0.77922 0.0
C357 C 0.05295 0.91442 0.82991 0.0
C358 C 0.07712 0.90979 0.83599 0.0
C359 C 0.08614 0.94705 0.78512 0.0
C360 C 0.04558 0.93519 0.80103 0.0
C361 C 0.09364 0.92612 0.81352 0.0
C362 C 0.98041 0.01287 0.74055 0.0
C363 C 0.05347 0.97273 0.74834 0.0
H364 H 0.95813 0.15914 0.51261 0.0
H365 H 0.92542 0.0951 0.57596 0.0
H366 H 0.92467 0.13832 0.56277 0.0
H367 H 0.99433 0.09337 0.49023 0.0
H368 H 0.08316 0.8938 0.85882 0.0
H369 H 0.09908 0.95962 0.76789 0.0
H370 H 0.0269 0.93842 0.79472 0.0
H371 H 0.11226 0.9226 0.81834 0.0
Eu372 Eu 0.52019 0.04786 0.70549 0.0
C373 C 0.50771 0.93933 0.57898 0.0
N374 N 0.52014 0.95884 0.56189 0.0
C375 C 0.54535 0.93538 0.49669 0.0
C376 C 0.51319 0.91707 0.55375 0.0
C377 C 0.53915 0.95711 0.52238 0.0
C378 C 0.53214 0.91531 0.5118 0.0
C379 C 0.47726 0.92145 0.64392 0.0
C380 C 0.48993 0.94153 0.62334 0.0
C381 C 0.48186 0.89944 0.61664 0.0
C382 C 0.49981 0.89725 0.57171 0.0
Eu383 Eu 0.5054 0.99523 0.59872 0.0
N384 N 0.48596 0.96302 0.64899 0.0
C385 C 0.46081 0.92393 0.69263 0.0
C386 C 0.47124 0.96509 0.69966 0.0
C387 C 0.4582 0.94577 0.72162 0.0
H388 H 0.54876 0.9727 0.50775 0.0
H389 H 0.44632 0.94773 0.76126 0.0
H390 H 0.47765 0.06799 0.80262 0.0
H391 H 0.57801 0.09763 0.54459 0.0
H392 H 0.4699 0.98142 0.72462 0.0
H393 H 0.45073 0.90894 0.70977 0.0
H394 H 0.55669 0.06277 0.58239 0.0
H395 H 0.56006 0.93419 0.46439 0.0
H396 H 0.47206 0.8839 0.63119 0.0
H397 H 0.50354 0.88006 0.5521 0.0
H398 H 0.46469 0.10598 0.84614 0.0
H399 H 0.53687 0.89851 0.49138 0.0
H400 H 0.57031 0.1365 0.59251 0.0
N401 N 0.50416 0.08338 0.74388 0.0
C402 C 0.51511 0.10351 0.7246 0.0
C403 C 0.4788 0.10554 0.81181 0.0
C404 C 0.50868 0.12551 0.74985 0.0
C405 C 0.48591 0.0841 0.78613 0.0
C406 C 0.49037 0.12631 0.79407 0.0
N407 N 0.53822 0.08075 0.65486 0.0
C408 C 0.5538 0.07918 0.60584 0.0
C409 C 0.54428 0.12281 0.6581 0.0
C410 C 0.53278 0.10212 0.6794 0.0
C411 C 0.56112 0.12103 0.61013 0.0
C412 C 0.56559 0.09914 0.58316 0.0
H413 H 0.48498 0.14289 0.81462 0.0
H414 H 0.51616 0.16301 0.74978 0.0
H415 H 0.54729 0.16064 0.66933 0.0
O416 O 0.54891 0.03307 0.7601 0.0
O417 O 0.50478 0.05806 0.61058 0.0
O418 O 0.52126 0.02852 0.55479 0.0
O419 O 0.52783 0.06251 0.79812 0.0
O420 O 0.55354 0.03263 0.65798 0.0
O421 O 0.54485 1.00036 0.5948 0.0
O422 O 0.47746 1.01015 0.5412 0.0
O423 O 0.52196 0.98577 0.6939 0.0
O424 O 0.50425 0.01458 0.74975 0.0
O425 O 0.50031 0.98296 0.50291 0.0
O426 O 0.47188 1.01065 0.64483 0.0
O427 O 0.48086 0.04197 0.71114 0.0
C428 C 0.51084 0.04913 0.5561 0.0
C429 C 0.55843 0.04726 0.86424 0.0
C430 C 0.59412 0.0354 0.91604 0.0
C431 C 0.58467 0.04234 0.97458 0.0
C432 C 0.54892 0.05445 0.92212 0.0
C433 C 0.56217 0.05207 0.97733 0.0
C434 C 0.58106 0.0384 0.86115 0.0
C435 C 0.55993 0.01499 0.62094 0.0
C436 C 0.54465 0.04747 0.80699 0.0
C437 C 0.52067 0.14599 0.7303 0.0
C438 C 0.53842 0.14464 0.68458 0.0
C439 C 0.51532 0.99434 0.74849 0.0
C440 C 0.46183 0.98516 0.46254 0.0
C441 C 0.42403 0.9907 0.41352 0.0
C442 C 0.42479 0.96788 0.3887 0.0
C443 C 0.46259 0.96203 0.43876 0.0
C444 C 0.44236 0.99923 0.45041 0.0
C445 C 0.44401 0.95346 0.40199 0.0
C446 C 0.46563 0.02791 0.68332 0.0
C447 C 0.48194 0.99606 0.4938 0.0
H448 H 0.59445 0.03989 0.01806 0.0
H449 H 0.53121 0.06136 0.92477 0.0
H450 H 0.55484 0.05732 0.02231 0.0
H451 H 0.58845 0.03361 0.81566 0.0
H452 H 0.41072 0.96143 0.35871 0.0
H453 H 0.47767 0.95084 0.44715 0.0
H454 H 0.44186 0.01729 0.46733 0.0
H455 H 0.44475 0.93584 0.38272 0.0
Eu456 Eu 0.54176 0.50788 0.59263 0.0
C457 C 0.44876 0.50366 0.75677 0.0
N458 N 0.45338 0.51384 0.69965 0.0
C459 C 0.41441 0.50404 0.66398 0.0
C460 C 0.42691 0.49252 0.76868 0.0
C461 C 0.43621 0.51496 0.65445 0.0
C462 C 0.40984 0.49247 0.721 0.0
C463 C 0.46031 0.49663 0.8659 0.0
C464 C 0.46515 0.50596 0.80524 0.0
C465 C 0.43905 0.4846 0.87686 0.0
C466 C 0.42234 0.48266 0.82849 0.0
Eu467 Eu 0.49047 0.53293 0.69039 0.0
N468 N 0.48523 0.51843 0.79419 0.0
C469 C 0.4766 0.50045 0.91452 0.0
C470 C 0.50016 0.52381 0.84266 0.0
C471 C 0.49647 0.51436 0.903 0.0
H472 H 0.43869 0.5252 0.61211 0.0
H473 H 0.50869 0.51827 0.94088 0.0
H474 H 0.59057 0.51472 0.67911 0.0
H475 H 0.51642 0.55239 0.37001 0.0
H476 H 0.51464 0.53581 0.83573 0.0
H477 H 0.47355 0.4935 0.96166 0.0
H478 H 0.50878 0.53149 0.46802 0.0
H479 H 0.40095 0.50502 0.62782 0.0
H480 H 0.43504 0.47735 0.92316 0.0
H481 H 0.40568 0.474 0.83829 0.0
H482 H 0.63098 0.52963 0.66322 0.0
H483 H 0.39277 0.48432 0.7286 0.0
H484 H 0.55686 0.56501 0.34308 0.0
N485 N 0.57847 0.52657 0.58928 0.0
C486 C 0.58409 0.53675 0.53291 0.0
C487 C 0.6179 0.53197 0.62651 0.0
C488 C 0.60709 0.54522 0.52159 0.0
C489 C 0.59489 0.52389 0.63577 0.0
C490 C 0.62406 0.5426 0.5691 0.0
N491 N 0.54448 0.53121 0.49911 0.0
C492 C 0.52654 0.53628 0.45823 0.0
C493 C 0.57187 0.5512 0.4297 0.0
C494 C 0.56669 0.5392 0.48673 0.0
C495 C 0.55362 0.55561 0.38698 0.0
C496 C 0.5308 0.54851 0.40194 0.0
H497 H 0.64197 0.54871 0.56192 0.0
H498 H 0.6301 0.56244 0.45378 0.0
H499 H 0.59919 0.5681 0.37397 0.0
O500 O 0.55816 0.48783 0.51771 0.0
O501 O 0.5418 0.54797 0.60819 0.0
O502 O 0.50248 0.55212 0.60161 0.0
O503 O 0.56651 0.47985 0.61549 0.0
O504 O 0.5068 0.49897 0.54435 0.0
O505 O 0.47934 0.52393 0.58939 0.0
O506 O 0.4956 0.56834 0.72451 0.0
O507 O 0.50261 0.49579 0.71927 0.0
O508 O 0.51339 0.48136 0.62308 0.0
O509 O 0.46016 0.55562 0.70622 0.0
O510 O 0.52767 0.54078 0.72788 0.0
O511 O 0.54795 0.50773 0.69956 0.0
C512 C 0.52353 0.56164 0.59873 0.0
C513 C 0.5675 0.44877 0.54328 0.0
C514 C 0.54701 0.41565 0.49713 0.0
C515 C 0.56488 0.40054 0.51808 0.0
C516 C 0.58541 0.4337 0.56399 0.0
C517 C 0.58405 0.4096 0.55144 0.0
C518 C 0.54822 0.43968 0.50996 0.0
C519 C 0.4857 0.50872 0.54561 0.0
C520 C 0.56923 0.47388 0.55655 0.0
C521 C 0.61246 0.55603 0.46348 0.0
C522 C 0.59489 0.55914 0.41788 0.0
C523 C 0.50594 0.47782 0.6812 0.0
C524 C 0.46475 0.58749 0.77753 0.0
C525 C 0.47235 0.62062 0.84606 0.0
C526 C 0.44886 0.62012 0.86643 0.0
C527 C 0.44126 0.58674 0.79819 0.0
C528 C 0.48004 0.6045 0.80143 0.0
C529 C 0.43339 0.60308 0.84262 0.0
C530 C 0.54476 0.52561 0.73785 0.0
C531 C 0.47316 0.57307 0.72549 0.0
H532 H 0.56413 0.38186 0.50775 0.0
H533 H 0.60041 0.4406 0.58972 0.0
H534 H 0.59793 0.39799 0.56721 0.0
H535 H 0.5342 0.45117 0.49386 0.0
H536 H 0.44261 0.63266 0.90095 0.0
H537 H 0.42895 0.57397 0.77916 0.0
H538 H 0.49797 0.60574 0.78387 0.0
H539 H 0.41525 0.60267 0.8582 0.0
Eu540 Eu 0.02138 0.54677 0.60675 0.0
C541 C 0.02871 0.45168 0.77766 0.0
N542 N 0.01846 0.45535 0.72056 0.0
C543 C 0.02179 0.4144 0.69522 0.0
C544 C 0.03578 0.42885 0.79595 0.0
C545 C 0.01497 0.43725 0.67921 0.0
C546 C 0.03209 0.41013 0.75406 0.0
C547 C 0.044 0.46735 0.87612 0.0
C548 C 0.03238 0.47079 0.81778 0.0
C549 C 0.05044 0.44454 0.89513 0.0
C550 C 0.04626 0.42535 0.85529 0.0
Eu551 Eu 1.00282 0.49295 0.70405 0.0
N552 N 0.0256 0.49275 0.79878 0.0
C553 C 0.04938 0.48699 0.91316 0.0
C554 C 0.03256 0.512 0.83276 0.0
C555 C 0.04414 0.50944 0.89059 0.0
H556 H 1.00616 0.44026 0.63459 0.0
H557 H 0.04928 0.52486 0.91735 0.0
H558 H 0.01666 0.59626 0.69562 0.0
H559 H 0.01585 0.54167 0.35018 0.0
H560 H 0.03042 0.52944 0.81534 0.0
H561 H 0.05838 0.48508 0.95806 0.0
H562 H 0.03031 0.53091 0.45656 0.0
H563 H 0.01875 0.40004 0.66261 0.0
H564 H 0.05903 0.44161 0.94021 0.0
H565 H 0.05155 0.40789 0.87043 0.0
H566 H 0.99708 0.63463 0.68954 0.0
H567 H 0.03718 0.39234 0.76663 0.0
H568 H 0.98995 0.57631 0.33687 0.0
N569 N 1.00565 0.58524 0.60441 0.0
C570 C 0.99559 0.59189 0.54885 0.0
C571 C 0.99618 0.62263 0.64994 0.0
C572 C 0.98474 0.61407 0.5424 0.0
C573 C 1.00691 0.60058 0.65379 0.0
C574 C 0.98469 0.62927 0.59434 0.0
N575 N 0.01027 0.55712 0.5033 0.0
C576 C 0.01804 0.54528 0.45141 0.0
C577 C 0.99004 0.5848 0.4367 0.0
C578 C 0.99799 0.57736 0.49669 0.0
C579 C 0.99569 0.57117 0.3838 0.0
C580 C 0.01028 0.55162 0.39104 0.0
H581 H 0.97665 0.6465 0.59118 0.0
H582 H 0.96673 0.6377 0.47801 0.0
H583 H 0.97149 0.61211 0.38533 0.0
O584 O 0.05473 0.53624 0.56517 0.0
O585 O 0.98146 0.54632 0.61578 0.0
O586 O 0.97437 0.50697 0.63617 0.0
O587 O 0.04711 0.57394 0.58459 0.0
O588 O 0.01002 0.51391 0.55029 0.0
O589 O 0.0199 0.48241 0.61182 0.0
O590 O 0.98177 0.47582 0.77681 0.0
O591 O 0.042 0.49459 0.68247 0.0
O592 O 0.04472 0.53426 0.6884 0.0
O593 O 0.97521 0.4682 0.67752 0.0
O594 O 0.99099 0.52799 0.74875 0.0
O595 O 0.0182 0.55472 0.71129 0.0
C596 C 0.96703 0.5281 0.61873 0.0
C597 C 0.08502 0.5651 0.53917 0.0
C598 C 0.11956 0.55543 0.47837 0.0
C599 C 0.12834 0.57834 0.48699 0.0
C600 C 0.09391 0.58798 0.5485 0.0
C601 C 0.11558 0.59451 0.52255 0.0
C602 C 0.09805 0.5488 0.50484 0.0
C603 C 0.01644 0.49174 0.55595 0.0
C604 C 0.06196 0.55829 0.5635 0.0
C605 C 0.97529 0.62081 0.48369 0.0
C606 C 0.97796 0.60621 0.43091 0.0
C607 C 0.05493 0.51352 0.69066 0.0
C608 C 0.94314 0.46567 0.7463 0.0
C609 C 0.90917 0.4826 0.797 0.0
C610 C 0.89472 0.46545 0.76894 0.0
C611 C 0.92866 0.44865 0.71789 0.0
C612 C 0.93327 0.48298 0.78484 0.0
C613 C 0.90446 0.44865 0.72898 0.0
C614 C 1.00128 0.54894 0.75102 0.0
C615 C 0.96847 0.46485 0.73583 0.0
H616 H 0.14508 0.58359 0.46667 0.0
H617 H 0.0841 0.6008 0.57546 0.0
H618 H 0.12241 0.61215 0.52963 0.0
H619 H 0.09125 0.53112 0.49709 0.0
H620 H 0.87595 0.46509 0.778 0.0
H621 H 0.93611 0.43531 0.68749 0.0
H622 H 0.94431 0.49628 0.80692 0.0
H623 H 0.89331 0.43548 0.70714 0.0
C624 C 0.14185 0.03471 0.28366 0.0
C625 C 0.13403 0.04541 0.22751 0.0
C626 C 0.12724 0.03299 0.33759 0.0
C627 C 0.10372 0.04132 0.33512 0.0
C628 C 0.09559 0.05178 0.27797 0.0
C629 C 0.11096 0.05419 0.22563 0.0
C630 C 0.13717 0.02248 0.39757 0.0
C631 C 0.07062 0.06041 0.27168 0.0
C632 C 0.06163 0.0139 0.45725 0.0
C633 C 0.05742 0.03268 0.49875 0.0
C634 C 0.07574 0.0168 0.40283 0.0
C635 C 0.0876 0.03851 0.39167 0.0
C636 C 0.08414 0.05728 0.43505 0.0
C637 C 0.06859 0.05436 0.48689 0.0
C638 C 0.07729 0.99682 0.35614 0.0
C639 C 0.0972 0.08034 0.42739 0.0
H640 H 0.15976 0.02827 0.28604 0.0
H641 H 0.10478 0.06265 0.18268 0.0
H642 H 0.13303 0.03383 0.43868 0.0
H643 H 0.12902 1.00497 0.40645 0.0
H644 H 0.15655 0.02019 0.39492 0.0
H645 H 0.06556 0.06311 0.22141 0.0
H646 H 0.05803 0.04776 0.29366 0.0
H647 H 0.06882 0.07749 0.29642 0.0
H648 H 0.05295 0.99712 0.46594 0.0
H649 H 0.06567 0.06883 0.51922 0.0
H650 H 0.09568 0.99051 0.35278 0.0
H651 H 0.07209 1.00315 0.30838 0.0
H652 H 0.06579 0.98168 0.36943 0.0
H653 H 0.11636 0.07704 0.42286 0.0
H654 H 0.09425 0.09237 0.46791 0.0
H655 H 0.0914 0.08936 0.38351 0.0
C656 C 0.51524 0.13474 0.2479 0.0
C657 C 0.49269 0.1396 0.2231 0.0
C658 C 0.5186 0.11877 0.29877 0.0
C659 C 0.499 0.1077 0.32824 0.0
C660 C 0.47628 0.11204 0.30334 0.0
C661 C 0.47349 0.12734 0.25092 0.0
C662 C 0.54327 0.11406 0.3219 0.0
C663 C 0.45463 0.10119 0.33339 0.0
C664 C 0.50869 0.05382 0.43682 0.0
C665 C 0.50835 0.06393 0.49737 0.0
C666 C 0.50541 0.06768 0.38166 0.0
C667 C 0.50221 0.09244 0.38655 0.0
C668 C 0.50203 0.1027 0.44764 0.0
C669 C 0.50489 0.0884 0.5019 0.0
C670 C 0.50505 0.05576 0.31804 0.0
C671 C 0.49864 0.12887 0.45586 0.0
H672 H 0.5305 0.14376 0.22895 0.0
H673 H 0.45593 0.12956 0.23243 0.0
H674 H 0.54521 0.12033 0.37127 0.0
H675 H 0.54666 0.0948 0.32217 0.0
H676 H 0.55683 0.12287 0.29208 0.0
H677 H 0.43886 0.10277 0.3026 0.0
H678 H 0.4574 0.08229 0.34459 0.0
H679 H 0.45093 0.11032 0.37859 0.0
H680 H 0.51109 0.03496 0.43253 0.0
H681 H 0.50458 0.09653 0.54818 0.0
H682 H 0.51873 0.06363 0.28687 0.0
H683 H 0.48779 0.05864 0.2948 0.0
H684 H 0.50811 0.03647 0.32184 0.0
H685 H 0.51252 0.13871 0.42975 0.0
H686 H 0.49922 0.13423 0.50633 0.0
H687 H 0.48143 0.13417 0.4356 0.0
C688 C 0.38717 0.48234 0.27761 0.0
C689 C 0.39126 0.4953 0.22185 0.0
C690 C 0.40344 0.48242 0.32811 0.0
C691 C 0.4242 0.49636 0.32406 0.0
C692 C 0.42873 0.50899 0.26704 0.0
C693 C 0.41236 0.50813 0.21652 0.0
C694 C 0.39794 0.46821 0.38684 0.0
C695 C 0.45055 0.52407 0.26023 0.0
C696 C 0.45045 0.51995 0.47874 0.0
C697 C 0.46957 0.50485 0.48996 0.0
C698 C 0.43559 0.51717 0.42578 0.0
C699 C 0.44009 0.49918 0.38103 0.0
C700 C 0.45957 0.48404 0.3914 0.0
C701 C 0.47391 0.48697 0.44561 0.0
C702 C 0.41512 0.53374 0.41742 0.0
C703 C 0.46517 0.46451 0.34568 0.0
H704 H 0.37094 0.4723 0.28204 0.0
H705 H 0.41562 0.51825 0.17375 0.0
H706 H 0.4136 0.4581 0.40232 0.0
H707 H 0.39318 0.4803 0.42585 0.0
H708 H 0.3831 0.4557 0.37928 0.0
H709 H 0.45207 0.53211 0.21238 0.0
H710 H 0.45029 0.53838 0.29582 0.0
H711 H 0.46647 0.51334 0.26955 0.0
H712 H 0.44731 0.53447 0.51058 0.0
H713 H 0.48867 0.47524 0.45301 0.0
H714 H 0.39843 0.52355 0.41465 0.0
H715 H 0.41705 0.54365 0.37231 0.0
H716 H 0.4137 0.54657 0.45678 0.0
H717 H 0.45131 0.4507 0.34871 0.0
H718 H 0.48245 0.45622 0.35586 0.0
H719 H 0.4653 0.47128 0.29636 0.0
C720 C 0.05228 0.41581 0.24651 0.0
C721 C 0.03422 0.40036 0.22625 0.0
C722 C 0.04929 0.43121 0.29828 0.0
C723 C 0.02754 0.43174 0.33109 0.0
C724 C 0.00892 0.41706 0.30951 0.0
C725 C 0.0125 0.40153 0.25825 0.0
C726 C 0.06967 0.44665 0.31834 0.0
C727 C 0.98516 0.41759 0.34123 0.0
C728 C 0.02845 0.45358 0.50305 0.0
C729 C 0.01872 0.4763 0.4983 0.0
C730 C 0.03087 0.43888 0.44964 0.0
C731 C 0.02435 0.44719 0.38869 0.0
C732 C 0.01457 0.47011 0.3835 0.0
C733 C 0.01135 0.48398 0.4382 0.0
C734 C 0.04051 0.41435 0.45863 0.0
C735 C 0.00819 0.48069 0.32018 0.0
H736 H 0.06899 0.41604 0.22202 0.0
H737 H 0.99829 0.38983 0.24465 0.0
H738 H 0.06362 0.46479 0.32882 0.0
H739 H 0.07758 0.43937 0.36221 0.0
H740 H 0.08364 0.44762 0.28162 0.0
H741 H 0.97249 0.40496 0.31975 0.0
H742 H 0.98705 0.41335 0.39228 0.0
H743 H 0.9777 0.43559 0.33765 0.0
H744 H 0.03429 0.44718 0.54872 0.0
H745 H 1.0029 0.50089 0.43348 0.0
H746 H 0.05814 0.4132 0.43636 0.0
H747 H 0.02893 0.40123 0.43507 0.0
H748 H 0.04217 0.40948 0.5094 0.0
H749 H 0.02373 0.49045 0.30155 0.0
H750 H 0.99355 0.49347 0.32483 0.0
H751 H 1.00313 0.46718 0.2849 0.0
C752 C 0.90178 0.97386 0.04522 0.0
C753 C 0.89498 0.99336 0.08247 0.0
C754 C 0.91539 0.97651 0.98963 0.0
C755 C 0.92394 0.99904 0.97151 0.0
C756 C 0.91829 0.01864 1.00984 0.0
C757 C 0.90354 0.01571 0.06324 0.0
C758 C 0.9203 0.95508 0.94965 0.0
C759 C 0.92764 0.04294 0.99411 0.0
C760 C 0.97609 1.00097 0.85573 0.0
C761 C 0.96559 1.00871 0.79897 0.0
C762 C 0.96302 0.99841 0.91222 0.0
C763 C 0.93836 1.00218 0.91195 0.0
C764 C 0.92747 1.00903 0.85442 0.0
C765 C 0.94122 0.01277 0.79961 0.0
C766 C 0.97579 0.99207 0.97247 0.0
C767 C 0.90112 0.01204 0.85038 0.0
H768 H 0.89654 0.95622 0.0586 0.0
H769 H 0.89859 0.03133 0.0889 0.0
H770 H 0.91565 0.95864 0.89951 0.0
H771 H 0.93933 0.95094 0.95117 0.0
H772 H 0.91032 0.93929 0.96599 0.0
H773 H 0.92487 0.05558 0.03338 0.0
H774 H 0.94675 0.04222 0.98338 0.0
H775 H 0.91862 0.04983 0.9514 0.0
H776 H 0.99483 0.99756 0.85675 0.0
H777 H 0.93259 0.0185 0.75724 0.0
H778 H 0.97087 0.97394 0.98738 0.0
H779 H 0.97063 1.00418 1.01111 0.0
H780 H 0.99521 0.99289 0.96674 0.0
H781 H 0.8922 0.99544 0.86513 0.0
H782 H 0.89519 0.0167 0.80184 0.0
H783 H 0.89533 0.02604 0.88322 0.0
C784 C 0.53016 0.89306 0.01414 0.0
C785 C 0.53338 0.90136 0.07601 0.0
C786 C 0.52728 0.90869 0.96238 0.0
C787 C 0.52798 0.93347 0.97193 0.0
C788 C 0.53154 0.94192 0.0345 0.0
C789 C 0.53407 0.92583 0.0856 0.0
C790 C 0.52365 0.8986 0.89717 0.0
C791 C 0.53286 0.96802 0.04752 0.0
C792 C 0.54095 0.97131 0.82378 0.0
C793 C 0.51861 0.97992 0.80754 0.0
C794 C 0.54442 0.95715 0.87833 0.0
C795 C 0.52492 0.95032 0.91649 0.0
C796 C 0.50229 0.95901 0.90001 0.0
C797 C 0.49953 0.9741 0.84696 0.0
C798 C 0.56907 0.9496 0.89524 0.0
C799 C 0.48081 0.95181 0.93749 0.0
H800 H 0.53009 0.87419 1.00616 0.0
H801 H 0.53699 0.93239 0.13305 0.0
H802 H 0.50773 0.90632 0.875 0.0
H803 H 0.53888 0.90324 0.86666 0.0
H804 H 0.5217 0.8791 0.89808 0.0
H805 H 0.53844 0.97178 0.09684 0.0
H806 H 0.54538 0.97675 0.01448 0.0
H807 H 0.51534 0.97603 0.03962 0.0
H808 H 0.55586 0.97598 0.79416 0.0
H809 H 0.48222 0.9807 0.8351 0.0
H810 H 0.5703 0.9301 0.89434 0.0
H811 H 0.57336 0.95533 0.94405 0.0
H812 H 0.58246 0.95709 0.86242 0.0
H813 H 0.47893 0.93231 0.93717 0.0
H814 H 0.46442 0.95967 0.91829 0.0
H815 H 0.48285 0.95726 0.98751 0.0
C816 C 0.61094 0.5538 0.07126 0.0
C817 C 0.63284 0.54249 0.07537 0.0
C818 C 0.59617 0.55108 0.01755 0.0
C819 C 0.60366 0.53732 0.96525 0.0
C820 C 0.62605 0.52633 0.96892 0.0
C821 C 0.64009 0.52875 0.02389 0.0
C822 C 0.57242 0.56282 0.01703 0.0
C823 C 0.63553 0.51252 0.91379 0.0
C824 C 0.56018 0.5113 0.8433 0.0
C825 C 0.56021 0.52838 0.79502 0.0
C826 C 0.5735 0.51436 0.89938 0.0
C827 C 0.58834 0.53446 0.90664 0.0
C828 C 0.5888 0.55148 0.85696 0.0
C829 C 0.57435 0.54853 0.80286 0.0
C830 C 0.57126 0.49629 0.95163 0.0
C831 C 0.60443 0.57303 0.86067 0.0
H832 H 0.60523 0.56457 0.11052 0.0
H833 H 0.65714 0.52031 0.02605 0.0
H834 H 0.57153 0.57581 0.97777 0.0
H835 H 0.55842 0.54946 1.00863 0.0
H836 H 0.56865 0.57206 0.06209 0.0
H837 H 0.65317 0.505 0.92374 0.0
H838 H 0.62331 0.49791 0.90166 0.0
H839 H 0.63684 0.52419 0.87161 0.0
H840 H 0.54903 0.49585 0.83811 0.0
H841 H 0.57444 0.56186 0.76593 0.0
H842 H 0.56545 0.50502 0.9958 0.0
H843 H 0.58861 0.48819 0.96139 0.0
H844 H 0.55846 0.48209 0.93985 0.0
H845 H 0.59585 0.58647 0.89067 0.0
H846 H 0.60749 0.58096 0.81321 0.0
H847 H 0.62171 0.56875 0.88218 0.0
C848 C 1.00186 0.61923 0.08504 0.0
C849 C 0.98944 0.64049 0.08103 0.0
C850 C 1.00232 0.60322 0.03384 0.0
C851 C 0.99009 0.60849 0.97686 0.0
C852 C 0.97694 0.62968 0.97361 0.0
C853 C 0.97686 0.64539 0.02537 0.0
C854 C 0.01646 0.58091 0.04014 0.0
C855 C 0.96335 0.63604 0.91468 0.0
C856 C 0.01396 0.58236 0.82272 0.0
C857 C 0.99779 0.56421 0.80865 0.0
C858 C 0.01136 0.59692 0.87615 0.0
C859 C 0.99257 0.59296 0.9191 0.0
C860 C 0.97642 0.57432 0.90622 0.0
C861 C 0.97919 0.56028 0.85139 0.0
C862 C 0.02889 0.61663 0.88663 0.0
C863 C 0.95644 0.56879 0.95095 0.0
H864 H 0.01165 0.61536 0.12784 0.0
H865 H 0.96718 0.66176 0.02203 0.0
H866 H 1.00582 0.56547 0.02505 0.0
H867 H 0.03206 0.58196 1.00866 0.0
H868 H 0.02263 0.57793 0.08939 0.0
H869 H 0.95324 0.6526 0.92024 0.0
H870 H 0.97566 0.63818 0.87428 0.0
H871 H 0.95093 0.62158 0.90251 0.0
H872 H 0.0291 0.58508 0.79245 0.0
H873 H 0.96679 0.5461 0.84225 0.0
H874 H 0.03844 0.61372 0.93174 0.0
H875 H 0.01956 0.6337 0.89055 0.0
H876 H 0.04197 0.61806 0.84773 0.0
H877 H 0.96355 0.55979 0.99351 0.0
H878 H 0.94303 0.55706 0.92899 0.0
H879 H 0.94769 0.58515 0.96695 0.0
C880 C 0.0776 0.19775 0.30533 0.0
C881 C 0.06518 0.21761 0.28555 0.0
C882 C 0.06663 0.18074 0.34347 0.0
C883 C 0.04265 0.18359 0.35942 0.0
C884 C 0.03003 0.20362 0.33884 0.0
C885 C 0.04161 0.22059 0.30258 0.0
C886 C 0.0805 0.15963 0.36549 0.0
C887 C 1.00421 0.20692 0.35393 0.0
C888 C 1.00185 0.13397 0.40188 0.0
C889 C 0.99756 0.13925 0.46536 0.0
C890 C 0.01797 0.14738 0.36703 0.0
C891 C 0.03029 0.16582 0.39759 0.0
C892 C 0.02736 0.16983 0.46303 0.0
C893 C 0.01057 0.15667 0.49613 0.0
C894 C 0.02006 0.14333 0.29667 0.0
C895 C 0.04077 0.18912 0.49668 0.0
H896 H 0.09573 0.19554 0.29065 0.0
H897 H 0.03199 0.23581 0.28539 0.0
H898 H 0.07736 0.15617 0.41653 0.0
H899 H 0.07465 0.14377 0.33918 0.0
H900 H 0.09969 0.16205 0.35764 0.0
H901 H 0.9969 0.22314 0.33197 0.0
H902 H 0.99387 0.19154 0.33699 0.0
H903 H 1.00166 0.20801 0.40586 0.0
H904 H 0.99155 0.12036 0.37869 0.0
H905 H 1.00706 0.16038 0.54546 0.0
H906 H 0.03877 0.14326 0.28182 0.0
H907 H 0.0113 0.15796 0.27092 0.0
H908 H 0.0117 0.12646 0.28201 0.0
H909 H 0.05991 0.18728 0.48773 0.0
H910 H 0.03764 0.18891 0.54847 0.0
H911 H 0.03539 0.20659 0.47802 0.0
C912 C 0.31411 0.04832 0.27445 0.0
C913 C 0.3125 0.07286 0.27735 0.0
C914 C 0.33229 0.03661 0.30522 0.0
C915 C 0.34881 0.04995 0.34019 0.0
C916 C 0.34643 0.07465 0.3462 0.0
C917 C 0.32829 0.08599 0.31354 0.0
C918 C 0.33461 1.01023 0.29711 0.0
C919 C 0.3637 0.08914 0.38405 0.0
C920 C 0.3869 1.01067 0.43914 0.0
C921 C 0.40529 1.00678 0.3968 0.0
C922 C 0.3689 0.02628 0.42336 0.0
C923 C 0.3698 0.03804 0.3643 0.0
C924 C 0.38933 0.03529 0.32351 0.0
C925 C 0.40695 0.0195 0.3404 0.0
C926 C 0.34837 0.02908 0.46794 0.0
C927 C 0.39087 0.04767 0.26018 0.0
H928 H 0.30181 0.03846 0.24536 0.0
H929 H 0.32682 0.10504 0.31468 0.0
H930 H 0.35124 1.00621 0.2719 0.0
H931 H 0.33542 1.00139 0.34397 0.0
H932 H 0.31974 1.0025 0.2699 0.0
H933 H 0.35716 0.10728 0.39244 0.0
H934 H 0.36731 0.08059 0.43034 0.0
H935 H 0.38064 0.09039 0.35811 0.0
H936 H 0.38639 1.00113 0.48373 0.0
H937 H 0.42184 0.01676 0.30922 0.0
H938 H 0.33314 0.01876 0.44996 0.0
H939 H 0.34289 0.04779 0.47063 0.0
H940 H 0.35259 0.02267 0.51634 0.0
H941 H 0.37852 0.0391 0.2266 0.0
H942 H 0.40888 0.04689 0.23988 0.0
H943 H 0.3857 0.06643 0.26422 0.0
C944 C 0.48856 0.32525 0.29283 0.0
C945 C 0.46549 0.32755 0.27069 0.0
C946 C 0.499 0.34306 0.32824 0.0
C947 C 0.48578 0.36344 0.34232 0.0
C948 C 0.46248 0.36591 0.31995 0.0
C949 C 0.45262 0.3479 0.28337 0.0
C950 C 0.52413 0.34005 0.35045 0.0
C951 C 0.44812 0.38753 0.33433 0.0
C952 C 0.51209 0.39007 0.4869 0.0
C953 C 0.52761 0.4063 0.4596 0.0
C954 C 0.49611 0.37773 0.44928 0.0
C955 C 0.49644 0.38142 0.3831 0.0
C956 C 0.51082 0.39922 0.35603 0.0
C957 C 0.52623 0.41173 0.39514 0.0
C958 C 0.48069 0.35903 0.47934 0.0
C959 C 0.51193 0.4032 0.28541 0.0
H960 H 0.49867 0.30971 0.28094 0.0
H961 H 0.43493 0.34963 0.26474 0.0
H962 H 0.53508 0.35521 0.3345 0.0
H963 H 0.52473 0.33963 0.40289 0.0
H964 H 0.53219 0.32357 0.33251 0.0
H965 H 0.42953 0.38557 0.31884 0.0
H966 H 0.44844 0.39125 0.38582 0.0
H967 H 0.45591 0.40306 0.30986 0.0
H968 H 0.51336 0.3862 0.53702 0.0
H969 H 0.53841 0.42444 0.37469 0.0
H970 H 0.48797 0.34135 0.46895 0.0
H971 H 0.46262 0.35967 0.45946 0.0
H972 H 0.47966 0.361 0.53145 0.0
H973 H 0.5231 0.38939 0.26385 0.0
H974 H 0.51969 0.42069 0.27351 0.0
H975 H 0.49422 0.40186 0.26362 0.0
C976 C 0.2168 0.48576 0.30632 0.0
C977 C 0.20968 0.46688 0.26799 0.0
C978 C 0.20047 0.49828 0.34184 0.0
C979 C 0.17642 0.49205 0.33783 0.0
C980 C 0.16906 0.47274 0.30068 0.0
C981 C 0.1859 0.46014 0.26665 0.0
C982 C 0.20885 0.51881 0.38154 0.0
C983 C 0.14337 0.46619 0.29432 0.0
C984 C 0.13955 0.51704 0.46851 0.0
C985 C 0.13255 0.53834 0.44095 0.0
C986 C 0.15302 0.50106 0.43418 0.0
C987 C 0.15906 0.50656 0.37094 0.0
C988 C 0.15075 0.52744 0.34185 0.0
C989 C 0.13773 0.54331 0.37773 0.0
C990 C 0.16195 0.47907 0.46658 0.0
C991 C 0.15661 0.53366 0.27409 0.0
H992 H 0.23499 0.4916 0.30625 0.0
H993 H 0.18034 0.44554 0.23722 0.0
H994 H 0.20158 0.53551 0.36245 0.0
H995 H 0.2024 0.51686 0.43084 0.0
H996 H 0.22834 0.52036 0.38253 0.0
H997 H 0.14077 0.44957 0.26757 0.0
H998 H 0.13512 0.46422 0.34161 0.0
H999 H 0.13393 0.48055 0.26923 0.0
H1000 H 0.1352 0.51334 0.51755 0.0
H1001 H 0.13175 0.55969 0.35667 0.0
H1002 H 0.18131 0.48047 0.47278 0.0
H1003 H 0.15845 0.46333 0.43702 0.0
H1004 H 0.15378 0.47631 0.51379 0.0
H1005 H 0.17509 0.54 0.27137 0.0
H1006 H 0.14502 0.54778 0.25535 0.0
H1007 H 0.155 0.518 0.24315 0.0
C1008 C 0.98626 0.83022 0.04927 0.0
C1009 C 0.96512 0.82002 0.02899 0.0
C1010 C 0.99879 0.8454 1.00974 0.0
C1011 C 0.9896 0.85058 0.94916 0.0
C1012 C 0.96816 0.84042 0.92859 0.0
C1013 C 0.95621 0.82482 0.96886 0.0
C1014 C 0.02186 0.85575 0.03266 0.0
C1015 C 0.95799 0.84599 0.86434 0.0
C1016 C 0.0162 0.90674 0.88988 0.0
C1017 C 0.03514 0.89806 0.85457 0.0
C1018 C 0.99975 0.89136 0.91659 0.0
C1019 C 1.0027 0.86688 0.90827 0.0
C1020 C 0.02092 0.85811 0.86955 0.0
C1021 C 0.03701 0.87393 0.84293 0.0
C1022 C 0.9804 0.90121 0.95765 0.0
C1023 C 0.02465 0.83202 0.86043 0.0
H1024 H 0.99324 0.82585 0.09564 0.0
H1025 H 0.93998 0.81645 0.9537 0.0
H1026 H 0.03617 0.85172 0.99873 0.0
H1027 H 0.0205 0.87522 0.03549 0.0
H1028 H 0.02699 0.84889 0.07999 0.0
H1029 H 0.94074 0.83715 0.85659 0.0
H1030 H 0.95567 0.86531 0.85906 0.0
H1031 H 0.97036 0.84032 0.82685 0.0
H1032 H 0.01477 0.9255 0.89878 0.0
H1033 H 0.05138 0.86742 0.81427 0.0
H1034 H 0.98482 0.89821 1.00819 0.0
H1035 H 0.96342 0.89212 0.9482 0.0
H1036 H 0.97805 0.92045 0.9501 0.0
H1037 H 0.03323 0.82463 0.90327 0.0
H1038 H 0.03611 0.82841 0.81905 0.0
H1039 H 1.00766 0.82261 0.85398 0.0
C1040 C 0.7212 0.98439 0.94489 0.0
C1041 C 0.71702 0.97234 1.00173 0.0
C1042 C 0.70233 0.99048 0.90603 0.0
C1043 C 0.67935 0.98498 0.92682 0.0
C1044 C 0.67567 0.96911 0.97781 0.0
C1045 C 0.69494 0.9624 0.01397 0.0
C1046 C 0.70676 1.00616 0.84941 0.0
C1047 C 0.65131 0.96301 1.00195 0.0
C1048 C 0.63587 0.03314 0.94745 0.0
C1049 C 0.61729 0.0244 0.91137 0.0
C1050 C 0.65732 0.02148 0.94859 0.0
C1051 C 0.66017 1.00101 0.91105 0.0
C1052 C 0.64237 0.99365 0.86916 0.0
C1053 C 0.62077 1.00511 0.8709 0.0
C1054 C 0.67603 0.02996 0.9942 0.0
C1055 C 0.64557 0.97275 0.82605 0.0
H1056 H 0.7385 0.99166 0.93485 0.0
H1057 H 0.69217 0.95241 0.05728 0.0
H1058 H 0.6926 1.00434 0.81358 0.0
H1059 H 0.70745 0.02483 0.86475 0.0
H1060 H 0.72395 1.00196 0.82721 0.0
H1061 H 0.65166 0.94857 0.03763 0.0
H1062 H 0.64345 0.97878 0.02447 0.0
H1063 H 0.6396 0.95764 0.96264 0.0
H1064 H 0.63333 0.04859 0.97664 0.0
H1065 H 0.60639 0.99835 0.84242 0.0
H1066 H 0.69297 0.0327 0.96924 0.0
H1067 H 0.67885 0.01647 0.0316 0.0
H1068 H 0.67116 0.04677 0.01748 0.0
H1069 H 0.6637 0.97237 0.80657 0.0
H1070 H 0.63281 0.97303 0.78622 0.0
H1071 H 0.64278 0.95618 0.85311 0.0
C1072 C 0.54514 0.70231 0.05894 0.0
C1073 C 0.56295 0.71617 0.03165 0.0
C1074 C 0.53167 0.68716 0.02206 0.0
C1075 C 0.53634 0.68584 0.95656 0.0
C1076 C 0.55456 0.69942 0.92878 0.0
C1077 C 0.56763 0.71473 0.9669 0.0
C1078 C 0.51212 0.67298 0.05293 0.0
C1079 C 0.55983 0.69814 0.85893 0.0
C1080 C 0.51142 0.63006 0.89105 0.0
C1081 C 0.48932 0.6378 0.8704 0.0
C1082 C 0.52788 0.646 0.91474 0.0
C1083 C 0.52184 0.67006 0.91804 0.0
C1084 C 0.50007 0.67815 0.89406 0.0
C1085 C 0.48391 0.66178 0.87053 0.0
C1086 C 0.55099 0.63687 0.94019 0.0
C1087 C 0.49316 0.70378 0.89725 0.0
H1088 H 0.54108 0.70407 0.10883 0.0
H1089 H 0.58121 0.72584 0.94618 0.0
H1090 H 0.49504 0.67693 0.02987 0.0
H1091 H 0.51543 0.65386 0.04689 0.0
H1092 H 0.51047 0.67667 0.1043 0.0
H1093 H 0.5755 0.70887 0.84564 0.0
H1094 H 0.56288 0.67959 0.84486 0.0
H1095 H 0.54447 0.70455 0.83154 0.0
H1096 H 0.51555 0.61141 0.89037 0.0
H1097 H 0.467 0.66764 0.85287 0.0
H1098 H 0.55054 0.63702 0.99268 0.0
H1099 H 0.56582 0.64836 0.92496 0.0
H1100 H 0.55453 0.61855 0.92456 0.0
H1101 H 0.4881 0.70811 0.94654 0.0
H1102 H 0.47799 0.70776 0.86584 0.0
H1103 H 0.50812 0.71543 0.88398 0.0
C1104 C 0.84449 0.56304 0.04676 0.0
C1105 C 0.82118 0.55922 0.02759 0.0
C1106 C 0.86308 0.55613 1.00816 0.0
C1107 C 0.85787 0.546 0.94893 0.0
C1108 C 0.8345 0.54554 0.92572 0.0
C1109 C 0.81627 0.55205 0.96585 0.0
C1110 C 0.88786 0.55681 0.034 0.0
C1111 C 0.82837 0.53496 0.86232 0.0
C1112 C 0.90119 0.52372 0.82995 0.0
C1113 C 0.8992 0.49946 0.84134 0.0
C1114 C 0.88914 0.53968 0.86812 0.0
C1115 C 0.87523 0.53087 0.91832 0.0
C1116 C 0.87499 0.50649 0.93323 0.0
C1117 C 0.88693 0.491 0.89398 0.0
C1118 C 0.88971 0.5656 0.85168 0.0
C1119 C 0.86067 0.49653 0.98757 0.0
H1120 H 0.8481 0.56918 0.09432 0.0
H1121 H 0.79821 0.54908 0.95111 0.0
H1122 H 0.89374 0.5386 0.04477 0.0
H1123 H 0.90017 0.56425 0.99837 0.0
H1124 H 0.88914 0.56739 0.07799 0.0
H1125 H 0.81039 0.53995 0.84676 0.0
H1126 H 0.84115 0.54062 0.82556 0.0
H1127 H 0.82908 0.51544 0.86591 0.0
H1128 H 0.91108 0.53004 0.78934 0.0
H1129 H 0.88609 0.47218 0.90311 0.0
H1130 H 0.89158 0.57647 0.89487 0.0
H1131 H 0.87283 0.57053 0.82887 0.0
H1132 H 0.90431 0.57 0.81867 0.0
H1133 H 0.86417 0.50655 0.03155 0.0
H1134 H 0.86454 0.47763 0.99658 0.0
H1135 H 0.84163 0.49816 0.97675 0.0
C1136 C 0.05475 0.19367 0.82746 0.0
C1137 C 0.03502 0.2086 0.82912 0.0
C1138 C 0.05352 0.1708 0.80105 0.0
C1139 C 0.03212 0.16244 0.7744 0.0
C1140 C 0.01244 0.17778 0.77361 0.0
C1141 C 0.01403 0.20038 0.80147 0.0
C1142 C 0.07501 0.1553 0.80339 0.0
C1143 C 0.98942 0.17018 0.7443 0.0
C1144 C 0.0323 0.10743 0.66733 0.0
C1145 C 0.02316 0.08993 0.70777 0.0
C1146 C 0.03535 0.13099 0.68803 0.0
C1147 C 0.02975 0.13725 0.7513 0.0
C1148 C 0.02103 0.11939 0.79244 0.0
C1149 C 0.01727 0.09628 0.76978 0.0
C1150 C 0.04422 0.1493 0.64187 0.0
C1151 C 0.01558 0.1247 0.86074 0.0
H1152 H 0.07107 0.19953 0.84897 0.0
H1153 H 0.99872 0.21168 0.80143 0.0
H1154 H 0.07081 0.13856 0.82842 0.0
H1155 H 0.08052 0.15068 0.75473 0.0
H1156 H 0.09008 0.16397 0.82761 0.0
H1157 H 0.97717 0.1852 0.73796 0.0
H1158 H 0.99246 0.16187 0.69759 0.0
H1159 H 0.98081 0.15684 0.77521 0.0
H1160 H 0.03664 0.10277 0.61904 0.0
H1161 H 0.00949 0.08322 0.80076 0.0
H1162 H 0.06171 0.15591 0.65709 0.0
H1163 H 0.03213 0.16459 0.64128 0.0
H1164 H 0.04587 0.14222 0.59317 0.0
H1165 H 0.03113 0.13293 0.88374 0.0
H1166 H 0.01057 0.10861 0.88787 0.0
H1167 H 1.00093 0.1375 0.86343 0.0
C1168 C 0.32565 0.03943 0.76398 0.0
C1169 C 0.32311 0.04601 0.82755 0.0
C1170 C 0.34818 0.03775 0.73557 0.0
C1171 C 0.36877 0.04296 0.77123 0.0
C1172 C 0.36608 0.05068 0.83461 0.0
C1173 C 0.34344 0.05188 0.86199 0.0
C1174 C 0.34995 0.02979 0.66778 0.0
C1175 C 0.38723 0.05729 0.87404 0.0
C1176 C 0.42685 0.01273 0.72752 0.0
C1177 C 0.44019 0.03111 0.70058 0.0
C1178 C 0.40382 0.01641 0.7505 0.0
C1179 C 0.39312 0.03885 0.74431 0.0
C1180 C 0.40621 0.05734 0.71512 0.0
C1181 C 0.42963 0.05338 0.69493 0.0
C1182 C 0.39117 0.99633 0.78333 0.0
C1183 C 0.39543 0.08126 0.70422 0.0
H1184 H 0.31005 0.03496 0.73698 0.0
H1185 H 0.34159 0.05731 0.91084 0.0
H1186 H 0.36206 0.04151 0.6408 0.0
H1187 H 0.35735 0.01175 0.66632 0.0
H1188 H 0.33254 0.02956 0.64383 0.0
H1189 H 0.38227 0.06313 0.9223 0.0
H1190 H 0.39924 0.042 0.87818 0.0
H1191 H 0.39719 0.07176 0.85053 0.0
H1192 H 0.43455 0.99556 0.7332 0.0
H1193 H 0.4397 0.06775 0.67418 0.0
H1194 H 0.37455 0.9922 0.75807 0.0
H1195 H 0.38643 1.00158 0.83221 0.0
H1196 H 0.40199 0.9801 0.78579 0.0
H1197 H 0.38217 0.0799 0.66582 0.0
H1198 H 0.40879 0.09467 0.6902 0.0
H1199 H 0.38616 0.08746 0.74715 0.0
C1200 C 0.51176 0.34044 0.78802 0.0
C1201 C 0.49201 0.33285 0.8228 0.0
C1202 C 0.51313 0.36339 0.76139 0.0
C1203 C 0.49461 0.37975 0.77082 0.0
C1204 C 0.47438 0.37201 0.80472 0.0
C1205 C 0.47328 0.34881 0.82977 0.0
C1206 C 0.5348 0.37026 0.72427 0.0
C1207 C 0.4539 0.38836 0.81519 0.0
C1208 C 0.50853 0.44644 0.76654 0.0
C1209 C 0.50222 0.45296 0.70465 0.0
C1210 C 0.50644 0.42281 0.78804 0.0
C1211 C 0.49686 0.40514 0.74791 0.0
C1212 C 0.48972 0.41187 0.686 0.0
C1213 C 0.49297 0.43542 0.66475 0.0
C1214 C 0.51486 0.41665 0.85369 0.0
C1215 C 0.47851 0.39416 0.64221 0.0
H1216 H 0.52623 0.32834 0.78138 0.0
H1217 H 0.45792 0.3434 0.85664 0.0
H1218 H 0.52991 0.3792 0.6794 0.0
H1219 H 0.54546 0.38289 0.75233 0.0
H1220 H 0.54588 0.35477 0.71291 0.0
H1221 H 0.43965 0.37998 0.84355 0.0
H1222 H 0.45993 0.40454 0.83985 0.0
H1223 H 0.44652 0.39395 0.76894 0.0
H1224 H 0.51583 0.45972 0.79772 0.0
H1225 H 0.48787 0.44021 0.61698 0.0
H1226 H 0.52865 0.4029 0.85091 0.0
H1227 H 0.5001 0.4092 0.8819 0.0
H1228 H 0.52219 0.43216 0.87897 0.0
H1229 H 0.49053 0.37907 0.6351 0.0
H1230 H 0.47403 0.40194 0.59543 0.0
H1231 H 0.46219 0.387 0.66394 0.0
C1232 C 0.18221 0.5116 0.86053 0.0
C1233 C 0.20041 0.50141 0.82507 0.0
C1234 C 0.15899 0.51326 0.83681 0.0
C1235 C 0.15351 0.50502 0.77516 0.0
C1236 C 0.1719 0.49497 0.73866 0.0
C1237 C 0.19491 0.49304 0.7642 0.0
C1238 C 0.1401 0.52345 0.87856 0.0
C1239 C 0.16743 0.48663 0.67203 0.0
C1240 C 0.08865 0.49016 0.73789 0.0
C1241 C 0.08032 0.51119 0.71052 0.0
C1242 C 0.11225 0.48786 0.75843 0.0
C1243 C 0.12851 0.50674 0.74992 0.0
C1244 C 0.12039 0.52769 0.72012 0.0
C1245 C 0.09647 0.52981 0.70198 0.0
C1246 C 0.11969 0.4652 0.79012 0.0
C1247 C 0.13704 0.54797 0.70739 0.0
H1248 H 0.18599 0.51772 0.90797 0.0
H1249 H 0.20874 0.48521 0.73608 0.0
H1250 H 0.13176 0.53874 0.85478 0.0
H1251 H 0.12611 0.51004 0.8868 0.0
H1252 H 0.14708 0.52926 0.92507 0.0
H1253 H 0.18265 0.47684 0.65245 0.0
H1254 H 0.15162 0.4751 0.67018 0.0
H1255 H 0.16397 0.50208 0.64107 0.0
H1256 H 0.07655 0.47554 0.74456 0.0
H1257 H 0.09048 0.54605 0.68029 0.0
H1258 H 0.1269 0.46899 0.83783 0.0
H1259 H 0.13391 0.45682 0.76233 0.0
H1260 H 0.10488 0.45244 0.79505 0.0
H1261 H 0.14367 0.55517 0.75277 0.0
H1262 H 0.12853 0.56243 0.68025 0.0
H1263 H 0.15252 0.5417 0.68036 0.0
C1264 C 1.00712 0.84951 0.44693 0.0
C1265 C 0.99232 0.83237 0.47467 0.0
C1266 C 0.0088 0.87268 0.47107 0.0
C1267 C 0.99573 0.87921 0.52542 0.0
C1268 C 0.98104 0.86191 0.55444 0.0
C1269 C 0.97932 0.83898 0.52845 0.0
C1270 C 0.02421 0.89042 0.43715 0.0
C1271 C 0.9667 0.86747 0.61253 0.0
C1272 C 0.0179 0.93573 0.60743 0.0
C1273 C 1.00124 0.95262 0.58848 0.0
C1274 C 0.01558 0.91167 0.59052 0.0
C1275 C 0.99701 0.90429 0.55002 0.0
C1276 C 0.98003 0.9212 0.53146 0.0
C1277 C 0.9819 0.94474 0.55275 0.0
C1278 C 0.03276 0.89403 0.61704 0.0
C1279 C 0.96006 0.91456 0.4879 0.0
H1280 H 0.01691 0.84506 0.40472 0.0
H1281 H 0.96782 0.82613 0.55089 0.0
H1282 H 0.01373 0.90617 0.42404 0.0
H1283 H 0.03854 0.89643 0.46899 0.0
H1284 H 0.03226 0.88309 0.39365 0.0
H1285 H 0.96323 0.85134 0.64114 0.0
H1286 H 0.97555 0.88071 0.64296 0.0
H1287 H 0.94942 0.87466 0.59777 0.0
H1288 H 0.03256 0.94124 0.63679 0.0
H1289 H 0.96835 0.957 0.54002 0.0
H1290 H 0.04314 0.88614 0.57821 0.0
H1291 H 0.02299 0.87947 0.64079 0.0
H1292 H 0.04506 0.90211 0.6517 0.0
H1293 H 0.96715 0.90695 0.44358 0.0
H1294 H 0.94883 0.92983 0.47564 0.0
H1295 H 0.94882 0.90091 0.51056 0.0
C1296 C 0.70002 1.00591 0.54043 0.0
C1297 C 0.70342 0.99373 0.48337 0.0
C1298 C 0.67733 1.00857 0.56726 0.0
C1299 C 0.65717 0.99934 0.53597 0.0
C1300 C 0.66053 0.98679 0.47873 0.0
C1301 C 0.68342 0.98407 0.45352 0.0
C1302 C 0.67493 0.02132 0.62936 0.0
C1303 C 0.63981 0.97688 0.4427 0.0
C1304 C 0.59743 0.99134 0.62073 0.0
C1305 C 0.58536 0.01196 0.60355 0.0
C1306 C 0.62088 0.98727 0.60087 0.0
C1307 C 0.63255 1.00385 0.56097 0.0
C1308 C 0.62028 0.02458 0.5431 0.0
C1309 C 0.59707 0.02841 0.56476 0.0
C1310 C 0.63313 0.96511 0.62234 0.0
C1311 C 0.63153 0.04261 0.49975 0.0
H1312 H 0.7152 0.01323 0.56455 0.0
H1313 H 0.68556 0.9749 0.40904 0.0
H1314 H 0.66347 0.03694 0.62339 0.0
H1315 H 0.66636 1.00956 0.66471 0.0
H1316 H 0.6922 0.02722 0.64841 0.0
H1317 H 0.64536 0.96557 0.40267 0.0
H1318 H 0.62827 0.96634 0.47449 0.0
H1319 H 0.6291 0.9916 0.42365 0.0
H1320 H 0.58845 0.97832 0.64985 0.0
H1321 H 0.58788 0.04396 0.54901 0.0
H1322 H 0.64964 0.96975 0.64753 0.0
H1323 H 0.63806 0.95434 0.58078 0.0
H1324 H 0.62195 0.9542 0.65432 0.0
H1325 H 0.64763 0.04991 0.52218 0.0
H1326 H 0.6195 0.05741 0.48838 0.0
H1327 H 0.63697 0.03411 0.45493 0.0
C1328 C 0.52134 0.69185 0.44432 0.0
C1329 C 0.53694 0.70856 0.47047 0.0
C1330 C 0.51972 0.66848 0.46781 0.0
C1331 C 0.53379 0.66116 0.51978 0.0
C1332 C 0.54938 0.67797 0.54716 0.0
C1333 C 0.55092 0.70116 0.52199 0.0
C1334 C 0.50317 0.65138 0.4358 0.0
C1335 C 0.5648 0.67163 0.60275 0.0
C1336 C 0.51094 0.60461 0.60183 0.0
C1337 C 0.52677 0.58731 0.58108 0.0
C1338 C 0.51401 0.62876 0.5861 0.0
C1339 C 0.53224 0.6359 0.54404 0.0
C1340 C 0.54825 0.61848 0.52292 0.0
C1341 C 0.54585 0.59482 0.54365 0.0
C1342 C 0.49797 0.64675 0.61554 0.0
C1343 C 0.56777 0.62468 0.47736 0.0
H1344 H 0.51076 0.69678 0.40381 0.0
H1345 H 0.56303 0.7136 0.54343 0.0
H1346 H 0.51278 0.63518 0.42222 0.0
H1347 H 0.48901 0.64604 0.46908 0.0
H1348 H 0.49488 0.65906 0.39286 0.0
H1349 H 0.56917 0.68743 0.63142 0.0
H1350 H 0.55636 0.65826 0.63394 0.0
H1351 H 0.58159 0.66427 0.58505 0.0
H1352 H 0.49635 0.59942 0.63168 0.0
H1353 H 0.55868 0.58209 0.52883 0.0
H1354 H 0.48693 0.65512 0.57858 0.0
H1355 H 0.50864 0.66093 0.63781 0.0
H1356 H 0.48625 0.63883 0.65207 0.0
H1357 H 0.56058 0.63435 0.43592 0.0
H1358 H 0.57718 0.60882 0.46021 0.0
H1359 H 0.58069 0.63644 0.50088 0.0
C1360 C 0.82677 0.54884 0.54528 0.0
C1361 C 0.82139 0.54238 0.48281 0.0
C1362 C 0.84993 0.54671 0.57001 0.0
C1363 C 0.86855 0.53838 0.53116 0.0
C1364 C 0.8631 0.53203 0.4678 0.0
C1365 C 0.83975 0.53396 0.44473 0.0
C1366 C 0.85447 0.55362 0.63775 0.0
C1367 C 0.88203 0.52309 0.42417 0.0
C1368 C 0.93365 0.55227 0.57088 0.0
C1369 C 0.94168 0.53101 0.5978 0.0
C1370 C 0.91005 0.55502 0.55022 0.0
C1371 C 0.89362 0.53613 0.55623 0.0
C1372 C 0.90154 0.51476 0.58421 0.0
C1373 C 0.92523 0.51248 0.60448 0.0
C1374 C 0.90274 0.57824 0.52146 0.0
C1375 C 0.88492 0.49417 0.59316 0.0
H1376 H 0.81277 0.55547 0.57503 0.0
H1377 H 0.83586 0.52908 0.3963 0.0
H1378 H 0.86428 0.53954 0.66287 0.0
H1379 H 0.86555 0.56978 0.63879 0.0
H1380 H 0.83791 0.55711 0.66392 0.0
H1381 H 0.8753 0.51961 0.37574 0.0
H1382 H 0.89662 0.53614 0.42099 0.0
H1383 H 0.8895 0.50654 0.44363 0.0
H1384 H 0.94591 0.56685 0.56537 0.0
H1385 H 0.93084 0.49602 0.62566 0.0
H1386 H 0.8882 0.5859 0.54953 0.0
H1387 H 0.896 0.57542 0.47279 0.0
H1388 H 0.91749 0.59117 0.51946 0.0
H1389 H 0.87122 0.49887 0.62821 0.0
H1390 H 0.89411 0.47811 0.61014 0.0
H1391 H 0.87582 0.49001 0.54809 0.0
loop_
_geom_bond_atom_site_label_1
_geom_bond_atom_site_label_2
_geom_bond_distance
_geom_bond_site_symmetry_2
_ccdc_geom_bond_type
C0 C1 1.384 . S
C0 H13 0.947 . S
C0 C35 1.382 . S
C1 C0 1.384 . S
C1 C2 1.378 . S
C2 C1 1.378 . S
C2 C3 1.378 . S
C2 H14 0.952 . S
C3 C2 1.378 . S
C3 H15 0.950 . S
C3 C34 1.383 . S
H4 C23 0.947 . S
H5 C24 0.946 . S
H6 C26 0.953 . S
H7 C27 0.945 . S
H8 C29 0.952 . S
H9 C30 0.949 1_556 S
H10 C32 0.950 . S
H11 C33 0.948 . S
H12 C35 0.951 . S
H13 C0 0.947 . S
H14 C2 0.952 . S
H15 C3 0.950 . S
N16 C19 1.382 . S
N16 C21 1.363 . S
N17 C19 1.371 . S
N17 C20 1.372 . S
N18 C20 1.361 . S
N18 C21 1.377 . S
C19 N16 1.382 . S
C19 N17 1.371 . S
C19 C22 1.480 . S
C20 N17 1.372 . S
C20 N18 1.361 . S
C20 C28 1.457 . S
C21 N16 1.363 . S
C21 N18 1.377 . S
C21 C34 1.479 . S
C22 C19 1.480 . S
C22 C23 1.383 . S
C22 C27 1.385 . S
C23 H4 0.947 . S
C23 C22 1.383 . S
C23 C24 1.388 . S
C24 H5 0.946 . S
C24 C23 1.388 . S
C24 C25 1.384 . S
C25 C24 1.384 . S
C25 C26 1.377 . S
C26 H6 0.953 . S
C26 C25 1.377 . S
C26 C27 1.369 . S
C27 H7 0.945 . S
C27 C22 1.385 . S
C27 C26 1.369 . S
C28 C20 1.457 . S
C28 C29 1.372 . S
C28 C33 1.364 . S
C29 H8 0.952 . S
C29 C28 1.372 . S
C29 C30 1.389 . S
C30 H9 0.949 1_554 S
C30 C29 1.389 . S
C30 C31 1.387 . S
C31 C30 1.387 . S
C31 C32 1.372 . S
C32 H10 0.950 . S
C32 C31 1.372 . S
C32 C33 1.379 . S
C33 H11 0.948 . S
C33 C28 1.364 . S
C33 C32 1.379 . S
C34 C3 1.383 . S
C34 C21 1.479 . S
C34 C35 1.398 . S
C35 C0 1.382 . S
C35 H12 0.951 . S
C35 C34 1.398 . S
C36 C37 1.384 . S
C36 H49 0.947 . S
C36 C71 1.382 . S
C37 C36 1.384 . S
C37 C38 1.378 . S
C38 C37 1.378 . S
C38 C39 1.378 . S
C38 H50 0.952 . S
C39 C38 1.378 . S
C39 H51 0.950 . S
C39 C70 1.383 . S
H40 C59 0.947 . S
H41 C60 0.946 . S
H42 C62 0.953 . S
H43 C63 0.945 . S
H44 C65 0.952 . S
H45 C66 0.949 1_556 S
H46 C68 0.950 . S
H47 C69 0.948 . S
H48 C71 0.951 . S
H49 C36 0.947 . S
H50 C38 0.952 . S
H51 C39 0.950 . S
N52 C55 1.382 . S
N52 C57 1.363 . S
N53 C55 1.371 . S
N53 C56 1.372 . S
N54 C56 1.361 . S
N54 C57 1.377 . S
C55 N52 1.382 . S
C55 N53 1.371 . S
C55 C58 1.480 . S
C56 N53 1.372 . S
C56 N54 1.361 . S
C56 C64 1.457 . S
C57 N52 1.363 . S
C57 N54 1.377 . S
C57 C70 1.479 . S
C58 C55 1.480 . S
C58 C59 1.383 . S
C58 C63 1.385 . S
C59 H40 0.947 . S
C59 C58 1.383 . S
C59 C60 1.388 . S
C60 H41 0.946 . S
C60 C59 1.388 . S
C60 C61 1.384 . S
C61 C60 1.384 . S
C61 C62 1.377 . S
C62 H42 0.953 . S
C62 C61 1.377 . S
C62 C63 1.369 . S
C63 H43 0.945 . S
C63 C58 1.385 . S
C63 C62 1.369 . S
C64 C56 1.457 . S
C64 C65 1.372 . S
C64 C69 1.364 . S
C65 H44 0.952 . S
C65 C64 1.372 . S
C65 C66 1.389 . S
C66 H45 0.949 1_554 S
C66 C65 1.389 . S
C66 C67 1.387 . S
C67 C66 1.387 . S
C67 C68 1.372 . S
C68 H46 0.950 . S
C68 C67 1.372 . S
C68 C69 1.379 . S
C69 H47 0.948 . S
C69 C64 1.364 . S
C69 C68 1.379 . S
C70 C39 1.383 . S
C70 C57 1.479 . S
C70 C71 1.398 . S
C71 C36 1.382 . S
C71 H48 0.951 . S
C71 C70 1.398 . S
C72 C73 1.384 . S
C72 H85 0.947 . S
C72 C107 1.382 . S
C73 C72 1.384 . S
C73 C74 1.378 . S
C74 C73 1.378 . S
C74 C75 1.378 . S
C74 H86 0.952 . S
C75 C74 1.378 . S
C75 H87 0.950 . S
C75 C106 1.383 . S
H76 C95 0.947 . S
H77 C96 0.946 . S
H78 C98 0.953 . S
H79 C99 0.945 . S
H80 C101 0.952 . S
H81 C102 0.949 1_556 S
H82 C104 0.950 . S
H83 C105 0.948 . S
H84 C107 0.951 . S
H85 C72 0.947 . S
H86 C74 0.952 . S
H87 C75 0.950 . S
N88 C91 1.382 . S
N88 C93 1.363 . S
N89 C91 1.371 . S
N89 C92 1.372 . S
N90 C92 1.361 . S
N90 C93 1.377 . S
C91 N88 1.382 . S
C91 N89 1.371 . S
C91 C94 1.480 . S
C92 N89 1.372 . S
C92 N90 1.361 . S
C92 C100 1.457 . S
C93 N88 1.363 . S
C93 N90 1.377 . S
C93 C106 1.479 . S
C94 C91 1.480 . S
C94 C95 1.383 . S
C94 C99 1.385 . S
C95 H76 0.947 . S
C95 C94 1.383 . S
C95 C96 1.388 . S
C96 H77 0.946 . S
C96 C95 1.388 . S
C96 C97 1.384 . S
C97 C96 1.384 . S
C97 C98 1.377 . S
C98 H78 0.953 . S
C98 C97 1.377 . S
C98 C99 1.369 . S
C99 H79 0.945 . S
C99 C94 1.385 . S
C99 C98 1.369 . S
C100 C92 1.457 . S
C100 C101 1.372 . S
C100 C105 1.364 . S
C101 H80 0.952 . S
C101 C100 1.372 . S
C101 C102 1.389 . S
C102 H81 0.949 1_554 S
C102 C101 1.389 . S
C102 C103 1.387 . S
C103 C102 1.387 . S
C103 C104 1.372 . S
C104 H82 0.950 . S
C104 C103 1.372 . S
C104 C105 1.379 . S
C105 H83 0.948 . S
C105 C100 1.364 . S
C105 C104 1.379 . S
C106 C75 1.383 . S
C106 C93 1.479 . S
C106 C107 1.398 . S
C107 C72 1.382 . S
C107 H84 0.951 . S
C107 C106 1.398 . S
C108 C109 1.384 . S
C108 H121 0.947 . S
C108 C143 1.382 . S
C109 C108 1.384 . S
C109 C110 1.378 . S
C110 C109 1.378 . S
C110 C111 1.378 . S
C110 H122 0.952 1_554 S
C111 C110 1.378 . S
C111 H123 0.950 . S
C111 C142 1.383 . S
H112 C131 0.947 . S
H113 C132 0.946 . S
H114 C134 0.953 . S
H115 C135 0.945 . S
H116 C137 0.952 . S
H117 C138 0.949 . S
H118 C140 0.950 . S
H119 C141 0.948 . S
H120 C143 0.951 . S
H121 C108 0.947 . S
H122 C110 0.952 1_556 S
H123 C111 0.950 . S
N124 C127 1.382 . S
N124 C129 1.363 . S
N125 C127 1.371 . S
N125 C128 1.372 . S
N126 C128 1.361 . S
N126 C129 1.377 . S
C127 N124 1.382 . S
C127 N125 1.371 . S
C127 C130 1.480 . S
C128 N125 1.372 . S
C128 N126 1.361 . S
C128 C136 1.457 . S
C129 N124 1.363 . S
C129 N126 1.377 . S
C129 C142 1.479 . S
C130 C127 1.480 . S
C130 C131 1.383 . S
C130 C135 1.385 . S
C131 H112 0.947 . S
C131 C130 1.383 . S
C131 C132 1.388 . S
C132 H113 0.946 . S
C132 C131 1.388 . S
C132 C133 1.384 . S
C133 C132 1.384 . S
C133 C134 1.377 . S
C134 H114 0.953 . S
C134 C133 1.377 . S
C134 C135 1.369 . S
C135 H115 0.945 . S
C135 C130 1.385 . S
C135 C134 1.369 . S
C136 C128 1.457 . S
C136 C137 1.372 . S
C136 C141 1.364 . S
C137 H116 0.952 . S
C137 C136 1.372 . S
C137 C138 1.389 . S
C138 H117 0.949 . S
C138 C137 1.389 . S
C138 C139 1.387 . S
C139 C138 1.387 . S
C139 C140 1.372 . S
C140 H118 0.950 . S
C140 C139 1.372 . S
C140 C141 1.379 . S
C141 H119 0.948 . S
C141 C136 1.364 . S
C141 C140 1.379 . S
C142 C111 1.383 . S
C142 C129 1.479 . S
C142 C143 1.398 . S
C143 C108 1.382 . S
C143 H120 0.951 . S
C143 C142 1.398 . S
C144 C145 1.384 . S
C144 H157 0.947 . S
C144 C179 1.382 . S
C145 C144 1.384 . S
C145 C146 1.378 . S
C146 C145 1.378 . S
C146 C147 1.378 . S
C146 H158 0.952 . S
C147 C146 1.378 . S
C147 H159 0.950 . S
C147 C178 1.383 . S
H148 C167 0.947 1_556 S
H149 C168 0.946 . S
H150 C170 0.953 . S
H151 C171 0.945 . S
H152 C173 0.952 . S
H153 C174 0.949 . S
H154 C176 0.950 . S
H155 C177 0.948 . S
H156 C179 0.951 . S
H157 C144 0.947 . S
H158 C146 0.952 . S
H159 C147 0.950 . S
N160 C163 1.382 1_556 S
N160 C165 1.363 . S
N161 C163 1.371 . S
N161 C164 1.372 . S
N162 C164 1.361 . S
N162 C165 1.377 1_554 S
C163 N160 1.382 1_554 S
C163 N161 1.371 . S
C163 C166 1.480 . S
C164 N161 1.372 . S
C164 N162 1.361 . S
C164 C172 1.457 . S
C165 N160 1.363 . S
C165 N162 1.377 1_556 S
C165 C178 1.479 . S
C166 C163 1.480 . S
C166 C167 1.383 . S
C166 C171 1.385 . S
C167 H148 0.947 1_554 S
C167 C166 1.383 . S
C167 C168 1.388 . S
C168 H149 0.946 . S
C168 C167 1.388 . S
C168 C169 1.384 . S
C169 C168 1.384 . S
C169 C170 1.377 . S
C170 H150 0.953 . S
C170 C169 1.377 . S
C170 C171 1.369 . S
C171 H151 0.945 . S
C171 C166 1.385 . S
C171 C170 1.369 . S
C172 C164 1.457 . S
C172 C173 1.372 . S
C172 C177 1.364 . S
C173 H152 0.952 . S
C173 C172 1.372 . S
C173 C174 1.389 . S
C174 H153 0.949 . S
C174 C173 1.389 . S
C174 C175 1.387 . S
C175 C174 1.387 . S
C175 C176 1.372 . S
C176 H154 0.950 . S
C176 C175 1.372 . S
C176 C177 1.379 . S
C177 H155 0.948 . S
C177 C172 1.364 . S
C177 C176 1.379 . S
C178 C147 1.383 . S
C178 C165 1.479 . S
C178 C179 1.398 . S
C179 C144 1.382 . S
C179 H156 0.951 . S
C179 C178 1.398 . S
C180 C181 1.384 . S
C180 H193 0.947 . S
C180 C215 1.382 . S
C181 C180 1.384 . S
C181 C182 1.378 . S
C182 C181 1.378 . S
C182 C183 1.378 . S
C182 H194 0.952 . S
C183 C182 1.378 . S
C183 H195 0.950 . S
C183 C214 1.383 . S
H184 C203 0.947 1_556 S
H185 C204 0.946 . S
H186 C206 0.953 . S
H187 C207 0.945 . S
H188 C209 0.952 . S
H189 C210 0.949 . S
H190 C212 0.950 . S
H191 C213 0.948 . S
H192 C215 0.951 . S
H193 C180 0.947 . S
H194 C182 0.952 . S
H195 C183 0.950 . S
N196 C199 1.382 1_556 S
N196 C201 1.363 . S
N197 C199 1.371 . S
N197 C200 1.372 . S
N198 C200 1.361 . S
N198 C201 1.377 1_554 S
C199 N196 1.382 1_554 S
C199 N197 1.371 . S
C199 C202 1.480 . S
C200 N197 1.372 . S
C200 N198 1.361 . S
C200 C208 1.457 . S
C201 N196 1.363 . S
C201 N198 1.377 1_556 S
C201 C214 1.479 . S
C202 C199 1.480 . S
C202 C203 1.383 . S
C202 C207 1.385 . S
C203 H184 0.947 1_554 S
C203 C202 1.383 . S
C203 C204 1.388 . S
C204 H185 0.946 . S
C204 C203 1.388 . S
C204 C205 1.384 . S
C205 C204 1.384 . S
C205 C206 1.377 . S
C206 H186 0.953 . S
C206 C205 1.377 . S
C206 C207 1.369 . S
C207 H187 0.945 . S
C207 C202 1.385 . S
C207 C206 1.369 . S
C208 C200 1.457 . S
C208 C209 1.372 . S
C208 C213 1.364 . S
C209 H188 0.952 . S
C209 C208 1.372 . S
C209 C210 1.389 . S
C210 H189 0.949 . S
C210 C209 1.389 . S
C210 C211 1.387 . S
C211 C210 1.387 . S
C211 C212 1.372 . S
C212 H190 0.950 . S
C212 C211 1.372 . S
C212 C213 1.379 . S
C213 H191 0.948 . S
C213 C208 1.364 . S
C213 C212 1.379 . S
C214 C183 1.383 . S
C214 C201 1.479 . S
C214 C215 1.398 . S
C215 C180 1.382 . S
C215 H192 0.951 . S
C215 C214 1.398 . S
C216 C217 1.384 . S
C216 H229 0.947 . S
C216 C251 1.382 . S
C217 C216 1.384 . S
C217 C218 1.378 . S
C218 C217 1.378 . S
C218 C219 1.378 . S
C218 H230 0.952 . S
C219 C218 1.378 . S
C219 H231 0.950 . S
C219 C250 1.383 . S
H220 C239 0.947 1_556 S
H221 C240 0.946 . S
H222 C242 0.953 . S
H223 C243 0.945 . S
H224 C245 0.952 . S
H225 C246 0.949 . S
H226 C248 0.950 . S
H227 C249 0.948 . S
H228 C251 0.951 . S
H229 C216 0.947 . S
H230 C218 0.952 . S
H231 C219 0.950 . S
N232 C235 1.382 1_556 S
N232 C237 1.363 . S
N233 C235 1.371 . S
N233 C236 1.372 . S
N234 C236 1.361 . S
N234 C237 1.377 1_554 S
C235 N232 1.382 1_554 S
C235 N233 1.371 . S
C235 C238 1.480 . S
C236 N233 1.372 . S
C236 N234 1.361 . S
C236 C244 1.457 . S
C237 N232 1.363 . S
C237 N234 1.377 1_556 S
C237 C250 1.479 . S
C238 C235 1.480 . S
C238 C239 1.383 . S
C238 C243 1.385 . S
C239 H220 0.947 1_554 S
C239 C238 1.383 . S
C239 C240 1.388 . S
C240 H221 0.946 . S
C240 C239 1.388 . S
C240 C241 1.384 . S
C241 C240 1.384 . S
C241 C242 1.377 . S
C242 H222 0.953 . S
C242 C241 1.377 . S
C242 C243 1.369 . S
C243 H223 0.945 . S
C243 C238 1.385 . S
C243 C242 1.369 . S
C244 C236 1.457 . S
C244 C245 1.372 . S
C244 C249 1.364 . S
C245 H224 0.952 . S
C245 C244 1.372 . S
C245 C246 1.389 . S
C246 H225 0.949 . S
C246 C245 1.389 . S
C246 C247 1.387 . S
C247 C246 1.387 . S
C247 C248 1.372 . S
C248 H226 0.950 . S
C248 C247 1.372 . S
C248 C249 1.379 . S
C249 H227 0.948 . S
C249 C244 1.364 . S
C249 C248 1.379 . S
C250 C219 1.383 . S
C250 C237 1.479 . S
C250 C251 1.398 . S
C251 C216 1.382 . S
C251 H228 0.951 . S
C251 C250 1.398 . S
C252 C253 1.384 . S
C252 H265 0.947 . S
C252 C287 1.382 . S
C253 C252 1.384 . S
C253 C254 1.378 . S
C254 C253 1.378 . S
C254 C255 1.378 . S
C254 H266 0.952 . S
C255 C254 1.378 . S
C255 H267 0.950 . S
C255 C286 1.383 . S
H256 C275 0.947 . S
H257 C276 0.946 . S
H258 C278 0.953 . S
H259 C279 0.945 1_556 S
H260 C281 0.952 . S
H261 C282 0.949 . S
H262 C284 0.950 . S
H263 C285 0.948 . S
H264 C287 0.951 . S
H265 C252 0.947 . S
H266 C254 0.952 . S
H267 C255 0.950 . S
N268 C271 1.382 . S
N268 C273 1.363 . S
N269 C271 1.371 1_556 S
N269 C272 1.372 . S
N270 C272 1.361 1_554 S
N270 C273 1.377 . S
C271 N268 1.382 . S
C271 N269 1.371 1_554 S
C271 C274 1.480 . S
C272 N269 1.372 . S
C272 N270 1.361 1_556 S
C272 C280 1.457 . S
C273 N268 1.363 . S
C273 N270 1.377 . S
C273 C286 1.479 . S
C274 C271 1.480 . S
C274 C275 1.383 . S
C274 C279 1.385 . S
C275 H256 0.947 . S
C275 C274 1.383 . S
C275 C276 1.388 . S
C276 H257 0.946 . S
C276 C275 1.388 . S
C276 C277 1.384 . S
C277 C276 1.384 . S
C277 C278 1.377 . S
C278 H258 0.953 . S
C278 C277 1.377 . S
C278 C279 1.369 . S
C279 H259 0.945 1_554 S
C279 C274 1.385 . S
C279 C278 1.369 . S
C280 C272 1.457 . S
C280 C281 1.372 . S
C280 C285 1.364 . S
C281 H260 0.952 . S
C281 C280 1.372 . S
C281 C282 1.389 . S
C282 H261 0.949 . S
C282 C281 1.389 . S
C282 C283 1.387 . S
C283 C282 1.387 . S
C283 C284 1.372 . S
C284 H262 0.950 . S
C284 C283 1.372 . S
C284 C285 1.379 . S
C285 H263 0.948 . S
C285 C280 1.364 . S
C285 C284 1.379 . S
C286 C255 1.383 . S
C286 C273 1.479 . S
C286 C287 1.398 . S
C287 C252 1.382 . S
C287 H264 0.951 . S
C287 C286 1.398 . S
Eu288 N317 2.600 . S
Eu288 N323 2.562 . S
Eu288 O332 2.462 . S
Eu288 O333 2.373 1_545 S
Eu288 O335 2.432 . S
Eu288 O336 2.291 1_655 S
Eu288 O340 2.335 1_655 S
Eu288 O343 2.372 . S
Eu288 C352 2.787 . S
C289 N290 1.365 . S
C289 C292 1.405 . S
C289 C296 1.448 . S
N290 C289 1.365 . S
N290 C293 1.315 1_545 S
N290 Eu299 2.600 1_545 S
C291 C293 1.387 1_545 S
C291 C294 1.367 . S
C291 H311 0.931 . S
C292 C289 1.405 . S
C292 C294 1.403 . S
C292 C298 1.439 . S
C293 N290 1.315 1_565 S
C293 C291 1.387 1_565 S
C293 H304 0.945 . S
C294 C291 1.367 . S
C294 C292 1.403 . S
C294 H315 0.929 . S
C295 C296 1.430 . S
C295 C297 1.387 . S
C295 C301 1.404 . S
C296 C289 1.448 . S
C296 C295 1.430 . S
C296 N300 1.351 . S
C297 C295 1.387 . S
C297 C298 1.374 . S
C297 H312 0.931 . S
C298 C292 1.439 . S
C298 C297 1.374 . S
C298 H313 0.931 . S
Eu299 N290 2.600 1_565 S
Eu299 N300 2.562 1_565 S
Eu299 O334 2.335 . S
Eu299 O337 2.372 . S
Eu299 O338 2.462 . S
Eu299 O339 2.373 1_565 S
Eu299 O341 2.432 . S
Eu299 O342 2.291 1_465 S
Eu299 C363 2.787 . S
N300 C296 1.351 . S
N300 Eu299 2.562 1_545 S
N300 C302 1.325 . S
C301 C295 1.404 . S
C301 C303 1.366 . S
C301 H309 0.930 . S
C302 N300 1.325 . S
C302 C303 1.416 . S
C302 H308 0.905 1_455 S
C303 C301 1.366 . S
C303 C302 1.416 . S
C303 H305 0.930 . S
H304 C293 0.945 . S
H305 C303 0.930 . S
H306 C321 0.930 . S
H307 C328 0.930 1_455 S
H308 C302 0.905 1_655 S
H309 C301 0.930 . S
H310 C324 0.929 1_455 S
H311 C291 0.931 . S
H312 C297 0.931 . S
H313 C298 0.931 . S
H314 C319 0.931 . S
H315 C294 0.929 . S
H316 C327 0.930 . S
N317 Eu288 2.600 . S
N317 C318 1.365 . S
N317 C321 1.319 . S
C318 N317 1.365 . S
C318 C320 1.405 1_545 S
C318 C326 1.448 . S
C319 H314 0.931 . S
C319 C321 1.397 . S
C319 C322 1.374 . S
C320 C318 1.405 1_565 S
C320 C322 1.402 1_565 S
C320 C353 1.439 . S
C321 H306 0.930 . S
C321 N317 1.319 . S
C321 C319 1.397 . S
C322 C319 1.374 . S
C322 C320 1.402 1_545 S
C322 H329 0.924 1_545 S
N323 Eu288 2.562 . S
N323 C324 1.325 . S
N323 C326 1.351 . S
C324 H310 0.929 1_655 S
C324 N323 1.325 . S
C324 C328 1.416 1_545 S
C325 C326 1.430 1_565 S
C325 C327 1.404 . S
C325 C354 1.387 . S
C326 C318 1.448 . S
C326 N323 1.351 . S
C326 C325 1.430 1_545 S
C327 H316 0.930 . S
C327 C325 1.404 . S
C327 C328 1.366 . S
C328 H307 0.930 1_655 S
C328 C324 1.416 1_565 S
C328 C327 1.366 . S
H329 C322 0.924 1_565 S
H330 C353 0.931 . S
H331 C354 0.931 . S
O332 Eu288 2.462 . S
O332 C352 1.252 . S
O333 Eu288 2.373 1_565 S
O333 C344 1.249 . S
O334 Eu299 2.335 . S
O334 C344 1.264 1_455 S
O335 Eu288 2.432 . S
O335 C352 1.268 . S
O336 Eu288 2.291 1_455 S
O336 C351 1.255 . S
O337 Eu299 2.372 . S
O337 C351 1.257 1_565 S
O338 Eu299 2.462 . S
O338 C363 1.252 . S
O339 Eu299 2.373 1_545 S
O339 C355 1.249 . S
O340 Eu288 2.335 1_455 S
O340 C355 1.264 . S
O341 Eu299 2.432 . S
O341 C363 1.268 . S
O342 Eu299 2.291 1_645 S
O342 C362 1.255 . S
O343 Eu288 2.372 . S
O343 C362 1.257 . S
C344 O333 1.249 . S
C344 O334 1.264 1_655 S
C345 C348 1.382 . S
C345 C350 1.390 . S
C345 C352 1.506 . S
C346 C347 1.398 . S
C346 C350 1.392 . S
C347 C346 1.398 . S
C347 C349 1.372 . S
C347 H364 0.931 . S
C348 C345 1.382 . S
C348 C349 1.390 . S
C348 H365 0.931 . S
C349 C347 1.372 . S
C349 C348 1.390 . S
C349 H366 0.929 . S
C350 C345 1.390 . S
C350 C346 1.392 . S
C350 H367 0.930 1_655 S
C351 O336 1.255 . S
C351 O337 1.257 1_545 S
C352 Eu288 2.787 . S
C352 O332 1.252 . S
C352 O335 1.268 . S
C352 C345 1.506 . S
C353 C320 1.439 . S
C353 H330 0.931 . S
C353 C354 1.374 . S
C354 C325 1.387 . S
C354 H331 0.931 . S
C354 C353 1.374 . S
C355 O339 1.249 . S
C355 O340 1.264 . S
C356 C359 1.382 . S
C356 C360 1.390 . S
C356 C363 1.506 . S
C357 C358 1.398 . S
C357 C360 1.392 . S
C358 C357 1.398 . S
C358 C361 1.372 . S
C358 H368 0.931 . S
C359 C356 1.382 . S
C359 C361 1.390 . S
C359 H369 0.931 . S
C360 C356 1.390 . S
C360 C357 1.392 . S
C360 H370 0.930 . S
C361 C358 1.372 . S
C361 C359 1.390 . S
C361 H371 0.929 . S
C362 O342 1.255 . S
C362 O343 1.257 . S
C363 Eu299 2.787 . S
C363 O338 1.252 . S
C363 O341 1.268 . S
C363 C356 1.506 . S
H364 C347 0.931 . S
H365 C348 0.931 . S
H366 C349 0.929 . S
H367 C350 0.930 1_455 S
H368 C358 0.931 . S
H369 C359 0.931 . S
H370 C360 0.930 . S
H371 C361 0.929 . S
Eu372 N401 2.600 . S
Eu372 N407 2.562 . S
Eu372 O416 2.462 . S
Eu372 O417 2.373 . S
Eu372 O419 2.432 . S
Eu372 O420 2.291 . S
Eu372 O424 2.335 1_545 S
Eu372 O427 2.372 . S
Eu372 C436 2.787 . S
C373 N374 1.365 . S
C373 C376 1.405 . S
C373 C380 1.448 . S
N374 C373 1.365 . S
N374 C377 1.319 . S
N374 Eu383 2.600 . S
C375 C377 1.397 . S
C375 C378 1.367 . S
C375 H395 0.931 . S
C376 C373 1.405 . S
C376 C378 1.403 . S
C376 C382 1.439 . S
C377 N374 1.319 . S
C377 C375 1.397 . S
C377 H388 0.930 . S
C378 C375 1.367 . S
C378 C376 1.403 . S
C378 H399 0.929 . S
C379 C380 1.430 . S
C379 C381 1.387 . S
C379 C385 1.404 . S
C380 C373 1.448 . S
C380 C379 1.430 . S
C380 N384 1.351 . S
C381 C379 1.387 . S
C381 C382 1.374 . S
C381 H396 0.931 . S
C382 C376 1.439 . S
C382 C381 1.374 . S
C382 H397 0.931 . S
Eu383 N374 2.600 . S
Eu383 N384 2.562 . S
Eu383 O418 2.335 1_565 S
Eu383 O421 2.372 . S
Eu383 O422 2.462 . S
Eu383 O423 2.373 . S
Eu383 O425 2.432 . S
Eu383 O426 2.291 1_565 S
Eu383 C447 2.787 . S
N384 C380 1.351 . S
N384 Eu383 2.562 . S
N384 C386 1.325 . S
C385 C379 1.404 . S
C385 C387 1.366 . S
C385 H393 0.930 . S
C386 N384 1.325 . S
C386 C387 1.416 . S
C386 H392 0.929 . S
C387 C385 1.366 . S
C387 C386 1.416 . S
C387 H389 0.930 . S
H388 C377 0.930 . S
H389 C387 0.930 . S
H390 C405 0.930 . S
H391 C412 0.930 . S
H392 C386 0.929 . S
H393 C385 0.930 . S
H394 C408 0.929 . S
H395 C375 0.931 . S
H396 C381 0.931 . S
H397 C382 0.931 . S
H398 C403 0.931 . S
H399 C378 0.929 . S
H400 C411 0.930 . S
N401 Eu372 2.600 . S
N401 C402 1.365 . S
N401 C405 1.319 . S
C402 N401 1.365 . S
C402 C404 1.405 . S
C402 C410 1.448 . S
C403 H398 0.931 . S
C403 C405 1.397 . S
C403 C406 1.367 . S
C404 C402 1.405 . S
C404 C406 1.403 . S
C404 C437 1.439 . S
C405 H390 0.930 . S
C405 N401 1.319 . S
C405 C403 1.397 . S
C406 C403 1.367 . S
C406 C404 1.403 . S
C406 H413 0.929 . S
N407 Eu372 2.562 . S
N407 C408 1.325 . S
N407 C410 1.351 . S
C408 H394 0.929 . S
C408 N407 1.325 . S
C408 C412 1.416 . S
C409 C410 1.430 . S
C409 C411 1.404 . S
C409 C438 1.387 . S
C410 C402 1.448 . S
C410 N407 1.351 . S
C410 C409 1.430 . S
C411 H400 0.930 . S
C411 C409 1.404 . S
C411 C412 1.366 . S
C412 H391 0.930 . S
C412 C408 1.416 . S
C412 C411 1.366 . S
H413 C406 0.929 . S
H414 C437 0.931 . S
H415 C438 0.931 . S
O416 Eu372 2.462 . S
O416 C436 1.252 . S
O417 Eu372 2.373 . S
O417 C428 1.249 . S
O418 Eu383 2.335 1_545 S
O418 C428 1.264 . S
O419 Eu372 2.432 . S
O419 C436 1.268 . S
O420 Eu372 2.291 . S
O420 C435 1.244 1_545 S
O421 Eu383 2.372 . S
O421 C435 1.264 . S
O422 Eu383 2.462 . S
O422 C447 1.252 . S
O423 Eu383 2.373 . S
O423 C439 1.249 . S
O424 Eu372 2.335 1_565 S
O424 C439 1.264 . S
O425 Eu383 2.432 . S
O425 C447 1.268 . S
O426 Eu383 2.291 1_545 S
O426 C446 1.255 . S
O427 Eu372 2.372 . S
O427 C446 1.257 . S
C428 O417 1.249 . S
C428 O418 1.264 . S
C429 C432 1.382 . S
C429 C434 1.390 . S
C429 C436 1.506 . S
C430 C431 1.398 . S
C430 C434 1.392 . S
C431 C430 1.398 . S
C431 C433 1.372 . S
C431 H448 0.931 . S
C432 C429 1.382 . S
C432 C433 1.390 . S
C432 H449 0.931 . S
C433 C431 1.372 . S
C433 C432 1.390 . S
C433 H450 0.929 . S
C434 C429 1.390 . S
C434 C430 1.392 . S
C434 H451 0.930 . S
C435 O420 1.244 1_565 S
C435 O421 1.264 . S
C436 Eu372 2.787 . S
C436 O416 1.252 . S
C436 O419 1.268 . S
C436 C429 1.506 . S
C437 C404 1.439 . S
C437 H414 0.931 . S
C437 C438 1.374 . S
C438 C409 1.387 . S
C438 H415 0.931 . S
C438 C437 1.374 . S
C439 O423 1.249 . S
C439 O424 1.264 . S
C440 C443 1.382 . S
C440 C444 1.390 1_565 S
C440 C447 1.506 . S
C441 C442 1.398 1_545 S
C441 C444 1.392 . S
C442 C441 1.398 1_565 S
C442 C445 1.372 . S
C442 H452 0.931 . S
C443 C440 1.382 . S
C443 C445 1.390 . S
C443 H453 0.931 . S
C444 C440 1.390 1_545 S
C444 C441 1.392 . S
C444 H454 0.930 . S
C445 C442 1.372 . S
C445 C443 1.390 . S
C445 H455 0.929 . S
C446 O426 1.255 . S
C446 O427 1.257 . S
C447 Eu383 2.787 . S
C447 O422 1.252 . S
C447 O425 1.268 . S
C447 C440 1.506 . S
H448 C431 0.931 . S
H449 C432 0.931 . S
H450 C433 0.929 . S
H451 C434 0.930 . S
H452 C442 0.931 . S
H453 C443 0.931 . S
H454 C444 0.930 . S
H455 C445 0.929 . S
Eu456 N485 2.600 . S
Eu456 N491 2.562 . S
Eu456 O500 2.462 . S
Eu456 O501 2.373 . S
Eu456 O503 2.432 . S
Eu456 O504 2.291 . S
Eu456 O508 2.335 . S
Eu456 O511 2.372 . S
Eu456 C520 2.787 . S
C457 N458 1.365 . S
C457 C460 1.405 . S
C457 C464 1.448 . S
N458 C457 1.365 . S
N458 C461 1.319 . S
N458 Eu467 2.600 . S
C459 C461 1.397 . S
C459 C462 1.367 . S
C459 H479 0.931 . S
C460 C457 1.405 . S
C460 C462 1.403 . S
C460 C466 1.439 . S
C461 N458 1.319 . S
C461 C459 1.397 . S
C461 H472 0.930 . S
C462 C459 1.367 . S
C462 C460 1.403 . S
C462 H483 0.929 . S
C463 C464 1.430 . S
C463 C465 1.387 . S
C463 C469 1.404 . S
C464 C457 1.448 . S
C464 C463 1.430 . S
C464 N468 1.351 . S
C465 C463 1.387 . S
C465 C466 1.374 . S
C465 H480 0.931 . S
C466 C460 1.439 . S
C466 C465 1.374 . S
C466 H481 0.931 . S
Eu467 N458 2.600 . S
Eu467 N468 2.562 . S
Eu467 O502 2.335 . S
Eu467 O505 2.372 . S
Eu467 O506 2.462 . S
Eu467 O507 2.373 . S
Eu467 O509 2.432 . S
Eu467 O510 2.291 . S
Eu467 C531 2.787 . S
N468 C464 1.351 . S
N468 Eu467 2.562 . S
N468 C470 1.325 . S
C469 C463 1.404 . S
C469 C471 1.366 . S
C469 H477 0.930 . S
C470 N468 1.325 . S
C470 C471 1.416 . S
C470 H476 0.929 . S
C471 C469 1.366 . S
C471 C470 1.416 . S
C471 H473 0.930 . S
H472 C461 0.930 . S
H473 C471 0.930 . S
H474 C489 0.930 . S
H475 C496 0.930 . S
H476 C470 0.929 . S
H477 C469 0.930 . S
H478 C492 0.929 . S
H479 C459 0.931 . S
H480 C465 0.931 . S
H481 C466 0.931 . S
H482 C487 0.931 . S
H483 C462 0.929 . S
H484 C495 0.930 . S
N485 Eu456 2.600 . S
N485 C486 1.365 . S
N485 C489 1.319 . S
C486 N485 1.365 . S
C486 C488 1.405 . S
C486 C494 1.448 . S
C487 H482 0.931 . S
C487 C489 1.397 . S
C487 C490 1.367 . S
C488 C486 1.405 . S
C488 C490 1.403 . S
C488 C521 1.439 . S
C489 H474 0.930 . S
C489 N485 1.319 . S
C489 C487 1.397 . S
C490 C487 1.367 . S
C490 C488 1.403 . S
C490 H497 0.929 . S
N491 Eu456 2.562 . S
N491 C492 1.325 . S
N491 C494 1.351 . S
C492 H478 0.929 . S
C492 N491 1.325 . S
C492 C496 1.416 . S
C493 C494 1.430 . S
C493 C495 1.404 . S
C493 C522 1.387 . S
C494 C486 1.448 . S
C494 N491 1.351 . S
C494 C493 1.430 . S
C495 H484 0.930 . S
C495 C493 1.404 . S
C495 C496 1.366 . S
C496 H475 0.930 . S
C496 C492 1.416 . S
C496 C495 1.366 . S
H497 C490 0.929 . S
H498 C521 0.931 . S
H499 C522 0.931 . S
O500 Eu456 2.462 . S
O500 C520 1.252 . S
O501 Eu456 2.373 . S
O501 C512 1.249 . S
O502 Eu467 2.335 . S
O502 C512 1.264 . S
O503 Eu456 2.432 . S
O503 C520 1.268 . S
O504 Eu456 2.291 . S
O504 C519 1.255 . S
O505 Eu467 2.372 . S
O505 C519 1.257 . S
O506 Eu467 2.462 . S
O506 C531 1.252 . S
O507 Eu467 2.373 . S
O507 C523 1.249 . S
O508 Eu456 2.335 . S
O508 C523 1.264 . S
O509 Eu467 2.432 . S
O509 C531 1.268 . S
O510 Eu467 2.291 . S
O510 C530 1.255 . S
O511 Eu456 2.372 . S
O511 C530 1.257 . S
C512 O501 1.249 . S
C512 O502 1.264 . S
C513 C516 1.382 . S
C513 C518 1.390 . S
C513 C520 1.506 . S
C514 C515 1.398 . S
C514 C518 1.392 . S
C515 C514 1.398 . S
C515 C517 1.372 . S
C515 H532 0.931 . S
C516 C513 1.382 . S
C516 C517 1.390 . S
C516 H533 0.931 . S
C517 C515 1.372 . S
C517 C516 1.390 . S
C517 H534 0.929 . S
C518 C513 1.390 . S
C518 C514 1.392 . S
C518 H535 0.930 . S
C519 O504 1.255 . S
C519 O505 1.257 . S
C520 Eu456 2.787 . S
C520 O500 1.252 . S
C520 O503 1.268 . S
C520 C513 1.506 . S
C521 C488 1.439 . S
C521 H498 0.931 . S
C521 C522 1.374 . S
C522 C493 1.387 . S
C522 H499 0.931 . S
C522 C521 1.374 . S
C523 O507 1.249 . S
C523 O508 1.264 . S
C524 C527 1.382 . S
C524 C528 1.390 . S
C524 C531 1.506 . S
C525 C526 1.398 . S
C525 C528 1.392 . S
C526 C525 1.398 . S
C526 C529 1.372 . S
C526 H536 0.931 . S
C527 C524 1.382 . S
C527 C529 1.390 . S
C527 H537 0.931 . S
C528 C524 1.390 . S
C528 C525 1.392 . S
C528 H538 0.930 . S
C529 C526 1.372 . S
C529 C527 1.390 . S
C529 H539 0.929 . S
C530 O510 1.255 . S
C530 O511 1.257 . S
C531 Eu467 2.787 . S
C531 O506 1.252 . S
C531 O509 1.268 . S
C531 C524 1.506 . S
H532 C515 0.931 . S
H533 C516 0.931 . S
H534 C517 0.929 . S
H535 C518 0.930 . S
H536 C526 0.931 . S
H537 C527 0.931 . S
H538 C528 0.930 . S
H539 C529 0.929 . S
Eu540 N569 2.600 . S
Eu540 N575 2.562 . S
Eu540 O584 2.462 . S
Eu540 O585 2.373 1_455 S
Eu540 O587 2.432 . S
Eu540 O588 2.291 . S
Eu540 O592 2.335 . S
Eu540 O595 2.372 . S
Eu540 C604 2.787 . S
C541 N542 1.365 1_455 S
C541 C544 1.405 . S
C541 C548 1.448 . S
N542 C541 1.365 1_655 S
N542 C545 1.319 . S
N542 Eu551 2.600 . S
C543 C545 1.397 1_455 S
C543 C546 1.367 . S
C543 H563 0.931 . S
C544 C541 1.405 . S
C544 C546 1.403 . S
C544 C550 1.439 . S
C545 N542 1.319 . S
C545 C543 1.397 1_655 S
C545 H556 0.930 . S
C546 C543 1.367 . S
C546 C544 1.403 . S
C546 H567 0.929 . S
C547 C548 1.430 . S
C547 C549 1.387 . S
C547 C553 1.404 . S
C548 C541 1.448 . S
C548 C547 1.430 . S
C548 N552 1.351 . S
C549 C547 1.387 . S
C549 C550 1.374 . S
C549 H564 0.931 . S
C550 C544 1.439 . S
C550 C549 1.374 . S
C550 H565 0.931 . S
Eu551 N542 2.600 . S
Eu551 N552 2.562 1_655 S
Eu551 O586 2.335 . S
Eu551 O589 2.372 . S
Eu551 O590 2.462 . S
Eu551 O591 2.373 1_655 S
Eu551 O593 2.432 . S
Eu551 O594 2.304 . S
Eu551 C615 2.787 . S
N552 C548 1.351 . S
N552 Eu551 2.562 1_455 S
N552 C554 1.325 . S
C553 C547 1.404 . S
C553 C555 1.366 . S
C553 H561 0.930 . S
C554 N552 1.325 . S
C554 C555 1.416 . S
C554 H560 0.929 1_455 S
C555 C553 1.366 . S
C555 C554 1.416 . S
C555 H557 0.930 . S
H556 C545 0.930 . S
H557 C555 0.930 . S
H558 C573 0.930 . S
H559 C580 0.930 . S
H560 C554 0.929 1_655 S
H561 C553 0.930 . S
H562 C576 0.929 . S
H563 C543 0.931 . S
H564 C549 0.931 . S
H565 C550 0.931 . S
H566 C571 0.931 . S
H567 C546 0.929 . S
H568 C579 0.930 . S
N569 Eu540 2.600 . S
N569 C570 1.365 . S
N569 C573 1.319 . S
C570 N569 1.365 . S
C570 C572 1.405 1_455 S
C570 C578 1.450 . S
C571 H566 0.931 . S
C571 C573 1.397 . S
C571 C574 1.367 1_455 S
C572 C570 1.405 1_655 S
C572 C574 1.403 . S
C572 C605 1.439 . S
C573 H558 0.930 . S
C573 N569 1.319 . S
C573 C571 1.397 . S
C574 C571 1.367 1_655 S
C574 C572 1.403 . S
C574 H581 0.929 . S
N575 Eu540 2.562 . S
N575 C576 1.325 . S
N575 C578 1.361 . S
C576 H562 0.929 . S
C576 N575 1.325 . S
C576 C580 1.416 1_455 S
C577 C578 1.419 1_655 S
C577 C579 1.404 . S
C577 C606 1.387 . S
C578 C570 1.450 . S
C578 N575 1.361 . S
C578 C577 1.419 1_455 S
C579 H568 0.930 . S
C579 C577 1.404 . S
C579 C580 1.366 . S
C580 H559 0.930 . S
C580 C576 1.416 1_655 S
C580 C579 1.366 . S
H581 C574 0.929 . S
H582 C605 0.931 . S
H583 C606 0.931 . S
O584 Eu540 2.462 . S
O584 C604 1.252 . S
O585 Eu540 2.373 1_655 S
O585 C596 1.249 . S
O586 Eu551 2.335 . S
O586 C596 1.264 . S
O587 Eu540 2.432 . S
O587 C604 1.268 . S
O588 Eu540 2.291 . S
O588 C603 1.255 . S
O589 Eu551 2.372 . S
O589 C603 1.257 1_655 S
O590 Eu551 2.462 . S
O590 C615 1.252 . S
O591 Eu551 2.373 1_455 S
O591 C607 1.249 . S
O592 Eu540 2.335 . S
O592 C607 1.264 . S
O593 Eu551 2.432 . S
O593 C615 1.268 . S
O594 Eu551 2.304 . S
O594 C614 1.246 1_655 S
O595 Eu540 2.372 . S
O595 C614 1.257 . S
C596 O585 1.249 . S
C596 O586 1.264 . S
C597 C600 1.382 . S
C597 C602 1.390 . S
C597 C604 1.506 . S
C598 C599 1.398 . S
C598 C602 1.392 . S
C599 C598 1.398 . S
C599 C601 1.372 . S
C599 H616 0.931 . S
C600 C597 1.382 . S
C600 C601 1.390 . S
C600 H617 0.931 . S
C601 C599 1.372 . S
C601 C600 1.390 . S
C601 H618 0.929 . S
C602 C597 1.390 . S
C602 C598 1.392 . S
C602 H619 0.930 . S
C603 O588 1.255 . S
C603 O589 1.257 1_455 S
C604 Eu540 2.787 . S
C604 O584 1.252 . S
C604 O587 1.268 . S
C604 C597 1.506 . S
C605 C572 1.439 . S
C605 H582 0.931 . S
C605 C606 1.374 . S
C606 C577 1.387 . S
C606 H583 0.931 . S
C606 C605 1.374 . S
C607 O591 1.249 . S
C607 O592 1.264 . S
C608 C611 1.382 . S
C608 C612 1.390 . S
C608 C615 1.506 . S
C609 C610 1.398 . S
C609 C612 1.392 . S
C610 C609 1.398 . S
C610 C613 1.372 . S
C610 H620 0.931 . S
C611 C608 1.382 . S
C611 C613 1.390 . S
C611 H621 0.931 . S
C612 C608 1.390 . S
C612 C609 1.392 . S
C612 H622 0.930 . S
C613 C610 1.372 . S
C613 C611 1.390 . S
C613 H623 0.929 . S
C614 O594 1.246 1_455 S
C614 O595 1.257 . S
C615 Eu551 2.787 . S
C615 O590 1.252 . S
C615 O593 1.268 . S
C615 C608 1.506 . S
H616 C599 0.931 . S
H617 C600 0.931 . S
H618 C601 0.929 . S
H619 C602 0.930 . S
H620 C610 0.931 . S
H621 C611 0.931 . S
H622 C612 0.930 . S
H623 C613 0.929 . S
C624 C625 1.391 . S
C624 C626 1.394 . S
C624 H640 0.931 . S
C625 C624 1.391 . S
C625 C629 1.376 . S
C626 C624 1.394 . S
C626 C627 1.369 . S
C626 C630 1.531 . S
C627 C626 1.369 . S
C627 C628 1.410 . S
C627 C635 1.503 . S
C628 C627 1.410 . S
C628 C629 1.392 . S
C628 C631 1.511 . S
C629 C625 1.376 . S
C629 C628 1.392 . S
C629 H641 0.929 . S
C630 C626 1.531 . S
C630 H642 0.960 . S
C630 H643 0.962 . S
C630 H644 0.960 . S
C631 C628 1.511 . S
C631 H645 0.961 . S
C631 H646 0.961 . S
C631 H647 0.961 . S
C632 C633 1.370 . S
C632 C634 1.363 . S
C632 H648 0.931 1_545 S
C633 C632 1.370 . S
C633 C637 1.408 . S
C634 C632 1.363 . S
C634 C635 1.370 . S
C634 C638 1.524 1_545 S
C635 C627 1.503 . S
C635 C634 1.370 . S
C635 C636 1.403 . S
C636 C635 1.403 . S
C636 C637 1.404 . S
C636 C639 1.539 . S
C637 C633 1.408 . S
C637 C636 1.404 . S
C637 H649 0.930 . S
C638 C634 1.524 1_565 S
C638 H650 0.956 . S
C638 H651 0.961 1_565 S
C638 H652 0.961 . S
C639 C636 1.539 . S
C639 H653 0.958 . S
C639 H654 0.961 . S
C639 H655 0.960 . S
H640 C624 0.931 . S
H641 C629 0.929 . S
H642 C630 0.960 . S
H643 C630 0.962 . S
H644 C630 0.960 . S
H645 C631 0.961 . S
H646 C631 0.961 . S
H647 C631 0.961 . S
H648 C632 0.931 1_565 S
H649 C637 0.930 . S
H650 C638 0.956 . S
H651 C638 0.961 1_545 S
H652 C638 0.961 . S
H653 C639 0.958 . S
H654 C639 0.961 . S
H655 C639 0.960 . S
C656 C657 1.391 . S
C656 C658 1.394 . S
C656 H672 0.931 . S
C657 C656 1.391 . S
C657 C661 1.376 . S
C658 C656 1.394 . S
C658 C659 1.369 . S
C658 C662 1.531 . S
C659 C658 1.369 . S
C659 C660 1.410 . S
C659 C667 1.503 . S
C660 C659 1.410 . S
C660 C661 1.392 . S
C660 C663 1.511 . S
C661 C657 1.376 . S
C661 C660 1.392 . S
C661 H673 0.929 . S
C662 C658 1.531 . S
C662 H674 0.960 . S
C662 H675 0.962 . S
C662 H676 0.960 . S
C663 C660 1.511 . S
C663 H677 0.961 . S
C663 H678 0.961 . S
C663 H679 0.961 . S
C664 C665 1.370 . S
C664 C666 1.363 . S
C664 H680 0.931 . S
C665 C664 1.370 . S
C665 C669 1.408 . S
C666 C664 1.363 . S
C666 C667 1.370 . S
C666 C670 1.524 . S
C667 C659 1.503 . S
C667 C666 1.370 . S
C667 C668 1.403 . S
C668 C667 1.403 . S
C668 C669 1.404 . S
C668 C671 1.539 . S
C669 C665 1.408 . S
C669 C668 1.404 . S
C669 H681 0.930 . S
C670 C666 1.524 . S
C670 H682 0.956 . S
C670 H683 0.961 . S
C670 H684 0.961 . S
C671 C668 1.539 . S
C671 H685 0.958 . S
C671 H686 0.961 . S
C671 H687 0.960 . S
H672 C656 0.931 . S
H673 C661 0.929 . S
H674 C662 0.960 . S
H675 C662 0.962 . S
H676 C662 0.960 . S
H677 C663 0.961 . S
H678 C663 0.961 . S
H679 C663 0.961 . S
H680 C664 0.931 . S
H681 C669 0.930 . S
H682 C670 0.956 . S
H683 C670 0.961 . S
H684 C670 0.961 . S
H685 C671 0.958 . S
H686 C671 0.961 . S
H687 C671 0.960 . S
C688 C689 1.391 . S
C688 C690 1.394 . S
C688 H704 0.931 . S
C689 C688 1.391 . S
C689 C693 1.376 . S
C690 C688 1.394 . S
C690 C691 1.369 . S
C690 C694 1.531 . S
C691 C690 1.369 . S
C691 C692 1.410 . S
C691 C699 1.503 . S
C692 C691 1.410 . S
C692 C693 1.392 . S
C692 C695 1.511 . S
C693 C689 1.376 . S
C693 C692 1.392 . S
C693 H705 0.929 . S
C694 C690 1.531 . S
C694 H706 0.960 . S
C694 H707 0.962 . S
C694 H708 0.960 . S
C695 C692 1.511 . S
C695 H709 0.961 . S
C695 H710 0.961 . S
C695 H711 0.961 . S
C696 C697 1.370 . S
C696 C698 1.363 . S
C696 H712 0.931 . S
C697 C696 1.370 . S
C697 C701 1.408 . S
C698 C696 1.363 . S
C698 C699 1.370 . S
C698 C702 1.524 . S
C699 C691 1.503 . S
C699 C698 1.370 . S
C699 C700 1.403 . S
C700 C699 1.403 . S
C700 C701 1.404 . S
C700 C703 1.539 . S
C701 C697 1.408 . S
C701 C700 1.404 . S
C701 H713 0.930 . S
C702 C698 1.524 . S
C702 H714 0.956 . S
C702 H715 0.961 . S
C702 H716 0.961 . S
C703 C700 1.539 . S
C703 H717 0.958 . S
C703 H718 0.961 . S
C703 H719 0.960 . S
H704 C688 0.931 . S
H705 C693 0.929 . S
H706 C694 0.960 . S
H707 C694 0.962 . S
H708 C694 0.960 . S
H709 C695 0.961 . S
H710 C695 0.961 . S
H711 C695 0.961 . S
H712 C696 0.931 . S
H713 C701 0.930 . S
H714 C702 0.956 . S
H715 C702 0.961 . S
H716 C702 0.961 . S
H717 C703 0.958 . S
H718 C703 0.961 . S
H719 C703 0.960 . S
C720 C721 1.391 . S
C720 C722 1.394 . S
C720 H736 0.931 . S
C721 C720 1.391 . S
C721 C725 1.376 . S
C722 C720 1.394 . S
C722 C723 1.369 . S
C722 C726 1.531 . S
C723 C722 1.369 . S
C723 C724 1.410 . S
C723 C731 1.503 . S
C724 C723 1.410 . S
C724 C725 1.392 . S
C724 C727 1.511 1_455 S
C725 C721 1.376 . S
C725 C724 1.392 . S
C725 H737 0.929 . S
C726 C722 1.531 . S
C726 H738 0.960 . S
C726 H739 0.962 . S
C726 H740 0.960 . S
C727 C724 1.511 1_655 S
C727 H741 0.961 . S
C727 H742 0.961 . S
C727 H743 0.961 . S
C728 C729 1.370 . S
C728 C730 1.363 . S
C728 H744 0.931 . S
C729 C728 1.370 . S
C729 C733 1.408 . S
C730 C728 1.363 . S
C730 C731 1.370 . S
C730 C734 1.524 . S
C731 C723 1.503 . S
C731 C730 1.370 . S
C731 C732 1.403 . S
C732 C731 1.403 . S
C732 C733 1.404 . S
C732 C735 1.539 . S
C733 C729 1.408 . S
C733 C732 1.404 . S
C733 H745 0.930 . S
C734 C730 1.524 . S
C734 H746 0.956 . S
C734 H747 0.961 . S
C734 H748 0.961 . S
C735 C732 1.539 . S
C735 H749 0.958 . S
C735 H750 0.961 . S
C735 H751 0.960 . S
H736 C720 0.931 . S
H737 C725 0.929 . S
H738 C726 0.960 . S
H739 C726 0.962 . S
H740 C726 0.960 . S
H741 C727 0.961 . S
H742 C727 0.961 . S
H743 C727 0.961 . S
H744 C728 0.931 . S
H745 C733 0.930 . S
H746 C734 0.956 . S
H747 C734 0.961 . S
H748 C734 0.961 . S
H749 C735 0.958 . S
H750 C735 0.961 . S
H751 C735 0.960 . S
C752 C753 1.391 . S
C752 C754 1.394 1_554 S
C752 H768 0.931 . S
C753 C752 1.391 . S
C753 C757 1.376 . S
C754 C752 1.394 1_556 S
C754 C755 1.369 . S
C754 C758 1.531 . S
C755 C754 1.369 . S
C755 C756 1.410 1_566 S
C755 C763 1.503 . S
C756 C755 1.410 1_544 S
C756 C757 1.392 1_545 S
C756 C759 1.511 1_554 S
C757 C753 1.376 . S
C757 C756 1.392 1_565 S
C757 H769 0.929 1_565 S
C758 C754 1.531 . S
C758 H770 0.960 . S
C758 H771 0.962 . S
C758 H772 0.960 . S
C759 C756 1.511 1_556 S
C759 H773 0.961 1_556 S
C759 H774 0.961 . S
C759 H775 0.961 . S
C760 C761 1.370 . S
C760 C762 1.363 . S
C760 H776 0.931 . S
C761 C760 1.370 . S
C761 C765 1.408 . S
C762 C760 1.363 . S
C762 C763 1.370 . S
C762 C766 1.524 . S
C763 C755 1.503 . S
C763 C762 1.370 . S
C763 C764 1.403 . S
C764 C763 1.403 . S
C764 C765 1.404 . S
C764 C767 1.539 . S
C765 C761 1.408 . S
C765 C764 1.404 . S
C765 H777 0.930 . S
C766 C762 1.524 . S
C766 H778 0.956 . S
C766 H779 0.961 . S
C766 H780 0.961 . S
C767 C764 1.539 . S
C767 H781 0.958 . S
C767 H782 0.961 1_565 S
C767 H783 0.960 . S
H768 C752 0.931 . S
H769 C757 0.929 1_545 S
H770 C758 0.960 . S
H771 C758 0.962 . S
H772 C758 0.960 . S
H773 C759 0.961 1_554 S
H774 C759 0.961 . S
H775 C759 0.961 . S
H776 C760 0.931 . S
H777 C765 0.930 . S
H778 C766 0.956 . S
H779 C766 0.961 . S
H780 C766 0.961 . S
H781 C767 0.958 . S
H782 C767 0.961 1_545 S
H783 C767 0.960 . S
C784 C785 1.391 . S
C784 C786 1.394 1_554 S
C784 H800 0.931 . S
C785 C784 1.391 . S
C785 C789 1.376 . S
C786 C784 1.394 1_556 S
C786 C787 1.369 . S
C786 C790 1.531 . S
C787 C786 1.369 . S
C787 C788 1.410 1_556 S
C787 C795 1.503 . S
C788 C787 1.410 1_554 S
C788 C789 1.392 . S
C788 C791 1.511 . S
C789 C785 1.376 . S
C789 C788 1.392 . S
C789 H801 0.929 . S
C790 C786 1.531 . S
C790 H802 0.960 . S
C790 H803 0.962 . S
C790 H804 0.960 . S
C791 C788 1.511 . S
C791 H805 0.961 . S
C791 H806 0.961 1_554 S
C791 H807 0.961 . S
C792 C793 1.370 . S
C792 C794 1.363 . S
C792 H808 0.931 . S
C793 C792 1.370 . S
C793 C797 1.408 . S
C794 C792 1.363 . S
C794 C795 1.370 . S
C794 C798 1.524 . S
C795 C787 1.503 . S
C795 C794 1.370 . S
C795 C796 1.403 . S
C796 C795 1.403 . S
C796 C797 1.404 . S
C796 C799 1.539 . S
C797 C793 1.408 . S
C797 C796 1.404 . S
C797 H809 0.930 . S
C798 C794 1.524 . S
C798 H810 0.956 . S
C798 H811 0.961 . S
C798 H812 0.961 . S
C799 C796 1.539 . S
C799 H813 0.958 . S
C799 H814 0.961 . S
C799 H815 0.960 . S
H800 C784 0.931 . S
H801 C789 0.929 . S
H802 C790 0.960 . S
H803 C790 0.962 . S
H804 C790 0.960 . S
H805 C791 0.961 . S
H806 C791 0.961 1_556 S
H807 C791 0.961 . S
H808 C792 0.931 . S
H809 C797 0.930 . S
H810 C798 0.956 . S
H811 C798 0.961 . S
H812 C798 0.961 . S
H813 C799 0.958 . S
H814 C799 0.961 . S
H815 C799 0.960 . S
C816 C817 1.391 . S
C816 C818 1.394 . S
C816 H832 0.931 . S
C817 C816 1.391 . S
C817 C821 1.376 . S
C818 C816 1.394 . S
C818 C819 1.369 1_554 S
C818 C822 1.531 . S
C819 C818 1.369 1_556 S
C819 C820 1.410 . S
C819 C827 1.503 . S
C820 C819 1.410 . S
C820 C821 1.392 1_556 S
C820 C823 1.511 . S
C821 C817 1.376 . S
C821 C820 1.392 1_554 S
C821 H833 0.929 . S
C822 C818 1.531 . S
C822 H834 0.957 1_554 S
C822 H835 0.962 . S
C822 H836 0.962 . S
C823 C820 1.511 . S
C823 H837 0.961 . S
C823 H838 0.961 . S
C823 H839 0.961 . S
C824 C825 1.370 . S
C824 C826 1.363 . S
C824 H840 0.931 . S
C825 C824 1.370 . S
C825 C829 1.408 . S
C826 C824 1.363 . S
C826 C827 1.370 . S
C826 C830 1.524 . S
C827 C819 1.503 . S
C827 C826 1.370 . S
C827 C828 1.403 . S
C828 C827 1.403 . S
C828 C829 1.404 . S
C828 C831 1.539 . S
C829 C825 1.408 . S
C829 C828 1.404 . S
C829 H841 0.930 . S
C830 C826 1.524 . S
C830 H842 0.956 . S
C830 H843 0.961 . S
C830 H844 0.961 . S
C831 C828 1.539 . S
C831 H845 0.958 . S
C831 H846 0.961 . S
C831 H847 0.960 . S
H832 C816 0.931 . S
H833 C821 0.929 . S
H834 C822 0.957 1_556 S
H835 C822 0.962 . S
H836 C822 0.962 . S
H837 C823 0.961 . S
H838 C823 0.961 . S
H839 C823 0.961 . S
H840 C824 0.931 . S
H841 C829 0.930 . S
H842 C830 0.956 . S
H843 C830 0.961 . S
H844 C830 0.961 . S
H845 C831 0.958 . S
H846 C831 0.961 . S
H847 C831 0.960 . S
C848 C849 1.391 . S
C848 C850 1.394 . S
C848 H864 0.931 . S
C849 C848 1.391 . S
C849 C853 1.376 . S
C850 C848 1.394 . S
C850 C851 1.369 1_554 S
C850 C854 1.531 1_655 S
C851 C850 1.369 1_556 S
C851 C852 1.410 . S
C851 C859 1.503 . S
C852 C851 1.410 . S
C852 C853 1.392 1_556 S
C852 C855 1.511 . S
C853 C849 1.376 . S
C853 C852 1.392 1_554 S
C853 H865 0.929 . S
C854 C850 1.531 1_455 S
C854 H866 0.960 1_454 S
C854 H867 0.962 . S
C854 H868 0.960 . S
C855 C852 1.511 . S
C855 H869 0.961 . S
C855 H870 0.961 . S
C855 H871 0.961 . S
C856 C857 1.370 1_455 S
C856 C858 1.365 . S
C856 H872 0.931 . S
C857 C856 1.370 1_655 S
C857 C861 1.408 . S
C858 C856 1.365 . S
C858 C859 1.365 1_455 S
C858 C862 1.528 . S
C859 C851 1.503 . S
C859 C858 1.365 1_655 S
C859 C860 1.403 . S
C860 C859 1.403 . S
C860 C861 1.404 . S
C860 C863 1.539 . S
C861 C857 1.408 . S
C861 C860 1.404 . S
C861 H873 0.930 . S
C862 C858 1.528 . S
C862 H874 0.956 . S
C862 H875 0.961 . S
C862 H876 0.961 . S
C863 C860 1.539 . S
C863 H877 0.958 . S
C863 H878 0.961 . S
C863 H879 0.960 . S
H864 C848 0.931 . S
H865 C853 0.929 . S
H866 C854 0.960 1_656 S
H867 C854 0.962 . S
H868 C854 0.960 . S
H869 C855 0.961 . S
H870 C855 0.961 . S
H871 C855 0.961 . S
H872 C856 0.931 . S
H873 C861 0.930 . S
H874 C862 0.956 . S
H875 C862 0.961 . S
H876 C862 0.961 . S
H877 C863 0.958 . S
H878 C863 0.961 . S
H879 C863 0.960 . S
C880 C881 1.391 . S
C880 C882 1.394 . S
C880 H896 0.931 . S
C881 C880 1.391 . S
C881 C885 1.376 . S
C882 C880 1.394 . S
C882 C883 1.369 . S
C882 C886 1.531 . S
C883 C882 1.369 . S
C883 C884 1.410 . S
C883 C891 1.503 . S
C884 C883 1.410 . S
C884 C885 1.392 . S
C884 C887 1.511 1_455 S
C885 C881 1.376 . S
C885 C884 1.392 . S
C885 H897 0.929 . S
C886 C882 1.531 . S
C886 H898 0.960 . S
C886 H899 0.962 . S
C886 H900 0.960 . S
C887 C884 1.511 1_655 S
C887 H901 0.961 . S
C887 H902 0.961 . S
C887 H903 0.961 . S
C888 C889 1.370 1_455 S
C888 C890 1.362 . S
C888 H904 0.932 1_455 S
C889 C888 1.370 1_655 S
C889 C893 1.408 1_655 S
C890 C888 1.362 . S
C890 C891 1.370 . S
C890 C894 1.524 . S
C891 C883 1.503 . S
C891 C890 1.370 . S
C891 C892 1.403 . S
C892 C891 1.403 . S
C892 C893 1.404 . S
C892 C895 1.539 . S
C893 C889 1.408 1_455 S
C893 C892 1.404 . S
C893 H905 0.930 . S
C894 C890 1.524 . S
C894 H906 0.956 . S
C894 H907 0.961 . S
C894 H908 0.961 . S
C895 C892 1.539 . S
C895 H909 0.958 . S
C895 H910 0.961 . S
C895 H911 0.960 . S
H896 C880 0.931 . S
H897 C885 0.929 . S
H898 C886 0.960 . S
H899 C886 0.962 . S
H900 C886 0.960 . S
H901 C887 0.961 . S
H902 C887 0.961 . S
H903 C887 0.961 . S
H904 C888 0.932 1_655 S
H905 C893 0.930 . S
H906 C894 0.956 . S
H907 C894 0.961 . S
H908 C894 0.961 . S
H909 C895 0.958 . S
H910 C895 0.961 . S
H911 C895 0.960 . S
C912 C913 1.391 . S
C912 C914 1.394 . S
C912 H928 0.931 . S
C913 C912 1.391 . S
C913 C917 1.376 . S
C914 C912 1.394 . S
C914 C915 1.369 . S
C914 C918 1.531 1_545 S
C915 C914 1.369 . S
C915 C916 1.410 . S
C915 C923 1.503 . S
C916 C915 1.410 . S
C916 C917 1.392 . S
C916 C919 1.511 . S
C917 C913 1.376 . S
C917 C916 1.392 . S
C917 H929 0.929 . S
C918 C914 1.531 1_565 S
C918 H930 0.960 . S
C918 H931 0.962 . S
C918 H932 0.960 . S
C919 C916 1.511 . S
C919 H933 0.961 . S
C919 H934 0.961 . S
C919 H935 0.961 . S
C920 C921 1.370 . S
C920 C922 1.363 . S
C920 H936 0.931 . S
C921 C920 1.370 . S
C921 C925 1.408 . S
C922 C920 1.363 . S
C922 C923 1.370 . S
C922 C926 1.524 . S
C923 C915 1.503 . S
C923 C922 1.370 . S
C923 C924 1.403 . S
C924 C923 1.403 . S
C924 C925 1.404 . S
C924 C927 1.539 . S
C925 C921 1.408 . S
C925 C924 1.404 . S
C925 H937 0.930 . S
C926 C922 1.524 . S
C926 H938 0.956 . S
C926 H939 0.961 . S
C926 H940 0.961 . S
C927 C924 1.539 . S
C927 H941 0.958 . S
C927 H942 0.961 . S
C927 H943 0.960 . S
H928 C912 0.931 . S
H929 C917 0.929 . S
H930 C918 0.960 . S
H931 C918 0.962 . S
H932 C918 0.960 . S
H933 C919 0.961 . S
H934 C919 0.961 . S
H935 C919 0.961 . S
H936 C920 0.931 . S
H937 C925 0.930 . S
H938 C926 0.956 . S
H939 C926 0.961 . S
H940 C926 0.961 . S
H941 C927 0.958 . S
H942 C927 0.961 . S
H943 C927 0.960 . S
C944 C945 1.391 . S
C944 C946 1.394 . S
C944 H960 0.931 . S
C945 C944 1.391 . S
C945 C949 1.376 . S
C946 C944 1.394 . S
C946 C947 1.369 . S
C946 C950 1.531 . S
C947 C946 1.369 . S
C947 C948 1.410 . S
C947 C955 1.503 . S
C948 C947 1.410 . S
C948 C949 1.392 . S
C948 C951 1.511 . S
C949 C945 1.376 . S
C949 C948 1.392 . S
C949 H961 0.929 . S
C950 C946 1.531 . S
C950 H962 0.960 . S
C950 H963 0.962 . S
C950 H964 0.960 . S
C951 C948 1.511 . S
C951 H965 0.961 . S
C951 H966 0.961 . S
C951 H967 0.961 . S
C952 C953 1.370 . S
C952 C954 1.363 . S
C952 H968 0.931 . S
C953 C952 1.370 . S
C953 C957 1.408 . S
C954 C952 1.363 . S
C954 C955 1.370 . S
C954 C958 1.524 . S
C955 C947 1.503 . S
C955 C954 1.370 . S
C955 C956 1.403 . S
C956 C955 1.403 . S
C956 C957 1.404 . S
C956 C959 1.539 . S
C957 C953 1.408 . S
C957 C956 1.404 . S
C957 H969 0.930 . S
C958 C954 1.524 . S
C958 H970 0.956 . S
C958 H971 0.961 . S
C958 H972 0.961 . S
C959 C956 1.539 . S
C959 H973 0.958 . S
C959 H974 0.961 . S
C959 H975 0.960 . S
H960 C944 0.931 . S
H961 C949 0.929 . S
H962 C950 0.960 . S
H963 C950 0.962 . S
H964 C950 0.960 . S
H965 C951 0.961 . S
H966 C951 0.961 . S
H967 C951 0.961 . S
H968 C952 0.931 . S
H969 C957 0.930 . S
H970 C958 0.956 . S
H971 C958 0.961 . S
H972 C958 0.961 . S
H973 C959 0.958 . S
H974 C959 0.961 . S
H975 C959 0.960 . S
C976 C977 1.391 . S
C976 C978 1.394 . S
C976 H992 0.931 . S
C977 C976 1.391 . S
C977 C981 1.376 . S
C978 C976 1.394 . S
C978 C979 1.369 . S
C978 C982 1.531 . S
C979 C978 1.369 . S
C979 C980 1.410 . S
C979 C987 1.503 . S
C980 C979 1.410 . S
C980 C981 1.392 . S
C980 C983 1.511 . S
C981 C977 1.376 . S
C981 C980 1.392 . S
C981 H993 0.929 . S
C982 C978 1.531 . S
C982 H994 0.960 . S
C982 H995 0.962 . S
C982 H996 0.960 . S
C983 C980 1.511 . S
C983 H997 0.961 . S
C983 H998 0.961 . S
C983 H999 0.961 . S
C984 C985 1.370 . S
C984 C986 1.363 . S
C984 H1000 0.931 . S
C985 C984 1.370 . S
C985 C989 1.408 . S
C986 C984 1.363 . S
C986 C987 1.370 . S
C986 C990 1.524 . S
C987 C979 1.503 . S
C987 C986 1.370 . S
C987 C988 1.403 . S
C988 C987 1.403 . S
C988 C989 1.404 . S
C988 C991 1.539 . S
C989 C985 1.408 . S
C989 C988 1.404 . S
C989 H1001 0.930 . S
C990 C986 1.524 . S
C990 H1002 0.956 . S
C990 H1003 0.961 . S
C990 H1004 0.961 . S
C991 C988 1.539 . S
C991 H1005 0.958 . S
C991 H1006 0.961 . S
C991 H1007 0.960 . S
H992 C976 0.931 . S
H993 C981 0.929 . S
H994 C982 0.960 . S
H995 C982 0.962 . S
H996 C982 0.960 . S
H997 C983 0.961 . S
H998 C983 0.961 . S
H999 C983 0.961 . S
H1000 C984 0.931 . S
H1001 C989 0.930 . S
H1002 C990 0.956 . S
H1003 C990 0.961 . S
H1004 C990 0.961 . S
H1005 C991 0.958 . S
H1006 C991 0.961 . S
H1007 C991 0.960 . S
C1008 C1009 1.391 . S
C1008 C1010 1.394 . S
C1008 H1024 0.931 . S
C1009 C1008 1.391 . S
C1009 C1013 1.376 1_554 S
C1010 C1008 1.394 . S
C1010 C1011 1.369 1_554 S
C1010 C1014 1.531 1_655 S
C1011 C1010 1.369 1_556 S
C1011 C1012 1.410 . S
C1011 C1019 1.503 . S
C1012 C1011 1.410 . S
C1012 C1013 1.392 . S
C1012 C1015 1.511 . S
C1013 C1009 1.376 1_556 S
C1013 C1012 1.392 . S
C1013 H1025 0.929 . S
C1014 C1010 1.531 1_455 S
C1014 H1026 0.960 . S
C1014 H1027 0.962 . S
C1014 H1028 0.960 . S
C1015 C1012 1.511 . S
C1015 H1029 0.961 . S
C1015 H1030 0.961 . S
C1015 H1031 0.961 . S
C1016 C1017 1.370 1_655 S
C1016 C1018 1.363 . S
C1016 H1032 0.931 . S
C1017 C1016 1.370 1_455 S
C1017 C1021 1.408 . S
C1018 C1016 1.363 . S
C1018 C1019 1.370 . S
C1018 C1022 1.524 . S
C1019 C1011 1.503 . S
C1019 C1018 1.370 . S
C1019 C1020 1.403 1_655 S
C1020 C1019 1.403 1_455 S
C1020 C1021 1.404 . S
C1020 C1023 1.539 . S
C1021 C1017 1.408 . S
C1021 C1020 1.404 . S
C1021 H1033 0.930 . S
C1022 C1018 1.524 . S
C1022 H1034 0.956 1_556 S
C1022 H1035 0.961 . S
C1022 H1036 0.961 . S
C1023 C1020 1.539 . S
C1023 H1037 0.958 . S
C1023 H1038 0.961 . S
C1023 H1039 0.960 . S
H1024 C1008 0.931 . S
H1025 C1013 0.929 . S
H1026 C1014 0.960 . S
H1027 C1014 0.962 . S
H1028 C1014 0.960 . S
H1029 C1015 0.961 . S
H1030 C1015 0.961 . S
H1031 C1015 0.961 . S
H1032 C1016 0.931 . S
H1033 C1021 0.930 . S
H1034 C1022 0.956 1_554 S
H1035 C1022 0.961 . S
H1036 C1022 0.961 . S
H1037 C1023 0.958 . S
H1038 C1023 0.961 . S
H1039 C1023 0.960 . S
C1040 C1041 1.391 1_556 S
C1040 C1042 1.394 . S
C1040 H1056 0.931 . S
C1041 C1040 1.391 1_554 S
C1041 C1045 1.376 . S
C1042 C1040 1.394 . S
C1042 C1043 1.369 . S
C1042 C1046 1.531 1_565 S
C1043 C1042 1.369 . S
C1043 C1044 1.410 1_556 S
C1043 C1051 1.503 . S
C1044 C1043 1.410 1_554 S
C1044 C1045 1.392 . S
C1044 C1047 1.511 . S
C1045 C1041 1.376 . S
C1045 C1044 1.392 . S
C1045 H1057 0.929 . S
C1046 C1042 1.531 1_545 S
C1046 H1058 0.964 . S
C1046 H1059 0.962 . S
C1046 H1060 0.960 1_545 S
C1047 C1044 1.511 . S
C1047 H1061 0.961 . S
C1047 H1062 0.961 . S
C1047 H1063 0.961 . S
C1048 C1049 1.370 . S
C1048 C1050 1.363 . S
C1048 H1064 0.931 . S
C1049 C1048 1.370 . S
C1049 C1053 1.408 1_545 S
C1050 C1048 1.363 . S
C1050 C1051 1.370 1_545 S
C1050 C1054 1.524 1_556 S
C1051 C1043 1.503 . S
C1051 C1050 1.370 1_565 S
C1051 C1052 1.403 . S
C1052 C1051 1.403 . S
C1052 C1053 1.404 . S
C1052 C1055 1.539 . S
C1053 C1049 1.408 1_565 S
C1053 C1052 1.404 . S
C1053 H1065 0.930 . S
C1054 C1050 1.524 1_554 S
C1054 H1066 0.956 1_554 S
C1054 H1067 0.961 . S
C1054 H1068 0.961 . S
C1055 C1052 1.539 . S
C1055 H1069 0.958 . S
C1055 H1070 0.961 . S
C1055 H1071 0.960 . S
H1056 C1040 0.931 . S
H1057 C1045 0.929 . S
H1058 C1046 0.964 . S
H1059 C1046 0.962 . S
H1060 C1046 0.960 1_565 S
H1061 C1047 0.961 . S
H1062 C1047 0.961 . S
H1063 C1047 0.961 . S
H1064 C1048 0.931 . S
H1065 C1053 0.930 . S
H1066 C1054 0.956 1_556 S
H1067 C1054 0.961 . S
H1068 C1054 0.961 . S
H1069 C1055 0.958 . S
H1070 C1055 0.961 . S
H1071 C1055 0.960 . S
C1072 C1073 1.391 . S
C1072 C1074 1.394 . S
C1072 H1088 0.931 . S
C1073 C1072 1.391 . S
C1073 C1077 1.376 1_554 S
C1074 C1072 1.394 . S
C1074 C1075 1.369 1_554 S
C1074 C1078 1.531 . S
C1075 C1074 1.369 1_556 S
C1075 C1076 1.410 . S
C1075 C1083 1.503 . S
C1076 C1075 1.410 . S
C1076 C1077 1.392 . S
C1076 C1079 1.511 . S
C1077 C1073 1.376 1_556 S
C1077 C1076 1.392 . S
C1077 H1089 0.929 . S
C1078 C1074 1.531 . S
C1078 H1090 0.960 . S
C1078 H1091 0.962 . S
C1078 H1092 0.960 . S
C1079 C1076 1.511 . S
C1079 H1093 0.961 . S
C1079 H1094 0.961 . S
C1079 H1095 0.961 . S
C1080 C1081 1.370 . S
C1080 C1082 1.363 . S
C1080 H1096 0.931 . S
C1081 C1080 1.370 . S
C1081 C1085 1.408 . S
C1082 C1080 1.363 . S
C1082 C1083 1.370 . S
C1082 C1086 1.524 . S
C1083 C1075 1.503 . S
C1083 C1082 1.370 . S
C1083 C1084 1.403 . S
C1084 C1083 1.403 . S
C1084 C1085 1.404 . S
C1084 C1087 1.539 . S
C1085 C1081 1.408 . S
C1085 C1084 1.404 . S
C1085 H1097 0.930 . S
C1086 C1082 1.524 . S
C1086 H1098 0.956 1_556 S
C1086 H1099 0.961 . S
C1086 H1100 0.961 . S
C1087 C1084 1.539 . S
C1087 H1101 0.958 . S
C1087 H1102 0.961 . S
C1087 H1103 0.960 . S
H1088 C1072 0.931 . S
H1089 C1077 0.929 . S
H1090 C1078 0.960 . S
H1091 C1078 0.962 . S
H1092 C1078 0.960 . S
H1093 C1079 0.961 . S
H1094 C1079 0.961 . S
H1095 C1079 0.961 . S
H1096 C1080 0.931 . S
H1097 C1085 0.930 . S
H1098 C1086 0.956 1_554 S
H1099 C1086 0.961 . S
H1100 C1086 0.961 . S
H1101 C1087 0.958 . S
H1102 C1087 0.961 . S
H1103 C1087 0.960 . S
C1104 C1105 1.391 . S
C1104 C1106 1.394 . S
C1104 H1120 0.931 . S
C1105 C1104 1.391 . S
C1105 C1109 1.376 1_554 S
C1106 C1104 1.394 . S
C1106 C1107 1.369 1_554 S
C1106 C1110 1.531 . S
C1107 C1106 1.369 1_556 S
C1107 C1108 1.410 . S
C1107 C1115 1.503 . S
C1108 C1107 1.410 . S
C1108 C1109 1.392 . S
C1108 C1111 1.511 . S
C1109 C1105 1.376 1_556 S
C1109 C1108 1.392 . S
C1109 H1121 0.929 . S
C1110 C1106 1.531 . S
C1110 H1122 0.960 . S
C1110 H1123 0.962 . S
C1110 H1124 0.960 . S
C1111 C1108 1.511 . S
C1111 H1125 0.961 . S
C1111 H1126 0.961 . S
C1111 H1127 0.961 . S
C1112 C1113 1.370 . S
C1112 C1114 1.363 . S
C1112 H1128 0.931 . S
C1113 C1112 1.370 . S
C1113 C1117 1.408 . S
C1114 C1112 1.363 . S
C1114 C1115 1.370 . S
C1114 C1118 1.524 . S
C1115 C1107 1.503 . S
C1115 C1114 1.370 . S
C1115 C1116 1.403 . S
C1116 C1115 1.403 . S
C1116 C1117 1.404 . S
C1116 C1119 1.539 . S
C1117 C1113 1.408 . S
C1117 C1116 1.404 . S
C1117 H1129 0.930 . S
C1118 C1114 1.524 . S
C1118 H1130 0.956 . S
C1118 H1131 0.961 . S
C1118 H1132 0.961 . S
C1119 C1116 1.539 . S
C1119 H1133 0.958 1_556 S
C1119 H1134 0.961 . S
C1119 H1135 0.960 . S
H1120 C1104 0.931 . S
H1121 C1109 0.929 . S
H1122 C1110 0.960 . S
H1123 C1110 0.962 . S
H1124 C1110 0.960 . S
H1125 C1111 0.961 . S
H1126 C1111 0.961 . S
H1127 C1111 0.961 . S
H1128 C1112 0.931 . S
H1129 C1117 0.930 . S
H1130 C1118 0.956 . S
H1131 C1118 0.961 . S
H1132 C1118 0.961 . S
H1133 C1119 0.958 1_554 S
H1134 C1119 0.961 . S
H1135 C1119 0.960 . S
C1136 C1137 1.391 . S
C1136 C1138 1.394 . S
C1136 H1152 0.931 . S
C1137 C1136 1.391 . S
C1137 C1141 1.376 . S
C1138 C1136 1.394 . S
C1138 C1139 1.369 . S
C1138 C1142 1.531 . S
C1139 C1138 1.369 . S
C1139 C1140 1.410 . S
C1139 C1147 1.503 . S
C1140 C1139 1.410 . S
C1140 C1141 1.392 . S
C1140 C1143 1.511 1_455 S
C1141 C1137 1.376 . S
C1141 C1140 1.392 . S
C1141 H1153 0.929 . S
C1142 C1138 1.531 . S
C1142 H1154 0.960 . S
C1142 H1155 0.962 . S
C1142 H1156 0.960 . S
C1143 C1140 1.511 1_655 S
C1143 H1157 0.961 . S
C1143 H1158 0.961 . S
C1143 H1159 0.961 . S
C1144 C1145 1.370 . S
C1144 C1146 1.363 . S
C1144 H1160 0.931 . S
C1145 C1144 1.370 . S
C1145 C1149 1.408 . S
C1146 C1144 1.363 . S
C1146 C1147 1.370 . S
C1146 C1150 1.524 . S
C1147 C1139 1.503 . S
C1147 C1146 1.370 . S
C1147 C1148 1.403 . S
C1148 C1147 1.403 . S
C1148 C1149 1.404 . S
C1148 C1151 1.539 . S
C1149 C1145 1.408 . S
C1149 C1148 1.404 . S
C1149 H1161 0.930 . S
C1150 C1146 1.524 . S
C1150 H1162 0.956 . S
C1150 H1163 0.961 . S
C1150 H1164 0.961 . S
C1151 C1148 1.539 . S
C1151 H1165 0.958 . S
C1151 H1166 0.986 . S
C1151 H1167 0.960 . S
H1152 C1136 0.931 . S
H1153 C1141 0.929 . S
H1154 C1142 0.960 . S
H1155 C1142 0.962 . S
H1156 C1142 0.960 . S
H1157 C1143 0.961 . S
H1158 C1143 0.961 . S
H1159 C1143 0.961 . S
H1160 C1144 0.931 . S
H1161 C1149 0.930 . S
H1162 C1150 0.956 . S
H1163 C1150 0.961 . S
H1164 C1150 0.961 . S
H1165 C1151 0.958 . S
H1166 C1151 0.986 . S
H1167 C1151 0.960 . S
C1168 C1169 1.391 . S
C1168 C1170 1.394 . S
C1168 H1184 0.931 . S
C1169 C1168 1.391 . S
C1169 C1173 1.376 . S
C1170 C1168 1.394 . S
C1170 C1171 1.369 . S
C1170 C1174 1.531 . S
C1171 C1170 1.369 . S
C1171 C1172 1.410 . S
C1171 C1179 1.503 . S
C1172 C1171 1.410 . S
C1172 C1173 1.392 . S
C1172 C1175 1.511 . S
C1173 C1169 1.376 . S
C1173 C1172 1.392 . S
C1173 H1185 0.929 . S
C1174 C1170 1.531 . S
C1174 H1186 0.960 . S
C1174 H1187 0.962 . S
C1174 H1188 0.960 . S
C1175 C1172 1.511 . S
C1175 H1189 0.961 . S
C1175 H1190 0.961 . S
C1175 H1191 0.961 . S
C1176 C1177 1.370 . S
C1176 C1178 1.363 . S
C1176 H1192 0.931 1_545 S
C1177 C1176 1.370 . S
C1177 C1181 1.408 . S
C1178 C1176 1.363 . S
C1178 C1179 1.370 . S
C1178 C1182 1.524 1_545 S
C1179 C1171 1.503 . S
C1179 C1178 1.370 . S
C1179 C1180 1.403 . S
C1180 C1179 1.403 . S
C1180 C1181 1.404 . S
C1180 C1183 1.539 . S
C1181 C1177 1.408 . S
C1181 C1180 1.404 . S
C1181 H1193 0.930 . S
C1182 C1178 1.524 1_565 S
C1182 H1194 0.956 . S
C1182 H1195 0.961 1_565 S
C1182 H1196 0.961 . S
C1183 C1180 1.539 . S
C1183 H1197 0.958 . S
C1183 H1198 0.961 . S
C1183 H1199 0.960 . S
H1184 C1168 0.931 . S
H1185 C1173 0.929 . S
H1186 C1174 0.960 . S
H1187 C1174 0.962 . S
H1188 C1174 0.960 . S
H1189 C1175 0.961 . S
H1190 C1175 0.961 . S
H1191 C1175 0.961 . S
H1192 C1176 0.931 1_565 S
H1193 C1181 0.930 . S
H1194 C1182 0.956 . S
H1195 C1182 0.961 1_545 S
H1196 C1182 0.961 . S
H1197 C1183 0.958 . S
H1198 C1183 0.961 . S
H1199 C1183 0.960 . S
C1200 C1201 1.391 . S
C1200 C1202 1.394 . S
C1200 H1216 0.931 . S
C1201 C1200 1.391 . S
C1201 C1205 1.376 . S
C1202 C1200 1.394 . S
C1202 C1203 1.369 . S
C1202 C1206 1.531 . S
C1203 C1202 1.369 . S
C1203 C1204 1.410 . S
C1203 C1211 1.503 . S
C1204 C1203 1.410 . S
C1204 C1205 1.392 . S
C1204 C1207 1.511 . S
C1205 C1201 1.376 . S
C1205 C1204 1.392 . S
C1205 H1217 0.929 . S
C1206 C1202 1.531 . S
C1206 H1218 0.960 . S
C1206 H1219 0.962 . S
C1206 H1220 0.960 . S
C1207 C1204 1.511 . S
C1207 H1221 0.961 . S
C1207 H1222 0.961 . S
C1207 H1223 0.961 . S
C1208 C1209 1.370 . S
C1208 C1210 1.363 . S
C1208 H1224 0.931 . S
C1209 C1208 1.370 . S
C1209 C1213 1.408 . S
C1210 C1208 1.363 . S
C1210 C1211 1.370 . S
C1210 C1214 1.524 . S
C1211 C1203 1.503 . S
C1211 C1210 1.370 . S
C1211 C1212 1.403 . S
C1212 C1211 1.403 . S
C1212 C1213 1.404 . S
C1212 C1215 1.539 . S
C1213 C1209 1.408 . S
C1213 C1212 1.404 . S
C1213 H1225 0.930 . S
C1214 C1210 1.524 . S
C1214 H1226 0.956 . S
C1214 H1227 0.961 . S
C1214 H1228 0.961 . S
C1215 C1212 1.539 . S
C1215 H1229 0.958 . S
C1215 H1230 0.961 . S
C1215 H1231 0.960 . S
H1216 C1200 0.931 . S
H1217 C1205 0.929 . S
H1218 C1206 0.960 . S
H1219 C1206 0.962 . S
H1220 C1206 0.960 . S
H1221 C1207 0.961 . S
H1222 C1207 0.961 . S
H1223 C1207 0.961 . S
H1224 C1208 0.931 . S
H1225 C1213 0.930 . S
H1226 C1214 0.956 . S
H1227 C1214 0.961 . S
H1228 C1214 0.961 . S
H1229 C1215 0.958 . S
H1230 C1215 0.961 . S
H1231 C1215 0.960 . S
C1232 C1233 1.391 . S
C1232 C1234 1.394 . S
C1232 H1248 0.931 . S
C1233 C1232 1.391 . S
C1233 C1237 1.376 . S
C1234 C1232 1.394 . S
C1234 C1235 1.369 . S
C1234 C1238 1.531 . S
C1235 C1234 1.369 . S
C1235 C1236 1.410 . S
C1235 C1243 1.503 . S
C1236 C1235 1.410 . S
C1236 C1237 1.392 . S
C1236 C1239 1.511 . S
C1237 C1233 1.376 . S
C1237 C1236 1.392 . S
C1237 H1249 0.929 . S
C1238 C1234 1.531 . S
C1238 H1250 0.960 . S
C1238 H1251 0.962 . S
C1238 H1252 0.960 . S
C1239 C1236 1.511 . S
C1239 H1253 0.961 . S
C1239 H1254 0.961 . S
C1239 H1255 0.961 . S
C1240 C1241 1.370 . S
C1240 C1242 1.363 . S
C1240 H1256 0.931 . S
C1241 C1240 1.370 . S
C1241 C1245 1.408 . S
C1242 C1240 1.363 . S
C1242 C1243 1.370 . S
C1242 C1246 1.524 . S
C1243 C1235 1.503 . S
C1243 C1242 1.370 . S
C1243 C1244 1.403 . S
C1244 C1243 1.403 . S
C1244 C1245 1.404 . S
C1244 C1247 1.539 . S
C1245 C1241 1.408 . S
C1245 C1244 1.404 . S
C1245 H1257 0.930 . S
C1246 C1242 1.524 . S
C1246 H1258 0.956 . S
C1246 H1259 0.961 . S
C1246 H1260 0.961 . S
C1247 C1244 1.539 . S
C1247 H1261 0.958 . S
C1247 H1262 0.961 . S
C1247 H1263 0.960 . S
H1248 C1232 0.931 . S
H1249 C1237 0.929 . S
H1250 C1238 0.960 . S
H1251 C1238 0.962 . S
H1252 C1238 0.960 . S
H1253 C1239 0.961 . S
H1254 C1239 0.961 . S
H1255 C1239 0.961 . S
H1256 C1240 0.931 . S
H1257 C1245 0.930 . S
H1258 C1246 0.956 . S
H1259 C1246 0.961 . S
H1260 C1246 0.961 . S
H1261 C1247 0.958 . S
H1262 C1247 0.961 . S
H1263 C1247 0.960 . S
C1264 C1265 1.391 . S
C1264 C1266 1.394 . S
C1264 H1280 0.931 . S
C1265 C1264 1.391 . S
C1265 C1269 1.376 . S
C1266 C1264 1.394 . S
C1266 C1267 1.369 . S
C1266 C1270 1.548 . S
C1267 C1266 1.369 . S
C1267 C1268 1.410 . S
C1267 C1275 1.503 . S
C1268 C1267 1.410 . S
C1268 C1269 1.392 . S
C1268 C1271 1.511 . S
C1269 C1265 1.376 . S
C1269 C1268 1.392 . S
C1269 H1281 0.929 . S
C1270 C1266 1.548 . S
C1270 H1282 0.973 . S
C1270 H1283 0.932 1_655 S
C1270 H1284 0.960 . S
C1271 C1268 1.511 . S
C1271 H1285 0.961 . S
C1271 H1286 0.961 . S
C1271 H1287 0.961 . S
C1272 C1273 1.362 1_455 S
C1272 C1274 1.361 1_455 S
C1272 H1288 0.941 . S
C1273 C1272 1.362 1_655 S
C1273 C1277 1.408 . S
C1274 C1272 1.361 1_655 S
C1274 C1275 1.370 . S
C1274 C1278 1.524 1_655 S
C1275 C1267 1.503 . S
C1275 C1274 1.370 . S
C1275 C1276 1.403 . S
C1276 C1275 1.403 . S
C1276 C1277 1.404 . S
C1276 C1279 1.539 . S
C1277 C1273 1.408 . S
C1277 C1276 1.404 . S
C1277 H1289 0.930 . S
C1278 C1274 1.524 1_455 S
C1278 H1290 0.956 . S
C1278 H1291 0.961 . S
C1278 H1292 0.961 . S
C1279 C1276 1.539 . S
C1279 H1293 0.958 . S
C1279 H1294 0.961 . S
C1279 H1295 0.960 . S
H1280 C1264 0.931 . S
H1281 C1269 0.929 . S
H1282 C1270 0.973 . S
H1283 C1270 0.932 1_455 S
H1284 C1270 0.960 . S
H1285 C1271 0.961 . S
H1286 C1271 0.961 . S
H1287 C1271 0.961 . S
H1288 C1272 0.941 . S
H1289 C1277 0.930 . S
H1290 C1278 0.956 . S
H1291 C1278 0.961 . S
H1292 C1278 0.961 . S
H1293 C1279 0.958 . S
H1294 C1279 0.961 . S
H1295 C1279 0.960 . S
C1296 C1297 1.391 . S
C1296 C1298 1.394 . S
C1296 H1312 0.931 . S
C1297 C1296 1.391 . S
C1297 C1301 1.376 . S
C1298 C1296 1.394 . S
C1298 C1299 1.369 . S
C1298 C1302 1.531 1_565 S
C1299 C1298 1.369 . S
C1299 C1300 1.410 . S
C1299 C1307 1.503 . S
C1300 C1299 1.410 . S
C1300 C1301 1.392 . S
C1300 C1303 1.511 . S
C1301 C1297 1.376 . S
C1301 C1300 1.392 . S
C1301 H1313 0.929 . S
C1302 C1298 1.531 1_545 S
C1302 H1314 0.960 . S
C1302 H1315 0.962 1_545 S
C1302 H1316 0.960 . S
C1303 C1300 1.511 . S
C1303 H1317 0.961 . S
C1303 H1318 0.961 . S
C1303 H1319 0.961 . S
C1304 C1305 1.370 . S
C1304 C1306 1.363 . S
C1304 H1320 0.931 . S
C1305 C1304 1.370 . S
C1305 C1309 1.408 1_565 S
C1306 C1304 1.363 . S
C1306 C1307 1.370 . S
C1306 C1310 1.524 . S
C1307 C1299 1.503 . S
C1307 C1306 1.370 . S
C1307 C1308 1.403 1_565 S
C1308 C1307 1.403 1_545 S
C1308 C1309 1.404 . S
C1308 C1311 1.539 . S
C1309 C1305 1.408 1_545 S
C1309 C1308 1.404 . S
C1309 H1321 0.930 . S
C1310 C1306 1.524 . S
C1310 H1322 0.956 . S
C1310 H1323 0.961 . S
C1310 H1324 0.961 . S
C1311 C1308 1.539 . S
C1311 H1325 0.958 . S
C1311 H1326 0.961 . S
C1311 H1327 0.960 . S
H1312 C1296 0.931 . S
H1313 C1301 0.929 . S
H1314 C1302 0.960 . S
H1315 C1302 0.962 1_565 S
H1316 C1302 0.960 . S
H1317 C1303 0.961 . S
H1318 C1303 0.961 . S
H1319 C1303 0.961 . S
H1320 C1304 0.931 . S
H1321 C1309 0.930 . S
H1322 C1310 0.956 . S
H1323 C1310 0.961 . S
H1324 C1310 0.961 . S
H1325 C1311 0.958 . S
H1326 C1311 0.961 . S
H1327 C1311 0.960 . S
C1328 C1329 1.391 . S
C1328 C1330 1.394 . S
C1328 H1344 0.931 . S
C1329 C1328 1.391 . S
C1329 C1333 1.376 . S
C1330 C1328 1.394 . S
C1330 C1331 1.369 . S
C1330 C1334 1.531 . S
C1331 C1330 1.369 . S
C1331 C1332 1.410 . S
C1331 C1339 1.503 . S
C1332 C1331 1.410 . S
C1332 C1333 1.392 . S
C1332 C1335 1.511 . S
C1333 C1329 1.376 . S
C1333 C1332 1.392 . S
C1333 H1345 0.929 . S
C1334 C1330 1.531 . S
C1334 H1346 0.960 . S
C1334 H1347 0.962 . S
C1334 H1348 0.960 . S
C1335 C1332 1.511 . S
C1335 H1349 0.961 . S
C1335 H1350 0.961 . S
C1335 H1351 0.961 . S
C1336 C1337 1.370 . S
C1336 C1338 1.363 . S
C1336 H1352 0.931 . S
C1337 C1336 1.370 . S
C1337 C1341 1.408 . S
C1338 C1336 1.363 . S
C1338 C1339 1.370 . S
C1338 C1342 1.524 . S
C1339 C1331 1.503 . S
C1339 C1338 1.370 . S
C1339 C1340 1.403 . S
C1340 C1339 1.403 . S
C1340 C1341 1.404 . S
C1340 C1343 1.539 . S
C1341 C1337 1.408 . S
C1341 C1340 1.404 . S
C1341 H1353 0.930 . S
C1342 C1338 1.524 . S
C1342 H1354 0.956 . S
C1342 H1355 0.961 . S
C1342 H1356 0.961 . S
C1343 C1340 1.539 . S
C1343 H1357 0.958 . S
C1343 H1358 0.961 . S
C1343 H1359 0.960 . S
H1344 C1328 0.931 . S
H1345 C1333 0.929 . S
H1346 C1334 0.960 . S
H1347 C1334 0.962 . S
H1348 C1334 0.960 . S
H1349 C1335 0.961 . S
H1350 C1335 0.961 . S
H1351 C1335 0.961 . S
H1352 C1336 0.931 . S
H1353 C1341 0.930 . S
H1354 C1342 0.956 . S
H1355 C1342 0.961 . S
H1356 C1342 0.961 . S
H1357 C1343 0.958 . S
H1358 C1343 0.961 . S
H1359 C1343 0.960 . S
C1360 C1361 1.391 . S
C1360 C1362 1.394 . S
C1360 H1376 0.931 . S
C1361 C1360 1.391 . S
C1361 C1365 1.376 . S
C1362 C1360 1.394 . S
C1362 C1363 1.369 . S
C1362 C1366 1.531 . S
C1363 C1362 1.369 . S
C1363 C1364 1.410 . S
C1363 C1371 1.503 . S
C1364 C1363 1.410 . S
C1364 C1365 1.392 . S
C1364 C1367 1.511 . S
C1365 C1361 1.376 . S
C1365 C1364 1.392 . S
C1365 H1377 0.929 . S
C1366 C1362 1.531 . S
C1366 H1378 0.960 . S
C1366 H1379 0.962 . S
C1366 H1380 0.960 . S
C1367 C1364 1.511 . S
C1367 H1381 0.961 . S
C1367 H1382 0.961 . S
C1367 H1383 0.961 . S
C1368 C1369 1.370 . S
C1368 C1370 1.363 . S
C1368 H1384 0.931 . S
C1369 C1368 1.370 . S
C1369 C1373 1.408 . S
C1370 C1368 1.363 . S
C1370 C1371 1.370 . S
C1370 C1374 1.524 . S
C1371 C1363 1.503 . S
C1371 C1370 1.370 . S
C1371 C1372 1.403 . S
C1372 C1371 1.403 . S
C1372 C1373 1.404 . S
C1372 C1375 1.539 . S
C1373 C1369 1.408 . S
C1373 C1372 1.404 . S
C1373 H1385 0.930 . S
C1374 C1370 1.524 . S
C1374 H1386 0.956 . S
C1374 H1387 0.961 . S
C1374 H1388 0.961 . S
C1375 C1372 1.539 . S
C1375 H1389 0.958 . S
C1375 H1390 0.961 . S
C1375 H1391 0.960 . S
H1376 C1360 0.931 . S
H1377 C1365 0.929 . S
H1378 C1366 0.960 . S
H1379 C1366 0.962 . S
H1380 C1366 0.960 . S
H1381 C1367 0.961 . S
H1382 C1367 0.961 . S
H1383 C1367 0.961 . S
H1384 C1368 0.931 . S
H1385 C1373 0.930 . S
H1386 C1374 0.956 . S
H1387 C1374 0.961 . S
H1388 C1374 0.961 . S
H1389 C1375 0.958 . S
H1390 C1375 0.961 . S
H1391 C1375 0.960 . S
C625 C241 2.212 . S
C633 C351 2.424 . S
C665 C428 2.447 . S
C657 C277 2.250 . S
C697 C519 2.416 . S
C689 C169 2.245 . S
C729 C603 2.402 . S
C721 C205 2.252 . S
C761 C362 2.424 1_565 S
C753 C97 2.164 . S
C785 C133 2.310 . S
C793 C439 2.443 . S
C817 C25 2.185 . S
C825 C530 2.424 . S
C849 C61 2.219 . S
C857 C614 2.409 1_655 S
C889 C346 0.474 . S
C881 C211 0.523 . S
C921 C441 0.492 . S
C913 C247 0.403 . S
C953 C514 0.504 . S
C945 C253 0.451 . S
C977 C175 0.384 . S
C985 C598 0.479 . S
C1009 C67 0.495 . S
C1017 C357 0.457 . S
C1049 C430 0.554 . S
C1041 C103 0.603 . S
C1081 C525 0.453 . S
C1073 C109 0.424 . S
C1105 C31 0.414 . S
C1113 C609 0.451 . S
C1137 C181 2.599 . S
C1145 C355 2.899 . S
C1169 C217 2.631 . S
C1177 C446 2.935 . S
C1209 C523 2.910 . S
C1201 C283 2.585 . S
C1241 C607 2.905 . S
C1233 C145 2.649 . S
C1265 C37 2.597 . S
C1273 C344 2.896 . S
C1305 C435 2.936 . S
C1297 C73 2.583 . S
C1337 C512 2.917 . S
C1329 C139 2.554 . S
C1361 C1 2.626 . S
C1369 C596 2.907 . S
