# Generated by pormake.
# Topology nom, (4,4)-cn, num edge types: 1
# Building blocks:
#     Node 0, Type 0, BuildingBlock: NAWXER_clean_linker_0, # of connection points: 4
#     Node 1, Type 0, BuildingBlock: NAWXER_clean_linker_0, # of connection points: 4
#     Node 2, Type 0, BuildingBlock: NAWXER_clean_linker_0, # of connection points: 4
#     Node 3, Type 0, BuildingBlock: NAWXER_clean_linker_0, # of connection points: 4
#     Node 4, Type 0, BuildingBlock: NAWXER_clean_linker_0, # of connection points: 4
#     Node 5, Type 0, BuildingBlock: NAWXER_clean_linker_0, # of connection points: 4
#     Node 6, Type 1, BuildingBlock: NAHDIM_clean_sbu_0, # of connection points: 4
#     Node 7, Type 1, BuildingBlock: NAHDIM_clean_sbu_0, # of connection points: 4
#     Node 8, Type 1, BuildingBlock: NAHDIM_clean_sbu_0, # of connection points: 4
#     Node 9, Type 1, BuildingBlock: NAHDIM_clean_sbu_0, # of connection points: 4
#     Node 10, Type 1, BuildingBlock: NAHDIM_clean_sbu_0, # of connection points: 4
#     Node 11, Type 1, BuildingBlock: NAHDIM_clean_sbu_0, # of connection points: 4
#     Edge 12, Type (0, 1), BuildingBlock: KIFKEQ_clean_linker_1, # of connection points: 2
#     Edge 13, Type (0, 1), BuildingBlock: KIFKEQ_clean_linker_1, # of connection points: 2
#     Edge 14, Type (0, 1), BuildingBlock: KIFKEQ_clean_linker_1, # of connection points: 2
#     Edge 15, Type (0, 1), BuildingBlock: KIFKEQ_clean_linker_1, # of connection points: 2
#     Edge 16, Type (0, 1), BuildingBlock: KIFKEQ_clean_linker_1, # of connection points: 2
#     Edge 17, Type (0, 1), BuildingBlock: KIFKEQ_clean_linker_1, # of connection points: 2
#     Edge 18, Type (0, 1), BuildingBlock: KIFKEQ_clean_linker_1, # of connection points: 2
#     Edge 19, Type (0, 1), BuildingBlock: KIFKEQ_clean_linker_1, # of connection points: 2
#     Edge 20, Type (0, 1), BuildingBlock: KIFKEQ_clean_linker_1, # of connection points: 2
#     Edge 21, Type (0, 1), BuildingBlock: KIFKEQ_clean_linker_1, # of connection points: 2
#     Edge 22, Type (0, 1), BuildingBlock: KIFKEQ_clean_linker_1, # of connection points: 2
#     Edge 23, Type (0, 1), BuildingBlock: KIFKEQ_clean_linker_1, # of connection points: 2
#     Edge 24, Type (0, 1), BuildingBlock: KIFKEQ_clean_linker_1, # of connection points: 2
#     Edge 25, Type (0, 1), BuildingBlock: KIFKEQ_clean_linker_1, # of connection points: 2
#     Edge 26, Type (0, 1), BuildingBlock: KIFKEQ_clean_linker_1, # of connection points: 2
#     Edge 27, Type (0, 1), BuildingBlock: KIFKEQ_clean_linker_1, # of connection points: 2
#     Edge 28, Type (0, 1), BuildingBlock: KIFKEQ_clean_linker_1, # of connection points: 2
#     Edge 29, Type (0, 1), BuildingBlock: KIFKEQ_clean_linker_1, # of connection points: 2
#     Edge 30, Type (0, 1), BuildingBlock: KIFKEQ_clean_linker_1, # of connection points: 2
#     Edge 31, Type (0, 1), BuildingBlock: KIFKEQ_clean_linker_1, # of connection points: 2
#     Edge 32, Type (0, 1), BuildingBlock: KIFKEQ_clean_linker_1, # of connection points: 2
#     Edge 33, Type (0, 1), BuildingBlock: KIFKEQ_clean_linker_1, # of connection points: 2
#     Edge 34, Type (0, 1), BuildingBlock: KIFKEQ_clean_linker_1, # of connection points: 2
#     Edge 35, Type (0, 1), BuildingBlock: KIFKEQ_clean_linker_1, # of connection points: 2
# Relax obj value: 0.024
# Max RMSD: 0.118
# Mean RMSD: 0.110
data_MOF--net-nom--node1-NAHDIM_clean_sbu_0--node2-NAWXER_clean_linker_0--edge1-KIFKEQ_clean_linker_1
_symmetry_space_group_name_H-M    P1
_symmetry_Int_Tables_number       1
_symmetry_cell_setting            triclinic
loop_
_symmetry_equiv_pos_as_xyz
'x, y, z'
_cell_length_a     52.532478
_cell_length_b     54.118949
_cell_length_c     58.533637
_cell_angle_alpha  89.922547
_cell_angle_beta   90.632993
_cell_angle_gamma 121.00788
loop_
_atom_site_label
_atom_site_type_symbol
_atom_site_fract_x
_atom_site_fract_y
_atom_site_fract_z
_atom_type_partial_charge
C0 C 0.89542 0.48967 0.33133 0.0
C1 C 0.88169 0.46697 0.34705 0.0
C2 C 0.92416 0.49933 0.32395 0.0
C3 C 0.93982 0.4864 0.33199 0.0
C4 C 0.89747 0.45412 0.35521 0.0
C5 C 0.92638 0.46392 0.34785 0.0
C6 C 0.971 0.49812 0.32525 0.0
C7 C 0.91783 0.45726 0.26121 0.0
C8 C 0.92307 0.47636 0.2431 0.0
C9 C 0.93608 0.46658 0.2807 0.0
C10 C 0.95973 0.49525 0.28256 0.0
C11 C 0.94667 0.50507 0.24509 0.0
C12 C 0.96489 0.51436 0.26455 0.0
C13 C 0.98041 0.50503 0.30243 0.0
C14 C 0.114 0.5631 0.3078 0.0
C15 C 0.12079 0.58707 0.29408 0.0
C16 C 0.08482 0.54434 0.31487 0.0
C17 C 0.06214 0.54958 0.30859 0.0
C18 C 0.09793 0.59201 0.28776 0.0
C19 C 0.06894 0.57342 0.29486 0.0
C20 C 0.03092 0.53012 0.31519 0.0
C21 C 0.08282 0.56559 0.38119 0.0
C22 C 0.07928 0.54422 0.39677 0.0
C23 C 0.06425 0.55836 0.36196 0.0
C24 C 0.04218 0.52954 0.35765 0.0
C25 C 0.05685 0.51545 0.39253 0.0
C26 C 0.03847 0.50824 0.37322 0.0
C27 C 0.02157 0.52144 0.33788 0.0
H28 H 0.88426 0.50056 0.32515 0.0
H29 H 0.93444 0.51745 0.31237 0.0
H30 H 0.88746 0.43646 0.36721 0.0
H31 H 0.93824 0.45392 0.35449 0.0
H32 H 0.90014 0.4349 0.26005 0.0
H33 H 0.93213 0.45116 0.29405 0.0
H34 H 0.95105 0.52044 0.2316 0.0
H35 H 0.98305 0.53655 0.26555 0.0
H36 H 0.13114 0.55859 0.31272 0.0
H37 H 0.07995 0.52568 0.325 0.0
H38 H 0.10249 0.61051 0.27751 0.0
H39 H 0.05178 0.57783 0.28976 0.0
H40 H 0.09995 0.58793 0.38382 0.0
H41 H 0.06697 0.57537 0.35063 0.0
H42 H 0.05304 0.49852 0.40437 0.0
H43 H 0.02124 0.48593 0.37046 0.0
N44 N 0.99191 0.50598 0.34203 0.0
N45 N 0.00995 0.52124 0.29839 0.0
C46 C 0.41966 0.9071 0.50514 0.0
C47 C 0.43023 0.89722 0.52297 0.0
C48 C 0.43759 0.93459 0.4961 0.0
C49 C 0.46662 0.95268 0.50452 0.0
C50 C 0.45943 0.91516 0.53116 0.0
C51 C 0.47738 0.94273 0.52212 0.0
C52 C 0.48436 0.98297 0.49691 0.0
C53 C 0.47638 0.93065 0.43485 0.0
C54 C 0.46053 0.93323 0.41641 0.0
C55 C 0.48466 0.94921 0.45367 0.0
C56 C 0.47712 0.97062 0.45446 0.0
C57 C 0.45315 0.95477 0.41722 0.0
C58 C 0.46152 0.97337 0.43599 0.0
C59 C 0.48683 0.99128 0.47379 0.0
C60 C 0.5596 0.12168 0.47845 0.0
C61 C 0.54231 0.1276 0.46343 0.0
C62 C 0.54959 0.09342 0.48545 0.0
C63 C 0.52189 0.07067 0.47784 0.0
C64 C 0.51509 0.10458 0.45527 0.0
C65 C 0.50505 0.07646 0.46238 0.0
C66 C 0.51019 0.04063 0.4853 0.0
C67 C 0.52018 0.09126 0.54977 0.0
C68 C 0.53778 0.08889 0.56694 0.0
C69 C 0.51095 0.07319 0.53058 0.0
C70 C 0.51971 0.05283 0.5279 0.0
C71 C 0.54615 0.0682 0.56428 0.0
C72 C 0.53718 0.05039 0.545 0.0
C73 C 0.50903 0.0324 0.50839 0.0
H74 H 0.39734 0.89368 0.49834 0.0
H75 H 0.42836 0.94203 0.48305 0.0
H76 H 0.46808 0.90827 0.54506 0.0
H77 H 0.49953 0.95649 0.52913 0.0
H78 H 0.48231 0.91422 0.43475 0.0
H79 H 0.49735 0.9471 0.46744 0.0
H80 H 0.44137 0.95761 0.40313 0.0
H81 H 0.45575 0.98992 0.43609 0.0
H82 H 0.58065 0.13891 0.4851 0.0
H83 H 0.56339 0.0894 0.49689 0.0
H84 H 0.50154 0.10825 0.44328 0.0
H85 H 0.48381 0.0592 0.45601 0.0
H86 H 0.51343 0.10702 0.55116 0.0
H87 H 0.49664 0.07488 0.51802 0.0
H88 H 0.55907 0.06524 0.57735 0.0
H89 H 0.54374 0.03448 0.54353 0.0
N90 N 0.49603 0.00388 0.51324 0.0
N91 N 0.49921 0.01972 0.46895 0.0
C92 C 0.56583 0.4884 0.59214 0.0
C93 C 0.54783 0.47538 0.5727 0.0
C94 C 0.55514 0.49659 0.61064 0.0
C95 C 0.52609 0.49158 0.61019 0.0
C96 C 0.51887 0.47064 0.57224 0.0
C97 C 0.50818 0.47872 0.59074 0.0
C98 C 0.51474 0.50116 0.62921 0.0
C99 C 0.52568 0.43171 0.66019 0.0
C100 C 0.54677 0.44036 0.678 0.0
C101 C 0.51737 0.4506 0.6516 0.0
C102 C 0.53022 0.47872 0.66041 0.0
C103 C 0.55969 0.46853 0.68681 0.0
C104 C 0.55127 0.48746 0.67821 0.0
C105 C 0.51953 0.49782 0.65252 0.0
C106 C 0.44475 0.53235 0.70328 0.0
C107 C 0.46536 0.55255 0.71904 0.0
C108 C 0.45434 0.52282 0.68496 0.0
C109 C 0.48474 0.53347 0.68197 0.0
C110 C 0.49576 0.563 0.71606 0.0
C111 C 0.50532 0.55336 0.69778 0.0
C112 C 0.49518 0.52302 0.66307 0.0
C113 C 0.45351 0.57044 0.632 0.0
C114 C 0.42993 0.55313 0.61684 0.0
C115 C 0.47303 0.56162 0.63938 0.0
C116 C 0.46904 0.53517 0.63193 0.0
C117 C 0.42674 0.5272 0.60885 0.0
C118 C 0.44608 0.51837 0.61628 0.0
C119 C 0.48848 0.52448 0.63984 0.0
H120 H 0.58819 0.49224 0.59311 0.0
H121 H 0.56978 0.50723 0.62513 0.0
H122 H 0.5046 0.46117 0.55737 0.0
H123 H 0.48582 0.47493 0.58984 0.0
H124 H 0.51552 0.41025 0.65291 0.0
H125 H 0.50037 0.44297 0.63837 0.0
H126 H 0.57576 0.4757 0.7007 0.0
H127 H 0.56108 0.50888 0.68553 0.0
H128 H 0.42119 0.52401 0.70506 0.0
H129 H 0.43803 0.50699 0.6732 0.0
H130 H 0.51212 0.57824 0.7281 0.0
H131 H 0.52885 0.56153 0.69592 0.0
H132 H 0.45658 0.59055 0.63849 0.0
H133 H 0.4911 0.57538 0.65094 0.0
H134 H 0.40928 0.51369 0.59675 0.0
H135 H 0.44277 0.49806 0.61005 0.0
N136 N 0.49889 0.51383 0.62385 0.0
N137 N 0.51021 0.50951 0.66853 0.0
C138 C 0.89256 0.40157 0.80604 0.0
C139 C 0.87684 0.4113 0.79291 0.0
C140 C 0.92153 0.42074 0.81348 0.0
C141 C 0.93564 0.44999 0.80772 0.0
C142 C 0.89115 0.44077 0.78722 0.0
C143 C 0.92045 0.45986 0.79432 0.0
C144 C 0.96674 0.46966 0.81486 0.0
C145 C 0.91333 0.45873 0.87744 0.0
C146 C 0.9182 0.44492 0.89588 0.0
C147 C 0.9316 0.46712 0.85833 0.0
C148 C 0.95499 0.4617 0.85719 0.0
C149 C 0.94144 0.43923 0.89456 0.0
C150 C 0.95974 0.44771 0.87547 0.0
C151 C 0.97597 0.47257 0.83791 0.0
C152 C 0.1092 0.55175 0.83392 0.0
C153 C 0.11725 0.5366 0.84902 0.0
C154 C 0.07973 0.53964 0.82648 0.0
C155 C 0.05796 0.51198 0.83372 0.0
C156 C 0.09529 0.50915 0.85649 0.0
C157 C 0.06596 0.49703 0.84897 0.0
C158 C 0.02654 0.49853 0.82638 0.0
C159 C 0.07825 0.51022 0.76227 0.0
C160 C 0.07711 0.52954 0.7468 0.0
C161 C 0.0589 0.4996 0.78074 0.0
C162 C 0.03819 0.50823 0.78413 0.0
C163 C 0.05614 0.53791 0.75014 0.0
C164 C 0.03669 0.52715 0.76854 0.0
C165 C 0.01728 0.4968 0.80336 0.0
H166 H 0.88277 0.37901 0.81026 0.0
H167 H 0.93318 0.4126 0.82339 0.0
H168 H 0.87972 0.44921 0.77745 0.0
H169 H 0.93113 0.48238 0.78962 0.0
H170 H 0.89599 0.4639 0.87807 0.0
H171 H 0.92801 0.47868 0.84479 0.0
H172 H 0.94555 0.42828 0.90831 0.0
H173 H 0.97772 0.44341 0.87503 0.0
H174 H 0.1256 0.57313 0.82815 0.0
H175 H 0.07395 0.55199 0.81527 0.0
H176 H 0.10085 0.49682 0.8679 0.0
H177 H 0.04952 0.47573 0.85488 0.0
H178 H 0.09426 0.50348 0.7602 0.0
H179 H 0.06002 0.48453 0.7923 0.0
H180 H 0.05446 0.55244 0.73831 0.0
H181 H 0.0206 0.53377 0.77072 0.0
N182 N 0.98768 0.48224 0.79845 0.0
N183 N 0.00549 0.48653 0.84274 0.0
C184 C 0.47489 0.90427 0.97581 0.0
C185 C 0.45339 0.89264 0.95822 0.0
C186 C 0.48255 0.93054 0.98599 0.0
C187 C 0.46856 0.94556 0.97906 0.0
C188 C 0.43906 0.90745 0.95152 0.0
C189 C 0.44673 0.93377 0.96176 0.0
C190 C 0.47933 0.97506 0.98768 0.0
C191 C 0.44224 0.91997 0.0508 0.0
C192 C 0.46313 0.9262 0.06845 0.0
C193 C 0.44985 0.93787 0.03166 0.0
C194 C 0.47855 0.96217 0.02978 0.0
C195 C 0.49197 0.95019 0.06622 0.0
C196 C 0.49952 0.96804 0.04719 0.0
C197 C 0.48641 0.98301 0.01088 0.0
C198 C 0.53889 0.11223 0.01138 0.0
C199 C 0.56404 0.11958 0.02506 0.0
C200 C 0.52054 0.0839 0.00353 0.0
C201 C 0.52744 0.06269 0.00891 0.0
C202 C 0.57036 0.09809 0.03082 0.0
C203 C 0.55221 0.06998 0.02289 0.0
C204 C 0.50912 0.03263 0.00071 0.0
C205 C 0.54483 0.08787 0.9377 0.0
C206 C 0.52322 0.08296 0.92107 0.0
C207 C 0.53775 0.06906 0.95613 0.0
C208 C 0.50862 0.04561 0.95872 0.0
C209 C 0.49431 0.0592 0.92336 0.0
C210 C 0.48707 0.04076 0.94205 0.0
C211 C 0.50078 0.02468 0.9776 0.0
H212 H 0.48614 0.89327 0.9815 0.0
H213 H 0.50022 0.93956 0.9987 0.0
H214 H 0.42266 0.89922 0.93783 0.0
H215 H 0.43602 0.94522 0.95584 0.0
H216 H 0.41974 0.90183 0.05212 0.0
H217 H 0.43304 0.93323 0.01873 0.0
H218 H 0.50877 0.9553 0.07928 0.0
H219 H 0.5218 0.98664 0.04614 0.0
H220 H 0.53331 0.12832 0.0069 0.0
H221 H 0.5011 0.0786 0.99324 0.0
H222 H 0.58977 0.10314 0.04106 0.0
H223 H 0.5579 0.05395 0.02735 0.0
H224 H 0.56744 0.10572 0.93602 0.0
H225 H 0.55521 0.0726 0.96807 0.0
H226 H 0.47733 0.05492 0.91068 0.0
H227 H 0.4646 0.02256 0.94343 0.0
N228 N 0.4863 0.99618 0.97205 0.0
N229 N 0.50136 0.01146 0.01635 0.0
C230 C 0.47457 0.5868 0.16109 0.0
C231 C 0.45435 0.57787 0.17916 0.0
C232 C 0.48219 0.56792 0.15151 0.0
C233 C 0.46941 0.53954 0.15956 0.0
C234 C 0.44124 0.54933 0.18698 0.0
C235 C 0.44884 0.53041 0.17734 0.0
C236 C 0.48016 0.52064 0.1515 0.0
C237 C 0.43762 0.53258 0.08824 0.0
C238 C 0.45693 0.54586 0.06982 0.0
C239 C 0.44707 0.52423 0.10765 0.0
C240 C 0.47609 0.52926 0.10906 0.0
C241 C 0.4861 0.55132 0.07151 0.0
C242 C 0.4955 0.54297 0.09085 0.0
C243 C 0.48572 0.51813 0.12834 0.0
C244 C 0.53683 0.44033 0.12982 0.0
C245 C 0.56032 0.45638 0.11469 0.0
C246 C 0.51981 0.45155 0.13789 0.0
C247 C 0.52654 0.47925 0.13134 0.0
C248 C 0.56651 0.48378 0.10785 0.0
C249 C 0.54978 0.49505 0.11606 0.0
C250 C 0.50919 0.49202 0.1393 0.0
C251 C 0.54821 0.47638 0.20311 0.0
C252 C 0.52748 0.46107 0.22027 0.0
C253 C 0.54024 0.48683 0.18418 0.0
C254 C 0.51109 0.48129 0.18169 0.0
C255 C 0.49852 0.45595 0.21798 0.0
C256 C 0.49041 0.46591 0.19886 0.0
C257 C 0.50234 0.49326 0.16242 0.0
H258 H 0.48486 0.60855 0.15454 0.0
H259 H 0.4989 0.57591 0.13837 0.0
H260 H 0.42588 0.54189 0.20107 0.0
H261 H 0.43907 0.50878 0.1841 0.0
H262 H 0.4149 0.52774 0.08735 0.0
H263 H 0.4314 0.51302 0.1212 0.0
H264 H 0.50169 0.56194 0.0578 0.0
H265 H 0.51797 0.54703 0.0915 0.0
H266 H 0.53142 0.41901 0.13515 0.0
H267 H 0.50143 0.4386 0.14914 0.0
H268 H 0.58469 0.49677 0.09643 0.0
H269 H 0.55528 0.51639 0.11065 0.0
H270 H 0.57084 0.48107 0.20474 0.0
H271 H 0.55704 0.49972 0.17177 0.0
H272 H 0.48217 0.44423 0.23102 0.0
H273 H 0.46793 0.46172 0.19753 0.0
N274 N 0.4882 0.50766 0.16754 0.0
N275 N 0.50036 0.50429 0.12327 0.0
C276 C 0.60852 0.33181 0.41787 0.0
O277 O 0.63058 0.35323 0.42918 0.0
O278 O 0.65513 0.39705 0.38875 0.0
Zn279 Zn 0.61194 0.37971 0.39628 0.0
O280 O 0.60536 0.39613 0.4251 0.0
C281 C 0.60325 0.41057 0.36063 0.0
O282 O 0.62802 0.43145 0.36971 0.0
O283 O 0.59567 0.33751 0.40197 0.0
C284 C 0.61667 0.42256 0.43039 0.0
O285 O 0.63516 0.44257 0.41635 0.0
C286 C 0.6773 0.4108 0.40216 0.0
O287 O 0.67311 0.41593 0.42329 0.0
O288 O 0.59137 0.38546 0.36917 0.0
C289 C 0.29472 0.69639 0.58184 0.0
O290 O 0.3046 0.68425 0.59598 0.0
O291 O 0.27848 0.62602 0.5782 0.0
Zn292 Zn 0.2479 0.6376 0.57396 0.0
O293 O 0.22457 0.62195 0.54463 0.0
C294 C 0.21722 0.60365 0.61323 0.0
O295 O 0.23228 0.59118 0.60818 0.0
O296 O 0.27017 0.68073 0.57137 0.0
C297 C 0.20215 0.59671 0.54207 0.0
O298 O 0.19351 0.57861 0.55925 0.0
C299 C 0.27916 0.60581 0.56778 0.0
O300 O 0.25849 0.59033 0.55249 0.0
O301 O 0.22022 0.62434 0.6009 0.0
C302 C 0.60095 0.29411 0.72592 0.0
O303 O 0.62243 0.29386 0.71484 0.0
O304 O 0.64663 0.27365 0.75034 0.0
Zn305 Zn 0.60234 0.2481 0.74592 0.0
O306 O 0.59246 0.22404 0.71711 0.0
C307 C 0.59749 0.21197 0.78377 0.0
O308 O 0.62296 0.21706 0.77572 0.0
O309 O 0.58724 0.27519 0.74119 0.0
C310 C 0.59175 0.20028 0.71543 0.0
O311 O 0.5978 0.18967 0.73346 0.0
C312 C 0.66641 0.26801 0.74477 0.0
O313 O 0.6586 0.24302 0.7354 0.0
O314 O 0.58413 0.22318 0.77396 0.0
C315 C 0.40293 0.70216 0.889 0.0
O316 O 0.38098 0.68896 0.87415 0.0
O317 O 0.34975 0.6301 0.88911 0.0
Zn318 Zn 0.39335 0.64519 0.89413 0.0
O319 O 0.40019 0.62875 0.92283 0.0
C320 C 0.39242 0.61514 0.85342 0.0
O321 O 0.3639 0.60067 0.85785 0.0
O322 O 0.41304 0.68798 0.89885 0.0
C323 C 0.39908 0.60475 0.92361 0.0
O324 O 0.39278 0.5892 0.90489 0.0
C325 C 0.32854 0.60808 0.89858 0.0
O326 O 0.33446 0.59318 0.91316 0.0
O327 O 0.40999 0.63565 0.8667 0.0
C328 C 0.70296 0.39715 0.06163 0.0
O329 O 0.69611 0.37871 0.04475 0.0
O330 O 0.71907 0.34295 0.06376 0.0
Zn331 Zn 0.74909 0.38478 0.06864 0.0
O332 O 0.77457 0.39144 0.09653 0.0
C333 C 0.79344 0.39196 0.03786 0.0
O334 O 0.79577 0.3756 0.05333 0.0
O335 O 0.72605 0.40438 0.07367 0.0
C336 C 0.79569 0.41715 0.10004 0.0
O337 O 0.79983 0.43719 0.08529 0.0
C338 C 0.7207 0.32171 0.07104 0.0
O339 O 0.74398 0.32637 0.08315 0.0
O340 O 0.77452 0.39961 0.0407 0.0
C341 C 0.40419 0.71769 0.2485 0.0
O342 O 0.38394 0.70921 0.2644 0.0
O343 O 0.34957 0.7347 0.2512 0.0
Zn344 Zn 0.39219 0.76352 0.24443 0.0
O345 O 0.39575 0.78652 0.21631 0.0
C346 C 0.40228 0.80837 0.27478 0.0
O347 O 0.38428 0.80986 0.25983 0.0
O348 O 0.41248 0.74135 0.23828 0.0
C349 C 0.42142 0.80743 0.21147 0.0
O350 O 0.44387 0.81318 0.2251 0.0
C351 C 0.32742 0.73656 0.24489 0.0
O352 O 0.33174 0.75879 0.23273 0.0
O353 O 0.40993 0.78984 0.27172 0.0
H354 H 0.13848 0.61028 0.25166 0.0
H355 H 0.17244 0.60925 0.31898 0.0
H356 H 0.18846 0.64579 0.23946 0.0
H357 H 0.22255 0.64488 0.30677 0.0
H358 H 0.31157 0.68819 0.26988 0.0
H359 H 0.26191 0.65096 0.28123 0.0
H360 H 0.22518 0.69656 0.24687 0.0
H361 H 0.27486 0.73365 0.23514 0.0
C362 C 0.15665 0.61772 0.26387 0.0
C363 C 0.15152 0.60713 0.28633 0.0
C364 C 0.18525 0.6381 0.25689 0.0
C365 C 0.20941 0.64832 0.2722 0.0
C366 C 0.20442 0.63722 0.29451 0.0
C367 C 0.17575 0.6168 0.3015 0.0
C368 C 0.29291 0.69029 0.26469 0.0
C369 C 0.29717 0.71391 0.25159 0.0
C370 C 0.26447 0.669 0.27132 0.0
C371 C 0.23963 0.67081 0.26498 0.0
C372 C 0.24385 0.69437 0.25179 0.0
C373 C 0.27233 0.7157 0.24517 0.0
H374 H 0.59866 0.17065 0.4526 0.0
H375 H 0.50866 0.15254 0.45828 0.0
H376 H 0.61484 0.21987 0.44093 0.0
H377 H 0.5248 0.20152 0.44627 0.0
H378 H 0.56028 0.28217 0.40138 0.0
H379 H 0.54461 0.23261 0.41179 0.0
H380 H 0.61958 0.26403 0.45819 0.0
H381 H 0.63537 0.31342 0.44774 0.0
C382 C 0.58237 0.17719 0.4515 0.0
C383 C 0.55235 0.15761 0.45634 0.0
C384 C 0.59162 0.20535 0.44475 0.0
C385 C 0.57105 0.21449 0.44261 0.0
C386 C 0.54107 0.19494 0.44741 0.0
C387 C 0.53184 0.16687 0.45427 0.0
C388 C 0.57344 0.27848 0.41375 0.0
C389 C 0.59902 0.30171 0.42376 0.0
C390 C 0.5644 0.25013 0.41979 0.0
C391 C 0.58088 0.24447 0.43581 0.0
C392 C 0.60661 0.2677 0.44562 0.0
C393 C 0.61553 0.29601 0.43972 0.0
H394 H 0.4413 0.60702 0.60519 0.0
H395 H 0.36978 0.51858 0.6119 0.0
H396 H 0.40567 0.6205 0.59239 0.0
H397 H 0.33439 0.532 0.59889 0.0
H398 H 0.28418 0.56072 0.55255 0.0
H399 H 0.3215 0.54883 0.56376 0.0
H400 H 0.36375 0.6237 0.6079 0.0
H401 H 0.32674 0.63581 0.59656 0.0
C402 C 0.41799 0.59051 0.60409 0.0
C403 C 0.40842 0.5617 0.60946 0.0
C404 C 0.39761 0.59821 0.5967 0.0
C405 C 0.36727 0.57726 0.59448 0.0
C406 C 0.3577 0.54853 0.6 0.0
C407 C 0.378 0.54086 0.60746 0.0
C408 C 0.30152 0.57473 0.56454 0.0
C409 C 0.30241 0.59913 0.57373 0.0
C410 C 0.32279 0.56783 0.57105 0.0
C411 C 0.34548 0.58527 0.58678 0.0
C412 C 0.34671 0.60999 0.5956 0.0
C413 C 0.32538 0.61681 0.58919 0.0
H414 H 0.84957 0.41162 0.75253 0.0
H415 H 0.83345 0.36388 0.81545 0.0
H416 H 0.79884 0.3773 0.73982 0.0
H417 H 0.78358 0.32883 0.80186 0.0
H418 H 0.71122 0.25749 0.7528 0.0
H419 H 0.76273 0.29262 0.76382 0.0
H420 H 0.74404 0.36129 0.75876 0.0
H421 H 0.69238 0.32623 0.74838 0.0
C422 C 0.83535 0.39401 0.76372 0.0
C423 C 0.84584 0.39062 0.78505 0.0
C424 C 0.80641 0.37426 0.7563 0.0
C425 C 0.78764 0.35043 0.76982 0.0
C426 C 0.79793 0.34688 0.79103 0.0
C427 C 0.82658 0.36692 0.7987 0.0
C428 C 0.7182 0.2801 0.75389 0.0
C429 C 0.69787 0.28918 0.74984 0.0
C430 C 0.74752 0.30009 0.76026 0.0
C431 C 0.7571 0.32949 0.76209 0.0
C432 C 0.73707 0.3387 0.75735 0.0
C433 C 0.70759 0.31866 0.75152 0.0
H434 H 0.49293 0.87729 0.94452 0.0
H435 H 0.39914 0.84725 0.94492 0.0
H436 H 0.48237 0.83276 0.92578 0.0
H437 H 0.38857 0.80265 0.92612 0.0
H438 H 0.38195 0.73664 0.87481 0.0
H439 H 0.39519 0.78383 0.88992 0.0
H440 H 0.4593 0.78187 0.93557 0.0
H441 H 0.44649 0.735 0.92026 0.0
C442 C 0.47002 0.86108 0.94075 0.0
C443 C 0.44683 0.8657 0.94638 0.0
C444 C 0.46399 0.8356 0.92996 0.0
C445 C 0.43464 0.81416 0.92451 0.0
C446 C 0.41147 0.81894 0.92981 0.0
C447 C 0.4175 0.84445 0.94062 0.0
C448 C 0.39913 0.74643 0.88787 0.0
C449 C 0.41308 0.732 0.8964 0.0
C450 C 0.40654 0.77337 0.89665 0.0
C451 C 0.42812 0.78648 0.91406 0.0
C452 C 0.44276 0.77247 0.92202 0.0
C453 C 0.43533 0.74554 0.91329 0.0
H454 H 0.58491 0.43093 0.13943 0.0
H455 H 0.57791 0.45686 0.07096 0.0
H456 H 0.619 0.41613 0.12594 0.0
H457 H 0.61236 0.4426 0.05757 0.0
H458 H 0.65213 0.38638 0.03947 0.0
H459 H 0.61609 0.39899 0.05209 0.0
H460 H 0.67088 0.44188 0.11142 0.0
H461 H 0.70682 0.42917 0.09897 0.0
C462 C 0.59041 0.43315 0.12147 0.0
C463 C 0.5789 0.44513 0.10625 0.0
C464 C 0.61014 0.42499 0.1138 0.0
C465 C 0.61852 0.42846 0.09075 0.0
C466 C 0.60623 0.43958 0.0754 0.0
C467 C 0.58669 0.44791 0.08309 0.0
C468 C 0.65659 0.39867 0.05512 0.0
C469 C 0.68232 0.40674 0.06823 0.0
C470 C 0.63596 0.4059 0.06232 0.0
C471 C 0.64057 0.42118 0.08283 0.0
C472 C 0.66652 0.42967 0.09573 0.0
C473 C 0.68723 0.42261 0.08847 0.0
H474 H 0.44371 0.8564 0.53527 0.0
H475 H 0.37209 0.87371 0.53457 0.0
H476 H 0.4106 0.80899 0.55163 0.0
H477 H 0.33907 0.82646 0.55103 0.0
H478 H 0.28199 0.72727 0.55175 0.0
H479 H 0.31487 0.77648 0.53906 0.0
H480 H 0.38297 0.78482 0.58599 0.0
H481 H 0.35023 0.73524 0.5984 0.0
C482 C 0.42099 0.85019 0.53884 0.0
C483 C 0.41044 0.86867 0.53345 0.0
C484 C 0.40204 0.82307 0.54827 0.0
C485 C 0.37217 0.81392 0.55258 0.0
C486 C 0.36181 0.83266 0.54756 0.0
C487 C 0.38071 0.8597 0.5381 0.0
C488 C 0.30386 0.73965 0.55955 0.0
C489 C 0.31354 0.72726 0.57601 0.0
C490 C 0.32268 0.76794 0.55233 0.0
C491 C 0.3516 0.78453 0.56143 0.0
C492 C 0.36097 0.77244 0.5784 0.0
C493 C 0.34213 0.74411 0.58563 0.0
H494 H 0.60222 0.45077 0.68905 0.0
H495 H 0.50963 0.38354 0.6882 0.0
H496 H 0.61561 0.41626 0.70279 0.0
H497 H 0.52306 0.3489 0.70125 0.0
H498 H 0.55606 0.29971 0.74372 0.0
H499 H 0.54347 0.33619 0.73423 0.0
H500 H 0.61573 0.37466 0.6864 0.0
H501 H 0.62855 0.33865 0.69603 0.0
C502 C 0.58473 0.42869 0.69196 0.0
C503 C 0.5549 0.41982 0.68738 0.0
C504 C 0.5924 0.40887 0.69962 0.0
C505 C 0.5704 0.37982 0.70298 0.0
C506 C 0.54051 0.37116 0.699 0.0
C507 C 0.53285 0.39093 0.69126 0.0
C508 C 0.5693 0.31603 0.73125 0.0
C509 C 0.59325 0.31623 0.72059 0.0
C510 C 0.56203 0.33685 0.72576 0.0
C511 C 0.57865 0.35834 0.7096 0.0
C512 C 0.60276 0.35866 0.69916 0.0
C513 C 0.60995 0.33785 0.70457 0.0
H514 H 0.16758 0.56452 0.82354 0.0
H515 H 0.13725 0.53674 0.8923 0.0
H516 H 0.21865 0.58265 0.83616 0.0
H517 H 0.1883 0.55508 0.905 0.0
H518 H 0.27776 0.55955 0.91234 0.0
H519 H 0.22682 0.54344 0.90069 0.0
H520 H 0.25824 0.61983 0.85945 0.0
H521 H 0.30915 0.63561 0.87065 0.0
C522 C 0.1719 0.56266 0.84141 0.0
C523 C 0.14843 0.54911 0.85691 0.0
C524 C 0.20114 0.57305 0.84866 0.0
C525 C 0.20753 0.5702 0.87157 0.0
C526 C 0.18407 0.55713 0.88715 0.0
C527 C 0.15485 0.54668 0.87989 0.0
C528 C 0.27378 0.57295 0.90086 0.0
C529 C 0.29751 0.59879 0.89236 0.0
C530 C 0.24458 0.56379 0.89427 0.0
C531 C 0.23848 0.58033 0.8791 0.0
C532 C 0.26221 0.60638 0.87088 0.0
C533 C 0.29139 0.61549 0.87741 0.0
H534 H 0.58907 0.13791 0.06744 0.0
H535 H 0.5851 0.16903 1.00029 0.0
H536 H 0.62595 0.18685 0.07939 0.0
H537 H 0.62207 0.218 0.01219 0.0
H538 H 0.66932 0.30557 0.04749 0.0
H539 H 0.62979 0.25703 0.03747 0.0
H540 H 0.6779 0.22217 0.07135 0.0
H541 H 0.71733 0.27084 0.08181 0.0
C542 C 0.59609 0.15524 0.05524 0.0
C543 C 0.58432 0.14964 0.03289 0.0
C544 C 0.61726 0.18324 0.06207 0.0
C545 C 0.62711 0.20625 0.04669 0.0
C546 C 0.61471 0.20077 0.02452 0.0
C547 C 0.5935 0.17274 0.0177 0.0
C548 C 0.67148 0.28757 0.05288 0.0
C549 C 0.69654 0.29207 0.06542 0.0
C550 C 0.64886 0.25975 0.04702 0.0
C551 C 0.65074 0.23577 0.05355 0.0
C552 C 0.67564 0.24022 0.0663 0.0
C553 C 0.69831 0.26809 0.07218 0.0
H554 H 0.49361 0.63417 0.19038 0.0
H555 H 0.40061 0.5684 0.19355 0.0
H556 H 0.4832 0.66839 0.20868 0.0
H557 H 0.39023 0.60265 0.21198 0.0
H558 H 0.38651 0.66339 0.26353 0.0
H559 H 0.39973 0.62978 0.24791 0.0
H560 H 0.45746 0.69423 0.19949 0.0
H561 H 0.44463 0.728 0.21528 0.0
C562 C 0.47089 0.62708 0.19481 0.0
C563 C 0.44789 0.5986 0.19038 0.0
C564 C 0.46496 0.64668 0.20535 0.0
C565 C 0.43591 0.63822 0.21178 0.0
C566 C 0.41293 0.60969 0.20754 0.0
C567 C 0.41886 0.59009 0.19695 0.0
C568 C 0.40228 0.67052 0.24972 0.0
C569 C 0.41443 0.69834 0.24059 0.0
C570 C 0.40966 0.65117 0.24067 0.0
C571 C 0.42944 0.65927 0.22235 0.0
C572 C 0.44233 0.68741 0.21372 0.0
C573 C 0.43489 0.70673 0.22272 0.0
H574 H 0.8602 0.45167 0.39051 0.0
H575 H 0.83444 0.46075 0.32207 0.0
H576 H 0.81073 0.43744 0.40394 0.0
H577 H 0.78571 0.44818 0.3357 0.0
H578 H 0.69188 0.39599 0.36202 0.0
H579 H 0.74081 0.40824 0.34921 0.0
H580 H 0.77988 0.45744 0.41117 0.0
H581 H 0.73056 0.44432 0.42438 0.0
C582 C 0.84397 0.45052 0.37831 0.0
C583 C 0.85131 0.45737 0.35521 0.0
C584 C 0.81574 0.44278 0.38608 0.0
C585 C 0.79426 0.44179 0.37093 0.0
C586 C 0.80157 0.4484 0.34781 0.0
C587 C 0.82967 0.45596 0.34003 0.0
C588 C 0.71089 0.40949 0.37292 0.0
C589 C 0.70733 0.41924 0.39422 0.0
C590 C 0.739 0.41662 0.36551 0.0
C591 C 0.76433 0.43391 0.37911 0.0
C592 C 0.7608 0.44375 0.40041 0.0
C593 C 0.73257 0.43642 0.40791 0.0
H594 H 0.09909 0.59175 0.42428 0.0
H595 H 0.10258 0.5141 0.41671 0.0
H596 H 0.12971 0.60407 0.45876 0.0
H597 H 0.13271 0.52623 0.45156 0.0
H598 H 0.15587 0.54358 0.52921 0.0
H599 H 0.1269 0.53074 0.49365 0.0
H600 H 0.18144 0.61824 0.46996 0.0
H601 H 0.21029 0.63116 0.5054 0.0
C602 C 0.10662 0.57744 0.4298 0.0
C603 C 0.09838 0.55195 0.41764 0.0
C604 C 0.1241 0.58448 0.44961 0.0
C605 C 0.1336 0.56611 0.45785 0.0
C606 C 0.12541 0.54062 0.44576 0.0
C607 C 0.1081 0.53368 0.42582 0.0
C608 C 0.16175 0.56004 0.51637 0.0
C609 C 0.18531 0.58841 0.52019 0.0
C610 C 0.14525 0.55265 0.49597 0.0
C611 C 0.15184 0.57353 0.47908 0.0
C612 C 0.17562 0.60178 0.48279 0.0
C613 C 0.19224 0.60911 0.50306 0.0
H614 H 0.50497 0.10616 0.59096 0.0
H615 H 0.59069 0.113 0.59061 0.0
H616 H 0.51881 0.13432 0.62622 0.0
H617 H 0.60399 0.14035 0.62626 0.0
H618 H 0.59828 0.15504 0.70371 0.0
H619 H 0.58598 0.12944 0.66719 0.0
H620 H 0.5562 0.18486 0.64056 0.0
H621 H 0.56858 0.21061 0.67705 0.0
C622 C 0.52687 0.11392 0.59819 0.0
C623 C 0.54665 0.10717 0.58791 0.0
C624 C 0.53472 0.12996 0.61846 0.0
C625 C 0.56239 0.13935 0.62902 0.0
C626 C 0.58234 0.133 0.61865 0.0
C627 C 0.57464 0.11725 0.59826 0.0
C628 C 0.58913 0.16179 0.69008 0.0
C629 C 0.58438 0.18483 0.69328 0.0
C630 C 0.58226 0.14724 0.66914 0.0
C631 C 0.57018 0.15521 0.65106 0.0
C632 C 0.56531 0.17816 0.65427 0.0
C633 C 0.57252 0.19295 0.67512 0.0
H634 H 0.4188 0.51954 0.7471 0.0
H635 H 0.48895 0.60745 0.73562 0.0
H636 H 0.40191 0.53525 0.77951 0.0
H637 H 0.47183 0.62333 0.76793 0.0
H638 H 0.45036 0.63601 0.84153 0.0
H639 H 0.46845 0.62115 0.80918 0.0
H640 H 0.37792 0.56172 0.7876 0.0
H641 H 0.35993 0.57593 0.82013 0.0
C642 C 0.43042 0.54229 0.75137 0.0
C643 C 0.45513 0.56227 0.73875 0.0
C644 C 0.42073 0.55131 0.76995 0.0
C645 C 0.43542 0.58059 0.77629 0.0
C646 C 0.46024 0.60058 0.76371 0.0
C647 C 0.47002 0.59151 0.74517 0.0
C648 C 0.43436 0.6198 0.82985 0.0
C649 C 0.40372 0.60706 0.83347 0.0
C650 C 0.44471 0.61139 0.81124 0.0
C651 C 0.42464 0.59012 0.79584 0.0
C652 C 0.39401 0.57774 0.79935 0.0
C653 C 0.38369 0.58604 0.81796 0.0
H654 H 0.93664 0.4504 0.94045 0.0
H655 H 0.85813 0.42256 0.89855 0.0
H656 H 0.90665 0.43816 0.97469 0.0
H657 H 0.82817 0.41061 0.93293 0.0
H658 H 0.79093 0.42145 0.00066 0.0
H659 H 0.82115 0.43465 0.96633 0.0
H660 H 0.86778 0.39467 0.99392 0.0
H661 H 0.83791 0.38175 0.02827 0.0
C662 C 0.91294 0.4414 0.93852 0.0
C663 C 0.89978 0.43732 0.91673 0.0
C664 C 0.89577 0.43447 0.95816 0.0
C665 C 0.86505 0.42339 0.9565 0.0
C666 C 0.85186 0.41946 0.93475 0.0
C667 C 0.86903 0.4263 0.91508 0.0
C668 C 0.8077 0.41557 0.99942 0.0
C669 C 0.81203 0.40057 0.0172 0.0
C670 C 0.82487 0.42297 0.9797 0.0
C671 C 0.84683 0.41568 0.97742 0.0
C672 C 0.85127 0.40087 0.99528 0.0
C673 C 0.83403 0.39335 0.01492 0.0
H674 H 0.42914 0.86726 0.07205 0.0
H675 H 0.4782 0.94497 0.11253 0.0
H676 H 0.41759 0.83834 0.10674 0.0
H677 H 0.46688 0.91616 0.14701 0.0
H678 H 0.47277 0.85514 0.19801 0.0
H679 H 0.48129 0.88327 0.16345 0.0
H680 H 0.38956 0.82733 0.1431 0.0
H681 H 0.38101 0.79883 0.1777 0.0
C682 C 0.43721 0.87817 0.08834 0.0
C683 C 0.45489 0.9084 0.08949 0.0
C684 C 0.4306 0.86161 0.1082 0.0
C685 C 0.44157 0.87497 0.12958 0.0
C686 C 0.45861 0.9052 0.13075 0.0
C687 C 0.46514 0.9217 0.11097 0.0
C688 C 0.45436 0.84881 0.18622 0.0
C689 C 0.42621 0.82474 0.19062 0.0
C690 C 0.45922 0.86505 0.16646 0.0
C691 C 0.43607 0.85758 0.15058 0.0
C692 C 0.40789 0.83347 0.15493 0.0
C693 C 0.40297 0.81727 0.1748 0.0
H694 H 0.52026 0.47118 0.26453 0.0
H695 H 0.55496 0.42989 0.22267 0.0
H696 H 0.53684 0.45744 0.29895 0.0
H697 H 0.57115 0.41571 0.2572 0.0
H698 H 0.5652 0.37219 0.32846 0.0
H699 H 0.54523 0.38295 0.29426 0.0
H700 H 0.59104 0.47281 0.31362 0.0
H701 H 0.61148 0.46231 0.34741 0.0
C702 C 0.53114 0.45889 0.26275 0.0
C703 C 0.5364 0.4516 0.24101 0.0
C704 C 0.5407 0.45115 0.28238 0.0
C705 C 0.55519 0.43552 0.28065 0.0
C706 C 0.55983 0.4276 0.25894 0.0
C707 C 0.55078 0.43584 0.23926 0.0
C708 C 0.57087 0.39419 0.32543 0.0
C709 C 0.58992 0.41643 0.34055 0.0
C710 C 0.55958 0.40033 0.30586 0.0
C711 C 0.56663 0.42867 0.30142 0.0
C712 C 0.58516 0.45076 0.31677 0.0
C713 C 0.59693 0.44475 0.33602 0.0
H714 H 0.40753 0.90653 0.39325 0.0
H715 H 0.49451 0.91637 0.39385 0.0
H716 H 0.39416 0.87631 0.3592 0.0
H717 H 0.48125 0.88629 0.35962 0.0
H718 H 0.43527 0.8077 0.31114 0.0
H719 H 0.44935 0.83718 0.34578 0.0
H720 H 0.40632 0.8812 0.31919 0.0
H721 H 0.3917 0.8514 0.28492 0.0
C722 C 0.42385 0.90236 0.38601 0.0
C723 C 0.45211 0.91393 0.39618 0.0
C724 C 0.41623 0.88508 0.36647 0.0
C725 C 0.43671 0.87904 0.35657 0.0
C726 C 0.46484 0.89025 0.36695 0.0
C727 C 0.47244 0.90749 0.38656 0.0
C728 C 0.42891 0.82374 0.31268 0.0
C729 C 0.41224 0.82711 0.29532 0.0
C730 C 0.43708 0.84072 0.33249 0.0
C731 C 0.42879 0.86142 0.33533 0.0
C732 C 0.41258 0.86508 0.31776 0.0
C733 C 0.40437 0.84811 0.29802 0.0
H734 H 0.60332 0.50547 0.55401 0.0
H735 H 0.51817 0.42686 0.54612 0.0
H736 H 0.62153 0.49249 0.52071 0.0
H737 H 0.53585 0.41463 0.51223 0.0
H738 H 0.58409 0.38681 0.46511 0.0
H739 H 0.56917 0.39947 0.50029 0.0
H740 H 0.61498 0.48883 0.47977 0.0
H741 H 0.63064 0.47626 0.44481 0.0
C742 C 0.58853 0.48535 0.54525 0.0
C743 C 0.55926 0.46722 0.55274 0.0
C744 C 0.59885 0.4781 0.52598 0.0
C745 C 0.58015 0.45256 0.51373 0.0
C746 C 0.55099 0.4343 0.52139 0.0
C747 C 0.54071 0.4415 0.54067 0.0
C748 C 0.59109 0.40919 0.46812 0.0
C749 C 0.60845 0.43052 0.45209 0.0
C750 C 0.58239 0.41643 0.48826 0.0
C751 C 0.5907 0.44514 0.49282 0.0
C752 C 0.60847 0.46655 0.47694 0.0
C753 C 0.61732 0.45933 0.45682 0.0
H754 H 0.10855 0.58494 0.73114 0.0
H755 H 0.09166 0.49925 0.71793 0.0
H756 H 0.14251 0.60328 0.69898 0.0
H757 H 0.12516 0.51738 0.68558 0.0
H758 H 0.21036 0.56392 0.64508 0.0
H759 H 0.1769 0.54668 0.67736 0.0
H760 H 0.14383 0.60223 0.6579 0.0
H761 H 0.17804 0.62015 0.62589 0.0
C762 C 0.11191 0.56999 0.72122 0.0
C763 C 0.09754 0.54068 0.7271 0.0
C764 C 0.13131 0.58047 0.70276 0.0
C765 C 0.13665 0.56184 0.6897 0.0
C766 C 0.12203 0.53246 0.69551 0.0
C767 C 0.10278 0.52203 0.71403 0.0
C768 C 0.19599 0.57251 0.64768 0.0
C769 C 0.19686 0.5934 0.63289 0.0
C770 C 0.17664 0.56247 0.66613 0.0
C771 C 0.15753 0.57294 0.6702 0.0
C772 C 0.15849 0.59395 0.65545 0.0
C773 C 0.17799 0.60412 0.63702 0.0
H774 H 0.5148 0.06663 0.87642 0.0
H775 H 0.55002 0.14159 0.92018 0.0
H776 H 0.53089 0.09782 0.84274 0.0
H777 H 0.56554 0.17279 0.88639 0.0
H778 H 0.55798 0.21061 0.81469 0.0
H779 H 0.53792 0.17925 0.84824 0.0
H780 H 0.58701 0.13823 0.83056 0.0
H781 H 0.60762 0.16986 0.79755 0.0
C782 C 0.5256 0.08975 0.87877 0.0
C783 C 0.53126 0.10179 0.90081 0.0
C784 C 0.53485 0.10753 0.85957 0.0
C785 C 0.54935 0.1376 0.86208 0.0
C786 C 0.55421 0.14963 0.88408 0.0
C787 C 0.54552 0.13186 0.90333 0.0
C788 C 0.56438 0.19484 0.81799 0.0
C789 C 0.5844 0.1927 0.80358 0.0
C790 C 0.55302 0.17704 0.83716 0.0
C791 C 0.56093 0.15638 0.84182 0.0
C792 C 0.58048 0.15391 0.8272 0.0
C793 C 0.59235 0.17209 0.8084 0.0
H794 H 0.42194 0.56967 0.06581 0.0
H795 H 0.46833 0.53848 0.02574 0.0
H796 H 0.40552 0.5821 0.03073 0.0
H797 H 0.45299 0.55194 0.99084 0.0
H798 H 0.39791 0.55435 0.93164 0.0
H799 H 0.40963 0.53872 0.96727 0.0
H800 H 0.42679 0.61732 1.00026 0.0
H801 H 0.41445 0.63266 0.96485 0.0
C802 C 0.42856 0.5654 0.04953 0.0
C803 C 0.44658 0.55324 0.04858 0.0
C804 C 0.41941 0.57278 0.02944 0.0
C805 C 0.428 0.56808 0.00798 0.0
C806 C 0.4457 0.55558 0.00706 0.0
C807 C 0.45484 0.54822 0.0271 0.0
C808 C 0.40405 0.56823 0.94652 0.0
C809 C 0.40535 0.5948 0.94537 0.0
C810 C 0.41091 0.55934 0.96692 0.0
C811 C 0.41926 0.57682 0.9866 0.0
C812 C 0.42009 0.60317 0.98551 0.0
C813 C 0.41321 0.61205 0.96514 0.0
H814 H 0.86268 0.4405 0.23954 0.0
H815 H 0.94134 0.48937 0.19889 0.0
H816 H 0.83214 0.42503 0.20477 0.0
H817 H 0.91085 0.47405 0.16424 0.0
H818 H 0.84353 0.4696 0.11137 0.0
H819 H 0.87413 0.48282 0.14587 0.0
H820 H 0.82197 0.39524 0.17002 0.0
H821 H 0.79096 0.38199 0.13553 0.0
C822 C 0.87348 0.44772 0.22319 0.0
C823 C 0.90442 0.46634 0.222 0.0
C824 C 0.85599 0.43884 0.20328 0.0
C825 C 0.86908 0.44844 0.18177 0.0
C826 C 0.90005 0.4667 0.18058 0.0
C827 C 0.91751 0.47552 0.20044 0.0
C828 C 0.83859 0.4531 0.12398 0.0
C829 C 0.81478 0.42475 0.12071 0.0
C830 C 0.85626 0.46066 0.14371 0.0
C831 C 0.85049 0.44007 0.16066 0.0
C832 C 0.82677 0.41165 0.15737 0.0
C833 C 0.80913 0.40404 0.13756 0.0
loop_
_geom_bond_atom_site_label_1
_geom_bond_atom_site_label_2
_geom_bond_distance
_geom_bond_site_symmetry_2
_ccdc_geom_bond_type
C0 C1 1.384 . S
C0 C2 1.384 . S
C0 H28 0.931 . S
C1 C0 1.384 . S
C1 C4 1.382 . S
C2 C0 1.384 . S
C2 C3 1.381 . S
C2 H29 0.930 . S
C3 C2 1.381 . S
C3 C5 1.381 . S
C3 C6 1.487 . S
C4 C1 1.382 . S
C4 C5 1.387 . S
C4 H30 0.930 . S
C5 C3 1.381 . S
C5 C4 1.387 . S
C5 H31 0.931 . S
C6 C3 1.487 . S
C6 C13 1.399 . S
C6 N44 1.343 . S
C7 C8 1.384 . S
C7 C9 1.384 . S
C7 H32 0.931 . S
C8 C7 1.384 . S
C8 C11 1.382 . S
C9 C7 1.384 . S
C9 C10 1.381 . S
C9 H33 0.930 . S
C10 C9 1.381 . S
C10 C12 1.381 . S
C10 C13 1.487 . S
C11 C8 1.382 . S
C11 C12 1.387 . S
C11 H34 0.930 . S
C12 C10 1.381 . S
C12 C11 1.387 . S
C12 H35 0.931 . S
C13 C6 1.399 . S
C13 C10 1.487 . S
C13 N45 1.343 1_655 S
C14 C15 1.384 . S
C14 C16 1.384 . S
C14 H36 0.931 . S
C15 C14 1.384 . S
C15 C18 1.382 . S
C16 C14 1.384 . S
C16 C17 1.381 . S
C16 H37 0.930 . S
C17 C16 1.381 . S
C17 C19 1.381 . S
C17 C20 1.487 . S
C18 C15 1.382 . S
C18 C19 1.387 . S
C18 H38 0.930 . S
C19 C17 1.381 . S
C19 C18 1.387 . S
C19 H39 0.931 . S
C20 C17 1.487 . S
C20 C27 1.399 . S
C20 N45 1.343 . S
C21 C22 1.384 . S
C21 C23 1.384 . S
C21 H40 0.931 . S
C22 C21 1.384 . S
C22 C25 1.382 . S
C23 C21 1.384 . S
C23 C24 1.381 . S
C23 H41 0.930 . S
C24 C23 1.381 . S
C24 C26 1.381 . S
C24 C27 1.487 . S
C25 C22 1.382 . S
C25 C26 1.387 . S
C25 H42 0.930 . S
C26 C24 1.381 . S
C26 C25 1.387 . S
C26 H43 0.931 . S
C27 C20 1.399 . S
C27 C24 1.487 . S
C27 N44 1.343 1_455 S
H28 C0 0.931 . S
H29 C2 0.930 . S
H30 C4 0.930 . S
H31 C5 0.931 . S
H32 C7 0.931 . S
H33 C9 0.930 . S
H34 C11 0.930 . S
H35 C12 0.931 . S
H36 C14 0.931 . S
H37 C16 0.930 . S
H38 C18 0.930 . S
H39 C19 0.931 . S
H40 C21 0.931 . S
H41 C23 0.930 . S
H42 C25 0.930 . S
H43 C26 0.931 . S
N44 C6 1.343 . S
N44 C27 1.343 1_655 S
N45 C13 1.343 1_455 S
N45 C20 1.343 . S
C46 C47 1.384 . S
C46 C48 1.384 . S
C46 H74 0.931 . S
C47 C46 1.384 . S
C47 C50 1.382 . S
C48 C46 1.384 . S
C48 C49 1.381 . S
C48 H75 0.930 . S
C49 C48 1.381 . S
C49 C51 1.381 . S
C49 C52 1.487 . S
C50 C47 1.382 . S
C50 C51 1.387 . S
C50 H76 0.930 . S
C51 C49 1.381 . S
C51 C50 1.387 . S
C51 H77 0.931 . S
C52 C49 1.487 . S
C52 C59 1.399 . S
C52 N90 1.343 1_565 S
C53 C54 1.384 . S
C53 C55 1.384 . S
C53 H78 0.931 . S
C54 C53 1.384 . S
C54 C57 1.382 . S
C55 C53 1.384 . S
C55 C56 1.381 . S
C55 H79 0.930 . S
C56 C55 1.381 . S
C56 C58 1.381 . S
C56 C59 1.487 . S
C57 C54 1.382 . S
C57 C58 1.387 . S
C57 H80 0.930 . S
C58 C56 1.381 . S
C58 C57 1.387 . S
C58 H81 0.931 . S
C59 C52 1.399 . S
C59 C56 1.487 . S
C59 N91 1.343 1_565 S
C60 C61 1.384 . S
C60 C62 1.384 . S
C60 H82 0.931 . S
C61 C60 1.384 . S
C61 C64 1.382 . S
C62 C60 1.384 . S
C62 C63 1.381 . S
C62 H83 0.930 . S
C63 C62 1.381 . S
C63 C65 1.381 . S
C63 C66 1.487 . S
C64 C61 1.382 . S
C64 C65 1.387 . S
C64 H84 0.930 . S
C65 C63 1.381 . S
C65 C64 1.387 . S
C65 H85 0.931 . S
C66 C63 1.487 . S
C66 C73 1.399 . S
C66 N91 1.343 . S
C67 C68 1.384 . S
C67 C69 1.384 . S
C67 H86 0.931 . S
C68 C67 1.384 . S
C68 C71 1.382 . S
C69 C67 1.384 . S
C69 C70 1.381 . S
C69 H87 0.930 . S
C70 C69 1.381 . S
C70 C72 1.381 . S
C70 C73 1.487 . S
C71 C68 1.382 . S
C71 C72 1.387 . S
C71 H88 0.930 . S
C72 C70 1.381 . S
C72 C71 1.387 . S
C72 H89 0.931 . S
C73 C66 1.399 . S
C73 C70 1.487 . S
C73 N90 1.343 . S
H74 C46 0.931 . S
H75 C48 0.930 . S
H76 C50 0.930 . S
H77 C51 0.931 . S
H78 C53 0.931 . S
H79 C55 0.930 . S
H80 C57 0.930 . S
H81 C58 0.931 . S
H82 C60 0.931 . S
H83 C62 0.930 . S
H84 C64 0.930 . S
H85 C65 0.931 . S
H86 C67 0.931 . S
H87 C69 0.930 . S
H88 C71 0.930 . S
H89 C72 0.931 . S
N90 C52 1.343 1_545 S
N90 C73 1.343 . S
N91 C59 1.343 1_545 S
N91 C66 1.343 . S
C92 C93 1.384 . S
C92 C94 1.384 . S
C92 H120 0.931 . S
C93 C92 1.384 . S
C93 C96 1.382 . S
C94 C92 1.384 . S
C94 C95 1.381 . S
C94 H121 0.930 . S
C95 C94 1.381 . S
C95 C97 1.381 . S
C95 C98 1.487 . S
C96 C93 1.382 . S
C96 C97 1.387 . S
C96 H122 0.930 . S
C97 C95 1.381 . S
C97 C96 1.387 . S
C97 H123 0.931 . S
C98 C95 1.487 . S
C98 C105 1.399 . S
C98 N136 1.343 . S
C99 C100 1.384 . S
C99 C101 1.384 . S
C99 H124 0.931 . S
C100 C99 1.384 . S
C100 C103 1.382 . S
C101 C99 1.384 . S
C101 C102 1.381 . S
C101 H125 0.930 . S
C102 C101 1.381 . S
C102 C104 1.381 . S
C102 C105 1.487 . S
C103 C100 1.382 . S
C103 C104 1.387 . S
C103 H126 0.930 . S
C104 C102 1.381 . S
C104 C103 1.387 . S
C104 H127 0.931 . S
C105 C98 1.399 . S
C105 C102 1.487 . S
C105 N137 1.343 . S
C106 C107 1.384 . S
C106 C108 1.384 . S
C106 H128 0.931 . S
C107 C106 1.384 . S
C107 C110 1.382 . S
C108 C106 1.384 . S
C108 C109 1.381 . S
C108 H129 0.930 . S
C109 C108 1.381 . S
C109 C111 1.381 . S
C109 C112 1.487 . S
C110 C107 1.382 . S
C110 C111 1.387 . S
C110 H130 0.930 . S
C111 C109 1.381 . S
C111 C110 1.387 . S
C111 H131 0.931 . S
C112 C109 1.487 . S
C112 C119 1.399 . S
C112 N137 1.343 . S
C113 C114 1.384 . S
C113 C115 1.384 . S
C113 H132 0.931 . S
C114 C113 1.384 . S
C114 C117 1.382 . S
C115 C113 1.384 . S
C115 C116 1.381 . S
C115 H133 0.930 . S
C116 C115 1.381 . S
C116 C118 1.381 . S
C116 C119 1.487 . S
C117 C114 1.382 . S
C117 C118 1.387 . S
C117 H134 0.930 . S
C118 C116 1.381 . S
C118 C117 1.387 . S
C118 H135 0.931 . S
C119 C112 1.399 . S
C119 C116 1.487 . S
C119 N136 1.343 . S
H120 C92 0.931 . S
H121 C94 0.930 . S
H122 C96 0.930 . S
H123 C97 0.931 . S
H124 C99 0.931 . S
H125 C101 0.930 . S
H126 C103 0.930 . S
H127 C104 0.931 . S
H128 C106 0.931 . S
H129 C108 0.930 . S
H130 C110 0.930 . S
H131 C111 0.931 . S
H132 C113 0.931 . S
H133 C115 0.930 . S
H134 C117 0.930 . S
H135 C118 0.931 . S
N136 C98 1.343 . S
N136 C119 1.343 . S
N137 C105 1.343 . S
N137 C112 1.343 . S
C138 C139 1.384 . S
C138 C140 1.384 . S
C138 H166 0.931 . S
C139 C138 1.384 . S
C139 C142 1.382 . S
C140 C138 1.384 . S
C140 C141 1.381 . S
C140 H167 0.930 . S
C141 C140 1.381 . S
C141 C143 1.381 . S
C141 C144 1.487 . S
C142 C139 1.382 . S
C142 C143 1.387 . S
C142 H168 0.930 . S
C143 C141 1.381 . S
C143 C142 1.387 . S
C143 H169 0.931 . S
C144 C141 1.487 . S
C144 C151 1.399 . S
C144 N182 1.343 . S
C145 C146 1.384 . S
C145 C147 1.384 . S
C145 H170 0.931 . S
C146 C145 1.384 . S
C146 C149 1.382 . S
C147 C145 1.384 . S
C147 C148 1.381 . S
C147 H171 0.930 . S
C148 C147 1.381 . S
C148 C150 1.381 . S
C148 C151 1.487 . S
C149 C146 1.382 . S
C149 C150 1.387 . S
C149 H172 0.930 . S
C150 C148 1.381 . S
C150 C149 1.387 . S
C150 H173 0.931 . S
C151 C144 1.399 . S
C151 C148 1.487 . S
C151 N183 1.343 1_655 S
C152 C153 1.384 . S
C152 C154 1.384 . S
C152 H174 0.931 . S
C153 C152 1.384 . S
C153 C156 1.382 . S
C154 C152 1.384 . S
C154 C155 1.381 . S
C154 H175 0.930 . S
C155 C154 1.381 . S
C155 C157 1.381 . S
C155 C158 1.487 . S
C156 C153 1.382 . S
C156 C157 1.387 . S
C156 H176 0.930 . S
C157 C155 1.381 . S
C157 C156 1.387 . S
C157 H177 0.931 . S
C158 C155 1.487 . S
C158 C165 1.399 . S
C158 N183 1.343 . S
C159 C160 1.384 . S
C159 C161 1.384 . S
C159 H178 0.931 . S
C160 C159 1.384 . S
C160 C163 1.382 . S
C161 C159 1.384 . S
C161 C162 1.381 . S
C161 H179 0.930 . S
C162 C161 1.381 . S
C162 C164 1.381 . S
C162 C165 1.487 . S
C163 C160 1.382 . S
C163 C164 1.387 . S
C163 H180 0.930 . S
C164 C162 1.381 . S
C164 C163 1.387 . S
C164 H181 0.931 . S
C165 C158 1.399 . S
C165 C162 1.487 . S
C165 N182 1.343 1_455 S
H166 C138 0.931 . S
H167 C140 0.930 . S
H168 C142 0.930 . S
H169 C143 0.931 . S
H170 C145 0.931 . S
H171 C147 0.930 . S
H172 C149 0.930 . S
H173 C150 0.931 . S
H174 C152 0.931 . S
H175 C154 0.930 . S
H176 C156 0.930 . S
H177 C157 0.931 . S
H178 C159 0.931 . S
H179 C161 0.930 . S
H180 C163 0.930 . S
H181 C164 0.931 . S
N182 C144 1.343 . S
N182 C165 1.343 1_655 S
N183 C151 1.343 1_455 S
N183 C158 1.343 . S
C184 C185 1.384 . S
C184 C186 1.384 . S
C184 H212 0.931 . S
C185 C184 1.384 . S
C185 C188 1.382 . S
C186 C184 1.384 . S
C186 C187 1.381 . S
C186 H213 0.946 . S
C187 C186 1.381 . S
C187 C189 1.381 . S
C187 C190 1.487 . S
C188 C185 1.382 . S
C188 C189 1.387 . S
C188 H214 0.930 . S
C189 C187 1.381 . S
C189 C188 1.387 . S
C189 H215 0.931 . S
C190 C187 1.487 . S
C190 C197 1.399 1_556 S
C190 N228 1.324 1_565 S
C191 C192 1.384 . S
C191 C193 1.384 . S
C191 H216 0.931 . S
C192 C191 1.384 . S
C192 C195 1.382 . S
C193 C191 1.384 . S
C193 C194 1.381 . S
C193 H217 0.930 . S
C194 C193 1.381 . S
C194 C196 1.381 . S
C194 C197 1.487 . S
C195 C192 1.382 . S
C195 C196 1.387 . S
C195 H218 0.930 . S
C196 C194 1.381 . S
C196 C195 1.387 . S
C196 H219 0.931 . S
C197 C190 1.399 1_554 S
C197 C194 1.487 . S
C197 N229 1.343 1_565 S
C198 C199 1.384 . S
C198 C200 1.384 1_554 S
C198 H220 0.931 1_554 S
C199 C198 1.384 . S
C199 C202 1.382 . S
C200 C198 1.384 1_556 S
C200 C201 1.381 1_556 S
C200 H221 0.930 . S
C201 C200 1.381 1_554 S
C201 C203 1.381 . S
C201 C204 1.487 1_554 S
C202 C199 1.382 . S
C202 C203 1.387 . S
C202 H222 0.930 . S
C203 C201 1.381 . S
C203 C202 1.387 . S
C203 H223 0.931 . S
C204 C201 1.487 1_556 S
C204 C211 1.399 . S
C204 N229 1.343 1_556 S
C205 C206 1.384 . S
C205 C207 1.384 . S
C205 H224 0.931 . S
C206 C205 1.384 . S
C206 C209 1.382 . S
C207 C205 1.384 . S
C207 C208 1.381 . S
C207 H225 0.930 . S
C208 C207 1.381 . S
C208 C210 1.381 . S
C208 C211 1.487 . S
C209 C206 1.382 . S
C209 C210 1.387 . S
C209 H226 0.930 . S
C210 C208 1.381 . S
C210 C209 1.387 . S
C210 H227 0.931 . S
C211 C204 1.399 . S
C211 C208 1.487 . S
C211 N228 1.370 . S
H212 C184 0.931 . S
H213 C186 0.946 . S
H214 C188 0.930 . S
H215 C189 0.931 . S
H216 C191 0.931 . S
H217 C193 0.930 . S
H218 C195 0.930 . S
H219 C196 0.931 . S
H220 C198 0.931 1_556 S
H221 C200 0.930 . S
H222 C202 0.930 . S
H223 C203 0.931 . S
H224 C205 0.931 . S
H225 C207 0.930 . S
H226 C209 0.930 . S
H227 C210 0.931 . S
N228 C190 1.324 1_545 S
N228 C211 1.370 . S
N229 C197 1.343 1_545 S
N229 C204 1.343 1_554 S
C230 C231 1.384 . S
C230 C232 1.384 . S
C230 H258 0.931 . S
C231 C230 1.384 . S
C231 C234 1.382 . S
C232 C230 1.384 . S
C232 C233 1.381 . S
C232 H259 0.930 . S
C233 C232 1.381 . S
C233 C235 1.381 . S
C233 C236 1.487 . S
C234 C231 1.382 . S
C234 C235 1.387 . S
C234 H260 0.930 . S
C235 C233 1.381 . S
C235 C234 1.387 . S
C235 H261 0.931 . S
C236 C233 1.487 . S
C236 C243 1.399 . S
C236 N274 1.343 . S
C237 C238 1.384 . S
C237 C239 1.384 . S
C237 H262 0.931 . S
C238 C237 1.384 . S
C238 C241 1.382 . S
C239 C237 1.384 . S
C239 C240 1.381 . S
C239 H263 0.930 . S
C240 C239 1.381 . S
C240 C242 1.381 . S
C240 C243 1.487 . S
C241 C238 1.382 . S
C241 C242 1.387 . S
C241 H264 0.930 . S
C242 C240 1.381 . S
C242 C241 1.387 . S
C242 H265 0.931 . S
C243 C236 1.399 . S
C243 C240 1.487 . S
C243 N275 1.343 . S
C244 C245 1.384 . S
C244 C246 1.384 . S
C244 H266 0.931 . S
C245 C244 1.384 . S
C245 C248 1.382 . S
C246 C244 1.384 . S
C246 C247 1.381 . S
C246 H267 0.930 . S
C247 C246 1.381 . S
C247 C249 1.381 . S
C247 C250 1.487 . S
C248 C245 1.382 . S
C248 C249 1.387 . S
C248 H268 0.930 . S
C249 C247 1.381 . S
C249 C248 1.387 . S
C249 H269 0.931 . S
C250 C247 1.487 . S
C250 C257 1.399 . S
C250 N275 1.343 . S
C251 C252 1.384 . S
C251 C253 1.384 . S
C251 H270 0.931 . S
C252 C251 1.384 . S
C252 C255 1.382 . S
C253 C251 1.384 . S
C253 C254 1.381 . S
C253 H271 0.930 . S
C254 C253 1.381 . S
C254 C256 1.381 . S
C254 C257 1.487 . S
C255 C252 1.382 . S
C255 C256 1.387 . S
C255 H272 0.930 . S
C256 C254 1.381 . S
C256 C255 1.387 . S
C256 H273 0.931 . S
C257 C250 1.399 . S
C257 C254 1.487 . S
C257 N274 1.343 . S
H258 C230 0.931 . S
H259 C232 0.930 . S
H260 C234 0.930 . S
H261 C235 0.931 . S
H262 C237 0.931 . S
H263 C239 0.930 . S
H264 C241 0.930 . S
H265 C242 0.931 . S
H266 C244 0.931 . S
H267 C246 0.930 . S
H268 C248 0.930 . S
H269 C249 0.931 . S
H270 C251 0.931 . S
H271 C253 0.930 . S
H272 C255 0.930 . S
H273 C256 0.931 . S
N274 C236 1.343 . S
N274 C257 1.343 . S
N275 C243 1.343 . S
N275 C250 1.343 . S
C276 O277 1.160 . S
C276 O283 1.185 . S
O277 C276 1.160 . S
O278 Zn279 1.899 . S
O278 C286 1.284 . S
Zn279 O278 1.899 . S
Zn279 O280 2.032 . S
Zn279 O283 2.086 . S
Zn279 O288 1.977 . S
O280 Zn279 2.032 . S
O280 C284 1.278 . S
C281 O282 1.203 . S
C281 O288 1.267 . S
O282 C281 1.203 . S
O283 C276 1.185 . S
O283 Zn279 2.086 . S
C284 O280 1.278 . S
C284 O285 1.211 . S
O285 C284 1.211 . S
C286 O278 1.284 . S
C286 O287 1.273 . S
O287 C286 1.273 . S
O288 Zn279 1.977 . S
O288 C281 1.267 . S
C289 O290 1.160 . S
C289 O296 1.185 . S
O290 C289 1.160 . S
O291 Zn292 1.899 . S
O291 C299 1.284 . S
Zn292 O291 1.899 . S
Zn292 O293 2.032 . S
Zn292 O296 2.086 . S
Zn292 O301 1.977 . S
O293 Zn292 2.032 . S
O293 C297 1.278 . S
C294 O295 1.203 . S
C294 O301 1.267 . S
O295 C294 1.203 . S
O296 C289 1.185 . S
O296 Zn292 2.086 . S
C297 O293 1.278 . S
C297 O298 1.211 . S
O298 C297 1.211 . S
C299 O291 1.284 . S
C299 O300 1.273 . S
O300 C299 1.273 . S
O301 Zn292 1.977 . S
O301 C294 1.267 . S
C302 O303 1.160 . S
C302 O309 1.185 . S
O303 C302 1.160 . S
O304 Zn305 1.899 . S
O304 C312 1.284 . S
Zn305 O304 1.899 . S
Zn305 O306 2.032 . S
Zn305 O309 2.086 . S
Zn305 O314 1.977 . S
O306 Zn305 2.032 . S
O306 C310 1.278 . S
C307 O308 1.203 . S
C307 O314 1.267 . S
O308 C307 1.203 . S
O309 C302 1.185 . S
O309 Zn305 2.086 . S
C310 O306 1.278 . S
C310 O311 1.211 . S
O311 C310 1.211 . S
C312 O304 1.284 . S
C312 O313 1.273 . S
O313 C312 1.273 . S
O314 Zn305 1.977 . S
O314 C307 1.267 . S
C315 O316 1.160 . S
C315 O322 1.185 . S
O316 C315 1.160 . S
O317 Zn318 1.899 . S
O317 C325 1.284 . S
Zn318 O317 1.899 . S
Zn318 O319 2.032 . S
Zn318 O322 2.086 . S
Zn318 O327 1.977 . S
O319 Zn318 2.032 . S
O319 C323 1.278 . S
C320 O321 1.203 . S
C320 O327 1.267 . S
O321 C320 1.203 . S
O322 C315 1.185 . S
O322 Zn318 2.086 . S
C323 O319 1.278 . S
C323 O324 1.211 . S
O324 C323 1.211 . S
C325 O317 1.284 . S
C325 O326 1.273 . S
O326 C325 1.273 . S
O327 Zn318 1.977 . S
O327 C320 1.267 . S
C328 O329 1.160 . S
C328 O335 1.185 . S
O329 C328 1.160 . S
O330 Zn331 1.899 . S
O330 C338 1.284 . S
Zn331 O330 1.899 . S
Zn331 O332 2.032 . S
Zn331 O335 2.086 . S
Zn331 O340 1.977 . S
O332 Zn331 2.032 . S
O332 C336 1.278 . S
C333 O334 1.203 . S
C333 O340 1.267 . S
O334 C333 1.203 . S
O335 C328 1.185 . S
O335 Zn331 2.086 . S
C336 O332 1.278 . S
C336 O337 1.211 . S
O337 C336 1.211 . S
C338 O330 1.284 . S
C338 O339 1.273 . S
O339 C338 1.273 . S
O340 Zn331 1.977 . S
O340 C333 1.267 . S
C341 O342 1.160 . S
C341 O348 1.185 . S
O342 C341 1.160 . S
O343 Zn344 1.899 . S
O343 C351 1.284 . S
Zn344 O343 1.899 . S
Zn344 O345 2.032 . S
Zn344 O348 2.086 . S
Zn344 O353 1.977 . S
O345 Zn344 2.032 . S
O345 C349 1.278 . S
C346 O347 1.203 . S
C346 O353 1.267 . S
O347 C346 1.203 . S
O348 C341 1.185 . S
O348 Zn344 2.086 . S
C349 O345 1.278 . S
C349 O350 1.211 . S
O350 C349 1.211 . S
C351 O343 1.284 . S
C351 O352 1.273 . S
O352 C351 1.273 . S
O353 Zn344 1.977 . S
O353 C346 1.267 . S
H354 C362 0.950 . S
H355 C367 0.950 . S
H356 C364 0.950 . S
H357 C366 0.950 . S
H358 C368 0.950 . S
H359 C370 0.950 . S
H360 C372 0.950 . S
H361 C373 0.950 . S
C362 H354 0.950 . S
C362 C363 1.386 . S
C362 C364 1.391 . S
C363 C362 1.386 . S
C363 C367 1.393 . S
C364 H356 0.950 . S
C364 C362 1.391 . S
C364 C365 1.400 . S
C365 C364 1.400 . S
C365 C366 1.398 . S
C365 C371 1.491 . S
C366 H357 0.950 . S
C366 C365 1.398 . S
C366 C367 1.391 . S
C367 H355 0.950 . S
C367 C363 1.393 . S
C367 C366 1.391 . S
C368 H358 0.950 . S
C368 C369 1.386 . S
C368 C370 1.391 . S
C369 C368 1.386 . S
C369 C373 1.393 . S
C370 H359 0.950 . S
C370 C368 1.391 . S
C370 C371 1.400 . S
C371 C365 1.491 . S
C371 C370 1.400 . S
C371 C372 1.398 . S
C372 H360 0.950 . S
C372 C371 1.398 . S
C372 C373 1.391 . S
C373 H361 0.950 . S
C373 C369 1.393 . S
C373 C372 1.391 . S
H374 C382 0.950 . S
H375 C387 0.950 . S
H376 C384 0.950 . S
H377 C386 0.950 . S
H378 C388 0.950 . S
H379 C390 0.950 . S
H380 C392 0.950 . S
H381 C393 0.950 . S
C382 H374 0.950 . S
C382 C383 1.386 . S
C382 C384 1.391 . S
C383 C382 1.386 . S
C383 C387 1.393 . S
C384 H376 0.950 . S
C384 C382 1.391 . S
C384 C385 1.400 . S
C385 C384 1.400 . S
C385 C386 1.398 . S
C385 C391 1.491 . S
C386 H377 0.950 . S
C386 C385 1.398 . S
C386 C387 1.391 . S
C387 H375 0.950 . S
C387 C383 1.393 . S
C387 C386 1.391 . S
C388 H378 0.950 . S
C388 C389 1.386 . S
C388 C390 1.391 . S
C389 C388 1.386 . S
C389 C393 1.393 . S
C390 H379 0.950 . S
C390 C388 1.391 . S
C390 C391 1.400 . S
C391 C385 1.491 . S
C391 C390 1.400 . S
C391 C392 1.398 . S
C392 H380 0.950 . S
C392 C391 1.398 . S
C392 C393 1.391 . S
C393 H381 0.950 . S
C393 C389 1.393 . S
C393 C392 1.391 . S
H394 C402 0.950 . S
H395 C407 0.950 . S
H396 C404 0.950 . S
H397 C406 0.950 . S
H398 C408 0.950 . S
H399 C410 0.950 . S
H400 C412 0.950 . S
H401 C413 0.950 . S
C402 H394 0.950 . S
C402 C403 1.386 . S
C402 C404 1.391 . S
C403 C402 1.386 . S
C403 C407 1.393 . S
C404 H396 0.950 . S
C404 C402 1.391 . S
C404 C405 1.400 . S
C405 C404 1.400 . S
C405 C406 1.398 . S
C405 C411 1.491 . S
C406 H397 0.950 . S
C406 C405 1.398 . S
C406 C407 1.391 . S
C407 H395 0.950 . S
C407 C403 1.393 . S
C407 C406 1.391 . S
C408 H398 0.950 . S
C408 C409 1.386 . S
C408 C410 1.391 . S
C409 C408 1.386 . S
C409 C413 1.393 . S
C410 H399 0.950 . S
C410 C408 1.391 . S
C410 C411 1.400 . S
C411 C405 1.491 . S
C411 C410 1.400 . S
C411 C412 1.398 . S
C412 H400 0.950 . S
C412 C411 1.398 . S
C412 C413 1.391 . S
C413 H401 0.950 . S
C413 C409 1.393 . S
C413 C412 1.391 . S
H414 C422 0.950 . S
H415 C427 0.950 . S
H416 C424 0.950 . S
H417 C426 0.950 . S
H418 C428 0.950 . S
H419 C430 0.950 . S
H420 C432 0.950 . S
H421 C433 0.950 . S
C422 H414 0.950 . S
C422 C423 1.386 . S
C422 C424 1.391 . S
C423 C422 1.386 . S
C423 C427 1.393 . S
C424 H416 0.950 . S
C424 C422 1.391 . S
C424 C425 1.400 . S
C425 C424 1.400 . S
C425 C426 1.398 . S
C425 C431 1.491 . S
C426 H417 0.950 . S
C426 C425 1.398 . S
C426 C427 1.391 . S
C427 H415 0.950 . S
C427 C423 1.393 . S
C427 C426 1.391 . S
C428 H418 0.950 . S
C428 C429 1.386 . S
C428 C430 1.391 . S
C429 C428 1.386 . S
C429 C433 1.393 . S
C430 H419 0.950 . S
C430 C428 1.391 . S
C430 C431 1.400 . S
C431 C425 1.491 . S
C431 C430 1.400 . S
C431 C432 1.398 . S
C432 H420 0.950 . S
C432 C431 1.398 . S
C432 C433 1.391 . S
C433 H421 0.950 . S
C433 C429 1.393 . S
C433 C432 1.391 . S
H434 C442 0.950 . S
H435 C447 0.950 . S
H436 C444 0.950 . S
H437 C446 0.950 . S
H438 C448 0.950 . S
H439 C450 0.950 . S
H440 C452 0.950 . S
H441 C453 0.950 . S
C442 H434 0.950 . S
C442 C443 1.386 . S
C442 C444 1.391 . S
C443 C442 1.386 . S
C443 C447 1.393 . S
C444 H436 0.950 . S
C444 C442 1.391 . S
C444 C445 1.400 . S
C445 C444 1.400 . S
C445 C446 1.398 . S
C445 C451 1.491 . S
C446 H437 0.950 . S
C446 C445 1.398 . S
C446 C447 1.391 . S
C447 H435 0.950 . S
C447 C443 1.393 . S
C447 C446 1.391 . S
C448 H438 0.950 . S
C448 C449 1.386 . S
C448 C450 1.391 . S
C449 C448 1.386 . S
C449 C453 1.393 . S
C450 H439 0.950 . S
C450 C448 1.391 . S
C450 C451 1.400 . S
C451 C445 1.491 . S
C451 C450 1.400 . S
C451 C452 1.398 . S
C452 H440 0.950 . S
C452 C451 1.398 . S
C452 C453 1.391 . S
C453 H441 0.950 . S
C453 C449 1.393 . S
C453 C452 1.391 . S
H454 C462 0.950 . S
H455 C467 0.950 . S
H456 C464 0.950 . S
H457 C466 0.950 . S
H458 C468 0.950 . S
H459 C470 0.950 . S
H460 C472 0.950 . S
H461 C473 0.950 . S
C462 H454 0.950 . S
C462 C463 1.386 . S
C462 C464 1.391 . S
C463 C462 1.386 . S
C463 C467 1.393 . S
C464 H456 0.950 . S
C464 C462 1.391 . S
C464 C465 1.400 . S
C465 C464 1.400 . S
C465 C466 1.398 . S
C465 C471 1.491 . S
C466 H457 0.950 . S
C466 C465 1.398 . S
C466 C467 1.391 . S
C467 H455 0.950 . S
C467 C463 1.393 . S
C467 C466 1.391 . S
C468 H458 0.950 . S
C468 C469 1.386 . S
C468 C470 1.391 . S
C469 C468 1.386 . S
C469 C473 1.393 . S
C470 H459 0.950 . S
C470 C468 1.391 . S
C470 C471 1.400 . S
C471 C465 1.491 . S
C471 C470 1.400 . S
C471 C472 1.398 . S
C472 H460 0.950 . S
C472 C471 1.398 . S
C472 C473 1.391 . S
C473 H461 0.950 . S
C473 C469 1.393 . S
C473 C472 1.391 . S
H474 C482 0.950 . S
H475 C487 0.950 . S
H476 C484 0.950 . S
H477 C486 0.950 . S
H478 C488 0.950 . S
H479 C490 0.950 . S
H480 C492 0.950 . S
H481 C493 0.950 . S
C482 H474 0.950 . S
C482 C483 1.386 . S
C482 C484 1.391 . S
C483 C482 1.386 . S
C483 C487 1.393 . S
C484 H476 0.950 . S
C484 C482 1.391 . S
C484 C485 1.400 . S
C485 C484 1.400 . S
C485 C486 1.398 . S
C485 C491 1.491 . S
C486 H477 0.950 . S
C486 C485 1.398 . S
C486 C487 1.391 . S
C487 H475 0.950 . S
C487 C483 1.393 . S
C487 C486 1.391 . S
C488 H478 0.950 . S
C488 C489 1.386 . S
C488 C490 1.391 . S
C489 C488 1.386 . S
C489 C493 1.393 . S
C490 H479 0.950 . S
C490 C488 1.391 . S
C490 C491 1.400 . S
C491 C485 1.491 . S
C491 C490 1.400 . S
C491 C492 1.398 . S
C492 H480 0.950 . S
C492 C491 1.398 . S
C492 C493 1.391 . S
C493 H481 0.950 . S
C493 C489 1.393 . S
C493 C492 1.391 . S
H494 C502 0.950 . S
H495 C507 0.950 . S
H496 C504 0.950 . S
H497 C506 0.950 . S
H498 C508 0.950 . S
H499 C510 0.950 . S
H500 C512 0.950 . S
H501 C513 0.950 . S
C502 H494 0.950 . S
C502 C503 1.386 . S
C502 C504 1.391 . S
C503 C502 1.386 . S
C503 C507 1.393 . S
C504 H496 0.950 . S
C504 C502 1.391 . S
C504 C505 1.400 . S
C505 C504 1.400 . S
C505 C506 1.398 . S
C505 C511 1.491 . S
C506 H497 0.950 . S
C506 C505 1.398 . S
C506 C507 1.391 . S
C507 H495 0.950 . S
C507 C503 1.393 . S
C507 C506 1.391 . S
C508 H498 0.950 . S
C508 C509 1.386 . S
C508 C510 1.391 . S
C509 C508 1.386 . S
C509 C513 1.393 . S
C510 H499 0.950 . S
C510 C508 1.391 . S
C510 C511 1.400 . S
C511 C505 1.491 . S
C511 C510 1.400 . S
C511 C512 1.398 . S
C512 H500 0.950 . S
C512 C511 1.398 . S
C512 C513 1.391 . S
C513 H501 0.950 . S
C513 C509 1.393 . S
C513 C512 1.391 . S
H514 C522 0.950 . S
H515 C527 0.950 . S
H516 C524 0.950 . S
H517 C526 0.950 . S
H518 C528 0.950 . S
H519 C530 0.950 . S
H520 C532 0.950 . S
H521 C533 0.950 . S
C522 H514 0.950 . S
C522 C523 1.386 . S
C522 C524 1.391 . S
C523 C522 1.386 . S
C523 C527 1.393 . S
C524 H516 0.950 . S
C524 C522 1.391 . S
C524 C525 1.400 . S
C525 C524 1.400 . S
C525 C526 1.398 . S
C525 C531 1.491 . S
C526 H517 0.950 . S
C526 C525 1.398 . S
C526 C527 1.391 . S
C527 H515 0.950 . S
C527 C523 1.393 . S
C527 C526 1.391 . S
C528 H518 0.950 . S
C528 C529 1.386 . S
C528 C530 1.391 . S
C529 C528 1.386 . S
C529 C533 1.393 . S
C530 H519 0.950 . S
C530 C528 1.391 . S
C530 C531 1.400 . S
C531 C525 1.491 . S
C531 C530 1.400 . S
C531 C532 1.398 . S
C532 H520 0.950 . S
C532 C531 1.398 . S
C532 C533 1.391 . S
C533 H521 0.950 . S
C533 C529 1.393 . S
C533 C532 1.391 . S
H534 C542 0.950 . S
H535 C547 0.950 . S
H536 C544 0.950 . S
H537 C546 0.950 . S
H538 C548 0.950 . S
H539 C550 0.950 . S
H540 C552 0.950 . S
H541 C553 0.950 . S
C542 H534 0.950 . S
C542 C543 1.386 . S
C542 C544 1.391 . S
C543 C542 1.386 . S
C543 C547 1.393 . S
C544 H536 0.950 . S
C544 C542 1.391 . S
C544 C545 1.400 . S
C545 C544 1.400 . S
C545 C546 1.398 . S
C545 C551 1.491 . S
C546 H537 0.950 . S
C546 C545 1.398 . S
C546 C547 1.391 . S
C547 H535 0.950 . S
C547 C543 1.393 . S
C547 C546 1.391 . S
C548 H538 0.950 . S
C548 C549 1.386 . S
C548 C550 1.391 . S
C549 C548 1.386 . S
C549 C553 1.393 . S
C550 H539 0.950 . S
C550 C548 1.391 . S
C550 C551 1.400 . S
C551 C545 1.491 . S
C551 C550 1.400 . S
C551 C552 1.398 . S
C552 H540 0.950 . S
C552 C551 1.398 . S
C552 C553 1.391 . S
C553 H541 0.950 . S
C553 C549 1.393 . S
C553 C552 1.391 . S
H554 C562 0.950 . S
H555 C567 0.950 . S
H556 C564 0.950 . S
H557 C566 0.950 . S
H558 C568 0.950 . S
H559 C570 0.950 . S
H560 C572 0.950 . S
H561 C573 0.950 . S
C562 H554 0.950 . S
C562 C563 1.386 . S
C562 C564 1.391 . S
C563 C562 1.386 . S
C563 C567 1.393 . S
C564 H556 0.950 . S
C564 C562 1.391 . S
C564 C565 1.400 . S
C565 C564 1.400 . S
C565 C566 1.398 . S
C565 C571 1.491 . S
C566 H557 0.950 . S
C566 C565 1.398 . S
C566 C567 1.391 . S
C567 H555 0.950 . S
C567 C563 1.393 . S
C567 C566 1.391 . S
C568 H558 0.950 . S
C568 C569 1.386 . S
C568 C570 1.391 . S
C569 C568 1.386 . S
C569 C573 1.393 . S
C570 H559 0.950 . S
C570 C568 1.391 . S
C570 C571 1.400 . S
C571 C565 1.491 . S
C571 C570 1.400 . S
C571 C572 1.398 . S
C572 H560 0.950 . S
C572 C571 1.398 . S
C572 C573 1.391 . S
C573 H561 0.950 . S
C573 C569 1.393 . S
C573 C572 1.391 . S
H574 C582 0.950 . S
H575 C587 0.950 . S
H576 C584 0.950 . S
H577 C586 0.950 . S
H578 C588 0.950 . S
H579 C590 0.950 . S
H580 C592 0.950 . S
H581 C593 0.950 . S
C582 H574 0.950 . S
C582 C583 1.386 . S
C582 C584 1.391 . S
C583 C582 1.386 . S
C583 C587 1.393 . S
C584 H576 0.950 . S
C584 C582 1.391 . S
C584 C585 1.400 . S
C585 C584 1.400 . S
C585 C586 1.398 . S
C585 C591 1.491 . S
C586 H577 0.950 . S
C586 C585 1.398 . S
C586 C587 1.391 . S
C587 H575 0.950 . S
C587 C583 1.393 . S
C587 C586 1.391 . S
C588 H578 0.950 . S
C588 C589 1.386 . S
C588 C590 1.391 . S
C589 C588 1.386 . S
C589 C593 1.393 . S
C590 H579 0.950 . S
C590 C588 1.391 . S
C590 C591 1.400 . S
C591 C585 1.491 . S
C591 C590 1.400 . S
C591 C592 1.398 . S
C592 H580 0.950 . S
C592 C591 1.398 . S
C592 C593 1.391 . S
C593 H581 0.950 . S
C593 C589 1.393 . S
C593 C592 1.391 . S
H594 C602 0.950 . S
H595 C607 0.950 . S
H596 C604 0.950 . S
H597 C606 0.950 . S
H598 C608 0.950 . S
H599 C610 0.950 . S
H600 C612 0.950 . S
H601 C613 0.950 . S
C602 H594 0.950 . S
C602 C603 1.386 . S
C602 C604 1.391 . S
C603 C602 1.386 . S
C603 C607 1.393 . S
C604 H596 0.950 . S
C604 C602 1.391 . S
C604 C605 1.400 . S
C605 C604 1.400 . S
C605 C606 1.398 . S
C605 C611 1.491 . S
C606 H597 0.950 . S
C606 C605 1.398 . S
C606 C607 1.391 . S
C607 H595 0.950 . S
C607 C603 1.393 . S
C607 C606 1.391 . S
C608 H598 0.950 . S
C608 C609 1.386 . S
C608 C610 1.391 . S
C609 C608 1.386 . S
C609 C613 1.393 . S
C610 H599 0.950 . S
C610 C608 1.391 . S
C610 C611 1.400 . S
C611 C605 1.491 . S
C611 C610 1.400 . S
C611 C612 1.398 . S
C612 H600 0.950 . S
C612 C611 1.398 . S
C612 C613 1.391 . S
C613 H601 0.950 . S
C613 C609 1.393 . S
C613 C612 1.391 . S
H614 C622 0.950 . S
H615 C627 0.950 . S
H616 C624 0.950 . S
H617 C626 0.950 . S
H618 C628 0.950 . S
H619 C630 0.950 . S
H620 C632 0.950 . S
H621 C633 0.950 . S
C622 H614 0.950 . S
C622 C623 1.386 . S
C622 C624 1.391 . S
C623 C622 1.386 . S
C623 C627 1.393 . S
C624 H616 0.950 . S
C624 C622 1.391 . S
C624 C625 1.400 . S
C625 C624 1.400 . S
C625 C626 1.398 . S
C625 C631 1.491 . S
C626 H617 0.950 . S
C626 C625 1.398 . S
C626 C627 1.391 . S
C627 H615 0.950 . S
C627 C623 1.393 . S
C627 C626 1.391 . S
C628 H618 0.950 . S
C628 C629 1.386 . S
C628 C630 1.391 . S
C629 C628 1.386 . S
C629 C633 1.393 . S
C630 H619 0.950 . S
C630 C628 1.391 . S
C630 C631 1.400 . S
C631 C625 1.491 . S
C631 C630 1.400 . S
C631 C632 1.398 . S
C632 H620 0.950 . S
C632 C631 1.398 . S
C632 C633 1.391 . S
C633 H621 0.950 . S
C633 C629 1.393 . S
C633 C632 1.391 . S
H634 C642 0.950 . S
H635 C647 0.950 . S
H636 C644 0.950 . S
H637 C646 0.950 . S
H638 C648 0.950 . S
H639 C650 0.950 . S
H640 C652 0.950 . S
H641 C653 0.950 . S
C642 H634 0.950 . S
C642 C643 1.386 . S
C642 C644 1.391 . S
C643 C642 1.386 . S
C643 C647 1.393 . S
C644 H636 0.950 . S
C644 C642 1.391 . S
C644 C645 1.400 . S
C645 C644 1.400 . S
C645 C646 1.398 . S
C645 C651 1.491 . S
C646 H637 0.950 . S
C646 C645 1.398 . S
C646 C647 1.391 . S
C647 H635 0.950 . S
C647 C643 1.393 . S
C647 C646 1.391 . S
C648 H638 0.950 . S
C648 C649 1.386 . S
C648 C650 1.391 . S
C649 C648 1.386 . S
C649 C653 1.393 . S
C650 H639 0.950 . S
C650 C648 1.391 . S
C650 C651 1.400 . S
C651 C645 1.491 . S
C651 C650 1.400 . S
C651 C652 1.398 . S
C652 H640 0.950 . S
C652 C651 1.398 . S
C652 C653 1.391 . S
C653 H641 0.950 . S
C653 C649 1.393 . S
C653 C652 1.391 . S
H654 C662 0.950 . S
H655 C667 0.950 . S
H656 C664 0.950 . S
H657 C666 0.950 . S
H658 C668 0.950 . S
H659 C670 0.950 . S
H660 C672 0.950 . S
H661 C673 0.950 . S
C662 H654 0.950 . S
C662 C663 1.386 . S
C662 C664 1.391 . S
C663 C662 1.386 . S
C663 C667 1.393 . S
C664 H656 0.950 . S
C664 C662 1.391 . S
C664 C665 1.400 . S
C665 C664 1.400 . S
C665 C666 1.398 . S
C665 C671 1.491 . S
C666 H657 0.950 . S
C666 C665 1.398 . S
C666 C667 1.391 . S
C667 H655 0.950 . S
C667 C663 1.393 . S
C667 C666 1.391 . S
C668 H658 0.950 . S
C668 C669 1.386 1_556 S
C668 C670 1.391 . S
C669 C668 1.386 1_554 S
C669 C673 1.393 . S
C670 H659 0.950 . S
C670 C668 1.391 . S
C670 C671 1.400 . S
C671 C665 1.491 . S
C671 C670 1.400 . S
C671 C672 1.398 . S
C672 H660 0.950 . S
C672 C671 1.398 . S
C672 C673 1.391 1_556 S
C673 H661 0.950 . S
C673 C669 1.393 . S
C673 C672 1.391 1_554 S
H674 C682 0.950 . S
H675 C687 0.950 . S
H676 C684 0.950 . S
H677 C686 0.950 . S
H678 C688 0.950 . S
H679 C690 0.950 . S
H680 C692 0.950 . S
H681 C693 0.950 . S
C682 H674 0.950 . S
C682 C683 1.386 . S
C682 C684 1.391 . S
C683 C682 1.386 . S
C683 C687 1.393 . S
C684 H676 0.950 . S
C684 C682 1.391 . S
C684 C685 1.400 . S
C685 C684 1.400 . S
C685 C686 1.398 . S
C685 C691 1.491 . S
C686 H677 0.950 . S
C686 C685 1.398 . S
C686 C687 1.391 . S
C687 H675 0.950 . S
C687 C683 1.393 . S
C687 C686 1.391 . S
C688 H678 0.950 . S
C688 C689 1.386 . S
C688 C690 1.391 . S
C689 C688 1.386 . S
C689 C693 1.393 . S
C690 H679 0.950 . S
C690 C688 1.391 . S
C690 C691 1.400 . S
C691 C685 1.491 . S
C691 C690 1.400 . S
C691 C692 1.398 . S
C692 H680 0.950 . S
C692 C691 1.398 . S
C692 C693 1.391 . S
C693 H681 0.950 . S
C693 C689 1.393 . S
C693 C692 1.391 . S
H694 C702 0.950 . S
H695 C707 0.950 . S
H696 C704 0.950 . S
H697 C706 0.950 . S
H698 C708 0.950 . S
H699 C710 0.950 . S
H700 C712 0.950 . S
H701 C713 0.950 . S
C702 H694 0.950 . S
C702 C703 1.386 . S
C702 C704 1.391 . S
C703 C702 1.386 . S
C703 C707 1.393 . S
C704 H696 0.950 . S
C704 C702 1.391 . S
C704 C705 1.400 . S
C705 C704 1.400 . S
C705 C706 1.398 . S
C705 C711 1.491 . S
C706 H697 0.950 . S
C706 C705 1.398 . S
C706 C707 1.391 . S
C707 H695 0.950 . S
C707 C703 1.393 . S
C707 C706 1.391 . S
C708 H698 0.950 . S
C708 C709 1.386 . S
C708 C710 1.391 . S
C709 C708 1.386 . S
C709 C713 1.393 . S
C710 H699 0.950 . S
C710 C708 1.391 . S
C710 C711 1.400 . S
C711 C705 1.491 . S
C711 C710 1.400 . S
C711 C712 1.398 . S
C712 H700 0.950 . S
C712 C711 1.398 . S
C712 C713 1.391 . S
C713 H701 0.950 . S
C713 C709 1.393 . S
C713 C712 1.391 . S
H714 C722 0.950 . S
H715 C727 0.950 . S
H716 C724 0.950 . S
H717 C726 0.950 . S
H718 C728 0.950 . S
H719 C730 0.950 . S
H720 C732 0.950 . S
H721 C733 0.950 . S
C722 H714 0.950 . S
C722 C723 1.386 . S
C722 C724 1.391 . S
C723 C722 1.386 . S
C723 C727 1.393 . S
C724 H716 0.950 . S
C724 C722 1.391 . S
C724 C725 1.400 . S
C725 C724 1.400 . S
C725 C726 1.398 . S
C725 C731 1.491 . S
C726 H717 0.950 . S
C726 C725 1.398 . S
C726 C727 1.391 . S
C727 H715 0.950 . S
C727 C723 1.393 . S
C727 C726 1.391 . S
C728 H718 0.950 . S
C728 C729 1.386 . S
C728 C730 1.391 . S
C729 C728 1.386 . S
C729 C733 1.393 . S
C730 H719 0.950 . S
C730 C728 1.391 . S
C730 C731 1.400 . S
C731 C725 1.491 . S
C731 C730 1.400 . S
C731 C732 1.398 . S
C732 H720 0.950 . S
C732 C731 1.398 . S
C732 C733 1.391 . S
C733 H721 0.950 . S
C733 C729 1.393 . S
C733 C732 1.391 . S
H734 C742 0.950 . S
H735 C747 0.950 . S
H736 C744 0.950 . S
H737 C746 0.950 . S
H738 C748 0.950 . S
H739 C750 0.950 . S
H740 C752 0.950 . S
H741 C753 0.950 . S
C742 H734 0.950 . S
C742 C743 1.386 . S
C742 C744 1.391 . S
C743 C742 1.386 . S
C743 C747 1.393 . S
C744 H736 0.950 . S
C744 C742 1.391 . S
C744 C745 1.400 . S
C745 C744 1.400 . S
C745 C746 1.398 . S
C745 C751 1.491 . S
C746 H737 0.950 . S
C746 C745 1.398 . S
C746 C747 1.391 . S
C747 H735 0.950 . S
C747 C743 1.393 . S
C747 C746 1.391 . S
C748 H738 0.950 . S
C748 C749 1.386 . S
C748 C750 1.391 . S
C749 C748 1.386 . S
C749 C753 1.393 . S
C750 H739 0.950 . S
C750 C748 1.391 . S
C750 C751 1.400 . S
C751 C745 1.491 . S
C751 C750 1.400 . S
C751 C752 1.398 . S
C752 H740 0.950 . S
C752 C751 1.398 . S
C752 C753 1.391 . S
C753 H741 0.950 . S
C753 C749 1.393 . S
C753 C752 1.391 . S
H754 C762 0.950 . S
H755 C767 0.950 . S
H756 C764 0.950 . S
H757 C766 0.950 . S
H758 C768 0.950 . S
H759 C770 0.950 . S
H760 C772 0.950 . S
H761 C773 0.950 . S
C762 H754 0.950 . S
C762 C763 1.386 . S
C762 C764 1.391 . S
C763 C762 1.386 . S
C763 C767 1.393 . S
C764 H756 0.950 . S
C764 C762 1.391 . S
C764 C765 1.400 . S
C765 C764 1.400 . S
C765 C766 1.398 . S
C765 C771 1.491 . S
C766 H757 0.950 . S
C766 C765 1.398 . S
C766 C767 1.391 . S
C767 H755 0.950 . S
C767 C763 1.393 . S
C767 C766 1.391 . S
C768 H758 0.950 . S
C768 C769 1.386 . S
C768 C770 1.391 . S
C769 C768 1.386 . S
C769 C773 1.393 . S
C770 H759 0.950 . S
C770 C768 1.391 . S
C770 C771 1.400 . S
C771 C765 1.491 . S
C771 C770 1.400 . S
C771 C772 1.398 . S
C772 H760 0.950 . S
C772 C771 1.398 . S
C772 C773 1.391 . S
C773 H761 0.950 . S
C773 C769 1.393 . S
C773 C772 1.391 . S
H774 C782 0.950 . S
H775 C787 0.950 . S
H776 C784 0.950 . S
H777 C786 0.950 . S
H778 C788 0.950 . S
H779 C790 0.950 . S
H780 C792 0.950 . S
H781 C793 0.950 . S
C782 H774 0.950 . S
C782 C783 1.386 . S
C782 C784 1.391 . S
C783 C782 1.386 . S
C783 C787 1.393 . S
C784 H776 0.950 . S
C784 C782 1.391 . S
C784 C785 1.400 . S
C785 C784 1.400 . S
C785 C786 1.398 . S
C785 C791 1.491 . S
C786 H777 0.950 . S
C786 C785 1.398 . S
C786 C787 1.391 . S
C787 H775 0.950 . S
C787 C783 1.393 . S
C787 C786 1.391 . S
C788 H778 0.950 . S
C788 C789 1.386 . S
C788 C790 1.391 . S
C789 C788 1.386 . S
C789 C793 1.393 . S
C790 H779 0.950 . S
C790 C788 1.391 . S
C790 C791 1.400 . S
C791 C785 1.491 . S
C791 C790 1.400 . S
C791 C792 1.398 . S
C792 H780 0.950 . S
C792 C791 1.398 . S
C792 C793 1.391 . S
C793 H781 0.950 . S
C793 C789 1.393 . S
C793 C792 1.391 . S
H794 C802 0.950 . S
H795 C807 0.950 . S
H796 C804 0.950 . S
H797 C806 0.950 1_556 S
H798 C808 0.950 . S
H799 C810 0.950 . S
H800 C812 0.950 1_554 S
H801 C813 0.950 . S
C802 H794 0.950 . S
C802 C803 1.386 . S
C802 C804 1.391 . S
C803 C802 1.386 . S
C803 C807 1.393 . S
C804 H796 0.950 . S
C804 C802 1.391 . S
C804 C805 1.400 . S
C805 C804 1.400 . S
C805 C806 1.398 . S
C805 C811 1.491 1_554 S
C806 H797 0.950 1_554 S
C806 C805 1.398 . S
C806 C807 1.391 . S
C807 H795 0.950 . S
C807 C803 1.393 . S
C807 C806 1.391 . S
C808 H798 0.950 . S
C808 C809 1.386 . S
C808 C810 1.391 . S
C809 C808 1.386 . S
C809 C813 1.393 . S
C810 H799 0.950 . S
C810 C808 1.391 . S
C810 C811 1.400 . S
C811 C805 1.491 1_556 S
C811 C810 1.400 . S
C811 C812 1.398 . S
C812 H800 0.950 1_556 S
C812 C811 1.398 . S
C812 C813 1.391 . S
C813 H801 0.950 . S
C813 C809 1.393 . S
C813 C812 1.391 . S
H814 C822 0.950 . S
H815 C827 0.950 . S
H816 C824 0.950 . S
H817 C826 0.950 . S
H818 C828 0.950 . S
H819 C830 0.950 . S
H820 C832 0.950 . S
H821 C833 0.950 . S
C822 H814 0.950 . S
C822 C823 1.386 . S
C822 C824 1.391 . S
C823 C822 1.386 . S
C823 C827 1.393 . S
C824 H816 0.950 . S
C824 C822 1.391 . S
C824 C825 1.400 . S
C825 C824 1.400 . S
C825 C826 1.398 . S
C825 C831 1.491 . S
C826 H817 0.950 . S
C826 C825 1.398 . S
C826 C827 1.391 . S
C827 H815 0.950 . S
C827 C823 1.393 . S
C827 C826 1.391 . S
C828 H818 0.950 . S
C828 C829 1.386 . S
C828 C830 1.391 . S
C829 C828 1.386 . S
C829 C833 1.393 . S
C830 H819 0.950 . S
C830 C828 1.391 . S
C830 C831 1.400 . S
C831 C825 1.491 . S
C831 C830 1.400 . S
C831 C832 1.398 . S
C832 H820 0.950 . S
C832 C831 1.398 . S
C832 C833 1.391 . S
C833 H821 0.950 . S
C833 C829 1.393 . S
C833 C832 1.391 . S
C369 C351 1.595 . S
C363 C15 1.559 . S
C383 C61 1.534 . S
C389 C276 1.476 . S
C403 C114 1.585 . S
C409 C299 1.625 . S
C423 C139 1.440 . S
C429 C312 1.450 . S
C449 C315 1.537 . S
C443 C185 1.598 . S
C463 C245 1.475 . S
C469 C328 1.440 . S
C483 C47 1.482 . S
C489 C289 1.422 . S
C503 C100 1.603 . S
C509 C302 1.541 . S
C523 C153 1.441 . S
C529 C325 1.451 . S
C549 C338 1.621 . S
C543 C199 1.580 . S
C569 C341 1.489 . S
C563 C231 1.552 . S
C589 C286 1.596 . S
C583 C1 1.576 . S
C603 C22 1.458 . S
C609 C297 1.437 . S
C623 C68 1.441 . S
C629 C310 1.421 . S
C649 C320 1.434 . S
C643 C107 1.481 . S
C663 C146 1.451 . S
C669 C333 1.392 . S
C689 C349 1.449 . S
C683 C192 1.485 . S
C709 C281 1.389 . S
C703 C252 1.440 . S
C729 C346 1.392 . S
C723 C54 1.444 . S
C743 C93 1.484 . S
C749 C284 1.444 . S
C769 C294 1.404 . S
C763 C160 1.443 . S
C783 C206 1.478 . S
C789 C307 1.424 . S
C803 C238 1.441 . S
C809 C323 1.413 . S
C823 C8 1.461 . S
C829 C336 1.428 . S
