# Generated by pormake.
# Topology zzz, (3,6)-cn, num edge types: 1
# Building blocks:
#     Node 0, Type 0, BuildingBlock: BELTOD_clean_linker_0, # of connection points: 3
#     Node 1, Type 0, BuildingBlock: BELTOD_clean_linker_0, # of connection points: 3
#     Node 2, Type 0, BuildingBlock: BELTOD_clean_linker_0, # of connection points: 3
#     Node 3, Type 0, BuildingBlock: BELTOD_clean_linker_0, # of connection points: 3
#     Node 4, Type 0, BuildingBlock: BELTOD_clean_linker_0, # of connection points: 3
#     Node 5, Type 0, BuildingBlock: BELTOD_clean_linker_0, # of connection points: 3
#     Node 6, Type 0, BuildingBlock: BELTOD_clean_linker_0, # of connection points: 3
#     Node 7, Type 0, BuildingBlock: BELTOD_clean_linker_0, # of connection points: 3
#     Node 8, Type 1, BuildingBlock: MIFKUJ_clean_sbu_0, # of connection points: 6
#     Node 9, Type 1, BuildingBlock: MIFKUJ_clean_sbu_0, # of connection points: 6
#     Node 10, Type 1, BuildingBlock: MIFKUJ_clean_sbu_0, # of connection points: 6
#     Node 11, Type 1, BuildingBlock: MIFKUJ_clean_sbu_0, # of connection points: 6
#     Edge 12, Type (0, 1), BuildingBlock: TEMPAE_clean_linker_10, # of connection points: 2
#     Edge 13, Type (0, 1), BuildingBlock: TEMPAE_clean_linker_10, # of connection points: 2
#     Edge 14, Type (0, 1), BuildingBlock: TEMPAE_clean_linker_10, # of connection points: 2
#     Edge 15, Type (0, 1), BuildingBlock: TEMPAE_clean_linker_10, # of connection points: 2
#     Edge 16, Type (0, 1), BuildingBlock: TEMPAE_clean_linker_10, # of connection points: 2
#     Edge 17, Type (0, 1), BuildingBlock: TEMPAE_clean_linker_10, # of connection points: 2
#     Edge 18, Type (0, 1), BuildingBlock: TEMPAE_clean_linker_10, # of connection points: 2
#     Edge 19, Type (0, 1), BuildingBlock: TEMPAE_clean_linker_10, # of connection points: 2
#     Edge 20, Type (0, 1), BuildingBlock: TEMPAE_clean_linker_10, # of connection points: 2
#     Edge 21, Type (0, 1), BuildingBlock: TEMPAE_clean_linker_10, # of connection points: 2
#     Edge 22, Type (0, 1), BuildingBlock: TEMPAE_clean_linker_10, # of connection points: 2
#     Edge 23, Type (0, 1), BuildingBlock: TEMPAE_clean_linker_10, # of connection points: 2
#     Edge 24, Type (0, 1), BuildingBlock: TEMPAE_clean_linker_10, # of connection points: 2
#     Edge 25, Type (0, 1), BuildingBlock: TEMPAE_clean_linker_10, # of connection points: 2
#     Edge 26, Type (0, 1), BuildingBlock: TEMPAE_clean_linker_10, # of connection points: 2
#     Edge 27, Type (0, 1), BuildingBlock: TEMPAE_clean_linker_10, # of connection points: 2
#     Edge 28, Type (0, 1), BuildingBlock: TEMPAE_clean_linker_10, # of connection points: 2
#     Edge 29, Type (0, 1), BuildingBlock: TEMPAE_clean_linker_10, # of connection points: 2
#     Edge 30, Type (0, 1), BuildingBlock: TEMPAE_clean_linker_10, # of connection points: 2
#     Edge 31, Type (0, 1), BuildingBlock: TEMPAE_clean_linker_10, # of connection points: 2
#     Edge 32, Type (0, 1), BuildingBlock: TEMPAE_clean_linker_10, # of connection points: 2
#     Edge 33, Type (0, 1), BuildingBlock: TEMPAE_clean_linker_10, # of connection points: 2
#     Edge 34, Type (0, 1), BuildingBlock: TEMPAE_clean_linker_10, # of connection points: 2
#     Edge 35, Type (0, 1), BuildingBlock: TEMPAE_clean_linker_10, # of connection points: 2
# Relax obj value: 0.288
# Max RMSD: 0.197
# Mean RMSD: 0.181
data_MOF--net-zzz--node1-MIFKUJ_clean_sbu_0--node2-BELTOD_clean_linker_0--edge1-TEMPAE_clean_linker_10
_symmetry_space_group_name_H-M    P1
_symmetry_Int_Tables_number       1
_symmetry_cell_setting            triclinic
loop_
_symmetry_equiv_pos_as_xyz
'x, y, z'
_cell_length_a     53.587941
_cell_length_b     54.620738
_cell_length_c     19.920762
_cell_angle_alpha  89.397042
_cell_angle_beta   89.550998
_cell_angle_gamma 91.095376
loop_
_atom_site_label
_atom_site_type_symbol
_atom_site_fract_x
_atom_site_fract_y
_atom_site_fract_z
_atom_type_partial_charge
P0 P 0.71519 0.49306 0.15118 0.0
H1 H 0.71846 0.50239 0.29514 0.0
H2 H 0.74853 0.52699 0.35654 0.0
H3 H 0.77116 0.56378 0.17217 0.0
H4 H 0.74152 0.53836 0.11058 0.0
H5 H 0.6621 0.48016 0.15255 0.0
H6 H 0.62838 0.48823 0.07458 0.0
H7 H 0.67874 0.5329 0.9524 0.0
H8 H 0.71229 0.52522 0.03172 0.0
H9 H 0.76467 0.47982 0.19452 0.0
H10 H 0.72372 0.47924 0.00892 0.0
O11 O 0.70505 0.47117 0.20437 0.0
H12 H 0.80264 0.46929 0.13395 0.0
H13 H 0.7618 0.46985 0.94765 0.0
C14 C 0.72783 0.51834 0.19812 0.0
C15 C 0.72907 0.51644 0.26816 0.0
C16 C 0.74632 0.53071 0.30343 0.0
C17 C 0.76265 0.54709 0.26907 0.0
C18 C 0.75914 0.55106 0.19995 0.0
C19 C 0.74192 0.5367 0.16469 0.0
C20 C 0.68984 0.50182 0.0976 0.0
C21 C 0.66588 0.49191 0.10945 0.0
C22 C 0.64661 0.49643 0.06453 0.0
C23 C 0.65094 0.51089 0.00664 0.0
C24 C 0.6747 0.52179 0.99666 0.0
C25 C 0.69395 0.51738 0.04201 0.0
C26 C 0.74152 0.48113 0.10607 0.0
C27 C 0.76381 0.47733 0.14071 0.0
C28 C 0.78556 0.47145 0.10597 0.0
C29 C 0.78542 0.4692 0.03575 0.0
C30 C 0.76262 0.47143 0.00173 0.0
C31 C 0.7408 0.47717 0.03671 0.0
P32 P 0.04337 0.72557 0.1283 0.0
H33 H 0.03431 0.72797 0.27342 0.0
H34 H 0.01609 0.75997 0.34201 0.0
H35 H 0.99088 0.79653 0.16205 0.0
H36 H 0.0082 0.76403 0.09439 0.0
H37 H 0.05971 0.6766 0.09739 0.0
H38 H 0.04266 0.64458 0.02608 0.0
H39 H 0.97666 0.68721 0.99392 0.0
H40 H 0.99392 0.71937 0.06623 0.0
H41 H 0.07827 0.76655 0.14062 0.0
H42 H 0.03713 0.73145 0.98187 0.0
O43 O 0.06622 0.71501 0.17646 0.0
H44 H 0.0886 0.80097 0.06518 0.0
H45 H 0.04666 0.76581 0.90747 0.0
C46 C 0.02304 0.74389 0.17879 0.0
C47 C 0.02414 0.74244 0.24893 0.0
C48 C 0.0139 0.7609 0.28805 0.0
C49 C 0.00258 0.7812 0.2575 0.0
C50 C -0.0006 0.78122 0.18745 0.0
C51 C 0.00942 0.76263 0.14852 0.0
C52 C 0.02794 0.7002 0.08796 0.0
C53 C 0.04124 0.6788 0.07676 0.0
C54 C 0.03145 0.66046 0.03592 0.0
C55 C 0.00826 0.66333 0.00453 0.0
C56 C 0.99457 0.68452 0.01741 0.0
C57 C 0.00432 0.70279 0.05912 0.0
C58 C 0.05696 0.74641 0.06705 0.0
C59 C 0.07211 0.76588 0.089 0.0
C60 C 0.07779 0.78564 0.04605 0.0
C61 C 0.06824 0.78627 0.98052 0.0
C62 C 0.05457 0.76585 0.95733 0.0
C63 C 0.04895 0.74612 0.00025 0.0
P64 P 0.77595 0.06087 0.13712 0.0
H65 H 0.77071 0.05794 0.28363 0.0
H66 H 0.74109 0.03485 0.35468 0.0
H67 H 0.71766 0.99286 0.18282 0.0
H68 H 0.74792 0.01539 0.11284 0.0
H69 H 0.81532 0.08804 0.0681 0.0
H70 H 0.85002 0.07576 -0.00291 0.0
H71 H 0.83253 -0.00026 0.04226 0.0
H72 H 0.79741 0.01229 0.1125 0.0
H73 H 0.73142 0.09065 0.1393 0.0
H74 H 0.76868 0.04353 -0.00025 0.0
O75 O 0.78231 0.08649 0.17914 0.0
H76 H 0.69578 0.09307 0.06346 0.0
H77 H 0.73321 0.04534 0.92502 0.0
C78 C 0.76122 0.03866 0.19275 0.0
C79 C 0.75983 0.0432 0.26172 0.0
C80 C 0.74271 0.03011 0.30219 0.0
C81 C 0.72655 0.01243 0.2741 0.0
C82 C 0.72979 0.00631 0.20623 0.0
C83 C 0.74707 0.01928 0.16598 0.0
C84 C 0.80406 0.05112 0.09636 0.0
C85 C 0.81931 0.06875 0.06399 0.0
C86 C 0.83919 0.06168 0.0234 0.0
C87 C 0.84411 0.03675 0.01401 0.0
C88 C 0.82911 0.01909 0.048 0.0
C89 C 0.80916 0.02623 0.0887 0.0
C90 C 0.7529 0.06734 0.07463 0.0
C91 C 0.73223 0.08141 0.09153 0.0
C92 C 0.71178 0.08255 0.0485 0.0
C93 C 0.71163 0.06939 0.98817 0.0
C94 C 0.73287 0.0561 0.97036 0.0
C95 C 0.75326 0.05503 0.01328 0.0
P96 P 0.41782 0.76899 0.09915 0.0
H97 H 0.42617 0.77184 0.24454 0.0
H98 H 0.44674 0.74382 0.32174 0.0
H99 H 0.47568 0.70407 0.15212 0.0
H100 H 0.45686 0.73323 0.07635 0.0
H101 H 0.39363 0.80629 0.02066 0.0
H102 H 0.40917 0.84031 0.95111 0.0
H103 H 0.48469 0.82398 0.00924 0.0
H104 H 0.46884 0.78929 0.07719 0.0
H105 H 0.38819 0.72431 0.11628 0.0
H106 H 0.42833 0.76151 0.95548 0.0
O107 O 0.39278 0.77722 0.14318 0.0
H108 H 0.38425 0.68772 0.04745 0.0
H109 H 0.42364 0.72544 0.8856 0.0
C110 C 0.43942 0.75421 0.15476 0.0
C111 C 0.4377 0.75759 0.2242 0.0
C112 C 0.44922 0.74127 0.26831 0.0
C113 C 0.46222 0.72098 0.24361 0.0
C114 C 0.46592 0.71929 0.17371 0.0
C115 C 0.45491 0.73596 0.12987 0.0
C116 C 0.43004 0.79554 0.05479 0.0
C117 C 0.41351 0.81025 0.01913 0.0
C118 C 0.42246 0.82979 0.97953 0.0
C119 C 0.44821 0.83509 0.97477 0.0
C120 C 0.46476 0.82034 0.01126 0.0
C121 C 0.45574 0.80063 0.05067 0.0
C122 C 0.40833 0.7457 0.04092 0.0
C123 C 0.39526 0.72493 0.06518 0.0
C124 C 0.39303 0.70401 0.02574 0.0
C125 C 0.40389 0.70356 0.96128 0.0
C126 C 0.41545 0.72506 0.9355 0.0
C127 C 0.41787 0.74586 0.97521 0.0
P128 P 0.25808 0.38632 0.08783 0.0
H129 H 0.23974 0.35735 0.9755 0.0
H130 H 0.21145 0.36894 0.88559 0.0
H131 H 0.2254 0.44523 0.92874 0.0
H132 H 0.25351 0.43362 0.01834 0.0
H133 H 0.30988 0.3719 0.10834 0.0
H134 H 0.3453 0.39227 0.16204 0.0
H135 H 0.30166 0.45747 0.18499 0.0
H136 H 0.26684 0.43733 0.12917 0.0
H137 H 0.20416 0.38018 0.06759 0.0
H138 H 0.25255 0.40546 0.22584 0.0
O139 O 0.26318 0.35631 0.09221 0.0
H140 H 0.16825 0.39631 0.12685 0.0
H141 H 0.21654 0.4221 0.28452 0.0
C142 C 0.24878 0.3946 0.00401 0.0
C143 C 0.23775 0.37659 0.9635 0.0
C144 C 0.22132 0.38321 0.91258 0.0
C145 C 0.2159 0.40796 0.90105 0.0
C146 C 0.22926 0.42601 0.93634 0.0
C147 C 0.24549 0.41935 0.98768 0.0
C148 C 0.28555 0.40294 0.11549 0.0
C149 C 0.3081 0.39074 0.12378 0.0
C150 C 0.32831 0.40237 0.15511 0.0
C151 C 0.32627 0.42641 0.17913 0.0
C152 C 0.30409 0.43905 0.16682 0.0
C153 C 0.28405 0.42749 0.13479 0.0
C154 C 0.23137 0.39291 0.14008 0.0
C155 C 0.20718 0.38914 0.11503 0.0
C156 C 0.18655 0.39822 0.14914 0.0
C157 C 0.18979 0.41105 0.20913 0.0
C158 C 0.21371 0.41287 0.23723 0.0
C159 C 0.23431 0.40347 0.20346 0.0
P160 P 0.06983 0.28063 0.0893 0.0
H161 H 0.07766 0.26586 0.94949 0.0
H162 H 0.05997 0.23152 0.88718 0.0
H163 H 0.00379 0.22056 0.04182 0.0
H164 H 0.02214 0.25411 0.105 0.0
H165 H 0.0925 0.32807 0.1207 0.0
H166 H 0.07736 0.36227 0.1869 0.0
H167 H 0.00371 0.32898 0.19208 0.0
H168 H 0.01866 0.2952 0.12433 0.0
H169 H 0.08577 0.23026 0.10046 0.0
H170 H 0.06023 0.28603 0.23535 0.0
O171 O 0.09807 0.28609 0.05584 0.0
H172 H 0.0783 0.19923 0.18752 0.0
H173 H 0.05333 0.25523 0.32275 0.0
C174 C 0.0511 0.26291 0.03169 0.0
C175 C 0.06098 0.25669 0.96887 0.0
C176 C 0.05086 0.23693 0.93326 0.0
C177 C 0.0307 0.22301 0.96007 0.0
C178 C 0.01957 0.23063 0.02027 0.0
C179 C 0.02973 0.2503 0.05581 0.0
C180 C 0.05671 0.30906 0.11684 0.0
C181 C 0.07286 0.32856 0.13362 0.0
C182 C 0.06425 0.34806 0.17185 0.0
C183 C 0.03946 0.34806 0.19514 0.0
C184 C 0.02297 0.32927 0.17508 0.0
C185 C 0.03149 0.31002 0.13584 0.0
C186 C 0.07295 0.26037 0.16054 0.0
C187 C 0.07934 0.23597 0.14946 0.0
C188 C 0.07505 0.21822 0.19934 0.0
C189 C 0.06462 0.22472 0.26148 0.0
C190 C 0.06067 0.24959 0.27464 0.0
C191 C 0.06478 0.26728 0.22454 0.0
P192 P 0.24622 0.08991 0.07416 0.0
H193 H 0.26522 0.11075 0.94889 0.0
H194 H 0.29136 0.09191 0.86389 0.0
H195 H 0.2701 0.02032 0.94008 0.0
H196 H 0.24444 0.03915 0.0266 0.0
H197 H 0.22872 0.10458 0.20366 0.0
H198 H 0.19542 0.08977 0.27824 0.0
H199 H 0.17091 0.03892 0.12649 0.0
H200 H 0.20399 0.05461 0.05072 0.0
H201 H 0.2962 0.11149 0.09218 0.0
H202 H 0.25544 0.04588 0.1523 0.0
O203 O 0.24653 0.1204 0.06721 0.0
H204 H 0.33485 0.09382 0.13521 0.0
H205 H 0.29385 0.02815 0.19385 0.0
C206 C 0.25241 0.07644 0.99379 0.0
C207 C 0.26497 0.09098 0.94533 0.0
C208 C 0.28015 0.08023 0.89706 0.0
C209 C 0.28275 0.05475 0.89602 0.0
C210 C 0.26812 0.04002 0.93963 0.0
C211 C 0.25316 0.05082 0.9886 0.0
C212 C 0.21898 0.08055 0.12201 0.0
C213 C 0.21596 0.09048 0.18599 0.0
C214 C 0.19708 0.08178 0.22891 0.0
C215 C 0.18082 0.0628 0.20889 0.0
C216 C 0.1832 0.05351 0.14346 0.0
C217 C 0.2022 0.06235 0.10022 0.0
C218 C 0.27288 0.08025 0.12066 0.0
C219 C 0.29543 0.09364 0.11637 0.0
C220 C 0.31747 0.08349 0.14025 0.0
C221 C 0.3172 0.05959 0.16699 0.0
C222 C 0.29449 0.04653 0.1728 0.0
C223 C 0.27251 0.05679 0.14993 0.0
P224 P 0.45633 0.24026 0.06357 0.0
H225 H 0.41879 0.25869 0.97169 0.0
H226 H 0.42287 0.28972 0.88353 0.0
H227 H 0.50283 0.28168 0.88354 0.0
H228 H 0.49863 0.25036 0.9722 0.0
H229 H 0.43535 0.1905 0.06819 0.0
H230 H 0.4503 0.15343 0.12339 0.0
H231 H 0.52237 0.18831 0.15049 0.0
H232 H 0.50763 0.22515 0.09291 0.0
H233 H 0.46643 0.29313 0.0468 0.0
H234 H 0.47573 0.23815 0.20157 0.0
O235 O 0.42631 0.23799 0.08618 0.0
H236 H 0.48651 0.32338 0.11676 0.0
H237 H 0.49644 0.26871 0.27207 0.0
C238 C 0.45842 0.25216 0.9788 0.0
C239 C 0.43714 0.26265 0.95077 0.0
C240 C 0.4395 0.28067 0.90077 0.0
C241 C 0.4632 0.28854 0.8778 0.0
C242 C 0.48431 0.27599 0.90026 0.0
C243 C 0.48192 0.25789 0.95055 0.0
C244 C 0.47016 0.21081 0.07815 0.0
C245 C 0.45467 0.18988 0.08352 0.0
C246 C 0.46322 0.16868 0.11515 0.0
C247 C 0.48731 0.16824 0.14231 0.0
C248 C 0.50361 0.18833 0.1306 0.0
C249 C 0.49521 0.20933 0.09754 0.0
C250 C 0.47064 0.26289 0.11725 0.0
C251 C 0.47335 0.28726 0.09506 0.0
C252 C 0.48499 0.30468 0.13523 0.0
C253 C 0.49381 0.29828 0.19913 0.0
C254 C 0.49021 0.27409 0.22259 0.0
C255 C 0.47849 0.25659 0.18214 0.0
Zn256 Zn 0.00237 0.03885 0.60805 0.0
Zn257 Zn 0.01593 0.96874 0.60995 0.0
C258 C 0.99023 0.06585 0.72176 0.0
O259 O 0.96945 0.06632 0.68728 0.0
C260 C 0.00605 0.94305 0.48476 0.0
O261 O 0.02346 0.95789 0.46009 0.0
O262 O 0.99537 0.06889 0.55257 0.0
O263 O 0.03363 0.02822 0.56366 0.0
O264 O 0.04243 0.98885 0.55989 0.0
C265 C 0.01218 0.08517 0.5631 0.0
O266 O 0.02975 0.08057 0.60683 0.0
O267 O 0.00767 0.05217 0.70153 0.0
C268 C 0.02019 0.92916 0.69821 0.0
O269 O 0.99617 0.92892 0.6854 0.0
O270 O 0.03394 0.94589 0.67167 0.0
O271 O 0.98977 0.98459 0.66873 0.0
O272 O 0.97421 0.01421 0.60695 0.0
O273 O -0.0011 0.94565 0.54523 0.0
C274 C 0.04769 0.01108 0.54547 0.0
C275 C 0.97298 0.0003 0.65833 0.0
Zn276 Zn 0.46936 0.99215 0.54181 0.0
Zn277 Zn 0.53429 0.00878 0.60082 0.0
C278 C 0.43043 0.98846 0.64457 0.0
O279 O 0.43397 0.96481 0.64025 0.0
C280 C 0.56038 0.98726 0.48746 0.0
O281 O 0.54173 0.99576 0.45231 0.0
O282 O 0.44871 0.9791 0.46696 0.0
O283 O 0.48495 0.02228 0.50087 0.0
O284 O 0.52216 0.03455 0.53568 0.0
C285 C 0.45624 0.98243 0.40684 0.0
O286 O 0.47971 0.98878 0.39596 0.0
O287 O 0.44411 0.00321 0.61007 0.0
C288 C 0.56856 0.01322 0.70535 0.0
O289 O 0.56681 0.98932 0.69897 0.0
O290 O 0.55517 0.02666 0.66836 0.0
O291 O 0.51122 0.98644 0.65663 0.0
O292 O 0.49085 0.96558 0.57957 0.0
O293 O 0.55972 0.989 0.551 0.0
C294 C 0.50318 0.03736 0.49887 0.0
C295 C 0.49879 0.96753 0.63918 0.0
Zn296 Zn 0.49972 0.48668 0.54314 0.0
Zn297 Zn 0.46714 0.52879 0.60762 0.0
C298 C 0.49859 0.45085 0.64572 0.0
O299 O 0.52246 0.4567 0.64232 0.0
C300 C 0.4649 0.5631 0.49948 0.0
O301 O 0.44204 0.554 0.49834 0.0
O302 O 0.51788 0.46338 0.48316 0.0
O303 O 0.47494 0.50236 0.48151 0.0
O304 O 0.44589 0.50361 0.55883 0.0
C305 C 0.50179 0.44892 0.45755 0.0
O306 O 0.47816 0.4513 0.47354 0.0
O307 O 0.48337 0.46294 0.61017 0.0
C308 C 0.44277 0.54768 0.72806 0.0
O309 O 0.45576 0.53132 0.76075 0.0
O310 O 0.44408 0.5486 0.66439 0.0
O311 O 0.49544 0.51814 0.6679 0.0
O312 O 0.52368 0.50863 0.59175 0.0
O313 O 0.48035 0.55436 0.54115 0.0
C314 C 0.45221 0.49964 0.49842 0.0
C315 C 0.51815 0.51527 0.65091 0.0
Zn316 Zn 0.03231 0.49678 0.59373 0.0
Zn317 Zn 0.95346 0.5055 0.6018 0.0
C318 C 0.06327 0.48268 0.704 0.0
O319 O 0.06214 0.50609 0.71776 0.0
C320 C 0.91182 0.51454 0.52888 0.0
O321 O 0.90923 0.49186 0.5509 0.0
O322 O 0.05583 0.49836 0.51584 0.0
O323 O -0.00122 0.48399 0.57003 0.0
O324 O 0.96057 0.47458 0.54768 0.0
C325 C 0.05176 0.49533 0.4538 0.0
O326 O 0.02879 0.49556 0.43132 0.0
O327 O 0.05002 0.47407 0.65682 0.0
C328 C 0.93313 0.47959 0.72324 0.0
O329 O 0.95069 0.46334 0.71615 0.0
O330 O 0.93224 0.49767 0.68279 0.0
O331 O 0.98578 0.52326 0.6294 0.0
O332 O 0.02632 0.52937 0.63746 0.0
O333 O 0.93161 0.52645 0.54369 0.0
C334 C 0.98355 0.47015 0.5398 0.0
C335 C 0.00415 0.53616 0.65035 0.0
C336 C 0.13737 0.04753 0.23724 0.0
C337 C 0.16195 0.0526 0.25727 0.0
C338 C 0.11918 0.03936 0.28398 0.0
C339 C 0.12574 0.03622 0.35228 0.0
C340 C 0.15066 0.04064 0.37234 0.0
C341 C 0.16845 0.04867 0.32462 0.0
C342 C 0.09278 0.03478 0.26068 0.0
C343 C 0.15842 0.0375 0.44461 0.0
C344 C 0.07464 0.04189 0.48387 0.0
C345 C 0.06902 0.01728 0.49994 0.0
C346 C 0.09305 0.04826 0.43609 0.0
C347 C 0.10631 0.02958 0.40348 0.0
C348 C 0.10113 0.00472 0.42022 0.0
C349 C 0.08256 -0.00115 0.46832 0.0
C350 C 0.09804 0.07501 0.41989 0.0
C351 C 0.11489 0.98431 0.38641 0.0
H352 H 0.13218 0.05064 0.18541 0.0
H353 H 0.18753 0.05206 0.34023 0.0
H354 H 0.08623 0.01618 0.27636 0.0
H355 H 0.08015 0.04807 0.28453 0.0
H356 H 0.09106 0.03654 0.2053 0.0
H357 H 0.17879 0.04063 0.45145 0.0
H358 H 0.14826 0.05058 0.47655 0.0
H359 H 0.15341 0.01879 0.46294 0.0
H360 H 0.06433 0.05633 0.50784 0.0
H361 H 0.07829 0.9798 0.48002 0.0
H362 H 0.09451 0.07865 0.36593 0.0
H363 H 0.11792 0.07977 0.42928 0.0
H364 H 0.08618 0.0873 0.45009 0.0
H365 H 0.11163 0.98503 0.33149 0.0
H366 H 0.10893 0.96594 0.40573 0.0
H367 H 0.13527 0.98664 0.39408 0.0
C368 C 0.49115 0.12393 0.17498 0.0
C369 C 0.49379 0.14874 0.19117 0.0
C370 C 0.4946 0.10554 0.22387 0.0
C371 C 0.50003 0.11223 0.29087 0.0
C372 C 0.50305 0.13729 0.30705 0.0
C373 C 0.5002 0.1552 0.25682 0.0
C374 C 0.49187 0.07901 0.20424 0.0
C375 C 0.50804 0.14526 0.37814 0.0
C376 C 0.47988 0.06721 0.42867 0.0
C377 C 0.50273 0.05752 0.44866 0.0
C378 C 0.4788 0.0852 0.37801 0.0
C379 C 0.50106 0.09318 0.34497 0.0
C380 C 0.52419 0.08327 0.36448 0.0
C381 C 0.52479 0.06581 0.41685 0.0
C382 C 0.45382 0.0957 0.36001 0.0
C383 C 0.5482 0.0907 0.32905 0.0
H384 H 0.48612 0.11895 0.12424 0.0
H385 H 0.50178 0.17441 0.26965 0.0
H386 H 0.50839 0.06868 0.22083 0.0
H387 H 0.47529 0.07059 0.22966 0.0
H388 H 0.48973 0.07682 0.14919 0.0
H389 H 0.51065 0.16542 0.382 0.0
H390 H 0.49216 0.13943 0.41106 0.0
H391 H 0.52495 0.13633 0.3977 0.0
H392 H 0.46278 0.06077 0.45303 0.0
H393 H 0.54244 0.05801 0.43129 0.0
H394 H 0.44935 0.09158 0.30702 0.0
H395 H 0.45453 0.11593 0.36479 0.0
H396 H 0.43844 0.08826 0.39243 0.0
H397 H 0.54661 0.08702 0.27455 0.0
H398 H 0.56451 0.08077 0.34893 0.0
H399 H 0.55174 0.11065 0.33446 0.0
C400 C 0.35895 0.42332 0.26841 0.0
C401 C 0.34633 0.43763 0.22101 0.0
C402 C 0.37666 0.4338 0.31154 0.0
C403 C 0.38169 0.45932 0.30805 0.0
C404 C 0.36938 0.47384 0.25976 0.0
C405 C 0.35197 0.46281 0.21659 0.0
C406 C 0.38967 0.41763 0.36174 0.0
C407 C 0.37429 0.50111 0.25447 0.0
C408 C 0.40838 0.48861 0.46503 0.0
C409 C 0.43385 0.49056 0.44873 0.0
C410 C 0.39112 0.47895 0.41912 0.0
C411 C 0.39957 0.47079 0.35575 0.0
C412 C 0.4252 0.47295 0.33875 0.0
C413 C 0.44196 0.48303 0.38511 0.0
C414 C 0.36388 0.47713 0.43882 0.0
C415 C 0.43502 0.46416 0.27211 0.0
H416 H 0.35449 0.40394 0.27325 0.0
H417 H 0.34267 0.47399 0.17954 0.0
H418 H 0.41021 0.41964 0.35565 0.0
H419 H 0.38495 0.42334 0.41351 0.0
H420 H 0.38438 0.39799 0.35628 0.0
H421 H 0.36341 0.50979 0.21369 0.0
H422 H 0.36939 0.5099 0.30266 0.0
H423 H 0.39443 0.50488 0.245 0.0
H424 H 0.40193 0.49449 0.51387 0.0
H425 H 0.4616 0.48449 0.37189 0.0
H426 H 0.35765 0.45764 0.4401 0.0
H427 H 0.35239 0.48664 0.40089 0.0
H428 H 0.36017 0.48521 0.48878 0.0
H429 H 0.43072 0.44433 0.26664 0.0
H430 H 0.45551 0.4671 0.26668 0.0
H431 H 0.42565 0.47385 0.2304 0.0
C432 C 0.03512 0.39132 0.23402 0.0
C433 C 0.03151 0.36616 0.24552 0.0
C434 C 0.02779 0.40842 0.28227 0.0
C435 C 0.01717 0.40006 0.34397 0.0
C436 C 0.01401 0.37461 0.35621 0.0
C437 C 0.02098 0.35799 0.30657 0.0
C438 C 0.03089 0.43539 0.26667 0.0
C439 C 0.00329 0.36493 0.42182 0.0
C440 C 0.01671 0.44335 0.4926 0.0
C441 C 0.99201 0.45137 0.49207 0.0
C442 C 0.02522 0.42667 0.4447 0.0
C443 C 0.00862 0.41787 0.39502 0.0
C444 C 0.98362 0.42577 0.39468 0.0
C445 C 0.97558 0.44228 0.44344 0.0
C446 C 0.05204 0.41877 0.44662 0.0
C447 C 0.9654 0.417 0.34227 0.0
H448 H 0.04331 0.39762 0.18683 0.0
H449 H 0.01861 0.33849 0.31593 0.0
H450 H 0.01225 0.4437 0.26186 0.0
H451 H 0.04056 0.44476 0.30836 0.0
H452 H 0.04156 0.43889 0.21941 0.0
H453 H 0.00284 0.3446 0.42434 0.0
H454 H 0.01452 0.37196 0.4643 0.0
H455 H 0.984 0.37153 0.42876 0.0
H456 H 0.02947 0.45026 0.53019 0.0
H457 H 0.9565 0.44852 0.44248 0.0
H458 H 0.06199 0.42576 0.40112 0.0
H459 H 0.05302 0.3985 0.44627 0.0
H460 H 0.06198 0.42572 0.49152 0.0
H461 H 0.97271 0.42164 0.29135 0.0
H462 H 0.94672 0.42523 0.34824 0.0
H463 H 0.96319 0.39678 0.34529 0.0
C464 C 0.85926 0.01032 0.92052 0.0
C465 C 0.86382 0.02942 0.96564 0.0
C466 C 0.87687 0.00447 0.87097 0.0
C467 C 0.89955 0.01811 0.86625 0.0
C468 C 0.90452 0.03707 0.91243 0.0
C469 C 0.88663 0.04244 0.96168 0.0
C470 C 0.87092 0.98412 0.82259 0.0
C471 C 0.92855 0.052 0.90901 0.0
C472 C 0.95453 0.9916 0.77218 0.0
C473 C 0.95353 0.00411 0.71035 0.0
C474 C 0.93694 0.99578 0.82312 0.0
C475 C 0.91789 0.01291 0.81206 0.0
C476 C 0.91652 0.02532 0.74948 0.0
C477 C 0.93427 0.02067 0.69925 0.0
C478 C 0.93894 0.98212 0.8891 0.0
C479 C 0.8965 0.04378 0.7359 0.0
H480 H 0.84154 0.00041 0.92251 0.0
H481 H 0.89043 0.05701 0.9969 0.0
H482 H 0.86991 0.99167 0.77078 0.0
H483 H 0.88599 0.97047 0.82301 0.0
H484 H 0.85293 0.97458 0.83482 0.0
H485 H 0.92979 0.06577 0.94955 0.0
H486 H 0.94479 0.03977 0.91279 0.0
H487 H 0.93006 0.06169 0.85987 0.0
H488 H 0.96927 0.97869 0.78126 0.0
H489 H 0.93321 0.03026 0.65148 0.0
H490 H 0.92124 0.97196 0.9003 0.0
H491 H 0.94198 0.99529 0.93038 0.0
H492 H 0.95447 0.96893 0.88908 0.0
H493 H 0.87777 0.03516 0.74346 0.0
H494 H 0.8977 0.05147 0.6841 0.0
H495 H 0.89816 0.05908 0.77192 0.0
C496 C 0.44437 0.87724 0.92432 0.0
C497 C 0.45759 0.85535 0.92992 0.0
C498 C 0.45182 0.89572 0.87847 0.0
C499 C 0.47322 0.89245 0.8377 0.0
C500 C 0.48712 0.87078 0.8445 0.0
C501 C 0.47908 0.85246 0.89024 0.0
C502 C 0.43644 0.91854 0.87262 0.0
C503 C 0.51015 0.86668 0.80225 0.0
C504 C 0.47737 0.92797 0.67271 0.0
C505 C 0.49296 0.94789 0.6894 0.0
C506 C 0.47088 0.9098 0.72042 0.0
C507 C 0.48051 0.91132 0.78627 0.0
C508 C 0.49667 0.93108 0.80314 0.0
C509 C 0.50261 0.94918 0.75465 0.0
C510 C 0.45339 0.88915 0.70061 0.0
C511 C 0.50753 0.9332 0.87259 0.0
H512 H 0.42802 0.87989 0.95557 0.0
H513 H 0.48926 0.83554 0.89343 0.0
H514 H 0.44832 0.93503 0.88139 0.0
H515 H 0.42892 0.92019 0.82106 0.0
H516 H 0.42058 0.91849 0.90885 0.0
H517 H 0.51974 0.84956 0.81649 0.0
H518 H 0.50496 0.86564 0.74854 0.0
H519 H 0.52349 0.88233 0.8073 0.0
H520 H 0.46986 0.92673 0.62247 0.0
H521 H 0.51479 0.96439 0.76804 0.0
H522 H 0.43635 0.88926 0.73263 0.0
H523 H 0.46243 0.87128 0.70889 0.0
H524 H 0.44771 0.89048 0.6472 0.0
H525 H 0.49229 0.93501 0.91013 0.0
H526 H 0.5205 0.94921 0.87701 0.0
H527 H 0.51775 0.91635 0.88561 0.0
C528 C 0.62732 0.53581 0.92226 0.0
C529 C 0.63115 0.51337 0.9552 0.0
C530 C 0.6091 0.53797 0.87228 0.0
C531 C 0.59437 0.51722 0.85499 0.0
C532 C 0.59805 0.49458 0.88833 0.0
C533 C 0.61641 0.49293 0.93779 0.0
C534 C 0.60568 0.5624 0.83777 0.0
C535 C 0.58274 0.47201 0.87128 0.0
C536 C 0.53198 0.52378 0.76834 0.0
C537 C 0.53801 0.51765 0.70198 0.0
C538 C 0.5503 0.52445 0.81829 0.0
C539 C 0.57526 0.5189 0.80151 0.0
C540 C 0.58162 0.51345 0.73428 0.0
C541 C 0.56293 0.51287 0.68533 0.0
C542 C 0.54278 0.53034 0.88945 0.0
C543 C 0.60806 0.50749 0.71442 0.0
H544 H 0.63847 0.55174 0.93585 0.0
H545 H 0.61956 0.4754 0.96199 0.0
H546 H 0.60903 0.56063 0.78302 0.0
H547 H 0.58618 0.56844 0.84452 0.0
H548 H 0.61851 0.57681 0.85734 0.0
H549 H 0.58759 0.45592 0.90282 0.0
H550 H 0.56258 0.47561 0.87811 0.0
H551 H 0.58568 0.4673 0.81779 0.0
H552 H 0.51282 0.5276 0.78173 0.0
H553 H 0.56781 0.50819 0.63421 0.0
H554 H 0.5548 0.54535 0.90908 0.0
H555 H 0.54548 0.51407 0.92224 0.0
H556 H 0.52297 0.53584 0.89338 0.0
H557 H 0.62112 0.52219 0.73093 0.0
H558 H 0.61025 0.50519 0.65936 0.0
H559 H 0.61365 0.49029 0.73984 0.0
C560 C 0.99208 0.65307 0.89038 0.0
C561 C -0.00012 0.6452 0.95399 0.0
C562 C 0.98857 0.63632 0.83808 0.0
C563 C 0.99298 0.61116 0.84982 0.0
C564 C -0.00095 0.60295 0.91526 0.0
C565 C 0.00246 0.62008 0.9665 0.0
C566 C 0.98194 0.64579 0.76917 0.0
C567 C 0.00368 0.57626 0.93014 0.0
C568 C 0.97673 0.56152 0.72383 0.0
C569 C 0.00018 0.5574 0.6946 0.0
C570 C 0.97375 0.57964 0.77277 0.0
C571 C 0.99469 0.59395 0.79259 0.0
C572 C 0.01809 0.59063 0.76078 0.0
C573 C 0.02054 0.57241 0.71234 0.0
C574 C 0.9485 0.5827 0.80534 0.0
C575 C 0.04088 0.60562 0.78002 0.0
H576 H 0.9902 0.67248 0.88025 0.0
H577 H 0.00812 0.6139 0.0159 0.0
H578 H -0.00136 0.64529 0.73599 0.0
H579 H 0.96727 0.63403 0.7463 0.0
H580 H 0.97531 0.66493 0.77061 0.0
H581 H 0.00538 0.57251 0.98482 0.0
H582 H 0.98835 0.56461 0.91007 0.0
H583 H 0.02122 0.57076 0.90496 0.0
H584 H 0.9609 0.54997 0.71045 0.0
H585 H 0.03868 0.56948 0.68968 0.0
H586 H 0.94351 0.60231 0.80619 0.0
H587 H 0.94911 0.57617 0.85821 0.0
H588 H 0.93358 0.57225 0.77905 0.0
H589 H 0.0369 0.62545 0.77662 0.0
H590 H 0.05729 0.60185 0.74757 0.0
H591 H 0.04584 0.60149 0.83287 0.0
C592 C 0.0322 0.20759 0.34064 0.0
C593 C 0.05565 0.20551 0.30949 0.0
C594 C 0.0226 0.189 0.383 0.0
C595 C 0.03672 0.16776 0.3941 0.0
C596 C 0.06043 0.16554 0.36303 0.0
C597 C 0.06964 0.18449 0.32117 0.0
C598 C -0.00271 0.19199 0.41547 0.0
C599 C 0.07603 0.1431 0.37392 0.0
C600 C 0.0271 0.12805 0.54882 0.0
C601 C 0.0143 0.10775 0.52254 0.0
C602 C 0.03345 0.14829 0.50819 0.0
C603 C 0.02707 0.14803 0.43946 0.0
C604 C 0.01294 0.12814 0.41345 0.0
C605 C 0.00655 0.1082 0.45562 0.0
C606 C 0.04811 0.16934 0.5381 0.0
C607 C 0.00583 0.12728 0.34032 0.0
H608 H 0.02104 0.22354 0.33068 0.0
H609 H 0.08781 0.18286 0.29756 0.0
H610 H 0.98447 0.17696 0.39978 0.0
H611 H -0.00108 0.19074 0.47089 0.0
H612 H 0.9888 0.20977 0.40216 0.0
H613 H 0.09385 0.14403 0.34507 0.0
H614 H 0.08037 0.14098 0.42801 0.0
H615 H 0.06541 0.12645 0.35876 0.0
H616 H 0.03288 0.12777 0.60088 0.0
H617 H 0.99678 0.09241 0.43526 0.0
H618 H 0.0395 0.18704 0.52486 0.0
H619 H 0.06735 0.16975 0.51703 0.0
H620 H 0.04928 0.16785 0.59366 0.0
H621 H 0.99689 0.14457 0.32486 0.0
H622 H 0.99289 0.11171 0.3295 0.0
H623 H 0.0229 0.1254 0.30902 0.0
C624 C 0.35597 0.05884 0.23515 0.0
C625 C 0.3405 0.04781 0.18756 0.0
C626 C 0.37649 0.04642 0.261 0.0
C627 C 0.38173 0.0226 0.23771 0.0
C628 C 0.36708 0.0121 0.18637 0.0
C629 C 0.34642 0.02475 0.16235 0.0
C630 C 0.39165 0.05818 0.31601 0.0
C631 C 0.37253 0.98707 0.15901 0.0
C632 C 0.44433 -0.00049 0.29497 0.0
C633 C 0.43744 0.98712 0.35458 0.0
C634 C 0.42622 0.0099 0.25353 0.0
C635 C 0.40076 0.00785 0.27247 0.0
C636 C 0.39361 0.99358 0.32938 0.0
C637 C 0.41205 0.98321 0.36946 0.0
C638 C 0.43448 0.02458 0.19239 0.0
C639 C 0.36662 0.99092 0.35123 0.0
H640 H 0.3513 0.07668 0.25447 0.0
H641 H 0.33457 0.01645 0.12467 0.0
H642 H 0.38868 0.04775 0.36362 0.0
H643 H 0.41185 0.05766 0.30372 0.0
H644 H 0.38649 0.07752 0.3244 0.0
H645 H 0.36177 0.98313 0.11277 0.0
H646 H 0.39273 0.98546 0.14761 0.0
H647 H 0.36758 0.97288 0.19732 0.0
H648 H 0.46391 0.0025 0.28281 0.0
H649 H 0.40656 0.97343 0.41502 0.0
H650 H 0.43265 0.04439 0.20261 0.0
H651 H 0.42246 0.02022 0.14884 0.0
H652 H 0.45423 0.02115 0.1786 0.0
H653 H 0.35971 0.00897 0.36747 0.0
H654 H 0.36404 0.97765 0.39349 0.0
H655 H 0.35487 0.98482 0.30877 0.0
C656 C 0.49691 0.3196 0.30922 0.0
C657 C 0.50479 0.31755 0.24233 0.0
C658 C 0.50274 0.34063 0.34611 0.0
C659 C 0.51658 0.36003 0.31499 0.0
C660 C 0.52678 0.35694 0.25005 0.0
C661 C 0.52079 0.33566 0.21445 0.0
C662 C 0.49188 0.34308 0.41584 0.0
C663 C 0.54195 0.37703 0.21558 0.0
C664 C 0.49161 0.42127 0.36461 0.0
C665 C 0.50868 0.42878 0.41335 0.0
C666 C 0.49488 0.39957 0.32955 0.0
C667 C 0.51564 0.38484 0.34428 0.0
C668 C 0.53381 0.39307 0.39061 0.0
C669 C 0.53015 0.41516 0.42465 0.0
C670 C 0.47524 0.39174 0.27967 0.0
C671 C 0.55616 0.37788 0.4075 0.0
H672 H 0.4846 0.30566 0.33118 0.0
H673 H 0.52748 0.33382 0.16328 0.0
H674 H 0.50588 0.35111 0.45035 0.0
H675 H 0.47582 0.3556 0.4141 0.0
H676 H 0.48523 0.32517 0.4368 0.0
H677 H 0.5526 0.37007 0.17193 0.0
H678 H 0.52923 0.3914 0.19727 0.0
H679 H 0.55517 0.38577 0.25101 0.0
H680 H 0.47511 0.432 0.35558 0.0
H681 H 0.54324 0.42097 0.46283 0.0
H682 H 0.4652 0.37509 0.29872 0.0
H683 H 0.48407 0.38707 0.23104 0.0
H684 H 0.46132 0.40619 0.27052 0.0
H685 H 0.55024 0.36261 0.44156 0.0
H686 H 0.57086 0.38886 0.43306 0.0
H687 H 0.56428 0.3697 0.36172 0.0
C688 C 0.17124 0.44874 0.25573 0.0
C689 C 0.16861 0.42391 0.23981 0.0
C690 C 0.15143 0.46147 0.28432 0.0
C691 C 0.12859 0.44893 0.29829 0.0
C692 C 0.12564 0.42396 0.28091 0.0
C693 C 0.1457 0.41176 0.25141 0.0
C694 C 0.15516 0.48818 0.30114 0.0
C695 C 0.10174 0.40981 0.29604 0.0
C696 C 0.09157 0.47309 0.44468 0.0
C697 C 0.07203 0.4852 0.41255 0.0
C698 C 0.10975 0.46091 0.40794 0.0
C699 C 0.10884 0.46134 0.33706 0.0
C700 C 0.0895 0.47393 0.30402 0.0
C701 C 0.07112 0.48557 0.34231 0.0
C702 C 0.12969 0.44719 0.44521 0.0
C703 C 0.08823 0.47501 0.22841 0.0
H704 H 0.18882 0.45825 0.24541 0.0
H705 H 0.14369 0.39255 0.23893 0.0
H706 H 0.13972 0.4991 0.28033 0.0
H707 H 0.15484 0.49044 0.35642 0.0
H708 H 0.17316 0.49579 0.2813 0.0
H709 H 0.10098 0.39194 0.26995 0.0
H710 H 0.1003 0.40625 0.35088 0.0
H711 H 0.08527 0.42052 0.28122 0.0
H712 H 0.0922 0.4723 0.49905 0.0
H713 H 0.05597 0.49479 0.31741 0.0
H714 H 0.1484 0.45484 0.43172 0.0
H715 H 0.1293 0.42766 0.43038 0.0
H716 H 0.12729 0.44809 0.50058 0.0
H717 H 0.10509 0.48467 0.208 0.0
H718 H 0.07141 0.48461 0.21046 0.0
H719 H 0.08807 0.45623 0.20768 0.0
C720 C 0.07224 0.80837 0.86974 0.0
C721 C 0.0693 0.8092 0.93971 0.0
C722 C 0.06808 0.82912 0.82954 0.0
C723 C 0.0609 0.8512 0.86017 0.0
C724 C 0.05991 0.85268 0.931 0.0
C725 C 0.06404 0.83164 0.96993 0.0
C726 C 0.06949 0.82685 0.75415 0.0
C727 C 0.05246 0.87592 0.96564 0.0
C728 C 0.0565 0.90951 0.75504 0.0
C729 C 0.03092 0.90962 0.74042 0.0
C730 C 0.06667 0.89061 0.794 0.0
C731 C 0.05088 0.87142 0.81854 0.0
C732 C 0.02507 0.87149 0.80395 0.0
C733 C 0.01542 0.89058 0.76523 0.0
C734 C 0.09425 0.89115 0.8089 0.0
C735 C 0.00757 0.85133 0.82914 0.0
H736 H 0.07671 0.79118 0.84617 0.0
H737 H 0.06147 0.83245 0.02387 0.0
H738 H 0.05034 0.82678 0.73336 0.0
H739 H 0.0798 0.84273 0.73152 0.0
H740 H 0.07872 0.80975 0.73862 0.0
H741 H 0.05625 0.87521 0.02037 0.0
H742 H 0.06253 0.89201 0.94339 0.0
H743 H 0.03219 0.87876 0.95862 0.0
H744 H 0.06859 0.92417 0.73598 0.0
H745 H 0.99566 0.89046 0.75411 0.0
H746 H 0.10299 0.87433 0.78969 0.0
H747 H 0.09717 0.89139 0.86397 0.0
H748 H 0.104 0.90735 0.78603 0.0
H749 H 0.01383 0.83336 0.81053 0.0
H750 H 0.98802 0.85402 0.81287 0.0
H751 H 0.00786 0.85047 0.8848 0.0
C752 C 0.69032 0.06671 0.87683 0.0
C753 C 0.68867 0.06729 0.9471 0.0
C754 C 0.66944 0.06064 0.83796 0.0
C755 C 0.64631 0.05526 0.87015 0.0
C756 C 0.64411 0.05744 0.94065 0.0
C757 C 0.66536 0.06332 0.97835 0.0
C758 C 0.67254 0.05851 0.76285 0.0
C759 C 0.6197 0.05206 0.97673 0.0
C760 C 0.58898 0.04956 0.75977 0.0
C761 C 0.58732 0.02413 0.75083 0.0
C762 C 0.60775 0.06002 0.79979 0.0
C763 C 0.62533 0.04468 0.83095 0.0
C764 C 0.62343 0.01898 0.82309 0.0
C765 C 0.60439 0.00903 0.78341 0.0
C766 C 0.60905 0.08746 0.80782 0.0
C767 C 0.64189 0.00199 0.85531 0.0
H768 H 0.70819 0.07018 0.8523 0.0
H769 H 0.66392 0.06348 0.03264 0.0
H770 H 0.67057 0.03901 0.74839 0.0
H771 H 0.65776 0.06871 0.73651 0.0
H772 H 0.69104 0.06556 0.74501 0.0
H773 H 0.62021 0.05786 0.03 0.0
H774 H 0.60415 0.06143 0.95128 0.0
H775 H 0.61553 0.0321 0.97554 0.0
H776 H 0.57578 0.06133 0.73493 0.0
H777 H 0.60326 0.98937 0.7768 0.0
H778 H 0.6267 0.09485 0.78543 0.0
H779 H 0.60916 0.09218 0.86186 0.0
H780 H 0.59316 0.09671 0.78345 0.0
H781 H 0.66098 0.00633 0.83612 0.0
H782 H 0.63751 0.98242 0.84526 0.0
H783 H 0.64208 0.00466 0.91043 0.0
C784 C 0.3856 0.66321 0.92368 0.0
C785 C 0.40563 0.68015 0.92431 0.0
C786 C 0.38798 0.64034 0.89274 0.0
C787 C 0.41091 0.63436 0.86183 0.0
C788 C 0.43103 0.65152 0.86152 0.0
C789 C 0.42817 0.67411 0.8929 0.0
C790 C 0.36613 0.62249 0.89384 0.0
C791 C 0.45582 0.64586 0.82907 0.0
C792 C 0.4327 0.56967 0.83426 0.0
C793 C 0.43032 0.56762 0.76448 0.0
C794 C 0.42483 0.59072 0.8676 0.0
C795 C 0.41435 0.61011 0.8302 0.0
C796 C 0.41022 0.60737 0.76061 0.0
C797 C 0.41823 0.58614 0.72859 0.0
C798 C 0.42937 0.59289 0.94203 0.0
C799 C 0.39901 0.62758 0.71899 0.0
H800 H 0.36808 0.6678 0.94756 0.0
H801 H 0.44393 0.68682 0.89446 0.0
H802 H 0.36126 0.61716 0.84191 0.0
H803 H 0.37126 0.60554 0.92117 0.0
H804 H 0.34936 0.63019 0.91834 0.0
H805 H 0.4694 0.66143 0.83195 0.0
H806 H 0.46403 0.62967 0.85401 0.0
H807 H 0.45311 0.64125 0.77548 0.0
H808 H 0.44184 0.55538 0.86249 0.0
H809 H 0.41605 0.58463 0.67472 0.0
H810 H 0.41253 0.59971 0.968 0.0
H811 H 0.44476 0.60634 0.95059 0.0
H812 H 0.43453 0.57512 0.96523 0.0
H813 H 0.38214 0.63476 0.74403 0.0
H814 H 0.39389 0.62133 0.66794 0.0
H815 H 0.41271 0.64299 0.71378 0.0
C816 C 0.81023 0.4518 0.94052 0.0
C817 C 0.80918 0.46655 -0.00235 0.0
C818 C 0.83171 0.45157 0.89974 0.0
C819 C 0.85267 0.46636 0.91671 0.0
C820 C 0.85223 0.48023 0.97627 0.0
C821 C 0.83047 0.48026 0.01581 0.0
C822 C 0.83146 0.43654 0.83657 0.0
C823 C 0.87421 0.49619 0.99622 0.0
C824 C 0.91411 0.45764 0.82335 0.0
C825 C 0.91316 0.47631 0.77456 0.0
C826 C 0.89465 0.45421 0.87053 0.0
C827 C 0.87374 0.46966 0.86826 0.0
C828 C 0.87277 0.48856 0.8193 0.0
C829 C 0.89249 0.49171 0.77339 0.0
C830 C 0.8964 0.43407 0.92263 0.0
C831 C 0.85075 0.50538 0.81493 0.0
H832 H 0.79403 0.44084 0.92678 0.0
H833 H 0.82979 0.49197 0.05934 0.0
H834 H 0.83146 0.44894 0.79208 0.0
H835 H 0.84849 0.42538 0.83325 0.0
H836 H 0.81481 0.42415 0.83409 0.0
H837 H 0.87214 0.50332 0.04796 0.0
H838 H 0.89178 0.48584 0.99308 0.0
H839 H 0.87604 0.512 0.96098 0.0
H840 H 0.93003 0.44571 0.82466 0.0
H841 H 0.8915 0.50614 0.73579 0.0
H842 H 0.88049 0.42096 0.91743 0.0
H843 H 0.89516 0.44189 0.9737 0.0
H844 H 0.91408 0.42388 0.91832 0.0
H845 H 0.83336 0.49449 0.80679 0.0
H846 H 0.85283 0.51908 0.77355 0.0
H847 H 0.84845 0.51528 0.86285 0.0
C848 C 0.02155 0.19689 0.85944 0.0
C849 C 0.02303 0.1993 0.92934 0.0
C850 C 0.01577 0.17417 0.83029 0.0
C851 C 0.0114 0.15332 0.87204 0.0
C852 C 0.01265 0.15566 0.94258 0.0
C853 C 0.01848 0.17857 0.97032 0.0
C854 C 0.01451 0.17243 0.75476 0.0
C855 C 0.00827 0.13387 0.98875 0.0
C856 C 0.97586 0.1004 0.79244 0.0
C857 C 0.99535 0.08553 0.77072 0.0
C858 C 0.98074 0.12206 0.82768 0.0
C859 C 0.00573 0.12905 0.84161 0.0
C860 C 0.02537 0.11339 0.82334 0.0
C861 C 0.01994 0.09178 0.78822 0.0
C862 C 0.95924 0.13809 0.84693 0.0
C863 C 0.05225 0.12008 0.83779 0.0
H864 H 0.0249 0.21282 0.82748 0.0
H865 H 0.02012 0.18009 0.02432 0.0
H866 H 0.02841 0.1592 0.73644 0.0
H867 H 0.99582 0.16547 0.73967 0.0
H868 H 0.01817 0.19036 0.72939 0.0
H869 H 0.00922 0.13889 0.04258 0.0
H870 H 0.98971 0.12534 0.97905 0.0
H871 H 0.02244 0.11979 0.9787 0.0
H872 H 0.95678 0.09562 0.77949 0.0
H873 H 0.03513 0.08046 0.7715 0.0
H874 H 0.96032 0.15541 0.81737 0.0
H875 H 0.96032 0.14299 0.90073 0.0
H876 H 0.94084 0.12906 0.83772 0.0
H877 H 0.05792 0.13648 0.80764 0.0
H878 H 0.0651 0.105 0.82564 0.0
H879 H 0.05447 0.12482 0.89145 0.0
C880 C 0.32824 0.05061 0.87705 0.0
C881 C 0.30382 0.04413 0.8588 0.0
C882 C 0.34884 0.04063 0.84418 0.0
C883 C 0.3449 0.02416 0.79076 0.0
C884 C 0.32019 0.0175 0.77223 0.0
C885 C 0.29987 0.02736 0.80721 0.0
C886 C 0.37481 0.04781 0.86653 0.0
C887 C 0.31527 0.00033 0.71476 0.0
C888 C 0.39824 0.01999 0.66503 0.0
C889 C 0.40902 -0.00227 0.68337 0.0
C890 C 0.37703 0.02848 0.6986 0.0
C891 C 0.3667 0.01468 0.75297 0.0
C892 C 0.37774 0.99234 0.77239 0.0
C893 C 0.39859 0.98397 0.73674 0.0
C894 C 0.36559 0.05216 0.6756 0.0
C895 C 0.36768 0.97744 0.83122 0.0
H896 H 0.33118 0.06333 0.91783 0.0
H897 H 0.28092 0.02233 0.79358 0.0
H898 H 0.38557 0.03119 0.87862 0.0
H899 H 0.38488 0.05766 0.82524 0.0
H900 H 0.37462 0.05976 0.91131 0.0
H901 H 0.29501 -0.00313 0.70694 0.0
H902 H 0.32349 0.00818 0.66778 0.0
H903 H 0.32438 0.98258 0.72418 0.0
H904 H 0.40604 0.03055 0.62325 0.0
H905 H 0.40693 0.96678 0.75113 0.0
H906 H 0.36646 0.06577 0.7165 0.0
H907 H 0.3456 0.04904 0.66363 0.0
H908 H 0.3752 0.06012 0.63059 0.0
H909 H 0.36804 0.98868 0.87731 0.0
H910 H 0.37857 0.96064 0.84036 0.0
H911 H 0.34794 0.97202 0.82231 0.0
C912 C 0.48179 0.31387 0.78277 0.0
C913 C 0.466 0.31189 0.83907 0.0
C914 C 0.48557 0.33648 0.74922 0.0
C915 C 0.47371 0.35767 0.7735 0.0
C916 C 0.45757 0.35566 0.82992 0.0
C917 C 0.45382 0.33282 0.8617 0.0
C918 C 0.50263 0.33779 0.68857 0.0
C919 C 0.44493 0.37782 0.85826 0.0
C920 C 0.50536 0.41914 0.73437 0.0
C921 C 0.49057 0.42829 0.68243 0.0
C922 C 0.49982 0.39641 0.76506 0.0
C923 C 0.47924 0.38219 0.7424 0.0
C924 C 0.464 0.39148 0.69054 0.0
C925 C 0.46971 0.41454 0.66158 0.0
C926 C 0.51623 0.38747 0.82117 0.0
C927 C 0.4421 0.37675 0.66439 0.0
H928 H 0.49121 0.29774 0.76512 0.0
H929 H 0.44198 0.33152 0.90601 0.0
H930 H 0.49292 0.34642 0.64565 0.0
H931 H 0.51925 0.34943 0.69967 0.0
H932 H 0.50903 0.31943 0.67324 0.0
H933 H 0.43213 0.373 0.90073 0.0
H934 H 0.45923 0.39112 0.87621 0.0
H935 H 0.43411 0.38717 0.81865 0.0
H936 H 0.5215 0.42971 0.75068 0.0
H937 H 0.45843 0.42137 0.62078 0.0
H938 H 0.52542 0.37032 0.80613 0.0
H939 H 0.50475 0.38318 0.86652 0.0
H940 H 0.53091 0.40115 0.83464 0.0
H941 H 0.44872 0.35922 0.64367 0.0
H942 H 0.43189 0.38669 0.62451 0.0
H943 H 0.42889 0.37212 0.70594 0.0
C944 C 0.19472 0.43471 0.81662 0.0
C945 C 0.19368 0.41485 0.86169 0.0
C946 C 0.1729 0.44361 0.78722 0.0
C947 C 0.14949 0.43263 0.80431 0.0
C948 C 0.14847 0.41197 0.84775 0.0
C949 C 0.17059 0.40326 0.87566 0.0
C950 C 0.17479 0.46542 0.74017 0.0
C951 C 0.12389 0.39993 0.86786 0.0
C952 C 0.09418 0.47486 0.79432 0.0
C953 C 0.08326 0.46785 0.73366 0.0
C954 C 0.11528 0.46298 0.81886 0.0
C955 C 0.12601 0.44397 0.78107 0.0
C956 C 0.1147 0.43641 0.72055 0.0
C957 C 0.09329 0.4483 0.69787 0.0
C958 C 0.1265 0.47125 0.88434 0.0
C959 C 0.12578 0.41648 0.6784 0.0
H960 H 0.21255 0.44365 0.80569 0.0
H961 H 0.16963 0.38817 0.91146 0.0
H962 H 0.16439 0.46168 0.69332 0.0
H963 H 0.16617 0.48149 0.7641 0.0
H964 H 0.19445 0.4703 0.72689 0.0
H965 H 0.12645 0.38281 0.8974 0.0
H966 H 0.11294 0.41277 0.89866 0.0
H967 H 0.11269 0.39559 0.8228 0.0
H968 H 0.08646 0.48994 0.82211 0.0
H969 H 0.0851 0.44301 0.65044 0.0
H970 H 0.14547 0.47914 0.8751 0.0
H971 H 0.12847 0.45538 0.919 0.0
H972 H 0.11505 0.48524 0.90956 0.0
H973 H 0.14462 0.42236 0.66033 0.0
H974 H 0.11411 0.412 0.63419 0.0
H975 H 0.12808 0.39961 0.70903 0.0
C976 C 0.01479 0.81185 0.3442 0.0
C977 C -0.00259 0.80364 0.29672 0.0
C978 C 0.01239 0.83459 0.37526 0.0
C979 C 0.99216 0.84969 0.3583 0.0
C980 C 0.97392 0.84115 0.31266 0.0
C981 C 0.97676 0.81822 0.28235 0.0
C982 C 0.03224 0.84295 0.42384 0.0
C983 C 0.95198 0.85665 0.29379 0.0
C984 C 0.98383 0.90232 0.47868 0.0
C985 C -0.0016 0.92084 0.4473 0.0
C986 C 0.98021 0.87944 0.44832 0.0
C987 C 0.99139 0.87501 0.38511 0.0
C988 C 0.00458 0.89421 0.35113 0.0
C989 C 0.00792 0.91688 0.38262 0.0
C990 C 0.96586 0.85953 0.48598 0.0
C991 C 0.01664 0.8903 0.2834 0.0
H992 H 0.03107 0.80104 0.35484 0.0
H993 H 0.9631 0.81192 0.24627 0.0
H994 H 0.04258 0.85905 0.40246 0.0
H995 H 0.02355 0.84873 0.4717 0.0
H996 H 0.04584 0.82839 0.43503 0.0
H997 H 0.93807 0.84636 0.26347 0.0
H998 H 0.9426 0.86356 0.33946 0.0
H999 H 0.95866 0.87283 0.26418 0.0
H1000 H 0.97625 0.90522 0.52852 0.0
H1001 H 0.01899 0.93114 0.35767 0.0
H1002 H 0.97908 0.84578 0.50525 0.0
H1003 H 0.95269 0.84988 0.45217 0.0
H1004 H 0.95523 0.86684 0.52921 0.0
H1005 H 0.03245 0.87763 0.28897 0.0
H1006 H 0.02385 0.9077 0.26049 0.0
H1007 H 0.00313 0.88172 0.24846 0.0
C1008 C 0.69539 0.97898 0.30587 0.0
C1009 C 0.70419 0.00323 0.31212 0.0
C1010 C 0.67249 0.97132 0.33496 0.0
C1011 C 0.65803 0.98838 0.37056 0.0
C1012 C 0.66726 0.0126 0.37901 0.0
C1013 C 0.69015 0.0197 0.34974 0.0
C1014 C 0.66338 0.94528 0.32562 0.0
C1015 C 0.65245 0.03143 0.41655 0.0
C1016 C 0.58764 0.98647 0.38511 0.0
C1017 C 0.58431 0.98149 0.45384 0.0
C1018 C 0.61155 0.98678 0.35576 0.0
C1019 C 0.63256 0.9818 0.39604 0.0
C1020 C 0.62902 0.97438 0.46377 0.0
C1021 C 0.60492 0.97437 0.49196 0.0
C1022 C 0.61447 0.99464 0.28318 0.0
C1023 C 0.65086 0.9685 0.50813 0.0
H1024 H 0.7062 0.9661 0.27724 0.0
H1025 H 0.69647 0.03859 0.35377 0.0
H1026 H 0.65705 0.93716 0.37427 0.0
H1027 H 0.64711 0.94505 0.29155 0.0
H1028 H 0.67805 0.93357 0.30385 0.0
H1029 H 0.66276 0.04917 0.42106 0.0
H1030 H 0.63465 0.03477 0.39016 0.0
H1031 H 0.64767 0.02456 0.46774 0.0
H1032 H 0.57183 0.99177 0.35503 0.0
H1033 H 0.6025 0.97015 0.54494 0.0
H1034 H 0.62749 0.98251 0.2564 0.0
H1035 H 0.62254 0.0135 0.28067 0.0
H1036 H 0.59635 0.99451 0.25647 0.0
H1037 H 0.6645 0.95707 0.48117 0.0
H1038 H 0.64482 0.95878 0.55494 0.0
H1039 H 0.66063 0.98576 0.52219 0.0
C1040 C 0.45301 0.69336 0.34284 0.0
C1041 C 0.46887 0.70009 0.28891 0.0
C1042 C 0.45644 0.67162 0.37943 0.0
C1043 C 0.47582 0.65574 0.36088 0.0
C1044 C 0.49273 0.66291 0.30905 0.0
C1045 C 0.48923 0.68512 0.27427 0.0
C1046 C 0.43828 0.66494 0.43537 0.0
C1047 C 0.51356 0.64645 0.2875 0.0
C1048 C 0.48758 0.60325 0.48311 0.0
C1049 C 0.47115 0.58519 0.4588 0.0
C1050 C 0.49021 0.6261 0.45025 0.0
C1051 C 0.47649 0.63068 0.39107 0.0
C1052 C 0.46122 0.61181 0.36401 0.0
C1053 C 0.4585 0.58943 0.39867 0.0
C1054 C 0.50635 0.64581 0.48133 0.0
C1055 C 0.44673 0.61568 0.30017 0.0
H1056 H 0.43697 0.70434 0.35451 0.0
H1057 H 0.50203 0.69029 0.23398 0.0
H1058 H 0.42602 0.6495 0.41942 0.0
H1059 H 0.44843 0.65881 0.48068 0.0
H1060 H 0.42632 0.68052 0.44922 0.0
H1061 H 0.52688 0.65587 0.25237 0.0
H1062 H 0.52398 0.63974 0.33169 0.0
H1063 H 0.50552 0.63017 0.26203 0.0
H1064 H 0.49724 0.60009 0.52993 0.0
H1065 H 0.44593 0.57541 0.37953 0.0
H1066 H 0.49425 0.65998 0.50324 0.0
H1067 H 0.51839 0.655 0.44279 0.0
H1068 H 0.51836 0.63843 0.5217 0.0
H1069 H 0.43176 0.62905 0.30914 0.0
H1070 H 0.438 0.59841 0.28189 0.0
H1071 H 0.45912 0.62341 0.26008 0.0
C1072 C 0.80899 0.55247 0.2687 0.0
C1073 C 0.78609 0.55537 0.30216 0.0
C1074 C 0.83148 0.55234 0.30412 0.0
C1075 C 0.83101 0.55506 0.37466 0.0
C1076 C 0.80844 0.56123 0.40723 0.0
C1077 C 0.78618 0.56131 0.37051 0.0
C1078 C 0.85514 0.54599 0.2671 0.0
C1079 C 0.8072 0.56479 0.48217 0.0
C1080 C 0.87151 0.51066 0.46896 0.0
C1081 C 0.89166 0.52554 0.48887 0.0
C1082 C 0.85176 0.52023 0.43224 0.0
C1083 C 0.852 0.54544 0.41488 0.0
C1084 C 0.87226 0.56068 0.43465 0.0
C1085 C 0.89195 0.55052 0.47148 0.0
C1086 C 0.83063 0.50318 0.41179 0.0
C1087 C 0.87304 0.58764 0.41729 0.0
H1088 H 0.80925 0.54782 0.21594 0.0
H1089 H 0.76862 0.56414 0.39641 0.0
H1090 H 0.87142 0.55639 0.28686 0.0
H1091 H 0.85876 0.5262 0.27428 0.0
H1092 H 0.85366 0.54975 0.21236 0.0
H1093 H 0.79017 0.5747 0.49728 0.0
H1094 H 0.80678 0.54661 0.50764 0.0
H1095 H 0.82386 0.57505 0.50014 0.0
H1096 H 0.87111 0.49134 0.48195 0.0
H1097 H 0.90743 0.56214 0.48701 0.0
H1098 H 0.82903 0.50305 0.3563 0.0
H1099 H 0.81269 0.50969 0.43245 0.0
H1100 H 0.8333 0.48407 0.42958 0.0
H1101 H 0.87108 0.59037 0.36234 0.0
H1102 H 0.89064 0.59676 0.43363 0.0
H1103 H 0.8571 0.59679 0.44168 0.0
loop_
_geom_bond_atom_site_label_1
_geom_bond_atom_site_label_2
_geom_bond_distance
_geom_bond_site_symmetry_2
_ccdc_geom_bond_type
P0 O11 1.490 . S
P0 C14 1.812 . S
P0 C20 1.805 . S
P0 C26 1.819 1_554 S
H1 C15 0.941 . S
H2 C16 0.939 . S
H3 C18 0.940 . S
H4 C19 0.940 . S
H5 C21 0.939 . S
H6 C22 0.942 . S
H7 C24 0.940 1_554 S
H8 C25 0.939 . S
H9 C27 0.941 . S
H10 C31 0.939 . S
O11 P0 1.490 . S
H12 C28 0.939 . S
H13 C30 0.940 . S
C14 P0 1.812 . S
C14 C15 1.389 . S
C14 C19 1.391 . S
C15 H1 0.941 . S
C15 C14 1.389 . S
C15 C16 1.397 . S
C16 H2 0.939 . S
C16 C15 1.397 . S
C16 C17 1.378 . S
C17 C16 1.378 . S
C17 C18 1.378 . S
C18 H3 0.940 . S
C18 C17 1.378 . S
C18 C19 1.396 . S
C19 H4 0.940 . S
C19 C14 1.391 . S
C19 C18 1.396 . S
C20 P0 1.805 . S
C20 C21 1.375 1_554 S
C20 C25 1.401 . S
C21 H5 0.939 . S
C21 C20 1.375 1_556 S
C21 C22 1.361 . S
C22 H6 0.942 . S
C22 C21 1.361 . S
C22 C23 1.369 . S
C23 C22 1.369 . S
C23 C24 1.403 . S
C24 H7 0.940 1_556 S
C24 C23 1.403 . S
C24 C25 1.389 1_556 S
C25 H8 0.939 . S
C25 C20 1.401 . S
C25 C24 1.389 1_554 S
C26 P0 1.819 1_556 S
C26 C27 1.391 . S
C26 C31 1.391 . S
C27 H9 0.941 . S
C27 C26 1.391 . S
C27 C28 1.396 . S
C28 H12 0.939 . S
C28 C27 1.396 . S
C28 C29 1.397 . S
C29 C28 1.397 . S
C29 C30 1.385 . S
C30 H13 0.940 . S
C30 C29 1.385 . S
C30 C31 1.388 . S
C31 H10 0.939 . S
C31 C26 1.391 . S
C31 C30 1.388 . S
P32 O43 1.490 . S
P32 C46 1.812 . S
P32 C52 1.803 . S
P32 C58 1.819 1_554 S
H33 C47 0.941 . S
H34 C48 0.939 . S
H35 C50 0.940 . S
H36 C51 0.950 . S
H37 C53 0.939 . S
H38 C54 0.942 . S
H39 C56 0.940 . S
H40 C57 0.959 . S
H41 C59 0.941 1_554 S
H42 C63 0.930 1_655 S
O43 P32 1.490 . S
H44 C60 0.939 . S
H45 C62 0.940 . S
C46 P32 1.812 . S
C46 C47 1.389 . S
C46 C51 1.375 1_455 S
C47 H33 0.941 . S
C47 C46 1.389 . S
C47 C48 1.397 . S
C48 H34 0.939 . S
C48 C47 1.397 . S
C48 C49 1.378 . S
C49 C48 1.378 . S
C49 C50 1.378 1_455 S
C50 H35 0.940 . S
C50 C49 1.378 1_655 S
C50 C51 1.403 . S
C51 H36 0.950 . S
C51 C46 1.375 1_655 S
C51 C50 1.403 . S
C52 P32 1.803 . S
C52 C53 1.378 1_554 S
C52 C57 1.369 1_455 S
C53 H37 0.939 . S
C53 C52 1.378 1_556 S
C53 C54 1.361 . S
C54 H38 0.942 . S
C54 C53 1.361 . S
C54 C55 1.369 . S
C55 C54 1.369 . S
C55 C56 1.404 1_456 S
C56 H39 0.940 . S
C56 C55 1.404 1_654 S
C56 C57 1.401 . S
C57 H40 0.959 . S
C57 C52 1.369 1_655 S
C57 C56 1.401 . S
C58 P32 1.819 1_556 S
C58 C59 1.391 . S
C58 C63 1.391 . S
C59 H41 0.941 1_556 S
C59 C58 1.391 . S
C59 C60 1.396 . S
C60 H44 0.939 . S
C60 C59 1.396 . S
C60 C61 1.397 . S
C61 C60 1.397 . S
C61 C62 1.385 1_455 S
C62 H45 0.940 . S
C62 C61 1.385 1_655 S
C62 C63 1.388 1_655 S
C63 H42 0.930 1_455 S
C63 C58 1.391 . S
C63 C62 1.388 1_455 S
P64 O75 1.490 . S
P64 C78 1.812 . S
P64 C84 1.803 . S
P64 C90 1.819 1_554 S
H65 C79 0.941 . S
H66 C80 0.939 . S
H67 C82 0.940 . S
H68 C83 0.940 . S
H69 C85 0.939 . S
H70 C86 0.942 . S
H71 C88 0.940 . S
H72 C89 0.939 . S
H73 C91 0.936 1_554 S
H74 C95 0.939 . S
O75 P64 1.490 . S
H76 C92 0.939 . S
H77 C94 0.940 . S
C78 P64 1.812 . S
C78 C79 1.389 . S
C78 C83 1.391 . S
C79 H65 0.941 . S
C79 C78 1.389 . S
C79 C80 1.397 . S
C80 H66 0.939 . S
C80 C79 1.397 . S
C80 C81 1.378 . S
C81 C80 1.378 . S
C81 C82 1.378 . S
C82 H67 0.940 . S
C82 C81 1.378 . S
C82 C83 1.396 . S
C83 H68 0.940 . S
C83 C78 1.391 . S
C83 C82 1.396 . S
C84 P64 1.803 . S
C84 C85 1.378 1_554 S
C84 C89 1.400 . S
C85 H69 0.939 . S
C85 C84 1.378 1_556 S
C85 C86 1.361 . S
C86 H70 0.942 . S
C86 C85 1.361 . S
C86 C87 1.369 . S
C87 C86 1.369 . S
C87 C88 1.404 1_556 S
C88 H71 0.940 . S
C88 C87 1.404 1_554 S
C88 C89 1.389 . S
C89 H72 0.939 . S
C89 C84 1.400 . S
C89 C88 1.389 . S
C90 P64 1.819 1_556 S
C90 C91 1.391 . S
C90 C95 1.391 . S
C91 H73 0.936 1_556 S
C91 C90 1.391 . S
C91 C92 1.396 . S
C92 H76 0.939 . S
C92 C91 1.396 . S
C92 C93 1.397 . S
C93 C92 1.397 . S
C93 C94 1.385 . S
C94 H77 0.940 . S
C94 C93 1.385 . S
C94 C95 1.388 . S
C95 H74 0.939 . S
C95 C90 1.391 . S
C95 C94 1.388 . S
P96 O107 1.490 . S
P96 C110 1.812 . S
P96 C116 1.803 . S
P96 C122 1.819 1_554 S
H97 C111 0.941 . S
H98 C112 0.939 . S
H99 C114 0.940 . S
H100 C115 0.940 . S
H101 C117 0.939 . S
H102 C118 0.942 . S
H103 C120 0.940 . S
H104 C121 0.939 . S
H105 C123 0.941 1_554 S
H106 C127 0.939 . S
O107 P96 1.490 . S
H108 C124 0.939 . S
H109 C126 0.940 . S
C110 P96 1.812 . S
C110 C111 1.389 . S
C110 C115 1.391 . S
C111 H97 0.941 . S
C111 C110 1.389 . S
C111 C112 1.397 . S
C112 H98 0.939 . S
C112 C111 1.397 . S
C112 C113 1.378 . S
C113 C112 1.378 . S
C113 C114 1.378 . S
C114 H99 0.940 . S
C114 C113 1.378 . S
C114 C115 1.396 . S
C115 H100 0.940 . S
C115 C110 1.391 . S
C115 C114 1.396 . S
C116 P96 1.803 . S
C116 C117 1.378 1_554 S
C116 C121 1.400 . S
C117 H101 0.939 . S
C117 C116 1.378 1_556 S
C117 C118 1.361 . S
C118 H102 0.942 . S
C118 C117 1.361 . S
C118 C119 1.369 . S
C119 C118 1.369 . S
C119 C120 1.404 1_556 S
C120 H103 0.940 . S
C120 C119 1.404 1_554 S
C120 C121 1.389 . S
C121 H104 0.939 . S
C121 C116 1.400 . S
C121 C120 1.389 . S
C122 P96 1.819 1_556 S
C122 C123 1.391 . S
C122 C127 1.391 . S
C123 H105 0.941 1_556 S
C123 C122 1.391 . S
C123 C124 1.396 . S
C124 H108 0.939 . S
C124 C123 1.396 . S
C124 C125 1.397 . S
C125 C124 1.397 . S
C125 C126 1.385 . S
C126 H109 0.940 . S
C126 C125 1.385 . S
C126 C127 1.388 . S
C127 H106 0.939 . S
C127 C122 1.391 . S
C127 C126 1.388 . S
P128 O139 1.490 . S
P128 C142 1.812 . S
P128 C148 1.803 . S
P128 C154 1.819 . S
H129 C143 0.941 . S
H130 C144 0.939 . S
H131 C146 0.940 . S
H132 C147 0.940 . S
H133 C149 0.939 . S
H134 C150 0.942 . S
H135 C152 0.940 . S
H136 C153 0.939 . S
H137 C155 0.941 . S
H138 C159 0.939 . S
O139 P128 1.490 . S
H140 C156 0.939 . S
H141 C158 0.940 . S
C142 P128 1.812 . S
C142 C143 1.389 . S
C142 C147 1.391 . S
C143 H129 0.941 . S
C143 C142 1.389 . S
C143 C144 1.397 1_554 S
C144 H130 0.939 . S
C144 C143 1.397 1_556 S
C144 C145 1.378 . S
C145 C144 1.378 . S
C145 C146 1.378 1_556 S
C146 H131 0.940 . S
C146 C145 1.378 1_554 S
C146 C147 1.396 . S
C147 H132 0.940 . S
C147 C142 1.391 . S
C147 C146 1.396 . S
C148 P128 1.803 . S
C148 C149 1.378 . S
C148 C153 1.400 . S
C149 H133 0.939 . S
C149 C148 1.378 . S
C149 C150 1.361 . S
C150 H134 0.942 . S
C150 C149 1.361 . S
C150 C151 1.369 . S
C151 C150 1.369 . S
C151 C152 1.404 . S
C152 H135 0.940 . S
C152 C151 1.404 . S
C152 C153 1.389 . S
C153 H136 0.939 . S
C153 C148 1.400 . S
C153 C152 1.389 . S
C154 P128 1.819 . S
C154 C155 1.391 . S
C154 C159 1.391 . S
C155 H137 0.941 . S
C155 C154 1.391 . S
C155 C156 1.396 . S
C156 H140 0.939 . S
C156 C155 1.396 . S
C156 C157 1.397 . S
C157 C156 1.397 . S
C157 C158 1.385 . S
C158 H141 0.940 . S
C158 C157 1.385 . S
C158 C159 1.388 . S
C159 H138 0.939 . S
C159 C154 1.391 . S
C159 C158 1.388 . S
P160 O171 1.490 . S
P160 C174 1.812 . S
P160 C180 1.803 . S
P160 C186 1.819 . S
H161 C175 0.941 . S
H162 C176 0.939 . S
H163 C178 0.940 . S
H164 C179 0.944 . S
H165 C181 0.939 . S
H166 C182 0.942 . S
H167 C184 0.940 . S
H168 C185 0.953 . S
H169 C187 0.941 . S
H170 C191 0.932 1_655 S
O171 P160 1.490 . S
H172 C188 0.939 . S
H173 C190 0.940 . S
C174 P160 1.812 . S
C174 C175 1.389 . S
C174 C179 1.385 1_455 S
C175 H161 0.941 . S
C175 C174 1.389 . S
C175 C176 1.397 1_554 S
C176 H162 0.939 . S
C176 C175 1.397 1_556 S
C176 C177 1.378 . S
C177 C176 1.378 . S
C177 C178 1.378 1_456 S
C178 H163 0.940 . S
C178 C177 1.378 1_654 S
C178 C179 1.399 . S
C179 H164 0.944 . S
C179 C174 1.385 1_655 S
C179 C178 1.399 . S
C180 P160 1.803 . S
C180 C181 1.378 . S
C180 C185 1.378 1_455 S
C181 H165 0.939 . S
C181 C180 1.378 . S
C181 C182 1.361 . S
C182 H166 0.942 . S
C182 C181 1.361 . S
C182 C183 1.369 . S
C183 C182 1.369 . S
C183 C184 1.404 1_455 S
C184 H167 0.940 . S
C184 C183 1.404 1_655 S
C184 C185 1.398 . S
C185 H168 0.953 . S
C185 C180 1.378 1_655 S
C185 C184 1.398 . S
C186 P160 1.819 . S
C186 C187 1.391 . S
C186 C191 1.391 . S
C187 H169 0.941 . S
C187 C186 1.391 . S
C187 C188 1.396 . S
C188 H172 0.939 . S
C188 C187 1.396 . S
C188 C189 1.397 . S
C189 C188 1.397 . S
C189 C190 1.385 1_455 S
C190 H173 0.940 . S
C190 C189 1.385 1_655 S
C190 C191 1.388 1_655 S
C191 H170 0.932 1_455 S
C191 C186 1.391 . S
C191 C190 1.388 1_455 S
P192 O203 1.490 . S
P192 C206 1.812 . S
P192 C212 1.803 . S
P192 C218 1.819 . S
H193 C207 0.941 . S
H194 C208 0.939 . S
H195 C210 0.940 . S
H196 C211 0.940 . S
H197 C213 0.939 . S
H198 C214 0.942 . S
H199 C216 0.940 . S
H200 C217 0.939 . S
H201 C219 0.941 . S
H202 C223 0.939 . S
O203 P192 1.490 . S
H204 C220 0.939 . S
H205 C222 0.940 . S
C206 P192 1.812 . S
C206 C207 1.389 . S
C206 C211 1.391 . S
C207 H193 0.941 . S
C207 C206 1.389 . S
C207 C208 1.397 1_554 S
C208 H194 0.939 . S
C208 C207 1.397 1_556 S
C208 C209 1.378 . S
C209 C208 1.378 . S
C209 C210 1.378 1_556 S
C210 H195 0.940 . S
C210 C209 1.378 1_554 S
C210 C211 1.396 . S
C211 H196 0.940 . S
C211 C206 1.391 . S
C211 C210 1.396 . S
C212 P192 1.803 . S
C212 C213 1.378 . S
C212 C217 1.400 . S
C213 H197 0.939 . S
C213 C212 1.378 . S
C213 C214 1.361 . S
C214 H198 0.942 . S
C214 C213 1.361 . S
C214 C215 1.369 . S
C215 C214 1.369 . S
C215 C216 1.404 . S
C216 H199 0.940 . S
C216 C215 1.404 . S
C216 C217 1.389 . S
C217 H200 0.939 . S
C217 C212 1.400 . S
C217 C216 1.389 . S
C218 P192 1.819 . S
C218 C219 1.391 . S
C218 C223 1.391 . S
C219 H201 0.941 . S
C219 C218 1.391 . S
C219 C220 1.396 . S
C220 H204 0.939 . S
C220 C219 1.396 . S
C220 C221 1.397 . S
C221 C220 1.397 . S
C221 C222 1.385 . S
C222 H205 0.940 . S
C222 C221 1.385 . S
C222 C223 1.388 . S
C223 H202 0.939 . S
C223 C218 1.391 . S
C223 C222 1.388 . S
P224 O235 1.490 . S
P224 C238 1.812 . S
P224 C244 1.803 . S
P224 C250 1.819 . S
H225 C239 0.941 . S
H226 C240 0.939 . S
H227 C242 0.940 . S
H228 C243 0.940 . S
H229 C245 0.939 . S
H230 C246 0.942 . S
H231 C248 0.940 . S
H232 C249 0.939 . S
H233 C251 0.941 . S
H234 C255 0.939 . S
O235 P224 1.490 . S
H236 C252 0.939 . S
H237 C254 0.940 . S
C238 P224 1.812 . S
C238 C239 1.389 . S
C238 C243 1.391 . S
C239 H225 0.941 . S
C239 C238 1.389 . S
C239 C240 1.397 1_554 S
C240 H226 0.939 . S
C240 C239 1.397 1_556 S
C240 C241 1.378 . S
C241 C240 1.378 . S
C241 C242 1.378 1_556 S
C242 H227 0.940 . S
C242 C241 1.378 1_554 S
C242 C243 1.396 . S
C243 H228 0.940 . S
C243 C238 1.391 . S
C243 C242 1.396 . S
C244 P224 1.803 . S
C244 C245 1.378 . S
C244 C249 1.400 . S
C245 H229 0.939 . S
C245 C244 1.378 . S
C245 C246 1.361 . S
C246 H230 0.942 . S
C246 C245 1.361 . S
C246 C247 1.369 . S
C247 C246 1.369 . S
C247 C248 1.404 . S
C248 H231 0.940 . S
C248 C247 1.404 . S
C248 C249 1.389 . S
C249 H232 0.939 . S
C249 C244 1.400 . S
C249 C248 1.389 . S
C250 P224 1.819 . S
C250 C251 1.391 . S
C250 C255 1.391 . S
C251 H233 0.941 . S
C251 C250 1.391 . S
C251 C252 1.396 . S
C252 H236 0.939 . S
C252 C251 1.396 . S
C252 C253 1.397 . S
C253 C252 1.397 . S
C253 C254 1.385 . S
C254 H237 0.940 . S
C254 C253 1.385 . S
C254 C255 1.388 . S
C255 H234 0.939 . S
C255 C250 1.391 . S
C255 C254 1.388 . S
Zn256 O262 1.969 . S
Zn256 O263 1.965 1_655 S
Zn256 O267 2.024 1_655 S
Zn256 O272 1.969 . S
Zn257 O264 1.969 . S
Zn257 O270 1.969 . S
Zn257 O271 1.965 1_455 S
Zn257 O273 2.024 1_455 S
C258 O259 1.229 1_455 S
C258 O267 1.058 . S
O259 C258 1.229 1_655 S
C260 O261 1.229 1_655 S
C260 O273 1.058 . S
O261 C260 1.229 1_455 S
O262 Zn256 1.969 . S
O262 C265 1.267 . S
O263 Zn256 1.965 1_455 S
O263 C274 1.260 . S
O264 Zn257 1.969 . S
O264 C274 1.258 1_565 S
C265 O262 1.267 . S
C265 O266 1.228 1_655 S
O266 C265 1.228 1_455 S
O267 Zn256 2.024 1_455 S
O267 C258 1.058 . S
C268 O269 1.228 1_455 S
C268 O270 1.267 . S
O269 C268 1.228 1_655 S
O270 Zn257 1.969 . S
O270 C268 1.267 . S
O271 Zn257 1.965 1_655 S
O271 C275 1.260 1_565 S
O272 Zn256 1.969 . S
O272 C275 1.258 . S
O273 Zn257 2.024 1_655 S
O273 C260 1.058 . S
C274 O263 1.260 . S
C274 O264 1.258 1_545 S
C275 O271 1.260 1_545 S
C275 O272 1.258 . S
Zn276 O282 1.969 . S
Zn276 O283 1.965 . S
Zn276 O287 2.024 . S
Zn276 O292 1.969 1_545 S
Zn277 O284 1.935 1_565 S
Zn277 O290 1.957 1_565 S
Zn277 O291 1.976 . S
Zn277 O293 2.048 . S
C278 O279 1.229 . S
C278 O287 1.058 . S
O279 C278 1.229 . S
C280 O281 1.256 . S
C280 O293 1.058 . S
O281 C280 1.256 . S
O282 Zn276 1.969 . S
O282 C285 1.267 . S
O283 Zn276 1.965 . S
O283 C294 1.260 . S
O284 Zn277 1.935 1_545 S
O284 C294 1.258 . S
C285 O282 1.267 . S
C285 O286 1.228 . S
O286 C285 1.228 . S
O287 Zn276 2.024 . S
O287 C278 1.058 . S
C288 O289 1.228 . S
C288 O290 1.267 1_565 S
O289 C288 1.228 . S
O290 Zn277 1.957 1_545 S
O290 C288 1.267 1_545 S
O291 Zn277 1.976 . S
O291 C295 1.260 . S
O292 Zn276 1.969 1_565 S
O292 C295 1.258 . S
O293 Zn277 2.048 . S
O293 C280 1.058 . S
C294 O283 1.260 . S
C294 O284 1.258 . S
C295 O291 1.260 . S
C295 O292 1.258 . S
Zn296 O302 1.969 . S
Zn296 O303 1.965 . S
Zn296 O307 2.024 . S
Zn296 O312 1.969 . S
Zn297 O304 1.969 . S
Zn297 O310 1.969 . S
Zn297 O311 1.965 . S
Zn297 O313 2.024 . S
C298 O299 1.229 . S
C298 O307 1.058 . S
O299 C298 1.229 . S
C300 O301 1.229 . S
C300 O313 1.058 . S
O301 C300 1.229 . S
O302 Zn296 1.969 . S
O302 C305 1.267 . S
O303 Zn296 1.965 . S
O303 C314 1.260 . S
O304 Zn297 1.969 . S
O304 C314 1.258 . S
C305 O302 1.267 . S
C305 O306 1.228 . S
O306 C305 1.228 . S
O307 Zn296 2.024 . S
O307 C298 1.058 . S
C308 O309 1.228 . S
C308 O310 1.267 . S
O309 C308 1.228 . S
O310 Zn297 1.969 . S
O310 C308 1.267 . S
O311 Zn297 1.965 . S
O311 C315 1.260 . S
O312 Zn296 1.969 . S
O312 C315 1.258 . S
O313 Zn297 2.024 . S
O313 C300 1.058 . S
C314 O303 1.260 . S
C314 O304 1.258 . S
C315 O311 1.260 . S
C315 O312 1.258 . S
Zn316 O322 1.969 . S
Zn316 O323 1.965 . S
Zn316 O327 2.024 . S
Zn316 O332 1.969 . S
Zn317 O324 1.969 . S
Zn317 O330 1.969 . S
Zn317 O331 1.965 . S
Zn317 O333 2.024 . S
C318 O319 1.229 . S
C318 O327 1.058 . S
O319 C318 1.229 . S
C320 O321 1.229 . S
C320 O333 1.058 . S
O321 C320 1.229 . S
O322 Zn316 1.969 . S
O322 C325 1.267 . S
O323 Zn316 1.965 . S
O323 C334 1.260 1_455 S
O324 Zn317 1.969 . S
O324 C334 1.258 . S
C325 O322 1.267 . S
C325 O326 1.228 . S
O326 C325 1.228 . S
O327 Zn316 2.024 . S
O327 C318 1.058 . S
C328 O329 1.228 . S
C328 O330 1.267 . S
O329 C328 1.228 . S
O330 Zn317 1.969 . S
O330 C328 1.267 . S
O331 Zn317 1.965 . S
O331 C335 1.260 1_655 S
O332 Zn316 1.969 . S
O332 C335 1.258 . S
O333 Zn317 2.024 . S
O333 C320 1.058 . S
C334 O323 1.260 1_655 S
C334 O324 1.258 . S
C335 O331 1.260 1_455 S
C335 O332 1.258 . S
C336 C337 1.391 . S
C336 C338 1.394 . S
C336 H352 0.931 . S
C337 C336 1.391 . S
C337 C341 1.376 . S
C338 C336 1.394 . S
C338 C339 1.369 . S
C338 C342 1.531 . S
C339 C338 1.369 . S
C339 C340 1.410 . S
C339 C347 1.503 . S
C340 C339 1.410 . S
C340 C341 1.392 . S
C340 C343 1.511 . S
C341 C337 1.376 . S
C341 C340 1.392 . S
C341 H353 0.929 . S
C342 C338 1.531 . S
C342 H354 0.960 . S
C342 H355 0.962 . S
C342 H356 0.960 . S
C343 C340 1.511 . S
C343 H357 0.961 . S
C343 H358 0.961 . S
C343 H359 0.961 . S
C344 C345 1.370 . S
C344 C346 1.363 . S
C344 H360 0.931 . S
C345 C344 1.370 . S
C345 C349 1.408 . S
C346 C344 1.363 . S
C346 C347 1.370 . S
C346 C350 1.524 . S
C347 C339 1.503 . S
C347 C346 1.370 . S
C347 C348 1.403 . S
C348 C347 1.403 . S
C348 C349 1.404 . S
C348 C351 1.539 1_545 S
C349 C345 1.408 . S
C349 C348 1.404 . S
C349 H361 0.930 1_545 S
C350 C346 1.524 . S
C350 H362 0.956 . S
C350 H363 0.961 . S
C350 H364 0.961 . S
C351 C348 1.539 1_565 S
C351 H365 0.958 . S
C351 H366 0.961 . S
C351 H367 0.960 1_565 S
H352 C336 0.931 . S
H353 C341 0.929 . S
H354 C342 0.960 . S
H355 C342 0.962 . S
H356 C342 0.960 . S
H357 C343 0.961 . S
H358 C343 0.961 . S
H359 C343 0.961 . S
H360 C344 0.931 . S
H361 C349 0.930 1_565 S
H362 C350 0.956 . S
H363 C350 0.961 . S
H364 C350 0.961 . S
H365 C351 0.958 . S
H366 C351 0.961 . S
H367 C351 0.960 1_545 S
C368 C369 1.391 . S
C368 C370 1.394 . S
C368 H384 0.931 . S
C369 C368 1.391 . S
C369 C373 1.376 . S
C370 C368 1.394 . S
C370 C371 1.369 . S
C370 C374 1.531 . S
C371 C370 1.369 . S
C371 C372 1.410 . S
C371 C379 1.503 . S
C372 C371 1.410 . S
C372 C373 1.392 . S
C372 C375 1.511 . S
C373 C369 1.376 . S
C373 C372 1.392 . S
C373 H385 0.929 . S
C374 C370 1.531 . S
C374 H386 0.960 . S
C374 H387 0.962 . S
C374 H388 0.960 . S
C375 C372 1.511 . S
C375 H389 0.961 . S
C375 H390 0.961 . S
C375 H391 0.961 . S
C376 C377 1.370 . S
C376 C378 1.363 . S
C376 H392 0.931 . S
C377 C376 1.370 . S
C377 C381 1.408 . S
C378 C376 1.363 . S
C378 C379 1.370 . S
C378 C382 1.524 . S
C379 C371 1.503 . S
C379 C378 1.370 . S
C379 C380 1.403 . S
C380 C379 1.403 . S
C380 C381 1.404 . S
C380 C383 1.539 . S
C381 C377 1.408 . S
C381 C380 1.404 . S
C381 H393 0.930 . S
C382 C378 1.524 . S
C382 H394 0.956 . S
C382 H395 0.961 . S
C382 H396 0.961 . S
C383 C380 1.539 . S
C383 H397 0.958 . S
C383 H398 0.961 . S
C383 H399 0.960 . S
H384 C368 0.931 . S
H385 C373 0.929 . S
H386 C374 0.960 . S
H387 C374 0.962 . S
H388 C374 0.960 . S
H389 C375 0.961 . S
H390 C375 0.961 . S
H391 C375 0.961 . S
H392 C376 0.931 . S
H393 C381 0.930 . S
H394 C382 0.956 . S
H395 C382 0.961 . S
H396 C382 0.961 . S
H397 C383 0.958 . S
H398 C383 0.961 . S
H399 C383 0.960 . S
C400 C401 1.391 . S
C400 C402 1.394 . S
C400 H416 0.931 . S
C401 C400 1.391 . S
C401 C405 1.376 . S
C402 C400 1.394 . S
C402 C403 1.369 . S
C402 C406 1.531 . S
C403 C402 1.369 . S
C403 C404 1.410 . S
C403 C411 1.503 . S
C404 C403 1.410 . S
C404 C405 1.392 . S
C404 C407 1.511 . S
C405 C401 1.376 . S
C405 C404 1.392 . S
C405 H417 0.929 . S
C406 C402 1.531 . S
C406 H418 0.960 . S
C406 H419 0.962 . S
C406 H420 0.960 . S
C407 C404 1.511 . S
C407 H421 0.961 . S
C407 H422 0.961 . S
C407 H423 0.961 . S
C408 C409 1.370 . S
C408 C410 1.363 . S
C408 H424 0.931 . S
C409 C408 1.370 . S
C409 C413 1.408 . S
C410 C408 1.363 . S
C410 C411 1.370 . S
C410 C414 1.524 . S
C411 C403 1.503 . S
C411 C410 1.370 . S
C411 C412 1.403 . S
C412 C411 1.403 . S
C412 C413 1.404 . S
C412 C415 1.539 . S
C413 C409 1.408 . S
C413 C412 1.404 . S
C413 H425 0.930 . S
C414 C410 1.524 . S
C414 H426 0.956 . S
C414 H427 0.961 . S
C414 H428 0.961 . S
C415 C412 1.539 . S
C415 H429 0.958 . S
C415 H430 0.961 . S
C415 H431 0.960 . S
H416 C400 0.931 . S
H417 C405 0.929 . S
H418 C406 0.960 . S
H419 C406 0.962 . S
H420 C406 0.960 . S
H421 C407 0.961 . S
H422 C407 0.961 . S
H423 C407 0.961 . S
H424 C408 0.931 . S
H425 C413 0.930 . S
H426 C414 0.956 . S
H427 C414 0.961 . S
H428 C414 0.961 . S
H429 C415 0.958 . S
H430 C415 0.961 . S
H431 C415 0.960 . S
C432 C433 1.360 1_455 S
C432 C434 1.394 . S
C432 H448 0.931 . S
C433 C432 1.360 1_655 S
C433 C437 1.409 . S
C434 C432 1.394 . S
C434 C435 1.369 1_455 S
C434 C438 1.531 . S
C435 C434 1.369 1_655 S
C435 C436 1.410 . S
C435 C443 1.503 . S
C436 C435 1.410 . S
C436 C437 1.392 . S
C436 C439 1.511 . S
C437 C433 1.409 . S
C437 C436 1.392 . S
C437 H449 0.929 . S
C438 C434 1.531 . S
C438 H450 0.960 . S
C438 H451 0.962 . S
C438 H452 0.960 . S
C439 C436 1.511 . S
C439 H453 0.961 . S
C439 H454 0.961 . S
C439 H455 0.961 . S
C440 C441 1.369 1_455 S
C440 C442 1.363 . S
C440 H456 0.932 . S
C441 C440 1.369 1_655 S
C441 C445 1.408 . S
C442 C440 1.363 . S
C442 C443 1.368 1_455 S
C442 C446 1.528 . S
C443 C435 1.503 . S
C443 C442 1.368 1_655 S
C443 C444 1.403 . S
C444 C443 1.403 . S
C444 C445 1.404 . S
C444 C447 1.539 . S
C445 C441 1.408 . S
C445 C444 1.404 . S
C445 H457 0.930 . S
C446 C442 1.528 . S
C446 H458 0.956 . S
C446 H459 0.961 1_455 S
C446 H460 0.961 . S
C447 C444 1.539 . S
C447 H461 0.958 1_655 S
C447 H462 0.961 . S
C447 H463 0.960 . S
H448 C432 0.931 . S
H449 C437 0.929 . S
H450 C438 0.960 . S
H451 C438 0.962 . S
H452 C438 0.960 . S
H453 C439 0.961 . S
H454 C439 0.961 . S
H455 C439 0.961 . S
H456 C440 0.932 . S
H457 C445 0.930 . S
H458 C446 0.956 . S
H459 C446 0.961 1_655 S
H460 C446 0.961 . S
H461 C447 0.958 1_455 S
H462 C447 0.961 . S
H463 C447 0.960 . S
C464 C465 1.391 . S
C464 C466 1.394 . S
C464 H480 0.931 . S
C465 C464 1.391 . S
C465 C469 1.376 . S
C466 C464 1.394 . S
C466 C467 1.369 . S
C466 C470 1.531 . S
C467 C466 1.369 . S
C467 C468 1.410 . S
C467 C475 1.503 . S
C468 C467 1.410 . S
C468 C469 1.392 . S
C468 C471 1.511 1_565 S
C469 C465 1.376 . S
C469 C468 1.392 . S
C469 H481 0.929 . S
C470 C466 1.531 . S
C470 H482 0.960 . S
C470 H483 0.962 . S
C470 H484 0.960 . S
C471 C468 1.511 1_545 S
C471 H485 0.961 . S
C471 H486 0.961 . S
C471 H487 0.961 . S
C472 C473 1.370 . S
C472 C474 1.363 . S
C472 H488 0.931 . S
C473 C472 1.370 . S
C473 C477 1.408 . S
C474 C472 1.363 . S
C474 C475 1.370 . S
C474 C478 1.524 . S
C475 C467 1.503 . S
C475 C474 1.370 . S
C475 C476 1.403 . S
C476 C475 1.403 . S
C476 C477 1.404 . S
C476 C479 1.539 . S
C477 C473 1.408 . S
C477 C476 1.404 . S
C477 H489 0.930 . S
C478 C474 1.524 . S
C478 H490 0.956 . S
C478 H491 0.961 . S
C478 H492 0.961 . S
C479 C476 1.539 . S
C479 H493 0.958 . S
C479 H494 0.961 . S
C479 H495 0.960 . S
H480 C464 0.931 . S
H481 C469 0.929 . S
H482 C470 0.960 . S
H483 C470 0.962 . S
H484 C470 0.960 . S
H485 C471 0.961 . S
H486 C471 0.961 . S
H487 C471 0.961 . S
H488 C472 0.931 . S
H489 C477 0.930 . S
H490 C478 0.956 . S
H491 C478 0.961 . S
H492 C478 0.961 . S
H493 C479 0.958 . S
H494 C479 0.961 . S
H495 C479 0.960 . S
C496 C497 1.391 . S
C496 C498 1.394 . S
C496 H512 0.931 . S
C497 C496 1.391 . S
C497 C501 1.376 . S
C498 C496 1.394 . S
C498 C499 1.369 . S
C498 C502 1.531 . S
C499 C498 1.369 . S
C499 C500 1.410 . S
C499 C507 1.503 . S
C500 C499 1.410 . S
C500 C501 1.392 . S
C500 C503 1.511 . S
C501 C497 1.376 . S
C501 C500 1.392 . S
C501 H513 0.929 . S
C502 C498 1.531 . S
C502 H514 0.960 . S
C502 H515 0.962 . S
C502 H516 0.960 . S
C503 C500 1.511 . S
C503 H517 0.961 . S
C503 H518 0.961 . S
C503 H519 0.961 . S
C504 C505 1.370 . S
C504 C506 1.363 . S
C504 H520 0.931 . S
C505 C504 1.370 . S
C505 C509 1.408 . S
C506 C504 1.363 . S
C506 C507 1.370 . S
C506 C510 1.524 . S
C507 C499 1.503 . S
C507 C506 1.370 . S
C507 C508 1.403 . S
C508 C507 1.403 . S
C508 C509 1.404 . S
C508 C511 1.539 . S
C509 C505 1.408 . S
C509 C508 1.404 . S
C509 H521 0.930 . S
C510 C506 1.524 . S
C510 H522 0.956 . S
C510 H523 0.961 . S
C510 H524 0.961 . S
C511 C508 1.539 . S
C511 H525 0.958 . S
C511 H526 0.961 . S
C511 H527 0.960 . S
H512 C496 0.931 . S
H513 C501 0.929 . S
H514 C502 0.960 . S
H515 C502 0.962 . S
H516 C502 0.960 . S
H517 C503 0.961 . S
H518 C503 0.961 . S
H519 C503 0.961 . S
H520 C504 0.931 . S
H521 C509 0.930 . S
H522 C510 0.956 . S
H523 C510 0.961 . S
H524 C510 0.961 . S
H525 C511 0.958 . S
H526 C511 0.961 . S
H527 C511 0.960 . S
C528 C529 1.391 . S
C528 C530 1.394 . S
C528 H544 0.931 . S
C529 C528 1.391 . S
C529 C533 1.376 . S
C530 C528 1.394 . S
C530 C531 1.369 . S
C530 C534 1.531 . S
C531 C530 1.369 . S
C531 C532 1.410 . S
C531 C539 1.503 . S
C532 C531 1.410 . S
C532 C533 1.392 . S
C532 C535 1.511 . S
C533 C529 1.376 . S
C533 C532 1.392 . S
C533 H545 0.929 . S
C534 C530 1.531 . S
C534 H546 0.960 . S
C534 H547 0.962 . S
C534 H548 0.960 . S
C535 C532 1.511 . S
C535 H549 0.961 . S
C535 H550 0.961 . S
C535 H551 0.961 . S
C536 C537 1.370 . S
C536 C538 1.363 . S
C536 H552 0.931 . S
C537 C536 1.370 . S
C537 C541 1.408 . S
C538 C536 1.363 . S
C538 C539 1.370 . S
C538 C542 1.524 . S
C539 C531 1.503 . S
C539 C538 1.370 . S
C539 C540 1.403 . S
C540 C539 1.403 . S
C540 C541 1.404 . S
C540 C543 1.539 . S
C541 C537 1.408 . S
C541 C540 1.404 . S
C541 H553 0.930 . S
C542 C538 1.524 . S
C542 H554 0.956 . S
C542 H555 0.961 . S
C542 H556 0.961 . S
C543 C540 1.539 . S
C543 H557 0.958 . S
C543 H558 0.961 . S
C543 H559 0.960 . S
H544 C528 0.931 . S
H545 C533 0.929 . S
H546 C534 0.960 . S
H547 C534 0.962 . S
H548 C534 0.960 . S
H549 C535 0.961 . S
H550 C535 0.961 . S
H551 C535 0.961 . S
H552 C536 0.931 . S
H553 C541 0.930 . S
H554 C542 0.956 . S
H555 C542 0.961 . S
H556 C542 0.961 . S
H557 C543 0.958 . S
H558 C543 0.961 . S
H559 C543 0.960 . S
C560 C561 1.391 1_655 S
C560 C562 1.394 . S
C560 H576 0.931 . S
C561 C560 1.391 1_455 S
C561 C565 1.376 . S
C562 C560 1.394 . S
C562 C563 1.369 1_655 S
C562 C566 1.531 . S
C563 C562 1.369 1_455 S
C563 C564 1.410 . S
C563 C571 1.503 . S
C564 C563 1.410 . S
C564 C565 1.392 . S
C564 C567 1.511 . S
C565 C561 1.376 . S
C565 C564 1.392 . S
C565 H577 0.929 . S
C566 C562 1.531 . S
C566 H578 0.960 . S
C566 H579 0.962 . S
C566 H580 0.960 . S
C567 C564 1.511 . S
C567 H581 0.961 . S
C567 H582 0.961 . S
C567 H583 0.961 . S
C568 C569 1.370 1_655 S
C568 C570 1.363 . S
C568 H584 0.931 . S
C569 C568 1.370 1_455 S
C569 C573 1.408 . S
C570 C568 1.363 . S
C570 C571 1.370 1_655 S
C570 C574 1.524 . S
C571 C563 1.503 . S
C571 C570 1.370 1_455 S
C571 C572 1.403 . S
C572 C571 1.403 . S
C572 C573 1.404 . S
C572 C575 1.539 . S
C573 C569 1.408 . S
C573 C572 1.404 . S
C573 H585 0.930 . S
C574 C570 1.524 . S
C574 H586 0.956 . S
C574 H587 0.961 . S
C574 H588 0.961 . S
C575 C572 1.539 . S
C575 H589 0.958 . S
C575 H590 0.961 . S
C575 H591 0.960 . S
H576 C560 0.931 . S
H577 C565 0.929 . S
H578 C566 0.960 . S
H579 C566 0.962 . S
H580 C566 0.960 . S
H581 C567 0.961 . S
H582 C567 0.961 . S
H583 C567 0.961 . S
H584 C568 0.931 . S
H585 C573 0.930 . S
H586 C574 0.956 . S
H587 C574 0.961 . S
H588 C574 0.961 . S
H589 C575 0.958 . S
H590 C575 0.961 . S
H591 C575 0.960 . S
C592 C593 1.391 1_655 S
C592 C594 1.394 . S
C592 H608 0.931 . S
C593 C592 1.391 1_455 S
C593 C597 1.376 . S
C594 C592 1.394 . S
C594 C595 1.369 . S
C594 C598 1.531 . S
C595 C594 1.369 . S
C595 C596 1.410 1_655 S
C595 C603 1.503 . S
C596 C595 1.410 1_455 S
C596 C597 1.392 . S
C596 C599 1.511 . S
C597 C593 1.376 . S
C597 C596 1.392 . S
C597 H609 0.929 . S
C598 C594 1.531 . S
C598 H610 0.960 . S
C598 H611 0.962 . S
C598 H612 0.960 . S
C599 C596 1.511 . S
C599 H613 0.961 . S
C599 H614 0.961 . S
C599 H615 0.961 . S
C600 C601 1.370 . S
C600 C602 1.363 . S
C600 H616 0.931 . S
C601 C600 1.370 . S
C601 C605 1.408 1_655 S
C602 C600 1.363 . S
C602 C603 1.370 . S
C602 C606 1.524 . S
C603 C595 1.503 . S
C603 C602 1.370 . S
C603 C604 1.403 1_655 S
C604 C603 1.403 1_455 S
C604 C605 1.404 . S
C604 C607 1.539 . S
C605 C601 1.408 1_455 S
C605 C604 1.404 . S
C605 H617 0.930 . S
C606 C602 1.524 . S
C606 H618 0.956 . S
C606 H619 0.961 . S
C606 H620 0.961 . S
C607 C604 1.539 . S
C607 H621 0.958 . S
C607 H622 0.961 . S
C607 H623 0.960 . S
H608 C592 0.931 . S
H609 C597 0.929 . S
H610 C598 0.960 . S
H611 C598 0.962 . S
H612 C598 0.960 . S
H613 C599 0.961 . S
H614 C599 0.961 . S
H615 C599 0.961 . S
H616 C600 0.931 . S
H617 C605 0.930 . S
H618 C606 0.956 . S
H619 C606 0.961 . S
H620 C606 0.961 . S
H621 C607 0.958 . S
H622 C607 0.961 . S
H623 C607 0.960 . S
C624 C625 1.391 . S
C624 C626 1.394 . S
C624 H640 0.931 . S
C625 C624 1.391 . S
C625 C629 1.376 . S
C626 C624 1.394 . S
C626 C627 1.369 . S
C626 C630 1.531 . S
C627 C626 1.369 . S
C627 C628 1.410 . S
C627 C635 1.503 . S
C628 C627 1.410 . S
C628 C629 1.392 . S
C628 C631 1.511 . S
C629 C625 1.376 . S
C629 C628 1.392 . S
C629 H641 0.929 . S
C630 C626 1.531 . S
C630 H642 0.960 . S
C630 H643 0.962 . S
C630 H644 0.960 . S
C631 C628 1.511 . S
C631 H645 0.961 . S
C631 H646 0.961 . S
C631 H647 0.961 . S
C632 C633 1.370 . S
C632 C634 1.363 . S
C632 H648 0.931 . S
C633 C632 1.370 . S
C633 C637 1.408 . S
C634 C632 1.363 . S
C634 C635 1.370 . S
C634 C638 1.524 . S
C635 C627 1.503 . S
C635 C634 1.370 . S
C635 C636 1.403 . S
C636 C635 1.403 . S
C636 C637 1.404 . S
C636 C639 1.539 . S
C637 C633 1.408 . S
C637 C636 1.404 . S
C637 H649 0.930 . S
C638 C634 1.524 . S
C638 H650 0.956 . S
C638 H651 0.961 . S
C638 H652 0.961 . S
C639 C636 1.539 . S
C639 H653 0.958 . S
C639 H654 0.961 . S
C639 H655 0.960 . S
H640 C624 0.931 . S
H641 C629 0.929 . S
H642 C630 0.960 . S
H643 C630 0.962 . S
H644 C630 0.960 . S
H645 C631 0.961 . S
H646 C631 0.961 . S
H647 C631 0.961 . S
H648 C632 0.931 . S
H649 C637 0.930 . S
H650 C638 0.956 . S
H651 C638 0.961 . S
H652 C638 0.961 . S
H653 C639 0.958 . S
H654 C639 0.961 . S
H655 C639 0.960 . S
C656 C657 1.391 . S
C656 C658 1.394 . S
C656 H672 0.931 . S
C657 C656 1.391 . S
C657 C661 1.376 . S
C658 C656 1.394 . S
C658 C659 1.369 . S
C658 C662 1.531 . S
C659 C658 1.369 . S
C659 C660 1.410 . S
C659 C667 1.503 . S
C660 C659 1.410 . S
C660 C661 1.392 . S
C660 C663 1.511 . S
C661 C657 1.376 . S
C661 C660 1.392 . S
C661 H673 0.929 . S
C662 C658 1.531 . S
C662 H674 0.960 . S
C662 H675 0.962 . S
C662 H676 0.960 . S
C663 C660 1.511 . S
C663 H677 0.961 . S
C663 H678 0.961 . S
C663 H679 0.961 . S
C664 C665 1.370 . S
C664 C666 1.363 . S
C664 H680 0.931 . S
C665 C664 1.370 . S
C665 C669 1.408 . S
C666 C664 1.363 . S
C666 C667 1.370 . S
C666 C670 1.524 . S
C667 C659 1.503 . S
C667 C666 1.370 . S
C667 C668 1.403 . S
C668 C667 1.403 . S
C668 C669 1.404 . S
C668 C671 1.539 . S
C669 C665 1.408 . S
C669 C668 1.404 . S
C669 H681 0.930 . S
C670 C666 1.524 . S
C670 H682 0.956 . S
C670 H683 0.961 . S
C670 H684 0.961 . S
C671 C668 1.539 . S
C671 H685 0.958 . S
C671 H686 0.961 . S
C671 H687 0.960 . S
H672 C656 0.931 . S
H673 C661 0.929 . S
H674 C662 0.960 . S
H675 C662 0.962 . S
H676 C662 0.960 . S
H677 C663 0.961 . S
H678 C663 0.961 . S
H679 C663 0.961 . S
H680 C664 0.931 . S
H681 C669 0.930 . S
H682 C670 0.956 . S
H683 C670 0.961 . S
H684 C670 0.961 . S
H685 C671 0.958 . S
H686 C671 0.961 . S
H687 C671 0.960 . S
C688 C689 1.391 . S
C688 C690 1.394 . S
C688 H704 0.931 . S
C689 C688 1.391 . S
C689 C693 1.376 . S
C690 C688 1.394 . S
C690 C691 1.369 . S
C690 C694 1.531 . S
C691 C690 1.369 . S
C691 C692 1.410 . S
C691 C699 1.503 . S
C692 C691 1.410 . S
C692 C693 1.392 . S
C692 C695 1.511 . S
C693 C689 1.376 . S
C693 C692 1.392 . S
C693 H705 0.929 . S
C694 C690 1.531 . S
C694 H706 0.960 . S
C694 H707 0.962 . S
C694 H708 0.960 . S
C695 C692 1.511 . S
C695 H709 0.961 . S
C695 H710 0.961 . S
C695 H711 0.961 . S
C696 C697 1.370 . S
C696 C698 1.363 . S
C696 H712 0.931 . S
C697 C696 1.370 . S
C697 C701 1.408 . S
C698 C696 1.363 . S
C698 C699 1.370 . S
C698 C702 1.524 . S
C699 C691 1.503 . S
C699 C698 1.370 . S
C699 C700 1.403 . S
C700 C699 1.403 . S
C700 C701 1.404 . S
C700 C703 1.539 . S
C701 C697 1.408 . S
C701 C700 1.404 . S
C701 H713 0.930 . S
C702 C698 1.524 . S
C702 H714 0.956 . S
C702 H715 0.961 . S
C702 H716 0.961 . S
C703 C700 1.539 . S
C703 H717 0.958 . S
C703 H718 0.961 . S
C703 H719 0.960 . S
H704 C688 0.931 . S
H705 C693 0.929 . S
H706 C694 0.960 . S
H707 C694 0.962 . S
H708 C694 0.960 . S
H709 C695 0.961 . S
H710 C695 0.961 . S
H711 C695 0.961 . S
H712 C696 0.931 . S
H713 C701 0.930 . S
H714 C702 0.956 . S
H715 C702 0.961 . S
H716 C702 0.961 . S
H717 C703 0.958 . S
H718 C703 0.961 . S
H719 C703 0.960 . S
C720 C721 1.391 . S
C720 C722 1.393 1_655 S
C720 H736 0.931 . S
C721 C720 1.391 . S
C721 C725 1.376 . S
C722 C720 1.393 1_455 S
C722 C723 1.369 . S
C722 C726 1.533 . S
C723 C722 1.369 . S
C723 C724 1.408 1_455 S
C723 C731 1.507 . S
C724 C723 1.408 1_655 S
C724 C725 1.392 . S
C724 C727 1.511 . S
C725 C721 1.376 . S
C725 C724 1.392 . S
C725 H737 0.929 . S
C726 C722 1.533 . S
C726 H738 0.960 1_455 S
C726 H739 0.962 . S
C726 H740 0.960 1_455 S
C727 C724 1.511 . S
C727 H741 0.961 1_655 S
C727 H742 0.961 1_655 S
C727 H743 0.961 . S
C728 C729 1.370 . S
C728 C730 1.363 . S
C728 H744 0.931 . S
C729 C728 1.370 . S
C729 C733 1.408 1_455 S
C730 C728 1.363 . S
C730 C731 1.370 . S
C730 C734 1.524 . S
C731 C723 1.507 . S
C731 C730 1.370 . S
C731 C732 1.403 1_455 S
C732 C731 1.403 1_655 S
C732 C733 1.404 . S
C732 C735 1.539 . S
C733 C729 1.408 1_655 S
C733 C732 1.404 . S
C733 H745 0.930 . S
C734 C730 1.524 . S
C734 H746 0.956 . S
C734 H747 0.961 . S
C734 H748 0.961 . S
C735 C732 1.539 . S
C735 H749 0.958 . S
C735 H750 0.961 . S
C735 H751 0.960 . S
H736 C720 0.931 . S
H737 C725 0.929 . S
H738 C726 0.960 1_655 S
H739 C726 0.962 . S
H740 C726 0.960 1_655 S
H741 C727 0.961 1_455 S
H742 C727 0.961 1_455 S
H743 C727 0.961 . S
H744 C728 0.931 . S
H745 C733 0.930 . S
H746 C734 0.956 . S
H747 C734 0.961 . S
H748 C734 0.961 . S
H749 C735 0.958 . S
H750 C735 0.961 . S
H751 C735 0.960 . S
C752 C753 1.391 . S
C752 C754 1.394 . S
C752 H768 0.931 . S
C753 C752 1.391 . S
C753 C757 1.376 . S
C754 C752 1.394 . S
C754 C755 1.369 . S
C754 C758 1.531 . S
C755 C754 1.369 . S
C755 C756 1.410 . S
C755 C763 1.503 . S
C756 C755 1.410 . S
C756 C757 1.392 . S
C756 C759 1.511 . S
C757 C753 1.376 . S
C757 C756 1.392 . S
C757 H769 0.929 . S
C758 C754 1.531 . S
C758 H770 0.960 . S
C758 H771 0.962 . S
C758 H772 0.960 . S
C759 C756 1.511 . S
C759 H773 0.961 . S
C759 H774 0.961 . S
C759 H775 0.961 . S
C760 C761 1.370 1_545 S
C760 C762 1.363 1_545 S
C760 H776 0.931 . S
C761 C760 1.370 1_565 S
C761 C765 1.408 . S
C762 C760 1.363 1_565 S
C762 C763 1.370 . S
C762 C766 1.524 1_565 S
C763 C755 1.503 . S
C763 C762 1.370 . S
C763 C764 1.403 . S
C764 C763 1.403 . S
C764 C765 1.404 . S
C764 C767 1.539 . S
C765 C761 1.408 . S
C765 C764 1.404 . S
C765 H777 0.930 . S
C766 C762 1.524 1_545 S
C766 H778 0.956 . S
C766 H779 0.961 . S
C766 H780 0.961 . S
C767 C764 1.539 . S
C767 H781 0.958 . S
C767 H782 0.961 . S
C767 H783 0.960 . S
H768 C752 0.931 . S
H769 C757 0.929 . S
H770 C758 0.960 . S
H771 C758 0.962 . S
H772 C758 0.960 . S
H773 C759 0.961 . S
H774 C759 0.961 . S
H775 C759 0.961 . S
H776 C760 0.931 . S
H777 C765 0.930 . S
H778 C766 0.956 . S
H779 C766 0.961 . S
H780 C766 0.961 . S
H781 C767 0.958 . S
H782 C767 0.961 . S
H783 C767 0.960 . S
C784 C785 1.391 . S
C784 C786 1.394 . S
C784 H800 0.931 . S
C785 C784 1.391 . S
C785 C789 1.376 . S
C786 C784 1.394 . S
C786 C787 1.369 . S
C786 C790 1.531 . S
C787 C786 1.369 . S
C787 C788 1.410 . S
C787 C795 1.503 . S
C788 C787 1.410 . S
C788 C789 1.392 . S
C788 C791 1.511 . S
C789 C785 1.376 . S
C789 C788 1.392 . S
C789 H801 0.929 . S
C790 C786 1.531 . S
C790 H802 0.960 . S
C790 H803 0.962 . S
C790 H804 0.960 . S
C791 C788 1.511 . S
C791 H805 0.961 . S
C791 H806 0.961 . S
C791 H807 0.961 . S
C792 C793 1.370 . S
C792 C794 1.363 . S
C792 H808 0.931 . S
C793 C792 1.370 . S
C793 C797 1.408 . S
C794 C792 1.363 . S
C794 C795 1.370 . S
C794 C798 1.524 . S
C795 C787 1.503 . S
C795 C794 1.370 . S
C795 C796 1.403 . S
C796 C795 1.403 . S
C796 C797 1.404 . S
C796 C799 1.539 . S
C797 C793 1.408 . S
C797 C796 1.404 . S
C797 H809 0.930 . S
C798 C794 1.524 . S
C798 H810 0.956 . S
C798 H811 0.961 . S
C798 H812 0.961 . S
C799 C796 1.539 . S
C799 H813 0.958 . S
C799 H814 0.961 . S
C799 H815 0.960 . S
H800 C784 0.931 . S
H801 C789 0.929 . S
H802 C790 0.960 . S
H803 C790 0.962 . S
H804 C790 0.960 . S
H805 C791 0.961 . S
H806 C791 0.961 . S
H807 C791 0.961 . S
H808 C792 0.931 . S
H809 C797 0.930 . S
H810 C798 0.956 . S
H811 C798 0.961 . S
H812 C798 0.961 . S
H813 C799 0.958 . S
H814 C799 0.961 . S
H815 C799 0.960 . S
C816 C817 1.391 . S
C816 C818 1.394 . S
C816 H832 0.931 . S
C817 C816 1.391 . S
C817 C821 1.376 . S
C818 C816 1.394 . S
C818 C819 1.369 . S
C818 C822 1.531 . S
C819 C818 1.369 . S
C819 C820 1.410 . S
C819 C827 1.503 . S
C820 C819 1.410 . S
C820 C821 1.392 . S
C820 C823 1.511 . S
C821 C817 1.376 . S
C821 C820 1.392 . S
C821 H833 0.929 . S
C822 C818 1.531 . S
C822 H834 0.960 . S
C822 H835 0.962 . S
C822 H836 0.960 . S
C823 C820 1.511 . S
C823 H837 0.961 . S
C823 H838 0.961 . S
C823 H839 0.961 . S
C824 C825 1.370 . S
C824 C826 1.363 . S
C824 H840 0.931 . S
C825 C824 1.370 . S
C825 C829 1.408 . S
C826 C824 1.363 . S
C826 C827 1.370 . S
C826 C830 1.524 . S
C827 C819 1.503 . S
C827 C826 1.370 . S
C827 C828 1.403 . S
C828 C827 1.403 . S
C828 C829 1.404 . S
C828 C831 1.539 . S
C829 C825 1.408 . S
C829 C828 1.404 . S
C829 H841 0.930 . S
C830 C826 1.524 . S
C830 H842 0.956 . S
C830 H843 0.961 . S
C830 H844 0.961 . S
C831 C828 1.539 . S
C831 H845 0.958 . S
C831 H846 0.961 . S
C831 H847 0.960 . S
H832 C816 0.931 . S
H833 C821 0.929 . S
H834 C822 0.960 . S
H835 C822 0.962 . S
H836 C822 0.960 . S
H837 C823 0.961 . S
H838 C823 0.961 . S
H839 C823 0.961 . S
H840 C824 0.931 . S
H841 C829 0.930 . S
H842 C830 0.956 . S
H843 C830 0.961 . S
H844 C830 0.961 . S
H845 C831 0.958 . S
H846 C831 0.961 . S
H847 C831 0.960 . S
C848 C849 1.391 1_655 S
C848 C850 1.394 . S
C848 H864 0.931 . S
C849 C848 1.391 1_455 S
C849 C853 1.376 . S
C850 C848 1.394 . S
C850 C851 1.369 1_655 S
C850 C854 1.531 . S
C851 C850 1.369 1_455 S
C851 C852 1.410 . S
C851 C859 1.503 . S
C852 C851 1.410 . S
C852 C853 1.392 . S
C852 C855 1.511 . S
C853 C849 1.376 . S
C853 C852 1.392 . S
C853 H865 0.929 . S
C854 C850 1.531 . S
C854 H866 0.960 . S
C854 H867 0.962 . S
C854 H868 0.960 . S
C855 C852 1.511 . S
C855 H869 0.961 . S
C855 H870 0.961 . S
C855 H871 0.961 . S
C856 C857 1.370 1_655 S
C856 C858 1.363 . S
C856 H872 0.931 . S
C857 C856 1.370 1_455 S
C857 C861 1.408 . S
C858 C856 1.363 . S
C858 C859 1.370 1_655 S
C858 C862 1.524 . S
C859 C851 1.503 . S
C859 C858 1.370 1_455 S
C859 C860 1.403 . S
C860 C859 1.403 . S
C860 C861 1.404 . S
C860 C863 1.539 . S
C861 C857 1.408 . S
C861 C860 1.404 . S
C861 H873 0.930 . S
C862 C858 1.524 . S
C862 H874 0.956 . S
C862 H875 0.961 . S
C862 H876 0.961 . S
C863 C860 1.539 . S
C863 H877 0.958 . S
C863 H878 0.961 . S
C863 H879 0.960 . S
H864 C848 0.931 . S
H865 C853 0.929 . S
H866 C854 0.960 . S
H867 C854 0.962 . S
H868 C854 0.960 . S
H869 C855 0.961 . S
H870 C855 0.961 . S
H871 C855 0.961 . S
H872 C856 0.931 . S
H873 C861 0.930 . S
H874 C862 0.956 . S
H875 C862 0.961 . S
H876 C862 0.961 . S
H877 C863 0.958 . S
H878 C863 0.961 . S
H879 C863 0.960 . S
C880 C881 1.391 . S
C880 C882 1.394 . S
C880 H896 0.931 . S
C881 C880 1.391 . S
C881 C885 1.376 . S
C882 C880 1.394 . S
C882 C883 1.369 . S
C882 C886 1.531 . S
C883 C882 1.369 . S
C883 C884 1.410 . S
C883 C891 1.503 . S
C884 C883 1.410 . S
C884 C885 1.392 . S
C884 C887 1.511 . S
C885 C881 1.376 . S
C885 C884 1.392 . S
C885 H897 0.929 . S
C886 C882 1.531 . S
C886 H898 0.960 . S
C886 H899 0.962 . S
C886 H900 0.960 . S
C887 C884 1.511 . S
C887 H901 0.961 . S
C887 H902 0.961 . S
C887 H903 0.961 . S
C888 C889 1.370 . S
C888 C890 1.363 . S
C888 H904 0.931 . S
C889 C888 1.370 . S
C889 C893 1.408 . S
C890 C888 1.363 . S
C890 C891 1.370 . S
C890 C894 1.524 . S
C891 C883 1.503 . S
C891 C890 1.370 . S
C891 C892 1.403 . S
C892 C891 1.403 . S
C892 C893 1.404 . S
C892 C895 1.539 . S
C893 C889 1.408 . S
C893 C892 1.404 . S
C893 H905 0.930 . S
C894 C890 1.524 . S
C894 H906 0.956 . S
C894 H907 0.961 . S
C894 H908 0.961 . S
C895 C892 1.539 . S
C895 H909 0.958 . S
C895 H910 0.961 . S
C895 H911 0.960 . S
H896 C880 0.931 . S
H897 C885 0.929 . S
H898 C886 0.960 . S
H899 C886 0.962 . S
H900 C886 0.960 . S
H901 C887 0.961 . S
H902 C887 0.961 . S
H903 C887 0.961 . S
H904 C888 0.931 . S
H905 C893 0.930 . S
H906 C894 0.956 . S
H907 C894 0.961 . S
H908 C894 0.961 . S
H909 C895 0.958 . S
H910 C895 0.961 . S
H911 C895 0.960 . S
C912 C913 1.391 . S
C912 C914 1.394 . S
C912 H928 0.931 . S
C913 C912 1.391 . S
C913 C917 1.376 . S
C914 C912 1.394 . S
C914 C915 1.369 . S
C914 C918 1.531 . S
C915 C914 1.369 . S
C915 C916 1.410 . S
C915 C923 1.503 . S
C916 C915 1.410 . S
C916 C917 1.392 . S
C916 C919 1.511 . S
C917 C913 1.376 . S
C917 C916 1.392 . S
C917 H929 0.929 . S
C918 C914 1.531 . S
C918 H930 0.960 . S
C918 H931 0.962 . S
C918 H932 0.960 . S
C919 C916 1.511 . S
C919 H933 0.961 . S
C919 H934 0.961 . S
C919 H935 0.961 . S
C920 C921 1.370 . S
C920 C922 1.363 . S
C920 H936 0.931 . S
C921 C920 1.370 . S
C921 C925 1.408 . S
C922 C920 1.363 . S
C922 C923 1.370 . S
C922 C926 1.524 . S
C923 C915 1.503 . S
C923 C922 1.370 . S
C923 C924 1.403 . S
C924 C923 1.403 . S
C924 C925 1.404 . S
C924 C927 1.539 . S
C925 C921 1.408 . S
C925 C924 1.404 . S
C925 H937 0.930 . S
C926 C922 1.524 . S
C926 H938 0.956 . S
C926 H939 0.961 . S
C926 H940 0.961 . S
C927 C924 1.539 . S
C927 H941 0.958 . S
C927 H942 0.961 . S
C927 H943 0.960 . S
H928 C912 0.931 . S
H929 C917 0.929 . S
H930 C918 0.960 . S
H931 C918 0.962 . S
H932 C918 0.960 . S
H933 C919 0.961 . S
H934 C919 0.961 . S
H935 C919 0.961 . S
H936 C920 0.931 . S
H937 C925 0.930 . S
H938 C926 0.956 . S
H939 C926 0.961 . S
H940 C926 0.961 . S
H941 C927 0.958 . S
H942 C927 0.961 . S
H943 C927 0.960 . S
C944 C945 1.391 . S
C944 C946 1.394 . S
C944 H960 0.931 . S
C945 C944 1.391 . S
C945 C949 1.376 . S
C946 C944 1.394 . S
C946 C947 1.369 . S
C946 C950 1.531 . S
C947 C946 1.369 . S
C947 C948 1.410 . S
C947 C955 1.503 . S
C948 C947 1.410 . S
C948 C949 1.392 . S
C948 C951 1.511 . S
C949 C945 1.376 . S
C949 C948 1.392 . S
C949 H961 0.929 . S
C950 C946 1.531 . S
C950 H962 0.960 . S
C950 H963 0.962 . S
C950 H964 0.960 . S
C951 C948 1.511 . S
C951 H965 0.961 . S
C951 H966 0.961 . S
C951 H967 0.961 . S
C952 C953 1.370 . S
C952 C954 1.363 . S
C952 H968 0.931 . S
C953 C952 1.370 . S
C953 C957 1.408 . S
C954 C952 1.363 . S
C954 C955 1.370 . S
C954 C958 1.524 . S
C955 C947 1.503 . S
C955 C954 1.370 . S
C955 C956 1.403 . S
C956 C955 1.403 . S
C956 C957 1.404 . S
C956 C959 1.539 . S
C957 C953 1.408 . S
C957 C956 1.404 . S
C957 H969 0.930 . S
C958 C954 1.524 . S
C958 H970 0.956 . S
C958 H971 0.961 . S
C958 H972 0.961 . S
C959 C956 1.539 . S
C959 H973 0.958 . S
C959 H974 0.961 . S
C959 H975 0.960 . S
H960 C944 0.931 . S
H961 C949 0.929 . S
H962 C950 0.960 . S
H963 C950 0.962 . S
H964 C950 0.960 . S
H965 C951 0.961 . S
H966 C951 0.961 . S
H967 C951 0.961 . S
H968 C952 0.931 . S
H969 C957 0.930 . S
H970 C958 0.956 . S
H971 C958 0.961 . S
H972 C958 0.961 . S
H973 C959 0.958 . S
H974 C959 0.961 . S
H975 C959 0.960 . S
C976 C977 1.391 1_455 S
C976 C978 1.394 . S
C976 H992 0.931 . S
C977 C976 1.391 1_655 S
C977 C981 1.376 . S
C978 C976 1.394 . S
C978 C979 1.369 1_455 S
C978 C982 1.531 . S
C979 C978 1.369 1_655 S
C979 C980 1.410 . S
C979 C987 1.503 . S
C980 C979 1.410 . S
C980 C981 1.392 . S
C980 C983 1.511 . S
C981 C977 1.376 . S
C981 C980 1.392 . S
C981 H993 0.929 . S
C982 C978 1.531 . S
C982 H994 0.960 . S
C982 H995 0.962 . S
C982 H996 0.960 . S
C983 C980 1.511 . S
C983 H997 0.961 . S
C983 H998 0.961 . S
C983 H999 0.961 . S
C984 C985 1.370 1_455 S
C984 C986 1.363 . S
C984 H1000 0.931 . S
C985 C984 1.370 1_655 S
C985 C989 1.408 . S
C986 C984 1.363 . S
C986 C987 1.370 1_455 S
C986 C990 1.524 . S
C987 C979 1.503 . S
C987 C986 1.370 1_655 S
C987 C988 1.403 . S
C988 C987 1.403 . S
C988 C989 1.404 . S
C988 C991 1.539 . S
C989 C985 1.408 . S
C989 C988 1.404 . S
C989 H1001 0.930 . S
C990 C986 1.524 . S
C990 H1002 0.956 . S
C990 H1003 0.961 . S
C990 H1004 0.961 . S
C991 C988 1.539 . S
C991 H1005 0.958 . S
C991 H1006 0.961 . S
C991 H1007 0.960 . S
H992 C976 0.931 . S
H993 C981 0.929 . S
H994 C982 0.960 . S
H995 C982 0.962 . S
H996 C982 0.960 . S
H997 C983 0.961 . S
H998 C983 0.961 . S
H999 C983 0.961 . S
H1000 C984 0.931 . S
H1001 C989 0.930 . S
H1002 C990 0.956 . S
H1003 C990 0.961 . S
H1004 C990 0.961 . S
H1005 C991 0.958 . S
H1006 C991 0.961 . S
H1007 C991 0.960 . S
C1008 C1009 1.391 . S
C1008 C1010 1.394 . S
C1008 H1024 0.931 . S
C1009 C1008 1.391 . S
C1009 C1013 1.376 . S
C1010 C1008 1.394 . S
C1010 C1011 1.369 . S
C1010 C1014 1.531 . S
C1011 C1010 1.369 . S
C1011 C1012 1.410 . S
C1011 C1019 1.503 . S
C1012 C1011 1.410 . S
C1012 C1013 1.392 . S
C1012 C1015 1.511 . S
C1013 C1009 1.376 . S
C1013 C1012 1.392 . S
C1013 H1025 0.929 . S
C1014 C1010 1.531 . S
C1014 H1026 0.960 . S
C1014 H1027 0.962 . S
C1014 H1028 0.960 . S
C1015 C1012 1.511 . S
C1015 H1029 0.932 1_565 S
C1015 H1030 0.961 . S
C1015 H1031 0.961 . S
C1016 C1017 1.370 . S
C1016 C1018 1.363 . S
C1016 H1032 0.931 . S
C1017 C1016 1.370 . S
C1017 C1021 1.408 . S
C1018 C1016 1.363 . S
C1018 C1019 1.370 . S
C1018 C1022 1.524 . S
C1019 C1011 1.503 . S
C1019 C1018 1.370 . S
C1019 C1020 1.403 . S
C1020 C1019 1.403 . S
C1020 C1021 1.404 . S
C1020 C1023 1.539 . S
C1021 C1017 1.408 . S
C1021 C1020 1.404 . S
C1021 H1033 0.930 . S
C1022 C1018 1.524 . S
C1022 H1034 0.956 . S
C1022 H1035 0.961 . S
C1022 H1036 0.961 . S
C1023 C1020 1.539 . S
C1023 H1037 0.958 . S
C1023 H1038 0.961 . S
C1023 H1039 0.960 . S
H1024 C1008 0.931 . S
H1025 C1013 0.929 . S
H1026 C1014 0.960 . S
H1027 C1014 0.962 . S
H1028 C1014 0.960 . S
H1029 C1015 0.932 1_545 S
H1030 C1015 0.961 . S
H1031 C1015 0.961 . S
H1032 C1016 0.931 . S
H1033 C1021 0.930 . S
H1034 C1022 0.956 . S
H1035 C1022 0.961 . S
H1036 C1022 0.961 . S
H1037 C1023 0.958 . S
H1038 C1023 0.961 . S
H1039 C1023 0.960 . S
C1040 C1041 1.391 . S
C1040 C1042 1.394 . S
C1040 H1056 0.931 . S
C1041 C1040 1.391 . S
C1041 C1045 1.376 . S
C1042 C1040 1.394 . S
C1042 C1043 1.369 . S
C1042 C1046 1.531 . S
C1043 C1042 1.369 . S
C1043 C1044 1.410 . S
C1043 C1051 1.503 . S
C1044 C1043 1.410 . S
C1044 C1045 1.392 . S
C1044 C1047 1.511 . S
C1045 C1041 1.376 . S
C1045 C1044 1.392 . S
C1045 H1057 0.929 . S
C1046 C1042 1.531 . S
C1046 H1058 0.960 . S
C1046 H1059 0.962 . S
C1046 H1060 0.960 . S
C1047 C1044 1.511 . S
C1047 H1061 0.961 . S
C1047 H1062 0.961 . S
C1047 H1063 0.961 . S
C1048 C1049 1.370 . S
C1048 C1050 1.363 . S
C1048 H1064 0.931 . S
C1049 C1048 1.370 . S
C1049 C1053 1.408 . S
C1050 C1048 1.363 . S
C1050 C1051 1.370 . S
C1050 C1054 1.524 . S
C1051 C1043 1.503 . S
C1051 C1050 1.370 . S
C1051 C1052 1.403 . S
C1052 C1051 1.403 . S
C1052 C1053 1.404 . S
C1052 C1055 1.539 . S
C1053 C1049 1.408 . S
C1053 C1052 1.404 . S
C1053 H1065 0.930 . S
C1054 C1050 1.524 . S
C1054 H1066 0.956 . S
C1054 H1067 0.961 . S
C1054 H1068 0.961 . S
C1055 C1052 1.539 . S
C1055 H1069 0.958 . S
C1055 H1070 0.961 . S
C1055 H1071 0.960 . S
H1056 C1040 0.931 . S
H1057 C1045 0.929 . S
H1058 C1046 0.960 . S
H1059 C1046 0.962 . S
H1060 C1046 0.960 . S
H1061 C1047 0.961 . S
H1062 C1047 0.961 . S
H1063 C1047 0.961 . S
H1064 C1048 0.931 . S
H1065 C1053 0.930 . S
H1066 C1054 0.956 . S
H1067 C1054 0.961 . S
H1068 C1054 0.961 . S
H1069 C1055 0.958 . S
H1070 C1055 0.961 . S
H1071 C1055 0.960 . S
C1072 C1073 1.391 . S
C1072 C1074 1.394 . S
C1072 H1088 0.931 . S
C1073 C1072 1.391 . S
C1073 C1077 1.376 . S
C1074 C1072 1.394 . S
C1074 C1075 1.369 . S
C1074 C1078 1.531 . S
C1075 C1074 1.369 . S
C1075 C1076 1.410 . S
C1075 C1083 1.503 . S
C1076 C1075 1.410 . S
C1076 C1077 1.392 . S
C1076 C1079 1.511 . S
C1077 C1073 1.376 . S
C1077 C1076 1.392 . S
C1077 H1089 0.929 . S
C1078 C1074 1.531 . S
C1078 H1090 0.960 . S
C1078 H1091 0.962 . S
C1078 H1092 0.960 . S
C1079 C1076 1.511 . S
C1079 H1093 0.961 . S
C1079 H1094 0.961 . S
C1079 H1095 0.961 . S
C1080 C1081 1.370 . S
C1080 C1082 1.363 . S
C1080 H1096 0.931 . S
C1081 C1080 1.370 . S
C1081 C1085 1.408 . S
C1082 C1080 1.363 . S
C1082 C1083 1.370 . S
C1082 C1086 1.524 . S
C1083 C1075 1.503 . S
C1083 C1082 1.370 . S
C1083 C1084 1.403 . S
C1084 C1083 1.403 . S
C1084 C1085 1.404 . S
C1084 C1087 1.539 . S
C1085 C1081 1.408 . S
C1085 C1084 1.404 . S
C1085 H1097 0.930 . S
C1086 C1082 1.524 . S
C1086 H1098 0.956 . S
C1086 H1099 0.961 . S
C1086 H1100 0.961 . S
C1087 C1084 1.539 . S
C1087 H1101 0.958 . S
C1087 H1102 0.961 . S
C1087 H1103 0.960 . S
H1088 C1072 0.931 . S
H1089 C1077 0.929 . S
H1090 C1078 0.960 . S
H1091 C1078 0.962 . S
H1092 C1078 0.960 . S
H1093 C1079 0.961 . S
H1094 C1079 0.961 . S
H1095 C1079 0.961 . S
H1096 C1080 0.931 . S
H1097 C1085 0.930 . S
H1098 C1086 0.956 . S
H1099 C1086 0.961 . S
H1100 C1086 0.961 . S
H1101 C1087 0.958 . S
H1102 C1087 0.961 . S
H1103 C1087 0.960 . S
C337 C215 1.737 . S
C345 C274 1.719 . S
C377 C294 1.467 . S
C369 C247 1.483 . S
C409 C314 1.685 . S
C401 C151 1.726 . S
C441 C334 1.448 . S
C433 C183 1.492 1_655 S
C473 C275 1.733 1_565 S
C465 C87 1.599 . S
C497 C119 1.529 . S
C505 C295 1.461 . S
C529 C23 1.577 . S
C537 C315 1.703 . S
C561 C55 1.422 . S
C569 C335 1.475 . S
C601 C265 0.649 . S
C593 C189 0.586 . S
C633 C285 0.773 . S
C625 C221 0.826 . S
C665 C305 0.722 . S
C657 C253 0.733 . S
C689 C157 0.737 . S
C697 C325 0.785 . S
C721 C61 0.723 1_655 S
C729 C268 0.634 . S
C761 C288 0.761 . S
C753 C93 0.866 . S
C793 C308 0.674 . S
C785 C125 0.699 . S
C817 C29 0.843 . S
C825 C328 0.730 . S
C849 C177 1.821 . S
C857 C258 1.775 . S
C881 C209 1.875 . S
C889 C278 1.834 . S
C921 C298 1.712 . S
C913 C241 1.734 . S
C953 C318 1.900 . S
C945 C145 1.988 . S
C977 C49 1.806 1_655 S
C985 C260 1.795 . S
C1017 C280 1.812 . S
C1009 C81 1.853 . S
C1049 C300 1.730 . S
C1041 C113 1.760 . S
C1073 C17 1.923 . S
C1081 C320 1.899 . S
