# Generated by pormake.
# Topology zzz, (3,6)-cn, num edge types: 1
# Building blocks:
#     Node 0, Type 0, BuildingBlock: QEWDON_clean_linker_0, # of connection points: 3
#     Node 1, Type 0, BuildingBlock: QEWDON_clean_linker_0, # of connection points: 3
#     Node 2, Type 0, BuildingBlock: QEWDON_clean_linker_0, # of connection points: 3
#     Node 3, Type 0, BuildingBlock: QEWDON_clean_linker_0, # of connection points: 3
#     Node 4, Type 0, BuildingBlock: QEWDON_clean_linker_0, # of connection points: 3
#     Node 5, Type 0, BuildingBlock: QEWDON_clean_linker_0, # of connection points: 3
#     Node 6, Type 0, BuildingBlock: QEWDON_clean_linker_0, # of connection points: 3
#     Node 7, Type 0, BuildingBlock: QEWDON_clean_linker_0, # of connection points: 3
#     Node 8, Type 1, BuildingBlock: JUFBIX_clean_sbu_0, # of connection points: 6
#     Node 9, Type 1, BuildingBlock: JUFBIX_clean_sbu_0, # of connection points: 6
#     Node 10, Type 1, BuildingBlock: JUFBIX_clean_sbu_0, # of connection points: 6
#     Node 11, Type 1, BuildingBlock: JUFBIX_clean_sbu_0, # of connection points: 6
#     Edge 12, Type (0, 1), BuildingBlock: CIFDUS_clean_linker_0, # of connection points: 2
#     Edge 13, Type (0, 1), BuildingBlock: CIFDUS_clean_linker_0, # of connection points: 2
#     Edge 14, Type (0, 1), BuildingBlock: CIFDUS_clean_linker_0, # of connection points: 2
#     Edge 15, Type (0, 1), BuildingBlock: CIFDUS_clean_linker_0, # of connection points: 2
#     Edge 16, Type (0, 1), BuildingBlock: CIFDUS_clean_linker_0, # of connection points: 2
#     Edge 17, Type (0, 1), BuildingBlock: CIFDUS_clean_linker_0, # of connection points: 2
#     Edge 18, Type (0, 1), BuildingBlock: CIFDUS_clean_linker_0, # of connection points: 2
#     Edge 19, Type (0, 1), BuildingBlock: CIFDUS_clean_linker_0, # of connection points: 2
#     Edge 20, Type (0, 1), BuildingBlock: CIFDUS_clean_linker_0, # of connection points: 2
#     Edge 21, Type (0, 1), BuildingBlock: CIFDUS_clean_linker_0, # of connection points: 2
#     Edge 22, Type (0, 1), BuildingBlock: CIFDUS_clean_linker_0, # of connection points: 2
#     Edge 23, Type (0, 1), BuildingBlock: CIFDUS_clean_linker_0, # of connection points: 2
#     Edge 24, Type (0, 1), BuildingBlock: CIFDUS_clean_linker_0, # of connection points: 2
#     Edge 25, Type (0, 1), BuildingBlock: CIFDUS_clean_linker_0, # of connection points: 2
#     Edge 26, Type (0, 1), BuildingBlock: CIFDUS_clean_linker_0, # of connection points: 2
#     Edge 27, Type (0, 1), BuildingBlock: CIFDUS_clean_linker_0, # of connection points: 2
#     Edge 28, Type (0, 1), BuildingBlock: CIFDUS_clean_linker_0, # of connection points: 2
#     Edge 29, Type (0, 1), BuildingBlock: CIFDUS_clean_linker_0, # of connection points: 2
#     Edge 30, Type (0, 1), BuildingBlock: CIFDUS_clean_linker_0, # of connection points: 2
#     Edge 31, Type (0, 1), BuildingBlock: CIFDUS_clean_linker_0, # of connection points: 2
#     Edge 32, Type (0, 1), BuildingBlock: CIFDUS_clean_linker_0, # of connection points: 2
#     Edge 33, Type (0, 1), BuildingBlock: CIFDUS_clean_linker_0, # of connection points: 2
#     Edge 34, Type (0, 1), BuildingBlock: CIFDUS_clean_linker_0, # of connection points: 2
#     Edge 35, Type (0, 1), BuildingBlock: CIFDUS_clean_linker_0, # of connection points: 2
# Relax obj value: 0.077
# Max RMSD: 0.171
# Mean RMSD: 0.076
data_MOF--net-zzz--node1-JUFBIX_clean_sbu_0--node2-QEWDON_clean_linker_0--edge1-CIFDUS_clean_linker_0
_symmetry_space_group_name_H-M    P1
_symmetry_Int_Tables_number       1
_symmetry_cell_setting            triclinic
loop_
_symmetry_equiv_pos_as_xyz
'x, y, z'
_cell_length_a     48.545527
_cell_length_b     48.470382
_cell_length_c     15.497014
_cell_angle_alpha  80.351334
_cell_angle_beta   89.741428
_cell_angle_gamma 90.527409
loop_
_atom_site_label
_atom_site_type_symbol
_atom_site_fract_x
_atom_site_fract_y
_atom_site_fract_z
_atom_type_partial_charge
H0 H 0.83485 0.54001 0.12978 0.0
C1 C 0.84168 0.5381 0.19698 0.0
C2 C 0.86736 0.52603 0.22035 0.0
C3 C 0.82583 0.54958 0.25887 0.0
H4 H 0.89598 0.51441 0.32508 0.0
C5 C 0.87628 0.52401 0.30673 0.0
C6 C 0.86171 0.53627 0.36796 0.0
C7 C 0.83645 0.54911 0.34418 0.0
C8 C 0.79914 0.56356 0.23301 0.0
H9 H 0.82516 0.55849 0.39212 0.0
C10 C 0.78026 0.55215 0.17901 0.0
C11 C 0.75488 0.56536 0.15556 0.0
C12 C 0.79242 0.58862 0.26222 0.0
H13 H 0.8066 0.59832 0.3021 0.0
C14 C 0.76744 0.60175 0.23941 0.0
H15 H 0.78529 0.53295 0.15569 0.0
C16 C 0.74876 0.59023 0.187 0.0
H17 H 0.72929 0.60064 0.17238 0.0
H18 H 0.76247 0.62095 0.26282 0.0
H19 H 0.0201 0.79285 0.11251 0.0
C20 C 0.02121 0.80032 0.17443 0.0
C21 C 0.02956 0.82814 0.17488 0.0
C22 C 1.01301 0.78269 0.25262 0.0
H23 H 0.03451 0.86007 0.25551 0.0
C24 C 0.02977 0.83821 0.25442 0.0
C25 C 0.02157 0.82144 0.33239 0.0
C26 C 1.01335 0.79363 0.33199 0.0
C27 C 1.00211 0.7538 0.24969 0.0
H28 H 1.00689 0.78091 0.39305 0.0
C29 C 1.01207 0.73783 0.18773 0.0
C30 C 1.00041 0.71143 0.18137 0.0
C31 C 0.98057 0.7425 0.30627 0.0
H32 H 0.9717 0.75421 0.35299 0.0
C33 C 0.96948 0.71615 0.30182 0.0
H34 H 0.02863 0.74603 0.14353 0.0
C35 C 0.97922 0.70073 0.23999 0.0
H36 H 0.97021 0.6803 0.2385 0.0
H37 H 0.95298 0.70773 0.346 0.0
H38 H 0.74552 1.01496 0.02403 0.0
C39 C 0.74142 0.01926 0.08923 0.0
C40 C 0.71596 0.03079 0.1085 0.0
C41 C 0.76041 1.0104 0.15691 0.0
H42 H 0.69268 0.04639 0.20777 0.0
C43 C 0.71149 0.03611 0.19363 0.0
C44 C 0.72764 0.02345 0.26335 0.0
C45 C 0.7526 1.01117 0.24444 0.0
C46 C 0.78519 0.99434 0.13957 0.0
H47 H 0.76522 1.00094 0.29772 0.0
C48 C 0.80871 1.00718 0.09467 0.0
C49 C 0.83178 0.99081 0.08004 0.0
C50 C 0.78513 0.96539 0.16985 0.0
H51 H 0.76737 0.95517 0.20445 0.0
C52 C 0.80777 0.94929 0.15547 0.0
H53 H 0.809 0.02953 0.07124 0.0
C54 C 0.83086 0.96182 0.11094 0.0
H55 H 0.84825 0.94879 0.10134 0.0
H56 H 0.80745 0.92697 0.17907 0.0
H57 H 0.53507 0.73691 0.03594 0.0
C58 C 0.53366 0.72414 0.10026 0.0
C59 C 0.52684 0.69552 0.10789 0.0
C60 C 0.54049 0.73559 0.1758 0.0
H61 H 0.52293 0.65629 0.1938 0.0
C62 C 0.52674 0.67855 0.19017 0.0
C63 C 0.53363 0.68906 0.26595 0.0
C64 C 0.54002 0.71772 0.25852 0.0
C65 C 0.55081 0.76521 0.16931 0.0
H66 H 0.54498 0.726 0.31735 0.0
C67 C 0.53943 0.78802 0.11111 0.0
C68 C 0.54912 0.81573 0.11133 0.0
C69 C 0.57271 0.77069 0.22359 0.0
H70 H 0.58277 0.75387 0.26641 0.0
C71 C 0.58229 0.79785 0.22324 0.0
H72 H 0.52277 0.78444 0.06794 0.0
C73 C 0.57049 0.82019 0.16831 0.0
H74 H 0.57848 0.8411 0.16908 0.0
H75 H 0.59906 0.8016 0.26573 0.0
H76 H 0.22494 0.54121 0.40459 0.0
C77 C 0.21674 0.53519 0.34548 0.0
C78 C 0.18905 0.52664 0.34415 0.0
C79 C 0.23354 0.53646 0.27014 0.0
H80 H 0.15632 0.51468 0.26467 0.0
C81 C 0.17809 0.51982 0.26715 0.0
C82 C 0.19403 0.52118 0.19153 0.0
C83 C 0.22179 0.52946 0.19292 0.0
C84 C 0.26294 0.54597 0.27096 0.0
H85 H 0.23406 0.5303 0.13399 0.0
C86 C 0.27946 0.53921 0.34646 0.0
C87 C 0.30724 0.54807 0.3458 0.0
C88 C 0.27469 0.56216 0.19561 0.0
H89 H 0.26258 0.56854 0.13731 0.0
C90 C 0.30216 0.57083 0.19472 0.0
H91 H 0.27104 0.52655 0.40504 0.0
C92 C 0.31837 0.5638 0.26896 0.0
H93 H 0.33954 0.57116 0.26683 0.0
H94 H 0.31088 0.58329 0.13631 0.0
H95 H 1.00565 0.24497 0.40391 0.0
C96 C 1.01184 0.23665 0.34622 0.0
C97 C 1.01441 0.2076 0.352 0.0
C98 C 0.01591 0.25461 0.26525 0.0
H99 H 0.02424 0.17407 0.28242 0.0
C100 C 0.02186 0.19653 0.27771 0.0
C101 C 0.02575 0.21361 0.19689 0.0
C102 C 0.02278 0.24268 0.19026 0.0
C103 C 1.01175 0.28549 0.25835 0.0
H104 H 0.02612 0.25579 0.12725 0.0
C105 C 0.01847 0.29984 0.32812 0.0
C106 C 1.01417 0.32891 0.3207 0.0
C107 C 1.00037 0.30081 0.1818 0.0
H108 H 0.99413 0.2906 0.12794 0.0
C109 C 0.99622 0.32953 0.17417 0.0
H110 H 0.02759 0.28867 0.38735 0.0
C111 C 1.00306 0.3435 0.24278 0.0
H112 H 0.99921 0.36575 0.23539 0.0
H113 H 0.98739 0.34099 0.11494 0.0
H114 H 0.30483 0.99853 0.5525 0.0
C115 C 0.31089 1.00655 0.48552 0.0
C116 C 0.33816 1.01583 0.4668 0.0
C117 C 0.29225 1.00503 0.41662 0.0
H118 H 0.36698 0.03264 0.36568 0.0
C119 C 0.34595 0.02538 0.37992 0.0
C120 C 0.32838 0.02289 0.31056 0.0
C121 C 0.30148 1.01244 0.3289 0.0
C122 C 0.26573 0.98962 0.43528 0.0
H123 H 0.28817 1.00911 0.27556 0.0
C124 C 0.24154 1.00224 0.46153 0.0
C125 C 0.21663 0.98657 0.47491 0.0
C126 C 0.26489 0.96142 0.42504 0.0
H127 H 0.28319 0.95139 0.40531 0.0
C128 C 0.24057 0.94588 0.43998 0.0
H129 H 0.24189 0.02408 0.46887 0.0
C130 C 0.21664 0.95832 0.46428 0.0
H131 H 0.19792 0.94581 0.47456 0.0
H132 H 0.24019 0.92412 0.43195 0.0
H133 H 0.52928 0.31112 0.55332 0.0
C134 C 0.5258 0.32223 0.48761 0.0
C135 C 0.51515 0.34948 0.47555 0.0
C136 C 0.53419 0.3104 0.41468 0.0
H137 H 0.50578 0.38619 0.38346 0.0
C138 C 0.51244 0.36461 0.391 0.0
C139 C 0.52161 0.35388 0.31769 0.0
C140 C 0.53214 0.32653 0.32987 0.0
C141 C 0.54942 0.28343 0.42709 0.0
H142 H 0.53969 0.31816 0.2737 0.0
C143 C 0.53871 0.2584 0.47716 0.0
C144 C 0.55383 0.23318 0.48521 0.0
C145 C 0.57555 0.28305 0.38797 0.0
H146 H 0.58446 0.30194 0.35054 0.0
C147 C 0.59075 0.25855 0.39775 0.0
H148 H 0.5185 0.2584 0.50711 0.0
C149 C 0.58008 0.2339 0.44575 0.0
H150 H 0.59262 0.2153 0.45253 0.0
H151 H 0.61097 0.25867 0.36794 0.0
Co152 Co 0.03254 0.02963 0.81444 0.0
C153 C 0.97706 1.01483 0.82865 0.0
Co154 Co 0.01907 1.00633 0.7099 0.0
C155 C 0.04024 0.07612 0.91107 0.0
C156 C 0.06581 0.04111 0.95743 0.0
N157 N 0.04579 0.04962 0.89932 0.0
N158 N 0.0562 0.0845 0.97357 0.0
C159 C 0.07207 0.06224 0.00319 0.0
H160 H 0.02544 0.08934 0.87237 0.0
H161 H 0.07588 0.02105 0.96465 0.0
C162 C 0.07444 0.02002 0.69498 0.0
N163 N 1.00571 0.98629 0.62565 0.0
C164 C 1.01171 0.9599 0.61409 0.0
C165 C 0.98465 0.99394 0.57063 0.0
N166 N 0.99497 0.95071 0.55512 0.0
C167 C 0.97813 0.97229 0.52717 0.0
C168 C 1.01354 0.06379 0.66618 0.0
O169 O 0.06908 0.0307 0.76303 0.0
O170 O 0.055 1.00837 0.65887 0.0
O171 O 1.00986 0.04074 0.63885 0.0
O172 O 0.0239 0.0637 0.74118 0.0
O173 O 0.98359 1.00434 0.76156 0.0
H174 H 0.97392 1.01361 0.56485 0.0
H175 H 0.02721 0.94718 0.65119 0.0
O176 O 0.99554 0.02787 0.8649 0.0
O177 O 0.04112 0.99498 0.88663 0.0
O178 O 0.02817 0.97245 0.7821 0.0
C179 C 0.03776 0.97208 0.85814 0.0
H180 H 0.08733 0.06115 0.05427 0.0
H181 H 0.96192 0.97241 0.47941 0.0
Co182 Co 0.51327 0.03032 0.84019 0.0
C183 C 0.52237 0.97229 0.87532 0.0
Co184 Co 0.53858 1.01459 0.73976 0.0
C185 C 0.46435 0.0371 0.94591 0.0
C186 C 0.49792 0.06412 0.9669 0.0
N187 N 0.49098 0.04334 0.92302 0.0
N188 N 0.45442 0.05346 0.00146 0.0
C189 C 0.47569 0.07027 0.01511 0.0
H190 H 0.45222 0.0216 0.9198 0.0
H191 H 0.5177 0.07473 0.96226 0.0
C192 C 0.52968 0.07252 0.70385 0.0
N193 N 0.56179 1.0029 0.65729 0.0
C194 C 0.58487 0.0168 0.62494 0.0
C195 C 0.56233 0.97864 0.62563 0.0
N196 N 0.59999 1.00225 0.57509 0.0
C197 C 0.58582 0.97817 0.5751 0.0
C198 C 0.48287 1.01391 0.70467 0.0
O199 O 0.51673 0.0682 0.77655 0.0
O200 O 0.54042 0.05179 0.67626 0.0
O201 O 0.5063 1.0076 0.67625 0.0
O202 O 0.48163 0.02454 0.77412 0.0
O203 O 0.53628 0.97731 0.80442 0.0
H204 H 0.54711 0.96206 0.64042 0.0
H205 H 0.59108 0.03683 0.64098 0.0
O206 O 0.51027 0.99249 0.90268 0.0
O207 O 0.54547 0.0356 0.90583 0.0
O208 O 0.57047 0.02153 0.80394 0.0
C209 C 0.56897 0.03041 0.87614 0.0
H210 H 0.4753 0.08605 0.05687 0.0
H211 H 0.59199 0.9614 0.54126 0.0
Co212 Co 0.55024 0.52089 0.79752 0.0
C213 C 0.52085 0.48612 0.93309 0.0
Co214 Co 0.50484 0.52283 0.78988 0.0
C215 C 0.60653 0.53586 0.8413 0.0
C216 C 0.60303 0.49401 0.81564 0.0
N217 N 0.58848 0.51771 0.81398 0.0
N218 N 0.63144 0.52424 0.86143 0.0
C219 C 0.62928 0.49797 0.84435 0.0
H220 H 0.60106 0.55663 0.85148 0.0
H221 H 0.59473 0.47445 0.80187 0.0
C222 C 0.53288 0.55708 0.65286 0.0
N223 N 0.4669 0.52482 0.77285 0.0
C224 C 0.45416 0.524 0.69601 0.0
C225 C 0.44632 0.52672 0.83007 0.0
N226 N 0.42641 0.5253 0.70215 0.0
C227 C 0.42144 0.52704 0.78693 0.0
C228 C 0.52769 0.56322 0.87607 0.0
O229 O 0.555 0.54914 0.69351 0.0
O230 O 0.51 0.54684 0.68307 0.0
O231 O 0.50466 0.55538 0.84831 0.0
O232 O 0.54915 0.54943 0.86513 0.0
O233 O 0.49988 0.49857 0.89717 0.0
H234 H 0.44919 0.52765 0.89871 0.0
H235 H 0.46534 0.52275 0.63637 0.0
O236 O 0.54466 0.49274 0.90063 0.0
O237 O 0.55082 0.49235 0.72923 0.0
O238 O 0.50578 0.49046 0.73197 0.0
C239 C 0.52864 0.48055 0.7115 0.0
H240 H 0.64522 0.48231 0.85478 0.0
H241 H 0.40134 0.52817 0.81643 0.0
Co242 Co 0.02903 0.52907 0.78672 0.0
C243 C 0.06948 0.49861 0.89011 0.0
Co244 Co 0.02536 0.48286 0.79939 0.0
C245 C 0.01615 0.58304 0.83478 0.0
C246 C 0.05422 0.5841 0.76448 0.0
N247 N 0.03221 0.56749 0.79019 0.0
N248 N 0.02753 0.6083 0.83972 0.0
C249 C 0.05142 0.60909 0.79474 0.0
H250 H 0.99742 0.57524 0.86882 0.0
H251 H 0.07211 0.57782 0.73103 0.0
C252 C 0.98463 0.51281 0.69685 0.0
N253 N 0.02291 0.4447 0.79541 0.0
C254 C 0.02156 0.43342 0.72145 0.0
C255 C 0.02281 0.42256 0.86091 0.0
N256 N 0.02079 0.40516 0.73758 0.0
C257 C 0.02141 0.39822 0.82558 0.0
C258 C 0.99541 0.50187 0.92404 0.0
O259 O 0.99642 0.5347 0.71549 0.0
O260 O 0.99515 0.48904 0.72363 0.0
O261 O 1.00029 0.47924 0.89582 0.0
O262 O 1.00674 0.52453 0.88759 0.0
O263 O 0.05594 0.47714 0.87664 0.0
H264 H 0.02396 0.42401 0.9297 0.0
H265 H 0.02093 0.44586 0.65662 0.0
O266 O 0.06107 0.52286 0.85722 0.0
O267 O 0.05186 0.53279 0.68609 0.0
O268 O 0.05023 0.48696 0.70346 0.0
C269 C 0.05974 0.51012 0.66348 0.0
H270 H 0.0664 0.62601 0.78734 0.0
H271 H 0.02138 0.3771 0.86188 0.0
H272 H 0.20239 1.00899 0.62051 0.0
H273 H 0.17034 0.99012 0.37795 0.0
H274 H 0.12369 1.00032 0.42205 0.0
H275 H 0.09133 1.00992 0.53521 0.0
H276 H 0.12256 0.029 0.77875 0.0
H277 H 0.16984 0.02355 0.72897 0.0
C278 C 0.18524 1.00787 0.5766 0.0
C279 C 0.18984 0.99884 0.49593 0.0
C280 C 0.15816 1.01333 0.60325 0.0
C281 C 0.16734 0.99707 0.44021 0.0
C282 C 0.14061 1.00272 0.46567 0.0
C283 C 0.10846 1.01316 0.57719 0.0
C284 C 0.10325 0.0196 0.66105 0.0
C285 C 0.13564 1.01007 0.54803 0.0
C286 C 0.12584 0.02399 0.71396 0.0
C287 C 0.15296 0.02081 0.68556 0.0
H288 H 0.5568 0.18237 0.43439 0.0
H289 H 0.5268 0.22207 0.64489 0.0
H290 H 0.51514 0.176 0.73029 0.0
H291 H 0.51691 0.12382 0.74917 0.0
H292 H 0.54941 0.08568 0.53784 0.0
H293 H 0.557 0.13155 0.45011 0.0
C294 C 0.54773 0.18105 0.49907 0.0
C295 C 0.54307 0.20576 0.53343 0.0
C296 C 0.54179 0.15458 0.54836 0.0
C297 C 0.53058 0.2035 0.61647 0.0
C298 C 0.52414 0.17709 0.66568 0.0
C299 C 0.52548 0.12558 0.68374 0.0
C300 C 0.53271 0.10111 0.65078 0.0
C301 C 0.53018 0.15238 0.63303 0.0
C302 C 0.54379 0.10393 0.56563 0.0
C303 C 0.54814 0.13026 0.51501 0.0
H304 H 0.35891 0.52694 0.35572 0.0
H305 H 0.29506 0.55518 0.51322 0.0
H306 H 0.32602 0.54976 0.63934 0.0
H307 H 0.37233 0.54011 0.70117 0.0
H308 H 0.43532 0.51011 0.54281 0.0
H309 H 0.40376 0.51358 0.42101 0.0
C310 C 0.35174 0.53176 0.41787 0.0
C311 C 0.32482 0.54167 0.42495 0.0
C312 C 0.36964 0.52866 0.48978 0.0
C313 C 0.31565 0.54741 0.5062 0.0
C314 C 0.33343 0.54449 0.57811 0.0
C315 C 0.3792 0.53398 0.64068 0.0
C316 C 0.40668 0.52542 0.63192 0.0
C317 C 0.36066 0.53557 0.57026 0.0
C318 C 0.41479 0.51758 0.55203 0.0
C319 C 0.39659 0.51931 0.48189 0.0
H320 H 1.00073 0.31489 0.4945 0.0
H321 H 0.0423 0.37822 0.30941 0.0
H322 H 0.04885 0.40697 0.42291 0.0
H323 H 0.04079 0.41534 0.57243 0.0
H324 H 0.99847 0.35286 0.75825 0.0
H325 H 0.99464 0.32245 0.64769 0.0
C326 C 1.0116 0.33478 0.47953 0.0
C327 C 0.02083 0.34447 0.39334 0.0
C328 C 1.01502 0.35147 0.54519 0.0
C329 C 0.03469 0.37042 0.37486 0.0
C330 C 0.03846 0.38689 0.43977 0.0
C331 C 0.03057 0.39515 0.58878 0.0
C332 C 0.01966 0.38661 0.67353 0.0
C333 C 0.02825 0.37789 0.52468 0.0
C334 C 1.00714 0.36 0.69384 0.0
C335 C 1.00483 0.34262 0.63041 0.0
H336 H 0.85596 0.9744 0.94032 0.0
H337 H 0.86516 0.03359 0.11672 0.0
H338 H 0.91106 0.04708 0.05468 0.0
H339 H 0.95024 0.03921 0.95587 0.0
H340 H 0.93878 0.97962 0.78019 0.0
H341 H 0.89261 0.96915 0.83651 0.0
C342 C 0.86787 0.99055 0.96438 0.0
C343 C 0.85719 1.00292 0.03309 0.0
C344 C 0.89418 0.99788 0.92916 0.0
C345 C 0.8728 0.02391 0.06331 0.0
C346 C 0.89918 0.0314 0.02838 0.0
C347 C 0.93757 0.02404 0.92982 0.0
C348 C 0.94836 1.01015 0.86401 0.0
C349 C 0.9104 0.01808 0.96232 0.0
C350 C 0.93137 0.99071 0.83072 0.0
C351 C 0.90478 0.98462 0.86291 0.0
H352 H 0.526 0.86182 0.15774 0.0
H353 H 0.54968 0.82614 0.93236 0.0
H354 H 0.5424 0.87138 0.83752 0.0
H355 H 0.53393 0.92244 0.82159 0.0
H356 H 0.5092 0.95735 0.0482 0.0
H357 H 0.51221 0.91124 0.13934 0.0
C358 C 0.52888 0.86383 0.0875 0.0
C359 C 0.53828 0.84065 0.05201 0.0
C360 C 0.52492 0.88995 0.0338 0.0
C361 C 0.54211 0.84354 0.96104 0.0
C362 C 0.53826 0.86952 0.90704 0.0
C363 C 0.52894 0.9199 0.89077 0.0
C364 C 0.52165 0.94353 0.92801 0.0
C365 C 0.53044 0.8931 0.94304 0.0
C366 C 0.51494 0.93969 0.01762 0.0
C367 C 0.5167 0.91328 0.06997 0.0
H368 H 0.72123 0.59292 0.02874 0.0
H369 H 0.74187 0.50992 0.15949 0.0
H370 H 0.70654 0.48992 0.07641 0.0
H371 H 0.66803 0.49604 0.97327 0.0
H372 H 0.64588 0.57897 0.84697 0.0
H373 H 0.68303 0.59898 0.92382 0.0
C374 C 0.71793 0.57045 0.03971 0.0
C375 C 0.73432 0.55304 0.10086 0.0
C376 C 0.69708 0.55907 0.99314 0.0
C377 C 0.72999 0.52391 0.11228 0.0
C378 C 0.70956 0.51242 0.06528 0.0
C379 C 0.67153 0.51846 0.96134 0.0
C380 C 0.65414 0.53595 0.90396 0.0
C381 C 0.6928 0.52981 0.00623 0.0
C382 C 0.65875 0.56503 0.89114 0.0
C383 C 0.68007 0.57647 0.93486 0.0
H384 H 0.96907 0.68143 0.08351 0.0
H385 H 0.05339 0.70437 0.12657 0.0
H386 H 0.06908 0.67586 0.0203 0.0
H387 H 0.05907 0.64232 0.92128 0.0
H388 H 0.97486 0.61838 0.88181 0.0
H389 H 0.95899 0.64892 0.98189 0.0
C390 C 0.99092 0.68008 0.07023 0.0
C391 C 1.00999 0.69498 0.11371 0.0
C392 C 0.99984 0.66329 0.01001 0.0
C393 C 0.03818 0.6934 0.0938 0.0
C394 C 0.0472 0.67692 0.03335 0.0
C395 C 0.03722 0.6441 0.93336 0.0
C396 C 0.01819 0.62798 0.89386 0.0
C397 C 0.02824 0.66157 0.99165 0.0
C398 C 0.98997 0.63027 0.91183 0.0
C399 C 0.98087 0.64781 0.96892 0.0
H400 H 0.98069 0.16287 0.3728 0.0
H401 H 0.03789 0.20731 0.51262 0.0
H402 H 0.03996 0.16677 0.63095 0.0
H403 H 0.03159 0.11618 0.68028 0.0
H404 H 0.97852 0.071 0.5284 0.0
H405 H 0.96904 0.11417 0.42813 0.0
C406 C 0.99312 0.16384 0.43031 0.0
C407 C 1.00941 0.18771 0.43393 0.0
C408 C 0.99552 0.14004 0.49441 0.0
C409 C 0.02517 0.18908 0.50879 0.0
C410 C 0.02665 0.16578 0.57558 0.0
C411 C 0.01769 0.1159 0.62581 0.0
C412 C 1.00612 0.0904 0.61076 0.0
C413 C 1.01294 0.14071 0.56686 0.0
C414 C 0.98805 0.09029 0.54034 0.0
C415 C 0.98251 0.11497 0.48329 0.0
H416 H 0.38622 0.98948 0.45759 0.0
H417 H 0.34001 0.03535 0.62381 0.0
H418 H 0.3808 0.03726 0.71642 0.0
H419 H 0.43079 0.02997 0.7398 0.0
H420 H 0.47696 0.98678 0.56505 0.0
H421 H 0.43498 0.98021 0.48467 0.0
C422 C 0.38501 0.99969 0.51467 0.0
C423 C 0.36031 1.01258 0.53345 0.0
C424 C 0.40864 1.00164 0.56474 0.0
C425 C 0.35879 0.02528 0.60827 0.0
C426 C 0.38218 0.02661 0.66041 0.0
C427 C 0.43167 0.01898 0.68438 0.0
C428 C 0.45713 1.00911 0.65796 0.0
C429 C 0.40743 1.01557 0.63763 0.0
C430 C 0.45779 0.99483 0.5863 0.0
C431 C 0.43376 0.99097 0.54049 0.0
H432 H 0.5566 0.37337 0.54823 0.0
H433 H 0.46834 0.36469 0.55294 0.0
H434 H 0.4644 0.40479 0.63017 0.0
H435 H 0.48619 0.44581 0.6798 0.0
H436 H 0.57468 0.4558 0.66157 0.0
H437 H 0.57839 0.4122 0.60499 0.0
C438 C 0.53662 0.3796 0.56966 0.0
C439 C 0.51285 0.36576 0.54756 0.0
C440 C 0.53453 0.4036 0.60869 0.0
C441 C 0.48692 0.37461 0.57195 0.0
C442 C 0.48469 0.39785 0.61442 0.0
C443 C 0.50625 0.43844 0.66337 0.0
C444 C 0.53006 0.45433 0.67418 0.0
C445 C 0.50833 0.41318 0.63011 0.0
C446 C 0.55593 0.44425 0.65333 0.0
C447 C 0.55816 0.41915 0.6214 0.0
H448 H 0.154 0.4851 0.41009 0.0
H449 H 0.18102 0.5675 0.44435 0.0
H450 H 0.14245 0.57024 0.54544 0.0
H451 H 0.09906 0.55026 0.61505 0.0
H452 H 0.07174 0.46852 0.57299 0.0
H453 H 0.11187 0.46494 0.48076 0.0
C454 C 0.15158 0.50356 0.44047 0.0
C455 C 0.17013 0.52613 0.41961 0.0
C456 C 0.12886 0.50543 0.49475 0.0
C457 C 0.1671 0.54976 0.46014 0.0
C458 C 0.14482 0.55149 0.51669 0.0
C459 C 0.10173 0.53188 0.58457 0.0
C460 C 0.08229 0.50985 0.59976 0.0
C461 C 0.12513 0.52975 0.53244 0.0
C462 C 0.0863 0.48585 0.56162 0.0
C463 C 0.10934 0.48367 0.5095 0.0
H464 H 0.06768 0.87019 0.1467 0.0
H465 H 1.00205 0.83223 0.01867 0.0
H466 H 1.00197 0.87252 0.90097 0.0
H467 H 1.01468 0.92171 0.84886 0.0
H468 H 0.07457 0.9623 0.99147 0.0
H469 H 0.08206 0.91826 0.09093 0.0
C470 C 0.05342 0.87063 0.09281 0.0
C471 C 0.03449 0.84843 0.09283 0.0
C472 C 0.05191 0.89475 0.02931 0.0
C473 C 0.01691 0.84889 0.02071 0.0
C474 C 0.01652 0.87218 0.95396 0.0
C475 C 0.02962 0.92078 0.9011 0.0
C476 C 0.04388 0.94516 0.91367 0.0
C477 C 0.03298 0.89573 0.95993 0.0
C478 C 0.06312 0.94381 0.9815 0.0
C479 C 0.06748 0.91866 0.03799 0.0
H480 H 0.6625 0.01937 0.15452 0.0
H481 H 0.71416 0.04391 0.92628 0.0
H482 H 0.67313 0.04568 0.83306 0.0
H483 H 0.62209 0.04071 0.81833 0.0
H484 H 0.57202 0.02245 0.05237 0.0
H485 H 0.61322 0.01944 0.14237 0.0
C486 C 0.66514 0.02632 0.08475 0.0
C487 C 0.69168 0.03244 0.04832 0.0
C488 C 0.64161 0.02868 0.03274 0.0
C489 C 0.69416 0.03929 0.95672 0.0
C490 C 0.67065 0.04048 0.90345 0.0
C491 C 0.62031 0.03639 0.88911 0.0
C492 C 0.59405 0.03178 0.92887 0.0
C493 C 0.64421 0.03535 0.94096 0.0
C494 C 0.59192 0.0263 0.0204 0.0
C495 C 0.61547 0.02438 0.07182 0.0
H496 H 0.56597 0.66665 0.04458 0.0
H497 H 0.4805 0.68821 0.01343 0.0
H498 H 0.47265 0.6488 0.93472 0.0
H499 H 0.4894 0.60426 0.8923 0.0
H500 H 0.57428 0.58126 0.94485 0.0
H501 H 0.58283 0.62443 -0.00122 0.0
C502 C 0.54591 0.66337 0.01705 0.0
C503 C 0.52405 0.68065 0.03243 0.0
C504 C 0.5412 0.63958 0.97863 0.0
C505 C 0.49783 0.67566 -0.0002 0.0
C506 C 0.49325 0.65273 0.95671 0.0
C507 C 0.50969 0.60871 0.91583 0.0
C508 C 0.53108 0.58926 0.91422 0.0
C509 C 0.51458 0.6338 0.949 0.0
C510 C 0.55732 0.59559 0.94468 0.0
C511 C 0.56238 0.62048 0.97544 0.0
H512 H 0.92046 0.54136 0.20454 0.0
H513 H 0.85883 0.49445 0.08953 0.0
H514 H 0.89408 0.47983 0.99201 0.0
H515 H 0.94292 0.48115 0.93968 0.0
H516 H 1.0031 0.52826 0.06039 0.0
H517 H 0.96807 0.5409 0.15944 0.0
C518 C 0.91471 0.52759 0.15898 0.0
C519 C 0.88721 0.51862 0.15502 0.0
C520 C 0.93497 0.51881 0.10592 0.0
C521 C 0.8799 0.50162 0.09359 0.0
C522 C 0.90009 0.49305 0.03872 0.0
C523 C 0.94834 0.49344 0.98963 0.0
C524 C 0.97552 0.5034 0.99439 0.0
C525 C 0.92779 0.50136 0.04488 0.0
C526 C 0.98234 0.52008 0.05696 0.0
C527 C 0.96231 0.52756 0.11272 0.0
H528 H 0.07231 0.1873 0.16535 0.0
H529 H 0.99063 0.20562 0.06693 0.0
H530 H 0.9935 0.16762 0.98086 0.0
H531 H 0.01641 0.12436 0.9546 0.0
H532 H 0.09825 0.10647 0.05595 0.0
H533 H 0.09799 0.14873 0.1204 0.0
C534 C 0.05566 0.18369 0.12194 0.0
C535 C 0.03145 0.19937 0.12141 0.0
C536 C 0.05709 0.16117 0.0757 0.0
C537 C 1.00969 0.19417 0.06677 0.0
C538 C 1.01116 0.17209 0.01893 0.0
C539 C 0.03441 0.12989 0.98925 0.0
C540 C 0.05697 0.11149 0.00227 0.0
C541 C 0.03429 0.15463 0.0261 0.0
C542 C 0.08013 0.11941 0.04725 0.0
C543 C 0.08017 0.14386 0.08357 0.0
H544 H 0.34969 0.07076 0.22025 0.0
H545 H 0.33827 0.98329 0.20927 0.0
H546 H 0.37573 0.98552 0.10166 0.0
H547 H 0.41742 1.01042 0.03394 0.0
H548 H 0.42894 0.09776 0.05057 0.0
H549 H 0.38616 0.09749 0.13276 0.0
C550 C 0.35461 0.05254 0.19106 0.0
C551 C 0.34119 0.02696 0.22216 0.0
C552 C 0.37698 0.05372 0.13265 0.0
C553 C 0.348 1.00333 0.18521 0.0
C554 C 0.36982 1.0045 0.12499 0.0
C555 C 0.41027 0.02952 0.05387 0.0
C556 C 0.42697 0.05385 0.03821 0.0
C557 C 0.38541 0.02925 0.10181 0.0
C558 C 0.41715 0.07846 0.06425 0.0
C559 C 0.39247 0.07842 0.11069 0.0
H560 H 0.48362 0.39137 0.24345 0.0
H561 H 0.5651 0.36113 0.20216 0.0
H562 H 0.57237 0.3996 0.0799 0.0
H563 H 0.55679 0.44404 0.9917 0.0
H564 H 0.47563 0.47448 0.03755 0.0
H565 H 0.46746 0.43433 0.15268 0.0
C566 C 0.5029 0.39304 0.20722 0.0
C567 C 0.5238 0.37339 0.23242 0.0
C568 C 0.5073 0.41573 0.13915 0.0
C569 C 0.54849 0.37568 0.18377 0.0
C570 C 0.55284 0.39796 0.11462 0.0
C571 C 0.53742 0.442 0.02747 0.0
C572 C 0.51701 0.46251 0.00672 0.0
C573 C 0.53266 0.41854 0.0932 0.0
C574 C 0.4918 0.45919 0.05253 0.0
C575 C 0.48703 0.43613 0.11813 0.0
H576 H 0.1641 0.47575 0.16795 0.0
H577 H 0.19051 0.5573 0.03746 0.0
H578 H 0.1548 0.55658 0.92667 0.0
H579 H 0.11172 0.53594 0.88176 0.0
H580 H 0.08471 0.45471 0.0145 0.0
H581 H 0.12487 0.45214 0.11031 0.0
C582 C 0.16255 0.49292 0.11345 0.0
C583 C 0.17975 0.5166 0.11076 0.0
C584 C 0.14138 0.49275 0.05221 0.0
C585 C 0.17766 0.53877 0.04025 0.0
C586 C 0.15695 0.53854 0.97786 0.0
C587 C 0.11475 0.51758 0.93129 0.0
C588 C 0.09499 0.4958 0.94247 0.0
C589 C 0.13793 0.51621 0.98568 0.0
C590 C 0.09949 0.47186 0.00534 0.0
C591 C 0.12245 0.47038 0.06 0.0
H592 H 0.97552 0.84389 0.38497 0.0
H593 H 0.06178 0.83344 0.44214 0.0
H594 H 0.06065 0.87209 0.52576 0.0
H595 H 0.03684 0.91384 0.55946 0.0
H596 H 0.95087 0.92526 0.49467 0.0
H597 H 0.95019 0.88168 0.43641 0.0
C598 C 0.99369 0.84929 0.41941 0.0
C599 C 0.01854 0.83557 0.40924 0.0
C600 C 0.99316 0.87246 0.46307 0.0
C601 C 0.04228 0.8433 0.4512 0.0
C602 C 0.04172 0.86575 0.4975 0.0
C603 C 0.01783 0.90654 0.53424 0.0
C604 C 0.99413 0.92331 0.52969 0.0
C605 C 0.01757 0.88132 0.5003 0.0
C606 C 0.96968 0.91338 0.4966 0.0
C607 C 0.96916 0.88823 0.46396 0.0
H608 H 0.69942 0.05868 0.35119 0.0
H609 H 0.72286 0.97241 0.36753 0.0
H610 H 0.68576 0.95796 0.47273 0.0
H611 H 0.64172 0.96911 0.53941 0.0
H612 H 0.61671 0.05525 0.51345 0.0
H613 H 0.65878 0.07033 0.43196 0.0
C614 C 0.69693 0.03679 0.37997 0.0
C615 C 0.71376 0.01668 0.35052 0.0
C616 C 0.67452 0.02847 0.43647 0.0
C617 C 0.71043 0.98843 0.38917 0.0
C618 C 0.68877 0.98006 0.44808 0.0
C619 C 0.64554 0.99116 0.51611 0.0
C620 C 0.62582 1.01095 0.53163 0.0
C621 C 0.66982 0.99975 0.46845 0.0
C622 C 0.63145 0.03954 0.50269 0.0
C623 C 0.65554 0.04821 0.45588 0.0
H624 H 0.49996 0.64507 0.32645 0.0
H625 H 0.57347 0.68713 0.39373 0.0
H626 H 0.58108 0.6494 0.51794 0.0
H627 H 0.56741 0.60286 0.6045 0.0
H628 H 0.49545 0.56077 0.52463 0.0
H629 H 0.48762 0.5993 0.40599 0.0
C630 C 0.51782 0.64602 0.36773 0.0
C631 C 0.53621 0.66889 0.34985 0.0
C632 C 0.52277 0.62374 0.43581 0.0
C633 C 0.55875 0.66999 0.40612 0.0
C634 C 0.56336 0.64816 0.47645 0.0
C635 C 0.55041 0.60198 0.5599 0.0
C636 C 0.53213 0.57885 0.57339 0.0
C637 C 0.54576 0.62458 0.49106 0.0
C638 C 0.50986 0.57825 0.51592 0.0
C639 C 0.50519 0.60039 0.44824 0.0
H640 H 0.87793 0.4928 0.48655 0.0
H641 H 0.87894 0.58279 0.43122 0.0
H642 H 0.91689 0.58408 0.53475 0.0
H643 H 0.95466 0.55893 0.62272 0.0
H644 H 0.95436 0.46846 0.66519 0.0
H645 H 0.91187 0.46809 0.58446 0.0
C646 C 0.88581 0.51269 0.4999 0.0
C647 C 0.87568 0.53762 0.45192 0.0
C648 C 0.90856 0.51315 0.55492 0.0
C649 C 0.88617 0.56332 0.46856 0.0
C650 C 0.90825 0.56401 0.52636 0.0
C651 C 0.94519 0.53919 0.61457 0.0
C652 C 0.95814 0.51382 0.64883 0.0
C653 C 0.92051 0.53899 0.56669 0.0
C654 C 0.94531 0.4884 0.63854 0.0
C655 C 0.92078 0.48806 0.59274 0.0
loop_
_geom_bond_atom_site_label_1
_geom_bond_atom_site_label_2
_geom_bond_distance
_geom_bond_site_symmetry_2
_ccdc_geom_bond_type
H0 C1 0.949 . S
C1 H0 0.949 . S
C1 C2 1.395 . S
C1 C3 1.391 . S
C2 C1 1.395 . S
C2 C5 1.390 . S
C3 C1 1.391 . S
C3 C7 1.387 . S
C3 C8 1.491 . S
H4 C5 0.950 . S
C5 C2 1.390 . S
C5 H4 0.950 . S
C5 C6 1.378 . S
C6 C5 1.378 . S
C6 C7 1.409 . S
C7 C3 1.387 . S
C7 C6 1.409 . S
C7 H9 0.951 . S
C8 C3 1.491 . S
C8 C10 1.382 . S
C8 C12 1.404 . S
H9 C7 0.951 . S
C10 C8 1.382 . S
C10 C11 1.390 . S
C10 H15 0.949 . S
C11 C10 1.390 . S
C11 C16 1.399 . S
C12 C8 1.404 . S
C12 H13 0.950 . S
C12 C14 1.375 . S
H13 C12 0.950 . S
C14 C12 1.375 . S
C14 C16 1.382 . S
C14 H18 0.950 . S
H15 C10 0.949 . S
C16 C11 1.399 . S
C16 C14 1.382 . S
C16 H17 0.952 . S
H17 C16 0.952 . S
H18 C14 0.950 . S
H19 C20 0.949 1_556 S
C20 H19 0.949 1_554 S
C20 C21 1.395 . S
C20 C22 1.391 . S
C21 C20 1.395 . S
C21 C24 1.390 . S
C22 C20 1.391 . S
C22 C26 1.387 . S
C22 C27 1.491 . S
H23 C24 0.950 . S
C24 C21 1.390 . S
C24 H23 0.950 . S
C24 C25 1.378 . S
C25 C24 1.378 . S
C25 C26 1.409 . S
C26 C22 1.387 . S
C26 C25 1.409 . S
C26 H28 0.951 . S
C27 C22 1.491 . S
C27 C29 1.382 . S
C27 C31 1.404 . S
H28 C26 0.951 . S
C29 C27 1.382 . S
C29 C30 1.390 . S
C29 H34 0.949 . S
C30 C29 1.390 . S
C30 C35 1.399 . S
C31 C27 1.404 . S
C31 H32 0.950 . S
C31 C33 1.375 . S
H32 C31 0.950 . S
C33 C31 1.375 . S
C33 C35 1.382 . S
C33 H37 0.950 . S
H34 C29 0.949 . S
C35 C30 1.399 . S
C35 C33 1.382 . S
C35 H36 0.952 . S
H36 C35 0.952 . S
H37 C33 0.950 . S
H38 C39 0.949 . S
C39 H38 0.949 . S
C39 C40 1.396 . S
C39 C41 1.391 1_556 S
C40 C39 1.396 . S
C40 C43 1.388 1_566 S
C41 C39 1.391 1_554 S
C41 C45 1.387 . S
C41 C46 1.491 . S
H42 C43 0.950 . S
C43 C40 1.388 1_544 S
C43 H42 0.950 . S
C43 C44 1.380 1_545 S
C44 C43 1.380 1_565 S
C44 C45 1.414 . S
C45 C41 1.387 . S
C45 C44 1.414 . S
C45 H47 0.951 . S
C46 C41 1.491 . S
C46 C48 1.382 1_554 S
C46 C50 1.404 . S
H47 C45 0.951 . S
C48 C46 1.382 1_556 S
C48 C49 1.390 . S
C48 H53 0.949 1_565 S
C49 C48 1.390 . S
C49 C54 1.399 1_556 S
C50 C46 1.404 . S
C50 H51 0.950 . S
C50 C52 1.375 . S
H51 C50 0.950 . S
C52 C50 1.375 . S
C52 C54 1.382 . S
C52 H56 0.950 . S
H53 C48 0.949 1_545 S
C54 C49 1.399 1_554 S
C54 C52 1.382 . S
C54 H55 0.952 . S
H55 C54 0.952 . S
H56 C52 0.950 . S
H57 C58 0.939 1_556 S
C58 H57 0.939 1_554 S
C58 C59 1.395 . S
C58 C60 1.391 . S
C59 C58 1.395 . S
C59 C62 1.390 . S
C60 C58 1.391 . S
C60 C64 1.387 . S
C60 C65 1.491 . S
H61 C62 0.950 . S
C62 C59 1.390 . S
C62 H61 0.950 . S
C62 C63 1.378 . S
C63 C62 1.378 . S
C63 C64 1.409 . S
C64 C60 1.387 . S
C64 C63 1.409 . S
C64 H66 0.951 . S
C65 C60 1.491 . S
C65 C67 1.382 . S
C65 C69 1.404 . S
H66 C64 0.951 . S
C67 C65 1.382 . S
C67 C68 1.390 . S
C67 H72 0.949 . S
C68 C67 1.390 . S
C68 C73 1.399 . S
C69 C65 1.404 . S
C69 H70 0.950 . S
C69 C71 1.375 . S
H70 C69 0.950 . S
C71 C69 1.375 . S
C71 C73 1.382 . S
C71 H75 0.950 . S
H72 C67 0.949 . S
C73 C68 1.399 . S
C73 C71 1.382 . S
C73 H74 0.952 . S
H74 C73 0.952 . S
H75 C71 0.950 . S
H76 C77 0.949 . S
C77 H76 0.949 . S
C77 C78 1.395 . S
C77 C79 1.391 . S
C78 C77 1.395 . S
C78 C81 1.390 . S
C79 C77 1.391 . S
C79 C83 1.387 . S
C79 C84 1.491 . S
H80 C81 0.950 . S
C81 C78 1.390 . S
C81 H80 0.950 . S
C81 C82 1.378 . S
C82 C81 1.378 . S
C82 C83 1.409 . S
C83 C79 1.387 . S
C83 C82 1.409 . S
C83 H85 0.951 . S
C84 C79 1.491 . S
C84 C86 1.382 . S
C84 C88 1.404 . S
H85 C83 0.951 . S
C86 C84 1.382 . S
C86 C87 1.390 . S
C86 H91 0.949 . S
C87 C86 1.390 . S
C87 C92 1.399 . S
C88 C84 1.404 . S
C88 H89 0.950 . S
C88 C90 1.375 . S
H89 C88 0.950 . S
C90 C88 1.375 . S
C90 C92 1.382 . S
C90 H94 0.950 . S
H91 C86 0.949 . S
C92 C87 1.399 . S
C92 C90 1.382 . S
C92 H93 0.952 . S
H93 C92 0.952 . S
H94 C90 0.950 . S
H95 C96 0.949 . S
C96 H95 0.949 . S
C96 C97 1.395 . S
C96 C98 1.391 . S
C97 C96 1.395 . S
C97 C100 1.390 . S
C98 C96 1.391 . S
C98 C102 1.387 . S
C98 C103 1.491 . S
H99 C100 0.950 . S
C100 C97 1.390 . S
C100 H99 0.950 . S
C100 C101 1.378 . S
C101 C100 1.378 . S
C101 C102 1.409 . S
C102 C98 1.387 . S
C102 C101 1.409 . S
C102 H104 0.951 . S
C103 C98 1.491 . S
C103 C105 1.382 . S
C103 C107 1.404 . S
H104 C102 0.951 . S
C105 C103 1.382 . S
C105 C106 1.390 . S
C105 H110 0.949 . S
C106 C105 1.390 . S
C106 C111 1.399 . S
C107 C103 1.404 . S
C107 H108 0.950 . S
C107 C109 1.375 . S
H108 C107 0.950 . S
C109 C107 1.375 . S
C109 C111 1.382 . S
C109 H113 0.950 . S
H110 C105 0.949 . S
C111 C106 1.399 . S
C111 C109 1.382 . S
C111 H112 0.952 . S
H112 C111 0.952 . S
H113 C109 0.950 . S
H114 C115 0.949 . S
C115 H114 0.949 . S
C115 C116 1.395 . S
C115 C117 1.397 . S
C116 C115 1.395 . S
C116 C119 1.390 . S
C117 C115 1.397 . S
C117 C121 1.386 . S
C117 C122 1.487 1_545 S
H118 C119 0.950 . S
C119 C116 1.390 . S
C119 H118 0.950 . S
C119 C120 1.378 . S
C120 C119 1.378 . S
C120 C121 1.409 . S
C121 C117 1.386 . S
C121 C120 1.409 . S
C121 H123 0.951 . S
C122 C117 1.487 1_565 S
C122 C124 1.382 1_565 S
C122 C126 1.404 . S
H123 C121 0.951 . S
C124 C122 1.382 1_545 S
C124 C125 1.395 . S
C124 H129 0.949 . S
C125 C124 1.395 . S
C125 C130 1.378 1_545 S
C126 C122 1.404 . S
C126 H127 0.950 . S
C126 C128 1.375 . S
H127 C126 0.950 . S
C128 C126 1.375 . S
C128 C130 1.382 . S
C128 H132 0.950 . S
H129 C124 0.949 . S
C130 C125 1.378 1_565 S
C130 C128 1.382 . S
C130 H131 0.952 . S
H131 C130 0.952 . S
H132 C128 0.950 . S
H133 C134 0.949 . S
C134 H133 0.949 . S
C134 C135 1.395 . S
C134 C136 1.391 . S
C135 C134 1.395 . S
C135 C138 1.390 . S
C136 C134 1.391 . S
C136 C140 1.387 . S
C136 C141 1.491 . S
H137 C138 0.950 . S
C138 C135 1.390 . S
C138 H137 0.950 . S
C138 C139 1.378 . S
C139 C138 1.378 . S
C139 C140 1.409 . S
C140 C136 1.387 . S
C140 C139 1.409 . S
C140 H142 0.951 . S
C141 C136 1.491 . S
C141 C143 1.382 . S
C141 C145 1.404 . S
H142 C140 0.951 . S
C143 C141 1.382 . S
C143 C144 1.390 . S
C143 H148 0.949 . S
C144 C143 1.390 . S
C144 C149 1.399 . S
C145 C141 1.404 . S
C145 H146 0.950 . S
C145 C147 1.375 . S
H146 C145 0.950 . S
C147 C145 1.375 . S
C147 C149 1.382 . S
C147 H151 0.950 . S
H148 C143 0.949 . S
C149 C144 1.399 . S
C149 C147 1.382 . S
C149 H150 0.952 . S
H150 C149 0.952 . S
H151 C147 0.950 . S
Co152 N157 2.057 . S
Co152 O169 2.021 . S
Co152 O172 2.062 . S
Co152 O176 2.117 1_455 S
Co152 O177 2.020 1_545 S
C153 O173 1.259 1_545 S
C153 O176 1.258 . S
Co154 N163 2.057 . S
Co154 O170 2.117 . S
Co154 O171 2.020 1_565 S
Co154 O173 2.021 1_455 S
Co154 O178 2.062 . S
C155 N157 1.316 1_554 S
C155 N158 1.347 . S
C155 H160 0.931 1_554 S
C156 N157 1.375 1_654 S
C156 C159 1.350 1_655 S
C156 H161 0.930 . S
N157 Co152 2.057 . S
N157 C155 1.316 1_556 S
N157 C156 1.375 1_456 S
N158 C155 1.347 . S
N158 C159 1.373 . S
C159 C156 1.350 1_455 S
C159 N158 1.373 . S
C159 H180 0.931 1_455 S
H160 C155 0.931 1_556 S
H161 C156 0.930 . S
C162 O169 1.274 . S
C162 O170 1.248 1_545 S
N163 Co154 2.057 . S
N163 C164 1.316 1_455 S
N163 C165 1.375 . S
C164 N163 1.316 1_655 S
C164 N166 1.347 . S
C164 H175 0.931 . S
C165 N163 1.375 . S
C165 C167 1.350 . S
C165 H174 0.930 . S
N166 C164 1.347 . S
N166 C167 1.373 1_655 S
C167 C165 1.350 . S
C167 N166 1.373 1_455 S
C167 H181 0.931 . S
C168 O171 1.256 . S
C168 O172 1.255 . S
O169 Co152 2.021 . S
O169 C162 1.274 . S
O170 Co154 2.117 . S
O170 C162 1.248 1_565 S
O171 Co154 2.020 1_545 S
O171 C168 1.256 . S
O172 Co152 2.062 . S
O172 C168 1.255 . S
O173 C153 1.259 1_565 S
O173 Co154 2.021 1_655 S
H174 C165 0.930 . S
H175 C164 0.931 . S
O176 Co152 2.117 1_655 S
O176 C153 1.258 . S
O177 Co152 2.020 1_565 S
O177 C179 1.256 . S
O178 Co154 2.062 . S
O178 C179 1.255 . S
C179 O177 1.256 . S
C179 O178 1.255 . S
H180 C159 0.931 1_655 S
H181 C167 0.931 . S
Co182 N187 2.057 . S
Co182 O199 2.021 . S
Co182 O202 2.062 . S
Co182 O206 2.117 1_545 S
Co182 O207 2.020 . S
C183 O203 1.259 . S
C183 O206 1.258 . S
Co184 N193 2.057 1_565 S
Co184 O200 2.117 1_565 S
Co184 O201 2.020 . S
Co184 O203 2.021 . S
Co184 O208 2.062 1_565 S
C185 N187 1.316 1_554 S
C185 N188 1.347 . S
C185 H190 0.931 1_554 S
C186 N187 1.375 1_564 S
C186 C189 1.350 . S
C186 H191 0.930 . S
N187 Co182 2.057 . S
N187 C185 1.316 1_556 S
N187 C186 1.375 1_546 S
N188 C185 1.347 . S
N188 C189 1.373 1_545 S
C189 C186 1.350 . S
C189 N188 1.373 1_565 S
C189 H210 0.931 . S
H190 C185 0.931 1_556 S
H191 C186 0.930 . S
C192 O199 1.259 . S
C192 O200 1.258 . S
N193 Co184 2.057 1_545 S
N193 C194 1.316 1_545 S
N193 C195 1.375 . S
C194 N193 1.316 1_565 S
C194 N196 1.346 1_565 S
C194 H205 0.931 . S
C195 N193 1.375 . S
C195 C197 1.350 . S
C195 H204 0.930 . S
N196 C194 1.346 1_545 S
N196 C197 1.376 . S
C197 C195 1.350 . S
C197 N196 1.376 . S
C197 H211 0.931 . S
C198 O201 1.256 1_545 S
C198 O202 1.255 . S
O199 Co182 2.021 . S
O199 C192 1.259 . S
O200 Co184 2.117 1_545 S
O200 C192 1.258 . S
O201 Co184 2.020 . S
O201 C198 1.256 1_565 S
O202 Co182 2.062 . S
O202 C198 1.255 . S
O203 C183 1.259 . S
O203 Co184 2.021 . S
H204 C195 0.930 . S
H205 C194 0.931 . S
O206 Co182 2.117 1_565 S
O206 C183 1.258 . S
O207 Co182 2.020 . S
O207 C209 1.256 . S
O208 Co184 2.062 1_545 S
O208 C209 1.255 . S
C209 O207 1.256 . S
C209 O208 1.255 . S
H210 C189 0.931 . S
H211 C197 0.931 . S
Co212 N217 2.057 . S
Co212 O229 2.021 . S
Co212 O232 2.062 . S
Co212 O236 2.117 . S
Co212 O237 2.020 . S
C213 O233 1.259 . S
C213 O236 1.258 . S
Co214 N223 2.057 . S
Co214 O230 2.117 . S
Co214 O231 2.020 . S
Co214 O233 2.021 . S
Co214 O238 2.062 . S
C215 N217 1.316 . S
C215 N218 1.347 . S
C215 H220 0.931 . S
C216 N217 1.375 . S
C216 C219 1.350 . S
C216 H221 0.930 . S
N217 Co212 2.057 . S
N217 C215 1.316 . S
N217 C216 1.375 . S
N218 C215 1.347 . S
N218 C219 1.373 . S
C219 C216 1.350 . S
C219 N218 1.373 . S
C219 H240 0.931 . S
H220 C215 0.931 . S
H221 C216 0.930 . S
C222 O229 1.259 . S
C222 O230 1.258 . S
N223 Co214 2.057 . S
N223 C224 1.316 . S
N223 C225 1.375 . S
C224 N223 1.316 . S
C224 N226 1.347 . S
C224 H235 0.931 . S
C225 N223 1.375 . S
C225 C227 1.350 . S
C225 H234 0.930 . S
N226 C224 1.347 . S
N226 C227 1.373 . S
C227 C225 1.350 . S
C227 N226 1.373 . S
C227 H241 0.931 . S
C228 O231 1.256 . S
C228 O232 1.255 . S
O229 Co212 2.021 . S
O229 C222 1.259 . S
O230 Co214 2.117 . S
O230 C222 1.258 . S
O231 Co214 2.020 . S
O231 C228 1.256 . S
O232 Co212 2.062 . S
O232 C228 1.255 . S
O233 C213 1.259 . S
O233 Co214 2.021 . S
H234 C225 0.930 . S
H235 C224 0.931 . S
O236 Co212 2.117 . S
O236 C213 1.258 . S
O237 Co212 2.020 . S
O237 C239 1.256 . S
O238 Co214 2.062 . S
O238 C239 1.255 . S
C239 O237 1.256 . S
C239 O238 1.255 . S
H240 C219 0.931 . S
H241 C227 0.931 . S
Co242 N247 2.057 . S
Co242 O259 2.021 1_455 S
Co242 O262 2.062 1_455 S
Co242 O266 2.117 . S
Co242 O267 2.020 . S
C243 O263 1.259 . S
C243 O266 1.258 . S
Co244 N253 2.057 . S
Co244 O260 2.117 1_455 S
Co244 O261 2.020 1_455 S
Co244 O263 2.021 . S
Co244 O268 2.062 . S
C245 N247 1.316 . S
C245 N248 1.347 . S
C245 H250 0.931 1_455 S
C246 N247 1.375 . S
C246 C249 1.350 . S
C246 H251 0.930 . S
N247 Co242 2.057 . S
N247 C245 1.316 . S
N247 C246 1.375 . S
N248 C245 1.347 . S
N248 C249 1.373 . S
C249 C246 1.350 . S
C249 N248 1.373 . S
C249 H270 0.931 . S
H250 C245 0.931 1_655 S
H251 C246 0.930 . S
C252 O259 1.259 . S
C252 O260 1.258 . S
N253 Co244 2.057 . S
N253 C254 1.316 . S
N253 C255 1.375 1_455 S
C254 N253 1.316 . S
C254 N256 1.347 . S
C254 H265 0.931 . S
C255 N253 1.375 1_655 S
C255 C257 1.350 . S
C255 H264 0.930 . S
N256 C254 1.347 . S
N256 C257 1.373 1_455 S
C257 C255 1.350 . S
C257 N256 1.373 1_655 S
C257 H271 0.931 . S
C258 O261 1.256 . S
C258 O262 1.255 . S
O259 Co242 2.021 1_655 S
O259 C252 1.259 . S
O260 Co244 2.117 1_655 S
O260 C252 1.258 . S
O261 Co244 2.020 1_655 S
O261 C258 1.256 . S
O262 Co242 2.062 1_655 S
O262 C258 1.255 . S
O263 C243 1.259 . S
O263 Co244 2.021 . S
H264 C255 0.930 . S
H265 C254 0.931 . S
O266 Co242 2.117 . S
O266 C243 1.258 . S
O267 Co242 2.020 . S
O267 C269 1.256 . S
O268 Co244 2.062 . S
O268 C269 1.255 . S
C269 O267 1.256 . S
C269 O268 1.255 . S
H270 C249 0.931 . S
H271 C257 0.931 . S
H272 C278 0.930 . S
H273 C281 0.937 . S
H274 C282 0.934 . S
H275 C283 0.924 1_565 S
H276 C286 0.930 . S
H277 C287 0.930 . S
C278 H272 0.930 . S
C278 C279 1.355 . S
C278 C280 1.415 . S
C279 C278 1.355 . S
C279 C281 1.419 . S
C280 C278 1.415 . S
C280 C285 1.425 . S
C280 C287 1.409 . S
C281 H273 0.937 . S
C281 C279 1.419 . S
C281 C282 1.362 1_545 S
C282 H274 0.934 . S
C282 C281 1.362 1_565 S
C282 C285 1.406 1_565 S
C283 H275 0.924 1_545 S
C283 C284 1.360 . S
C283 C285 1.415 . S
C284 C283 1.360 . S
C284 C286 1.419 . S
C285 C280 1.425 . S
C285 C282 1.406 1_545 S
C285 C283 1.415 . S
C286 H276 0.930 . S
C286 C284 1.419 . S
C286 C287 1.362 . S
C287 H277 0.930 . S
C287 C280 1.409 . S
C287 C286 1.362 . S
H288 C294 0.930 . S
H289 C297 0.930 . S
H290 C298 0.930 . S
H291 C299 0.930 . S
H292 C302 0.930 . S
H293 C303 0.930 . S
C294 H288 0.930 . S
C294 C295 1.355 . S
C294 C296 1.415 . S
C295 C294 1.355 . S
C295 C297 1.419 . S
C296 C294 1.415 . S
C296 C301 1.425 . S
C296 C303 1.409 . S
C297 H289 0.930 . S
C297 C295 1.419 . S
C297 C298 1.362 . S
C298 H290 0.930 . S
C298 C297 1.362 . S
C298 C301 1.409 . S
C299 H291 0.930 . S
C299 C300 1.355 . S
C299 C301 1.415 . S
C300 C299 1.355 . S
C300 C302 1.419 . S
C301 C296 1.425 . S
C301 C298 1.409 . S
C301 C299 1.415 . S
C302 H292 0.930 . S
C302 C300 1.419 . S
C302 C303 1.362 . S
C303 H293 0.930 . S
C303 C296 1.409 . S
C303 C302 1.362 . S
H304 C310 0.930 . S
H305 C313 0.930 . S
H306 C314 0.930 . S
H307 C315 0.930 . S
H308 C318 0.930 . S
H309 C319 0.930 . S
C310 H304 0.930 . S
C310 C311 1.355 . S
C310 C312 1.415 . S
C311 C310 1.355 . S
C311 C313 1.419 . S
C312 C310 1.415 . S
C312 C317 1.425 . S
C312 C319 1.409 . S
C313 H305 0.930 . S
C313 C311 1.419 . S
C313 C314 1.362 . S
C314 H306 0.930 . S
C314 C313 1.362 . S
C314 C317 1.409 . S
C315 H307 0.930 . S
C315 C316 1.355 . S
C315 C317 1.415 . S
C316 C315 1.355 . S
C316 C318 1.419 . S
C317 C312 1.425 . S
C317 C314 1.409 . S
C317 C315 1.415 . S
C318 H308 0.930 . S
C318 C316 1.419 . S
C318 C319 1.362 . S
C319 H309 0.930 . S
C319 C312 1.409 . S
C319 C318 1.362 . S
H320 C326 0.930 . S
H321 C329 0.930 . S
H322 C330 0.930 . S
H323 C331 0.930 . S
H324 C334 0.930 . S
H325 C335 0.930 . S
C326 H320 0.930 . S
C326 C327 1.355 . S
C326 C328 1.415 . S
C327 C326 1.355 . S
C327 C329 1.419 . S
C328 C326 1.415 . S
C328 C333 1.425 . S
C328 C335 1.409 . S
C329 H321 0.930 . S
C329 C327 1.419 . S
C329 C330 1.362 . S
C330 H322 0.930 . S
C330 C329 1.362 . S
C330 C333 1.409 . S
C331 H323 0.930 . S
C331 C332 1.355 . S
C331 C333 1.415 . S
C332 C331 1.355 . S
C332 C334 1.419 . S
C333 C328 1.425 . S
C333 C330 1.409 . S
C333 C331 1.415 . S
C334 H324 0.930 . S
C334 C332 1.419 . S
C334 C335 1.362 . S
C335 H325 0.930 . S
C335 C328 1.409 . S
C335 C334 1.362 . S
H336 C342 0.930 . S
H337 C345 0.930 . S
H338 C346 0.930 . S
H339 C347 0.930 . S
H340 C350 0.930 . S
H341 C351 0.930 . S
C342 H336 0.930 . S
C342 C343 1.355 1_565 S
C342 C344 1.415 . S
C343 C342 1.355 1_545 S
C343 C345 1.419 . S
C344 C342 1.415 . S
C344 C349 1.425 1_565 S
C344 C351 1.409 . S
C345 H337 0.930 . S
C345 C343 1.419 . S
C345 C346 1.362 . S
C346 H338 0.930 . S
C346 C345 1.362 . S
C346 C349 1.409 . S
C347 H339 0.930 . S
C347 C348 1.355 . S
C347 C349 1.415 . S
C348 C347 1.355 . S
C348 C350 1.419 1_545 S
C349 C344 1.425 1_545 S
C349 C346 1.409 . S
C349 C347 1.415 . S
C350 H340 0.930 . S
C350 C348 1.419 1_565 S
C350 C351 1.362 . S
C351 H341 0.930 . S
C351 C344 1.409 . S
C351 C350 1.362 . S
H352 C358 0.930 . S
H353 C361 0.930 . S
H354 C362 0.930 . S
H355 C363 0.930 . S
H356 C366 0.930 . S
H357 C367 0.930 . S
C358 H352 0.930 . S
C358 C359 1.355 . S
C358 C360 1.415 . S
C359 C358 1.355 . S
C359 C361 1.419 . S
C360 C358 1.415 . S
C360 C365 1.425 . S
C360 C367 1.409 . S
C361 H353 0.930 . S
C361 C359 1.419 . S
C361 C362 1.362 . S
C362 H354 0.930 . S
C362 C361 1.362 . S
C362 C365 1.409 . S
C363 H355 0.930 . S
C363 C364 1.355 . S
C363 C365 1.415 . S
C364 C363 1.355 . S
C364 C366 1.419 . S
C365 C360 1.425 . S
C365 C362 1.409 . S
C365 C363 1.415 . S
C366 H356 0.930 . S
C366 C364 1.419 . S
C366 C367 1.362 . S
C367 H357 0.930 . S
C367 C360 1.409 . S
C367 C366 1.362 . S
H368 C374 0.930 . S
H369 C377 0.930 . S
H370 C378 0.930 . S
H371 C379 0.926 1_554 S
H372 C382 0.930 . S
H373 C383 0.930 . S
C374 H368 0.930 . S
C374 C375 1.355 1_556 S
C374 C376 1.415 . S
C375 C374 1.355 1_554 S
C375 C377 1.419 . S
C376 C374 1.415 . S
C376 C381 1.430 . S
C376 C383 1.409 . S
C377 H369 0.930 . S
C377 C375 1.419 . S
C377 C378 1.362 . S
C378 H370 0.930 . S
C378 C377 1.362 . S
C378 C381 1.401 1_554 S
C379 H371 0.926 1_556 S
C379 C380 1.355 . S
C379 C381 1.419 . S
C380 C379 1.355 . S
C380 C382 1.419 . S
C381 C376 1.430 . S
C381 C378 1.401 1_556 S
C381 C379 1.419 . S
C382 H372 0.930 . S
C382 C380 1.419 . S
C382 C383 1.362 . S
C383 H373 0.930 . S
C383 C376 1.409 . S
C383 C382 1.362 . S
H384 C390 0.930 . S
H385 C393 0.930 . S
H386 C394 0.921 1_455 S
H387 C395 0.930 . S
H388 C398 0.930 . S
H389 C399 0.930 . S
C390 H384 0.930 . S
C390 C391 1.355 1_556 S
C390 C392 1.415 . S
C391 C390 1.355 1_554 S
C391 C393 1.419 . S
C392 C390 1.415 . S
C392 C397 1.425 . S
C392 C399 1.409 . S
C393 H385 0.930 . S
C393 C391 1.419 . S
C393 C394 1.369 . S
C394 H386 0.921 1_655 S
C394 C393 1.369 . S
C394 C397 1.413 1_554 S
C395 H387 0.930 . S
C395 C396 1.355 1_455 S
C395 C397 1.415 1_455 S
C396 C395 1.355 1_655 S
C396 C398 1.419 . S
C397 C392 1.425 . S
C397 C394 1.413 1_556 S
C397 C395 1.415 1_655 S
C398 H388 0.930 . S
C398 C396 1.419 . S
C398 C399 1.362 . S
C399 H389 0.930 . S
C399 C392 1.409 . S
C399 C398 1.362 . S
H400 C406 0.930 . S
H401 C409 0.930 . S
H402 C410 0.930 . S
H403 C411 0.930 . S
H404 C414 0.930 . S
H405 C415 0.930 . S
C406 H400 0.930 . S
C406 C407 1.355 . S
C406 C408 1.415 . S
C407 C406 1.355 . S
C407 C409 1.419 . S
C408 C406 1.415 . S
C408 C413 1.425 . S
C408 C415 1.409 1_455 S
C409 H401 0.930 . S
C409 C407 1.419 . S
C409 C410 1.362 . S
C410 H402 0.930 . S
C410 C409 1.362 . S
C410 C413 1.409 . S
C411 H403 0.930 . S
C411 C412 1.355 . S
C411 C413 1.415 . S
C412 C411 1.355 . S
C412 C414 1.419 1_455 S
C413 C408 1.425 . S
C413 C410 1.409 . S
C413 C411 1.415 . S
C414 H404 0.930 . S
C414 C412 1.419 1_655 S
C414 C415 1.362 . S
C415 H405 0.930 . S
C415 C408 1.409 1_655 S
C415 C414 1.362 . S
H416 C422 0.933 . S
H417 C425 0.930 . S
H418 C426 0.930 . S
H419 C427 0.930 . S
H420 C430 0.930 . S
H421 C431 0.938 . S
C422 H416 0.933 . S
C422 C423 1.355 . S
C422 C424 1.415 . S
C423 C422 1.355 . S
C423 C425 1.419 . S
C424 C422 1.415 . S
C424 C429 1.425 . S
C424 C431 1.403 1_545 S
C425 H417 0.930 . S
C425 C423 1.419 . S
C425 C426 1.362 . S
C426 H418 0.930 . S
C426 C425 1.362 . S
C426 C429 1.409 . S
C427 H419 0.930 . S
C427 C428 1.355 . S
C427 C429 1.415 . S
C428 C427 1.355 . S
C428 C430 1.419 1_545 S
C429 C424 1.425 . S
C429 C426 1.409 . S
C429 C427 1.415 . S
C430 H420 0.930 . S
C430 C428 1.419 1_565 S
C430 C431 1.362 . S
C431 H421 0.938 . S
C431 C424 1.403 1_565 S
C431 C430 1.362 . S
H432 C438 0.930 . S
H433 C441 0.930 . S
H434 C442 0.930 . S
H435 C443 0.930 . S
H436 C446 0.930 . S
H437 C447 0.930 . S
C438 H432 0.930 . S
C438 C439 1.355 . S
C438 C440 1.415 . S
C439 C438 1.355 . S
C439 C441 1.419 . S
C440 C438 1.415 . S
C440 C445 1.425 . S
C440 C447 1.409 . S
C441 H433 0.930 . S
C441 C439 1.419 . S
C441 C442 1.362 . S
C442 H434 0.930 . S
C442 C441 1.362 . S
C442 C445 1.409 . S
C443 H435 0.930 . S
C443 C444 1.355 . S
C443 C445 1.415 . S
C444 C443 1.355 . S
C444 C446 1.419 . S
C445 C440 1.425 . S
C445 C442 1.409 . S
C445 C443 1.415 . S
C446 H436 0.930 . S
C446 C444 1.419 . S
C446 C447 1.362 . S
C447 H437 0.930 . S
C447 C440 1.409 . S
C447 C446 1.362 . S
H448 C454 0.930 . S
H449 C457 0.930 . S
H450 C458 0.930 . S
H451 C459 0.930 . S
H452 C462 0.930 . S
H453 C463 0.930 . S
C454 H448 0.930 . S
C454 C455 1.355 . S
C454 C456 1.415 . S
C455 C454 1.355 . S
C455 C457 1.419 . S
C456 C454 1.415 . S
C456 C461 1.425 . S
C456 C463 1.409 . S
C457 H449 0.930 . S
C457 C455 1.419 . S
C457 C458 1.362 . S
C458 H450 0.930 . S
C458 C457 1.362 . S
C458 C461 1.409 . S
C459 H451 0.930 . S
C459 C460 1.355 . S
C459 C461 1.415 . S
C460 C459 1.355 . S
C460 C462 1.419 . S
C461 C456 1.425 . S
C461 C458 1.409 . S
C461 C459 1.415 . S
C462 H452 0.930 . S
C462 C460 1.419 . S
C462 C463 1.362 . S
C463 H453 0.930 . S
C463 C456 1.409 . S
C463 C462 1.362 . S
H464 C470 0.950 . S
H465 C473 0.930 . S
H466 C474 0.930 . S
H467 C475 0.930 . S
H468 C478 0.930 . S
H469 C479 0.930 1_554 S
C470 H464 0.950 . S
C470 C471 1.355 1_554 S
C470 C472 1.415 1_554 S
C471 C470 1.355 1_556 S
C471 C473 1.419 . S
C472 C470 1.415 1_556 S
C472 C477 1.425 . S
C472 C479 1.409 1_655 S
C473 H465 0.930 . S
C473 C471 1.419 . S
C473 C474 1.362 . S
C474 H466 0.930 . S
C474 C473 1.362 . S
C474 C477 1.409 . S
C475 H467 0.930 . S
C475 C476 1.355 1_655 S
C475 C477 1.415 . S
C476 C475 1.355 1_455 S
C476 C478 1.419 . S
C477 C472 1.425 . S
C477 C474 1.409 . S
C477 C475 1.415 . S
C478 H468 0.930 . S
C478 C476 1.419 . S
C478 C479 1.362 . S
C479 H469 0.930 1_556 S
C479 C472 1.409 1_455 S
C479 C478 1.362 . S
H480 C486 0.930 1_554 S
H481 C489 0.930 . S
H482 C490 0.930 . S
H483 C491 0.930 . S
H484 C494 0.930 . S
H485 C495 0.930 1_554 S
C486 H480 0.930 1_556 S
C486 C487 1.355 1_565 S
C486 C488 1.415 . S
C487 C486 1.355 1_545 S
C487 C489 1.419 . S
C488 C486 1.415 . S
C488 C493 1.425 1_565 S
C488 C495 1.409 . S
C489 H481 0.930 . S
C489 C487 1.419 . S
C489 C490 1.362 . S
C490 H482 0.930 . S
C490 C489 1.362 . S
C490 C493 1.409 . S
C491 H483 0.930 . S
C491 C492 1.355 . S
C491 C493 1.415 . S
C492 C491 1.355 . S
C492 C494 1.419 1_545 S
C493 C488 1.425 1_545 S
C493 C490 1.409 . S
C493 C491 1.415 . S
C494 H484 0.930 . S
C494 C492 1.419 1_565 S
C494 C495 1.362 . S
C495 H485 0.930 1_556 S
C495 C488 1.409 . S
C495 C494 1.362 . S
H496 C502 0.930 . S
H497 C505 0.930 . S
H498 C506 0.930 . S
H499 C507 0.930 . S
H500 C510 0.930 . S
H501 C511 0.930 . S
C502 H496 0.930 . S
C502 C503 1.355 1_556 S
C502 C504 1.415 . S
C503 C502 1.355 1_554 S
C503 C505 1.419 . S
C504 C502 1.415 . S
C504 C509 1.425 . S
C504 C511 1.409 . S
C505 H497 0.930 . S
C505 C503 1.419 . S
C505 C506 1.362 1_554 S
C506 H498 0.930 . S
C506 C505 1.362 1_556 S
C506 C509 1.409 . S
C507 H499 0.930 . S
C507 C508 1.355 . S
C507 C509 1.415 . S
C508 C507 1.355 . S
C508 C510 1.419 . S
C509 C504 1.425 . S
C509 C506 1.409 . S
C509 C507 1.415 . S
C510 H500 0.930 . S
C510 C508 1.419 . S
C510 C511 1.362 . S
C511 H501 0.930 . S
C511 C504 1.409 . S
C511 C510 1.362 . S
H512 C518 0.930 . S
H513 C521 0.930 . S
H514 C522 0.930 . S
H515 C523 0.930 . S
H516 C526 0.930 . S
H517 C527 0.930 . S
C518 H512 0.930 . S
C518 C519 1.355 . S
C518 C520 1.415 1_554 S
C519 C518 1.355 . S
C519 C521 1.419 . S
C520 C518 1.415 1_556 S
C520 C525 1.425 . S
C520 C527 1.409 . S
C521 H513 0.930 . S
C521 C519 1.419 . S
C521 C522 1.362 . S
C522 H514 0.930 . S
C522 C521 1.362 . S
C522 C525 1.409 1_554 S
C523 H515 0.930 . S
C523 C524 1.355 . S
C523 C525 1.415 . S
C524 C523 1.355 . S
C524 C526 1.419 . S
C525 C520 1.425 . S
C525 C522 1.409 1_556 S
C525 C523 1.415 . S
C526 H516 0.930 . S
C526 C524 1.419 . S
C526 C527 1.362 . S
C527 H517 0.930 . S
C527 C520 1.409 . S
C527 C526 1.362 . S
H528 C534 0.930 . S
H529 C537 0.930 . S
H530 C538 0.930 . S
H531 C539 0.930 . S
H532 C542 0.930 . S
H533 C543 0.930 . S
C534 H528 0.930 . S
C534 C535 1.355 . S
C534 C536 1.415 . S
C535 C534 1.355 . S
C535 C537 1.419 . S
C536 C534 1.415 . S
C536 C541 1.425 . S
C536 C543 1.409 . S
C537 H529 0.930 . S
C537 C535 1.419 . S
C537 C538 1.362 . S
C538 H530 0.930 . S
C538 C537 1.362 . S
C538 C541 1.409 . S
C539 H531 0.930 . S
C539 C540 1.355 . S
C539 C541 1.415 . S
C540 C539 1.355 . S
C540 C542 1.419 . S
C541 C536 1.425 . S
C541 C538 1.409 . S
C541 C539 1.415 . S
C542 H532 0.930 . S
C542 C540 1.419 . S
C542 C543 1.362 . S
C543 H533 0.930 . S
C543 C536 1.409 . S
C543 C542 1.362 . S
H544 C550 0.930 . S
H545 C553 0.930 . S
H546 C554 0.930 . S
H547 C555 0.930 1_565 S
H548 C558 0.930 . S
H549 C559 0.930 . S
C550 H544 0.930 . S
C550 C551 1.355 . S
C550 C552 1.415 . S
C551 C550 1.355 . S
C551 C553 1.419 1_545 S
C552 C550 1.415 . S
C552 C557 1.425 . S
C552 C559 1.409 . S
C553 H545 0.930 . S
C553 C551 1.419 1_565 S
C553 C554 1.362 . S
C554 H546 0.930 . S
C554 C553 1.362 . S
C554 C557 1.409 1_565 S
C555 H547 0.930 1_545 S
C555 C556 1.355 . S
C555 C557 1.415 . S
C556 C555 1.355 . S
C556 C558 1.419 . S
C557 C552 1.425 . S
C557 C554 1.409 1_545 S
C557 C555 1.415 . S
C558 H548 0.930 . S
C558 C556 1.419 . S
C558 C559 1.362 . S
C559 H549 0.930 . S
C559 C552 1.409 . S
C559 C558 1.362 . S
H560 C566 0.930 . S
H561 C569 0.930 . S
H562 C570 0.930 . S
H563 C571 0.930 . S
H564 C574 0.930 1_556 S
H565 C575 0.930 . S
C566 H560 0.930 . S
C566 C567 1.355 . S
C566 C568 1.415 . S
C567 C566 1.355 . S
C567 C569 1.419 . S
C568 C566 1.415 . S
C568 C573 1.425 . S
C568 C575 1.409 . S
C569 H561 0.930 . S
C569 C567 1.419 . S
C569 C570 1.362 . S
C570 H562 0.930 . S
C570 C569 1.362 . S
C570 C573 1.409 . S
C571 H563 0.930 . S
C571 C572 1.355 . S
C571 C573 1.415 . S
C572 C571 1.355 . S
C572 C574 1.419 . S
C573 C568 1.425 . S
C573 C570 1.409 . S
C573 C571 1.415 . S
C574 H564 0.930 1_554 S
C574 C572 1.419 . S
C574 C575 1.362 . S
C575 H565 0.930 . S
C575 C568 1.409 . S
C575 C574 1.362 . S
H576 C582 0.930 . S
H577 C585 0.930 . S
H578 C586 0.930 . S
H579 C587 0.930 . S
H580 C590 0.930 . S
H581 C591 0.930 1_556 S
C582 H576 0.930 . S
C582 C583 1.355 . S
C582 C584 1.415 . S
C583 C582 1.355 . S
C583 C585 1.419 . S
C584 C582 1.415 . S
C584 C589 1.425 . S
C584 C591 1.409 . S
C585 H577 0.930 . S
C585 C583 1.419 . S
C585 C586 1.362 . S
C586 H578 0.930 . S
C586 C585 1.362 . S
C586 C589 1.409 . S
C587 H579 0.930 . S
C587 C588 1.355 1_554 S
C587 C589 1.415 . S
C588 C587 1.355 1_556 S
C588 C590 1.419 . S
C589 C584 1.425 . S
C589 C586 1.409 . S
C589 C587 1.415 . S
C590 H580 0.930 . S
C590 C588 1.419 . S
C590 C591 1.362 1_556 S
C591 H581 0.930 1_554 S
C591 C584 1.409 . S
C591 C590 1.362 1_554 S
H592 C598 0.930 . S
H593 C601 0.930 . S
H594 C602 0.930 . S
H595 C603 0.930 . S
H596 C606 0.930 . S
H597 C607 0.930 . S
C598 H592 0.930 . S
C598 C599 1.355 . S
C598 C600 1.415 . S
C599 C598 1.355 . S
C599 C601 1.419 . S
C600 C598 1.415 . S
C600 C605 1.425 . S
C600 C607 1.409 . S
C601 H593 0.930 . S
C601 C599 1.419 . S
C601 C602 1.362 . S
C602 H594 0.930 . S
C602 C601 1.362 . S
C602 C605 1.409 . S
C603 H595 0.930 . S
C603 C604 1.355 . S
C603 C605 1.415 . S
C604 C603 1.355 . S
C604 C606 1.419 . S
C605 C600 1.425 . S
C605 C602 1.409 . S
C605 C603 1.415 . S
C606 H596 0.930 . S
C606 C604 1.419 . S
C606 C607 1.362 . S
C607 H597 0.930 . S
C607 C600 1.409 . S
C607 C606 1.362 . S
H608 C614 0.930 . S
H609 C617 0.930 . S
H610 C618 0.930 . S
H611 C619 0.930 . S
H612 C622 0.930 . S
H613 C623 0.930 . S
C614 H608 0.930 . S
C614 C615 1.355 1_545 S
C614 C616 1.415 . S
C615 C614 1.355 1_565 S
C615 C617 1.419 . S
C616 C614 1.415 . S
C616 C621 1.425 1_545 S
C616 C623 1.409 . S
C617 H609 0.930 . S
C617 C615 1.419 . S
C617 C618 1.362 . S
C618 H610 0.930 . S
C618 C617 1.362 . S
C618 C621 1.409 . S
C619 H611 0.930 . S
C619 C620 1.355 . S
C619 C621 1.415 . S
C620 C619 1.355 . S
C620 C622 1.419 1_565 S
C621 C616 1.425 1_565 S
C621 C618 1.409 . S
C621 C619 1.415 . S
C622 H612 0.930 . S
C622 C620 1.419 1_545 S
C622 C623 1.362 . S
C623 H613 0.930 . S
C623 C616 1.409 . S
C623 C622 1.362 . S
H624 C630 0.930 . S
H625 C633 0.930 . S
H626 C634 0.930 . S
H627 C635 0.930 . S
H628 C638 0.930 . S
H629 C639 0.930 . S
C630 H624 0.930 . S
C630 C631 1.355 . S
C630 C632 1.415 . S
C631 C630 1.355 . S
C631 C633 1.419 . S
C632 C630 1.415 . S
C632 C637 1.425 . S
C632 C639 1.409 . S
C633 H625 0.930 . S
C633 C631 1.419 . S
C633 C634 1.362 . S
C634 H626 0.930 . S
C634 C633 1.362 . S
C634 C637 1.409 . S
C635 H627 0.930 . S
C635 C636 1.355 . S
C635 C637 1.415 . S
C636 C635 1.355 . S
C636 C638 1.419 . S
C637 C632 1.425 . S
C637 C634 1.409 . S
C637 C635 1.415 . S
C638 H628 0.930 . S
C638 C636 1.419 . S
C638 C639 1.362 . S
C639 H629 0.930 . S
C639 C632 1.409 . S
C639 C638 1.362 . S
H640 C646 0.930 . S
H641 C649 0.930 . S
H642 C650 0.930 . S
H643 C651 0.930 . S
H644 C654 0.930 . S
H645 C655 0.930 . S
C646 H640 0.930 . S
C646 C647 1.355 . S
C646 C648 1.415 . S
C647 C646 1.355 . S
C647 C649 1.419 . S
C648 C646 1.415 . S
C648 C653 1.425 . S
C648 C655 1.409 . S
C649 H641 0.930 . S
C649 C647 1.419 . S
C649 C650 1.362 . S
C650 H642 0.930 . S
C650 C649 1.362 . S
C650 C653 1.409 . S
C651 H643 0.930 . S
C651 C652 1.355 . S
C651 C653 1.415 . S
C652 C651 1.355 . S
C652 C654 1.419 . S
C653 C648 1.425 . S
C653 C650 1.409 . S
C653 C651 1.415 . S
C654 H644 0.930 . S
C654 C652 1.419 . S
C654 C655 1.362 . S
C655 H645 0.930 . S
C655 C648 1.409 . S
C655 C654 1.362 . S
C279 C125 1.568 . S
C284 C162 1.725 . S
C300 C192 1.817 . S
C295 C144 1.640 . S
C316 N226 1.368 . S
C311 C87 1.358 . S
C332 N256 1.429 . S
C327 C106 1.282 . S
C348 C153 1.721 . S
C343 C49 1.658 1_545 S
C359 C68 1.720 1_556 S
C364 C183 1.828 . S
C375 C11 1.385 . S
C380 N218 1.419 . S
C391 C30 1.412 . S
C396 N248 1.431 1_655 S
C412 C168 0.664 . S
C407 C97 0.724 . S
C428 C198 1.064 . S
C423 C116 1.054 . S
C444 C239 1.325 . S
C439 C135 1.298 . S
C455 C78 0.769 . S
C460 C269 0.815 . S
C471 C21 0.709 1_556 S
C476 C179 0.662 . S
C492 C209 1.058 . S
C487 C40 1.047 1_545 S
C508 C228 1.292 . S
C503 C59 1.258 . S
C519 C2 0.820 . S
C524 C258 0.792 . S
C535 C101 1.489 . S
C540 N158 1.476 . S
C551 C120 1.430 . S
C556 N188 1.464 . S
C572 C213 1.647 1_554 S
C567 C139 1.627 . S
C588 C243 1.611 . S
C583 C82 1.569 . S
C599 C25 1.484 . S
C604 N166 1.487 . S
C620 N196 1.407 1_565 S
C615 C44 1.450 . S
C636 C222 1.654 . S
C631 C63 1.648 . S
C647 C6 1.613 . S
C652 C252 1.620 . S
