# Generated by pormake.
# Topology zzz, (3,6)-cn, num edge types: 1
# Building blocks:
#     Node 0, Type 0, BuildingBlock: BELTOD_clean_linker_0, # of connection points: 3
#     Node 1, Type 0, BuildingBlock: BELTOD_clean_linker_0, # of connection points: 3
#     Node 2, Type 0, BuildingBlock: BELTOD_clean_linker_0, # of connection points: 3
#     Node 3, Type 0, BuildingBlock: BELTOD_clean_linker_0, # of connection points: 3
#     Node 4, Type 0, BuildingBlock: BELTOD_clean_linker_0, # of connection points: 3
#     Node 5, Type 0, BuildingBlock: BELTOD_clean_linker_0, # of connection points: 3
#     Node 6, Type 0, BuildingBlock: BELTOD_clean_linker_0, # of connection points: 3
#     Node 7, Type 0, BuildingBlock: BELTOD_clean_linker_0, # of connection points: 3
#     Node 8, Type 1, BuildingBlock: GEDQOX_clean_sbu_0, # of connection points: 6
#     Node 9, Type 1, BuildingBlock: GEDQOX_clean_sbu_0, # of connection points: 6
#     Node 10, Type 1, BuildingBlock: GEDQOX_clean_sbu_0, # of connection points: 6
#     Node 11, Type 1, BuildingBlock: GEDQOX_clean_sbu_0, # of connection points: 6
#     Edge 12, Type (0, 1), None
#     Edge 13, Type (0, 1), None
#     Edge 14, Type (0, 1), None
#     Edge 15, Type (0, 1), None
#     Edge 16, Type (0, 1), None
#     Edge 17, Type (0, 1), None
#     Edge 18, Type (0, 1), None
#     Edge 19, Type (0, 1), None
#     Edge 20, Type (0, 1), None
#     Edge 21, Type (0, 1), None
#     Edge 22, Type (0, 1), None
#     Edge 23, Type (0, 1), None
#     Edge 24, Type (0, 1), None
#     Edge 25, Type (0, 1), None
#     Edge 26, Type (0, 1), None
#     Edge 27, Type (0, 1), None
#     Edge 28, Type (0, 1), None
#     Edge 29, Type (0, 1), None
#     Edge 30, Type (0, 1), None
#     Edge 31, Type (0, 1), None
#     Edge 32, Type (0, 1), None
#     Edge 33, Type (0, 1), None
#     Edge 34, Type (0, 1), None
#     Edge 35, Type (0, 1), None
# Relax obj value: 0.312
# Max RMSD: 0.376
# Mean RMSD: 0.173
data_MOF--net-zzz--node1-GEDQOX_clean_sbu_0--node2-BELTOD_clean_linker_0--edge1-none
_symmetry_space_group_name_H-M    P1
_symmetry_Int_Tables_number       1
_symmetry_cell_setting            triclinic
loop_
_symmetry_equiv_pos_as_xyz
'x, y, z'
_cell_length_a     30.515965
_cell_length_b     29.208948
_cell_length_c     12.542589
_cell_angle_alpha  73.313932
_cell_angle_beta   89.407516
_cell_angle_gamma 109.85699
loop_
_atom_site_label
_atom_site_type_symbol
_atom_site_fract_x
_atom_site_fract_y
_atom_site_fract_z
_atom_type_partial_charge
P0 P 0.74155 0.50734 0.26653 0.0
H1 H 0.73675 0.48474 0.51008 0.0
H2 H 0.78604 0.52718 0.63051 0.0
H3 H 0.87308 0.64468 0.33758 0.0
H4 H 0.82143 0.60363 0.21769 0.0
H5 H 0.7138 0.54189 0.037 0.0
H6 H 0.65314 0.57776 0.97447 0.0
H7 H 0.62079 0.57738 0.30873 0.0
H8 H 0.68517 0.54823 0.36837 0.0
H9 H 0.78238 0.42837 0.29781 0.0
H10 H 0.79598 0.57002 0.0459 0.0
O11 O 0.70608 0.44934 0.34515 0.0
H12 H 0.85336 0.42756 0.20701 0.0
H13 H 0.8653 0.56845 0.95235 0.0
C14 C 0.77604 0.54045 0.35517 0.0
C15 C 0.76584 0.52011 0.47178 0.0
C16 C 0.79423 0.54438 0.54047 0.0
C17 C 0.83399 0.58891 0.49358 0.0
C18 C 0.84261 0.61068 0.3764 0.0
C19 C 0.81357 0.58678 0.30777 0.0
C20 C 0.70419 0.54233 0.20791 0.0
C21 C 0.69526 0.55174 0.09574 0.0
C22 C 0.6601 0.57165 0.05994 0.0
C23 C 0.63147 0.57899 0.13693 0.0
C24 C 0.64216 0.5719 0.24745 0.0
C25 C 0.67863 0.55465 0.28185 0.0
C26 C 0.78307 0.49874 0.1774 0.0
C27 C 0.79932 0.45809 0.21994 0.0
C28 C 0.84004 0.45758 0.16809 0.0
C29 C 0.86535 0.49803 0.07298 0.0
C30 C 0.84686 0.53663 0.02596 0.0
C31 C 0.80662 0.53739 0.07857 0.0
P32 P 0.07225 0.76132 0.33001 0.0
H33 H 0.08213 0.7619 0.56267 0.0
H34 H 0.05286 0.80482 0.67124 0.0
H35 H 0.95798 0.83019 0.42658 0.0
H36 H 0.98446 0.78315 0.32446 0.0
H37 H 0.11231 0.7467 0.13869 0.0
H38 H 0.09046 0.6786 0.05102 0.0
H39 H 0.96883 0.59391 0.29867 0.0
H40 H 0.99062 0.66305 0.38525 0.0
H41 H 0.13023 0.86618 0.30357 0.0
H42 H 0.02909 0.78395 0.12324 0.0
O43 O 0.1237 0.76304 0.37617 0.0
H44 H 0.1152 0.94375 0.21012 0.0
H45 H 0.0142 0.86122 0.02894 0.0
C46 C 0.03583 0.76906 0.43452 0.0
C47 C 0.05353 0.77457 0.53484 0.0
C48 C 0.03746 0.80048 0.59572 0.0
C49 C 0.00382 0.82261 0.55677 0.0
C50 C 0.98386 0.81398 0.46011 0.0
C51 C -0.00099 0.7867 0.40123 0.0
C52 C 0.05302 0.70992 0.26843 0.0
C53 C 0.08065 0.71361 0.17366 0.0
C54 C 0.06808 0.67484 0.12303 0.0
C55 C 0.02798 0.63097 0.16755 0.0
C56 C 1e-05 0.62742 0.26226 0.0
C57 C 0.01238 0.6667 0.31227 0.0
C58 C 0.08108 0.81942 0.2201 0.0
C59 C 0.10665 0.86544 0.23957 0.0
C60 C 0.09716 0.90946 0.18791 0.0
C61 C 0.06211 0.90783 0.11573 0.0
C62 C 0.04062 0.86324 0.08621 0.0
C63 C 0.05 0.81919 0.13836 0.0
P64 P 0.79056 0.08237 0.19559 0.0
H65 H 0.76478 0.11667 0.37412 0.0
H66 H 0.69828 0.07773 0.52084 0.0
H67 H 0.6595 0.93669 0.43804 0.0
H68 H 0.72661 0.97604 0.29004 0.0
H69 H 0.82854 0.07779 0.98638 0.0
H70 H 0.88821 0.04533 0.94559 0.0
H71 H 0.89021 0.97982 0.30059 0.0
H72 H 0.82917 0.01134 0.34081 0.0
H73 H 0.75646 0.16657 0.11312 0.0
H74 H 0.7385 0.02273 0.05706 0.0
O75 O 0.82816 0.13777 0.20399 0.0
H76 H 0.6889 0.1715 0.01385 0.0
H77 H 0.67216 0.02792 0.95545 0.0
C78 C 0.75107 0.04893 0.32274 0.0
C79 C 0.74309 0.07685 0.38982 0.0
C80 C 0.70492 0.05472 0.47297 0.0
C81 C 0.67394 0.00441 0.48985 0.0
C82 C 0.68331 0.97537 0.42698 0.0
C83 C 0.72158 0.99774 0.34301 0.0
C84 C 0.82403 0.04643 0.16655 0.0
C85 C 0.84017 0.05447 0.05545 0.0
C86 C 0.87438 0.03585 0.03224 0.0
C87 C 0.89423 0.01048 0.11994 0.0
C88 C 0.87545 0.99904 0.23128 0.0
C89 C 0.84072 0.01726 0.25436 0.0
C90 C 0.75295 0.09471 0.09074 0.0
C91 C 0.73934 0.13726 0.07489 0.0
C92 C 0.70067 0.14003 0.01812 0.0
C93 C 0.67488 0.09987 0.97774 0.0
C94 C 0.69114 0.05946 0.98588 0.0
C95 C 0.72941 0.05655 0.04337 0.0
P96 P 0.46799 0.82379 0.56988 0.0
H97 H 0.45102 0.78219 0.81318 0.0
H98 H 0.47673 0.71807 0.937 0.0
H99 H 0.58754 0.74964 0.67988 0.0
H100 H 0.56161 0.81454 0.55574 0.0
H101 H 0.42239 0.86006 0.3829 0.0
H102 H 0.44659 0.93365 0.21403 0.0
H103 H 0.58387 0.98765 0.32033 0.0
H104 H 0.55951 0.91138 0.48901 0.0
H105 H 0.38325 0.73089 0.60944 0.0
H106 H 0.51591 0.8043 0.39816 0.0
O107 O 0.42054 0.825 0.63472 0.0
H108 H 0.36521 0.65818 0.53498 0.0
H109 H 0.49905 0.73171 0.32764 0.0
C110 C 0.50389 0.80316 0.67389 0.0
C111 C 0.48237 0.7775 0.78469 0.0
C112 C 0.49687 0.74012 0.85567 0.0
C113 C 0.53342 0.72753 0.81762 0.0
C114 C 0.55902 0.758 0.71195 0.0
C115 C 0.54433 0.79554 0.64069 0.0
C116 C 0.48897 0.88079 0.44958 0.0
C117 C 0.45783 0.88762 0.37009 0.0
C118 C 0.47178 0.92956 0.27291 0.0
C119 C 0.51707 0.96651 0.25381 0.0
C120 C 0.54859 0.95976 0.33326 0.0
C121 C 0.53475 0.91669 0.43005 0.0
C122 C 0.45083 0.77286 0.50886 0.0
C123 C 0.40825 0.73146 0.54676 0.0
C124 C 0.39817 0.68985 0.50504 0.0
C125 C 0.43141 0.68876 0.42833 0.0
C126 C 0.47332 0.73104 0.38885 0.0
C127 C 0.48285 0.77268 0.42856 0.0
P128 P 0.26549 0.51204 0.76723 0.0
H129 H 0.22231 0.41842 0.70583 0.0
H130 H 0.18287 0.40415 0.54495 0.0
H131 H 0.23644 0.56657 0.37466 0.0
H132 H 0.28001 0.58075 0.53282 0.0
H133 H 0.31714 0.4955 0.9593 0.0
H134 H 0.39985 0.50913 0.97705 0.0
H135 H 0.43464 0.5875 0.62226 0.0
H136 H 0.35105 0.56965 0.60272 0.0
H137 H 0.2218 0.58662 0.6376 0.0
H138 H 0.23784 0.51953 0.98257 0.0
O139 O 0.24249 0.45459 0.86383 0.0
H140 H 0.15906 0.6099 0.69747 0.0
H141 H 0.17458 0.5431 0.04283 0.0
C142 C 0.25186 0.50111 0.63439 0.0
C143 C 0.22725 0.4511 0.63278 0.0
C144 C 0.20474 0.44276 0.54019 0.0
C145 C 0.20548 0.48436 0.4493 0.0
C146 C 0.23498 0.5339 0.44471 0.0
C147 C 0.2593 0.542 0.5357 0.0
C148 C 0.32767 0.53213 0.77974 0.0
C149 C 0.34245 0.51598 0.88506 0.0
C150 C 0.38982 0.52371 0.89526 0.0
C151 C 0.4237 0.54957 0.80092 0.0
C152 C 0.40919 0.56753 0.69611 0.0
C153 C 0.36144 0.55808 0.68525 0.0
C154 C 0.23424 0.54943 0.80526 0.0
C155 C 0.21338 0.57808 0.72617 0.0
C156 C 0.17729 0.59218 0.76061 0.0
C157 C 0.16111 0.57759 0.87478 0.0
C158 C 0.18588 0.55456 0.95388 0.0
C159 C 0.22223 0.54097 0.91937 0.0
P160 P 0.03932 0.35162 0.62113 0.0
H161 H 0.11583 0.35539 0.48126 0.0
H162 H 0.12001 0.30075 0.37317 0.0
H163 H 0.96924 0.24488 0.3854 0.0
H164 H 0.96544 0.30305 0.49111 0.0
H165 H 0.00249 0.33843 0.84654 0.0
H166 H 0.98783 0.40012 0.92388 0.0
H167 H 0.98762 0.4947 0.58896 0.0
H168 H 0.00301 0.43282 0.5117 0.0
H169 H 0.10217 0.30474 0.73509 0.0
H170 H 0.95404 0.26088 0.70303 0.0
O171 O 0.09369 0.3893 0.62775 0.0
H172 H 0.09258 0.21589 0.81941 0.0
H173 H 0.94415 0.17013 0.78773 0.0
C174 C 0.04048 0.33516 0.49255 0.0
C175 C 0.08361 0.33431 0.45512 0.0
C176 C 0.08595 0.30162 0.39526 0.0
C177 C 0.04494 0.2672 0.37339 0.0
C178 C 0.0016 0.2709 0.40117 0.0
C179 C -0.00059 0.30471 0.46047 0.0
C180 C 0.0033 0.38047 0.67252 0.0
C181 C -0.00309 0.37106 0.78938 0.0
C182 C 0.98914 0.40679 0.83416 0.0
C183 C 0.98746 0.45268 0.76281 0.0
C184 C 0.98915 0.45976 0.64643 0.0
C185 C -0.00259 0.42414 0.6017 0.0
C186 C 0.02866 0.28931 0.7155 0.0
C187 C 0.06727 0.27605 0.74926 0.0
C188 C 0.0618 0.2251 0.79554 0.0
C189 C 0.01768 0.1864 0.80798 0.0
C190 C 0.97856 0.19946 0.77663 0.0
C191 C 0.98405 0.25102 0.73109 0.0
P192 P 0.30423 0.14679 0.71224 0.0
H193 H 0.35204 0.23515 0.51582 0.0
H194 H 0.38437 0.24061 0.33297 0.0
H195 H 0.3163 0.07775 0.40505 0.0
H196 H 0.27714 0.07377 0.58112 0.0
H197 H 0.22985 0.17001 0.59368 0.0
H198 H 0.14571 0.14323 0.64744 0.0
H199 H 0.15979 0.05182 0.97488 0.0
H200 H 0.24391 0.07861 0.92053 0.0
H201 H 0.32625 0.05557 0.70232 0.0
H202 H 0.33885 0.1454 0.92773 0.0
O203 O 0.32703 0.20473 0.72827 0.0
H204 H 0.37496 0.01344 0.80667 0.0
H205 H 0.38717 0.10216 0.03525 0.0
C206 C 0.31593 0.15304 0.56654 0.0
C207 C 0.34301 0.20068 0.49156 0.0
C208 C 0.36188 0.20379 0.38689 0.0
C209 C 0.35664 0.15909 0.35942 0.0
C210 C 0.32321 0.11264 0.42686 0.0
C211 C 0.30169 0.11012 0.52849 0.0
C212 C 0.2426 0.12485 0.75178 0.0
C213 C 0.21472 0.1438 0.67658 0.0
C214 C 0.16685 0.12888 0.70768 0.0
C215 C 0.1465 0.09526 0.81489 0.0
C216 C 0.17478 0.07772 0.89161 0.0
C217 C 0.22272 0.09258 0.86017 0.0
C218 C 0.33093 0.10615 0.80279 0.0
C219 C 0.33868 0.06608 0.77482 0.0
C220 C 0.36615 0.04092 0.83651 0.0
C221 C 0.38616 0.05529 0.92759 0.0
C222 C 0.37302 0.09058 0.9643 0.0
C223 C 0.34586 0.11598 0.90187 0.0
P224 P 0.50799 0.29462 0.39808 0.0
H225 H 0.44702 0.29932 0.2198 0.0
H226 H 0.4522 0.37815 0.07927 0.0
H227 H 0.60064 0.44036 0.09987 0.0
H228 H 0.59477 0.36087 0.24393 0.0
H229 H 0.45122 0.19015 0.52749 0.0
H230 H 0.46848 0.12656 0.6749 0.0
H231 H 0.61678 0.21308 0.58732 0.0
H232 H 0.59915 0.27879 0.43836 0.0
H233 H 0.49946 0.3936 0.33067 0.0
H234 H 0.56705 0.31443 0.58069 0.0
O235 O 0.45055 0.2773 0.43266 0.0
H236 H 0.53908 0.47203 0.37145 0.0
H237 H 0.60307 0.39207 0.63138 0.0
C238 C 0.51994 0.32429 0.24693 0.0
C239 C 0.48129 0.32822 0.19022 0.0
C240 C 0.4841 0.37415 0.11056 0.0
C241 C 0.52635 0.41628 0.08218 0.0
C242 C 0.56727 0.40878 0.12142 0.0
C243 C 0.56413 0.36264 0.20259 0.0
C244 C 0.5238 0.24024 0.47271 0.0
C245 C 0.48767 0.19562 0.53741 0.0
C246 C 0.49754 0.15914 0.62291 0.0
C247 C 0.54393 0.16565 0.64491 0.0
C248 C 0.58066 0.20754 0.573 0.0
C249 C 0.57063 0.24475 0.48716 0.0
C250 C 0.53224 0.34867 0.44801 0.0
C251 C 0.52298 0.39303 0.39457 0.0
C252 C 0.54524 0.438 0.41923 0.0
C253 C 0.57485 0.43883 0.50393 0.0
C254 C 0.58196 0.3934 0.56253 0.0
C255 C 0.56095 0.34861 0.53429 0.0
Nd256 Nd 0.00202 0.02015 0.87893 0.0
Nd257 Nd 0.03714 0.0555 0.07528 0.0
C258 C 0.96075 0.96446 0.74901 0.0
C259 C 0.97094 0.92634 0.70582 0.0
C260 C 0.93614 0.89363 0.66186 0.0
C261 C 0.9463 0.85922 0.616 0.0
C262 C 0.99169 0.8568 0.61253 0.0
C263 C 0.02621 0.88924 0.65873 0.0
C264 C 0.01592 0.92336 0.70504 0.0
C265 C 0.09557 0.07596 0.84262 0.0
C266 C 0.0469 0.95173 0.07556 0.0
C267 C 0.07158 0.10945 0.21326 0.0
C268 C 0.06144 0.14742 0.25651 0.0
C269 C 0.08373 0.15983 0.34671 0.0
C270 C 0.07723 0.19774 0.38534 0.0
C271 C 0.04829 0.22445 0.33459 0.0
C272 C 0.02456 0.21075 0.24639 0.0
C273 C 0.03128 0.17268 0.20725 0.0
C274 C 0.94043 0.00773 0.09511 0.0
C275 C 0.01388 0.13375 0.86373 0.0
O276 O 0.94779 0.95078 0.85685 0.0
O277 O 0.9906 0.01151 0.71042 0.0
O278 O 0.06786 0.0776 0.76521 0.0
O279 O 0.07433 0.04327 0.93452 0.0
O280 O 0.01627 0.95151 1.00148 0.0
O281 O 0.06613 0.99191 0.1095 0.0
O282 O 0.08703 0.12444 0.10684 0.0
O283 O 0.0415 0.06247 0.24747 0.0
O284 O 0.96605 0.99863 0.17442 0.0
O285 O 0.9666 0.03915 0.00847 0.0
O286 O 0.04197 0.12795 0.94057 0.0
O287 O 0.98552 0.09429 0.83636 0.0
H288 H 0.90112 0.89505 0.66191 0.0
H289 H 0.91848 0.83455 0.58317 0.0
H290 H 0.06176 0.8895 0.65639 0.0
H291 H 0.04343 0.94816 0.7385 0.0
H292 H 0.10685 0.14068 0.3865 0.0
H293 H 0.09527 0.20642 0.45505 0.0
H294 H 0.00199 0.23044 0.20574 0.0
H295 H 0.01357 0.16355 0.13752 0.0
Nd296 Nd 0.52518 0.03091 0.89509 0.0
Nd297 Nd 0.53314 0.1061 0.0118 0.0
C298 C 0.51931 0.95609 0.81249 0.0
C299 C 0.55101 0.95966 0.7183 0.0
C300 C 0.57821 0.92836 0.7341 0.0
C301 C 0.61724 0.94105 0.65674 0.0
C302 C 0.62949 0.98537 0.56369 0.0
C303 C 0.60024 0.0142 0.54382 0.0
C304 C 0.5613 0.00139 0.6198 0.0
C305 C 0.55199 0.12965 0.74668 0.0
C306 C 0.62706 0.09438 0.94812 0.0
C307 C 0.51842 0.17505 0.08938 0.0
C308 C 0.47574 0.17036 0.15487 0.0
C309 C 0.45403 0.20663 0.1196 0.0
C310 C 0.41291 0.20119 0.18086 0.0
C311 C 0.39312 0.15966 0.27907 0.0
C312 C 0.41396 0.12238 0.31102 0.0
C313 C 0.45452 0.12749 0.24945 0.0
C314 C 0.52977 0.0132 0.1552 0.0
C315 C 0.42927 0.04576 0.96163 0.0
O316 O 0.53903 0.96011 0.90314 0.0
O317 O 0.49235 0.98327 0.78761 0.0
O318 O 0.57047 0.09663 0.73914 0.0
O319 O 0.52211 0.10997 0.83223 0.0
O320 O 0.5987 0.04871 0.94933 0.0
O321 O 0.61015 0.13057 0.94521 0.0
O322 O 0.51433 0.17547 0.98565 0.0
O323 O 0.54169 0.14646 0.13947 0.0
O324 O 0.55868 0.0571 0.15777 0.0
O325 O 0.5041 0.01899 0.07733 0.0
O326 O 0.45354 0.07133 0.02536 0.0
O327 O 0.44835 0.02445 0.90437 0.0
H328 H 0.57105 0.89613 0.80953 0.0
H329 H 0.63921 0.91804 0.6727 0.0
H330 H 0.60856 0.04794 0.4712 0.0
H331 H 0.54121 0.02641 0.60455 0.0
H332 H 0.46909 0.23934 0.04532 0.0
H333 H 0.3973 0.23016 0.15316 0.0
H334 H 0.40032 0.09034 0.38705 0.0
H335 H 0.46964 0.09808 0.27739 0.0
Nd336 Nd 0.49527 0.55963 0.05421 0.0
Nd337 Nd 0.56644 0.58529 0.85861 0.0
C338 C 0.42324 0.5477 0.19169 0.0
C339 C 0.41999 0.57368 0.27391 0.0
C340 C 0.38135 0.58856 0.28385 0.0
C341 C 0.38325 0.62347 0.34189 0.0
C342 C 0.42404 0.64399 0.38912 0.0
C343 C 0.46092 0.62567 0.38669 0.0
C344 C 0.459 0.59096 0.32936 0.0
C345 C 0.58508 0.58202 0.11238 0.0
C346 C 0.53825 0.67766 0.87766 0.0
C347 C 0.63278 0.59341 0.7104 0.0
C348 C 0.62715 0.56737 0.62541 0.0
C349 C 0.65494 0.53815 0.62183 0.0
C350 C 0.63896 0.49747 0.57787 0.0
C351 C 0.59529 0.48594 0.53598 0.0
C352 C 0.56964 0.51824 0.53134 0.0
C353 C 0.58564 0.55881 0.57468 0.0
C354 C 0.47385 0.55806 0.8127 0.0
C355 C 0.52588 0.46864 0.02943 0.0
O356 O 0.43208 0.57698 0.08742 0.0
O357 O 0.44841 0.51848 0.21425 0.0
O358 O 0.54772 0.55217 0.1807 0.0
O359 O 0.5744 0.60468 0.01994 0.0
O360 O 0.502 0.64136 0.94653 0.0
O361 O 0.57454 0.66728 0.84831 0.0
O362 O 0.62355 0.5618 0.81193 0.0
O363 O 0.61318 0.62775 0.69784 0.0
O364 O 0.50872 0.59181 0.74127 0.0
O365 O 0.48888 0.53714 0.89867 0.0
O366 O 0.56398 0.50572 0.97038 0.0
O367 O 0.48856 0.47899 0.05239 0.0
H368 H 0.35105 0.57569 0.24107 0.0
H369 H 0.35436 0.63701 0.34311 0.0
H370 H 0.49237 0.64026 0.42447 0.0
H371 H 0.48932 0.58015 0.32273 0.0
H372 H 0.68681 0.54385 0.66194 0.0
H373 H 0.65994 0.47395 0.58056 0.0
H374 H 0.5355 0.51035 0.50167 0.0
H375 H 0.56311 0.58026 0.57794 0.0
Nd376 Nd 0.01288 0.58354 0.87153 0.0
Nd377 Nd 0.01258 0.49939 0.07601 0.0
C378 C 0.98696 0.65556 0.7443 0.0
C379 C 0.94456 0.64121 0.68782 0.0
C380 C 0.93115 0.67705 0.60867 0.0
C381 C 0.89424 0.66076 0.54636 0.0
C382 C 0.86948 0.60809 0.56566 0.0
C383 C 0.88118 0.57263 0.65082 0.0
C384 C 0.91793 0.58904 0.71121 0.0
C385 C 0.98994 0.49582 0.80567 0.0
C386 C 0.91417 0.50589 0.03302 0.0
C387 C 0.04072 0.43437 0.22242 0.0
C388 C 0.0841 0.44824 0.27695 0.0
C389 C 0.12161 0.43333 0.25454 0.0
C390 C 0.16265 0.44689 0.30615 0.0
C391 C 0.16718 0.47691 0.37787 0.0
C392 C 0.13094 0.49428 0.39481 0.0
C393 C 0.08994 0.48021 0.34496 0.0
C394 C 0.01701 0.58718 0.12212 0.0
C395 C 0.11308 0.57395 0.91019 0.0
O396 O 0.97877 0.64098 0.85371 0.0
O397 O 0.02177 0.64453 0.70985 0.0
O398 O -0.00427 0.54081 0.73987 0.0
O399 O -0.00182 0.49847 0.90263 0.0
O400 O 0.94052 0.55271 0.97367 0.0
O401 O 0.93313 0.47077 0.07056 0.0
O402 O 0.04699 0.44147 0.11488 0.0
O403 O 0.00746 0.44924 0.24958 0.0
O404 O 0.9913 0.54145 0.1828 0.0
O405 O 0.04022 0.58613 0.03854 0.0
O406 O 0.0897 0.53471 0.99797 0.0
O407 O 0.09253 0.60346 0.84713 0.0
H408 H 0.94931 0.71715 0.5952 0.0
H409 H 0.88537 0.68914 0.48284 0.0
H410 H 0.86333 0.53182 0.66795 0.0
H411 H 0.92611 0.56039 0.7747 0.0
H412 H 0.11857 0.40984 0.20006 0.0
H413 H 0.19012 0.43275 0.29287 0.0
H414 H 0.13356 0.51715 0.45059 0.0
H415 H 0.06276 0.49433 0.36055 0.0
loop_
_geom_bond_atom_site_label_1
_geom_bond_atom_site_label_2
_geom_bond_distance
_geom_bond_site_symmetry_2
_ccdc_geom_bond_type
P0 O11 1.490 . S
P0 C14 1.812 . S
P0 C20 1.803 . S
P0 C26 1.819 1_554 S
H1 C15 0.941 . S
H2 C16 0.939 . S
H3 C18 0.940 . S
H4 C19 0.940 . S
H5 C21 0.939 . S
H6 C22 0.942 . S
H7 C24 0.940 . S
H8 C25 0.939 . S
H9 C27 0.941 1_554 S
H10 C31 0.939 . S
O11 P0 1.490 . S
H12 C28 0.939 . S
H13 C30 0.940 . S
C14 P0 1.812 . S
C14 C15 1.389 . S
C14 C19 1.391 . S
C15 H1 0.941 . S
C15 C14 1.389 . S
C15 C16 1.397 . S
C16 H2 0.939 . S
C16 C15 1.397 . S
C16 C17 1.378 . S
C17 C16 1.378 . S
C17 C18 1.378 . S
C18 H3 0.940 . S
C18 C17 1.378 . S
C18 C19 1.396 . S
C19 H4 0.940 . S
C19 C14 1.391 . S
C19 C18 1.396 . S
C20 P0 1.803 . S
C20 C21 1.378 1_554 S
C20 C25 1.400 . S
C21 H5 0.939 . S
C21 C20 1.378 1_556 S
C21 C22 1.361 . S
C22 H6 0.942 . S
C22 C21 1.361 . S
C22 C23 1.369 . S
C23 C22 1.369 . S
C23 C24 1.404 . S
C24 H7 0.940 . S
C24 C23 1.404 . S
C24 C25 1.389 1_556 S
C25 H8 0.939 . S
C25 C20 1.400 . S
C25 C24 1.389 1_554 S
C26 P0 1.819 1_556 S
C26 C27 1.391 . S
C26 C31 1.391 . S
C27 H9 0.941 1_556 S
C27 C26 1.391 . S
C27 C28 1.396 . S
C28 H12 0.939 . S
C28 C27 1.396 . S
C28 C29 1.397 . S
C29 C28 1.397 . S
C29 C30 1.385 . S
C30 H13 0.940 . S
C30 C29 1.385 . S
C30 C31 1.388 . S
C31 H10 0.939 . S
C31 C26 1.391 . S
C31 C30 1.388 . S
P32 O43 1.490 . S
P32 C46 1.812 1_455 S
P32 C52 1.803 1_455 S
P32 C58 1.819 1_455 S
H33 C47 0.941 . S
H34 C48 0.939 . S
H35 C50 0.940 . S
H36 C51 0.940 . S
H37 C53 0.939 . S
H38 C54 0.942 . S
H39 C56 0.940 . S
H40 C57 0.939 . S
H41 C59 0.941 1_554 S
H42 C63 0.939 . S
O43 P32 1.490 . S
H44 C60 0.939 1_455 S
H45 C62 0.940 . S
C46 P32 1.812 1_655 S
C46 C47 1.389 1_655 S
C46 C51 1.391 . S
C47 H33 0.941 . S
C47 C46 1.389 1_455 S
C47 C48 1.397 . S
C48 H34 0.939 . S
C48 C47 1.397 . S
C48 C49 1.378 1_455 S
C49 C48 1.378 1_655 S
C49 C50 1.378 . S
C50 H35 0.940 . S
C50 C49 1.378 . S
C50 C51 1.396 . S
C51 H36 0.940 . S
C51 C46 1.391 . S
C51 C50 1.396 . S
C52 P32 1.803 1_655 S
C52 C53 1.378 1_655 S
C52 C57 1.400 . S
C53 H37 0.939 . S
C53 C52 1.378 1_455 S
C53 C54 1.361 . S
C54 H38 0.942 . S
C54 C53 1.361 . S
C54 C55 1.369 1_455 S
C55 C54 1.369 1_655 S
C55 C56 1.404 . S
C56 H39 0.940 . S
C56 C55 1.404 . S
C56 C57 1.389 . S
C57 H40 0.939 . S
C57 C52 1.400 . S
C57 C56 1.389 . S
C58 P32 1.819 1_655 S
C58 C59 1.391 1_654 S
C58 C63 1.391 1_554 S
C59 H41 0.941 1_556 S
C59 C58 1.391 1_456 S
C59 C60 1.396 1_455 S
C60 H44 0.939 1_655 S
C60 C59 1.396 1_655 S
C60 C61 1.397 . S
C61 C60 1.397 . S
C61 C62 1.385 . S
C62 H45 0.940 . S
C62 C61 1.385 . S
C62 C63 1.388 . S
C63 H42 0.939 . S
C63 C58 1.391 1_556 S
C63 C62 1.388 . S
P64 O75 1.490 . S
P64 C78 1.812 1_545 S
P64 C84 1.803 1_545 S
P64 C90 1.819 1_544 S
H65 C79 0.941 . S
H66 C80 0.939 . S
H67 C82 0.940 . S
H68 C83 0.940 . S
H69 C85 0.939 . S
H70 C86 0.942 . S
H71 C88 0.940 . S
H72 C89 0.939 . S
H73 C91 0.941 . S
H74 C95 0.939 . S
O75 P64 1.490 . S
H76 C92 0.923 1_545 S
H77 C94 0.940 . S
C78 P64 1.812 1_565 S
C78 C79 1.389 1_565 S
C78 C83 1.391 . S
C79 H65 0.941 . S
C79 C78 1.389 1_545 S
C79 C80 1.397 . S
C80 H66 0.939 . S
C80 C79 1.397 . S
C80 C81 1.378 1_545 S
C81 C80 1.378 1_565 S
C81 C82 1.378 . S
C82 H67 0.940 . S
C82 C81 1.378 . S
C82 C83 1.396 . S
C83 H68 0.940 . S
C83 C78 1.391 . S
C83 C82 1.396 . S
C84 P64 1.803 1_565 S
C84 C85 1.378 1_564 S
C84 C89 1.400 . S
C85 H69 0.939 . S
C85 C84 1.378 1_546 S
C85 C86 1.361 . S
C86 H70 0.942 . S
C86 C85 1.361 . S
C86 C87 1.369 1_546 S
C87 C86 1.369 1_564 S
C87 C88 1.404 . S
C88 H71 0.940 . S
C88 C87 1.404 . S
C88 C89 1.389 . S
C89 H72 0.939 . S
C89 C84 1.400 . S
C89 C88 1.389 . S
C90 P64 1.819 1_566 S
C90 C91 1.391 1_565 S
C90 C95 1.391 . S
C91 H73 0.941 . S
C91 C90 1.391 1_545 S
C91 C92 1.390 1_545 S
C92 H76 0.923 1_565 S
C92 C91 1.390 1_565 S
C92 C93 1.420 . S
C93 C92 1.420 . S
C93 C94 1.385 . S
C94 H77 0.940 . S
C94 C93 1.385 . S
C94 C95 1.388 . S
C95 H74 0.939 . S
C95 C90 1.391 . S
C95 C94 1.388 . S
P96 O107 1.490 . S
P96 C110 1.812 . S
P96 C116 1.803 . S
P96 C122 1.819 . S
H97 C111 0.941 . S
H98 C112 0.939 . S
H99 C114 0.940 . S
H100 C115 0.940 . S
H101 C117 0.939 . S
H102 C118 0.942 . S
H103 C120 0.940 . S
H104 C121 0.939 . S
H105 C123 0.941 . S
H106 C127 0.939 . S
O107 P96 1.490 . S
H108 C124 0.939 . S
H109 C126 0.940 . S
C110 P96 1.812 . S
C110 C111 1.389 . S
C110 C115 1.391 . S
C111 H97 0.941 . S
C111 C110 1.389 . S
C111 C112 1.397 . S
C112 H98 0.939 . S
C112 C111 1.397 . S
C112 C113 1.378 . S
C113 C112 1.378 . S
C113 C114 1.378 . S
C114 H99 0.940 . S
C114 C113 1.378 . S
C114 C115 1.396 . S
C115 H100 0.940 . S
C115 C110 1.391 . S
C115 C114 1.396 . S
C116 P96 1.803 . S
C116 C117 1.378 . S
C116 C121 1.400 . S
C117 H101 0.939 . S
C117 C116 1.378 . S
C117 C118 1.361 1_565 S
C118 H102 0.942 . S
C118 C117 1.361 1_545 S
C118 C119 1.369 . S
C119 C118 1.369 . S
C119 C120 1.404 . S
C120 H103 0.940 . S
C120 C119 1.404 . S
C120 C121 1.389 1_545 S
C121 H104 0.939 . S
C121 C116 1.400 . S
C121 C120 1.389 1_565 S
C122 P96 1.819 . S
C122 C123 1.391 . S
C122 C127 1.391 . S
C123 H105 0.941 . S
C123 C122 1.391 . S
C123 C124 1.396 . S
C124 H108 0.939 . S
C124 C123 1.396 . S
C124 C125 1.397 . S
C125 C124 1.397 . S
C125 C126 1.385 . S
C126 H109 0.940 . S
C126 C125 1.385 . S
C126 C127 1.388 . S
C127 H106 0.939 . S
C127 C122 1.391 . S
C127 C126 1.388 . S
P128 O139 1.490 1_556 S
P128 C142 1.812 . S
P128 C148 1.803 . S
P128 C154 1.819 1_556 S
H129 C143 0.941 . S
H130 C144 0.939 . S
H131 C146 0.940 . S
H132 C147 0.940 . S
H133 C149 0.939 . S
H134 C150 0.942 . S
H135 C152 0.940 . S
H136 C153 0.939 . S
H137 C155 0.941 . S
H138 C159 0.939 . S
O139 P128 1.490 1_554 S
H140 C156 0.939 . S
H141 C158 0.940 . S
C142 P128 1.812 . S
C142 C143 1.389 . S
C142 C147 1.391 . S
C143 H129 0.941 . S
C143 C142 1.389 . S
C143 C144 1.397 . S
C144 H130 0.939 . S
C144 C143 1.397 . S
C144 C145 1.378 . S
C145 C144 1.378 . S
C145 C146 1.378 . S
C146 H131 0.940 . S
C146 C145 1.378 . S
C146 C147 1.396 . S
C147 H132 0.940 . S
C147 C142 1.391 . S
C147 C146 1.396 . S
C148 P128 1.803 . S
C148 C149 1.378 1_556 S
C148 C153 1.400 . S
C149 H133 0.939 . S
C149 C148 1.378 1_554 S
C149 C150 1.361 . S
C150 H134 0.942 . S
C150 C149 1.361 . S
C150 C151 1.369 . S
C151 C150 1.369 . S
C151 C152 1.404 1_554 S
C152 H135 0.940 . S
C152 C151 1.404 1_556 S
C152 C153 1.389 . S
C153 H136 0.939 . S
C153 C148 1.400 . S
C153 C152 1.389 . S
C154 P128 1.819 1_554 S
C154 C155 1.391 . S
C154 C159 1.391 . S
C155 H137 0.941 . S
C155 C154 1.391 . S
C155 C156 1.396 . S
C156 H140 0.939 . S
C156 C155 1.396 . S
C156 C157 1.397 . S
C157 C156 1.397 . S
C157 C158 1.385 . S
C158 H141 0.940 . S
C158 C157 1.385 . S
C158 C159 1.388 . S
C159 H138 0.939 . S
C159 C154 1.391 . S
C159 C158 1.388 . S
P160 O171 1.490 . S
P160 C174 1.812 . S
P160 C180 1.803 . S
P160 C186 1.819 . S
H161 C175 0.941 . S
H162 C176 0.939 . S
H163 C178 0.940 . S
H164 C179 0.940 . S
H165 C181 0.939 . S
H166 C182 0.942 . S
H167 C184 0.940 . S
H168 C185 0.939 . S
H169 C187 0.941 . S
H170 C191 0.939 . S
O171 P160 1.490 . S
H172 C188 0.939 . S
H173 C190 0.940 . S
C174 P160 1.812 . S
C174 C175 1.389 . S
C174 C179 1.391 . S
C175 H161 0.941 . S
C175 C174 1.389 . S
C175 C176 1.397 . S
C176 H162 0.939 . S
C176 C175 1.397 . S
C176 C177 1.378 . S
C177 C176 1.378 . S
C177 C178 1.378 . S
C178 H163 0.940 . S
C178 C177 1.378 . S
C178 C179 1.396 . S
C179 H164 0.940 . S
C179 C174 1.391 . S
C179 C178 1.396 . S
C180 P160 1.803 . S
C180 C181 1.378 . S
C180 C185 1.400 . S
C181 H165 0.939 . S
C181 C180 1.378 . S
C181 C182 1.361 . S
C182 H166 0.942 . S
C182 C181 1.361 . S
C182 C183 1.369 . S
C183 C182 1.369 . S
C183 C184 1.404 . S
C184 H167 0.940 . S
C184 C183 1.404 . S
C184 C185 1.389 . S
C185 H168 0.939 . S
C185 C180 1.400 . S
C185 C184 1.389 . S
C186 P160 1.819 . S
C186 C187 1.391 . S
C186 C191 1.391 . S
C187 H169 0.941 . S
C187 C186 1.391 . S
C187 C188 1.396 . S
C188 H172 0.939 . S
C188 C187 1.396 . S
C188 C189 1.397 1_556 S
C189 C188 1.397 1_554 S
C189 C190 1.385 . S
C190 H173 0.940 . S
C190 C189 1.385 . S
C190 C191 1.388 1_554 S
C191 H170 0.939 . S
C191 C186 1.391 . S
C191 C190 1.388 1_556 S
P192 O203 1.490 . S
P192 C206 1.812 . S
P192 C212 1.803 . S
P192 C218 1.819 . S
H193 C207 0.941 . S
H194 C208 0.939 . S
H195 C210 0.940 . S
H196 C211 0.940 . S
H197 C213 0.939 . S
H198 C214 0.942 . S
H199 C216 0.940 . S
H200 C217 0.939 . S
H201 C219 0.941 . S
H202 C223 0.939 . S
O203 P192 1.490 . S
H204 C220 0.939 . S
H205 C222 0.940 . S
C206 P192 1.812 . S
C206 C207 1.389 . S
C206 C211 1.391 . S
C207 H193 0.941 . S
C207 C206 1.389 . S
C207 C208 1.397 . S
C208 H194 0.939 . S
C208 C207 1.397 . S
C208 C209 1.378 . S
C209 C208 1.378 . S
C209 C210 1.378 . S
C210 H195 0.940 . S
C210 C209 1.378 . S
C210 C211 1.396 . S
C211 H196 0.940 . S
C211 C206 1.391 . S
C211 C210 1.396 . S
C212 P192 1.803 . S
C212 C213 1.378 . S
C212 C217 1.400 . S
C213 H197 0.939 . S
C213 C212 1.378 . S
C213 C214 1.361 . S
C214 H198 0.942 . S
C214 C213 1.361 . S
C214 C215 1.369 . S
C215 C214 1.369 . S
C215 C216 1.404 . S
C216 H199 0.940 . S
C216 C215 1.404 . S
C216 C217 1.389 . S
C217 H200 0.939 . S
C217 C212 1.400 . S
C217 C216 1.389 . S
C218 P192 1.819 . S
C218 C219 1.391 . S
C218 C223 1.391 . S
C219 H201 0.941 . S
C219 C218 1.391 . S
C219 C220 1.396 . S
C220 H204 0.939 . S
C220 C219 1.396 . S
C220 C221 1.397 1_556 S
C221 C220 1.397 1_554 S
C221 C222 1.385 . S
C222 H205 0.940 . S
C222 C221 1.385 . S
C222 C223 1.388 1_554 S
C223 H202 0.939 . S
C223 C218 1.391 . S
C223 C222 1.388 1_556 S
P224 O235 1.490 . S
P224 C238 1.812 . S
P224 C244 1.803 . S
P224 C250 1.819 . S
H225 C239 0.941 . S
H226 C240 0.939 . S
H227 C242 0.940 . S
H228 C243 0.940 . S
H229 C245 0.939 . S
H230 C246 0.942 . S
H231 C248 0.940 . S
H232 C249 0.939 . S
H233 C251 0.941 . S
H234 C255 0.939 . S
O235 P224 1.490 . S
H236 C252 0.939 . S
H237 C254 0.940 . S
C238 P224 1.812 . S
C238 C239 1.389 . S
C238 C243 1.391 . S
C239 H225 0.941 . S
C239 C238 1.389 . S
C239 C240 1.397 . S
C240 H226 0.939 . S
C240 C239 1.397 . S
C240 C241 1.378 . S
C241 C240 1.378 . S
C241 C242 1.378 . S
C242 H227 0.940 . S
C242 C241 1.378 . S
C242 C243 1.396 . S
C243 H228 0.940 . S
C243 C238 1.391 . S
C243 C242 1.396 . S
C244 P224 1.803 . S
C244 C245 1.378 . S
C244 C249 1.400 . S
C245 H229 0.939 . S
C245 C244 1.378 . S
C245 C246 1.361 . S
C246 H230 0.942 . S
C246 C245 1.361 . S
C246 C247 1.369 . S
C247 C246 1.369 . S
C247 C248 1.404 . S
C248 H231 0.940 . S
C248 C247 1.404 . S
C248 C249 1.389 . S
C249 H232 0.939 . S
C249 C244 1.400 . S
C249 C248 1.389 . S
C250 P224 1.819 . S
C250 C251 1.391 . S
C250 C255 1.391 . S
C251 H233 0.941 . S
C251 C250 1.391 . S
C251 C252 1.396 . S
C252 H236 0.939 . S
C252 C251 1.396 . S
C252 C253 1.397 . S
C253 C252 1.397 . S
C253 C254 1.385 . S
C254 H237 0.940 . S
C254 C253 1.385 . S
C254 C255 1.388 . S
C255 H234 0.939 . S
C255 C250 1.391 . S
C255 C254 1.388 . S
Nd256 C258 2.837 1_545 S
Nd256 O276 2.500 1_445 S
Nd256 O277 2.492 . S
Nd256 O278 2.487 . S
Nd256 O279 2.682 . S
Nd256 O280 2.410 1_545 S
Nd256 O285 2.414 1_455 S
Nd256 O287 2.424 . S
Nd257 C267 2.836 . S
Nd257 O279 2.414 1_554 S
Nd257 O281 2.424 1_545 S
Nd257 O282 2.500 . S
Nd257 O283 2.492 . S
Nd257 O284 2.487 1_455 S
Nd257 O285 2.682 1_454 S
Nd257 O286 2.410 1_554 S
C258 Nd256 2.837 1_565 S
C258 C259 1.498 1_455 S
C258 O276 1.246 1_455 S
C258 O277 1.251 1_565 S
C259 C258 1.498 1_655 S
C259 C260 1.366 . S
C259 C264 1.407 1_655 S
C260 C259 1.366 . S
C260 C261 1.392 . S
C260 H288 0.930 . S
C261 C260 1.392 . S
C261 C262 1.398 . S
C261 H289 0.929 . S
C262 C261 1.398 . S
C262 C263 1.352 1_655 S
C263 C262 1.352 1_455 S
C263 C264 1.384 . S
C263 H290 0.930 . S
C264 C259 1.407 1_455 S
C264 C263 1.384 . S
C264 H291 0.929 . S
C265 O278 1.241 . S
C265 O279 1.273 . S
C266 O280 1.251 1_554 S
C266 O281 1.268 . S
C267 Nd257 2.836 . S
C267 C268 1.498 . S
C267 O282 1.258 . S
C267 O283 1.239 . S
C268 C267 1.498 . S
C268 C269 1.366 . S
C268 C273 1.407 . S
C269 C268 1.366 . S
C269 C270 1.392 . S
C269 H292 0.930 . S
C270 C269 1.392 . S
C270 C271 1.398 . S
C270 H293 0.929 . S
C271 C270 1.398 . S
C271 C272 1.352 . S
C272 C271 1.352 . S
C272 C273 1.384 . S
C272 H294 0.930 . S
C273 C268 1.407 . S
C273 C272 1.384 . S
C273 H295 0.929 . S
C274 O284 1.241 . S
C274 O285 1.273 1_554 S
C275 O286 1.251 . S
C275 O287 1.268 . S
O276 Nd256 2.500 1_665 S
O276 C258 1.246 1_655 S
O277 Nd256 2.492 . S
O277 C258 1.251 1_545 S
O278 Nd256 2.487 . S
O278 C265 1.241 . S
O279 Nd256 2.682 . S
O279 Nd257 2.414 1_556 S
O279 C265 1.273 . S
O280 Nd256 2.410 1_565 S
O280 C266 1.251 1_556 S
O281 Nd257 2.424 1_565 S
O281 C266 1.268 . S
O282 Nd257 2.500 . S
O282 C267 1.258 . S
O283 Nd257 2.492 . S
O283 C267 1.239 . S
O284 Nd257 2.487 1_655 S
O284 C274 1.241 . S
O285 Nd256 2.414 1_655 S
O285 Nd257 2.682 1_656 S
O285 C274 1.273 1_556 S
O286 Nd257 2.410 1_556 S
O286 C275 1.251 . S
O287 Nd256 2.424 . S
O287 C275 1.268 . S
H288 C260 0.930 . S
H289 C261 0.929 . S
H290 C263 0.930 . S
H291 C264 0.929 . S
H292 C269 0.930 . S
H293 C270 0.929 . S
H294 C272 0.930 . S
H295 C273 0.929 . S
Nd296 C298 2.836 1_545 S
Nd296 O316 2.500 1_545 S
Nd296 O317 2.492 . S
Nd296 O318 2.487 . S
Nd296 O319 2.682 . S
Nd296 O320 2.410 . S
Nd296 O325 2.414 1_556 S
Nd296 O327 2.424 . S
Nd297 C307 2.836 . S
Nd297 O319 2.414 1_554 S
Nd297 O321 2.424 . S
Nd297 O322 2.500 . S
Nd297 O323 2.492 . S
Nd297 O324 2.487 . S
Nd297 O325 2.682 . S
Nd297 O326 2.410 . S
C298 Nd296 2.836 1_565 S
C298 C299 1.498 . S
C298 O316 1.258 . S
C298 O317 1.239 1_565 S
C299 C298 1.498 . S
C299 C300 1.366 . S
C299 C304 1.407 . S
C300 C299 1.366 . S
C300 C301 1.392 . S
C300 H328 0.930 . S
C301 C300 1.392 . S
C301 C302 1.398 . S
C301 H329 0.929 . S
C302 C301 1.398 . S
C302 C303 1.352 . S
C303 C302 1.352 . S
C303 C304 1.384 . S
C303 H330 0.930 . S
C304 C299 1.407 . S
C304 C303 1.384 . S
C304 H331 0.929 . S
C305 O318 1.241 . S
C305 O319 1.273 . S
C306 O320 1.251 . S
C306 O321 1.268 1_556 S
C307 Nd297 2.836 . S
C307 C308 1.498 . S
C307 O322 1.258 . S
C307 O323 1.239 . S
C308 C307 1.498 . S
C308 C309 1.366 . S
C308 C313 1.407 . S
C309 C308 1.366 . S
C309 C310 1.392 . S
C309 H332 0.930 . S
C310 C309 1.392 . S
C310 C311 1.398 . S
C310 H333 0.929 . S
C311 C310 1.398 . S
C311 C312 1.352 . S
C312 C311 1.352 . S
C312 C313 1.384 . S
C312 H334 0.930 . S
C313 C308 1.407 . S
C313 C312 1.384 . S
C313 H335 0.929 . S
C314 O324 1.241 1_565 S
C314 O325 1.273 1_565 S
C315 O326 1.251 1_556 S
C315 O327 1.268 . S
O316 Nd296 2.500 1_565 S
O316 C298 1.258 . S
O317 Nd296 2.492 . S
O317 C298 1.239 1_545 S
O318 Nd296 2.487 . S
O318 C305 1.241 . S
O319 Nd296 2.682 . S
O319 Nd297 2.414 1_556 S
O319 C305 1.273 . S
O320 Nd296 2.410 . S
O320 C306 1.251 . S
O321 Nd297 2.424 . S
O321 C306 1.268 1_554 S
O322 Nd297 2.500 . S
O322 C307 1.258 . S
O323 Nd297 2.492 . S
O323 C307 1.239 . S
O324 Nd297 2.487 . S
O324 C314 1.241 1_545 S
O325 Nd296 2.414 1_554 S
O325 Nd297 2.682 . S
O325 C314 1.273 1_545 S
O326 Nd297 2.410 . S
O326 C315 1.251 1_554 S
O327 Nd296 2.424 . S
O327 C315 1.268 . S
H328 C300 0.930 . S
H329 C301 0.929 . S
H330 C303 0.930 . S
H331 C304 0.929 . S
H332 C309 0.930 . S
H333 C310 0.929 . S
H334 C312 0.930 . S
H335 C313 0.929 . S
Nd336 C338 2.836 . S
Nd336 O356 2.500 . S
Nd336 O357 2.492 . S
Nd336 O358 2.487 . S
Nd336 O359 2.682 1_554 S
Nd336 O360 2.410 1_554 S
Nd336 O365 2.414 1_554 S
Nd336 O367 2.424 . S
Nd337 C347 2.836 . S
Nd337 O359 2.414 . S
Nd337 O361 2.424 . S
Nd337 O362 2.500 . S
Nd337 O363 2.492 . S
Nd337 O364 2.487 . S
Nd337 O365 2.682 . S
Nd337 O366 2.410 . S
C338 Nd336 2.836 . S
C338 C339 1.498 . S
C338 O356 1.258 . S
C338 O357 1.239 . S
C339 C338 1.498 . S
C339 C340 1.366 . S
C339 C344 1.407 . S
C340 C339 1.366 . S
C340 C341 1.392 . S
C340 H368 0.930 . S
C341 C340 1.392 . S
C341 C342 1.398 . S
C341 H369 0.929 . S
C342 C341 1.398 . S
C342 C343 1.352 . S
C343 C342 1.352 . S
C343 C344 1.384 . S
C343 H370 0.930 . S
C344 C339 1.407 . S
C344 C343 1.384 . S
C344 H371 0.929 . S
C345 O358 1.241 1_556 S
C345 O359 1.273 . S
C346 O360 1.251 . S
C346 O361 1.268 . S
C347 Nd337 2.836 . S
C347 C348 1.498 . S
C347 O362 1.258 . S
C347 O363 1.239 . S
C348 C347 1.498 . S
C348 C349 1.366 . S
C348 C353 1.407 . S
C349 C348 1.366 . S
C349 C350 1.392 . S
C349 H372 0.930 . S
C350 C349 1.392 . S
C350 C351 1.398 . S
C350 H373 0.929 . S
C351 C350 1.398 . S
C351 C352 1.352 . S
C352 C351 1.352 . S
C352 C353 1.384 . S
C352 H374 0.930 . S
C353 C348 1.407 . S
C353 C352 1.384 . S
C353 H375 0.929 . S
C354 O364 1.241 . S
C354 O365 1.273 . S
C355 O366 1.251 1_554 S
C355 O367 1.268 . S
O356 Nd336 2.500 . S
O356 C338 1.258 . S
O357 Nd336 2.492 . S
O357 C338 1.239 . S
O358 Nd336 2.487 . S
O358 C345 1.241 1_554 S
O359 Nd336 2.682 1_556 S
O359 Nd337 2.414 . S
O359 C345 1.273 . S
O360 Nd336 2.410 1_556 S
O360 C346 1.251 . S
O361 Nd337 2.424 . S
O361 C346 1.268 . S
O362 Nd337 2.500 . S
O362 C347 1.258 . S
O363 Nd337 2.492 . S
O363 C347 1.239 . S
O364 Nd337 2.487 . S
O364 C354 1.241 . S
O365 Nd336 2.414 1_556 S
O365 Nd337 2.682 . S
O365 C354 1.273 . S
O366 Nd337 2.410 . S
O366 C355 1.251 1_556 S
O367 Nd336 2.424 . S
O367 C355 1.268 . S
H368 C340 0.930 . S
H369 C341 0.929 . S
H370 C343 0.930 . S
H371 C344 0.929 . S
H372 C349 0.930 . S
H373 C350 0.929 . S
H374 C352 0.930 . S
H375 C353 0.929 . S
Nd376 C378 2.836 1_455 S
Nd376 O396 2.500 1_455 S
Nd376 O397 2.492 1_455 S
Nd376 O398 2.487 . S
Nd376 O399 2.682 . S
Nd376 O400 2.410 1_455 S
Nd376 O405 2.414 . S
Nd376 O407 2.424 . S
Nd377 C387 2.836 . S
Nd377 O399 2.414 1_554 S
Nd377 O401 2.424 1_455 S
Nd377 O402 2.500 . S
Nd377 O403 2.492 . S
Nd377 O404 2.487 . S
Nd377 O405 2.682 1_554 S
Nd377 O406 2.410 . S
C378 Nd376 2.836 1_655 S
C378 C379 1.498 . S
C378 O396 1.258 . S
C378 O397 1.239 . S
C379 C378 1.498 . S
C379 C380 1.366 . S
C379 C384 1.407 . S
C380 C379 1.366 . S
C380 C381 1.392 . S
C380 H408 0.930 . S
C381 C380 1.392 . S
C381 C382 1.398 . S
C381 H409 0.929 . S
C382 C381 1.398 . S
C382 C383 1.352 . S
C383 C382 1.352 . S
C383 C384 1.384 . S
C383 H410 0.930 . S
C384 C379 1.407 . S
C384 C383 1.384 . S
C384 H411 0.929 . S
C385 O398 1.241 . S
C385 O399 1.273 . S
C386 O400 1.251 . S
C386 O401 1.268 1_556 S
C387 Nd377 2.836 . S
C387 C388 1.498 . S
C387 O402 1.258 . S
C387 O403 1.239 . S
C388 C387 1.498 . S
C388 C389 1.366 . S
C388 C393 1.407 . S
C389 C388 1.366 . S
C389 C390 1.392 . S
C389 H412 0.930 . S
C390 C389 1.392 . S
C390 C391 1.398 . S
C390 H413 0.929 . S
C391 C390 1.398 . S
C391 C392 1.352 . S
C392 C391 1.352 . S
C392 C393 1.384 . S
C392 H414 0.930 . S
C393 C388 1.407 . S
C393 C392 1.384 . S
C393 H415 0.929 . S
C394 O404 1.241 . S
C394 O405 1.273 1_554 S
C395 O406 1.251 1_556 S
C395 O407 1.268 . S
O396 Nd376 2.500 1_655 S
O396 C378 1.258 . S
O397 Nd376 2.492 1_655 S
O397 C378 1.239 . S
O398 Nd376 2.487 . S
O398 C385 1.241 . S
O399 Nd376 2.682 . S
O399 Nd377 2.414 1_556 S
O399 C385 1.273 . S
O400 Nd376 2.410 1_655 S
O400 C386 1.251 . S
O401 Nd377 2.424 1_655 S
O401 C386 1.268 1_554 S
O402 Nd377 2.500 . S
O402 C387 1.258 . S
O403 Nd377 2.492 . S
O403 C387 1.239 . S
O404 Nd377 2.487 . S
O404 C394 1.241 . S
O405 Nd376 2.414 . S
O405 Nd377 2.682 1_556 S
O405 C394 1.273 1_556 S
O406 Nd377 2.410 . S
O406 C395 1.251 1_554 S
O407 Nd376 2.424 . S
O407 C395 1.268 . S
H408 C380 0.930 . S
H409 C381 0.929 . S
H410 C383 0.930 . S
H411 C384 0.929 . S
H412 C389 0.930 . S
H413 C390 0.929 . S
H414 C392 0.930 . S
H415 C393 0.929 . S
C215 C265 2.771 . S
C305 C247 3.831 . S
C354 C151 1.482 1_556 S
C385 C183 2.892 . S
C274 C87 2.322 1_545 S
C119 C314 3.564 1_545 S
C23 C345 1.479 . S
C55 C394 2.464 1_655 S
C275 C189 3.124 1_556 S
C315 C221 4.035 1_556 S
C351 C253 1.040 . S
C157 C395 3.083 1_554 S
C61 C266 2.793 1_656 S
C306 C93 3.563 1_545 S
C342 C125 0.681 . S
C29 C386 2.859 . S
C177 C271 2.329 . S
C209 C311 2.256 . S
C355 C241 4.289 . S
C391 C145 1.869 . S
C49 C262 2.239 . S
C302 C81 2.522 . S
C346 C113 4.191 . S
C17 C382 2.208 . S
